Coordinates from ORCA-job 4-MeO-Ph-N2-OH-B3LYPG-6-31G_dp-MTMO-d009-169-n800
 OpenBabel09051907473D

 19 18  0  0  0  0  0  0  0  0999 V2000
   -1.3667   -2.4005   -0.2241 C   0  0  0  0  0  0  0  0  0  0  0  0
   -0.0258   -2.1564   -0.4831 C   0  0  0  0  0  0  0  0  0  0  0  0
    0.4238   -0.8447   -0.6883 C   0  0  0  0  0  0  0  0  0  0  0  0
   -0.4886    0.2070   -0.6305 C   0  0  0  0  0  0  0  0  0  0  0  0
   -1.8429   -0.0360   -0.3695 C   0  0  0  0  0  0  0  0  0  0  0  0
   -2.2886   -1.3438   -0.1645 C   0  0  0  0  0  0  0  0  0  0  0  0
   -1.7281   -3.4110   -0.0620 H   0  0  0  0  0  0  0  0  0  0  0  0
    0.6904   -2.9701   -0.5308 H   0  0  0  0  0  0  0  0  0  0  0  0
   -0.1517    1.2296   -0.7902 H   0  0  0  0  0  0  0  0  0  0  0  0
   -2.5275    0.8030   -0.3315 H   0  0  0  0  0  0  0  0  0  0  0  0
    4.6854    5.1079   -1.0135 N   0  0  0  0  0  0  0  0  0  0  0  0
    5.3732    5.9702   -0.9441 N   0  0  0  0  0  0  0  0  0  0  0  0
   -3.5862   -1.6988    0.0972 O   0  0  0  0  0  0  0  0  0  0  0  0
   -4.5543   -0.6687    0.1635 C   0  0  0  0  0  0  0  0  0  0  0  0
   -5.5061   -1.1585    0.3756 H   0  0  0  0  0  0  0  0  0  0  0  0
   -4.6357   -0.1235   -0.7871 H   0  0  0  0  0  0  0  0  0  0  0  0
   -4.3329    0.0485    0.9656 H   0  0  0  0  0  0  0  0  0  0  0  0
    1.7603   -0.6663   -0.9389 O   0  0  0  0  0  0  0  0  0  0  0  0
    1.9341    0.2766   -1.0541 H   0  0  0  0  0  0  0  0  0  0  0  0
  1  6  1  0  0  0  0
  1  7  1  0  0  0  0
  2  1  2  0  0  0  0
  3  4  2  0  0  0  0
  3  2  1  0  0  0  0
  4  5  1  0  0  0  0
  5 10  1  0  0  0  0
  5  6  2  0  0  0  0
  6 13  1  0  0  0  0
  8  2  1  0  0  0  0
  9  4  1  0  0  0  0
 11 12  3  0  0  0  0
 13 14  1  0  0  0  0
 14 15  1  0  0  0  0
 14 17  1  0  0  0  0
 16 14  1  0  0  0  0
 18  3  1  0  0  0  0
 19 18  1  0  0  0  0
M  END
