Coordinates from ORCA-job 4-MeO-Ph-N2-OH-B3LYPG-6-31G_dp-MTMO-d009-169-n800
 OpenBabel09051907473D

 19 18  0  0  0  0  0  0  0  0999 V2000
   -1.1256   -2.1696   -0.2536 C   0  0  0  0  0  0  0  0  0  0  0  0
    0.1837   -1.7687   -0.4772 C   0  0  0  0  0  0  0  0  0  0  0  0
    0.4862   -0.4093   -0.6372 C   0  0  0  0  0  0  0  0  0  0  0  0
   -0.5402    0.5312   -0.5710 C   0  0  0  0  0  0  0  0  0  0  0  0
   -1.8629    0.1298   -0.3451 C   0  0  0  0  0  0  0  0  0  0  0  0
   -2.1615   -1.2252   -0.1849 C   0  0  0  0  0  0  0  0  0  0  0  0
   -1.3734   -3.2187   -0.1262 H   0  0  0  0  0  0  0  0  0  0  0  0
    0.9884   -2.4947   -0.5312 H   0  0  0  0  0  0  0  0  0  0  0  0
   -0.3181    1.5893   -0.6967 H   0  0  0  0  0  0  0  0  0  0  0  0
   -2.6389    0.8844   -0.2983 H   0  0  0  0  0  0  0  0  0  0  0  0
    3.9863    3.5572   -1.0421 N   0  0  0  0  0  0  0  0  0  0  0  0
    4.8227    4.2795   -1.0358 N   0  0  0  0  0  0  0  0  0  0  0  0
   -3.4155   -1.7311    0.0406 O   0  0  0  0  0  0  0  0  0  0  0  0
   -4.4941   -0.8184    0.1161 C   0  0  0  0  0  0  0  0  0  0  0  0
   -5.3886   -1.4180    0.2934 H   0  0  0  0  0  0  0  0  0  0  0  0
   -4.6196   -0.2557   -0.8193 H   0  0  0  0  0  0  0  0  0  0  0  0
   -4.3693   -0.1063    0.9435 H   0  0  0  0  0  0  0  0  0  0  0  0
    1.7985   -0.0756   -0.8533 O   0  0  0  0  0  0  0  0  0  0  0  0
    1.8740    0.8842   -0.9320 H   0  0  0  0  0  0  0  0  0  0  0  0
  1  6  1  0  0  0  0
  1  7  1  0  0  0  0
  2  1  2  0  0  0  0
  3  4  2  0  0  0  0
  3  2  1  0  0  0  0
  4  5  1  0  0  0  0
  5 10  1  0  0  0  0
  5  6  2  0  0  0  0
  6 13  1  0  0  0  0
  8  2  1  0  0  0  0
  9  4  1  0  0  0  0
 11 12  3  0  0  0  0
 13 14  1  0  0  0  0
 14 15  1  0  0  0  0
 14 17  1  0  0  0  0
 16 14  1  0  0  0  0
 18  3  1  0  0  0  0
 19 18  1  0  0  0  0
M  END
