Coordinates from ORCA-job 4-MeO-Ph-N2-OH-B3LYPG-6-31G_dp-MTMO-d009-169-n800
 OpenBabel09051907473D

 19 18  0  0  0  0  0  0  0  0999 V2000
   -1.5333   -2.5571   -0.2233 C   0  0  0  0  0  0  0  0  0  0  0  0
   -0.1864   -2.3410   -0.4766 C   0  0  0  0  0  0  0  0  0  0  0  0
    0.2933   -1.0379   -0.6679 C   0  0  0  0  0  0  0  0  0  0  0  0
   -0.5951    0.0337   -0.6022 C   0  0  0  0  0  0  0  0  0  0  0  0
   -1.9553   -0.1810   -0.3470 C   0  0  0  0  0  0  0  0  0  0  0  0
   -2.4310   -1.4802   -0.1558 C   0  0  0  0  0  0  0  0  0  0  0  0
   -1.9180   -3.5605   -0.0722 H   0  0  0  0  0  0  0  0  0  0  0  0
    0.5112   -3.1703   -0.5306 H   0  0  0  0  0  0  0  0  0  0  0  0
   -0.2346    1.0498   -0.7509 H   0  0  0  0  0  0  0  0  0  0  0  0
   -2.6209    0.6729   -0.3030 H   0  0  0  0  0  0  0  0  0  0  0  0
    5.7832    6.3938   -1.1167 N   0  0  0  0  0  0  0  0  0  0  0  0
    6.5127    7.2239   -1.0944 N   0  0  0  0  0  0  0  0  0  0  0  0
   -3.7370   -1.8083    0.0994 O   0  0  0  0  0  0  0  0  0  0  0  0
   -4.6815   -0.7570    0.1740 C   0  0  0  0  0  0  0  0  0  0  0  0
   -5.6445   -1.2268    0.3810 H   0  0  0  0  0  0  0  0  0  0  0  0
   -4.7494   -0.2016   -0.7717 H   0  0  0  0  0  0  0  0  0  0  0  0
   -4.4447   -0.0523    0.9828 H   0  0  0  0  0  0  0  0  0  0  0  0
    1.6343   -0.8876   -0.9135 O   0  0  0  0  0  0  0  0  0  0  0  0
    1.8293    0.0519   -1.0217 H   0  0  0  0  0  0  0  0  0  0  0  0
  1  6  1  0  0  0  0
  1  7  1  0  0  0  0
  2  1  2  0  0  0  0
  3  4  2  0  0  0  0
  3  2  1  0  0  0  0
  4  5  1  0  0  0  0
  5 10  1  0  0  0  0
  5  6  2  0  0  0  0
  6 13  1  0  0  0  0
  8  2  1  0  0  0  0
  9  4  1  0  0  0  0
 11 12  3  0  0  0  0
 13 14  1  0  0  0  0
 14 15  1  0  0  0  0
 14 17  1  0  0  0  0
 16 14  1  0  0  0  0
 18  3  1  0  0  0  0
 19 18  1  0  0  0  0
M  END
