Coordinates from ORCA-job 4-MeO-Ph-N2-OH-B3LYPG-6-31G_dp-MTMO-d009-169-n800
 OpenBabel09051907473D

 19 18  0  0  0  0  0  0  0  0999 V2000
   -1.1341   -2.1762   -0.2527 C   0  0  0  0  0  0  0  0  0  0  0  0
    0.1753   -1.7755   -0.4762 C   0  0  0  0  0  0  0  0  0  0  0  0
    0.4779   -0.4161   -0.6360 C   0  0  0  0  0  0  0  0  0  0  0  0
   -0.5483    0.5245   -0.5698 C   0  0  0  0  0  0  0  0  0  0  0  0
   -1.8711    0.1233   -0.3441 C   0  0  0  0  0  0  0  0  0  0  0  0
   -2.1699   -1.2316   -0.1839 C   0  0  0  0  0  0  0  0  0  0  0  0
   -1.3820   -3.2252   -0.1254 H   0  0  0  0  0  0  0  0  0  0  0  0
    0.9798   -2.5016   -0.5302 H   0  0  0  0  0  0  0  0  0  0  0  0
   -0.3261    1.5827   -0.6953 H   0  0  0  0  0  0  0  0  0  0  0  0
   -2.6470    0.8780   -0.2973 H   0  0  0  0  0  0  0  0  0  0  0  0
    4.0546    3.6158   -1.0513 N   0  0  0  0  0  0  0  0  0  0  0  0
    4.8964    4.3318   -1.0447 N   0  0  0  0  0  0  0  0  0  0  0  0
   -3.4239   -1.7374    0.0414 O   0  0  0  0  0  0  0  0  0  0  0  0
   -4.5025   -0.8246    0.1171 C   0  0  0  0  0  0  0  0  0  0  0  0
   -5.3970   -1.4241    0.2943 H   0  0  0  0  0  0  0  0  0  0  0  0
   -4.6278   -0.2618   -0.8183 H   0  0  0  0  0  0  0  0  0  0  0  0
   -4.3775   -0.1126    0.9445 H   0  0  0  0  0  0  0  0  0  0  0  0
    1.7903   -0.0823   -0.8519 O   0  0  0  0  0  0  0  0  0  0  0  0
    1.8650    0.8775   -0.9305 H   0  0  0  0  0  0  0  0  0  0  0  0
  1  6  1  0  0  0  0
  1  7  1  0  0  0  0
  2  1  2  0  0  0  0
  3  4  2  0  0  0  0
  3  2  1  0  0  0  0
  4  5  1  0  0  0  0
  5 10  1  0  0  0  0
  5  6  2  0  0  0  0
  6 13  1  0  0  0  0
  8  2  1  0  0  0  0
  9  4  1  0  0  0  0
 11 12  3  0  0  0  0
 13 14  1  0  0  0  0
 14 15  1  0  0  0  0
 14 17  1  0  0  0  0
 16 14  1  0  0  0  0
 18  3  1  0  0  0  0
 19 18  1  0  0  0  0
M  END
