Coordinates from ORCA-job 4-MeO-Ph-N2-OH-B3LYPG-6-31G_dp-MTMO-d009-169-n800
 OpenBabel09051907463D

 19 19  0  0  0  0  0  0  0  0999 V2000
   -1.2022   -1.6424   -1.4739 C   0  0  0  0  0  0  0  0  0  0  0  0
    0.1259   -1.3011   -1.5848 C   0  0  0  0  0  0  0  0  0  0  0  0
    0.7270   -0.1964   -0.8767 C   0  0  0  0  0  0  0  0  0  0  0  0
   -0.1852    0.5389   -0.0344 C   0  0  0  0  0  0  0  0  0  0  0  0
   -1.5254    0.1994    0.0774 C   0  0  0  0  0  0  0  0  0  0  0  0
   -2.0478   -0.8917   -0.6357 C   0  0  0  0  0  0  0  0  0  0  0  0
   -1.6230   -2.4819   -2.0175 H   0  0  0  0  0  0  0  0  0  0  0  0
    0.7876   -1.8738   -2.2284 H   0  0  0  0  0  0  0  0  0  0  0  0
    0.1903    1.3832    0.5249 H   0  0  0  0  0  0  0  0  0  0  0  0
   -2.1630    0.7918    0.7235 H   0  0  0  0  0  0  0  0  0  0  0  0
    1.8593   -0.0132   -1.0515 N   0  0  0  0  0  0  0  0  0  0  0  0
    2.7314    0.7759   -0.6557 N   0  0  0  0  0  0  0  0  0  0  0  0
   -3.3380   -1.2987   -0.5860 O   0  0  0  0  0  0  0  0  0  0  0  0
   -4.2496   -0.5915    0.2467 C   0  0  0  0  0  0  0  0  0  0  0  0
   -5.2095   -1.0968    0.1347 H   0  0  0  0  0  0  0  0  0  0  0  0
   -4.3514    0.4543   -0.0676 H   0  0  0  0  0  0  0  0  0  0  0  0
   -3.9410   -0.6260    1.2986 H   0  0  0  0  0  0  0  0  0  0  0  0
    2.2171    1.7706    0.3074 O   0  0  0  0  0  0  0  0  0  0  0  0
    3.0295    2.2641    0.4888 H   0  0  0  0  0  0  0  0  0  0  0  0
  1  6  1  0  0  0  0
  2  1  2  0  0  0  0
  2  3  1  0  0  0  0
  3  4  2  0  0  0  0
  4  5  1  0  0  0  0
  4  9  1  0  0  0  0
  5 10  1  0  0  0  0
  6 13  1  0  0  0  0
  6  5  2  0  0  0  0
  7  1  1  0  0  0  0
  8  2  1  0  0  0  0
 11  3  1  0  0  0  0
 11 12  1  0  0  0  0
 12 18  1  0  0  0  0
 13 14  1  0  0  0  0
 14 17  1  0  0  0  0
 15 14  1  0  0  0  0
 16 14  1  0  0  0  0
 18 19  1  0  0  0  0
M  RAD  2  11   2  12   2
M  END
