Coordinates from ORCA-job 4-MeO-Ph-N2-OH-B3LYPG-6-31G_dp-MTMO-d009-169-n800
 OpenBabel09051907473D

 19 18  0  0  0  0  0  0  0  0999 V2000
   -1.0960   -2.1483   -0.2558 C   0  0  0  0  0  0  0  0  0  0  0  0
    0.2145   -1.7525   -0.4818 C   0  0  0  0  0  0  0  0  0  0  0  0
    0.5216   -0.3945   -0.6451 C   0  0  0  0  0  0  0  0  0  0  0  0
   -0.5014    0.5498   -0.5796 C   0  0  0  0  0  0  0  0  0  0  0  0
   -1.8253    0.1535   -0.3513 C   0  0  0  0  0  0  0  0  0  0  0  0
   -2.1285   -1.2001   -0.1878 C   0  0  0  0  0  0  0  0  0  0  0  0
   -1.3473   -3.1962   -0.1258 H   0  0  0  0  0  0  0  0  0  0  0  0
    1.0165   -2.4814   -0.5353 H   0  0  0  0  0  0  0  0  0  0  0  0
   -0.2757    1.6068   -0.7078 H   0  0  0  0  0  0  0  0  0  0  0  0
   -2.5986    0.9109   -0.3052 H   0  0  0  0  0  0  0  0  0  0  0  0
    3.7076    3.3442   -1.0024 N   0  0  0  0  0  0  0  0  0  0  0  0
    4.5078    4.1061   -0.9886 N   0  0  0  0  0  0  0  0  0  0  0  0
   -3.3840   -1.7011    0.0401 O   0  0  0  0  0  0  0  0  0  0  0  0
   -4.4594   -0.7846    0.1142 C   0  0  0  0  0  0  0  0  0  0  0  0
   -5.3559   -1.3806    0.2932 H   0  0  0  0  0  0  0  0  0  0  0  0
   -4.5834   -0.2235   -0.8225 H   0  0  0  0  0  0  0  0  0  0  0  0
   -4.3317   -0.0711    0.9399 H   0  0  0  0  0  0  0  0  0  0  0  0
    1.8347   -0.0661   -0.8637 O   0  0  0  0  0  0  0  0  0  0  0  0
    1.9165    0.8933   -0.9448 H   0  0  0  0  0  0  0  0  0  0  0  0
  1  6  1  0  0  0  0
  1  7  1  0  0  0  0
  2  1  2  0  0  0  0
  3  4  2  0  0  0  0
  3  2  1  0  0  0  0
  4  5  1  0  0  0  0
  5 10  1  0  0  0  0
  5  6  2  0  0  0  0
  6 13  1  0  0  0  0
  8  2  1  0  0  0  0
  9  4  1  0  0  0  0
 11 12  3  0  0  0  0
 13 14  1  0  0  0  0
 14 15  1  0  0  0  0
 14 17  1  0  0  0  0
 16 14  1  0  0  0  0
 18  3  1  0  0  0  0
 19 18  1  0  0  0  0
M  END
