Coordinates from ORCA-job 4-MeO-Ph-N2-OH-B3LYPG-6-31G_dp-MTMO-d009-169-n800
 OpenBabel09051907473D

 19 18  0  0  0  0  0  0  0  0999 V2000
   -2.0090   -3.0255   -0.1829 C   0  0  0  0  0  0  0  0  0  0  0  0
   -0.6605   -2.8163   -0.4328 C   0  0  0  0  0  0  0  0  0  0  0  0
   -0.1725   -1.5151   -0.6163 C   0  0  0  0  0  0  0  0  0  0  0  0
   -1.0546   -0.4385   -0.5465 C   0  0  0  0  0  0  0  0  0  0  0  0
   -2.4165   -0.6463   -0.2948 C   0  0  0  0  0  0  0  0  0  0  0  0
   -2.9004   -1.9436   -0.1112 C   0  0  0  0  0  0  0  0  0  0  0  0
   -2.4001   -4.0274   -0.0379 H   0  0  0  0  0  0  0  0  0  0  0  0
    0.0322   -3.6494   -0.4900 H   0  0  0  0  0  0  0  0  0  0  0  0
   -0.6877    0.5762   -0.6891 H   0  0  0  0  0  0  0  0  0  0  0  0
   -3.0771    0.2114   -0.2474 H   0  0  0  0  0  0  0  0  0  0  0  0
    9.7367   10.3676   -1.5129 N   0  0  0  0  0  0  0  0  0  0  0  0
   10.4865   11.1797   -1.5191 N   0  0  0  0  0  0  0  0  0  0  0  0
   -4.2087   -2.2651    0.1402 O   0  0  0  0  0  0  0  0  0  0  0  0
   -5.1469   -1.2084    0.2192 C   0  0  0  0  0  0  0  0  0  0  0  0
   -6.1129   -1.6734    0.4228 H   0  0  0  0  0  0  0  0  0  0  0  0
   -5.2104   -0.6479   -0.7238 H   0  0  0  0  0  0  0  0  0  0  0  0
   -4.9067   -0.5093    1.0318 H   0  0  0  0  0  0  0  0  0  0  0  0
    1.1698   -1.3716   -0.8588 O   0  0  0  0  0  0  0  0  0  0  0  0
    1.3708   -0.4327   -0.9607 H   0  0  0  0  0  0  0  0  0  0  0  0
  1  6  1  0  0  0  0
  1  7  1  0  0  0  0
  2  1  2  0  0  0  0
  3  4  2  0  0  0  0
  3  2  1  0  0  0  0
  4  5  1  0  0  0  0
  5 10  1  0  0  0  0
  5  6  2  0  0  0  0
  6 13  1  0  0  0  0
  8  2  1  0  0  0  0
  9  4  1  0  0  0  0
 12 11  3  0  0  0  0
 13 14  1  0  0  0  0
 14 15  1  0  0  0  0
 14 17  1  0  0  0  0
 16 14  1  0  0  0  0
 18  3  1  0  0  0  0
 19 18  1  0  0  0  0
M  END
