Coordinates from ORCA-job 4-MeO-Ph-N2-OH-B3LYPG-6-31G_dp-MTMO-d009-169-n800
 OpenBabel09051907463D

 19 18  0  0  0  0  0  0  0  0999 V2000
   -0.9073   -1.8645   -0.7968 C   0  0  0  0  0  0  0  0  0  0  0  0
    0.4387   -1.5642   -0.6452 C   0  0  0  0  0  0  0  0  0  0  0  0
    0.8292   -0.3428   -0.0785 C   0  0  0  0  0  0  0  0  0  0  0  0
   -0.1484    0.5638    0.3301 C   0  0  0  0  0  0  0  0  0  0  0  0
   -1.5080    0.2658    0.1739 C   0  0  0  0  0  0  0  0  0  0  0  0
   -1.8939   -0.9524   -0.3902 C   0  0  0  0  0  0  0  0  0  0  0  0
   -1.2231   -2.8067   -1.2325 H   0  0  0  0  0  0  0  0  0  0  0  0
    1.2051   -2.2648   -0.9599 H   0  0  0  0  0  0  0  0  0  0  0  0
    0.1417    1.5122    0.7763 H   0  0  0  0  0  0  0  0  0  0  0  0
   -2.2442    0.9908    0.4993 H   0  0  0  0  0  0  0  0  0  0  0  0
    1.8704    2.2247   -1.6853 N   0  0  0  0  0  0  0  0  0  0  0  0
    1.7324    2.2871   -2.7799 N   0  0  0  0  0  0  0  0  0  0  0  0
   -3.1906   -1.3496   -0.5882 O   0  0  0  0  0  0  0  0  0  0  0  0
   -4.2225   -0.4688   -0.1831 C   0  0  0  0  0  0  0  0  0  0  0  0
   -5.1618   -0.9723   -0.4190 H   0  0  0  0  0  0  0  0  0  0  0  0
   -4.1818    0.4849   -0.7260 H   0  0  0  0  0  0  0  0  0  0  0  0
   -4.1847   -0.2655    0.8958 H   0  0  0  0  0  0  0  0  0  0  0  0
    2.1739   -0.1126    0.0564 O   0  0  0  0  0  0  0  0  0  0  0  0
    2.3071    0.7997    0.3425 H   0  0  0  0  0  0  0  0  0  0  0  0
  1  2  2  0  0  0  0
  1  6  1  0  0  0  0
  2  3  1  0  0  0  0
  3 18  1  0  0  0  0
  3  4  2  0  0  0  0
  4  9  1  0  0  0  0
  5  4  1  0  0  0  0
  5 10  1  0  0  0  0
  6  5  2  0  0  0  0
  7  1  1  0  0  0  0
  8  2  1  0  0  0  0
 12 11  3  0  0  0  0
 13  6  1  0  0  0  0
 13 14  1  0  0  0  0
 14 17  1  0  0  0  0
 15 14  1  0  0  0  0
 16 14  1  0  0  0  0
 18 19  1  0  0  0  0
M  END
