Coordinates from ORCA-job 4-MeO-Ph-N2-OH-B3LYPG-6-31G_dp-MTMO-d009-169-n800
 OpenBabel09051907463D

 19 18  0  0  0  0  0  0  0  0999 V2000
   -0.8473   -1.7382   -0.9025 C   0  0  0  0  0  0  0  0  0  0  0  0
    0.4919   -1.4380   -0.6979 C   0  0  0  0  0  0  0  0  0  0  0  0
    0.8558   -0.2725   -0.0094 C   0  0  0  0  0  0  0  0  0  0  0  0
   -0.1408    0.5781    0.4674 C   0  0  0  0  0  0  0  0  0  0  0  0
   -1.4933    0.2806    0.2588 C   0  0  0  0  0  0  0  0  0  0  0  0
   -1.8530   -0.8818   -0.4275 C   0  0  0  0  0  0  0  0  0  0  0  0
   -1.1427   -2.6378   -1.4326 H   0  0  0  0  0  0  0  0  0  0  0  0
    1.2728   -2.0961   -1.0641 H   0  0  0  0  0  0  0  0  0  0  0  0
    0.1293    1.4841    1.0056 H   0  0  0  0  0  0  0  0  0  0  0  0
   -2.2447    0.9622    0.6384 H   0  0  0  0  0  0  0  0  0  0  0  0
    1.6105    1.8799   -1.8367 N   0  0  0  0  0  0  0  0  0  0  0  0
    1.4652    1.7020   -2.9180 N   0  0  0  0  0  0  0  0  0  0  0  0
   -3.1404   -1.2728   -0.6869 O   0  0  0  0  0  0  0  0  0  0  0  0
   -4.1911   -0.4485   -0.2165 C   0  0  0  0  0  0  0  0  0  0  0  0
   -5.1191   -0.9369   -0.5188 H   0  0  0  0  0  0  0  0  0  0  0  0
   -4.1533    0.5546   -0.6619 H   0  0  0  0  0  0  0  0  0  0  0  0
   -4.1749   -0.3524    0.8778 H   0  0  0  0  0  0  0  0  0  0  0  0
    2.1946   -0.0448    0.1773 O   0  0  0  0  0  0  0  0  0  0  0  0
    2.3128    0.8431    0.5374 H   0  0  0  0  0  0  0  0  0  0  0  0
  1  2  2  0  0  0  0
  1  6  1  0  0  0  0
  2  3  1  0  0  0  0
  3 18  1  0  0  0  0
  3  4  2  0  0  0  0
  4  9  1  0  0  0  0
  5  4  1  0  0  0  0
  5 10  1  0  0  0  0
  6  5  2  0  0  0  0
  7  1  1  0  0  0  0
  8  2  1  0  0  0  0
 12 11  3  0  0  0  0
 13  6  1  0  0  0  0
 13 14  1  0  0  0  0
 14 17  1  0  0  0  0
 15 14  1  0  0  0  0
 16 14  1  0  0  0  0
 18 19  1  0  0  0  0
M  END
