Coordinates from ORCA-job 4-MeO-Ph-N2-OH-B3LYPG-6-31G_dp-MTMO-d009-169-n800
 OpenBabel09051907473D

 19 18  0  0  0  0  0  0  0  0999 V2000
   -1.6221   -2.6437   -0.2176 C   0  0  0  0  0  0  0  0  0  0  0  0
   -0.2745   -2.4307   -0.4695 C   0  0  0  0  0  0  0  0  0  0  0  0
    0.2088   -1.1285   -0.6576 C   0  0  0  0  0  0  0  0  0  0  0  0
   -0.6768   -0.0546   -0.5902 C   0  0  0  0  0  0  0  0  0  0  0  0
   -2.0377   -0.2663   -0.3365 C   0  0  0  0  0  0  0  0  0  0  0  0
   -2.5170   -1.5647   -0.1484 C   0  0  0  0  0  0  0  0  0  0  0  0
   -2.0096   -3.6465   -0.0689 H   0  0  0  0  0  0  0  0  0  0  0  0
    0.4209   -3.2617   -0.5248 H   0  0  0  0  0  0  0  0  0  0  0  0
   -0.3134    0.9608   -0.7365 H   0  0  0  0  0  0  0  0  0  0  0  0
   -2.7011    0.5893   -0.2911 H   0  0  0  0  0  0  0  0  0  0  0  0
    6.4971    7.1280   -1.1860 N   0  0  0  0  0  0  0  0  0  0  0  0
    7.2380    7.9481   -1.1771 N   0  0  0  0  0  0  0  0  0  0  0  0
   -3.8240   -1.8898    0.1053 O   0  0  0  0  0  0  0  0  0  0  0  0
   -4.7657   -0.8361    0.1817 C   0  0  0  0  0  0  0  0  0  0  0  0
   -5.7300   -1.3038    0.3873 H   0  0  0  0  0  0  0  0  0  0  0  0
   -4.8317   -0.2786   -0.7629 H   0  0  0  0  0  0  0  0  0  0  0  0
   -4.5274   -0.1337    0.9920 H   0  0  0  0  0  0  0  0  0  0  0  0
    1.5504   -0.9812   -0.9020 O   0  0  0  0  0  0  0  0  0  0  0  0
    1.7480   -0.0420   -1.0075 H   0  0  0  0  0  0  0  0  0  0  0  0
  1  6  1  0  0  0  0
  1  7  1  0  0  0  0
  2  1  2  0  0  0  0
  3  4  2  0  0  0  0
  3  2  1  0  0  0  0
  4  5  1  0  0  0  0
  5 10  1  0  0  0  0
  5  6  2  0  0  0  0
  6 13  1  0  0  0  0
  8  2  1  0  0  0  0
  9  4  1  0  0  0  0
 11 12  3  0  0  0  0
 13 14  1  0  0  0  0
 14 15  1  0  0  0  0
 14 17  1  0  0  0  0
 16 14  1  0  0  0  0
 18  3  1  0  0  0  0
 19 18  1  0  0  0  0
M  END
