Coordinates from ORCA-job 4-MeO-Ph-N2-OH-B3LYPG-6-31G_dp-MTMO-d009-169-n800
 OpenBabel09051907473D

 19 18  0  0  0  0  0  0  0  0999 V2000
   -1.8641   -2.8822   -0.1976 C   0  0  0  0  0  0  0  0  0  0  0  0
   -0.5157   -2.6719   -0.4474 C   0  0  0  0  0  0  0  0  0  0  0  0
   -0.0289   -1.3702   -0.6308 C   0  0  0  0  0  0  0  0  0  0  0  0
   -0.9118   -0.2944   -0.5610 C   0  0  0  0  0  0  0  0  0  0  0  0
   -2.2736   -0.5034   -0.3093 C   0  0  0  0  0  0  0  0  0  0  0  0
   -2.7564   -1.8011   -0.1258 C   0  0  0  0  0  0  0  0  0  0  0  0
   -2.2543   -3.8845   -0.0525 H   0  0  0  0  0  0  0  0  0  0  0  0
    0.1776   -3.5044   -0.5046 H   0  0  0  0  0  0  0  0  0  0  0  0
   -0.5458    0.7206   -0.7036 H   0  0  0  0  0  0  0  0  0  0  0  0
   -2.9349    0.3537   -0.2619 H   0  0  0  0  0  0  0  0  0  0  0  0
    8.5164    9.1514   -1.3902 N   0  0  0  0  0  0  0  0  0  0  0  0
    9.2653    9.9643   -1.3934 N   0  0  0  0  0  0  0  0  0  0  0  0
   -4.0644   -2.1237    0.1255 O   0  0  0  0  0  0  0  0  0  0  0  0
   -5.0035   -1.0679    0.2044 C   0  0  0  0  0  0  0  0  0  0  0  0
   -5.9692   -1.5337    0.4078 H   0  0  0  0  0  0  0  0  0  0  0  0
   -5.0674   -0.5074   -0.7386 H   0  0  0  0  0  0  0  0  0  0  0  0
   -4.7641   -0.3685    1.0170 H   0  0  0  0  0  0  0  0  0  0  0  0
    1.3133   -1.2256   -0.8732 O   0  0  0  0  0  0  0  0  0  0  0  0
    1.5135   -0.2866   -0.9751 H   0  0  0  0  0  0  0  0  0  0  0  0
  1  6  1  0  0  0  0
  1  7  1  0  0  0  0
  2  1  2  0  0  0  0
  3  4  2  0  0  0  0
  3  2  1  0  0  0  0
  4  5  1  0  0  0  0
  5 10  1  0  0  0  0
  5  6  2  0  0  0  0
  6 13  1  0  0  0  0
  8  2  1  0  0  0  0
  9  4  1  0  0  0  0
 12 11  3  0  0  0  0
 13 14  1  0  0  0  0
 14 15  1  0  0  0  0
 14 17  1  0  0  0  0
 16 14  1  0  0  0  0
 18  3  1  0  0  0  0
 19 18  1  0  0  0  0
M  END
