Coordinates from ORCA-job 4-MeO-Ph-N2-OH-B3LYPG-6-31G_dp-MTMO-d009-169-n800
 OpenBabel09051907473D

 19 18  0  0  0  0  0  0  0  0999 V2000
   -1.0946   -2.1474   -0.2559 C   0  0  0  0  0  0  0  0  0  0  0  0
    0.2161   -1.7521   -0.4821 C   0  0  0  0  0  0  0  0  0  0  0  0
    0.5237   -0.3943   -0.6456 C   0  0  0  0  0  0  0  0  0  0  0  0
   -0.4989    0.5504   -0.5802 C   0  0  0  0  0  0  0  0  0  0  0  0
   -1.8229    0.1547   -0.3517 C   0  0  0  0  0  0  0  0  0  0  0  0
   -2.1267   -1.1987   -0.1880 C   0  0  0  0  0  0  0  0  0  0  0  0
   -1.3463   -3.1952   -0.1257 H   0  0  0  0  0  0  0  0  0  0  0  0
    1.0178   -2.4814   -0.5355 H   0  0  0  0  0  0  0  0  0  0  0  0
   -0.2727    1.6073   -0.7085 H   0  0  0  0  0  0  0  0  0  0  0  0
   -2.5959    0.9125   -0.3056 H   0  0  0  0  0  0  0  0  0  0  0  0
    3.6918    3.3335   -1.0003 N   0  0  0  0  0  0  0  0  0  0  0  0
    4.4893    4.0983   -0.9857 N   0  0  0  0  0  0  0  0  0  0  0  0
   -3.3824   -1.6992    0.0401 O   0  0  0  0  0  0  0  0  0  0  0  0
   -4.4574   -0.7823    0.1141 C   0  0  0  0  0  0  0  0  0  0  0  0
   -5.3541   -1.3779    0.2932 H   0  0  0  0  0  0  0  0  0  0  0  0
   -4.5812   -0.2213   -0.8227 H   0  0  0  0  0  0  0  0  0  0  0  0
   -4.3295   -0.0687    0.9396 H   0  0  0  0  0  0  0  0  0  0  0  0
    1.8369   -0.0665   -0.8643 O   0  0  0  0  0  0  0  0  0  0  0  0
    1.9193    0.8928   -0.9457 H   0  0  0  0  0  0  0  0  0  0  0  0
  1  6  1  0  0  0  0
  1  7  1  0  0  0  0
  2  1  2  0  0  0  0
  3  4  2  0  0  0  0
  3  2  1  0  0  0  0
  4  5  1  0  0  0  0
  5 10  1  0  0  0  0
  5  6  2  0  0  0  0
  6 13  1  0  0  0  0
  8  2  1  0  0  0  0
  9  4  1  0  0  0  0
 11 12  3  0  0  0  0
 13 14  1  0  0  0  0
 14 15  1  0  0  0  0
 14 17  1  0  0  0  0
 16 14  1  0  0  0  0
 18  3  1  0  0  0  0
 19 18  1  0  0  0  0
M  END
