Coordinates from ORCA-job 4-MeO-Ph-N2-OH-B3LYPG-6-31G_dp-MTMO-d009-169-n800
 OpenBabel09051907473D

 19 18  0  0  0  0  0  0  0  0999 V2000
   -1.8565   -2.8747   -0.1983 C   0  0  0  0  0  0  0  0  0  0  0  0
   -0.5082   -2.6643   -0.4481 C   0  0  0  0  0  0  0  0  0  0  0  0
   -0.0214   -1.3627   -0.6316 C   0  0  0  0  0  0  0  0  0  0  0  0
   -0.9044   -0.2869   -0.5618 C   0  0  0  0  0  0  0  0  0  0  0  0
   -2.2661   -0.4960   -0.3101 C   0  0  0  0  0  0  0  0  0  0  0  0
   -2.7489   -1.7937   -0.1266 C   0  0  0  0  0  0  0  0  0  0  0  0
   -2.2467   -3.8770   -0.0532 H   0  0  0  0  0  0  0  0  0  0  0  0
    0.1852   -3.4968   -0.5053 H   0  0  0  0  0  0  0  0  0  0  0  0
   -0.5384    0.7281   -0.7044 H   0  0  0  0  0  0  0  0  0  0  0  0
   -2.9275    0.3611   -0.2628 H   0  0  0  0  0  0  0  0  0  0  0  0
    8.4529    9.0880   -1.3838 N   0  0  0  0  0  0  0  0  0  0  0  0
    9.2017    9.9009   -1.3868 N   0  0  0  0  0  0  0  0  0  0  0  0
   -4.0569   -2.1163    0.1248 O   0  0  0  0  0  0  0  0  0  0  0  0
   -4.9960   -1.0605    0.2036 C   0  0  0  0  0  0  0  0  0  0  0  0
   -5.9617   -1.5264    0.4071 H   0  0  0  0  0  0  0  0  0  0  0  0
   -5.0599   -0.5001   -0.7394 H   0  0  0  0  0  0  0  0  0  0  0  0
   -4.7567   -0.3612    1.0162 H   0  0  0  0  0  0  0  0  0  0  0  0
    1.3208   -1.2180   -0.8740 O   0  0  0  0  0  0  0  0  0  0  0  0
    1.5210   -0.2789   -0.9759 H   0  0  0  0  0  0  0  0  0  0  0  0
  1  6  1  0  0  0  0
  1  7  1  0  0  0  0
  2  1  2  0  0  0  0
  3  4  2  0  0  0  0
  3  2  1  0  0  0  0
  4  5  1  0  0  0  0
  5 10  1  0  0  0  0
  5  6  2  0  0  0  0
  6 13  1  0  0  0  0
  8  2  1  0  0  0  0
  9  4  1  0  0  0  0
 12 11  3  0  0  0  0
 13 14  1  0  0  0  0
 14 15  1  0  0  0  0
 14 17  1  0  0  0  0
 16 14  1  0  0  0  0
 18  3  1  0  0  0  0
 19 18  1  0  0  0  0
M  END
