Coordinates from ORCA-job 4-MeO-Ph-N2-OH-B3LYPG-6-31G_dp-MTMO-d009-169-n800
 OpenBabel09051907473D

 19 18  0  0  0  0  0  0  0  0999 V2000
   -1.6251   -2.6467   -0.2174 C   0  0  0  0  0  0  0  0  0  0  0  0
   -0.2776   -2.4338   -0.4692 C   0  0  0  0  0  0  0  0  0  0  0  0
    0.2059   -1.1315   -0.6572 C   0  0  0  0  0  0  0  0  0  0  0  0
   -0.6797   -0.0577   -0.5898 C   0  0  0  0  0  0  0  0  0  0  0  0
   -2.0406   -0.2693   -0.3361 C   0  0  0  0  0  0  0  0  0  0  0  0
   -2.5200   -1.5676   -0.1481 C   0  0  0  0  0  0  0  0  0  0  0  0
   -2.0127   -3.6495   -0.0688 H   0  0  0  0  0  0  0  0  0  0  0  0
    0.4178   -3.2648   -0.5245 H   0  0  0  0  0  0  0  0  0  0  0  0
   -0.3163    0.9577   -0.7360 H   0  0  0  0  0  0  0  0  0  0  0  0
   -2.7040    0.5863   -0.2907 H   0  0  0  0  0  0  0  0  0  0  0  0
    6.5223    7.1537   -1.1885 N   0  0  0  0  0  0  0  0  0  0  0  0
    7.2635    7.9735   -1.1800 N   0  0  0  0  0  0  0  0  0  0  0  0
   -3.8271   -1.8927    0.1055 O   0  0  0  0  0  0  0  0  0  0  0  0
   -4.7687   -0.8390    0.1820 C   0  0  0  0  0  0  0  0  0  0  0  0
   -5.7330   -1.3066    0.3875 H   0  0  0  0  0  0  0  0  0  0  0  0
   -4.8347   -0.2814   -0.7626 H   0  0  0  0  0  0  0  0  0  0  0  0
   -4.5304   -0.1366    0.9923 H   0  0  0  0  0  0  0  0  0  0  0  0
    1.5474   -0.9843   -0.9016 O   0  0  0  0  0  0  0  0  0  0  0  0
    1.7451   -0.0451   -1.0071 H   0  0  0  0  0  0  0  0  0  0  0  0
  1  6  1  0  0  0  0
  1  7  1  0  0  0  0
  2  1  2  0  0  0  0
  3  4  2  0  0  0  0
  3  2  1  0  0  0  0
  4  5  1  0  0  0  0
  5 10  1  0  0  0  0
  5  6  2  0  0  0  0
  6 13  1  0  0  0  0
  8  2  1  0  0  0  0
  9  4  1  0  0  0  0
 11 12  3  0  0  0  0
 13 14  1  0  0  0  0
 14 15  1  0  0  0  0
 14 17  1  0  0  0  0
 16 14  1  0  0  0  0
 18  3  1  0  0  0  0
 19 18  1  0  0  0  0
M  END
