Coordinates from ORCA-job 4-MeO-Ph-N2-OH-B3LYPG-6-31G_dp-MTMO-d009-169-n800
 OpenBabel09051907463D

 19 18  0  0  0  0  0  0  0  0999 V2000
   -0.9196   -1.8886   -0.7741 C   0  0  0  0  0  0  0  0  0  0  0  0
    0.4277   -1.5883   -0.6340 C   0  0  0  0  0  0  0  0  0  0  0  0
    0.8231   -0.3566   -0.0936 C   0  0  0  0  0  0  0  0  0  0  0  0
   -0.1509    0.5600    0.3011 C   0  0  0  0  0  0  0  0  0  0  0  0
   -1.5118    0.2619    0.1561 C   0  0  0  0  0  0  0  0  0  0  0  0
   -1.9025   -0.9664   -0.3821 C   0  0  0  0  0  0  0  0  0  0  0  0
   -1.2392   -2.8386   -1.1897 H   0  0  0  0  0  0  0  0  0  0  0  0
    1.1913   -2.2967   -0.9378 H   0  0  0  0  0  0  0  0  0  0  0  0
    0.1431    1.5160    0.7282 H   0  0  0  0  0  0  0  0  0  0  0  0
   -2.2453    0.9947    0.4704 H   0  0  0  0  0  0  0  0  0  0  0  0
    1.9276    2.2863   -1.6562 N   0  0  0  0  0  0  0  0  0  0  0  0
    1.7908    2.4119   -2.7455 N   0  0  0  0  0  0  0  0  0  0  0  0
   -3.2009   -1.3645   -0.5671 O   0  0  0  0  0  0  0  0  0  0  0  0
   -4.2293   -0.4734   -0.1759 C   0  0  0  0  0  0  0  0  0  0  0  0
   -5.1706   -0.9790   -0.3987 H   0  0  0  0  0  0  0  0  0  0  0  0
   -4.1880    0.4695   -0.7372 H   0  0  0  0  0  0  0  0  0  0  0  0
   -4.1874   -0.2492    0.8988 H   0  0  0  0  0  0  0  0  0  0  0  0
    2.1689   -0.1260    0.0298 O   0  0  0  0  0  0  0  0  0  0  0  0
    2.3051    0.7915    0.2973 H   0  0  0  0  0  0  0  0  0  0  0  0
  1  2  2  0  0  0  0
  1  6  1  0  0  0  0
  2  3  1  0  0  0  0
  3 18  1  0  0  0  0
  3  4  2  0  0  0  0
  4  9  1  0  0  0  0
  5  4  1  0  0  0  0
  5 10  1  0  0  0  0
  6  5  2  0  0  0  0
  7  1  1  0  0  0  0
  8  2  1  0  0  0  0
 12 11  3  0  0  0  0
 13  6  1  0  0  0  0
 13 14  1  0  0  0  0
 14 17  1  0  0  0  0
 15 14  1  0  0  0  0
 16 14  1  0  0  0  0
 18 19  1  0  0  0  0
M  END
