Coordinates from ORCA-job 4-MeO-Ph-N2-OH-B3LYPG-6-31G_dp-MTMO-d009-169-n800
 OpenBabel09051907463D

 19 18  0  0  0  0  0  0  0  0999 V2000
   -1.0520   -1.6149   -0.9932 C   0  0  0  0  0  0  0  0  0  0  0  0
    0.1956   -1.0318   -1.2306 C   0  0  0  0  0  0  0  0  0  0  0  0
    0.3102    0.3030   -0.9170 C   0  0  0  0  0  0  0  0  0  0  0  0
   -0.6734    1.1101   -0.4137 C   0  0  0  0  0  0  0  0  0  0  0  0
   -1.9243    0.5089   -0.1785 C   0  0  0  0  0  0  0  0  0  0  0  0
   -2.1082   -0.8497   -0.4687 C   0  0  0  0  0  0  0  0  0  0  0  0
   -1.2277   -2.6646   -1.2072 H   0  0  0  0  0  0  0  0  0  0  0  0
    1.0192   -1.6115   -1.6306 H   0  0  0  0  0  0  0  0  0  0  0  0
   -0.5152    2.1618   -0.2025 H   0  0  0  0  0  0  0  0  0  0  0  0
   -2.7310    1.1134    0.2199 H   0  0  0  0  0  0  0  0  0  0  0  0
    2.3657    1.4942   -1.5626 N   0  0  0  0  0  0  0  0  0  0  0  0
    3.2386    1.1845   -0.8296 N   0  0  0  0  0  0  0  0  0  0  0  0
   -3.2788   -1.5273   -0.2796 O   0  0  0  0  0  0  0  0  0  0  0  0
   -4.3903   -0.8168    0.2419 C   0  0  0  0  0  0  0  0  0  0  0  0
   -5.2038   -1.5406    0.3135 H   0  0  0  0  0  0  0  0  0  0  0  0
   -4.6950    0.0034   -0.4214 H   0  0  0  0  0  0  0  0  0  0  0  0
   -4.1806   -0.4114    1.2400 H   0  0  0  0  0  0  0  0  0  0  0  0
    2.9159    0.2276    0.2243 O   0  0  0  0  0  0  0  0  0  0  0  0
    3.7672    0.1264    0.6855 H   0  0  0  0  0  0  0  0  0  0  0  0
  1  6  1  0  0  0  0
  2  1  2  0  0  0  0
  2  3  1  0  0  0  0
  3  4  2  0  0  0  0
  4  9  1  0  0  0  0
  4  5  1  0  0  0  0
  5 10  1  0  0  0  0
  6 13  1  0  0  0  0
  6  5  2  0  0  0  0
  7  1  1  0  0  0  0
  8  2  1  0  0  0  0
 11 12  2  0  0  0  0
 12 18  1  0  0  0  0
 13 14  1  0  0  0  0
 14 15  1  0  0  0  0
 14 17  1  0  0  0  0
 16 14  1  0  0  0  0
 18 19  1  0  0  0  0
M  RAD  2   3   2  11   2
M  END
