Coordinates from ORCA-job 4-MeO-Ph-N2-OH-B3LYPG-6-31G_dp-MTMO-d009-169-n800
 OpenBabel09051907473D

 19 18  0  0  0  0  0  0  0  0999 V2000
   -2.0751   -3.0909   -0.1757 C   0  0  0  0  0  0  0  0  0  0  0  0
   -0.7266   -2.8821   -0.4259 C   0  0  0  0  0  0  0  0  0  0  0  0
   -0.2384   -1.5811   -0.6100 C   0  0  0  0  0  0  0  0  0  0  0  0
   -1.1202   -0.5043   -0.5405 C   0  0  0  0  0  0  0  0  0  0  0  0
   -2.4821   -0.7118   -0.2885 C   0  0  0  0  0  0  0  0  0  0  0  0
   -2.9662   -2.0089   -0.1043 C   0  0  0  0  0  0  0  0  0  0  0  0
   -2.4663   -4.0927   -0.0301 H   0  0  0  0  0  0  0  0  0  0  0  0
   -0.0341   -3.7154   -0.4828 H   0  0  0  0  0  0  0  0  0  0  0  0
   -0.7531    0.5103   -0.6836 H   0  0  0  0  0  0  0  0  0  0  0  0
   -3.1425    0.1461   -0.2414 H   0  0  0  0  0  0  0  0  0  0  0  0
   10.2920   10.9276   -1.5718 N   0  0  0  0  0  0  0  0  0  0  0  0
   11.0495   11.7325   -1.5733 N   0  0  0  0  0  0  0  0  0  0  0  0
   -4.2746   -2.3300    0.1475 O   0  0  0  0  0  0  0  0  0  0  0  0
   -5.2125   -1.2731    0.2262 C   0  0  0  0  0  0  0  0  0  0  0  0
   -6.1786   -1.7378    0.4302 H   0  0  0  0  0  0  0  0  0  0  0  0
   -5.2761   -0.7130   -0.7169 H   0  0  0  0  0  0  0  0  0  0  0  0
   -4.9721   -0.5737    1.0385 H   0  0  0  0  0  0  0  0  0  0  0  0
    1.1039   -1.4380   -0.8527 O   0  0  0  0  0  0  0  0  0  0  0  0
    1.3051   -0.4992   -0.9551 H   0  0  0  0  0  0  0  0  0  0  0  0
  1  6  1  0  0  0  0
  1  7  1  0  0  0  0
  2  1  2  0  0  0  0
  3  4  2  0  0  0  0
  3  2  1  0  0  0  0
  4  5  1  0  0  0  0
  5 10  1  0  0  0  0
  5  6  2  0  0  0  0
  6 13  1  0  0  0  0
  8  2  1  0  0  0  0
  9  4  1  0  0  0  0
 12 11  3  0  0  0  0
 13 14  1  0  0  0  0
 14 15  1  0  0  0  0
 14 17  1  0  0  0  0
 16 14  1  0  0  0  0
 18  3  1  0  0  0  0
 19 18  1  0  0  0  0
M  END
