Coordinates from ORCA-job 4-MeO-Ph-N2-OH-B3LYPG-6-31G_dp-MTMO-d009-169-n800
 OpenBabel09051907473D

 19 18  0  0  0  0  0  0  0  0999 V2000
   -1.4426   -2.4706   -0.2266 C   0  0  0  0  0  0  0  0  0  0  0  0
   -0.0978   -2.2450   -0.4821 C   0  0  0  0  0  0  0  0  0  0  0  0
    0.3717   -0.9389   -0.6784 C   0  0  0  0  0  0  0  0  0  0  0  0
   -0.5248    0.1260   -0.6156 C   0  0  0  0  0  0  0  0  0  0  0  0
   -1.8831   -0.0983   -0.3582 C   0  0  0  0  0  0  0  0  0  0  0  0
   -2.3486   -1.4005   -0.1620 C   0  0  0  0  0  0  0  0  0  0  0  0
   -1.8194   -3.4764   -0.0715 H   0  0  0  0  0  0  0  0  0  0  0  0
    0.6061   -3.0691   -0.5338 H   0  0  0  0  0  0  0  0  0  0  0  0
   -0.1723    1.1443   -0.7682 H   0  0  0  0  0  0  0  0  0  0  0  0
   -2.5552    0.7506   -0.3163 H   0  0  0  0  0  0  0  0  0  0  0  0
    5.1246    5.6698   -1.0561 N   0  0  0  0  0  0  0  0  0  0  0  0
    5.8326    6.5172   -1.0103 N   0  0  0  0  0  0  0  0  0  0  0  0
   -3.6518   -1.7376    0.0956 O   0  0  0  0  0  0  0  0  0  0  0  0
   -4.6043   -0.6934    0.1672 C   0  0  0  0  0  0  0  0  0  0  0  0
   -5.5636   -1.1700    0.3760 H   0  0  0  0  0  0  0  0  0  0  0  0
   -4.6769   -0.1417   -0.7803 H   0  0  0  0  0  0  0  0  0  0  0  0
   -4.3727    0.0157    0.9735 H   0  0  0  0  0  0  0  0  0  0  0  0
    1.7112   -0.7791   -0.9259 O   0  0  0  0  0  0  0  0  0  0  0  0
    1.8990    0.1615   -1.0372 H   0  0  0  0  0  0  0  0  0  0  0  0
  1  6  1  0  0  0  0
  1  7  1  0  0  0  0
  2  1  2  0  0  0  0
  3  4  2  0  0  0  0
  3  2  1  0  0  0  0
  4  5  1  0  0  0  0
  5 10  1  0  0  0  0
  5  6  2  0  0  0  0
  6 13  1  0  0  0  0
  8  2  1  0  0  0  0
  9  4  1  0  0  0  0
 11 12  3  0  0  0  0
 13 14  1  0  0  0  0
 14 15  1  0  0  0  0
 14 17  1  0  0  0  0
 16 14  1  0  0  0  0
 18  3  1  0  0  0  0
 19 18  1  0  0  0  0
M  END
