Coordinates from ORCA-job 4-MeO-Ph-N2-OH-B3LYPG-6-31G_dp-MTMO-d009-169-n800
 OpenBabel09051907473D

 19 18  0  0  0  0  0  0  0  0999 V2000
   -1.4160   -2.4458   -0.2265 C   0  0  0  0  0  0  0  0  0  0  0  0
   -0.0722   -2.2151   -0.4829 C   0  0  0  0  0  0  0  0  0  0  0  0
    0.3918   -0.9074   -0.6817 C   0  0  0  0  0  0  0  0  0  0  0  0
   -0.5092    0.1539   -0.6202 C   0  0  0  0  0  0  0  0  0  0  0  0
   -1.8664   -0.0756   -0.3619 C   0  0  0  0  0  0  0  0  0  0  0  0
   -2.3264   -1.3793   -0.1633 C   0  0  0  0  0  0  0  0  0  0  0  0
   -1.7886   -3.4529   -0.0694 H   0  0  0  0  0  0  0  0  0  0  0  0
    0.6351   -3.0363   -0.5335 H   0  0  0  0  0  0  0  0  0  0  0  0
   -0.1610    1.1734   -0.7748 H   0  0  0  0  0  0  0  0  0  0  0  0
   -2.5420    0.7706   -0.3211 H   0  0  0  0  0  0  0  0  0  0  0  0
    4.9567    5.4671   -1.0405 N   0  0  0  0  0  0  0  0  0  0  0  0
    5.6571    6.3204   -0.9864 N   0  0  0  0  0  0  0  0  0  0  0  0
   -3.6281   -1.7215    0.0955 O   0  0  0  0  0  0  0  0  0  0  0  0
   -4.5850   -0.6811    0.1656 C   0  0  0  0  0  0  0  0  0  0  0  0
   -5.5422   -1.1614    0.3754 H   0  0  0  0  0  0  0  0  0  0  0  0
   -4.6600   -0.1312   -0.7827 H   0  0  0  0  0  0  0  0  0  0  0  0
   -4.3562    0.0302    0.9708 H   0  0  0  0  0  0  0  0  0  0  0  0
    1.7305   -0.7424   -0.9301 O   0  0  0  0  0  0  0  0  0  0  0  0
    1.9143    0.1988   -1.0425 H   0  0  0  0  0  0  0  0  0  0  0  0
  1  6  1  0  0  0  0
  1  7  1  0  0  0  0
  2  1  2  0  0  0  0
  3  4  2  0  0  0  0
  3  2  1  0  0  0  0
  4  5  1  0  0  0  0
  5 10  1  0  0  0  0
  5  6  2  0  0  0  0
  6 13  1  0  0  0  0
  8  2  1  0  0  0  0
  9  4  1  0  0  0  0
 11 12  3  0  0  0  0
 13 14  1  0  0  0  0
 14 15  1  0  0  0  0
 14 17  1  0  0  0  0
 16 14  1  0  0  0  0
 18  3  1  0  0  0  0
 19 18  1  0  0  0  0
M  END
