Coordinates from ORCA-job 4-MeO-Ph-N2-OH-B3LYPG-6-31G_dp-MTMO-d009-169-n800
 OpenBabel09051907473D

 19 18  0  0  0  0  0  0  0  0999 V2000
   -2.0736   -3.0895   -0.1759 C   0  0  0  0  0  0  0  0  0  0  0  0
   -0.7251   -2.8806   -0.4260 C   0  0  0  0  0  0  0  0  0  0  0  0
   -0.2369   -1.5796   -0.6102 C   0  0  0  0  0  0  0  0  0  0  0  0
   -1.1187   -0.5028   -0.5406 C   0  0  0  0  0  0  0  0  0  0  0  0
   -2.4806   -0.7103   -0.2886 C   0  0  0  0  0  0  0  0  0  0  0  0
   -2.9647   -2.0074   -0.1044 C   0  0  0  0  0  0  0  0  0  0  0  0
   -2.4648   -4.0912   -0.0303 H   0  0  0  0  0  0  0  0  0  0  0  0
   -0.0326   -3.7139   -0.4830 H   0  0  0  0  0  0  0  0  0  0  0  0
   -0.7516    0.5117   -0.6837 H   0  0  0  0  0  0  0  0  0  0  0  0
   -3.1410    0.1475   -0.2415 H   0  0  0  0  0  0  0  0  0  0  0  0
   10.2794   10.9149   -1.5705 N   0  0  0  0  0  0  0  0  0  0  0  0
   11.0367   11.7200   -1.5721 N   0  0  0  0  0  0  0  0  0  0  0  0
   -4.2731   -2.3285    0.1473 O   0  0  0  0  0  0  0  0  0  0  0  0
   -5.2110   -1.2716    0.2261 C   0  0  0  0  0  0  0  0  0  0  0  0
   -6.1771   -1.7364    0.4300 H   0  0  0  0  0  0  0  0  0  0  0  0
   -5.2746   -0.7115   -0.7171 H   0  0  0  0  0  0  0  0  0  0  0  0
   -4.9706   -0.5722    1.0383 H   0  0  0  0  0  0  0  0  0  0  0  0
    1.1054   -1.4365   -0.8529 O   0  0  0  0  0  0  0  0  0  0  0  0
    1.3066   -0.4977   -0.9553 H   0  0  0  0  0  0  0  0  0  0  0  0
  1  6  1  0  0  0  0
  1  7  1  0  0  0  0
  2  1  2  0  0  0  0
  3  4  2  0  0  0  0
  3  2  1  0  0  0  0
  4  5  1  0  0  0  0
  5 10  1  0  0  0  0
  5  6  2  0  0  0  0
  6 13  1  0  0  0  0
  8  2  1  0  0  0  0
  9  4  1  0  0  0  0
 12 11  3  0  0  0  0
 13 14  1  0  0  0  0
 14 15  1  0  0  0  0
 14 17  1  0  0  0  0
 16 14  1  0  0  0  0
 18  3  1  0  0  0  0
 19 18  1  0  0  0  0
M  END
