Coordinates from ORCA-job 4-MeO-Ph-N2-OH-B3LYPG-6-31G_dp-MTMO-d009-169-n800
 OpenBabel09051907473D

 19 18  0  0  0  0  0  0  0  0999 V2000
   -1.7944   -2.8134   -0.2040 C   0  0  0  0  0  0  0  0  0  0  0  0
   -0.4462   -2.6025   -0.4541 C   0  0  0  0  0  0  0  0  0  0  0  0
    0.0399   -1.3007   -0.6382 C   0  0  0  0  0  0  0  0  0  0  0  0
   -0.8436   -0.2253   -0.5687 C   0  0  0  0  0  0  0  0  0  0  0  0
   -2.2052   -0.4349   -0.3167 C   0  0  0  0  0  0  0  0  0  0  0  0
   -2.6873   -1.7328   -0.1326 C   0  0  0  0  0  0  0  0  0  0  0  0
   -2.1841   -3.8158   -0.0584 H   0  0  0  0  0  0  0  0  0  0  0  0
    0.2476   -3.4347   -0.5110 H   0  0  0  0  0  0  0  0  0  0  0  0
   -0.4781    0.7898   -0.7118 H   0  0  0  0  0  0  0  0  0  0  0  0
   -2.8669    0.4219   -0.2696 H   0  0  0  0  0  0  0  0  0  0  0  0
    7.9315    8.5677   -1.3310 N   0  0  0  0  0  0  0  0  0  0  0  0
    8.6796    9.3813   -1.3323 N   0  0  0  0  0  0  0  0  0  0  0  0
   -3.9951   -2.0559    0.1191 O   0  0  0  0  0  0  0  0  0  0  0  0
   -4.9347   -1.0005    0.1976 C   0  0  0  0  0  0  0  0  0  0  0  0
   -5.9001   -1.4668    0.4013 H   0  0  0  0  0  0  0  0  0  0  0  0
   -4.9990   -0.4405   -0.7457 H   0  0  0  0  0  0  0  0  0  0  0  0
   -4.6956   -0.3007    1.0099 H   0  0  0  0  0  0  0  0  0  0  0  0
    1.3820   -1.1554   -0.8808 O   0  0  0  0  0  0  0  0  0  0  0  0
    1.5817   -0.2164   -0.9831 H   0  0  0  0  0  0  0  0  0  0  0  0
  1  6  1  0  0  0  0
  1  7  1  0  0  0  0
  2  1  2  0  0  0  0
  3  4  2  0  0  0  0
  3  2  1  0  0  0  0
  4  5  1  0  0  0  0
  5 10  1  0  0  0  0
  5  6  2  0  0  0  0
  6 13  1  0  0  0  0
  8  2  1  0  0  0  0
  9  4  1  0  0  0  0
 12 11  3  0  0  0  0
 13 14  1  0  0  0  0
 14 15  1  0  0  0  0
 14 17  1  0  0  0  0
 16 14  1  0  0  0  0
 18  3  1  0  0  0  0
 19 18  1  0  0  0  0
M  END
