Coordinates from ORCA-job 4-MeO-Ph-N2-OH-B3LYPG-6-31G_dp-MTMO-d009-169-n800
 OpenBabel09051907473D

 19 18  0  0  0  0  0  0  0  0999 V2000
   -2.0555   -3.0716   -0.1778 C   0  0  0  0  0  0  0  0  0  0  0  0
   -0.7070   -2.8626   -0.4279 C   0  0  0  0  0  0  0  0  0  0  0  0
   -0.2190   -1.5615   -0.6119 C   0  0  0  0  0  0  0  0  0  0  0  0
   -1.1009   -0.4848   -0.5423 C   0  0  0  0  0  0  0  0  0  0  0  0
   -2.4628   -0.6924   -0.2903 C   0  0  0  0  0  0  0  0  0  0  0  0
   -2.9468   -1.9896   -0.1063 C   0  0  0  0  0  0  0  0  0  0  0  0
   -2.4466   -4.0734   -0.0324 H   0  0  0  0  0  0  0  0  0  0  0  0
   -0.0144   -3.6958   -0.4849 H   0  0  0  0  0  0  0  0  0  0  0  0
   -0.7339    0.5298   -0.6852 H   0  0  0  0  0  0  0  0  0  0  0  0
   -3.1233    0.1653   -0.2432 H   0  0  0  0  0  0  0  0  0  0  0  0
   10.1287   10.7618   -1.5540 N   0  0  0  0  0  0  0  0  0  0  0  0
   10.8830   11.5696   -1.5577 N   0  0  0  0  0  0  0  0  0  0  0  0
   -4.2551   -2.3109    0.1454 O   0  0  0  0  0  0  0  0  0  0  0  0
   -5.1932   -1.2542    0.2242 C   0  0  0  0  0  0  0  0  0  0  0  0
   -6.1592   -1.7190    0.4280 H   0  0  0  0  0  0  0  0  0  0  0  0
   -5.2568   -0.6939   -0.7190 H   0  0  0  0  0  0  0  0  0  0  0  0
   -4.9529   -0.5548    1.0365 H   0  0  0  0  0  0  0  0  0  0  0  0
    1.1233   -1.4182   -0.8545 O   0  0  0  0  0  0  0  0  0  0  0  0
    1.3244   -0.4794   -0.9568 H   0  0  0  0  0  0  0  0  0  0  0  0
  1  6  1  0  0  0  0
  1  7  1  0  0  0  0
  2  1  2  0  0  0  0
  3  4  2  0  0  0  0
  3  2  1  0  0  0  0
  4  5  1  0  0  0  0
  5 10  1  0  0  0  0
  5  6  2  0  0  0  0
  6 13  1  0  0  0  0
  8  2  1  0  0  0  0
  9  4  1  0  0  0  0
 12 11  3  0  0  0  0
 13 14  1  0  0  0  0
 14 15  1  0  0  0  0
 14 17  1  0  0  0  0
 16 14  1  0  0  0  0
 18  3  1  0  0  0  0
 19 18  1  0  0  0  0
M  END
