Coordinates from ORCA-job 4-MeO-Ph-N2-OH-B3LYPG-6-31G_dp-MTMO-d009-169-n800
 OpenBabel09051907473D

 19 18  0  0  0  0  0  0  0  0999 V2000
   -1.7169   -2.7370   -0.2105 C   0  0  0  0  0  0  0  0  0  0  0  0
   -0.3690   -2.5254   -0.4612 C   0  0  0  0  0  0  0  0  0  0  0  0
    0.1162   -1.2234   -0.6467 C   0  0  0  0  0  0  0  0  0  0  0  0
   -0.7680   -0.1486   -0.5779 C   0  0  0  0  0  0  0  0  0  0  0  0
   -2.1293   -0.3588   -0.3254 C   0  0  0  0  0  0  0  0  0  0  0  0
   -2.6105   -1.6569   -0.1399 C   0  0  0  0  0  0  0  0  0  0  0  0
   -2.1059   -3.7395   -0.0639 H   0  0  0  0  0  0  0  0  0  0  0  0
    0.3254   -3.3572   -0.5176 H   0  0  0  0  0  0  0  0  0  0  0  0
   -0.4032    0.8667   -0.7221 H   0  0  0  0  0  0  0  0  0  0  0  0
   -2.7916    0.4975   -0.2788 H   0  0  0  0  0  0  0  0  0  0  0  0
    7.2830    7.9194   -1.2652 N   0  0  0  0  0  0  0  0  0  0  0  0
    8.0292    8.7347   -1.2633 N   0  0  0  0  0  0  0  0  0  0  0  0
   -3.9181   -1.9807    0.1125 O   0  0  0  0  0  0  0  0  0  0  0  0
   -4.8584   -0.9259    0.1902 C   0  0  0  0  0  0  0  0  0  0  0  0
   -5.8234   -1.3926    0.3946 H   0  0  0  0  0  0  0  0  0  0  0  0
   -4.9232   -0.3667   -0.7535 H   0  0  0  0  0  0  0  0  0  0  0  0
   -4.6196   -0.2252    1.0019 H   0  0  0  0  0  0  0  0  0  0  0  0
    1.4582   -1.0775   -0.8900 O   0  0  0  0  0  0  0  0  0  0  0  0
    1.6572   -0.1384   -0.9934 H   0  0  0  0  0  0  0  0  0  0  0  0
  1  6  1  0  0  0  0
  1  7  1  0  0  0  0
  2  1  2  0  0  0  0
  3  4  2  0  0  0  0
  3  2  1  0  0  0  0
  4  5  1  0  0  0  0
  5 10  1  0  0  0  0
  5  6  2  0  0  0  0
  6 13  1  0  0  0  0
  8  2  1  0  0  0  0
  9  4  1  0  0  0  0
 11 12  3  0  0  0  0
 13 14  1  0  0  0  0
 14 15  1  0  0  0  0
 14 17  1  0  0  0  0
 16 14  1  0  0  0  0
 18  3  1  0  0  0  0
 19 18  1  0  0  0  0
M  END
