Coordinates from ORCA-job 4-MeO-Ph-N2-OH-B3LYPG-6-31G_dp-MTMO-d009-169-n800
 OpenBabel09051907473D

 19 18  0  0  0  0  0  0  0  0999 V2000
   -1.3785   -2.4113   -0.2249 C   0  0  0  0  0  0  0  0  0  0  0  0
   -0.0368   -2.1709   -0.4832 C   0  0  0  0  0  0  0  0  0  0  0  0
    0.4168   -0.8602   -0.6866 C   0  0  0  0  0  0  0  0  0  0  0  0
   -0.4925    0.1942   -0.6279 C   0  0  0  0  0  0  0  0  0  0  0  0
   -1.8476   -0.0452   -0.3675 C   0  0  0  0  0  0  0  0  0  0  0  0
   -2.2972   -1.3518   -0.1644 C   0  0  0  0  0  0  0  0  0  0  0  0
   -1.7430   -3.4208   -0.0642 H   0  0  0  0  0  0  0  0  0  0  0  0
    0.6769   -2.9867   -0.5317 H   0  0  0  0  0  0  0  0  0  0  0  0
   -0.1524    1.2159   -0.7861 H   0  0  0  0  0  0  0  0  0  0  0  0
   -2.5297    0.7958   -0.3287 H   0  0  0  0  0  0  0  0  0  0  0  0
    4.7454    5.1918   -1.0198 N   0  0  0  0  0  0  0  0  0  0  0  0
    5.4359    6.0524   -0.9540 N   0  0  0  0  0  0  0  0  0  0  0  0
   -3.5960   -1.7033    0.0966 O   0  0  0  0  0  0  0  0  0  0  0  0
   -4.5610   -0.6704    0.1639 C   0  0  0  0  0  0  0  0  0  0  0  0
   -5.5143   -1.1575    0.3754 H   0  0  0  0  0  0  0  0  0  0  0  0
   -4.6407   -0.1239   -0.7861 H   0  0  0  0  0  0  0  0  0  0  0  0
   -4.3376    0.0452    0.9668 H   0  0  0  0  0  0  0  0  0  0  0  0
    1.7539   -0.6855   -0.9366 O   0  0  0  0  0  0  0  0  0  0  0  0
    1.9305    0.2569   -1.0511 H   0  0  0  0  0  0  0  0  0  0  0  0
  1  6  1  0  0  0  0
  1  7  1  0  0  0  0
  2  1  2  0  0  0  0
  3  4  2  0  0  0  0
  3  2  1  0  0  0  0
  4  5  1  0  0  0  0
  5 10  1  0  0  0  0
  5  6  2  0  0  0  0
  6 13  1  0  0  0  0
  8  2  1  0  0  0  0
  9  4  1  0  0  0  0
 11 12  3  0  0  0  0
 13 14  1  0  0  0  0
 14 15  1  0  0  0  0
 14 17  1  0  0  0  0
 16 14  1  0  0  0  0
 18  3  1  0  0  0  0
 19 18  1  0  0  0  0
M  END
