Coordinates from ORCA-job 4-MeO-Ph-N2-OH-B3LYPG-6-31G_dp-MTMO-d009-169-n800
 OpenBabel09051907473D

 19 18  0  0  0  0  0  0  0  0999 V2000
   -1.6528   -2.6739   -0.2154 C   0  0  0  0  0  0  0  0  0  0  0  0
   -0.3050   -2.4614   -0.4669 C   0  0  0  0  0  0  0  0  0  0  0  0
    0.1790   -1.1593   -0.6540 C   0  0  0  0  0  0  0  0  0  0  0  0
   -0.7061   -0.0851   -0.5862 C   0  0  0  0  0  0  0  0  0  0  0  0
   -2.0672   -0.2962   -0.3328 C   0  0  0  0  0  0  0  0  0  0  0  0
   -2.5472   -1.5944   -0.1457 C   0  0  0  0  0  0  0  0  0  0  0  0
   -2.0408   -3.6765   -0.0675 H   0  0  0  0  0  0  0  0  0  0  0  0
    0.3900   -3.2927   -0.5225 H   0  0  0  0  0  0  0  0  0  0  0  0
   -0.3422    0.9303   -0.7317 H   0  0  0  0  0  0  0  0  0  0  0  0
   -2.7302    0.5597   -0.2870 H   0  0  0  0  0  0  0  0  0  0  0  0
    6.7501    7.3839   -1.2113 N   0  0  0  0  0  0  0  0  0  0  0  0
    7.4933    8.2019   -1.2053 N   0  0  0  0  0  0  0  0  0  0  0  0
   -3.8544   -1.9190    0.1075 O   0  0  0  0  0  0  0  0  0  0  0  0
   -4.7956   -0.8649    0.1844 C   0  0  0  0  0  0  0  0  0  0  0  0
   -5.7602   -1.3322    0.3896 H   0  0  0  0  0  0  0  0  0  0  0  0
   -4.8611   -0.3068   -0.7599 H   0  0  0  0  0  0  0  0  0  0  0  0
   -4.5571   -0.1631    0.9952 H   0  0  0  0  0  0  0  0  0  0  0  0
    1.5207   -1.0125   -0.8980 O   0  0  0  0  0  0  0  0  0  0  0  0
    1.7188   -0.0734   -1.0028 H   0  0  0  0  0  0  0  0  0  0  0  0
  1  6  1  0  0  0  0
  1  7  1  0  0  0  0
  2  1  2  0  0  0  0
  3  4  2  0  0  0  0
  3  2  1  0  0  0  0
  4  5  1  0  0  0  0
  5 10  1  0  0  0  0
  5  6  2  0  0  0  0
  6 13  1  0  0  0  0
  8  2  1  0  0  0  0
  9  4  1  0  0  0  0
 11 12  3  0  0  0  0
 13 14  1  0  0  0  0
 14 15  1  0  0  0  0
 14 17  1  0  0  0  0
 16 14  1  0  0  0  0
 18  3  1  0  0  0  0
 19 18  1  0  0  0  0
M  END
