Coordinates from ORCA-job 4-MeO-Ph-N2-OH-B3LYPG-6-31G_dp-MTMO-d009-169-n800
 OpenBabel09051907463D

 19 19  0  0  0  0  0  0  0  0999 V2000
   -1.2191   -1.6463   -1.4584 C   0  0  0  0  0  0  0  0  0  0  0  0
    0.1130   -1.2907   -1.5776 C   0  0  0  0  0  0  0  0  0  0  0  0
    0.6351   -0.1908   -0.8744 C   0  0  0  0  0  0  0  0  0  0  0  0
   -0.2146    0.5606   -0.0485 C   0  0  0  0  0  0  0  0  0  0  0  0
   -1.5600    0.2075    0.0690 C   0  0  0  0  0  0  0  0  0  0  0  0
   -2.0692   -0.8959   -0.6292 C   0  0  0  0  0  0  0  0  0  0  0  0
   -1.6303   -2.4960   -1.9928 H   0  0  0  0  0  0  0  0  0  0  0  0
    0.7842   -1.8554   -2.2157 H   0  0  0  0  0  0  0  0  0  0  0  0
    0.1626    1.4121    0.4948 H   0  0  0  0  0  0  0  0  0  0  0  0
   -2.2002    0.8034    0.7087 H   0  0  0  0  0  0  0  0  0  0  0  0
    2.0756    0.0041   -1.1566 N   0  0  0  0  0  0  0  0  0  0  0  0
    2.8432    0.8238   -0.6654 N   0  0  0  0  0  0  0  0  0  0  0  0
   -3.3606   -1.3177   -0.5729 O   0  0  0  0  0  0  0  0  0  0  0  0
   -4.2715   -0.6060    0.2524 C   0  0  0  0  0  0  0  0  0  0  0  0
   -5.2297   -1.1177    0.1526 H   0  0  0  0  0  0  0  0  0  0  0  0
   -4.3831    0.4357   -0.0739 H   0  0  0  0  0  0  0  0  0  0  0  0
   -3.9603   -0.6225    1.3047 H   0  0  0  0  0  0  0  0  0  0  0  0
    2.2702    1.7159    0.3157 O   0  0  0  0  0  0  0  0  0  0  0  0
    3.0469    2.2404    0.5573 H   0  0  0  0  0  0  0  0  0  0  0  0
  1  6  1  0  0  0  0
  2  1  2  0  0  0  0
  2  3  1  0  0  0  0
  3  4  2  0  0  0  0
  4  5  1  0  0  0  0
  4  9  1  0  0  0  0
  5 10  1  0  0  0  0
  6 13  1  0  0  0  0
  6  5  2  0  0  0  0
  7  1  1  0  0  0  0
  8  2  1  0  0  0  0
 11  3  1  0  0  0  0
 11 12  2  0  0  0  0
 12 18  1  0  0  0  0
 13 14  1  0  0  0  0
 14 17  1  0  0  0  0
 15 14  1  0  0  0  0
 16 14  1  0  0  0  0
 18 19  1  0  0  0  0
M  END
