Coordinates from ORCA-job 4-MeO-Ph-N2-OH-B3LYPG-6-31G_dp-MTMO-d009-169-n800
 OpenBabel09051907473D

 19 18  0  0  0  0  0  0  0  0999 V2000
   -1.5538   -2.5770   -0.2221 C   0  0  0  0  0  0  0  0  0  0  0  0
   -0.2067   -2.3619   -0.4750 C   0  0  0  0  0  0  0  0  0  0  0  0
    0.2742   -1.0591   -0.6655 C   0  0  0  0  0  0  0  0  0  0  0  0
   -0.6133    0.0132   -0.5994 C   0  0  0  0  0  0  0  0  0  0  0  0
   -1.9737   -0.2005   -0.3446 C   0  0  0  0  0  0  0  0  0  0  0  0
   -2.4506   -1.4994   -0.1542 C   0  0  0  0  0  0  0  0  0  0  0  0
   -1.9394   -3.5802   -0.0716 H   0  0  0  0  0  0  0  0  0  0  0  0
    0.4902   -3.1918   -0.5293 H   0  0  0  0  0  0  0  0  0  0  0  0
   -0.2519    1.0291   -0.7475 H   0  0  0  0  0  0  0  0  0  0  0  0
   -2.6387    0.6540   -0.3002 H   0  0  0  0  0  0  0  0  0  0  0  0
    5.9444    6.5622   -1.1320 N   0  0  0  0  0  0  0  0  0  0  0  0
    6.6774    7.3893   -1.1136 N   0  0  0  0  0  0  0  0  0  0  0  0
   -3.7569   -1.8265    0.1007 O   0  0  0  0  0  0  0  0  0  0  0  0
   -4.7005   -0.7744    0.1758 C   0  0  0  0  0  0  0  0  0  0  0  0
   -5.6639   -1.2435    0.3824 H   0  0  0  0  0  0  0  0  0  0  0  0
   -4.7678   -0.2185   -0.7697 H   0  0  0  0  0  0  0  0  0  0  0  0
   -4.4632   -0.0703    0.9849 H   0  0  0  0  0  0  0  0  0  0  0  0
    1.6153   -0.9098   -0.9109 O   0  0  0  0  0  0  0  0  0  0  0  0
    1.8111    0.0295   -1.0184 H   0  0  0  0  0  0  0  0  0  0  0  0
  1  6  1  0  0  0  0
  1  7  1  0  0  0  0
  2  1  2  0  0  0  0
  3  4  2  0  0  0  0
  3  2  1  0  0  0  0
  4  5  1  0  0  0  0
  5 10  1  0  0  0  0
  5  6  2  0  0  0  0
  6 13  1  0  0  0  0
  8  2  1  0  0  0  0
  9  4  1  0  0  0  0
 11 12  3  0  0  0  0
 13 14  1  0  0  0  0
 14 15  1  0  0  0  0
 14 17  1  0  0  0  0
 16 14  1  0  0  0  0
 18  3  1  0  0  0  0
 19 18  1  0  0  0  0
M  END
