Coordinates from ORCA-job 4-MeO-Ph-N2-OH-B3LYPG-6-31G_dp-MTMO-d009-169-n800
 OpenBabel09051907473D

 19 18  0  0  0  0  0  0  0  0999 V2000
   -1.4963   -2.5215   -0.2252 C   0  0  0  0  0  0  0  0  0  0  0  0
   -0.1501   -2.3028   -0.4792 C   0  0  0  0  0  0  0  0  0  0  0  0
    0.3267   -0.9988   -0.6721 C   0  0  0  0  0  0  0  0  0  0  0  0
   -0.5640    0.0709   -0.6074 C   0  0  0  0  0  0  0  0  0  0  0  0
   -1.9236   -0.1465   -0.3515 C   0  0  0  0  0  0  0  0  0  0  0  0
   -2.3964   -1.4465   -0.1586 C   0  0  0  0  0  0  0  0  0  0  0  0
   -1.8788   -3.5256   -0.0727 H   0  0  0  0  0  0  0  0  0  0  0  0
    0.5493   -3.1305   -0.5324 H   0  0  0  0  0  0  0  0  0  0  0  0
   -0.2057    1.0876   -0.7573 H   0  0  0  0  0  0  0  0  0  0  0  0
   -2.5911    0.7060   -0.3081 H   0  0  0  0  0  0  0  0  0  0  0  0
    5.5018    6.0938   -1.0905 N   0  0  0  0  0  0  0  0  0  0  0  0
    6.2238    6.9301   -1.0598 N   0  0  0  0  0  0  0  0  0  0  0  0
   -3.7016   -1.7771    0.0974 O   0  0  0  0  0  0  0  0  0  0  0  0
   -4.6484   -0.7278    0.1710 C   0  0  0  0  0  0  0  0  0  0  0  0
   -5.6103   -1.1995    0.3787 H   0  0  0  0  0  0  0  0  0  0  0  0
   -4.7177   -0.1736   -0.7753 H   0  0  0  0  0  0  0  0  0  0  0  0
   -4.4130   -0.0218    0.9790 H   0  0  0  0  0  0  0  0  0  0  0  0
    1.6673   -0.8458   -0.9184 O   0  0  0  0  0  0  0  0  0  0  0  0
    1.8602    0.0939   -1.0278 H   0  0  0  0  0  0  0  0  0  0  0  0
  1  6  1  0  0  0  0
  1  7  1  0  0  0  0
  2  1  2  0  0  0  0
  3  4  2  0  0  0  0
  3  2  1  0  0  0  0
  4  5  1  0  0  0  0
  5 10  1  0  0  0  0
  5  6  2  0  0  0  0
  6 13  1  0  0  0  0
  8  2  1  0  0  0  0
  9  4  1  0  0  0  0
 11 12  3  0  0  0  0
 13 14  1  0  0  0  0
 14 15  1  0  0  0  0
 14 17  1  0  0  0  0
 16 14  1  0  0  0  0
 18  3  1  0  0  0  0
 19 18  1  0  0  0  0
M  END
