Coordinates from ORCA-job 4-MeO-Ph-N2-OH-B3LYPG-6-31G_dp-MTMO-d009-169-n800
 OpenBabel09051907473D

 19 18  0  0  0  0  0  0  0  0999 V2000
   -1.6005   -2.6225   -0.2191 C   0  0  0  0  0  0  0  0  0  0  0  0
   -0.2530   -2.4091   -0.4713 C   0  0  0  0  0  0  0  0  0  0  0  0
    0.2297   -1.1067   -0.6601 C   0  0  0  0  0  0  0  0  0  0  0  0
   -0.6564   -0.0332   -0.5931 C   0  0  0  0  0  0  0  0  0  0  0  0
   -2.0172   -0.2454   -0.3390 C   0  0  0  0  0  0  0  0  0  0  0  0
   -2.4959   -1.5439   -0.1502 C   0  0  0  0  0  0  0  0  0  0  0  0
   -1.9875   -3.6254   -0.0699 H   0  0  0  0  0  0  0  0  0  0  0  0
    0.4428   -3.2398   -0.5263 H   0  0  0  0  0  0  0  0  0  0  0  0
   -0.2935    0.9823   -0.7399 H   0  0  0  0  0  0  0  0  0  0  0  0
   -2.6810    0.6099   -0.2939 H   0  0  0  0  0  0  0  0  0  0  0  0
    6.3205    6.9486   -1.1685 N   0  0  0  0  0  0  0  0  0  0  0  0
    7.0594    7.7705   -1.1572 N   0  0  0  0  0  0  0  0  0  0  0  0
   -3.8027   -1.8694    0.1038 O   0  0  0  0  0  0  0  0  0  0  0  0
   -4.7449   -0.8161    0.1798 C   0  0  0  0  0  0  0  0  0  0  0  0
   -5.7090   -1.2841    0.3857 H   0  0  0  0  0  0  0  0  0  0  0  0
   -4.8112   -0.2591   -0.7651 H   0  0  0  0  0  0  0  0  0  0  0  0
   -4.5068   -0.1133    0.9897 H   0  0  0  0  0  0  0  0  0  0  0  0
    1.5711   -0.9589   -0.9048 O   0  0  0  0  0  0  0  0  0  0  0  0
    1.7683   -0.0197   -1.0110 H   0  0  0  0  0  0  0  0  0  0  0  0
  1  6  1  0  0  0  0
  1  7  1  0  0  0  0
  2  1  2  0  0  0  0
  3  4  2  0  0  0  0
  3  2  1  0  0  0  0
  4  5  1  0  0  0  0
  5 10  1  0  0  0  0
  5  6  2  0  0  0  0
  6 13  1  0  0  0  0
  8  2  1  0  0  0  0
  9  4  1  0  0  0  0
 11 12  3  0  0  0  0
 13 14  1  0  0  0  0
 14 15  1  0  0  0  0
 14 17  1  0  0  0  0
 16 14  1  0  0  0  0
 18  3  1  0  0  0  0
 19 18  1  0  0  0  0
M  END
