Coordinates from ORCA-job 4-MeO-Ph-N2-OH-B3LYPG-6-31G_dp-MTMO-d009-169-n800
 OpenBabel09051907473D

 19 18  0  0  0  0  0  0  0  0999 V2000
   -1.2767   -2.3188   -0.2130 C   0  0  0  0  0  0  0  0  0  0  0  0
    0.0557   -2.0382   -0.4791 C   0  0  0  0  0  0  0  0  0  0  0  0
    0.4656   -0.7163   -0.7017 C   0  0  0  0  0  0  0  0  0  0  0  0
   -0.4775    0.3085   -0.6542 C   0  0  0  0  0  0  0  0  0  0  0  0
   -1.8232    0.0286   -0.3859 C   0  0  0  0  0  0  0  0  0  0  0  0
   -2.2293   -1.2891   -0.1637 C   0  0  0  0  0  0  0  0  0  0  0  0
   -1.6073   -3.3374   -0.0372 H   0  0  0  0  0  0  0  0  0  0  0  0
    0.7957   -2.8308   -0.5187 H   0  0  0  0  0  0  0  0  0  0  0  0
   -0.1715    1.3385   -0.8277 H   0  0  0  0  0  0  0  0  0  0  0  0
   -2.5323    0.8474   -0.3557 H   0  0  0  0  0  0  0  0  0  0  0  0
    4.3089    4.5027   -0.9695 N   0  0  0  0  0  0  0  0  0  0  0  0
    4.9905    5.3674   -0.8724 N   0  0  0  0  0  0  0  0  0  0  0  0
   -3.5152   -1.6792    0.1063 O   0  0  0  0  0  0  0  0  0  0  0  0
   -4.5135   -0.6778    0.1618 C   0  0  0  0  0  0  0  0  0  0  0  0
   -5.4501   -1.1933    0.3806 H   0  0  0  0  0  0  0  0  0  0  0  0
   -4.6121   -0.1461   -0.7948 H   0  0  0  0  0  0  0  0  0  0  0  0
   -4.3131    0.0549    0.9554 H   0  0  0  0  0  0  0  0  0  0  0  0
    1.7955   -0.5015   -0.9583 O   0  0  0  0  0  0  0  0  0  0  0  0
    1.9421    0.4449   -1.0823 H   0  0  0  0  0  0  0  0  0  0  0  0
  1  6  1  0  0  0  0
  1  7  1  0  0  0  0
  2  1  2  0  0  0  0
  3  4  2  0  0  0  0
  3  2  1  0  0  0  0
  4  5  1  0  0  0  0
  5 10  1  0  0  0  0
  5  6  2  0  0  0  0
  6 13  1  0  0  0  0
  8  2  1  0  0  0  0
  9  4  1  0  0  0  0
 11 12  3  0  0  0  0
 13 14  1  0  0  0  0
 14 15  1  0  0  0  0
 14 17  1  0  0  0  0
 16 14  1  0  0  0  0
 18  3  1  0  0  0  0
 19 18  1  0  0  0  0
M  END
