Coordinates from ORCA-job 4-MeO-Ph-N2-OH-B3LYPG-6-31G_dp-MTMO-d009-169-n800
 OpenBabel09051907473D

 19 18  0  0  0  0  0  0  0  0999 V2000
   -1.5012   -2.5261   -0.2249 C   0  0  0  0  0  0  0  0  0  0  0  0
   -0.1549   -2.3079   -0.4789 C   0  0  0  0  0  0  0  0  0  0  0  0
    0.3224   -1.0040   -0.6716 C   0  0  0  0  0  0  0  0  0  0  0  0
   -0.5680    0.0660   -0.6067 C   0  0  0  0  0  0  0  0  0  0  0  0
   -1.9277   -0.1510   -0.3509 C   0  0  0  0  0  0  0  0  0  0  0  0
   -2.4010   -1.4509   -0.1583 C   0  0  0  0  0  0  0  0  0  0  0  0
   -1.8840   -3.5302   -0.0727 H   0  0  0  0  0  0  0  0  0  0  0  0
    0.5443   -3.1359   -0.5322 H   0  0  0  0  0  0  0  0  0  0  0  0
   -0.2093    1.0826   -0.7564 H   0  0  0  0  0  0  0  0  0  0  0  0
   -2.5949    0.7017   -0.3074 H   0  0  0  0  0  0  0  0  0  0  0  0
    5.5381    6.1331   -1.0939 N   0  0  0  0  0  0  0  0  0  0  0  0
    6.2612    6.9686   -1.0643 N   0  0  0  0  0  0  0  0  0  0  0  0
   -3.7062   -1.7811    0.0976 O   0  0  0  0  0  0  0  0  0  0  0  0
   -4.6526   -0.7315    0.1714 C   0  0  0  0  0  0  0  0  0  0  0  0
   -5.6147   -1.2029    0.3790 H   0  0  0  0  0  0  0  0  0  0  0  0
   -4.7217   -0.1771   -0.7748 H   0  0  0  0  0  0  0  0  0  0  0  0
   -4.4171   -0.0256    0.9795 H   0  0  0  0  0  0  0  0  0  0  0  0
    1.6630   -0.8515   -0.9178 O   0  0  0  0  0  0  0  0  0  0  0  0
    1.8563    0.0882   -1.0270 H   0  0  0  0  0  0  0  0  0  0  0  0
  1  6  1  0  0  0  0
  1  7  1  0  0  0  0
  2  1  2  0  0  0  0
  3  4  2  0  0  0  0
  3  2  1  0  0  0  0
  4  5  1  0  0  0  0
  5 10  1  0  0  0  0
  5  6  2  0  0  0  0
  6 13  1  0  0  0  0
  8  2  1  0  0  0  0
  9  4  1  0  0  0  0
 11 12  3  0  0  0  0
 13 14  1  0  0  0  0
 14 15  1  0  0  0  0
 14 17  1  0  0  0  0
 16 14  1  0  0  0  0
 18  3  1  0  0  0  0
 19 18  1  0  0  0  0
M  END
