Coordinates from ORCA-job 4-MeO-Ph-N2-OH-B3LYPG-6-31G_dp-MTMO-d009-169-n800
 OpenBabel09051907473D

 19 18  0  0  0  0  0  0  0  0999 V2000
   -1.4649   -2.4915   -0.2263 C   0  0  0  0  0  0  0  0  0  0  0  0
   -0.1193   -2.2693   -0.4810 C   0  0  0  0  0  0  0  0  0  0  0  0
    0.3538   -0.9643   -0.6758 C   0  0  0  0  0  0  0  0  0  0  0  0
   -0.5400    0.1030   -0.6120 C   0  0  0  0  0  0  0  0  0  0  0  0
   -1.8989   -0.1179   -0.3553 C   0  0  0  0  0  0  0  0  0  0  0  0
   -2.3680   -1.4190   -0.1608 C   0  0  0  0  0  0  0  0  0  0  0  0
   -1.8444   -3.4965   -0.0724 H   0  0  0  0  0  0  0  0  0  0  0  0
    0.5824   -3.0952   -0.5335 H   0  0  0  0  0  0  0  0  0  0  0  0
   -0.1846    1.1205   -0.7634 H   0  0  0  0  0  0  0  0  0  0  0  0
   -2.5687    0.7328   -0.3128 H   0  0  0  0  0  0  0  0  0  0  0  0
    5.2752    5.8432   -1.0698 N   0  0  0  0  0  0  0  0  0  0  0  0
    5.9894    6.6859   -1.0306 N   0  0  0  0  0  0  0  0  0  0  0  0
   -3.6721   -1.7530    0.0961 O   0  0  0  0  0  0  0  0  0  0  0  0
   -4.6218   -0.7063    0.1687 C   0  0  0  0  0  0  0  0  0  0  0  0
   -5.5824   -1.1804    0.3770 H   0  0  0  0  0  0  0  0  0  0  0  0
   -4.6928   -0.1534   -0.7782 H   0  0  0  0  0  0  0  0  0  0  0  0
   -4.3884    0.0014    0.9758 H   0  0  0  0  0  0  0  0  0  0  0  0
    1.6938   -0.8078   -0.9227 O   0  0  0  0  0  0  0  0  0  0  0  0
    1.8840    0.1324   -1.0331 H   0  0  0  0  0  0  0  0  0  0  0  0
  1  6  1  0  0  0  0
  1  7  1  0  0  0  0
  2  1  2  0  0  0  0
  3  4  2  0  0  0  0
  3  2  1  0  0  0  0
  4  5  1  0  0  0  0
  5 10  1  0  0  0  0
  5  6  2  0  0  0  0
  6 13  1  0  0  0  0
  8  2  1  0  0  0  0
  9  4  1  0  0  0  0
 11 12  3  0  0  0  0
 13 14  1  0  0  0  0
 14 15  1  0  0  0  0
 14 17  1  0  0  0  0
 16 14  1  0  0  0  0
 18  3  1  0  0  0  0
 19 18  1  0  0  0  0
M  END
