Coordinates from ORCA-job 4-MeO-Ph-N2-OH-B3LYPG-6-31G_dp-MTMO-d009-169-n800
 OpenBabel09051907473D

 19 18  0  0  0  0  0  0  0  0999 V2000
   -2.0600   -3.0760   -0.1773 C   0  0  0  0  0  0  0  0  0  0  0  0
   -0.7115   -2.8670   -0.4275 C   0  0  0  0  0  0  0  0  0  0  0  0
   -0.2235   -1.5659   -0.6115 C   0  0  0  0  0  0  0  0  0  0  0  0
   -1.1054   -0.4893   -0.5419 C   0  0  0  0  0  0  0  0  0  0  0  0
   -2.4673   -0.6969   -0.2899 C   0  0  0  0  0  0  0  0  0  0  0  0
   -2.9513   -1.9941   -0.1058 C   0  0  0  0  0  0  0  0  0  0  0  0
   -2.4511   -4.0779   -0.0318 H   0  0  0  0  0  0  0  0  0  0  0  0
   -0.0189   -3.7003   -0.4844 H   0  0  0  0  0  0  0  0  0  0  0  0
   -0.7384    0.5253   -0.6849 H   0  0  0  0  0  0  0  0  0  0  0  0
   -3.1278    0.1608   -0.2428 H   0  0  0  0  0  0  0  0  0  0  0  0
   10.1664   10.8000   -1.5581 N   0  0  0  0  0  0  0  0  0  0  0  0
   10.9215   11.6072   -1.5613 N   0  0  0  0  0  0  0  0  0  0  0  0
   -4.2596   -2.3153    0.1459 O   0  0  0  0  0  0  0  0  0  0  0  0
   -5.1976   -1.2586    0.2247 C   0  0  0  0  0  0  0  0  0  0  0  0
   -6.1637   -1.7234    0.4286 H   0  0  0  0  0  0  0  0  0  0  0  0
   -5.2613   -0.6984   -0.7185 H   0  0  0  0  0  0  0  0  0  0  0  0
   -4.9573   -0.5592    1.0370 H   0  0  0  0  0  0  0  0  0  0  0  0
    1.1189   -1.4227   -0.8541 O   0  0  0  0  0  0  0  0  0  0  0  0
    1.3199   -0.4839   -0.9564 H   0  0  0  0  0  0  0  0  0  0  0  0
  1  6  1  0  0  0  0
  1  7  1  0  0  0  0
  2  1  2  0  0  0  0
  3  4  2  0  0  0  0
  3  2  1  0  0  0  0
  4  5  1  0  0  0  0
  5 10  1  0  0  0  0
  5  6  2  0  0  0  0
  6 13  1  0  0  0  0
  8  2  1  0  0  0  0
  9  4  1  0  0  0  0
 12 11  3  0  0  0  0
 13 14  1  0  0  0  0
 14 15  1  0  0  0  0
 14 17  1  0  0  0  0
 16 14  1  0  0  0  0
 18  3  1  0  0  0  0
 19 18  1  0  0  0  0
M  END
