Coordinates from ORCA-job 4-MeO-Ph-N2-OH-B3LYPG-6-31G_dp-MTMO-d009-169-n800
 OpenBabel09051907463D

 19 19  0  0  0  0  0  0  0  0999 V2000
   -1.1985   -1.6733   -1.3964 C   0  0  0  0  0  0  0  0  0  0  0  0
    0.1138   -1.2641   -1.5831 C   0  0  0  0  0  0  0  0  0  0  0  0
    0.5743   -0.1022   -0.9622 C   0  0  0  0  0  0  0  0  0  0  0  0
   -0.2742    0.6842   -0.1877 C   0  0  0  0  0  0  0  0  0  0  0  0
   -1.6026    0.2824   -0.0151 C   0  0  0  0  0  0  0  0  0  0  0  0
   -2.0665   -0.8993   -0.6089 C   0  0  0  0  0  0  0  0  0  0  0  0
   -1.5810   -2.5787   -1.8550 H   0  0  0  0  0  0  0  0  0  0  0  0
    0.7943   -1.8350   -2.2060 H   0  0  0  0  0  0  0  0  0  0  0  0
    0.0803    1.5922    0.2761 H   0  0  0  0  0  0  0  0  0  0  0  0
   -2.2601    0.8991    0.5859 H   0  0  0  0  0  0  0  0  0  0  0  0
    2.1074    0.2195   -1.3786 N   0  0  0  0  0  0  0  0  0  0  0  0
    2.8680    0.9042   -0.7138 N   0  0  0  0  0  0  0  0  0  0  0  0
   -3.3362   -1.3777   -0.4892 O   0  0  0  0  0  0  0  0  0  0  0  0
   -4.2658   -0.6416    0.2912 C   0  0  0  0  0  0  0  0  0  0  0  0
   -5.2014   -1.2014    0.2516 H   0  0  0  0  0  0  0  0  0  0  0  0
   -4.4304    0.3641   -0.1163 H   0  0  0  0  0  0  0  0  0  0  0  0
   -3.9397   -0.5568    1.3357 H   0  0  0  0  0  0  0  0  0  0  0  0
    2.3383    1.4412    0.5063 O   0  0  0  0  0  0  0  0  0  0  0  0
    3.1119    1.9078    0.8554 H   0  0  0  0  0  0  0  0  0  0  0  0
  1  6  1  0  0  0  0
  2  1  2  0  0  0  0
  2  3  1  0  0  0  0
  3  4  2  0  0  0  0
  4  5  1  0  0  0  0
  4  9  1  0  0  0  0
  5 10  1  0  0  0  0
  6 13  1  0  0  0  0
  6  5  2  0  0  0  0
  7  1  1  0  0  0  0
  8  2  1  0  0  0  0
 11  3  1  0  0  0  0
 11 12  2  0  0  0  0
 12 18  1  0  0  0  0
 13 14  1  0  0  0  0
 14 17  1  0  0  0  0
 15 14  1  0  0  0  0
 16 14  1  0  0  0  0
 18 19  1  0  0  0  0
M  END
