Coordinates from ORCA-job 4-MeO-Ph-N2-OH-B3LYPG-6-31G_dp-MTMO-d009-169-n800
 OpenBabel09051907473D

 19 18  0  0  0  0  0  0  0  0999 V2000
   -1.7413   -2.7610   -0.2085 C   0  0  0  0  0  0  0  0  0  0  0  0
   -0.3932   -2.5496   -0.4590 C   0  0  0  0  0  0  0  0  0  0  0  0
    0.0923   -1.2478   -0.6440 C   0  0  0  0  0  0  0  0  0  0  0  0
   -0.7916   -0.1727   -0.5749 C   0  0  0  0  0  0  0  0  0  0  0  0
   -2.1531   -0.3827   -0.3226 C   0  0  0  0  0  0  0  0  0  0  0  0
   -2.6346   -1.6807   -0.1376 C   0  0  0  0  0  0  0  0  0  0  0  0
   -2.1305   -3.7635   -0.0624 H   0  0  0  0  0  0  0  0  0  0  0  0
    0.3009   -3.3816   -0.5156 H   0  0  0  0  0  0  0  0  0  0  0  0
   -0.4266    0.8425   -0.7187 H   0  0  0  0  0  0  0  0  0  0  0  0
   -2.8152    0.4738   -0.2758 H   0  0  0  0  0  0  0  0  0  0  0  0
    7.4863    8.1230   -1.2859 N   0  0  0  0  0  0  0  0  0  0  0  0
    8.2332    8.9377   -1.2851 N   0  0  0  0  0  0  0  0  0  0  0  0
   -3.9423   -2.0042    0.1144 O   0  0  0  0  0  0  0  0  0  0  0  0
   -4.8823   -0.9492    0.1925 C   0  0  0  0  0  0  0  0  0  0  0  0
   -5.8475   -1.4158    0.3966 H   0  0  0  0  0  0  0  0  0  0  0  0
   -4.9469   -0.3897   -0.7510 H   0  0  0  0  0  0  0  0  0  0  0  0
   -4.6434   -0.2489    1.0044 H   0  0  0  0  0  0  0  0  0  0  0  0
    1.4343   -1.1021   -0.8870 O   0  0  0  0  0  0  0  0  0  0  0  0
    1.6336   -0.1630   -0.9900 H   0  0  0  0  0  0  0  0  0  0  0  0
  1  6  1  0  0  0  0
  1  7  1  0  0  0  0
  2  1  2  0  0  0  0
  3  4  2  0  0  0  0
  3  2  1  0  0  0  0
  4  5  1  0  0  0  0
  5 10  1  0  0  0  0
  5  6  2  0  0  0  0
  6 13  1  0  0  0  0
  8  2  1  0  0  0  0
  9  4  1  0  0  0  0
 11 12  3  0  0  0  0
 13 14  1  0  0  0  0
 14 15  1  0  0  0  0
 14 17  1  0  0  0  0
 16 14  1  0  0  0  0
 18  3  1  0  0  0  0
 19 18  1  0  0  0  0
M  END
