Coordinates from ORCA-job 4-MeO-Ph-N2-OH-B3LYPG-6-31G_dp-MTMO-d009-169-n800
 OpenBabel09051907473D

 19 18  0  0  0  0  0  0  0  0999 V2000
   -1.7398   -2.7595   -0.2087 C   0  0  0  0  0  0  0  0  0  0  0  0
   -0.3917   -2.5481   -0.4592 C   0  0  0  0  0  0  0  0  0  0  0  0
    0.0938   -1.2462   -0.6441 C   0  0  0  0  0  0  0  0  0  0  0  0
   -0.7901   -0.1712   -0.5751 C   0  0  0  0  0  0  0  0  0  0  0  0
   -2.1516   -0.3812   -0.3228 C   0  0  0  0  0  0  0  0  0  0  0  0
   -2.6331   -1.6792   -0.1378 C   0  0  0  0  0  0  0  0  0  0  0  0
   -2.1290   -3.7620   -0.0625 H   0  0  0  0  0  0  0  0  0  0  0  0
    0.3024   -3.3801   -0.5157 H   0  0  0  0  0  0  0  0  0  0  0  0
   -0.4251    0.8440   -0.7189 H   0  0  0  0  0  0  0  0  0  0  0  0
   -2.8137    0.4753   -0.2760 H   0  0  0  0  0  0  0  0  0  0  0  0
    7.4736    8.1103   -1.2846 N   0  0  0  0  0  0  0  0  0  0  0  0
    8.2205    8.9250   -1.2838 N   0  0  0  0  0  0  0  0  0  0  0  0
   -3.9408   -2.0028    0.1143 O   0  0  0  0  0  0  0  0  0  0  0  0
   -4.8808   -0.9477    0.1924 C   0  0  0  0  0  0  0  0  0  0  0  0
   -5.8460   -1.4143    0.3965 H   0  0  0  0  0  0  0  0  0  0  0  0
   -4.9454   -0.3883   -0.7512 H   0  0  0  0  0  0  0  0  0  0  0  0
   -4.6419   -0.2474    1.0042 H   0  0  0  0  0  0  0  0  0  0  0  0
    1.4358   -1.1006   -0.8872 O   0  0  0  0  0  0  0  0  0  0  0  0
    1.6350   -0.1615   -0.9902 H   0  0  0  0  0  0  0  0  0  0  0  0
  1  6  1  0  0  0  0
  1  7  1  0  0  0  0
  2  1  2  0  0  0  0
  3  4  2  0  0  0  0
  3  2  1  0  0  0  0
  4  5  1  0  0  0  0
  5 10  1  0  0  0  0
  5  6  2  0  0  0  0
  6 13  1  0  0  0  0
  8  2  1  0  0  0  0
  9  4  1  0  0  0  0
 11 12  3  0  0  0  0
 13 14  1  0  0  0  0
 14 15  1  0  0  0  0
 14 17  1  0  0  0  0
 16 14  1  0  0  0  0
 18  3  1  0  0  0  0
 19 18  1  0  0  0  0
M  END
