Coordinates from ORCA-job 4-MeO-Ph-N2-OH-B3LYPG-6-31G_dp-MTMO-d009-169-n800
 OpenBabel09051907473D

 19 18  0  0  0  0  0  0  0  0999 V2000
   -2.1067   -3.1222   -0.1723 C   0  0  0  0  0  0  0  0  0  0  0  0
   -0.7581   -2.9136   -0.4226 C   0  0  0  0  0  0  0  0  0  0  0  0
   -0.2698   -1.6127   -0.6070 C   0  0  0  0  0  0  0  0  0  0  0  0
   -1.1514   -0.5358   -0.5376 C   0  0  0  0  0  0  0  0  0  0  0  0
   -2.5133   -0.7430   -0.2854 C   0  0  0  0  0  0  0  0  0  0  0  0
   -2.9977   -2.0400   -0.1010 C   0  0  0  0  0  0  0  0  0  0  0  0
   -2.4980   -4.1239   -0.0265 H   0  0  0  0  0  0  0  0  0  0  0  0
   -0.0658   -3.7470   -0.4794 H   0  0  0  0  0  0  0  0  0  0  0  0
   -0.7842    0.4787   -0.6809 H   0  0  0  0  0  0  0  0  0  0  0  0
   -3.1736    0.1149   -0.2384 H   0  0  0  0  0  0  0  0  0  0  0  0
   10.5564   11.1952   -1.6003 N   0  0  0  0  0  0  0  0  0  0  0  0
   11.3183   11.9960   -1.5988 N   0  0  0  0  0  0  0  0  0  0  0  0
   -4.3060   -2.3608    0.1509 O   0  0  0  0  0  0  0  0  0  0  0  0
   -5.2438   -1.3038    0.2296 C   0  0  0  0  0  0  0  0  0  0  0  0
   -6.2099   -1.7684    0.4337 H   0  0  0  0  0  0  0  0  0  0  0  0
   -5.3074   -0.7438   -0.7137 H   0  0  0  0  0  0  0  0  0  0  0  0
   -5.0032   -0.6043    1.0417 H   0  0  0  0  0  0  0  0  0  0  0  0
    1.0725   -1.4698   -0.8498 O   0  0  0  0  0  0  0  0  0  0  0  0
    1.2738   -0.5311   -0.9524 H   0  0  0  0  0  0  0  0  0  0  0  0
  1  6  1  0  0  0  0
  1  7  1  0  0  0  0
  2  1  2  0  0  0  0
  3  4  2  0  0  0  0
  3  2  1  0  0  0  0
  4  5  1  0  0  0  0
  5 10  1  0  0  0  0
  5  6  2  0  0  0  0
  6 13  1  0  0  0  0
  8  2  1  0  0  0  0
  9  4  1  0  0  0  0
 11 12  3  0  0  0  0
 13 14  1  0  0  0  0
 14 15  1  0  0  0  0
 14 17  1  0  0  0  0
 16 14  1  0  0  0  0
 18  3  1  0  0  0  0
 19 18  1  0  0  0  0
M  END
