Coordinates from ORCA-job 4-MeO-Ph-N2-OH-B3LYPG-6-31G_dp-MTMO-d009-169-n800
 OpenBabel09051907473D

 19 18  0  0  0  0  0  0  0  0999 V2000
   -1.6267   -2.6482   -0.2172 C   0  0  0  0  0  0  0  0  0  0  0  0
   -0.2791   -2.4353   -0.4691 C   0  0  0  0  0  0  0  0  0  0  0  0
    0.2044   -1.1331   -0.6571 C   0  0  0  0  0  0  0  0  0  0  0  0
   -0.6812   -0.0592   -0.5896 C   0  0  0  0  0  0  0  0  0  0  0  0
   -2.0421   -0.2708   -0.3359 C   0  0  0  0  0  0  0  0  0  0  0  0
   -2.5215   -1.5691   -0.1480 C   0  0  0  0  0  0  0  0  0  0  0  0
   -2.0143   -3.6510   -0.0687 H   0  0  0  0  0  0  0  0  0  0  0  0
    0.4163   -3.2664   -0.5244 H   0  0  0  0  0  0  0  0  0  0  0  0
   -0.3177    0.9562   -0.7357 H   0  0  0  0  0  0  0  0  0  0  0  0
   -2.7055    0.5848   -0.2905 H   0  0  0  0  0  0  0  0  0  0  0  0
    6.5350    7.1665   -1.1898 N   0  0  0  0  0  0  0  0  0  0  0  0
    7.2763    7.9862   -1.1814 N   0  0  0  0  0  0  0  0  0  0  0  0
   -3.8286   -1.8941    0.1056 O   0  0  0  0  0  0  0  0  0  0  0  0
   -4.7702   -0.8404    0.1821 C   0  0  0  0  0  0  0  0  0  0  0  0
   -5.7346   -1.3080    0.3876 H   0  0  0  0  0  0  0  0  0  0  0  0
   -4.8361   -0.2828   -0.7625 H   0  0  0  0  0  0  0  0  0  0  0  0
   -4.5319   -0.1381    0.9925 H   0  0  0  0  0  0  0  0  0  0  0  0
    1.5459   -0.9859   -0.9014 O   0  0  0  0  0  0  0  0  0  0  0  0
    1.7436   -0.0467   -1.0068 H   0  0  0  0  0  0  0  0  0  0  0  0
  1  6  1  0  0  0  0
  1  7  1  0  0  0  0
  2  1  2  0  0  0  0
  3  4  2  0  0  0  0
  3  2  1  0  0  0  0
  4  5  1  0  0  0  0
  5 10  1  0  0  0  0
  5  6  2  0  0  0  0
  6 13  1  0  0  0  0
  8  2  1  0  0  0  0
  9  4  1  0  0  0  0
 11 12  3  0  0  0  0
 13 14  1  0  0  0  0
 14 15  1  0  0  0  0
 14 17  1  0  0  0  0
 16 14  1  0  0  0  0
 18  3  1  0  0  0  0
 19 18  1  0  0  0  0
M  END
