Coordinates from ORCA-job 4-MeO-Ph-N2-OH-B3LYPG-6-31G_dp-MTMO-d009-169-n800
 OpenBabel09051907473D

 19 18  0  0  0  0  0  0  0  0999 V2000
   -1.9864   -3.0031   -0.1853 C   0  0  0  0  0  0  0  0  0  0  0  0
   -0.6379   -2.7937   -0.4351 C   0  0  0  0  0  0  0  0  0  0  0  0
   -0.1501   -1.4925   -0.6185 C   0  0  0  0  0  0  0  0  0  0  0  0
   -1.0323   -0.4160   -0.5487 C   0  0  0  0  0  0  0  0  0  0  0  0
   -2.3941   -0.6240   -0.2970 C   0  0  0  0  0  0  0  0  0  0  0  0
   -2.8779   -1.9214   -0.1135 C   0  0  0  0  0  0  0  0  0  0  0  0
   -2.3774   -4.0051   -0.0403 H   0  0  0  0  0  0  0  0  0  0  0  0
    0.0549   -3.6268   -0.4924 H   0  0  0  0  0  0  0  0  0  0  0  0
   -0.6655    0.5987   -0.6912 H   0  0  0  0  0  0  0  0  0  0  0  0
   -3.0548    0.2336   -0.2496 H   0  0  0  0  0  0  0  0  0  0  0  0
    9.5461   10.1777   -1.4938 N   0  0  0  0  0  0  0  0  0  0  0  0
   10.2958   10.9899   -1.4996 N   0  0  0  0  0  0  0  0  0  0  0  0
   -4.1862   -2.2430    0.1379 O   0  0  0  0  0  0  0  0  0  0  0  0
   -5.1245   -1.1864    0.2169 C   0  0  0  0  0  0  0  0  0  0  0  0
   -6.0905   -1.6516    0.4204 H   0  0  0  0  0  0  0  0  0  0  0  0
   -5.1880   -0.6259   -0.7261 H   0  0  0  0  0  0  0  0  0  0  0  0
   -4.8845   -0.4873    1.0295 H   0  0  0  0  0  0  0  0  0  0  0  0
    1.1922   -1.3488   -0.8610 O   0  0  0  0  0  0  0  0  0  0  0  0
    1.3931   -0.4099   -0.9628 H   0  0  0  0  0  0  0  0  0  0  0  0
  1  6  1  0  0  0  0
  1  7  1  0  0  0  0
  2  1  2  0  0  0  0
  3  4  2  0  0  0  0
  3  2  1  0  0  0  0
  4  5  1  0  0  0  0
  5 10  1  0  0  0  0
  5  6  2  0  0  0  0
  6 13  1  0  0  0  0
  8  2  1  0  0  0  0
  9  4  1  0  0  0  0
 12 11  3  0  0  0  0
 13 14  1  0  0  0  0
 14 15  1  0  0  0  0
 14 17  1  0  0  0  0
 16 14  1  0  0  0  0
 18  3  1  0  0  0  0
 19 18  1  0  0  0  0
M  END
