Coordinates from ORCA-job 4-MeO-Ph-N2-OH-B3LYPG-6-31G_dp-MTMO-d009-169-n800
 OpenBabel09051907473D

 19 18  0  0  0  0  0  0  0  0999 V2000
   -2.0630   -3.0790   -0.1770 C   0  0  0  0  0  0  0  0  0  0  0  0
   -0.7145   -2.8701   -0.4271 C   0  0  0  0  0  0  0  0  0  0  0  0
   -0.2264   -1.5690   -0.6112 C   0  0  0  0  0  0  0  0  0  0  0  0
   -1.1084   -0.4923   -0.5416 C   0  0  0  0  0  0  0  0  0  0  0  0
   -2.4702   -0.6999   -0.2896 C   0  0  0  0  0  0  0  0  0  0  0  0
   -2.9543   -1.9970   -0.1055 C   0  0  0  0  0  0  0  0  0  0  0  0
   -2.4542   -4.0808   -0.0315 H   0  0  0  0  0  0  0  0  0  0  0  0
   -0.0220   -3.7033   -0.4841 H   0  0  0  0  0  0  0  0  0  0  0  0
   -0.7413    0.5223   -0.6846 H   0  0  0  0  0  0  0  0  0  0  0  0
   -3.1307    0.1579   -0.2425 H   0  0  0  0  0  0  0  0  0  0  0  0
   10.1915   10.8256   -1.5609 N   0  0  0  0  0  0  0  0  0  0  0  0
   10.9471   11.6322   -1.5637 N   0  0  0  0  0  0  0  0  0  0  0  0
   -4.2626   -2.3182    0.1462 O   0  0  0  0  0  0  0  0  0  0  0  0
   -5.2006   -1.2615    0.2250 C   0  0  0  0  0  0  0  0  0  0  0  0
   -6.1667   -1.7263    0.4289 H   0  0  0  0  0  0  0  0  0  0  0  0
   -5.2642   -0.7013   -0.7182 H   0  0  0  0  0  0  0  0  0  0  0  0
   -4.9603   -0.5621    1.0373 H   0  0  0  0  0  0  0  0  0  0  0  0
    1.1159   -1.4257   -0.8538 O   0  0  0  0  0  0  0  0  0  0  0  0
    1.3170   -0.4870   -0.9562 H   0  0  0  0  0  0  0  0  0  0  0  0
  1  6  1  0  0  0  0
  1  7  1  0  0  0  0
  2  1  2  0  0  0  0
  3  4  2  0  0  0  0
  3  2  1  0  0  0  0
  4  5  1  0  0  0  0
  5 10  1  0  0  0  0
  5  6  2  0  0  0  0
  6 13  1  0  0  0  0
  8  2  1  0  0  0  0
  9  4  1  0  0  0  0
 12 11  3  0  0  0  0
 13 14  1  0  0  0  0
 14 15  1  0  0  0  0
 14 17  1  0  0  0  0
 16 14  1  0  0  0  0
 18  3  1  0  0  0  0
 19 18  1  0  0  0  0
M  END
