Coordinates from ORCA-job 4-MeO-Ph-N2-OH-B3LYPG-6-31G_dp-MTMO-d009-169-n800
 OpenBabel09051907473D

 19 18  0  0  0  0  0  0  0  0999 V2000
   -1.6666   -2.6874   -0.2144 C   0  0  0  0  0  0  0  0  0  0  0  0
   -0.3188   -2.4752   -0.4657 C   0  0  0  0  0  0  0  0  0  0  0  0
    0.1656   -1.1731   -0.6524 C   0  0  0  0  0  0  0  0  0  0  0  0
   -0.7193   -0.0987   -0.5844 C   0  0  0  0  0  0  0  0  0  0  0  0
   -2.0805   -0.3096   -0.3312 C   0  0  0  0  0  0  0  0  0  0  0  0
   -2.5608   -1.6078   -0.1444 C   0  0  0  0  0  0  0  0  0  0  0  0
   -2.0548   -3.6900   -0.0668 H   0  0  0  0  0  0  0  0  0  0  0  0
    0.3761   -3.3066   -0.5215 H   0  0  0  0  0  0  0  0  0  0  0  0
   -0.3552    0.9166   -0.7296 H   0  0  0  0  0  0  0  0  0  0  0  0
   -2.7433    0.5464   -0.2852 H   0  0  0  0  0  0  0  0  0  0  0  0
    6.8642    7.4988   -1.2228 N   0  0  0  0  0  0  0  0  0  0  0  0
    7.6082    8.3161   -1.2178 N   0  0  0  0  0  0  0  0  0  0  0  0
   -3.8681   -1.9322    0.1085 O   0  0  0  0  0  0  0  0  0  0  0  0
   -4.8090   -0.8779    0.1856 C   0  0  0  0  0  0  0  0  0  0  0  0
   -5.7737   -1.3450    0.3906 H   0  0  0  0  0  0  0  0  0  0  0  0
   -4.8744   -0.3196   -0.7585 H   0  0  0  0  0  0  0  0  0  0  0  0
   -4.5704   -0.1764    0.9966 H   0  0  0  0  0  0  0  0  0  0  0  0
    1.5073   -1.0265   -0.8963 O   0  0  0  0  0  0  0  0  0  0  0  0
    1.7057   -0.0874   -1.0007 H   0  0  0  0  0  0  0  0  0  0  0  0
  1  6  1  0  0  0  0
  1  7  1  0  0  0  0
  2  1  2  0  0  0  0
  3  4  2  0  0  0  0
  3  2  1  0  0  0  0
  4  5  1  0  0  0  0
  5 10  1  0  0  0  0
  5  6  2  0  0  0  0
  6 13  1  0  0  0  0
  8  2  1  0  0  0  0
  9  4  1  0  0  0  0
 11 12  3  0  0  0  0
 13 14  1  0  0  0  0
 14 15  1  0  0  0  0
 14 17  1  0  0  0  0
 16 14  1  0  0  0  0
 18  3  1  0  0  0  0
 19 18  1  0  0  0  0
M  END
