Coordinates from ORCA-job 4-MeO-Ph-N2-OH-B3LYPG-6-31G_dp-MTMO-d009-169-n800
 OpenBabel09051907473D

 19 18  0  0  0  0  0  0  0  0999 V2000
   -2.0796   -3.0954   -0.1752 C   0  0  0  0  0  0  0  0  0  0  0  0
   -0.7311   -2.8866   -0.4254 C   0  0  0  0  0  0  0  0  0  0  0  0
   -0.2429   -1.5856   -0.6096 C   0  0  0  0  0  0  0  0  0  0  0  0
   -1.1247   -0.5088   -0.5401 C   0  0  0  0  0  0  0  0  0  0  0  0
   -2.4866   -0.7162   -0.2880 C   0  0  0  0  0  0  0  0  0  0  0  0
   -2.9707   -2.0133   -0.1038 C   0  0  0  0  0  0  0  0  0  0  0  0
   -2.4708   -4.0972   -0.0296 H   0  0  0  0  0  0  0  0  0  0  0  0
   -0.0386   -3.7199   -0.4823 H   0  0  0  0  0  0  0  0  0  0  0  0
   -0.7576    0.5057   -0.6832 H   0  0  0  0  0  0  0  0  0  0  0  0
   -3.1470    0.1416   -0.2410 H   0  0  0  0  0  0  0  0  0  0  0  0
   10.3298   10.9659   -1.5759 N   0  0  0  0  0  0  0  0  0  0  0  0
   11.0880   11.7702   -1.5769 N   0  0  0  0  0  0  0  0  0  0  0  0
   -4.2791   -2.3344    0.1480 O   0  0  0  0  0  0  0  0  0  0  0  0
   -5.2170   -1.2775    0.2267 C   0  0  0  0  0  0  0  0  0  0  0  0
   -6.1831   -1.7422    0.4307 H   0  0  0  0  0  0  0  0  0  0  0  0
   -5.2806   -0.7174   -0.7165 H   0  0  0  0  0  0  0  0  0  0  0  0
   -4.9765   -0.5781    1.0389 H   0  0  0  0  0  0  0  0  0  0  0  0
    1.0994   -1.4425   -0.8523 O   0  0  0  0  0  0  0  0  0  0  0  0
    1.3006   -0.5038   -0.9548 H   0  0  0  0  0  0  0  0  0  0  0  0
  1  6  1  0  0  0  0
  1  7  1  0  0  0  0
  2  1  2  0  0  0  0
  3  4  2  0  0  0  0
  3  2  1  0  0  0  0
  4  5  1  0  0  0  0
  5 10  1  0  0  0  0
  5  6  2  0  0  0  0
  6 13  1  0  0  0  0
  8  2  1  0  0  0  0
  9  4  1  0  0  0  0
 12 11  3  0  0  0  0
 13 14  1  0  0  0  0
 14 15  1  0  0  0  0
 14 17  1  0  0  0  0
 16 14  1  0  0  0  0
 18  3  1  0  0  0  0
 19 18  1  0  0  0  0
M  END
