Coordinates from ORCA-job 4-MeO-Ph-N2-OH-B3LYPG-6-31G_dp-MTMO-d009-169-n800
 OpenBabel09051907463D

 19 19  0  0  0  0  0  0  0  0999 V2000
   -1.2013   -1.6427   -1.4743 C   0  0  0  0  0  0  0  0  0  0  0  0
    0.1263   -1.3018   -1.5855 C   0  0  0  0  0  0  0  0  0  0  0  0
    0.7333   -0.1952   -0.8777 C   0  0  0  0  0  0  0  0  0  0  0  0
   -0.1849    0.5396   -0.0342 C   0  0  0  0  0  0  0  0  0  0  0  0
   -1.5244    0.2000    0.0774 C   0  0  0  0  0  0  0  0  0  0  0  0
   -2.0467   -0.8916   -0.6357 C   0  0  0  0  0  0  0  0  0  0  0  0
   -1.6228   -2.4822   -2.0175 H   0  0  0  0  0  0  0  0  0  0  0  0
    0.7875   -1.8750   -2.2295 H   0  0  0  0  0  0  0  0  0  0  0  0
    0.1901    1.3842    0.5254 H   0  0  0  0  0  0  0  0  0  0  0  0
   -2.1626    0.7921    0.7232 H   0  0  0  0  0  0  0  0  0  0  0  0
    1.8460   -0.0113   -1.0464 N   0  0  0  0  0  0  0  0  0  0  0  0
    2.7268    0.7733   -0.6567 N   0  0  0  0  0  0  0  0  0  0  0  0
   -3.3365   -1.2985   -0.5860 O   0  0  0  0  0  0  0  0  0  0  0  0
   -4.2487   -0.5915    0.2466 C   0  0  0  0  0  0  0  0  0  0  0  0
   -5.2083   -1.0973    0.1342 H   0  0  0  0  0  0  0  0  0  0  0  0
   -4.3508    0.4541   -0.0679 H   0  0  0  0  0  0  0  0  0  0  0  0
   -3.9403   -0.6259    1.2985 H   0  0  0  0  0  0  0  0  0  0  0  0
    2.2174    1.7717    0.3087 O   0  0  0  0  0  0  0  0  0  0  0  0
    3.0321    2.2623    0.4874 H   0  0  0  0  0  0  0  0  0  0  0  0
  1  6  1  0  0  0  0
  2  1  2  0  0  0  0
  2  3  1  0  0  0  0
  3  4  2  0  0  0  0
  4  5  1  0  0  0  0
  4  9  1  0  0  0  0
  5 10  1  0  0  0  0
  6 13  1  0  0  0  0
  6  5  2  0  0  0  0
  7  1  1  0  0  0  0
  8  2  1  0  0  0  0
 11  3  1  0  0  0  0
 11 12  1  0  0  0  0
 12 18  1  0  0  0  0
 13 14  1  0  0  0  0
 14 17  1  0  0  0  0
 15 14  1  0  0  0  0
 16 14  1  0  0  0  0
 18 19  1  0  0  0  0
M  RAD  2  11   2  12   2
M  END
