Coordinates from ORCA-job 4-MeO-Ph-N2-OH-B3LYPG-6-31G_dp-MTMO-d009-169-n800
 OpenBabel09051907473D

 19 18  0  0  0  0  0  0  0  0999 V2000
   -1.2066   -2.2540   -0.2048 C   0  0  0  0  0  0  0  0  0  0  0  0
    0.1188   -1.9462   -0.4760 C   0  0  0  0  0  0  0  0  0  0  0  0
    0.4985   -0.6177   -0.7120 C   0  0  0  0  0  0  0  0  0  0  0  0
   -0.4672    0.3862   -0.6723 C   0  0  0  0  0  0  0  0  0  0  0  0
   -1.8058    0.0788   -0.3986 C   0  0  0  0  0  0  0  0  0  0  0  0
   -2.1819   -1.2456   -0.1633 C   0  0  0  0  0  0  0  0  0  0  0  0
   -1.5140   -3.2781   -0.0185 H   0  0  0  0  0  0  0  0  0  0  0  0
    0.8763   -2.7223   -0.5095 H   0  0  0  0  0  0  0  0  0  0  0  0
   -0.1845    1.4210   -0.8564 H   0  0  0  0  0  0  0  0  0  0  0  0
   -2.5331    0.8816   -0.3745 H   0  0  0  0  0  0  0  0  0  0  0  0
    4.0041    4.0304   -0.9359 N   0  0  0  0  0  0  0  0  0  0  0  0
    4.6805    4.8959   -0.8140 N   0  0  0  0  0  0  0  0  0  0  0  0
   -3.4583   -1.6618    0.1128 O   0  0  0  0  0  0  0  0  0  0  0  0
   -4.4789   -0.6827    0.1602 C   0  0  0  0  0  0  0  0  0  0  0  0
   -5.4035   -1.2173    0.3843 H   0  0  0  0  0  0  0  0  0  0  0  0
   -4.5901   -0.1619   -0.8009 H   0  0  0  0  0  0  0  0  0  0  0  0
   -4.2947    0.0613    0.9472 H   0  0  0  0  0  0  0  0  0  0  0  0
    1.8228   -0.3756   -0.9730 O   0  0  0  0  0  0  0  0  0  0  0  0
    1.9496    0.5727   -1.1050 H   0  0  0  0  0  0  0  0  0  0  0  0
  1  6  1  0  0  0  0
  1  7  1  0  0  0  0
  2  1  2  0  0  0  0
  3  4  2  0  0  0  0
  3  2  1  0  0  0  0
  4  5  1  0  0  0  0
  5 10  1  0  0  0  0
  5  6  2  0  0  0  0
  6 13  1  0  0  0  0
  8  2  1  0  0  0  0
  9  4  1  0  0  0  0
 11 12  3  0  0  0  0
 13 14  1  0  0  0  0
 14 15  1  0  0  0  0
 14 17  1  0  0  0  0
 16 14  1  0  0  0  0
 18  3  1  0  0  0  0
 19 18  1  0  0  0  0
M  END
