Coordinates from ORCA-job 4-MeO-Ph-N2-OH-B3LYPG-6-31G_dp-MTMO-d009-169-n800
 OpenBabel09051907473D

 19 18  0  0  0  0  0  0  0  0999 V2000
   -1.6128   -2.6346   -0.2182 C   0  0  0  0  0  0  0  0  0  0  0  0
   -0.2653   -2.4215   -0.4703 C   0  0  0  0  0  0  0  0  0  0  0  0
    0.2178   -1.1191   -0.6587 C   0  0  0  0  0  0  0  0  0  0  0  0
   -0.6680   -0.0455   -0.5915 C   0  0  0  0  0  0  0  0  0  0  0  0
   -2.0289   -0.2573   -0.3376 C   0  0  0  0  0  0  0  0  0  0  0  0
   -2.5080   -1.5557   -0.1492 C   0  0  0  0  0  0  0  0  0  0  0  0
   -2.0001   -3.6374   -0.0693 H   0  0  0  0  0  0  0  0  0  0  0  0
    0.4303   -3.2523   -0.5254 H   0  0  0  0  0  0  0  0  0  0  0  0
   -0.3049    0.9700   -0.7379 H   0  0  0  0  0  0  0  0  0  0  0  0
   -2.6925    0.5981   -0.2923 H   0  0  0  0  0  0  0  0  0  0  0  0
    6.4213    7.0512   -1.1785 N   0  0  0  0  0  0  0  0  0  0  0  0
    7.1614    7.8720   -1.1686 N   0  0  0  0  0  0  0  0  0  0  0  0
   -3.8149   -1.8810    0.1046 O   0  0  0  0  0  0  0  0  0  0  0  0
   -4.7568   -0.8275    0.1809 C   0  0  0  0  0  0  0  0  0  0  0  0
   -5.7210   -1.2953    0.3866 H   0  0  0  0  0  0  0  0  0  0  0  0
   -4.8229   -0.2702   -0.7638 H   0  0  0  0  0  0  0  0  0  0  0  0
   -4.5186   -0.1249    0.9910 H   0  0  0  0  0  0  0  0  0  0  0  0
    1.5593   -0.9717   -0.9032 O   0  0  0  0  0  0  0  0  0  0  0  0
    1.7567   -0.0325   -1.0090 H   0  0  0  0  0  0  0  0  0  0  0  0
  1  6  1  0  0  0  0
  1  7  1  0  0  0  0
  2  1  2  0  0  0  0
  3  4  2  0  0  0  0
  3  2  1  0  0  0  0
  4  5  1  0  0  0  0
  5 10  1  0  0  0  0
  5  6  2  0  0  0  0
  6 13  1  0  0  0  0
  8  2  1  0  0  0  0
  9  4  1  0  0  0  0
 11 12  3  0  0  0  0
 13 14  1  0  0  0  0
 14 15  1  0  0  0  0
 14 17  1  0  0  0  0
 16 14  1  0  0  0  0
 18  3  1  0  0  0  0
 19 18  1  0  0  0  0
M  END
