Coordinates from ORCA-job 4-MeO-Ph-N2-OH-B3LYPG-6-31G_dp-MTMO-d009-169-n800
 OpenBabel09051907473D

 19 18  0  0  0  0  0  0  0  0999 V2000
   -1.8777   -2.8957   -0.1962 C   0  0  0  0  0  0  0  0  0  0  0  0
   -0.5293   -2.6854   -0.4460 C   0  0  0  0  0  0  0  0  0  0  0  0
   -0.0424   -1.3838   -0.6294 C   0  0  0  0  0  0  0  0  0  0  0  0
   -0.9252   -0.3079   -0.5595 C   0  0  0  0  0  0  0  0  0  0  0  0
   -2.2870   -0.5168   -0.3079 C   0  0  0  0  0  0  0  0  0  0  0  0
   -2.7699   -1.8145   -0.1245 C   0  0  0  0  0  0  0  0  0  0  0  0
   -2.2680   -3.8979   -0.0513 H   0  0  0  0  0  0  0  0  0  0  0  0
    0.1640   -3.5180   -0.5033 H   0  0  0  0  0  0  0  0  0  0  0  0
   -0.5591    0.7070   -0.7021 H   0  0  0  0  0  0  0  0  0  0  0  0
   -2.9482    0.3404   -0.2605 H   0  0  0  0  0  0  0  0  0  0  0  0
    8.6309    9.2655   -1.4018 N   0  0  0  0  0  0  0  0  0  0  0  0
    9.3799   10.0783   -1.4053 N   0  0  0  0  0  0  0  0  0  0  0  0
   -4.0780   -2.1369    0.1268 O   0  0  0  0  0  0  0  0  0  0  0  0
   -5.0170   -1.0810    0.2058 C   0  0  0  0  0  0  0  0  0  0  0  0
   -5.9827   -1.5468    0.4092 H   0  0  0  0  0  0  0  0  0  0  0  0
   -5.0808   -0.5205   -0.7372 H   0  0  0  0  0  0  0  0  0  0  0  0
   -4.7775   -0.3818    1.0184 H   0  0  0  0  0  0  0  0  0  0  0  0
    1.2999   -1.2393   -0.8718 O   0  0  0  0  0  0  0  0  0  0  0  0
    1.5002   -0.3003   -0.9736 H   0  0  0  0  0  0  0  0  0  0  0  0
  1  6  1  0  0  0  0
  1  7  1  0  0  0  0
  2  1  2  0  0  0  0
  3  4  2  0  0  0  0
  3  2  1  0  0  0  0
  4  5  1  0  0  0  0
  5 10  1  0  0  0  0
  5  6  2  0  0  0  0
  6 13  1  0  0  0  0
  8  2  1  0  0  0  0
  9  4  1  0  0  0  0
 12 11  3  0  0  0  0
 13 14  1  0  0  0  0
 14 15  1  0  0  0  0
 14 17  1  0  0  0  0
 16 14  1  0  0  0  0
 18  3  1  0  0  0  0
 19 18  1  0  0  0  0
M  END
