Coordinates from ORCA-job 4-MeO-Ph-N2-OH-B3LYPG-6-31G_dp-MTMO-d009-169-n800
 OpenBabel09051907473D

 19 18  0  0  0  0  0  0  0  0999 V2000
   -1.9578   -2.9748   -0.1883 C   0  0  0  0  0  0  0  0  0  0  0  0
   -0.6093   -2.7652   -0.4381 C   0  0  0  0  0  0  0  0  0  0  0  0
   -0.1217   -1.4638   -0.6214 C   0  0  0  0  0  0  0  0  0  0  0  0
   -1.0040   -0.3875   -0.5514 C   0  0  0  0  0  0  0  0  0  0  0  0
   -2.3659   -0.5957   -0.2998 C   0  0  0  0  0  0  0  0  0  0  0  0
   -2.8494   -1.8932   -0.1164 C   0  0  0  0  0  0  0  0  0  0  0  0
   -2.3485   -3.9768   -0.0433 H   0  0  0  0  0  0  0  0  0  0  0  0
    0.0836   -3.5981   -0.4953 H   0  0  0  0  0  0  0  0  0  0  0  0
   -0.6373    0.6273   -0.6939 H   0  0  0  0  0  0  0  0  0  0  0  0
   -3.0267    0.2618   -0.2524 H   0  0  0  0  0  0  0  0  0  0  0  0
    9.3046    9.9371   -1.4696 N   0  0  0  0  0  0  0  0  0  0  0  0
   10.0542   10.7494   -1.4748 N   0  0  0  0  0  0  0  0  0  0  0  0
   -4.1577   -2.2150    0.1349 O   0  0  0  0  0  0  0  0  0  0  0  0
   -5.0961   -1.1586    0.2139 C   0  0  0  0  0  0  0  0  0  0  0  0
   -6.0620   -1.6239    0.4173 H   0  0  0  0  0  0  0  0  0  0  0  0
   -5.1597   -0.5980   -0.7290 H   0  0  0  0  0  0  0  0  0  0  0  0
   -4.8562   -0.4595    1.0266 H   0  0  0  0  0  0  0  0  0  0  0  0
    1.2206   -1.3200   -0.8637 O   0  0  0  0  0  0  0  0  0  0  0  0
    1.4214   -0.3810   -0.9655 H   0  0  0  0  0  0  0  0  0  0  0  0
  1  6  1  0  0  0  0
  1  7  1  0  0  0  0
  2  1  2  0  0  0  0
  3  4  2  0  0  0  0
  3  2  1  0  0  0  0
  4  5  1  0  0  0  0
  5 10  1  0  0  0  0
  5  6  2  0  0  0  0
  6 13  1  0  0  0  0
  8  2  1  0  0  0  0
  9  4  1  0  0  0  0
 12 11  3  0  0  0  0
 13 14  1  0  0  0  0
 14 15  1  0  0  0  0
 14 17  1  0  0  0  0
 16 14  1  0  0  0  0
 18  3  1  0  0  0  0
 19 18  1  0  0  0  0
M  END
