Coordinates from ORCA-job 4-MeO-Ph-N2-OH-B3LYPG-6-31G_dp-MTMO-d009-169-n800
 OpenBabel09051907463D

 19 18  0  0  0  0  0  0  0  0999 V2000
   -1.1704   -1.6824   -1.3010 C   0  0  0  0  0  0  0  0  0  0  0  0
    0.1215   -1.2186   -1.5435 C   0  0  0  0  0  0  0  0  0  0  0  0
    0.4674    0.0148   -1.0261 C   0  0  0  0  0  0  0  0  0  0  0  0
   -0.3883    0.8331   -0.3228 C   0  0  0  0  0  0  0  0  0  0  0  0
   -1.6898    0.3636   -0.0896 C   0  0  0  0  0  0  0  0  0  0  0  0
   -2.0779   -0.8933   -0.5750 C   0  0  0  0  0  0  0  0  0  0  0  0
   -1.5023   -2.6464   -1.6716 H   0  0  0  0  0  0  0  0  0  0  0  0
    0.8300   -1.8050   -2.1186 H   0  0  0  0  0  0  0  0  0  0  0  0
   -0.0727    1.7968    0.0553 H   0  0  0  0  0  0  0  0  0  0  0  0
   -2.3800    0.9852    0.4686 H   0  0  0  0  0  0  0  0  0  0  0  0
    2.2641    0.6069   -1.6153 N   0  0  0  0  0  0  0  0  0  0  0  0
    2.9934    1.0258   -0.7543 N   0  0  0  0  0  0  0  0  0  0  0  0
   -3.3168   -1.4389   -0.3997 O   0  0  0  0  0  0  0  0  0  0  0  0
   -4.2867   -0.6931    0.3179 C   0  0  0  0  0  0  0  0  0  0  0  0
   -5.1898   -1.3054    0.3290 H   0  0  0  0  0  0  0  0  0  0  0  0
   -4.5072    0.2642   -0.1718 H   0  0  0  0  0  0  0  0  0  0  0  0
   -3.9687   -0.5018    1.3510 H   0  0  0  0  0  0  0  0  0  0  0  0
    2.4765    1.0518    0.5793 O   0  0  0  0  0  0  0  0  0  0  0  0
    3.2297    1.4070    1.0779 H   0  0  0  0  0  0  0  0  0  0  0  0
  1  6  1  0  0  0  0
  2  1  2  0  0  0  0
  2  3  1  0  0  0  0
  3  4  2  0  0  0  0
  4  5  1  0  0  0  0
  4  9  1  0  0  0  0
  5 10  1  0  0  0  0
  6 13  1  0  0  0  0
  6  5  2  0  0  0  0
  7  1  1  0  0  0  0
  8  2  1  0  0  0  0
 11 12  2  0  0  0  0
 12 18  1  0  0  0  0
 13 14  1  0  0  0  0
 14 15  1  0  0  0  0
 14 17  1  0  0  0  0
 16 14  1  0  0  0  0
 18 19  1  0  0  0  0
M  RAD  2   3   2  11   2
M  END
