Coordinates from ORCA-job 4-MeO-Ph-N2-OH-B3LYPG-6-31G_dp-MTMO-d009-169-n800
 OpenBabel09051907463D

 19 19  0  0  0  0  0  0  0  0999 V2000
   -1.2102   -1.6649   -1.4218 C   0  0  0  0  0  0  0  0  0  0  0  0
    0.1103   -1.2756   -1.5828 C   0  0  0  0  0  0  0  0  0  0  0  0
    0.5943   -0.1381   -0.9284 C   0  0  0  0  0  0  0  0  0  0  0  0
   -0.2519    0.6363   -0.1334 C   0  0  0  0  0  0  0  0  0  0  0  0
   -1.5879    0.2534    0.0165 C   0  0  0  0  0  0  0  0  0  0  0  0
   -2.0704   -0.8994   -0.6176 C   0  0  0  0  0  0  0  0  0  0  0  0
   -1.6049   -2.5493   -1.9104 H   0  0  0  0  0  0  0  0  0  0  0  0
    0.7870   -1.8429   -2.2128 H   0  0  0  0  0  0  0  0  0  0  0  0
    0.1119    1.5237    0.3601 H   0  0  0  0  0  0  0  0  0  0  0  0
   -2.2382    0.8635    0.6320 H   0  0  0  0  0  0  0  0  0  0  0  0
    2.1082    0.1271   -1.2985 N   0  0  0  0  0  0  0  0  0  0  0  0
    2.8680    0.8720   -0.6978 N   0  0  0  0  0  0  0  0  0  0  0  0
   -3.3492   -1.3563   -0.5221 O   0  0  0  0  0  0  0  0  0  0  0  0
   -4.2703   -0.6291    0.2769 C   0  0  0  0  0  0  0  0  0  0  0  0
   -5.2150   -1.1713    0.2152 H   0  0  0  0  0  0  0  0  0  0  0  0
   -4.4154    0.3914   -0.0997 H   0  0  0  0  0  0  0  0  0  0  0  0
   -3.9478   -0.5831    1.3250 H   0  0  0  0  0  0  0  0  0  0  0  0
    2.3199    1.5569    0.4403 O   0  0  0  0  0  0  0  0  0  0  0  0
    3.0938    2.0500    0.7491 H   0  0  0  0  0  0  0  0  0  0  0  0
  1  6  1  0  0  0  0
  2  1  2  0  0  0  0
  2  3  1  0  0  0  0
  3  4  2  0  0  0  0
  4  5  1  0  0  0  0
  4  9  1  0  0  0  0
  5 10  1  0  0  0  0
  6 13  1  0  0  0  0
  6  5  2  0  0  0  0
  7  1  1  0  0  0  0
  8  2  1  0  0  0  0
 11  3  1  0  0  0  0
 11 12  2  0  0  0  0
 12 18  1  0  0  0  0
 13 14  1  0  0  0  0
 14 17  1  0  0  0  0
 15 14  1  0  0  0  0
 16 14  1  0  0  0  0
 18 19  1  0  0  0  0
M  END
