Coordinates from ORCA-job 4-MeO-Ph-N2-OH-B3LYPG-6-31G_dp-MTMO-d009-169-n800
 OpenBabel09051907473D

 19 18  0  0  0  0  0  0  0  0999 V2000
   -2.0826   -3.0984   -0.1749 C   0  0  0  0  0  0  0  0  0  0  0  0
   -0.7341   -2.8896   -0.4251 C   0  0  0  0  0  0  0  0  0  0  0  0
   -0.2459   -1.5886   -0.6093 C   0  0  0  0  0  0  0  0  0  0  0  0
   -1.1277   -0.5118   -0.5398 C   0  0  0  0  0  0  0  0  0  0  0  0
   -2.4896   -0.7192   -0.2878 C   0  0  0  0  0  0  0  0  0  0  0  0
   -2.9737   -2.0163   -0.1035 C   0  0  0  0  0  0  0  0  0  0  0  0
   -2.4738   -4.1001   -0.0292 H   0  0  0  0  0  0  0  0  0  0  0  0
   -0.0416   -3.7229   -0.4820 H   0  0  0  0  0  0  0  0  0  0  0  0
   -0.7606    0.5028   -0.6830 H   0  0  0  0  0  0  0  0  0  0  0  0
   -3.1500    0.1386   -0.2407 H   0  0  0  0  0  0  0  0  0  0  0  0
   10.3550   10.9914   -1.5786 N   0  0  0  0  0  0  0  0  0  0  0  0
   11.1136   11.7952   -1.5793 N   0  0  0  0  0  0  0  0  0  0  0  0
   -4.2821   -2.3373    0.1483 O   0  0  0  0  0  0  0  0  0  0  0  0
   -5.2200   -1.2805    0.2270 C   0  0  0  0  0  0  0  0  0  0  0  0
   -6.1861   -1.7452    0.4311 H   0  0  0  0  0  0  0  0  0  0  0  0
   -5.2836   -0.7204   -0.7162 H   0  0  0  0  0  0  0  0  0  0  0  0
   -4.9795   -0.5810    1.0392 H   0  0  0  0  0  0  0  0  0  0  0  0
    1.0964   -1.4455   -0.8520 O   0  0  0  0  0  0  0  0  0  0  0  0
    1.2976   -0.5068   -0.9545 H   0  0  0  0  0  0  0  0  0  0  0  0
  1  6  1  0  0  0  0
  1  7  1  0  0  0  0
  2  1  2  0  0  0  0
  3  4  2  0  0  0  0
  3  2  1  0  0  0  0
  4  5  1  0  0  0  0
  5 10  1  0  0  0  0
  5  6  2  0  0  0  0
  6 13  1  0  0  0  0
  8  2  1  0  0  0  0
  9  4  1  0  0  0  0
 12 11  3  0  0  0  0
 13 14  1  0  0  0  0
 14 15  1  0  0  0  0
 14 17  1  0  0  0  0
 16 14  1  0  0  0  0
 18  3  1  0  0  0  0
 19 18  1  0  0  0  0
M  END
