Coordinates from ORCA-job 4-MeO-Ph-N2-OH-B3LYPG-6-31G_dp-MTMO-d009-169-n800
 OpenBabel09051907473D

 19 18  0  0  0  0  0  0  0  0999 V2000
   -1.8717   -2.8897   -0.1968 C   0  0  0  0  0  0  0  0  0  0  0  0
   -0.5233   -2.6794   -0.4466 C   0  0  0  0  0  0  0  0  0  0  0  0
   -0.0364   -1.3778   -0.6300 C   0  0  0  0  0  0  0  0  0  0  0  0
   -0.9193   -0.3019   -0.5602 C   0  0  0  0  0  0  0  0  0  0  0  0
   -2.2810   -0.5108   -0.3085 C   0  0  0  0  0  0  0  0  0  0  0  0
   -2.7639   -1.8085   -0.1251 C   0  0  0  0  0  0  0  0  0  0  0  0
   -2.2619   -3.8919   -0.0518 H   0  0  0  0  0  0  0  0  0  0  0  0
    0.1700   -3.5120   -0.5038 H   0  0  0  0  0  0  0  0  0  0  0  0
   -0.5532    0.7131   -0.7027 H   0  0  0  0  0  0  0  0  0  0  0  0
   -2.9423    0.3463   -0.2611 H   0  0  0  0  0  0  0  0  0  0  0  0
    8.5800    9.2148   -1.3966 N   0  0  0  0  0  0  0  0  0  0  0  0
    9.3290   10.0276   -1.4000 N   0  0  0  0  0  0  0  0  0  0  0  0
   -4.0720   -2.1310    0.1262 O   0  0  0  0  0  0  0  0  0  0  0  0
   -5.0110   -1.0752    0.2051 C   0  0  0  0  0  0  0  0  0  0  0  0
   -5.9767   -1.5410    0.4086 H   0  0  0  0  0  0  0  0  0  0  0  0
   -5.0748   -0.5147   -0.7378 H   0  0  0  0  0  0  0  0  0  0  0  0
   -4.7715   -0.3759    1.0178 H   0  0  0  0  0  0  0  0  0  0  0  0
    1.3058   -1.2332   -0.8724 O   0  0  0  0  0  0  0  0  0  0  0  0
    1.5061   -0.2942   -0.9742 H   0  0  0  0  0  0  0  0  0  0  0  0
  1  6  1  0  0  0  0
  1  7  1  0  0  0  0
  2  1  2  0  0  0  0
  3  4  2  0  0  0  0
  3  2  1  0  0  0  0
  4  5  1  0  0  0  0
  5 10  1  0  0  0  0
  5  6  2  0  0  0  0
  6 13  1  0  0  0  0
  8  2  1  0  0  0  0
  9  4  1  0  0  0  0
 12 11  3  0  0  0  0
 13 14  1  0  0  0  0
 14 15  1  0  0  0  0
 14 17  1  0  0  0  0
 16 14  1  0  0  0  0
 18  3  1  0  0  0  0
 19 18  1  0  0  0  0
M  END
