Coordinates from ORCA-job 4-MeO-Ph-N2-OH-B3LYPG-6-31G_dp-MTMO-d009-169-n800
 OpenBabel09051907473D

 19 18  0  0  0  0  0  0  0  0999 V2000
   -1.6880   -2.7085   -0.2128 C   0  0  0  0  0  0  0  0  0  0  0  0
   -0.3401   -2.4965   -0.4638 C   0  0  0  0  0  0  0  0  0  0  0  0
    0.1446   -1.1945   -0.6500 C   0  0  0  0  0  0  0  0  0  0  0  0
   -0.7399   -0.1199   -0.5816 C   0  0  0  0  0  0  0  0  0  0  0  0
   -2.1012   -0.3305   -0.3287 C   0  0  0  0  0  0  0  0  0  0  0  0
   -2.5819   -1.6286   -0.1425 C   0  0  0  0  0  0  0  0  0  0  0  0
   -2.0765   -3.7110   -0.0656 H   0  0  0  0  0  0  0  0  0  0  0  0
    0.3545   -3.3281   -0.5199 H   0  0  0  0  0  0  0  0  0  0  0  0
   -0.3755    0.8954   -0.7263 H   0  0  0  0  0  0  0  0  0  0  0  0
   -2.7638    0.5257   -0.2825 H   0  0  0  0  0  0  0  0  0  0  0  0
    7.0418    7.6773   -1.2408 N   0  0  0  0  0  0  0  0  0  0  0  0
    7.7869    8.4937   -1.2372 N   0  0  0  0  0  0  0  0  0  0  0  0
   -3.8893   -1.9527    0.1102 O   0  0  0  0  0  0  0  0  0  0  0  0
   -4.8300   -0.8982    0.1876 C   0  0  0  0  0  0  0  0  0  0  0  0
   -5.7948   -1.3652    0.3923 H   0  0  0  0  0  0  0  0  0  0  0  0
   -4.8951   -0.3395   -0.7564 H   0  0  0  0  0  0  0  0  0  0  0  0
   -4.5913   -0.1971    0.9988 H   0  0  0  0  0  0  0  0  0  0  0  0
    1.4865   -1.0482   -0.8936 O   0  0  0  0  0  0  0  0  0  0  0  0
    1.6851   -0.1091   -0.9975 H   0  0  0  0  0  0  0  0  0  0  0  0
  1  6  1  0  0  0  0
  1  7  1  0  0  0  0
  2  1  2  0  0  0  0
  3  4  2  0  0  0  0
  3  2  1  0  0  0  0
  4  5  1  0  0  0  0
  5 10  1  0  0  0  0
  5  6  2  0  0  0  0
  6 13  1  0  0  0  0
  8  2  1  0  0  0  0
  9  4  1  0  0  0  0
 11 12  3  0  0  0  0
 13 14  1  0  0  0  0
 14 15  1  0  0  0  0
 14 17  1  0  0  0  0
 16 14  1  0  0  0  0
 18  3  1  0  0  0  0
 19 18  1  0  0  0  0
M  END
