Coordinates from ORCA-job 4-MeO-Ph-N2-OH-B3LYPG-6-31G_dp-MTMO-d009-169-n800
 OpenBabel09051907473D

 19 18  0  0  0  0  0  0  0  0999 V2000
   -1.9155   -2.9330   -0.1925 C   0  0  0  0  0  0  0  0  0  0  0  0
   -0.5670   -2.7231   -0.4423 C   0  0  0  0  0  0  0  0  0  0  0  0
   -0.0798   -1.4216   -0.6256 C   0  0  0  0  0  0  0  0  0  0  0  0
   -0.9624   -0.3455   -0.5556 C   0  0  0  0  0  0  0  0  0  0  0  0
   -2.3242   -0.5540   -0.3040 C   0  0  0  0  0  0  0  0  0  0  0  0
   -2.8074   -1.8516   -0.1207 C   0  0  0  0  0  0  0  0  0  0  0  0
   -2.3060   -3.9351   -0.0476 H   0  0  0  0  0  0  0  0  0  0  0  0
    0.1260   -3.5558   -0.4996 H   0  0  0  0  0  0  0  0  0  0  0  0
   -0.5960    0.6694   -0.6981 H   0  0  0  0  0  0  0  0  0  0  0  0
   -2.9852    0.3033   -0.2566 H   0  0  0  0  0  0  0  0  0  0  0  0
    8.9487    9.5824   -1.4338 N   0  0  0  0  0  0  0  0  0  0  0  0
    9.6980   10.3949   -1.4382 N   0  0  0  0  0  0  0  0  0  0  0  0
   -4.1156   -2.1738    0.1306 O   0  0  0  0  0  0  0  0  0  0  0  0
   -5.0543   -1.1176    0.2096 C   0  0  0  0  0  0  0  0  0  0  0  0
   -6.0201   -1.5831    0.4130 H   0  0  0  0  0  0  0  0  0  0  0  0
   -5.1180   -0.5570   -0.7333 H   0  0  0  0  0  0  0  0  0  0  0  0
   -4.8147   -0.4185    1.0223 H   0  0  0  0  0  0  0  0  0  0  0  0
    1.2625   -1.2774   -0.8679 O   0  0  0  0  0  0  0  0  0  0  0  0
    1.4630   -0.3384   -0.9697 H   0  0  0  0  0  0  0  0  0  0  0  0
  1  6  1  0  0  0  0
  1  7  1  0  0  0  0
  2  1  2  0  0  0  0
  3  4  2  0  0  0  0
  3  2  1  0  0  0  0
  4  5  1  0  0  0  0
  5 10  1  0  0  0  0
  5  6  2  0  0  0  0
  6 13  1  0  0  0  0
  8  2  1  0  0  0  0
  9  4  1  0  0  0  0
 12 11  3  0  0  0  0
 13 14  1  0  0  0  0
 14 15  1  0  0  0  0
 14 17  1  0  0  0  0
 16 14  1  0  0  0  0
 18  3  1  0  0  0  0
 19 18  1  0  0  0  0
M  END
