Coordinates from ORCA-job 4-MeO-Ph-N2-OH-B3LYPG-6-31G_dp-MTMO-d009-169-n800
 OpenBabel09051907473D

 19 18  0  0  0  0  0  0  0  0999 V2000
   -1.8353   -2.8538   -0.2003 C   0  0  0  0  0  0  0  0  0  0  0  0
   -0.4870   -2.6432   -0.4502 C   0  0  0  0  0  0  0  0  0  0  0  0
   -0.0005   -1.3415   -0.6338 C   0  0  0  0  0  0  0  0  0  0  0  0
   -0.8836   -0.2659   -0.5641 C   0  0  0  0  0  0  0  0  0  0  0  0
   -2.2453   -0.4751   -0.3123 C   0  0  0  0  0  0  0  0  0  0  0  0
   -2.7278   -1.7729   -0.1286 C   0  0  0  0  0  0  0  0  0  0  0  0
   -2.2253   -3.8561   -0.0551 H   0  0  0  0  0  0  0  0  0  0  0  0
    0.2065   -3.4756   -0.5073 H   0  0  0  0  0  0  0  0  0  0  0  0
   -0.5178    0.7492   -0.7068 H   0  0  0  0  0  0  0  0  0  0  0  0
   -2.9068    0.3819   -0.2650 H   0  0  0  0  0  0  0  0  0  0  0  0
    8.2749    8.9104   -1.3658 N   0  0  0  0  0  0  0  0  0  0  0  0
    9.0235    9.7235   -1.3682 N   0  0  0  0  0  0  0  0  0  0  0  0
   -4.0358   -2.0957    0.1228 O   0  0  0  0  0  0  0  0  0  0  0  0
   -4.9751   -1.0401    0.2015 C   0  0  0  0  0  0  0  0  0  0  0  0
   -5.9407   -1.5061    0.4050 H   0  0  0  0  0  0  0  0  0  0  0  0
   -5.0391   -0.4797   -0.7415 H   0  0  0  0  0  0  0  0  0  0  0  0
   -4.7358   -0.3406    1.0141 H   0  0  0  0  0  0  0  0  0  0  0  0
    1.3417   -1.1966   -0.8763 O   0  0  0  0  0  0  0  0  0  0  0  0
    1.5417   -0.2576   -0.9783 H   0  0  0  0  0  0  0  0  0  0  0  0
  1  6  1  0  0  0  0
  1  7  1  0  0  0  0
  2  1  2  0  0  0  0
  3  4  2  0  0  0  0
  3  2  1  0  0  0  0
  4  5  1  0  0  0  0
  5 10  1  0  0  0  0
  5  6  2  0  0  0  0
  6 13  1  0  0  0  0
  8  2  1  0  0  0  0
  9  4  1  0  0  0  0
 12 11  3  0  0  0  0
 13 14  1  0  0  0  0
 14 15  1  0  0  0  0
 14 17  1  0  0  0  0
 16 14  1  0  0  0  0
 18  3  1  0  0  0  0
 19 18  1  0  0  0  0
M  END
