Coordinates from ORCA-job 4-MeO-Ph-N2-OH-B3LYPG-6-31G_dp-MTMO-d009-169-n800
 OpenBabel09051907473D

 19 18  0  0  0  0  0  0  0  0999 V2000
   -1.6727   -2.6934   -0.2139 C   0  0  0  0  0  0  0  0  0  0  0  0
   -0.3249   -2.4813   -0.4651 C   0  0  0  0  0  0  0  0  0  0  0  0
    0.1596   -1.1792   -0.6517 C   0  0  0  0  0  0  0  0  0  0  0  0
   -0.7252   -0.1048   -0.5836 C   0  0  0  0  0  0  0  0  0  0  0  0
   -2.0864   -0.3156   -0.3305 C   0  0  0  0  0  0  0  0  0  0  0  0
   -2.5668   -1.6137   -0.1439 C   0  0  0  0  0  0  0  0  0  0  0  0
   -2.0610   -3.6960   -0.0664 H   0  0  0  0  0  0  0  0  0  0  0  0
    0.3699   -3.3127   -0.5210 H   0  0  0  0  0  0  0  0  0  0  0  0
   -0.3610    0.9105   -0.7286 H   0  0  0  0  0  0  0  0  0  0  0  0
   -2.7491    0.5405   -0.2844 H   0  0  0  0  0  0  0  0  0  0  0  0
    6.9149    7.5498   -1.2279 N   0  0  0  0  0  0  0  0  0  0  0  0
    7.6592    8.3669   -1.2234 N   0  0  0  0  0  0  0  0  0  0  0  0
   -3.8741   -1.9380    0.1090 O   0  0  0  0  0  0  0  0  0  0  0  0
   -4.8150   -0.8837    0.1862 C   0  0  0  0  0  0  0  0  0  0  0  0
   -5.7798   -1.3508    0.3911 H   0  0  0  0  0  0  0  0  0  0  0  0
   -4.8803   -0.3253   -0.7579 H   0  0  0  0  0  0  0  0  0  0  0  0
   -4.5764   -0.1823    0.9973 H   0  0  0  0  0  0  0  0  0  0  0  0
    1.5013   -1.0327   -0.8955 O   0  0  0  0  0  0  0  0  0  0  0  0
    1.6998   -0.0936   -0.9998 H   0  0  0  0  0  0  0  0  0  0  0  0
  1  6  1  0  0  0  0
  1  7  1  0  0  0  0
  2  1  2  0  0  0  0
  3  4  2  0  0  0  0
  3  2  1  0  0  0  0
  4  5  1  0  0  0  0
  5 10  1  0  0  0  0
  5  6  2  0  0  0  0
  6 13  1  0  0  0  0
  8  2  1  0  0  0  0
  9  4  1  0  0  0  0
 11 12  3  0  0  0  0
 13 14  1  0  0  0  0
 14 15  1  0  0  0  0
 14 17  1  0  0  0  0
 16 14  1  0  0  0  0
 18  3  1  0  0  0  0
 19 18  1  0  0  0  0
M  END
