Coordinates from ORCA-job 4-MeO-Ph-N2-OH-B3LYPG-6-31G_dp-MTMO-d009-169-n800
 OpenBabel09051907473D

 19 18  0  0  0  0  0  0  0  0999 V2000
   -1.0918   -2.1457   -0.2561 C   0  0  0  0  0  0  0  0  0  0  0  0
    0.2191   -1.7518   -0.4826 C   0  0  0  0  0  0  0  0  0  0  0  0
    0.5281   -0.3942   -0.6465 C   0  0  0  0  0  0  0  0  0  0  0  0
   -0.4937    0.5515   -0.5812 C   0  0  0  0  0  0  0  0  0  0  0  0
   -1.8180    0.1570   -0.3523 C   0  0  0  0  0  0  0  0  0  0  0  0
   -2.1230   -1.1960   -0.1883 C   0  0  0  0  0  0  0  0  0  0  0  0
   -1.3445   -3.1932   -0.1257 H   0  0  0  0  0  0  0  0  0  0  0  0
    1.0201   -2.4818   -0.5360 H   0  0  0  0  0  0  0  0  0  0  0  0
   -0.2664    1.6081   -0.7098 H   0  0  0  0  0  0  0  0  0  0  0  0
   -2.5902    0.9156   -0.3063 H   0  0  0  0  0  0  0  0  0  0  0  0
    3.6593    3.3127   -0.9960 N   0  0  0  0  0  0  0  0  0  0  0  0
    4.4509    4.0834   -0.9798 N   0  0  0  0  0  0  0  0  0  0  0  0
   -3.3792   -1.6953    0.0401 O   0  0  0  0  0  0  0  0  0  0  0  0
   -4.4534   -0.7773    0.1139 C   0  0  0  0  0  0  0  0  0  0  0  0
   -5.3506   -1.3720    0.2933 H   0  0  0  0  0  0  0  0  0  0  0  0
   -4.5767   -0.2165   -0.8231 H   0  0  0  0  0  0  0  0  0  0  0  0
   -4.3247   -0.0636    0.9392 H   0  0  0  0  0  0  0  0  0  0  0  0
    1.8415   -0.0678   -0.8656 O   0  0  0  0  0  0  0  0  0  0  0  0
    1.9252    0.8914   -0.9473 H   0  0  0  0  0  0  0  0  0  0  0  0
  1  6  1  0  0  0  0
  1  7  1  0  0  0  0
  2  1  2  0  0  0  0
  3  4  2  0  0  0  0
  3  2  1  0  0  0  0
  4  5  1  0  0  0  0
  5 10  1  0  0  0  0
  5  6  2  0  0  0  0
  6 13  1  0  0  0  0
  8  2  1  0  0  0  0
  9  4  1  0  0  0  0
 11 12  3  0  0  0  0
 13 14  1  0  0  0  0
 14 15  1  0  0  0  0
 14 17  1  0  0  0  0
 16 14  1  0  0  0  0
 18  3  1  0  0  0  0
 19 18  1  0  0  0  0
M  END
