Coordinates from ORCA-job 4-MeO-Ph-N2-OH-B3LYPG-6-31G_dp-MTMO-d009-169-n800
 OpenBabel09051907463D

 19 18  0  0  0  0  0  0  0  0999 V2000
   -0.9252   -1.8972   -0.7660 C   0  0  0  0  0  0  0  0  0  0  0  0
    0.4224   -1.5957   -0.6319 C   0  0  0  0  0  0  0  0  0  0  0  0
    0.8190   -0.3596   -0.1026 C   0  0  0  0  0  0  0  0  0  0  0  0
   -0.1540    0.5602    0.2872 C   0  0  0  0  0  0  0  0  0  0  0  0
   -1.5152    0.2606    0.1486 C   0  0  0  0  0  0  0  0  0  0  0  0
   -1.9072   -0.9720   -0.3785 C   0  0  0  0  0  0  0  0  0  0  0  0
   -1.2458   -2.8506   -1.1730 H   0  0  0  0  0  0  0  0  0  0  0  0
    1.1854   -2.3064   -0.9320 H   0  0  0  0  0  0  0  0  0  0  0  0
    0.1408    1.5199    0.7052 H   0  0  0  0  0  0  0  0  0  0  0  0
   -2.2479    0.9958    0.4590 H   0  0  0  0  0  0  0  0  0  0  0  0
    1.9579    2.3070   -1.6421 N   0  0  0  0  0  0  0  0  0  0  0  0
    1.8327    2.4588   -2.7293 N   0  0  0  0  0  0  0  0  0  0  0  0
   -3.2060   -1.3720   -0.5567 O   0  0  0  0  0  0  0  0  0  0  0  0
   -4.2334   -0.4777   -0.1702 C   0  0  0  0  0  0  0  0  0  0  0  0
   -5.1753   -0.9852   -0.3868 H   0  0  0  0  0  0  0  0  0  0  0  0
   -4.1934    0.4607   -0.7390 H   0  0  0  0  0  0  0  0  0  0  0  0
   -4.1891   -0.2451    0.9025 H   0  0  0  0  0  0  0  0  0  0  0  0
    2.1649   -0.1275    0.0149 O   0  0  0  0  0  0  0  0  0  0  0  0
    2.3014    0.7905    0.2805 H   0  0  0  0  0  0  0  0  0  0  0  0
  1  2  2  0  0  0  0
  1  6  1  0  0  0  0
  2  3  1  0  0  0  0
  3 18  1  0  0  0  0
  3  4  2  0  0  0  0
  4  9  1  0  0  0  0
  5  4  1  0  0  0  0
  5 10  1  0  0  0  0
  6  5  2  0  0  0  0
  7  1  1  0  0  0  0
  8  2  1  0  0  0  0
 12 11  3  0  0  0  0
 13  6  1  0  0  0  0
 13 14  1  0  0  0  0
 14 17  1  0  0  0  0
 15 14  1  0  0  0  0
 16 14  1  0  0  0  0
 18 19  1  0  0  0  0
M  END
