Coordinates from ORCA-job 4-MeO-Ph-N2-OH-B3LYPG-6-31G_dp-MTMO-d009-169-n800
 OpenBabel09051907473D

 19 18  0  0  0  0  0  0  0  0999 V2000
   -1.5490   -2.5724   -0.2224 C   0  0  0  0  0  0  0  0  0  0  0  0
   -0.2021   -2.3572   -0.4754 C   0  0  0  0  0  0  0  0  0  0  0  0
    0.2786   -1.0543   -0.6661 C   0  0  0  0  0  0  0  0  0  0  0  0
   -0.6091    0.0179   -0.6001 C   0  0  0  0  0  0  0  0  0  0  0  0
   -1.9695   -0.1960   -0.3451 C   0  0  0  0  0  0  0  0  0  0  0  0
   -2.4461   -1.4950   -0.1546 C   0  0  0  0  0  0  0  0  0  0  0  0
   -1.9345   -3.5756   -0.0717 H   0  0  0  0  0  0  0  0  0  0  0  0
    0.4950   -3.1868   -0.5296 H   0  0  0  0  0  0  0  0  0  0  0  0
   -0.2478    1.0338   -0.7483 H   0  0  0  0  0  0  0  0  0  0  0  0
   -2.6345    0.6583   -0.3008 H   0  0  0  0  0  0  0  0  0  0  0  0
    5.9071    6.5234   -1.1284 N   0  0  0  0  0  0  0  0  0  0  0  0
    6.6393    7.3512   -1.1092 N   0  0  0  0  0  0  0  0  0  0  0  0
   -3.7523   -1.8222    0.1004 O   0  0  0  0  0  0  0  0  0  0  0  0
   -4.6961   -0.7703    0.1754 C   0  0  0  0  0  0  0  0  0  0  0  0
   -5.6594   -1.2395    0.3821 H   0  0  0  0  0  0  0  0  0  0  0  0
   -4.7636   -0.2145   -0.7701 H   0  0  0  0  0  0  0  0  0  0  0  0
   -4.4589   -0.0661    0.9844 H   0  0  0  0  0  0  0  0  0  0  0  0
    1.6197   -0.9047   -0.9115 O   0  0  0  0  0  0  0  0  0  0  0  0
    1.8153    0.0346   -1.0192 H   0  0  0  0  0  0  0  0  0  0  0  0
  1  6  1  0  0  0  0
  1  7  1  0  0  0  0
  2  1  2  0  0  0  0
  3  4  2  0  0  0  0
  3  2  1  0  0  0  0
  4  5  1  0  0  0  0
  5 10  1  0  0  0  0
  5  6  2  0  0  0  0
  6 13  1  0  0  0  0
  8  2  1  0  0  0  0
  9  4  1  0  0  0  0
 11 12  3  0  0  0  0
 13 14  1  0  0  0  0
 14 15  1  0  0  0  0
 14 17  1  0  0  0  0
 16 14  1  0  0  0  0
 18  3  1  0  0  0  0
 19 18  1  0  0  0  0
M  END
