Coordinates from ORCA-job 4-MeO-Ph-N2-OH-B3LYPG-6-31G_dp-MTMO-d009-169-n800
 OpenBabel09051907473D

 19 18  0  0  0  0  0  0  0  0999 V2000
   -1.2612   -2.3045   -0.2109 C   0  0  0  0  0  0  0  0  0  0  0  0
    0.0695   -2.0171   -0.4781 C   0  0  0  0  0  0  0  0  0  0  0  0
    0.4720   -0.6935   -0.7040 C   0  0  0  0  0  0  0  0  0  0  0  0
   -0.4768    0.3262   -0.6584 C   0  0  0  0  0  0  0  0  0  0  0  0
   -1.8208    0.0394   -0.3888 C   0  0  0  0  0  0  0  0  0  0  0  0
   -2.2195   -1.2801   -0.1635 C   0  0  0  0  0  0  0  0  0  0  0  0
   -1.5861   -3.3246   -0.0326 H   0  0  0  0  0  0  0  0  0  0  0  0
    0.8139   -2.8056   -0.5163 H   0  0  0  0  0  0  0  0  0  0  0  0
   -0.1766    1.3575   -0.8343 H   0  0  0  0  0  0  0  0  0  0  0  0
   -2.5345    0.8542   -0.3600 H   0  0  0  0  0  0  0  0  0  0  0  0
    4.2489    4.4006   -0.9625 N   0  0  0  0  0  0  0  0  0  0  0  0
    4.9308    5.2644   -0.8602 N   0  0  0  0  0  0  0  0  0  0  0  0
   -3.5031   -1.6767    0.1079 O   0  0  0  0  0  0  0  0  0  0  0  0
   -4.5070   -0.6808    0.1615 C   0  0  0  0  0  0  0  0  0  0  0  0
   -5.4407   -1.2011    0.3815 H   0  0  0  0  0  0  0  0  0  0  0  0
   -4.6087   -0.1517   -0.7961 H   0  0  0  0  0  0  0  0  0  0  0  0
   -4.3106    0.0546    0.9536 H   0  0  0  0  0  0  0  0  0  0  0  0
    1.8005   -0.4718   -0.9616 O   0  0  0  0  0  0  0  0  0  0  0  0
    1.9420    0.4751   -1.0874 H   0  0  0  0  0  0  0  0  0  0  0  0
  1  6  1  0  0  0  0
  1  7  1  0  0  0  0
  2  1  2  0  0  0  0
  3  4  2  0  0  0  0
  3  2  1  0  0  0  0
  4  5  1  0  0  0  0
  5 10  1  0  0  0  0
  5  6  2  0  0  0  0
  6 13  1  0  0  0  0
  8  2  1  0  0  0  0
  9  4  1  0  0  0  0
 11 12  3  0  0  0  0
 13 14  1  0  0  0  0
 14 15  1  0  0  0  0
 14 17  1  0  0  0  0
 16 14  1  0  0  0  0
 18  3  1  0  0  0  0
 19 18  1  0  0  0  0
M  END
