Coordinates from ORCA-job 4-MeO-Ph-N2-OH-B3LYPG-6-31G_dp-MTMO-d009-169-n800
 OpenBabel09051907473D

 19 18  0  0  0  0  0  0  0  0999 V2000
   -1.8747   -2.8927   -0.1965 C   0  0  0  0  0  0  0  0  0  0  0  0
   -0.5263   -2.6824   -0.4463 C   0  0  0  0  0  0  0  0  0  0  0  0
   -0.0394   -1.3808   -0.6297 C   0  0  0  0  0  0  0  0  0  0  0  0
   -0.9222   -0.3049   -0.5599 C   0  0  0  0  0  0  0  0  0  0  0  0
   -2.2840   -0.5138   -0.3082 C   0  0  0  0  0  0  0  0  0  0  0  0
   -2.7669   -1.8115   -0.1248 C   0  0  0  0  0  0  0  0  0  0  0  0
   -2.2650   -3.8949   -0.0515 H   0  0  0  0  0  0  0  0  0  0  0  0
    0.1670   -3.5150   -0.5036 H   0  0  0  0  0  0  0  0  0  0  0  0
   -0.5561    0.7100   -0.7024 H   0  0  0  0  0  0  0  0  0  0  0  0
   -2.9452    0.3433   -0.2608 H   0  0  0  0  0  0  0  0  0  0  0  0
    8.6054    9.2401   -1.3992 N   0  0  0  0  0  0  0  0  0  0  0  0
    9.3544   10.0529   -1.4026 N   0  0  0  0  0  0  0  0  0  0  0  0
   -4.0750   -2.1340    0.1265 O   0  0  0  0  0  0  0  0  0  0  0  0
   -5.0140   -1.0781    0.2054 C   0  0  0  0  0  0  0  0  0  0  0  0
   -5.9797   -1.5439    0.4089 H   0  0  0  0  0  0  0  0  0  0  0  0
   -5.0778   -0.5176   -0.7375 H   0  0  0  0  0  0  0  0  0  0  0  0
   -4.7745   -0.3788    1.0181 H   0  0  0  0  0  0  0  0  0  0  0  0
    1.3029   -1.2363   -0.8721 O   0  0  0  0  0  0  0  0  0  0  0  0
    1.5031   -0.2973   -0.9739 H   0  0  0  0  0  0  0  0  0  0  0  0
  1  6  1  0  0  0  0
  1  7  1  0  0  0  0
  2  1  2  0  0  0  0
  3  4  2  0  0  0  0
  3  2  1  0  0  0  0
  4  5  1  0  0  0  0
  5 10  1  0  0  0  0
  5  6  2  0  0  0  0
  6 13  1  0  0  0  0
  8  2  1  0  0  0  0
  9  4  1  0  0  0  0
 12 11  3  0  0  0  0
 13 14  1  0  0  0  0
 14 15  1  0  0  0  0
 14 17  1  0  0  0  0
 16 14  1  0  0  0  0
 18  3  1  0  0  0  0
 19 18  1  0  0  0  0
M  END
