Coordinates from ORCA-job 4-MeO-Ph-N2-OH-B3LYPG-6-31G_dp-MTMO-d009-169-n800
 OpenBabel09051907473D

 19 18  0  0  0  0  0  0  0  0999 V2000
   -1.1546   -2.1924   -0.2491 C   0  0  0  0  0  0  0  0  0  0  0  0
    0.1549   -1.7929   -0.4739 C   0  0  0  0  0  0  0  0  0  0  0  0
    0.4584   -0.4339   -0.6358 C   0  0  0  0  0  0  0  0  0  0  0  0
   -0.5672    0.5075   -0.5704 C   0  0  0  0  0  0  0  0  0  0  0  0
   -1.8902    0.1075   -0.3433 C   0  0  0  0  0  0  0  0  0  0  0  0
   -2.1898   -1.2470   -0.1810 C   0  0  0  0  0  0  0  0  0  0  0  0
   -1.4032   -3.2411   -0.1201 H   0  0  0  0  0  0  0  0  0  0  0  0
    0.9589   -2.5196   -0.5273 H   0  0  0  0  0  0  0  0  0  0  0  0
   -0.3444    1.5653   -0.6976 H   0  0  0  0  0  0  0  0  0  0  0  0
   -2.6655    0.8629   -0.2971 H   0  0  0  0  0  0  0  0  0  0  0  0
    4.2168    3.7568   -1.0699 N   0  0  0  0  0  0  0  0  0  0  0  0
    5.0681    4.4615   -1.0576 N   0  0  0  0  0  0  0  0  0  0  0  0
   -3.4439   -1.7515    0.0458 O   0  0  0  0  0  0  0  0  0  0  0  0
   -4.5219   -0.8379    0.1209 C   0  0  0  0  0  0  0  0  0  0  0  0
   -5.4167   -1.4365    0.2994 H   0  0  0  0  0  0  0  0  0  0  0  0
   -4.6474   -0.2763   -0.8152 H   0  0  0  0  0  0  0  0  0  0  0  0
   -4.3959   -0.1249    0.9473 H   0  0  0  0  0  0  0  0  0  0  0  0
    1.7708   -0.1013   -0.8528 O   0  0  0  0  0  0  0  0  0  0  0  0
    1.8449    0.8584   -0.9327 H   0  0  0  0  0  0  0  0  0  0  0  0
  1  6  1  0  0  0  0
  1  7  1  0  0  0  0
  2  1  2  0  0  0  0
  3  4  2  0  0  0  0
  3  2  1  0  0  0  0
  4  5  1  0  0  0  0
  5 10  1  0  0  0  0
  5  6  2  0  0  0  0
  6 13  1  0  0  0  0
  8  2  1  0  0  0  0
  9  4  1  0  0  0  0
 11 12  3  0  0  0  0
 13 14  1  0  0  0  0
 14 15  1  0  0  0  0
 14 17  1  0  0  0  0
 16 14  1  0  0  0  0
 18  3  1  0  0  0  0
 19 18  1  0  0  0  0
M  END
