Coordinates from ORCA-job 4-MeO-Ph-N2-OH-B3LYPG-6-31G_dp-MTMO-d009-169-n800
 OpenBabel09051907473D

 19 18  0  0  0  0  0  0  0  0999 V2000
   -1.7291   -2.7490   -0.2095 C   0  0  0  0  0  0  0  0  0  0  0  0
   -0.3811   -2.5375   -0.4601 C   0  0  0  0  0  0  0  0  0  0  0  0
    0.1043   -1.2356   -0.6453 C   0  0  0  0  0  0  0  0  0  0  0  0
   -0.7798   -0.1606   -0.5764 C   0  0  0  0  0  0  0  0  0  0  0  0
   -2.1412   -0.3708   -0.3240 C   0  0  0  0  0  0  0  0  0  0  0  0
   -2.6226   -1.6688   -0.1387 C   0  0  0  0  0  0  0  0  0  0  0  0
   -2.1182   -3.7515   -0.0631 H   0  0  0  0  0  0  0  0  0  0  0  0
    0.3131   -3.3694   -0.5166 H   0  0  0  0  0  0  0  0  0  0  0  0
   -0.4149    0.8546   -0.7204 H   0  0  0  0  0  0  0  0  0  0  0  0
   -2.8034    0.4857   -0.2773 H   0  0  0  0  0  0  0  0  0  0  0  0
    7.3847    8.0212   -1.2755 N   0  0  0  0  0  0  0  0  0  0  0  0
    8.1312    8.8362   -1.2743 N   0  0  0  0  0  0  0  0  0  0  0  0
   -3.9302   -1.9924    0.1134 O   0  0  0  0  0  0  0  0  0  0  0  0
   -4.8704   -0.9375    0.1914 C   0  0  0  0  0  0  0  0  0  0  0  0
   -5.8355   -1.4042    0.3956 H   0  0  0  0  0  0  0  0  0  0  0  0
   -4.9351   -0.3782   -0.7522 H   0  0  0  0  0  0  0  0  0  0  0  0
   -4.6315   -0.2370    1.0031 H   0  0  0  0  0  0  0  0  0  0  0  0
    1.4462   -1.0898   -0.8885 O   0  0  0  0  0  0  0  0  0  0  0  0
    1.6454   -0.1507   -0.9917 H   0  0  0  0  0  0  0  0  0  0  0  0
  1  6  1  0  0  0  0
  1  7  1  0  0  0  0
  2  1  2  0  0  0  0
  3  4  2  0  0  0  0
  3  2  1  0  0  0  0
  4  5  1  0  0  0  0
  5 10  1  0  0  0  0
  5  6  2  0  0  0  0
  6 13  1  0  0  0  0
  8  2  1  0  0  0  0
  9  4  1  0  0  0  0
 11 12  3  0  0  0  0
 13 14  1  0  0  0  0
 14 15  1  0  0  0  0
 14 17  1  0  0  0  0
 16 14  1  0  0  0  0
 18  3  1  0  0  0  0
 19 18  1  0  0  0  0
M  END
