Coordinates from ORCA-job 4-MeO-Ph-N2-OH-B3LYPG-6-31G_dp-MTMO-d009-169-n800
 OpenBabel09051907463D

 19 18  0  0  0  0  0  0  0  0999 V2000
   -0.9940   -2.0099   -0.6437 C   0  0  0  0  0  0  0  0  0  0  0  0
    0.3566   -1.6969   -0.5895 C   0  0  0  0  0  0  0  0  0  0  0  0
    0.7681   -0.4100   -0.2146 C   0  0  0  0  0  0  0  0  0  0  0  0
   -0.1939    0.5476    0.1052 C   0  0  0  0  0  0  0  0  0  0  0  0
   -1.5582    0.2356    0.0483 C   0  0  0  0  0  0  0  0  0  0  0  0
   -1.9647   -1.0469   -0.3270 C   0  0  0  0  0  0  0  0  0  0  0  0
   -1.3252   -3.0017   -0.9337 H   0  0  0  0  0  0  0  0  0  0  0  0
    1.1109   -2.4369   -0.8358 H   0  0  0  0  0  0  0  0  0  0  0  0
    0.1119    1.5473    0.4047 H   0  0  0  0  0  0  0  0  0  0  0  0
   -2.2821    1.0008    0.3023 H   0  0  0  0  0  0  0  0  0  0  0  0
    2.3284    2.6022   -1.4880 N   0  0  0  0  0  0  0  0  0  0  0  0
    2.3519    3.1007   -2.4736 N   0  0  0  0  0  0  0  0  0  0  0  0
   -3.2681   -1.4624   -0.4166 O   0  0  0  0  0  0  0  0  0  0  0  0
   -4.2839   -0.5270   -0.1050 C   0  0  0  0  0  0  0  0  0  0  0  0
   -5.2319   -1.0507   -0.2413 H   0  0  0  0  0  0  0  0  0  0  0  0
   -4.2560    0.3443   -0.7734 H   0  0  0  0  0  0  0  0  0  0  0  0
   -4.2131   -0.1788    0.9344 H   0  0  0  0  0  0  0  0  0  0  0  0
    2.1159   -0.1644   -0.1755 O   0  0  0  0  0  0  0  0  0  0  0  0
    2.2597    0.7717    0.0126 H   0  0  0  0  0  0  0  0  0  0  0  0
  1  2  2  0  0  0  0
  1  6  1  0  0  0  0
  2  3  1  0  0  0  0
  3 18  1  0  0  0  0
  3  4  2  0  0  0  0
  4  9  1  0  0  0  0
  5  4  1  0  0  0  0
  5 10  1  0  0  0  0
  6  5  2  0  0  0  0
  7  1  1  0  0  0  0
  8  2  1  0  0  0  0
 12 11  3  0  0  0  0
 13  6  1  0  0  0  0
 13 14  1  0  0  0  0
 14 17  1  0  0  0  0
 15 14  1  0  0  0  0
 16 14  1  0  0  0  0
 18 19  1  0  0  0  0
M  END
