Coordinates from ORCA-job 4-MeO-Ph-N2-OH-B3LYPG-6-31G_dp-MTMO-d009-169-n800
 OpenBabel09051907473D

 19 18  0  0  0  0  0  0  0  0999 V2000
   -1.1969   -2.2452   -0.2039 C   0  0  0  0  0  0  0  0  0  0  0  0
    0.1277   -1.9351   -0.4761 C   0  0  0  0  0  0  0  0  0  0  0  0
    0.5046   -0.6061   -0.7141 C   0  0  0  0  0  0  0  0  0  0  0  0
   -0.4632    0.3958   -0.6756 C   0  0  0  0  0  0  0  0  0  0  0  0
   -1.8010    0.0861   -0.4008 C   0  0  0  0  0  0  0  0  0  0  0  0
   -2.1743   -1.2387   -0.1634 C   0  0  0  0  0  0  0  0  0  0  0  0
   -1.5022   -3.2696   -0.0160 H   0  0  0  0  0  0  0  0  0  0  0  0
    0.8868   -2.7097   -0.5087 H   0  0  0  0  0  0  0  0  0  0  0  0
   -0.1826    1.4309   -0.8615 H   0  0  0  0  0  0  0  0  0  0  0  0
   -2.5299    0.8875   -0.3775 H   0  0  0  0  0  0  0  0  0  0  0  0
    3.9500    3.9623   -0.9290 N   0  0  0  0  0  0  0  0  0  0  0  0
    4.6230    4.8300   -0.8040 N   0  0  0  0  0  0  0  0  0  0  0  0
   -3.4497   -1.6571    0.1139 O   0  0  0  0  0  0  0  0  0  0  0  0
   -4.4723   -0.6801    0.1603 C   0  0  0  0  0  0  0  0  0  0  0  0
   -5.3957   -1.2162    0.3854 H   0  0  0  0  0  0  0  0  0  0  0  0
   -4.5849   -0.1609   -0.8015 H   0  0  0  0  0  0  0  0  0  0  0  0
   -4.2894    0.0655    0.9461 H   0  0  0  0  0  0  0  0  0  0  0  0
    1.8283   -0.3617   -0.9760 O   0  0  0  0  0  0  0  0  0  0  0  0
    1.9537    0.5867   -1.1080 H   0  0  0  0  0  0  0  0  0  0  0  0
  1  6  1  0  0  0  0
  1  7  1  0  0  0  0
  2  1  2  0  0  0  0
  3  4  2  0  0  0  0
  3  2  1  0  0  0  0
  4  5  1  0  0  0  0
  5 10  1  0  0  0  0
  5  6  2  0  0  0  0
  6 13  1  0  0  0  0
  8  2  1  0  0  0  0
  9  4  1  0  0  0  0
 11 12  3  0  0  0  0
 13 14  1  0  0  0  0
 14 15  1  0  0  0  0
 14 17  1  0  0  0  0
 16 14  1  0  0  0  0
 18  3  1  0  0  0  0
 19 18  1  0  0  0  0
M  END
