Coordinates from ORCA-job 4-MeO-Ph-N2-OH-B3LYPG-6-31G_dp-MTMO-d009-169-n800
 OpenBabel09051907473D

 19 18  0  0  0  0  0  0  0  0999 V2000
   -1.8807   -2.8986   -0.1960 C   0  0  0  0  0  0  0  0  0  0  0  0
   -0.5323   -2.6884   -0.4458 C   0  0  0  0  0  0  0  0  0  0  0  0
   -0.0453   -1.3869   -0.6291 C   0  0  0  0  0  0  0  0  0  0  0  0
   -0.9282   -0.3109   -0.5592 C   0  0  0  0  0  0  0  0  0  0  0  0
   -2.2899   -0.5198   -0.3076 C   0  0  0  0  0  0  0  0  0  0  0  0
   -2.7729   -1.8175   -0.1242 C   0  0  0  0  0  0  0  0  0  0  0  0
   -2.2711   -3.9009   -0.0510 H   0  0  0  0  0  0  0  0  0  0  0  0
    0.1609   -3.5211   -0.5030 H   0  0  0  0  0  0  0  0  0  0  0  0
   -0.5620    0.7040   -0.7017 H   0  0  0  0  0  0  0  0  0  0  0  0
   -2.9512    0.3374   -0.2602 H   0  0  0  0  0  0  0  0  0  0  0  0
    8.6563    9.2909   -1.4043 N   0  0  0  0  0  0  0  0  0  0  0  0
    9.4053   10.1036   -1.4079 N   0  0  0  0  0  0  0  0  0  0  0  0
   -4.0810   -2.1399    0.1271 O   0  0  0  0  0  0  0  0  0  0  0  0
   -5.0200   -1.0840    0.2061 C   0  0  0  0  0  0  0  0  0  0  0  0
   -5.9857   -1.5497    0.4095 H   0  0  0  0  0  0  0  0  0  0  0  0
   -5.0838   -0.5234   -0.7369 H   0  0  0  0  0  0  0  0  0  0  0  0
   -4.7805   -0.3847    1.0187 H   0  0  0  0  0  0  0  0  0  0  0  0
    1.2969   -1.2424   -0.8715 O   0  0  0  0  0  0  0  0  0  0  0  0
    1.4972   -0.3034   -0.9733 H   0  0  0  0  0  0  0  0  0  0  0  0
  1  6  1  0  0  0  0
  1  7  1  0  0  0  0
  2  1  2  0  0  0  0
  3  4  2  0  0  0  0
  3  2  1  0  0  0  0
  4  5  1  0  0  0  0
  5 10  1  0  0  0  0
  5  6  2  0  0  0  0
  6 13  1  0  0  0  0
  8  2  1  0  0  0  0
  9  4  1  0  0  0  0
 12 11  3  0  0  0  0
 13 14  1  0  0  0  0
 14 15  1  0  0  0  0
 14 17  1  0  0  0  0
 16 14  1  0  0  0  0
 18  3  1  0  0  0  0
 19 18  1  0  0  0  0
M  END
