Coordinates from ORCA-job 4-MeO-Ph-N2-OH-B3LYPG-6-31G_dp-MTMO-d009-169-n800
 OpenBabel09051907473D

 19 18  0  0  0  0  0  0  0  0999 V2000
   -1.7853   -2.8044   -0.2048 C   0  0  0  0  0  0  0  0  0  0  0  0
   -0.4371   -2.5934   -0.4549 C   0  0  0  0  0  0  0  0  0  0  0  0
    0.0489   -1.2916   -0.6391 C   0  0  0  0  0  0  0  0  0  0  0  0
   -0.8347   -0.2163   -0.5697 C   0  0  0  0  0  0  0  0  0  0  0  0
   -2.1962   -0.4259   -0.3177 C   0  0  0  0  0  0  0  0  0  0  0  0
   -2.6782   -1.7238   -0.1335 C   0  0  0  0  0  0  0  0  0  0  0  0
   -2.1749   -3.8068   -0.0592 H   0  0  0  0  0  0  0  0  0  0  0  0
    0.2567   -3.4256   -0.5118 H   0  0  0  0  0  0  0  0  0  0  0  0
   -0.4692    0.7989   -0.7129 H   0  0  0  0  0  0  0  0  0  0  0  0
   -2.8580    0.4308   -0.2707 H   0  0  0  0  0  0  0  0  0  0  0  0
    7.8552    8.4915   -1.3233 N   0  0  0  0  0  0  0  0  0  0  0  0
    8.6031    9.3053   -1.3242 N   0  0  0  0  0  0  0  0  0  0  0  0
   -3.9861   -2.0470    0.1182 O   0  0  0  0  0  0  0  0  0  0  0  0
   -4.9258   -0.9917    0.1967 C   0  0  0  0  0  0  0  0  0  0  0  0
   -5.8911   -1.4580    0.4004 H   0  0  0  0  0  0  0  0  0  0  0  0
   -4.9901   -0.4318   -0.7466 H   0  0  0  0  0  0  0  0  0  0  0  0
   -4.6867   -0.2919    1.0089 H   0  0  0  0  0  0  0  0  0  0  0  0
    1.3910   -1.1463   -0.8819 O   0  0  0  0  0  0  0  0  0  0  0  0
    1.5906   -0.2072   -0.9843 H   0  0  0  0  0  0  0  0  0  0  0  0
  1  6  1  0  0  0  0
  1  7  1  0  0  0  0
  2  1  2  0  0  0  0
  3  4  2  0  0  0  0
  3  2  1  0  0  0  0
  4  5  1  0  0  0  0
  5 10  1  0  0  0  0
  5  6  2  0  0  0  0
  6 13  1  0  0  0  0
  8  2  1  0  0  0  0
  9  4  1  0  0  0  0
 12 11  3  0  0  0  0
 13 14  1  0  0  0  0
 14 15  1  0  0  0  0
 14 17  1  0  0  0  0
 16 14  1  0  0  0  0
 18  3  1  0  0  0  0
 19 18  1  0  0  0  0
M  END
