Coordinates from ORCA-job 4-MeO-Ph-N2-OH-B3LYPG-6-31G_dp-MTMO-d009-169-n800
 OpenBabel09051907473D

 19 18  0  0  0  0  0  0  0  0999 V2000
   -1.2309   -2.2765   -0.2071 C   0  0  0  0  0  0  0  0  0  0  0  0
    0.0966   -1.9766   -0.4766 C   0  0  0  0  0  0  0  0  0  0  0  0
    0.4853   -0.6499   -0.7083 C   0  0  0  0  0  0  0  0  0  0  0  0
   -0.4738    0.3602   -0.6662 C   0  0  0  0  0  0  0  0  0  0  0  0
   -1.8146    0.0608   -0.3943 C   0  0  0  0  0  0  0  0  0  0  0  0
   -2.1996   -1.2618   -0.1631 C   0  0  0  0  0  0  0  0  0  0  0  0
   -1.5451   -3.2991   -0.0241 H   0  0  0  0  0  0  0  0  0  0  0  0
    0.8491   -2.7576   -0.5120 H   0  0  0  0  0  0  0  0  0  0  0  0
   -0.1843    1.3937   -0.8468 H   0  0  0  0  0  0  0  0  0  0  0  0
   -2.5366    0.8684   -0.3682 H   0  0  0  0  0  0  0  0  0  0  0  0
    4.1237    4.1984   -0.9487 N   0  0  0  0  0  0  0  0  0  0  0  0
    4.8047    5.0615   -0.8354 N   0  0  0  0  0  0  0  0  0  0  0  0
   -3.4788   -1.6704    0.1110 O   0  0  0  0  0  0  0  0  0  0  0  0
   -4.4929   -0.6847    0.1609 C   0  0  0  0  0  0  0  0  0  0  0  0
   -5.4212   -1.2138    0.3831 H   0  0  0  0  0  0  0  0  0  0  0  0
   -4.6004   -0.1605   -0.7988 H   0  0  0  0  0  0  0  0  0  0  0  0
   -4.3041    0.0559    0.9500 H   0  0  0  0  0  0  0  0  0  0  0  0
    1.8113   -0.4157   -0.9679 O   0  0  0  0  0  0  0  0  0  0  0  0
    1.9436    0.5321   -1.0975 H   0  0  0  0  0  0  0  0  0  0  0  0
  1  6  1  0  0  0  0
  1  7  1  0  0  0  0
  2  1  2  0  0  0  0
  3  4  2  0  0  0  0
  3  2  1  0  0  0  0
  4  5  1  0  0  0  0
  5 10  1  0  0  0  0
  5  6  2  0  0  0  0
  6 13  1  0  0  0  0
  8  2  1  0  0  0  0
  9  4  1  0  0  0  0
 11 12  3  0  0  0  0
 13 14  1  0  0  0  0
 14 15  1  0  0  0  0
 14 17  1  0  0  0  0
 16 14  1  0  0  0  0
 18  3  1  0  0  0  0
 19 18  1  0  0  0  0
M  END
