Coordinates from ORCA-job 4-MeO-Ph-N2-OH-B3LYPG-6-31G_dp-MTMO-d009-169-n800
 OpenBabel09051907473D

 19 18  0  0  0  0  0  0  0  0999 V2000
   -1.9849   -3.0016   -0.1855 C   0  0  0  0  0  0  0  0  0  0  0  0
   -0.6364   -2.7922   -0.4353 C   0  0  0  0  0  0  0  0  0  0  0  0
   -0.1486   -1.4909   -0.6187 C   0  0  0  0  0  0  0  0  0  0  0  0
   -1.0308   -0.4145   -0.5488 C   0  0  0  0  0  0  0  0  0  0  0  0
   -2.3927   -0.6225   -0.2971 C   0  0  0  0  0  0  0  0  0  0  0  0
   -2.8764   -1.9199   -0.1137 C   0  0  0  0  0  0  0  0  0  0  0  0
   -2.3758   -4.0036   -0.0405 H   0  0  0  0  0  0  0  0  0  0  0  0
    0.0564   -3.6253   -0.4925 H   0  0  0  0  0  0  0  0  0  0  0  0
   -0.6640    0.6003   -0.6913 H   0  0  0  0  0  0  0  0  0  0  0  0
   -3.0534    0.2351   -0.2497 H   0  0  0  0  0  0  0  0  0  0  0  0
    9.5334   10.1651   -1.4925 N   0  0  0  0  0  0  0  0  0  0  0  0
   10.2831   10.9772   -1.4983 N   0  0  0  0  0  0  0  0  0  0  0  0
   -4.1847   -2.2415    0.1377 O   0  0  0  0  0  0  0  0  0  0  0  0
   -5.1230   -1.1850    0.2167 C   0  0  0  0  0  0  0  0  0  0  0  0
   -6.0890   -1.6501    0.4202 H   0  0  0  0  0  0  0  0  0  0  0  0
   -5.1865   -0.6244   -0.7262 H   0  0  0  0  0  0  0  0  0  0  0  0
   -4.8830   -0.4859    1.0293 H   0  0  0  0  0  0  0  0  0  0  0  0
    1.1937   -1.3473   -0.8611 O   0  0  0  0  0  0  0  0  0  0  0  0
    1.3946   -0.4084   -0.9630 H   0  0  0  0  0  0  0  0  0  0  0  0
  1  6  1  0  0  0  0
  1  7  1  0  0  0  0
  2  1  2  0  0  0  0
  3  4  2  0  0  0  0
  3  2  1  0  0  0  0
  4  5  1  0  0  0  0
  5 10  1  0  0  0  0
  5  6  2  0  0  0  0
  6 13  1  0  0  0  0
  8  2  1  0  0  0  0
  9  4  1  0  0  0  0
 12 11  3  0  0  0  0
 13 14  1  0  0  0  0
 14 15  1  0  0  0  0
 14 17  1  0  0  0  0
 16 14  1  0  0  0  0
 18  3  1  0  0  0  0
 19 18  1  0  0  0  0
M  END
