Coordinates from ORCA-job 4-MeO-Ph-N2-OH-B3LYPG-6-31G_dp-MTMO-d009-169-n800
 OpenBabel09051907473D

 19 18  0  0  0  0  0  0  0  0999 V2000
   -1.7002   -2.7205   -0.2118 C   0  0  0  0  0  0  0  0  0  0  0  0
   -0.3522   -2.5087   -0.4627 C   0  0  0  0  0  0  0  0  0  0  0  0
    0.1327   -1.2067   -0.6486 C   0  0  0  0  0  0  0  0  0  0  0  0
   -0.7517   -0.1320   -0.5800 C   0  0  0  0  0  0  0  0  0  0  0  0
   -2.1130   -0.3424   -0.3273 C   0  0  0  0  0  0  0  0  0  0  0  0
   -2.5939   -1.6405   -0.1414 C   0  0  0  0  0  0  0  0  0  0  0  0
   -2.0889   -3.7230   -0.0649 H   0  0  0  0  0  0  0  0  0  0  0  0
    0.3422   -3.3404   -0.5189 H   0  0  0  0  0  0  0  0  0  0  0  0
   -0.3871    0.8833   -0.7245 H   0  0  0  0  0  0  0  0  0  0  0  0
   -2.7755    0.5138   -0.2809 H   0  0  0  0  0  0  0  0  0  0  0  0
    7.1433    7.7793   -1.2510 N   0  0  0  0  0  0  0  0  0  0  0  0
    7.8889    8.5952   -1.2483 N   0  0  0  0  0  0  0  0  0  0  0  0
   -3.9014   -1.9645    0.1111 O   0  0  0  0  0  0  0  0  0  0  0  0
   -4.8419   -0.9099    0.1887 C   0  0  0  0  0  0  0  0  0  0  0  0
   -5.8069   -1.3767    0.3932 H   0  0  0  0  0  0  0  0  0  0  0  0
   -4.9069   -0.3509   -0.7551 H   0  0  0  0  0  0  0  0  0  0  0  0
   -4.6032   -0.2089    1.0001 H   0  0  0  0  0  0  0  0  0  0  0  0
    1.4745   -1.0606   -0.8920 O   0  0  0  0  0  0  0  0  0  0  0  0
    1.6734   -0.1215   -0.9958 H   0  0  0  0  0  0  0  0  0  0  0  0
  1  6  1  0  0  0  0
  1  7  1  0  0  0  0
  2  1  2  0  0  0  0
  3  4  2  0  0  0  0
  3  2  1  0  0  0  0
  4  5  1  0  0  0  0
  5 10  1  0  0  0  0
  5  6  2  0  0  0  0
  6 13  1  0  0  0  0
  8  2  1  0  0  0  0
  9  4  1  0  0  0  0
 11 12  3  0  0  0  0
 13 14  1  0  0  0  0
 14 15  1  0  0  0  0
 14 17  1  0  0  0  0
 16 14  1  0  0  0  0
 18  3  1  0  0  0  0
 19 18  1  0  0  0  0
M  END
