Coordinates from ORCA-job 4-MeO-Ph-N2-OH-B3LYPG-6-31G_dp-MTMO-d009-169-n800
 OpenBabel09051907463D

 19 18  0  0  0  0  0  0  0  0999 V2000
   -0.8846   -1.8201   -0.8360 C   0  0  0  0  0  0  0  0  0  0  0  0
    0.4591   -1.5210   -0.6626 C   0  0  0  0  0  0  0  0  0  0  0  0
    0.8405   -0.3197   -0.0486 C   0  0  0  0  0  0  0  0  0  0  0  0
   -0.1436    0.5679    0.3847 C   0  0  0  0  0  0  0  0  0  0  0  0
   -1.5008    0.2714    0.2067 C   0  0  0  0  0  0  0  0  0  0  0  0
   -1.8777   -0.9269   -0.4044 C   0  0  0  0  0  0  0  0  0  0  0  0
   -1.1935   -2.7471   -1.3079 H   0  0  0  0  0  0  0  0  0  0  0  0
    1.2305   -2.2072   -0.9961 H   0  0  0  0  0  0  0  0  0  0  0  0
    0.1396    1.5008    0.8669 H   0  0  0  0  0  0  0  0  0  0  0  0
   -2.2423    0.9817    0.5519 H   0  0  0  0  0  0  0  0  0  0  0  0
    1.7652    2.1061   -1.7479 N   0  0  0  0  0  0  0  0  0  0  0  0
    1.6202    2.0762   -2.8430 N   0  0  0  0  0  0  0  0  0  0  0  0
   -3.1712   -1.3209   -0.6272 O   0  0  0  0  0  0  0  0  0  0  0  0
   -4.2096   -0.4593   -0.1981 C   0  0  0  0  0  0  0  0  0  0  0  0
   -5.1451   -0.9573   -0.4592 H   0  0  0  0  0  0  0  0  0  0  0  0
   -4.1687    0.5136   -0.7057 H   0  0  0  0  0  0  0  0  0  0  0  0
   -4.1805   -0.2952    0.8879 H   0  0  0  0  0  0  0  0  0  0  0  0
    2.1833   -0.0913    0.1073 O   0  0  0  0  0  0  0  0  0  0  0  0
    2.3112    0.8127    0.4210 H   0  0  0  0  0  0  0  0  0  0  0  0
  1  2  2  0  0  0  0
  1  6  1  0  0  0  0
  2  3  1  0  0  0  0
  3 18  1  0  0  0  0
  3  4  2  0  0  0  0
  4  9  1  0  0  0  0
  5  4  1  0  0  0  0
  5 10  1  0  0  0  0
  6  5  2  0  0  0  0
  7  1  1  0  0  0  0
  8  2  1  0  0  0  0
 12 11  3  0  0  0  0
 13  6  1  0  0  0  0
 13 14  1  0  0  0  0
 14 17  1  0  0  0  0
 15 14  1  0  0  0  0
 16 14  1  0  0  0  0
 18 19  1  0  0  0  0
M  END
