Coordinates from ORCA-job 4-MeO-Ph-N2-OH-B3LYPG-6-31G_dp-MTMO-d009-169-n800
 OpenBabel09051907473D

 19 18  0  0  0  0  0  0  0  0999 V2000
   -1.1428   -2.1831   -0.2514 C   0  0  0  0  0  0  0  0  0  0  0  0
    0.1668   -1.7830   -0.4752 C   0  0  0  0  0  0  0  0  0  0  0  0
    0.4699   -0.4237   -0.6356 C   0  0  0  0  0  0  0  0  0  0  0  0
   -0.5559    0.5173   -0.5696 C   0  0  0  0  0  0  0  0  0  0  0  0
   -1.8789    0.1167   -0.3435 C   0  0  0  0  0  0  0  0  0  0  0  0
   -2.1782   -1.2380   -0.1828 C   0  0  0  0  0  0  0  0  0  0  0  0
   -1.3911   -3.2320   -0.1237 H   0  0  0  0  0  0  0  0  0  0  0  0
    0.9710   -2.5094   -0.5291 H   0  0  0  0  0  0  0  0  0  0  0  0
   -0.3333    1.5753   -0.6955 H   0  0  0  0  0  0  0  0  0  0  0  0
   -2.6544    0.8718   -0.2969 H   0  0  0  0  0  0  0  0  0  0  0  0
    4.1214    3.6751   -1.0594 N   0  0  0  0  0  0  0  0  0  0  0  0
    4.9674    4.3861   -1.0512 N   0  0  0  0  0  0  0  0  0  0  0  0
   -3.4323   -1.7432    0.0429 O   0  0  0  0  0  0  0  0  0  0  0  0
   -4.5105   -0.8299    0.1184 C   0  0  0  0  0  0  0  0  0  0  0  0
   -5.4052   -1.4290    0.2960 H   0  0  0  0  0  0  0  0  0  0  0  0
   -4.6358   -0.2674   -0.8171 H   0  0  0  0  0  0  0  0  0  0  0  0
   -4.3851   -0.1178    0.9456 H   0  0  0  0  0  0  0  0  0  0  0  0
    1.7824   -0.0906   -0.8517 O   0  0  0  0  0  0  0  0  0  0  0  0
    1.8569    0.8692   -0.9305 H   0  0  0  0  0  0  0  0  0  0  0  0
  1  6  1  0  0  0  0
  1  7  1  0  0  0  0
  2  1  2  0  0  0  0
  3  4  2  0  0  0  0
  3  2  1  0  0  0  0
  4  5  1  0  0  0  0
  5 10  1  0  0  0  0
  5  6  2  0  0  0  0
  6 13  1  0  0  0  0
  8  2  1  0  0  0  0
  9  4  1  0  0  0  0
 11 12  3  0  0  0  0
 13 14  1  0  0  0  0
 14 15  1  0  0  0  0
 14 17  1  0  0  0  0
 16 14  1  0  0  0  0
 18  3  1  0  0  0  0
 19 18  1  0  0  0  0
M  END
