Coordinates from ORCA-job 4-MeO-Ph-N2-OH-B3LYPG-6-31G_dp-MTMO-d009-169-n800
 OpenBabel09051907473D

 19 18  0  0  0  0  0  0  0  0999 V2000
   -1.0892   -2.1442   -0.2564 C   0  0  0  0  0  0  0  0  0  0  0  0
    0.2222   -1.7518   -0.4832 C   0  0  0  0  0  0  0  0  0  0  0  0
    0.5327   -0.3947   -0.6474 C   0  0  0  0  0  0  0  0  0  0  0  0
   -0.4880    0.5522   -0.5821 C   0  0  0  0  0  0  0  0  0  0  0  0
   -1.8127    0.1593   -0.3530 C   0  0  0  0  0  0  0  0  0  0  0  0
   -2.1193   -1.1933   -0.1886 C   0  0  0  0  0  0  0  0  0  0  0  0
   -1.3431   -3.1914   -0.1258 H   0  0  0  0  0  0  0  0  0  0  0  0
    1.0223   -2.4828   -0.5366 H   0  0  0  0  0  0  0  0  0  0  0  0
   -0.2595    1.6085   -0.7109 H   0  0  0  0  0  0  0  0  0  0  0  0
   -2.5840    0.9188   -0.3070 H   0  0  0  0  0  0  0  0  0  0  0  0
    3.6256    3.2924   -0.9918 N   0  0  0  0  0  0  0  0  0  0  0  0
    4.4108    4.0697   -0.9738 N   0  0  0  0  0  0  0  0  0  0  0  0
   -3.3760   -1.6911    0.0401 O   0  0  0  0  0  0  0  0  0  0  0  0
   -4.4491   -0.7718    0.1136 C   0  0  0  0  0  0  0  0  0  0  0  0
   -5.3470   -1.3655    0.2932 H   0  0  0  0  0  0  0  0  0  0  0  0
   -4.5718   -0.2111   -0.8235 H   0  0  0  0  0  0  0  0  0  0  0  0
   -4.3196   -0.0580    0.9388 H   0  0  0  0  0  0  0  0  0  0  0  0
    1.8465   -0.0698   -0.8668 O   0  0  0  0  0  0  0  0  0  0  0  0
    1.9316    0.8892   -0.9488 H   0  0  0  0  0  0  0  0  0  0  0  0
  1  6  1  0  0  0  0
  1  7  1  0  0  0  0
  2  1  2  0  0  0  0
  3  4  2  0  0  0  0
  3  2  1  0  0  0  0
  4  5  1  0  0  0  0
  5 10  1  0  0  0  0
  5  6  2  0  0  0  0
  6 13  1  0  0  0  0
  8  2  1  0  0  0  0
  9  4  1  0  0  0  0
 11 12  3  0  0  0  0
 13 14  1  0  0  0  0
 14 15  1  0  0  0  0
 14 17  1  0  0  0  0
 16 14  1  0  0  0  0
 18  3  1  0  0  0  0
 19 18  1  0  0  0  0
M  END
