Coordinates from ORCA-job 4-MeO-Ph-N2-OH-B3LYPG-6-31G_dp-MTMO-d009-169-n800
 OpenBabel09051907473D

 19 18  0  0  0  0  0  0  0  0999 V2000
   -1.6297   -2.6513   -0.2170 C   0  0  0  0  0  0  0  0  0  0  0  0
   -0.2821   -2.4384   -0.4688 C   0  0  0  0  0  0  0  0  0  0  0  0
    0.2014   -1.1362   -0.6567 C   0  0  0  0  0  0  0  0  0  0  0  0
   -0.6841   -0.0623   -0.5892 C   0  0  0  0  0  0  0  0  0  0  0  0
   -2.0451   -0.2738   -0.3355 C   0  0  0  0  0  0  0  0  0  0  0  0
   -2.5246   -1.5721   -0.1477 C   0  0  0  0  0  0  0  0  0  0  0  0
   -2.0174   -3.6540   -0.0686 H   0  0  0  0  0  0  0  0  0  0  0  0
    0.4132   -3.2695   -0.5242 H   0  0  0  0  0  0  0  0  0  0  0  0
   -0.3206    0.9532   -0.7353 H   0  0  0  0  0  0  0  0  0  0  0  0
   -2.7084    0.5819   -0.2900 H   0  0  0  0  0  0  0  0  0  0  0  0
    6.5603    7.1921   -1.1923 N   0  0  0  0  0  0  0  0  0  0  0  0
    7.3018    8.0116   -1.1842 N   0  0  0  0  0  0  0  0  0  0  0  0
   -3.8316   -1.8970    0.1058 O   0  0  0  0  0  0  0  0  0  0  0  0
   -4.7732   -0.8433    0.1824 C   0  0  0  0  0  0  0  0  0  0  0  0
   -5.7376   -1.3108    0.3878 H   0  0  0  0  0  0  0  0  0  0  0  0
   -4.8391   -0.2856   -0.7622 H   0  0  0  0  0  0  0  0  0  0  0  0
   -4.5348   -0.1410    0.9928 H   0  0  0  0  0  0  0  0  0  0  0  0
    1.5430   -0.9890   -0.9010 O   0  0  0  0  0  0  0  0  0  0  0  0
    1.7407   -0.0499   -1.0063 H   0  0  0  0  0  0  0  0  0  0  0  0
  1  6  1  0  0  0  0
  1  7  1  0  0  0  0
  2  1  2  0  0  0  0
  3  4  2  0  0  0  0
  3  2  1  0  0  0  0
  4  5  1  0  0  0  0
  5 10  1  0  0  0  0
  5  6  2  0  0  0  0
  6 13  1  0  0  0  0
  8  2  1  0  0  0  0
  9  4  1  0  0  0  0
 11 12  3  0  0  0  0
 13 14  1  0  0  0  0
 14 15  1  0  0  0  0
 14 17  1  0  0  0  0
 16 14  1  0  0  0  0
 18  3  1  0  0  0  0
 19 18  1  0  0  0  0
M  END
