Coordinates from ORCA-job 4-MeO-Ph-N2-OH-B3LYPG-6-31G_dp-MTMO-d009-169-n800
 OpenBabel09051907473D

 19 18  0  0  0  0  0  0  0  0999 V2000
   -1.7838   -2.8029   -0.2049 C   0  0  0  0  0  0  0  0  0  0  0  0
   -0.4356   -2.5919   -0.4551 C   0  0  0  0  0  0  0  0  0  0  0  0
    0.0504   -1.2901   -0.6393 C   0  0  0  0  0  0  0  0  0  0  0  0
   -0.8332   -0.2148   -0.5699 C   0  0  0  0  0  0  0  0  0  0  0  0
   -2.1947   -0.4244   -0.3179 C   0  0  0  0  0  0  0  0  0  0  0  0
   -2.6767   -1.7224   -0.1336 C   0  0  0  0  0  0  0  0  0  0  0  0
   -2.1734   -3.8053   -0.0593 H   0  0  0  0  0  0  0  0  0  0  0  0
    0.2582   -3.4241   -0.5119 H   0  0  0  0  0  0  0  0  0  0  0  0
   -0.4678    0.8004   -0.7131 H   0  0  0  0  0  0  0  0  0  0  0  0
   -2.8566    0.4323   -0.2708 H   0  0  0  0  0  0  0  0  0  0  0  0
    7.8425    8.4788   -1.3220 N   0  0  0  0  0  0  0  0  0  0  0  0
    8.5904    9.2926   -1.3229 N   0  0  0  0  0  0  0  0  0  0  0  0
   -3.9846   -2.0456    0.1181 O   0  0  0  0  0  0  0  0  0  0  0  0
   -4.9243   -0.9903    0.1965 C   0  0  0  0  0  0  0  0  0  0  0  0
   -5.8896   -1.4566    0.4003 H   0  0  0  0  0  0  0  0  0  0  0  0
   -4.9886   -0.4303   -0.7467 H   0  0  0  0  0  0  0  0  0  0  0  0
   -4.6852   -0.2904    1.0088 H   0  0  0  0  0  0  0  0  0  0  0  0
    1.3925   -1.1448   -0.8820 O   0  0  0  0  0  0  0  0  0  0  0  0
    1.5921   -0.2057   -0.9845 H   0  0  0  0  0  0  0  0  0  0  0  0
  1  6  1  0  0  0  0
  1  7  1  0  0  0  0
  2  1  2  0  0  0  0
  3  4  2  0  0  0  0
  3  2  1  0  0  0  0
  4  5  1  0  0  0  0
  5 10  1  0  0  0  0
  5  6  2  0  0  0  0
  6 13  1  0  0  0  0
  8  2  1  0  0  0  0
  9  4  1  0  0  0  0
 12 11  3  0  0  0  0
 13 14  1  0  0  0  0
 14 15  1  0  0  0  0
 14 17  1  0  0  0  0
 16 14  1  0  0  0  0
 18  3  1  0  0  0  0
 19 18  1  0  0  0  0
M  END
