Coordinates from ORCA-job 4-MeO-Ph-N2-OH-B3LYPG-6-31G_dp-MTMO-d009-169-n800
 OpenBabel09051907473D

 19 18  0  0  0  0  0  0  0  0999 V2000
   -2.0180   -3.0344   -0.1820 C   0  0  0  0  0  0  0  0  0  0  0  0
   -0.6695   -2.8253   -0.4319 C   0  0  0  0  0  0  0  0  0  0  0  0
   -0.1815   -1.5241   -0.6154 C   0  0  0  0  0  0  0  0  0  0  0  0
   -1.0635   -0.4475   -0.5456 C   0  0  0  0  0  0  0  0  0  0  0  0
   -2.4254   -0.6552   -0.2939 C   0  0  0  0  0  0  0  0  0  0  0  0
   -2.9094   -1.9525   -0.1103 C   0  0  0  0  0  0  0  0  0  0  0  0
   -2.4091   -4.0363   -0.0369 H   0  0  0  0  0  0  0  0  0  0  0  0
    0.0231   -3.6584   -0.4891 H   0  0  0  0  0  0  0  0  0  0  0  0
   -0.6966    0.5672   -0.6883 H   0  0  0  0  0  0  0  0  0  0  0  0
   -3.0860    0.2025   -0.2465 H   0  0  0  0  0  0  0  0  0  0  0  0
    9.8129   10.4436   -1.5206 N   0  0  0  0  0  0  0  0  0  0  0  0
   10.5628   11.2556   -1.5270 N   0  0  0  0  0  0  0  0  0  0  0  0
   -4.2177   -2.2739    0.1412 O   0  0  0  0  0  0  0  0  0  0  0  0
   -5.1558   -1.2172    0.2202 C   0  0  0  0  0  0  0  0  0  0  0  0
   -6.1219   -1.6822    0.4238 H   0  0  0  0  0  0  0  0  0  0  0  0
   -5.2193   -0.6567   -0.7228 H   0  0  0  0  0  0  0  0  0  0  0  0
   -4.9156   -0.5181    1.0327 H   0  0  0  0  0  0  0  0  0  0  0  0
    1.1608   -1.3807   -0.8579 O   0  0  0  0  0  0  0  0  0  0  0  0
    1.3619   -0.4418   -0.9599 H   0  0  0  0  0  0  0  0  0  0  0  0
  1  6  1  0  0  0  0
  1  7  1  0  0  0  0
  2  1  2  0  0  0  0
  3  4  2  0  0  0  0
  3  2  1  0  0  0  0
  4  5  1  0  0  0  0
  5 10  1  0  0  0  0
  5  6  2  0  0  0  0
  6 13  1  0  0  0  0
  8  2  1  0  0  0  0
  9  4  1  0  0  0  0
 12 11  3  0  0  0  0
 13 14  1  0  0  0  0
 14 15  1  0  0  0  0
 14 17  1  0  0  0  0
 16 14  1  0  0  0  0
 18  3  1  0  0  0  0
 19 18  1  0  0  0  0
M  END
