Coordinates from ORCA-job 4-MeO-Ph-N2-OH-B3LYPG-6-31G_dp-MTMO-d009-169-n800
 OpenBabel09051907463D

 19 18  0  0  0  0  0  0  0  0999 V2000
   -0.9690   -1.9735   -0.6867 C   0  0  0  0  0  0  0  0  0  0  0  0
    0.3815   -1.6680   -0.5995 C   0  0  0  0  0  0  0  0  0  0  0  0
    0.7909   -0.3989   -0.1663 C   0  0  0  0  0  0  0  0  0  0  0  0
   -0.1728    0.5486    0.1776 C   0  0  0  0  0  0  0  0  0  0  0  0
   -1.5370    0.2444    0.0866 C   0  0  0  0  0  0  0  0  0  0  0  0
   -1.9416   -1.0204   -0.3464 C   0  0  0  0  0  0  0  0  0  0  0  0
   -1.2991   -2.9517   -1.0211 H   0  0  0  0  0  0  0  0  0  0  0  0
    1.1372   -2.4003   -0.8642 H   0  0  0  0  0  0  0  0  0  0  0  0
    0.1319    1.5338    0.5228 H   0  0  0  0  0  0  0  0  0  0  0  0
   -2.2623    1.0014    0.3600 H   0  0  0  0  0  0  0  0  0  0  0  0
    2.1803    2.5047   -1.5487 N   0  0  0  0  0  0  0  0  0  0  0  0
    2.1151    2.8859   -2.5836 N   0  0  0  0  0  0  0  0  0  0  0  0
   -3.2446   -1.4271   -0.4725 O   0  0  0  0  0  0  0  0  0  0  0  0
   -4.2623   -0.5026   -0.1354 C   0  0  0  0  0  0  0  0  0  0  0  0
   -5.2095   -1.0181   -0.3046 H   0  0  0  0  0  0  0  0  0  0  0  0
   -4.2248    0.3948   -0.7675 H   0  0  0  0  0  0  0  0  0  0  0  0
   -4.2034   -0.1973    0.9181 H   0  0  0  0  0  0  0  0  0  0  0  0
    2.1389   -0.1609   -0.0960 O   0  0  0  0  0  0  0  0  0  0  0  0
    2.2827    0.7697    0.1171 H   0  0  0  0  0  0  0  0  0  0  0  0
  1  2  2  0  0  0  0
  1  6  1  0  0  0  0
  2  3  1  0  0  0  0
  3 18  1  0  0  0  0
  3  4  2  0  0  0  0
  4  9  1  0  0  0  0
  5  4  1  0  0  0  0
  5 10  1  0  0  0  0
  6  5  2  0  0  0  0
  7  1  1  0  0  0  0
  8  2  1  0  0  0  0
 12 11  3  0  0  0  0
 13  6  1  0  0  0  0
 13 14  1  0  0  0  0
 14 17  1  0  0  0  0
 15 14  1  0  0  0  0
 16 14  1  0  0  0  0
 18 19  1  0  0  0  0
M  END
