Coordinates from ORCA-job 4-MeO-Ph-N2-OH-B3LYPG-6-31G_dp-MTMO-d009-169-n800
 OpenBabel09051907473D

 19 18  0  0  0  0  0  0  0  0999 V2000
   -1.9321   -2.9494   -0.1909 C   0  0  0  0  0  0  0  0  0  0  0  0
   -0.5836   -2.7396   -0.4406 C   0  0  0  0  0  0  0  0  0  0  0  0
   -0.0962   -1.4382   -0.6239 C   0  0  0  0  0  0  0  0  0  0  0  0
   -0.9787   -0.3620   -0.5540 C   0  0  0  0  0  0  0  0  0  0  0  0
   -2.3405   -0.5704   -0.3024 C   0  0  0  0  0  0  0  0  0  0  0  0
   -2.8239   -1.8679   -0.1190 C   0  0  0  0  0  0  0  0  0  0  0  0
   -2.3228   -3.9515   -0.0460 H   0  0  0  0  0  0  0  0  0  0  0  0
    0.1094   -3.5725   -0.4979 H   0  0  0  0  0  0  0  0  0  0  0  0
   -0.6122    0.6529   -0.6964 H   0  0  0  0  0  0  0  0  0  0  0  0
   -3.0015    0.2870   -0.2549 H   0  0  0  0  0  0  0  0  0  0  0  0
    9.0885    9.7218   -1.4479 N   0  0  0  0  0  0  0  0  0  0  0  0
    9.8379   10.5342   -1.4526 N   0  0  0  0  0  0  0  0  0  0  0  0
   -4.1321   -2.1900    0.1322 O   0  0  0  0  0  0  0  0  0  0  0  0
   -5.0707   -1.1337    0.2113 C   0  0  0  0  0  0  0  0  0  0  0  0
   -6.0366   -1.5992    0.4147 H   0  0  0  0  0  0  0  0  0  0  0  0
   -5.1344   -0.5731   -0.7316 H   0  0  0  0  0  0  0  0  0  0  0  0
   -4.8310   -0.4346    1.0240 H   0  0  0  0  0  0  0  0  0  0  0  0
    1.2461   -1.2941   -0.8663 O   0  0  0  0  0  0  0  0  0  0  0  0
    1.4467   -0.3552   -0.9680 H   0  0  0  0  0  0  0  0  0  0  0  0
  1  6  1  0  0  0  0
  1  7  1  0  0  0  0
  2  1  2  0  0  0  0
  3  4  2  0  0  0  0
  3  2  1  0  0  0  0
  4  5  1  0  0  0  0
  5 10  1  0  0  0  0
  5  6  2  0  0  0  0
  6 13  1  0  0  0  0
  8  2  1  0  0  0  0
  9  4  1  0  0  0  0
 12 11  3  0  0  0  0
 13 14  1  0  0  0  0
 14 15  1  0  0  0  0
 14 17  1  0  0  0  0
 16 14  1  0  0  0  0
 18  3  1  0  0  0  0
 19 18  1  0  0  0  0
M  END
