Coordinates from ORCA-job 4-MeO-Ph-N2-OH-B3LYPG-6-31G_dp-MTMO-d009-169-n800
 OpenBabel09051907463D

 19 18  0  0  0  0  0  0  0  0999 V2000
   -0.9002   -1.8490   -0.8110 C   0  0  0  0  0  0  0  0  0  0  0  0
    0.4450   -1.5491   -0.6510 C   0  0  0  0  0  0  0  0  0  0  0  0
    0.8320   -0.3353   -0.0658 C   0  0  0  0  0  0  0  0  0  0  0  0
   -0.1481    0.5641    0.3524 C   0  0  0  0  0  0  0  0  0  0  0  0
   -1.5068    0.2666    0.1879 C   0  0  0  0  0  0  0  0  0  0  0  0
   -1.8892   -0.9441   -0.3945 C   0  0  0  0  0  0  0  0  0  0  0  0
   -1.2134   -2.7854   -1.2608 H   0  0  0  0  0  0  0  0  0  0  0  0
    1.2133   -2.2441   -0.9732 H   0  0  0  0  0  0  0  0  0  0  0  0
    0.1395    1.5067    0.8127 H   0  0  0  0  0  0  0  0  0  0  0  0
   -2.2451    0.9859    0.5212 H   0  0  0  0  0  0  0  0  0  0  0  0
    1.8423    2.1899   -1.7190 N   0  0  0  0  0  0  0  0  0  0  0  0
    1.7040    2.2183   -2.8150 N   0  0  0  0  0  0  0  0  0  0  0  0
   -3.1847   -1.3401   -0.6021 O   0  0  0  0  0  0  0  0  0  0  0  0
   -4.2191   -0.4666   -0.1878 C   0  0  0  0  0  0  0  0  0  0  0  0
   -5.1570   -0.9681   -0.4335 H   0  0  0  0  0  0  0  0  0  0  0  0
   -4.1782    0.4946   -0.7173 H   0  0  0  0  0  0  0  0  0  0  0  0
   -4.1848   -0.2783    0.8940 H   0  0  0  0  0  0  0  0  0  0  0  0
    2.1760   -0.1048    0.0758 O   0  0  0  0  0  0  0  0  0  0  0  0
    2.3068    0.8032    0.3766 H   0  0  0  0  0  0  0  0  0  0  0  0
  1  2  2  0  0  0  0
  1  6  1  0  0  0  0
  2  3  1  0  0  0  0
  3 18  1  0  0  0  0
  3  4  2  0  0  0  0
  4  9  1  0  0  0  0
  5  4  1  0  0  0  0
  5 10  1  0  0  0  0
  6  5  2  0  0  0  0
  7  1  1  0  0  0  0
  8  2  1  0  0  0  0
 12 11  3  0  0  0  0
 13  6  1  0  0  0  0
 13 14  1  0  0  0  0
 14 17  1  0  0  0  0
 15 14  1  0  0  0  0
 16 14  1  0  0  0  0
 18 19  1  0  0  0  0
M  END
