Coordinates from ORCA-job 4-MeO-Ph-N2-OH-B3LYPG-6-31G_dp-MTMO-d009-169-n800
 OpenBabel09051907473D

 19 18  0  0  0  0  0  0  0  0999 V2000
   -2.0286   -3.0448   -0.1809 C   0  0  0  0  0  0  0  0  0  0  0  0
   -0.6801   -2.8358   -0.4308 C   0  0  0  0  0  0  0  0  0  0  0  0
   -0.1920   -1.5346   -0.6144 C   0  0  0  0  0  0  0  0  0  0  0  0
   -1.0739   -0.4580   -0.5446 C   0  0  0  0  0  0  0  0  0  0  0  0
   -2.4358   -0.6656   -0.2929 C   0  0  0  0  0  0  0  0  0  0  0  0
   -2.9199   -1.9629   -0.1092 C   0  0  0  0  0  0  0  0  0  0  0  0
   -2.4197   -4.0467   -0.0357 H   0  0  0  0  0  0  0  0  0  0  0  0
    0.0125   -3.6690   -0.4880 H   0  0  0  0  0  0  0  0  0  0  0  0
   -0.7069    0.5567   -0.6873 H   0  0  0  0  0  0  0  0  0  0  0  0
   -3.0964    0.1921   -0.2455 H   0  0  0  0  0  0  0  0  0  0  0  0
    9.9019   10.5322   -1.5295 N   0  0  0  0  0  0  0  0  0  0  0  0
   10.6518   11.3441   -1.5361 N   0  0  0  0  0  0  0  0  0  0  0  0
   -4.2282   -2.2842    0.1423 O   0  0  0  0  0  0  0  0  0  0  0  0
   -5.1663   -1.2275    0.2213 C   0  0  0  0  0  0  0  0  0  0  0  0
   -6.1323   -1.6924    0.4249 H   0  0  0  0  0  0  0  0  0  0  0  0
   -5.2298   -0.6670   -0.7217 H   0  0  0  0  0  0  0  0  0  0  0  0
   -4.9260   -0.5283    1.0338 H   0  0  0  0  0  0  0  0  0  0  0  0
    1.1503   -1.3913   -0.8569 O   0  0  0  0  0  0  0  0  0  0  0  0
    1.3514   -0.4525   -0.9590 H   0  0  0  0  0  0  0  0  0  0  0  0
  1  6  1  0  0  0  0
  1  7  1  0  0  0  0
  2  1  2  0  0  0  0
  3  4  2  0  0  0  0
  3  2  1  0  0  0  0
  4  5  1  0  0  0  0
  5 10  1  0  0  0  0
  5  6  2  0  0  0  0
  6 13  1  0  0  0  0
  8  2  1  0  0  0  0
  9  4  1  0  0  0  0
 12 11  3  0  0  0  0
 13 14  1  0  0  0  0
 14 15  1  0  0  0  0
 14 17  1  0  0  0  0
 16 14  1  0  0  0  0
 18  3  1  0  0  0  0
 19 18  1  0  0  0  0
M  END
