Coordinates from ORCA-job 4-MeO-Ph-N2-OH-B3LYPG-6-31G_dp-MTMO-d009-169-n800
 OpenBabel09051907463D

 19 18  0  0  0  0  0  0  0  0999 V2000
   -0.8976   -1.8440   -0.8153 C   0  0  0  0  0  0  0  0  0  0  0  0
    0.4474   -1.5439   -0.6537 C   0  0  0  0  0  0  0  0  0  0  0  0
    0.8332   -0.3319   -0.0644 C   0  0  0  0  0  0  0  0  0  0  0  0
   -0.1475    0.5659    0.3562 C   0  0  0  0  0  0  0  0  0  0  0  0
   -1.5059    0.2680    0.1901 C   0  0  0  0  0  0  0  0  0  0  0  0
   -1.8874   -0.9411   -0.3963 C   0  0  0  0  0  0  0  0  0  0  0  0
   -1.2101   -2.7792   -1.2682 H   0  0  0  0  0  0  0  0  0  0  0  0
    1.2163   -2.2374   -0.9777 H   0  0  0  0  0  0  0  0  0  0  0  0
    0.1393    1.5071    0.8194 H   0  0  0  0  0  0  0  0  0  0  0  0
   -2.2449    0.9857    0.5252 H   0  0  0  0  0  0  0  0  0  0  0  0
    1.8313    2.1721   -1.7190 N   0  0  0  0  0  0  0  0  0  0  0  0
    1.6902    2.1930   -2.8148 N   0  0  0  0  0  0  0  0  0  0  0  0
   -3.1826   -1.3373   -0.6057 O   0  0  0  0  0  0  0  0  0  0  0  0
   -4.2177   -0.4658   -0.1889 C   0  0  0  0  0  0  0  0  0  0  0  0
   -5.1551   -0.9672   -0.4364 H   0  0  0  0  0  0  0  0  0  0  0  0
   -4.1774    0.4971   -0.7154 H   0  0  0  0  0  0  0  0  0  0  0  0
   -4.1838   -0.2808    0.8935 H   0  0  0  0  0  0  0  0  0  0  0  0
    2.1770   -0.1016    0.0793 O   0  0  0  0  0  0  0  0  0  0  0  0
    2.3073    0.8057    0.3821 H   0  0  0  0  0  0  0  0  0  0  0  0
  1  2  2  0  0  0  0
  1  6  1  0  0  0  0
  2  3  1  0  0  0  0
  3 18  1  0  0  0  0
  3  4  2  0  0  0  0
  4  9  1  0  0  0  0
  5  4  1  0  0  0  0
  5 10  1  0  0  0  0
  6  5  2  0  0  0  0
  7  1  1  0  0  0  0
  8  2  1  0  0  0  0
 12 11  3  0  0  0  0
 13  6  1  0  0  0  0
 13 14  1  0  0  0  0
 14 17  1  0  0  0  0
 15 14  1  0  0  0  0
 16 14  1  0  0  0  0
 18 19  1  0  0  0  0
M  END
