Coordinates from ORCA-job 4-MeO-Ph-N2-OH-B3LYPG-6-31G_dp-MTMO-d009-169-n800
 OpenBabel09051907473D

 19 18  0  0  0  0  0  0  0  0999 V2000
   -1.5253   -2.5494   -0.2237 C   0  0  0  0  0  0  0  0  0  0  0  0
   -0.1786   -2.3329   -0.4772 C   0  0  0  0  0  0  0  0  0  0  0  0
    0.3006   -1.0296   -0.6688 C   0  0  0  0  0  0  0  0  0  0  0  0
   -0.5882    0.0417   -0.6033 C   0  0  0  0  0  0  0  0  0  0  0  0
   -1.9483   -0.1735   -0.3480 C   0  0  0  0  0  0  0  0  0  0  0  0
   -2.4235   -1.4729   -0.1565 C   0  0  0  0  0  0  0  0  0  0  0  0
   -1.9096   -3.5529   -0.0723 H   0  0  0  0  0  0  0  0  0  0  0  0
    0.5193   -3.1618   -0.5310 H   0  0  0  0  0  0  0  0  0  0  0  0
   -0.2281    1.0579   -0.7522 H   0  0  0  0  0  0  0  0  0  0  0  0
   -2.6143    0.6801   -0.3041 H   0  0  0  0  0  0  0  0  0  0  0  0
    5.7215    6.3289   -1.1109 N   0  0  0  0  0  0  0  0  0  0  0  0
    6.4496    7.1601   -1.0869 N   0  0  0  0  0  0  0  0  0  0  0  0
   -3.7293   -1.8014    0.0989 O   0  0  0  0  0  0  0  0  0  0  0  0
   -4.6742   -0.7504    0.1734 C   0  0  0  0  0  0  0  0  0  0  0  0
   -5.6370   -1.2206    0.3805 H   0  0  0  0  0  0  0  0  0  0  0  0
   -4.7424   -0.1953   -0.7724 H   0  0  0  0  0  0  0  0  0  0  0  0
   -4.4377   -0.0455    0.9820 H   0  0  0  0  0  0  0  0  0  0  0  0
    1.6415   -0.8788   -0.9146 O   0  0  0  0  0  0  0  0  0  0  0  0
    1.8361    0.0607   -1.0230 H   0  0  0  0  0  0  0  0  0  0  0  0
  1  6  1  0  0  0  0
  1  7  1  0  0  0  0
  2  1  2  0  0  0  0
  3  4  2  0  0  0  0
  3  2  1  0  0  0  0
  4  5  1  0  0  0  0
  5 10  1  0  0  0  0
  5  6  2  0  0  0  0
  6 13  1  0  0  0  0
  8  2  1  0  0  0  0
  9  4  1  0  0  0  0
 11 12  3  0  0  0  0
 13 14  1  0  0  0  0
 14 15  1  0  0  0  0
 14 17  1  0  0  0  0
 16 14  1  0  0  0  0
 18  3  1  0  0  0  0
 19 18  1  0  0  0  0
M  END
