Coordinates from ORCA-job 4-MeO-Ph-N2-OH-B3LYPG-6-31G_dp-MTMO-d009-169-n800
 OpenBabel09051907473D

 19 18  0  0  0  0  0  0  0  0999 V2000
   -2.0165   -3.0329   -0.1821 C   0  0  0  0  0  0  0  0  0  0  0  0
   -0.6680   -2.8238   -0.4321 C   0  0  0  0  0  0  0  0  0  0  0  0
   -0.1800   -1.5226   -0.6156 C   0  0  0  0  0  0  0  0  0  0  0  0
   -1.0620   -0.4460   -0.5458 C   0  0  0  0  0  0  0  0  0  0  0  0
   -2.4239   -0.6537   -0.2940 C   0  0  0  0  0  0  0  0  0  0  0  0
   -2.9079   -1.9510   -0.1104 C   0  0  0  0  0  0  0  0  0  0  0  0
   -2.4076   -4.0348   -0.0370 H   0  0  0  0  0  0  0  0  0  0  0  0
    0.0246   -3.6569   -0.4892 H   0  0  0  0  0  0  0  0  0  0  0  0
   -0.6951    0.5687   -0.6884 H   0  0  0  0  0  0  0  0  0  0  0  0
   -3.0845    0.2039   -0.2467 H   0  0  0  0  0  0  0  0  0  0  0  0
    9.8002   10.4309   -1.5193 N   0  0  0  0  0  0  0  0  0  0  0  0
   10.5501   11.2429   -1.5257 N   0  0  0  0  0  0  0  0  0  0  0  0
   -4.2162   -2.2724    0.1410 O   0  0  0  0  0  0  0  0  0  0  0  0
   -5.1543   -1.2157    0.2200 C   0  0  0  0  0  0  0  0  0  0  0  0
   -6.1204   -1.6807    0.4236 H   0  0  0  0  0  0  0  0  0  0  0  0
   -5.2178   -0.6553   -0.7230 H   0  0  0  0  0  0  0  0  0  0  0  0
   -4.9141   -0.5166    1.0326 H   0  0  0  0  0  0  0  0  0  0  0  0
    1.1623   -1.3792   -0.8581 O   0  0  0  0  0  0  0  0  0  0  0  0
    1.3633   -0.4403   -0.9601 H   0  0  0  0  0  0  0  0  0  0  0  0
  1  6  1  0  0  0  0
  1  7  1  0  0  0  0
  2  1  2  0  0  0  0
  3  4  2  0  0  0  0
  3  2  1  0  0  0  0
  4  5  1  0  0  0  0
  5 10  1  0  0  0  0
  5  6  2  0  0  0  0
  6 13  1  0  0  0  0
  8  2  1  0  0  0  0
  9  4  1  0  0  0  0
 12 11  3  0  0  0  0
 13 14  1  0  0  0  0
 14 15  1  0  0  0  0
 14 17  1  0  0  0  0
 16 14  1  0  0  0  0
 18  3  1  0  0  0  0
 19 18  1  0  0  0  0
M  END
