Coordinates from ORCA-job 4-MeO-Ph-N2-OH-B3LYPG-6-31G_dp-MTMO-d009-169-n800
 OpenBabel09051907473D

 19 18  0  0  0  0  0  0  0  0999 V2000
   -2.0841   -3.0999   -0.1747 C   0  0  0  0  0  0  0  0  0  0  0  0
   -0.7356   -2.8911   -0.4249 C   0  0  0  0  0  0  0  0  0  0  0  0
   -0.2474   -1.5901   -0.6092 C   0  0  0  0  0  0  0  0  0  0  0  0
   -1.1292   -0.5133   -0.5397 C   0  0  0  0  0  0  0  0  0  0  0  0
   -2.4911   -0.7207   -0.2876 C   0  0  0  0  0  0  0  0  0  0  0  0
   -2.9752   -2.0178   -0.1033 C   0  0  0  0  0  0  0  0  0  0  0  0
   -2.4753   -4.1016   -0.0291 H   0  0  0  0  0  0  0  0  0  0  0  0
   -0.0431   -3.7244   -0.4818 H   0  0  0  0  0  0  0  0  0  0  0  0
   -0.7620    0.5013   -0.6828 H   0  0  0  0  0  0  0  0  0  0  0  0
   -3.1514    0.1372   -0.2406 H   0  0  0  0  0  0  0  0  0  0  0  0
   10.3676   11.0041   -1.5800 N   0  0  0  0  0  0  0  0  0  0  0  0
   11.1264   11.8078   -1.5806 N   0  0  0  0  0  0  0  0  0  0  0  0
   -4.2836   -2.3388    0.1485 O   0  0  0  0  0  0  0  0  0  0  0  0
   -5.2215   -1.2819    0.2272 C   0  0  0  0  0  0  0  0  0  0  0  0
   -6.1875   -1.7466    0.4312 H   0  0  0  0  0  0  0  0  0  0  0  0
   -5.2851   -0.7218   -0.7160 H   0  0  0  0  0  0  0  0  0  0  0  0
   -4.9810   -0.5825    1.0394 H   0  0  0  0  0  0  0  0  0  0  0  0
    1.0950   -1.4470   -0.8519 O   0  0  0  0  0  0  0  0  0  0  0  0
    1.2962   -0.5083   -0.9544 H   0  0  0  0  0  0  0  0  0  0  0  0
  1  6  1  0  0  0  0
  1  7  1  0  0  0  0
  2  1  2  0  0  0  0
  3  4  2  0  0  0  0
  3  2  1  0  0  0  0
  4  5  1  0  0  0  0
  5 10  1  0  0  0  0
  5  6  2  0  0  0  0
  6 13  1  0  0  0  0
  8  2  1  0  0  0  0
  9  4  1  0  0  0  0
 12 11  3  0  0  0  0
 13 14  1  0  0  0  0
 14 15  1  0  0  0  0
 14 17  1  0  0  0  0
 16 14  1  0  0  0  0
 18  3  1  0  0  0  0
 19 18  1  0  0  0  0
M  END
