Coordinates from ORCA-job 4-MeO-Ph-N2-OH-B3LYPG-6-31G_dp-MTMO-d009-169-n800
 OpenBabel09051907473D

 19 18  0  0  0  0  0  0  0  0999 V2000
   -1.0852   -2.1418   -0.2569 C   0  0  0  0  0  0  0  0  0  0  0  0
    0.2268   -1.7517   -0.4841 C   0  0  0  0  0  0  0  0  0  0  0  0
    0.5395   -0.3951   -0.6487 C   0  0  0  0  0  0  0  0  0  0  0  0
   -0.4796    0.5535   -0.5833 C   0  0  0  0  0  0  0  0  0  0  0  0
   -1.8050    0.1629   -0.3539 C   0  0  0  0  0  0  0  0  0  0  0  0
   -2.1137   -1.1893   -0.1892 C   0  0  0  0  0  0  0  0  0  0  0  0
   -1.3408   -3.1886   -0.1260 H   0  0  0  0  0  0  0  0  0  0  0  0
    1.0257   -2.4840   -0.5375 H   0  0  0  0  0  0  0  0  0  0  0  0
   -0.2494    1.6094   -0.7124 H   0  0  0  0  0  0  0  0  0  0  0  0
   -2.5750    0.9236   -0.3079 H   0  0  0  0  0  0  0  0  0  0  0  0
    3.5758    3.2615   -0.9859 N   0  0  0  0  0  0  0  0  0  0  0  0
    4.3514    4.0482   -0.9652 N   0  0  0  0  0  0  0  0  0  0  0  0
   -3.3712   -1.6849    0.0399 O   0  0  0  0  0  0  0  0  0  0  0  0
   -4.4428   -0.7639    0.1131 C   0  0  0  0  0  0  0  0  0  0  0  0
   -5.3417   -1.3561    0.2929 H   0  0  0  0  0  0  0  0  0  0  0  0
   -4.5647   -0.2033   -0.8241 H   0  0  0  0  0  0  0  0  0  0  0  0
   -4.3122   -0.0501    0.9381 H   0  0  0  0  0  0  0  0  0  0  0  0
    1.8537   -0.0723   -0.8684 O   0  0  0  0  0  0  0  0  0  0  0  0
    1.9407    0.8865   -0.9509 H   0  0  0  0  0  0  0  0  0  0  0  0
  1  6  1  0  0  0  0
  1  7  1  0  0  0  0
  2  1  2  0  0  0  0
  3  4  2  0  0  0  0
  3  2  1  0  0  0  0
  4  5  1  0  0  0  0
  5 10  1  0  0  0  0
  5  6  2  0  0  0  0
  6 13  1  0  0  0  0
  8  2  1  0  0  0  0
  9  4  1  0  0  0  0
 11 12  3  0  0  0  0
 13 14  1  0  0  0  0
 14 15  1  0  0  0  0
 14 17  1  0  0  0  0
 16 14  1  0  0  0  0
 18  3  1  0  0  0  0
 19 18  1  0  0  0  0
M  END
