Coordinates from ORCA-job 4-MeO-Ph-N2-OH-B3LYPG-6-31G_dp-MTMO-d009-169-n800
 OpenBabel09051907473D

 19 18  0  0  0  0  0  0  0  0999 V2000
   -1.6696   -2.6904   -0.2141 C   0  0  0  0  0  0  0  0  0  0  0  0
   -0.3218   -2.4782   -0.4654 C   0  0  0  0  0  0  0  0  0  0  0  0
    0.1626   -1.1761   -0.6521 C   0  0  0  0  0  0  0  0  0  0  0  0
   -0.7222   -0.1017   -0.5840 C   0  0  0  0  0  0  0  0  0  0  0  0
   -2.0834   -0.3126   -0.3308 C   0  0  0  0  0  0  0  0  0  0  0  0
   -2.5638   -1.6108   -0.1442 C   0  0  0  0  0  0  0  0  0  0  0  0
   -2.0579   -3.6930   -0.0666 H   0  0  0  0  0  0  0  0  0  0  0  0
    0.3730   -3.3097   -0.5213 H   0  0  0  0  0  0  0  0  0  0  0  0
   -0.3581    0.9136   -0.7291 H   0  0  0  0  0  0  0  0  0  0  0  0
   -2.7462    0.5434   -0.2848 H   0  0  0  0  0  0  0  0  0  0  0  0
    6.8895    7.5243   -1.2254 N   0  0  0  0  0  0  0  0  0  0  0  0
    7.6337    8.3415   -1.2206 N   0  0  0  0  0  0  0  0  0  0  0  0
   -3.8711   -1.9351    0.1088 O   0  0  0  0  0  0  0  0  0  0  0  0
   -4.8120   -0.8808    0.1859 C   0  0  0  0  0  0  0  0  0  0  0  0
   -5.7767   -1.3479    0.3908 H   0  0  0  0  0  0  0  0  0  0  0  0
   -4.8774   -0.3224   -0.7582 H   0  0  0  0  0  0  0  0  0  0  0  0
   -4.5734   -0.1793    0.9969 H   0  0  0  0  0  0  0  0  0  0  0  0
    1.5043   -1.0296   -0.8959 O   0  0  0  0  0  0  0  0  0  0  0  0
    1.7027   -0.0905   -1.0002 H   0  0  0  0  0  0  0  0  0  0  0  0
  1  6  1  0  0  0  0
  1  7  1  0  0  0  0
  2  1  2  0  0  0  0
  3  4  2  0  0  0  0
  3  2  1  0  0  0  0
  4  5  1  0  0  0  0
  5 10  1  0  0  0  0
  5  6  2  0  0  0  0
  6 13  1  0  0  0  0
  8  2  1  0  0  0  0
  9  4  1  0  0  0  0
 11 12  3  0  0  0  0
 13 14  1  0  0  0  0
 14 15  1  0  0  0  0
 14 17  1  0  0  0  0
 16 14  1  0  0  0  0
 18  3  1  0  0  0  0
 19 18  1  0  0  0  0
M  END
