Coordinates from ORCA-job 4-MeO-Ph-N2-OH-B3LYPG-6-31G_dp-MTMO-d009-169-n800
 OpenBabel09051907463D

 19 19  0  0  0  0  0  0  0  0999 V2000
   -1.1684   -1.6813   -1.3212 C   0  0  0  0  0  0  0  0  0  0  0  0
    0.1257   -1.2265   -1.5585 C   0  0  0  0  0  0  0  0  0  0  0  0
    0.5002   -0.0051   -1.0233 C   0  0  0  0  0  0  0  0  0  0  0  0
   -0.3555    0.8073   -0.3058 C   0  0  0  0  0  0  0  0  0  0  0  0
   -1.6614    0.3513   -0.0799 C   0  0  0  0  0  0  0  0  0  0  0  0
   -2.0660   -0.8936   -0.5821 C   0  0  0  0  0  0  0  0  0  0  0  0
   -1.5114   -2.6356   -1.7064 H   0  0  0  0  0  0  0  0  0  0  0  0
    0.8264   -1.8094   -2.1466 H   0  0  0  0  0  0  0  0  0  0  0  0
   -0.0307    1.7614    0.0873 H   0  0  0  0  0  0  0  0  0  0  0  0
   -2.3439    0.9737    0.4867 H   0  0  0  0  0  0  0  0  0  0  0  0
    2.1807    0.5143   -1.5672 N   0  0  0  0  0  0  0  0  0  0  0  0
    2.9269    0.9954   -0.7442 N   0  0  0  0  0  0  0  0  0  0  0  0
   -3.3106   -1.4266   -0.4127 O   0  0  0  0  0  0  0  0  0  0  0  0
   -4.2712   -0.6795    0.3163 C   0  0  0  0  0  0  0  0  0  0  0  0
   -5.1810   -1.2819    0.3205 H   0  0  0  0  0  0  0  0  0  0  0  0
   -4.4816    0.2866   -0.1605 H   0  0  0  0  0  0  0  0  0  0  0  0
   -3.9496   -0.5056    1.3512 H   0  0  0  0  0  0  0  0  0  0  0  0
    2.4211    1.1186    0.5863 O   0  0  0  0  0  0  0  0  0  0  0  0
    3.1826    1.5008    1.0498 H   0  0  0  0  0  0  0  0  0  0  0  0
  1  6  1  0  0  0  0
  2  1  2  0  0  0  0
  2  3  1  0  0  0  0
  3  4  2  0  0  0  0
  4  5  1  0  0  0  0
  4  9  1  0  0  0  0
  5 10  1  0  0  0  0
  6 13  1  0  0  0  0
  6  5  2  0  0  0  0
  7  1  1  0  0  0  0
  8  2  1  0  0  0  0
 11  3  1  0  0  0  0
 11 12  2  0  0  0  0
 12 18  1  0  0  0  0
 13 14  1  0  0  0  0
 14 15  1  0  0  0  0
 14 17  1  0  0  0  0
 16 14  1  0  0  0  0
 18 19  1  0  0  0  0
M  END
