Coordinates from ORCA-job 4-MeO-Ph-N2-OH-B3LYPG-6-31G_dp-MTMO-d009-169-n800
 OpenBabel09051907473D

 19 18  0  0  0  0  0  0  0  0999 V2000
   -1.5443   -2.5678   -0.2226 C   0  0  0  0  0  0  0  0  0  0  0  0
   -0.1974   -2.3523   -0.4758 C   0  0  0  0  0  0  0  0  0  0  0  0
    0.2830   -1.0494   -0.6666 C   0  0  0  0  0  0  0  0  0  0  0  0
   -0.6049    0.0226   -0.6007 C   0  0  0  0  0  0  0  0  0  0  0  0
   -1.9652   -0.1915   -0.3457 C   0  0  0  0  0  0  0  0  0  0  0  0
   -2.4416   -1.4906   -0.1549 C   0  0  0  0  0  0  0  0  0  0  0  0
   -1.9295   -3.5711   -0.0719 H   0  0  0  0  0  0  0  0  0  0  0  0
    0.4998   -3.1819   -0.5299 H   0  0  0  0  0  0  0  0  0  0  0  0
   -0.2438    1.0386   -0.7490 H   0  0  0  0  0  0  0  0  0  0  0  0
   -2.6304    0.6627   -0.3015 H   0  0  0  0  0  0  0  0  0  0  0  0
    5.8698    6.4846   -1.1249 N   0  0  0  0  0  0  0  0  0  0  0  0
    6.6013    7.3130   -1.1048 N   0  0  0  0  0  0  0  0  0  0  0  0
   -3.7477   -1.8180    0.1001 O   0  0  0  0  0  0  0  0  0  0  0  0
   -4.6917   -0.7663    0.1750 C   0  0  0  0  0  0  0  0  0  0  0  0
   -5.6549   -1.2357    0.3818 H   0  0  0  0  0  0  0  0  0  0  0  0
   -4.7593   -0.2106   -0.7706 H   0  0  0  0  0  0  0  0  0  0  0  0
   -4.4546   -0.0619    0.9839 H   0  0  0  0  0  0  0  0  0  0  0  0
    1.6241   -0.8996   -0.9121 O   0  0  0  0  0  0  0  0  0  0  0  0
    1.8195    0.0397   -1.0199 H   0  0  0  0  0  0  0  0  0  0  0  0
  1  6  1  0  0  0  0
  1  7  1  0  0  0  0
  2  1  2  0  0  0  0
  3  4  2  0  0  0  0
  3  2  1  0  0  0  0
  4  5  1  0  0  0  0
  5 10  1  0  0  0  0
  5  6  2  0  0  0  0
  6 13  1  0  0  0  0
  8  2  1  0  0  0  0
  9  4  1  0  0  0  0
 11 12  3  0  0  0  0
 13 14  1  0  0  0  0
 14 15  1  0  0  0  0
 14 17  1  0  0  0  0
 16 14  1  0  0  0  0
 18  3  1  0  0  0  0
 19 18  1  0  0  0  0
M  END
