Coordinates from ORCA-job 4-MeO-Ph-N2-OH-B3LYPG-6-31G_dp-MTMO-d009-169-n800
 OpenBabel09051907473D

 19 18  0  0  0  0  0  0  0  0999 V2000
   -1.0711   -2.1328   -0.2589 C   0  0  0  0  0  0  0  0  0  0  0  0
    0.2424   -1.7484   -0.4867 C   0  0  0  0  0  0  0  0  0  0  0  0
    0.5612   -0.3933   -0.6519 C   0  0  0  0  0  0  0  0  0  0  0  0
   -0.4538    0.5597   -0.5864 C   0  0  0  0  0  0  0  0  0  0  0  0
   -1.7808    0.1750   -0.3563 C   0  0  0  0  0  0  0  0  0  0  0  0
   -2.0954   -1.1757   -0.1910 C   0  0  0  0  0  0  0  0  0  0  0  0
   -1.3312   -3.1784   -0.1275 H   0  0  0  0  0  0  0  0  0  0  0  0
    1.0381   -2.4843   -0.5403 H   0  0  0  0  0  0  0  0  0  0  0  0
   -0.2190    1.6145   -0.7159 H   0  0  0  0  0  0  0  0  0  0  0  0
   -2.5475    0.9391   -0.3102 H   0  0  0  0  0  0  0  0  0  0  0  0
    3.4162    3.1542   -0.9687 N   0  0  0  0  0  0  0  0  0  0  0  0
    4.1612    3.9695   -0.9389 N   0  0  0  0  0  0  0  0  0  0  0  0
   -3.3551   -1.6659    0.0386 O   0  0  0  0  0  0  0  0  0  0  0  0
   -4.4227   -0.7403    0.1113 C   0  0  0  0  0  0  0  0  0  0  0  0
   -5.3241   -1.3284    0.2913 H   0  0  0  0  0  0  0  0  0  0  0  0
   -4.5421   -0.1796   -0.8263 H   0  0  0  0  0  0  0  0  0  0  0  0
   -4.2891   -0.0265    0.9358 H   0  0  0  0  0  0  0  0  0  0  0  0
    1.8764   -0.0762   -0.8724 O   0  0  0  0  0  0  0  0  0  0  0  0
    1.9686    0.8822   -0.9558 H   0  0  0  0  0  0  0  0  0  0  0  0
  1  6  1  0  0  0  0
  1  7  1  0  0  0  0
  2  1  2  0  0  0  0
  3  4  2  0  0  0  0
  3  2  1  0  0  0  0
  4  5  1  0  0  0  0
  5 10  1  0  0  0  0
  5  6  2  0  0  0  0
  6 13  1  0  0  0  0
  8  2  1  0  0  0  0
  9  4  1  0  0  0  0
 11 12  3  0  0  0  0
 13 14  1  0  0  0  0
 14 15  1  0  0  0  0
 14 17  1  0  0  0  0
 16 14  1  0  0  0  0
 18  3  1  0  0  0  0
 19 18  1  0  0  0  0
M  END
