Coordinates from ORCA-job 4-MeO-Ph-N2-OH-B3LYPG-6-31G_dp-MTMO-d009-169-n800
 OpenBabel09051907473D

 19 18  0  0  0  0  0  0  0  0999 V2000
   -1.9668   -2.9837   -0.1873 C   0  0  0  0  0  0  0  0  0  0  0  0
   -0.6183   -2.7742   -0.4371 C   0  0  0  0  0  0  0  0  0  0  0  0
   -0.1306   -1.4729   -0.6205 C   0  0  0  0  0  0  0  0  0  0  0  0
   -1.0129   -0.3965   -0.5505 C   0  0  0  0  0  0  0  0  0  0  0  0
   -2.3748   -0.6046   -0.2989 C   0  0  0  0  0  0  0  0  0  0  0  0
   -2.8584   -1.9021   -0.1155 C   0  0  0  0  0  0  0  0  0  0  0  0
   -2.3576   -3.9857   -0.0424 H   0  0  0  0  0  0  0  0  0  0  0  0
    0.0745   -3.6072   -0.4944 H   0  0  0  0  0  0  0  0  0  0  0  0
   -0.6462    0.6183   -0.6930 H   0  0  0  0  0  0  0  0  0  0  0  0
   -3.0356    0.2529   -0.2515 H   0  0  0  0  0  0  0  0  0  0  0  0
    9.3809   10.0131   -1.4772 N   0  0  0  0  0  0  0  0  0  0  0  0
   10.1305   10.8253   -1.4827 N   0  0  0  0  0  0  0  0  0  0  0  0
   -4.1667   -2.2238    0.1358 O   0  0  0  0  0  0  0  0  0  0  0  0
   -5.1051   -1.1674    0.2148 C   0  0  0  0  0  0  0  0  0  0  0  0
   -6.0710   -1.6326    0.4183 H   0  0  0  0  0  0  0  0  0  0  0  0
   -5.1686   -0.6068   -0.7281 H   0  0  0  0  0  0  0  0  0  0  0  0
   -4.8652   -0.4683    1.0275 H   0  0  0  0  0  0  0  0  0  0  0  0
    1.2117   -1.3291   -0.8629 O   0  0  0  0  0  0  0  0  0  0  0  0
    1.4125   -0.3902   -0.9646 H   0  0  0  0  0  0  0  0  0  0  0  0
  1  6  1  0  0  0  0
  1  7  1  0  0  0  0
  2  1  2  0  0  0  0
  3  4  2  0  0  0  0
  3  2  1  0  0  0  0
  4  5  1  0  0  0  0
  5 10  1  0  0  0  0
  5  6  2  0  0  0  0
  6 13  1  0  0  0  0
  8  2  1  0  0  0  0
  9  4  1  0  0  0  0
 12 11  3  0  0  0  0
 13 14  1  0  0  0  0
 14 15  1  0  0  0  0
 14 17  1  0  0  0  0
 16 14  1  0  0  0  0
 18  3  1  0  0  0  0
 19 18  1  0  0  0  0
M  END
