Coordinates from ORCA-job 4-MeO-Ph-N2-OH-B3LYPG-6-31G_dp-MTMO-d009-169-n800
 OpenBabel09051907473D

 19 18  0  0  0  0  0  0  0  0999 V2000
   -1.8111   -2.8299   -0.2025 C   0  0  0  0  0  0  0  0  0  0  0  0
   -0.4628   -2.6191   -0.4525 C   0  0  0  0  0  0  0  0  0  0  0  0
    0.0235   -1.3173   -0.6364 C   0  0  0  0  0  0  0  0  0  0  0  0
   -0.8599   -0.2418   -0.5668 C   0  0  0  0  0  0  0  0  0  0  0  0
   -2.2215   -0.4513   -0.3149 C   0  0  0  0  0  0  0  0  0  0  0  0
   -2.7038   -1.7491   -0.1310 C   0  0  0  0  0  0  0  0  0  0  0  0
   -2.2009   -3.8322   -0.0571 H   0  0  0  0  0  0  0  0  0  0  0  0
    0.2309   -3.4514   -0.5095 H   0  0  0  0  0  0  0  0  0  0  0  0
   -0.4942    0.7733   -0.7097 H   0  0  0  0  0  0  0  0  0  0  0  0
   -2.8832    0.4056   -0.2677 H   0  0  0  0  0  0  0  0  0  0  0  0
    8.0714    8.7073   -1.3452 N   0  0  0  0  0  0  0  0  0  0  0  0
    8.8197    9.5208   -1.3470 N   0  0  0  0  0  0  0  0  0  0  0  0
   -4.0117   -2.0721    0.1206 O   0  0  0  0  0  0  0  0  0  0  0  0
   -4.9512   -1.0166    0.1992 C   0  0  0  0  0  0  0  0  0  0  0  0
   -5.9167   -1.4828    0.4028 H   0  0  0  0  0  0  0  0  0  0  0  0
   -5.0153   -0.4565   -0.7440 H   0  0  0  0  0  0  0  0  0  0  0  0
   -4.7120   -0.3170    1.0116 H   0  0  0  0  0  0  0  0  0  0  0  0
    1.3656   -1.1722   -0.8790 O   0  0  0  0  0  0  0  0  0  0  0  0
    1.5654   -0.2331   -0.9811 H   0  0  0  0  0  0  0  0  0  0  0  0
  1  6  1  0  0  0  0
  1  7  1  0  0  0  0
  2  1  2  0  0  0  0
  3  4  2  0  0  0  0
  3  2  1  0  0  0  0
  4  5  1  0  0  0  0
  5 10  1  0  0  0  0
  5  6  2  0  0  0  0
  6 13  1  0  0  0  0
  8  2  1  0  0  0  0
  9  4  1  0  0  0  0
 12 11  3  0  0  0  0
 13 14  1  0  0  0  0
 14 15  1  0  0  0  0
 14 17  1  0  0  0  0
 16 14  1  0  0  0  0
 18  3  1  0  0  0  0
 19 18  1  0  0  0  0
M  END
