Coordinates from ORCA-job 4-MeO-Ph-N2-OH-B3LYPG-6-31G_dp-MTMO-d009-169-n800
 OpenBabel09051907463D

 19 18  0  0  0  0  0  0  0  0999 V2000
   -0.9534   -1.9475   -0.7151 C   0  0  0  0  0  0  0  0  0  0  0  0
    0.3963   -1.6439   -0.6101 C   0  0  0  0  0  0  0  0  0  0  0  0
    0.8018   -0.3862   -0.1416 C   0  0  0  0  0  0  0  0  0  0  0  0
   -0.1648    0.5523    0.2184 C   0  0  0  0  0  0  0  0  0  0  0  0
   -1.5281    0.2504    0.1091 C   0  0  0  0  0  0  0  0  0  0  0  0
   -1.9289   -1.0033   -0.3584 C   0  0  0  0  0  0  0  0  0  0  0  0
   -1.2806   -2.9171   -1.0759 H   0  0  0  0  0  0  0  0  0  0  0  0
    1.1542   -2.3692   -0.8871 H   0  0  0  0  0  0  0  0  0  0  0  0
    0.1369    1.5286    0.5905 H   0  0  0  0  0  0  0  0  0  0  0  0
   -2.2557    1.0003    0.3955 H   0  0  0  0  0  0  0  0  0  0  0  0
    2.0966    2.4360   -1.5827 N   0  0  0  0  0  0  0  0  0  0  0  0
    2.0069    2.7374   -2.6419 N   0  0  0  0  0  0  0  0  0  0  0  0
   -3.2307   -1.4071   -0.5042 O   0  0  0  0  0  0  0  0  0  0  0  0
   -4.2514   -0.4927   -0.1490 C   0  0  0  0  0  0  0  0  0  0  0  0
   -5.1970   -1.0051   -0.3357 H   0  0  0  0  0  0  0  0  0  0  0  0
   -4.2123    0.4202   -0.7583 H   0  0  0  0  0  0  0  0  0  0  0  0
   -4.1978   -0.2137    0.9121 H   0  0  0  0  0  0  0  0  0  0  0  0
    2.1494   -0.1508   -0.0535 O   0  0  0  0  0  0  0  0  0  0  0  0
    2.2908    0.7758    0.1778 H   0  0  0  0  0  0  0  0  0  0  0  0
  1  2  2  0  0  0  0
  1  6  1  0  0  0  0
  2  3  1  0  0  0  0
  3 18  1  0  0  0  0
  3  4  2  0  0  0  0
  4  9  1  0  0  0  0
  5  4  1  0  0  0  0
  5 10  1  0  0  0  0
  6  5  2  0  0  0  0
  7  1  1  0  0  0  0
  8  2  1  0  0  0  0
 12 11  3  0  0  0  0
 13  6  1  0  0  0  0
 13 14  1  0  0  0  0
 14 17  1  0  0  0  0
 15 14  1  0  0  0  0
 16 14  1  0  0  0  0
 18 19  1  0  0  0  0
M  END
