Coordinates from ORCA-job 4-MeO-Ph-N2-OH-B3LYPG-6-31G_dp-MTMO-d009-169-n800
 OpenBabel09051907463D

 19 18  0  0  0  0  0  0  0  0999 V2000
   -1.0975   -1.6502   -1.0583 C   0  0  0  0  0  0  0  0  0  0  0  0
    0.1667   -1.0996   -1.2919 C   0  0  0  0  0  0  0  0  0  0  0  0
    0.3221    0.2164   -0.9309 C   0  0  0  0  0  0  0  0  0  0  0  0
   -0.6177    1.0376   -0.3747 C   0  0  0  0  0  0  0  0  0  0  0  0
   -1.8855    0.4678   -0.1461 C   0  0  0  0  0  0  0  0  0  0  0  0
   -2.1194   -0.8712   -0.4880 C   0  0  0  0  0  0  0  0  0  0  0  0
   -1.3113   -2.6837   -1.3121 H   0  0  0  0  0  0  0  0  0  0  0  0
    0.9645   -1.6888   -1.7296 H   0  0  0  0  0  0  0  0  0  0  0  0
   -0.4192    2.0719   -0.1176 H   0  0  0  0  0  0  0  0  0  0  0  0
   -2.6646    1.0820    0.2907 H   0  0  0  0  0  0  0  0  0  0  0  0
    2.5379    1.4114   -1.7330 N   0  0  0  0  0  0  0  0  0  0  0  0
    3.3072    1.2201   -0.8694 N   0  0  0  0  0  0  0  0  0  0  0  0
   -3.3095   -1.5161   -0.3080 O   0  0  0  0  0  0  0  0  0  0  0  0
   -4.3881   -0.7914    0.2611 C   0  0  0  0  0  0  0  0  0  0  0  0
   -5.2253   -1.4893    0.3135 H   0  0  0  0  0  0  0  0  0  0  0  0
   -4.6732    0.0670   -0.3610 H   0  0  0  0  0  0  0  0  0  0  0  0
   -4.1504   -0.4380    1.2727 H   0  0  0  0  0  0  0  0  0  0  0  0
    2.8092    0.4315    0.2923 O   0  0  0  0  0  0  0  0  0  0  0  0
    3.5862    0.3870    0.8802 H   0  0  0  0  0  0  0  0  0  0  0  0
  1  6  1  0  0  0  0
  2  1  2  0  0  0  0
  2  3  1  0  0  0  0
  3  4  2  0  0  0  0
  4  5  1  0  0  0  0
  4  9  1  0  0  0  0
  5 10  1  0  0  0  0
  6 13  1  0  0  0  0
  6  5  2  0  0  0  0
  7  1  1  0  0  0  0
  8  2  1  0  0  0  0
 11 12  2  0  0  0  0
 12 18  1  0  0  0  0
 13 14  1  0  0  0  0
 14 15  1  0  0  0  0
 14 17  1  0  0  0  0
 16 14  1  0  0  0  0
 18 19  1  0  0  0  0
M  RAD  2   3   2  11   2
M  END
