Coordinates from ORCA-job 4-MeO-Ph-N2-OH-B3LYPG-6-31G_dp-MTMO-d009-169-n800
 OpenBabel09051907473D

 19 18  0  0  0  0  0  0  0  0999 V2000
   -1.7990   -2.8179   -0.2036 C   0  0  0  0  0  0  0  0  0  0  0  0
   -0.4507   -2.6070   -0.4536 C   0  0  0  0  0  0  0  0  0  0  0  0
    0.0355   -1.3052   -0.6377 C   0  0  0  0  0  0  0  0  0  0  0  0
   -0.8480   -0.2298   -0.5681 C   0  0  0  0  0  0  0  0  0  0  0  0
   -2.2096   -0.4393   -0.3162 C   0  0  0  0  0  0  0  0  0  0  0  0
   -2.6918   -1.7372   -0.1322 C   0  0  0  0  0  0  0  0  0  0  0  0
   -2.1887   -3.8203   -0.0581 H   0  0  0  0  0  0  0  0  0  0  0  0
    0.2430   -3.4392   -0.5106 H   0  0  0  0  0  0  0  0  0  0  0  0
   -0.4825    0.7853   -0.7112 H   0  0  0  0  0  0  0  0  0  0  0  0
   -2.8713    0.4175   -0.2691 H   0  0  0  0  0  0  0  0  0  0  0  0
    7.9697    8.6058   -1.3349 N   0  0  0  0  0  0  0  0  0  0  0  0
    8.7178    9.4194   -1.3363 N   0  0  0  0  0  0  0  0  0  0  0  0
   -3.9996   -2.0603    0.1195 O   0  0  0  0  0  0  0  0  0  0  0  0
   -4.9392   -1.0049    0.1980 C   0  0  0  0  0  0  0  0  0  0  0  0
   -5.9047   -1.4712    0.4017 H   0  0  0  0  0  0  0  0  0  0  0  0
   -5.0034   -0.4448   -0.7452 H   0  0  0  0  0  0  0  0  0  0  0  0
   -4.7001   -0.3052    1.0103 H   0  0  0  0  0  0  0  0  0  0  0  0
    1.3776   -1.1600   -0.8803 O   0  0  0  0  0  0  0  0  0  0  0  0
    1.5773   -0.2209   -0.9826 H   0  0  0  0  0  0  0  0  0  0  0  0
  1  6  1  0  0  0  0
  1  7  1  0  0  0  0
  2  1  2  0  0  0  0
  3  4  2  0  0  0  0
  3  2  1  0  0  0  0
  4  5  1  0  0  0  0
  5 10  1  0  0  0  0
  5  6  2  0  0  0  0
  6 13  1  0  0  0  0
  8  2  1  0  0  0  0
  9  4  1  0  0  0  0
 12 11  3  0  0  0  0
 13 14  1  0  0  0  0
 14 15  1  0  0  0  0
 14 17  1  0  0  0  0
 16 14  1  0  0  0  0
 18  3  1  0  0  0  0
 19 18  1  0  0  0  0
M  END
