Coordinates from ORCA-job 4-MeO-Ph-N2-OH-B3LYPG-6-31G_dp-MTMO-d009-169-n800
 OpenBabel09051907473D

 19 18  0  0  0  0  0  0  0  0999 V2000
   -1.5958   -2.6180   -0.2194 C   0  0  0  0  0  0  0  0  0  0  0  0
   -0.2484   -2.4044   -0.4717 C   0  0  0  0  0  0  0  0  0  0  0  0
    0.2341   -1.1020   -0.6607 C   0  0  0  0  0  0  0  0  0  0  0  0
   -0.6520   -0.0286   -0.5937 C   0  0  0  0  0  0  0  0  0  0  0  0
   -2.0128   -0.2409   -0.3396 C   0  0  0  0  0  0  0  0  0  0  0  0
   -2.4914   -1.5394   -0.1506 C   0  0  0  0  0  0  0  0  0  0  0  0
   -1.9827   -3.6209   -0.0700 H   0  0  0  0  0  0  0  0  0  0  0  0
    0.4474   -3.2350   -0.5266 H   0  0  0  0  0  0  0  0  0  0  0  0
   -0.2893    0.9869   -0.7406 H   0  0  0  0  0  0  0  0  0  0  0  0
   -2.6767    0.6143   -0.2946 H   0  0  0  0  0  0  0  0  0  0  0  0
    6.2827    6.9100   -1.1648 N   0  0  0  0  0  0  0  0  0  0  0  0
    7.0211    7.7324   -1.1529 N   0  0  0  0  0  0  0  0  0  0  0  0
   -3.7981   -1.8651    0.1035 O   0  0  0  0  0  0  0  0  0  0  0  0
   -4.7404   -0.8119    0.1794 C   0  0  0  0  0  0  0  0  0  0  0  0
   -5.7044   -1.2800    0.3854 H   0  0  0  0  0  0  0  0  0  0  0  0
   -4.8069   -0.2550   -0.7655 H   0  0  0  0  0  0  0  0  0  0  0  0
   -4.5024   -0.1089    0.9893 H   0  0  0  0  0  0  0  0  0  0  0  0
    1.5756   -0.9541   -0.9054 O   0  0  0  0  0  0  0  0  0  0  0  0
    1.7726   -0.0149   -1.0117 H   0  0  0  0  0  0  0  0  0  0  0  0
  1  6  1  0  0  0  0
  1  7  1  0  0  0  0
  2  1  2  0  0  0  0
  3  4  2  0  0  0  0
  3  2  1  0  0  0  0
  4  5  1  0  0  0  0
  5 10  1  0  0  0  0
  5  6  2  0  0  0  0
  6 13  1  0  0  0  0
  8  2  1  0  0  0  0
  9  4  1  0  0  0  0
 11 12  3  0  0  0  0
 13 14  1  0  0  0  0
 14 15  1  0  0  0  0
 14 17  1  0  0  0  0
 16 14  1  0  0  0  0
 18  3  1  0  0  0  0
 19 18  1  0  0  0  0
M  END
