Coordinates from ORCA-job 4-MeO-Ph-N2-OH-B3LYPG-6-31G_dp-MTMO-d009-169-n800
 OpenBabel09051907463D

 19 19  0  0  0  0  0  0  0  0999 V2000
   -1.2109   -1.6419   -1.4693 C   0  0  0  0  0  0  0  0  0  0  0  0
    0.1208   -1.2965   -1.5801 C   0  0  0  0  0  0  0  0  0  0  0  0
    0.6800   -0.2004   -0.8705 C   0  0  0  0  0  0  0  0  0  0  0  0
   -0.1943    0.5409   -0.0356 C   0  0  0  0  0  0  0  0  0  0  0  0
   -1.5388    0.1984    0.0772 C   0  0  0  0  0  0  0  0  0  0  0  0
   -2.0578   -0.8934   -0.6337 C   0  0  0  0  0  0  0  0  0  0  0  0
   -1.6272   -2.4832   -2.0130 H   0  0  0  0  0  0  0  0  0  0  0  0
    0.7867   -1.8647   -2.2213 H   0  0  0  0  0  0  0  0  0  0  0  0
    0.1838    1.3846    0.5201 H   0  0  0  0  0  0  0  0  0  0  0  0
   -2.1753    0.7920    0.7228 H   0  0  0  0  0  0  0  0  0  0  0  0
    1.9686   -0.0178   -1.0940 N   0  0  0  0  0  0  0  0  0  0  0  0
    2.7811    0.7974   -0.6543 N   0  0  0  0  0  0  0  0  0  0  0  0
   -3.3503   -1.3040   -0.5840 O   0  0  0  0  0  0  0  0  0  0  0  0
   -4.2593   -0.5953    0.2479 C   0  0  0  0  0  0  0  0  0  0  0  0
   -5.2202   -1.0998    0.1392 H   0  0  0  0  0  0  0  0  0  0  0  0
   -4.3622    0.4504   -0.0674 H   0  0  0  0  0  0  0  0  0  0  0  0
   -3.9501   -0.6269    1.3001 H   0  0  0  0  0  0  0  0  0  0  0  0
    2.2319    1.7554    0.3002 O   0  0  0  0  0  0  0  0  0  0  0  0
    3.0257    2.2694    0.5056 H   0  0  0  0  0  0  0  0  0  0  0  0
  1  6  1  0  0  0  0
  2  1  2  0  0  0  0
  2  3  1  0  0  0  0
  3  4  2  0  0  0  0
  4  5  1  0  0  0  0
  4  9  1  0  0  0  0
  5 10  1  0  0  0  0
  6 13  1  0  0  0  0
  6  5  2  0  0  0  0
  7  1  1  0  0  0  0
  8  2  1  0  0  0  0
 11  3  1  0  0  0  0
 11 12  1  0  0  0  0
 12 18  1  0  0  0  0
 13 14  1  0  0  0  0
 14 17  1  0  0  0  0
 15 14  1  0  0  0  0
 16 14  1  0  0  0  0
 18 19  1  0  0  0  0
M  RAD  2  11   2  12   2
M  END
