Coordinates from ORCA-job 4-MeO-Ph-N2-OH-B3LYPG-6-31G_dp-MTMO-d009-169-n800
 OpenBabel09051907473D

 19 18  0  0  0  0  0  0  0  0999 V2000
   -1.7626   -2.7820   -0.2068 C   0  0  0  0  0  0  0  0  0  0  0  0
   -0.4144   -2.5708   -0.4571 C   0  0  0  0  0  0  0  0  0  0  0  0
    0.0714   -1.2690   -0.6416 C   0  0  0  0  0  0  0  0  0  0  0  0
   -0.8124   -0.1938   -0.5724 C   0  0  0  0  0  0  0  0  0  0  0  0
   -2.1739   -0.4036   -0.3202 C   0  0  0  0  0  0  0  0  0  0  0  0
   -2.6557   -1.7015   -0.1356 C   0  0  0  0  0  0  0  0  0  0  0  0
   -2.1520   -3.7844   -0.0609 H   0  0  0  0  0  0  0  0  0  0  0  0
    0.2795   -3.4029   -0.5138 H   0  0  0  0  0  0  0  0  0  0  0  0
   -0.4471    0.8214   -0.7158 H   0  0  0  0  0  0  0  0  0  0  0  0
   -2.8358    0.4531   -0.2733 H   0  0  0  0  0  0  0  0  0  0  0  0
    7.6643    8.3010   -1.3039 N   0  0  0  0  0  0  0  0  0  0  0  0
    8.4117    9.1152   -1.3041 N   0  0  0  0  0  0  0  0  0  0  0  0
   -3.9634   -2.0249    0.1162 O   0  0  0  0  0  0  0  0  0  0  0  0
   -4.9033   -0.9697    0.1945 C   0  0  0  0  0  0  0  0  0  0  0  0
   -5.8686   -1.4361    0.3984 H   0  0  0  0  0  0  0  0  0  0  0  0
   -4.9677   -0.4099   -0.7489 H   0  0  0  0  0  0  0  0  0  0  0  0
   -4.6643   -0.2696    1.0066 H   0  0  0  0  0  0  0  0  0  0  0  0
    1.4134   -1.1235   -0.8845 O   0  0  0  0  0  0  0  0  0  0  0  0
    1.6129   -0.1844   -0.9872 H   0  0  0  0  0  0  0  0  0  0  0  0
  1  6  1  0  0  0  0
  1  7  1  0  0  0  0
  2  1  2  0  0  0  0
  3  4  2  0  0  0  0
  3  2  1  0  0  0  0
  4  5  1  0  0  0  0
  5 10  1  0  0  0  0
  5  6  2  0  0  0  0
  6 13  1  0  0  0  0
  8  2  1  0  0  0  0
  9  4  1  0  0  0  0
 12 11  3  0  0  0  0
 13 14  1  0  0  0  0
 14 15  1  0  0  0  0
 14 17  1  0  0  0  0
 16 14  1  0  0  0  0
 18  3  1  0  0  0  0
 19 18  1  0  0  0  0
M  END
