Coordinates from ORCA-job 4-MeO-Ph-N2-OH-B3LYPG-6-31G_dp-MTMO-d009-169-n800
 OpenBabel09051907473D

 19 18  0  0  0  0  0  0  0  0999 V2000
   -1.7459   -2.7655   -0.2082 C   0  0  0  0  0  0  0  0  0  0  0  0
   -0.3978   -2.5542   -0.4586 C   0  0  0  0  0  0  0  0  0  0  0  0
    0.0878   -1.2523   -0.6434 C   0  0  0  0  0  0  0  0  0  0  0  0
   -0.7961   -0.1772   -0.5744 C   0  0  0  0  0  0  0  0  0  0  0  0
   -2.1575   -0.3872   -0.3221 C   0  0  0  0  0  0  0  0  0  0  0  0
   -2.6391   -1.6852   -0.1372 C   0  0  0  0  0  0  0  0  0  0  0  0
   -2.1351   -3.7680   -0.0620 H   0  0  0  0  0  0  0  0  0  0  0  0
    0.2963   -3.3862   -0.5152 H   0  0  0  0  0  0  0  0  0  0  0  0
   -0.4309    0.8380   -0.7181 H   0  0  0  0  0  0  0  0  0  0  0  0
   -2.8196    0.4694   -0.2753 H   0  0  0  0  0  0  0  0  0  0  0  0
    7.5245    8.1611   -1.2897 N   0  0  0  0  0  0  0  0  0  0  0  0
    8.2715    8.9757   -1.2892 N   0  0  0  0  0  0  0  0  0  0  0  0
   -3.9468   -2.0086    0.1148 O   0  0  0  0  0  0  0  0  0  0  0  0
   -4.8868   -0.9536    0.1929 C   0  0  0  0  0  0  0  0  0  0  0  0
   -5.8520   -1.4201    0.3970 H   0  0  0  0  0  0  0  0  0  0  0  0
   -4.9514   -0.3940   -0.7506 H   0  0  0  0  0  0  0  0  0  0  0  0
   -4.6479   -0.2533    1.0048 H   0  0  0  0  0  0  0  0  0  0  0  0
    1.4298   -1.1067   -0.8865 O   0  0  0  0  0  0  0  0  0  0  0  0
    1.6291   -0.1676   -0.9894 H   0  0  0  0  0  0  0  0  0  0  0  0
  1  6  1  0  0  0  0
  1  7  1  0  0  0  0
  2  1  2  0  0  0  0
  3  4  2  0  0  0  0
  3  2  1  0  0  0  0
  4  5  1  0  0  0  0
  5 10  1  0  0  0  0
  5  6  2  0  0  0  0
  6 13  1  0  0  0  0
  8  2  1  0  0  0  0
  9  4  1  0  0  0  0
 11 12  3  0  0  0  0
 13 14  1  0  0  0  0
 14 15  1  0  0  0  0
 14 17  1  0  0  0  0
 16 14  1  0  0  0  0
 18  3  1  0  0  0  0
 19 18  1  0  0  0  0
M  END
