Coordinates from ORCA-job 4-MeO-Ph-N2-OH-B3LYPG-6-31G_dp-MTMO-d009-169-n800
 OpenBabel09051907473D

 19 18  0  0  0  0  0  0  0  0999 V2000
   -1.5317   -2.5555   -0.2234 C   0  0  0  0  0  0  0  0  0  0  0  0
   -0.1849   -2.3394   -0.4767 C   0  0  0  0  0  0  0  0  0  0  0  0
    0.2948   -1.0362   -0.6681 C   0  0  0  0  0  0  0  0  0  0  0  0
   -0.5937    0.0353   -0.6024 C   0  0  0  0  0  0  0  0  0  0  0  0
   -1.9539   -0.1795   -0.3472 C   0  0  0  0  0  0  0  0  0  0  0  0
   -2.4295   -1.4788   -0.1559 C   0  0  0  0  0  0  0  0  0  0  0  0
   -1.9163   -3.5590   -0.0722 H   0  0  0  0  0  0  0  0  0  0  0  0
    0.5128   -3.1686   -0.5306 H   0  0  0  0  0  0  0  0  0  0  0  0
   -0.2333    1.0514   -0.7512 H   0  0  0  0  0  0  0  0  0  0  0  0
   -2.6196    0.6743   -0.3032 H   0  0  0  0  0  0  0  0  0  0  0  0
    5.7708    6.3809   -1.1155 N   0  0  0  0  0  0  0  0  0  0  0  0
    6.5000    7.2111   -1.0929 N   0  0  0  0  0  0  0  0  0  0  0  0
   -3.7355   -1.8069    0.0993 O   0  0  0  0  0  0  0  0  0  0  0  0
   -4.6800   -0.7556    0.1739 C   0  0  0  0  0  0  0  0  0  0  0  0
   -5.6430   -1.2255    0.3809 H   0  0  0  0  0  0  0  0  0  0  0  0
   -4.7480   -0.2003   -0.7718 H   0  0  0  0  0  0  0  0  0  0  0  0
   -4.4433   -0.0509    0.9826 H   0  0  0  0  0  0  0  0  0  0  0  0
    1.6357   -0.8858   -0.9137 O   0  0  0  0  0  0  0  0  0  0  0  0
    1.8306    0.0536   -1.0220 H   0  0  0  0  0  0  0  0  0  0  0  0
  1  6  1  0  0  0  0
  1  7  1  0  0  0  0
  2  1  2  0  0  0  0
  3  4  2  0  0  0  0
  3  2  1  0  0  0  0
  4  5  1  0  0  0  0
  5 10  1  0  0  0  0
  5  6  2  0  0  0  0
  6 13  1  0  0  0  0
  8  2  1  0  0  0  0
  9  4  1  0  0  0  0
 11 12  3  0  0  0  0
 13 14  1  0  0  0  0
 14 15  1  0  0  0  0
 14 17  1  0  0  0  0
 16 14  1  0  0  0  0
 18  3  1  0  0  0  0
 19 18  1  0  0  0  0
M  END
