Coordinates from ORCA-job 4-MeO-Ph-N2-OH-B3LYPG-6-31G_dp-MTMO-d009-169-n800
 OpenBabel09051907473D

 19 18  0  0  0  0  0  0  0  0999 V2000
   -1.4832   -2.5089   -0.2257 C   0  0  0  0  0  0  0  0  0  0  0  0
   -0.1372   -2.2889   -0.4800 C   0  0  0  0  0  0  0  0  0  0  0  0
    0.3382   -0.9846   -0.6736 C   0  0  0  0  0  0  0  0  0  0  0  0
   -0.5536    0.0842   -0.6093 C   0  0  0  0  0  0  0  0  0  0  0  0
   -1.9130   -0.1345   -0.3531 C   0  0  0  0  0  0  0  0  0  0  0  0
   -2.3844   -1.4349   -0.1596 C   0  0  0  0  0  0  0  0  0  0  0  0
   -1.8646   -3.5134   -0.0727 H   0  0  0  0  0  0  0  0  0  0  0  0
    0.5630   -3.1160   -0.5329 H   0  0  0  0  0  0  0  0  0  0  0  0
   -0.1965    1.1013   -0.7598 H   0  0  0  0  0  0  0  0  0  0  0  0
   -2.5814    0.7174   -0.3100 H   0  0  0  0  0  0  0  0  0  0  0  0
    5.4056    5.9887   -1.0817 N   0  0  0  0  0  0  0  0  0  0  0  0
    6.1245    6.8275   -1.0475 N   0  0  0  0  0  0  0  0  0  0  0  0
   -3.6892   -1.7668    0.0968 O   0  0  0  0  0  0  0  0  0  0  0  0
   -4.6371   -0.7184    0.1700 C   0  0  0  0  0  0  0  0  0  0  0  0
   -5.5985   -1.1910    0.3779 H   0  0  0  0  0  0  0  0  0  0  0  0
   -4.7070   -0.1647   -0.7765 H   0  0  0  0  0  0  0  0  0  0  0  0
   -4.4025   -0.0117    0.9776 H   0  0  0  0  0  0  0  0  0  0  0  0
    1.6786   -0.8303   -0.9202 O   0  0  0  0  0  0  0  0  0  0  0  0
    1.8705    0.1096   -1.0300 H   0  0  0  0  0  0  0  0  0  0  0  0
  1  6  1  0  0  0  0
  1  7  1  0  0  0  0
  2  1  2  0  0  0  0
  3  4  2  0  0  0  0
  3  2  1  0  0  0  0
  4  5  1  0  0  0  0
  5 10  1  0  0  0  0
  5  6  2  0  0  0  0
  6 13  1  0  0  0  0
  8  2  1  0  0  0  0
  9  4  1  0  0  0  0
 11 12  3  0  0  0  0
 13 14  1  0  0  0  0
 14 15  1  0  0  0  0
 14 17  1  0  0  0  0
 16 14  1  0  0  0  0
 18  3  1  0  0  0  0
 19 18  1  0  0  0  0
M  END
