Coordinates from ORCA-job 4-MeO-Ph-N2-OH-B3LYPG-6-31G_dp-MTMO-d009-169-n800
 OpenBabel09051907473D

 19 18  0  0  0  0  0  0  0  0999 V2000
   -1.9366   -2.9539   -0.1904 C   0  0  0  0  0  0  0  0  0  0  0  0
   -0.5882   -2.7441   -0.4402 C   0  0  0  0  0  0  0  0  0  0  0  0
   -0.1007   -1.4427   -0.6235 C   0  0  0  0  0  0  0  0  0  0  0  0
   -0.9832   -0.3665   -0.5535 C   0  0  0  0  0  0  0  0  0  0  0  0
   -2.3450   -0.5749   -0.3019 C   0  0  0  0  0  0  0  0  0  0  0  0
   -2.8284   -1.8724   -0.1186 C   0  0  0  0  0  0  0  0  0  0  0  0
   -2.3273   -3.9560   -0.0455 H   0  0  0  0  0  0  0  0  0  0  0  0
    0.1048   -3.5770   -0.4975 H   0  0  0  0  0  0  0  0  0  0  0  0
   -0.6166    0.6484   -0.6960 H   0  0  0  0  0  0  0  0  0  0  0  0
   -3.0059    0.2825   -0.2545 H   0  0  0  0  0  0  0  0  0  0  0  0
    9.1267    9.7598   -1.4517 N   0  0  0  0  0  0  0  0  0  0  0  0
    9.8761   10.5722   -1.4565 N   0  0  0  0  0  0  0  0  0  0  0  0
   -4.1366   -2.1944    0.1327 O   0  0  0  0  0  0  0  0  0  0  0  0
   -5.0752   -1.1381    0.2117 C   0  0  0  0  0  0  0  0  0  0  0  0
   -6.0411   -1.6035    0.4151 H   0  0  0  0  0  0  0  0  0  0  0  0
   -5.1388   -0.5775   -0.7312 H   0  0  0  0  0  0  0  0  0  0  0  0
   -4.8355   -0.4390    1.0244 H   0  0  0  0  0  0  0  0  0  0  0  0
    1.2416   -1.2987   -0.8658 O   0  0  0  0  0  0  0  0  0  0  0  0
    1.4422   -0.3597   -0.9676 H   0  0  0  0  0  0  0  0  0  0  0  0
  1  6  1  0  0  0  0
  1  7  1  0  0  0  0
  2  1  2  0  0  0  0
  3  4  2  0  0  0  0
  3  2  1  0  0  0  0
  4  5  1  0  0  0  0
  5 10  1  0  0  0  0
  5  6  2  0  0  0  0
  6 13  1  0  0  0  0
  8  2  1  0  0  0  0
  9  4  1  0  0  0  0
 12 11  3  0  0  0  0
 13 14  1  0  0  0  0
 14 15  1  0  0  0  0
 14 17  1  0  0  0  0
 16 14  1  0  0  0  0
 18  3  1  0  0  0  0
 19 18  1  0  0  0  0
M  END
