Coordinates from ORCA-job 4-MeO-Ph-N2-OH-B3LYPG-6-31G_dp-MTMO-d009-169-n800
 OpenBabel09051907473D

 19 18  0  0  0  0  0  0  0  0999 V2000
   -1.6543   -2.6754   -0.2153 C   0  0  0  0  0  0  0  0  0  0  0  0
   -0.3066   -2.4629   -0.4667 C   0  0  0  0  0  0  0  0  0  0  0  0
    0.1775   -1.1608   -0.6539 C   0  0  0  0  0  0  0  0  0  0  0  0
   -0.7075   -0.0866   -0.5860 C   0  0  0  0  0  0  0  0  0  0  0  0
   -2.0686   -0.2977   -0.3326 C   0  0  0  0  0  0  0  0  0  0  0  0
   -2.5487   -1.5959   -0.1455 C   0  0  0  0  0  0  0  0  0  0  0  0
   -2.0424   -3.6780   -0.0674 H   0  0  0  0  0  0  0  0  0  0  0  0
    0.3884   -3.2943   -0.5224 H   0  0  0  0  0  0  0  0  0  0  0  0
   -0.3436    0.9288   -0.7314 H   0  0  0  0  0  0  0  0  0  0  0  0
   -2.7316    0.5582   -0.2868 H   0  0  0  0  0  0  0  0  0  0  0  0
    6.7628    7.3966   -1.2126 N   0  0  0  0  0  0  0  0  0  0  0  0
    7.5061    8.2146   -1.2067 N   0  0  0  0  0  0  0  0  0  0  0  0
   -3.8559   -1.9204    0.1076 O   0  0  0  0  0  0  0  0  0  0  0  0
   -4.7971   -0.8663    0.1846 C   0  0  0  0  0  0  0  0  0  0  0  0
   -5.7617   -1.3336    0.3897 H   0  0  0  0  0  0  0  0  0  0  0  0
   -4.8626   -0.3082   -0.7597 H   0  0  0  0  0  0  0  0  0  0  0  0
   -4.5586   -0.1646    0.9953 H   0  0  0  0  0  0  0  0  0  0  0  0
    1.5192   -1.0141   -0.8978 O   0  0  0  0  0  0  0  0  0  0  0  0
    1.7174   -0.0749   -1.0026 H   0  0  0  0  0  0  0  0  0  0  0  0
  1  6  1  0  0  0  0
  1  7  1  0  0  0  0
  2  1  2  0  0  0  0
  3  4  2  0  0  0  0
  3  2  1  0  0  0  0
  4  5  1  0  0  0  0
  5 10  1  0  0  0  0
  5  6  2  0  0  0  0
  6 13  1  0  0  0  0
  8  2  1  0  0  0  0
  9  4  1  0  0  0  0
 11 12  3  0  0  0  0
 13 14  1  0  0  0  0
 14 15  1  0  0  0  0
 14 17  1  0  0  0  0
 16 14  1  0  0  0  0
 18  3  1  0  0  0  0
 19 18  1  0  0  0  0
M  END
