Coordinates from ORCA-job 4-MeO-Ph-N2-OH-B3LYPG-6-31G_dp-MTMO-d009-169-n800
 OpenBabel09051907473D

 19 18  0  0  0  0  0  0  0  0999 V2000
   -1.5364   -2.5601   -0.2231 C   0  0  0  0  0  0  0  0  0  0  0  0
   -0.1896   -2.3443   -0.4764 C   0  0  0  0  0  0  0  0  0  0  0  0
    0.2904   -1.0412   -0.6675 C   0  0  0  0  0  0  0  0  0  0  0  0
   -0.5979    0.0305   -0.6018 C   0  0  0  0  0  0  0  0  0  0  0  0
   -1.9581   -0.1840   -0.3467 C   0  0  0  0  0  0  0  0  0  0  0  0
   -2.4341   -1.4832   -0.1556 C   0  0  0  0  0  0  0  0  0  0  0  0
   -1.9213   -3.5635   -0.0721 H   0  0  0  0  0  0  0  0  0  0  0  0
    0.5079   -3.1736   -0.5304 H   0  0  0  0  0  0  0  0  0  0  0  0
   -0.2372    1.0466   -0.7504 H   0  0  0  0  0  0  0  0  0  0  0  0
   -2.6236    0.6700   -0.3026 H   0  0  0  0  0  0  0  0  0  0  0  0
    5.8079    6.4198   -1.1190 N   0  0  0  0  0  0  0  0  0  0  0  0
    6.5380    7.2493   -1.0974 N   0  0  0  0  0  0  0  0  0  0  0  0
   -3.7401   -1.8110    0.0996 O   0  0  0  0  0  0  0  0  0  0  0  0
   -4.6844   -0.7596    0.1743 C   0  0  0  0  0  0  0  0  0  0  0  0
   -5.6474   -1.2293    0.3812 H   0  0  0  0  0  0  0  0  0  0  0  0
   -4.7522   -0.2042   -0.7714 H   0  0  0  0  0  0  0  0  0  0  0  0
   -4.4475   -0.0550    0.9831 H   0  0  0  0  0  0  0  0  0  0  0  0
    1.6314   -0.8910   -0.9131 O   0  0  0  0  0  0  0  0  0  0  0  0
    1.8265    0.0484   -1.0212 H   0  0  0  0  0  0  0  0  0  0  0  0
  1  6  1  0  0  0  0
  1  7  1  0  0  0  0
  2  1  2  0  0  0  0
  3  4  2  0  0  0  0
  3  2  1  0  0  0  0
  4  5  1  0  0  0  0
  5 10  1  0  0  0  0
  5  6  2  0  0  0  0
  6 13  1  0  0  0  0
  8  2  1  0  0  0  0
  9  4  1  0  0  0  0
 11 12  3  0  0  0  0
 13 14  1  0  0  0  0
 14 15  1  0  0  0  0
 14 17  1  0  0  0  0
 16 14  1  0  0  0  0
 18  3  1  0  0  0  0
 19 18  1  0  0  0  0
M  END
