Coordinates from ORCA-job 4-MeO-Ph-N2-OH-B3LYPG-6-31G_dp-MTMO-d009-169-n800
 OpenBabel09051907473D

 19 18  0  0  0  0  0  0  0  0999 V2000
   -1.3402   -2.3764   -0.2215 C   0  0  0  0  0  0  0  0  0  0  0  0
   -0.0013   -2.1229   -0.4824 C   0  0  0  0  0  0  0  0  0  0  0  0
    0.4381   -0.8084   -0.6921 C   0  0  0  0  0  0  0  0  0  0  0  0
   -0.4823    0.2365   -0.6371 C   0  0  0  0  0  0  0  0  0  0  0  0
   -1.8344   -0.0161   -0.3741 C   0  0  0  0  0  0  0  0  0  0  0  0
   -2.2700   -1.3265   -0.1646 C   0  0  0  0  0  0  0  0  0  0  0  0
   -1.6936   -3.3891   -0.0558 H   0  0  0  0  0  0  0  0  0  0  0  0
    0.7210   -2.9313   -0.5280 H   0  0  0  0  0  0  0  0  0  0  0  0
   -0.1533    1.2610   -0.8004 H   0  0  0  0  0  0  0  0  0  0  0  0
   -2.5254    0.8178   -0.3381 H   0  0  0  0  0  0  0  0  0  0  0  0
    4.5612    4.9238   -0.9998 N   0  0  0  0  0  0  0  0  0  0  0  0
    5.2447    5.7888   -0.9223 N   0  0  0  0  0  0  0  0  0  0  0  0
   -3.5646   -1.6906    0.0993 O   0  0  0  0  0  0  0  0  0  0  0  0
   -4.5406   -0.6678    0.1628 C   0  0  0  0  0  0  0  0  0  0  0  0
   -5.4886   -1.1642    0.3767 H   0  0  0  0  0  0  0  0  0  0  0  0
   -4.6265   -0.1261   -0.7894 H   0  0  0  0  0  0  0  0  0  0  0  0
   -4.3246    0.0535    0.9627 H   0  0  0  0  0  0  0  0  0  0  0  0
    1.7730   -0.6206   -0.9444 O   0  0  0  0  0  0  0  0  0  0  0  0
    1.9398    0.3232   -1.0616 H   0  0  0  0  0  0  0  0  0  0  0  0
  1  6  1  0  0  0  0
  1  7  1  0  0  0  0
  2  1  2  0  0  0  0
  3  4  2  0  0  0  0
  3  2  1  0  0  0  0
  4  5  1  0  0  0  0
  5 10  1  0  0  0  0
  5  6  2  0  0  0  0
  6 13  1  0  0  0  0
  8  2  1  0  0  0  0
  9  4  1  0  0  0  0
 11 12  3  0  0  0  0
 13 14  1  0  0  0  0
 14 15  1  0  0  0  0
 14 17  1  0  0  0  0
 16 14  1  0  0  0  0
 18  3  1  0  0  0  0
 19 18  1  0  0  0  0
M  END
