Coordinates from ORCA-job 4-MeO-Ph-N2-OH-B3LYPG-6-31G_dp-MTMO-d009-169-n800
 OpenBabel09051907473D

 19 18  0  0  0  0  0  0  0  0999 V2000
   -1.0627   -2.1286   -0.2615 C   0  0  0  0  0  0  0  0  0  0  0  0
    0.2530   -1.7511   -0.4889 C   0  0  0  0  0  0  0  0  0  0  0  0
    0.5793   -0.3975   -0.6529 C   0  0  0  0  0  0  0  0  0  0  0  0
   -0.4308    0.5608   -0.5866 C   0  0  0  0  0  0  0  0  0  0  0  0
   -1.7598    0.1830   -0.3569 C   0  0  0  0  0  0  0  0  0  0  0  0
   -2.0818   -1.1661   -0.1929 C   0  0  0  0  0  0  0  0  0  0  0  0
   -1.3284   -3.1729   -0.1312 H   0  0  0  0  0  0  0  0  0  0  0  0
    1.0446   -2.4912   -0.5431 H   0  0  0  0  0  0  0  0  0  0  0  0
   -0.1902    1.6144   -0.7150 H   0  0  0  0  0  0  0  0  0  0  0  0
   -2.5224    0.9512   -0.3103 H   0  0  0  0  0  0  0  0  0  0  0  0
    3.2903    3.0856   -0.9589 N   0  0  0  0  0  0  0  0  0  0  0  0
    4.0066    3.9259   -0.9231 N   0  0  0  0  0  0  0  0  0  0  0  0
   -3.3442   -1.6497    0.0361 O   0  0  0  0  0  0  0  0  0  0  0  0
   -4.4068   -0.7184    0.1090 C   0  0  0  0  0  0  0  0  0  0  0  0
   -5.3115   -1.3018    0.2884 H   0  0  0  0  0  0  0  0  0  0  0  0
   -4.5229   -0.1566   -0.8283 H   0  0  0  0  0  0  0  0  0  0  0  0
   -4.2697   -0.0059    0.9340 H   0  0  0  0  0  0  0  0  0  0  0  0
    1.8959   -0.0872   -0.8731 O   0  0  0  0  0  0  0  0  0  0  0  0
    1.9935    0.8708   -0.9550 H   0  0  0  0  0  0  0  0  0  0  0  0
  1  6  1  0  0  0  0
  1  7  1  0  0  0  0
  2  1  2  0  0  0  0
  3  4  2  0  0  0  0
  3  2  1  0  0  0  0
  4  5  1  0  0  0  0
  5 10  1  0  0  0  0
  5  6  2  0  0  0  0
  6 13  1  0  0  0  0
  8  2  1  0  0  0  0
  9  4  1  0  0  0  0
 11 12  3  0  0  0  0
 13 14  1  0  0  0  0
 14 15  1  0  0  0  0
 14 17  1  0  0  0  0
 16 14  1  0  0  0  0
 18  3  1  0  0  0  0
 19 18  1  0  0  0  0
M  END
