Coordinates from ORCA-job 4-MeO-Ph-N2-OH-B3LYPG-6-31G_dp-MTMO-d009-169-n800
 OpenBabel09051907473D

 19 18  0  0  0  0  0  0  0  0999 V2000
   -1.3360   -2.3726   -0.2210 C   0  0  0  0  0  0  0  0  0  0  0  0
    0.0025   -2.1175   -0.4822 C   0  0  0  0  0  0  0  0  0  0  0  0
    0.4402   -0.8025   -0.6928 C   0  0  0  0  0  0  0  0  0  0  0  0
   -0.4816    0.2412   -0.6382 C   0  0  0  0  0  0  0  0  0  0  0  0
   -1.8334   -0.0130   -0.3748 C   0  0  0  0  0  0  0  0  0  0  0  0
   -2.2672   -1.3239   -0.1646 C   0  0  0  0  0  0  0  0  0  0  0  0
   -1.6880   -3.3856   -0.0547 H   0  0  0  0  0  0  0  0  0  0  0  0
    0.7259   -2.9249   -0.5275 H   0  0  0  0  0  0  0  0  0  0  0  0
   -0.1540    1.2661   -0.8021 H   0  0  0  0  0  0  0  0  0  0  0  0
   -2.5254    0.8200   -0.3392 H   0  0  0  0  0  0  0  0  0  0  0  0
    4.5428    4.8951   -0.9977 N   0  0  0  0  0  0  0  0  0  0  0  0
    5.2258    5.7605   -0.9190 N   0  0  0  0  0  0  0  0  0  0  0  0
   -3.5613   -1.6896    0.0997 O   0  0  0  0  0  0  0  0  0  0  0  0
   -4.5386   -0.6680    0.1627 C   0  0  0  0  0  0  0  0  0  0  0  0
   -5.4859   -1.1655    0.3769 H   0  0  0  0  0  0  0  0  0  0  0  0
   -4.6253   -0.1269   -0.7897 H   0  0  0  0  0  0  0  0  0  0  0  0
   -4.3235    0.0540    0.9622 H   0  0  0  0  0  0  0  0  0  0  0  0
    1.7748   -0.6131   -0.9453 O   0  0  0  0  0  0  0  0  0  0  0  0
    1.9403    0.3309   -1.0629 H   0  0  0  0  0  0  0  0  0  0  0  0
  1  6  1  0  0  0  0
  1  7  1  0  0  0  0
  2  1  2  0  0  0  0
  3  4  2  0  0  0  0
  3  2  1  0  0  0  0
  4  5  1  0  0  0  0
  5 10  1  0  0  0  0
  5  6  2  0  0  0  0
  6 13  1  0  0  0  0
  8  2  1  0  0  0  0
  9  4  1  0  0  0  0
 11 12  3  0  0  0  0
 13 14  1  0  0  0  0
 14 15  1  0  0  0  0
 14 17  1  0  0  0  0
 16 14  1  0  0  0  0
 18  3  1  0  0  0  0
 19 18  1  0  0  0  0
M  END
