Coordinates from ORCA-job 4-MeO-Ph-N2-OH-B3LYPG-6-31G_dp-MTMO-d009-169-n800
 OpenBabel09051907473D

 19 18  0  0  0  0  0  0  0  0999 V2000
   -1.7504   -2.7700   -0.2078 C   0  0  0  0  0  0  0  0  0  0  0  0
   -0.4023   -2.5587   -0.4582 C   0  0  0  0  0  0  0  0  0  0  0  0
    0.0834   -1.2569   -0.6429 C   0  0  0  0  0  0  0  0  0  0  0  0
   -0.8005   -0.1817   -0.5738 C   0  0  0  0  0  0  0  0  0  0  0  0
   -2.1620   -0.3916   -0.3216 C   0  0  0  0  0  0  0  0  0  0  0  0
   -2.6436   -1.6896   -0.1368 C   0  0  0  0  0  0  0  0  0  0  0  0
   -2.1398   -3.7725   -0.0617 H   0  0  0  0  0  0  0  0  0  0  0  0
    0.2917   -3.3908   -0.5148 H   0  0  0  0  0  0  0  0  0  0  0  0
   -0.4353    0.8334   -0.7174 H   0  0  0  0  0  0  0  0  0  0  0  0
   -2.8240    0.4649   -0.2747 H   0  0  0  0  0  0  0  0  0  0  0  0
    7.5626    8.1993   -1.2936 N   0  0  0  0  0  0  0  0  0  0  0  0
    8.3097    9.0138   -1.2933 N   0  0  0  0  0  0  0  0  0  0  0  0
   -3.9514   -2.0131    0.1152 O   0  0  0  0  0  0  0  0  0  0  0  0
   -4.8913   -0.9580    0.1933 C   0  0  0  0  0  0  0  0  0  0  0  0
   -5.8565   -1.4244    0.3974 H   0  0  0  0  0  0  0  0  0  0  0  0
   -4.9558   -0.3983   -0.7501 H   0  0  0  0  0  0  0  0  0  0  0  0
   -4.6523   -0.2577    1.0053 H   0  0  0  0  0  0  0  0  0  0  0  0
    1.4254   -1.1113   -0.8859 O   0  0  0  0  0  0  0  0  0  0  0  0
    1.6247   -0.1722   -0.9888 H   0  0  0  0  0  0  0  0  0  0  0  0
  1  6  1  0  0  0  0
  1  7  1  0  0  0  0
  2  1  2  0  0  0  0
  3  4  2  0  0  0  0
  3  2  1  0  0  0  0
  4  5  1  0  0  0  0
  5 10  1  0  0  0  0
  5  6  2  0  0  0  0
  6 13  1  0  0  0  0
  8  2  1  0  0  0  0
  9  4  1  0  0  0  0
 11 12  3  0  0  0  0
 13 14  1  0  0  0  0
 14 15  1  0  0  0  0
 14 17  1  0  0  0  0
 16 14  1  0  0  0  0
 18  3  1  0  0  0  0
 19 18  1  0  0  0  0
M  END
