Coordinates from ORCA-job 4-MeO-Ph-N2-OH-B3LYPG-6-31G_dp-MTMO-d009-169-n800
 OpenBabel09051907473D

 19 18  0  0  0  0  0  0  0  0999 V2000
   -1.7641   -2.7835   -0.2066 C   0  0  0  0  0  0  0  0  0  0  0  0
   -0.4160   -2.5723   -0.4569 C   0  0  0  0  0  0  0  0  0  0  0  0
    0.0699   -1.2705   -0.6414 C   0  0  0  0  0  0  0  0  0  0  0  0
   -0.8138   -0.1953   -0.5722 C   0  0  0  0  0  0  0  0  0  0  0  0
   -2.1754   -0.4051   -0.3200 C   0  0  0  0  0  0  0  0  0  0  0  0
   -2.6572   -1.7030   -0.1355 C   0  0  0  0  0  0  0  0  0  0  0  0
   -2.1535   -3.7859   -0.0608 H   0  0  0  0  0  0  0  0  0  0  0  0
    0.2780   -3.4044   -0.5137 H   0  0  0  0  0  0  0  0  0  0  0  0
   -0.4486    0.8199   -0.7156 H   0  0  0  0  0  0  0  0  0  0  0  0
   -2.8373    0.4516   -0.2731 H   0  0  0  0  0  0  0  0  0  0  0  0
    7.6770    8.3137   -1.3052 N   0  0  0  0  0  0  0  0  0  0  0  0
    8.4245    9.1279   -1.3054 N   0  0  0  0  0  0  0  0  0  0  0  0
   -3.9649   -2.0263    0.1164 O   0  0  0  0  0  0  0  0  0  0  0  0
   -4.9048   -0.9711    0.1946 C   0  0  0  0  0  0  0  0  0  0  0  0
   -5.8701   -1.4375    0.3985 H   0  0  0  0  0  0  0  0  0  0  0  0
   -4.9692   -0.4114   -0.7487 H   0  0  0  0  0  0  0  0  0  0  0  0
   -4.6658   -0.2711    1.0067 H   0  0  0  0  0  0  0  0  0  0  0  0
    1.4119   -1.1251   -0.8843 O   0  0  0  0  0  0  0  0  0  0  0  0
    1.6114   -0.1860   -0.9870 H   0  0  0  0  0  0  0  0  0  0  0  0
  1  6  1  0  0  0  0
  1  7  1  0  0  0  0
  2  1  2  0  0  0  0
  3  4  2  0  0  0  0
  3  2  1  0  0  0  0
  4  5  1  0  0  0  0
  5 10  1  0  0  0  0
  5  6  2  0  0  0  0
  6 13  1  0  0  0  0
  8  2  1  0  0  0  0
  9  4  1  0  0  0  0
 12 11  3  0  0  0  0
 13 14  1  0  0  0  0
 14 15  1  0  0  0  0
 14 17  1  0  0  0  0
 16 14  1  0  0  0  0
 18  3  1  0  0  0  0
 19 18  1  0  0  0  0
M  END
