Coordinates from ORCA-job 4-MeO-Ph-N2-OH-B3LYPG-6-31G_dp-MTMO-d009-169-n800
 OpenBabel09051907473D

 19 18  0  0  0  0  0  0  0  0999 V2000
   -1.7550   -2.7745   -0.2074 C   0  0  0  0  0  0  0  0  0  0  0  0
   -0.4069   -2.5633   -0.4578 C   0  0  0  0  0  0  0  0  0  0  0  0
    0.0789   -1.2614   -0.6424 C   0  0  0  0  0  0  0  0  0  0  0  0
   -0.8049   -0.1862   -0.5733 C   0  0  0  0  0  0  0  0  0  0  0  0
   -2.1664   -0.3961   -0.3210 C   0  0  0  0  0  0  0  0  0  0  0  0
   -2.6481   -1.6941   -0.1363 C   0  0  0  0  0  0  0  0  0  0  0  0
   -2.1444   -3.7769   -0.0614 H   0  0  0  0  0  0  0  0  0  0  0  0
    0.2871   -3.3953   -0.5145 H   0  0  0  0  0  0  0  0  0  0  0  0
   -0.4397    0.8289   -0.7168 H   0  0  0  0  0  0  0  0  0  0  0  0
   -2.8284    0.4605   -0.2742 H   0  0  0  0  0  0  0  0  0  0  0  0
    7.6007    8.2374   -1.2975 N   0  0  0  0  0  0  0  0  0  0  0  0
    8.3480    9.0518   -1.2973 N   0  0  0  0  0  0  0  0  0  0  0  0
   -3.9559   -2.0175    0.1156 O   0  0  0  0  0  0  0  0  0  0  0  0
   -4.8958   -0.9623    0.1938 C   0  0  0  0  0  0  0  0  0  0  0  0
   -5.8611   -1.4288    0.3978 H   0  0  0  0  0  0  0  0  0  0  0  0
   -4.9603   -0.4027   -0.7496 H   0  0  0  0  0  0  0  0  0  0  0  0
   -4.6568   -0.2622    1.0058 H   0  0  0  0  0  0  0  0  0  0  0  0
    1.4209   -1.1159   -0.8854 O   0  0  0  0  0  0  0  0  0  0  0  0
    1.6203   -0.1768   -0.9881 H   0  0  0  0  0  0  0  0  0  0  0  0
  1  6  1  0  0  0  0
  1  7  1  0  0  0  0
  2  1  2  0  0  0  0
  3  4  2  0  0  0  0
  3  2  1  0  0  0  0
  4  5  1  0  0  0  0
  5 10  1  0  0  0  0
  5  6  2  0  0  0  0
  6 13  1  0  0  0  0
  8  2  1  0  0  0  0
  9  4  1  0  0  0  0
 11 12  3  0  0  0  0
 13 14  1  0  0  0  0
 14 15  1  0  0  0  0
 14 17  1  0  0  0  0
 16 14  1  0  0  0  0
 18  3  1  0  0  0  0
 19 18  1  0  0  0  0
M  END
