Coordinates from ORCA-job 4-MeO-Ph-N2-OH-B3LYPG-6-31G_dp-MTMO-d009-169-n800
 OpenBabel09051907463D

 19 18  0  0  0  0  0  0  0  0999 V2000
   -0.8730   -1.7967   -0.8557 C   0  0  0  0  0  0  0  0  0  0  0  0
    0.4694   -1.4973   -0.6731 C   0  0  0  0  0  0  0  0  0  0  0  0
    0.8460   -0.3060   -0.0372 C   0  0  0  0  0  0  0  0  0  0  0  0
   -0.1417    0.5715    0.4087 C   0  0  0  0  0  0  0  0  0  0  0  0
   -1.4975    0.2747    0.2216 C   0  0  0  0  0  0  0  0  0  0  0  0
   -1.8696   -0.9136   -0.4115 C   0  0  0  0  0  0  0  0  0  0  0  0
   -1.1781   -2.7161   -1.3447 H   0  0  0  0  0  0  0  0  0  0  0  0
    1.2435   -2.1757   -1.0159 H   0  0  0  0  0  0  0  0  0  0  0  0
    0.1380    1.4968    0.9072 H   0  0  0  0  0  0  0  0  0  0  0  0
   -2.2419    0.9771    0.5767 H   0  0  0  0  0  0  0  0  0  0  0  0
    1.7140    2.0396   -1.7699 N   0  0  0  0  0  0  0  0  0  0  0  0
    1.5650    1.9627   -2.8623 N   0  0  0  0  0  0  0  0  0  0  0  0
   -3.1615   -1.3067   -0.6450 O   0  0  0  0  0  0  0  0  0  0  0  0
   -4.2033   -0.4551   -0.2045 C   0  0  0  0  0  0  0  0  0  0  0  0
   -5.1367   -0.9504   -0.4779 H   0  0  0  0  0  0  0  0  0  0  0  0
   -4.1626    0.5267   -0.6946 H   0  0  0  0  0  0  0  0  0  0  0  0
   -4.1785   -0.3103    0.8843 H   0  0  0  0  0  0  0  0  0  0  0  0
    2.1876   -0.0783    0.1285 O   0  0  0  0  0  0  0  0  0  0  0  0
    2.3131    0.8215    0.4551 H   0  0  0  0  0  0  0  0  0  0  0  0
  1  2  2  0  0  0  0
  1  6  1  0  0  0  0
  2  3  1  0  0  0  0
  3 18  1  0  0  0  0
  3  4  2  0  0  0  0
  4  9  1  0  0  0  0
  5  4  1  0  0  0  0
  5 10  1  0  0  0  0
  6  5  2  0  0  0  0
  7  1  1  0  0  0  0
  8  2  1  0  0  0  0
 12 11  3  0  0  0  0
 13  6  1  0  0  0  0
 13 14  1  0  0  0  0
 14 17  1  0  0  0  0
 15 14  1  0  0  0  0
 16 14  1  0  0  0  0
 18 19  1  0  0  0  0
M  END
