Coordinates from ORCA-job 4-MeO-Ph-N2-OH-B3LYPG-6-31G_dp-MTMO-d009-169-n800
 OpenBabel09051907473D

 19 18  0  0  0  0  0  0  0  0999 V2000
   -1.0387   -2.1240   -0.2262 C   0  0  0  0  0  0  0  0  0  0  0  0
    0.2802   -1.7905   -0.4982 C   0  0  0  0  0  0  0  0  0  0  0  0
    0.6362   -0.4548   -0.7332 C   0  0  0  0  0  0  0  0  0  0  0  0
   -0.3495    0.5304   -0.6917 C   0  0  0  0  0  0  0  0  0  0  0  0
   -1.6817    0.1970   -0.4166 C   0  0  0  0  0  0  0  0  0  0  0  0
   -2.0328   -1.1343   -0.1825 C   0  0  0  0  0  0  0  0  0  0  0  0
   -1.3264   -3.1541   -0.0409 H   0  0  0  0  0  0  0  0  0  0  0  0
    1.0524   -2.5521   -0.5332 H   0  0  0  0  0  0  0  0  0  0  0  0
   -0.0876    1.5701   -0.8761 H   0  0  0  0  0  0  0  0  0  0  0  0
   -2.4242    0.9858   -0.3910 H   0  0  0  0  0  0  0  0  0  0  0  0
    2.8924    2.9480   -0.8271 N   0  0  0  0  0  0  0  0  0  0  0  0
    3.4129    3.8928   -0.5893 N   0  0  0  0  0  0  0  0  0  0  0  0
   -3.3014   -1.5750    0.0943 O   0  0  0  0  0  0  0  0  0  0  0  0
   -4.3402   -0.6156    0.1409 C   0  0  0  0  0  0  0  0  0  0  0  0
   -5.2550   -1.1676    0.3633 H   0  0  0  0  0  0  0  0  0  0  0  0
   -4.4601   -0.0961   -0.8199 H   0  0  0  0  0  0  0  0  0  0  0  0
   -4.1714    0.1315    0.9285 H   0  0  0  0  0  0  0  0  0  0  0  0
    1.9537   -0.1893   -0.9966 O   0  0  0  0  0  0  0  0  0  0  0  0
    2.0734    0.7623   -1.1147 H   0  0  0  0  0  0  0  0  0  0  0  0
  1  6  1  0  0  0  0
  1  7  1  0  0  0  0
  2  1  2  0  0  0  0
  3  4  2  0  0  0  0
  3  2  1  0  0  0  0
  4  5  1  0  0  0  0
  5 10  1  0  0  0  0
  5  6  2  0  0  0  0
  6 13  1  0  0  0  0
  8  2  1  0  0  0  0
  9  4  1  0  0  0  0
 11 12  3  0  0  0  0
 13 14  1  0  0  0  0
 14 15  1  0  0  0  0
 14 17  1  0  0  0  0
 16 14  1  0  0  0  0
 18  3  1  0  0  0  0
 19 18  1  0  0  0  0
M  END
