Coordinates from ORCA-job 4-MeO-Ph-N2-OH-B3LYPG-6-31G_dp-MTMO-d009-169-n800
 OpenBabel09051907473D

 19 18  0  0  0  0  0  0  0  0999 V2000
   -1.6956   -2.7160   -0.2122 C   0  0  0  0  0  0  0  0  0  0  0  0
   -0.3477   -2.5041   -0.4631 C   0  0  0  0  0  0  0  0  0  0  0  0
    0.1372   -1.2021   -0.6491 C   0  0  0  0  0  0  0  0  0  0  0  0
   -0.7473   -0.1274   -0.5806 C   0  0  0  0  0  0  0  0  0  0  0  0
   -2.1086   -0.3380   -0.3278 C   0  0  0  0  0  0  0  0  0  0  0  0
   -2.5894   -1.6361   -0.1418 C   0  0  0  0  0  0  0  0  0  0  0  0
   -2.0843   -3.7185   -0.0652 H   0  0  0  0  0  0  0  0  0  0  0  0
    0.3469   -3.3358   -0.5193 H   0  0  0  0  0  0  0  0  0  0  0  0
   -0.3828    0.8878   -0.7252 H   0  0  0  0  0  0  0  0  0  0  0  0
   -2.7711    0.5183   -0.2815 H   0  0  0  0  0  0  0  0  0  0  0  0
    7.1052    7.7411   -1.2472 N   0  0  0  0  0  0  0  0  0  0  0  0
    7.8507    8.5572   -1.2441 N   0  0  0  0  0  0  0  0  0  0  0  0
   -3.8969   -1.9601    0.1108 O   0  0  0  0  0  0  0  0  0  0  0  0
   -4.8374   -0.9055    0.1883 C   0  0  0  0  0  0  0  0  0  0  0  0
   -5.8024   -1.3724    0.3929 H   0  0  0  0  0  0  0  0  0  0  0  0
   -4.9025   -0.3467   -0.7556 H   0  0  0  0  0  0  0  0  0  0  0  0
   -4.5987   -0.2045    0.9996 H   0  0  0  0  0  0  0  0  0  0  0  0
    1.4790   -1.0560   -0.8926 O   0  0  0  0  0  0  0  0  0  0  0  0
    1.6778   -0.1168   -0.9964 H   0  0  0  0  0  0  0  0  0  0  0  0
  1  6  1  0  0  0  0
  1  7  1  0  0  0  0
  2  1  2  0  0  0  0
  3  4  2  0  0  0  0
  3  2  1  0  0  0  0
  4  5  1  0  0  0  0
  5 10  1  0  0  0  0
  5  6  2  0  0  0  0
  6 13  1  0  0  0  0
  8  2  1  0  0  0  0
  9  4  1  0  0  0  0
 11 12  3  0  0  0  0
 13 14  1  0  0  0  0
 14 15  1  0  0  0  0
 14 17  1  0  0  0  0
 16 14  1  0  0  0  0
 18  3  1  0  0  0  0
 19 18  1  0  0  0  0
M  END
