Coordinates from ORCA-job 4-MeO-Ph-N2-OH-B3LYPG-6-31G_dp-MTMO-d009-169-n800
 OpenBabel09051907463D

 19 19  0  0  0  0  0  0  0  0999 V2000
   -1.1929   -1.6761   -1.3848 C   0  0  0  0  0  0  0  0  0  0  0  0
    0.1160   -1.2588   -1.5819 C   0  0  0  0  0  0  0  0  0  0  0  0
    0.5653   -0.0866   -0.9754 C   0  0  0  0  0  0  0  0  0  0  0  0
   -0.2844    0.7044   -0.2097 C   0  0  0  0  0  0  0  0  0  0  0  0
   -1.6092    0.2942   -0.0274 C   0  0  0  0  0  0  0  0  0  0  0  0
   -2.0647   -0.8989   -0.6047 C   0  0  0  0  0  0  0  0  0  0  0  0
   -1.5698   -2.5900   -1.8309 H   0  0  0  0  0  0  0  0  0  0  0  0
    0.7986   -1.8313   -2.2010 H   0  0  0  0  0  0  0  0  0  0  0  0
    0.0661    1.6205    0.2420 H   0  0  0  0  0  0  0  0  0  0  0  0
   -2.2701    0.9130    0.5678 H   0  0  0  0  0  0  0  0  0  0  0  0
    2.1083    0.2624   -1.4114 N   0  0  0  0  0  0  0  0  0  0  0  0
    2.8686    0.9190   -0.7200 N   0  0  0  0  0  0  0  0  0  0  0  0
   -3.3304   -1.3863   -0.4753 O   0  0  0  0  0  0  0  0  0  0  0  0
   -4.2643   -0.6468    0.2965 C   0  0  0  0  0  0  0  0  0  0  0  0
   -5.1959   -1.2137    0.2653 H   0  0  0  0  0  0  0  0  0  0  0  0
   -4.4365    0.3524   -0.1237 H   0  0  0  0  0  0  0  0  0  0  0  0
   -3.9378   -0.5461    1.3395 H   0  0  0  0  0  0  0  0  0  0  0  0
    2.3461    1.3892    0.5292 O   0  0  0  0  0  0  0  0  0  0  0  0
    3.1190    1.8438    0.8957 H   0  0  0  0  0  0  0  0  0  0  0  0
  1  6  1  0  0  0  0
  2  1  2  0  0  0  0
  2  3  1  0  0  0  0
  3  4  2  0  0  0  0
  4  5  1  0  0  0  0
  4  9  1  0  0  0  0
  5 10  1  0  0  0  0
  6 13  1  0  0  0  0
  6  5  2  0  0  0  0
  7  1  1  0  0  0  0
  8  2  1  0  0  0  0
 11  3  1  0  0  0  0
 11 12  2  0  0  0  0
 12 18  1  0  0  0  0
 13 14  1  0  0  0  0
 14 17  1  0  0  0  0
 15 14  1  0  0  0  0
 16 14  1  0  0  0  0
 18 19  1  0  0  0  0
M  END
