Coordinates from ORCA-job 4-MeO-Ph-N2-OH-B3LYPG-6-31G_dp-MTMO-d009-169-n800
 OpenBabel09051907473D

 19 18  0  0  0  0  0  0  0  0999 V2000
   -2.0075   -3.0240   -0.1831 C   0  0  0  0  0  0  0  0  0  0  0  0
   -0.6590   -2.8148   -0.4330 C   0  0  0  0  0  0  0  0  0  0  0  0
   -0.1710   -1.5135   -0.6165 C   0  0  0  0  0  0  0  0  0  0  0  0
   -1.0531   -0.4370   -0.5466 C   0  0  0  0  0  0  0  0  0  0  0  0
   -2.4150   -0.6448   -0.2949 C   0  0  0  0  0  0  0  0  0  0  0  0
   -2.8989   -1.9421   -0.1113 C   0  0  0  0  0  0  0  0  0  0  0  0
   -2.3986   -4.0259   -0.0380 H   0  0  0  0  0  0  0  0  0  0  0  0
    0.0337   -3.6479   -0.4902 H   0  0  0  0  0  0  0  0  0  0  0  0
   -0.6862    0.5777   -0.6892 H   0  0  0  0  0  0  0  0  0  0  0  0
   -3.0756    0.2128   -0.2475 H   0  0  0  0  0  0  0  0  0  0  0  0
    9.7240   10.3550   -1.5116 N   0  0  0  0  0  0  0  0  0  0  0  0
   10.4738   11.1670   -1.5178 N   0  0  0  0  0  0  0  0  0  0  0  0
   -4.2072   -2.2636    0.1401 O   0  0  0  0  0  0  0  0  0  0  0  0
   -5.1454   -1.2070    0.2191 C   0  0  0  0  0  0  0  0  0  0  0  0
   -6.1114   -1.6720    0.4226 H   0  0  0  0  0  0  0  0  0  0  0  0
   -5.2089   -0.6464   -0.7239 H   0  0  0  0  0  0  0  0  0  0  0  0
   -4.9052   -0.5078    1.0316 H   0  0  0  0  0  0  0  0  0  0  0  0
    1.1713   -1.3701   -0.8589 O   0  0  0  0  0  0  0  0  0  0  0  0
    1.3723   -0.4312   -0.9609 H   0  0  0  0  0  0  0  0  0  0  0  0
  1  6  1  0  0  0  0
  1  7  1  0  0  0  0
  2  1  2  0  0  0  0
  3  4  2  0  0  0  0
  3  2  1  0  0  0  0
  4  5  1  0  0  0  0
  5 10  1  0  0  0  0
  5  6  2  0  0  0  0
  6 13  1  0  0  0  0
  8  2  1  0  0  0  0
  9  4  1  0  0  0  0
 12 11  3  0  0  0  0
 13 14  1  0  0  0  0
 14 15  1  0  0  0  0
 14 17  1  0  0  0  0
 16 14  1  0  0  0  0
 18  3  1  0  0  0  0
 19 18  1  0  0  0  0
M  END
