Coordinates from ORCA-job 4-MeO-Ph-N2-OH-B3LYPG-6-31G_dp-MTMO-d009-169-n800
 OpenBabel09051907463D

 19 19  0  0  0  0  0  0  0  0999 V2000
   -1.2165   -1.6435   -1.4641 C   0  0  0  0  0  0  0  0  0  0  0  0
    0.1161   -1.2934   -1.5780 C   0  0  0  0  0  0  0  0  0  0  0  0
    0.6524   -0.1973   -0.8700 C   0  0  0  0  0  0  0  0  0  0  0  0
   -0.2051    0.5492   -0.0395 C   0  0  0  0  0  0  0  0  0  0  0  0
   -1.5509    0.2017    0.0747 C   0  0  0  0  0  0  0  0  0  0  0  0
   -2.0649   -0.8947   -0.6314 C   0  0  0  0  0  0  0  0  0  0  0  0
   -1.6302   -2.4883   -2.0043 H   0  0  0  0  0  0  0  0  0  0  0  0
    0.7853   -1.8592   -2.2176 H   0  0  0  0  0  0  0  0  0  0  0  0
    0.1732    1.3957    0.5109 H   0  0  0  0  0  0  0  0  0  0  0  0
   -2.1890    0.7960    0.7179 H   0  0  0  0  0  0  0  0  0  0  0  0
    2.0370   -0.0102   -1.1271 N   0  0  0  0  0  0  0  0  0  0  0  0
    2.8194    0.8125   -0.6591 N   0  0  0  0  0  0  0  0  0  0  0  0
   -3.3575   -1.3105   -0.5795 O   0  0  0  0  0  0  0  0  0  0  0  0
   -4.2670   -0.6007    0.2495 C   0  0  0  0  0  0  0  0  0  0  0  0
   -5.2270   -1.1080    0.1445 H   0  0  0  0  0  0  0  0  0  0  0  0
   -4.3736    0.4435   -0.0701 H   0  0  0  0  0  0  0  0  0  0  0  0
   -3.9573   -0.6260    1.3019 H   0  0  0  0  0  0  0  0  0  0  0  0
    2.2525    1.7375    0.3027 O   0  0  0  0  0  0  0  0  0  0  0  0
    3.0351    2.2604    0.5283 H   0  0  0  0  0  0  0  0  0  0  0  0
  1  6  1  0  0  0  0
  2  1  2  0  0  0  0
  2  3  1  0  0  0  0
  3  4  2  0  0  0  0
  4  5  1  0  0  0  0
  4  9  1  0  0  0  0
  5 10  1  0  0  0  0
  6 13  1  0  0  0  0
  6  5  2  0  0  0  0
  7  1  1  0  0  0  0
  8  2  1  0  0  0  0
 11  3  1  0  0  0  0
 11 12  2  0  0  0  0
 12 18  1  0  0  0  0
 13 14  1  0  0  0  0
 14 17  1  0  0  0  0
 15 14  1  0  0  0  0
 16 14  1  0  0  0  0
 18 19  1  0  0  0  0
M  END
