Coordinates from ORCA-job 4-MeO-Ph-N2-OH-B3LYPG-6-31G_dp-MTMO-d009-169-n800
 OpenBabel09051907473D

 19 18  0  0  0  0  0  0  0  0999 V2000
   -1.7337   -2.7535   -0.2092 C   0  0  0  0  0  0  0  0  0  0  0  0
   -0.3856   -2.5421   -0.4597 C   0  0  0  0  0  0  0  0  0  0  0  0
    0.0998   -1.2402   -0.6448 C   0  0  0  0  0  0  0  0  0  0  0  0
   -0.7842   -0.1651   -0.5758 C   0  0  0  0  0  0  0  0  0  0  0  0
   -2.1456   -0.3752   -0.3234 C   0  0  0  0  0  0  0  0  0  0  0  0
   -2.6271   -1.6733   -0.1383 C   0  0  0  0  0  0  0  0  0  0  0  0
   -2.1228   -3.7560   -0.0629 H   0  0  0  0  0  0  0  0  0  0  0  0
    0.3085   -3.3740   -0.5162 H   0  0  0  0  0  0  0  0  0  0  0  0
   -0.4192    0.8500   -0.7197 H   0  0  0  0  0  0  0  0  0  0  0  0
   -2.8078    0.4812   -0.2768 H   0  0  0  0  0  0  0  0  0  0  0  0
    7.4228    8.0594   -1.2794 N   0  0  0  0  0  0  0  0  0  0  0  0
    8.1695    8.8743   -1.2783 N   0  0  0  0  0  0  0  0  0  0  0  0
   -3.9347   -1.9969    0.1138 O   0  0  0  0  0  0  0  0  0  0  0  0
   -4.8748   -0.9419    0.1918 C   0  0  0  0  0  0  0  0  0  0  0  0
   -5.8400   -1.4085    0.3960 H   0  0  0  0  0  0  0  0  0  0  0  0
   -4.9395   -0.3825   -0.7518 H   0  0  0  0  0  0  0  0  0  0  0  0
   -4.6359   -0.2415    1.0036 H   0  0  0  0  0  0  0  0  0  0  0  0
    1.4418   -1.0944   -0.8879 O   0  0  0  0  0  0  0  0  0  0  0  0
    1.6409   -0.1553   -0.9910 H   0  0  0  0  0  0  0  0  0  0  0  0
  1  6  1  0  0  0  0
  1  7  1  0  0  0  0
  2  1  2  0  0  0  0
  3  4  2  0  0  0  0
  3  2  1  0  0  0  0
  4  5  1  0  0  0  0
  5 10  1  0  0  0  0
  5  6  2  0  0  0  0
  6 13  1  0  0  0  0
  8  2  1  0  0  0  0
  9  4  1  0  0  0  0
 11 12  3  0  0  0  0
 13 14  1  0  0  0  0
 14 15  1  0  0  0  0
 14 17  1  0  0  0  0
 16 14  1  0  0  0  0
 18  3  1  0  0  0  0
 19 18  1  0  0  0  0
M  END
