Coordinates from ORCA-job 4-MeO-Ph-N2-OH-B3LYPG-6-31G_dp-MTMO-d009-169-n800
 OpenBabel09051907463D

 19 18  0  0  0  0  0  0  0  0999 V2000
   -1.0470   -1.6118   -0.9932 C   0  0  0  0  0  0  0  0  0  0  0  0
    0.1992   -1.0271   -1.2321 C   0  0  0  0  0  0  0  0  0  0  0  0
    0.3141    0.3085   -0.9199 C   0  0  0  0  0  0  0  0  0  0  0  0
   -0.6721    1.1140   -0.4180 C   0  0  0  0  0  0  0  0  0  0  0  0
   -1.9219    0.5117   -0.1810 C   0  0  0  0  0  0  0  0  0  0  0  0
   -2.1040   -0.8475   -0.4690 C   0  0  0  0  0  0  0  0  0  0  0  0
   -1.2215   -2.6620   -1.2058 H   0  0  0  0  0  0  0  0  0  0  0  0
    1.0232   -1.6063   -1.6320 H   0  0  0  0  0  0  0  0  0  0  0  0
   -0.5154    2.1663   -0.2088 H   0  0  0  0  0  0  0  0  0  0  0  0
   -2.7292    1.1155    0.2170 H   0  0  0  0  0  0  0  0  0  0  0  0
    2.3366    1.4818   -1.5510 N   0  0  0  0  0  0  0  0  0  0  0  0
    3.2180    1.1752   -0.8239 N   0  0  0  0  0  0  0  0  0  0  0  0
   -3.2736   -1.5265   -0.2783 O   0  0  0  0  0  0  0  0  0  0  0  0
   -4.3858   -0.8169    0.2426 C   0  0  0  0  0  0  0  0  0  0  0  0
   -5.1982   -1.5416    0.3158 H   0  0  0  0  0  0  0  0  0  0  0  0
   -4.6921    0.0019   -0.4218 H   0  0  0  0  0  0  0  0  0  0  0  0
   -4.1762   -0.4096    1.2401 H   0  0  0  0  0  0  0  0  0  0  0  0
    2.9110    0.2176    0.2279 O   0  0  0  0  0  0  0  0  0  0  0  0
    3.7669    0.1215    0.6811 H   0  0  0  0  0  0  0  0  0  0  0  0
  1  6  1  0  0  0  0
  2  1  2  0  0  0  0
  2  3  1  0  0  0  0
  3  4  2  0  0  0  0
  4  9  1  0  0  0  0
  4  5  1  0  0  0  0
  5 10  1  0  0  0  0
  6 13  1  0  0  0  0
  6  5  2  0  0  0  0
  7  1  1  0  0  0  0
  8  2  1  0  0  0  0
 11 12  2  0  0  0  0
 12 18  1  0  0  0  0
 13 14  1  0  0  0  0
 14 15  1  0  0  0  0
 14 17  1  0  0  0  0
 16 14  1  0  0  0  0
 18 19  1  0  0  0  0
M  RAD  2   3   2  11   2
M  END
