Coordinates from ORCA-job 4-MeO-Ph-N2-OH-B3LYPG-6-31G_dp-MTMO-d009-169-n800
 OpenBabel09051907473D

 19 18  0  0  0  0  0  0  0  0999 V2000
   -1.0780   -2.1371   -0.2577 C   0  0  0  0  0  0  0  0  0  0  0  0
    0.2347   -1.7495   -0.4854 C   0  0  0  0  0  0  0  0  0  0  0  0
    0.5500   -0.3935   -0.6504 C   0  0  0  0  0  0  0  0  0  0  0  0
   -0.4673    0.5570   -0.5851 C   0  0  0  0  0  0  0  0  0  0  0  0
   -1.7934    0.1689   -0.3552 C   0  0  0  0  0  0  0  0  0  0  0  0
   -2.1047   -1.1825   -0.1900 C   0  0  0  0  0  0  0  0  0  0  0  0
   -1.3355   -3.1833   -0.1264 H   0  0  0  0  0  0  0  0  0  0  0  0
    1.0322   -2.4833   -0.5388 H   0  0  0  0  0  0  0  0  0  0  0  0
   -0.2351    1.6124   -0.7145 H   0  0  0  0  0  0  0  0  0  0  0  0
   -2.5620    0.9312   -0.3093 H   0  0  0  0  0  0  0  0  0  0  0  0
    3.4979    3.2069   -0.9770 N   0  0  0  0  0  0  0  0  0  0  0  0
    4.2587    4.0077   -0.9518 N   0  0  0  0  0  0  0  0  0  0  0  0
   -3.3631   -1.6757    0.0394 O   0  0  0  0  0  0  0  0  0  0  0  0
   -4.4330   -0.7527    0.1123 C   0  0  0  0  0  0  0  0  0  0  0  0
   -5.3330   -1.3431    0.2923 H   0  0  0  0  0  0  0  0  0  0  0  0
   -4.5538   -0.1922   -0.8251 H   0  0  0  0  0  0  0  0  0  0  0  0
   -4.3010   -0.0388    0.9370 H   0  0  0  0  0  0  0  0  0  0  0  0
    1.8646   -0.0733   -0.8706 O   0  0  0  0  0  0  0  0  0  0  0  0
    1.9539    0.8854   -0.9539 H   0  0  0  0  0  0  0  0  0  0  0  0
  1  6  1  0  0  0  0
  1  7  1  0  0  0  0
  2  1  2  0  0  0  0
  3  4  2  0  0  0  0
  3  2  1  0  0  0  0
  4  5  1  0  0  0  0
  5 10  1  0  0  0  0
  5  6  2  0  0  0  0
  6 13  1  0  0  0  0
  8  2  1  0  0  0  0
  9  4  1  0  0  0  0
 11 12  3  0  0  0  0
 13 14  1  0  0  0  0
 14 15  1  0  0  0  0
 14 17  1  0  0  0  0
 16 14  1  0  0  0  0
 18  3  1  0  0  0  0
 19 18  1  0  0  0  0
M  END
