Coordinates from ORCA-job 4-MeO-Ph-N2-OH-B3LYPG-6-31G_dp-MTMO-d009-169-n800
 OpenBabel09051907473D

 19 18  0  0  0  0  0  0  0  0999 V2000
   -1.7383   -2.7580   -0.2088 C   0  0  0  0  0  0  0  0  0  0  0  0
   -0.3902   -2.5466   -0.4593 C   0  0  0  0  0  0  0  0  0  0  0  0
    0.0953   -1.2447   -0.6443 C   0  0  0  0  0  0  0  0  0  0  0  0
   -0.7887   -0.1697   -0.5753 C   0  0  0  0  0  0  0  0  0  0  0  0
   -2.1501   -0.3797   -0.3229 C   0  0  0  0  0  0  0  0  0  0  0  0
   -2.6316   -1.6777   -0.1379 C   0  0  0  0  0  0  0  0  0  0  0  0
   -2.1275   -3.7605   -0.0626 H   0  0  0  0  0  0  0  0  0  0  0  0
    0.3040   -3.3786   -0.5159 H   0  0  0  0  0  0  0  0  0  0  0  0
   -0.4236    0.8455   -0.7191 H   0  0  0  0  0  0  0  0  0  0  0  0
   -2.8122    0.4768   -0.2762 H   0  0  0  0  0  0  0  0  0  0  0  0
    7.4609    8.0975   -1.2833 N   0  0  0  0  0  0  0  0  0  0  0  0
    8.2077    8.9123   -1.2824 N   0  0  0  0  0  0  0  0  0  0  0  0
   -3.9393   -2.0013    0.1142 O   0  0  0  0  0  0  0  0  0  0  0  0
   -4.8793   -0.9463    0.1922 C   0  0  0  0  0  0  0  0  0  0  0  0
   -5.8445   -1.4129    0.3963 H   0  0  0  0  0  0  0  0  0  0  0  0
   -4.9440   -0.3868   -0.7513 H   0  0  0  0  0  0  0  0  0  0  0  0
   -4.6404   -0.2459    1.0041 H   0  0  0  0  0  0  0  0  0  0  0  0
    1.4373   -1.0990   -0.8874 O   0  0  0  0  0  0  0  0  0  0  0  0
    1.6365   -0.1599   -0.9904 H   0  0  0  0  0  0  0  0  0  0  0  0
  1  6  1  0  0  0  0
  1  7  1  0  0  0  0
  2  1  2  0  0  0  0
  3  4  2  0  0  0  0
  3  2  1  0  0  0  0
  4  5  1  0  0  0  0
  5 10  1  0  0  0  0
  5  6  2  0  0  0  0
  6 13  1  0  0  0  0
  8  2  1  0  0  0  0
  9  4  1  0  0  0  0
 11 12  3  0  0  0  0
 13 14  1  0  0  0  0
 14 15  1  0  0  0  0
 14 17  1  0  0  0  0
 16 14  1  0  0  0  0
 18  3  1  0  0  0  0
 19 18  1  0  0  0  0
M  END
