Coordinates from ORCA-job 4-MeO-Ph-N2-OH-B3LYPG-6-31G_dp-MTMO-d009-169-n800
 OpenBabel09051907473D

 19 18  0  0  0  0  0  0  0  0999 V2000
   -1.7868   -2.8059   -0.2046 C   0  0  0  0  0  0  0  0  0  0  0  0
   -0.4386   -2.5949   -0.4548 C   0  0  0  0  0  0  0  0  0  0  0  0
    0.0474   -1.2931   -0.6390 C   0  0  0  0  0  0  0  0  0  0  0  0
   -0.8361   -0.2178   -0.5695 C   0  0  0  0  0  0  0  0  0  0  0  0
   -2.1977   -0.4274   -0.3175 C   0  0  0  0  0  0  0  0  0  0  0  0
   -2.6797   -1.7253   -0.1333 C   0  0  0  0  0  0  0  0  0  0  0  0
   -2.1764   -3.8083   -0.0590 H   0  0  0  0  0  0  0  0  0  0  0  0
    0.2552   -3.4271   -0.5117 H   0  0  0  0  0  0  0  0  0  0  0  0
   -0.4707    0.7974   -0.7127 H   0  0  0  0  0  0  0  0  0  0  0  0
   -2.8595    0.4293   -0.2705 H   0  0  0  0  0  0  0  0  0  0  0  0
    7.8679    8.5042   -1.3246 N   0  0  0  0  0  0  0  0  0  0  0  0
    8.6159    9.3180   -1.3256 N   0  0  0  0  0  0  0  0  0  0  0  0
   -3.9876   -2.0485    0.1184 O   0  0  0  0  0  0  0  0  0  0  0  0
   -4.9273   -0.9932    0.1968 C   0  0  0  0  0  0  0  0  0  0  0  0
   -5.8926   -1.4595    0.4006 H   0  0  0  0  0  0  0  0  0  0  0  0
   -4.9915   -0.4332   -0.7464 H   0  0  0  0  0  0  0  0  0  0  0  0
   -4.6882   -0.2934    1.0091 H   0  0  0  0  0  0  0  0  0  0  0  0
    1.3895   -1.1478   -0.8817 O   0  0  0  0  0  0  0  0  0  0  0  0
    1.5891   -0.2087   -0.9841 H   0  0  0  0  0  0  0  0  0  0  0  0
  1  6  1  0  0  0  0
  1  7  1  0  0  0  0
  2  1  2  0  0  0  0
  3  4  2  0  0  0  0
  3  2  1  0  0  0  0
  4  5  1  0  0  0  0
  5 10  1  0  0  0  0
  5  6  2  0  0  0  0
  6 13  1  0  0  0  0
  8  2  1  0  0  0  0
  9  4  1  0  0  0  0
 12 11  3  0  0  0  0
 13 14  1  0  0  0  0
 14 15  1  0  0  0  0
 14 17  1  0  0  0  0
 16 14  1  0  0  0  0
 18  3  1  0  0  0  0
 19 18  1  0  0  0  0
M  END
