Coordinates from ORCA-job 4-MeO-Ph-N2-OH-B3LYPG-6-31G_dp-MTMO-d009-169-n800
 OpenBabel09051907473D

 19 18  0  0  0  0  0  0  0  0999 V2000
   -1.6144   -2.6362   -0.2181 C   0  0  0  0  0  0  0  0  0  0  0  0
   -0.2668   -2.4230   -0.4701 C   0  0  0  0  0  0  0  0  0  0  0  0
    0.2163   -1.1207   -0.6585 C   0  0  0  0  0  0  0  0  0  0  0  0
   -0.6695   -0.0470   -0.5913 C   0  0  0  0  0  0  0  0  0  0  0  0
   -2.0304   -0.2588   -0.3374 C   0  0  0  0  0  0  0  0  0  0  0  0
   -2.5095   -1.5572   -0.1490 C   0  0  0  0  0  0  0  0  0  0  0  0
   -2.0017   -3.6390   -0.0693 H   0  0  0  0  0  0  0  0  0  0  0  0
    0.4287   -3.2539   -0.5253 H   0  0  0  0  0  0  0  0  0  0  0  0
   -0.3063    0.9685   -0.7377 H   0  0  0  0  0  0  0  0  0  0  0  0
   -2.6939    0.5967   -0.2921 H   0  0  0  0  0  0  0  0  0  0  0  0
    6.4339    7.0640   -1.1797 N   0  0  0  0  0  0  0  0  0  0  0  0
    7.1742    7.8847   -1.1700 N   0  0  0  0  0  0  0  0  0  0  0  0
   -3.8164   -1.8825    0.1047 O   0  0  0  0  0  0  0  0  0  0  0  0
   -4.7583   -0.8289    0.1810 C   0  0  0  0  0  0  0  0  0  0  0  0
   -5.7225   -1.2967    0.3867 H   0  0  0  0  0  0  0  0  0  0  0  0
   -4.8244   -0.2716   -0.7637 H   0  0  0  0  0  0  0  0  0  0  0  0
   -4.5201   -0.1264    0.9912 H   0  0  0  0  0  0  0  0  0  0  0  0
    1.5578   -0.9733   -0.9030 O   0  0  0  0  0  0  0  0  0  0  0  0
    1.7553   -0.0341   -1.0088 H   0  0  0  0  0  0  0  0  0  0  0  0
  1  6  1  0  0  0  0
  1  7  1  0  0  0  0
  2  1  2  0  0  0  0
  3  4  2  0  0  0  0
  3  2  1  0  0  0  0
  4  5  1  0  0  0  0
  5 10  1  0  0  0  0
  5  6  2  0  0  0  0
  6 13  1  0  0  0  0
  8  2  1  0  0  0  0
  9  4  1  0  0  0  0
 11 12  3  0  0  0  0
 13 14  1  0  0  0  0
 14 15  1  0  0  0  0
 14 17  1  0  0  0  0
 16 14  1  0  0  0  0
 18  3  1  0  0  0  0
 19 18  1  0  0  0  0
M  END
