Coordinates from ORCA-job 4-MeO-Ph-N2-OH-B3LYPG-6-31G_dp-MTMO-d009-169-n800
 OpenBabel09051907473D

 19 18  0  0  0  0  0  0  0  0999 V2000
   -1.9608   -2.9778   -0.1880 C   0  0  0  0  0  0  0  0  0  0  0  0
   -0.6123   -2.7682   -0.4378 C   0  0  0  0  0  0  0  0  0  0  0  0
   -0.1247   -1.4668   -0.6211 C   0  0  0  0  0  0  0  0  0  0  0  0
   -1.0070   -0.3905   -0.5511 C   0  0  0  0  0  0  0  0  0  0  0  0
   -2.3688   -0.5987   -0.2995 C   0  0  0  0  0  0  0  0  0  0  0  0
   -2.8524   -1.8961   -0.1161 C   0  0  0  0  0  0  0  0  0  0  0  0
   -2.3516   -3.9798   -0.0430 H   0  0  0  0  0  0  0  0  0  0  0  0
    0.0806   -3.6011   -0.4950 H   0  0  0  0  0  0  0  0  0  0  0  0
   -0.6403    0.6243   -0.6936 H   0  0  0  0  0  0  0  0  0  0  0  0
   -3.0296    0.2588   -0.2521 H   0  0  0  0  0  0  0  0  0  0  0  0
    9.3300    9.9624   -1.4721 N   0  0  0  0  0  0  0  0  0  0  0  0
   10.0796   10.7747   -1.4774 N   0  0  0  0  0  0  0  0  0  0  0  0
   -4.1607   -2.2179    0.1352 O   0  0  0  0  0  0  0  0  0  0  0  0
   -5.0991   -1.1615    0.2142 C   0  0  0  0  0  0  0  0  0  0  0  0
   -6.0650   -1.6268    0.4177 H   0  0  0  0  0  0  0  0  0  0  0  0
   -5.1627   -0.6009   -0.7287 H   0  0  0  0  0  0  0  0  0  0  0  0
   -4.8592   -0.4624    1.0269 H   0  0  0  0  0  0  0  0  0  0  0  0
    1.2176   -1.3230   -0.8634 O   0  0  0  0  0  0  0  0  0  0  0  0
    1.4184   -0.3841   -0.9652 H   0  0  0  0  0  0  0  0  0  0  0  0
  1  6  1  0  0  0  0
  1  7  1  0  0  0  0
  2  1  2  0  0  0  0
  3  4  2  0  0  0  0
  3  2  1  0  0  0  0
  4  5  1  0  0  0  0
  5 10  1  0  0  0  0
  5  6  2  0  0  0  0
  6 13  1  0  0  0  0
  8  2  1  0  0  0  0
  9  4  1  0  0  0  0
 12 11  3  0  0  0  0
 13 14  1  0  0  0  0
 14 15  1  0  0  0  0
 14 17  1  0  0  0  0
 16 14  1  0  0  0  0
 18  3  1  0  0  0  0
 19 18  1  0  0  0  0
M  END
