Coordinates from ORCA-job 4-MeO-Ph-N2-OH-B3LYPG-6-31G_dp-MTMO-d009-169-n800
 OpenBabel09051907473D

 19 18  0  0  0  0  0  0  0  0999 V2000
   -1.0353   -2.1209   -0.2265 C   0  0  0  0  0  0  0  0  0  0  0  0
    0.2835   -1.7869   -0.4986 C   0  0  0  0  0  0  0  0  0  0  0  0
    0.6393   -0.4511   -0.7334 C   0  0  0  0  0  0  0  0  0  0  0  0
   -0.3468    0.5339   -0.6918 C   0  0  0  0  0  0  0  0  0  0  0  0
   -1.6789    0.2000   -0.4164 C   0  0  0  0  0  0  0  0  0  0  0  0
   -2.0296   -1.1314   -0.1825 C   0  0  0  0  0  0  0  0  0  0  0  0
   -1.3228   -3.1510   -0.0414 H   0  0  0  0  0  0  0  0  0  0  0  0
    1.0560   -2.5482   -0.5338 H   0  0  0  0  0  0  0  0  0  0  0  0
   -0.0855    1.5737   -0.8762 H   0  0  0  0  0  0  0  0  0  0  0  0
   -2.4216    0.9885   -0.3906 H   0  0  0  0  0  0  0  0  0  0  0  0
    2.8688    2.9215   -0.8270 N   0  0  0  0  0  0  0  0  0  0  0  0
    3.3862    3.8674   -0.5876 N   0  0  0  0  0  0  0  0  0  0  0  0
   -3.2981   -1.5725    0.0944 O   0  0  0  0  0  0  0  0  0  0  0  0
   -4.3372   -0.6135    0.1405 C   0  0  0  0  0  0  0  0  0  0  0  0
   -5.2519   -1.1657    0.3626 H   0  0  0  0  0  0  0  0  0  0  0  0
   -4.4568   -0.0941   -0.8204 H   0  0  0  0  0  0  0  0  0  0  0  0
   -4.1691    0.1338    0.9281 H   0  0  0  0  0  0  0  0  0  0  0  0
    1.9564   -0.1855   -0.9972 O   0  0  0  0  0  0  0  0  0  0  0  0
    2.0754    0.7664   -1.1122 H   0  0  0  0  0  0  0  0  0  0  0  0
  1  6  1  0  0  0  0
  1  7  1  0  0  0  0
  2  1  2  0  0  0  0
  3  4  2  0  0  0  0
  3  2  1  0  0  0  0
  4  5  1  0  0  0  0
  5 10  1  0  0  0  0
  5  6  2  0  0  0  0
  6 13  1  0  0  0  0
  8  2  1  0  0  0  0
  9  4  1  0  0  0  0
 11 12  3  0  0  0  0
 13 14  1  0  0  0  0
 14 15  1  0  0  0  0
 14 17  1  0  0  0  0
 16 14  1  0  0  0  0
 18  3  1  0  0  0  0
 19 18  1  0  0  0  0
M  END
