Coordinates from ORCA-job 4-MeO-Ph-N2-OH-B3LYPG-6-31G_dp-MTMO-d009-169-n800
 OpenBabel09051907473D

 19 18  0  0  0  0  0  0  0  0999 V2000
   -1.7777   -2.7970   -0.2054 C   0  0  0  0  0  0  0  0  0  0  0  0
   -0.4296   -2.5859   -0.4557 C   0  0  0  0  0  0  0  0  0  0  0  0
    0.0564   -1.2841   -0.6400 C   0  0  0  0  0  0  0  0  0  0  0  0
   -0.8272   -0.2087   -0.5706 C   0  0  0  0  0  0  0  0  0  0  0  0
   -2.1888   -0.4185   -0.3185 C   0  0  0  0  0  0  0  0  0  0  0  0
   -2.6707   -1.7164   -0.1342 C   0  0  0  0  0  0  0  0  0  0  0  0
   -2.1673   -3.7994   -0.0597 H   0  0  0  0  0  0  0  0  0  0  0  0
    0.2643   -3.4180   -0.5125 H   0  0  0  0  0  0  0  0  0  0  0  0
   -0.4619    0.8064   -0.7139 H   0  0  0  0  0  0  0  0  0  0  0  0
   -2.8506    0.4382   -0.2715 H   0  0  0  0  0  0  0  0  0  0  0  0
    7.7916    8.4280   -1.3168 N   0  0  0  0  0  0  0  0  0  0  0  0
    8.5394    9.2419   -1.3175 N   0  0  0  0  0  0  0  0  0  0  0  0
   -3.9785   -2.0397    0.1176 O   0  0  0  0  0  0  0  0  0  0  0  0
   -4.9183   -0.9844    0.1959 C   0  0  0  0  0  0  0  0  0  0  0  0
   -5.8836   -1.4507    0.3997 H   0  0  0  0  0  0  0  0  0  0  0  0
   -4.9826   -0.4245   -0.7473 H   0  0  0  0  0  0  0  0  0  0  0  0
   -4.6792   -0.2845    1.0081 H   0  0  0  0  0  0  0  0  0  0  0  0
    1.3985   -1.1387   -0.8827 O   0  0  0  0  0  0  0  0  0  0  0  0
    1.5980   -0.1996   -0.9852 H   0  0  0  0  0  0  0  0  0  0  0  0
  1  6  1  0  0  0  0
  1  7  1  0  0  0  0
  2  1  2  0  0  0  0
  3  4  2  0  0  0  0
  3  2  1  0  0  0  0
  4  5  1  0  0  0  0
  5 10  1  0  0  0  0
  5  6  2  0  0  0  0
  6 13  1  0  0  0  0
  8  2  1  0  0  0  0
  9  4  1  0  0  0  0
 12 11  3  0  0  0  0
 13 14  1  0  0  0  0
 14 15  1  0  0  0  0
 14 17  1  0  0  0  0
 16 14  1  0  0  0  0
 18  3  1  0  0  0  0
 19 18  1  0  0  0  0
M  END
