Coordinates from ORCA-job 4-MeO-Ph-N2-OH-B3LYPG-6-31G_dp-MTMO-d009-169-n800
 OpenBabel09051907473D

 19 18  0  0  0  0  0  0  0  0999 V2000
   -1.4478   -2.4754   -0.2266 C   0  0  0  0  0  0  0  0  0  0  0  0
   -0.1028   -2.2508   -0.4818 C   0  0  0  0  0  0  0  0  0  0  0  0
    0.3676   -0.9449   -0.6778 C   0  0  0  0  0  0  0  0  0  0  0  0
   -0.5282    0.1206   -0.6147 C   0  0  0  0  0  0  0  0  0  0  0  0
   -1.8866   -0.1028   -0.3575 C   0  0  0  0  0  0  0  0  0  0  0  0
   -2.3531   -1.4047   -0.1618 C   0  0  0  0  0  0  0  0  0  0  0  0
   -1.8253   -3.4811   -0.0718 H   0  0  0  0  0  0  0  0  0  0  0  0
    0.6006   -3.0753   -0.5338 H   0  0  0  0  0  0  0  0  0  0  0  0
   -0.1749    1.1387   -0.7670 H   0  0  0  0  0  0  0  0  0  0  0  0
   -2.5582    0.7466   -0.3155 H   0  0  0  0  0  0  0  0  0  0  0  0
    5.1590    5.7099   -1.0592 N   0  0  0  0  0  0  0  0  0  0  0  0
    5.8685    6.5563   -1.0150 N   0  0  0  0  0  0  0  0  0  0  0  0
   -3.6565   -1.7411    0.0956 O   0  0  0  0  0  0  0  0  0  0  0  0
   -4.6083   -0.6962    0.1675 C   0  0  0  0  0  0  0  0  0  0  0  0
   -5.5679   -1.1722    0.3762 H   0  0  0  0  0  0  0  0  0  0  0  0
   -4.6805   -0.1442   -0.7798 H   0  0  0  0  0  0  0  0  0  0  0  0
   -4.3762    0.0125    0.9740 H   0  0  0  0  0  0  0  0  0  0  0  0
    1.7073   -0.7860   -0.9251 O   0  0  0  0  0  0  0  0  0  0  0  0
    1.8956    0.1545   -1.0362 H   0  0  0  0  0  0  0  0  0  0  0  0
  1  6  1  0  0  0  0
  1  7  1  0  0  0  0
  2  1  2  0  0  0  0
  3  4  2  0  0  0  0
  3  2  1  0  0  0  0
  4  5  1  0  0  0  0
  5 10  1  0  0  0  0
  5  6  2  0  0  0  0
  6 13  1  0  0  0  0
  8  2  1  0  0  0  0
  9  4  1  0  0  0  0
 11 12  3  0  0  0  0
 13 14  1  0  0  0  0
 14 15  1  0  0  0  0
 14 17  1  0  0  0  0
 16 14  1  0  0  0  0
 18  3  1  0  0  0  0
 19 18  1  0  0  0  0
M  END
