Coordinates from ORCA-job 4-MeO-Ph-N2-OH-B3LYPG-6-31G_dp-MTMO-d009-169-n800
 OpenBabel09051907463D

 19 18  0  0  0  0  0  0  0  0999 V2000
   -0.9280   -1.9016   -0.7620 C   0  0  0  0  0  0  0  0  0  0  0  0
    0.4198   -1.5999   -0.6299 C   0  0  0  0  0  0  0  0  0  0  0  0
    0.8171   -0.3622   -0.1047 C   0  0  0  0  0  0  0  0  0  0  0  0
   -0.1555    0.5588    0.2830 C   0  0  0  0  0  0  0  0  0  0  0  0
   -1.5168    0.2592    0.1464 C   0  0  0  0  0  0  0  0  0  0  0  0
   -1.9095   -0.9750   -0.3767 C   0  0  0  0  0  0  0  0  0  0  0  0
   -1.2491   -2.8561   -1.1659 H   0  0  0  0  0  0  0  0  0  0  0  0
    1.1823   -2.3117   -0.9285 H   0  0  0  0  0  0  0  0  0  0  0  0
    0.1401    1.5196    0.6981 H   0  0  0  0  0  0  0  0  0  0  0  0
   -2.2492    0.9954    0.4551 H   0  0  0  0  0  0  0  0  0  0  0  0
    1.9724    2.3233   -1.6420 N   0  0  0  0  0  0  0  0  0  0  0  0
    1.8531    2.4837   -2.7287 N   0  0  0  0  0  0  0  0  0  0  0  0
   -3.2086   -1.3751   -0.5528 O   0  0  0  0  0  0  0  0  0  0  0  0
   -4.2355   -0.4794   -0.1682 C   0  0  0  0  0  0  0  0  0  0  0  0
   -5.1776   -0.9872   -0.3827 H   0  0  0  0  0  0  0  0  0  0  0  0
   -4.1955    0.4574   -0.7398 H   0  0  0  0  0  0  0  0  0  0  0  0
   -4.1904   -0.2436    0.9038 H   0  0  0  0  0  0  0  0  0  0  0  0
    2.1632   -0.1296    0.0101 O   0  0  0  0  0  0  0  0  0  0  0  0
    2.2999    0.7886    0.2751 H   0  0  0  0  0  0  0  0  0  0  0  0
  1  2  2  0  0  0  0
  1  6  1  0  0  0  0
  2  3  1  0  0  0  0
  3 18  1  0  0  0  0
  3  4  2  0  0  0  0
  4  9  1  0  0  0  0
  5  4  1  0  0  0  0
  5 10  1  0  0  0  0
  6  5  2  0  0  0  0
  7  1  1  0  0  0  0
  8  2  1  0  0  0  0
 12 11  3  0  0  0  0
 13  6  1  0  0  0  0
 13 14  1  0  0  0  0
 14 17  1  0  0  0  0
 15 14  1  0  0  0  0
 16 14  1  0  0  0  0
 18 19  1  0  0  0  0
M  END
