Coordinates from ORCA-job 4-MeO-Ph-N2-OH-B3LYPG-6-31G_dp-MTMO-d009-169-n800
 OpenBabel09051907473D

 19 18  0  0  0  0  0  0  0  0999 V2000
   -1.0404   -2.1256   -0.2260 C   0  0  0  0  0  0  0  0  0  0  0  0
    0.2786   -1.7921   -0.4980 C   0  0  0  0  0  0  0  0  0  0  0  0
    0.6345   -0.4564   -0.7330 C   0  0  0  0  0  0  0  0  0  0  0  0
   -0.3511    0.5289   -0.6915 C   0  0  0  0  0  0  0  0  0  0  0  0
   -1.6834    0.1955   -0.4165 C   0  0  0  0  0  0  0  0  0  0  0  0
   -2.0345   -1.1358   -0.1824 C   0  0  0  0  0  0  0  0  0  0  0  0
   -1.3282   -3.1556   -0.0408 H   0  0  0  0  0  0  0  0  0  0  0  0
    1.0507   -2.5537   -0.5330 H   0  0  0  0  0  0  0  0  0  0  0  0
   -0.0890    1.5686   -0.8757 H   0  0  0  0  0  0  0  0  0  0  0  0
   -2.4258    0.9843   -0.3909 H   0  0  0  0  0  0  0  0  0  0  0  0
    2.9049    2.9611   -0.8271 N   0  0  0  0  0  0  0  0  0  0  0  0
    3.4278    3.9049   -0.5910 N   0  0  0  0  0  0  0  0  0  0  0  0
   -3.3031   -1.5764    0.0942 O   0  0  0  0  0  0  0  0  0  0  0  0
   -4.3418   -0.6170    0.1410 C   0  0  0  0  0  0  0  0  0  0  0  0
   -5.2567   -1.1689    0.3635 H   0  0  0  0  0  0  0  0  0  0  0  0
   -4.4617   -0.0974   -0.8198 H   0  0  0  0  0  0  0  0  0  0  0  0
   -4.1729    0.1301    0.9287 H   0  0  0  0  0  0  0  0  0  0  0  0
    1.9522   -0.1907   -0.9962 O   0  0  0  0  0  0  0  0  0  0  0  0
    2.0719    0.7607   -1.1158 H   0  0  0  0  0  0  0  0  0  0  0  0
  1  6  1  0  0  0  0
  1  7  1  0  0  0  0
  2  1  2  0  0  0  0
  3  4  2  0  0  0  0
  3  2  1  0  0  0  0
  4  5  1  0  0  0  0
  5 10  1  0  0  0  0
  5  6  2  0  0  0  0
  6 13  1  0  0  0  0
  8  2  1  0  0  0  0
  9  4  1  0  0  0  0
 11 12  3  0  0  0  0
 13 14  1  0  0  0  0
 14 15  1  0  0  0  0
 14 17  1  0  0  0  0
 16 14  1  0  0  0  0
 18  3  1  0  0  0  0
 19 18  1  0  0  0  0
M  END
