Coordinates from ORCA-job 4-MeO-Ph-N2-OH-B3LYPG-6-31G_dp-MTMO-d009-169-n800
 OpenBabel09051907473D

 19 18  0  0  0  0  0  0  0  0999 V2000
   -1.2834   -2.3249   -0.2140 C   0  0  0  0  0  0  0  0  0  0  0  0
    0.0497   -2.0473   -0.4794 C   0  0  0  0  0  0  0  0  0  0  0  0
    0.4629   -0.7261   -0.7007 C   0  0  0  0  0  0  0  0  0  0  0  0
   -0.4777    0.3009   -0.6524 C   0  0  0  0  0  0  0  0  0  0  0  0
   -1.8242    0.0240   -0.3847 C   0  0  0  0  0  0  0  0  0  0  0  0
   -2.2335   -1.2930   -0.1638 C   0  0  0  0  0  0  0  0  0  0  0  0
   -1.6165   -3.3429   -0.0392 H   0  0  0  0  0  0  0  0  0  0  0  0
    0.7878   -2.8416   -0.5197 H   0  0  0  0  0  0  0  0  0  0  0  0
   -0.1692    1.3303   -0.8249 H   0  0  0  0  0  0  0  0  0  0  0  0
   -2.5313    0.8444   -0.3538 H   0  0  0  0  0  0  0  0  0  0  0  0
    4.3345    4.5465   -0.9725 N   0  0  0  0  0  0  0  0  0  0  0  0
    5.0159    5.4115   -0.8777 N   0  0  0  0  0  0  0  0  0  0  0  0
   -3.5204   -1.6802    0.1055 O   0  0  0  0  0  0  0  0  0  0  0  0
   -4.5162   -0.6764    0.1619 C   0  0  0  0  0  0  0  0  0  0  0  0
   -5.4542   -1.1898    0.3802 H   0  0  0  0  0  0  0  0  0  0  0  0
   -4.6135   -0.1437   -0.7942 H   0  0  0  0  0  0  0  0  0  0  0  0
   -4.3141    0.0550    0.9562 H   0  0  0  0  0  0  0  0  0  0  0  0
    1.7934   -0.5143   -0.9569 O   0  0  0  0  0  0  0  0  0  0  0  0
    1.9421    0.4319   -1.0800 H   0  0  0  0  0  0  0  0  0  0  0  0
  1  6  1  0  0  0  0
  1  7  1  0  0  0  0
  2  1  2  0  0  0  0
  3  4  2  0  0  0  0
  3  2  1  0  0  0  0
  4  5  1  0  0  0  0
  5 10  1  0  0  0  0
  5  6  2  0  0  0  0
  6 13  1  0  0  0  0
  8  2  1  0  0  0  0
  9  4  1  0  0  0  0
 11 12  3  0  0  0  0
 13 14  1  0  0  0  0
 14 15  1  0  0  0  0
 14 17  1  0  0  0  0
 16 14  1  0  0  0  0
 18  3  1  0  0  0  0
 19 18  1  0  0  0  0
M  END
