Coordinates from ORCA-job 4-MeO-Ph-N2-OH-B3LYPG-6-31G_dp-MTMO-d009-169-n800
 OpenBabel09051907473D

 19 18  0  0  0  0  0  0  0  0999 V2000
   -1.5205   -2.5447   -0.2240 C   0  0  0  0  0  0  0  0  0  0  0  0
   -0.1739   -2.3279   -0.4775 C   0  0  0  0  0  0  0  0  0  0  0  0
    0.3050   -1.0246   -0.6694 C   0  0  0  0  0  0  0  0  0  0  0  0
   -0.5841    0.0465   -0.6040 C   0  0  0  0  0  0  0  0  0  0  0  0
   -1.9441   -0.1690   -0.3486 C   0  0  0  0  0  0  0  0  0  0  0  0
   -2.4190   -1.4685   -0.1568 C   0  0  0  0  0  0  0  0  0  0  0  0
   -1.9046   -3.5484   -0.0724 H   0  0  0  0  0  0  0  0  0  0  0  0
    0.5243   -3.1567   -0.5313 H   0  0  0  0  0  0  0  0  0  0  0  0
   -0.2242    1.0628   -0.7531 H   0  0  0  0  0  0  0  0  0  0  0  0
   -2.6103    0.6845   -0.3047 H   0  0  0  0  0  0  0  0  0  0  0  0
    5.6846    6.2898   -1.1074 N   0  0  0  0  0  0  0  0  0  0  0  0
    6.4117    7.1219   -1.0824 N   0  0  0  0  0  0  0  0  0  0  0  0
   -3.7247   -1.7973    0.0986 O   0  0  0  0  0  0  0  0  0  0  0  0
   -4.6699   -0.7465    0.1730 C   0  0  0  0  0  0  0  0  0  0  0  0
   -5.6325   -1.2169    0.3802 H   0  0  0  0  0  0  0  0  0  0  0  0
   -4.7382   -0.1916   -0.7729 H   0  0  0  0  0  0  0  0  0  0  0  0
   -4.4335   -0.0414    0.9815 H   0  0  0  0  0  0  0  0  0  0  0  0
    1.6458   -0.8734   -0.9152 O   0  0  0  0  0  0  0  0  0  0  0  0
    1.8402    0.0661   -1.0238 H   0  0  0  0  0  0  0  0  0  0  0  0
  1  6  1  0  0  0  0
  1  7  1  0  0  0  0
  2  1  2  0  0  0  0
  3  4  2  0  0  0  0
  3  2  1  0  0  0  0
  4  5  1  0  0  0  0
  5 10  1  0  0  0  0
  5  6  2  0  0  0  0
  6 13  1  0  0  0  0
  8  2  1  0  0  0  0
  9  4  1  0  0  0  0
 11 12  3  0  0  0  0
 13 14  1  0  0  0  0
 14 15  1  0  0  0  0
 14 17  1  0  0  0  0
 16 14  1  0  0  0  0
 18  3  1  0  0  0  0
 19 18  1  0  0  0  0
M  END
