Coordinates from ORCA-job 4-MeO-Ph-N2-OH-B3LYPG-6-31G_dp-MTMO-d009-169-n800
 OpenBabel09051907473D

 19 18  0  0  0  0  0  0  0  0999 V2000
   -1.9774   -2.9942   -0.1862 C   0  0  0  0  0  0  0  0  0  0  0  0
   -0.6289   -2.7847   -0.4361 C   0  0  0  0  0  0  0  0  0  0  0  0
   -0.1411   -1.4834   -0.6194 C   0  0  0  0  0  0  0  0  0  0  0  0
   -1.0233   -0.4070   -0.5495 C   0  0  0  0  0  0  0  0  0  0  0  0
   -2.3852   -0.6151   -0.2979 C   0  0  0  0  0  0  0  0  0  0  0  0
   -2.8689   -1.9125   -0.1144 C   0  0  0  0  0  0  0  0  0  0  0  0
   -2.3683   -3.9961   -0.0413 H   0  0  0  0  0  0  0  0  0  0  0  0
    0.0639   -3.6177   -0.4933 H   0  0  0  0  0  0  0  0  0  0  0  0
   -0.6566    0.6078   -0.6920 H   0  0  0  0  0  0  0  0  0  0  0  0
   -3.0459    0.2425   -0.2505 H   0  0  0  0  0  0  0  0  0  0  0  0
    9.4698   10.1017   -1.4861 N   0  0  0  0  0  0  0  0  0  0  0  0
   10.2195   10.9139   -1.4918 N   0  0  0  0  0  0  0  0  0  0  0  0
   -4.1772   -2.2341    0.1369 O   0  0  0  0  0  0  0  0  0  0  0  0
   -5.1155   -1.1777    0.2159 C   0  0  0  0  0  0  0  0  0  0  0  0
   -6.0815   -1.6428    0.4194 H   0  0  0  0  0  0  0  0  0  0  0  0
   -5.1791   -0.6171   -0.7270 H   0  0  0  0  0  0  0  0  0  0  0  0
   -4.8756   -0.4786    1.0286 H   0  0  0  0  0  0  0  0  0  0  0  0
    1.2012   -1.3397   -0.8618 O   0  0  0  0  0  0  0  0  0  0  0  0
    1.4021   -0.4008   -0.9637 H   0  0  0  0  0  0  0  0  0  0  0  0
  1  6  1  0  0  0  0
  1  7  1  0  0  0  0
  2  1  2  0  0  0  0
  3  4  2  0  0  0  0
  3  2  1  0  0  0  0
  4  5  1  0  0  0  0
  5 10  1  0  0  0  0
  5  6  2  0  0  0  0
  6 13  1  0  0  0  0
  8  2  1  0  0  0  0
  9  4  1  0  0  0  0
 12 11  3  0  0  0  0
 13 14  1  0  0  0  0
 14 15  1  0  0  0  0
 14 17  1  0  0  0  0
 16 14  1  0  0  0  0
 18  3  1  0  0  0  0
 19 18  1  0  0  0  0
M  END
