Coordinates from ORCA-job 4-MeO-Ph-N2-OH-B3LYPG-6-31G_dp-MTMO-d009-169-n800
 OpenBabel09051907473D

 19 18  0  0  0  0  0  0  0  0999 V2000
   -1.8202   -2.8389   -0.2017 C   0  0  0  0  0  0  0  0  0  0  0  0
   -0.4719   -2.6281   -0.4516 C   0  0  0  0  0  0  0  0  0  0  0  0
    0.0145   -1.3264   -0.6354 C   0  0  0  0  0  0  0  0  0  0  0  0
   -0.8688   -0.2508   -0.5658 C   0  0  0  0  0  0  0  0  0  0  0  0
   -2.2304   -0.4602   -0.3139 C   0  0  0  0  0  0  0  0  0  0  0  0
   -2.7128   -1.7580   -0.1301 C   0  0  0  0  0  0  0  0  0  0  0  0
   -2.2101   -3.8412   -0.0564 H   0  0  0  0  0  0  0  0  0  0  0  0
    0.2217   -3.4605   -0.5087 H   0  0  0  0  0  0  0  0  0  0  0  0
   -0.5031    0.7642   -0.7086 H   0  0  0  0  0  0  0  0  0  0  0  0
   -2.8920    0.3967   -0.2667 H   0  0  0  0  0  0  0  0  0  0  0  0
    8.1477    8.7835   -1.3529 N   0  0  0  0  0  0  0  0  0  0  0  0
    8.8961    9.5968   -1.3550 N   0  0  0  0  0  0  0  0  0  0  0  0
   -4.0208   -2.0810    0.1214 O   0  0  0  0  0  0  0  0  0  0  0  0
   -4.9602   -1.0254    0.2001 C   0  0  0  0  0  0  0  0  0  0  0  0
   -5.9257   -1.4915    0.4036 H   0  0  0  0  0  0  0  0  0  0  0  0
   -5.0243   -0.4652   -0.7430 H   0  0  0  0  0  0  0  0  0  0  0  0
   -4.7210   -0.3258    1.0125 H   0  0  0  0  0  0  0  0  0  0  0  0
    1.3566   -1.1814   -0.8780 O   0  0  0  0  0  0  0  0  0  0  0  0
    1.5565   -0.2423   -0.9800 H   0  0  0  0  0  0  0  0  0  0  0  0
  1  6  1  0  0  0  0
  1  7  1  0  0  0  0
  2  1  2  0  0  0  0
  3  4  2  0  0  0  0
  3  2  1  0  0  0  0
  4  5  1  0  0  0  0
  5 10  1  0  0  0  0
  5  6  2  0  0  0  0
  6 13  1  0  0  0  0
  8  2  1  0  0  0  0
  9  4  1  0  0  0  0
 12 11  3  0  0  0  0
 13 14  1  0  0  0  0
 14 15  1  0  0  0  0
 14 17  1  0  0  0  0
 16 14  1  0  0  0  0
 18  3  1  0  0  0  0
 19 18  1  0  0  0  0
M  END
