Coordinates from ORCA-job 4-MeO-Ph-N2-OH-B3LYPG-6-31G_dp-MTMO-d009-169-n800
 OpenBabel09051907473D

 19 18  0  0  0  0  0  0  0  0999 V2000
   -1.2105   -2.2577   -0.2051 C   0  0  0  0  0  0  0  0  0  0  0  0
    0.1152   -1.9510   -0.4761 C   0  0  0  0  0  0  0  0  0  0  0  0
    0.4962   -0.6227   -0.7113 C   0  0  0  0  0  0  0  0  0  0  0  0
   -0.4686    0.3821   -0.6712 C   0  0  0  0  0  0  0  0  0  0  0  0
   -1.8075    0.0758   -0.3979 C   0  0  0  0  0  0  0  0  0  0  0  0
   -2.1849   -1.2483   -0.1632 C   0  0  0  0  0  0  0  0  0  0  0  0
   -1.5189   -3.2816   -0.0195 H   0  0  0  0  0  0  0  0  0  0  0  0
    0.8720   -2.7278   -0.5099 H   0  0  0  0  0  0  0  0  0  0  0  0
   -0.1848    1.4167   -0.8547 H   0  0  0  0  0  0  0  0  0  0  0  0
   -2.5340    0.8794   -0.3734 H   0  0  0  0  0  0  0  0  0  0  0  0
    4.0248    4.0581   -0.9382 N   0  0  0  0  0  0  0  0  0  0  0  0
    4.7022    4.9230   -0.8177 N   0  0  0  0  0  0  0  0  0  0  0  0
   -3.4617   -1.6635    0.1125 O   0  0  0  0  0  0  0  0  0  0  0  0
   -4.4813   -0.6834    0.1603 C   0  0  0  0  0  0  0  0  0  0  0  0
   -5.4065   -1.2172    0.3840 H   0  0  0  0  0  0  0  0  0  0  0  0
   -4.5920   -0.1620   -0.8005 H   0  0  0  0  0  0  0  0  0  0  0  0
   -4.2965    0.0601    0.9476 H   0  0  0  0  0  0  0  0  0  0  0  0
    1.8208   -0.3818   -0.9721 O   0  0  0  0  0  0  0  0  0  0  0  0
    1.9483    0.5664   -1.1038 H   0  0  0  0  0  0  0  0  0  0  0  0
  1  6  1  0  0  0  0
  1  7  1  0  0  0  0
  2  1  2  0  0  0  0
  3  4  2  0  0  0  0
  3  2  1  0  0  0  0
  4  5  1  0  0  0  0
  5 10  1  0  0  0  0
  5  6  2  0  0  0  0
  6 13  1  0  0  0  0
  8  2  1  0  0  0  0
  9  4  1  0  0  0  0
 11 12  3  0  0  0  0
 13 14  1  0  0  0  0
 14 15  1  0  0  0  0
 14 17  1  0  0  0  0
 16 14  1  0  0  0  0
 18  3  1  0  0  0  0
 19 18  1  0  0  0  0
M  END
