Coordinates from ORCA-job 4-MeO-Ph-N2-OH-B3LYPG-6-31G_dp-MTMO-d009-169-n800
 OpenBabel09051907473D

 19 18  0  0  0  0  0  0  0  0999 V2000
   -1.2206   -2.2670   -0.2061 C   0  0  0  0  0  0  0  0  0  0  0  0
    0.1060   -1.9635   -0.4763 C   0  0  0  0  0  0  0  0  0  0  0  0
    0.4906   -0.6359   -0.7098 C   0  0  0  0  0  0  0  0  0  0  0  0
   -0.4715    0.3713   -0.6687 C   0  0  0  0  0  0  0  0  0  0  0  0
   -1.8113    0.0683   -0.3961 C   0  0  0  0  0  0  0  0  0  0  0  0
   -2.1923   -1.2551   -0.1632 C   0  0  0  0  0  0  0  0  0  0  0  0
   -1.5318   -3.2903   -0.0217 H   0  0  0  0  0  0  0  0  0  0  0  0
    0.8607   -2.7423   -0.5109 H   0  0  0  0  0  0  0  0  0  0  0  0
   -0.1849    1.4055   -0.8507 H   0  0  0  0  0  0  0  0  0  0  0  0
   -2.5356    0.8738   -0.3708 H   0  0  0  0  0  0  0  0  0  0  0  0
    4.0750    4.1279   -0.9436 N   0  0  0  0  0  0  0  0  0  0  0  0
    4.7546    4.9916   -0.8266 N   0  0  0  0  0  0  0  0  0  0  0  0
   -3.4702   -1.6671    0.1117 O   0  0  0  0  0  0  0  0  0  0  0  0
   -4.4873   -0.6844    0.1606 C   0  0  0  0  0  0  0  0  0  0  0  0
   -5.4139   -1.2160    0.3835 H   0  0  0  0  0  0  0  0  0  0  0  0
   -4.5964   -0.1616   -0.7997 H   0  0  0  0  0  0  0  0  0  0  0  0
   -4.3006    0.0577    0.9488 H   0  0  0  0  0  0  0  0  0  0  0  0
    1.8159   -0.3982   -0.9699 O   0  0  0  0  0  0  0  0  0  0  0  0
    1.9456    0.5498   -1.1007 H   0  0  0  0  0  0  0  0  0  0  0  0
  1  6  1  0  0  0  0
  1  7  1  0  0  0  0
  2  1  2  0  0  0  0
  3  4  2  0  0  0  0
  3  2  1  0  0  0  0
  4  5  1  0  0  0  0
  5 10  1  0  0  0  0
  5  6  2  0  0  0  0
  6 13  1  0  0  0  0
  8  2  1  0  0  0  0
  9  4  1  0  0  0  0
 11 12  3  0  0  0  0
 13 14  1  0  0  0  0
 14 15  1  0  0  0  0
 14 17  1  0  0  0  0
 16 14  1  0  0  0  0
 18  3  1  0  0  0  0
 19 18  1  0  0  0  0
M  END
