Coordinates from ORCA-job 4-MeO-Ph-N2-OH-B3LYPG-6-31G_dp-MTMO-d009-169-n800
 OpenBabel09051907473D

 19 18  0  0  0  0  0  0  0  0999 V2000
   -1.8384   -2.8568   -0.2000 C   0  0  0  0  0  0  0  0  0  0  0  0
   -0.4900   -2.6462   -0.4499 C   0  0  0  0  0  0  0  0  0  0  0  0
   -0.0034   -1.3445   -0.6335 C   0  0  0  0  0  0  0  0  0  0  0  0
   -0.8866   -0.2689   -0.5638 C   0  0  0  0  0  0  0  0  0  0  0  0
   -2.2483   -0.4781   -0.3120 C   0  0  0  0  0  0  0  0  0  0  0  0
   -2.7308   -1.7759   -0.1283 C   0  0  0  0  0  0  0  0  0  0  0  0
   -2.2284   -3.8591   -0.0548 H   0  0  0  0  0  0  0  0  0  0  0  0
    0.2035   -3.4787   -0.5070 H   0  0  0  0  0  0  0  0  0  0  0  0
   -0.5207    0.7462   -0.7065 H   0  0  0  0  0  0  0  0  0  0  0  0
   -2.9098    0.3789   -0.2647 H   0  0  0  0  0  0  0  0  0  0  0  0
    8.3003    8.9358   -1.3684 N   0  0  0  0  0  0  0  0  0  0  0  0
    9.0489    9.7489   -1.3709 N   0  0  0  0  0  0  0  0  0  0  0  0
   -4.0388   -2.0986    0.1231 O   0  0  0  0  0  0  0  0  0  0  0  0
   -4.9781   -1.0430    0.2018 C   0  0  0  0  0  0  0  0  0  0  0  0
   -5.9437   -1.5090    0.4053 H   0  0  0  0  0  0  0  0  0  0  0  0
   -5.0421   -0.4826   -0.7412 H   0  0  0  0  0  0  0  0  0  0  0  0
   -4.7388   -0.3435    1.0144 H   0  0  0  0  0  0  0  0  0  0  0  0
    1.3387   -1.1997   -0.8760 O   0  0  0  0  0  0  0  0  0  0  0  0
    1.5388   -0.2606   -0.9779 H   0  0  0  0  0  0  0  0  0  0  0  0
  1  6  1  0  0  0  0
  1  7  1  0  0  0  0
  2  1  2  0  0  0  0
  3  4  2  0  0  0  0
  3  2  1  0  0  0  0
  4  5  1  0  0  0  0
  5 10  1  0  0  0  0
  5  6  2  0  0  0  0
  6 13  1  0  0  0  0
  8  2  1  0  0  0  0
  9  4  1  0  0  0  0
 12 11  3  0  0  0  0
 13 14  1  0  0  0  0
 14 15  1  0  0  0  0
 14 17  1  0  0  0  0
 16 14  1  0  0  0  0
 18  3  1  0  0  0  0
 19 18  1  0  0  0  0
M  END
