Coordinates from ORCA-job 4-MeO-Ph-N2-OH-B3LYPG-6-31G_dp-MTMO-d009-169-n800
 OpenBabel09051907473D

 19 18  0  0  0  0  0  0  0  0999 V2000
   -2.0241   -3.0404   -0.1813 C   0  0  0  0  0  0  0  0  0  0  0  0
   -0.6755   -2.8313   -0.4313 C   0  0  0  0  0  0  0  0  0  0  0  0
   -0.1875   -1.5301   -0.6149 C   0  0  0  0  0  0  0  0  0  0  0  0
   -1.0695   -0.4535   -0.5451 C   0  0  0  0  0  0  0  0  0  0  0  0
   -2.4314   -0.6612   -0.2933 C   0  0  0  0  0  0  0  0  0  0  0  0
   -2.9154   -1.9584   -0.1096 C   0  0  0  0  0  0  0  0  0  0  0  0
   -2.4152   -4.0422   -0.0362 H   0  0  0  0  0  0  0  0  0  0  0  0
    0.0171   -3.6645   -0.4884 H   0  0  0  0  0  0  0  0  0  0  0  0
   -0.7025    0.5612   -0.6877 H   0  0  0  0  0  0  0  0  0  0  0  0
   -3.0919    0.1965   -0.2460 H   0  0  0  0  0  0  0  0  0  0  0  0
    9.8638   10.4942   -1.5256 N   0  0  0  0  0  0  0  0  0  0  0  0
   10.6137   11.3062   -1.5322 N   0  0  0  0  0  0  0  0  0  0  0  0
   -4.2237   -2.2798    0.1418 O   0  0  0  0  0  0  0  0  0  0  0  0
   -5.1618   -1.2231    0.2208 C   0  0  0  0  0  0  0  0  0  0  0  0
   -6.1278   -1.6880    0.4244 H   0  0  0  0  0  0  0  0  0  0  0  0
   -5.2253   -0.6626   -0.7222 H   0  0  0  0  0  0  0  0  0  0  0  0
   -4.9216   -0.5239    1.0333 H   0  0  0  0  0  0  0  0  0  0  0  0
    1.1548   -1.3868   -0.8574 O   0  0  0  0  0  0  0  0  0  0  0  0
    1.3559   -0.4479   -0.9594 H   0  0  0  0  0  0  0  0  0  0  0  0
  1  6  1  0  0  0  0
  1  7  1  0  0  0  0
  2  1  2  0  0  0  0
  3  4  2  0  0  0  0
  3  2  1  0  0  0  0
  4  5  1  0  0  0  0
  5 10  1  0  0  0  0
  5  6  2  0  0  0  0
  6 13  1  0  0  0  0
  8  2  1  0  0  0  0
  9  4  1  0  0  0  0
 12 11  3  0  0  0  0
 13 14  1  0  0  0  0
 14 15  1  0  0  0  0
 14 17  1  0  0  0  0
 16 14  1  0  0  0  0
 18  3  1  0  0  0  0
 19 18  1  0  0  0  0
M  END
