Coordinates from ORCA-job 4-MeO-Ph-N2-OH-B3LYPG-6-31G_dp-MTMO-d009-169-n800
 OpenBabel09051907473D

 19 18  0  0  0  0  0  0  0  0999 V2000
   -1.9200   -2.9375   -0.1921 C   0  0  0  0  0  0  0  0  0  0  0  0
   -0.5716   -2.7276   -0.4419 C   0  0  0  0  0  0  0  0  0  0  0  0
   -0.0843   -1.4261   -0.6251 C   0  0  0  0  0  0  0  0  0  0  0  0
   -0.9668   -0.3500   -0.5552 C   0  0  0  0  0  0  0  0  0  0  0  0
   -2.3286   -0.5585   -0.3036 C   0  0  0  0  0  0  0  0  0  0  0  0
   -2.8119   -1.8561   -0.1202 C   0  0  0  0  0  0  0  0  0  0  0  0
   -2.3106   -3.9396   -0.0472 H   0  0  0  0  0  0  0  0  0  0  0  0
    0.1215   -3.5604   -0.4991 H   0  0  0  0  0  0  0  0  0  0  0  0
   -0.6004    0.6649   -0.6976 H   0  0  0  0  0  0  0  0  0  0  0  0
   -2.9896    0.2988   -0.2561 H   0  0  0  0  0  0  0  0  0  0  0  0
    8.9868    9.6204   -1.4376 N   0  0  0  0  0  0  0  0  0  0  0  0
    9.7361   10.4329   -1.4421 N   0  0  0  0  0  0  0  0  0  0  0  0
   -4.1201   -2.1782    0.1310 O   0  0  0  0  0  0  0  0  0  0  0  0
   -5.0588   -1.1220    0.2100 C   0  0  0  0  0  0  0  0  0  0  0  0
   -6.0246   -1.5875    0.4134 H   0  0  0  0  0  0  0  0  0  0  0  0
   -5.1225   -0.5614   -0.7329 H   0  0  0  0  0  0  0  0  0  0  0  0
   -4.8191   -0.4229    1.0227 H   0  0  0  0  0  0  0  0  0  0  0  0
    1.2580   -1.2819   -0.8675 O   0  0  0  0  0  0  0  0  0  0  0  0
    1.4586   -0.3430   -0.9692 H   0  0  0  0  0  0  0  0  0  0  0  0
  1  6  1  0  0  0  0
  1  7  1  0  0  0  0
  2  1  2  0  0  0  0
  3  4  2  0  0  0  0
  3  2  1  0  0  0  0
  4  5  1  0  0  0  0
  5 10  1  0  0  0  0
  5  6  2  0  0  0  0
  6 13  1  0  0  0  0
  8  2  1  0  0  0  0
  9  4  1  0  0  0  0
 12 11  3  0  0  0  0
 13 14  1  0  0  0  0
 14 15  1  0  0  0  0
 14 17  1  0  0  0  0
 16 14  1  0  0  0  0
 18  3  1  0  0  0  0
 19 18  1  0  0  0  0
M  END
