Coordinates from ORCA-job 4-MeO-Ph-N2-OH-B3LYPG-6-31G_dp-MTMO-d009-169-n800
 OpenBabel09051907463D

 19 19  0  0  0  0  0  0  0  0999 V2000
   -1.1970   -1.6449   -1.4750 C   0  0  0  0  0  0  0  0  0  0  0  0
    0.1268   -1.3048   -1.5905 C   0  0  0  0  0  0  0  0  0  0  0  0
    0.7674   -0.1841   -0.8833 C   0  0  0  0  0  0  0  0  0  0  0  0
   -0.1886    0.5477   -0.0316 C   0  0  0  0  0  0  0  0  0  0  0  0
   -1.5235    0.2056    0.0775 C   0  0  0  0  0  0  0  0  0  0  0  0
   -2.0424   -0.8904   -0.6354 C   0  0  0  0  0  0  0  0  0  0  0  0
   -1.6235   -2.4853   -2.0137 H   0  0  0  0  0  0  0  0  0  0  0  0
    0.7855   -1.8818   -2.2358 H   0  0  0  0  0  0  0  0  0  0  0  0
    0.1833    1.3960    0.5278 H   0  0  0  0  0  0  0  0  0  0  0  0
   -2.1677    0.7950    0.7207 H   0  0  0  0  0  0  0  0  0  0  0  0
    1.7810    0.0055   -1.0203 N   0  0  0  0  0  0  0  0  0  0  0  0
    2.7124    0.7606   -0.6660 N   0  0  0  0  0  0  0  0  0  0  0  0
   -3.3291   -1.2990   -0.5850 O   0  0  0  0  0  0  0  0  0  0  0  0
   -4.2470   -0.5946    0.2453 C   0  0  0  0  0  0  0  0  0  0  0  0
   -5.2035   -1.1055    0.1311 H   0  0  0  0  0  0  0  0  0  0  0  0
   -4.3524    0.4497   -0.0715 H   0  0  0  0  0  0  0  0  0  0  0  0
   -3.9399   -0.6268    1.2974 H   0  0  0  0  0  0  0  0  0  0  0  0
    2.2319    1.7736    0.3151 O   0  0  0  0  0  0  0  0  0  0  0  0
    3.0585    2.2479    0.4830 H   0  0  0  0  0  0  0  0  0  0  0  0
  1  6  1  0  0  0  0
  2  1  2  0  0  0  0
  2  3  1  0  0  0  0
  3  4  2  0  0  0  0
  4  5  1  0  0  0  0
  4  9  1  0  0  0  0
  5 10  1  0  0  0  0
  6 13  1  0  0  0  0
  6  5  2  0  0  0  0
  7  1  1  0  0  0  0
  8  2  1  0  0  0  0
 11  3  1  0  0  0  0
 11 12  1  0  0  0  0
 12 18  1  0  0  0  0
 13 14  1  0  0  0  0
 14 17  1  0  0  0  0
 15 14  1  0  0  0  0
 16 14  1  0  0  0  0
 18 19  1  0  0  0  0
M  RAD  2  11   2  12   2
M  END
