Coordinates from ORCA-job 4-MeO-Ph-N2-OH-B3LYPG-6-31G_dp-MTMO-d009-169-n800
 OpenBabel09051907473D

 19 18  0  0  0  0  0  0  0  0999 V2000
   -1.8459   -2.8643   -0.1993 C   0  0  0  0  0  0  0  0  0  0  0  0
   -0.4976   -2.6538   -0.4492 C   0  0  0  0  0  0  0  0  0  0  0  0
   -0.0109   -1.3521   -0.6327 C   0  0  0  0  0  0  0  0  0  0  0  0
   -0.8940   -0.2764   -0.5629 C   0  0  0  0  0  0  0  0  0  0  0  0
   -2.2557   -0.4855   -0.3112 C   0  0  0  0  0  0  0  0  0  0  0  0
   -2.7384   -1.7833   -0.1276 C   0  0  0  0  0  0  0  0  0  0  0  0
   -2.2360   -3.8666   -0.0541 H   0  0  0  0  0  0  0  0  0  0  0  0
    0.1959   -3.4862   -0.5063 H   0  0  0  0  0  0  0  0  0  0  0  0
   -0.5281    0.7386   -0.7056 H   0  0  0  0  0  0  0  0  0  0  0  0
   -2.9172    0.3715   -0.2639 H   0  0  0  0  0  0  0  0  0  0  0  0
    8.3639    8.9992   -1.3748 N   0  0  0  0  0  0  0  0  0  0  0  0
    9.1126    9.8122   -1.3775 N   0  0  0  0  0  0  0  0  0  0  0  0
   -4.0464   -2.1060    0.1238 O   0  0  0  0  0  0  0  0  0  0  0  0
   -4.9856   -1.0503    0.2026 C   0  0  0  0  0  0  0  0  0  0  0  0
   -5.9512   -1.5162    0.4061 H   0  0  0  0  0  0  0  0  0  0  0  0
   -5.0495   -0.4899   -0.7404 H   0  0  0  0  0  0  0  0  0  0  0  0
   -4.7463   -0.3509    1.0151 H   0  0  0  0  0  0  0  0  0  0  0  0
    1.3312   -1.2073   -0.8752 O   0  0  0  0  0  0  0  0  0  0  0  0
    1.5313   -0.2683   -0.9771 H   0  0  0  0  0  0  0  0  0  0  0  0
  1  6  1  0  0  0  0
  1  7  1  0  0  0  0
  2  1  2  0  0  0  0
  3  4  2  0  0  0  0
  3  2  1  0  0  0  0
  4  5  1  0  0  0  0
  5 10  1  0  0  0  0
  5  6  2  0  0  0  0
  6 13  1  0  0  0  0
  8  2  1  0  0  0  0
  9  4  1  0  0  0  0
 12 11  3  0  0  0  0
 13 14  1  0  0  0  0
 14 15  1  0  0  0  0
 14 17  1  0  0  0  0
 16 14  1  0  0  0  0
 18  3  1  0  0  0  0
 19 18  1  0  0  0  0
M  END
