Coordinates from ORCA-job 4-MeO-Ph-N2-OH-B3LYPG-6-31G_dp-MTMO-d009-169-n800
 OpenBabel09051907473D

 19 18  0  0  0  0  0  0  0  0999 V2000
   -1.3627   -2.3969   -0.2237 C   0  0  0  0  0  0  0  0  0  0  0  0
   -0.0221   -2.1515   -0.4830 C   0  0  0  0  0  0  0  0  0  0  0  0
    0.4261   -0.8393   -0.6888 C   0  0  0  0  0  0  0  0  0  0  0  0
   -0.4874    0.2114   -0.6315 C   0  0  0  0  0  0  0  0  0  0  0  0
   -1.8414   -0.0329   -0.3701 C   0  0  0  0  0  0  0  0  0  0  0  0
   -2.2857   -1.3411   -0.1646 C   0  0  0  0  0  0  0  0  0  0  0  0
   -1.7230   -3.4077   -0.0611 H   0  0  0  0  0  0  0  0  0  0  0  0
    0.6949   -2.9644   -0.5304 H   0  0  0  0  0  0  0  0  0  0  0  0
   -0.1516    1.2342   -0.7917 H   0  0  0  0  0  0  0  0  0  0  0  0
   -2.5270    0.8054   -0.3324 H   0  0  0  0  0  0  0  0  0  0  0  0
    4.6657    5.0798   -1.0114 N   0  0  0  0  0  0  0  0  0  0  0  0
    5.3528    5.9426   -0.9408 N   0  0  0  0  0  0  0  0  0  0  0  0
   -3.5829   -1.6974    0.0975 O   0  0  0  0  0  0  0  0  0  0  0  0
   -4.5521   -0.6683    0.1633 C   0  0  0  0  0  0  0  0  0  0  0  0
   -5.5034   -1.1590    0.3758 H   0  0  0  0  0  0  0  0  0  0  0  0
   -4.6342   -0.1236   -0.7874 H   0  0  0  0  0  0  0  0  0  0  0  0
   -4.3315    0.0494    0.9651 H   0  0  0  0  0  0  0  0  0  0  0  0
    1.7624   -0.6596   -0.9397 O   0  0  0  0  0  0  0  0  0  0  0  0
    1.9352    0.2834   -1.0552 H   0  0  0  0  0  0  0  0  0  0  0  0
  1  6  1  0  0  0  0
  1  7  1  0  0  0  0
  2  1  2  0  0  0  0
  3  4  2  0  0  0  0
  3  2  1  0  0  0  0
  4  5  1  0  0  0  0
  5 10  1  0  0  0  0
  5  6  2  0  0  0  0
  6 13  1  0  0  0  0
  8  2  1  0  0  0  0
  9  4  1  0  0  0  0
 11 12  3  0  0  0  0
 13 14  1  0  0  0  0
 14 15  1  0  0  0  0
 14 17  1  0  0  0  0
 16 14  1  0  0  0  0
 18  3  1  0  0  0  0
 19 18  1  0  0  0  0
M  END
