Coordinates from ORCA-job 4-MeO-Ph-N2-OH-B3LYPG-6-31G_dp-MTMO-d009-169-n800
 OpenBabel09051907473D

 19 18  0  0  0  0  0  0  0  0999 V2000
   -1.5396   -2.5632   -0.2229 C   0  0  0  0  0  0  0  0  0  0  0  0
   -0.1927   -2.3475   -0.4761 C   0  0  0  0  0  0  0  0  0  0  0  0
    0.2874   -1.0445   -0.6672 C   0  0  0  0  0  0  0  0  0  0  0  0
   -0.6007    0.0274   -0.6013 C   0  0  0  0  0  0  0  0  0  0  0  0
   -1.9609   -0.1870   -0.3463 C   0  0  0  0  0  0  0  0  0  0  0  0
   -2.4371   -1.4861   -0.1553 C   0  0  0  0  0  0  0  0  0  0  0  0
   -1.9246   -3.5666   -0.0720 H   0  0  0  0  0  0  0  0  0  0  0  0
    0.5047   -3.1769   -0.5302 H   0  0  0  0  0  0  0  0  0  0  0  0
   -0.2398    1.0434   -0.7498 H   0  0  0  0  0  0  0  0  0  0  0  0
   -2.6263    0.6671   -0.3021 H   0  0  0  0  0  0  0  0  0  0  0  0
    5.8326    6.4457   -1.1213 N   0  0  0  0  0  0  0  0  0  0  0  0
    6.5633    7.2748   -1.1003 N   0  0  0  0  0  0  0  0  0  0  0  0
   -3.7431   -1.8138    0.0998 O   0  0  0  0  0  0  0  0  0  0  0  0
   -4.6873   -0.7623    0.1746 C   0  0  0  0  0  0  0  0  0  0  0  0
   -5.6504   -1.2318    0.3814 H   0  0  0  0  0  0  0  0  0  0  0  0
   -4.7550   -0.2067   -0.7711 H   0  0  0  0  0  0  0  0  0  0  0  0
   -4.4504   -0.0578    0.9834 H   0  0  0  0  0  0  0  0  0  0  0  0
    1.6285   -0.8945   -0.9127 O   0  0  0  0  0  0  0  0  0  0  0  0
    1.8237    0.0449   -1.0207 H   0  0  0  0  0  0  0  0  0  0  0  0
  1  6  1  0  0  0  0
  1  7  1  0  0  0  0
  2  1  2  0  0  0  0
  3  4  2  0  0  0  0
  3  2  1  0  0  0  0
  4  5  1  0  0  0  0
  5 10  1  0  0  0  0
  5  6  2  0  0  0  0
  6 13  1  0  0  0  0
  8  2  1  0  0  0  0
  9  4  1  0  0  0  0
 11 12  3  0  0  0  0
 13 14  1  0  0  0  0
 14 15  1  0  0  0  0
 14 17  1  0  0  0  0
 16 14  1  0  0  0  0
 18  3  1  0  0  0  0
 19 18  1  0  0  0  0
M  END
