Coordinates from ORCA-job 4-MeO-Ph-N2-OH-B3LYPG-6-31G_dp-MTMO-d009-169-n800
 OpenBabel09051907473D

 19 18  0  0  0  0  0  0  0  0999 V2000
   -1.0593   -2.1273   -0.2631 C   0  0  0  0  0  0  0  0  0  0  0  0
    0.2574   -1.7533   -0.4900 C   0  0  0  0  0  0  0  0  0  0  0  0
    0.5877   -0.4005   -0.6528 C   0  0  0  0  0  0  0  0  0  0  0  0
   -0.4198    0.5606   -0.5859 C   0  0  0  0  0  0  0  0  0  0  0  0
   -1.7499    0.1863   -0.3568 C   0  0  0  0  0  0  0  0  0  0  0  0
   -2.0758   -1.1620   -0.1939 C   0  0  0  0  0  0  0  0  0  0  0  0
   -1.3280   -3.1709   -0.1337 H   0  0  0  0  0  0  0  0  0  0  0  0
    1.0469   -2.4956   -0.5446 H   0  0  0  0  0  0  0  0  0  0  0  0
   -0.1763    1.6136   -0.7135 H   0  0  0  0  0  0  0  0  0  0  0  0
   -2.5103    0.9567   -0.3097 H   0  0  0  0  0  0  0  0  0  0  0  0
    3.2333    3.0573   -0.9556 N   0  0  0  0  0  0  0  0  0  0  0  0
    3.9352    3.9095   -0.9177 N   0  0  0  0  0  0  0  0  0  0  0  0
   -3.3396   -1.6422    0.0345 O   0  0  0  0  0  0  0  0  0  0  0  0
   -4.3996   -0.7080    0.1077 C   0  0  0  0  0  0  0  0  0  0  0  0
   -5.3059   -1.2889    0.2865 H   0  0  0  0  0  0  0  0  0  0  0  0
   -4.5138   -0.1453   -0.8293 H   0  0  0  0  0  0  0  0  0  0  0  0
   -4.2607    0.0037    0.9331 H   0  0  0  0  0  0  0  0  0  0  0  0
    1.9051   -0.0937   -0.8725 O   0  0  0  0  0  0  0  0  0  0  0  0
    2.0055    0.8642   -0.9529 H   0  0  0  0  0  0  0  0  0  0  0  0
  1  6  1  0  0  0  0
  1  7  1  0  0  0  0
  2  1  2  0  0  0  0
  3  4  2  0  0  0  0
  3  2  1  0  0  0  0
  4  5  1  0  0  0  0
  5 10  1  0  0  0  0
  5  6  2  0  0  0  0
  6 13  1  0  0  0  0
  8  2  1  0  0  0  0
  9  4  1  0  0  0  0
 11 12  3  0  0  0  0
 13 14  1  0  0  0  0
 14 15  1  0  0  0  0
 14 17  1  0  0  0  0
 16 14  1  0  0  0  0
 18  3  1  0  0  0  0
 19 18  1  0  0  0  0
M  END
