Coordinates from ORCA-job 4-MeO-Ph-N2-OH-B3LYPG-6-31G_dp-MTMO-d009-169-n800
 OpenBabel09051907473D

 19 18  0  0  0  0  0  0  0  0999 V2000
   -2.0135   -3.0299   -0.1825 C   0  0  0  0  0  0  0  0  0  0  0  0
   -0.6650   -2.8208   -0.4324 C   0  0  0  0  0  0  0  0  0  0  0  0
   -0.1770   -1.5196   -0.6159 C   0  0  0  0  0  0  0  0  0  0  0  0
   -1.0591   -0.4430   -0.5461 C   0  0  0  0  0  0  0  0  0  0  0  0
   -2.4210   -0.6508   -0.2943 C   0  0  0  0  0  0  0  0  0  0  0  0
   -2.9049   -1.9481   -0.1107 C   0  0  0  0  0  0  0  0  0  0  0  0
   -2.4046   -4.0318   -0.0374 H   0  0  0  0  0  0  0  0  0  0  0  0
    0.0276   -3.6539   -0.4895 H   0  0  0  0  0  0  0  0  0  0  0  0
   -0.6921    0.5717   -0.6887 H   0  0  0  0  0  0  0  0  0  0  0  0
   -3.0815    0.2069   -0.2470 H   0  0  0  0  0  0  0  0  0  0  0  0
    9.7748   10.4056   -1.5167 N   0  0  0  0  0  0  0  0  0  0  0  0
   10.5247   11.2176   -1.5231 N   0  0  0  0  0  0  0  0  0  0  0  0
   -4.2132   -2.2695    0.1407 O   0  0  0  0  0  0  0  0  0  0  0  0
   -5.1513   -1.2128    0.2197 C   0  0  0  0  0  0  0  0  0  0  0  0
   -6.1174   -1.6778    0.4233 H   0  0  0  0  0  0  0  0  0  0  0  0
   -5.2149   -0.6523   -0.7233 H   0  0  0  0  0  0  0  0  0  0  0  0
   -4.9112   -0.5137    1.0322 H   0  0  0  0  0  0  0  0  0  0  0  0
    1.1653   -1.3761   -0.8584 O   0  0  0  0  0  0  0  0  0  0  0  0
    1.3663   -0.4373   -0.9603 H   0  0  0  0  0  0  0  0  0  0  0  0
  1  6  1  0  0  0  0
  1  7  1  0  0  0  0
  2  1  2  0  0  0  0
  3  4  2  0  0  0  0
  3  2  1  0  0  0  0
  4  5  1  0  0  0  0
  5 10  1  0  0  0  0
  5  6  2  0  0  0  0
  6 13  1  0  0  0  0
  8  2  1  0  0  0  0
  9  4  1  0  0  0  0
 12 11  3  0  0  0  0
 13 14  1  0  0  0  0
 14 15  1  0  0  0  0
 14 17  1  0  0  0  0
 16 14  1  0  0  0  0
 18  3  1  0  0  0  0
 19 18  1  0  0  0  0
M  END
