Coordinates from ORCA-job 4-MeO-Ph-N2-OH-B3LYPG-6-31G_dp-MTMO-d009-169-n800
 OpenBabel09051907473D

 19 18  0  0  0  0  0  0  0  0999 V2000
   -1.8550   -2.8732   -0.1984 C   0  0  0  0  0  0  0  0  0  0  0  0
   -0.5067   -2.6628   -0.4483 C   0  0  0  0  0  0  0  0  0  0  0  0
   -0.0199   -1.3612   -0.6318 C   0  0  0  0  0  0  0  0  0  0  0  0
   -0.9029   -0.2854   -0.5619 C   0  0  0  0  0  0  0  0  0  0  0  0
   -2.2646   -0.4945   -0.3103 C   0  0  0  0  0  0  0  0  0  0  0  0
   -2.7474   -1.7922   -0.1267 C   0  0  0  0  0  0  0  0  0  0  0  0
   -2.2452   -3.8755   -0.0533 H   0  0  0  0  0  0  0  0  0  0  0  0
    0.1867   -3.4953   -0.5054 H   0  0  0  0  0  0  0  0  0  0  0  0
   -0.5369    0.7296   -0.7046 H   0  0  0  0  0  0  0  0  0  0  0  0
   -2.9260    0.3626   -0.2629 H   0  0  0  0  0  0  0  0  0  0  0  0
    8.4402    9.0753   -1.3825 N   0  0  0  0  0  0  0  0  0  0  0  0
    9.1890    9.8883   -1.3855 N   0  0  0  0  0  0  0  0  0  0  0  0
   -4.0554   -2.1148    0.1247 O   0  0  0  0  0  0  0  0  0  0  0  0
   -4.9945   -1.0591    0.2035 C   0  0  0  0  0  0  0  0  0  0  0  0
   -5.9602   -1.5250    0.4069 H   0  0  0  0  0  0  0  0  0  0  0  0
   -5.0585   -0.4986   -0.7395 H   0  0  0  0  0  0  0  0  0  0  0  0
   -4.7552   -0.3597    1.0161 H   0  0  0  0  0  0  0  0  0  0  0  0
    1.3223   -1.2165   -0.8742 O   0  0  0  0  0  0  0  0  0  0  0  0
    1.5224   -0.2774   -0.9761 H   0  0  0  0  0  0  0  0  0  0  0  0
  1  6  1  0  0  0  0
  1  7  1  0  0  0  0
  2  1  2  0  0  0  0
  3  4  2  0  0  0  0
  3  2  1  0  0  0  0
  4  5  1  0  0  0  0
  5 10  1  0  0  0  0
  5  6  2  0  0  0  0
  6 13  1  0  0  0  0
  8  2  1  0  0  0  0
  9  4  1  0  0  0  0
 12 11  3  0  0  0  0
 13 14  1  0  0  0  0
 14 15  1  0  0  0  0
 14 17  1  0  0  0  0
 16 14  1  0  0  0  0
 18  3  1  0  0  0  0
 19 18  1  0  0  0  0
M  END
