Coordinates from ORCA-job 4-MeO-Ph-N2-OH-B3LYPG-6-31G_dp-MTMO-d009-169-n800
 OpenBabel09051907473D

 19 18  0  0  0  0  0  0  0  0999 V2000
   -2.0030   -3.0195   -0.1836 C   0  0  0  0  0  0  0  0  0  0  0  0
   -0.6545   -2.8102   -0.4335 C   0  0  0  0  0  0  0  0  0  0  0  0
   -0.1666   -1.5090   -0.6169 C   0  0  0  0  0  0  0  0  0  0  0  0
   -1.0486   -0.4325   -0.5471 C   0  0  0  0  0  0  0  0  0  0  0  0
   -2.4105   -0.6404   -0.2954 C   0  0  0  0  0  0  0  0  0  0  0  0
   -2.8944   -1.9377   -0.1118 C   0  0  0  0  0  0  0  0  0  0  0  0
   -2.3940   -4.0214   -0.0385 H   0  0  0  0  0  0  0  0  0  0  0  0
    0.0382   -3.6434   -0.4906 H   0  0  0  0  0  0  0  0  0  0  0  0
   -0.6817    0.5822   -0.6896 H   0  0  0  0  0  0  0  0  0  0  0  0
   -3.0711    0.2173   -0.2480 H   0  0  0  0  0  0  0  0  0  0  0  0
    9.6859   10.3170   -1.5078 N   0  0  0  0  0  0  0  0  0  0  0  0
   10.4357   11.1290   -1.5139 N   0  0  0  0  0  0  0  0  0  0  0  0
   -4.2027   -2.2592    0.1396 O   0  0  0  0  0  0  0  0  0  0  0  0
   -5.1409   -1.2026    0.2186 C   0  0  0  0  0  0  0  0  0  0  0  0
   -6.1069   -1.6676    0.4222 H   0  0  0  0  0  0  0  0  0  0  0  0
   -5.2044   -0.6420   -0.7244 H   0  0  0  0  0  0  0  0  0  0  0  0
   -4.9008   -0.5034    1.0312 H   0  0  0  0  0  0  0  0  0  0  0  0
    1.1758   -1.3655   -0.8594 O   0  0  0  0  0  0  0  0  0  0  0  0
    1.3767   -0.4267   -0.9613 H   0  0  0  0  0  0  0  0  0  0  0  0
  1  6  1  0  0  0  0
  1  7  1  0  0  0  0
  2  1  2  0  0  0  0
  3  4  2  0  0  0  0
  3  2  1  0  0  0  0
  4  5  1  0  0  0  0
  5 10  1  0  0  0  0
  5  6  2  0  0  0  0
  6 13  1  0  0  0  0
  8  2  1  0  0  0  0
  9  4  1  0  0  0  0
 12 11  3  0  0  0  0
 13 14  1  0  0  0  0
 14 15  1  0  0  0  0
 14 17  1  0  0  0  0
 16 14  1  0  0  0  0
 18  3  1  0  0  0  0
 19 18  1  0  0  0  0
M  END
