Coordinates from ORCA-job 4-MeO-Ph-N2-OH-B3LYPG-6-31G_dp-MTMO-d009-169-n800
 OpenBabel09051907473D

 19 18  0  0  0  0  0  0  0  0999 V2000
   -1.6834   -2.7040   -0.2131 C   0  0  0  0  0  0  0  0  0  0  0  0
   -0.3355   -2.4919   -0.4642 C   0  0  0  0  0  0  0  0  0  0  0  0
    0.1491   -1.1899   -0.6505 C   0  0  0  0  0  0  0  0  0  0  0  0
   -0.7355   -0.1153   -0.5822 C   0  0  0  0  0  0  0  0  0  0  0  0
   -2.0967   -0.3260   -0.3292 C   0  0  0  0  0  0  0  0  0  0  0  0
   -2.5774   -1.6242   -0.1429 C   0  0  0  0  0  0  0  0  0  0  0  0
   -2.0719   -3.7065   -0.0659 H   0  0  0  0  0  0  0  0  0  0  0  0
    0.3591   -3.3235   -0.5202 H   0  0  0  0  0  0  0  0  0  0  0  0
   -0.3711    0.8999   -0.7270 H   0  0  0  0  0  0  0  0  0  0  0  0
   -2.7594    0.5301   -0.2831 H   0  0  0  0  0  0  0  0  0  0  0  0
    7.0037    7.6391   -1.2369 N   0  0  0  0  0  0  0  0  0  0  0  0
    7.7486    8.4557   -1.2331 N   0  0  0  0  0  0  0  0  0  0  0  0
   -3.8847   -1.9483    0.1098 O   0  0  0  0  0  0  0  0  0  0  0  0
   -4.8255   -0.8939    0.1872 C   0  0  0  0  0  0  0  0  0  0  0  0
   -5.7903   -1.3609    0.3919 H   0  0  0  0  0  0  0  0  0  0  0  0
   -4.8907   -0.3352   -0.7568 H   0  0  0  0  0  0  0  0  0  0  0  0
   -4.5868   -0.1926    0.9984 H   0  0  0  0  0  0  0  0  0  0  0  0
    1.4909   -1.0436   -0.8941 O   0  0  0  0  0  0  0  0  0  0  0  0
    1.6895   -0.1045   -0.9982 H   0  0  0  0  0  0  0  0  0  0  0  0
  1  6  1  0  0  0  0
  1  7  1  0  0  0  0
  2  1  2  0  0  0  0
  3  4  2  0  0  0  0
  3  2  1  0  0  0  0
  4  5  1  0  0  0  0
  5 10  1  0  0  0  0
  5  6  2  0  0  0  0
  6 13  1  0  0  0  0
  8  2  1  0  0  0  0
  9  4  1  0  0  0  0
 11 12  3  0  0  0  0
 13 14  1  0  0  0  0
 14 15  1  0  0  0  0
 14 17  1  0  0  0  0
 16 14  1  0  0  0  0
 18  3  1  0  0  0  0
 19 18  1  0  0  0  0
M  END
