Coordinates from ORCA-job 4-MeO-Ph-N2-OH-B3LYPG-6-31G_dp-MTMO-d009-169-n800
 OpenBabel09051907473D

 19 18  0  0  0  0  0  0  0  0999 V2000
   -1.0879   -2.1435   -0.2566 C   0  0  0  0  0  0  0  0  0  0  0  0
    0.2237   -1.7520   -0.4835 C   0  0  0  0  0  0  0  0  0  0  0  0
    0.5351   -0.3951   -0.6479 C   0  0  0  0  0  0  0  0  0  0  0  0
   -0.4850    0.5525   -0.5825 C   0  0  0  0  0  0  0  0  0  0  0  0
   -1.8100    0.1605   -0.3533 C   0  0  0  0  0  0  0  0  0  0  0  0
   -2.1174   -1.1920   -0.1888 C   0  0  0  0  0  0  0  0  0  0  0  0
   -1.3425   -3.1905   -0.1259 H   0  0  0  0  0  0  0  0  0  0  0  0
    1.0233   -2.4835   -0.5369 H   0  0  0  0  0  0  0  0  0  0  0  0
   -0.2558    1.6086   -0.7114 H   0  0  0  0  0  0  0  0  0  0  0  0
   -2.5808    0.9205   -0.3073 H   0  0  0  0  0  0  0  0  0  0  0  0
    3.6084    3.2825   -0.9898 N   0  0  0  0  0  0  0  0  0  0  0  0
    4.3902    4.0631   -0.9709 N   0  0  0  0  0  0  0  0  0  0  0  0
   -3.3744   -1.6889    0.0400 O   0  0  0  0  0  0  0  0  0  0  0  0
   -4.4470   -0.7690    0.1134 C   0  0  0  0  0  0  0  0  0  0  0  0
   -5.3453   -1.3620    0.2931 H   0  0  0  0  0  0  0  0  0  0  0  0
   -4.5693   -0.2082   -0.8237 H   0  0  0  0  0  0  0  0  0  0  0  0
   -4.3170   -0.0552    0.9385 H   0  0  0  0  0  0  0  0  0  0  0  0
    1.8490   -0.0711   -0.8673 O   0  0  0  0  0  0  0  0  0  0  0  0
    1.9349    0.8879   -0.9495 H   0  0  0  0  0  0  0  0  0  0  0  0
  1  6  1  0  0  0  0
  1  7  1  0  0  0  0
  2  1  2  0  0  0  0
  3  4  2  0  0  0  0
  3  2  1  0  0  0  0
  4  5  1  0  0  0  0
  5 10  1  0  0  0  0
  5  6  2  0  0  0  0
  6 13  1  0  0  0  0
  8  2  1  0  0  0  0
  9  4  1  0  0  0  0
 11 12  3  0  0  0  0
 13 14  1  0  0  0  0
 14 15  1  0  0  0  0
 14 17  1  0  0  0  0
 16 14  1  0  0  0  0
 18  3  1  0  0  0  0
 19 18  1  0  0  0  0
M  END
