Coordinates from ORCA-job 4-MeO-Ph-N2-OH-B3LYPG-6-31G_dp-MTMO-d009-169-n800
 OpenBabel09051907473D

 19 18  0  0  0  0  0  0  0  0999 V2000
   -1.9698   -2.9867   -0.1870 C   0  0  0  0  0  0  0  0  0  0  0  0
   -0.6213   -2.7772   -0.4368 C   0  0  0  0  0  0  0  0  0  0  0  0
   -0.1336   -1.4759   -0.6202 C   0  0  0  0  0  0  0  0  0  0  0  0
   -1.0159   -0.3995   -0.5503 C   0  0  0  0  0  0  0  0  0  0  0  0
   -2.3778   -0.6076   -0.2986 C   0  0  0  0  0  0  0  0  0  0  0  0
   -2.8614   -1.9050   -0.1152 C   0  0  0  0  0  0  0  0  0  0  0  0
   -2.3607   -3.9887   -0.0421 H   0  0  0  0  0  0  0  0  0  0  0  0
    0.0715   -3.6102   -0.4941 H   0  0  0  0  0  0  0  0  0  0  0  0
   -0.6492    0.6153   -0.6927 H   0  0  0  0  0  0  0  0  0  0  0  0
   -3.0385    0.2499   -0.2512 H   0  0  0  0  0  0  0  0  0  0  0  0
    9.4063   10.0384   -1.4798 N   0  0  0  0  0  0  0  0  0  0  0  0
   10.1559   10.8507   -1.4853 N   0  0  0  0  0  0  0  0  0  0  0  0
   -4.1697   -2.2268    0.1361 O   0  0  0  0  0  0  0  0  0  0  0  0
   -5.1081   -1.1703    0.2151 C   0  0  0  0  0  0  0  0  0  0  0  0
   -6.0740   -1.6356    0.4186 H   0  0  0  0  0  0  0  0  0  0  0  0
   -5.1716   -0.6097   -0.7278 H   0  0  0  0  0  0  0  0  0  0  0  0
   -4.8681   -0.4712    1.0278 H   0  0  0  0  0  0  0  0  0  0  0  0
    1.2087   -1.3321   -0.8626 O   0  0  0  0  0  0  0  0  0  0  0  0
    1.4095   -0.3932   -0.9644 H   0  0  0  0  0  0  0  0  0  0  0  0
  1  6  1  0  0  0  0
  1  7  1  0  0  0  0
  2  1  2  0  0  0  0
  3  4  2  0  0  0  0
  3  2  1  0  0  0  0
  4  5  1  0  0  0  0
  5 10  1  0  0  0  0
  5  6  2  0  0  0  0
  6 13  1  0  0  0  0
  8  2  1  0  0  0  0
  9  4  1  0  0  0  0
 12 11  3  0  0  0  0
 13 14  1  0  0  0  0
 14 15  1  0  0  0  0
 14 17  1  0  0  0  0
 16 14  1  0  0  0  0
 18  3  1  0  0  0  0
 19 18  1  0  0  0  0
M  END
