Coordinates from ORCA-job 4-MeO-Ph-N2-OH-B3LYPG-6-31G_dp-MTMO-d009-169-n800
 OpenBabel09051907473D

 19 18  0  0  0  0  0  0  0  0999 V2000
   -1.9472   -2.9643   -0.1893 C   0  0  0  0  0  0  0  0  0  0  0  0
   -0.5987   -2.7546   -0.4391 C   0  0  0  0  0  0  0  0  0  0  0  0
   -0.1112   -1.4533   -0.6224 C   0  0  0  0  0  0  0  0  0  0  0  0
   -0.9936   -0.3770   -0.5525 C   0  0  0  0  0  0  0  0  0  0  0  0
   -2.3554   -0.5853   -0.3009 C   0  0  0  0  0  0  0  0  0  0  0  0
   -2.8389   -1.8828   -0.1175 C   0  0  0  0  0  0  0  0  0  0  0  0
   -2.3379   -3.9664   -0.0444 H   0  0  0  0  0  0  0  0  0  0  0  0
    0.0942   -3.5876   -0.4964 H   0  0  0  0  0  0  0  0  0  0  0  0
   -0.6270    0.6378   -0.6949 H   0  0  0  0  0  0  0  0  0  0  0  0
   -3.0163    0.2721   -0.2534 H   0  0  0  0  0  0  0  0  0  0  0  0
    9.2156    9.8484   -1.4606 N   0  0  0  0  0  0  0  0  0  0  0  0
    9.9651   10.6608   -1.4657 N   0  0  0  0  0  0  0  0  0  0  0  0
   -4.1471   -2.2047    0.1338 O   0  0  0  0  0  0  0  0  0  0  0  0
   -5.0857   -1.1484    0.2128 C   0  0  0  0  0  0  0  0  0  0  0  0
   -6.0516   -1.6137    0.4162 H   0  0  0  0  0  0  0  0  0  0  0  0
   -5.1493   -0.5877   -0.7301 H   0  0  0  0  0  0  0  0  0  0  0  0
   -4.8459   -0.4493    1.0255 H   0  0  0  0  0  0  0  0  0  0  0  0
    1.2311   -1.3093   -0.8648 O   0  0  0  0  0  0  0  0  0  0  0  0
    1.4318   -0.3704   -0.9665 H   0  0  0  0  0  0  0  0  0  0  0  0
  1  6  1  0  0  0  0
  1  7  1  0  0  0  0
  2  1  2  0  0  0  0
  3  4  2  0  0  0  0
  3  2  1  0  0  0  0
  4  5  1  0  0  0  0
  5 10  1  0  0  0  0
  5  6  2  0  0  0  0
  6 13  1  0  0  0  0
  8  2  1  0  0  0  0
  9  4  1  0  0  0  0
 12 11  3  0  0  0  0
 13 14  1  0  0  0  0
 14 15  1  0  0  0  0
 14 17  1  0  0  0  0
 16 14  1  0  0  0  0
 18  3  1  0  0  0  0
 19 18  1  0  0  0  0
M  END
