Coordinates from ORCA-job 4-MeO-Ph-N2-OH-B3LYPG-6-31G_dp-MTMO-d009-169-n800
 OpenBabel09051907473D

 19 18  0  0  0  0  0  0  0  0999 V2000
   -1.8505   -2.8688   -0.1988 C   0  0  0  0  0  0  0  0  0  0  0  0
   -0.5021   -2.6583   -0.4487 C   0  0  0  0  0  0  0  0  0  0  0  0
   -0.0154   -1.3566   -0.6322 C   0  0  0  0  0  0  0  0  0  0  0  0
   -0.8985   -0.2809   -0.5624 C   0  0  0  0  0  0  0  0  0  0  0  0
   -2.2602   -0.4900   -0.3107 C   0  0  0  0  0  0  0  0  0  0  0  0
   -2.7429   -1.7878   -0.1272 C   0  0  0  0  0  0  0  0  0  0  0  0
   -2.2406   -3.8710   -0.0537 H   0  0  0  0  0  0  0  0  0  0  0  0
    0.1913   -3.4908   -0.5059 H   0  0  0  0  0  0  0  0  0  0  0  0
   -0.5325    0.7341   -0.7051 H   0  0  0  0  0  0  0  0  0  0  0  0
   -2.9216    0.3670   -0.2634 H   0  0  0  0  0  0  0  0  0  0  0  0
    8.4020    9.0372   -1.3787 N   0  0  0  0  0  0  0  0  0  0  0  0
    9.1508    9.8502   -1.3815 N   0  0  0  0  0  0  0  0  0  0  0  0
   -4.0509   -2.1104    0.1242 O   0  0  0  0  0  0  0  0  0  0  0  0
   -4.9901   -1.0547    0.2030 C   0  0  0  0  0  0  0  0  0  0  0  0
   -5.9557   -1.5206    0.4065 H   0  0  0  0  0  0  0  0  0  0  0  0
   -5.0540   -0.4943   -0.7400 H   0  0  0  0  0  0  0  0  0  0  0  0
   -4.7507   -0.3553    1.0156 H   0  0  0  0  0  0  0  0  0  0  0  0
    1.3268   -1.2119   -0.8747 O   0  0  0  0  0  0  0  0  0  0  0  0
    1.5269   -0.2728   -0.9766 H   0  0  0  0  0  0  0  0  0  0  0  0
  1  6  1  0  0  0  0
  1  7  1  0  0  0  0
  2  1  2  0  0  0  0
  3  4  2  0  0  0  0
  3  2  1  0  0  0  0
  4  5  1  0  0  0  0
  5 10  1  0  0  0  0
  5  6  2  0  0  0  0
  6 13  1  0  0  0  0
  8  2  1  0  0  0  0
  9  4  1  0  0  0  0
 12 11  3  0  0  0  0
 13 14  1  0  0  0  0
 14 15  1  0  0  0  0
 14 17  1  0  0  0  0
 16 14  1  0  0  0  0
 18  3  1  0  0  0  0
 19 18  1  0  0  0  0
M  END
