Coordinates from ORCA-job 4-MeO-Ph-N2-OH-B3LYPG-6-31G_dp-MTMO-d009-169-n800
 OpenBabel09051907473D

 19 18  0  0  0  0  0  0  0  0999 V2000
   -1.4914   -2.5168   -0.2254 C   0  0  0  0  0  0  0  0  0  0  0  0
   -0.1453   -2.2976   -0.4795 C   0  0  0  0  0  0  0  0  0  0  0  0
    0.3311   -0.9935   -0.6727 C   0  0  0  0  0  0  0  0  0  0  0  0
   -0.5601    0.0759   -0.6081 C   0  0  0  0  0  0  0  0  0  0  0  0
   -1.9196   -0.1420   -0.3521 C   0  0  0  0  0  0  0  0  0  0  0  0
   -2.3919   -1.4422   -0.1590 C   0  0  0  0  0  0  0  0  0  0  0  0
   -1.8735   -3.5210   -0.0728 H   0  0  0  0  0  0  0  0  0  0  0  0
    0.5544   -3.1251   -0.5326 H   0  0  0  0  0  0  0  0  0  0  0  0
   -0.2022    1.0927   -0.7582 H   0  0  0  0  0  0  0  0  0  0  0  0
   -2.5874    0.7103   -0.3088 H   0  0  0  0  0  0  0  0  0  0  0  0
    5.4656    6.0544   -1.0872 N   0  0  0  0  0  0  0  0  0  0  0  0
    6.1864    6.8917   -1.0552 N   0  0  0  0  0  0  0  0  0  0  0  0
   -3.6970   -1.7732    0.0971 O   0  0  0  0  0  0  0  0  0  0  0  0
   -4.6441   -0.7242    0.1707 C   0  0  0  0  0  0  0  0  0  0  0  0
   -5.6059   -1.1963    0.3784 H   0  0  0  0  0  0  0  0  0  0  0  0
   -4.7137   -0.1702   -0.7757 H   0  0  0  0  0  0  0  0  0  0  0  0
   -4.4090   -0.0180    0.9785 H   0  0  0  0  0  0  0  0  0  0  0  0
    1.6715   -0.8401   -0.9191 O   0  0  0  0  0  0  0  0  0  0  0  0
    1.8641    0.0997   -1.0286 H   0  0  0  0  0  0  0  0  0  0  0  0
  1  6  1  0  0  0  0
  1  7  1  0  0  0  0
  2  1  2  0  0  0  0
  3  4  2  0  0  0  0
  3  2  1  0  0  0  0
  4  5  1  0  0  0  0
  5 10  1  0  0  0  0
  5  6  2  0  0  0  0
  6 13  1  0  0  0  0
  8  2  1  0  0  0  0
  9  4  1  0  0  0  0
 11 12  3  0  0  0  0
 13 14  1  0  0  0  0
 14 15  1  0  0  0  0
 14 17  1  0  0  0  0
 16 14  1  0  0  0  0
 18  3  1  0  0  0  0
 19 18  1  0  0  0  0
M  END
