Coordinates from ORCA-job 4-MeO-Ph-N2-OH-B3LYPG-6-31G_dp-MTMO-d009-169-n800
 OpenBabel09051907473D

 19 18  0  0  0  0  0  0  0  0999 V2000
   -1.4286   -2.4574   -0.2266 C   0  0  0  0  0  0  0  0  0  0  0  0
   -0.0843   -2.2294   -0.4826 C   0  0  0  0  0  0  0  0  0  0  0  0
    0.3825   -0.9225   -0.6801 C   0  0  0  0  0  0  0  0  0  0  0  0
   -0.5162    0.1407   -0.6180 C   0  0  0  0  0  0  0  0  0  0  0  0
   -1.8739   -0.0862   -0.3601 C   0  0  0  0  0  0  0  0  0  0  0  0
   -2.3368   -1.3891   -0.1627 C   0  0  0  0  0  0  0  0  0  0  0  0
   -1.8033   -3.4639   -0.0706 H   0  0  0  0  0  0  0  0  0  0  0  0
    0.6213   -3.0520   -0.5337 H   0  0  0  0  0  0  0  0  0  0  0  0
   -0.1658    1.1596   -0.7715 H   0  0  0  0  0  0  0  0  0  0  0  0
   -2.5478    0.7614   -0.3188 H   0  0  0  0  0  0  0  0  0  0  0  0
    5.0342    5.5620   -1.0478 N   0  0  0  0  0  0  0  0  0  0  0  0
    5.7382    6.4126   -0.9976 N   0  0  0  0  0  0  0  0  0  0  0  0
   -3.6392   -1.7288    0.0954 O   0  0  0  0  0  0  0  0  0  0  0  0
   -4.5939   -0.6865    0.1663 C   0  0  0  0  0  0  0  0  0  0  0  0
   -5.5521   -1.1649    0.3756 H   0  0  0  0  0  0  0  0  0  0  0  0
   -4.6677   -0.1356   -0.7816 H   0  0  0  0  0  0  0  0  0  0  0  0
   -4.3637    0.0237    0.9721 H   0  0  0  0  0  0  0  0  0  0  0  0
    1.7216   -0.7601   -0.9281 O   0  0  0  0  0  0  0  0  0  0  0  0
    1.9074    0.1808   -1.0399 H   0  0  0  0  0  0  0  0  0  0  0  0
  1  6  1  0  0  0  0
  1  7  1  0  0  0  0
  2  1  2  0  0  0  0
  3  4  2  0  0  0  0
  3  2  1  0  0  0  0
  4  5  1  0  0  0  0
  5 10  1  0  0  0  0
  5  6  2  0  0  0  0
  6 13  1  0  0  0  0
  8  2  1  0  0  0  0
  9  4  1  0  0  0  0
 11 12  3  0  0  0  0
 13 14  1  0  0  0  0
 14 15  1  0  0  0  0
 14 17  1  0  0  0  0
 16 14  1  0  0  0  0
 18  3  1  0  0  0  0
 19 18  1  0  0  0  0
M  END
