Coordinates from ORCA-job 4-MeO-Ph-N2-OH-B3LYPG-6-31G_dp-MTMO-d009-169-n800
 OpenBabel09051907473D

 19 18  0  0  0  0  0  0  0  0999 V2000
   -1.0662   -2.1303   -0.2603 C   0  0  0  0  0  0  0  0  0  0  0  0
    0.2485   -1.7497   -0.4879 C   0  0  0  0  0  0  0  0  0  0  0  0
    0.5714   -0.3954   -0.6525 C   0  0  0  0  0  0  0  0  0  0  0  0
   -0.4410    0.5605   -0.5866 C   0  0  0  0  0  0  0  0  0  0  0  0
   -1.7691    0.1795   -0.3567 C   0  0  0  0  0  0  0  0  0  0  0  0
   -2.0877   -1.1703   -0.1921 C   0  0  0  0  0  0  0  0  0  0  0  0
   -1.3294   -3.1752   -0.1294 H   0  0  0  0  0  0  0  0  0  0  0  0
    1.0420   -2.4879   -0.5418 H   0  0  0  0  0  0  0  0  0  0  0  0
   -0.2030    1.6147   -0.7156 H   0  0  0  0  0  0  0  0  0  0  0  0
   -2.5335    0.9459   -0.3103 H   0  0  0  0  0  0  0  0  0  0  0  0
    3.3452    3.1146   -0.9629 N   0  0  0  0  0  0  0  0  0  0  0  0
    4.0743    3.9440   -0.9297 N   0  0  0  0  0  0  0  0  0  0  0  0
   -3.3488   -1.6568    0.0373 O   0  0  0  0  0  0  0  0  0  0  0  0
   -4.4137   -0.7281    0.1100 C   0  0  0  0  0  0  0  0  0  0  0  0
   -5.3169   -1.3137    0.2897 H   0  0  0  0  0  0  0  0  0  0  0  0
   -4.5313   -0.1669   -0.8274 H   0  0  0  0  0  0  0  0  0  0  0  0
   -4.2782   -0.0150    0.9348 H   0  0  0  0  0  0  0  0  0  0  0  0
    1.8873   -0.0819   -0.8729 O   0  0  0  0  0  0  0  0  0  0  0  0
    1.9824    0.8763   -0.9559 H   0  0  0  0  0  0  0  0  0  0  0  0
  1  6  1  0  0  0  0
  1  7  1  0  0  0  0
  2  1  2  0  0  0  0
  3  4  2  0  0  0  0
  3  2  1  0  0  0  0
  4  5  1  0  0  0  0
  5 10  1  0  0  0  0
  5  6  2  0  0  0  0
  6 13  1  0  0  0  0
  8  2  1  0  0  0  0
  9  4  1  0  0  0  0
 11 12  3  0  0  0  0
 13 14  1  0  0  0  0
 14 15  1  0  0  0  0
 14 17  1  0  0  0  0
 16 14  1  0  0  0  0
 18  3  1  0  0  0  0
 19 18  1  0  0  0  0
M  END
