Coordinates from ORCA-job 4-MeO-Ph-N2-OH-B3LYPG-6-31G_dp-MTMO-d009-169-n800
 OpenBabel09051907473D

 19 18  0  0  0  0  0  0  0  0999 V2000
   -1.3824   -2.4148   -0.2251 C   0  0  0  0  0  0  0  0  0  0  0  0
   -0.0404   -2.1756   -0.4832 C   0  0  0  0  0  0  0  0  0  0  0  0
    0.4144   -0.8653   -0.6861 C   0  0  0  0  0  0  0  0  0  0  0  0
   -0.4939    0.1899   -0.6270 C   0  0  0  0  0  0  0  0  0  0  0  0
   -1.8492   -0.0482   -0.3669 C   0  0  0  0  0  0  0  0  0  0  0  0
   -2.3001   -1.3546   -0.1643 C   0  0  0  0  0  0  0  0  0  0  0  0
   -1.7478   -3.4241   -0.0649 H   0  0  0  0  0  0  0  0  0  0  0  0
    0.6725   -2.9920   -0.5320 H   0  0  0  0  0  0  0  0  0  0  0  0
   -0.1529    1.2114   -0.7848 H   0  0  0  0  0  0  0  0  0  0  0  0
   -2.5306    0.7934   -0.3279 H   0  0  0  0  0  0  0  0  0  0  0  0
    4.7658    5.2197   -1.0219 N   0  0  0  0  0  0  0  0  0  0  0  0
    5.4571    6.0796   -0.9573 N   0  0  0  0  0  0  0  0  0  0  0  0
   -3.5992   -1.7049    0.0964 O   0  0  0  0  0  0  0  0  0  0  0  0
   -4.5632   -0.6711    0.1640 C   0  0  0  0  0  0  0  0  0  0  0  0
   -5.5171   -1.1574    0.3753 H   0  0  0  0  0  0  0  0  0  0  0  0
   -4.6424   -0.1242   -0.7857 H   0  0  0  0  0  0  0  0  0  0  0  0
   -4.3392    0.0440    0.9672 H   0  0  0  0  0  0  0  0  0  0  0  0
    1.7517   -0.6917   -0.9359 O   0  0  0  0  0  0  0  0  0  0  0  0
    1.9291    0.2506   -1.0501 H   0  0  0  0  0  0  0  0  0  0  0  0
  1  6  1  0  0  0  0
  1  7  1  0  0  0  0
  2  1  2  0  0  0  0
  3  4  2  0  0  0  0
  3  2  1  0  0  0  0
  4  5  1  0  0  0  0
  5 10  1  0  0  0  0
  5  6  2  0  0  0  0
  6 13  1  0  0  0  0
  8  2  1  0  0  0  0
  9  4  1  0  0  0  0
 11 12  3  0  0  0  0
 13 14  1  0  0  0  0
 14 15  1  0  0  0  0
 14 17  1  0  0  0  0
 16 14  1  0  0  0  0
 18  3  1  0  0  0  0
 19 18  1  0  0  0  0
M  END
