Coordinates from ORCA-job 4-MeO-Ph-N2-OH-B3LYPG-6-31G_dp-MTMO-d009-169-n800
 OpenBabel09051907473D

 19 18  0  0  0  0  0  0  0  0999 V2000
   -2.0390   -3.0552   -0.1797 C   0  0  0  0  0  0  0  0  0  0  0  0
   -0.6905   -2.8462   -0.4297 C   0  0  0  0  0  0  0  0  0  0  0  0
   -0.2025   -1.5450   -0.6134 C   0  0  0  0  0  0  0  0  0  0  0  0
   -1.0845   -0.4684   -0.5437 C   0  0  0  0  0  0  0  0  0  0  0  0
   -2.4464   -0.6761   -0.2919 C   0  0  0  0  0  0  0  0  0  0  0  0
   -2.9303   -1.9733   -0.1081 C   0  0  0  0  0  0  0  0  0  0  0  0
   -2.4302   -4.0571   -0.0344 H   0  0  0  0  0  0  0  0  0  0  0  0
    0.0021   -3.6794   -0.4868 H   0  0  0  0  0  0  0  0  0  0  0  0
   -0.7175    0.5463   -0.6865 H   0  0  0  0  0  0  0  0  0  0  0  0
   -3.1069    0.1817   -0.2446 H   0  0  0  0  0  0  0  0  0  0  0  0
    9.9904   10.6213   -1.5388 N   0  0  0  0  0  0  0  0  0  0  0  0
   10.7416   11.4320   -1.5447 N   0  0  0  0  0  0  0  0  0  0  0  0
   -4.2387   -2.2946    0.1435 O   0  0  0  0  0  0  0  0  0  0  0  0
   -5.1767   -1.2379    0.2224 C   0  0  0  0  0  0  0  0  0  0  0  0
   -6.1428   -1.7028    0.4261 H   0  0  0  0  0  0  0  0  0  0  0  0
   -5.2403   -0.6775   -0.7207 H   0  0  0  0  0  0  0  0  0  0  0  0
   -4.9365   -0.5387    1.0348 H   0  0  0  0  0  0  0  0  0  0  0  0
    1.1398   -1.4017   -0.8560 O   0  0  0  0  0  0  0  0  0  0  0  0
    1.3409   -0.4629   -0.9581 H   0  0  0  0  0  0  0  0  0  0  0  0
  1  6  1  0  0  0  0
  1  7  1  0  0  0  0
  2  1  2  0  0  0  0
  3  4  2  0  0  0  0
  3  2  1  0  0  0  0
  4  5  1  0  0  0  0
  5 10  1  0  0  0  0
  5  6  2  0  0  0  0
  6 13  1  0  0  0  0
  8  2  1  0  0  0  0
  9  4  1  0  0  0  0
 12 11  3  0  0  0  0
 13 14  1  0  0  0  0
 14 15  1  0  0  0  0
 14 17  1  0  0  0  0
 16 14  1  0  0  0  0
 18  3  1  0  0  0  0
 19 18  1  0  0  0  0
M  END
