Coordinates from ORCA-job 4-MeO-Ph-N2-OH-B3LYPG-6-31G_dp-MTMO-d009-169-n800
 OpenBabel09051907473D

 19 18  0  0  0  0  0  0  0  0999 V2000
   -2.0961   -3.1118   -0.1734 C   0  0  0  0  0  0  0  0  0  0  0  0
   -0.7476   -2.9031   -0.4237 C   0  0  0  0  0  0  0  0  0  0  0  0
   -0.2593   -1.6021   -0.6080 C   0  0  0  0  0  0  0  0  0  0  0  0
   -1.1411   -0.5252   -0.5386 C   0  0  0  0  0  0  0  0  0  0  0  0
   -2.5030   -0.7326   -0.2865 C   0  0  0  0  0  0  0  0  0  0  0  0
   -2.9872   -2.0296   -0.1021 C   0  0  0  0  0  0  0  0  0  0  0  0
   -2.4874   -4.1135   -0.0277 H   0  0  0  0  0  0  0  0  0  0  0  0
   -0.0552   -3.7364   -0.4805 H   0  0  0  0  0  0  0  0  0  0  0  0
   -0.7739    0.4893   -0.6818 H   0  0  0  0  0  0  0  0  0  0  0  0
   -3.1633    0.1253   -0.2394 H   0  0  0  0  0  0  0  0  0  0  0  0
   10.4683   11.1061   -1.5909 N   0  0  0  0  0  0  0  0  0  0  0  0
   11.2288   11.9081   -1.5903 N   0  0  0  0  0  0  0  0  0  0  0  0
   -4.2955   -2.3506    0.1498 O   0  0  0  0  0  0  0  0  0  0  0  0
   -5.2334   -1.2937    0.2285 C   0  0  0  0  0  0  0  0  0  0  0  0
   -6.1995   -1.7583    0.4326 H   0  0  0  0  0  0  0  0  0  0  0  0
   -5.2970   -0.7336   -0.7148 H   0  0  0  0  0  0  0  0  0  0  0  0
   -4.9928   -0.5942    1.0406 H   0  0  0  0  0  0  0  0  0  0  0  0
    1.0830   -1.4591   -0.8508 O   0  0  0  0  0  0  0  0  0  0  0  0
    1.2842   -0.5204   -0.9533 H   0  0  0  0  0  0  0  0  0  0  0  0
  1  6  1  0  0  0  0
  1  7  1  0  0  0  0
  2  1  2  0  0  0  0
  3  4  2  0  0  0  0
  3  2  1  0  0  0  0
  4  5  1  0  0  0  0
  5 10  1  0  0  0  0
  5  6  2  0  0  0  0
  6 13  1  0  0  0  0
  8  2  1  0  0  0  0
  9  4  1  0  0  0  0
 11 12  3  0  0  0  0
 13 14  1  0  0  0  0
 14 15  1  0  0  0  0
 14 17  1  0  0  0  0
 16 14  1  0  0  0  0
 18  3  1  0  0  0  0
 19 18  1  0  0  0  0
M  END
