Coordinates from ORCA-job 4-MeO-Ph-N2-OH-B3LYPG-6-31G_dp-MTMO-d009-169-n800
 OpenBabel09051907473D

 19 18  0  0  0  0  0  0  0  0999 V2000
   -1.5896   -2.6119   -0.2198 C   0  0  0  0  0  0  0  0  0  0  0  0
   -0.2423   -2.3982   -0.4722 C   0  0  0  0  0  0  0  0  0  0  0  0
    0.2401   -1.0957   -0.6614 C   0  0  0  0  0  0  0  0  0  0  0  0
   -0.6463   -0.0225   -0.5946 C   0  0  0  0  0  0  0  0  0  0  0  0
   -2.0070   -0.2349   -0.3403 C   0  0  0  0  0  0  0  0  0  0  0  0
   -2.4853   -1.5335   -0.1512 C   0  0  0  0  0  0  0  0  0  0  0  0
   -1.9764   -3.6149   -0.0703 H   0  0  0  0  0  0  0  0  0  0  0  0
    0.4537   -3.2287   -0.5270 H   0  0  0  0  0  0  0  0  0  0  0  0
   -0.2837    0.9931   -0.7416 H   0  0  0  0  0  0  0  0  0  0  0  0
   -2.6710    0.6202   -0.2954 H   0  0  0  0  0  0  0  0  0  0  0  0
    6.2324    6.8586   -1.1599 N   0  0  0  0  0  0  0  0  0  0  0  0
    6.9701    7.6816   -1.1471 N   0  0  0  0  0  0  0  0  0  0  0  0
   -3.7920   -1.8593    0.1030 O   0  0  0  0  0  0  0  0  0  0  0  0
   -4.7345   -0.8063    0.1789 C   0  0  0  0  0  0  0  0  0  0  0  0
   -5.6984   -1.2745    0.3849 H   0  0  0  0  0  0  0  0  0  0  0  0
   -4.8010   -0.2495   -0.7661 H   0  0  0  0  0  0  0  0  0  0  0  0
   -4.4966   -0.1031    0.9886 H   0  0  0  0  0  0  0  0  0  0  0  0
    1.5815   -0.9477   -0.9062 O   0  0  0  0  0  0  0  0  0  0  0  0
    1.7784   -0.0084   -1.0127 H   0  0  0  0  0  0  0  0  0  0  0  0
  1  6  1  0  0  0  0
  1  7  1  0  0  0  0
  2  1  2  0  0  0  0
  3  4  2  0  0  0  0
  3  2  1  0  0  0  0
  4  5  1  0  0  0  0
  5 10  1  0  0  0  0
  5  6  2  0  0  0  0
  6 13  1  0  0  0  0
  8  2  1  0  0  0  0
  9  4  1  0  0  0  0
 11 12  3  0  0  0  0
 13 14  1  0  0  0  0
 14 15  1  0  0  0  0
 14 17  1  0  0  0  0
 16 14  1  0  0  0  0
 18  3  1  0  0  0  0
 19 18  1  0  0  0  0
M  END
