Coordinates from ORCA-job 4-MeO-Ph-N2-OH-B3LYPG-6-31G_dp-MTMO-d009-169-n800
 OpenBabel09051907473D

 19 18  0  0  0  0  0  0  0  0999 V2000
   -1.9683   -2.9852   -0.1872 C   0  0  0  0  0  0  0  0  0  0  0  0
   -0.6198   -2.7757   -0.4370 C   0  0  0  0  0  0  0  0  0  0  0  0
   -0.1321   -1.4744   -0.6203 C   0  0  0  0  0  0  0  0  0  0  0  0
   -1.0144   -0.3980   -0.5504 C   0  0  0  0  0  0  0  0  0  0  0  0
   -2.3763   -0.6061   -0.2988 C   0  0  0  0  0  0  0  0  0  0  0  0
   -2.8599   -1.9036   -0.1154 C   0  0  0  0  0  0  0  0  0  0  0  0
   -2.3592   -3.9872   -0.0422 H   0  0  0  0  0  0  0  0  0  0  0  0
    0.0730   -3.6087   -0.4942 H   0  0  0  0  0  0  0  0  0  0  0  0
   -0.6477    0.6168   -0.6929 H   0  0  0  0  0  0  0  0  0  0  0  0
   -3.0371    0.2514   -0.2513 H   0  0  0  0  0  0  0  0  0  0  0  0
    9.3936   10.0258   -1.4785 N   0  0  0  0  0  0  0  0  0  0  0  0
   10.1432   10.8380   -1.4840 N   0  0  0  0  0  0  0  0  0  0  0  0
   -4.1682   -2.2253    0.1360 O   0  0  0  0  0  0  0  0  0  0  0  0
   -5.1066   -1.1689    0.2150 C   0  0  0  0  0  0  0  0  0  0  0  0
   -6.0725   -1.6341    0.4185 H   0  0  0  0  0  0  0  0  0  0  0  0
   -5.1701   -0.6083   -0.7279 H   0  0  0  0  0  0  0  0  0  0  0  0
   -4.8666   -0.4698    1.0276 H   0  0  0  0  0  0  0  0  0  0  0  0
    1.2102   -1.3306   -0.8627 O   0  0  0  0  0  0  0  0  0  0  0  0
    1.4110   -0.3917   -0.9645 H   0  0  0  0  0  0  0  0  0  0  0  0
  1  6  1  0  0  0  0
  1  7  1  0  0  0  0
  2  1  2  0  0  0  0
  3  4  2  0  0  0  0
  3  2  1  0  0  0  0
  4  5  1  0  0  0  0
  5 10  1  0  0  0  0
  5  6  2  0  0  0  0
  6 13  1  0  0  0  0
  8  2  1  0  0  0  0
  9  4  1  0  0  0  0
 12 11  3  0  0  0  0
 13 14  1  0  0  0  0
 14 15  1  0  0  0  0
 14 17  1  0  0  0  0
 16 14  1  0  0  0  0
 18  3  1  0  0  0  0
 19 18  1  0  0  0  0
M  END
