Coordinates from ORCA-job 4-MeO-Ph-N2-OH-B3LYPG-6-31G_dp-MTMO-d009-169-n800
 OpenBabel09051907473D

 19 18  0  0  0  0  0  0  0  0999 V2000
   -1.0560   -2.1258   -0.2650 C   0  0  0  0  0  0  0  0  0  0  0  0
    0.2618   -1.7552   -0.4910 C   0  0  0  0  0  0  0  0  0  0  0  0
    0.5961   -0.4032   -0.6523 C   0  0  0  0  0  0  0  0  0  0  0  0
   -0.4088    0.5606   -0.5848 C   0  0  0  0  0  0  0  0  0  0  0  0
   -1.7400    0.1898   -0.3564 C   0  0  0  0  0  0  0  0  0  0  0  0
   -2.0698   -1.1578   -0.1951 C   0  0  0  0  0  0  0  0  0  0  0  0
   -1.3276   -3.1688   -0.1367 H   0  0  0  0  0  0  0  0  0  0  0  0
    1.0493   -2.4997   -0.5462 H   0  0  0  0  0  0  0  0  0  0  0  0
   -0.1625    1.6130   -0.7113 H   0  0  0  0  0  0  0  0  0  0  0  0
   -2.4983    0.9622   -0.3088 H   0  0  0  0  0  0  0  0  0  0  0  0
    3.1767    3.0286   -0.9528 N   0  0  0  0  0  0  0  0  0  0  0  0
    3.8639    3.8926   -0.9138 N   0  0  0  0  0  0  0  0  0  0  0  0
   -3.3350   -1.6347    0.0325 O   0  0  0  0  0  0  0  0  0  0  0  0
   -4.3924   -0.6977    0.1062 C   0  0  0  0  0  0  0  0  0  0  0  0
   -5.3004   -1.2762    0.2842 H   0  0  0  0  0  0  0  0  0  0  0  0
   -4.5048   -0.1338   -0.8303 H   0  0  0  0  0  0  0  0  0  0  0  0
   -4.2518    0.0130    0.9323 H   0  0  0  0  0  0  0  0  0  0  0  0
    1.9142   -0.1000   -0.8714 O   0  0  0  0  0  0  0  0  0  0  0  0
    2.0176    0.8577   -0.9497 H   0  0  0  0  0  0  0  0  0  0  0  0
  1  6  1  0  0  0  0
  1  7  1  0  0  0  0
  2  1  2  0  0  0  0
  3  4  2  0  0  0  0
  3  2  1  0  0  0  0
  4  5  1  0  0  0  0
  5 10  1  0  0  0  0
  5  6  2  0  0  0  0
  6 13  1  0  0  0  0
  8  2  1  0  0  0  0
  9  4  1  0  0  0  0
 11 12  3  0  0  0  0
 13 14  1  0  0  0  0
 14 15  1  0  0  0  0
 14 17  1  0  0  0  0
 16 14  1  0  0  0  0
 18  3  1  0  0  0  0
 19 18  1  0  0  0  0
M  END
