Coordinates from ORCA-job 4-MeO-Ph-N2-OH-B3LYPG-6-31G_dp-MTMO-d009-169-n800
 OpenBabel09051907473D

 19 18  0  0  0  0  0  0  0  0999 V2000
   -2.0346   -3.0508   -0.1802 C   0  0  0  0  0  0  0  0  0  0  0  0
   -0.6861   -2.8418   -0.4302 C   0  0  0  0  0  0  0  0  0  0  0  0
   -0.1980   -1.5406   -0.6138 C   0  0  0  0  0  0  0  0  0  0  0  0
   -1.0799   -0.4639   -0.5441 C   0  0  0  0  0  0  0  0  0  0  0  0
   -2.4418   -0.6716   -0.2923 C   0  0  0  0  0  0  0  0  0  0  0  0
   -2.9259   -1.9688   -0.1085 C   0  0  0  0  0  0  0  0  0  0  0  0
   -2.4258   -4.0526   -0.0350 H   0  0  0  0  0  0  0  0  0  0  0  0
    0.0065   -3.6750   -0.4873 H   0  0  0  0  0  0  0  0  0  0  0  0
   -0.7129    0.5507   -0.6868 H   0  0  0  0  0  0  0  0  0  0  0  0
   -3.1023    0.1861   -0.2450 H   0  0  0  0  0  0  0  0  0  0  0  0
    9.9526   10.5830   -1.5347 N   0  0  0  0  0  0  0  0  0  0  0  0
   10.7029   11.3946   -1.5411 N   0  0  0  0  0  0  0  0  0  0  0  0
   -4.2342   -2.2901    0.1430 O   0  0  0  0  0  0  0  0  0  0  0  0
   -5.1722   -1.2334    0.2219 C   0  0  0  0  0  0  0  0  0  0  0  0
   -6.1383   -1.6982    0.4256 H   0  0  0  0  0  0  0  0  0  0  0  0
   -5.2357   -0.6729   -0.7211 H   0  0  0  0  0  0  0  0  0  0  0  0
   -4.9320   -0.5342    1.0344 H   0  0  0  0  0  0  0  0  0  0  0  0
    1.1443   -1.3973   -0.8564 O   0  0  0  0  0  0  0  0  0  0  0  0
    1.3454   -0.4585   -0.9585 H   0  0  0  0  0  0  0  0  0  0  0  0
  1  6  1  0  0  0  0
  1  7  1  0  0  0  0
  2  1  2  0  0  0  0
  3  4  2  0  0  0  0
  3  2  1  0  0  0  0
  4  5  1  0  0  0  0
  5 10  1  0  0  0  0
  5  6  2  0  0  0  0
  6 13  1  0  0  0  0
  8  2  1  0  0  0  0
  9  4  1  0  0  0  0
 12 11  3  0  0  0  0
 13 14  1  0  0  0  0
 14 15  1  0  0  0  0
 14 17  1  0  0  0  0
 16 14  1  0  0  0  0
 18  3  1  0  0  0  0
 19 18  1  0  0  0  0
M  END
