Coordinates from ORCA-job 4-MeO-Ph-N2-OH-B3LYPG-6-31G_dp-MTMO-d009-169-n800
 OpenBabel09051907473D

 19 18  0  0  0  0  0  0  0  0999 V2000
   -1.6849   -2.7055   -0.2130 C   0  0  0  0  0  0  0  0  0  0  0  0
   -0.3370   -2.4935   -0.4641 C   0  0  0  0  0  0  0  0  0  0  0  0
    0.1476   -1.1914   -0.6503 C   0  0  0  0  0  0  0  0  0  0  0  0
   -0.7370   -0.1169   -0.5820 C   0  0  0  0  0  0  0  0  0  0  0  0
   -2.0982   -0.3275   -0.3291 C   0  0  0  0  0  0  0  0  0  0  0  0
   -2.5789   -1.6256   -0.1428 C   0  0  0  0  0  0  0  0  0  0  0  0
   -2.0734   -3.7080   -0.0658 H   0  0  0  0  0  0  0  0  0  0  0  0
    0.3576   -3.3250   -0.5201 H   0  0  0  0  0  0  0  0  0  0  0  0
   -0.3726    0.8984   -0.7268 H   0  0  0  0  0  0  0  0  0  0  0  0
   -2.7608    0.5286   -0.2829 H   0  0  0  0  0  0  0  0  0  0  0  0
    7.0164    7.6519   -1.2382 N   0  0  0  0  0  0  0  0  0  0  0  0
    7.7613    8.4684   -1.2345 N   0  0  0  0  0  0  0  0  0  0  0  0
   -3.8863   -1.9498    0.1099 O   0  0  0  0  0  0  0  0  0  0  0  0
   -4.8270   -0.8953    0.1873 C   0  0  0  0  0  0  0  0  0  0  0  0
   -5.7918   -1.3623    0.3920 H   0  0  0  0  0  0  0  0  0  0  0  0
   -4.8921   -0.3367   -0.7567 H   0  0  0  0  0  0  0  0  0  0  0  0
   -4.5883   -0.1941    0.9985 H   0  0  0  0  0  0  0  0  0  0  0  0
    1.4894   -1.0451   -0.8939 O   0  0  0  0  0  0  0  0  0  0  0  0
    1.6880   -0.1060   -0.9980 H   0  0  0  0  0  0  0  0  0  0  0  0
  1  6  1  0  0  0  0
  1  7  1  0  0  0  0
  2  1  2  0  0  0  0
  3  4  2  0  0  0  0
  3  2  1  0  0  0  0
  4  5  1  0  0  0  0
  5 10  1  0  0  0  0
  5  6  2  0  0  0  0
  6 13  1  0  0  0  0
  8  2  1  0  0  0  0
  9  4  1  0  0  0  0
 11 12  3  0  0  0  0
 13 14  1  0  0  0  0
 14 15  1  0  0  0  0
 14 17  1  0  0  0  0
 16 14  1  0  0  0  0
 18  3  1  0  0  0  0
 19 18  1  0  0  0  0
M  END
