Coordinates from ORCA-job 4-MeO-Ph-N2-OH-B3LYPG-6-31G_dp-MTMO-d009-169-n800
 OpenBabel09051907473D

 19 18  0  0  0  0  0  0  0  0999 V2000
   -1.0457   -2.1273   -0.2405 C   0  0  0  0  0  0  0  0  0  0  0  0
    0.2742   -1.7851   -0.4971 C   0  0  0  0  0  0  0  0  0  0  0  0
    0.6274   -0.4445   -0.7066 C   0  0  0  0  0  0  0  0  0  0  0  0
   -0.3618    0.5368   -0.6556 C   0  0  0  0  0  0  0  0  0  0  0  0
   -1.6949    0.1947   -0.3961 C   0  0  0  0  0  0  0  0  0  0  0  0
   -2.0432   -1.1416   -0.1872 C   0  0  0  0  0  0  0  0  0  0  0  0
   -1.3314   -3.1612   -0.0750 H   0  0  0  0  0  0  0  0  0  0  0  0
    1.0491   -2.5435   -0.5395 H   0  0  0  0  0  0  0  0  0  0  0  0
   -0.1016    1.5804   -0.8199 H   0  0  0  0  0  0  0  0  0  0  0  0
   -2.4401    0.9805   -0.3624 H   0  0  0  0  0  0  0  0  0  0  0  0
    2.9680    2.9712   -0.8731 N   0  0  0  0  0  0  0  0  0  0  0  0
    3.5208    3.9102   -0.6919 N   0  0  0  0  0  0  0  0  0  0  0  0
   -3.3123   -1.5908    0.0731 O   0  0  0  0  0  0  0  0  0  0  0  0
   -4.3542   -0.6353    0.1297 C   0  0  0  0  0  0  0  0  0  0  0  0
   -5.2688   -1.1936    0.3367 H   0  0  0  0  0  0  0  0  0  0  0  0
   -4.4696   -0.0994   -0.8227 H   0  0  0  0  0  0  0  0  0  0  0  0
   -4.1926    0.0985    0.9313 H   0  0  0  0  0  0  0  0  0  0  0  0
    1.9461   -0.1696   -0.9549 O   0  0  0  0  0  0  0  0  0  0  0  0
    2.0629    0.7840   -1.0586 H   0  0  0  0  0  0  0  0  0  0  0  0
  1  6  1  0  0  0  0
  1  7  1  0  0  0  0
  2  1  2  0  0  0  0
  3  4  2  0  0  0  0
  3  2  1  0  0  0  0
  4  5  1  0  0  0  0
  5 10  1  0  0  0  0
  5  6  2  0  0  0  0
  6 13  1  0  0  0  0
  8  2  1  0  0  0  0
  9  4  1  0  0  0  0
 11 12  3  0  0  0  0
 13 14  1  0  0  0  0
 14 15  1  0  0  0  0
 14 17  1  0  0  0  0
 16 14  1  0  0  0  0
 18  3  1  0  0  0  0
 19 18  1  0  0  0  0
M  END
