Coordinates from ORCA-job 4-MeO-Ph-N2-OH-B3LYPG-6-31G_dp-MTMO-d009-169-n800
 OpenBabel09051907473D

 19 18  0  0  0  0  0  0  0  0999 V2000
   -1.9381   -2.9554   -0.1903 C   0  0  0  0  0  0  0  0  0  0  0  0
   -0.5897   -2.7456   -0.4400 C   0  0  0  0  0  0  0  0  0  0  0  0
   -0.1022   -1.4442   -0.6233 C   0  0  0  0  0  0  0  0  0  0  0  0
   -0.9847   -0.3680   -0.5534 C   0  0  0  0  0  0  0  0  0  0  0  0
   -2.3465   -0.5764   -0.3018 C   0  0  0  0  0  0  0  0  0  0  0  0
   -2.8299   -1.8739   -0.1184 C   0  0  0  0  0  0  0  0  0  0  0  0
   -2.3288   -3.9575   -0.0454 H   0  0  0  0  0  0  0  0  0  0  0  0
    0.1033   -3.5785   -0.4973 H   0  0  0  0  0  0  0  0  0  0  0  0
   -0.6181    0.6469   -0.6958 H   0  0  0  0  0  0  0  0  0  0  0  0
   -3.0074    0.2810   -0.2543 H   0  0  0  0  0  0  0  0  0  0  0  0
    9.1394    9.7724   -1.4530 N   0  0  0  0  0  0  0  0  0  0  0  0
    9.8888   10.5848   -1.4578 N   0  0  0  0  0  0  0  0  0  0  0  0
   -4.1381   -2.1958    0.1329 O   0  0  0  0  0  0  0  0  0  0  0  0
   -5.0767   -1.1396    0.2119 C   0  0  0  0  0  0  0  0  0  0  0  0
   -6.0426   -1.6050    0.4153 H   0  0  0  0  0  0  0  0  0  0  0  0
   -5.1403   -0.5790   -0.7310 H   0  0  0  0  0  0  0  0  0  0  0  0
   -4.8369   -0.4405    1.0246 H   0  0  0  0  0  0  0  0  0  0  0  0
    1.2401   -1.3002   -0.8657 O   0  0  0  0  0  0  0  0  0  0  0  0
    1.4407   -0.3612   -0.9674 H   0  0  0  0  0  0  0  0  0  0  0  0
  1  6  1  0  0  0  0
  1  7  1  0  0  0  0
  2  1  2  0  0  0  0
  3  4  2  0  0  0  0
  3  2  1  0  0  0  0
  4  5  1  0  0  0  0
  5 10  1  0  0  0  0
  5  6  2  0  0  0  0
  6 13  1  0  0  0  0
  8  2  1  0  0  0  0
  9  4  1  0  0  0  0
 12 11  3  0  0  0  0
 13 14  1  0  0  0  0
 14 15  1  0  0  0  0
 14 17  1  0  0  0  0
 16 14  1  0  0  0  0
 18  3  1  0  0  0  0
 19 18  1  0  0  0  0
M  END
