Coordinates from ORCA-job 4-MeO-Ph-N2-OH-B3LYPG-6-31G_dp-MTMO-d009-169-n800
 OpenBabel09051907473D

 19 18  0  0  0  0  0  0  0  0999 V2000
   -1.9954   -3.0120   -0.1844 C   0  0  0  0  0  0  0  0  0  0  0  0
   -0.6469   -2.8027   -0.4342 C   0  0  0  0  0  0  0  0  0  0  0  0
   -0.1591   -1.5015   -0.6177 C   0  0  0  0  0  0  0  0  0  0  0  0
   -1.0412   -0.4250   -0.5478 C   0  0  0  0  0  0  0  0  0  0  0  0
   -2.4031   -0.6329   -0.2961 C   0  0  0  0  0  0  0  0  0  0  0  0
   -2.8869   -1.9303   -0.1126 C   0  0  0  0  0  0  0  0  0  0  0  0
   -2.3864   -4.0140   -0.0393 H   0  0  0  0  0  0  0  0  0  0  0  0
    0.0458   -3.6358   -0.4914 H   0  0  0  0  0  0  0  0  0  0  0  0
   -0.6743    0.5897   -0.6903 H   0  0  0  0  0  0  0  0  0  0  0  0
   -3.0637    0.2247   -0.2487 H   0  0  0  0  0  0  0  0  0  0  0  0
    9.6223   10.2537   -1.5014 N   0  0  0  0  0  0  0  0  0  0  0  0
   10.3721   11.0658   -1.5074 N   0  0  0  0  0  0  0  0  0  0  0  0
   -4.1952   -2.2518    0.1388 O   0  0  0  0  0  0  0  0  0  0  0  0
   -5.1334   -1.1952    0.2178 C   0  0  0  0  0  0  0  0  0  0  0  0
   -6.0994   -1.6603    0.4213 H   0  0  0  0  0  0  0  0  0  0  0  0
   -5.1970   -0.6347   -0.7252 H   0  0  0  0  0  0  0  0  0  0  0  0
   -4.8934   -0.4961    1.0304 H   0  0  0  0  0  0  0  0  0  0  0  0
    1.1832   -1.3579   -0.8601 O   0  0  0  0  0  0  0  0  0  0  0  0
    1.3842   -0.4191   -0.9620 H   0  0  0  0  0  0  0  0  0  0  0  0
  1  6  1  0  0  0  0
  1  7  1  0  0  0  0
  2  1  2  0  0  0  0
  3  4  2  0  0  0  0
  3  2  1  0  0  0  0
  4  5  1  0  0  0  0
  5 10  1  0  0  0  0
  5  6  2  0  0  0  0
  6 13  1  0  0  0  0
  8  2  1  0  0  0  0
  9  4  1  0  0  0  0
 12 11  3  0  0  0  0
 13 14  1  0  0  0  0
 14 15  1  0  0  0  0
 14 17  1  0  0  0  0
 16 14  1  0  0  0  0
 18  3  1  0  0  0  0
 19 18  1  0  0  0  0
M  END
