Coordinates from ORCA-job 4-MeO-Ph-N2-OH-B3LYPG-6-31G_dp-MTMO-d009-169-n800
 OpenBabel09051907473D

 19 18  0  0  0  0  0  0  0  0999 V2000
   -1.3567   -2.3914   -0.2232 C   0  0  0  0  0  0  0  0  0  0  0  0
   -0.0165   -2.1439   -0.4829 C   0  0  0  0  0  0  0  0  0  0  0  0
    0.4294   -0.8312   -0.6897 C   0  0  0  0  0  0  0  0  0  0  0  0
   -0.4858    0.2181   -0.6329 C   0  0  0  0  0  0  0  0  0  0  0  0
   -1.8393   -0.0283   -0.3712 C   0  0  0  0  0  0  0  0  0  0  0  0
   -2.2814   -1.3371   -0.1646 C   0  0  0  0  0  0  0  0  0  0  0  0
   -1.7152   -3.4026   -0.0598 H   0  0  0  0  0  0  0  0  0  0  0  0
    0.7019   -2.9557   -0.5299 H   0  0  0  0  0  0  0  0  0  0  0  0
   -0.1518    1.2414   -0.7939 H   0  0  0  0  0  0  0  0  0  0  0  0
   -2.5263    0.8088   -0.3339 H   0  0  0  0  0  0  0  0  0  0  0  0
    4.6366    5.0375   -1.0083 N   0  0  0  0  0  0  0  0  0  0  0  0
    5.3226    5.9010   -0.9358 N   0  0  0  0  0  0  0  0  0  0  0  0
   -3.5779   -1.6954    0.0979 O   0  0  0  0  0  0  0  0  0  0  0  0
   -4.5489   -0.6679    0.1632 C   0  0  0  0  0  0  0  0  0  0  0  0
   -5.4993   -1.1600    0.3760 H   0  0  0  0  0  0  0  0  0  0  0  0
   -4.6319   -0.1239   -0.7880 H   0  0  0  0  0  0  0  0  0  0  0  0
   -4.3294    0.0507    0.9645 H   0  0  0  0  0  0  0  0  0  0  0  0
    1.7654   -0.6494   -0.9409 O   0  0  0  0  0  0  0  0  0  0  0  0
    1.9367    0.2938   -1.0568 H   0  0  0  0  0  0  0  0  0  0  0  0
  1  6  1  0  0  0  0
  1  7  1  0  0  0  0
  2  1  2  0  0  0  0
  3  4  2  0  0  0  0
  3  2  1  0  0  0  0
  4  5  1  0  0  0  0
  5 10  1  0  0  0  0
  5  6  2  0  0  0  0
  6 13  1  0  0  0  0
  8  2  1  0  0  0  0
  9  4  1  0  0  0  0
 11 12  3  0  0  0  0
 13 14  1  0  0  0  0
 14 15  1  0  0  0  0
 14 17  1  0  0  0  0
 16 14  1  0  0  0  0
 18  3  1  0  0  0  0
 19 18  1  0  0  0  0
M  END
