Coordinates from ORCA-job 4-MeO-Ph-N2-OH-B3LYPG-6-31G_dp-MTMO-d009-169-n800
 OpenBabel09051907473D

 19 18  0  0  0  0  0  0  0  0999 V2000
   -1.7717   -2.7910   -0.2060 C   0  0  0  0  0  0  0  0  0  0  0  0
   -0.4235   -2.5799   -0.4562 C   0  0  0  0  0  0  0  0  0  0  0  0
    0.0624   -1.2780   -0.6406 C   0  0  0  0  0  0  0  0  0  0  0  0
   -0.8213   -0.2027   -0.5713 C   0  0  0  0  0  0  0  0  0  0  0  0
   -2.1828   -0.4125   -0.3192 C   0  0  0  0  0  0  0  0  0  0  0  0
   -2.6647   -1.7105   -0.1348 C   0  0  0  0  0  0  0  0  0  0  0  0
   -2.1612   -3.7934   -0.0602 H   0  0  0  0  0  0  0  0  0  0  0  0
    0.2704   -3.4120   -0.5130 H   0  0  0  0  0  0  0  0  0  0  0  0
   -0.4560    0.8124   -0.7146 H   0  0  0  0  0  0  0  0  0  0  0  0
   -2.8447    0.4442   -0.2722 H   0  0  0  0  0  0  0  0  0  0  0  0
    7.7407    8.3772   -1.3117 N   0  0  0  0  0  0  0  0  0  0  0  0
    8.4883    9.1912   -1.3122 N   0  0  0  0  0  0  0  0  0  0  0  0
   -3.9725   -2.0337    0.1170 O   0  0  0  0  0  0  0  0  0  0  0  0
   -4.9123   -0.9785    0.1954 C   0  0  0  0  0  0  0  0  0  0  0  0
   -5.8776   -1.4449    0.3992 H   0  0  0  0  0  0  0  0  0  0  0  0
   -4.9767   -0.4187   -0.7480 H   0  0  0  0  0  0  0  0  0  0  0  0
   -4.6733   -0.2785    1.0075 H   0  0  0  0  0  0  0  0  0  0  0  0
    1.4044   -1.1326   -0.8834 O   0  0  0  0  0  0  0  0  0  0  0  0
    1.6040   -0.1935   -0.9860 H   0  0  0  0  0  0  0  0  0  0  0  0
  1  6  1  0  0  0  0
  1  7  1  0  0  0  0
  2  1  2  0  0  0  0
  3  4  2  0  0  0  0
  3  2  1  0  0  0  0
  4  5  1  0  0  0  0
  5 10  1  0  0  0  0
  5  6  2  0  0  0  0
  6 13  1  0  0  0  0
  8  2  1  0  0  0  0
  9  4  1  0  0  0  0
 12 11  3  0  0  0  0
 13 14  1  0  0  0  0
 14 15  1  0  0  0  0
 14 17  1  0  0  0  0
 16 14  1  0  0  0  0
 18  3  1  0  0  0  0
 19 18  1  0  0  0  0
M  END
