Coordinates from ORCA-job 4-MeO-Ph-N2-OH-B3LYPG-6-31G_dp-MTMO-d009-169-n800
 OpenBabel09051907473D

 19 18  0  0  0  0  0  0  0  0999 V2000
   -1.9834   -3.0001   -0.1856 C   0  0  0  0  0  0  0  0  0  0  0  0
   -0.6349   -2.7907   -0.4355 C   0  0  0  0  0  0  0  0  0  0  0  0
   -0.1471   -1.4894   -0.6188 C   0  0  0  0  0  0  0  0  0  0  0  0
   -1.0293   -0.4130   -0.5489 C   0  0  0  0  0  0  0  0  0  0  0  0
   -2.3912   -0.6210   -0.2973 C   0  0  0  0  0  0  0  0  0  0  0  0
   -2.8749   -1.9184   -0.1138 C   0  0  0  0  0  0  0  0  0  0  0  0
   -2.3743   -4.0021   -0.0406 H   0  0  0  0  0  0  0  0  0  0  0  0
    0.0579   -3.6238   -0.4927 H   0  0  0  0  0  0  0  0  0  0  0  0
   -0.6625    0.6018   -0.6915 H   0  0  0  0  0  0  0  0  0  0  0  0
   -3.0519    0.2366   -0.2499 H   0  0  0  0  0  0  0  0  0  0  0  0
    9.5207   10.1524   -1.4912 N   0  0  0  0  0  0  0  0  0  0  0  0
   10.2704   10.9646   -1.4970 N   0  0  0  0  0  0  0  0  0  0  0  0
   -4.1832   -2.2400    0.1375 O   0  0  0  0  0  0  0  0  0  0  0  0
   -5.1215   -1.1835    0.2166 C   0  0  0  0  0  0  0  0  0  0  0  0
   -6.0875   -1.6487    0.4201 H   0  0  0  0  0  0  0  0  0  0  0  0
   -5.1850   -0.6229   -0.7264 H   0  0  0  0  0  0  0  0  0  0  0  0
   -4.8815   -0.4844    1.0292 H   0  0  0  0  0  0  0  0  0  0  0  0
    1.1952   -1.3458   -0.8612 O   0  0  0  0  0  0  0  0  0  0  0  0
    1.3961   -0.4069   -0.9631 H   0  0  0  0  0  0  0  0  0  0  0  0
  1  6  1  0  0  0  0
  1  7  1  0  0  0  0
  2  1  2  0  0  0  0
  3  4  2  0  0  0  0
  3  2  1  0  0  0  0
  4  5  1  0  0  0  0
  5 10  1  0  0  0  0
  5  6  2  0  0  0  0
  6 13  1  0  0  0  0
  8  2  1  0  0  0  0
  9  4  1  0  0  0  0
 12 11  3  0  0  0  0
 13 14  1  0  0  0  0
 14 15  1  0  0  0  0
 14 17  1  0  0  0  0
 16 14  1  0  0  0  0
 18  3  1  0  0  0  0
 19 18  1  0  0  0  0
M  END
