Coordinates from ORCA-job 4-MeO-Ph-N2-OH-B3LYPG-6-31G_dp-MTMO-d009-169-n800
 OpenBabel09051907473D

 19 18  0  0  0  0  0  0  0  0999 V2000
   -1.5678   -2.5907   -0.2212 C   0  0  0  0  0  0  0  0  0  0  0  0
   -0.2207   -2.3762   -0.4739 C   0  0  0  0  0  0  0  0  0  0  0  0
    0.2609   -1.0736   -0.6639 C   0  0  0  0  0  0  0  0  0  0  0  0
   -0.6261   -0.0008   -0.5975 C   0  0  0  0  0  0  0  0  0  0  0  0
   -1.9867   -0.2140   -0.3429 C   0  0  0  0  0  0  0  0  0  0  0  0
   -2.4642   -1.5127   -0.1530 C   0  0  0  0  0  0  0  0  0  0  0  0
   -1.9540   -3.5938   -0.0711 H   0  0  0  0  0  0  0  0  0  0  0  0
    0.4758   -3.2064   -0.5285 H   0  0  0  0  0  0  0  0  0  0  0  0
   -0.2642    1.0149   -0.7452 H   0  0  0  0  0  0  0  0  0  0  0  0
   -2.6512    0.6408   -0.2983 H   0  0  0  0  0  0  0  0  0  0  0  0
    6.0568    6.6784   -1.1428 N   0  0  0  0  0  0  0  0  0  0  0  0
    6.7918    7.5037   -1.1268 N   0  0  0  0  0  0  0  0  0  0  0  0
   -3.7707   -1.8392    0.1016 O   0  0  0  0  0  0  0  0  0  0  0  0
   -4.7137   -0.7867    0.1770 C   0  0  0  0  0  0  0  0  0  0  0  0
   -5.6774   -1.2554    0.3834 H   0  0  0  0  0  0  0  0  0  0  0  0
   -4.7808   -0.2305   -0.7683 H   0  0  0  0  0  0  0  0  0  0  0  0
   -4.4762   -0.0831    0.9864 H   0  0  0  0  0  0  0  0  0  0  0  0
    1.6021   -0.9248   -0.9090 O   0  0  0  0  0  0  0  0  0  0  0  0
    1.7984    0.0145   -1.0161 H   0  0  0  0  0  0  0  0  0  0  0  0
  1  6  1  0  0  0  0
  1  7  1  0  0  0  0
  2  1  2  0  0  0  0
  3  4  2  0  0  0  0
  3  2  1  0  0  0  0
  4  5  1  0  0  0  0
  5 10  1  0  0  0  0
  5  6  2  0  0  0  0
  6 13  1  0  0  0  0
  8  2  1  0  0  0  0
  9  4  1  0  0  0  0
 11 12  3  0  0  0  0
 13 14  1  0  0  0  0
 14 15  1  0  0  0  0
 14 17  1  0  0  0  0
 16 14  1  0  0  0  0
 18  3  1  0  0  0  0
 19 18  1  0  0  0  0
M  END
