Coordinates from ORCA-job 4-MeO-Ph-N2-OH-B3LYPG-6-31G_dp-MTMO-d009-169-n800
 OpenBabel09051907473D

 19 18  0  0  0  0  0  0  0  0999 V2000
   -1.2165   -2.2633   -0.2057 C   0  0  0  0  0  0  0  0  0  0  0  0
    0.1097   -1.9585   -0.4762 C   0  0  0  0  0  0  0  0  0  0  0  0
    0.4928   -0.6306   -0.7104 C   0  0  0  0  0  0  0  0  0  0  0  0
   -0.4704    0.3757   -0.6697 C   0  0  0  0  0  0  0  0  0  0  0  0
   -1.8098    0.0713   -0.3968 C   0  0  0  0  0  0  0  0  0  0  0  0
   -2.1893   -1.2524   -0.1632 C   0  0  0  0  0  0  0  0  0  0  0  0
   -1.5266   -3.2868   -0.0208 H   0  0  0  0  0  0  0  0  0  0  0  0
    0.8652   -2.7364   -0.5105 H   0  0  0  0  0  0  0  0  0  0  0  0
   -0.1850    1.4100   -0.8523 H   0  0  0  0  0  0  0  0  0  0  0  0
   -2.5350    0.8760   -0.3719 H   0  0  0  0  0  0  0  0  0  0  0  0
    4.0551    4.0999   -0.9415 N   0  0  0  0  0  0  0  0  0  0  0  0
    4.7338    4.9641   -0.8231 N   0  0  0  0  0  0  0  0  0  0  0  0
   -3.4668   -1.6657    0.1120 O   0  0  0  0  0  0  0  0  0  0  0  0
   -4.4849   -0.6841    0.1605 C   0  0  0  0  0  0  0  0  0  0  0  0
   -5.4110   -1.2166    0.3837 H   0  0  0  0  0  0  0  0  0  0  0  0
   -4.5946   -0.1618   -0.8000 H   0  0  0  0  0  0  0  0  0  0  0  0
   -4.2990    0.0586    0.9483 H   0  0  0  0  0  0  0  0  0  0  0  0
    1.8178   -0.3915   -0.9707 O   0  0  0  0  0  0  0  0  0  0  0  0
    1.9466    0.5565   -1.1019 H   0  0  0  0  0  0  0  0  0  0  0  0
  1  6  1  0  0  0  0
  1  7  1  0  0  0  0
  2  1  2  0  0  0  0
  3  4  2  0  0  0  0
  3  2  1  0  0  0  0
  4  5  1  0  0  0  0
  5 10  1  0  0  0  0
  5  6  2  0  0  0  0
  6 13  1  0  0  0  0
  8  2  1  0  0  0  0
  9  4  1  0  0  0  0
 11 12  3  0  0  0  0
 13 14  1  0  0  0  0
 14 15  1  0  0  0  0
 14 17  1  0  0  0  0
 16 14  1  0  0  0  0
 18  3  1  0  0  0  0
 19 18  1  0  0  0  0
M  END
