Coordinates from ORCA-job 4-MeO-Ph-N2-OH-B3LYPG-6-31G_dp-MTMO-d009-169-n800
 OpenBabel09051907473D

 19 18  0  0  0  0  0  0  0  0999 V2000
   -1.0569   -2.1207   -0.4502 C   0  0  0  0  0  0  0  0  0  0  0  0
    0.2890   -1.7948   -0.5390 C   0  0  0  0  0  0  0  0  0  0  0  0
    0.7003   -0.4582   -0.4334 C   0  0  0  0  0  0  0  0  0  0  0  0
   -0.2581    0.5354   -0.2368 C   0  0  0  0  0  0  0  0  0  0  0  0
   -1.6175    0.2097   -0.1479 C   0  0  0  0  0  0  0  0  0  0  0  0
   -2.0236   -1.1224   -0.2544 C   0  0  0  0  0  0  0  0  0  0  0  0
   -1.3873   -3.1513   -0.5323 H   0  0  0  0  0  0  0  0  0  0  0  0
    1.0399   -2.5628   -0.6923 H   0  0  0  0  0  0  0  0  0  0  0  0
    0.0463    1.5759   -0.1486 H   0  0  0  0  0  0  0  0  0  0  0  0
   -2.3377    1.0046    0.0054 H   0  0  0  0  0  0  0  0  0  0  0  0
    2.7065    2.8690   -1.2188 N   0  0  0  0  0  0  0  0  0  0  0  0
    3.0021    3.7939   -1.7452 N   0  0  0  0  0  0  0  0  0  0  0  0
   -3.3227   -1.5554   -0.1825 O   0  0  0  0  0  0  0  0  0  0  0  0
   -4.3339   -0.5834    0.0039 C   0  0  0  0  0  0  0  0  0  0  0  0
   -5.2794   -1.1278    0.0288 H   0  0  0  0  0  0  0  0  0  0  0  0
   -4.3595    0.1427   -0.8209 H   0  0  0  0  0  0  0  0  0  0  0  0
   -4.2085   -0.0398    0.9505 H   0  0  0  0  0  0  0  0  0  0  0  0
    2.0423   -0.2013   -0.5270 O   0  0  0  0  0  0  0  0  0  0  0  0
    2.1909    0.7514   -0.4694 H   0  0  0  0  0  0  0  0  0  0  0  0
  1  6  1  0  0  0  0
  2  1  2  0  0  0  0
  2  3  1  0  0  0  0
  3  4  2  0  0  0  0
  4  9  1  0  0  0  0
  4  5  1  0  0  0  0
  5 10  1  0  0  0  0
  6 13  1  0  0  0  0
  6  5  2  0  0  0  0
  7  1  1  0  0  0  0
  8  2  1  0  0  0  0
 12 11  3  0  0  0  0
 13 14  1  0  0  0  0
 14 15  1  0  0  0  0
 14 17  1  0  0  0  0
 16 14  1  0  0  0  0
 18 19  1  0  0  0  0
 18  3  1  0  0  0  0
M  END
