Coordinates from ORCA-job 4-MeO-Ph-N2-OH-B3LYPG-6-31G_dp-MTMO-d009-169-n800
 OpenBabel09051907473D

 19 18  0  0  0  0  0  0  0  0999 V2000
   -1.8444   -2.8628   -0.1994 C   0  0  0  0  0  0  0  0  0  0  0  0
   -0.4961   -2.6523   -0.4493 C   0  0  0  0  0  0  0  0  0  0  0  0
   -0.0094   -1.3506   -0.6329 C   0  0  0  0  0  0  0  0  0  0  0  0
   -0.8925   -0.2749   -0.5631 C   0  0  0  0  0  0  0  0  0  0  0  0
   -2.2542   -0.4840   -0.3114 C   0  0  0  0  0  0  0  0  0  0  0  0
   -2.7369   -1.7818   -0.1277 C   0  0  0  0  0  0  0  0  0  0  0  0
   -2.2345   -3.8651   -0.0543 H   0  0  0  0  0  0  0  0  0  0  0  0
    0.1974   -3.4847   -0.5064 H   0  0  0  0  0  0  0  0  0  0  0  0
   -0.5266    0.7402   -0.7058 H   0  0  0  0  0  0  0  0  0  0  0  0
   -2.9157    0.3730   -0.2641 H   0  0  0  0  0  0  0  0  0  0  0  0
    8.3511    8.9865   -1.3735 N   0  0  0  0  0  0  0  0  0  0  0  0
    9.0999    9.7996   -1.3762 N   0  0  0  0  0  0  0  0  0  0  0  0
   -4.0449   -2.1045    0.1236 O   0  0  0  0  0  0  0  0  0  0  0  0
   -4.9841   -1.0488    0.2024 C   0  0  0  0  0  0  0  0  0  0  0  0
   -5.9497   -1.5148    0.4059 H   0  0  0  0  0  0  0  0  0  0  0  0
   -5.0480   -0.4884   -0.7406 H   0  0  0  0  0  0  0  0  0  0  0  0
   -4.7448   -0.3494    1.0150 H   0  0  0  0  0  0  0  0  0  0  0  0
    1.3327   -1.2058   -0.8753 O   0  0  0  0  0  0  0  0  0  0  0  0
    1.5328   -0.2667   -0.9772 H   0  0  0  0  0  0  0  0  0  0  0  0
  1  6  1  0  0  0  0
  1  7  1  0  0  0  0
  2  1  2  0  0  0  0
  3  4  2  0  0  0  0
  3  2  1  0  0  0  0
  4  5  1  0  0  0  0
  5 10  1  0  0  0  0
  5  6  2  0  0  0  0
  6 13  1  0  0  0  0
  8  2  1  0  0  0  0
  9  4  1  0  0  0  0
 12 11  3  0  0  0  0
 13 14  1  0  0  0  0
 14 15  1  0  0  0  0
 14 17  1  0  0  0  0
 16 14  1  0  0  0  0
 18  3  1  0  0  0  0
 19 18  1  0  0  0  0
M  END
