Coordinates from ORCA-job 4-MeO-Ph-N2-OH-B3LYPG-6-31G_dp-MTMO-d009-169-n800
 OpenBabel09051907473D

 19 18  0  0  0  0  0  0  0  0999 V2000
   -1.8989   -2.9166   -0.1942 C   0  0  0  0  0  0  0  0  0  0  0  0
   -0.5505   -2.7065   -0.4440 C   0  0  0  0  0  0  0  0  0  0  0  0
   -0.0633   -1.4050   -0.6273 C   0  0  0  0  0  0  0  0  0  0  0  0
   -0.9460   -0.3289   -0.5573 C   0  0  0  0  0  0  0  0  0  0  0  0
   -2.3078   -0.5377   -0.3057 C   0  0  0  0  0  0  0  0  0  0  0  0
   -2.7909   -1.8353   -0.1224 C   0  0  0  0  0  0  0  0  0  0  0  0
   -2.2893   -3.9187   -0.0493 H   0  0  0  0  0  0  0  0  0  0  0  0
    0.1427   -3.5392   -0.5012 H   0  0  0  0  0  0  0  0  0  0  0  0
   -0.5797    0.6860   -0.6998 H   0  0  0  0  0  0  0  0  0  0  0  0
   -2.9689    0.3196   -0.2583 H   0  0  0  0  0  0  0  0  0  0  0  0
    8.8089    9.4430   -1.4197 N   0  0  0  0  0  0  0  0  0  0  0  0
    9.5580   10.2556   -1.4237 N   0  0  0  0  0  0  0  0  0  0  0  0
   -4.0991   -2.1576    0.1289 O   0  0  0  0  0  0  0  0  0  0  0  0
   -5.0379   -1.1015    0.2079 C   0  0  0  0  0  0  0  0  0  0  0  0
   -6.0037   -1.5671    0.4113 H   0  0  0  0  0  0  0  0  0  0  0  0
   -5.1016   -0.5409   -0.7350 H   0  0  0  0  0  0  0  0  0  0  0  0
   -4.7983   -0.4023    1.0206 H   0  0  0  0  0  0  0  0  0  0  0  0
    1.2789   -1.2606   -0.8696 O   0  0  0  0  0  0  0  0  0  0  0  0
    1.4794   -0.3216   -0.9714 H   0  0  0  0  0  0  0  0  0  0  0  0
  1  6  1  0  0  0  0
  1  7  1  0  0  0  0
  2  1  2  0  0  0  0
  3  4  2  0  0  0  0
  3  2  1  0  0  0  0
  4  5  1  0  0  0  0
  5 10  1  0  0  0  0
  5  6  2  0  0  0  0
  6 13  1  0  0  0  0
  8  2  1  0  0  0  0
  9  4  1  0  0  0  0
 12 11  3  0  0  0  0
 13 14  1  0  0  0  0
 14 15  1  0  0  0  0
 14 17  1  0  0  0  0
 16 14  1  0  0  0  0
 18  3  1  0  0  0  0
 19 18  1  0  0  0  0
M  END
