Coordinates from ORCA-job 4-MeO-Ph-N2-OH-B3LYPG-6-31G_dp-MTMO-d009-169-n800
 OpenBabel09051907463D

 19 18  0  0  0  0  0  0  0  0999 V2000
   -1.1701   -1.6824   -1.2973 C   0  0  0  0  0  0  0  0  0  0  0  0
    0.1213   -1.2170   -1.5410 C   0  0  0  0  0  0  0  0  0  0  0  0
    0.4625    0.0187   -1.0271 C   0  0  0  0  0  0  0  0  0  0  0  0
   -0.3937    0.8380   -0.3265 C   0  0  0  0  0  0  0  0  0  0  0  0
   -1.6943    0.3661   -0.0919 C   0  0  0  0  0  0  0  0  0  0  0  0
   -2.0794   -0.8931   -0.5738 C   0  0  0  0  0  0  0  0  0  0  0  0
   -1.5000   -2.6483   -1.6650 H   0  0  0  0  0  0  0  0  0  0  0  0
    0.8310   -1.8040   -2.1138 H   0  0  0  0  0  0  0  0  0  0  0  0
   -0.0800    1.8035    0.0488 H   0  0  0  0  0  0  0  0  0  0  0  0
   -2.3859    0.9876    0.4647 H   0  0  0  0  0  0  0  0  0  0  0  0
    2.2750    0.6237   -1.6223 N   0  0  0  0  0  0  0  0  0  0  0  0
    3.0026    1.0309   -0.7556 N   0  0  0  0  0  0  0  0  0  0  0  0
   -3.3172   -1.4410   -0.3971 O   0  0  0  0  0  0  0  0  0  0  0  0
   -4.2887   -0.6953    0.3184 C   0  0  0  0  0  0  0  0  0  0  0  0
   -5.1905   -1.3096    0.3310 H   0  0  0  0  0  0  0  0  0  0  0  0
   -4.5112    0.2602   -0.1739 H   0  0  0  0  0  0  0  0  0  0  0  0
   -3.9713   -0.5006    1.3510 H   0  0  0  0  0  0  0  0  0  0  0  0
    2.4849    1.0388    0.5785 O   0  0  0  0  0  0  0  0  0  0  0  0
    3.2373    1.3885    1.0825 H   0  0  0  0  0  0  0  0  0  0  0  0
  1  6  1  0  0  0  0
  2  1  2  0  0  0  0
  2  3  1  0  0  0  0
  3  4  2  0  0  0  0
  4  5  1  0  0  0  0
  4  9  1  0  0  0  0
  5 10  1  0  0  0  0
  6 13  1  0  0  0  0
  6  5  2  0  0  0  0
  7  1  1  0  0  0  0
  8  2  1  0  0  0  0
 11 12  2  0  0  0  0
 12 18  1  0  0  0  0
 13 14  1  0  0  0  0
 14 15  1  0  0  0  0
 14 17  1  0  0  0  0
 16 14  1  0  0  0  0
 18 19  1  0  0  0  0
M  RAD  2   3   2  11   2
M  END
