Coordinates from ORCA-job 4-MeO-Ph-N2-OH-B3LYPG-6-31G_dp-MTMO-d009-169-n800
 OpenBabel09051907473D

 19 18  0  0  0  0  0  0  0  0999 V2000
   -1.1988   -2.2469   -0.2041 C   0  0  0  0  0  0  0  0  0  0  0  0
    0.1259   -1.9372   -0.4761 C   0  0  0  0  0  0  0  0  0  0  0  0
    0.5034   -0.6083   -0.7136 C   0  0  0  0  0  0  0  0  0  0  0  0
   -0.4640    0.3940   -0.6748 C   0  0  0  0  0  0  0  0  0  0  0  0
   -1.8021    0.0847   -0.4003 C   0  0  0  0  0  0  0  0  0  0  0  0
   -2.1758   -1.2401   -0.1633 C   0  0  0  0  0  0  0  0  0  0  0  0
   -1.5045   -3.2713   -0.0166 H   0  0  0  0  0  0  0  0  0  0  0  0
    0.8848   -2.7121   -0.5089 H   0  0  0  0  0  0  0  0  0  0  0  0
   -0.1830    1.4290   -0.8603 H   0  0  0  0  0  0  0  0  0  0  0  0
   -2.5306    0.8863   -0.3768 H   0  0  0  0  0  0  0  0  0  0  0  0
    3.9611    3.9758   -0.9306 N   0  0  0  0  0  0  0  0  0  0  0  0
    4.6348    4.8430   -0.8062 N   0  0  0  0  0  0  0  0  0  0  0  0
   -3.4514   -1.6581    0.1137 O   0  0  0  0  0  0  0  0  0  0  0  0
   -4.4736   -0.6807    0.1602 C   0  0  0  0  0  0  0  0  0  0  0  0
   -5.3973   -1.2166    0.3851 H   0  0  0  0  0  0  0  0  0  0  0  0
   -4.5860   -0.1612   -0.8014 H   0  0  0  0  0  0  0  0  0  0  0  0
   -4.2906    0.0645    0.9463 H   0  0  0  0  0  0  0  0  0  0  0  0
    1.8272   -0.3643   -0.9753 O   0  0  0  0  0  0  0  0  0  0  0  0
    1.9528    0.5841   -1.1074 H   0  0  0  0  0  0  0  0  0  0  0  0
  1  6  1  0  0  0  0
  1  7  1  0  0  0  0
  2  1  2  0  0  0  0
  3  4  2  0  0  0  0
  3  2  1  0  0  0  0
  4  5  1  0  0  0  0
  5 10  1  0  0  0  0
  5  6  2  0  0  0  0
  6 13  1  0  0  0  0
  8  2  1  0  0  0  0
  9  4  1  0  0  0  0
 11 12  3  0  0  0  0
 13 14  1  0  0  0  0
 14 15  1  0  0  0  0
 14 17  1  0  0  0  0
 16 14  1  0  0  0  0
 18  3  1  0  0  0  0
 19 18  1  0  0  0  0
M  END
