Coordinates from ORCA-job 4-MeO-Ph-N2-OH-B3LYPG-6-31G_dp-MTMO-d009-169-n800
 OpenBabel09051907473D

 19 18  0  0  0  0  0  0  0  0999 V2000
   -1.7959   -2.8149   -0.2038 C   0  0  0  0  0  0  0  0  0  0  0  0
   -0.4477   -2.6040   -0.4539 C   0  0  0  0  0  0  0  0  0  0  0  0
    0.0384   -1.3022   -0.6380 C   0  0  0  0  0  0  0  0  0  0  0  0
   -0.8451   -0.2268   -0.5685 C   0  0  0  0  0  0  0  0  0  0  0  0
   -2.2066   -0.4364   -0.3166 C   0  0  0  0  0  0  0  0  0  0  0  0
   -2.6888   -1.7343   -0.1324 C   0  0  0  0  0  0  0  0  0  0  0  0
   -2.1856   -3.8173   -0.0583 H   0  0  0  0  0  0  0  0  0  0  0  0
    0.2461   -3.4362   -0.5109 H   0  0  0  0  0  0  0  0  0  0  0  0
   -0.4795    0.7883   -0.7116 H   0  0  0  0  0  0  0  0  0  0  0  0
   -2.8684    0.4204   -0.2694 H   0  0  0  0  0  0  0  0  0  0  0  0
    7.9442    8.5804   -1.3323 N   0  0  0  0  0  0  0  0  0  0  0  0
    8.6923    9.3940   -1.3336 N   0  0  0  0  0  0  0  0  0  0  0  0
   -3.9966   -2.0574    0.1192 O   0  0  0  0  0  0  0  0  0  0  0  0
   -4.9362   -1.0020    0.1977 C   0  0  0  0  0  0  0  0  0  0  0  0
   -5.9017   -1.4682    0.4014 H   0  0  0  0  0  0  0  0  0  0  0  0
   -5.0005   -0.4419   -0.7455 H   0  0  0  0  0  0  0  0  0  0  0  0
   -4.6971   -0.3022    1.0100 H   0  0  0  0  0  0  0  0  0  0  0  0
    1.3805   -1.1570   -0.8807 O   0  0  0  0  0  0  0  0  0  0  0  0
    1.5803   -0.2179   -0.9830 H   0  0  0  0  0  0  0  0  0  0  0  0
  1  6  1  0  0  0  0
  1  7  1  0  0  0  0
  2  1  2  0  0  0  0
  3  4  2  0  0  0  0
  3  2  1  0  0  0  0
  4  5  1  0  0  0  0
  5 10  1  0  0  0  0
  5  6  2  0  0  0  0
  6 13  1  0  0  0  0
  8  2  1  0  0  0  0
  9  4  1  0  0  0  0
 12 11  3  0  0  0  0
 13 14  1  0  0  0  0
 14 15  1  0  0  0  0
 14 17  1  0  0  0  0
 16 14  1  0  0  0  0
 18  3  1  0  0  0  0
 19 18  1  0  0  0  0
M  END
