Coordinates from ORCA-job 4-MeO-Ph-N2-OH-B3LYPG-6-31G_dp-MTMO-d009-169-n800
 OpenBabel09051907463D

 19 18  0  0  0  0  0  0  0  0999 V2000
   -1.1617   -1.6794   -1.2537 C   0  0  0  0  0  0  0  0  0  0  0  0
    0.1219   -1.1930   -1.5082 C   0  0  0  0  0  0  0  0  0  0  0  0
    0.4171    0.0672   -1.0346 C   0  0  0  0  0  0  0  0  0  0  0  0
   -0.4519    0.8910   -0.3629 C   0  0  0  0  0  0  0  0  0  0  0  0
   -1.7425    0.3936   -0.1158 C   0  0  0  0  0  0  0  0  0  0  0  0
   -2.0931   -0.8895   -0.5592 C   0  0  0  0  0  0  0  0  0  0  0  0
   -1.4659   -2.6650   -1.5906 H   0  0  0  0  0  0  0  0  0  0  0  0
    0.8479   -1.7847   -2.0547 H   0  0  0  0  0  0  0  0  0  0  0  0
   -0.1638    1.8770   -0.0197 H   0  0  0  0  0  0  0  0  0  0  0  0
   -2.4513    1.0148    0.4193 H   0  0  0  0  0  0  0  0  0  0  0  0
    2.3672    0.8022   -1.6797 N   0  0  0  0  0  0  0  0  0  0  0  0
    3.0889    1.0775   -0.7694 N   0  0  0  0  0  0  0  0  0  0  0  0
   -3.3177   -1.4631   -0.3693 O   0  0  0  0  0  0  0  0  0  0  0  0
   -4.3096   -0.7204    0.3208 C   0  0  0  0  0  0  0  0  0  0  0  0
   -5.1956   -1.3566    0.3511 H   0  0  0  0  0  0  0  0  0  0  0  0
   -4.5550    0.2134   -0.2016 H   0  0  0  0  0  0  0  0  0  0  0  0
   -4.0000   -0.4855    1.3474 H   0  0  0  0  0  0  0  0  0  0  0  0
    2.5733    0.8934    0.5597 O   0  0  0  0  0  0  0  0  0  0  0  0
    3.3240    1.1715    1.1107 H   0  0  0  0  0  0  0  0  0  0  0  0
  1  6  1  0  0  0  0
  2  1  2  0  0  0  0
  2  3  1  0  0  0  0
  3  4  2  0  0  0  0
  4  5  1  0  0  0  0
  4  9  1  0  0  0  0
  5 10  1  0  0  0  0
  6 13  1  0  0  0  0
  6  5  2  0  0  0  0
  7  1  1  0  0  0  0
  8  2  1  0  0  0  0
 11 12  2  0  0  0  0
 12 18  1  0  0  0  0
 13 14  1  0  0  0  0
 14 15  1  0  0  0  0
 14 17  1  0  0  0  0
 16 14  1  0  0  0  0
 18 19  1  0  0  0  0
M  RAD  2   3   2  11   2
M  END
