Coordinates from ORCA-job 4-MeO-Ph-N2-OH-B3LYPG-6-31G_dp-MTMO-d009-169-n800
 OpenBabel09051907473D

 19 18  0  0  0  0  0  0  0  0999 V2000
   -1.7124   -2.7325   -0.2109 C   0  0  0  0  0  0  0  0  0  0  0  0
   -0.3644   -2.5208   -0.4616 C   0  0  0  0  0  0  0  0  0  0  0  0
    0.1207   -1.2189   -0.6472 C   0  0  0  0  0  0  0  0  0  0  0  0
   -0.7635   -0.1440   -0.5785 C   0  0  0  0  0  0  0  0  0  0  0  0
   -2.1249   -0.3544   -0.3259 C   0  0  0  0  0  0  0  0  0  0  0  0
   -2.6060   -1.6524   -0.1403 C   0  0  0  0  0  0  0  0  0  0  0  0
   -2.1013   -3.7350   -0.0642 H   0  0  0  0  0  0  0  0  0  0  0  0
    0.3300   -3.3526   -0.5180 H   0  0  0  0  0  0  0  0  0  0  0  0
   -0.3988    0.8712   -0.7228 H   0  0  0  0  0  0  0  0  0  0  0  0
   -2.7872    0.5020   -0.2794 H   0  0  0  0  0  0  0  0  0  0  0  0
    7.2449    7.8812   -1.2613 N   0  0  0  0  0  0  0  0  0  0  0  0
    7.9910    8.6967   -1.2592 N   0  0  0  0  0  0  0  0  0  0  0  0
   -3.9135   -1.9763    0.1121 O   0  0  0  0  0  0  0  0  0  0  0  0
   -4.8539   -0.9215    0.1898 C   0  0  0  0  0  0  0  0  0  0  0  0
   -5.8189   -1.3883    0.3942 H   0  0  0  0  0  0  0  0  0  0  0  0
   -4.9188   -0.3624   -0.7539 H   0  0  0  0  0  0  0  0  0  0  0  0
   -4.6151   -0.2208    1.0014 H   0  0  0  0  0  0  0  0  0  0  0  0
    1.4626   -1.0729   -0.8905 O   0  0  0  0  0  0  0  0  0  0  0  0
    1.6616   -0.1338   -0.9940 H   0  0  0  0  0  0  0  0  0  0  0  0
  1  6  1  0  0  0  0
  1  7  1  0  0  0  0
  2  1  2  0  0  0  0
  3  4  2  0  0  0  0
  3  2  1  0  0  0  0
  4  5  1  0  0  0  0
  5 10  1  0  0  0  0
  5  6  2  0  0  0  0
  6 13  1  0  0  0  0
  8  2  1  0  0  0  0
  9  4  1  0  0  0  0
 11 12  3  0  0  0  0
 13 14  1  0  0  0  0
 14 15  1  0  0  0  0
 14 17  1  0  0  0  0
 16 14  1  0  0  0  0
 18  3  1  0  0  0  0
 19 18  1  0  0  0  0
M  END
