Coordinates from ORCA-job 4-MeO-Ph-N2-OH-B3LYPG-6-31G_dp-MTMO-d009-169-n800
 OpenBabel09051907463D

 19 18  0  0  0  0  0  0  0  0999 V2000
   -0.8380   -1.7209   -0.9155 C   0  0  0  0  0  0  0  0  0  0  0  0
    0.5002   -1.4211   -0.7037 C   0  0  0  0  0  0  0  0  0  0  0  0
    0.8606   -0.2632   -0.0007 C   0  0  0  0  0  0  0  0  0  0  0  0
   -0.1386    0.5796    0.4844 C   0  0  0  0  0  0  0  0  0  0  0  0
   -1.4900    0.2824    0.2690 C   0  0  0  0  0  0  0  0  0  0  0  0
   -1.8462   -0.8720   -0.4324 C   0  0  0  0  0  0  0  0  0  0  0  0
   -1.1306   -2.6144   -1.4574 H   0  0  0  0  0  0  0  0  0  0  0  0
    1.2831   -2.0734   -1.0761 H   0  0  0  0  0  0  0  0  0  0  0  0
    0.1287    1.4797    1.0337 H   0  0  0  0  0  0  0  0  0  0  0  0
   -2.2435    0.9582    0.6550 H   0  0  0  0  0  0  0  0  0  0  0  0
    1.5720    1.8255   -1.8554 N   0  0  0  0  0  0  0  0  0  0  0  0
    1.4114    1.6282   -2.9311 N   0  0  0  0  0  0  0  0  0  0  0  0
   -3.1324   -1.2617   -0.6999 O   0  0  0  0  0  0  0  0  0  0  0  0
   -4.1855   -0.4444   -0.2227 C   0  0  0  0  0  0  0  0  0  0  0  0
   -5.1119   -0.9300   -0.5340 H   0  0  0  0  0  0  0  0  0  0  0  0
   -4.1473    0.5642   -0.6554 H   0  0  0  0  0  0  0  0  0  0  0  0
   -4.1729   -0.3620    0.8729 H   0  0  0  0  0  0  0  0  0  0  0  0
    2.1985   -0.0363    0.1925 O   0  0  0  0  0  0  0  0  0  0  0  0
    2.3145    0.8461    0.5665 H   0  0  0  0  0  0  0  0  0  0  0  0
  1  2  2  0  0  0  0
  1  6  1  0  0  0  0
  2  3  1  0  0  0  0
  3 18  1  0  0  0  0
  3  4  2  0  0  0  0
  4  9  1  0  0  0  0
  5  4  1  0  0  0  0
  5 10  1  0  0  0  0
  6  5  2  0  0  0  0
  7  1  1  0  0  0  0
  8  2  1  0  0  0  0
 12 11  3  0  0  0  0
 13  6  1  0  0  0  0
 13 14  1  0  0  0  0
 14 17  1  0  0  0  0
 15 14  1  0  0  0  0
 16 14  1  0  0  0  0
 18 19  1  0  0  0  0
M  END
