Coordinates from ORCA-job 4-MeO-Ph-N2-OH-B3LYPG-6-31G_dp-MTMO-d009-169-n800
 OpenBabel09051907473D

 19 18  0  0  0  0  0  0  0  0999 V2000
   -1.0583   -2.1268   -0.2637 C   0  0  0  0  0  0  0  0  0  0  0  0
    0.2588   -1.7541   -0.4904 C   0  0  0  0  0  0  0  0  0  0  0  0
    0.5906   -0.4016   -0.6527 C   0  0  0  0  0  0  0  0  0  0  0  0
   -0.4160    0.5605   -0.5856 C   0  0  0  0  0  0  0  0  0  0  0  0
   -1.7465    0.1874   -0.3567 C   0  0  0  0  0  0  0  0  0  0  0  0
   -2.0738   -1.1606   -0.1943 C   0  0  0  0  0  0  0  0  0  0  0  0
   -1.3280   -3.1703   -0.1346 H   0  0  0  0  0  0  0  0  0  0  0  0
    1.0477   -2.4972   -0.5452 H   0  0  0  0  0  0  0  0  0  0  0  0
   -0.1715    1.6133   -0.7129 H   0  0  0  0  0  0  0  0  0  0  0  0
   -2.5062    0.9586   -0.3094 H   0  0  0  0  0  0  0  0  0  0  0  0
    3.2141    3.0480   -0.9546 N   0  0  0  0  0  0  0  0  0  0  0  0
    3.9109    3.9043   -0.9161 N   0  0  0  0  0  0  0  0  0  0  0  0
   -3.3380   -1.6396    0.0339 O   0  0  0  0  0  0  0  0  0  0  0  0
   -4.3971   -0.7044    0.1072 C   0  0  0  0  0  0  0  0  0  0  0  0
   -5.3041   -1.2845    0.2858 H   0  0  0  0  0  0  0  0  0  0  0  0
   -4.5108   -0.1413   -0.8297 H   0  0  0  0  0  0  0  0  0  0  0  0
   -4.2576    0.0070    0.9329 H   0  0  0  0  0  0  0  0  0  0  0  0
    1.9082   -0.0961   -0.8722 O   0  0  0  0  0  0  0  0  0  0  0  0
    2.0096    0.8618   -0.9519 H   0  0  0  0  0  0  0  0  0  0  0  0
  1  6  1  0  0  0  0
  1  7  1  0  0  0  0
  2  1  2  0  0  0  0
  3  4  2  0  0  0  0
  3  2  1  0  0  0  0
  4  5  1  0  0  0  0
  5 10  1  0  0  0  0
  5  6  2  0  0  0  0
  6 13  1  0  0  0  0
  8  2  1  0  0  0  0
  9  4  1  0  0  0  0
 11 12  3  0  0  0  0
 13 14  1  0  0  0  0
 14 15  1  0  0  0  0
 14 17  1  0  0  0  0
 16 14  1  0  0  0  0
 18  3  1  0  0  0  0
 19 18  1  0  0  0  0
M  END
