Coordinates from ORCA-job 4-MeO-Ph-N2-OH-B3LYPG-6-31G_dp-MTMO-d009-169-n800
 OpenBabel09051907473D

 19 18  0  0  0  0  0  0  0  0999 V2000
   -1.4069   -2.4373   -0.2262 C   0  0  0  0  0  0  0  0  0  0  0  0
   -0.0635   -2.2046   -0.4831 C   0  0  0  0  0  0  0  0  0  0  0  0
    0.3982   -0.8962   -0.6828 C   0  0  0  0  0  0  0  0  0  0  0  0
   -0.5045    0.1636   -0.6220 C   0  0  0  0  0  0  0  0  0  0  0  0
   -1.8613   -0.0680   -0.3632 C   0  0  0  0  0  0  0  0  0  0  0  0
   -2.3191   -1.3724   -0.1636 C   0  0  0  0  0  0  0  0  0  0  0  0
   -1.7777   -3.4450   -0.0684 H   0  0  0  0  0  0  0  0  0  0  0  0
    0.6452   -3.0246   -0.5332 H   0  0  0  0  0  0  0  0  0  0  0  0
   -0.1581    1.1836   -0.7773 H   0  0  0  0  0  0  0  0  0  0  0  0
   -2.5383    0.7771   -0.3228 H   0  0  0  0  0  0  0  0  0  0  0  0
    4.9024    5.3989   -1.0353 N   0  0  0  0  0  0  0  0  0  0  0  0
    5.6002    6.2541   -0.9784 N   0  0  0  0  0  0  0  0  0  0  0  0
   -3.6201   -1.7165    0.0956 O   0  0  0  0  0  0  0  0  0  0  0  0
   -4.5787   -0.6778    0.1651 C   0  0  0  0  0  0  0  0  0  0  0  0
   -5.5351   -1.1595    0.3753 H   0  0  0  0  0  0  0  0  0  0  0  0
   -4.6548   -0.1286   -0.7836 H   0  0  0  0  0  0  0  0  0  0  0  0
   -4.3511    0.0345    0.9698 H   0  0  0  0  0  0  0  0  0  0  0  0
    1.7366   -0.7291   -0.9316 O   0  0  0  0  0  0  0  0  0  0  0  0
    1.9189    0.2123   -1.0444 H   0  0  0  0  0  0  0  0  0  0  0  0
  1  6  1  0  0  0  0
  1  7  1  0  0  0  0
  2  1  2  0  0  0  0
  3  4  2  0  0  0  0
  3  2  1  0  0  0  0
  4  5  1  0  0  0  0
  5 10  1  0  0  0  0
  5  6  2  0  0  0  0
  6 13  1  0  0  0  0
  8  2  1  0  0  0  0
  9  4  1  0  0  0  0
 11 12  3  0  0  0  0
 13 14  1  0  0  0  0
 14 15  1  0  0  0  0
 14 17  1  0  0  0  0
 16 14  1  0  0  0  0
 18  3  1  0  0  0  0
 19 18  1  0  0  0  0
M  END
