Coordinates from ORCA-job 4-MeO-Ph-N2-OH-B3LYPG-6-31G_dp-MTMO-d009-169-n800
 OpenBabel09051907473D

 19 18  0  0  0  0  0  0  0  0999 V2000
   -1.5710   -2.5937   -0.2210 C   0  0  0  0  0  0  0  0  0  0  0  0
   -0.2238   -2.3794   -0.4737 C   0  0  0  0  0  0  0  0  0  0  0  0
    0.2579   -1.0767   -0.6635 C   0  0  0  0  0  0  0  0  0  0  0  0
   -0.6290   -0.0039   -0.5971 C   0  0  0  0  0  0  0  0  0  0  0  0
   -1.9896   -0.2170   -0.3425 C   0  0  0  0  0  0  0  0  0  0  0  0
   -2.4672   -1.5157   -0.1527 C   0  0  0  0  0  0  0  0  0  0  0  0
   -1.9572   -3.5968   -0.0710 H   0  0  0  0  0  0  0  0  0  0  0  0
    0.4727   -3.2096   -0.5283 H   0  0  0  0  0  0  0  0  0  0  0  0
   -0.2669    1.0118   -0.7447 H   0  0  0  0  0  0  0  0  0  0  0  0
   -2.6540    0.6379   -0.2979 H   0  0  0  0  0  0  0  0  0  0  0  0
    6.0818    6.7042   -1.1452 N   0  0  0  0  0  0  0  0  0  0  0  0
    6.8172    7.5292   -1.1297 N   0  0  0  0  0  0  0  0  0  0  0  0
   -3.7737   -1.8421    0.1018 O   0  0  0  0  0  0  0  0  0  0  0  0
   -4.7167   -0.7895    0.1772 C   0  0  0  0  0  0  0  0  0  0  0  0
   -5.6804   -1.2581    0.3836 H   0  0  0  0  0  0  0  0  0  0  0  0
   -4.7837   -0.2332   -0.7680 H   0  0  0  0  0  0  0  0  0  0  0  0
   -4.4791   -0.0859    0.9867 H   0  0  0  0  0  0  0  0  0  0  0  0
    1.5992   -0.9281   -0.9086 O   0  0  0  0  0  0  0  0  0  0  0  0
    1.7956    0.0112   -1.0156 H   0  0  0  0  0  0  0  0  0  0  0  0
  1  6  1  0  0  0  0
  1  7  1  0  0  0  0
  2  1  2  0  0  0  0
  3  4  2  0  0  0  0
  3  2  1  0  0  0  0
  4  5  1  0  0  0  0
  5 10  1  0  0  0  0
  5  6  2  0  0  0  0
  6 13  1  0  0  0  0
  8  2  1  0  0  0  0
  9  4  1  0  0  0  0
 11 12  3  0  0  0  0
 13 14  1  0  0  0  0
 14 15  1  0  0  0  0
 14 17  1  0  0  0  0
 16 14  1  0  0  0  0
 18  3  1  0  0  0  0
 19 18  1  0  0  0  0
M  END
