Coordinates from ORCA-job 4-MeO-Ph-N2-OH-B3LYPG-6-31G_dp-MTMO-d009-169-n800
 OpenBabel09051907473D

 19 18  0  0  0  0  0  0  0  0999 V2000
   -1.6864   -2.7070   -0.2129 C   0  0  0  0  0  0  0  0  0  0  0  0
   -0.3386   -2.4950   -0.4639 C   0  0  0  0  0  0  0  0  0  0  0  0
    0.1461   -1.1930   -0.6502 C   0  0  0  0  0  0  0  0  0  0  0  0
   -0.7384   -0.1184   -0.5818 C   0  0  0  0  0  0  0  0  0  0  0  0
   -2.0997   -0.3290   -0.3289 C   0  0  0  0  0  0  0  0  0  0  0  0
   -2.5804   -1.6271   -0.1426 C   0  0  0  0  0  0  0  0  0  0  0  0
   -2.0750   -3.7095   -0.0657 H   0  0  0  0  0  0  0  0  0  0  0  0
    0.3561   -3.3266   -0.5200 H   0  0  0  0  0  0  0  0  0  0  0  0
   -0.3740    0.8969   -0.7266 H   0  0  0  0  0  0  0  0  0  0  0  0
   -2.7623    0.5272   -0.2827 H   0  0  0  0  0  0  0  0  0  0  0  0
    7.0291    7.6646   -1.2395 N   0  0  0  0  0  0  0  0  0  0  0  0
    7.7741    8.4810   -1.2359 N   0  0  0  0  0  0  0  0  0  0  0  0
   -3.8878   -1.9513    0.1101 O   0  0  0  0  0  0  0  0  0  0  0  0
   -4.8285   -0.8968    0.1874 C   0  0  0  0  0  0  0  0  0  0  0  0
   -5.7933   -1.3637    0.3921 H   0  0  0  0  0  0  0  0  0  0  0  0
   -4.8936   -0.3381   -0.7565 H   0  0  0  0  0  0  0  0  0  0  0  0
   -4.5898   -0.1956    0.9987 H   0  0  0  0  0  0  0  0  0  0  0  0
    1.4879   -1.0467   -0.8937 O   0  0  0  0  0  0  0  0  0  0  0  0
    1.6866   -0.1075   -0.9978 H   0  0  0  0  0  0  0  0  0  0  0  0
  1  6  1  0  0  0  0
  1  7  1  0  0  0  0
  2  1  2  0  0  0  0
  3  4  2  0  0  0  0
  3  2  1  0  0  0  0
  4  5  1  0  0  0  0
  5 10  1  0  0  0  0
  5  6  2  0  0  0  0
  6 13  1  0  0  0  0
  8  2  1  0  0  0  0
  9  4  1  0  0  0  0
 11 12  3  0  0  0  0
 13 14  1  0  0  0  0
 14 15  1  0  0  0  0
 14 17  1  0  0  0  0
 16 14  1  0  0  0  0
 18  3  1  0  0  0  0
 19 18  1  0  0  0  0
M  END
