Coordinates from ORCA-job 4-MeO-Ph-N2-OH-B3LYPG-6-31G_dp-MTMO-d009-169-n800
 OpenBabel09051907463D

 19 18  0  0  0  0  0  0  0  0999 V2000
   -0.8099   -1.6820   -0.9424 C   0  0  0  0  0  0  0  0  0  0  0  0
    0.5260   -1.3860   -0.7114 C   0  0  0  0  0  0  0  0  0  0  0  0
    0.8792   -0.2439    0.0204 C   0  0  0  0  0  0  0  0  0  0  0  0
   -0.1258    0.5817    0.5230 C   0  0  0  0  0  0  0  0  0  0  0  0
   -1.4749    0.2888    0.2886 C   0  0  0  0  0  0  0  0  0  0  0  0
   -1.8235   -0.8469   -0.4465 C   0  0  0  0  0  0  0  0  0  0  0  0
   -1.0966   -2.5620   -1.5089 H   0  0  0  0  0  0  0  0  0  0  0  0
    1.3129   -2.0277   -1.0934 H   0  0  0  0  0  0  0  0  0  0  0  0
    0.1356    1.4676    1.0981 H   0  0  0  0  0  0  0  0  0  0  0  0
   -2.2325    0.9528    0.6868 H   0  0  0  0  0  0  0  0  0  0  0  0
    1.4457    1.6594   -1.8708 N   0  0  0  0  0  0  0  0  0  0  0  0
    1.1980    1.4707   -2.9318 N   0  0  0  0  0  0  0  0  0  0  0  0
   -3.1065   -1.2305   -0.7358 O   0  0  0  0  0  0  0  0  0  0  0  0
   -4.1650   -0.4266   -0.2479 C   0  0  0  0  0  0  0  0  0  0  0  0
   -5.0878   -0.9037   -0.5822 H   0  0  0  0  0  0  0  0  0  0  0  0
   -4.1224    0.5934   -0.6525 H   0  0  0  0  0  0  0  0  0  0  0  0
   -4.1641   -0.3740    0.8496 H   0  0  0  0  0  0  0  0  0  0  0  0
    2.2144   -0.0239    0.2348 O   0  0  0  0  0  0  0  0  0  0  0  0
    2.3293    0.8573    0.6121 H   0  0  0  0  0  0  0  0  0  0  0  0
  1  2  2  0  0  0  0
  1  6  1  0  0  0  0
  2  3  1  0  0  0  0
  3 18  1  0  0  0  0
  3  4  2  0  0  0  0
  4  9  1  0  0  0  0
  5  4  1  0  0  0  0
  5 10  1  0  0  0  0
  6  5  2  0  0  0  0
  7  1  1  0  0  0  0
  8  2  1  0  0  0  0
 12 11  3  0  0  0  0
 13  6  1  0  0  0  0
 13 14  1  0  0  0  0
 14 17  1  0  0  0  0
 15 14  1  0  0  0  0
 16 14  1  0  0  0  0
 18 19  1  0  0  0  0
M  END
