Coordinates from ORCA-job 4-MeO-Ph-N2-OH-B3LYPG-6-31G_dp-MTMO-d009-169-n800
 OpenBabel09051907473D

 19 18  0  0  0  0  0  0  0  0999 V2000
   -1.7732   -2.7925   -0.2058 C   0  0  0  0  0  0  0  0  0  0  0  0
   -0.4250   -2.5814   -0.4561 C   0  0  0  0  0  0  0  0  0  0  0  0
    0.0609   -1.2795   -0.6404 C   0  0  0  0  0  0  0  0  0  0  0  0
   -0.8228   -0.2042   -0.5711 C   0  0  0  0  0  0  0  0  0  0  0  0
   -2.1843   -0.4140   -0.3190 C   0  0  0  0  0  0  0  0  0  0  0  0
   -2.6662   -1.7119   -0.1346 C   0  0  0  0  0  0  0  0  0  0  0  0
   -2.1627   -3.7949   -0.0601 H   0  0  0  0  0  0  0  0  0  0  0  0
    0.2689   -3.4135   -0.5129 H   0  0  0  0  0  0  0  0  0  0  0  0
   -0.4574    0.8109   -0.7144 H   0  0  0  0  0  0  0  0  0  0  0  0
   -2.8462    0.4427   -0.2721 H   0  0  0  0  0  0  0  0  0  0  0  0
    7.7534    8.3899   -1.3130 N   0  0  0  0  0  0  0  0  0  0  0  0
    8.5011    9.2039   -1.3135 N   0  0  0  0  0  0  0  0  0  0  0  0
   -3.9740   -2.0352    0.1172 O   0  0  0  0  0  0  0  0  0  0  0  0
   -4.9138   -0.9800    0.1955 C   0  0  0  0  0  0  0  0  0  0  0  0
   -5.8791   -1.4464    0.3993 H   0  0  0  0  0  0  0  0  0  0  0  0
   -4.9781   -0.4201   -0.7478 H   0  0  0  0  0  0  0  0  0  0  0  0
   -4.6747   -0.2800    1.0077 H   0  0  0  0  0  0  0  0  0  0  0  0
    1.4029   -1.1341   -0.8833 O   0  0  0  0  0  0  0  0  0  0  0  0
    1.6025   -0.1950   -0.9858 H   0  0  0  0  0  0  0  0  0  0  0  0
  1  6  1  0  0  0  0
  1  7  1  0  0  0  0
  2  1  2  0  0  0  0
  3  4  2  0  0  0  0
  3  2  1  0  0  0  0
  4  5  1  0  0  0  0
  5 10  1  0  0  0  0
  5  6  2  0  0  0  0
  6 13  1  0  0  0  0
  8  2  1  0  0  0  0
  9  4  1  0  0  0  0
 12 11  3  0  0  0  0
 13 14  1  0  0  0  0
 14 15  1  0  0  0  0
 14 17  1  0  0  0  0
 16 14  1  0  0  0  0
 18  3  1  0  0  0  0
 19 18  1  0  0  0  0
M  END
