Coordinates from ORCA-job 4-MeO-Ph-N2-OH-B3LYPG-6-31G_dp-MTMO-d009-169-n800
 OpenBabel09051907473D

 19 18  0  0  0  0  0  0  0  0999 V2000
   -1.0361   -2.0826   -0.5370 C   0  0  0  0  0  0  0  0  0  0  0  0
    0.3140   -1.7630   -0.5574 C   0  0  0  0  0  0  0  0  0  0  0  0
    0.7309   -0.4446   -0.3238 C   0  0  0  0  0  0  0  0  0  0  0  0
   -0.2256    0.5372   -0.0677 C   0  0  0  0  0  0  0  0  0  0  0  0
   -1.5894    0.2182   -0.0484 C   0  0  0  0  0  0  0  0  0  0  0  0
   -2.0013   -1.0955   -0.2840 C   0  0  0  0  0  0  0  0  0  0  0  0
   -1.3712   -3.0986   -0.7191 H   0  0  0  0  0  0  0  0  0  0  0  0
    1.0638   -2.5219   -0.7551 H   0  0  0  0  0  0  0  0  0  0  0  0
    0.0838    1.5623    0.1227 H   0  0  0  0  0  0  0  0  0  0  0  0
   -2.3085    1.0030    0.1539 H   0  0  0  0  0  0  0  0  0  0  0  0
    2.5605    2.7735   -1.3583 N   0  0  0  0  0  0  0  0  0  0  0  0
    2.7171    3.5515   -2.1267 N   0  0  0  0  0  0  0  0  0  0  0  0
   -3.3050   -1.5202   -0.2908 O   0  0  0  0  0  0  0  0  0  0  0  0
   -4.3150   -0.5582   -0.0517 C   0  0  0  0  0  0  0  0  0  0  0  0
   -5.2649   -1.0923   -0.1118 H   0  0  0  0  0  0  0  0  0  0  0  0
   -4.3041    0.2413   -0.8056 H   0  0  0  0  0  0  0  0  0  0  0  0
   -4.2209   -0.1063    0.9452 H   0  0  0  0  0  0  0  0  0  0  0  0
    2.0772   -0.1932   -0.3548 O   0  0  0  0  0  0  0  0  0  0  0  0
    2.2269    0.7539   -0.2396 H   0  0  0  0  0  0  0  0  0  0  0  0
  1  6  1  0  0  0  0
  2  1  2  0  0  0  0
  2  3  1  0  0  0  0
  3  4  2  0  0  0  0
  4  5  1  0  0  0  0
  4  9  1  0  0  0  0
  5 10  1  0  0  0  0
  6  5  2  0  0  0  0
  7  1  1  0  0  0  0
  8  2  1  0  0  0  0
 12 11  3  0  0  0  0
 13  6  1  0  0  0  0
 13 14  1  0  0  0  0
 14 17  1  0  0  0  0
 15 14  1  0  0  0  0
 16 14  1  0  0  0  0
 18  3  1  0  0  0  0
 18 19  1  0  0  0  0
M  END
