Coordinates from ORCA-job 4-MeO-Ph-N2-OH-B3LYPG-6-31G_dp-MTMO-d009-169-n800
 OpenBabel09051907473D

 19 18  0  0  0  0  0  0  0  0999 V2000
   -1.4268   -2.4558   -0.2266 C   0  0  0  0  0  0  0  0  0  0  0  0
   -0.0826   -2.2274   -0.4826 C   0  0  0  0  0  0  0  0  0  0  0  0
    0.3839   -0.9203   -0.6803 C   0  0  0  0  0  0  0  0  0  0  0  0
   -0.5152    0.1426   -0.6183 C   0  0  0  0  0  0  0  0  0  0  0  0
   -1.8728   -0.0847   -0.3603 C   0  0  0  0  0  0  0  0  0  0  0  0
   -2.3353   -1.3877   -0.1628 C   0  0  0  0  0  0  0  0  0  0  0  0
   -1.8012   -3.4624   -0.0704 H   0  0  0  0  0  0  0  0  0  0  0  0
    0.6233   -3.0498   -0.5337 H   0  0  0  0  0  0  0  0  0  0  0  0
   -0.1651    1.1615   -0.7720 H   0  0  0  0  0  0  0  0  0  0  0  0
   -2.5469    0.7627   -0.3191 H   0  0  0  0  0  0  0  0  0  0  0  0
    5.0230    5.5485   -1.0467 N   0  0  0  0  0  0  0  0  0  0  0  0
    5.7265    6.3995   -0.9960 N   0  0  0  0  0  0  0  0  0  0  0  0
   -3.6376   -1.7277    0.0954 O   0  0  0  0  0  0  0  0  0  0  0  0
   -4.5926   -0.6857    0.1662 C   0  0  0  0  0  0  0  0  0  0  0  0
   -5.5507   -1.1643    0.3756 H   0  0  0  0  0  0  0  0  0  0  0  0
   -4.6666   -0.1350   -0.7818 H   0  0  0  0  0  0  0  0  0  0  0  0
   -4.3626    0.0247    0.9719 H   0  0  0  0  0  0  0  0  0  0  0  0
    1.7229   -0.7576   -0.9283 O   0  0  0  0  0  0  0  0  0  0  0  0
    1.9085    0.1833   -1.0402 H   0  0  0  0  0  0  0  0  0  0  0  0
  1  6  1  0  0  0  0
  1  7  1  0  0  0  0
  2  1  2  0  0  0  0
  3  4  2  0  0  0  0
  3  2  1  0  0  0  0
  4  5  1  0  0  0  0
  5 10  1  0  0  0  0
  5  6  2  0  0  0  0
  6 13  1  0  0  0  0
  8  2  1  0  0  0  0
  9  4  1  0  0  0  0
 11 12  3  0  0  0  0
 13 14  1  0  0  0  0
 14 15  1  0  0  0  0
 14 17  1  0  0  0  0
 16 14  1  0  0  0  0
 18  3  1  0  0  0  0
 19 18  1  0  0  0  0
M  END
