Coordinates from ORCA-job 4-MeO-Ph-N2-OH-B3LYPG-6-31G_dp-MTMO-d009-169-n800
 OpenBabel09051907473D

 19 18  0  0  0  0  0  0  0  0999 V2000
   -1.4051   -2.4356   -0.2262 C   0  0  0  0  0  0  0  0  0  0  0  0
   -0.0618   -2.2024   -0.4831 C   0  0  0  0  0  0  0  0  0  0  0  0
    0.3995   -0.8939   -0.6831 C   0  0  0  0  0  0  0  0  0  0  0  0
   -0.5036    0.1656   -0.6223 C   0  0  0  0  0  0  0  0  0  0  0  0
   -1.8603   -0.0665   -0.3634 C   0  0  0  0  0  0  0  0  0  0  0  0
   -2.3176   -1.3710   -0.1637 C   0  0  0  0  0  0  0  0  0  0  0  0
   -1.7755   -3.4434   -0.0682 H   0  0  0  0  0  0  0  0  0  0  0  0
    0.6472   -3.0222   -0.5332 H   0  0  0  0  0  0  0  0  0  0  0  0
   -0.1575    1.1857   -0.7778 H   0  0  0  0  0  0  0  0  0  0  0  0
   -2.5376    0.7784   -0.3232 H   0  0  0  0  0  0  0  0  0  0  0  0
    4.8916    5.3852   -1.0343 N   0  0  0  0  0  0  0  0  0  0  0  0
    5.5890    6.2408   -0.9768 N   0  0  0  0  0  0  0  0  0  0  0  0
   -3.6185   -1.7156    0.0956 O   0  0  0  0  0  0  0  0  0  0  0  0
   -4.5775   -0.6772    0.1650 C   0  0  0  0  0  0  0  0  0  0  0  0
   -5.5337   -1.1592    0.3752 H   0  0  0  0  0  0  0  0  0  0  0  0
   -4.6538   -0.1281   -0.7837 H   0  0  0  0  0  0  0  0  0  0  0  0
   -4.3501    0.0353    0.9696 H   0  0  0  0  0  0  0  0  0  0  0  0
    1.7378   -0.7264   -0.9319 O   0  0  0  0  0  0  0  0  0  0  0  0
    1.9198    0.2151   -1.0448 H   0  0  0  0  0  0  0  0  0  0  0  0
  1  6  1  0  0  0  0
  1  7  1  0  0  0  0
  2  1  2  0  0  0  0
  3  4  2  0  0  0  0
  3  2  1  0  0  0  0
  4  5  1  0  0  0  0
  5 10  1  0  0  0  0
  5  6  2  0  0  0  0
  6 13  1  0  0  0  0
  8  2  1  0  0  0  0
  9  4  1  0  0  0  0
 11 12  3  0  0  0  0
 13 14  1  0  0  0  0
 14 15  1  0  0  0  0
 14 17  1  0  0  0  0
 16 14  1  0  0  0  0
 18  3  1  0  0  0  0
 19 18  1  0  0  0  0
M  END
