Coordinates from ORCA-job 4-MeO-Ph-N2-OH-B3LYPG-6-31G_dp-MTMO-d009-169-n800
 OpenBabel09051907473D

 19 18  0  0  0  0  0  0  0  0999 V2000
   -1.2288   -2.2746   -0.2069 C   0  0  0  0  0  0  0  0  0  0  0  0
    0.0985   -1.9739   -0.4765 C   0  0  0  0  0  0  0  0  0  0  0  0
    0.4863   -0.6470   -0.7086 C   0  0  0  0  0  0  0  0  0  0  0  0
   -0.4734    0.3625   -0.6667 C   0  0  0  0  0  0  0  0  0  0  0  0
   -1.8140    0.0623   -0.3947 C   0  0  0  0  0  0  0  0  0  0  0  0
   -2.1981   -1.2604   -0.1631 C   0  0  0  0  0  0  0  0  0  0  0  0
   -1.5424   -3.2973   -0.0236 H   0  0  0  0  0  0  0  0  0  0  0  0
    0.8514   -2.7544   -0.5118 H   0  0  0  0  0  0  0  0  0  0  0  0
   -0.1845    1.3961   -0.8476 H   0  0  0  0  0  0  0  0  0  0  0  0
   -2.5365    0.8694   -0.3688 H   0  0  0  0  0  0  0  0  0  0  0  0
    4.1141    4.1843   -0.9477 N   0  0  0  0  0  0  0  0  0  0  0  0
    4.7949    5.0474   -0.8336 N   0  0  0  0  0  0  0  0  0  0  0  0
   -3.4771   -1.6698    0.1111 O   0  0  0  0  0  0  0  0  0  0  0  0
   -4.4918   -0.6847    0.1608 C   0  0  0  0  0  0  0  0  0  0  0  0
   -5.4197   -1.2143    0.3832 H   0  0  0  0  0  0  0  0  0  0  0  0
   -4.5996   -0.1608   -0.7990 H   0  0  0  0  0  0  0  0  0  0  0  0
   -4.3034    0.0562    0.9497 H   0  0  0  0  0  0  0  0  0  0  0  0
    1.8122   -0.4121   -0.9683 O   0  0  0  0  0  0  0  0  0  0  0  0
    1.9439    0.5357   -1.0982 H   0  0  0  0  0  0  0  0  0  0  0  0
  1  6  1  0  0  0  0
  1  7  1  0  0  0  0
  2  1  2  0  0  0  0
  3  4  2  0  0  0  0
  3  2  1  0  0  0  0
  4  5  1  0  0  0  0
  5 10  1  0  0  0  0
  5  6  2  0  0  0  0
  6 13  1  0  0  0  0
  8  2  1  0  0  0  0
  9  4  1  0  0  0  0
 11 12  3  0  0  0  0
 13 14  1  0  0  0  0
 14 15  1  0  0  0  0
 14 17  1  0  0  0  0
 16 14  1  0  0  0  0
 18  3  1  0  0  0  0
 19 18  1  0  0  0  0
M  END
