Coordinates from ORCA-job 4-MeO-Ph-N2-OH-B3LYPG-6-31G_dp-MTMO-d009-169-n800
 OpenBabel09051907473D

 19 18  0  0  0  0  0  0  0  0999 V2000
   -1.3057   -2.3451   -0.2172 C   0  0  0  0  0  0  0  0  0  0  0  0
    0.0299   -2.0775   -0.4808 C   0  0  0  0  0  0  0  0  0  0  0  0
    0.4538   -0.7590   -0.6974 C   0  0  0  0  0  0  0  0  0  0  0  0
   -0.4785    0.2754   -0.6463 C   0  0  0  0  0  0  0  0  0  0  0  0
   -1.8273    0.0086   -0.3805 C   0  0  0  0  0  0  0  0  0  0  0  0
   -2.2475   -1.3058   -0.1643 C   0  0  0  0  0  0  0  0  0  0  0  0
   -1.6472   -3.3610   -0.0461 H   0  0  0  0  0  0  0  0  0  0  0  0
    0.7615   -2.8776   -0.5232 H   0  0  0  0  0  0  0  0  0  0  0  0
   -0.1616    1.3029   -0.8151 H   0  0  0  0  0  0  0  0  0  0  0  0
   -2.5278    0.8346   -0.3475 H   0  0  0  0  0  0  0  0  0  0  0  0
    4.4191    4.6927   -0.9829 N   0  0  0  0  0  0  0  0  0  0  0  0
    5.1004    5.5586   -0.8950 N   0  0  0  0  0  0  0  0  0  0  0  0
   -3.5376   -1.6835    0.1029 O   0  0  0  0  0  0  0  0  0  0  0  0
   -4.5253   -0.6718    0.1622 C   0  0  0  0  0  0  0  0  0  0  0  0
   -5.4674   -1.1783    0.3787 H   0  0  0  0  0  0  0  0  0  0  0  0
   -4.6179   -0.1354   -0.7923 H   0  0  0  0  0  0  0  0  0  0  0  0
   -4.3174    0.0555    0.9588 H   0  0  0  0  0  0  0  0  0  0  0  0
    1.7862   -0.5570   -0.9519 O   0  0  0  0  0  0  0  0  0  0  0  0
    1.9423    0.3883   -1.0725 H   0  0  0  0  0  0  0  0  0  0  0  0
  1  6  1  0  0  0  0
  1  7  1  0  0  0  0
  2  1  2  0  0  0  0
  3  4  2  0  0  0  0
  3  2  1  0  0  0  0
  4  5  1  0  0  0  0
  5 10  1  0  0  0  0
  5  6  2  0  0  0  0
  6 13  1  0  0  0  0
  8  2  1  0  0  0  0
  9  4  1  0  0  0  0
 11 12  3  0  0  0  0
 13 14  1  0  0  0  0
 14 15  1  0  0  0  0
 14 17  1  0  0  0  0
 16 14  1  0  0  0  0
 18  3  1  0  0  0  0
 19 18  1  0  0  0  0
M  END
