Coordinates from ORCA-job 4-MeO-Ph-N2-OH-B3LYPG-6-31G_dp-MTMO-d009-169-n800
 OpenBabel09051907473D

 19 18  0  0  0  0  0  0  0  0999 V2000
   -1.6036   -2.6256   -0.2188 C   0  0  0  0  0  0  0  0  0  0  0  0
   -0.2561   -2.4122   -0.4710 C   0  0  0  0  0  0  0  0  0  0  0  0
    0.2267   -1.1098   -0.6598 C   0  0  0  0  0  0  0  0  0  0  0  0
   -0.6593   -0.0363   -0.5927 C   0  0  0  0  0  0  0  0  0  0  0  0
   -2.0201   -0.2484   -0.3387 C   0  0  0  0  0  0  0  0  0  0  0  0
   -2.4989   -1.5468   -0.1500 C   0  0  0  0  0  0  0  0  0  0  0  0
   -1.9906   -3.6284   -0.0697 H   0  0  0  0  0  0  0  0  0  0  0  0
    0.4396   -3.2429   -0.5261 H   0  0  0  0  0  0  0  0  0  0  0  0
   -0.2964    0.9792   -0.7394 H   0  0  0  0  0  0  0  0  0  0  0  0
   -2.6838    0.6070   -0.2935 H   0  0  0  0  0  0  0  0  0  0  0  0
    6.3457    6.9742   -1.1710 N   0  0  0  0  0  0  0  0  0  0  0  0
    7.0849    7.7958   -1.1600 N   0  0  0  0  0  0  0  0  0  0  0  0
   -3.8058   -1.8723    0.1040 O   0  0  0  0  0  0  0  0  0  0  0  0
   -4.7478   -0.8190    0.1801 C   0  0  0  0  0  0  0  0  0  0  0  0
   -5.7120   -1.2869    0.3859 H   0  0  0  0  0  0  0  0  0  0  0  0
   -4.8142   -0.2619   -0.7648 H   0  0  0  0  0  0  0  0  0  0  0  0
   -4.5098   -0.1162    0.9901 H   0  0  0  0  0  0  0  0  0  0  0  0
    1.5682   -0.9621   -0.9044 O   0  0  0  0  0  0  0  0  0  0  0  0
    1.7654   -0.0229   -1.0105 H   0  0  0  0  0  0  0  0  0  0  0  0
  1  6  1  0  0  0  0
  1  7  1  0  0  0  0
  2  1  2  0  0  0  0
  3  4  2  0  0  0  0
  3  2  1  0  0  0  0
  4  5  1  0  0  0  0
  5 10  1  0  0  0  0
  5  6  2  0  0  0  0
  6 13  1  0  0  0  0
  8  2  1  0  0  0  0
  9  4  1  0  0  0  0
 11 12  3  0  0  0  0
 13 14  1  0  0  0  0
 14 15  1  0  0  0  0
 14 17  1  0  0  0  0
 16 14  1  0  0  0  0
 18  3  1  0  0  0  0
 19 18  1  0  0  0  0
M  END
