Coordinates from ORCA-job 4-MeO-Ph-N2-OH-B3LYPG-6-31G_dp-MTMO-d009-169-n800
 OpenBabel09051907473D

 19 18  0  0  0  0  0  0  0  0999 V2000
   -1.7656   -2.7850   -0.2065 C   0  0  0  0  0  0  0  0  0  0  0  0
   -0.4175   -2.5738   -0.4568 C   0  0  0  0  0  0  0  0  0  0  0  0
    0.0684   -1.2720   -0.6413 C   0  0  0  0  0  0  0  0  0  0  0  0
   -0.8153   -0.1967   -0.5720 C   0  0  0  0  0  0  0  0  0  0  0  0
   -2.1768   -0.4066   -0.3199 C   0  0  0  0  0  0  0  0  0  0  0  0
   -2.6587   -1.7045   -0.1353 C   0  0  0  0  0  0  0  0  0  0  0  0
   -2.1551   -3.7874   -0.0607 H   0  0  0  0  0  0  0  0  0  0  0  0
    0.2765   -3.4059   -0.5135 H   0  0  0  0  0  0  0  0  0  0  0  0
   -0.4500    0.8184   -0.7154 H   0  0  0  0  0  0  0  0  0  0  0  0
   -2.8388    0.4501   -0.2729 H   0  0  0  0  0  0  0  0  0  0  0  0
    7.6898    8.3264   -1.3065 N   0  0  0  0  0  0  0  0  0  0  0  0
    8.4373    9.1405   -1.3068 N   0  0  0  0  0  0  0  0  0  0  0  0
   -3.9665   -2.0278    0.1165 O   0  0  0  0  0  0  0  0  0  0  0  0
   -4.9063   -0.9726    0.1948 C   0  0  0  0  0  0  0  0  0  0  0  0
   -5.8716   -1.4390    0.3987 H   0  0  0  0  0  0  0  0  0  0  0  0
   -4.9707   -0.4128   -0.7486 H   0  0  0  0  0  0  0  0  0  0  0  0
   -4.6673   -0.2726    1.0069 H   0  0  0  0  0  0  0  0  0  0  0  0
    1.4104   -1.1266   -0.8841 O   0  0  0  0  0  0  0  0  0  0  0  0
    1.6099   -0.1875   -0.9868 H   0  0  0  0  0  0  0  0  0  0  0  0
  1  6  1  0  0  0  0
  1  7  1  0  0  0  0
  2  1  2  0  0  0  0
  3  4  2  0  0  0  0
  3  2  1  0  0  0  0
  4  5  1  0  0  0  0
  5 10  1  0  0  0  0
  5  6  2  0  0  0  0
  6 13  1  0  0  0  0
  8  2  1  0  0  0  0
  9  4  1  0  0  0  0
 12 11  3  0  0  0  0
 13 14  1  0  0  0  0
 14 15  1  0  0  0  0
 14 17  1  0  0  0  0
 16 14  1  0  0  0  0
 18  3  1  0  0  0  0
 19 18  1  0  0  0  0
M  END
