Coordinates from ORCA-job 4-MeO-Ph-N2-OH-B3LYPG-6-31G_dp-MTMO-d009-169-n800
 OpenBabel09051907473D

 19 18  0  0  0  0  0  0  0  0999 V2000
   -1.4782   -2.5042   -0.2259 C   0  0  0  0  0  0  0  0  0  0  0  0
   -0.1324   -2.2837   -0.4803 C   0  0  0  0  0  0  0  0  0  0  0  0
    0.3425   -0.9791   -0.6742 C   0  0  0  0  0  0  0  0  0  0  0  0
   -0.5498    0.0893   -0.6100 C   0  0  0  0  0  0  0  0  0  0  0  0
   -1.9091   -0.1300   -0.3537 C   0  0  0  0  0  0  0  0  0  0  0  0
   -2.3800   -1.4306   -0.1599 C   0  0  0  0  0  0  0  0  0  0  0  0
   -1.8592   -3.5088   -0.0727 H   0  0  0  0  0  0  0  0  0  0  0  0
    0.5683   -3.1104   -0.5331 H   0  0  0  0  0  0  0  0  0  0  0  0
   -0.1931    1.1064   -0.7607 H   0  0  0  0  0  0  0  0  0  0  0  0
   -2.5778    0.7216   -0.3108 H   0  0  0  0  0  0  0  0  0  0  0  0
    5.3698    5.9491   -1.0784 N   0  0  0  0  0  0  0  0  0  0  0  0
    6.0874    6.7890   -1.0429 N   0  0  0  0  0  0  0  0  0  0  0  0
   -3.6846   -1.7629    0.0966 O   0  0  0  0  0  0  0  0  0  0  0  0
   -4.6329   -0.7150    0.1697 C   0  0  0  0  0  0  0  0  0  0  0  0
   -5.5941   -1.1880    0.3776 H   0  0  0  0  0  0  0  0  0  0  0  0
   -4.7031   -0.1615   -0.7770 H   0  0  0  0  0  0  0  0  0  0  0  0
   -4.3986   -0.0081    0.9771 H   0  0  0  0  0  0  0  0  0  0  0  0
    1.6827   -0.8243   -0.9208 O   0  0  0  0  0  0  0  0  0  0  0  0
    1.8742    0.1157   -1.0308 H   0  0  0  0  0  0  0  0  0  0  0  0
  1  6  1  0  0  0  0
  1  7  1  0  0  0  0
  2  1  2  0  0  0  0
  3  4  2  0  0  0  0
  3  2  1  0  0  0  0
  4  5  1  0  0  0  0
  5 10  1  0  0  0  0
  5  6  2  0  0  0  0
  6 13  1  0  0  0  0
  8  2  1  0  0  0  0
  9  4  1  0  0  0  0
 11 12  3  0  0  0  0
 13 14  1  0  0  0  0
 14 15  1  0  0  0  0
 14 17  1  0  0  0  0
 16 14  1  0  0  0  0
 18  3  1  0  0  0  0
 19 18  1  0  0  0  0
M  END
