Coordinates from ORCA-job 4-MeO-Ph-N2-OH-B3LYPG-6-31G_dp-MTMO-d009-169-n800
 OpenBabel09051907473D

 19 18  0  0  0  0  0  0  0  0999 V2000
   -1.4881   -2.5136   -0.2255 C   0  0  0  0  0  0  0  0  0  0  0  0
   -0.1420   -2.2942   -0.4797 C   0  0  0  0  0  0  0  0  0  0  0  0
    0.3339   -0.9900   -0.6731 C   0  0  0  0  0  0  0  0  0  0  0  0
   -0.5575    0.0792   -0.6085 C   0  0  0  0  0  0  0  0  0  0  0  0
   -1.9169   -0.1390   -0.3525 C   0  0  0  0  0  0  0  0  0  0  0  0
   -2.3889   -1.4393   -0.1592 C   0  0  0  0  0  0  0  0  0  0  0  0
   -1.8699   -3.5180   -0.0728 H   0  0  0  0  0  0  0  0  0  0  0  0
    0.5579   -3.1215   -0.5328 H   0  0  0  0  0  0  0  0  0  0  0  0
   -0.1999    1.0961   -0.7588 H   0  0  0  0  0  0  0  0  0  0  0  0
   -2.5850    0.7131   -0.3093 H   0  0  0  0  0  0  0  0  0  0  0  0
    5.4416    6.0282   -1.0850 N   0  0  0  0  0  0  0  0  0  0  0  0
    6.1616    6.8661   -1.0521 N   0  0  0  0  0  0  0  0  0  0  0  0
   -3.6939   -1.7706    0.0970 O   0  0  0  0  0  0  0  0  0  0  0  0
   -4.6413   -0.7219    0.1704 C   0  0  0  0  0  0  0  0  0  0  0  0
   -5.6029   -1.1942    0.3782 H   0  0  0  0  0  0  0  0  0  0  0  0
   -4.7110   -0.1680   -0.7760 H   0  0  0  0  0  0  0  0  0  0  0  0
   -4.4064   -0.0155    0.9782 H   0  0  0  0  0  0  0  0  0  0  0  0
    1.6743   -0.8362   -0.9195 O   0  0  0  0  0  0  0  0  0  0  0  0
    1.8666    0.1037   -1.0291 H   0  0  0  0  0  0  0  0  0  0  0  0
  1  6  1  0  0  0  0
  1  7  1  0  0  0  0
  2  1  2  0  0  0  0
  3  4  2  0  0  0  0
  3  2  1  0  0  0  0
  4  5  1  0  0  0  0
  5 10  1  0  0  0  0
  5  6  2  0  0  0  0
  6 13  1  0  0  0  0
  8  2  1  0  0  0  0
  9  4  1  0  0  0  0
 11 12  3  0  0  0  0
 13 14  1  0  0  0  0
 14 15  1  0  0  0  0
 14 17  1  0  0  0  0
 16 14  1  0  0  0  0
 18  3  1  0  0  0  0
 19 18  1  0  0  0  0
M  END
