Coordinates from ORCA-job 4-MeO-Ph-N2-OH-B3LYPG-6-31G_dp-MTMO-d009-169-n800
 OpenBabel09051907473D

 19 18  0  0  0  0  0  0  0  0999 V2000
   -1.6773   -2.6979   -0.2136 C   0  0  0  0  0  0  0  0  0  0  0  0
   -0.3294   -2.4858   -0.4647 C   0  0  0  0  0  0  0  0  0  0  0  0
    0.1551   -1.1838   -0.6512 C   0  0  0  0  0  0  0  0  0  0  0  0
   -0.7296   -0.1093   -0.5830 C   0  0  0  0  0  0  0  0  0  0  0  0
   -2.0908   -0.3201   -0.3299 C   0  0  0  0  0  0  0  0  0  0  0  0
   -2.5713   -1.6182   -0.1435 C   0  0  0  0  0  0  0  0  0  0  0  0
   -2.0657   -3.7005   -0.0662 H   0  0  0  0  0  0  0  0  0  0  0  0
    0.3653   -3.3174   -0.5207 H   0  0  0  0  0  0  0  0  0  0  0  0
   -0.3653    0.9060   -0.7279 H   0  0  0  0  0  0  0  0  0  0  0  0
   -2.7535    0.5360   -0.2839 H   0  0  0  0  0  0  0  0  0  0  0  0
    6.9529    7.5881   -1.2318 N   0  0  0  0  0  0  0  0  0  0  0  0
    7.6975    8.4049   -1.2276 N   0  0  0  0  0  0  0  0  0  0  0  0
   -3.8787   -1.9424    0.1094 O   0  0  0  0  0  0  0  0  0  0  0  0
   -4.8195   -0.8880    0.1866 C   0  0  0  0  0  0  0  0  0  0  0  0
   -5.7843   -1.3551    0.3914 H   0  0  0  0  0  0  0  0  0  0  0  0
   -4.8848   -0.3295   -0.7574 H   0  0  0  0  0  0  0  0  0  0  0  0
   -4.5809   -0.1867    0.9977 H   0  0  0  0  0  0  0  0  0  0  0  0
    1.4969   -1.0374   -0.8949 O   0  0  0  0  0  0  0  0  0  0  0  0
    1.6954   -0.0983   -0.9991 H   0  0  0  0  0  0  0  0  0  0  0  0
  1  6  1  0  0  0  0
  1  7  1  0  0  0  0
  2  1  2  0  0  0  0
  3  4  2  0  0  0  0
  3  2  1  0  0  0  0
  4  5  1  0  0  0  0
  5 10  1  0  0  0  0
  5  6  2  0  0  0  0
  6 13  1  0  0  0  0
  8  2  1  0  0  0  0
  9  4  1  0  0  0  0
 11 12  3  0  0  0  0
 13 14  1  0  0  0  0
 14 15  1  0  0  0  0
 14 17  1  0  0  0  0
 16 14  1  0  0  0  0
 18  3  1  0  0  0  0
 19 18  1  0  0  0  0
M  END
