Coordinates from ORCA-job 4-MeO-Ph-N2-OH-B3LYPG-6-31G_dp-MTMO-d009-169-n800
 OpenBabel09051907473D

 19 18  0  0  0  0  0  0  0  0999 V2000
   -1.7762   -2.7955   -0.2056 C   0  0  0  0  0  0  0  0  0  0  0  0
   -0.4280   -2.5844   -0.4558 C   0  0  0  0  0  0  0  0  0  0  0  0
    0.0579   -1.2825   -0.6401 C   0  0  0  0  0  0  0  0  0  0  0  0
   -0.8257   -0.2072   -0.5708 C   0  0  0  0  0  0  0  0  0  0  0  0
   -2.1873   -0.4170   -0.3187 C   0  0  0  0  0  0  0  0  0  0  0  0
   -2.6692   -1.7149   -0.1343 C   0  0  0  0  0  0  0  0  0  0  0  0
   -2.1657   -3.7979   -0.0599 H   0  0  0  0  0  0  0  0  0  0  0  0
    0.2659   -3.4165   -0.5126 H   0  0  0  0  0  0  0  0  0  0  0  0
   -0.4604    0.8079   -0.7141 H   0  0  0  0  0  0  0  0  0  0  0  0
   -2.8492    0.4397   -0.2717 H   0  0  0  0  0  0  0  0  0  0  0  0
    7.7789    8.4153   -1.3155 N   0  0  0  0  0  0  0  0  0  0  0  0
    8.5266    9.2292   -1.3162 N   0  0  0  0  0  0  0  0  0  0  0  0
   -3.9770   -2.0382    0.1174 O   0  0  0  0  0  0  0  0  0  0  0  0
   -4.9168   -0.9829    0.1958 C   0  0  0  0  0  0  0  0  0  0  0  0
   -5.8821   -1.4493    0.3996 H   0  0  0  0  0  0  0  0  0  0  0  0
   -4.9811   -0.4230   -0.7475 H   0  0  0  0  0  0  0  0  0  0  0  0
   -4.6777   -0.2830    1.0080 H   0  0  0  0  0  0  0  0  0  0  0  0
    1.4000   -1.1372   -0.8829 O   0  0  0  0  0  0  0  0  0  0  0  0
    1.5995   -0.1981   -0.9854 H   0  0  0  0  0  0  0  0  0  0  0  0
  1  6  1  0  0  0  0
  1  7  1  0  0  0  0
  2  1  2  0  0  0  0
  3  4  2  0  0  0  0
  3  2  1  0  0  0  0
  4  5  1  0  0  0  0
  5 10  1  0  0  0  0
  5  6  2  0  0  0  0
  6 13  1  0  0  0  0
  8  2  1  0  0  0  0
  9  4  1  0  0  0  0
 12 11  3  0  0  0  0
 13 14  1  0  0  0  0
 14 15  1  0  0  0  0
 14 17  1  0  0  0  0
 16 14  1  0  0  0  0
 18  3  1  0  0  0  0
 19 18  1  0  0  0  0
M  END
