Coordinates from ORCA-job 4-MeO-Ph-N2-OH-B3LYPG-6-31G_dp-MTMO-d009-169-n800
 OpenBabel09051907473D

 19 18  0  0  0  0  0  0  0  0999 V2000
   -1.4392   -2.4673   -0.2267 C   0  0  0  0  0  0  0  0  0  0  0  0
   -0.0944   -2.2412   -0.4822 C   0  0  0  0  0  0  0  0  0  0  0  0
    0.3745   -0.9349   -0.6788 C   0  0  0  0  0  0  0  0  0  0  0  0
   -0.5226    0.1296   -0.6161 C   0  0  0  0  0  0  0  0  0  0  0  0
   -1.8807   -0.0953   -0.3587 C   0  0  0  0  0  0  0  0  0  0  0  0
   -2.3457   -1.3976   -0.1622 C   0  0  0  0  0  0  0  0  0  0  0  0
   -1.8155   -3.4733   -0.0713 H   0  0  0  0  0  0  0  0  0  0  0  0
    0.6099   -3.0649   -0.5338 H   0  0  0  0  0  0  0  0  0  0  0  0
   -0.1706    1.1481   -0.7690 H   0  0  0  0  0  0  0  0  0  0  0  0
   -2.5533    0.7533   -0.3169 H   0  0  0  0  0  0  0  0  0  0  0  0
    5.1018    5.6429   -1.0540 N   0  0  0  0  0  0  0  0  0  0  0  0
    5.8089    6.4911   -1.0071 N   0  0  0  0  0  0  0  0  0  0  0  0
   -3.6487   -1.7354    0.0955 O   0  0  0  0  0  0  0  0  0  0  0  0
   -4.6017   -0.6916    0.1669 C   0  0  0  0  0  0  0  0  0  0  0  0
   -5.5607   -1.1686    0.3759 H   0  0  0  0  0  0  0  0  0  0  0  0
   -4.6746   -0.1401   -0.7806 H   0  0  0  0  0  0  0  0  0  0  0  0
   -4.3704    0.0178    0.9731 H   0  0  0  0  0  0  0  0  0  0  0  0
    1.7139   -0.7745   -0.9264 O   0  0  0  0  0  0  0  0  0  0  0  0
    1.9011    0.1662   -1.0378 H   0  0  0  0  0  0  0  0  0  0  0  0
  1  6  1  0  0  0  0
  1  7  1  0  0  0  0
  2  1  2  0  0  0  0
  3  4  2  0  0  0  0
  3  2  1  0  0  0  0
  4  5  1  0  0  0  0
  5 10  1  0  0  0  0
  5  6  2  0  0  0  0
  6 13  1  0  0  0  0
  8  2  1  0  0  0  0
  9  4  1  0  0  0  0
 11 12  3  0  0  0  0
 13 14  1  0  0  0  0
 14 15  1  0  0  0  0
 14 17  1  0  0  0  0
 16 14  1  0  0  0  0
 18  3  1  0  0  0  0
 19 18  1  0  0  0  0
M  END
