Coordinates from ORCA-job 4-MeO-Ph-N2-OH-B3LYPG-6-31G_dp-MTMO-d009-169-n800
 OpenBabel09051907473D

 19 18  0  0  0  0  0  0  0  0999 V2000
   -1.1445   -2.1844   -0.2511 C   0  0  0  0  0  0  0  0  0  0  0  0
    0.1651   -1.7844   -0.4750 C   0  0  0  0  0  0  0  0  0  0  0  0
    0.4683   -0.4252   -0.6356 C   0  0  0  0  0  0  0  0  0  0  0  0
   -0.5575    0.5159   -0.5696 C   0  0  0  0  0  0  0  0  0  0  0  0
   -1.8805    0.1154   -0.3434 C   0  0  0  0  0  0  0  0  0  0  0  0
   -2.1799   -1.2393   -0.1826 C   0  0  0  0  0  0  0  0  0  0  0  0
   -1.3928   -3.2333   -0.1233 H   0  0  0  0  0  0  0  0  0  0  0  0
    0.9693   -2.5109   -0.5288 H   0  0  0  0  0  0  0  0  0  0  0  0
   -0.3349    1.5739   -0.6957 H   0  0  0  0  0  0  0  0  0  0  0  0
   -2.6560    0.8705   -0.2968 H   0  0  0  0  0  0  0  0  0  0  0  0
    4.1350    3.6868   -1.0609 N   0  0  0  0  0  0  0  0  0  0  0  0
    4.9818    4.3969   -1.0523 N   0  0  0  0  0  0  0  0  0  0  0  0
   -3.4340   -1.7444    0.0433 O   0  0  0  0  0  0  0  0  0  0  0  0
   -4.5121   -0.8311    0.1187 C   0  0  0  0  0  0  0  0  0  0  0  0
   -5.4069   -1.4301    0.2964 H   0  0  0  0  0  0  0  0  0  0  0  0
   -4.6375   -0.2686   -0.8169 H   0  0  0  0  0  0  0  0  0  0  0  0
   -4.3867   -0.1188    0.9459 H   0  0  0  0  0  0  0  0  0  0  0  0
    1.7808   -0.0921   -0.8518 O   0  0  0  0  0  0  0  0  0  0  0  0
    1.8552    0.8677   -0.9307 H   0  0  0  0  0  0  0  0  0  0  0  0
  1  6  1  0  0  0  0
  1  7  1  0  0  0  0
  2  1  2  0  0  0  0
  3  4  2  0  0  0  0
  3  2  1  0  0  0  0
  4  5  1  0  0  0  0
  5 10  1  0  0  0  0
  5  6  2  0  0  0  0
  6 13  1  0  0  0  0
  8  2  1  0  0  0  0
  9  4  1  0  0  0  0
 11 12  3  0  0  0  0
 13 14  1  0  0  0  0
 14 15  1  0  0  0  0
 14 17  1  0  0  0  0
 16 14  1  0  0  0  0
 18  3  1  0  0  0  0
 19 18  1  0  0  0  0
M  END
