Coordinates from ORCA-job 4-MeO-Ph-N2-OH-B3LYPG-6-31G_dp-MTMO-d009-169-n800
 OpenBabel09051907473D

 19 18  0  0  0  0  0  0  0  0999 V2000
   -1.5157   -2.5401   -0.2242 C   0  0  0  0  0  0  0  0  0  0  0  0
   -0.1691   -2.3230   -0.4779 C   0  0  0  0  0  0  0  0  0  0  0  0
    0.3094   -1.0195   -0.6699 C   0  0  0  0  0  0  0  0  0  0  0  0
   -0.5800    0.0513   -0.6046 C   0  0  0  0  0  0  0  0  0  0  0  0
   -1.9400   -0.1645   -0.3491 C   0  0  0  0  0  0  0  0  0  0  0  0
   -2.4145   -1.4641   -0.1572 C   0  0  0  0  0  0  0  0  0  0  0  0
   -1.8995   -3.5438   -0.0725 H   0  0  0  0  0  0  0  0  0  0  0  0
    0.5292   -3.1516   -0.5315 H   0  0  0  0  0  0  0  0  0  0  0  0
   -0.2204    1.0677   -0.7539 H   0  0  0  0  0  0  0  0  0  0  0  0
   -2.6064    0.6888   -0.3054 H   0  0  0  0  0  0  0  0  0  0  0  0
    5.6478    6.2507   -1.1040 N   0  0  0  0  0  0  0  0  0  0  0  0
    6.3740    7.0836   -1.0779 N   0  0  0  0  0  0  0  0  0  0  0  0
   -3.7201   -1.7932    0.0984 O   0  0  0  0  0  0  0  0  0  0  0  0
   -4.6655   -0.7427    0.1726 C   0  0  0  0  0  0  0  0  0  0  0  0
   -5.6281   -1.2133    0.3799 H   0  0  0  0  0  0  0  0  0  0  0  0
   -4.7341   -0.1879   -0.7734 H   0  0  0  0  0  0  0  0  0  0  0  0
   -4.4294   -0.0374    0.9810 H   0  0  0  0  0  0  0  0  0  0  0  0
    1.6502   -0.8680   -0.9158 O   0  0  0  0  0  0  0  0  0  0  0  0
    1.8443    0.0715   -1.0246 H   0  0  0  0  0  0  0  0  0  0  0  0
  1  6  1  0  0  0  0
  1  7  1  0  0  0  0
  2  1  2  0  0  0  0
  3  4  2  0  0  0  0
  3  2  1  0  0  0  0
  4  5  1  0  0  0  0
  5 10  1  0  0  0  0
  5  6  2  0  0  0  0
  6 13  1  0  0  0  0
  8  2  1  0  0  0  0
  9  4  1  0  0  0  0
 11 12  3  0  0  0  0
 13 14  1  0  0  0  0
 14 15  1  0  0  0  0
 14 17  1  0  0  0  0
 16 14  1  0  0  0  0
 18  3  1  0  0  0  0
 19 18  1  0  0  0  0
M  END
