Coordinates from ORCA-job 4-MeO-Ph-N2-OH-B3LYPG-6-31G_dp-MTMO-d009-169-n800
 OpenBabel09051907473D

 19 18  0  0  0  0  0  0  0  0999 V2000
   -1.4032   -2.4339   -0.2261 C   0  0  0  0  0  0  0  0  0  0  0  0
   -0.0600   -2.2003   -0.4831 C   0  0  0  0  0  0  0  0  0  0  0  0
    0.4008   -0.8916   -0.6833 C   0  0  0  0  0  0  0  0  0  0  0  0
   -0.5028    0.1676   -0.6227 C   0  0  0  0  0  0  0  0  0  0  0  0
   -1.8593   -0.0650   -0.3637 C   0  0  0  0  0  0  0  0  0  0  0  0
   -2.3162   -1.3696   -0.1637 C   0  0  0  0  0  0  0  0  0  0  0  0
   -1.7733   -3.4418   -0.0680 H   0  0  0  0  0  0  0  0  0  0  0  0
    0.6492   -3.0198   -0.5331 H   0  0  0  0  0  0  0  0  0  0  0  0
   -0.1570    1.1877   -0.7784 H   0  0  0  0  0  0  0  0  0  0  0  0
   -2.5369    0.7797   -0.3235 H   0  0  0  0  0  0  0  0  0  0  0  0
    4.8809    5.3715   -1.0333 N   0  0  0  0  0  0  0  0  0  0  0  0
    5.5777    6.2275   -0.9752 N   0  0  0  0  0  0  0  0  0  0  0  0
   -3.6169   -1.7146    0.0957 O   0  0  0  0  0  0  0  0  0  0  0  0
   -4.5763   -0.6765    0.1649 C   0  0  0  0  0  0  0  0  0  0  0  0
   -5.5323   -1.1589    0.3752 H   0  0  0  0  0  0  0  0  0  0  0  0
   -4.6528   -0.1277   -0.7839 H   0  0  0  0  0  0  0  0  0  0  0  0
   -4.3492    0.0361    0.9694 H   0  0  0  0  0  0  0  0  0  0  0  0
    1.7390   -0.7237   -0.9322 O   0  0  0  0  0  0  0  0  0  0  0  0
    1.9206    0.2179   -1.0452 H   0  0  0  0  0  0  0  0  0  0  0  0
  1  6  1  0  0  0  0
  1  7  1  0  0  0  0
  2  1  2  0  0  0  0
  3  4  2  0  0  0  0
  3  2  1  0  0  0  0
  4  5  1  0  0  0  0
  5 10  1  0  0  0  0
  5  6  2  0  0  0  0
  6 13  1  0  0  0  0
  8  2  1  0  0  0  0
  9  4  1  0  0  0  0
 11 12  3  0  0  0  0
 13 14  1  0  0  0  0
 14 15  1  0  0  0  0
 14 17  1  0  0  0  0
 16 14  1  0  0  0  0
 18  3  1  0  0  0  0
 19 18  1  0  0  0  0
M  END
