Coordinates from ORCA-job 4-MeO-Ph-N2-OH-B3LYPG-6-31G_dp-MTMO-d009-169-n800
 OpenBabel09051907473D

 19 18  0  0  0  0  0  0  0  0999 V2000
   -1.7596   -2.7790   -0.2070 C   0  0  0  0  0  0  0  0  0  0  0  0
   -0.4114   -2.5678   -0.4574 C   0  0  0  0  0  0  0  0  0  0  0  0
    0.0744   -1.2660   -0.6419 C   0  0  0  0  0  0  0  0  0  0  0  0
   -0.8094   -0.1908   -0.5727 C   0  0  0  0  0  0  0  0  0  0  0  0
   -2.1709   -0.4006   -0.3205 C   0  0  0  0  0  0  0  0  0  0  0  0
   -2.6527   -1.6985   -0.1359 C   0  0  0  0  0  0  0  0  0  0  0  0
   -2.1490   -3.7814   -0.0611 H   0  0  0  0  0  0  0  0  0  0  0  0
    0.2826   -3.3999   -0.5141 H   0  0  0  0  0  0  0  0  0  0  0  0
   -0.4441    0.8244   -0.7162 H   0  0  0  0  0  0  0  0  0  0  0  0
   -2.8328    0.4560   -0.2737 H   0  0  0  0  0  0  0  0  0  0  0  0
    7.6389    8.2755   -1.3014 N   0  0  0  0  0  0  0  0  0  0  0  0
    8.3862    9.0899   -1.3014 N   0  0  0  0  0  0  0  0  0  0  0  0
   -3.9604   -2.0219    0.1160 O   0  0  0  0  0  0  0  0  0  0  0  0
   -4.9003   -0.9667    0.1942 C   0  0  0  0  0  0  0  0  0  0  0  0
   -5.8656   -1.4331    0.3981 H   0  0  0  0  0  0  0  0  0  0  0  0
   -4.9647   -0.4070   -0.7492 H   0  0  0  0  0  0  0  0  0  0  0  0
   -4.6613   -0.2666    1.0063 H   0  0  0  0  0  0  0  0  0  0  0  0
    1.4164   -1.1205   -0.8848 O   0  0  0  0  0  0  0  0  0  0  0  0
    1.6159   -0.1814   -0.9875 H   0  0  0  0  0  0  0  0  0  0  0  0
  1  6  1  0  0  0  0
  1  7  1  0  0  0  0
  2  1  2  0  0  0  0
  3  4  2  0  0  0  0
  3  2  1  0  0  0  0
  4  5  1  0  0  0  0
  5 10  1  0  0  0  0
  5  6  2  0  0  0  0
  6 13  1  0  0  0  0
  8  2  1  0  0  0  0
  9  4  1  0  0  0  0
 12 11  3  0  0  0  0
 13 14  1  0  0  0  0
 14 15  1  0  0  0  0
 14 17  1  0  0  0  0
 16 14  1  0  0  0  0
 18  3  1  0  0  0  0
 19 18  1  0  0  0  0
M  END
