Coordinates from ORCA-job 4-MeO-Ph-N2-OH-B3LYPG-6-31G_dp-MTMO-d009-169-n800
 OpenBabel09051907473D

 19 18  0  0  0  0  0  0  0  0999 V2000
   -1.9396   -2.9569   -0.1901 C   0  0  0  0  0  0  0  0  0  0  0  0
   -0.5912   -2.7471   -0.4399 C   0  0  0  0  0  0  0  0  0  0  0  0
   -0.1037   -1.4457   -0.6232 C   0  0  0  0  0  0  0  0  0  0  0  0
   -0.9862   -0.3695   -0.5532 C   0  0  0  0  0  0  0  0  0  0  0  0
   -2.3480   -0.5778   -0.3016 C   0  0  0  0  0  0  0  0  0  0  0  0
   -2.8314   -1.8754   -0.1183 C   0  0  0  0  0  0  0  0  0  0  0  0
   -2.3303   -3.9589   -0.0452 H   0  0  0  0  0  0  0  0  0  0  0  0
    0.1018   -3.5800   -0.4972 H   0  0  0  0  0  0  0  0  0  0  0  0
   -0.6196    0.6454   -0.6957 H   0  0  0  0  0  0  0  0  0  0  0  0
   -3.0089    0.2796   -0.2542 H   0  0  0  0  0  0  0  0  0  0  0  0
    9.1521    9.7851   -1.4542 N   0  0  0  0  0  0  0  0  0  0  0  0
    9.9015   10.5975   -1.4591 N   0  0  0  0  0  0  0  0  0  0  0  0
   -4.1396   -2.1973    0.1330 O   0  0  0  0  0  0  0  0  0  0  0  0
   -5.0782   -1.1410    0.2120 C   0  0  0  0  0  0  0  0  0  0  0  0
   -6.0441   -1.6064    0.4154 H   0  0  0  0  0  0  0  0  0  0  0  0
   -5.1418   -0.5804   -0.7309 H   0  0  0  0  0  0  0  0  0  0  0  0
   -4.8384   -0.4419    1.0247 H   0  0  0  0  0  0  0  0  0  0  0  0
    1.2386   -1.3017   -0.8655 O   0  0  0  0  0  0  0  0  0  0  0  0
    1.4393   -0.3628   -0.9673 H   0  0  0  0  0  0  0  0  0  0  0  0
  1  6  1  0  0  0  0
  1  7  1  0  0  0  0
  2  1  2  0  0  0  0
  3  4  2  0  0  0  0
  3  2  1  0  0  0  0
  4  5  1  0  0  0  0
  5 10  1  0  0  0  0
  5  6  2  0  0  0  0
  6 13  1  0  0  0  0
  8  2  1  0  0  0  0
  9  4  1  0  0  0  0
 12 11  3  0  0  0  0
 13 14  1  0  0  0  0
 14 15  1  0  0  0  0
 14 17  1  0  0  0  0
 16 14  1  0  0  0  0
 18  3  1  0  0  0  0
 19 18  1  0  0  0  0
M  END
