Coordinates from ORCA-job 4-MeO-Ph-N2-OH-B3LYPG-6-31G_dp-MTMO-d009-169-n800
 OpenBabel09051907473D

 19 18  0  0  0  0  0  0  0  0999 V2000
   -1.7474   -2.7670   -0.2080 C   0  0  0  0  0  0  0  0  0  0  0  0
   -0.3993   -2.5557   -0.4585 C   0  0  0  0  0  0  0  0  0  0  0  0
    0.0863   -1.2538   -0.6433 C   0  0  0  0  0  0  0  0  0  0  0  0
   -0.7975   -0.1787   -0.5742 C   0  0  0  0  0  0  0  0  0  0  0  0
   -2.1590   -0.3887   -0.3219 C   0  0  0  0  0  0  0  0  0  0  0  0
   -2.6406   -1.6866   -0.1371 C   0  0  0  0  0  0  0  0  0  0  0  0
   -2.1367   -3.7695   -0.0619 H   0  0  0  0  0  0  0  0  0  0  0  0
    0.2948   -3.3877   -0.5151 H   0  0  0  0  0  0  0  0  0  0  0  0
   -0.4324    0.8365   -0.7179 H   0  0  0  0  0  0  0  0  0  0  0  0
   -2.8211    0.4679   -0.2751 H   0  0  0  0  0  0  0  0  0  0  0  0
    7.5372    8.1738   -1.2910 N   0  0  0  0  0  0  0  0  0  0  0  0
    8.2842    8.9884   -1.2906 N   0  0  0  0  0  0  0  0  0  0  0  0
   -3.9483   -2.0101    0.1150 O   0  0  0  0  0  0  0  0  0  0  0  0
   -4.8883   -0.9550    0.1931 C   0  0  0  0  0  0  0  0  0  0  0  0
   -5.8535   -1.4215    0.3971 H   0  0  0  0  0  0  0  0  0  0  0  0
   -4.9529   -0.3955   -0.7504 H   0  0  0  0  0  0  0  0  0  0  0  0
   -4.6494   -0.2548    1.0050 H   0  0  0  0  0  0  0  0  0  0  0  0
    1.4283   -1.1082   -0.8863 O   0  0  0  0  0  0  0  0  0  0  0  0
    1.6277   -0.1691   -0.9892 H   0  0  0  0  0  0  0  0  0  0  0  0
  1  6  1  0  0  0  0
  1  7  1  0  0  0  0
  2  1  2  0  0  0  0
  3  4  2  0  0  0  0
  3  2  1  0  0  0  0
  4  5  1  0  0  0  0
  5 10  1  0  0  0  0
  5  6  2  0  0  0  0
  6 13  1  0  0  0  0
  8  2  1  0  0  0  0
  9  4  1  0  0  0  0
 11 12  3  0  0  0  0
 13 14  1  0  0  0  0
 14 15  1  0  0  0  0
 14 17  1  0  0  0  0
 16 14  1  0  0  0  0
 18  3  1  0  0  0  0
 19 18  1  0  0  0  0
M  END
