Coordinates from ORCA-job 4-MeO-Ph-N2-OH-B3LYPG-6-31G_dp-MTMO-d009-169-n800
 OpenBabel09051907473D

 19 18  0  0  0  0  0  0  0  0999 V2000
   -1.8338   -2.8523   -0.2004 C   0  0  0  0  0  0  0  0  0  0  0  0
   -0.4855   -2.6417   -0.4503 C   0  0  0  0  0  0  0  0  0  0  0  0
    0.0010   -1.3400   -0.6340 C   0  0  0  0  0  0  0  0  0  0  0  0
   -0.8822   -0.2643   -0.5642 C   0  0  0  0  0  0  0  0  0  0  0  0
   -2.2438   -0.4736   -0.3125 C   0  0  0  0  0  0  0  0  0  0  0  0
   -2.7263   -1.7714   -0.1288 C   0  0  0  0  0  0  0  0  0  0  0  0
   -2.2238   -3.8546   -0.0552 H   0  0  0  0  0  0  0  0  0  0  0  0
    0.2080   -3.4741   -0.5074 H   0  0  0  0  0  0  0  0  0  0  0  0
   -0.5163    0.7507   -0.7070 H   0  0  0  0  0  0  0  0  0  0  0  0
   -2.9053    0.3834   -0.2652 H   0  0  0  0  0  0  0  0  0  0  0  0
    8.2621    8.8977   -1.3645 N   0  0  0  0  0  0  0  0  0  0  0  0
    9.0107    9.7109   -1.3669 N   0  0  0  0  0  0  0  0  0  0  0  0
   -4.0343   -2.0942    0.1227 O   0  0  0  0  0  0  0  0  0  0  0  0
   -4.9736   -1.0386    0.2014 C   0  0  0  0  0  0  0  0  0  0  0  0
   -5.9392   -1.5046    0.4049 H   0  0  0  0  0  0  0  0  0  0  0  0
   -5.0376   -0.4783   -0.7417 H   0  0  0  0  0  0  0  0  0  0  0  0
   -4.7344   -0.3391    1.0139 H   0  0  0  0  0  0  0  0  0  0  0  0
    1.3432   -1.1951   -0.8765 O   0  0  0  0  0  0  0  0  0  0  0  0
    1.5432   -0.2561   -0.9785 H   0  0  0  0  0  0  0  0  0  0  0  0
  1  6  1  0  0  0  0
  1  7  1  0  0  0  0
  2  1  2  0  0  0  0
  3  4  2  0  0  0  0
  3  2  1  0  0  0  0
  4  5  1  0  0  0  0
  5 10  1  0  0  0  0
  5  6  2  0  0  0  0
  6 13  1  0  0  0  0
  8  2  1  0  0  0  0
  9  4  1  0  0  0  0
 12 11  3  0  0  0  0
 13 14  1  0  0  0  0
 14 15  1  0  0  0  0
 14 17  1  0  0  0  0
 16 14  1  0  0  0  0
 18  3  1  0  0  0  0
 19 18  1  0  0  0  0
M  END
