Coordinates from ORCA-job 4-MeO-Ph-N2-OH-B3LYPG-6-31G_dp-MTMO-d009-169-n800
 OpenBabel09051907463D

 19 19  0  0  0  0  0  0  0  0999 V2000
   -1.1683   -1.6816   -1.3148 C   0  0  0  0  0  0  0  0  0  0  0  0
    0.1250   -1.2238   -1.5541 C   0  0  0  0  0  0  0  0  0  0  0  0
    0.4903    0.0016   -1.0248 C   0  0  0  0  0  0  0  0  0  0  0  0
   -0.3654    0.8161   -0.3120 C   0  0  0  0  0  0  0  0  0  0  0  0
   -1.6697    0.3557   -0.0834 C   0  0  0  0  0  0  0  0  0  0  0  0
   -2.0690   -0.8933   -0.5798 C   0  0  0  0  0  0  0  0  0  0  0  0
   -1.5078   -2.6391   -1.6949 H   0  0  0  0  0  0  0  0  0  0  0  0
    0.8281   -1.8078   -2.1382 H   0  0  0  0  0  0  0  0  0  0  0  0
   -0.0434    1.7734    0.0760 H   0  0  0  0  0  0  0  0  0  0  0  0
   -2.3546    0.9778    0.4806 H   0  0  0  0  0  0  0  0  0  0  0  0
    2.2034    0.5432   -1.5826 N   0  0  0  0  0  0  0  0  0  0  0  0
    2.9449    1.0046   -0.7471 N   0  0  0  0  0  0  0  0  0  0  0  0
   -3.3117   -1.4305   -0.4082 O   0  0  0  0  0  0  0  0  0  0  0  0
   -4.2753   -0.6836    0.3171 C   0  0  0  0  0  0  0  0  0  0  0  0
   -5.1829   -1.2892    0.3237 H   0  0  0  0  0  0  0  0  0  0  0  0
   -4.4890    0.2795   -0.1641 H   0  0  0  0  0  0  0  0  0  0  0  0
   -3.9548   -0.5039    1.3514 H   0  0  0  0  0  0  0  0  0  0  0  0
    2.4366    1.0957    0.5853 O   0  0  0  0  0  0  0  0  0  0  0  0
    3.1957    1.4697    1.0597 H   0  0  0  0  0  0  0  0  0  0  0  0
  1  6  1  0  0  0  0
  2  1  2  0  0  0  0
  2  3  1  0  0  0  0
  3  4  2  0  0  0  0
  4  5  1  0  0  0  0
  4  9  1  0  0  0  0
  5 10  1  0  0  0  0
  6 13  1  0  0  0  0
  6  5  2  0  0  0  0
  7  1  1  0  0  0  0
  8  2  1  0  0  0  0
 11  3  1  0  0  0  0
 11 12  2  0  0  0  0
 12 18  1  0  0  0  0
 13 14  1  0  0  0  0
 14 15  1  0  0  0  0
 14 17  1  0  0  0  0
 16 14  1  0  0  0  0
 18 19  1  0  0  0  0
M  END
