Coordinates from ORCA-job 4-MeO-Ph-N2-OH-B3LYPG-6-31G_dp-MTMO-d009-169-n800
 OpenBabel09051907473D

 19 18  0  0  0  0  0  0  0  0999 V2000
   -1.8156   -2.8344   -0.2021 C   0  0  0  0  0  0  0  0  0  0  0  0
   -0.4674   -2.6236   -0.4521 C   0  0  0  0  0  0  0  0  0  0  0  0
    0.0190   -1.3218   -0.6359 C   0  0  0  0  0  0  0  0  0  0  0  0
   -0.8643   -0.2463   -0.5663 C   0  0  0  0  0  0  0  0  0  0  0  0
   -2.2260   -0.4557   -0.3144 C   0  0  0  0  0  0  0  0  0  0  0  0
   -2.7083   -1.7536   -0.1305 C   0  0  0  0  0  0  0  0  0  0  0  0
   -2.2055   -3.8367   -0.0567 H   0  0  0  0  0  0  0  0  0  0  0  0
    0.2263   -3.4559   -0.5091 H   0  0  0  0  0  0  0  0  0  0  0  0
   -0.4987    0.7688   -0.7092 H   0  0  0  0  0  0  0  0  0  0  0  0
   -2.8876    0.4011   -0.2672 H   0  0  0  0  0  0  0  0  0  0  0  0
    8.1096    8.7454   -1.3491 N   0  0  0  0  0  0  0  0  0  0  0  0
    8.8579    9.5588   -1.3510 N   0  0  0  0  0  0  0  0  0  0  0  0
   -4.0162   -2.0765    0.1210 O   0  0  0  0  0  0  0  0  0  0  0  0
   -4.9557   -1.0210    0.1996 C   0  0  0  0  0  0  0  0  0  0  0  0
   -5.9212   -1.4872    0.4032 H   0  0  0  0  0  0  0  0  0  0  0  0
   -5.0198   -0.4608   -0.7435 H   0  0  0  0  0  0  0  0  0  0  0  0
   -4.7165   -0.3214    1.0120 H   0  0  0  0  0  0  0  0  0  0  0  0
    1.3611   -1.1768   -0.8785 O   0  0  0  0  0  0  0  0  0  0  0  0
    1.5610   -0.2377   -0.9806 H   0  0  0  0  0  0  0  0  0  0  0  0
  1  6  1  0  0  0  0
  1  7  1  0  0  0  0
  2  1  2  0  0  0  0
  3  4  2  0  0  0  0
  3  2  1  0  0  0  0
  4  5  1  0  0  0  0
  5 10  1  0  0  0  0
  5  6  2  0  0  0  0
  6 13  1  0  0  0  0
  8  2  1  0  0  0  0
  9  4  1  0  0  0  0
 12 11  3  0  0  0  0
 13 14  1  0  0  0  0
 14 15  1  0  0  0  0
 14 17  1  0  0  0  0
 16 14  1  0  0  0  0
 18  3  1  0  0  0  0
 19 18  1  0  0  0  0
M  END
