Coordinates from ORCA-job 4-MeO-Ph-N2-OH-B3LYPG-6-31G_dp-MTMO-d009-169-n800
 OpenBabel09051907473D

 19 18  0  0  0  0  0  0  0  0999 V2000
   -1.0932   -2.1465   -0.2560 C   0  0  0  0  0  0  0  0  0  0  0  0
    0.2176   -1.7519   -0.4824 C   0  0  0  0  0  0  0  0  0  0  0  0
    0.5259   -0.3942   -0.6461 C   0  0  0  0  0  0  0  0  0  0  0  0
   -0.4963    0.5510   -0.5807 C   0  0  0  0  0  0  0  0  0  0  0  0
   -1.8205    0.1558   -0.3520 C   0  0  0  0  0  0  0  0  0  0  0  0
   -2.1249   -1.1974   -0.1881 C   0  0  0  0  0  0  0  0  0  0  0  0
   -1.3453   -3.1942   -0.1257 H   0  0  0  0  0  0  0  0  0  0  0  0
    1.0190   -2.4815   -0.5358 H   0  0  0  0  0  0  0  0  0  0  0  0
   -0.2697    1.6077   -0.7092 H   0  0  0  0  0  0  0  0  0  0  0  0
   -2.5931    0.9140   -0.3059 H   0  0  0  0  0  0  0  0  0  0  0  0
    3.6757    3.3230   -0.9981 N   0  0  0  0  0  0  0  0  0  0  0  0
    4.4703    4.0907   -0.9827 N   0  0  0  0  0  0  0  0  0  0  0  0
   -3.3808   -1.6973    0.0402 O   0  0  0  0  0  0  0  0  0  0  0  0
   -4.4554   -0.7798    0.1140 C   0  0  0  0  0  0  0  0  0  0  0  0
   -5.3524   -1.3750    0.2933 H   0  0  0  0  0  0  0  0  0  0  0  0
   -4.5790   -0.2189   -0.8229 H   0  0  0  0  0  0  0  0  0  0  0  0
   -4.3271   -0.0662    0.9394 H   0  0  0  0  0  0  0  0  0  0  0  0
    1.8392   -0.0670   -0.8650 O   0  0  0  0  0  0  0  0  0  0  0  0
    1.9222    0.8922   -0.9465 H   0  0  0  0  0  0  0  0  0  0  0  0
  1  6  1  0  0  0  0
  1  7  1  0  0  0  0
  2  1  2  0  0  0  0
  3  4  2  0  0  0  0
  3  2  1  0  0  0  0
  4  5  1  0  0  0  0
  5 10  1  0  0  0  0
  5  6  2  0  0  0  0
  6 13  1  0  0  0  0
  8  2  1  0  0  0  0
  9  4  1  0  0  0  0
 11 12  3  0  0  0  0
 13 14  1  0  0  0  0
 14 15  1  0  0  0  0
 14 17  1  0  0  0  0
 16 14  1  0  0  0  0
 18  3  1  0  0  0  0
 19 18  1  0  0  0  0
M  END
