Coordinates from ORCA-job 4-MeO-Ph-N2-OH-B3LYPG-6-31G_dp-MTMO-d009-169-n800
 OpenBabel09051907473D

 19 18  0  0  0  0  0  0  0  0999 V2000
   -1.9230   -2.9405   -0.1918 C   0  0  0  0  0  0  0  0  0  0  0  0
   -0.5746   -2.7306   -0.4416 C   0  0  0  0  0  0  0  0  0  0  0  0
   -0.0872   -1.4291   -0.6248 C   0  0  0  0  0  0  0  0  0  0  0  0
   -0.9698   -0.3530   -0.5549 C   0  0  0  0  0  0  0  0  0  0  0  0
   -2.3316   -0.5615   -0.3033 C   0  0  0  0  0  0  0  0  0  0  0  0
   -2.8149   -1.8590   -0.1199 C   0  0  0  0  0  0  0  0  0  0  0  0
   -2.3136   -3.9426   -0.0469 H   0  0  0  0  0  0  0  0  0  0  0  0
    0.1185   -3.5634   -0.4988 H   0  0  0  0  0  0  0  0  0  0  0  0
   -0.6033    0.6619   -0.6973 H   0  0  0  0  0  0  0  0  0  0  0  0
   -2.9926    0.2959   -0.2558 H   0  0  0  0  0  0  0  0  0  0  0  0
    9.0123    9.6457   -1.4402 N   0  0  0  0  0  0  0  0  0  0  0  0
    9.7616   10.4582   -1.4447 N   0  0  0  0  0  0  0  0  0  0  0  0
   -4.1231   -2.1811    0.1313 O   0  0  0  0  0  0  0  0  0  0  0  0
   -5.0618   -1.1249    0.2103 C   0  0  0  0  0  0  0  0  0  0  0  0
   -6.0276   -1.5904    0.4137 H   0  0  0  0  0  0  0  0  0  0  0  0
   -5.1254   -0.5643   -0.7326 H   0  0  0  0  0  0  0  0  0  0  0  0
   -4.8221   -0.4258    1.0230 H   0  0  0  0  0  0  0  0  0  0  0  0
    1.2550   -1.2850   -0.8672 O   0  0  0  0  0  0  0  0  0  0  0  0
    1.4556   -0.3460   -0.9689 H   0  0  0  0  0  0  0  0  0  0  0  0
  1  6  1  0  0  0  0
  1  7  1  0  0  0  0
  2  1  2  0  0  0  0
  3  4  2  0  0  0  0
  3  2  1  0  0  0  0
  4  5  1  0  0  0  0
  5 10  1  0  0  0  0
  5  6  2  0  0  0  0
  6 13  1  0  0  0  0
  8  2  1  0  0  0  0
  9  4  1  0  0  0  0
 12 11  3  0  0  0  0
 13 14  1  0  0  0  0
 14 15  1  0  0  0  0
 14 17  1  0  0  0  0
 16 14  1  0  0  0  0
 18  3  1  0  0  0  0
 19 18  1  0  0  0  0
M  END
