Coordinates from ORCA-job 4-MeO-Ph-N2-OH-B3LYPG-6-31G_dp-MTMO-d009-169-n800
 OpenBabel09051907473D

 19 18  0  0  0  0  0  0  0  0999 V2000
   -1.3976   -2.4288   -0.2259 C   0  0  0  0  0  0  0  0  0  0  0  0
   -0.0548   -2.1937   -0.4832 C   0  0  0  0  0  0  0  0  0  0  0  0
    0.4045   -0.8847   -0.6840 C   0  0  0  0  0  0  0  0  0  0  0  0
   -0.5002    0.1735   -0.6238 C   0  0  0  0  0  0  0  0  0  0  0  0
   -1.8564   -0.0604   -0.3645 C   0  0  0  0  0  0  0  0  0  0  0  0
   -2.3118   -1.3655   -0.1639 C   0  0  0  0  0  0  0  0  0  0  0  0
   -1.7665   -3.4370   -0.0672 H   0  0  0  0  0  0  0  0  0  0  0  0
    0.6555   -3.0125   -0.5329 H   0  0  0  0  0  0  0  0  0  0  0  0
   -0.1556    1.1940   -0.7800 H   0  0  0  0  0  0  0  0  0  0  0  0
   -2.5350    0.7835   -0.3246 H   0  0  0  0  0  0  0  0  0  0  0  0
    4.8490    5.3303   -1.0302 N   0  0  0  0  0  0  0  0  0  0  0  0
    5.5443    6.1874   -0.9703 N   0  0  0  0  0  0  0  0  0  0  0  0
   -3.6121   -1.7118    0.0958 O   0  0  0  0  0  0  0  0  0  0  0  0
   -4.5727   -0.6748    0.1647 C   0  0  0  0  0  0  0  0  0  0  0  0
   -5.5281   -1.1582    0.3752 H   0  0  0  0  0  0  0  0  0  0  0  0
   -4.6498   -0.1264   -0.7844 H   0  0  0  0  0  0  0  0  0  0  0  0
   -4.3463    0.0384    0.9688 H   0  0  0  0  0  0  0  0  0  0  0  0
    1.7425   -0.7153   -0.9332 O   0  0  0  0  0  0  0  0  0  0  0  0
    1.9231    0.2265   -1.0465 H   0  0  0  0  0  0  0  0  0  0  0  0
  1  6  1  0  0  0  0
  1  7  1  0  0  0  0
  2  1  2  0  0  0  0
  3  4  2  0  0  0  0
  3  2  1  0  0  0  0
  4  5  1  0  0  0  0
  5 10  1  0  0  0  0
  5  6  2  0  0  0  0
  6 13  1  0  0  0  0
  8  2  1  0  0  0  0
  9  4  1  0  0  0  0
 11 12  3  0  0  0  0
 13 14  1  0  0  0  0
 14 15  1  0  0  0  0
 14 17  1  0  0  0  0
 16 14  1  0  0  0  0
 18  3  1  0  0  0  0
 19 18  1  0  0  0  0
M  END
