Coordinates from ORCA-job 4-MeO-Ph-N2-OH-B3LYPG-6-31G_dp-MTMO-d009-169-n800
 OpenBabel09051907473D

 19 18  0  0  0  0  0  0  0  0999 V2000
   -1.6313   -2.6528   -0.2169 C   0  0  0  0  0  0  0  0  0  0  0  0
   -0.2837   -2.4399   -0.4687 C   0  0  0  0  0  0  0  0  0  0  0  0
    0.1999   -1.1377   -0.6565 C   0  0  0  0  0  0  0  0  0  0  0  0
   -0.6855   -0.0638   -0.5890 C   0  0  0  0  0  0  0  0  0  0  0  0
   -2.0465   -0.2753   -0.3354 C   0  0  0  0  0  0  0  0  0  0  0  0
   -2.5261   -1.5736   -0.1476 C   0  0  0  0  0  0  0  0  0  0  0  0
   -2.0190   -3.6555   -0.0685 H   0  0  0  0  0  0  0  0  0  0  0  0
    0.4116   -3.2710   -0.5241 H   0  0  0  0  0  0  0  0  0  0  0  0
   -0.3220    0.9516   -0.7350 H   0  0  0  0  0  0  0  0  0  0  0  0
   -2.7098    0.5804   -0.2898 H   0  0  0  0  0  0  0  0  0  0  0  0
    6.5729    7.2049   -1.1936 N   0  0  0  0  0  0  0  0  0  0  0  0
    7.3146    8.0243   -1.1856 N   0  0  0  0  0  0  0  0  0  0  0  0
   -3.8331   -1.8985    0.1060 O   0  0  0  0  0  0  0  0  0  0  0  0
   -4.7747   -0.8447    0.1825 C   0  0  0  0  0  0  0  0  0  0  0  0
   -5.7391   -1.3122    0.3880 H   0  0  0  0  0  0  0  0  0  0  0  0
   -4.8405   -0.2870   -0.7620 H   0  0  0  0  0  0  0  0  0  0  0  0
   -4.5363   -0.1425    0.9930 H   0  0  0  0  0  0  0  0  0  0  0  0
    1.5415   -0.9906   -0.9008 O   0  0  0  0  0  0  0  0  0  0  0  0
    1.7393   -0.0515   -1.0061 H   0  0  0  0  0  0  0  0  0  0  0  0
  1  6  1  0  0  0  0
  1  7  1  0  0  0  0
  2  1  2  0  0  0  0
  3  4  2  0  0  0  0
  3  2  1  0  0  0  0
  4  5  1  0  0  0  0
  5 10  1  0  0  0  0
  5  6  2  0  0  0  0
  6 13  1  0  0  0  0
  8  2  1  0  0  0  0
  9  4  1  0  0  0  0
 11 12  3  0  0  0  0
 13 14  1  0  0  0  0
 14 15  1  0  0  0  0
 14 17  1  0  0  0  0
 16 14  1  0  0  0  0
 18  3  1  0  0  0  0
 19 18  1  0  0  0  0
M  END
