Coordinates from ORCA-job 4-MeO-Ph-N2-OH-B3LYPG-6-31G_dp-MTMO-d009-169-n800
 OpenBabel09051907473D

 19 18  0  0  0  0  0  0  0  0999 V2000
   -1.5943   -2.6165   -0.2195 C   0  0  0  0  0  0  0  0  0  0  0  0
   -0.2469   -2.4029   -0.4718 C   0  0  0  0  0  0  0  0  0  0  0  0
    0.2356   -1.1004   -0.6608 C   0  0  0  0  0  0  0  0  0  0  0  0
   -0.6506   -0.0271   -0.5939 C   0  0  0  0  0  0  0  0  0  0  0  0
   -2.0113   -0.2394   -0.3398 C   0  0  0  0  0  0  0  0  0  0  0  0
   -2.4899   -1.5379   -0.1508 C   0  0  0  0  0  0  0  0  0  0  0  0
   -1.9811   -3.6194   -0.0701 H   0  0  0  0  0  0  0  0  0  0  0  0
    0.4490   -3.2335   -0.5267 H   0  0  0  0  0  0  0  0  0  0  0  0
   -0.2879    0.9885   -0.7409 H   0  0  0  0  0  0  0  0  0  0  0  0
   -2.6753    0.6158   -0.2948 H   0  0  0  0  0  0  0  0  0  0  0  0
    6.2701    6.8972   -1.1636 N   0  0  0  0  0  0  0  0  0  0  0  0
    7.0083    7.7197   -1.1514 N   0  0  0  0  0  0  0  0  0  0  0  0
   -3.7966   -1.8636    0.1033 O   0  0  0  0  0  0  0  0  0  0  0  0
   -4.7389   -0.8105    0.1793 C   0  0  0  0  0  0  0  0  0  0  0  0
   -5.7029   -1.2786    0.3853 H   0  0  0  0  0  0  0  0  0  0  0  0
   -4.8054   -0.2536   -0.7657 H   0  0  0  0  0  0  0  0  0  0  0  0
   -4.5009   -0.1075    0.9891 H   0  0  0  0  0  0  0  0  0  0  0  0
    1.5770   -0.9525   -0.9056 O   0  0  0  0  0  0  0  0  0  0  0  0
    1.7741   -0.0133   -1.0119 H   0  0  0  0  0  0  0  0  0  0  0  0
  1  6  1  0  0  0  0
  1  7  1  0  0  0  0
  2  1  2  0  0  0  0
  3  4  2  0  0  0  0
  3  2  1  0  0  0  0
  4  5  1  0  0  0  0
  5 10  1  0  0  0  0
  5  6  2  0  0  0  0
  6 13  1  0  0  0  0
  8  2  1  0  0  0  0
  9  4  1  0  0  0  0
 11 12  3  0  0  0  0
 13 14  1  0  0  0  0
 14 15  1  0  0  0  0
 14 17  1  0  0  0  0
 16 14  1  0  0  0  0
 18  3  1  0  0  0  0
 19 18  1  0  0  0  0
M  END
