Coordinates from ORCA-job 4-MeO-Ph-N2-OH-B3LYPG-6-31G_dp-MTMO-d009-169-n800
 OpenBabel09051907473D

 19 18  0  0  0  0  0  0  0  0999 V2000
   -2.1097   -3.1252   -0.1720 C   0  0  0  0  0  0  0  0  0  0  0  0
   -0.7611   -2.9166   -0.4223 C   0  0  0  0  0  0  0  0  0  0  0  0
   -0.2728   -1.6157   -0.6067 C   0  0  0  0  0  0  0  0  0  0  0  0
   -1.1544   -0.5388   -0.5373 C   0  0  0  0  0  0  0  0  0  0  0  0
   -2.5163   -0.7459   -0.2851 C   0  0  0  0  0  0  0  0  0  0  0  0
   -3.0006   -2.0430   -0.1007 C   0  0  0  0  0  0  0  0  0  0  0  0
   -2.5011   -4.1269   -0.0262 H   0  0  0  0  0  0  0  0  0  0  0  0
   -0.0688   -3.7501   -0.4791 H   0  0  0  0  0  0  0  0  0  0  0  0
   -0.7871    0.4757   -0.6806 H   0  0  0  0  0  0  0  0  0  0  0  0
   -3.1766    0.1120   -0.2382 H   0  0  0  0  0  0  0  0  0  0  0  0
   10.5816   11.2207   -1.6030 N   0  0  0  0  0  0  0  0  0  0  0  0
   11.3438   12.0211   -1.6013 N   0  0  0  0  0  0  0  0  0  0  0  0
   -4.3090   -2.3638    0.1512 O   0  0  0  0  0  0  0  0  0  0  0  0
   -5.2468   -1.3068    0.2299 C   0  0  0  0  0  0  0  0  0  0  0  0
   -6.2129   -1.7713    0.4340 H   0  0  0  0  0  0  0  0  0  0  0  0
   -5.3103   -0.7467   -0.7134 H   0  0  0  0  0  0  0  0  0  0  0  0
   -5.0061   -0.6073    1.0420 H   0  0  0  0  0  0  0  0  0  0  0  0
    1.0696   -1.4729   -0.8495 O   0  0  0  0  0  0  0  0  0  0  0  0
    1.2709   -0.5342   -0.9521 H   0  0  0  0  0  0  0  0  0  0  0  0
  1  6  1  0  0  0  0
  1  7  1  0  0  0  0
  2  1  2  0  0  0  0
  3  4  2  0  0  0  0
  3  2  1  0  0  0  0
  4  5  1  0  0  0  0
  5 10  1  0  0  0  0
  5  6  2  0  0  0  0
  6 13  1  0  0  0  0
  8  2  1  0  0  0  0
  9  4  1  0  0  0  0
 11 12  3  0  0  0  0
 13 14  1  0  0  0  0
 14 15  1  0  0  0  0
 14 17  1  0  0  0  0
 16 14  1  0  0  0  0
 18  3  1  0  0  0  0
 19 18  1  0  0  0  0
M  END
