Coordinates from ORCA-job 4-MeO-Ph-N2-OH-B3LYPG-6-31G_dp-MTMO-d009-169-n800
 OpenBabel09051907463D

 19 19  0  0  0  0  0  0  0  0999 V2000
   -1.1881   -1.6779   -1.3749 C   0  0  0  0  0  0  0  0  0  0  0  0
    0.1180   -1.2540   -1.5802 C   0  0  0  0  0  0  0  0  0  0  0  0
    0.5571   -0.0734   -0.9857 C   0  0  0  0  0  0  0  0  0  0  0  0
   -0.2936    0.7213   -0.2275 C   0  0  0  0  0  0  0  0  0  0  0  0
   -1.6154    0.3041   -0.0372 C   0  0  0  0  0  0  0  0  0  0  0  0
   -2.0633   -0.8984   -0.6011 C   0  0  0  0  0  0  0  0  0  0  0  0
   -1.5600   -2.5989   -1.8105 H   0  0  0  0  0  0  0  0  0  0  0  0
    0.8026   -1.8281   -2.1956 H   0  0  0  0  0  0  0  0  0  0  0  0
    0.0534    1.6440    0.2142 H   0  0  0  0  0  0  0  0  0  0  0  0
   -2.2792    0.9242    0.5533 H   0  0  0  0  0  0  0  0  0  0  0  0
    2.1110    0.2998   -1.4383 N   0  0  0  0  0  0  0  0  0  0  0  0
    2.8706    0.9315   -0.7246 N   0  0  0  0  0  0  0  0  0  0  0  0
   -3.3256   -1.3932   -0.4639 O   0  0  0  0  0  0  0  0  0  0  0  0
   -4.2634   -0.6513    0.3006 C   0  0  0  0  0  0  0  0  0  0  0  0
   -5.1917   -1.2240    0.2761 H   0  0  0  0  0  0  0  0  0  0  0  0
   -4.4419    0.3424   -0.1299 H   0  0  0  0  0  0  0  0  0  0  0  0
   -3.9370   -0.5376    1.3423 H   0  0  0  0  0  0  0  0  0  0  0  0
    2.3534    1.3450    0.5456 O   0  0  0  0  0  0  0  0  0  0  0  0
    3.1254    1.7890    0.9270 H   0  0  0  0  0  0  0  0  0  0  0  0
  1  6  1  0  0  0  0
  2  1  2  0  0  0  0
  2  3  1  0  0  0  0
  3  4  2  0  0  0  0
  4  5  1  0  0  0  0
  4  9  1  0  0  0  0
  5 10  1  0  0  0  0
  6 13  1  0  0  0  0
  6  5  2  0  0  0  0
  7  1  1  0  0  0  0
  8  2  1  0  0  0  0
 11  3  1  0  0  0  0
 11 12  2  0  0  0  0
 12 18  1  0  0  0  0
 13 14  1  0  0  0  0
 14 17  1  0  0  0  0
 15 14  1  0  0  0  0
 16 14  1  0  0  0  0
 18 19  1  0  0  0  0
M  END
