Coordinates from ORCA-job 4-MeO-Ph-N2-OH-B3LYPG-6-31G_dp-MTMO-d009-169-n800
 OpenBabel09051907463D

 19 18  0  0  0  0  0  0  0  0999 V2000
   -1.0782   -1.6336   -1.0298 C   0  0  0  0  0  0  0  0  0  0  0  0
    0.1769   -1.0662   -1.2690 C   0  0  0  0  0  0  0  0  0  0  0  0
    0.3120    0.2596   -0.9324 C   0  0  0  0  0  0  0  0  0  0  0  0
   -0.6484    1.0745   -0.4006 C   0  0  0  0  0  0  0  0  0  0  0  0
   -1.9070    0.4883   -0.1650 C   0  0  0  0  0  0  0  0  0  0  0  0
   -2.1161   -0.8612   -0.4799 C   0  0  0  0  0  0  0  0  0  0  0  0
   -1.2731   -2.6759   -1.2625 H   0  0  0  0  0  0  0  0  0  0  0  0
    0.9868   -1.6508   -1.6898 H   0  0  0  0  0  0  0  0  0  0  0  0
   -0.4703    2.1182   -0.1672 H   0  0  0  0  0  0  0  0  0  0  0  0
   -2.6992    1.0979    0.2544 H   0  0  0  0  0  0  0  0  0  0  0  0
    2.4616    1.4547   -1.6503 N   0  0  0  0  0  0  0  0  0  0  0  0
    3.2810    1.2022   -0.8446 N   0  0  0  0  0  0  0  0  0  0  0  0
   -3.2959   -1.5230   -0.2918 O   0  0  0  0  0  0  0  0  0  0  0  0
   -4.3899   -0.8051    0.2557 C   0  0  0  0  0  0  0  0  0  0  0  0
   -5.2148   -1.5165    0.3205 H   0  0  0  0  0  0  0  0  0  0  0  0
   -4.6873    0.0337   -0.3872 H   0  0  0  0  0  0  0  0  0  0  0  0
   -4.1635   -0.4244    1.2599 H   0  0  0  0  0  0  0  0  0  0  0  0
    2.8706    0.3330    0.2713 O   0  0  0  0  0  0  0  0  0  0  0  0
    3.6869    0.2593    0.7980 H   0  0  0  0  0  0  0  0  0  0  0  0
  1  6  1  0  0  0  0
  2  1  2  0  0  0  0
  2  3  1  0  0  0  0
  3  4  2  0  0  0  0
  4  9  1  0  0  0  0
  4  5  1  0  0  0  0
  5 10  1  0  0  0  0
  6 13  1  0  0  0  0
  6  5  2  0  0  0  0
  7  1  1  0  0  0  0
  8  2  1  0  0  0  0
 11 12  2  0  0  0  0
 12 18  1  0  0  0  0
 13 14  1  0  0  0  0
 14 15  1  0  0  0  0
 14 17  1  0  0  0  0
 16 14  1  0  0  0  0
 18 19  1  0  0  0  0
M  RAD  2   3   2  11   2
M  END
