Coordinates from ORCA-job 4-MeO-Ph-N2-OH-B3LYPG-6-31G_dp-MTMO-d009-169-n800
 OpenBabel09051907463D

 19 18  0  0  0  0  0  0  0  0999 V2000
   -1.0107   -2.0438   -0.5969 C   0  0  0  0  0  0  0  0  0  0  0  0
    0.3410   -1.7320   -0.5713 C   0  0  0  0  0  0  0  0  0  0  0  0
    0.7596   -0.4317   -0.2549 C   0  0  0  0  0  0  0  0  0  0  0  0
   -0.1969    0.5403    0.0370 C   0  0  0  0  0  0  0  0  0  0  0  0
   -1.5624    0.2294    0.0087 C   0  0  0  0  0  0  0  0  0  0  0  0
   -1.9759   -1.0663   -0.3092 C   0  0  0  0  0  0  0  0  0  0  0  0
   -1.3471   -3.0458   -0.8426 H   0  0  0  0  0  0  0  0  0  0  0  0
    1.0910   -2.4833   -0.7958 H   0  0  0  0  0  0  0  0  0  0  0  0
    0.1137    1.5505    0.2932 H   0  0  0  0  0  0  0  0  0  0  0  0
   -2.2817    1.0060    0.2400 H   0  0  0  0  0  0  0  0  0  0  0  0
    2.3882    2.6523   -1.4401 N   0  0  0  0  0  0  0  0  0  0  0  0
    2.4396    3.3150   -2.3224 N   0  0  0  0  0  0  0  0  0  0  0  0
   -3.2812   -1.4818   -0.3669 O   0  0  0  0  0  0  0  0  0  0  0  0
   -4.2913   -0.5297   -0.0904 C   0  0  0  0  0  0  0  0  0  0  0  0
   -5.2422   -1.0547   -0.1980 H   0  0  0  0  0  0  0  0  0  0  0  0
   -4.2638    0.3117   -0.7964 H   0  0  0  0  0  0  0  0  0  0  0  0
   -4.2132   -0.1367    0.9324 H   0  0  0  0  0  0  0  0  0  0  0  0
    2.1079   -0.1886   -0.2419 O   0  0  0  0  0  0  0  0  0  0  0  0
    2.2576    0.7537   -0.0948 H   0  0  0  0  0  0  0  0  0  0  0  0
  1  2  2  0  0  0  0
  1  6  1  0  0  0  0
  2  3  1  0  0  0  0
  3 18  1  0  0  0  0
  3  4  2  0  0  0  0
  4  9  1  0  0  0  0
  5  4  1  0  0  0  0
  5 10  1  0  0  0  0
  6  5  2  0  0  0  0
  7  1  1  0  0  0  0
  8  2  1  0  0  0  0
 12 11  3  0  0  0  0
 13  6  1  0  0  0  0
 13 14  1  0  0  0  0
 14 17  1  0  0  0  0
 15 14  1  0  0  0  0
 16 14  1  0  0  0  0
 18 19  1  0  0  0  0
M  END
