Coordinates from ORCA-job 4-MeO-Ph-N2-OH-B3LYPG-6-31G_dp-MTMO-d009-169-n800
 OpenBabel09051907473D

 19 18  0  0  0  0  0  0  0  0999 V2000
   -1.7048   -2.7250   -0.2115 C   0  0  0  0  0  0  0  0  0  0  0  0
   -0.3568   -2.5132   -0.4623 C   0  0  0  0  0  0  0  0  0  0  0  0
    0.1282   -1.2113   -0.6481 C   0  0  0  0  0  0  0  0  0  0  0  0
   -0.7561   -0.1365   -0.5795 C   0  0  0  0  0  0  0  0  0  0  0  0
   -2.1175   -0.3469   -0.3268 C   0  0  0  0  0  0  0  0  0  0  0  0
   -2.5985   -1.6450   -0.1410 C   0  0  0  0  0  0  0  0  0  0  0  0
   -2.0935   -3.7275   -0.0646 H   0  0  0  0  0  0  0  0  0  0  0  0
    0.3376   -3.3450   -0.5186 H   0  0  0  0  0  0  0  0  0  0  0  0
   -0.3915    0.8787   -0.7239 H   0  0  0  0  0  0  0  0  0  0  0  0
   -2.7799    0.5094   -0.2804 H   0  0  0  0  0  0  0  0  0  0  0  0
    7.1814    7.8175   -1.2549 N   0  0  0  0  0  0  0  0  0  0  0  0
    7.9272    8.6333   -1.2524 N   0  0  0  0  0  0  0  0  0  0  0  0
   -3.9060   -1.9689    0.1115 O   0  0  0  0  0  0  0  0  0  0  0  0
   -4.8464   -0.9142    0.1891 C   0  0  0  0  0  0  0  0  0  0  0  0
   -5.8114   -1.3810    0.3936 H   0  0  0  0  0  0  0  0  0  0  0  0
   -4.9114   -0.3552   -0.7547 H   0  0  0  0  0  0  0  0  0  0  0  0
   -4.6076   -0.2134    1.0006 H   0  0  0  0  0  0  0  0  0  0  0  0
    1.4701   -1.0652   -0.8915 O   0  0  0  0  0  0  0  0  0  0  0  0
    1.6689   -0.1261   -0.9951 H   0  0  0  0  0  0  0  0  0  0  0  0
  1  6  1  0  0  0  0
  1  7  1  0  0  0  0
  2  1  2  0  0  0  0
  3  4  2  0  0  0  0
  3  2  1  0  0  0  0
  4  5  1  0  0  0  0
  5 10  1  0  0  0  0
  5  6  2  0  0  0  0
  6 13  1  0  0  0  0
  8  2  1  0  0  0  0
  9  4  1  0  0  0  0
 11 12  3  0  0  0  0
 13 14  1  0  0  0  0
 14 15  1  0  0  0  0
 14 17  1  0  0  0  0
 16 14  1  0  0  0  0
 18  3  1  0  0  0  0
 19 18  1  0  0  0  0
M  END
