Coordinates from ORCA-job 4-MeO-Ph-N2-OH-B3LYPG-6-31G_dp-MTMO-d009-169-n800
 OpenBabel09051907473D

 19 18  0  0  0  0  0  0  0  0999 V2000
   -1.6635   -2.6844   -0.2146 C   0  0  0  0  0  0  0  0  0  0  0  0
   -0.3157   -2.4721   -0.4659 C   0  0  0  0  0  0  0  0  0  0  0  0
    0.1685   -1.1700   -0.6528 C   0  0  0  0  0  0  0  0  0  0  0  0
   -0.7164   -0.0957   -0.5848 C   0  0  0  0  0  0  0  0  0  0  0  0
   -2.0775   -0.3066   -0.3316 C   0  0  0  0  0  0  0  0  0  0  0  0
   -2.5578   -1.6048   -0.1447 C   0  0  0  0  0  0  0  0  0  0  0  0
   -2.0517   -3.6870   -0.0669 H   0  0  0  0  0  0  0  0  0  0  0  0
    0.3792   -3.3035   -0.5217 H   0  0  0  0  0  0  0  0  0  0  0  0
   -0.3523    0.9197   -0.7300 H   0  0  0  0  0  0  0  0  0  0  0  0
   -2.7404    0.5494   -0.2856 H   0  0  0  0  0  0  0  0  0  0  0  0
    6.8388    7.4732   -1.2202 N   0  0  0  0  0  0  0  0  0  0  0  0
    7.5827    8.2907   -1.2151 N   0  0  0  0  0  0  0  0  0  0  0  0
   -3.8650   -1.9292    0.1083 O   0  0  0  0  0  0  0  0  0  0  0  0
   -4.8060   -0.8750    0.1854 C   0  0  0  0  0  0  0  0  0  0  0  0
   -5.7707   -1.3422    0.3904 H   0  0  0  0  0  0  0  0  0  0  0  0
   -4.8715   -0.3167   -0.7588 H   0  0  0  0  0  0  0  0  0  0  0  0
   -4.5675   -0.1734    0.9963 H   0  0  0  0  0  0  0  0  0  0  0  0
    1.5103   -1.0234   -0.8966 O   0  0  0  0  0  0  0  0  0  0  0  0
    1.7086   -0.0843   -1.0012 H   0  0  0  0  0  0  0  0  0  0  0  0
  1  6  1  0  0  0  0
  1  7  1  0  0  0  0
  2  1  2  0  0  0  0
  3  4  2  0  0  0  0
  3  2  1  0  0  0  0
  4  5  1  0  0  0  0
  5 10  1  0  0  0  0
  5  6  2  0  0  0  0
  6 13  1  0  0  0  0
  8  2  1  0  0  0  0
  9  4  1  0  0  0  0
 11 12  3  0  0  0  0
 13 14  1  0  0  0  0
 14 15  1  0  0  0  0
 14 17  1  0  0  0  0
 16 14  1  0  0  0  0
 18  3  1  0  0  0  0
 19 18  1  0  0  0  0
M  END
