Coordinates from ORCA-job 4-MeO-Ph-N2-OH-B3LYPG-6-31G_dp-MTMO-d009-169-n800
 OpenBabel09051907473D

 19 18  0  0  0  0  0  0  0  0999 V2000
   -2.0811   -3.0969   -0.1750 C   0  0  0  0  0  0  0  0  0  0  0  0
   -0.7326   -2.8881   -0.4253 C   0  0  0  0  0  0  0  0  0  0  0  0
   -0.2444   -1.5871   -0.6094 C   0  0  0  0  0  0  0  0  0  0  0  0
   -1.1262   -0.5103   -0.5399 C   0  0  0  0  0  0  0  0  0  0  0  0
   -2.4881   -0.7177   -0.2879 C   0  0  0  0  0  0  0  0  0  0  0  0
   -2.9722   -2.0148   -0.1036 C   0  0  0  0  0  0  0  0  0  0  0  0
   -2.4723   -4.0986   -0.0294 H   0  0  0  0  0  0  0  0  0  0  0  0
   -0.0401   -3.7214   -0.4822 H   0  0  0  0  0  0  0  0  0  0  0  0
   -0.7591    0.5043   -0.6831 H   0  0  0  0  0  0  0  0  0  0  0  0
   -3.1485    0.1401   -0.2408 H   0  0  0  0  0  0  0  0  0  0  0  0
   10.3424   10.9786   -1.5773 N   0  0  0  0  0  0  0  0  0  0  0  0
   11.1008   11.7827   -1.5781 N   0  0  0  0  0  0  0  0  0  0  0  0
   -4.2806   -2.3359    0.1482 O   0  0  0  0  0  0  0  0  0  0  0  0
   -5.2185   -1.2790    0.2269 C   0  0  0  0  0  0  0  0  0  0  0  0
   -6.1846   -1.7437    0.4309 H   0  0  0  0  0  0  0  0  0  0  0  0
   -5.2821   -0.7189   -0.7163 H   0  0  0  0  0  0  0  0  0  0  0  0
   -4.9780   -0.5796    1.0391 H   0  0  0  0  0  0  0  0  0  0  0  0
    1.0979   -1.4440   -0.8522 O   0  0  0  0  0  0  0  0  0  0  0  0
    1.2991   -0.5052   -0.9546 H   0  0  0  0  0  0  0  0  0  0  0  0
  1  6  1  0  0  0  0
  1  7  1  0  0  0  0
  2  1  2  0  0  0  0
  3  4  2  0  0  0  0
  3  2  1  0  0  0  0
  4  5  1  0  0  0  0
  5 10  1  0  0  0  0
  5  6  2  0  0  0  0
  6 13  1  0  0  0  0
  8  2  1  0  0  0  0
  9  4  1  0  0  0  0
 12 11  3  0  0  0  0
 13 14  1  0  0  0  0
 14 15  1  0  0  0  0
 14 17  1  0  0  0  0
 16 14  1  0  0  0  0
 18  3  1  0  0  0  0
 19 18  1  0  0  0  0
M  END
