Coordinates from ORCA-job 4-MeO-Ph-N2-OH-B3LYPG-6-31G_dp-MTMO-d009-169-n800
 OpenBabel09051907473D

 19 18  0  0  0  0  0  0  0  0999 V2000
   -1.9125   -2.9300   -0.1928 C   0  0  0  0  0  0  0  0  0  0  0  0
   -0.5640   -2.7200   -0.4426 C   0  0  0  0  0  0  0  0  0  0  0  0
   -0.0768   -1.4186   -0.6259 C   0  0  0  0  0  0  0  0  0  0  0  0
   -0.9594   -0.3425   -0.5560 C   0  0  0  0  0  0  0  0  0  0  0  0
   -2.3212   -0.5511   -0.3044 C   0  0  0  0  0  0  0  0  0  0  0  0
   -2.8044   -1.8486   -0.1210 C   0  0  0  0  0  0  0  0  0  0  0  0
   -2.3030   -3.9321   -0.0479 H   0  0  0  0  0  0  0  0  0  0  0  0
    0.1291   -3.5528   -0.4999 H   0  0  0  0  0  0  0  0  0  0  0  0
   -0.5930    0.6724   -0.6984 H   0  0  0  0  0  0  0  0  0  0  0  0
   -2.9822    0.3063   -0.2569 H   0  0  0  0  0  0  0  0  0  0  0  0
    8.9233    9.5570   -1.4312 N   0  0  0  0  0  0  0  0  0  0  0  0
    9.6725   10.3696   -1.4355 N   0  0  0  0  0  0  0  0  0  0  0  0
   -4.1126   -2.1708    0.1303 O   0  0  0  0  0  0  0  0  0  0  0  0
   -5.0513   -1.1147    0.2093 C   0  0  0  0  0  0  0  0  0  0  0  0
   -6.0171   -1.5802    0.4127 H   0  0  0  0  0  0  0  0  0  0  0  0
   -5.1150   -0.5541   -0.7337 H   0  0  0  0  0  0  0  0  0  0  0  0
   -4.8117   -0.4155    1.0220 H   0  0  0  0  0  0  0  0  0  0  0  0
    1.2655   -1.2743   -0.8682 O   0  0  0  0  0  0  0  0  0  0  0  0
    1.4660   -0.3354   -0.9700 H   0  0  0  0  0  0  0  0  0  0  0  0
  1  6  1  0  0  0  0
  1  7  1  0  0  0  0
  2  1  2  0  0  0  0
  3  4  2  0  0  0  0
  3  2  1  0  0  0  0
  4  5  1  0  0  0  0
  5 10  1  0  0  0  0
  5  6  2  0  0  0  0
  6 13  1  0  0  0  0
  8  2  1  0  0  0  0
  9  4  1  0  0  0  0
 12 11  3  0  0  0  0
 13 14  1  0  0  0  0
 14 15  1  0  0  0  0
 14 17  1  0  0  0  0
 16 14  1  0  0  0  0
 18  3  1  0  0  0  0
 19 18  1  0  0  0  0
M  END
