Coordinates from ORCA-job 4-MeO-Ph-N2-OH-B3LYPG-6-31G_dp-MTMO-d009-169-n800
 OpenBabel09051907463D

 19 18  0  0  0  0  0  0  0  0999 V2000
   -0.8662   -1.7823   -0.8673 C   0  0  0  0  0  0  0  0  0  0  0  0
    0.4754   -1.4833   -0.6779 C   0  0  0  0  0  0  0  0  0  0  0  0
    0.8488   -0.2990   -0.0273 C   0  0  0  0  0  0  0  0  0  0  0  0
   -0.1411    0.5717    0.4266 C   0  0  0  0  0  0  0  0  0  0  0  0
   -1.4961    0.2755    0.2329 C   0  0  0  0  0  0  0  0  0  0  0  0
   -1.8651   -0.9058   -0.4151 C   0  0  0  0  0  0  0  0  0  0  0  0
   -1.1689   -2.6962   -1.3678 H   0  0  0  0  0  0  0  0  0  0  0  0
    1.2512   -2.1566   -1.0269 H   0  0  0  0  0  0  0  0  0  0  0  0
    0.1361    1.4917    0.9364 H   0  0  0  0  0  0  0  0  0  0  0  0
   -2.2421    0.9727    0.5944 H   0  0  0  0  0  0  0  0  0  0  0  0
    1.6859    2.0051   -1.7956 N   0  0  0  0  0  0  0  0  0  0  0  0
    1.5355    1.8985   -2.8853 N   0  0  0  0  0  0  0  0  0  0  0  0
   -3.1558   -1.2977   -0.6567 O   0  0  0  0  0  0  0  0  0  0  0  0
   -4.1998   -0.4526   -0.2088 C   0  0  0  0  0  0  0  0  0  0  0  0
   -5.1318   -0.9455   -0.4909 H   0  0  0  0  0  0  0  0  0  0  0  0
   -4.1587    0.5352   -0.6869 H   0  0  0  0  0  0  0  0  0  0  0  0
   -4.1782   -0.3210    0.8817 H   0  0  0  0  0  0  0  0  0  0  0  0
    2.1898   -0.0710    0.1434 O   0  0  0  0  0  0  0  0  0  0  0  0
    2.3131    0.8251    0.4808 H   0  0  0  0  0  0  0  0  0  0  0  0
  1  2  2  0  0  0  0
  1  6  1  0  0  0  0
  2  3  1  0  0  0  0
  3 18  1  0  0  0  0
  3  4  2  0  0  0  0
  4  9  1  0  0  0  0
  5  4  1  0  0  0  0
  5 10  1  0  0  0  0
  6  5  2  0  0  0  0
  7  1  1  0  0  0  0
  8  2  1  0  0  0  0
 12 11  3  0  0  0  0
 13  6  1  0  0  0  0
 13 14  1  0  0  0  0
 14 17  1  0  0  0  0
 15 14  1  0  0  0  0
 16 14  1  0  0  0  0
 18 19  1  0  0  0  0
M  END
