Coordinates from ORCA-job 4-MeO-Ph-N2-OH-B3LYPG-6-31G_dp-MTMO-d009-169-n800
 OpenBabel09051907473D

 19 18  0  0  0  0  0  0  0  0999 V2000
   -1.2186   -2.2651   -0.2059 C   0  0  0  0  0  0  0  0  0  0  0  0
    0.1078   -1.9610   -0.4762 C   0  0  0  0  0  0  0  0  0  0  0  0
    0.4917   -0.6333   -0.7101 C   0  0  0  0  0  0  0  0  0  0  0  0
   -0.4709    0.3735   -0.6692 C   0  0  0  0  0  0  0  0  0  0  0  0
   -1.8106    0.0698   -0.3965 C   0  0  0  0  0  0  0  0  0  0  0  0
   -2.1908   -1.2537   -0.1632 C   0  0  0  0  0  0  0  0  0  0  0  0
   -1.5292   -3.2885   -0.0213 H   0  0  0  0  0  0  0  0  0  0  0  0
    0.8630   -2.7394   -0.5107 H   0  0  0  0  0  0  0  0  0  0  0  0
   -0.1850    1.4078   -0.8515 H   0  0  0  0  0  0  0  0  0  0  0  0
   -2.5353    0.8749   -0.3714 H   0  0  0  0  0  0  0  0  0  0  0  0
    4.0651    4.1139   -0.9426 N   0  0  0  0  0  0  0  0  0  0  0  0
    4.7442    4.9778   -0.8248 N   0  0  0  0  0  0  0  0  0  0  0  0
   -3.4685   -1.6664    0.1119 O   0  0  0  0  0  0  0  0  0  0  0  0
   -4.4861   -0.6842    0.1605 C   0  0  0  0  0  0  0  0  0  0  0  0
   -5.4124   -1.2163    0.3836 H   0  0  0  0  0  0  0  0  0  0  0  0
   -4.5955   -0.1617   -0.7999 H   0  0  0  0  0  0  0  0  0  0  0  0
   -4.2998    0.0581    0.9486 H   0  0  0  0  0  0  0  0  0  0  0  0
    1.8168   -0.3949   -0.9703 O   0  0  0  0  0  0  0  0  0  0  0  0
    1.9461    0.5532   -1.1013 H   0  0  0  0  0  0  0  0  0  0  0  0
  1  6  1  0  0  0  0
  1  7  1  0  0  0  0
  2  1  2  0  0  0  0
  3  4  2  0  0  0  0
  3  2  1  0  0  0  0
  4  5  1  0  0  0  0
  5 10  1  0  0  0  0
  5  6  2  0  0  0  0
  6 13  1  0  0  0  0
  8  2  1  0  0  0  0
  9  4  1  0  0  0  0
 11 12  3  0  0  0  0
 13 14  1  0  0  0  0
 14 15  1  0  0  0  0
 14 17  1  0  0  0  0
 16 14  1  0  0  0  0
 18  3  1  0  0  0  0
 19 18  1  0  0  0  0
M  END
