Coordinates from ORCA-job 4-MeO-Ph-N2-OH-B3LYPG-6-31G_dp-MTMO-d009-169-n800
 OpenBabel09051907473D

 19 18  0  0  0  0  0  0  0  0999 V2000
   -1.1101   -2.1585   -0.2551 C   0  0  0  0  0  0  0  0  0  0  0  0
    0.1999   -1.7603   -0.4796 C   0  0  0  0  0  0  0  0  0  0  0  0
    0.5049   -0.4015   -0.6408 C   0  0  0  0  0  0  0  0  0  0  0  0
   -0.5197    0.5410   -0.5749 C   0  0  0  0  0  0  0  0  0  0  0  0
   -1.8431    0.1422   -0.3480 C   0  0  0  0  0  0  0  0  0  0  0  0
   -2.1442   -1.2120   -0.1866 C   0  0  0  0  0  0  0  0  0  0  0  0
   -1.3598   -3.2070   -0.1267 H   0  0  0  0  0  0  0  0  0  0  0  0
    1.0032   -2.4878   -0.5335 H   0  0  0  0  0  0  0  0  0  0  0  0
   -0.2956    1.5985   -0.7015 H   0  0  0  0  0  0  0  0  0  0  0  0
   -2.6176    0.8984   -0.3015 H   0  0  0  0  0  0  0  0  0  0  0  0
    3.8390    3.4459   -1.0217 N   0  0  0  0  0  0  0  0  0  0  0  0
    4.6577    4.1879   -1.0130 N   0  0  0  0  0  0  0  0  0  0  0  0
   -3.3990   -1.7154    0.0398 O   0  0  0  0  0  0  0  0  0  0  0  0
   -4.4759   -0.8006    0.1148 C   0  0  0  0  0  0  0  0  0  0  0  0
   -5.3715   -1.3983    0.2927 H   0  0  0  0  0  0  0  0  0  0  0  0
   -4.6005   -0.2385   -0.8211 H   0  0  0  0  0  0  0  0  0  0  0  0
   -4.3496   -0.0881    0.9415 H   0  0  0  0  0  0  0  0  0  0  0  0
    1.8177   -0.0705   -0.8578 O   0  0  0  0  0  0  0  0  0  0  0  0
    1.8963    0.8891   -0.9373 H   0  0  0  0  0  0  0  0  0  0  0  0
  1  6  1  0  0  0  0
  1  7  1  0  0  0  0
  2  1  2  0  0  0  0
  3  4  2  0  0  0  0
  3  2  1  0  0  0  0
  4  5  1  0  0  0  0
  5 10  1  0  0  0  0
  5  6  2  0  0  0  0
  6 13  1  0  0  0  0
  8  2  1  0  0  0  0
  9  4  1  0  0  0  0
 11 12  3  0  0  0  0
 13 14  1  0  0  0  0
 14 15  1  0  0  0  0
 14 17  1  0  0  0  0
 16 14  1  0  0  0  0
 18  3  1  0  0  0  0
 19 18  1  0  0  0  0
M  END
