Coordinates from ORCA-job 4-MeO-Ph-N2-OH-B3LYPG-6-31G_dp-MTMO-d009-169-n800
 OpenBabel09051907463D

 19 19  0  0  0  0  0  0  0  0999 V2000
   -1.2121   -1.6421   -1.4685 C   0  0  0  0  0  0  0  0  0  0  0  0
    0.1199   -1.2959   -1.5796 C   0  0  0  0  0  0  0  0  0  0  0  0
    0.6744   -0.2002   -0.8700 C   0  0  0  0  0  0  0  0  0  0  0  0
   -0.1961    0.5420   -0.0360 C   0  0  0  0  0  0  0  0  0  0  0  0
   -1.5410    0.1987    0.0770 C   0  0  0  0  0  0  0  0  0  0  0  0
   -2.0592   -0.8936   -0.6333 C   0  0  0  0  0  0  0  0  0  0  0  0
   -1.6279   -2.4838   -2.0118 H   0  0  0  0  0  0  0  0  0  0  0  0
    0.7865   -1.8636   -2.2205 H   0  0  0  0  0  0  0  0  0  0  0  0
    0.1821    1.3860    0.5190 H   0  0  0  0  0  0  0  0  0  0  0  0
   -2.1777    0.7924    0.7223 H   0  0  0  0  0  0  0  0  0  0  0  0
    1.9824   -0.0171   -1.0999 N   0  0  0  0  0  0  0  0  0  0  0  0
    2.7885    0.8003   -0.6548 N   0  0  0  0  0  0  0  0  0  0  0  0
   -3.3518   -1.3050   -0.5834 O   0  0  0  0  0  0  0  0  0  0  0  0
   -4.2608   -0.5962    0.2481 C   0  0  0  0  0  0  0  0  0  0  0  0
   -5.2216   -1.1010    0.1399 H   0  0  0  0  0  0  0  0  0  0  0  0
   -4.3642    0.4494   -0.0677 H   0  0  0  0  0  0  0  0  0  0  0  0
   -3.9515   -0.6269    1.3003 H   0  0  0  0  0  0  0  0  0  0  0  0
    2.2353    1.7527    0.2998 O   0  0  0  0  0  0  0  0  0  0  0  0
    3.0268    2.2686    0.5090 H   0  0  0  0  0  0  0  0  0  0  0  0
  1  6  1  0  0  0  0
  2  1  2  0  0  0  0
  2  3  1  0  0  0  0
  3  4  2  0  0  0  0
  4  5  1  0  0  0  0
  4  9  1  0  0  0  0
  5 10  1  0  0  0  0
  6 13  1  0  0  0  0
  6  5  2  0  0  0  0
  7  1  1  0  0  0  0
  8  2  1  0  0  0  0
 11  3  1  0  0  0  0
 11 12  1  0  0  0  0
 12 18  1  0  0  0  0
 13 14  1  0  0  0  0
 14 17  1  0  0  0  0
 15 14  1  0  0  0  0
 16 14  1  0  0  0  0
 18 19  1  0  0  0  0
M  RAD  2  11   2  12   2
M  END
