Coordinates from ORCA-job 4-MeO-Ph-N2-OH-B3LYPG-6-31G_dp-MTMO-d009-169-n800
 OpenBabel09051907473D

 19 18  0  0  0  0  0  0  0  0999 V2000
   -1.2789   -2.3208   -0.2134 C   0  0  0  0  0  0  0  0  0  0  0  0
    0.0537   -2.0412   -0.4792 C   0  0  0  0  0  0  0  0  0  0  0  0
    0.4647   -0.7196   -0.7014 C   0  0  0  0  0  0  0  0  0  0  0  0
   -0.4776    0.3060   -0.6536 C   0  0  0  0  0  0  0  0  0  0  0  0
   -1.8235    0.0271   -0.3855 C   0  0  0  0  0  0  0  0  0  0  0  0
   -2.2307   -1.2904   -0.1638 C   0  0  0  0  0  0  0  0  0  0  0  0
   -1.6104   -3.3392   -0.0378 H   0  0  0  0  0  0  0  0  0  0  0  0
    0.7930   -2.8344   -0.5191 H   0  0  0  0  0  0  0  0  0  0  0  0
   -0.1707    1.3358   -0.8268 H   0  0  0  0  0  0  0  0  0  0  0  0
   -2.5320    0.8464   -0.3551 H   0  0  0  0  0  0  0  0  0  0  0  0
    4.3175    4.5173   -0.9705 N   0  0  0  0  0  0  0  0  0  0  0  0
    4.9990    5.3821   -0.8742 N   0  0  0  0  0  0  0  0  0  0  0  0
   -3.5169   -1.6796    0.1060 O   0  0  0  0  0  0  0  0  0  0  0  0
   -4.5144   -0.6773    0.1618 C   0  0  0  0  0  0  0  0  0  0  0  0
   -5.4515   -1.1921    0.3804 H   0  0  0  0  0  0  0  0  0  0  0  0
   -4.6126   -0.1453   -0.7946 H   0  0  0  0  0  0  0  0  0  0  0  0
   -4.3135    0.0549    0.9557 H   0  0  0  0  0  0  0  0  0  0  0  0
    1.7948   -0.5057   -0.9578 O   0  0  0  0  0  0  0  0  0  0  0  0
    1.9421    0.4406   -1.0815 H   0  0  0  0  0  0  0  0  0  0  0  0
  1  6  1  0  0  0  0
  1  7  1  0  0  0  0
  2  1  2  0  0  0  0
  3  4  2  0  0  0  0
  3  2  1  0  0  0  0
  4  5  1  0  0  0  0
  5 10  1  0  0  0  0
  5  6  2  0  0  0  0
  6 13  1  0  0  0  0
  8  2  1  0  0  0  0
  9  4  1  0  0  0  0
 11 12  3  0  0  0  0
 13 14  1  0  0  0  0
 14 15  1  0  0  0  0
 14 17  1  0  0  0  0
 16 14  1  0  0  0  0
 18  3  1  0  0  0  0
 19 18  1  0  0  0  0
M  END
