Coordinates from ORCA-job 4-MeO-Ph-N2-OH-B3LYPG-6-31G_dp-MTMO-d009-169-n800
 OpenBabel09051907473D

 19 18  0  0  0  0  0  0  0  0999 V2000
   -1.4733   -2.4994   -0.2260 C   0  0  0  0  0  0  0  0  0  0  0  0
   -0.1275   -2.2783   -0.4806 C   0  0  0  0  0  0  0  0  0  0  0  0
    0.3467   -0.9736   -0.6748 C   0  0  0  0  0  0  0  0  0  0  0  0
   -0.5461    0.0944   -0.6107 C   0  0  0  0  0  0  0  0  0  0  0  0
   -1.9052   -0.1254   -0.3543 C   0  0  0  0  0  0  0  0  0  0  0  0
   -2.3755   -1.4262   -0.1602 C   0  0  0  0  0  0  0  0  0  0  0  0
   -1.8537   -3.5042   -0.0726 H   0  0  0  0  0  0  0  0  0  0  0  0
    0.5735   -3.1048   -0.5333 H   0  0  0  0  0  0  0  0  0  0  0  0
   -0.1898    1.1117   -0.7617 H   0  0  0  0  0  0  0  0  0  0  0  0
   -2.5743    0.7258   -0.3115 H   0  0  0  0  0  0  0  0  0  0  0  0
    5.3342    5.9095   -1.0752 N   0  0  0  0  0  0  0  0  0  0  0  0
    6.0505    6.7503   -1.0383 N   0  0  0  0  0  0  0  0  0  0  0  0
   -3.6799   -1.7592    0.0964 O   0  0  0  0  0  0  0  0  0  0  0  0
   -4.6287   -0.7117    0.1693 C   0  0  0  0  0  0  0  0  0  0  0  0
   -5.5897   -1.1851    0.3774 H   0  0  0  0  0  0  0  0  0  0  0  0
   -4.6992   -0.1584   -0.7775 H   0  0  0  0  0  0  0  0  0  0  0  0
   -4.3947   -0.0045    0.9766 H   0  0  0  0  0  0  0  0  0  0  0  0
    1.6869   -0.8182   -0.9215 O   0  0  0  0  0  0  0  0  0  0  0  0
    1.8779    0.1218   -1.0317 H   0  0  0  0  0  0  0  0  0  0  0  0
  1  6  1  0  0  0  0
  1  7  1  0  0  0  0
  2  1  2  0  0  0  0
  3  4  2  0  0  0  0
  3  2  1  0  0  0  0
  4  5  1  0  0  0  0
  5 10  1  0  0  0  0
  5  6  2  0  0  0  0
  6 13  1  0  0  0  0
  8  2  1  0  0  0  0
  9  4  1  0  0  0  0
 11 12  3  0  0  0  0
 13 14  1  0  0  0  0
 14 15  1  0  0  0  0
 14 17  1  0  0  0  0
 16 14  1  0  0  0  0
 18  3  1  0  0  0  0
 19 18  1  0  0  0  0
M  END
