Coordinates from ORCA-job 4-MeO-Ph-N2-OH-B3LYPG-6-31G_dp-MTMO-d009-169-n800
 OpenBabel09051907473D

 19 18  0  0  0  0  0  0  0  0999 V2000
   -1.4304   -2.4591   -0.2266 C   0  0  0  0  0  0  0  0  0  0  0  0
   -0.0860   -2.2314   -0.4825 C   0  0  0  0  0  0  0  0  0  0  0  0
    0.3812   -0.9246   -0.6799 C   0  0  0  0  0  0  0  0  0  0  0  0
   -0.5173    0.1388   -0.6176 C   0  0  0  0  0  0  0  0  0  0  0  0
   -1.8750   -0.0877   -0.3599 C   0  0  0  0  0  0  0  0  0  0  0  0
   -2.3382   -1.3906   -0.1627 C   0  0  0  0  0  0  0  0  0  0  0  0
   -1.8053   -3.4655   -0.0707 H   0  0  0  0  0  0  0  0  0  0  0  0
    0.6194   -3.0542   -0.5338 H   0  0  0  0  0  0  0  0  0  0  0  0
   -0.1666    1.1577   -0.7711 H   0  0  0  0  0  0  0  0  0  0  0  0
   -2.5487    0.7601   -0.3185 H   0  0  0  0  0  0  0  0  0  0  0  0
    5.0454    5.5756   -1.0488 N   0  0  0  0  0  0  0  0  0  0  0  0
    5.7499    6.4257   -0.9992 N   0  0  0  0  0  0  0  0  0  0  0  0
   -3.6408   -1.7299    0.0954 O   0  0  0  0  0  0  0  0  0  0  0  0
   -4.5952   -0.6873    0.1664 C   0  0  0  0  0  0  0  0  0  0  0  0
   -5.5535   -1.1654    0.3757 H   0  0  0  0  0  0  0  0  0  0  0  0
   -4.6688   -0.1363   -0.7814 H   0  0  0  0  0  0  0  0  0  0  0  0
   -4.3648    0.0228    0.9722 H   0  0  0  0  0  0  0  0  0  0  0  0
    1.7203   -0.7625   -0.9278 O   0  0  0  0  0  0  0  0  0  0  0  0
    1.9064    0.1783   -1.0395 H   0  0  0  0  0  0  0  0  0  0  0  0
  1  6  1  0  0  0  0
  1  7  1  0  0  0  0
  2  1  2  0  0  0  0
  3  4  2  0  0  0  0
  3  2  1  0  0  0  0
  4  5  1  0  0  0  0
  5 10  1  0  0  0  0
  5  6  2  0  0  0  0
  6 13  1  0  0  0  0
  8  2  1  0  0  0  0
  9  4  1  0  0  0  0
 11 12  3  0  0  0  0
 13 14  1  0  0  0  0
 14 15  1  0  0  0  0
 14 17  1  0  0  0  0
 16 14  1  0  0  0  0
 18  3  1  0  0  0  0
 19 18  1  0  0  0  0
M  END
