Coordinates from ORCA-job 4-MeO-Ph-N2-OH-B3LYPG-6-31G_dp-MTMO-d009-169-n800
 OpenBabel09051907473D

 19 18  0  0  0  0  0  0  0  0999 V2000
   -1.2946   -2.3350   -0.2156 C   0  0  0  0  0  0  0  0  0  0  0  0
    0.0398   -2.0624   -0.4801 C   0  0  0  0  0  0  0  0  0  0  0  0
    0.4584   -0.7427   -0.6991 C   0  0  0  0  0  0  0  0  0  0  0  0
   -0.4780    0.2881   -0.6494 C   0  0  0  0  0  0  0  0  0  0  0  0
   -1.8257    0.0163   -0.3826 C   0  0  0  0  0  0  0  0  0  0  0  0
   -2.2405   -1.2994   -0.1641 C   0  0  0  0  0  0  0  0  0  0  0  0
   -1.6319   -3.3520   -0.0426 H   0  0  0  0  0  0  0  0  0  0  0  0
    0.7746   -2.8597   -0.5215 H   0  0  0  0  0  0  0  0  0  0  0  0
   -0.1653    1.3166   -0.8200 H   0  0  0  0  0  0  0  0  0  0  0  0
   -2.5295    0.8395   -0.3507 H   0  0  0  0  0  0  0  0  0  0  0  0
    4.3767    4.6197   -0.9776 N   0  0  0  0  0  0  0  0  0  0  0  0
    5.0579    5.4852   -0.8864 N   0  0  0  0  0  0  0  0  0  0  0  0
   -3.5290   -1.6818    0.1042 O   0  0  0  0  0  0  0  0  0  0  0  0
   -4.5208   -0.6740    0.1620 C   0  0  0  0  0  0  0  0  0  0  0  0
   -5.4608   -1.1839    0.3794 H   0  0  0  0  0  0  0  0  0  0  0  0
   -4.6157   -0.1394   -0.7932 H   0  0  0  0  0  0  0  0  0  0  0  0
   -4.3157    0.0553    0.9575 H   0  0  0  0  0  0  0  0  0  0  0  0
    1.7899   -0.5358   -0.9544 O   0  0  0  0  0  0  0  0  0  0  0  0
    1.9423    0.4100   -1.0763 H   0  0  0  0  0  0  0  0  0  0  0  0
  1  6  1  0  0  0  0
  1  7  1  0  0  0  0
  2  1  2  0  0  0  0
  3  4  2  0  0  0  0
  3  2  1  0  0  0  0
  4  5  1  0  0  0  0
  5 10  1  0  0  0  0
  5  6  2  0  0  0  0
  6 13  1  0  0  0  0
  8  2  1  0  0  0  0
  9  4  1  0  0  0  0
 11 12  3  0  0  0  0
 13 14  1  0  0  0  0
 14 15  1  0  0  0  0
 14 17  1  0  0  0  0
 16 14  1  0  0  0  0
 18  3  1  0  0  0  0
 19 18  1  0  0  0  0
M  END
