Coordinates from ORCA-job 4-MeO-Ph-N2-OH-B3LYPG-6-31G_dp-MTMO-d009-169-n800
 OpenBabel09051907473D

 19 18  0  0  0  0  0  0  0  0999 V2000
   -1.3275   -2.3649   -0.2200 C   0  0  0  0  0  0  0  0  0  0  0  0
    0.0102   -2.1064   -0.4819 C   0  0  0  0  0  0  0  0  0  0  0  0
    0.4442   -0.7905   -0.6940 C   0  0  0  0  0  0  0  0  0  0  0  0
   -0.4804    0.2507   -0.6404 C   0  0  0  0  0  0  0  0  0  0  0  0
   -1.8314   -0.0069   -0.3764 C   0  0  0  0  0  0  0  0  0  0  0  0
   -2.2615   -1.3187   -0.1646 C   0  0  0  0  0  0  0  0  0  0  0  0
   -1.6767   -3.3787   -0.0524 H   0  0  0  0  0  0  0  0  0  0  0  0
    0.7358   -2.9119   -0.5264 H   0  0  0  0  0  0  0  0  0  0  0  0
   -0.1556    1.2763   -0.8056 H   0  0  0  0  0  0  0  0  0  0  0  0
   -2.5257    0.8243   -0.3415 H   0  0  0  0  0  0  0  0  0  0  0  0
    4.5066    4.8377   -0.9934 N   0  0  0  0  0  0  0  0  0  0  0  0
    5.1888    5.7034   -0.9122 N   0  0  0  0  0  0  0  0  0  0  0  0
   -3.5546   -1.6876    0.1005 O   0  0  0  0  0  0  0  0  0  0  0  0
   -4.5347   -0.6686    0.1625 C   0  0  0  0  0  0  0  0  0  0  0  0
   -5.4806   -1.1686    0.3773 H   0  0  0  0  0  0  0  0  0  0  0  0
   -4.6230   -0.1288   -0.7904 H   0  0  0  0  0  0  0  0  0  0  0  0
   -4.3215    0.0547    0.9613 H   0  0  0  0  0  0  0  0  0  0  0  0
    1.7782   -0.5977   -0.9471 O   0  0  0  0  0  0  0  0  0  0  0  0
    1.9413    0.3467   -1.0655 H   0  0  0  0  0  0  0  0  0  0  0  0
  1  6  1  0  0  0  0
  1  7  1  0  0  0  0
  2  1  2  0  0  0  0
  3  4  2  0  0  0  0
  3  2  1  0  0  0  0
  4  5  1  0  0  0  0
  5 10  1  0  0  0  0
  5  6  2  0  0  0  0
  6 13  1  0  0  0  0
  8  2  1  0  0  0  0
  9  4  1  0  0  0  0
 11 12  3  0  0  0  0
 13 14  1  0  0  0  0
 14 15  1  0  0  0  0
 14 17  1  0  0  0  0
 16 14  1  0  0  0  0
 18  3  1  0  0  0  0
 19 18  1  0  0  0  0
M  END
