Coordinates from ORCA-job 4-MeO-Ph-N2-OH-B3LYPG-6-31G_dp-MTMO-d009-169-n800
 OpenBabel09051907473D

 19 18  0  0  0  0  0  0  0  0999 V2000
   -1.0737   -2.1343   -0.2583 C   0  0  0  0  0  0  0  0  0  0  0  0
    0.2394   -1.7483   -0.4862 C   0  0  0  0  0  0  0  0  0  0  0  0
    0.5565   -0.3928   -0.6514 C   0  0  0  0  0  0  0  0  0  0  0  0
   -0.4597    0.5590   -0.5860 C   0  0  0  0  0  0  0  0  0  0  0  0
   -1.7862    0.1726   -0.3559 C   0  0  0  0  0  0  0  0  0  0  0  0
   -2.0992   -1.1785   -0.1906 C   0  0  0  0  0  0  0  0  0  0  0  0
   -1.3325   -3.1802   -0.1269 H   0  0  0  0  0  0  0  0  0  0  0  0
    1.0359   -2.4832   -0.5396 H   0  0  0  0  0  0  0  0  0  0  0  0
   -0.2261    1.6141   -0.7155 H   0  0  0  0  0  0  0  0  0  0  0  0
   -2.5539    0.9358   -0.3099 H   0  0  0  0  0  0  0  0  0  0  0  0
    3.4501    3.1747   -0.9719 N   0  0  0  0  0  0  0  0  0  0  0  0
    4.2023    3.9834   -0.9440 N   0  0  0  0  0  0  0  0  0  0  0  0
   -3.3583   -1.6701    0.0390 O   0  0  0  0  0  0  0  0  0  0  0  0
   -4.4270   -0.7458    0.1118 C   0  0  0  0  0  0  0  0  0  0  0  0
   -5.3277   -1.3350    0.2918 H   0  0  0  0  0  0  0  0  0  0  0  0
   -4.5471   -0.1853   -0.8258 H   0  0  0  0  0  0  0  0  0  0  0  0
   -4.2942   -0.0318    0.9363 H   0  0  0  0  0  0  0  0  0  0  0  0
    1.8714   -0.0742   -0.8719 O   0  0  0  0  0  0  0  0  0  0  0  0
    1.9622    0.8843   -0.9553 H   0  0  0  0  0  0  0  0  0  0  0  0
  1  6  1  0  0  0  0
  1  7  1  0  0  0  0
  2  1  2  0  0  0  0
  3  4  2  0  0  0  0
  3  2  1  0  0  0  0
  4  5  1  0  0  0  0
  5 10  1  0  0  0  0
  5  6  2  0  0  0  0
  6 13  1  0  0  0  0
  8  2  1  0  0  0  0
  9  4  1  0  0  0  0
 11 12  3  0  0  0  0
 13 14  1  0  0  0  0
 14 15  1  0  0  0  0
 14 17  1  0  0  0  0
 16 14  1  0  0  0  0
 18  3  1  0  0  0  0
 19 18  1  0  0  0  0
M  END
