Coordinates from ORCA-job 4-MeO-Ph-N2-OH-B3LYPG-6-31G_dp-MTMO-d009-169-n800
 OpenBabel09051907473D

 19 18  0  0  0  0  0  0  0  0999 V2000
   -1.2879   -2.3289   -0.2146 C   0  0  0  0  0  0  0  0  0  0  0  0
    0.0458   -2.0533   -0.4797 C   0  0  0  0  0  0  0  0  0  0  0  0
    0.4611   -0.7327   -0.7001 C   0  0  0  0  0  0  0  0  0  0  0  0
   -0.4778    0.2958   -0.6512 C   0  0  0  0  0  0  0  0  0  0  0  0
   -1.8248    0.0209   -0.3838 C   0  0  0  0  0  0  0  0  0  0  0  0
   -2.2363   -1.2956   -0.1639 C   0  0  0  0  0  0  0  0  0  0  0  0
   -1.6227   -3.3465   -0.0406 H   0  0  0  0  0  0  0  0  0  0  0  0
    0.7825   -2.8488   -0.5204 H   0  0  0  0  0  0  0  0  0  0  0  0
   -0.1676    1.3248   -0.8229 H   0  0  0  0  0  0  0  0  0  0  0  0
   -2.5306    0.8425   -0.3526 H   0  0  0  0  0  0  0  0  0  0  0  0
    4.3514    4.5758   -0.9745 N   0  0  0  0  0  0  0  0  0  0  0  0
    5.0327    5.4410   -0.8811 N   0  0  0  0  0  0  0  0  0  0  0  0
   -3.5238   -1.6809    0.1050 O   0  0  0  0  0  0  0  0  0  0  0  0
   -4.5181   -0.6754    0.1620 C   0  0  0  0  0  0  0  0  0  0  0  0
   -5.4568   -1.1875    0.3799 H   0  0  0  0  0  0  0  0  0  0  0  0
   -4.6144   -0.1420   -0.7938 H   0  0  0  0  0  0  0  0  0  0  0  0
   -4.3148    0.0551    0.9567 H   0  0  0  0  0  0  0  0  0  0  0  0
    1.7920   -0.5228   -0.9559 O   0  0  0  0  0  0  0  0  0  0  0  0
    1.9422    0.4231   -1.0785 H   0  0  0  0  0  0  0  0  0  0  0  0
  1  6  1  0  0  0  0
  1  7  1  0  0  0  0
  2  1  2  0  0  0  0
  3  4  2  0  0  0  0
  3  2  1  0  0  0  0
  4  5  1  0  0  0  0
  5 10  1  0  0  0  0
  5  6  2  0  0  0  0
  6 13  1  0  0  0  0
  8  2  1  0  0  0  0
  9  4  1  0  0  0  0
 11 12  3  0  0  0  0
 13 14  1  0  0  0  0
 14 15  1  0  0  0  0
 14 17  1  0  0  0  0
 16 14  1  0  0  0  0
 18  3  1  0  0  0  0
 19 18  1  0  0  0  0
M  END
