Coordinates from ORCA-job 4-MeO-Ph-N2-OH-B3LYPG-6-31G_dp-MTMO-d009-169-n800
 OpenBabel09051907463D

 19 19  0  0  0  0  0  0  0  0999 V2000
   -1.1698   -1.6811   -1.3293 C   0  0  0  0  0  0  0  0  0  0  0  0
    0.1256   -1.2303   -1.5633 C   0  0  0  0  0  0  0  0  0  0  0  0
    0.5108   -0.0143   -1.0201 C   0  0  0  0  0  0  0  0  0  0  0  0
   -0.3444    0.7956   -0.2966 C   0  0  0  0  0  0  0  0  0  0  0  0
   -1.6524    0.3453   -0.0748 C   0  0  0  0  0  0  0  0  0  0  0  0
   -2.0637   -0.8942   -0.5849 C   0  0  0  0  0  0  0  0  0  0  0  0
   -1.5173   -2.6310   -1.7211 H   0  0  0  0  0  0  0  0  0  0  0  0
    0.8235   -1.8119   -2.1563 H   0  0  0  0  0  0  0  0  0  0  0  0
   -0.0161    1.7455    0.1032 H   0  0  0  0  0  0  0  0  0  0  0  0
   -2.3319    0.9678    0.4952 H   0  0  0  0  0  0  0  0  0  0  0  0
    2.1601    0.4799   -1.5487 N   0  0  0  0  0  0  0  0  0  0  0  0
    2.9104    0.9849   -0.7411 N   0  0  0  0  0  0  0  0  0  0  0  0
   -3.3107   -1.4218   -0.4190 O   0  0  0  0  0  0  0  0  0  0  0  0
   -4.2678   -0.6747    0.3148 C   0  0  0  0  0  0  0  0  0  0  0  0
   -5.1803   -1.2729    0.3156 H   0  0  0  0  0  0  0  0  0  0  0  0
   -4.4737    0.2952   -0.1560 H   0  0  0  0  0  0  0  0  0  0  0  0
   -3.9450   -0.5086    1.3507 H   0  0  0  0  0  0  0  0  0  0  0  0
    2.4057    1.1493    0.5855 O   0  0  0  0  0  0  0  0  0  0  0  0
    3.1694    1.5417    1.0360 H   0  0  0  0  0  0  0  0  0  0  0  0
  1  6  1  0  0  0  0
  2  1  2  0  0  0  0
  2  3  1  0  0  0  0
  3  4  2  0  0  0  0
  4  5  1  0  0  0  0
  4  9  1  0  0  0  0
  5 10  1  0  0  0  0
  6 13  1  0  0  0  0
  6  5  2  0  0  0  0
  7  1  1  0  0  0  0
  8  2  1  0  0  0  0
 11  3  1  0  0  0  0
 11 12  2  0  0  0  0
 12 18  1  0  0  0  0
 13 14  1  0  0  0  0
 14 15  1  0  0  0  0
 14 17  1  0  0  0  0
 16 14  1  0  0  0  0
 18 19  1  0  0  0  0
M  END
