Coordinates from ORCA-job 4-MeO-Ph-N2-OH-B3LYPG-6-31G_dp-MTMO-d009-169-n800
 OpenBabel09051907473D

 19 18  0  0  0  0  0  0  0  0999 V2000
   -1.3381   -2.3745   -0.2213 C   0  0  0  0  0  0  0  0  0  0  0  0
    0.0006   -2.1202   -0.4823 C   0  0  0  0  0  0  0  0  0  0  0  0
    0.4391   -0.8055   -0.6925 C   0  0  0  0  0  0  0  0  0  0  0  0
   -0.4819    0.2388   -0.6376 C   0  0  0  0  0  0  0  0  0  0  0  0
   -1.8339   -0.0145   -0.3744 C   0  0  0  0  0  0  0  0  0  0  0  0
   -2.2686   -1.3252   -0.1646 C   0  0  0  0  0  0  0  0  0  0  0  0
   -1.6908   -3.3874   -0.0553 H   0  0  0  0  0  0  0  0  0  0  0  0
    0.7234   -2.9281   -0.5278 H   0  0  0  0  0  0  0  0  0  0  0  0
   -0.1536    1.2635   -0.8012 H   0  0  0  0  0  0  0  0  0  0  0  0
   -2.5254    0.8189   -0.3386 H   0  0  0  0  0  0  0  0  0  0  0  0
    4.5519    4.9095   -0.9988 N   0  0  0  0  0  0  0  0  0  0  0  0
    5.2352    5.7747   -0.9207 N   0  0  0  0  0  0  0  0  0  0  0  0
   -3.5630   -1.6901    0.0995 O   0  0  0  0  0  0  0  0  0  0  0  0
   -4.5396   -0.6678    0.1627 C   0  0  0  0  0  0  0  0  0  0  0  0
   -5.4873   -1.1648    0.3768 H   0  0  0  0  0  0  0  0  0  0  0  0
   -4.6259   -0.1264   -0.7895 H   0  0  0  0  0  0  0  0  0  0  0  0
   -4.3240    0.0537    0.9624 H   0  0  0  0  0  0  0  0  0  0  0  0
    1.7739   -0.6169   -0.9448 O   0  0  0  0  0  0  0  0  0  0  0  0
    1.9401    0.3270   -1.0622 H   0  0  0  0  0  0  0  0  0  0  0  0
  1  6  1  0  0  0  0
  1  7  1  0  0  0  0
  2  1  2  0  0  0  0
  3  4  2  0  0  0  0
  3  2  1  0  0  0  0
  4  5  1  0  0  0  0
  5 10  1  0  0  0  0
  5  6  2  0  0  0  0
  6 13  1  0  0  0  0
  8  2  1  0  0  0  0
  9  4  1  0  0  0  0
 11 12  3  0  0  0  0
 13 14  1  0  0  0  0
 14 15  1  0  0  0  0
 14 17  1  0  0  0  0
 16 14  1  0  0  0  0
 18  3  1  0  0  0  0
 19 18  1  0  0  0  0
M  END
