Coordinates from ORCA-job 4-MeO-Ph-N2-OH-B3LYPG-6-31G_dp-MTMO-d009-169-n800
 OpenBabel09051907463D

 19 19  0  0  0  0  0  0  0  0999 V2000
   -1.2175   -1.6442   -1.4626 C   0  0  0  0  0  0  0  0  0  0  0  0
    0.1151   -1.2926   -1.5778 C   0  0  0  0  0  0  0  0  0  0  0  0
    0.6468   -0.1958   -0.8708 C   0  0  0  0  0  0  0  0  0  0  0  0
   -0.2079    0.5521   -0.0415 C   0  0  0  0  0  0  0  0  0  0  0  0
   -1.5537    0.2031    0.0734 C   0  0  0  0  0  0  0  0  0  0  0  0
   -2.0663   -0.8951   -0.6308 C   0  0  0  0  0  0  0  0  0  0  0  0
   -1.6305   -2.4902   -2.0014 H   0  0  0  0  0  0  0  0  0  0  0  0
    0.7849   -1.8580   -2.2169 H   0  0  0  0  0  0  0  0  0  0  0  0
    0.1702    1.3998    0.5071 H   0  0  0  0  0  0  0  0  0  0  0  0
   -2.1923    0.7977    0.7158 H   0  0  0  0  0  0  0  0  0  0  0  0
    2.0503   -0.0068   -1.1355 N   0  0  0  0  0  0  0  0  0  0  0  0
    2.8273    0.8159   -0.6607 N   0  0  0  0  0  0  0  0  0  0  0  0
   -3.3587   -1.3125   -0.5779 O   0  0  0  0  0  0  0  0  0  0  0  0
   -4.2686   -0.6022    0.2502 C   0  0  0  0  0  0  0  0  0  0  0  0
   -5.2281   -1.1106    0.1465 H   0  0  0  0  0  0  0  0  0  0  0  0
   -4.3764    0.4414   -0.0710 H   0  0  0  0  0  0  0  0  0  0  0  0
   -3.9585   -0.6253    1.3026 H   0  0  0  0  0  0  0  0  0  0  0  0
    2.2578    1.7319    0.3054 O   0  0  0  0  0  0  0  0  0  0  0  0
    3.0383    2.2558    0.5357 H   0  0  0  0  0  0  0  0  0  0  0  0
  1  6  1  0  0  0  0
  2  1  2  0  0  0  0
  2  3  1  0  0  0  0
  3  4  2  0  0  0  0
  4  5  1  0  0  0  0
  4  9  1  0  0  0  0
  5 10  1  0  0  0  0
  6 13  1  0  0  0  0
  6  5  2  0  0  0  0
  7  1  1  0  0  0  0
  8  2  1  0  0  0  0
 11  3  1  0  0  0  0
 11 12  2  0  0  0  0
 12 18  1  0  0  0  0
 13 14  1  0  0  0  0
 14 17  1  0  0  0  0
 15 14  1  0  0  0  0
 16 14  1  0  0  0  0
 18 19  1  0  0  0  0
M  END
