Coordinates from ORCA-job 4-MeO-Ph-N2-OH-B3LYPG-6-31G_dp-MTMO-d009-169-n800
 OpenBabel09051907473D

 19 18  0  0  0  0  0  0  0  0999 V2000
   -1.6742   -2.6949   -0.2138 C   0  0  0  0  0  0  0  0  0  0  0  0
   -0.3264   -2.4828   -0.4650 C   0  0  0  0  0  0  0  0  0  0  0  0
    0.1581   -1.1807   -0.6516 C   0  0  0  0  0  0  0  0  0  0  0  0
   -0.7267   -0.1063   -0.5834 C   0  0  0  0  0  0  0  0  0  0  0  0
   -2.0878   -0.3171   -0.3303 C   0  0  0  0  0  0  0  0  0  0  0  0
   -2.5683   -1.6152   -0.1437 C   0  0  0  0  0  0  0  0  0  0  0  0
   -2.0626   -3.6975   -0.0664 H   0  0  0  0  0  0  0  0  0  0  0  0
    0.3684   -3.3143   -0.5209 H   0  0  0  0  0  0  0  0  0  0  0  0
   -0.3624    0.9090   -0.7284 H   0  0  0  0  0  0  0  0  0  0  0  0
   -2.7506    0.5390   -0.2843 H   0  0  0  0  0  0  0  0  0  0  0  0
    6.9276    7.5626   -1.2292 N   0  0  0  0  0  0  0  0  0  0  0  0
    7.6720    8.3796   -1.2248 N   0  0  0  0  0  0  0  0  0  0  0  0
   -3.8756   -1.9395    0.1091 O   0  0  0  0  0  0  0  0  0  0  0  0
   -4.8165   -0.8851    0.1863 C   0  0  0  0  0  0  0  0  0  0  0  0
   -5.7813   -1.3522    0.3912 H   0  0  0  0  0  0  0  0  0  0  0  0
   -4.8818   -0.3267   -0.7577 H   0  0  0  0  0  0  0  0  0  0  0  0
   -4.5779   -0.1838    0.9974 H   0  0  0  0  0  0  0  0  0  0  0  0
    1.4999   -1.0343   -0.8953 O   0  0  0  0  0  0  0  0  0  0  0  0
    1.6983   -0.0952   -0.9996 H   0  0  0  0  0  0  0  0  0  0  0  0
  1  6  1  0  0  0  0
  1  7  1  0  0  0  0
  2  1  2  0  0  0  0
  3  4  2  0  0  0  0
  3  2  1  0  0  0  0
  4  5  1  0  0  0  0
  5 10  1  0  0  0  0
  5  6  2  0  0  0  0
  6 13  1  0  0  0  0
  8  2  1  0  0  0  0
  9  4  1  0  0  0  0
 11 12  3  0  0  0  0
 13 14  1  0  0  0  0
 14 15  1  0  0  0  0
 14 17  1  0  0  0  0
 16 14  1  0  0  0  0
 18  3  1  0  0  0  0
 19 18  1  0  0  0  0
M  END
