Coordinates from ORCA-job 4-MeO-Ph-N2-OH-B3LYPG-6-31G_dp-MTMO-d009-169-n800
 OpenBabel09051907463D

 19 18  0  0  0  0  0  0  0  0999 V2000
   -0.9509   -1.9434   -0.7190 C   0  0  0  0  0  0  0  0  0  0  0  0
    0.3987   -1.6398   -0.6121 C   0  0  0  0  0  0  0  0  0  0  0  0
    0.8035   -0.3835   -0.1397 C   0  0  0  0  0  0  0  0  0  0  0  0
   -0.1634    0.5539    0.2223 C   0  0  0  0  0  0  0  0  0  0  0  0
   -1.5267    0.2519    0.1113 C   0  0  0  0  0  0  0  0  0  0  0  0
   -1.9268   -1.0005   -0.3601 C   0  0  0  0  0  0  0  0  0  0  0  0
   -1.2776   -2.9121   -1.0829 H   0  0  0  0  0  0  0  0  0  0  0  0
    1.1571   -2.3641   -0.8906 H   0  0  0  0  0  0  0  0  0  0  0  0
    0.1372    1.5293    0.5975 H   0  0  0  0  0  0  0  0  0  0  0  0
   -2.2546    1.0009    0.3993 H   0  0  0  0  0  0  0  0  0  0  0  0
    2.0835    2.4202   -1.5827 N   0  0  0  0  0  0  0  0  0  0  0  0
    1.9890    2.7137   -2.6437 N   0  0  0  0  0  0  0  0  0  0  0  0
   -3.2284   -1.4043   -0.5080 O   0  0  0  0  0  0  0  0  0  0  0  0
   -4.2496   -0.4913   -0.1506 C   0  0  0  0  0  0  0  0  0  0  0  0
   -5.1949   -1.0035   -0.3393 H   0  0  0  0  0  0  0  0  0  0  0  0
   -4.2105    0.4233   -0.7574 H   0  0  0  0  0  0  0  0  0  0  0  0
   -4.1966   -0.2153    0.9113 H   0  0  0  0  0  0  0  0  0  0  0  0
    2.1509   -0.1486   -0.0489 O   0  0  0  0  0  0  0  0  0  0  0  0
    2.2922    0.7777    0.1831 H   0  0  0  0  0  0  0  0  0  0  0  0
  1  2  2  0  0  0  0
  1  6  1  0  0  0  0
  2  3  1  0  0  0  0
  3 18  1  0  0  0  0
  3  4  2  0  0  0  0
  4  9  1  0  0  0  0
  5  4  1  0  0  0  0
  5 10  1  0  0  0  0
  6  5  2  0  0  0  0
  7  1  1  0  0  0  0
  8  2  1  0  0  0  0
 12 11  3  0  0  0  0
 13  6  1  0  0  0  0
 13 14  1  0  0  0  0
 14 17  1  0  0  0  0
 15 14  1  0  0  0  0
 16 14  1  0  0  0  0
 18 19  1  0  0  0  0
M  END
