Coordinates from ORCA-job 4-MeO-Ph-N2-OH-B3LYPG-6-31G_dp-MTMO-d009-169-n800
 OpenBabel09051907473D

 19 18  0  0  0  0  0  0  0  0999 V2000
   -2.0301   -3.0463   -0.1807 C   0  0  0  0  0  0  0  0  0  0  0  0
   -0.6816   -2.8373   -0.4307 C   0  0  0  0  0  0  0  0  0  0  0  0
   -0.1935   -1.5361   -0.6143 C   0  0  0  0  0  0  0  0  0  0  0  0
   -1.0754   -0.4595   -0.5445 C   0  0  0  0  0  0  0  0  0  0  0  0
   -2.4373   -0.6671   -0.2927 C   0  0  0  0  0  0  0  0  0  0  0  0
   -2.9214   -1.9644   -0.1090 C   0  0  0  0  0  0  0  0  0  0  0  0
   -2.4213   -4.0482   -0.0355 H   0  0  0  0  0  0  0  0  0  0  0  0
    0.0110   -3.6705   -0.4878 H   0  0  0  0  0  0  0  0  0  0  0  0
   -0.7084    0.5552   -0.6872 H   0  0  0  0  0  0  0  0  0  0  0  0
   -3.0978    0.1906   -0.2454 H   0  0  0  0  0  0  0  0  0  0  0  0
    9.9146   10.5449   -1.5307 N   0  0  0  0  0  0  0  0  0  0  0  0
   10.6646   11.3568   -1.5374 N   0  0  0  0  0  0  0  0  0  0  0  0
   -4.2297   -2.2857    0.1425 O   0  0  0  0  0  0  0  0  0  0  0  0
   -5.1677   -1.2289    0.2214 C   0  0  0  0  0  0  0  0  0  0  0  0
   -6.1338   -1.6938    0.4251 H   0  0  0  0  0  0  0  0  0  0  0  0
   -5.2313   -0.6685   -0.7216 H   0  0  0  0  0  0  0  0  0  0  0  0
   -4.9275   -0.5298    1.0339 H   0  0  0  0  0  0  0  0  0  0  0  0
    1.1488   -1.3928   -0.8568 O   0  0  0  0  0  0  0  0  0  0  0  0
    1.3499   -0.4540   -0.9589 H   0  0  0  0  0  0  0  0  0  0  0  0
  1  6  1  0  0  0  0
  1  7  1  0  0  0  0
  2  1  2  0  0  0  0
  3  4  2  0  0  0  0
  3  2  1  0  0  0  0
  4  5  1  0  0  0  0
  5 10  1  0  0  0  0
  5  6  2  0  0  0  0
  6 13  1  0  0  0  0
  8  2  1  0  0  0  0
  9  4  1  0  0  0  0
 12 11  3  0  0  0  0
 13 14  1  0  0  0  0
 14 15  1  0  0  0  0
 14 17  1  0  0  0  0
 16 14  1  0  0  0  0
 18  3  1  0  0  0  0
 19 18  1  0  0  0  0
M  END
