Coordinates from ORCA-job 4-MeO-Ph-N2-OH-B3LYPG-6-31G_dp-MTMO-d009-169-n800
 OpenBabel09051907473D

 19 18  0  0  0  0  0  0  0  0999 V2000
   -1.2502   -2.2944   -0.2094 C   0  0  0  0  0  0  0  0  0  0  0  0
    0.0793   -2.0022   -0.4775 C   0  0  0  0  0  0  0  0  0  0  0  0
    0.4766   -0.6774   -0.7055 C   0  0  0  0  0  0  0  0  0  0  0  0
   -0.4761    0.3386   -0.6612 C   0  0  0  0  0  0  0  0  0  0  0  0
   -1.8190    0.0471   -0.3908 C   0  0  0  0  0  0  0  0  0  0  0  0
   -2.2124   -1.2736   -0.1633 C   0  0  0  0  0  0  0  0  0  0  0  0
   -1.5711   -3.3154   -0.0294 H   0  0  0  0  0  0  0  0  0  0  0  0
    0.8267   -2.7879   -0.5147 H   0  0  0  0  0  0  0  0  0  0  0  0
   -0.1800    1.3708   -0.8389 H   0  0  0  0  0  0  0  0  0  0  0  0
   -2.5357    0.8592   -0.3631 H   0  0  0  0  0  0  0  0  0  0  0  0
    4.2054    4.3279   -0.9576 N   0  0  0  0  0  0  0  0  0  0  0  0
    4.8873    5.1912   -0.8514 N   0  0  0  0  0  0  0  0  0  0  0  0
   -3.4944   -1.6748    0.1091 O   0  0  0  0  0  0  0  0  0  0  0  0
   -4.5021   -0.6827    0.1613 C   0  0  0  0  0  0  0  0  0  0  0  0
   -5.4338   -1.2063    0.3821 H   0  0  0  0  0  0  0  0  0  0  0  0
   -4.6060   -0.1554   -0.7971 H   0  0  0  0  0  0  0  0  0  0  0  0
   -4.3086    0.0546    0.9523 H   0  0  0  0  0  0  0  0  0  0  0  0
    1.8042   -0.4510   -0.9639 O   0  0  0  0  0  0  0  0  0  0  0  0
    1.9421    0.4963   -1.0911 H   0  0  0  0  0  0  0  0  0  0  0  0
  1  6  1  0  0  0  0
  1  7  1  0  0  0  0
  2  1  2  0  0  0  0
  3  4  2  0  0  0  0
  3  2  1  0  0  0  0
  4  5  1  0  0  0  0
  5 10  1  0  0  0  0
  5  6  2  0  0  0  0
  6 13  1  0  0  0  0
  8  2  1  0  0  0  0
  9  4  1  0  0  0  0
 11 12  3  0  0  0  0
 13 14  1  0  0  0  0
 14 15  1  0  0  0  0
 14 17  1  0  0  0  0
 16 14  1  0  0  0  0
 18  3  1  0  0  0  0
 19 18  1  0  0  0  0
M  END
