Coordinates from ORCA-job 4-MeO-Ph-N2-OH-B3LYPG-6-31G_dp-MTMO-d009-169-n800
 OpenBabel09051907463D

 19 18  0  0  0  0  0  0  0  0999 V2000
   -0.9665   -1.9698   -0.6904 C   0  0  0  0  0  0  0  0  0  0  0  0
    0.3839   -1.6642   -0.6014 C   0  0  0  0  0  0  0  0  0  0  0  0
    0.7927   -0.3964   -0.1642 C   0  0  0  0  0  0  0  0  0  0  0  0
   -0.1714    0.5501    0.1816 C   0  0  0  0  0  0  0  0  0  0  0  0
   -1.5355    0.2459    0.0887 C   0  0  0  0  0  0  0  0  0  0  0  0
   -1.9395   -1.0178   -0.3481 C   0  0  0  0  0  0  0  0  0  0  0  0
   -1.2962   -2.9470   -1.0277 H   0  0  0  0  0  0  0  0  0  0  0  0
    1.1400   -2.3956   -0.8674 H   0  0  0  0  0  0  0  0  0  0  0  0
    0.1325    1.5345    0.5295 H   0  0  0  0  0  0  0  0  0  0  0  0
   -2.2611    1.0021    0.3636 H   0  0  0  0  0  0  0  0  0  0  0  0
    2.1674    2.4891   -1.5487 N   0  0  0  0  0  0  0  0  0  0  0  0
    2.0966    2.8633   -2.5858 N   0  0  0  0  0  0  0  0  0  0  0  0
   -3.2423   -1.4245   -0.4762 O   0  0  0  0  0  0  0  0  0  0  0  0
   -4.2605   -0.5011   -0.1371 C   0  0  0  0  0  0  0  0  0  0  0  0
   -5.2075   -1.0164   -0.3082 H   0  0  0  0  0  0  0  0  0  0  0  0
   -4.2229    0.3980   -0.7667 H   0  0  0  0  0  0  0  0  0  0  0  0
   -4.2022   -0.1986    0.9173 H   0  0  0  0  0  0  0  0  0  0  0  0
    2.1406   -0.1588   -0.0914 O   0  0  0  0  0  0  0  0  0  0  0  0
    2.2840    0.7717    0.1223 H   0  0  0  0  0  0  0  0  0  0  0  0
  1  2  2  0  0  0  0
  1  6  1  0  0  0  0
  2  3  1  0  0  0  0
  3 18  1  0  0  0  0
  3  4  2  0  0  0  0
  4  9  1  0  0  0  0
  5  4  1  0  0  0  0
  5 10  1  0  0  0  0
  6  5  2  0  0  0  0
  7  1  1  0  0  0  0
  8  2  1  0  0  0  0
 12 11  3  0  0  0  0
 13  6  1  0  0  0  0
 13 14  1  0  0  0  0
 14 17  1  0  0  0  0
 15 14  1  0  0  0  0
 16 14  1  0  0  0  0
 18 19  1  0  0  0  0
M  END
