Coordinates from ORCA-job 4-MeO-Ph-N2-OH-B3LYPG-6-31G_dp-MTMO-d009-169-n800
 OpenBabel09051907463D

 19 19  0  0  0  0  0  0  0  0999 V2000
   -1.1805   -1.6799   -1.3585 C   0  0  0  0  0  0  0  0  0  0  0  0
    0.1213   -1.2457   -1.5759 C   0  0  0  0  0  0  0  0  0  0  0  0
    0.5422   -0.0516   -1.0008 C   0  0  0  0  0  0  0  0  0  0  0  0
   -0.3102    0.7490   -0.2552 C   0  0  0  0  0  0  0  0  0  0  0  0
   -1.6269    0.3198   -0.0523 C   0  0  0  0  0  0  0  0  0  0  0  0
   -2.0620   -0.8971   -0.5951 C   0  0  0  0  0  0  0  0  0  0  0  0
   -1.5439   -2.6121   -1.7773 H   0  0  0  0  0  0  0  0  0  0  0  0
    0.8100   -1.8225   -2.1842 H   0  0  0  0  0  0  0  0  0  0  0  0
    0.0306    1.6820    0.1706 H   0  0  0  0  0  0  0  0  0  0  0  0
   -2.2960    0.9415    0.5306 H   0  0  0  0  0  0  0  0  0  0  0  0
    2.1206    0.3634   -1.4805 N   0  0  0  0  0  0  0  0  0  0  0  0
    2.8780    0.9515   -0.7312 N   0  0  0  0  0  0  0  0  0  0  0  0
   -3.3186   -1.4041   -0.4461 O   0  0  0  0  0  0  0  0  0  0  0  0
   -4.2630   -0.6591    0.3067 C   0  0  0  0  0  0  0  0  0  0  0  0
   -5.1857   -1.2413    0.2924 H   0  0  0  0  0  0  0  0  0  0  0  0
   -4.4517    0.3256   -0.1396 H   0  0  0  0  0  0  0  0  0  0  0  0
   -3.9374   -0.5252    1.3463 H   0  0  0  0  0  0  0  0  0  0  0  0
    2.3678    1.2720    0.5667 O   0  0  0  0  0  0  0  0  0  0  0  0
    3.1375    1.6980    0.9731 H   0  0  0  0  0  0  0  0  0  0  0  0
  1  6  1  0  0  0  0
  2  1  2  0  0  0  0
  2  3  1  0  0  0  0
  3  4  2  0  0  0  0
  4  5  1  0  0  0  0
  4  9  1  0  0  0  0
  5 10  1  0  0  0  0
  6 13  1  0  0  0  0
  6  5  2  0  0  0  0
  7  1  1  0  0  0  0
  8  2  1  0  0  0  0
 11  3  1  0  0  0  0
 11 12  2  0  0  0  0
 12 18  1  0  0  0  0
 13 14  1  0  0  0  0
 14 17  1  0  0  0  0
 15 14  1  0  0  0  0
 16 14  1  0  0  0  0
 18 19  1  0  0  0  0
M  END
