Coordinates from ORCA-job 4-MeO-Ph-N2-OH-B3LYPG-6-31G_dp-MTMO-d009-169-n800
 OpenBabel09051907473D

 19 18  0  0  0  0  0  0  0  0999 V2000
   -1.0419   -2.0928   -0.5135 C   0  0  0  0  0  0  0  0  0  0  0  0
    0.3067   -1.7689   -0.5534 C   0  0  0  0  0  0  0  0  0  0  0  0
    0.7208   -0.4438   -0.3549 C   0  0  0  0  0  0  0  0  0  0  0  0
   -0.2374    0.5403   -0.1139 C   0  0  0  0  0  0  0  0  0  0  0  0
   -1.5997    0.2168   -0.0748 C   0  0  0  0  0  0  0  0  0  0  0  0
   -2.0086   -1.1036   -0.2754 C   0  0  0  0  0  0  0  0  0  0  0  0
   -1.3746   -3.1141   -0.6685 H   0  0  0  0  0  0  0  0  0  0  0  0
    1.0577   -2.5295   -0.7396 H   0  0  0  0  0  0  0  0  0  0  0  0
    0.0695    1.5709    0.0492 H   0  0  0  0  0  0  0  0  0  0  0  0
   -2.3199    1.0037    0.1150 H   0  0  0  0  0  0  0  0  0  0  0  0
    2.6060    2.7862   -1.3251 N   0  0  0  0  0  0  0  0  0  0  0  0
    2.8203    3.6186   -2.0188 N   0  0  0  0  0  0  0  0  0  0  0  0
   -3.3108   -1.5331   -0.2603 O   0  0  0  0  0  0  0  0  0  0  0  0
   -4.3222   -0.5693   -0.0350 C   0  0  0  0  0  0  0  0  0  0  0  0
   -5.2705   -1.1080   -0.0730 H   0  0  0  0  0  0  0  0  0  0  0  0
   -4.3215    0.2118   -0.8082 H   0  0  0  0  0  0  0  0  0  0  0  0
   -4.2203   -0.0929    0.9497 H   0  0  0  0  0  0  0  0  0  0  0  0
    2.0656   -0.1886   -0.4036 O   0  0  0  0  0  0  0  0  0  0  0  0
    2.2130    0.7608   -0.3061 H   0  0  0  0  0  0  0  0  0  0  0  0
  1  6  1  0  0  0  0
  2  1  2  0  0  0  0
  2  3  1  0  0  0  0
  3  4  2  0  0  0  0
  4  5  1  0  0  0  0
  4  9  1  0  0  0  0
  5 10  1  0  0  0  0
  6 13  1  0  0  0  0
  6  5  2  0  0  0  0
  7  1  1  0  0  0  0
  8  2  1  0  0  0  0
 12 11  3  0  0  0  0
 13 14  1  0  0  0  0
 14 17  1  0  0  0  0
 15 14  1  0  0  0  0
 16 14  1  0  0  0  0
 18  3  1  0  0  0  0
 18 19  1  0  0  0  0
M  END
