Coordinates from ORCA-job 4-MeO-Ph-N2-OH-B3LYPG-6-31G_dp-MTMO-d009-169-n800
 OpenBabel09051907473D

 19 18  0  0  0  0  0  0  0  0999 V2000
   -1.6620   -2.6829   -0.2147 C   0  0  0  0  0  0  0  0  0  0  0  0
   -0.3142   -2.4706   -0.4661 C   0  0  0  0  0  0  0  0  0  0  0  0
    0.1700   -1.1685   -0.6530 C   0  0  0  0  0  0  0  0  0  0  0  0
   -0.7149   -0.0942   -0.5850 C   0  0  0  0  0  0  0  0  0  0  0  0
   -2.0760   -0.3051   -0.3317 C   0  0  0  0  0  0  0  0  0  0  0  0
   -2.5562   -1.6033   -0.1448 C   0  0  0  0  0  0  0  0  0  0  0  0
   -2.0502   -3.6855   -0.0670 H   0  0  0  0  0  0  0  0  0  0  0  0
    0.3807   -3.3020   -0.5219 H   0  0  0  0  0  0  0  0  0  0  0  0
   -0.3508    0.9212   -0.7303 H   0  0  0  0  0  0  0  0  0  0  0  0
   -2.7389    0.5508   -0.2858 H   0  0  0  0  0  0  0  0  0  0  0  0
    6.8261    7.4605   -1.2190 N   0  0  0  0  0  0  0  0  0  0  0  0
    7.5699    8.2781   -1.2137 N   0  0  0  0  0  0  0  0  0  0  0  0
   -3.8635   -1.9278    0.1082 O   0  0  0  0  0  0  0  0  0  0  0  0
   -4.8045   -0.8736    0.1852 C   0  0  0  0  0  0  0  0  0  0  0  0
   -5.7692   -1.3407    0.3903 H   0  0  0  0  0  0  0  0  0  0  0  0
   -4.8700   -0.3153   -0.7589 H   0  0  0  0  0  0  0  0  0  0  0  0
   -4.5660   -0.1720    0.9961 H   0  0  0  0  0  0  0  0  0  0  0  0
    1.5118   -1.0219   -0.8968 O   0  0  0  0  0  0  0  0  0  0  0  0
    1.7100   -0.0827   -1.0014 H   0  0  0  0  0  0  0  0  0  0  0  0
  1  6  1  0  0  0  0
  1  7  1  0  0  0  0
  2  1  2  0  0  0  0
  3  4  2  0  0  0  0
  3  2  1  0  0  0  0
  4  5  1  0  0  0  0
  5 10  1  0  0  0  0
  5  6  2  0  0  0  0
  6 13  1  0  0  0  0
  8  2  1  0  0  0  0
  9  4  1  0  0  0  0
 11 12  3  0  0  0  0
 13 14  1  0  0  0  0
 14 15  1  0  0  0  0
 14 17  1  0  0  0  0
 16 14  1  0  0  0  0
 18  3  1  0  0  0  0
 19 18  1  0  0  0  0
M  END
