Coordinates from ORCA-job 4-MeO-Ph-N2-OH-B3LYPG-6-31G_dp-MTMO-d009-169-n800
 OpenBabel09051907473D

 19 18  0  0  0  0  0  0  0  0999 V2000
   -1.3805   -2.4131   -0.2250 C   0  0  0  0  0  0  0  0  0  0  0  0
   -0.0386   -2.1733   -0.4832 C   0  0  0  0  0  0  0  0  0  0  0  0
    0.4156   -0.8627   -0.6863 C   0  0  0  0  0  0  0  0  0  0  0  0
   -0.4932    0.1920   -0.6274 C   0  0  0  0  0  0  0  0  0  0  0  0
   -1.8484   -0.0467   -0.3672 C   0  0  0  0  0  0  0  0  0  0  0  0
   -2.2987   -1.3532   -0.1643 C   0  0  0  0  0  0  0  0  0  0  0  0
   -1.7454   -3.4225   -0.0646 H   0  0  0  0  0  0  0  0  0  0  0  0
    0.6747   -2.9893   -0.5319 H   0  0  0  0  0  0  0  0  0  0  0  0
   -0.1526    1.2136   -0.7855 H   0  0  0  0  0  0  0  0  0  0  0  0
   -2.5302    0.7946   -0.3283 H   0  0  0  0  0  0  0  0  0  0  0  0
    4.7556    5.2057   -1.0209 N   0  0  0  0  0  0  0  0  0  0  0  0
    5.4465    6.0660   -0.9556 N   0  0  0  0  0  0  0  0  0  0  0  0
   -3.5976   -1.7041    0.0965 O   0  0  0  0  0  0  0  0  0  0  0  0
   -4.5621   -0.6707    0.1639 C   0  0  0  0  0  0  0  0  0  0  0  0
   -5.5157   -1.1575    0.3753 H   0  0  0  0  0  0  0  0  0  0  0  0
   -4.6415   -0.1240   -0.7859 H   0  0  0  0  0  0  0  0  0  0  0  0
   -4.3384    0.0446    0.9670 H   0  0  0  0  0  0  0  0  0  0  0  0
    1.7528   -0.6886   -0.9363 O   0  0  0  0  0  0  0  0  0  0  0  0
    1.9298    0.2537   -1.0506 H   0  0  0  0  0  0  0  0  0  0  0  0
  1  6  1  0  0  0  0
  1  7  1  0  0  0  0
  2  1  2  0  0  0  0
  3  4  2  0  0  0  0
  3  2  1  0  0  0  0
  4  5  1  0  0  0  0
  5 10  1  0  0  0  0
  5  6  2  0  0  0  0
  6 13  1  0  0  0  0
  8  2  1  0  0  0  0
  9  4  1  0  0  0  0
 11 12  3  0  0  0  0
 13 14  1  0  0  0  0
 14 15  1  0  0  0  0
 14 17  1  0  0  0  0
 16 14  1  0  0  0  0
 18  3  1  0  0  0  0
 19 18  1  0  0  0  0
M  END
