Coordinates from ORCA-job 4-MeO-Ph-N2-OH-B3LYPG-6-31G_dp-MTMO-d009-169-n800
 OpenBabel09051907463D

 19 19  0  0  0  0  0  0  0  0999 V2000
   -1.1963   -1.6453   -1.4748 C   0  0  0  0  0  0  0  0  0  0  0  0
    0.1267   -1.3054   -1.5916 C   0  0  0  0  0  0  0  0  0  0  0  0
    0.7748   -0.1807   -0.8844 C   0  0  0  0  0  0  0  0  0  0  0  0
   -0.1907    0.5505   -0.0304 C   0  0  0  0  0  0  0  0  0  0  0  0
   -1.5246    0.2074    0.0778 C   0  0  0  0  0  0  0  0  0  0  0  0
   -2.0418   -0.8900   -0.6351 C   0  0  0  0  0  0  0  0  0  0  0  0
   -1.6242   -2.4862   -2.0122 H   0  0  0  0  0  0  0  0  0  0  0  0
    0.7848   -1.8834   -2.2372 H   0  0  0  0  0  0  0  0  0  0  0  0
    0.1803    1.3999    0.5287 H   0  0  0  0  0  0  0  0  0  0  0  0
   -2.1708    0.7958    0.7200 H   0  0  0  0  0  0  0  0  0  0  0  0
    1.7684    0.0107   -1.0145 N   0  0  0  0  0  0  0  0  0  0  0  0
    2.7119    0.7581   -0.6690 N   0  0  0  0  0  0  0  0  0  0  0  0
   -3.3278   -1.2995   -0.5847 O   0  0  0  0  0  0  0  0  0  0  0  0
   -4.2474   -0.5961    0.2449 C   0  0  0  0  0  0  0  0  0  0  0  0
   -5.2030   -1.1085    0.1300 H   0  0  0  0  0  0  0  0  0  0  0  0
   -4.3540    0.4478   -0.0726 H   0  0  0  0  0  0  0  0  0  0  0  0
   -3.9407   -0.6275    1.2970 H   0  0  0  0  0  0  0  0  0  0  0  0
    2.2386    1.7732    0.3160 O   0  0  0  0  0  0  0  0  0  0  0  0
    3.0678    2.2438    0.4819 H   0  0  0  0  0  0  0  0  0  0  0  0
  1  6  1  0  0  0  0
  2  1  2  0  0  0  0
  2  3  1  0  0  0  0
  3  4  2  0  0  0  0
  4  5  1  0  0  0  0
  4  9  1  0  0  0  0
  5 10  1  0  0  0  0
  6 13  1  0  0  0  0
  6  5  2  0  0  0  0
  7  1  1  0  0  0  0
  8  2  1  0  0  0  0
 11  3  1  0  0  0  0
 11 12  1  0  0  0  0
 12 18  1  0  0  0  0
 13 14  1  0  0  0  0
 14 17  1  0  0  0  0
 15 14  1  0  0  0  0
 16 14  1  0  0  0  0
 18 19  1  0  0  0  0
M  RAD  2  11   2  12   2
M  END
