Coordinates from ORCA-job 4-MeO-Ph-N2-OH-B3LYPG-6-31G_dp-MTMO-d009-169-n800
 OpenBabel09051907473D

 19 18  0  0  0  0  0  0  0  0999 V2000
   -1.7215   -2.7415   -0.2101 C   0  0  0  0  0  0  0  0  0  0  0  0
   -0.3735   -2.5299   -0.4608 C   0  0  0  0  0  0  0  0  0  0  0  0
    0.1118   -1.2280   -0.6462 C   0  0  0  0  0  0  0  0  0  0  0  0
   -0.7724   -0.1531   -0.5774 C   0  0  0  0  0  0  0  0  0  0  0  0
   -2.1338   -0.3633   -0.3248 C   0  0  0  0  0  0  0  0  0  0  0  0
   -2.6150   -1.6614   -0.1394 C   0  0  0  0  0  0  0  0  0  0  0  0
   -2.1105   -3.7440   -0.0636 H   0  0  0  0  0  0  0  0  0  0  0  0
    0.3208   -3.3618   -0.5172 H   0  0  0  0  0  0  0  0  0  0  0  0
   -0.4076    0.8621   -0.7215 H   0  0  0  0  0  0  0  0  0  0  0  0
   -2.7960    0.4931   -0.2783 H   0  0  0  0  0  0  0  0  0  0  0  0
    7.3211    7.9576   -1.2691 N   0  0  0  0  0  0  0  0  0  0  0  0
    8.0675    8.7728   -1.2674 N   0  0  0  0  0  0  0  0  0  0  0  0
   -3.9226   -1.9851    0.1128 O   0  0  0  0  0  0  0  0  0  0  0  0
   -4.8629   -0.9302    0.1907 C   0  0  0  0  0  0  0  0  0  0  0  0
   -5.8279   -1.3969    0.3950 H   0  0  0  0  0  0  0  0  0  0  0  0
   -4.9277   -0.3710   -0.7530 H   0  0  0  0  0  0  0  0  0  0  0  0
   -4.6240   -0.2296    1.0023 H   0  0  0  0  0  0  0  0  0  0  0  0
    1.4537   -1.0821   -0.8894 O   0  0  0  0  0  0  0  0  0  0  0  0
    1.6527   -0.1430   -0.9927 H   0  0  0  0  0  0  0  0  0  0  0  0
  1  6  1  0  0  0  0
  1  7  1  0  0  0  0
  2  1  2  0  0  0  0
  3  4  2  0  0  0  0
  3  2  1  0  0  0  0
  4  5  1  0  0  0  0
  5 10  1  0  0  0  0
  5  6  2  0  0  0  0
  6 13  1  0  0  0  0
  8  2  1  0  0  0  0
  9  4  1  0  0  0  0
 11 12  3  0  0  0  0
 13 14  1  0  0  0  0
 14 15  1  0  0  0  0
 14 17  1  0  0  0  0
 16 14  1  0  0  0  0
 18  3  1  0  0  0  0
 19 18  1  0  0  0  0
M  END
