Coordinates from ORCA-job 4-MeO-Ph-N2-OH-B3LYPG-6-31G_dp-MTMO-d009-169-n800
 OpenBabel09051907473D

 19 18  0  0  0  0  0  0  0  0999 V2000
   -2.1142   -3.1297   -0.1715 C   0  0  0  0  0  0  0  0  0  0  0  0
   -0.7656   -2.9211   -0.4218 C   0  0  0  0  0  0  0  0  0  0  0  0
   -0.2772   -1.6202   -0.6062 C   0  0  0  0  0  0  0  0  0  0  0  0
   -1.1589   -0.5433   -0.5369 C   0  0  0  0  0  0  0  0  0  0  0  0
   -2.5208   -0.7504   -0.2847 C   0  0  0  0  0  0  0  0  0  0  0  0
   -3.0051   -2.0474   -0.1002 C   0  0  0  0  0  0  0  0  0  0  0  0
   -2.5056   -4.1313   -0.0257 H   0  0  0  0  0  0  0  0  0  0  0  0
   -0.0733   -3.7546   -0.4786 H   0  0  0  0  0  0  0  0  0  0  0  0
   -0.7916    0.4712   -0.6802 H   0  0  0  0  0  0  0  0  0  0  0  0
   -3.1810    0.1075   -0.2377 H   0  0  0  0  0  0  0  0  0  0  0  0
   10.6194   11.2589   -1.6071 N   0  0  0  0  0  0  0  0  0  0  0  0
   11.3822   12.0587   -1.6049 N   0  0  0  0  0  0  0  0  0  0  0  0
   -4.3135   -2.3682    0.1517 O   0  0  0  0  0  0  0  0  0  0  0  0
   -5.2512   -1.3111    0.2304 C   0  0  0  0  0  0  0  0  0  0  0  0
   -6.2174   -1.7756    0.4345 H   0  0  0  0  0  0  0  0  0  0  0  0
   -5.3148   -0.7512   -0.7129 H   0  0  0  0  0  0  0  0  0  0  0  0
   -5.0106   -0.6116    1.0425 H   0  0  0  0  0  0  0  0  0  0  0  0
    1.0651   -1.4774   -0.8491 O   0  0  0  0  0  0  0  0  0  0  0  0
    1.2664   -0.5387   -0.9517 H   0  0  0  0  0  0  0  0  0  0  0  0
  1  6  1  0  0  0  0
  1  7  1  0  0  0  0
  2  1  2  0  0  0  0
  3  4  2  0  0  0  0
  3  2  1  0  0  0  0
  4  5  1  0  0  0  0
  5 10  1  0  0  0  0
  5  6  2  0  0  0  0
  6 13  1  0  0  0  0
  8  2  1  0  0  0  0
  9  4  1  0  0  0  0
 11 12  3  0  0  0  0
 13 14  1  0  0  0  0
 14 15  1  0  0  0  0
 14 17  1  0  0  0  0
 16 14  1  0  0  0  0
 18  3  1  0  0  0  0
 19 18  1  0  0  0  0
M  END
