Coordinates from ORCA-job 4-MeO-Ph-N2-OH-B3LYPG-6-31G_dp-MTMO-d009-169-n800
 OpenBabel09051907473D

 19 18  0  0  0  0  0  0  0  0999 V2000
   -1.9019   -2.9196   -0.1939 C   0  0  0  0  0  0  0  0  0  0  0  0
   -0.5535   -2.7095   -0.4437 C   0  0  0  0  0  0  0  0  0  0  0  0
   -0.0663   -1.4080   -0.6269 C   0  0  0  0  0  0  0  0  0  0  0  0
   -0.9490   -0.3319   -0.5570 C   0  0  0  0  0  0  0  0  0  0  0  0
   -2.3108   -0.5406   -0.3054 C   0  0  0  0  0  0  0  0  0  0  0  0
   -2.7939   -1.8382   -0.1221 C   0  0  0  0  0  0  0  0  0  0  0  0
   -2.2924   -3.9217   -0.0490 H   0  0  0  0  0  0  0  0  0  0  0  0
    0.1397   -3.5422   -0.5009 H   0  0  0  0  0  0  0  0  0  0  0  0
   -0.5827    0.6830   -0.6995 H   0  0  0  0  0  0  0  0  0  0  0  0
   -2.9719    0.3166   -0.2580 H   0  0  0  0  0  0  0  0  0  0  0  0
    8.8343    9.4683   -1.4223 N   0  0  0  0  0  0  0  0  0  0  0  0
    9.5835   10.2809   -1.4263 N   0  0  0  0  0  0  0  0  0  0  0  0
   -4.1021   -2.1605    0.1292 O   0  0  0  0  0  0  0  0  0  0  0  0
   -5.0409   -1.1044    0.2082 C   0  0  0  0  0  0  0  0  0  0  0  0
   -6.0066   -1.5700    0.4116 H   0  0  0  0  0  0  0  0  0  0  0  0
   -5.1046   -0.5439   -0.7347 H   0  0  0  0  0  0  0  0  0  0  0  0
   -4.8013   -0.4053    1.0209 H   0  0  0  0  0  0  0  0  0  0  0  0
    1.2760   -1.2637   -0.8693 O   0  0  0  0  0  0  0  0  0  0  0  0
    1.4764   -0.3247   -0.9710 H   0  0  0  0  0  0  0  0  0  0  0  0
  1  6  1  0  0  0  0
  1  7  1  0  0  0  0
  2  1  2  0  0  0  0
  3  4  2  0  0  0  0
  3  2  1  0  0  0  0
  4  5  1  0  0  0  0
  5 10  1  0  0  0  0
  5  6  2  0  0  0  0
  6 13  1  0  0  0  0
  8  2  1  0  0  0  0
  9  4  1  0  0  0  0
 12 11  3  0  0  0  0
 13 14  1  0  0  0  0
 14 15  1  0  0  0  0
 14 17  1  0  0  0  0
 16 14  1  0  0  0  0
 18  3  1  0  0  0  0
 19 18  1  0  0  0  0
M  END
