Coordinates from ORCA-job 4-MeO-Ph-N2-OH-B3LYPG-6-31G_dp-MTMO-d009-169-n800
 OpenBabel09051907463D

 19 19  0  0  0  0  0  0  0  0999 V2000
   -1.1666   -1.6550   -1.4021 C   0  0  0  0  0  0  0  0  0  0  0  0
    0.1149   -1.2299   -1.6209 C   0  0  0  0  0  0  0  0  0  0  0  0
    0.7718   -0.0174   -0.9483 C   0  0  0  0  0  0  0  0  0  0  0  0
   -0.2954    0.6771   -0.0749 C   0  0  0  0  0  0  0  0  0  0  0  0
   -1.6185    0.3078   -0.0069 C   0  0  0  0  0  0  0  0  0  0  0  0
   -2.0593   -0.8804   -0.6262 C   0  0  0  0  0  0  0  0  0  0  0  0
   -1.5486   -2.5740   -1.8388 H   0  0  0  0  0  0  0  0  0  0  0  0
    0.8006   -1.8502   -2.1993 H   0  0  0  0  0  0  0  0  0  0  0  0
    0.0213    1.6129    0.3802 H   0  0  0  0  0  0  0  0  0  0  0  0
   -2.3193    0.9208    0.5518 H   0  0  0  0  0  0  0  0  0  0  0  0
    1.6294    0.2385   -1.0434 N   0  0  0  0  0  0  0  0  0  0  0  0
    2.7088    0.8486   -0.8192 N   0  0  0  0  0  0  0  0  0  0  0  0
   -3.3197   -1.3611   -0.5474 O   0  0  0  0  0  0  0  0  0  0  0  0
   -4.2737   -0.6810    0.2621 C   0  0  0  0  0  0  0  0  0  0  0  0
   -5.1933   -1.2625    0.1895 H   0  0  0  0  0  0  0  0  0  0  0  0
   -4.4570    0.3357   -0.1050 H   0  0  0  0  0  0  0  0  0  0  0  0
   -3.9503   -0.6368    1.3086 H   0  0  0  0  0  0  0  0  0  0  0  0
    2.5445    1.5197    0.4946 O   0  0  0  0  0  0  0  0  0  0  0  0
    3.4426    1.8518    0.6352 H   0  0  0  0  0  0  0  0  0  0  0  0
  1  6  1  0  0  0  0
  2  1  2  0  0  0  0
  2  3  1  0  0  0  0
  3  4  2  0  0  0  0
  4  5  1  0  0  0  0
  4  9  1  0  0  0  0
  5 10  1  0  0  0  0
  6 13  1  0  0  0  0
  6  5  2  0  0  0  0
  7  1  1  0  0  0  0
  8  2  1  0  0  0  0
 11  3  1  0  0  0  0
 11 12  1  0  0  0  0
 12 18  1  0  0  0  0
 13 14  1  0  0  0  0
 14 17  1  0  0  0  0
 15 14  1  0  0  0  0
 16 14  1  0  0  0  0
 18 19  1  0  0  0  0
M  RAD  2  11   2  12   2
M  END
