Coordinates from ORCA-job 4-MeO-Ph-N2-OH-B3LYPG-6-31G_dp-MTMO-d009-169-n800
 OpenBabel09051907473D

 19 18  0  0  0  0  0  0  0  0999 V2000
   -1.5927   -2.6150   -0.2196 C   0  0  0  0  0  0  0  0  0  0  0  0
   -0.2453   -2.4013   -0.4719 C   0  0  0  0  0  0  0  0  0  0  0  0
    0.2371   -1.0989   -0.6610 C   0  0  0  0  0  0  0  0  0  0  0  0
   -0.6492   -0.0256   -0.5942 C   0  0  0  0  0  0  0  0  0  0  0  0
   -2.0099   -0.2379   -0.3399 C   0  0  0  0  0  0  0  0  0  0  0  0
   -2.4884   -1.5364   -0.1509 C   0  0  0  0  0  0  0  0  0  0  0  0
   -1.9796   -3.6179   -0.0702 H   0  0  0  0  0  0  0  0  0  0  0  0
    0.4506   -3.2319   -0.5268 H   0  0  0  0  0  0  0  0  0  0  0  0
   -0.2865    0.9900   -0.7411 H   0  0  0  0  0  0  0  0  0  0  0  0
   -2.6738    0.6173   -0.2950 H   0  0  0  0  0  0  0  0  0  0  0  0
    6.2575    6.8843   -1.1623 N   0  0  0  0  0  0  0  0  0  0  0  0
    6.9956    7.7070   -1.1500 N   0  0  0  0  0  0  0  0  0  0  0  0
   -3.7951   -1.8622    0.1032 O   0  0  0  0  0  0  0  0  0  0  0  0
   -4.7374   -0.8091    0.1791 C   0  0  0  0  0  0  0  0  0  0  0  0
   -5.7014   -1.2772    0.3852 H   0  0  0  0  0  0  0  0  0  0  0  0
   -4.8040   -0.2522   -0.7658 H   0  0  0  0  0  0  0  0  0  0  0  0
   -4.4995   -0.1060    0.9889 H   0  0  0  0  0  0  0  0  0  0  0  0
    1.5785   -0.9509   -0.9058 O   0  0  0  0  0  0  0  0  0  0  0  0
    1.7755   -0.0117   -1.0122 H   0  0  0  0  0  0  0  0  0  0  0  0
  1  6  1  0  0  0  0
  1  7  1  0  0  0  0
  2  1  2  0  0  0  0
  3  4  2  0  0  0  0
  3  2  1  0  0  0  0
  4  5  1  0  0  0  0
  5 10  1  0  0  0  0
  5  6  2  0  0  0  0
  6 13  1  0  0  0  0
  8  2  1  0  0  0  0
  9  4  1  0  0  0  0
 11 12  3  0  0  0  0
 13 14  1  0  0  0  0
 14 15  1  0  0  0  0
 14 17  1  0  0  0  0
 16 14  1  0  0  0  0
 18  3  1  0  0  0  0
 19 18  1  0  0  0  0
M  END
