Coordinates from ORCA-job 4-MeO-Ph-N2-OH-B3LYPG-6-31G_dp-MTMO-d009-169-n800
 OpenBabel09051907463D

 19 18  0  0  0  0  0  0  0  0999 V2000
   -0.9167   -1.8844   -0.7780 C   0  0  0  0  0  0  0  0  0  0  0  0
    0.4304   -1.5843   -0.6357 C   0  0  0  0  0  0  0  0  0  0  0  0
    0.8253   -0.3543   -0.0912 C   0  0  0  0  0  0  0  0  0  0  0  0
   -0.1491    0.5611    0.3054 C   0  0  0  0  0  0  0  0  0  0  0  0
   -1.5098    0.2633    0.1583 C   0  0  0  0  0  0  0  0  0  0  0  0
   -1.9000   -0.9634   -0.3839 C   0  0  0  0  0  0  0  0  0  0  0  0
   -1.2356   -2.8333   -1.1966 H   0  0  0  0  0  0  0  0  0  0  0  0
    1.1944   -2.2918   -0.9409 H   0  0  0  0  0  0  0  0  0  0  0  0
    0.1441    1.5159    0.7355 H   0  0  0  0  0  0  0  0  0  0  0  0
   -2.2436    0.9950    0.4740 H   0  0  0  0  0  0  0  0  0  0  0  0
    1.9113    2.2703   -1.6561 N   0  0  0  0  0  0  0  0  0  0  0  0
    1.7680    2.3872   -2.7455 N   0  0  0  0  0  0  0  0  0  0  0  0
   -3.1982   -1.3611   -0.5712 O   0  0  0  0  0  0  0  0  0  0  0  0
   -4.2270   -0.4712   -0.1782 C   0  0  0  0  0  0  0  0  0  0  0  0
   -5.1681   -0.9764   -0.4032 H   0  0  0  0  0  0  0  0  0  0  0  0
   -4.1854    0.4733   -0.7369 H   0  0  0  0  0  0  0  0  0  0  0  0
   -4.1860   -0.2501    0.8971 H   0  0  0  0  0  0  0  0  0  0  0  0
    2.1709   -0.1244    0.0349 O   0  0  0  0  0  0  0  0  0  0  0  0
    2.3071    0.7932    0.3020 H   0  0  0  0  0  0  0  0  0  0  0  0
  1  2  2  0  0  0  0
  1  6  1  0  0  0  0
  2  3  1  0  0  0  0
  3 18  1  0  0  0  0
  3  4  2  0  0  0  0
  4  9  1  0  0  0  0
  5  4  1  0  0  0  0
  5 10  1  0  0  0  0
  6  5  2  0  0  0  0
  7  1  1  0  0  0  0
  8  2  1  0  0  0  0
 12 11  3  0  0  0  0
 13  6  1  0  0  0  0
 13 14  1  0  0  0  0
 14 17  1  0  0  0  0
 15 14  1  0  0  0  0
 16 14  1  0  0  0  0
 18 19  1  0  0  0  0
M  END
