Coordinates from ORCA-job 4-MeO-Ph-N2-OH-B3LYPG-6-31G_dp-MTMO-d009-169-n800
 OpenBabel09051907463D

 19 18  0  0  0  0  0  0  0  0999 V2000
   -0.8282   -1.7067   -0.9253 C   0  0  0  0  0  0  0  0  0  0  0  0
    0.5092   -1.4084   -0.7061 C   0  0  0  0  0  0  0  0  0  0  0  0
    0.8668   -0.2569    0.0088 C   0  0  0  0  0  0  0  0  0  0  0  0
   -0.1345    0.5797    0.5003 C   0  0  0  0  0  0  0  0  0  0  0  0
   -1.4851    0.2840    0.2777 C   0  0  0  0  0  0  0  0  0  0  0  0
   -1.8384   -0.8633   -0.4369 C   0  0  0  0  0  0  0  0  0  0  0  0
   -1.1186   -2.5948   -1.4770 H   0  0  0  0  0  0  0  0  0  0  0  0
    1.2936   -2.0564   -1.0825 H   0  0  0  0  0  0  0  0  0  0  0  0
    0.1306    1.4743    1.0597 H   0  0  0  0  0  0  0  0  0  0  0  0
   -2.2401    0.9553    0.6685 H   0  0  0  0  0  0  0  0  0  0  0  0
    1.5288    1.7713   -1.8693 N   0  0  0  0  0  0  0  0  0  0  0  0
    1.3398    1.5711   -2.9400 N   0  0  0  0  0  0  0  0  0  0  0  0
   -3.1235   -1.2506   -0.7128 O   0  0  0  0  0  0  0  0  0  0  0  0
   -4.1786   -0.4383   -0.2315 C   0  0  0  0  0  0  0  0  0  0  0  0
   -5.1036   -0.9204   -0.5519 H   0  0  0  0  0  0  0  0  0  0  0  0
   -4.1383    0.5749   -0.6533 H   0  0  0  0  0  0  0  0  0  0  0  0
   -4.1706   -0.3674    0.8649 H   0  0  0  0  0  0  0  0  0  0  0  0
    2.2038   -0.0317    0.2091 O   0  0  0  0  0  0  0  0  0  0  0  0
    2.3190    0.8489    0.5875 H   0  0  0  0  0  0  0  0  0  0  0  0
  1  2  2  0  0  0  0
  1  6  1  0  0  0  0
  2  3  1  0  0  0  0
  3 18  1  0  0  0  0
  3  4  2  0  0  0  0
  4  9  1  0  0  0  0
  5  4  1  0  0  0  0
  5 10  1  0  0  0  0
  6  5  2  0  0  0  0
  7  1  1  0  0  0  0
  8  2  1  0  0  0  0
 12 11  3  0  0  0  0
 13  6  1  0  0  0  0
 13 14  1  0  0  0  0
 14 17  1  0  0  0  0
 15 14  1  0  0  0  0
 16 14  1  0  0  0  0
 18 19  1  0  0  0  0
M  END
