Coordinates from ORCA-job 4-MeO-Ph-N2-OH-B3LYPG-6-31G_dp-MTMO-d009-169-n800
 OpenBabel09051907473D

 19 18  0  0  0  0  0  0  0  0999 V2000
   -1.6757   -2.6964   -0.2137 C   0  0  0  0  0  0  0  0  0  0  0  0
   -0.3279   -2.4843   -0.4649 C   0  0  0  0  0  0  0  0  0  0  0  0
    0.1566   -1.1823   -0.6514 C   0  0  0  0  0  0  0  0  0  0  0  0
   -0.7281   -0.1078   -0.5832 C   0  0  0  0  0  0  0  0  0  0  0  0
   -2.0893   -0.3186   -0.3301 C   0  0  0  0  0  0  0  0  0  0  0  0
   -2.5698   -1.6167   -0.1436 C   0  0  0  0  0  0  0  0  0  0  0  0
   -2.0641   -3.6990   -0.0663 H   0  0  0  0  0  0  0  0  0  0  0  0
    0.3668   -3.3158   -0.5208 H   0  0  0  0  0  0  0  0  0  0  0  0
   -0.3639    0.9075   -0.7282 H   0  0  0  0  0  0  0  0  0  0  0  0
   -2.7521    0.5375   -0.2841 H   0  0  0  0  0  0  0  0  0  0  0  0
    6.9403    7.5753   -1.2305 N   0  0  0  0  0  0  0  0  0  0  0  0
    7.6848    8.3922   -1.2262 N   0  0  0  0  0  0  0  0  0  0  0  0
   -3.8772   -1.9410    0.1092 O   0  0  0  0  0  0  0  0  0  0  0  0
   -4.8180   -0.8866    0.1865 C   0  0  0  0  0  0  0  0  0  0  0  0
   -5.7828   -1.3537    0.3913 H   0  0  0  0  0  0  0  0  0  0  0  0
   -4.8833   -0.3281   -0.7576 H   0  0  0  0  0  0  0  0  0  0  0  0
   -4.5794   -0.1853    0.9976 H   0  0  0  0  0  0  0  0  0  0  0  0
    1.4984   -1.0358   -0.8951 O   0  0  0  0  0  0  0  0  0  0  0  0
    1.6969   -0.0967   -0.9993 H   0  0  0  0  0  0  0  0  0  0  0  0
  1  6  1  0  0  0  0
  1  7  1  0  0  0  0
  2  1  2  0  0  0  0
  3  4  2  0  0  0  0
  3  2  1  0  0  0  0
  4  5  1  0  0  0  0
  5 10  1  0  0  0  0
  5  6  2  0  0  0  0
  6 13  1  0  0  0  0
  8  2  1  0  0  0  0
  9  4  1  0  0  0  0
 11 12  3  0  0  0  0
 13 14  1  0  0  0  0
 14 15  1  0  0  0  0
 14 17  1  0  0  0  0
 16 14  1  0  0  0  0
 18  3  1  0  0  0  0
 19 18  1  0  0  0  0
M  END
