Coordinates from ORCA-job 4-MeO-Ph-N2-OH-B3LYPG-6-31G_dp-MTMO-d009-169-n800
 OpenBabel09051907473D

 19 18  0  0  0  0  0  0  0  0999 V2000
   -1.4496   -2.4770   -0.2266 C   0  0  0  0  0  0  0  0  0  0  0  0
   -0.1045   -2.2527   -0.4818 C   0  0  0  0  0  0  0  0  0  0  0  0
    0.3663   -0.9469   -0.6776 C   0  0  0  0  0  0  0  0  0  0  0  0
   -0.5294    0.1188   -0.6144 C   0  0  0  0  0  0  0  0  0  0  0  0
   -1.8878   -0.1043   -0.3573 C   0  0  0  0  0  0  0  0  0  0  0  0
   -2.3546   -1.4061   -0.1617 C   0  0  0  0  0  0  0  0  0  0  0  0
   -1.8273   -3.4826   -0.0719 H   0  0  0  0  0  0  0  0  0  0  0  0
    0.5987   -3.0773   -0.5337 H   0  0  0  0  0  0  0  0  0  0  0  0
   -0.1759    1.1369   -0.7666 H   0  0  0  0  0  0  0  0  0  0  0  0
   -2.5592    0.7452   -0.3152 H   0  0  0  0  0  0  0  0  0  0  0  0
    5.1705    5.7233   -1.0603 N   0  0  0  0  0  0  0  0  0  0  0  0
    5.8805    6.5693   -1.0165 N   0  0  0  0  0  0  0  0  0  0  0  0
   -3.6581   -1.7422    0.0957 O   0  0  0  0  0  0  0  0  0  0  0  0
   -4.6097   -0.6972    0.1676 C   0  0  0  0  0  0  0  0  0  0  0  0
   -5.5693   -1.1729    0.3763 H   0  0  0  0  0  0  0  0  0  0  0  0
   -4.6817   -0.1450   -0.7797 H   0  0  0  0  0  0  0  0  0  0  0  0
   -4.3774    0.0115    0.9742 H   0  0  0  0  0  0  0  0  0  0  0  0
    1.7059   -0.7882   -0.9249 O   0  0  0  0  0  0  0  0  0  0  0  0
    1.8945    0.1522   -1.0359 H   0  0  0  0  0  0  0  0  0  0  0  0
  1  6  1  0  0  0  0
  1  7  1  0  0  0  0
  2  1  2  0  0  0  0
  3  4  2  0  0  0  0
  3  2  1  0  0  0  0
  4  5  1  0  0  0  0
  5 10  1  0  0  0  0
  5  6  2  0  0  0  0
  6 13  1  0  0  0  0
  8  2  1  0  0  0  0
  9  4  1  0  0  0  0
 11 12  3  0  0  0  0
 13 14  1  0  0  0  0
 14 15  1  0  0  0  0
 14 17  1  0  0  0  0
 16 14  1  0  0  0  0
 18  3  1  0  0  0  0
 19 18  1  0  0  0  0
M  END
