Coordinates from ORCA-job 4-MeO-Ph-N2-OH-B3LYPG-6-31G_dp-MTMO-d009-169-n800
 OpenBabel09051907463D

 19 19  0  0  0  0  0  0  0  0999 V2000
   -1.1949   -1.6463   -1.4740 C   0  0  0  0  0  0  0  0  0  0  0  0
    0.1260   -1.3061   -1.5943 C   0  0  0  0  0  0  0  0  0  0  0  0
    0.7903   -0.1720   -0.8860 C   0  0  0  0  0  0  0  0  0  0  0  0
   -0.1973    0.5577   -0.0267 C   0  0  0  0  0  0  0  0  0  0  0  0
   -1.5287    0.2120    0.0789 C   0  0  0  0  0  0  0  0  0  0  0  0
   -2.0412   -0.8891   -0.6343 C   0  0  0  0  0  0  0  0  0  0  0  0
   -1.6259   -2.4883   -2.0077 H   0  0  0  0  0  0  0  0  0  0  0  0
    0.7827   -1.8869   -2.2400 H   0  0  0  0  0  0  0  0  0  0  0  0
    0.1718    1.4099    0.5316 H   0  0  0  0  0  0  0  0  0  0  0  0
   -2.1804    0.7978    0.7185 H   0  0  0  0  0  0  0  0  0  0  0  0
    1.7435    0.0243   -1.0016 N   0  0  0  0  0  0  0  0  0  0  0  0
    2.7140    0.7530   -0.6774 N   0  0  0  0  0  0  0  0  0  0  0  0
   -3.3251   -1.3012   -0.5842 O   0  0  0  0  0  0  0  0  0  0  0  0
   -4.2494   -0.6005    0.2434 C   0  0  0  0  0  0  0  0  0  0  0  0
   -5.2024   -1.1172    0.1270 H   0  0  0  0  0  0  0  0  0  0  0  0
   -4.3592    0.4424   -0.0756 H   0  0  0  0  0  0  0  0  0  0  0  0
   -3.9441   -0.6300    1.2959 H   0  0  0  0  0  0  0  0  0  0  0  0
    2.2586    1.7717    0.3173 O   0  0  0  0  0  0  0  0  0  0  0  0
    3.0939    2.2330    0.4790 H   0  0  0  0  0  0  0  0  0  0  0  0
  1  6  1  0  0  0  0
  2  1  2  0  0  0  0
  2  3  1  0  0  0  0
  3  4  2  0  0  0  0
  4  5  1  0  0  0  0
  4  9  1  0  0  0  0
  5 10  1  0  0  0  0
  6 13  1  0  0  0  0
  6  5  2  0  0  0  0
  7  1  1  0  0  0  0
  8  2  1  0  0  0  0
 11  3  1  0  0  0  0
 11 12  1  0  0  0  0
 12 18  1  0  0  0  0
 13 14  1  0  0  0  0
 14 17  1  0  0  0  0
 15 14  1  0  0  0  0
 16 14  1  0  0  0  0
 18 19  1  0  0  0  0
M  RAD  2  11   2  12   2
M  END
