Coordinates from ORCA-job 4-MeO-Ph-N2-OH-B3LYPG-6-31G_dp-MTMO-d009-169-n800
 OpenBabel09051907473D

 19 18  0  0  0  0  0  0  0  0999 V2000
   -1.9306   -2.9479   -0.1910 C   0  0  0  0  0  0  0  0  0  0  0  0
   -0.5821   -2.7381   -0.4408 C   0  0  0  0  0  0  0  0  0  0  0  0
   -0.0947   -1.4367   -0.6241 C   0  0  0  0  0  0  0  0  0  0  0  0
   -0.9772   -0.3605   -0.5541 C   0  0  0  0  0  0  0  0  0  0  0  0
   -2.3391   -0.5689   -0.3025 C   0  0  0  0  0  0  0  0  0  0  0  0
   -2.8224   -1.8665   -0.1192 C   0  0  0  0  0  0  0  0  0  0  0  0
   -2.3212   -3.9500   -0.0461 H   0  0  0  0  0  0  0  0  0  0  0  0
    0.1109   -3.5710   -0.4981 H   0  0  0  0  0  0  0  0  0  0  0  0
   -0.6107    0.6544   -0.6966 H   0  0  0  0  0  0  0  0  0  0  0  0
   -3.0000    0.2885   -0.2551 H   0  0  0  0  0  0  0  0  0  0  0  0
    9.0758    9.7091   -1.4466 N   0  0  0  0  0  0  0  0  0  0  0  0
    9.8252   10.5215   -1.4513 N   0  0  0  0  0  0  0  0  0  0  0  0
   -4.1306   -2.1885    0.1321 O   0  0  0  0  0  0  0  0  0  0  0  0
   -5.0692   -1.1323    0.2111 C   0  0  0  0  0  0  0  0  0  0  0  0
   -6.0351   -1.5977    0.4145 H   0  0  0  0  0  0  0  0  0  0  0  0
   -5.1329   -0.5716   -0.7318 H   0  0  0  0  0  0  0  0  0  0  0  0
   -4.8295   -0.4331    1.0238 H   0  0  0  0  0  0  0  0  0  0  0  0
    1.2475   -1.2926   -0.8664 O   0  0  0  0  0  0  0  0  0  0  0  0
    1.4482   -0.3536   -0.9681 H   0  0  0  0  0  0  0  0  0  0  0  0
  1  6  1  0  0  0  0
  1  7  1  0  0  0  0
  2  1  2  0  0  0  0
  3  4  2  0  0  0  0
  3  2  1  0  0  0  0
  4  5  1  0  0  0  0
  5 10  1  0  0  0  0
  5  6  2  0  0  0  0
  6 13  1  0  0  0  0
  8  2  1  0  0  0  0
  9  4  1  0  0  0  0
 12 11  3  0  0  0  0
 13 14  1  0  0  0  0
 14 15  1  0  0  0  0
 14 17  1  0  0  0  0
 16 14  1  0  0  0  0
 18  3  1  0  0  0  0
 19 18  1  0  0  0  0
M  END
