Coordinates from ORCA-job 4-MeO-Ph-N2-OH-B3LYPG-6-31G_dp-MTMO-d009-169-n800
 OpenBabel09051907473D

 19 18  0  0  0  0  0  0  0  0999 V2000
   -1.9985   -3.0150   -0.1840 C   0  0  0  0  0  0  0  0  0  0  0  0
   -0.6499   -2.8057   -0.4339 C   0  0  0  0  0  0  0  0  0  0  0  0
   -0.1621   -1.5045   -0.6174 C   0  0  0  0  0  0  0  0  0  0  0  0
   -1.0442   -0.4280   -0.5475 C   0  0  0  0  0  0  0  0  0  0  0  0
   -2.4061   -0.6359   -0.2958 C   0  0  0  0  0  0  0  0  0  0  0  0
   -2.8899   -1.9332   -0.1123 C   0  0  0  0  0  0  0  0  0  0  0  0
   -2.3895   -4.0170   -0.0390 H   0  0  0  0  0  0  0  0  0  0  0  0
    0.0428   -3.6389   -0.4911 H   0  0  0  0  0  0  0  0  0  0  0  0
   -0.6773    0.5867   -0.6901 H   0  0  0  0  0  0  0  0  0  0  0  0
   -3.0667    0.2217   -0.2484 H   0  0  0  0  0  0  0  0  0  0  0  0
    9.6478   10.2790   -1.5040 N   0  0  0  0  0  0  0  0  0  0  0  0
   10.3975   11.0911   -1.5100 N   0  0  0  0  0  0  0  0  0  0  0  0
   -4.1982   -2.2547    0.1391 O   0  0  0  0  0  0  0  0  0  0  0  0
   -5.1364   -1.1982    0.2181 C   0  0  0  0  0  0  0  0  0  0  0  0
   -6.1024   -1.6632    0.4217 H   0  0  0  0  0  0  0  0  0  0  0  0
   -5.1999   -0.6376   -0.7248 H   0  0  0  0  0  0  0  0  0  0  0  0
   -4.8963   -0.4990    1.0307 H   0  0  0  0  0  0  0  0  0  0  0  0
    1.1803   -1.3610   -0.8598 O   0  0  0  0  0  0  0  0  0  0  0  0
    1.3812   -0.4221   -0.9617 H   0  0  0  0  0  0  0  0  0  0  0  0
  1  6  1  0  0  0  0
  1  7  1  0  0  0  0
  2  1  2  0  0  0  0
  3  4  2  0  0  0  0
  3  2  1  0  0  0  0
  4  5  1  0  0  0  0
  5 10  1  0  0  0  0
  5  6  2  0  0  0  0
  6 13  1  0  0  0  0
  8  2  1  0  0  0  0
  9  4  1  0  0  0  0
 12 11  3  0  0  0  0
 13 14  1  0  0  0  0
 14 15  1  0  0  0  0
 14 17  1  0  0  0  0
 16 14  1  0  0  0  0
 18  3  1  0  0  0  0
 19 18  1  0  0  0  0
M  END
