Coordinates from ORCA-job 4-MeO-Ph-N2-OH-B3LYPG-6-31G_dp-MTMO-d009-169-n800
 OpenBabel09051907473D

 19 18  0  0  0  0  0  0  0  0999 V2000
   -1.6405   -2.6618   -0.2163 C   0  0  0  0  0  0  0  0  0  0  0  0
   -0.2928   -2.4492   -0.4679 C   0  0  0  0  0  0  0  0  0  0  0  0
    0.1909   -1.1470   -0.6555 C   0  0  0  0  0  0  0  0  0  0  0  0
   -0.6943   -0.0729   -0.5878 C   0  0  0  0  0  0  0  0  0  0  0  0
   -2.0554   -0.2842   -0.3343 C   0  0  0  0  0  0  0  0  0  0  0  0
   -2.5351   -1.5825   -0.1467 C   0  0  0  0  0  0  0  0  0  0  0  0
   -2.0283   -3.6645   -0.0681 H   0  0  0  0  0  0  0  0  0  0  0  0
    0.4023   -3.2803   -0.5234 H   0  0  0  0  0  0  0  0  0  0  0  0
   -0.3306    0.9425   -0.7336 H   0  0  0  0  0  0  0  0  0  0  0  0
   -2.7185    0.5715   -0.2886 H   0  0  0  0  0  0  0  0  0  0  0  0
    6.6488    7.2816   -1.2012 N   0  0  0  0  0  0  0  0  0  0  0  0
    7.3912    8.1004   -1.1941 N   0  0  0  0  0  0  0  0  0  0  0  0
   -3.8423   -1.9073    0.1066 O   0  0  0  0  0  0  0  0  0  0  0  0
   -4.7836   -0.8533    0.1833 C   0  0  0  0  0  0  0  0  0  0  0  0
   -5.7481   -1.3208    0.3886 H   0  0  0  0  0  0  0  0  0  0  0  0
   -4.8494   -0.2955   -0.7611 H   0  0  0  0  0  0  0  0  0  0  0  0
   -4.5452   -0.1513    0.9939 H   0  0  0  0  0  0  0  0  0  0  0  0
    1.5326   -1.0000   -0.8996 O   0  0  0  0  0  0  0  0  0  0  0  0
    1.7305   -0.0609   -1.0047 H   0  0  0  0  0  0  0  0  0  0  0  0
  1  6  1  0  0  0  0
  1  7  1  0  0  0  0
  2  1  2  0  0  0  0
  3  4  2  0  0  0  0
  3  2  1  0  0  0  0
  4  5  1  0  0  0  0
  5 10  1  0  0  0  0
  5  6  2  0  0  0  0
  6 13  1  0  0  0  0
  8  2  1  0  0  0  0
  9  4  1  0  0  0  0
 11 12  3  0  0  0  0
 13 14  1  0  0  0  0
 14 15  1  0  0  0  0
 14 17  1  0  0  0  0
 16 14  1  0  0  0  0
 18  3  1  0  0  0  0
 19 18  1  0  0  0  0
M  END
