Coordinates from ORCA-job 4-MeO-Ph-N2-OH-B3LYPG-6-31G_dp-MTMO-d009-169-n800
 OpenBabel09051907473D

 19 18  0  0  0  0  0  0  0  0999 V2000
   -1.1224   -2.1672   -0.2540 C   0  0  0  0  0  0  0  0  0  0  0  0
    0.1870   -1.7666   -0.4777 C   0  0  0  0  0  0  0  0  0  0  0  0
    0.4897   -0.4073   -0.6378 C   0  0  0  0  0  0  0  0  0  0  0  0
   -0.5364    0.5334   -0.5716 C   0  0  0  0  0  0  0  0  0  0  0  0
   -1.8593    0.1323   -0.3456 C   0  0  0  0  0  0  0  0  0  0  0  0
   -2.1581   -1.2225   -0.1852 C   0  0  0  0  0  0  0  0  0  0  0  0
   -1.3703   -3.2162   -0.1264 H   0  0  0  0  0  0  0  0  0  0  0  0
    0.9915   -2.4928   -0.5317 H   0  0  0  0  0  0  0  0  0  0  0  0
   -0.3141    1.5915   -0.6974 H   0  0  0  0  0  0  0  0  0  0  0  0
   -2.6351    0.8871   -0.2989 H   0  0  0  0  0  0  0  0  0  0  0  0
    3.9577    3.5345   -1.0381 N   0  0  0  0  0  0  0  0  0  0  0  0
    4.7912    4.2601   -1.0317 N   0  0  0  0  0  0  0  0  0  0  0  0
   -3.4121   -1.7282    0.0404 O   0  0  0  0  0  0  0  0  0  0  0  0
   -4.4906   -0.8153    0.1158 C   0  0  0  0  0  0  0  0  0  0  0  0
   -5.3852   -1.4147    0.2932 H   0  0  0  0  0  0  0  0  0  0  0  0
   -4.6160   -0.2527   -0.8197 H   0  0  0  0  0  0  0  0  0  0  0  0
   -4.3656   -0.1032    0.9431 H   0  0  0  0  0  0  0  0  0  0  0  0
    1.8021   -0.0739   -0.8540 O   0  0  0  0  0  0  0  0  0  0  0  0
    1.8781    0.8859   -0.9328 H   0  0  0  0  0  0  0  0  0  0  0  0
  1  6  1  0  0  0  0
  1  7  1  0  0  0  0
  2  1  2  0  0  0  0
  3  4  2  0  0  0  0
  3  2  1  0  0  0  0
  4  5  1  0  0  0  0
  5 10  1  0  0  0  0
  5  6  2  0  0  0  0
  6 13  1  0  0  0  0
  8  2  1  0  0  0  0
  9  4  1  0  0  0  0
 11 12  3  0  0  0  0
 13 14  1  0  0  0  0
 14 15  1  0  0  0  0
 14 17  1  0  0  0  0
 16 14  1  0  0  0  0
 18  3  1  0  0  0  0
 19 18  1  0  0  0  0
M  END
