Coordinates from ORCA-job 4-MeO-Ph-N2-OH-B3LYPG-6-31G_dp-MTMO-d009-169-n800
 OpenBabel09051907473D

 19 18  0  0  0  0  0  0  0  0999 V2000
   -1.1376   -2.1790   -0.2523 C   0  0  0  0  0  0  0  0  0  0  0  0
    0.1719   -1.7785   -0.4758 C   0  0  0  0  0  0  0  0  0  0  0  0
    0.4748   -0.4192   -0.6357 C   0  0  0  0  0  0  0  0  0  0  0  0
   -0.5513    0.5216   -0.5696 C   0  0  0  0  0  0  0  0  0  0  0  0
   -1.8742    0.1206   -0.3438 C   0  0  0  0  0  0  0  0  0  0  0  0
   -2.1732   -1.2342   -0.1835 C   0  0  0  0  0  0  0  0  0  0  0  0
   -1.3857   -3.2280   -0.1248 H   0  0  0  0  0  0  0  0  0  0  0  0
    0.9763   -2.5048   -0.5298 H   0  0  0  0  0  0  0  0  0  0  0  0
   -0.3289    1.5797   -0.6952 H   0  0  0  0  0  0  0  0  0  0  0  0
   -2.6499    0.8755   -0.2970 H   0  0  0  0  0  0  0  0  0  0  0  0
    4.0812    3.6396   -1.0546 N   0  0  0  0  0  0  0  0  0  0  0  0
    4.9247    4.3535   -1.0476 N   0  0  0  0  0  0  0  0  0  0  0  0
   -3.4273   -1.7397    0.0419 O   0  0  0  0  0  0  0  0  0  0  0  0
   -4.5057   -0.8267    0.1176 C   0  0  0  0  0  0  0  0  0  0  0  0
   -5.4003   -1.4260    0.2949 H   0  0  0  0  0  0  0  0  0  0  0  0
   -4.6310   -0.2639   -0.8179 H   0  0  0  0  0  0  0  0  0  0  0  0
   -4.3805   -0.1147    0.9450 H   0  0  0  0  0  0  0  0  0  0  0  0
    1.7872   -0.0857   -0.8516 O   0  0  0  0  0  0  0  0  0  0  0  0
    1.8618    0.8742   -0.9303 H   0  0  0  0  0  0  0  0  0  0  0  0
  1  6  1  0  0  0  0
  1  7  1  0  0  0  0
  2  1  2  0  0  0  0
  3  4  2  0  0  0  0
  3  2  1  0  0  0  0
  4  5  1  0  0  0  0
  5 10  1  0  0  0  0
  5  6  2  0  0  0  0
  6 13  1  0  0  0  0
  8  2  1  0  0  0  0
  9  4  1  0  0  0  0
 11 12  3  0  0  0  0
 13 14  1  0  0  0  0
 14 15  1  0  0  0  0
 14 17  1  0  0  0  0
 16 14  1  0  0  0  0
 18  3  1  0  0  0  0
 19 18  1  0  0  0  0
M  END
