Coordinates from ORCA-job 4-MeO-Ph-N2-OH-B3LYPG-6-31G_dp-MTMO-d009-169-n800
 OpenBabel09051907473D

 19 18  0  0  0  0  0  0  0  0999 V2000
   -2.0196   -3.0359   -0.1818 C   0  0  0  0  0  0  0  0  0  0  0  0
   -0.6710   -2.8268   -0.4318 C   0  0  0  0  0  0  0  0  0  0  0  0
   -0.1830   -1.5256   -0.6153 C   0  0  0  0  0  0  0  0  0  0  0  0
   -1.0650   -0.4490   -0.5455 C   0  0  0  0  0  0  0  0  0  0  0  0
   -2.4269   -0.6567   -0.2937 C   0  0  0  0  0  0  0  0  0  0  0  0
   -2.9109   -1.9540   -0.1101 C   0  0  0  0  0  0  0  0  0  0  0  0
   -2.4107   -4.0378   -0.0367 H   0  0  0  0  0  0  0  0  0  0  0  0
    0.0216   -3.6600   -0.4889 H   0  0  0  0  0  0  0  0  0  0  0  0
   -0.6980    0.5657   -0.6881 H   0  0  0  0  0  0  0  0  0  0  0  0
   -3.0875    0.2010   -0.2464 H   0  0  0  0  0  0  0  0  0  0  0  0
    9.8257   10.4563   -1.5218 N   0  0  0  0  0  0  0  0  0  0  0  0
   10.5756   11.2682   -1.5283 N   0  0  0  0  0  0  0  0  0  0  0  0
   -4.2192   -2.2754    0.1414 O   0  0  0  0  0  0  0  0  0  0  0  0
   -5.1573   -1.2187    0.2203 C   0  0  0  0  0  0  0  0  0  0  0  0
   -6.1234   -1.6836    0.4240 H   0  0  0  0  0  0  0  0  0  0  0  0
   -5.2208   -0.6582   -0.7227 H   0  0  0  0  0  0  0  0  0  0  0  0
   -4.9171   -0.5195    1.0329 H   0  0  0  0  0  0  0  0  0  0  0  0
    1.1593   -1.3822   -0.8578 O   0  0  0  0  0  0  0  0  0  0  0  0
    1.3604   -0.4434   -0.9598 H   0  0  0  0  0  0  0  0  0  0  0  0
  1  6  1  0  0  0  0
  1  7  1  0  0  0  0
  2  1  2  0  0  0  0
  3  4  2  0  0  0  0
  3  2  1  0  0  0  0
  4  5  1  0  0  0  0
  5 10  1  0  0  0  0
  5  6  2  0  0  0  0
  6 13  1  0  0  0  0
  8  2  1  0  0  0  0
  9  4  1  0  0  0  0
 12 11  3  0  0  0  0
 13 14  1  0  0  0  0
 14 15  1  0  0  0  0
 14 17  1  0  0  0  0
 16 14  1  0  0  0  0
 18  3  1  0  0  0  0
 19 18  1  0  0  0  0
M  END
