Coordinates from ORCA-job 4-MeO-Ph-N2-OH-B3LYPG-6-31G_dp-MTMO-d009-169-n800
 OpenBabel09051907473D

 19 18  0  0  0  0  0  0  0  0999 V2000
   -1.6451   -2.6663   -0.2159 C   0  0  0  0  0  0  0  0  0  0  0  0
   -0.2974   -2.4538   -0.4675 C   0  0  0  0  0  0  0  0  0  0  0  0
    0.1865   -1.1516   -0.6549 C   0  0  0  0  0  0  0  0  0  0  0  0
   -0.6987   -0.0775   -0.5872 C   0  0  0  0  0  0  0  0  0  0  0  0
   -2.0598   -0.2887   -0.3337 C   0  0  0  0  0  0  0  0  0  0  0  0
   -2.5397   -1.5870   -0.1463 C   0  0  0  0  0  0  0  0  0  0  0  0
   -2.0330   -3.6690   -0.0678 H   0  0  0  0  0  0  0  0  0  0  0  0
    0.3977   -3.2850   -0.5231 H   0  0  0  0  0  0  0  0  0  0  0  0
   -0.3350    0.9379   -0.7329 H   0  0  0  0  0  0  0  0  0  0  0  0
   -2.7229    0.5671   -0.2880 H   0  0  0  0  0  0  0  0  0  0  0  0
    6.6868    7.3200   -1.2050 N   0  0  0  0  0  0  0  0  0  0  0  0
    7.4295    8.1385   -1.1983 N   0  0  0  0  0  0  0  0  0  0  0  0
   -3.8468   -1.9117    0.1070 O   0  0  0  0  0  0  0  0  0  0  0  0
   -4.7881   -0.8577    0.1837 C   0  0  0  0  0  0  0  0  0  0  0  0
   -5.7526   -1.3250    0.3890 H   0  0  0  0  0  0  0  0  0  0  0  0
   -4.8538   -0.2997   -0.7606 H   0  0  0  0  0  0  0  0  0  0  0  0
   -4.5497   -0.1557    0.9944 H   0  0  0  0  0  0  0  0  0  0  0  0
    1.5281   -1.0047   -0.8990 O   0  0  0  0  0  0  0  0  0  0  0  0
    1.7261   -0.0656   -1.0040 H   0  0  0  0  0  0  0  0  0  0  0  0
  1  6  1  0  0  0  0
  1  7  1  0  0  0  0
  2  1  2  0  0  0  0
  3  4  2  0  0  0  0
  3  2  1  0  0  0  0
  4  5  1  0  0  0  0
  5 10  1  0  0  0  0
  5  6  2  0  0  0  0
  6 13  1  0  0  0  0
  8  2  1  0  0  0  0
  9  4  1  0  0  0  0
 11 12  3  0  0  0  0
 13 14  1  0  0  0  0
 14 15  1  0  0  0  0
 14 17  1  0  0  0  0
 16 14  1  0  0  0  0
 18  3  1  0  0  0  0
 19 18  1  0  0  0  0
M  END
