Coordinates from ORCA-job 4-MeO-Ph-N2-OH-B3LYPG-6-31G_dp-MTMO-d009-169-n800
 OpenBabel09051907463D

 19 18  0  0  0  0  0  0  0  0999 V2000
   -0.8114   -1.6849   -0.9398 C   0  0  0  0  0  0  0  0  0  0  0  0
    0.5246   -1.3893   -0.7091 C   0  0  0  0  0  0  0  0  0  0  0  0
    0.8782   -0.2466    0.0215 C   0  0  0  0  0  0  0  0  0  0  0  0
   -0.1263    0.5801    0.5228 C   0  0  0  0  0  0  0  0  0  0  0  0
   -1.4756    0.2877    0.2887 C   0  0  0  0  0  0  0  0  0  0  0  0
   -1.8247   -0.8488   -0.4451 C   0  0  0  0  0  0  0  0  0  0  0  0
   -1.0985   -2.5655   -1.5051 H   0  0  0  0  0  0  0  0  0  0  0  0
    1.3113   -2.0319   -1.0902 H   0  0  0  0  0  0  0  0  0  0  0  0
    0.1354    1.4661    1.0975 H   0  0  0  0  0  0  0  0  0  0  0  0
   -2.2329    0.9524    0.6861 H   0  0  0  0  0  0  0  0  0  0  0  0
    1.4529    1.6752   -1.8777 N   0  0  0  0  0  0  0  0  0  0  0  0
    1.2078    1.4840   -2.9389 N   0  0  0  0  0  0  0  0  0  0  0  0
   -3.1079   -1.2322   -0.7341 O   0  0  0  0  0  0  0  0  0  0  0  0
   -4.1660   -0.4271   -0.2474 C   0  0  0  0  0  0  0  0  0  0  0  0
   -5.0890   -0.9040   -0.5813 H   0  0  0  0  0  0  0  0  0  0  0  0
   -4.1227    0.5925   -0.6531 H   0  0  0  0  0  0  0  0  0  0  0  0
   -4.1654   -0.3732    0.8500 H   0  0  0  0  0  0  0  0  0  0  0  0
    2.2137   -0.0261    0.2349 O   0  0  0  0  0  0  0  0  0  0  0  0
    2.3286    0.8560    0.6101 H   0  0  0  0  0  0  0  0  0  0  0  0
  1  2  2  0  0  0  0
  1  6  1  0  0  0  0
  2  3  1  0  0  0  0
  3 18  1  0  0  0  0
  3  4  2  0  0  0  0
  4  9  1  0  0  0  0
  5  4  1  0  0  0  0
  5 10  1  0  0  0  0
  6  5  2  0  0  0  0
  7  1  1  0  0  0  0
  8  2  1  0  0  0  0
 12 11  3  0  0  0  0
 13  6  1  0  0  0  0
 13 14  1  0  0  0  0
 14 17  1  0  0  0  0
 15 14  1  0  0  0  0
 16 14  1  0  0  0  0
 18 19  1  0  0  0  0
M  END
