Coordinates from ORCA-job 4-MeO-Ph-N2-OH-B3LYPG-6-31G_dp-MTMO-d009-169-n800
 OpenBabel09051907473D

 19 18  0  0  0  0  0  0  0  0999 V2000
   -1.4087   -2.4390   -0.2263 C   0  0  0  0  0  0  0  0  0  0  0  0
   -0.0653   -2.2067   -0.4830 C   0  0  0  0  0  0  0  0  0  0  0  0
    0.3969   -0.8985   -0.6826 C   0  0  0  0  0  0  0  0  0  0  0  0
   -0.5055    0.1617   -0.6216 C   0  0  0  0  0  0  0  0  0  0  0  0
   -1.8623   -0.0695   -0.3629 C   0  0  0  0  0  0  0  0  0  0  0  0
   -2.3206   -1.3738   -0.1636 C   0  0  0  0  0  0  0  0  0  0  0  0
   -1.7799   -3.4466   -0.0686 H   0  0  0  0  0  0  0  0  0  0  0  0
    0.6431   -3.0269   -0.5333 H   0  0  0  0  0  0  0  0  0  0  0  0
   -0.1586    1.1816   -0.7768 H   0  0  0  0  0  0  0  0  0  0  0  0
   -2.5390    0.7758   -0.3225 H   0  0  0  0  0  0  0  0  0  0  0  0
    4.9132    5.4126   -1.0364 N   0  0  0  0  0  0  0  0  0  0  0  0
    5.6116    6.2674   -0.9800 N   0  0  0  0  0  0  0  0  0  0  0  0
   -3.6217   -1.7175    0.0956 O   0  0  0  0  0  0  0  0  0  0  0  0
   -4.5800   -0.6784    0.1652 C   0  0  0  0  0  0  0  0  0  0  0  0
   -5.5365   -1.1599    0.3753 H   0  0  0  0  0  0  0  0  0  0  0  0
   -4.6559   -0.1291   -0.7834 H   0  0  0  0  0  0  0  0  0  0  0  0
   -4.3521    0.0336    0.9700 H   0  0  0  0  0  0  0  0  0  0  0  0
    1.7354   -0.7318   -0.9313 O   0  0  0  0  0  0  0  0  0  0  0  0
    1.9180    0.2096   -1.0440 H   0  0  0  0  0  0  0  0  0  0  0  0
  1  6  1  0  0  0  0
  1  7  1  0  0  0  0
  2  1  2  0  0  0  0
  3  4  2  0  0  0  0
  3  2  1  0  0  0  0
  4  5  1  0  0  0  0
  5 10  1  0  0  0  0
  5  6  2  0  0  0  0
  6 13  1  0  0  0  0
  8  2  1  0  0  0  0
  9  4  1  0  0  0  0
 11 12  3  0  0  0  0
 13 14  1  0  0  0  0
 14 15  1  0  0  0  0
 14 17  1  0  0  0  0
 16 14  1  0  0  0  0
 18  3  1  0  0  0  0
 19 18  1  0  0  0  0
M  END
