Coordinates from ORCA-job 4-MeO-Ph-N2-OH-B3LYPG-6-31G_dp-MTMO-d009-169-n800
 OpenBabel09051907473D

 19 18  0  0  0  0  0  0  0  0999 V2000
   -2.0060   -3.0225   -0.1833 C   0  0  0  0  0  0  0  0  0  0  0  0
   -0.6575   -2.8133   -0.4331 C   0  0  0  0  0  0  0  0  0  0  0  0
   -0.1695   -1.5120   -0.6166 C   0  0  0  0  0  0  0  0  0  0  0  0
   -1.0516   -0.4355   -0.5468 C   0  0  0  0  0  0  0  0  0  0  0  0
   -2.4135   -0.6433   -0.2951 C   0  0  0  0  0  0  0  0  0  0  0  0
   -2.8974   -1.9406   -0.1115 C   0  0  0  0  0  0  0  0  0  0  0  0
   -2.3970   -4.0244   -0.0382 H   0  0  0  0  0  0  0  0  0  0  0  0
    0.0352   -3.6464   -0.4903 H   0  0  0  0  0  0  0  0  0  0  0  0
   -0.6847    0.5792   -0.6894 H   0  0  0  0  0  0  0  0  0  0  0  0
   -3.0741    0.2143   -0.2477 H   0  0  0  0  0  0  0  0  0  0  0  0
    9.7113   10.3423   -1.5104 N   0  0  0  0  0  0  0  0  0  0  0  0
   10.4611   11.1544   -1.5165 N   0  0  0  0  0  0  0  0  0  0  0  0
   -4.2057   -2.2621    0.1399 O   0  0  0  0  0  0  0  0  0  0  0  0
   -5.1439   -1.2055    0.2189 C   0  0  0  0  0  0  0  0  0  0  0  0
   -6.1099   -1.6705    0.4225 H   0  0  0  0  0  0  0  0  0  0  0  0
   -5.2074   -0.6450   -0.7241 H   0  0  0  0  0  0  0  0  0  0  0  0
   -4.9038   -0.5064    1.0315 H   0  0  0  0  0  0  0  0  0  0  0  0
    1.1728   -1.3685   -0.8591 O   0  0  0  0  0  0  0  0  0  0  0  0
    1.3738   -0.4297   -0.9610 H   0  0  0  0  0  0  0  0  0  0  0  0
  1  6  1  0  0  0  0
  1  7  1  0  0  0  0
  2  1  2  0  0  0  0
  3  4  2  0  0  0  0
  3  2  1  0  0  0  0
  4  5  1  0  0  0  0
  5 10  1  0  0  0  0
  5  6  2  0  0  0  0
  6 13  1  0  0  0  0
  8  2  1  0  0  0  0
  9  4  1  0  0  0  0
 12 11  3  0  0  0  0
 13 14  1  0  0  0  0
 14 15  1  0  0  0  0
 14 17  1  0  0  0  0
 16 14  1  0  0  0  0
 18  3  1  0  0  0  0
 19 18  1  0  0  0  0
M  END
