Coordinates from ORCA-job 4-MeO-Ph-N2-OH-B3LYPG-6-31G_dp-MTMO-d009-169-n800
 OpenBabel09051907473D

 19 18  0  0  0  0  0  0  0  0999 V2000
   -1.9170   -2.9345   -0.1924 C   0  0  0  0  0  0  0  0  0  0  0  0
   -0.5686   -2.7246   -0.4422 C   0  0  0  0  0  0  0  0  0  0  0  0
   -0.0813   -1.4231   -0.6254 C   0  0  0  0  0  0  0  0  0  0  0  0
   -0.9638   -0.3470   -0.5555 C   0  0  0  0  0  0  0  0  0  0  0  0
   -2.3257   -0.5555   -0.3039 C   0  0  0  0  0  0  0  0  0  0  0  0
   -2.8089   -1.8531   -0.1205 C   0  0  0  0  0  0  0  0  0  0  0  0
   -2.3076   -3.9366   -0.0475 H   0  0  0  0  0  0  0  0  0  0  0  0
    0.1245   -3.5574   -0.4994 H   0  0  0  0  0  0  0  0  0  0  0  0
   -0.5974    0.6679   -0.6979 H   0  0  0  0  0  0  0  0  0  0  0  0
   -2.9867    0.3018   -0.2564 H   0  0  0  0  0  0  0  0  0  0  0  0
    8.9614    9.5950   -1.4351 N   0  0  0  0  0  0  0  0  0  0  0  0
    9.7107   10.4076   -1.4395 N   0  0  0  0  0  0  0  0  0  0  0  0
   -4.1171   -2.1752    0.1307 O   0  0  0  0  0  0  0  0  0  0  0  0
   -5.0558   -1.1191    0.2097 C   0  0  0  0  0  0  0  0  0  0  0  0
   -6.0216   -1.5846    0.4131 H   0  0  0  0  0  0  0  0  0  0  0  0
   -5.1195   -0.5585   -0.7332 H   0  0  0  0  0  0  0  0  0  0  0  0
   -4.8161   -0.4199    1.0224 H   0  0  0  0  0  0  0  0  0  0  0  0
    1.2610   -1.2789   -0.8678 O   0  0  0  0  0  0  0  0  0  0  0  0
    1.4616   -0.3399   -0.9695 H   0  0  0  0  0  0  0  0  0  0  0  0
  1  6  1  0  0  0  0
  1  7  1  0  0  0  0
  2  1  2  0  0  0  0
  3  4  2  0  0  0  0
  3  2  1  0  0  0  0
  4  5  1  0  0  0  0
  5 10  1  0  0  0  0
  5  6  2  0  0  0  0
  6 13  1  0  0  0  0
  8  2  1  0  0  0  0
  9  4  1  0  0  0  0
 12 11  3  0  0  0  0
 13 14  1  0  0  0  0
 14 15  1  0  0  0  0
 14 17  1  0  0  0  0
 16 14  1  0  0  0  0
 18  3  1  0  0  0  0
 19 18  1  0  0  0  0
M  END
