Coordinates from ORCA-job 4-MeO-Ph-N2-OH-B3LYPG-6-31G_dp-MTMO-d009-169-n800
 OpenBabel09051907473D

 19 18  0  0  0  0  0  0  0  0999 V2000
   -1.2267   -2.2727   -0.2067 C   0  0  0  0  0  0  0  0  0  0  0  0
    0.1004   -1.9713   -0.4765 C   0  0  0  0  0  0  0  0  0  0  0  0
    0.4874   -0.6442   -0.7089 C   0  0  0  0  0  0  0  0  0  0  0  0
   -0.4730    0.3647   -0.6672 C   0  0  0  0  0  0  0  0  0  0  0  0
   -1.8134    0.0638   -0.3950 C   0  0  0  0  0  0  0  0  0  0  0  0
   -2.1967   -1.2591   -0.1632 C   0  0  0  0  0  0  0  0  0  0  0  0
   -1.5397   -3.2955   -0.0231 H   0  0  0  0  0  0  0  0  0  0  0  0
    0.8538   -2.7513   -0.5116 H   0  0  0  0  0  0  0  0  0  0  0  0
   -0.1847    1.3985   -0.8484 H   0  0  0  0  0  0  0  0  0  0  0  0
   -2.5363    0.8705   -0.3693 H   0  0  0  0  0  0  0  0  0  0  0  0
    4.1045    4.1701   -0.9467 N   0  0  0  0  0  0  0  0  0  0  0  0
    4.7850    5.0334   -0.8319 N   0  0  0  0  0  0  0  0  0  0  0  0
   -3.4754   -1.6692    0.1113 O   0  0  0  0  0  0  0  0  0  0  0  0
   -4.4907   -0.6847    0.1607 C   0  0  0  0  0  0  0  0  0  0  0  0
   -5.4183   -1.2148    0.3833 H   0  0  0  0  0  0  0  0  0  0  0  0
   -4.5988   -0.1610   -0.7992 H   0  0  0  0  0  0  0  0  0  0  0  0
   -4.3027    0.0565    0.9495 H   0  0  0  0  0  0  0  0  0  0  0  0
    1.8131   -0.4086   -0.9687 O   0  0  0  0  0  0  0  0  0  0  0  0
    1.9443    0.5393   -1.0988 H   0  0  0  0  0  0  0  0  0  0  0  0
  1  6  1  0  0  0  0
  1  7  1  0  0  0  0
  2  1  2  0  0  0  0
  3  4  2  0  0  0  0
  3  2  1  0  0  0  0
  4  5  1  0  0  0  0
  5 10  1  0  0  0  0
  5  6  2  0  0  0  0
  6 13  1  0  0  0  0
  8  2  1  0  0  0  0
  9  4  1  0  0  0  0
 11 12  3  0  0  0  0
 13 14  1  0  0  0  0
 14 15  1  0  0  0  0
 14 17  1  0  0  0  0
 16 14  1  0  0  0  0
 18  3  1  0  0  0  0
 19 18  1  0  0  0  0
M  END
