Coordinates from ORCA-job 4-MeO-Ph-N2-OH-B3LYPG-6-31G_dp-MTMO-d009-169-n800
 OpenBabel09051907473D

 19 18  0  0  0  0  0  0  0  0999 V2000
   -1.5974   -2.6195   -0.2193 C   0  0  0  0  0  0  0  0  0  0  0  0
   -0.2500   -2.4060   -0.4715 C   0  0  0  0  0  0  0  0  0  0  0  0
    0.2327   -1.1036   -0.6605 C   0  0  0  0  0  0  0  0  0  0  0  0
   -0.6535   -0.0302   -0.5935 C   0  0  0  0  0  0  0  0  0  0  0  0
   -2.0143   -0.2424   -0.3394 C   0  0  0  0  0  0  0  0  0  0  0  0
   -2.4929   -1.5409   -0.1505 C   0  0  0  0  0  0  0  0  0  0  0  0
   -1.9843   -3.6224   -0.0700 H   0  0  0  0  0  0  0  0  0  0  0  0
    0.4459   -3.2366   -0.5265 H   0  0  0  0  0  0  0  0  0  0  0  0
   -0.2907    0.9854   -0.7404 H   0  0  0  0  0  0  0  0  0  0  0  0
   -2.6781    0.6129   -0.2943 H   0  0  0  0  0  0  0  0  0  0  0  0
    6.2953    6.9229   -1.1660 N   0  0  0  0  0  0  0  0  0  0  0  0
    7.0339    7.7451   -1.1543 N   0  0  0  0  0  0  0  0  0  0  0  0
   -3.7997   -1.8665    0.1036 O   0  0  0  0  0  0  0  0  0  0  0  0
   -4.7419   -0.8133    0.1795 C   0  0  0  0  0  0  0  0  0  0  0  0
   -5.7059   -1.2814    0.3855 H   0  0  0  0  0  0  0  0  0  0  0  0
   -4.8083   -0.2564   -0.7654 H   0  0  0  0  0  0  0  0  0  0  0  0
   -4.5039   -0.1104    0.9894 H   0  0  0  0  0  0  0  0  0  0  0  0
    1.5741   -0.9557   -0.9052 O   0  0  0  0  0  0  0  0  0  0  0  0
    1.7712   -0.0165   -1.0114 H   0  0  0  0  0  0  0  0  0  0  0  0
  1  6  1  0  0  0  0
  1  7  1  0  0  0  0
  2  1  2  0  0  0  0
  3  4  2  0  0  0  0
  3  2  1  0  0  0  0
  4  5  1  0  0  0  0
  5 10  1  0  0  0  0
  5  6  2  0  0  0  0
  6 13  1  0  0  0  0
  8  2  1  0  0  0  0
  9  4  1  0  0  0  0
 11 12  3  0  0  0  0
 13 14  1  0  0  0  0
 14 15  1  0  0  0  0
 14 17  1  0  0  0  0
 16 14  1  0  0  0  0
 18  3  1  0  0  0  0
 19 18  1  0  0  0  0
M  END
