Coordinates from ORCA-job 4-MeO-Ph-N2-OH-B3LYPG-6-31G_dp-MTMO-d009-169-n800
 OpenBabel09051907473D

 19 18  0  0  0  0  0  0  0  0999 V2000
   -1.3012   -2.3411   -0.2165 C   0  0  0  0  0  0  0  0  0  0  0  0
    0.0338   -2.0715   -0.4805 C   0  0  0  0  0  0  0  0  0  0  0  0
    0.4557   -0.7525   -0.6980 C   0  0  0  0  0  0  0  0  0  0  0  0
   -0.4783    0.2805   -0.6475 C   0  0  0  0  0  0  0  0  0  0  0  0
   -1.8266    0.0117   -0.3813 C   0  0  0  0  0  0  0  0  0  0  0  0
   -2.2447   -1.3032   -0.1642 C   0  0  0  0  0  0  0  0  0  0  0  0
   -1.6411   -3.3574   -0.0447 H   0  0  0  0  0  0  0  0  0  0  0  0
    0.7667   -2.8705   -0.5226 H   0  0  0  0  0  0  0  0  0  0  0  0
   -0.1630    1.3084   -0.8170 H   0  0  0  0  0  0  0  0  0  0  0  0
   -2.5284    0.8366   -0.3488 H   0  0  0  0  0  0  0  0  0  0  0  0
    4.4021    4.6635   -0.9808 N   0  0  0  0  0  0  0  0  0  0  0  0
    5.0833    5.5293   -0.8916 N   0  0  0  0  0  0  0  0  0  0  0  0
   -3.5341   -1.6828    0.1034 O   0  0  0  0  0  0  0  0  0  0  0  0
   -4.5235   -0.6726    0.1621 C   0  0  0  0  0  0  0  0  0  0  0  0
   -5.4648   -1.1805    0.3790 H   0  0  0  0  0  0  0  0  0  0  0  0
   -4.6170   -0.1369   -0.7927 H   0  0  0  0  0  0  0  0  0  0  0  0
   -4.3167    0.0554    0.9583 H   0  0  0  0  0  0  0  0  0  0  0  0
    1.7877   -0.5486   -0.9529 O   0  0  0  0  0  0  0  0  0  0  0  0
    1.9424    0.3969   -1.0740 H   0  0  0  0  0  0  0  0  0  0  0  0
  1  6  1  0  0  0  0
  1  7  1  0  0  0  0
  2  1  2  0  0  0  0
  3  4  2  0  0  0  0
  3  2  1  0  0  0  0
  4  5  1  0  0  0  0
  5 10  1  0  0  0  0
  5  6  2  0  0  0  0
  6 13  1  0  0  0  0
  8  2  1  0  0  0  0
  9  4  1  0  0  0  0
 11 12  3  0  0  0  0
 13 14  1  0  0  0  0
 14 15  1  0  0  0  0
 14 17  1  0  0  0  0
 16 14  1  0  0  0  0
 18  3  1  0  0  0  0
 19 18  1  0  0  0  0
M  END
