Coordinates from ORCA-job 4-MeO-Ph-N2-OH-B3LYPG-6-31G_dp-MTMO-d009-169-n800
 OpenBabel09051907473D

 19 18  0  0  0  0  0  0  0  0999 V2000
   -1.2027   -2.2505   -0.2044 C   0  0  0  0  0  0  0  0  0  0  0  0
    0.1224   -1.9416   -0.4760 C   0  0  0  0  0  0  0  0  0  0  0  0
    0.5009   -0.6129   -0.7127 C   0  0  0  0  0  0  0  0  0  0  0  0
   -0.4657    0.3902   -0.6735 C   0  0  0  0  0  0  0  0  0  0  0  0
   -1.8040    0.0818   -0.3994 C   0  0  0  0  0  0  0  0  0  0  0  0
   -2.1789   -1.2428   -0.1633 C   0  0  0  0  0  0  0  0  0  0  0  0
   -1.5092   -3.2747   -0.0176 H   0  0  0  0  0  0  0  0  0  0  0  0
    0.8806   -2.7171   -0.5092 H   0  0  0  0  0  0  0  0  0  0  0  0
   -0.1838    1.4251   -0.8582 H   0  0  0  0  0  0  0  0  0  0  0  0
   -2.5320    0.8840   -0.3756 H   0  0  0  0  0  0  0  0  0  0  0  0
    3.9828    4.0030   -0.9334 N   0  0  0  0  0  0  0  0  0  0  0  0
    4.6580    4.8693   -0.8102 N   0  0  0  0  0  0  0  0  0  0  0  0
   -3.4548   -1.6601    0.1132 O   0  0  0  0  0  0  0  0  0  0  0  0
   -4.4763   -0.6818    0.1602 C   0  0  0  0  0  0  0  0  0  0  0  0
   -5.4005   -1.2171    0.3846 H   0  0  0  0  0  0  0  0  0  0  0  0
   -4.5881   -0.1616   -0.8011 H   0  0  0  0  0  0  0  0  0  0  0  0
   -4.2927    0.0628    0.9467 H   0  0  0  0  0  0  0  0  0  0  0  0
    1.8249   -0.3698   -0.9740 O   0  0  0  0  0  0  0  0  0  0  0  0
    1.9511    0.5785   -1.1062 H   0  0  0  0  0  0  0  0  0  0  0  0
  1  6  1  0  0  0  0
  1  7  1  0  0  0  0
  2  1  2  0  0  0  0
  3  4  2  0  0  0  0
  3  2  1  0  0  0  0
  4  5  1  0  0  0  0
  5 10  1  0  0  0  0
  5  6  2  0  0  0  0
  6 13  1  0  0  0  0
  8  2  1  0  0  0  0
  9  4  1  0  0  0  0
 11 12  3  0  0  0  0
 13 14  1  0  0  0  0
 14 15  1  0  0  0  0
 14 17  1  0  0  0  0
 16 14  1  0  0  0  0
 18  3  1  0  0  0  0
 19 18  1  0  0  0  0
M  END
