Coordinates from ORCA-job 4-MeO-Ph-N2-OH-B3LYPG-6-31G_dp-MTMO-d009-169-n800
 OpenBabel09051907473D

 19 18  0  0  0  0  0  0  0  0999 V2000
   -1.6282   -2.6497   -0.2171 C   0  0  0  0  0  0  0  0  0  0  0  0
   -0.2806   -2.4369   -0.4690 C   0  0  0  0  0  0  0  0  0  0  0  0
    0.2029   -1.1346   -0.6569 C   0  0  0  0  0  0  0  0  0  0  0  0
   -0.6826   -0.0607   -0.5894 C   0  0  0  0  0  0  0  0  0  0  0  0
   -2.0436   -0.2723   -0.3357 C   0  0  0  0  0  0  0  0  0  0  0  0
   -2.5231   -1.5706   -0.1478 C   0  0  0  0  0  0  0  0  0  0  0  0
   -2.0158   -3.6525   -0.0686 H   0  0  0  0  0  0  0  0  0  0  0  0
    0.4147   -3.2679   -0.5243 H   0  0  0  0  0  0  0  0  0  0  0  0
   -0.3192    0.9547   -0.7355 H   0  0  0  0  0  0  0  0  0  0  0  0
   -2.7069    0.5834   -0.2903 H   0  0  0  0  0  0  0  0  0  0  0  0
    6.5476    7.1793   -1.1910 N   0  0  0  0  0  0  0  0  0  0  0  0
    7.2891    7.9989   -1.1828 N   0  0  0  0  0  0  0  0  0  0  0  0
   -3.8301   -1.8956    0.1057 O   0  0  0  0  0  0  0  0  0  0  0  0
   -4.7717   -0.8418    0.1822 C   0  0  0  0  0  0  0  0  0  0  0  0
   -5.7361   -1.3094    0.3877 H   0  0  0  0  0  0  0  0  0  0  0  0
   -4.8376   -0.2842   -0.7623 H   0  0  0  0  0  0  0  0  0  0  0  0
   -4.5334   -0.1396    0.9926 H   0  0  0  0  0  0  0  0  0  0  0  0
    1.5445   -0.9875   -0.9012 O   0  0  0  0  0  0  0  0  0  0  0  0
    1.7422   -0.0483   -1.0066 H   0  0  0  0  0  0  0  0  0  0  0  0
  1  6  1  0  0  0  0
  1  7  1  0  0  0  0
  2  1  2  0  0  0  0
  3  4  2  0  0  0  0
  3  2  1  0  0  0  0
  4  5  1  0  0  0  0
  5 10  1  0  0  0  0
  5  6  2  0  0  0  0
  6 13  1  0  0  0  0
  8  2  1  0  0  0  0
  9  4  1  0  0  0  0
 11 12  3  0  0  0  0
 13 14  1  0  0  0  0
 14 15  1  0  0  0  0
 14 17  1  0  0  0  0
 16 14  1  0  0  0  0
 18  3  1  0  0  0  0
 19 18  1  0  0  0  0
M  END
