Coordinates from ORCA-job 4-MeO-Ph-N2-OH-B3LYPG-6-31G_dp-MTMO-d009-169-n800
 OpenBabel09051907473D

 19 18  0  0  0  0  0  0  0  0999 V2000
   -1.3210   -2.3590   -0.2192 C   0  0  0  0  0  0  0  0  0  0  0  0
    0.0161   -2.0979   -0.4816 C   0  0  0  0  0  0  0  0  0  0  0  0
    0.4472   -0.7812   -0.6950 C   0  0  0  0  0  0  0  0  0  0  0  0
   -0.4796    0.2580   -0.6421 C   0  0  0  0  0  0  0  0  0  0  0  0
   -1.8300   -0.0022   -0.3776 C   0  0  0  0  0  0  0  0  0  0  0  0
   -2.2573   -1.3148   -0.1645 C   0  0  0  0  0  0  0  0  0  0  0  0
   -1.6680   -3.3735   -0.0506 H   0  0  0  0  0  0  0  0  0  0  0  0
    0.7434   -2.9018   -0.5255 H   0  0  0  0  0  0  0  0  0  0  0  0
   -0.1572    1.2842   -0.8084 H   0  0  0  0  0  0  0  0  0  0  0  0
   -2.5262    0.8274   -0.3432 H   0  0  0  0  0  0  0  0  0  0  0  0
    4.4799    4.7943   -0.9903 N   0  0  0  0  0  0  0  0  0  0  0  0
    5.1617    5.6603   -0.9071 N   0  0  0  0  0  0  0  0  0  0  0  0
   -3.5495   -1.6863    0.1012 O   0  0  0  0  0  0  0  0  0  0  0  0
   -4.5318   -0.6694    0.1624 C   0  0  0  0  0  0  0  0  0  0  0  0
   -5.4766   -1.1712    0.3777 H   0  0  0  0  0  0  0  0  0  0  0  0
   -4.6214   -0.1305   -0.7910 H   0  0  0  0  0  0  0  0  0  0  0  0
   -4.3201    0.0551    0.9605 H   0  0  0  0  0  0  0  0  0  0  0  0
    1.7807   -0.5858   -0.9485 O   0  0  0  0  0  0  0  0  0  0  0  0
    1.9418    0.3589   -1.0675 H   0  0  0  0  0  0  0  0  0  0  0  0
  1  6  1  0  0  0  0
  1  7  1  0  0  0  0
  2  1  2  0  0  0  0
  3  4  2  0  0  0  0
  3  2  1  0  0  0  0
  4  5  1  0  0  0  0
  5 10  1  0  0  0  0
  5  6  2  0  0  0  0
  6 13  1  0  0  0  0
  8  2  1  0  0  0  0
  9  4  1  0  0  0  0
 11 12  3  0  0  0  0
 13 14  1  0  0  0  0
 14 15  1  0  0  0  0
 14 17  1  0  0  0  0
 16 14  1  0  0  0  0
 18  3  1  0  0  0  0
 19 18  1  0  0  0  0
M  END
