Coordinates from ORCA-job 4-MeO-Ph-N2-OH-B3LYPG-6-31G_dp-MTMO-d009-169-n800
 OpenBabel09051907463D

 19 18  0  0  0  0  0  0  0  0999 V2000
   -1.0133   -2.0478   -0.5924 C   0  0  0  0  0  0  0  0  0  0  0  0
    0.3386   -1.7362   -0.5695 C   0  0  0  0  0  0  0  0  0  0  0  0
    0.7578   -0.4346   -0.2587 C   0  0  0  0  0  0  0  0  0  0  0  0
   -0.1982    0.5387    0.0301 C   0  0  0  0  0  0  0  0  0  0  0  0
   -1.5638    0.2280    0.0047 C   0  0  0  0  0  0  0  0  0  0  0  0
   -1.9779   -1.0689   -0.3074 C   0  0  0  0  0  0  0  0  0  0  0  0
   -1.3502   -3.0507   -0.8336 H   0  0  0  0  0  0  0  0  0  0  0  0
    1.0881   -2.4885   -0.7918 H   0  0  0  0  0  0  0  0  0  0  0  0
    0.1129    1.5499    0.2815 H   0  0  0  0  0  0  0  0  0  0  0  0
   -2.2827    1.0057    0.2336 H   0  0  0  0  0  0  0  0  0  0  0  0
    2.4008    2.6684   -1.4368 N   0  0  0  0  0  0  0  0  0  0  0  0
    2.4580    3.3391   -2.3126 N   0  0  0  0  0  0  0  0  0  0  0  0
   -3.2834   -1.4844   -0.3621 O   0  0  0  0  0  0  0  0  0  0  0  0
   -4.2930   -0.5310   -0.0880 C   0  0  0  0  0  0  0  0  0  0  0  0
   -5.2441   -1.0563   -0.1924 H   0  0  0  0  0  0  0  0  0  0  0  0
   -4.2663    0.3076   -0.7974 H   0  0  0  0  0  0  0  0  0  0  0  0
   -4.2135   -0.1340    0.9331 H   0  0  0  0  0  0  0  0  0  0  0  0
    2.1061   -0.1915   -0.2483 O   0  0  0  0  0  0  0  0  0  0  0  0
    2.2563    0.7510   -0.1021 H   0  0  0  0  0  0  0  0  0  0  0  0
  1  2  2  0  0  0  0
  1  6  1  0  0  0  0
  2  3  1  0  0  0  0
  3 18  1  0  0  0  0
  3  4  2  0  0  0  0
  4  9  1  0  0  0  0
  5  4  1  0  0  0  0
  5 10  1  0  0  0  0
  6  5  2  0  0  0  0
  7  1  1  0  0  0  0
  8  2  1  0  0  0  0
 12 11  3  0  0  0  0
 13  6  1  0  0  0  0
 13 14  1  0  0  0  0
 14 17  1  0  0  0  0
 15 14  1  0  0  0  0
 16 14  1  0  0  0  0
 18 19  1  0  0  0  0
M  END
