Coordinates from ORCA-job 4-MeO-Ph-N2-OH-B3LYPG-6-31G_dp-MTMO-d009-169-n800
 OpenBabel09051907473D

 19 18  0  0  0  0  0  0  0  0999 V2000
   -2.0316   -3.0478   -0.1805 C   0  0  0  0  0  0  0  0  0  0  0  0
   -0.6831   -2.8388   -0.4305 C   0  0  0  0  0  0  0  0  0  0  0  0
   -0.1950   -1.5376   -0.6141 C   0  0  0  0  0  0  0  0  0  0  0  0
   -1.0769   -0.4610   -0.5444 C   0  0  0  0  0  0  0  0  0  0  0  0
   -2.4388   -0.6686   -0.2926 C   0  0  0  0  0  0  0  0  0  0  0  0
   -2.9229   -1.9659   -0.1089 C   0  0  0  0  0  0  0  0  0  0  0  0
   -2.4228   -4.0497   -0.0354 H   0  0  0  0  0  0  0  0  0  0  0  0
    0.0095   -3.6720   -0.4876 H   0  0  0  0  0  0  0  0  0  0  0  0
   -0.7099    0.5537   -0.6871 H   0  0  0  0  0  0  0  0  0  0  0  0
   -3.0993    0.1891   -0.2453 H   0  0  0  0  0  0  0  0  0  0  0  0
    9.9273   10.5575   -1.5320 N   0  0  0  0  0  0  0  0  0  0  0  0
   10.6773   11.3694   -1.5387 N   0  0  0  0  0  0  0  0  0  0  0  0
   -4.2312   -2.2871    0.1426 O   0  0  0  0  0  0  0  0  0  0  0  0
   -5.1692   -1.2304    0.2216 C   0  0  0  0  0  0  0  0  0  0  0  0
   -6.1353   -1.6953    0.4253 H   0  0  0  0  0  0  0  0  0  0  0  0
   -5.2327   -0.6700   -0.7214 H   0  0  0  0  0  0  0  0  0  0  0  0
   -4.9290   -0.5312    1.0341 H   0  0  0  0  0  0  0  0  0  0  0  0
    1.1473   -1.3943   -0.8567 O   0  0  0  0  0  0  0  0  0  0  0  0
    1.3484   -0.4555   -0.9587 H   0  0  0  0  0  0  0  0  0  0  0  0
  1  6  1  0  0  0  0
  1  7  1  0  0  0  0
  2  1  2  0  0  0  0
  3  4  2  0  0  0  0
  3  2  1  0  0  0  0
  4  5  1  0  0  0  0
  5 10  1  0  0  0  0
  5  6  2  0  0  0  0
  6 13  1  0  0  0  0
  8  2  1  0  0  0  0
  9  4  1  0  0  0  0
 12 11  3  0  0  0  0
 13 14  1  0  0  0  0
 14 15  1  0  0  0  0
 14 17  1  0  0  0  0
 16 14  1  0  0  0  0
 18  3  1  0  0  0  0
 19 18  1  0  0  0  0
M  END
