Coordinates from ORCA-job 4-MeO-Ph-N2-OH-B3LYPG-6-31G_dp-MTMO-d009-169-n800
 OpenBabel09051907463D

 19 18  0  0  0  0  0  0  0  0999 V2000
   -1.0768   -1.6326   -1.0303 C   0  0  0  0  0  0  0  0  0  0  0  0
    0.1776   -1.0644   -1.2707 C   0  0  0  0  0  0  0  0  0  0  0  0
    0.3133    0.2617   -0.9346 C   0  0  0  0  0  0  0  0  0  0  0  0
   -0.6484    1.0760   -0.4035 C   0  0  0  0  0  0  0  0  0  0  0  0
   -1.9064    0.4894   -0.1665 C   0  0  0  0  0  0  0  0  0  0  0  0
   -2.1149   -0.8605   -0.4803 C   0  0  0  0  0  0  0  0  0  0  0  0
   -1.2714   -2.6751   -1.2623 H   0  0  0  0  0  0  0  0  0  0  0  0
    0.9874   -1.6491   -1.6917 H   0  0  0  0  0  0  0  0  0  0  0  0
   -0.4707    2.1200   -0.1711 H   0  0  0  0  0  0  0  0  0  0  0  0
   -2.6986    1.0987    0.2529 H   0  0  0  0  0  0  0  0  0  0  0  0
    2.4469    1.4483   -1.6429 N   0  0  0  0  0  0  0  0  0  0  0  0
    3.2718    1.1984   -0.8405 N   0  0  0  0  0  0  0  0  0  0  0  0
   -3.2941   -1.5229   -0.2910 O   0  0  0  0  0  0  0  0  0  0  0  0
   -4.3884   -0.8051    0.2562 C   0  0  0  0  0  0  0  0  0  0  0  0
   -5.2129   -1.5168    0.3220 H   0  0  0  0  0  0  0  0  0  0  0  0
   -4.6865    0.0330   -0.3873 H   0  0  0  0  0  0  0  0  0  0  0  0
   -4.1619   -0.4232    1.2600 H   0  0  0  0  0  0  0  0  0  0  0  0
    2.8729    0.3294    0.2753 O   0  0  0  0  0  0  0  0  0  0  0  0
    3.6933    0.2593    0.7959 H   0  0  0  0  0  0  0  0  0  0  0  0
  1  6  1  0  0  0  0
  2  1  2  0  0  0  0
  2  3  1  0  0  0  0
  3  4  2  0  0  0  0
  4  9  1  0  0  0  0
  4  5  1  0  0  0  0
  5 10  1  0  0  0  0
  6 13  1  0  0  0  0
  6  5  2  0  0  0  0
  7  1  1  0  0  0  0
  8  2  1  0  0  0  0
 11 12  2  0  0  0  0
 12 18  1  0  0  0  0
 13 14  1  0  0  0  0
 14 15  1  0  0  0  0
 14 17  1  0  0  0  0
 16 14  1  0  0  0  0
 18 19  1  0  0  0  0
M  RAD  2   3   2  11   2
M  END
