Coordinates from ORCA-job 4-MeO-Ph-N2-OH-B3LYPG-6-31G_dp-MTMO-d009-169-n800
 OpenBabel09051907473D

 19 18  0  0  0  0  0  0  0  0999 V2000
   -1.4581   -2.4851   -0.2264 C   0  0  0  0  0  0  0  0  0  0  0  0
   -0.1127   -2.2620   -0.4814 C   0  0  0  0  0  0  0  0  0  0  0  0
    0.3593   -0.9566   -0.6766 C   0  0  0  0  0  0  0  0  0  0  0  0
   -0.5352    0.1100   -0.6131 C   0  0  0  0  0  0  0  0  0  0  0  0
   -1.8939   -0.1119   -0.3562 C   0  0  0  0  0  0  0  0  0  0  0  0
   -2.3620   -1.4133   -0.1612 C   0  0  0  0  0  0  0  0  0  0  0  0
   -1.8369   -3.4904   -0.0722 H   0  0  0  0  0  0  0  0  0  0  0  0
    0.5896   -3.0874   -0.5336 H   0  0  0  0  0  0  0  0  0  0  0  0
   -0.1806    1.1277   -0.7648 H   0  0  0  0  0  0  0  0  0  0  0  0
   -2.5644    0.7383   -0.3138 H   0  0  0  0  0  0  0  0  0  0  0  0
    5.2284    5.7900   -1.0656 N   0  0  0  0  0  0  0  0  0  0  0  0
    5.9408    6.6341   -1.0244 N   0  0  0  0  0  0  0  0  0  0  0  0
   -3.6659   -1.7481    0.0959 O   0  0  0  0  0  0  0  0  0  0  0  0
   -4.6164   -0.7021    0.1682 C   0  0  0  0  0  0  0  0  0  0  0  0
   -5.5766   -1.1770    0.3767 H   0  0  0  0  0  0  0  0  0  0  0  0
   -4.6878   -0.1495   -0.7789 H   0  0  0  0  0  0  0  0  0  0  0  0
   -4.3835    0.0059    0.9751 H   0  0  0  0  0  0  0  0  0  0  0  0
    1.6992   -0.7992   -0.9237 O   0  0  0  0  0  0  0  0  0  0  0  0
    1.8888    0.1410   -1.0343 H   0  0  0  0  0  0  0  0  0  0  0  0
  1  6  1  0  0  0  0
  1  7  1  0  0  0  0
  2  1  2  0  0  0  0
  3  4  2  0  0  0  0
  3  2  1  0  0  0  0
  4  5  1  0  0  0  0
  5 10  1  0  0  0  0
  5  6  2  0  0  0  0
  6 13  1  0  0  0  0
  8  2  1  0  0  0  0
  9  4  1  0  0  0  0
 11 12  3  0  0  0  0
 13 14  1  0  0  0  0
 14 15  1  0  0  0  0
 14 17  1  0  0  0  0
 16 14  1  0  0  0  0
 18  3  1  0  0  0  0
 19 18  1  0  0  0  0
M  END
