Coordinates from ORCA-job 4-MeO-Ph-N2-OH-B3LYPG-6-31G_dp-MTMO-d009-169-n800
 OpenBabel09051907473D

 19 18  0  0  0  0  0  0  0  0999 V2000
   -1.8020   -2.8209   -0.2033 C   0  0  0  0  0  0  0  0  0  0  0  0
   -0.4538   -2.6100   -0.4534 C   0  0  0  0  0  0  0  0  0  0  0  0
    0.0325   -1.3082   -0.6373 C   0  0  0  0  0  0  0  0  0  0  0  0
   -0.8510   -0.2328   -0.5678 C   0  0  0  0  0  0  0  0  0  0  0  0
   -2.2126   -0.4423   -0.3159 C   0  0  0  0  0  0  0  0  0  0  0  0
   -2.6948   -1.7402   -0.1319 C   0  0  0  0  0  0  0  0  0  0  0  0
   -2.1917   -3.8233   -0.0578 H   0  0  0  0  0  0  0  0  0  0  0  0
    0.2400   -3.4423   -0.5103 H   0  0  0  0  0  0  0  0  0  0  0  0
   -0.4854    0.7823   -0.7108 H   0  0  0  0  0  0  0  0  0  0  0  0
   -2.8743    0.4145   -0.2688 H   0  0  0  0  0  0  0  0  0  0  0  0
    7.9951    8.6312   -1.3375 N   0  0  0  0  0  0  0  0  0  0  0  0
    8.7433    9.4447   -1.3390 N   0  0  0  0  0  0  0  0  0  0  0  0
   -4.0027   -2.0633    0.1197 O   0  0  0  0  0  0  0  0  0  0  0  0
   -4.9422   -1.0079    0.1983 C   0  0  0  0  0  0  0  0  0  0  0  0
   -5.9077   -1.4741    0.4019 H   0  0  0  0  0  0  0  0  0  0  0  0
   -5.0064   -0.4477   -0.7449 H   0  0  0  0  0  0  0  0  0  0  0  0
   -4.7031   -0.3081    1.0106 H   0  0  0  0  0  0  0  0  0  0  0  0
    1.3746   -1.1631   -0.8800 O   0  0  0  0  0  0  0  0  0  0  0  0
    1.5743   -0.2240   -0.9822 H   0  0  0  0  0  0  0  0  0  0  0  0
  1  6  1  0  0  0  0
  1  7  1  0  0  0  0
  2  1  2  0  0  0  0
  3  4  2  0  0  0  0
  3  2  1  0  0  0  0
  4  5  1  0  0  0  0
  5 10  1  0  0  0  0
  5  6  2  0  0  0  0
  6 13  1  0  0  0  0
  8  2  1  0  0  0  0
  9  4  1  0  0  0  0
 12 11  3  0  0  0  0
 13 14  1  0  0  0  0
 14 15  1  0  0  0  0
 14 17  1  0  0  0  0
 16 14  1  0  0  0  0
 18  3  1  0  0  0  0
 19 18  1  0  0  0  0
M  END
