Coordinates from ORCA-job 4-MeO-Ph-N2-OH-B3LYPG-6-31G_dp-MTMO-d009-169-n800
 OpenBabel09051907473D

 19 18  0  0  0  0  0  0  0  0999 V2000
   -1.8868   -2.9046   -0.1954 C   0  0  0  0  0  0  0  0  0  0  0  0
   -0.5384   -2.6945   -0.4452 C   0  0  0  0  0  0  0  0  0  0  0  0
   -0.0513   -1.3929   -0.6285 C   0  0  0  0  0  0  0  0  0  0  0  0
   -0.9341   -0.3169   -0.5586 C   0  0  0  0  0  0  0  0  0  0  0  0
   -2.2959   -0.5257   -0.3070 C   0  0  0  0  0  0  0  0  0  0  0  0
   -2.7789   -1.8234   -0.1236 C   0  0  0  0  0  0  0  0  0  0  0  0
   -2.2771   -3.9068   -0.0504 H   0  0  0  0  0  0  0  0  0  0  0  0
    0.1549   -3.5271   -0.5024 H   0  0  0  0  0  0  0  0  0  0  0  0
   -0.5679    0.6980   -0.7011 H   0  0  0  0  0  0  0  0  0  0  0  0
   -2.9571    0.3315   -0.2596 H   0  0  0  0  0  0  0  0  0  0  0  0
    8.7072    9.3416   -1.4095 N   0  0  0  0  0  0  0  0  0  0  0  0
    9.4562   10.1543   -1.4132 N   0  0  0  0  0  0  0  0  0  0  0  0
   -4.0870   -2.1458    0.1277 O   0  0  0  0  0  0  0  0  0  0  0  0
   -5.0259   -1.0898    0.2067 C   0  0  0  0  0  0  0  0  0  0  0  0
   -5.9917   -1.5555    0.4101 H   0  0  0  0  0  0  0  0  0  0  0  0
   -5.0897   -0.5292   -0.7363 H   0  0  0  0  0  0  0  0  0  0  0  0
   -4.7864   -0.3906    1.0193 H   0  0  0  0  0  0  0  0  0  0  0  0
    1.2909   -1.2485   -0.8709 O   0  0  0  0  0  0  0  0  0  0  0  0
    1.4913   -0.3095   -0.9726 H   0  0  0  0  0  0  0  0  0  0  0  0
  1  6  1  0  0  0  0
  1  7  1  0  0  0  0
  2  1  2  0  0  0  0
  3  4  2  0  0  0  0
  3  2  1  0  0  0  0
  4  5  1  0  0  0  0
  5 10  1  0  0  0  0
  5  6  2  0  0  0  0
  6 13  1  0  0  0  0
  8  2  1  0  0  0  0
  9  4  1  0  0  0  0
 12 11  3  0  0  0  0
 13 14  1  0  0  0  0
 14 15  1  0  0  0  0
 14 17  1  0  0  0  0
 16 14  1  0  0  0  0
 18  3  1  0  0  0  0
 19 18  1  0  0  0  0
M  END
