Coordinates from ORCA-job 4-MeO-Ph-N2-OH-B3LYPG-6-31G_dp-MTMO-d009-169-n800
 OpenBabel09051907463D

 19 19  0  0  0  0  0  0  0  0999 V2000
   -1.1944   -1.6465   -1.4733 C   0  0  0  0  0  0  0  0  0  0  0  0
    0.1255   -1.3062   -1.5954 C   0  0  0  0  0  0  0  0  0  0  0  0
    0.7985   -0.1666   -0.8861 C   0  0  0  0  0  0  0  0  0  0  0  0
   -0.2020    0.5621   -0.0234 C   0  0  0  0  0  0  0  0  0  0  0  0
   -1.5321    0.2148    0.0802 C   0  0  0  0  0  0  0  0  0  0  0  0
   -2.0412   -0.8883   -0.6336 C   0  0  0  0  0  0  0  0  0  0  0  0
   -1.6271   -2.4891   -2.0050 H   0  0  0  0  0  0  0  0  0  0  0  0
    0.7814   -1.8889   -2.2412 H   0  0  0  0  0  0  0  0  0  0  0  0
    0.1658    1.4158    0.5346 H   0  0  0  0  0  0  0  0  0  0  0  0
   -2.1874    0.7987    0.7182 H   0  0  0  0  0  0  0  0  0  0  0  0
    1.7315    0.0327   -0.9938 N   0  0  0  0  0  0  0  0  0  0  0  0
    2.7172    0.7504   -0.6829 N   0  0  0  0  0  0  0  0  0  0  0  0
   -3.3240   -1.3023   -0.5842 O   0  0  0  0  0  0  0  0  0  0  0  0
   -4.2513   -0.6036    0.2421 C   0  0  0  0  0  0  0  0  0  0  0  0
   -5.2027   -1.1228    0.1245 H   0  0  0  0  0  0  0  0  0  0  0  0
   -4.3632    0.4389   -0.0775 H   0  0  0  0  0  0  0  0  0  0  0  0
   -3.9471   -0.6322    1.2948 H   0  0  0  0  0  0  0  0  0  0  0  0
    2.2731    1.7706    0.3167 O   0  0  0  0  0  0  0  0  0  0  0  0
    3.1116    2.2271    0.4753 H   0  0  0  0  0  0  0  0  0  0  0  0
  1  6  1  0  0  0  0
  2  1  2  0  0  0  0
  2  3  1  0  0  0  0
  3  4  2  0  0  0  0
  4  5  1  0  0  0  0
  4  9  1  0  0  0  0
  5 10  1  0  0  0  0
  6 13  1  0  0  0  0
  6  5  2  0  0  0  0
  7  1  1  0  0  0  0
  8  2  1  0  0  0  0
 11  3  1  0  0  0  0
 11 12  1  0  0  0  0
 12 18  1  0  0  0  0
 13 14  1  0  0  0  0
 14 17  1  0  0  0  0
 15 14  1  0  0  0  0
 16 14  1  0  0  0  0
 18 19  1  0  0  0  0
M  RAD  2  11   2  12   2
M  END
