Coordinates from ORCA-job 4-MeO-Ph-N2-OH-B3LYPG-6-31G_dp-MTMO-d009-169-n800
 OpenBabel09051907473D

 19 18  0  0  0  0  0  0  0  0999 V2000
   -1.5881   -2.6104   -0.2199 C   0  0  0  0  0  0  0  0  0  0  0  0
   -0.2407   -2.3966   -0.4723 C   0  0  0  0  0  0  0  0  0  0  0  0
    0.2416   -1.0941   -0.6616 C   0  0  0  0  0  0  0  0  0  0  0  0
   -0.6448   -0.0209   -0.5948 C   0  0  0  0  0  0  0  0  0  0  0  0
   -2.0055   -0.2334   -0.3405 C   0  0  0  0  0  0  0  0  0  0  0  0
   -2.4838   -1.5320   -0.1513 C   0  0  0  0  0  0  0  0  0  0  0  0
   -1.9748   -3.6134   -0.0704 H   0  0  0  0  0  0  0  0  0  0  0  0
    0.4553   -3.2271   -0.5271 H   0  0  0  0  0  0  0  0  0  0  0  0
   -0.2823    0.9947   -0.7419 H   0  0  0  0  0  0  0  0  0  0  0  0
   -2.6696    0.6217   -0.2956 H   0  0  0  0  0  0  0  0  0  0  0  0
    6.2198    6.8458   -1.1586 N   0  0  0  0  0  0  0  0  0  0  0  0
    6.9574    7.6689   -1.1457 N   0  0  0  0  0  0  0  0  0  0  0  0
   -3.7905   -1.8579    0.1029 O   0  0  0  0  0  0  0  0  0  0  0  0
   -4.7330   -0.8048    0.1787 C   0  0  0  0  0  0  0  0  0  0  0  0
   -5.6969   -1.2731    0.3848 H   0  0  0  0  0  0  0  0  0  0  0  0
   -4.7996   -0.2481   -0.7663 H   0  0  0  0  0  0  0  0  0  0  0  0
   -4.4951   -0.1017    0.9885 H   0  0  0  0  0  0  0  0  0  0  0  0
    1.5830   -0.9460   -0.9064 O   0  0  0  0  0  0  0  0  0  0  0  0
    1.7798   -0.0068   -1.0129 H   0  0  0  0  0  0  0  0  0  0  0  0
  1  6  1  0  0  0  0
  1  7  1  0  0  0  0
  2  1  2  0  0  0  0
  3  4  2  0  0  0  0
  3  2  1  0  0  0  0
  4  5  1  0  0  0  0
  5 10  1  0  0  0  0
  5  6  2  0  0  0  0
  6 13  1  0  0  0  0
  8  2  1  0  0  0  0
  9  4  1  0  0  0  0
 11 12  3  0  0  0  0
 13 14  1  0  0  0  0
 14 15  1  0  0  0  0
 14 17  1  0  0  0  0
 16 14  1  0  0  0  0
 18  3  1  0  0  0  0
 19 18  1  0  0  0  0
M  END
