Coordinates from ORCA-job 4-MeO-Ph-N2-OH-B3LYPG-6-31G_dp-MTMO-d009-169-n800
 OpenBabel09051907473D

 19 18  0  0  0  0  0  0  0  0999 V2000
   -1.0674   -2.1308   -0.2599 C   0  0  0  0  0  0  0  0  0  0  0  0
    0.2470   -1.7491   -0.4876 C   0  0  0  0  0  0  0  0  0  0  0  0
    0.5687   -0.3946   -0.6525 C   0  0  0  0  0  0  0  0  0  0  0  0
   -0.4444    0.5605   -0.5867 C   0  0  0  0  0  0  0  0  0  0  0  0
   -1.7722    0.1784   -0.3567 C   0  0  0  0  0  0  0  0  0  0  0  0
   -2.0897   -1.1716   -0.1918 C   0  0  0  0  0  0  0  0  0  0  0  0
   -1.3297   -3.1759   -0.1288 H   0  0  0  0  0  0  0  0  0  0  0  0
    1.0411   -2.4867   -0.5414 H   0  0  0  0  0  0  0  0  0  0  0  0
   -0.2073    1.6148   -0.7159 H   0  0  0  0  0  0  0  0  0  0  0  0
   -2.5373    0.9442   -0.3104 H   0  0  0  0  0  0  0  0  0  0  0  0
    3.3636    3.1242   -0.9642 N   0  0  0  0  0  0  0  0  0  0  0  0
    4.0969    3.9499   -0.9318 N   0  0  0  0  0  0  0  0  0  0  0  0
   -3.3504   -1.6592    0.0377 O   0  0  0  0  0  0  0  0  0  0  0  0
   -4.4161   -0.7314    0.1104 C   0  0  0  0  0  0  0  0  0  0  0  0
   -5.3188   -1.3177    0.2903 H   0  0  0  0  0  0  0  0  0  0  0  0
   -4.5342   -0.1704   -0.8271 H   0  0  0  0  0  0  0  0  0  0  0  0
   -4.2811   -0.0180    0.9351 H   0  0  0  0  0  0  0  0  0  0  0  0
    1.8845   -0.0802   -0.8730 O   0  0  0  0  0  0  0  0  0  0  0  0
    1.9788    0.8780   -0.9560 H   0  0  0  0  0  0  0  0  0  0  0  0
  1  6  1  0  0  0  0
  1  7  1  0  0  0  0
  2  1  2  0  0  0  0
  3  4  2  0  0  0  0
  3  2  1  0  0  0  0
  4  5  1  0  0  0  0
  5 10  1  0  0  0  0
  5  6  2  0  0  0  0
  6 13  1  0  0  0  0
  8  2  1  0  0  0  0
  9  4  1  0  0  0  0
 11 12  3  0  0  0  0
 13 14  1  0  0  0  0
 14 15  1  0  0  0  0
 14 17  1  0  0  0  0
 16 14  1  0  0  0  0
 18  3  1  0  0  0  0
 19 18  1  0  0  0  0
M  END
