Coordinates from ORCA-job 4-MeO-Ph-N2-OH-B3LYPG-6-31G_dp-MTMO-d009-169-n800
 OpenBabel09051907473D

 19 18  0  0  0  0  0  0  0  0999 V2000
   -1.7565   -2.7760   -0.2073 C   0  0  0  0  0  0  0  0  0  0  0  0
   -0.4084   -2.5648   -0.4576 C   0  0  0  0  0  0  0  0  0  0  0  0
    0.0774   -1.2629   -0.6423 C   0  0  0  0  0  0  0  0  0  0  0  0
   -0.8064   -0.1877   -0.5731 C   0  0  0  0  0  0  0  0  0  0  0  0
   -2.1679   -0.3976   -0.3209 C   0  0  0  0  0  0  0  0  0  0  0  0
   -2.6497   -1.6956   -0.1362 C   0  0  0  0  0  0  0  0  0  0  0  0
   -2.1459   -3.7784   -0.0613 H   0  0  0  0  0  0  0  0  0  0  0  0
    0.2856   -3.3969   -0.5143 H   0  0  0  0  0  0  0  0  0  0  0  0
   -0.4412    0.8274   -0.7166 H   0  0  0  0  0  0  0  0  0  0  0  0
   -2.8299    0.4590   -0.2740 H   0  0  0  0  0  0  0  0  0  0  0  0
    7.6134    8.2501   -1.2988 N   0  0  0  0  0  0  0  0  0  0  0  0
    8.3607    9.0645   -1.2987 N   0  0  0  0  0  0  0  0  0  0  0  0
   -3.9574   -2.0190    0.1157 O   0  0  0  0  0  0  0  0  0  0  0  0
   -4.8973   -0.9638    0.1939 C   0  0  0  0  0  0  0  0  0  0  0  0
   -5.8626   -1.4302    0.3979 H   0  0  0  0  0  0  0  0  0  0  0  0
   -4.9618   -0.4041   -0.7495 H   0  0  0  0  0  0  0  0  0  0  0  0
   -4.6583   -0.2637    1.0059 H   0  0  0  0  0  0  0  0  0  0  0  0
    1.4194   -1.1174   -0.8852 O   0  0  0  0  0  0  0  0  0  0  0  0
    1.6188   -0.1783   -0.9879 H   0  0  0  0  0  0  0  0  0  0  0  0
  1  6  1  0  0  0  0
  1  7  1  0  0  0  0
  2  1  2  0  0  0  0
  3  4  2  0  0  0  0
  3  2  1  0  0  0  0
  4  5  1  0  0  0  0
  5 10  1  0  0  0  0
  5  6  2  0  0  0  0
  6 13  1  0  0  0  0
  8  2  1  0  0  0  0
  9  4  1  0  0  0  0
 11 12  3  0  0  0  0
 13 14  1  0  0  0  0
 14 15  1  0  0  0  0
 14 17  1  0  0  0  0
 16 14  1  0  0  0  0
 18  3  1  0  0  0  0
 19 18  1  0  0  0  0
M  END
