Coordinates from ORCA-job 4-MeO-Ph-N2-OH-B3LYPG-6-31G_dp-MTMO-d009-169-n800
 OpenBabel09051907473D

 19 18  0  0  0  0  0  0  0  0999 V2000
   -2.0976   -3.1133   -0.1732 C   0  0  0  0  0  0  0  0  0  0  0  0
   -0.7491   -2.9046   -0.4235 C   0  0  0  0  0  0  0  0  0  0  0  0
   -0.2608   -1.6036   -0.6079 C   0  0  0  0  0  0  0  0  0  0  0  0
   -1.1426   -0.5267   -0.5384 C   0  0  0  0  0  0  0  0  0  0  0  0
   -2.5045   -0.7341   -0.2863 C   0  0  0  0  0  0  0  0  0  0  0  0
   -2.9887   -2.0311   -0.1019 C   0  0  0  0  0  0  0  0  0  0  0  0
   -2.4889   -4.1150   -0.0275 H   0  0  0  0  0  0  0  0  0  0  0  0
   -0.0566   -3.7379   -0.4804 H   0  0  0  0  0  0  0  0  0  0  0  0
   -0.7754    0.4878   -0.6817 H   0  0  0  0  0  0  0  0  0  0  0  0
   -3.1648    0.1238   -0.2393 H   0  0  0  0  0  0  0  0  0  0  0  0
   10.4809   11.1188   -1.5922 N   0  0  0  0  0  0  0  0  0  0  0  0
   11.2417   11.9206   -1.5915 N   0  0  0  0  0  0  0  0  0  0  0  0
   -4.2970   -2.3521    0.1500 O   0  0  0  0  0  0  0  0  0  0  0  0
   -5.2349   -1.2952    0.2286 C   0  0  0  0  0  0  0  0  0  0  0  0
   -6.2010   -1.7598    0.4327 H   0  0  0  0  0  0  0  0  0  0  0  0
   -5.2985   -0.7351   -0.7146 H   0  0  0  0  0  0  0  0  0  0  0  0
   -4.9943   -0.5957    1.0408 H   0  0  0  0  0  0  0  0  0  0  0  0
    1.0815   -1.4606   -0.8507 O   0  0  0  0  0  0  0  0  0  0  0  0
    1.2827   -0.5219   -0.9532 H   0  0  0  0  0  0  0  0  0  0  0  0
  1  6  1  0  0  0  0
  1  7  1  0  0  0  0
  2  1  2  0  0  0  0
  3  4  2  0  0  0  0
  3  2  1  0  0  0  0
  4  5  1  0  0  0  0
  5 10  1  0  0  0  0
  5  6  2  0  0  0  0
  6 13  1  0  0  0  0
  8  2  1  0  0  0  0
  9  4  1  0  0  0  0
 11 12  3  0  0  0  0
 13 14  1  0  0  0  0
 14 15  1  0  0  0  0
 14 17  1  0  0  0  0
 16 14  1  0  0  0  0
 18  3  1  0  0  0  0
 19 18  1  0  0  0  0
M  END
