Coordinates from ORCA-job 4-MeO-Ph-N2-OH-B3LYPG-6-31G_dp-MTMO-d009-169-n800
 OpenBabel09051907473D

 19 18  0  0  0  0  0  0  0  0999 V2000
   -1.5269   -2.5509   -0.2236 C   0  0  0  0  0  0  0  0  0  0  0  0
   -0.1802   -2.3345   -0.4771 C   0  0  0  0  0  0  0  0  0  0  0  0
    0.2992   -1.0313   -0.6686 C   0  0  0  0  0  0  0  0  0  0  0  0
   -0.5896    0.0401   -0.6031 C   0  0  0  0  0  0  0  0  0  0  0  0
   -1.9497   -0.1750   -0.3478 C   0  0  0  0  0  0  0  0  0  0  0  0
   -2.4250   -1.4744   -0.1563 C   0  0  0  0  0  0  0  0  0  0  0  0
   -1.9113   -3.5545   -0.0723 H   0  0  0  0  0  0  0  0  0  0  0  0
    0.5177   -3.1635   -0.5309 H   0  0  0  0  0  0  0  0  0  0  0  0
   -0.2294    1.0562   -0.7520 H   0  0  0  0  0  0  0  0  0  0  0  0
   -2.6156    0.6787   -0.3039 H   0  0  0  0  0  0  0  0  0  0  0  0
    5.7338    6.3419   -1.1120 N   0  0  0  0  0  0  0  0  0  0  0  0
    6.4622    7.1729   -1.0884 N   0  0  0  0  0  0  0  0  0  0  0  0
   -3.7309   -1.8027    0.0990 O   0  0  0  0  0  0  0  0  0  0  0  0
   -4.6757   -0.7517    0.1735 C   0  0  0  0  0  0  0  0  0  0  0  0
   -5.6385   -1.2218    0.3806 H   0  0  0  0  0  0  0  0  0  0  0  0
   -4.7438   -0.1965   -0.7723 H   0  0  0  0  0  0  0  0  0  0  0  0
   -4.4391   -0.0468    0.9821 H   0  0  0  0  0  0  0  0  0  0  0  0
    1.6401   -0.8805   -0.9144 O   0  0  0  0  0  0  0  0  0  0  0  0
    1.8348    0.0589   -1.0227 H   0  0  0  0  0  0  0  0  0  0  0  0
  1  6  1  0  0  0  0
  1  7  1  0  0  0  0
  2  1  2  0  0  0  0
  3  4  2  0  0  0  0
  3  2  1  0  0  0  0
  4  5  1  0  0  0  0
  5 10  1  0  0  0  0
  5  6  2  0  0  0  0
  6 13  1  0  0  0  0
  8  2  1  0  0  0  0
  9  4  1  0  0  0  0
 11 12  3  0  0  0  0
 13 14  1  0  0  0  0
 14 15  1  0  0  0  0
 14 17  1  0  0  0  0
 16 14  1  0  0  0  0
 18  3  1  0  0  0  0
 19 18  1  0  0  0  0
M  END
