Coordinates from ORCA-job 4-MeO-Ph-N2-OH-B3LYPG-6-31G_dp-MTMO-d009-169-n800
 OpenBabel09051907473D

 19 18  0  0  0  0  0  0  0  0999 V2000
   -1.9276   -2.9449   -0.1913 C   0  0  0  0  0  0  0  0  0  0  0  0
   -0.5791   -2.7351   -0.4411 C   0  0  0  0  0  0  0  0  0  0  0  0
   -0.0917   -1.4337   -0.6244 C   0  0  0  0  0  0  0  0  0  0  0  0
   -0.9743   -0.3575   -0.5544 C   0  0  0  0  0  0  0  0  0  0  0  0
   -2.3361   -0.5659   -0.3028 C   0  0  0  0  0  0  0  0  0  0  0  0
   -2.8194   -1.8635   -0.1195 C   0  0  0  0  0  0  0  0  0  0  0  0
   -2.3182   -3.9470   -0.0464 H   0  0  0  0  0  0  0  0  0  0  0  0
    0.1139   -3.5679   -0.4984 H   0  0  0  0  0  0  0  0  0  0  0  0
   -0.6078    0.6574   -0.6969 H   0  0  0  0  0  0  0  0  0  0  0  0
   -2.9971    0.2914   -0.2554 H   0  0  0  0  0  0  0  0  0  0  0  0
    9.0504    9.6837   -1.4440 N   0  0  0  0  0  0  0  0  0  0  0  0
    9.7998   10.4962   -1.4486 N   0  0  0  0  0  0  0  0  0  0  0  0
   -4.1276   -2.1855    0.1318 O   0  0  0  0  0  0  0  0  0  0  0  0
   -5.0663   -1.1293    0.2108 C   0  0  0  0  0  0  0  0  0  0  0  0
   -6.0321   -1.5948    0.4142 H   0  0  0  0  0  0  0  0  0  0  0  0
   -5.1299   -0.5687   -0.7321 H   0  0  0  0  0  0  0  0  0  0  0  0
   -4.8265   -0.4302    1.0235 H   0  0  0  0  0  0  0  0  0  0  0  0
    1.2505   -1.2895   -0.8667 O   0  0  0  0  0  0  0  0  0  0  0  0
    1.4511   -0.3506   -0.9684 H   0  0  0  0  0  0  0  0  0  0  0  0
  1  6  1  0  0  0  0
  1  7  1  0  0  0  0
  2  1  2  0  0  0  0
  3  4  2  0  0  0  0
  3  2  1  0  0  0  0
  4  5  1  0  0  0  0
  5 10  1  0  0  0  0
  5  6  2  0  0  0  0
  6 13  1  0  0  0  0
  8  2  1  0  0  0  0
  9  4  1  0  0  0  0
 12 11  3  0  0  0  0
 13 14  1  0  0  0  0
 14 15  1  0  0  0  0
 14 17  1  0  0  0  0
 16 14  1  0  0  0  0
 18  3  1  0  0  0  0
 19 18  1  0  0  0  0
M  END
