Coordinates from ORCA-job 4-MeO-Ph-N2-OH-B3LYPG-6-31G_dp-MTMO-d009-169-n800
 OpenBabel09051907473D

 19 18  0  0  0  0  0  0  0  0999 V2000
   -1.4461   -2.4738   -0.2266 C   0  0  0  0  0  0  0  0  0  0  0  0
   -0.1011   -2.2489   -0.4819 C   0  0  0  0  0  0  0  0  0  0  0  0
    0.3690   -0.9429   -0.6780 C   0  0  0  0  0  0  0  0  0  0  0  0
   -0.5271    0.1224   -0.6150 C   0  0  0  0  0  0  0  0  0  0  0  0
   -1.8854   -0.1013   -0.3578 C   0  0  0  0  0  0  0  0  0  0  0  0
   -2.3516   -1.4033   -0.1619 C   0  0  0  0  0  0  0  0  0  0  0  0
   -1.8234   -3.4795   -0.0717 H   0  0  0  0  0  0  0  0  0  0  0  0
    0.6024   -3.0732   -0.5338 H   0  0  0  0  0  0  0  0  0  0  0  0
   -0.1740    1.1406   -0.7674 H   0  0  0  0  0  0  0  0  0  0  0  0
   -2.5571    0.7479   -0.3158 H   0  0  0  0  0  0  0  0  0  0  0  0
    5.1475    5.6966   -1.0582 N   0  0  0  0  0  0  0  0  0  0  0  0
    5.8565    6.5433   -1.0134 N   0  0  0  0  0  0  0  0  0  0  0  0
   -3.6549   -1.7399    0.0956 O   0  0  0  0  0  0  0  0  0  0  0  0
   -4.6070   -0.6953    0.1674 C   0  0  0  0  0  0  0  0  0  0  0  0
   -5.5665   -1.1714    0.3762 H   0  0  0  0  0  0  0  0  0  0  0  0
   -4.6793   -0.1433   -0.7800 H   0  0  0  0  0  0  0  0  0  0  0  0
   -4.3750    0.0136    0.9739 H   0  0  0  0  0  0  0  0  0  0  0  0
    1.7086   -0.7837   -0.9254 O   0  0  0  0  0  0  0  0  0  0  0  0
    1.8968    0.1568   -1.0365 H   0  0  0  0  0  0  0  0  0  0  0  0
  1  6  1  0  0  0  0
  1  7  1  0  0  0  0
  2  1  2  0  0  0  0
  3  4  2  0  0  0  0
  3  2  1  0  0  0  0
  4  5  1  0  0  0  0
  5 10  1  0  0  0  0
  5  6  2  0  0  0  0
  6 13  1  0  0  0  0
  8  2  1  0  0  0  0
  9  4  1  0  0  0  0
 11 12  3  0  0  0  0
 13 14  1  0  0  0  0
 14 15  1  0  0  0  0
 14 17  1  0  0  0  0
 16 14  1  0  0  0  0
 18  3  1  0  0  0  0
 19 18  1  0  0  0  0
M  END
