Coordinates from ORCA-job 4-MeO-Ph-N2-OH-B3LYPG-6-31G_dp-MTMO-d009-169-n800
 OpenBabel09051907473D

 19 18  0  0  0  0  0  0  0  0999 V2000
   -1.2415   -2.2863   -0.2083 C   0  0  0  0  0  0  0  0  0  0  0  0
    0.0871   -1.9906   -0.4771 C   0  0  0  0  0  0  0  0  0  0  0  0
    0.4803   -0.6649   -0.7068 C   0  0  0  0  0  0  0  0  0  0  0  0
   -0.4754    0.3484   -0.6635 C   0  0  0  0  0  0  0  0  0  0  0  0
   -1.8172    0.0532   -0.3924 C   0  0  0  0  0  0  0  0  0  0  0  0
   -2.2068   -1.2684   -0.1632 C   0  0  0  0  0  0  0  0  0  0  0  0
   -1.5593   -3.3081   -0.0269 H   0  0  0  0  0  0  0  0  0  0  0  0
    0.8368   -2.7741   -0.5134 H   0  0  0  0  0  0  0  0  0  0  0  0
   -0.1823    1.3812   -0.8426 H   0  0  0  0  0  0  0  0  0  0  0  0
   -2.5364    0.8632   -0.3654 H   0  0  0  0  0  0  0  0  0  0  0  0
    4.1698    4.2701   -0.9537 N   0  0  0  0  0  0  0  0  0  0  0  0
    4.8515    5.1331   -0.8443 N   0  0  0  0  0  0  0  0  0  0  0  0
   -3.4874   -1.6730    0.1100 O   0  0  0  0  0  0  0  0  0  0  0  0
   -4.4982   -0.6839    0.1611 C   0  0  0  0  0  0  0  0  0  0  0  0
   -5.4282   -1.2101    0.3826 H   0  0  0  0  0  0  0  0  0  0  0  0
   -4.6037   -0.1580   -0.7979 H   0  0  0  0  0  0  0  0  0  0  0  0
   -4.3068    0.0549    0.9512 H   0  0  0  0  0  0  0  0  0  0  0  0
    1.8072   -0.4349   -0.9657 O   0  0  0  0  0  0  0  0  0  0  0  0
    1.9425    0.5127   -1.0940 H   0  0  0  0  0  0  0  0  0  0  0  0
  1  6  1  0  0  0  0
  1  7  1  0  0  0  0
  2  1  2  0  0  0  0
  3  4  2  0  0  0  0
  3  2  1  0  0  0  0
  4  5  1  0  0  0  0
  5 10  1  0  0  0  0
  5  6  2  0  0  0  0
  6 13  1  0  0  0  0
  8  2  1  0  0  0  0
  9  4  1  0  0  0  0
 11 12  3  0  0  0  0
 13 14  1  0  0  0  0
 14 15  1  0  0  0  0
 14 17  1  0  0  0  0
 16 14  1  0  0  0  0
 18  3  1  0  0  0  0
 19 18  1  0  0  0  0
M  END
