Coordinates from ORCA-job 4-MeO-Ph-N2-OH-B3LYPG-6-31G_dp-MTMO-d009-169-n800
 OpenBabel09051907473D

 19 18  0  0  0  0  0  0  0  0999 V2000
   -1.6558   -2.6769   -0.2152 C   0  0  0  0  0  0  0  0  0  0  0  0
   -0.3081   -2.4645   -0.4666 C   0  0  0  0  0  0  0  0  0  0  0  0
    0.1760   -1.1623   -0.6537 C   0  0  0  0  0  0  0  0  0  0  0  0
   -0.7090   -0.0881   -0.5858 C   0  0  0  0  0  0  0  0  0  0  0  0
   -2.0701   -0.2992   -0.3325 C   0  0  0  0  0  0  0  0  0  0  0  0
   -2.5502   -1.5974   -0.1454 C   0  0  0  0  0  0  0  0  0  0  0  0
   -2.0439   -3.6795   -0.0673 H   0  0  0  0  0  0  0  0  0  0  0  0
    0.3869   -3.2958   -0.5223 H   0  0  0  0  0  0  0  0  0  0  0  0
   -0.3451    0.9272   -0.7312 H   0  0  0  0  0  0  0  0  0  0  0  0
   -2.7331    0.5568   -0.2866 H   0  0  0  0  0  0  0  0  0  0  0  0
    6.7754    7.4094   -1.2139 N   0  0  0  0  0  0  0  0  0  0  0  0
    7.5188    8.2273   -1.2081 N   0  0  0  0  0  0  0  0  0  0  0  0
   -3.8574   -1.9219    0.1077 O   0  0  0  0  0  0  0  0  0  0  0  0
   -4.7986   -0.8678    0.1847 C   0  0  0  0  0  0  0  0  0  0  0  0
   -5.7632   -1.3350    0.3898 H   0  0  0  0  0  0  0  0  0  0  0  0
   -4.8641   -0.3096   -0.7596 H   0  0  0  0  0  0  0  0  0  0  0  0
   -4.5600   -0.1661    0.9955 H   0  0  0  0  0  0  0  0  0  0  0  0
    1.5177   -1.0157   -0.8976 O   0  0  0  0  0  0  0  0  0  0  0  0
    1.7159   -0.0765   -1.0023 H   0  0  0  0  0  0  0  0  0  0  0  0
  1  6  1  0  0  0  0
  1  7  1  0  0  0  0
  2  1  2  0  0  0  0
  3  4  2  0  0  0  0
  3  2  1  0  0  0  0
  4  5  1  0  0  0  0
  5 10  1  0  0  0  0
  5  6  2  0  0  0  0
  6 13  1  0  0  0  0
  8  2  1  0  0  0  0
  9  4  1  0  0  0  0
 11 12  3  0  0  0  0
 13 14  1  0  0  0  0
 14 15  1  0  0  0  0
 14 17  1  0  0  0  0
 16 14  1  0  0  0  0
 18  3  1  0  0  0  0
 19 18  1  0  0  0  0
M  END
