Coordinates from ORCA-job 4-MeO-Ph-N2-OH-B3LYPG-6-31G_dp-MTMO-d009-169-n800
 OpenBabel09051907473D

 19 18  0  0  0  0  0  0  0  0999 V2000
   -1.0550   -2.1184   -0.4526 C   0  0  0  0  0  0  0  0  0  0  0  0
    0.2908   -1.7917   -0.5400 C   0  0  0  0  0  0  0  0  0  0  0  0
    0.7017   -0.4552   -0.4314 C   0  0  0  0  0  0  0  0  0  0  0  0
   -0.2572    0.5376   -0.2331 C   0  0  0  0  0  0  0  0  0  0  0  0
   -1.6166    0.2113   -0.1458 C   0  0  0  0  0  0  0  0  0  0  0  0
   -2.0221   -1.1208   -0.2554 C   0  0  0  0  0  0  0  0  0  0  0  0
   -1.3850   -3.1489   -0.5371 H   0  0  0  0  0  0  0  0  0  0  0  0
    1.0421   -2.5592   -0.6944 H   0  0  0  0  0  0  0  0  0  0  0  0
    0.0468    1.5780   -0.1422 H   0  0  0  0  0  0  0  0  0  0  0  0
   -2.3371    1.0056    0.0087 H   0  0  0  0  0  0  0  0  0  0  0  0
    2.6973    2.8539   -1.2194 N   0  0  0  0  0  0  0  0  0  0  0  0
    2.9905    3.7769   -1.7504 N   0  0  0  0  0  0  0  0  0  0  0  0
   -3.3212   -1.5543   -0.1853 O   0  0  0  0  0  0  0  0  0  0  0  0
   -4.3328   -0.5830    0.0026 C   0  0  0  0  0  0  0  0  0  0  0  0
   -5.2782   -1.1277    0.0256 H   0  0  0  0  0  0  0  0  0  0  0  0
   -4.3580    0.1450   -0.8204 H   0  0  0  0  0  0  0  0  0  0  0  0
   -4.2083   -0.0416    0.9506 H   0  0  0  0  0  0  0  0  0  0  0  0
    2.0435   -0.1979   -0.5234 O   0  0  0  0  0  0  0  0  0  0  0  0
    2.1909    0.7550   -0.4668 H   0  0  0  0  0  0  0  0  0  0  0  0
  1  6  1  0  0  0  0
  2  1  2  0  0  0  0
  2  3  1  0  0  0  0
  3  4  2  0  0  0  0
  4  5  1  0  0  0  0
  4  9  1  0  0  0  0
  5 10  1  0  0  0  0
  6 13  1  0  0  0  0
  6  5  2  0  0  0  0
  7  1  1  0  0  0  0
  8  2  1  0  0  0  0
 12 11  3  0  0  0  0
 13 14  1  0  0  0  0
 14 15  1  0  0  0  0
 14 17  1  0  0  0  0
 16 14  1  0  0  0  0
 18 19  1  0  0  0  0
 18  3  1  0  0  0  0
M  END
