Coordinates from ORCA-job 4-MeO-Ph-N2-OH-B3LYPG-6-31G_dp-MTMO-d009-169-n800
 OpenBabel09051907473D

 19 18  0  0  0  0  0  0  0  0999 V2000
   -1.6941   -2.7145   -0.2123 C   0  0  0  0  0  0  0  0  0  0  0  0
   -0.3462   -2.5026   -0.4633 C   0  0  0  0  0  0  0  0  0  0  0  0
    0.1387   -1.2006   -0.6493 C   0  0  0  0  0  0  0  0  0  0  0  0
   -0.7458   -0.1259   -0.5808 C   0  0  0  0  0  0  0  0  0  0  0  0
   -2.1071   -0.3365   -0.3280 C   0  0  0  0  0  0  0  0  0  0  0  0
   -2.5879   -1.6346   -0.1420 C   0  0  0  0  0  0  0  0  0  0  0  0
   -2.0827   -3.7170   -0.0653 H   0  0  0  0  0  0  0  0  0  0  0  0
    0.3484   -3.3342   -0.5194 H   0  0  0  0  0  0  0  0  0  0  0  0
   -0.3813    0.8893   -0.7254 H   0  0  0  0  0  0  0  0  0  0  0  0
   -2.7696    0.5198   -0.2817 H   0  0  0  0  0  0  0  0  0  0  0  0
    7.0925    7.7283   -1.2459 N   0  0  0  0  0  0  0  0  0  0  0  0
    7.8379    8.5445   -1.2428 N   0  0  0  0  0  0  0  0  0  0  0  0
   -3.8954   -1.9586    0.1107 O   0  0  0  0  0  0  0  0  0  0  0  0
   -4.8359   -0.9040    0.1881 C   0  0  0  0  0  0  0  0  0  0  0  0
   -5.8008   -1.3709    0.3927 H   0  0  0  0  0  0  0  0  0  0  0  0
   -4.9010   -0.3452   -0.7557 H   0  0  0  0  0  0  0  0  0  0  0  0
   -4.5972   -0.2030    0.9995 H   0  0  0  0  0  0  0  0  0  0  0  0
    1.4805   -1.0544   -0.8928 O   0  0  0  0  0  0  0  0  0  0  0  0
    1.6792   -0.1153   -0.9966 H   0  0  0  0  0  0  0  0  0  0  0  0
  1  6  1  0  0  0  0
  1  7  1  0  0  0  0
  2  1  2  0  0  0  0
  3  4  2  0  0  0  0
  3  2  1  0  0  0  0
  4  5  1  0  0  0  0
  5 10  1  0  0  0  0
  5  6  2  0  0  0  0
  6 13  1  0  0  0  0
  8  2  1  0  0  0  0
  9  4  1  0  0  0  0
 11 12  3  0  0  0  0
 13 14  1  0  0  0  0
 14 15  1  0  0  0  0
 14 17  1  0  0  0  0
 16 14  1  0  0  0  0
 18  3  1  0  0  0  0
 19 18  1  0  0  0  0
M  END
