Coordinates from ORCA-job 4-MeO-Ph-N2-OH-B3LYPG-6-31G_dp-MTMO-d009-169-n800
 OpenBabel09051907473D

 19 18  0  0  0  0  0  0  0  0999 V2000
   -1.5061   -2.5308   -0.2247 C   0  0  0  0  0  0  0  0  0  0  0  0
   -0.1596   -2.3129   -0.4785 C   0  0  0  0  0  0  0  0  0  0  0  0
    0.3181   -1.0092   -0.6710 C   0  0  0  0  0  0  0  0  0  0  0  0
   -0.5719    0.0611   -0.6060 C   0  0  0  0  0  0  0  0  0  0  0  0
   -1.9317   -0.1555   -0.3503 C   0  0  0  0  0  0  0  0  0  0  0  0
   -2.4055   -1.4553   -0.1579 C   0  0  0  0  0  0  0  0  0  0  0  0
   -1.8892   -3.5347   -0.0727 H   0  0  0  0  0  0  0  0  0  0  0  0
    0.5392   -3.1412   -0.5320 H   0  0  0  0  0  0  0  0  0  0  0  0
   -0.2130    1.0776   -0.7556 H   0  0  0  0  0  0  0  0  0  0  0  0
   -2.5987    0.6974   -0.3068 H   0  0  0  0  0  0  0  0  0  0  0  0
    5.5746    6.1724   -1.0972 N   0  0  0  0  0  0  0  0  0  0  0  0
    6.2987    7.0069   -1.0689 N   0  0  0  0  0  0  0  0  0  0  0  0
   -3.7109   -1.7851    0.0978 O   0  0  0  0  0  0  0  0  0  0  0  0
   -4.6569   -0.7352    0.1718 C   0  0  0  0  0  0  0  0  0  0  0  0
   -5.6192   -1.2063    0.3793 H   0  0  0  0  0  0  0  0  0  0  0  0
   -4.7258   -0.1806   -0.7743 H   0  0  0  0  0  0  0  0  0  0  0  0
   -4.4211   -0.0295    0.9800 H   0  0  0  0  0  0  0  0  0  0  0  0
    1.6588   -0.8571   -0.9171 O   0  0  0  0  0  0  0  0  0  0  0  0
    1.8523    0.0826   -1.0262 H   0  0  0  0  0  0  0  0  0  0  0  0
  1  6  1  0  0  0  0
  1  7  1  0  0  0  0
  2  1  2  0  0  0  0
  3  4  2  0  0  0  0
  3  2  1  0  0  0  0
  4  5  1  0  0  0  0
  5 10  1  0  0  0  0
  5  6  2  0  0  0  0
  6 13  1  0  0  0  0
  8  2  1  0  0  0  0
  9  4  1  0  0  0  0
 11 12  3  0  0  0  0
 13 14  1  0  0  0  0
 14 15  1  0  0  0  0
 14 17  1  0  0  0  0
 16 14  1  0  0  0  0
 18  3  1  0  0  0  0
 19 18  1  0  0  0  0
M  END
