Coordinates from ORCA-job 4-MeO-Ph-N2-OH-B3LYPG-6-31G_dp-MTMO-d009-169-n800
 OpenBabel09051907473D

 19 18  0  0  0  0  0  0  0  0999 V2000
   -1.7017   -2.7220   -0.2117 C   0  0  0  0  0  0  0  0  0  0  0  0
   -0.3538   -2.5102   -0.4626 C   0  0  0  0  0  0  0  0  0  0  0  0
    0.1312   -1.2082   -0.6484 C   0  0  0  0  0  0  0  0  0  0  0  0
   -0.7532   -0.1335   -0.5798 C   0  0  0  0  0  0  0  0  0  0  0  0
   -2.1145   -0.3439   -0.3271 C   0  0  0  0  0  0  0  0  0  0  0  0
   -2.5954   -1.6420   -0.1413 C   0  0  0  0  0  0  0  0  0  0  0  0
   -2.0905   -3.7245   -0.0648 H   0  0  0  0  0  0  0  0  0  0  0  0
    0.3407   -3.3419   -0.5188 H   0  0  0  0  0  0  0  0  0  0  0  0
   -0.3886    0.8818   -0.7243 H   0  0  0  0  0  0  0  0  0  0  0  0
   -2.7770    0.5123   -0.2808 H   0  0  0  0  0  0  0  0  0  0  0  0
    7.1560    7.7920   -1.2523 N   0  0  0  0  0  0  0  0  0  0  0  0
    7.9017    8.6079   -1.2496 N   0  0  0  0  0  0  0  0  0  0  0  0
   -3.9029   -1.9660    0.1113 O   0  0  0  0  0  0  0  0  0  0  0  0
   -4.8434   -0.9113    0.1888 C   0  0  0  0  0  0  0  0  0  0  0  0
   -5.8084   -1.3781    0.3934 H   0  0  0  0  0  0  0  0  0  0  0  0
   -4.9084   -0.3524   -0.7550 H   0  0  0  0  0  0  0  0  0  0  0  0
   -4.6047   -0.2104    1.0003 H   0  0  0  0  0  0  0  0  0  0  0  0
    1.4731   -1.0621   -0.8918 O   0  0  0  0  0  0  0  0  0  0  0  0
    1.6719   -0.1230   -0.9955 H   0  0  0  0  0  0  0  0  0  0  0  0
  1  6  1  0  0  0  0
  1  7  1  0  0  0  0
  2  1  2  0  0  0  0
  3  4  2  0  0  0  0
  3  2  1  0  0  0  0
  4  5  1  0  0  0  0
  5 10  1  0  0  0  0
  5  6  2  0  0  0  0
  6 13  1  0  0  0  0
  8  2  1  0  0  0  0
  9  4  1  0  0  0  0
 11 12  3  0  0  0  0
 13 14  1  0  0  0  0
 14 15  1  0  0  0  0
 14 17  1  0  0  0  0
 16 14  1  0  0  0  0
 18  3  1  0  0  0  0
 19 18  1  0  0  0  0
M  END
