Coordinates from ORCA-job 4-MeO-Ph-N2-OH-B3LYPG-6-31G_dp-MTMO-d009-169-n800
 OpenBabel09051907473D

 19 18  0  0  0  0  0  0  0  0999 V2000
   -2.0645   -3.0805   -0.1768 C   0  0  0  0  0  0  0  0  0  0  0  0
   -0.7160   -2.8716   -0.4270 C   0  0  0  0  0  0  0  0  0  0  0  0
   -0.2279   -1.5705   -0.6110 C   0  0  0  0  0  0  0  0  0  0  0  0
   -1.1098   -0.4938   -0.5415 C   0  0  0  0  0  0  0  0  0  0  0  0
   -2.4717   -0.7013   -0.2895 C   0  0  0  0  0  0  0  0  0  0  0  0
   -2.9558   -1.9985   -0.1054 C   0  0  0  0  0  0  0  0  0  0  0  0
   -2.4557   -4.0823   -0.0313 H   0  0  0  0  0  0  0  0  0  0  0  0
   -0.0235   -3.7049   -0.4840 H   0  0  0  0  0  0  0  0  0  0  0  0
   -0.7428    0.5208   -0.6845 H   0  0  0  0  0  0  0  0  0  0  0  0
   -3.1322    0.1564   -0.2423 H   0  0  0  0  0  0  0  0  0  0  0  0
   10.2040   10.8383   -1.5622 N   0  0  0  0  0  0  0  0  0  0  0  0
   10.9599   11.6448   -1.5649 N   0  0  0  0  0  0  0  0  0  0  0  0
   -4.2641   -2.3197    0.1463 O   0  0  0  0  0  0  0  0  0  0  0  0
   -5.2021   -1.2629    0.2251 C   0  0  0  0  0  0  0  0  0  0  0  0
   -6.1681   -1.7277    0.4290 H   0  0  0  0  0  0  0  0  0  0  0  0
   -5.2657   -0.7027   -0.7180 H   0  0  0  0  0  0  0  0  0  0  0  0
   -4.9617   -0.5635    1.0374 H   0  0  0  0  0  0  0  0  0  0  0  0
    1.1144   -1.4273   -0.8537 O   0  0  0  0  0  0  0  0  0  0  0  0
    1.3155   -0.4885   -0.9560 H   0  0  0  0  0  0  0  0  0  0  0  0
  1  6  1  0  0  0  0
  1  7  1  0  0  0  0
  2  1  2  0  0  0  0
  3  4  2  0  0  0  0
  3  2  1  0  0  0  0
  4  5  1  0  0  0  0
  5 10  1  0  0  0  0
  5  6  2  0  0  0  0
  6 13  1  0  0  0  0
  8  2  1  0  0  0  0
  9  4  1  0  0  0  0
 12 11  3  0  0  0  0
 13 14  1  0  0  0  0
 14 15  1  0  0  0  0
 14 17  1  0  0  0  0
 16 14  1  0  0  0  0
 18  3  1  0  0  0  0
 19 18  1  0  0  0  0
M  END
