Coordinates from ORCA-job 4-MeO-Ph-N2-OH-B3LYPG-6-31G_dp-MTMO-d009-169-n800
 OpenBabel09051907473D

 19 18  0  0  0  0  0  0  0  0999 V2000
   -1.3843   -2.4166   -0.2253 C   0  0  0  0  0  0  0  0  0  0  0  0
   -0.0422   -2.1779   -0.4832 C   0  0  0  0  0  0  0  0  0  0  0  0
    0.4132   -0.8678   -0.6858 C   0  0  0  0  0  0  0  0  0  0  0  0
   -0.4946    0.1879   -0.6266 C   0  0  0  0  0  0  0  0  0  0  0  0
   -1.8501   -0.0497   -0.3666 C   0  0  0  0  0  0  0  0  0  0  0  0
   -2.3016   -1.3559   -0.1643 C   0  0  0  0  0  0  0  0  0  0  0  0
   -1.7502   -3.4257   -0.0652 H   0  0  0  0  0  0  0  0  0  0  0  0
    0.6704   -2.9946   -0.5321 H   0  0  0  0  0  0  0  0  0  0  0  0
   -0.1531    1.2092   -0.7842 H   0  0  0  0  0  0  0  0  0  0  0  0
   -2.5311    0.7922   -0.3275 H   0  0  0  0  0  0  0  0  0  0  0  0
    4.7760    5.2335   -1.0229 N   0  0  0  0  0  0  0  0  0  0  0  0
    5.4679    6.0931   -0.9589 N   0  0  0  0  0  0  0  0  0  0  0  0
   -3.6008   -1.7058    0.0963 O   0  0  0  0  0  0  0  0  0  0  0  0
   -4.5644   -0.6715    0.1641 C   0  0  0  0  0  0  0  0  0  0  0  0
   -5.5184   -1.1574    0.3753 H   0  0  0  0  0  0  0  0  0  0  0  0
   -4.6433   -0.1244   -0.7856 H   0  0  0  0  0  0  0  0  0  0  0  0
   -4.3401    0.0433    0.9674 H   0  0  0  0  0  0  0  0  0  0  0  0
    1.7506   -0.6947   -0.9356 O   0  0  0  0  0  0  0  0  0  0  0  0
    1.9284    0.2474   -1.0496 H   0  0  0  0  0  0  0  0  0  0  0  0
  1  6  1  0  0  0  0
  1  7  1  0  0  0  0
  2  1  2  0  0  0  0
  3  4  2  0  0  0  0
  3  2  1  0  0  0  0
  4  5  1  0  0  0  0
  5 10  1  0  0  0  0
  5  6  2  0  0  0  0
  6 13  1  0  0  0  0
  8  2  1  0  0  0  0
  9  4  1  0  0  0  0
 11 12  3  0  0  0  0
 13 14  1  0  0  0  0
 14 15  1  0  0  0  0
 14 17  1  0  0  0  0
 16 14  1  0  0  0  0
 18  3  1  0  0  0  0
 19 18  1  0  0  0  0
M  END
