Coordinates from ORCA-job 4-MeO-Ph-N2-OH-B3LYPG-6-31G_dp-MTMO-d009-169-n800
 OpenBabel09051907463D

 19 18  0  0  0  0  0  0  0  0999 V2000
   -0.8578   -1.7640   -0.8820 C   0  0  0  0  0  0  0  0  0  0  0  0
    0.4829   -1.4648   -0.6856 C   0  0  0  0  0  0  0  0  0  0  0  0
    0.8524   -0.2886   -0.0186 C   0  0  0  0  0  0  0  0  0  0  0  0
   -0.1402    0.5738    0.4450 C   0  0  0  0  0  0  0  0  0  0  0  0
   -1.4942    0.2775    0.2444 C   0  0  0  0  0  0  0  0  0  0  0  0
   -1.8594   -0.8957   -0.4203 C   0  0  0  0  0  0  0  0  0  0  0  0
   -1.1575   -2.6718   -1.3953 H   0  0  0  0  0  0  0  0  0  0  0  0
    1.2608   -2.1320   -1.0417 H   0  0  0  0  0  0  0  0  0  0  0  0
    0.1340    1.4878    0.9672 H   0  0  0  0  0  0  0  0  0  0  0  0
   -2.2425    0.9684    0.6134 H   0  0  0  0  0  0  0  0  0  0  0  0
    1.6494    1.9548   -1.8153 N   0  0  0  0  0  0  0  0  0  0  0  0
    1.4999    1.8149   -2.9015 N   0  0  0  0  0  0  0  0  0  0  0  0
   -3.1488   -1.2868   -0.6701 O   0  0  0  0  0  0  0  0  0  0  0  0
   -4.1955   -0.4500   -0.2131 C   0  0  0  0  0  0  0  0  0  0  0  0
   -5.1259   -0.9406   -0.5044 H   0  0  0  0  0  0  0  0  0  0  0  0
   -4.1550    0.5445   -0.6773 H   0  0  0  0  0  0  0  0  0  0  0  0
   -4.1768   -0.3335    0.8792 H   0  0  0  0  0  0  0  0  0  0  0  0
    2.1925   -0.0609    0.1591 O   0  0  0  0  0  0  0  0  0  0  0  0
    2.3136    0.8316    0.5068 H   0  0  0  0  0  0  0  0  0  0  0  0
  1  2  2  0  0  0  0
  1  6  1  0  0  0  0
  2  3  1  0  0  0  0
  3 18  1  0  0  0  0
  3  4  2  0  0  0  0
  4  9  1  0  0  0  0
  5  4  1  0  0  0  0
  5 10  1  0  0  0  0
  6  5  2  0  0  0  0
  7  1  1  0  0  0  0
  8  2  1  0  0  0  0
 12 11  3  0  0  0  0
 13  6  1  0  0  0  0
 13 14  1  0  0  0  0
 14 17  1  0  0  0  0
 15 14  1  0  0  0  0
 16 14  1  0  0  0  0
 18 19  1  0  0  0  0
M  END
