Coordinates from ORCA-job 4-MeO-Ph-N2-OH-B3LYPG-6-31G_dp-MTMO-d009-169-n800
 OpenBabel09051907473D

 19 18  0  0  0  0  0  0  0  0999 V2000
   -1.6205   -2.6422   -0.2177 C   0  0  0  0  0  0  0  0  0  0  0  0
   -0.2730   -2.4292   -0.4696 C   0  0  0  0  0  0  0  0  0  0  0  0
    0.2103   -1.1269   -0.6578 C   0  0  0  0  0  0  0  0  0  0  0  0
   -0.6753   -0.0531   -0.5904 C   0  0  0  0  0  0  0  0  0  0  0  0
   -2.0362   -0.2648   -0.3366 C   0  0  0  0  0  0  0  0  0  0  0  0
   -2.5155   -1.5632   -0.1485 C   0  0  0  0  0  0  0  0  0  0  0  0
   -2.0080   -3.6450   -0.0690 H   0  0  0  0  0  0  0  0  0  0  0  0
    0.4225   -3.2601   -0.5249 H   0  0  0  0  0  0  0  0  0  0  0  0
   -0.3120    0.9623   -0.7367 H   0  0  0  0  0  0  0  0  0  0  0  0
   -2.6997    0.5907   -0.2913 H   0  0  0  0  0  0  0  0  0  0  0  0
    6.4844    7.1152   -1.1847 N   0  0  0  0  0  0  0  0  0  0  0  0
    7.2252    7.9355   -1.1757 N   0  0  0  0  0  0  0  0  0  0  0  0
   -3.8225   -1.8883    0.1052 O   0  0  0  0  0  0  0  0  0  0  0  0
   -4.7642   -0.8347    0.1816 C   0  0  0  0  0  0  0  0  0  0  0  0
   -5.7285   -1.3023    0.3872 H   0  0  0  0  0  0  0  0  0  0  0  0
   -4.8303   -0.2772   -0.7631 H   0  0  0  0  0  0  0  0  0  0  0  0
   -4.5260   -0.1322    0.9918 H   0  0  0  0  0  0  0  0  0  0  0  0
    1.5519   -0.9796   -0.9022 O   0  0  0  0  0  0  0  0  0  0  0  0
    1.7495   -0.0404   -1.0078 H   0  0  0  0  0  0  0  0  0  0  0  0
  1  6  1  0  0  0  0
  1  7  1  0  0  0  0
  2  1  2  0  0  0  0
  3  4  2  0  0  0  0
  3  2  1  0  0  0  0
  4  5  1  0  0  0  0
  5 10  1  0  0  0  0
  5  6  2  0  0  0  0
  6 13  1  0  0  0  0
  8  2  1  0  0  0  0
  9  4  1  0  0  0  0
 11 12  3  0  0  0  0
 13 14  1  0  0  0  0
 14 15  1  0  0  0  0
 14 17  1  0  0  0  0
 16 14  1  0  0  0  0
 18  3  1  0  0  0  0
 19 18  1  0  0  0  0
M  END
