Coordinates from ORCA-job 4-MeO-Ph-N2-OH-B3LYPG-6-31G_dp-MTMO-d009-169-n800
 OpenBabel09051907473D

 19 18  0  0  0  0  0  0  0  0999 V2000
   -1.4947   -2.5199   -0.2252 C   0  0  0  0  0  0  0  0  0  0  0  0
   -0.1485   -2.3011   -0.4793 C   0  0  0  0  0  0  0  0  0  0  0  0
    0.3282   -0.9970   -0.6723 C   0  0  0  0  0  0  0  0  0  0  0  0
   -0.5627    0.0726   -0.6076 C   0  0  0  0  0  0  0  0  0  0  0  0
   -1.9223   -0.1450   -0.3517 C   0  0  0  0  0  0  0  0  0  0  0  0
   -2.3949   -1.4451   -0.1588 C   0  0  0  0  0  0  0  0  0  0  0  0
   -1.8770   -3.5241   -0.0727 H   0  0  0  0  0  0  0  0  0  0  0  0
    0.5510   -3.1287   -0.5325 H   0  0  0  0  0  0  0  0  0  0  0  0
   -0.2045    1.0893   -0.7576 H   0  0  0  0  0  0  0  0  0  0  0  0
   -2.5899    0.7074   -0.3084 H   0  0  0  0  0  0  0  0  0  0  0  0
    5.4897    6.0807   -1.0894 N   0  0  0  0  0  0  0  0  0  0  0  0
    6.2113    6.9173   -1.0583 N   0  0  0  0  0  0  0  0  0  0  0  0
   -3.7001   -1.7758    0.0973 O   0  0  0  0  0  0  0  0  0  0  0  0
   -4.6470   -0.7266    0.1709 C   0  0  0  0  0  0  0  0  0  0  0  0
   -5.6088   -1.1984    0.3786 H   0  0  0  0  0  0  0  0  0  0  0  0
   -4.7163   -0.1725   -0.7754 H   0  0  0  0  0  0  0  0  0  0  0  0
   -4.4117   -0.0205    0.9788 H   0  0  0  0  0  0  0  0  0  0  0  0
    1.6687   -0.8439   -0.9186 O   0  0  0  0  0  0  0  0  0  0  0  0
    1.8615    0.0959   -1.0280 H   0  0  0  0  0  0  0  0  0  0  0  0
  1  6  1  0  0  0  0
  1  7  1  0  0  0  0
  2  1  2  0  0  0  0
  3  4  2  0  0  0  0
  3  2  1  0  0  0  0
  4  5  1  0  0  0  0
  5 10  1  0  0  0  0
  5  6  2  0  0  0  0
  6 13  1  0  0  0  0
  8  2  1  0  0  0  0
  9  4  1  0  0  0  0
 11 12  3  0  0  0  0
 13 14  1  0  0  0  0
 14 15  1  0  0  0  0
 14 17  1  0  0  0  0
 16 14  1  0  0  0  0
 18  3  1  0  0  0  0
 19 18  1  0  0  0  0
M  END
