Coordinates from ORCA-job 4-MeO-Ph-N2-OH-B3LYPG-6-31G_dp-MTMO-d009-169-n800
 OpenBabel09051907473D

 19 18  0  0  0  0  0  0  0  0999 V2000
   -1.8414   -2.8598   -0.1997 C   0  0  0  0  0  0  0  0  0  0  0  0
   -0.4931   -2.6492   -0.4496 C   0  0  0  0  0  0  0  0  0  0  0  0
   -0.0064   -1.3476   -0.6332 C   0  0  0  0  0  0  0  0  0  0  0  0
   -0.8896   -0.2719   -0.5634 C   0  0  0  0  0  0  0  0  0  0  0  0
   -2.2513   -0.4811   -0.3117 C   0  0  0  0  0  0  0  0  0  0  0  0
   -2.7339   -1.7788   -0.1280 C   0  0  0  0  0  0  0  0  0  0  0  0
   -2.2314   -3.8621   -0.0545 H   0  0  0  0  0  0  0  0  0  0  0  0
    0.2004   -3.4817   -0.5067 H   0  0  0  0  0  0  0  0  0  0  0  0
   -0.5237    0.7432   -0.7061 H   0  0  0  0  0  0  0  0  0  0  0  0
   -2.9127    0.3759   -0.2644 H   0  0  0  0  0  0  0  0  0  0  0  0
    8.3257    8.9611   -1.3709 N   0  0  0  0  0  0  0  0  0  0  0  0
    9.0744    9.7742   -1.3736 N   0  0  0  0  0  0  0  0  0  0  0  0
   -4.0419   -2.1016    0.1234 O   0  0  0  0  0  0  0  0  0  0  0  0
   -4.9811   -1.0459    0.2021 C   0  0  0  0  0  0  0  0  0  0  0  0
   -5.9467   -1.5119    0.4056 H   0  0  0  0  0  0  0  0  0  0  0  0
   -5.0451   -0.4855   -0.7409 H   0  0  0  0  0  0  0  0  0  0  0  0
   -4.7418   -0.3465    1.0147 H   0  0  0  0  0  0  0  0  0  0  0  0
    1.3357   -1.2027   -0.8757 O   0  0  0  0  0  0  0  0  0  0  0  0
    1.5358   -0.2637   -0.9776 H   0  0  0  0  0  0  0  0  0  0  0  0
  1  6  1  0  0  0  0
  1  7  1  0  0  0  0
  2  1  2  0  0  0  0
  3  4  2  0  0  0  0
  3  2  1  0  0  0  0
  4  5  1  0  0  0  0
  5 10  1  0  0  0  0
  5  6  2  0  0  0  0
  6 13  1  0  0  0  0
  8  2  1  0  0  0  0
  9  4  1  0  0  0  0
 12 11  3  0  0  0  0
 13 14  1  0  0  0  0
 14 15  1  0  0  0  0
 14 17  1  0  0  0  0
 16 14  1  0  0  0  0
 18  3  1  0  0  0  0
 19 18  1  0  0  0  0
M  END
