Coordinates from ORCA-job 4-MeO-Ph-N2-OH-B3LYPG-6-31G_dp-MTMO-d009-169-n800
 OpenBabel09051907473D

 19 18  0  0  0  0  0  0  0  0999 V2000
   -1.1951   -2.2435   -0.2036 C   0  0  0  0  0  0  0  0  0  0  0  0
    0.1294   -1.9330   -0.4761 C   0  0  0  0  0  0  0  0  0  0  0  0
    0.5059   -0.6040   -0.7146 C   0  0  0  0  0  0  0  0  0  0  0  0
   -0.4622    0.3976   -0.6764 C   0  0  0  0  0  0  0  0  0  0  0  0
   -1.8000    0.0876   -0.4014 C   0  0  0  0  0  0  0  0  0  0  0  0
   -2.1727   -1.2373   -0.1634 C   0  0  0  0  0  0  0  0  0  0  0  0
   -1.4999   -3.2680   -0.0154 H   0  0  0  0  0  0  0  0  0  0  0  0
    0.8889   -2.7073   -0.5085 H   0  0  0  0  0  0  0  0  0  0  0  0
   -0.1820    1.4327   -0.8628 H   0  0  0  0  0  0  0  0  0  0  0  0
   -2.5291    0.8887   -0.3783 H   0  0  0  0  0  0  0  0  0  0  0  0
    3.9387    3.9489   -0.9274 N   0  0  0  0  0  0  0  0  0  0  0  0
    4.6109    4.8171   -0.8018 N   0  0  0  0  0  0  0  0  0  0  0  0
   -3.4480   -1.6561    0.1141 O   0  0  0  0  0  0  0  0  0  0  0  0
   -4.4709   -0.6793    0.1604 C   0  0  0  0  0  0  0  0  0  0  0  0
   -5.3941   -1.2157    0.3859 H   0  0  0  0  0  0  0  0  0  0  0  0
   -4.5839   -0.1605   -0.8015 H   0  0  0  0  0  0  0  0  0  0  0  0
   -4.2881    0.0666    0.9459 H   0  0  0  0  0  0  0  0  0  0  0  0
    1.8294   -0.3593   -0.9768 O   0  0  0  0  0  0  0  0  0  0  0  0
    1.9548    0.5892   -1.1085 H   0  0  0  0  0  0  0  0  0  0  0  0
  1  6  1  0  0  0  0
  1  7  1  0  0  0  0
  2  1  2  0  0  0  0
  3  4  2  0  0  0  0
  3  2  1  0  0  0  0
  4  5  1  0  0  0  0
  5 10  1  0  0  0  0
  5  6  2  0  0  0  0
  6 13  1  0  0  0  0
  8  2  1  0  0  0  0
  9  4  1  0  0  0  0
 11 12  3  0  0  0  0
 13 14  1  0  0  0  0
 14 15  1  0  0  0  0
 14 17  1  0  0  0  0
 16 14  1  0  0  0  0
 18  3  1  0  0  0  0
 19 18  1  0  0  0  0
M  END
