Coordinates from ORCA-job 4-MeO-Ph-N2-OH-B3LYPG-6-31G_dp-MTMO-d009-169-n800
 OpenBabel09051907473D

 19 18  0  0  0  0  0  0  0  0999 V2000
   -1.0615   -2.1281   -0.2620 C   0  0  0  0  0  0  0  0  0  0  0  0
    0.2544   -1.7518   -0.4893 C   0  0  0  0  0  0  0  0  0  0  0  0
    0.5821   -0.3985   -0.6529 C   0  0  0  0  0  0  0  0  0  0  0  0
   -0.4272    0.5608   -0.5864 C   0  0  0  0  0  0  0  0  0  0  0  0
   -1.7566    0.1841   -0.3569 C   0  0  0  0  0  0  0  0  0  0  0  0
   -2.0798   -1.1648   -0.1932 C   0  0  0  0  0  0  0  0  0  0  0  0
   -1.3282   -3.1722   -0.1319 H   0  0  0  0  0  0  0  0  0  0  0  0
    1.0454   -2.4926   -0.5436 H   0  0  0  0  0  0  0  0  0  0  0  0
   -0.1857    1.6142   -0.7147 H   0  0  0  0  0  0  0  0  0  0  0  0
   -2.5184    0.9531   -0.3101 H   0  0  0  0  0  0  0  0  0  0  0  0
    3.2715    3.0761   -0.9577 N   0  0  0  0  0  0  0  0  0  0  0  0
    3.9831    3.9203   -0.9211 N   0  0  0  0  0  0  0  0  0  0  0  0
   -3.3426   -1.6472    0.0357 O   0  0  0  0  0  0  0  0  0  0  0  0
   -4.4044   -0.7150    0.1086 C   0  0  0  0  0  0  0  0  0  0  0  0
   -5.3096   -1.2976    0.2878 H   0  0  0  0  0  0  0  0  0  0  0  0
   -4.5199   -0.1529   -0.8286 H   0  0  0  0  0  0  0  0  0  0  0  0
   -4.2667   -0.0027    0.9337 H   0  0  0  0  0  0  0  0  0  0  0  0
    1.8989   -0.0893   -0.8730 O   0  0  0  0  0  0  0  0  0  0  0  0
    1.9974    0.8687   -0.9544 H   0  0  0  0  0  0  0  0  0  0  0  0
  1  6  1  0  0  0  0
  1  7  1  0  0  0  0
  2  1  2  0  0  0  0
  3  4  2  0  0  0  0
  3  2  1  0  0  0  0
  4  5  1  0  0  0  0
  5 10  1  0  0  0  0
  5  6  2  0  0  0  0
  6 13  1  0  0  0  0
  8  2  1  0  0  0  0
  9  4  1  0  0  0  0
 11 12  3  0  0  0  0
 13 14  1  0  0  0  0
 14 15  1  0  0  0  0
 14 17  1  0  0  0  0
 16 14  1  0  0  0  0
 18  3  1  0  0  0  0
 19 18  1  0  0  0  0
M  END
