Coordinates from ORCA-job 4-MeO-Ph-N2-OH-B3LYPG-6-31G_dp-MTMO-d009-169-n800
 OpenBabel09051907473D

 19 18  0  0  0  0  0  0  0  0999 V2000
   -1.7535   -2.7730   -0.2075 C   0  0  0  0  0  0  0  0  0  0  0  0
   -0.4054   -2.5618   -0.4579 C   0  0  0  0  0  0  0  0  0  0  0  0
    0.0804   -1.2599   -0.6426 C   0  0  0  0  0  0  0  0  0  0  0  0
   -0.8035   -0.1847   -0.5734 C   0  0  0  0  0  0  0  0  0  0  0  0
   -2.1649   -0.3946   -0.3212 C   0  0  0  0  0  0  0  0  0  0  0  0
   -2.6466   -1.6926   -0.1365 C   0  0  0  0  0  0  0  0  0  0  0  0
   -2.1428   -3.7754   -0.0615 H   0  0  0  0  0  0  0  0  0  0  0  0
    0.2887   -3.3938   -0.5146 H   0  0  0  0  0  0  0  0  0  0  0  0
   -0.4383    0.8304   -0.7170 H   0  0  0  0  0  0  0  0  0  0  0  0
   -2.8269    0.4620   -0.2744 H   0  0  0  0  0  0  0  0  0  0  0  0
    7.5880    8.2247   -1.2962 N   0  0  0  0  0  0  0  0  0  0  0  0
    8.3352    9.0391   -1.2960 N   0  0  0  0  0  0  0  0  0  0  0  0
   -3.9544   -2.0160    0.1155 O   0  0  0  0  0  0  0  0  0  0  0  0
   -4.8943   -0.9609    0.1936 C   0  0  0  0  0  0  0  0  0  0  0  0
   -5.8595   -1.4273    0.3976 H   0  0  0  0  0  0  0  0  0  0  0  0
   -4.9588   -0.4012   -0.7498 H   0  0  0  0  0  0  0  0  0  0  0  0
   -4.6553   -0.2607    1.0056 H   0  0  0  0  0  0  0  0  0  0  0  0
    1.4224   -1.1144   -0.8856 O   0  0  0  0  0  0  0  0  0  0  0  0
    1.6218   -0.1753   -0.9884 H   0  0  0  0  0  0  0  0  0  0  0  0
  1  6  1  0  0  0  0
  1  7  1  0  0  0  0
  2  1  2  0  0  0  0
  3  4  2  0  0  0  0
  3  2  1  0  0  0  0
  4  5  1  0  0  0  0
  5 10  1  0  0  0  0
  5  6  2  0  0  0  0
  6 13  1  0  0  0  0
  8  2  1  0  0  0  0
  9  4  1  0  0  0  0
 11 12  3  0  0  0  0
 13 14  1  0  0  0  0
 14 15  1  0  0  0  0
 14 17  1  0  0  0  0
 16 14  1  0  0  0  0
 18  3  1  0  0  0  0
 19 18  1  0  0  0  0
M  END
