Coordinates from ORCA-job 4-MeO-Ph-N2-OH-B3LYPG-6-31G_dp-MTMO-d009-169-n800
 OpenBabel09051907473D

 19 18  0  0  0  0  0  0  0  0999 V2000
   -1.3939   -2.4253   -0.2258 C   0  0  0  0  0  0  0  0  0  0  0  0
   -0.0512   -2.1893   -0.4832 C   0  0  0  0  0  0  0  0  0  0  0  0
    0.4070   -0.8799   -0.6845 C   0  0  0  0  0  0  0  0  0  0  0  0
   -0.4985    0.1776   -0.6246 C   0  0  0  0  0  0  0  0  0  0  0  0
   -1.8545   -0.0574   -0.3651 C   0  0  0  0  0  0  0  0  0  0  0  0
   -2.3088   -1.3627   -0.1640 C   0  0  0  0  0  0  0  0  0  0  0  0
   -1.7619   -3.4338   -0.0667 H   0  0  0  0  0  0  0  0  0  0  0  0
    0.6597   -3.0075   -0.5327 H   0  0  0  0  0  0  0  0  0  0  0  0
   -0.1548    1.1983   -0.7812 H   0  0  0  0  0  0  0  0  0  0  0  0
   -2.5338    0.7860   -0.3254 H   0  0  0  0  0  0  0  0  0  0  0  0
    4.8279    5.3027   -1.0281 N   0  0  0  0  0  0  0  0  0  0  0  0
    5.5222    6.1606   -0.9671 N   0  0  0  0  0  0  0  0  0  0  0  0
   -3.6089   -1.7100    0.0959 O   0  0  0  0  0  0  0  0  0  0  0  0
   -4.5703   -0.6738    0.1645 C   0  0  0  0  0  0  0  0  0  0  0  0
   -5.5254   -1.1578    0.3752 H   0  0  0  0  0  0  0  0  0  0  0  0
   -4.6479   -0.1257   -0.7847 H   0  0  0  0  0  0  0  0  0  0  0  0
   -4.3445    0.0399    0.9684 H   0  0  0  0  0  0  0  0  0  0  0  0
    1.7449   -0.7096   -0.9338 O   0  0  0  0  0  0  0  0  0  0  0  0
    1.9247    0.2323   -1.0473 H   0  0  0  0  0  0  0  0  0  0  0  0
  1  6  1  0  0  0  0
  1  7  1  0  0  0  0
  2  1  2  0  0  0  0
  3  4  2  0  0  0  0
  3  2  1  0  0  0  0
  4  5  1  0  0  0  0
  5 10  1  0  0  0  0
  5  6  2  0  0  0  0
  6 13  1  0  0  0  0
  8  2  1  0  0  0  0
  9  4  1  0  0  0  0
 11 12  3  0  0  0  0
 13 14  1  0  0  0  0
 14 15  1  0  0  0  0
 14 17  1  0  0  0  0
 16 14  1  0  0  0  0
 18  3  1  0  0  0  0
 19 18  1  0  0  0  0
M  END
