Coordinates from ORCA-job 4-MeO-Ph-N2-OH-B3LYPG-6-31G_dp-MTMO-d009-169-n800
 OpenBabel09051907473D

 19 18  0  0  0  0  0  0  0  0999 V2000
   -1.7154   -2.7355   -0.2106 C   0  0  0  0  0  0  0  0  0  0  0  0
   -0.3674   -2.5239   -0.4614 C   0  0  0  0  0  0  0  0  0  0  0  0
    0.1177   -1.2219   -0.6469 C   0  0  0  0  0  0  0  0  0  0  0  0
   -0.7665   -0.1471   -0.5781 C   0  0  0  0  0  0  0  0  0  0  0  0
   -2.1278   -0.3574   -0.3255 C   0  0  0  0  0  0  0  0  0  0  0  0
   -2.6090   -1.6554   -0.1400 C   0  0  0  0  0  0  0  0  0  0  0  0
   -2.1043   -3.7380   -0.0640 H   0  0  0  0  0  0  0  0  0  0  0  0
    0.3269   -3.3557   -0.5177 H   0  0  0  0  0  0  0  0  0  0  0  0
   -0.4017    0.8682   -0.7223 H   0  0  0  0  0  0  0  0  0  0  0  0
   -2.7902    0.4990   -0.2790 H   0  0  0  0  0  0  0  0  0  0  0  0
    7.2703    7.9067   -1.2639 N   0  0  0  0  0  0  0  0  0  0  0  0
    8.0165    8.7221   -1.2620 N   0  0  0  0  0  0  0  0  0  0  0  0
   -3.9166   -1.9792    0.1123 O   0  0  0  0  0  0  0  0  0  0  0  0
   -4.8569   -0.9244    0.1901 C   0  0  0  0  0  0  0  0  0  0  0  0
   -5.8219   -1.3911    0.3945 H   0  0  0  0  0  0  0  0  0  0  0  0
   -4.9217   -0.3653   -0.7536 H   0  0  0  0  0  0  0  0  0  0  0  0
   -4.6181   -0.2237    1.0017 H   0  0  0  0  0  0  0  0  0  0  0  0
    1.4596   -1.0760   -0.8901 O   0  0  0  0  0  0  0  0  0  0  0  0
    1.6586   -0.1369   -0.9936 H   0  0  0  0  0  0  0  0  0  0  0  0
  1  6  1  0  0  0  0
  1  7  1  0  0  0  0
  2  1  2  0  0  0  0
  3  4  2  0  0  0  0
  3  2  1  0  0  0  0
  4  5  1  0  0  0  0
  5 10  1  0  0  0  0
  5  6  2  0  0  0  0
  6 13  1  0  0  0  0
  8  2  1  0  0  0  0
  9  4  1  0  0  0  0
 11 12  3  0  0  0  0
 13 14  1  0  0  0  0
 14 15  1  0  0  0  0
 14 17  1  0  0  0  0
 16 14  1  0  0  0  0
 18  3  1  0  0  0  0
 19 18  1  0  0  0  0
M  END
