Coordinates from ORCA-job 4-MeO-Ph-N2-OH-B3LYPG-6-31G_dp-MTMO-d009-169-n800
 OpenBabel09051907473D

 19 18  0  0  0  0  0  0  0  0999 V2000
   -1.1273   -2.1709   -0.2535 C   0  0  0  0  0  0  0  0  0  0  0  0
    0.1821   -1.7699   -0.4770 C   0  0  0  0  0  0  0  0  0  0  0  0
    0.4845   -0.4105   -0.6369 C   0  0  0  0  0  0  0  0  0  0  0  0
   -0.5419    0.5300   -0.5707 C   0  0  0  0  0  0  0  0  0  0  0  0
   -1.8647    0.1285   -0.3449 C   0  0  0  0  0  0  0  0  0  0  0  0
   -2.1632   -1.2265   -0.1847 C   0  0  0  0  0  0  0  0  0  0  0  0
   -1.3750   -3.2199   -0.1261 H   0  0  0  0  0  0  0  0  0  0  0  0
    0.9867   -2.4959   -0.5310 H   0  0  0  0  0  0  0  0  0  0  0  0
   -0.3199    1.5881   -0.6963 H   0  0  0  0  0  0  0  0  0  0  0  0
   -2.6407    0.8831   -0.2981 H   0  0  0  0  0  0  0  0  0  0  0  0
    4.0003    3.5688   -1.0440 N   0  0  0  0  0  0  0  0  0  0  0  0
    4.8379    4.2896   -1.0378 N   0  0  0  0  0  0  0  0  0  0  0  0
   -3.4171   -1.7324    0.0407 O   0  0  0  0  0  0  0  0  0  0  0  0
   -4.4958   -0.8198    0.1163 C   0  0  0  0  0  0  0  0  0  0  0  0
   -5.3902   -1.4194    0.2935 H   0  0  0  0  0  0  0  0  0  0  0  0
   -4.6213   -0.2570   -0.8191 H   0  0  0  0  0  0  0  0  0  0  0  0
   -4.3710   -0.1078    0.9437 H   0  0  0  0  0  0  0  0  0  0  0  0
    1.7968   -0.0767   -0.8529 O   0  0  0  0  0  0  0  0  0  0  0  0
    1.8721    0.8832   -0.9316 H   0  0  0  0  0  0  0  0  0  0  0  0
  1  6  1  0  0  0  0
  1  7  1  0  0  0  0
  2  1  2  0  0  0  0
  3  4  2  0  0  0  0
  3  2  1  0  0  0  0
  4  5  1  0  0  0  0
  5 10  1  0  0  0  0
  5  6  2  0  0  0  0
  6 13  1  0  0  0  0
  8  2  1  0  0  0  0
  9  4  1  0  0  0  0
 11 12  3  0  0  0  0
 13 14  1  0  0  0  0
 14 15  1  0  0  0  0
 14 17  1  0  0  0  0
 16 14  1  0  0  0  0
 18  3  1  0  0  0  0
 19 18  1  0  0  0  0
M  END
