Coordinates from ORCA-job 4-MeO-Ph-N2-OH-B3LYPG-6-31G_dp-MTMO-d009-169-n800
 OpenBabel09051907473D

 19 18  0  0  0  0  0  0  0  0999 V2000
   -2.0991   -3.1148   -0.1731 C   0  0  0  0  0  0  0  0  0  0  0  0
   -0.7506   -2.9061   -0.4234 C   0  0  0  0  0  0  0  0  0  0  0  0
   -0.2623   -1.6051   -0.6077 C   0  0  0  0  0  0  0  0  0  0  0  0
   -1.1440   -0.5282   -0.5383 C   0  0  0  0  0  0  0  0  0  0  0  0
   -2.5059   -0.7355   -0.2862 C   0  0  0  0  0  0  0  0  0  0  0  0
   -2.9902   -2.0326   -0.1018 C   0  0  0  0  0  0  0  0  0  0  0  0
   -2.4904   -4.1165   -0.0273 H   0  0  0  0  0  0  0  0  0  0  0  0
   -0.0582   -3.7394   -0.4802 H   0  0  0  0  0  0  0  0  0  0  0  0
   -0.7769    0.4862   -0.6816 H   0  0  0  0  0  0  0  0  0  0  0  0
   -3.1663    0.1223   -0.2392 H   0  0  0  0  0  0  0  0  0  0  0  0
   10.4935   11.1315   -1.5936 N   0  0  0  0  0  0  0  0  0  0  0  0
   11.2544   11.9332   -1.5927 N   0  0  0  0  0  0  0  0  0  0  0  0
   -4.2985   -2.3535    0.1501 O   0  0  0  0  0  0  0  0  0  0  0  0
   -5.2364   -1.2966    0.2288 C   0  0  0  0  0  0  0  0  0  0  0  0
   -6.2025   -1.7612    0.4329 H   0  0  0  0  0  0  0  0  0  0  0  0
   -5.3000   -0.7366   -0.7145 H   0  0  0  0  0  0  0  0  0  0  0  0
   -4.9958   -0.5971    1.0409 H   0  0  0  0  0  0  0  0  0  0  0  0
    1.0800   -1.4622   -0.8505 O   0  0  0  0  0  0  0  0  0  0  0  0
    1.2813   -0.5234   -0.9531 H   0  0  0  0  0  0  0  0  0  0  0  0
  1  6  1  0  0  0  0
  1  7  1  0  0  0  0
  2  1  2  0  0  0  0
  3  4  2  0  0  0  0
  3  2  1  0  0  0  0
  4  5  1  0  0  0  0
  5 10  1  0  0  0  0
  5  6  2  0  0  0  0
  6 13  1  0  0  0  0
  8  2  1  0  0  0  0
  9  4  1  0  0  0  0
 11 12  3  0  0  0  0
 13 14  1  0  0  0  0
 14 15  1  0  0  0  0
 14 17  1  0  0  0  0
 16 14  1  0  0  0  0
 18  3  1  0  0  0  0
 19 18  1  0  0  0  0
M  END
