Coordinates from ORCA-job 4-MeO-Ph-N2-OH-B3LYPG-6-31G_dp-MTMO-d009-169-n800
 OpenBabel09051907473D

 19 18  0  0  0  0  0  0  0  0999 V2000
   -1.0837   -2.1408   -0.2570 C   0  0  0  0  0  0  0  0  0  0  0  0
    0.2284   -1.7511   -0.4843 C   0  0  0  0  0  0  0  0  0  0  0  0
    0.5415   -0.3946   -0.6491 C   0  0  0  0  0  0  0  0  0  0  0  0
   -0.4773    0.5543   -0.5838 C   0  0  0  0  0  0  0  0  0  0  0  0
   -1.8028    0.1641   -0.3542 C   0  0  0  0  0  0  0  0  0  0  0  0
   -2.1119   -1.1879   -0.1893 C   0  0  0  0  0  0  0  0  0  0  0  0
   -1.3396   -3.1875   -0.1260 H   0  0  0  0  0  0  0  0  0  0  0  0
    1.0270   -2.4836   -0.5377 H   0  0  0  0  0  0  0  0  0  0  0  0
   -0.2468    1.6101   -0.7130 H   0  0  0  0  0  0  0  0  0  0  0  0
   -2.5726    0.9251   -0.3082 H   0  0  0  0  0  0  0  0  0  0  0  0
    3.5606    3.2504   -0.9840 N   0  0  0  0  0  0  0  0  0  0  0  0
    4.3334    4.0398   -0.9625 N   0  0  0  0  0  0  0  0  0  0  0  0
   -3.3696   -1.6832    0.0398 O   0  0  0  0  0  0  0  0  0  0  0  0
   -4.4409   -0.7618    0.1130 C   0  0  0  0  0  0  0  0  0  0  0  0
   -5.3400   -1.3537    0.2929 H   0  0  0  0  0  0  0  0  0  0  0  0
   -4.5626   -0.2013   -0.8243 H   0  0  0  0  0  0  0  0  0  0  0  0
   -4.3100   -0.0479    0.9379 H   0  0  0  0  0  0  0  0  0  0  0  0
    1.8558   -0.0723   -0.8689 O   0  0  0  0  0  0  0  0  0  0  0  0
    1.9432    0.8866   -0.9516 H   0  0  0  0  0  0  0  0  0  0  0  0
  1  6  1  0  0  0  0
  1  7  1  0  0  0  0
  2  1  2  0  0  0  0
  3  4  2  0  0  0  0
  3  2  1  0  0  0  0
  4  5  1  0  0  0  0
  5 10  1  0  0  0  0
  5  6  2  0  0  0  0
  6 13  1  0  0  0  0
  8  2  1  0  0  0  0
  9  4  1  0  0  0  0
 11 12  3  0  0  0  0
 13 14  1  0  0  0  0
 14 15  1  0  0  0  0
 14 17  1  0  0  0  0
 16 14  1  0  0  0  0
 18  3  1  0  0  0  0
 19 18  1  0  0  0  0
M  END
