Coordinates from ORCA-job 4-MeO-Ph-N2-OH-B3LYPG-6-31G_dp-MTMO-d009-169-n800
 OpenBabel09051907473D

 19 18  0  0  0  0  0  0  0  0999 V2000
   -1.4014   -2.4322   -0.2261 C   0  0  0  0  0  0  0  0  0  0  0  0
   -0.0583   -2.1981   -0.4831 C   0  0  0  0  0  0  0  0  0  0  0  0
    0.4020   -0.8893   -0.6835 C   0  0  0  0  0  0  0  0  0  0  0  0
   -0.5019    0.1695   -0.6231 C   0  0  0  0  0  0  0  0  0  0  0  0
   -1.8583   -0.0634   -0.3640 C   0  0  0  0  0  0  0  0  0  0  0  0
   -2.3147   -1.3682   -0.1638 C   0  0  0  0  0  0  0  0  0  0  0  0
   -1.7710   -3.4402   -0.0677 H   0  0  0  0  0  0  0  0  0  0  0  0
    0.6513   -3.0174   -0.5330 H   0  0  0  0  0  0  0  0  0  0  0  0
   -0.1565    1.1898   -0.7789 H   0  0  0  0  0  0  0  0  0  0  0  0
   -2.5362    0.7809   -0.3239 H   0  0  0  0  0  0  0  0  0  0  0  0
    4.8702    5.3578   -1.0322 N   0  0  0  0  0  0  0  0  0  0  0  0
    5.5665    6.2141   -0.9736 N   0  0  0  0  0  0  0  0  0  0  0  0
   -3.6153   -1.7137    0.0957 O   0  0  0  0  0  0  0  0  0  0  0  0
   -4.5751   -0.6760    0.1648 C   0  0  0  0  0  0  0  0  0  0  0  0
   -5.5309   -1.1586    0.3752 H   0  0  0  0  0  0  0  0  0  0  0  0
   -4.6518   -0.1272   -0.7841 H   0  0  0  0  0  0  0  0  0  0  0  0
   -4.3482    0.0369    0.9692 H   0  0  0  0  0  0  0  0  0  0  0  0
    1.7402   -0.7209   -0.9325 O   0  0  0  0  0  0  0  0  0  0  0  0
    1.9215    0.2207   -1.0456 H   0  0  0  0  0  0  0  0  0  0  0  0
  1  6  1  0  0  0  0
  1  7  1  0  0  0  0
  2  1  2  0  0  0  0
  3  4  2  0  0  0  0
  3  2  1  0  0  0  0
  4  5  1  0  0  0  0
  5 10  1  0  0  0  0
  5  6  2  0  0  0  0
  6 13  1  0  0  0  0
  8  2  1  0  0  0  0
  9  4  1  0  0  0  0
 11 12  3  0  0  0  0
 13 14  1  0  0  0  0
 14 15  1  0  0  0  0
 14 17  1  0  0  0  0
 16 14  1  0  0  0  0
 18  3  1  0  0  0  0
 19 18  1  0  0  0  0
M  END
