Coordinates from ORCA-job 4-MeO-Ph-N2-OH-B3LYPG-6-31G_dp-MTMO-d009-169-n800
 OpenBabel09051907473D

 19 18  0  0  0  0  0  0  0  0999 V2000
   -2.1112   -3.1267   -0.1718 C   0  0  0  0  0  0  0  0  0  0  0  0
   -0.7627   -2.9181   -0.4221 C   0  0  0  0  0  0  0  0  0  0  0  0
   -0.2743   -1.6172   -0.6065 C   0  0  0  0  0  0  0  0  0  0  0  0
   -1.1559   -0.5403   -0.5371 C   0  0  0  0  0  0  0  0  0  0  0  0
   -2.5178   -0.7474   -0.2850 C   0  0  0  0  0  0  0  0  0  0  0  0
   -3.0021   -2.0444   -0.1005 C   0  0  0  0  0  0  0  0  0  0  0  0
   -2.5026   -4.1283   -0.0260 H   0  0  0  0  0  0  0  0  0  0  0  0
   -0.0703   -3.7516   -0.4790 H   0  0  0  0  0  0  0  0  0  0  0  0
   -0.7886    0.4742   -0.6805 H   0  0  0  0  0  0  0  0  0  0  0  0
   -3.1780    0.1105   -0.2380 H   0  0  0  0  0  0  0  0  0  0  0  0
   10.5941   11.2335   -1.6044 N   0  0  0  0  0  0  0  0  0  0  0  0
   11.3566   12.0337   -1.6025 N   0  0  0  0  0  0  0  0  0  0  0  0
   -4.3105   -2.3652    0.1514 O   0  0  0  0  0  0  0  0  0  0  0  0
   -5.2482   -1.3082    0.2301 C   0  0  0  0  0  0  0  0  0  0  0  0
   -6.2144   -1.7727    0.4342 H   0  0  0  0  0  0  0  0  0  0  0  0
   -5.3118   -0.7482   -0.7132 H   0  0  0  0  0  0  0  0  0  0  0  0
   -5.0076   -0.6087    1.0421 H   0  0  0  0  0  0  0  0  0  0  0  0
    1.0681   -1.4744   -0.8494 O   0  0  0  0  0  0  0  0  0  0  0  0
    1.2694   -0.5357   -0.9520 H   0  0  0  0  0  0  0  0  0  0  0  0
  1  6  1  0  0  0  0
  1  7  1  0  0  0  0
  2  1  2  0  0  0  0
  3  4  2  0  0  0  0
  3  2  1  0  0  0  0
  4  5  1  0  0  0  0
  5 10  1  0  0  0  0
  5  6  2  0  0  0  0
  6 13  1  0  0  0  0
  8  2  1  0  0  0  0
  9  4  1  0  0  0  0
 11 12  3  0  0  0  0
 13 14  1  0  0  0  0
 14 15  1  0  0  0  0
 14 17  1  0  0  0  0
 16 14  1  0  0  0  0
 18  3  1  0  0  0  0
 19 18  1  0  0  0  0
M  END
