Coordinates from ORCA-job 4-MeO-Ph-N2-OH-B3LYPG-6-31G_dp-MTMO-d009-169-n800
 OpenBabel09051907473D

 19 18  0  0  0  0  0  0  0  0999 V2000
   -1.7139   -2.7340   -0.2107 C   0  0  0  0  0  0  0  0  0  0  0  0
   -0.3659   -2.5223   -0.4615 C   0  0  0  0  0  0  0  0  0  0  0  0
    0.1192   -1.2204   -0.6470 C   0  0  0  0  0  0  0  0  0  0  0  0
   -0.7650   -0.1455   -0.5783 C   0  0  0  0  0  0  0  0  0  0  0  0
   -2.1264   -0.3559   -0.3257 C   0  0  0  0  0  0  0  0  0  0  0  0
   -2.6075   -1.6539   -0.1401 C   0  0  0  0  0  0  0  0  0  0  0  0
   -2.1028   -3.7365   -0.0641 H   0  0  0  0  0  0  0  0  0  0  0  0
    0.3284   -3.3541   -0.5178 H   0  0  0  0  0  0  0  0  0  0  0  0
   -0.4003    0.8697   -0.7225 H   0  0  0  0  0  0  0  0  0  0  0  0
   -2.7887    0.5005   -0.2792 H   0  0  0  0  0  0  0  0  0  0  0  0
    7.2576    7.8939   -1.2626 N   0  0  0  0  0  0  0  0  0  0  0  0
    8.0037    8.7094   -1.2606 N   0  0  0  0  0  0  0  0  0  0  0  0
   -3.9150   -1.9777    0.1122 O   0  0  0  0  0  0  0  0  0  0  0  0
   -4.8554   -0.9230    0.1900 C   0  0  0  0  0  0  0  0  0  0  0  0
   -5.8204   -1.3897    0.3943 H   0  0  0  0  0  0  0  0  0  0  0  0
   -4.9203   -0.3638   -0.7538 H   0  0  0  0  0  0  0  0  0  0  0  0
   -4.6166   -0.2222    1.0015 H   0  0  0  0  0  0  0  0  0  0  0  0
    1.4611   -1.0744   -0.8903 O   0  0  0  0  0  0  0  0  0  0  0  0
    1.6601   -0.1353   -0.9938 H   0  0  0  0  0  0  0  0  0  0  0  0
  1  6  1  0  0  0  0
  1  7  1  0  0  0  0
  2  1  2  0  0  0  0
  3  4  2  0  0  0  0
  3  2  1  0  0  0  0
  4  5  1  0  0  0  0
  5 10  1  0  0  0  0
  5  6  2  0  0  0  0
  6 13  1  0  0  0  0
  8  2  1  0  0  0  0
  9  4  1  0  0  0  0
 11 12  3  0  0  0  0
 13 14  1  0  0  0  0
 14 15  1  0  0  0  0
 14 17  1  0  0  0  0
 16 14  1  0  0  0  0
 18  3  1  0  0  0  0
 19 18  1  0  0  0  0
M  END
