Coordinates from ORCA-job 4-MeO-Ph-N2-OH-B3LYPG-6-31G_dp-MTMO-d009-169-n800
 OpenBabel09051907473D

 19 18  0  0  0  0  0  0  0  0999 V2000
   -1.2546   -2.2984   -0.2100 C   0  0  0  0  0  0  0  0  0  0  0  0
    0.0754   -2.0081   -0.4778 C   0  0  0  0  0  0  0  0  0  0  0  0
    0.4747   -0.6837   -0.7049 C   0  0  0  0  0  0  0  0  0  0  0  0
   -0.4765    0.3337   -0.6601 C   0  0  0  0  0  0  0  0  0  0  0  0
   -1.8198    0.0440   -0.3900 C   0  0  0  0  0  0  0  0  0  0  0  0
   -2.2153   -1.2762   -0.1634 C   0  0  0  0  0  0  0  0  0  0  0  0
   -1.5770   -3.3191   -0.0306 H   0  0  0  0  0  0  0  0  0  0  0  0
    0.8216   -2.7949   -0.5153 H   0  0  0  0  0  0  0  0  0  0  0  0
   -0.1787    1.3655   -0.8371 H   0  0  0  0  0  0  0  0  0  0  0  0
   -2.5353    0.8572   -0.3619 H   0  0  0  0  0  0  0  0  0  0  0  0
    4.2230    4.3569   -0.9596 N   0  0  0  0  0  0  0  0  0  0  0  0
    4.9049    5.2204   -0.8549 N   0  0  0  0  0  0  0  0  0  0  0  0
   -3.4978   -1.6756    0.1086 O   0  0  0  0  0  0  0  0  0  0  0  0
   -4.5041   -0.6820    0.1614 C   0  0  0  0  0  0  0  0  0  0  0  0
   -5.4366   -1.2044    0.3819 H   0  0  0  0  0  0  0  0  0  0  0  0
   -4.6071   -0.1540   -0.7967 H   0  0  0  0  0  0  0  0  0  0  0  0
   -4.3095    0.0546    0.9528 H   0  0  0  0  0  0  0  0  0  0  0  0
    1.8027   -0.4592   -0.9629 O   0  0  0  0  0  0  0  0  0  0  0  0
    1.9420    0.4879   -1.0897 H   0  0  0  0  0  0  0  0  0  0  0  0
  1  6  1  0  0  0  0
  1  7  1  0  0  0  0
  2  1  2  0  0  0  0
  3  4  2  0  0  0  0
  3  2  1  0  0  0  0
  4  5  1  0  0  0  0
  5 10  1  0  0  0  0
  5  6  2  0  0  0  0
  6 13  1  0  0  0  0
  8  2  1  0  0  0  0
  9  4  1  0  0  0  0
 11 12  3  0  0  0  0
 13 14  1  0  0  0  0
 14 15  1  0  0  0  0
 14 17  1  0  0  0  0
 16 14  1  0  0  0  0
 18  3  1  0  0  0  0
 19 18  1  0  0  0  0
M  END
