Coordinates from ORCA-job 4-MeO-Ph-N2-OH-B3LYPG-6-31G_dp-MTMO-d009-169-n800
 OpenBabel09051907473D

 19 18  0  0  0  0  0  0  0  0999 V2000
   -1.7580   -2.7775   -0.2072 C   0  0  0  0  0  0  0  0  0  0  0  0
   -0.4099   -2.5663   -0.4575 C   0  0  0  0  0  0  0  0  0  0  0  0
    0.0759   -1.2645   -0.6421 C   0  0  0  0  0  0  0  0  0  0  0  0
   -0.8079   -0.1892   -0.5729 C   0  0  0  0  0  0  0  0  0  0  0  0
   -2.1694   -0.3991   -0.3207 C   0  0  0  0  0  0  0  0  0  0  0  0
   -2.6512   -1.6971   -0.1361 C   0  0  0  0  0  0  0  0  0  0  0  0
   -2.1474   -3.7799   -0.0612 H   0  0  0  0  0  0  0  0  0  0  0  0
    0.2841   -3.3984   -0.5142 H   0  0  0  0  0  0  0  0  0  0  0  0
   -0.4427    0.8259   -0.7164 H   0  0  0  0  0  0  0  0  0  0  0  0
   -2.8314    0.4575   -0.2738 H   0  0  0  0  0  0  0  0  0  0  0  0
    7.6261    8.2628   -1.3001 N   0  0  0  0  0  0  0  0  0  0  0  0
    8.3735    9.0772   -1.3000 N   0  0  0  0  0  0  0  0  0  0  0  0
   -3.9589   -2.0204    0.1158 O   0  0  0  0  0  0  0  0  0  0  0  0
   -4.8988   -0.9653    0.1941 C   0  0  0  0  0  0  0  0  0  0  0  0
   -5.8641   -1.4317    0.3980 H   0  0  0  0  0  0  0  0  0  0  0  0
   -4.9632   -0.4056   -0.7493 H   0  0  0  0  0  0  0  0  0  0  0  0
   -4.6598   -0.2651    1.0061 H   0  0  0  0  0  0  0  0  0  0  0  0
    1.4179   -1.1190   -0.8850 O   0  0  0  0  0  0  0  0  0  0  0  0
    1.6173   -0.1799   -0.9877 H   0  0  0  0  0  0  0  0  0  0  0  0
  1  6  1  0  0  0  0
  1  7  1  0  0  0  0
  2  1  2  0  0  0  0
  3  4  2  0  0  0  0
  3  2  1  0  0  0  0
  4  5  1  0  0  0  0
  5 10  1  0  0  0  0
  5  6  2  0  0  0  0
  6 13  1  0  0  0  0
  8  2  1  0  0  0  0
  9  4  1  0  0  0  0
 11 12  3  0  0  0  0
 13 14  1  0  0  0  0
 14 15  1  0  0  0  0
 14 17  1  0  0  0  0
 16 14  1  0  0  0  0
 18  3  1  0  0  0  0
 19 18  1  0  0  0  0
M  END
