Coordinates from ORCA-job 4-MeO-Ph-N2-OH-B3LYPG-6-31G_dp-MTMO-d009-169-n800
 OpenBabel09051907473D

 19 18  0  0  0  0  0  0  0  0999 V2000
   -1.3317   -2.3688   -0.2206 C   0  0  0  0  0  0  0  0  0  0  0  0
    0.0064   -2.1120   -0.4821 C   0  0  0  0  0  0  0  0  0  0  0  0
    0.4422   -0.7966   -0.6934 C   0  0  0  0  0  0  0  0  0  0  0  0
   -0.4809    0.2459   -0.6393 C   0  0  0  0  0  0  0  0  0  0  0  0
   -1.8323   -0.0099   -0.3756 C   0  0  0  0  0  0  0  0  0  0  0  0
   -2.2643   -1.3213   -0.1646 C   0  0  0  0  0  0  0  0  0  0  0  0
   -1.6824   -3.3822   -0.0536 H   0  0  0  0  0  0  0  0  0  0  0  0
    0.7308   -2.9185   -0.5270 H   0  0  0  0  0  0  0  0  0  0  0  0
   -0.1547    1.2712   -0.8039 H   0  0  0  0  0  0  0  0  0  0  0  0
   -2.5255    0.8221   -0.3403 H   0  0  0  0  0  0  0  0  0  0  0  0
    4.5246    4.8664   -0.9956 N   0  0  0  0  0  0  0  0  0  0  0  0
    5.2072    5.7320   -0.9156 N   0  0  0  0  0  0  0  0  0  0  0  0
   -3.5579   -1.6886    0.1001 O   0  0  0  0  0  0  0  0  0  0  0  0
   -4.5366   -0.6682    0.1626 C   0  0  0  0  0  0  0  0  0  0  0  0
   -5.4833   -1.1670    0.3771 H   0  0  0  0  0  0  0  0  0  0  0  0
   -4.6241   -0.1278   -0.7901 H   0  0  0  0  0  0  0  0  0  0  0  0
   -4.3224    0.0544    0.9617 H   0  0  0  0  0  0  0  0  0  0  0  0
    1.7765   -0.6055   -0.9462 O   0  0  0  0  0  0  0  0  0  0  0  0
    1.9408    0.3387   -1.0642 H   0  0  0  0  0  0  0  0  0  0  0  0
  1  6  1  0  0  0  0
  1  7  1  0  0  0  0
  2  1  2  0  0  0  0
  3  4  2  0  0  0  0
  3  2  1  0  0  0  0
  4  5  1  0  0  0  0
  5 10  1  0  0  0  0
  5  6  2  0  0  0  0
  6 13  1  0  0  0  0
  8  2  1  0  0  0  0
  9  4  1  0  0  0  0
 11 12  3  0  0  0  0
 13 14  1  0  0  0  0
 14 15  1  0  0  0  0
 14 17  1  0  0  0  0
 16 14  1  0  0  0  0
 18  3  1  0  0  0  0
 19 18  1  0  0  0  0
M  END
