Coordinates from ORCA-job 4-MeO-Ph-N2-OH-B3LYPG-6-31G_dp-MTMO-d009-169-n800
 OpenBabel09051907473D

 19 18  0  0  0  0  0  0  0  0999 V2000
   -1.8838   -2.9016   -0.1957 C   0  0  0  0  0  0  0  0  0  0  0  0
   -0.5354   -2.6914   -0.4455 C   0  0  0  0  0  0  0  0  0  0  0  0
   -0.0483   -1.3899   -0.6288 C   0  0  0  0  0  0  0  0  0  0  0  0
   -0.9312   -0.3139   -0.5589 C   0  0  0  0  0  0  0  0  0  0  0  0
   -2.2929   -0.5228   -0.3073 C   0  0  0  0  0  0  0  0  0  0  0  0
   -2.7759   -1.8204   -0.1239 C   0  0  0  0  0  0  0  0  0  0  0  0
   -2.2741   -3.9038   -0.0507 H   0  0  0  0  0  0  0  0  0  0  0  0
    0.1579   -3.5241   -0.5027 H   0  0  0  0  0  0  0  0  0  0  0  0
   -0.5650    0.7010   -0.7014 H   0  0  0  0  0  0  0  0  0  0  0  0
   -2.9541    0.3344   -0.2599 H   0  0  0  0  0  0  0  0  0  0  0  0
    8.6817    9.3162   -1.4069 N   0  0  0  0  0  0  0  0  0  0  0  0
    9.4308   10.1289   -1.4105 N   0  0  0  0  0  0  0  0  0  0  0  0
   -4.0840   -2.1428    0.1274 O   0  0  0  0  0  0  0  0  0  0  0  0
   -5.0229   -1.0869    0.2064 C   0  0  0  0  0  0  0  0  0  0  0  0
   -5.9887   -1.5526    0.4098 H   0  0  0  0  0  0  0  0  0  0  0  0
   -5.0867   -0.5263   -0.7366 H   0  0  0  0  0  0  0  0  0  0  0  0
   -4.7834   -0.3876    1.0190 H   0  0  0  0  0  0  0  0  0  0  0  0
    1.2939   -1.2454   -0.8712 O   0  0  0  0  0  0  0  0  0  0  0  0
    1.4942   -0.3064   -0.9729 H   0  0  0  0  0  0  0  0  0  0  0  0
  1  6  1  0  0  0  0
  1  7  1  0  0  0  0
  2  1  2  0  0  0  0
  3  4  2  0  0  0  0
  3  2  1  0  0  0  0
  4  5  1  0  0  0  0
  5 10  1  0  0  0  0
  5  6  2  0  0  0  0
  6 13  1  0  0  0  0
  8  2  1  0  0  0  0
  9  4  1  0  0  0  0
 12 11  3  0  0  0  0
 13 14  1  0  0  0  0
 14 15  1  0  0  0  0
 14 17  1  0  0  0  0
 16 14  1  0  0  0  0
 18  3  1  0  0  0  0
 19 18  1  0  0  0  0
M  END
