Coordinates from ORCA-job 4-MeO-Ph-N2-OH-B3LYPG-6-31G_dp-MTMO-d009-169-n800
 OpenBabel09051907463D

 19 19  0  0  0  0  0  0  0  0999 V2000
   -1.2003   -1.6430   -1.4746 C   0  0  0  0  0  0  0  0  0  0  0  0
    0.1266   -1.3024   -1.5864 C   0  0  0  0  0  0  0  0  0  0  0  0
    0.7398   -0.1936   -0.8788 C   0  0  0  0  0  0  0  0  0  0  0  0
   -0.1849    0.5406   -0.0339 C   0  0  0  0  0  0  0  0  0  0  0  0
   -1.5236    0.2008    0.0773 C   0  0  0  0  0  0  0  0  0  0  0  0
   -2.0457   -0.8913   -0.6358 C   0  0  0  0  0  0  0  0  0  0  0  0
   -1.6227   -2.4826   -2.0172 H   0  0  0  0  0  0  0  0  0  0  0  0
    0.7873   -1.8763   -2.2306 H   0  0  0  0  0  0  0  0  0  0  0  0
    0.1896    1.3857    0.5257 H   0  0  0  0  0  0  0  0  0  0  0  0
   -2.1626    0.7925    0.7229 H   0  0  0  0  0  0  0  0  0  0  0  0
    1.8327   -0.0090   -1.0413 N   0  0  0  0  0  0  0  0  0  0  0  0
    2.7226    0.7707   -0.6579 N   0  0  0  0  0  0  0  0  0  0  0  0
   -3.3350   -1.2983   -0.5859 O   0  0  0  0  0  0  0  0  0  0  0  0
   -4.2480   -0.5917    0.2464 C   0  0  0  0  0  0  0  0  0  0  0  0
   -5.2072   -1.0982    0.1337 H   0  0  0  0  0  0  0  0  0  0  0  0
   -4.3504    0.4537   -0.0684 H   0  0  0  0  0  0  0  0  0  0  0  0
   -3.9398   -0.6259    1.2983 H   0  0  0  0  0  0  0  0  0  0  0  0
    2.2183    1.7726    0.3100 O   0  0  0  0  0  0  0  0  0  0  0  0
    3.0354    2.2602    0.4863 H   0  0  0  0  0  0  0  0  0  0  0  0
  1  6  1  0  0  0  0
  2  1  2  0  0  0  0
  2  3  1  0  0  0  0
  3  4  2  0  0  0  0
  4  5  1  0  0  0  0
  4  9  1  0  0  0  0
  5 10  1  0  0  0  0
  6 13  1  0  0  0  0
  6  5  2  0  0  0  0
  7  1  1  0  0  0  0
  8  2  1  0  0  0  0
 11  3  1  0  0  0  0
 11 12  1  0  0  0  0
 12 18  1  0  0  0  0
 13 14  1  0  0  0  0
 14 17  1  0  0  0  0
 15 14  1  0  0  0  0
 16 14  1  0  0  0  0
 18 19  1  0  0  0  0
M  RAD  2  11   2  12   2
M  END
