Coordinates from ORCA-job 4-MeO-Ph-N2-OH-B3LYPG-6-31G_dp-MTMO-d009-169-n800
 OpenBabel09051907473D

 19 18  0  0  0  0  0  0  0  0999 V2000
   -1.5772   -2.5998   -0.2206 C   0  0  0  0  0  0  0  0  0  0  0  0
   -0.2299   -2.3857   -0.4732 C   0  0  0  0  0  0  0  0  0  0  0  0
    0.2520   -1.0831   -0.6628 C   0  0  0  0  0  0  0  0  0  0  0  0
   -0.6347   -0.0101   -0.5962 C   0  0  0  0  0  0  0  0  0  0  0  0
   -1.9953   -0.2229   -0.3418 C   0  0  0  0  0  0  0  0  0  0  0  0
   -2.4733   -1.5216   -0.1522 C   0  0  0  0  0  0  0  0  0  0  0  0
   -1.9636   -3.6028   -0.0708 H   0  0  0  0  0  0  0  0  0  0  0  0
    0.4663   -3.2160   -0.5278 H   0  0  0  0  0  0  0  0  0  0  0  0
   -0.2725    1.0055   -0.7437 H   0  0  0  0  0  0  0  0  0  0  0  0
   -2.6596    0.6320   -0.2970 H   0  0  0  0  0  0  0  0  0  0  0  0
    6.1319    6.7557   -1.1501 N   0  0  0  0  0  0  0  0  0  0  0  0
    6.8682    7.5800   -1.1355 N   0  0  0  0  0  0  0  0  0  0  0  0
   -3.7798   -1.8478    0.1022 O   0  0  0  0  0  0  0  0  0  0  0  0
   -4.7226   -0.7950    0.1778 C   0  0  0  0  0  0  0  0  0  0  0  0
   -5.6864   -1.2635    0.3840 H   0  0  0  0  0  0  0  0  0  0  0  0
   -4.7894   -0.2386   -0.7674 H   0  0  0  0  0  0  0  0  0  0  0  0
   -4.4849   -0.0916    0.9873 H   0  0  0  0  0  0  0  0  0  0  0  0
    1.5933   -0.9347   -0.9078 O   0  0  0  0  0  0  0  0  0  0  0  0
    1.7898    0.0046   -1.0147 H   0  0  0  0  0  0  0  0  0  0  0  0
  1  6  1  0  0  0  0
  1  7  1  0  0  0  0
  2  1  2  0  0  0  0
  3  4  2  0  0  0  0
  3  2  1  0  0  0  0
  4  5  1  0  0  0  0
  5 10  1  0  0  0  0
  5  6  2  0  0  0  0
  6 13  1  0  0  0  0
  8  2  1  0  0  0  0
  9  4  1  0  0  0  0
 11 12  3  0  0  0  0
 13 14  1  0  0  0  0
 14 15  1  0  0  0  0
 14 17  1  0  0  0  0
 16 14  1  0  0  0  0
 18  3  1  0  0  0  0
 19 18  1  0  0  0  0
M  END
