Coordinates from ORCA-job 4-MeO-Ph-N2-OH-B3LYPG-6-31G_dp-MTMO-d009-169-n800
 OpenBabel09051907473D

 19 18  0  0  0  0  0  0  0  0999 V2000
   -1.2046   -2.2522   -0.2046 C   0  0  0  0  0  0  0  0  0  0  0  0
    0.1206   -1.9439   -0.4760 C   0  0  0  0  0  0  0  0  0  0  0  0
    0.4997   -0.6152   -0.7123 C   0  0  0  0  0  0  0  0  0  0  0  0
   -0.4665    0.3882   -0.6729 C   0  0  0  0  0  0  0  0  0  0  0  0
   -1.8050    0.0803   -0.3990 C   0  0  0  0  0  0  0  0  0  0  0  0
   -2.1804   -1.2442   -0.1633 C   0  0  0  0  0  0  0  0  0  0  0  0
   -1.5115   -3.2764   -0.0181 H   0  0  0  0  0  0  0  0  0  0  0  0
    0.8785   -2.7196   -0.5094 H   0  0  0  0  0  0  0  0  0  0  0  0
   -0.1842    1.4231   -0.8572 H   0  0  0  0  0  0  0  0  0  0  0  0
   -2.5326    0.8828   -0.3750 H   0  0  0  0  0  0  0  0  0  0  0  0
    3.9936    4.0167   -0.9347 N   0  0  0  0  0  0  0  0  0  0  0  0
    4.6694    4.8825   -0.8121 N   0  0  0  0  0  0  0  0  0  0  0  0
   -3.4565   -1.6610    0.1130 O   0  0  0  0  0  0  0  0  0  0  0  0
   -4.4776   -0.6823    0.1602 C   0  0  0  0  0  0  0  0  0  0  0  0
   -5.4020   -1.2173    0.3844 H   0  0  0  0  0  0  0  0  0  0  0  0
   -4.5891   -0.1618   -0.8010 H   0  0  0  0  0  0  0  0  0  0  0  0
   -4.2938    0.0620    0.9470 H   0  0  0  0  0  0  0  0  0  0  0  0
    1.8239   -0.3726   -0.9735 O   0  0  0  0  0  0  0  0  0  0  0  0
    1.9503    0.5756   -1.1056 H   0  0  0  0  0  0  0  0  0  0  0  0
  1  6  1  0  0  0  0
  1  7  1  0  0  0  0
  2  1  2  0  0  0  0
  3  4  2  0  0  0  0
  3  2  1  0  0  0  0
  4  5  1  0  0  0  0
  5 10  1  0  0  0  0
  5  6  2  0  0  0  0
  6 13  1  0  0  0  0
  8  2  1  0  0  0  0
  9  4  1  0  0  0  0
 11 12  3  0  0  0  0
 13 14  1  0  0  0  0
 14 15  1  0  0  0  0
 14 17  1  0  0  0  0
 16 14  1  0  0  0  0
 18  3  1  0  0  0  0
 19 18  1  0  0  0  0
M  END
