Coordinates from ORCA-job 4-MeO-Ph-N2-OH-B3LYPG-6-31G_dp-MTMO-d009-169-n800
 OpenBabel09051907463D

 19 18  0  0  0  0  0  0  0  0999 V2000
   -0.8026   -1.6708   -0.9509 C   0  0  0  0  0  0  0  0  0  0  0  0
    0.5326   -1.3751   -0.7159 C   0  0  0  0  0  0  0  0  0  0  0  0
    0.8841   -0.2357    0.0207 C   0  0  0  0  0  0  0  0  0  0  0  0
   -0.1226    0.5839    0.5300 C   0  0  0  0  0  0  0  0  0  0  0  0
   -1.4710    0.2915    0.2919 C   0  0  0  0  0  0  0  0  0  0  0  0
   -1.8177   -0.8396   -0.4514 C   0  0  0  0  0  0  0  0  0  0  0  0
   -1.0879   -2.5479   -1.5226 H   0  0  0  0  0  0  0  0  0  0  0  0
    1.3205   -2.0140   -1.1008 H   0  0  0  0  0  0  0  0  0  0  0  0
    0.1374    1.4663    1.1110 H   0  0  0  0  0  0  0  0  0  0  0  0
   -2.2297    0.9518    0.6939 H   0  0  0  0  0  0  0  0  0  0  0  0
    1.4070    1.6075   -1.8563 N   0  0  0  0  0  0  0  0  0  0  0  0
    1.1485    1.4186   -2.9150 N   0  0  0  0  0  0  0  0  0  0  0  0
   -3.0999   -1.2222   -0.7453 O   0  0  0  0  0  0  0  0  0  0  0  0
   -4.1599   -0.4223   -0.2537 C   0  0  0  0  0  0  0  0  0  0  0  0
   -5.0816   -0.8977   -0.5929 H   0  0  0  0  0  0  0  0  0  0  0  0
   -4.1170    0.6005   -0.6512 H   0  0  0  0  0  0  0  0  0  0  0  0
   -4.1609   -0.3773    0.8440 H   0  0  0  0  0  0  0  0  0  0  0  0
    2.2186   -0.0183    0.2414 O   0  0  0  0  0  0  0  0  0  0  0  0
    2.3342    0.8653    0.6130 H   0  0  0  0  0  0  0  0  0  0  0  0
  1  2  2  0  0  0  0
  1  6  1  0  0  0  0
  2  3  1  0  0  0  0
  3 18  1  0  0  0  0
  3  4  2  0  0  0  0
  4  9  1  0  0  0  0
  5  4  1  0  0  0  0
  5 10  1  0  0  0  0
  6  5  2  0  0  0  0
  7  1  1  0  0  0  0
  8  2  1  0  0  0  0
 12 11  3  0  0  0  0
 13  6  1  0  0  0  0
 13 14  1  0  0  0  0
 14 17  1  0  0  0  0
 15 14  1  0  0  0  0
 16 14  1  0  0  0  0
 18 19  1  0  0  0  0
M  END
