Coordinates from ORCA-job 4-MeO-Ph-N2-OH-B3LYPG-6-31G_dp-MTMO-d009-169-n800
 OpenBabel09051907473D

 19 18  0  0  0  0  0  0  0  0999 V2000
   -1.0765   -2.1361   -0.2579 C   0  0  0  0  0  0  0  0  0  0  0  0
    0.2363   -1.7490   -0.4856 C   0  0  0  0  0  0  0  0  0  0  0  0
    0.5521   -0.3931   -0.6508 C   0  0  0  0  0  0  0  0  0  0  0  0
   -0.4649    0.5578   -0.5854 C   0  0  0  0  0  0  0  0  0  0  0  0
   -1.7911    0.1702   -0.3554 C   0  0  0  0  0  0  0  0  0  0  0  0
   -2.1029   -1.1812   -0.1902 C   0  0  0  0  0  0  0  0  0  0  0  0
   -1.3344   -3.1822   -0.1266 H   0  0  0  0  0  0  0  0  0  0  0  0
    1.0335   -2.4831   -0.5390 H   0  0  0  0  0  0  0  0  0  0  0  0
   -0.2323    1.6131   -0.7149 H   0  0  0  0  0  0  0  0  0  0  0  0
   -2.5594    0.9327   -0.3095 H   0  0  0  0  0  0  0  0  0  0  0  0
    3.4823    3.1960   -0.9753 N   0  0  0  0  0  0  0  0  0  0  0  0
    4.2405    3.9992   -0.9492 N   0  0  0  0  0  0  0  0  0  0  0  0
   -3.3615   -1.6739    0.0393 O   0  0  0  0  0  0  0  0  0  0  0  0
   -4.4310   -0.7505    0.1121 C   0  0  0  0  0  0  0  0  0  0  0  0
   -5.3312   -1.3406    0.2922 H   0  0  0  0  0  0  0  0  0  0  0  0
   -4.5516   -0.1900   -0.8253 H   0  0  0  0  0  0  0  0  0  0  0  0
   -4.2988   -0.0366    0.9368 H   0  0  0  0  0  0  0  0  0  0  0  0
    1.8668   -0.0733   -0.8710 O   0  0  0  0  0  0  0  0  0  0  0  0
    1.9565    0.8853   -0.9544 H   0  0  0  0  0  0  0  0  0  0  0  0
  1  6  1  0  0  0  0
  1  7  1  0  0  0  0
  2  1  2  0  0  0  0
  3  4  2  0  0  0  0
  3  2  1  0  0  0  0
  4  5  1  0  0  0  0
  5 10  1  0  0  0  0
  5  6  2  0  0  0  0
  6 13  1  0  0  0  0
  8  2  1  0  0  0  0
  9  4  1  0  0  0  0
 11 12  3  0  0  0  0
 13 14  1  0  0  0  0
 14 15  1  0  0  0  0
 14 17  1  0  0  0  0
 16 14  1  0  0  0  0
 18  3  1  0  0  0  0
 19 18  1  0  0  0  0
M  END
