Coordinates from ORCA-job 4-MeO-Ph-N2-OH-B3LYPG-6-31G_dp-MTMO-d009-169-n800
 OpenBabel09051907473D

 19 18  0  0  0  0  0  0  0  0999 V2000
   -1.3079   -2.3471   -0.2175 C   0  0  0  0  0  0  0  0  0  0  0  0
    0.0279   -2.0804   -0.4809 C   0  0  0  0  0  0  0  0  0  0  0  0
    0.4529   -0.7622   -0.6970 C   0  0  0  0  0  0  0  0  0  0  0  0
   -0.4786    0.2729   -0.6457 C   0  0  0  0  0  0  0  0  0  0  0  0
   -1.8277    0.0070   -0.3800 C   0  0  0  0  0  0  0  0  0  0  0  0
   -2.2489   -1.3071   -0.1643 C   0  0  0  0  0  0  0  0  0  0  0  0
   -1.6502   -3.3628   -0.0467 H   0  0  0  0  0  0  0  0  0  0  0  0
    0.7589   -2.8811   -0.5236 H   0  0  0  0  0  0  0  0  0  0  0  0
   -0.1609    1.3002   -0.8141 H   0  0  0  0  0  0  0  0  0  0  0  0
   -2.5276    0.8336   -0.3469 H   0  0  0  0  0  0  0  0  0  0  0  0
    4.4277    4.7073   -0.9839 N   0  0  0  0  0  0  0  0  0  0  0  0
    5.1090    5.5732   -0.8968 N   0  0  0  0  0  0  0  0  0  0  0  0
   -3.5393   -1.6839    0.1027 O   0  0  0  0  0  0  0  0  0  0  0  0
   -4.5262   -0.6714    0.1622 C   0  0  0  0  0  0  0  0  0  0  0  0
   -5.4687   -1.1772    0.3785 H   0  0  0  0  0  0  0  0  0  0  0  0
   -4.6184   -0.1346   -0.7921 H   0  0  0  0  0  0  0  0  0  0  0  0
   -4.3178    0.0554    0.9590 H   0  0  0  0  0  0  0  0  0  0  0  0
    1.7854   -0.5612   -0.9514 O   0  0  0  0  0  0  0  0  0  0  0  0
    1.9423    0.3840   -1.0718 H   0  0  0  0  0  0  0  0  0  0  0  0
  1  6  1  0  0  0  0
  1  7  1  0  0  0  0
  2  1  2  0  0  0  0
  3  4  2  0  0  0  0
  3  2  1  0  0  0  0
  4  5  1  0  0  0  0
  5 10  1  0  0  0  0
  5  6  2  0  0  0  0
  6 13  1  0  0  0  0
  8  2  1  0  0  0  0
  9  4  1  0  0  0  0
 11 12  3  0  0  0  0
 13 14  1  0  0  0  0
 14 15  1  0  0  0  0
 14 17  1  0  0  0  0
 16 14  1  0  0  0  0
 18  3  1  0  0  0  0
 19 18  1  0  0  0  0
M  END
