Coordinates from ORCA-job 4-MeO-Ph-N2-OH-B3LYPG-6-31G_dp-MTMO-d009-169-n800
 OpenBabel09051907473D

 19 18  0  0  0  0  0  0  0  0999 V2000
   -2.0570   -3.0731   -0.1777 C   0  0  0  0  0  0  0  0  0  0  0  0
   -0.7085   -2.8640   -0.4278 C   0  0  0  0  0  0  0  0  0  0  0  0
   -0.2205   -1.5629   -0.6117 C   0  0  0  0  0  0  0  0  0  0  0  0
   -1.1024   -0.4863   -0.5421 C   0  0  0  0  0  0  0  0  0  0  0  0
   -2.4643   -0.6939   -0.2902 C   0  0  0  0  0  0  0  0  0  0  0  0
   -2.9483   -1.9911   -0.1061 C   0  0  0  0  0  0  0  0  0  0  0  0
   -2.4481   -4.0749   -0.0322 H   0  0  0  0  0  0  0  0  0  0  0  0
   -0.0159   -3.6973   -0.4848 H   0  0  0  0  0  0  0  0  0  0  0  0
   -0.7354    0.5283   -0.6851 H   0  0  0  0  0  0  0  0  0  0  0  0
   -3.1248    0.1638   -0.2430 H   0  0  0  0  0  0  0  0  0  0  0  0
   10.1413   10.7745   -1.5554 N   0  0  0  0  0  0  0  0  0  0  0  0
   10.8959   11.5821   -1.5589 N   0  0  0  0  0  0  0  0  0  0  0  0
   -4.2566   -2.3124    0.1455 O   0  0  0  0  0  0  0  0  0  0  0  0
   -5.1947   -1.2556    0.2243 C   0  0  0  0  0  0  0  0  0  0  0  0
   -6.1607   -1.7205    0.4282 H   0  0  0  0  0  0  0  0  0  0  0  0
   -5.2583   -0.6954   -0.7188 H   0  0  0  0  0  0  0  0  0  0  0  0
   -4.9543   -0.5563    1.0367 H   0  0  0  0  0  0  0  0  0  0  0  0
    1.1218   -1.4197   -0.8544 O   0  0  0  0  0  0  0  0  0  0  0  0
    1.3229   -0.4809   -0.9567 H   0  0  0  0  0  0  0  0  0  0  0  0
  1  6  1  0  0  0  0
  1  7  1  0  0  0  0
  2  1  2  0  0  0  0
  3  4  2  0  0  0  0
  3  2  1  0  0  0  0
  4  5  1  0  0  0  0
  5 10  1  0  0  0  0
  5  6  2  0  0  0  0
  6 13  1  0  0  0  0
  8  2  1  0  0  0  0
  9  4  1  0  0  0  0
 12 11  3  0  0  0  0
 13 14  1  0  0  0  0
 14 15  1  0  0  0  0
 14 17  1  0  0  0  0
 16 14  1  0  0  0  0
 18  3  1  0  0  0  0
 19 18  1  0  0  0  0
M  END
