Coordinates from ORCA-job Ph-N2-BF4-B3LYPG-6-31G_dp-MTMO-d009-169-n800
 OpenBabel09051907443D

 18 16  0  0  0  0  0  0  0  0999 V2000
   -1.8459   -0.2880    0.4296 C   0  0  0  0  0  0  0  0  0  0  0  0
   -0.5302    0.1661    0.5442 C   0  0  0  0  0  0  0  0  0  0  0  0
   -0.3280    1.4634    0.9936 C   0  0  0  0  0  0  0  0  0  0  0  0
   -1.3660    2.3210    1.3288 C   0  0  0  0  0  0  0  0  0  0  0  0
   -2.6743    1.8476    1.2083 C   0  0  0  0  0  0  0  0  0  0  0  0
   -2.9160    0.5470    0.7598 C   0  0  0  0  0  0  0  0  0  0  0  0
   -2.0313   -1.2985    0.0789 H   0  0  0  0  0  0  0  0  0  0  0  0
    0.3194   -0.4566    0.2912 H   0  0  0  0  0  0  0  0  0  0  0  0
   -1.1455    3.3250    1.6739 H   0  0  0  0  0  0  0  0  0  0  0  0
   -3.5034    2.4995    1.4657 H   0  0  0  0  0  0  0  0  0  0  0  0
   10.4042   -1.4089   -1.6198 N   0  0  0  0  0  0  0  0  0  0  0  0
    9.4395   -0.9173   -1.8418 N   0  0  0  0  0  0  0  0  0  0  0  0
    2.6773    1.5498   -0.5014 B   0  0  0  0  0  0  0  0  0  0  0  0
    1.9410    2.0758   -1.4627 F   0  0  0  0  0  0  0  0  0  0  0  0
    3.5183    2.3021    0.1807 F   0  0  0  0  0  0  0  0  0  0  0  0
    0.9535    1.9242    1.1203 F   0  0  0  0  0  0  0  0  0  0  0  0
    2.6631    0.2383   -0.3105 F   0  0  0  0  0  0  0  0  0  0  0  0
   -3.9353    0.1853    0.6670 H   0  0  0  0  0  0  0  0  0  0  0  0
  1  2  2  0  0  0  0
  1  6  1  0  0  0  0
  2  3  1  0  0  0  0
  3 16  1  0  0  0  0
  3  4  2  0  0  0  0
  4  9  1  0  0  0  0
  5  4  1  0  0  0  0
  5 10  1  0  0  0  0
  6  5  2  0  0  0  0
  7  1  1  0  0  0  0
  8  2  1  0  0  0  0
 12 11  3  0  0  0  0
 13 17  1  0  0  0  0
 13 15  1  0  0  0  0
 14 13  1  0  0  0  0
 18  6  1  0  0  0  0
M  END
