Coordinates from ORCA-job Ph-N2-BF4-B3LYPG-6-31G_dp-MTMO-d009-169-n800
 OpenBabel09051907443D

 18 17  0  0  0  0  0  0  0  0999 V2000
   -1.1546    0.1390    0.8042 C   0  0  0  0  0  0  0  0  0  0  0  0
    0.1969    0.2710    0.4224 C   0  0  0  0  0  0  0  0  0  0  0  0
    0.3696    1.4175   -0.2746 C   0  0  0  0  0  0  0  0  0  0  0  0
   -0.4301    2.4446   -0.6810 C   0  0  0  0  0  0  0  0  0  0  0  0
   -1.7569    2.2473   -0.2595 C   0  0  0  0  0  0  0  0  0  0  0  0
   -2.1060    1.1078    0.4726 C   0  0  0  0  0  0  0  0  0  0  0  0
   -1.4348   -0.7408    1.3747 H   0  0  0  0  0  0  0  0  0  0  0  0
    1.0048   -0.4380    0.6521 H   0  0  0  0  0  0  0  0  0  0  0  0
   -0.1014    3.3050   -1.2469 H   0  0  0  0  0  0  0  0  0  0  0  0
   -2.4982    2.9971   -0.5159 H   0  0  0  0  0  0  0  0  0  0  0  0
    2.1541    1.6440   -0.8902 N   0  0  0  0  0  0  0  0  0  0  0  0
    3.1545    1.7211   -1.3514 N   0  0  0  0  0  0  0  0  0  0  0  0
    3.5119   -0.2110    1.1644 B   0  0  0  0  0  0  0  0  0  0  0  0
    4.4173    0.1088    0.1439 F   0  0  0  0  0  0  0  0  0  0  0  0
    4.1290   -0.6729    2.2978 F   0  0  0  0  0  0  0  0  0  0  0  0
    2.7292    0.9523    1.4468 F   0  0  0  0  0  0  0  0  0  0  0  0
    2.5897   -1.1919    0.6560 F   0  0  0  0  0  0  0  0  0  0  0  0
   -3.1347    0.9753    0.7904 H   0  0  0  0  0  0  0  0  0  0  0  0
  1  7  1  0  0  0  0
  2  8  1  0  0  0  0
  2  1  2  0  0  0  0
  3  2  1  0  0  0  0
  4  3  2  0  0  0  0
  4  5  1  0  0  0  0
  5  6  2  0  0  0  0
  6 18  1  0  0  0  0
  6  1  1  0  0  0  0
  9  4  1  0  0  0  0
 10  5  1  0  0  0  0
 11  3  1  0  0  0  0
 12 11  1  0  0  0  0
 13 16  1  0  0  0  0
 13 15  1  0  0  0  0
 14 13  1  0  0  0  0
 17 13  1  0  0  0  0
M  RAD  2  11   2  12   3
M  END
