Coordinates from ORCA-job Ph-N2-BF4-B3LYPG-6-31G_dp-MTMO-d009-169-n800
 OpenBabel09051907443D

 18 16  0  0  0  0  0  0  0  0999 V2000
   -2.2271   -0.2122    0.5140 C   0  0  0  0  0  0  0  0  0  0  0  0
   -0.9098    0.2467    0.5822 C   0  0  0  0  0  0  0  0  0  0  0  0
   -0.6944    1.5342    1.0529 C   0  0  0  0  0  0  0  0  0  0  0  0
   -1.7211    2.3782    1.4518 C   0  0  0  0  0  0  0  0  0  0  0  0
   -3.0312    1.9004    1.3765 C   0  0  0  0  0  0  0  0  0  0  0  0
   -3.2858    0.6089    0.9093 C   0  0  0  0  0  0  0  0  0  0  0  0
   -2.4227   -1.2156    0.1488 H   0  0  0  0  0  0  0  0  0  0  0  0
   -0.0690   -0.3649    0.2776 H   0  0  0  0  0  0  0  0  0  0  0  0
   -1.4906    3.3753    1.8099 H   0  0  0  0  0  0  0  0  0  0  0  0
   -3.8515    2.5417    1.6838 H   0  0  0  0  0  0  0  0  0  0  0  0
   13.4739   -2.1317   -2.1328 N   0  0  0  0  0  0  0  0  0  0  0  0
   12.4960   -1.6462   -2.3049 N   0  0  0  0  0  0  0  0  0  0  0  0
    2.2507    1.7116   -0.5648 B   0  0  0  0  0  0  0  0  0  0  0  0
    1.5015    2.3310   -1.4578 F   0  0  0  0  0  0  0  0  0  0  0  0
    3.1284    2.3870    0.1511 F   0  0  0  0  0  0  0  0  0  0  0  0
    0.5893    1.9987    1.1364 F   0  0  0  0  0  0  0  0  0  0  0  0
    2.2104    0.3894   -0.4809 F   0  0  0  0  0  0  0  0  0  0  0  0
   -4.3065    0.2434    0.8527 H   0  0  0  0  0  0  0  0  0  0  0  0
  1  2  2  0  0  0  0
  1  6  1  0  0  0  0
  2  3  1  0  0  0  0
  3 16  1  0  0  0  0
  3  4  2  0  0  0  0
  4  9  1  0  0  0  0
  5  4  1  0  0  0  0
  5 10  1  0  0  0  0
  6  5  2  0  0  0  0
  7  1  1  0  0  0  0
  8  2  1  0  0  0  0
 12 11  3  0  0  0  0
 13 17  1  0  0  0  0
 13 15  1  0  0  0  0
 14 13  1  0  0  0  0
 18  6  1  0  0  0  0
M  END
