Coordinates from ORCA-job Ph-N2-BF4-B3LYPG-6-31G_dp-MTMO-d009-169-n800
 OpenBabel09051907443D

 18 16  0  0  0  0  0  0  0  0999 V2000
   -1.3074   -0.3720    0.3879 C   0  0  0  0  0  0  0  0  0  0  0  0
   -0.0443    0.0541    0.8041 C   0  0  0  0  0  0  0  0  0  0  0  0
    0.1355    1.4069    1.0568 C   0  0  0  0  0  0  0  0  0  0  0  0
   -0.8769    2.3452    0.9129 C   0  0  0  0  0  0  0  0  0  0  0  0
   -2.1332    1.8992    0.4969 C   0  0  0  0  0  0  0  0  0  0  0  0
   -2.3502    0.5446    0.2341 C   0  0  0  0  0  0  0  0  0  0  0  0
   -1.4726   -1.4251    0.1812 H   0  0  0  0  0  0  0  0  0  0  0  0
    0.7854   -0.6318    0.9277 H   0  0  0  0  0  0  0  0  0  0  0  0
   -0.6775    3.3898    1.1257 H   0  0  0  0  0  0  0  0  0  0  0  0
   -2.9411    2.6147    0.3771 H   0  0  0  0  0  0  0  0  0  0  0  0
    5.6600   -0.5366   -2.3741 N   0  0  0  0  0  0  0  0  0  0  0  0
    5.3024    0.0691   -1.5226 N   0  0  0  0  0  0  0  0  0  0  0  0
    3.3647    1.1777    0.2656 B   0  0  0  0  0  0  0  0  0  0  0  0
    2.7850    1.5163   -0.8718 F   0  0  0  0  0  0  0  0  0  0  0  0
    4.1144    2.0461    0.9156 F   0  0  0  0  0  0  0  0  0  0  0  0
    1.3622    1.8408    1.4728 F   0  0  0  0  0  0  0  0  0  0  0  0
    3.2624   -0.0675    0.7070 F   0  0  0  0  0  0  0  0  0  0  0  0
   -3.3284    0.2044   -0.0909 H   0  0  0  0  0  0  0  0  0  0  0  0
  1  2  1  0  0  0  0
  2  8  1  0  0  0  0
  2  3  2  0  0  0  0
  3 16  1  0  0  0  0
  4  3  1  0  0  0  0
  4  9  1  0  0  0  0
  5  4  2  0  0  0  0
  6  1  2  0  0  0  0
  6  5  1  0  0  0  0
  7  1  1  0  0  0  0
 10  5  1  0  0  0  0
 11 12  3  0  0  0  0
 13 17  1  0  0  0  0
 13 15  1  0  0  0  0
 14 13  1  0  0  0  0
 18  6  1  0  0  0  0
M  END
