Coordinates from ORCA-job Ph-N2-BF4-B3LYPG-6-31G_dp-MTMO-d009-169-n800
 OpenBabel09051907443D

 18 16  0  0  0  0  0  0  0  0999 V2000
   -1.7842   -0.3078    0.5767 C   0  0  0  0  0  0  0  0  0  0  0  0
   -0.4565    0.1207    0.5115 C   0  0  0  0  0  0  0  0  0  0  0  0
   -0.2023    1.4763    0.6686 C   0  0  0  0  0  0  0  0  0  0  0  0
   -1.2024    2.4144    0.8848 C   0  0  0  0  0  0  0  0  0  0  0  0
   -2.5234    1.9655    0.9469 C   0  0  0  0  0  0  0  0  0  0  0  0
   -2.8160    0.6082    0.7933 C   0  0  0  0  0  0  0  0  0  0  0  0
   -2.0092   -1.3633    0.4553 H   0  0  0  0  0  0  0  0  0  0  0  0
    0.3644   -0.5659    0.3428 H   0  0  0  0  0  0  0  0  0  0  0  0
   -0.9430    3.4610    1.0016 H   0  0  0  0  0  0  0  0  0  0  0  0
   -3.3226    2.6808    1.1158 H   0  0  0  0  0  0  0  0  0  0  0  0
    8.6962   -0.1669   -1.7654 N   0  0  0  0  0  0  0  0  0  0  0  0
    7.6417   -0.0679   -1.4493 N   0  0  0  0  0  0  0  0  0  0  0  0
    3.2159    0.9233   -0.1248 B   0  0  0  0  0  0  0  0  0  0  0  0
    3.1613    1.5694   -1.2729 F   0  0  0  0  0  0  0  0  0  0  0  0
    3.8170    1.4635    0.9165 F   0  0  0  0  0  0  0  0  0  0  0  0
    1.0887    1.9181    0.6102 F   0  0  0  0  0  0  0  0  0  0  0  0
    2.7597   -0.3189   -0.0487 F   0  0  0  0  0  0  0  0  0  0  0  0
   -3.8449    0.2656    0.8430 H   0  0  0  0  0  0  0  0  0  0  0  0
  1  6  1  0  0  0  0
  2  1  2  0  0  0  0
  2  3  1  0  0  0  0
  3  4  2  0  0  0  0
  4  5  1  0  0  0  0
  4  9  1  0  0  0  0
  5 10  1  0  0  0  0
  6 18  1  0  0  0  0
  6  5  2  0  0  0  0
  7  1  1  0  0  0  0
  8  2  1  0  0  0  0
 11 12  3  0  0  0  0
 13 17  1  0  0  0  0
 13 15  1  0  0  0  0
 14 13  1  0  0  0  0
 16  3  1  0  0  0  0
M  END
