Coordinates from ORCA-job Ph-N2-BF4-B3LYPG-6-31G_dp-MTMO-d009-169-n800
 OpenBabel09051907443D

 18 16  0  0  0  0  0  0  0  0999 V2000
   -1.5215   -0.3030    0.8004 C   0  0  0  0  0  0  0  0  0  0  0  0
   -0.2000    0.0177    1.1180 C   0  0  0  0  0  0  0  0  0  0  0  0
    0.2143    1.3285    0.9271 C   0  0  0  0  0  0  0  0  0  0  0  0
   -0.6188    2.3239    0.4366 C   0  0  0  0  0  0  0  0  0  0  0  0
   -1.9371    1.9834    0.1262 C   0  0  0  0  0  0  0  0  0  0  0  0
   -2.3896    0.6739    0.3066 C   0  0  0  0  0  0  0  0  0  0  0  0
   -1.8704   -1.3215    0.9410 H   0  0  0  0  0  0  0  0  0  0  0  0
    0.4979   -0.7187    1.4989 H   0  0  0  0  0  0  0  0  0  0  0  0
   -0.2375    3.3306    0.3059 H   0  0  0  0  0  0  0  0  0  0  0  0
   -2.6087    2.7451   -0.2579 H   0  0  0  0  0  0  0  0  0  0  0  0
    5.3194    1.7905   -2.6078 N   0  0  0  0  0  0  0  0  0  0  0  0
    5.4622    0.9224   -1.9394 N   0  0  0  0  0  0  0  0  0  0  0  0
    3.3380    0.3264    0.5212 B   0  0  0  0  0  0  0  0  0  0  0  0
    2.8450    0.2795   -0.7039 F   0  0  0  0  0  0  0  0  0  0  0  0
    4.1946    1.2711    0.8577 F   0  0  0  0  0  0  0  0  0  0  0  0
    1.5026    1.6626    1.2423 F   0  0  0  0  0  0  0  0  0  0  0  0
    3.0648   -0.6516    1.3716 F   0  0  0  0  0  0  0  0  0  0  0  0
   -3.4147    0.4153    0.0614 H   0  0  0  0  0  0  0  0  0  0  0  0
  1  7  1  0  0  0  0
  1  2  2  0  0  0  0
  2  8  1  0  0  0  0
  3  2  1  0  0  0  0
  3 16  1  0  0  0  0
  4  3  2  0  0  0  0
  5  6  2  0  0  0  0
  5  4  1  0  0  0  0
  6  1  1  0  0  0  0
  9  4  1  0  0  0  0
 10  5  1  0  0  0  0
 11 12  3  0  0  0  0
 13 15  1  0  0  0  0
 13 17  1  0  0  0  0
 14 13  1  0  0  0  0
 18  6  1  0  0  0  0
M  END
