Coordinates from ORCA-job Ph-N2-BF4-B3LYPG-6-31G_dp-MTMO-d009-169-n800
 OpenBabel09051907443D

 18 16  0  0  0  0  0  0  0  0999 V2000
   -2.0140   -0.2508    0.4613 C   0  0  0  0  0  0  0  0  0  0  0  0
   -0.6965    0.2026    0.5575 C   0  0  0  0  0  0  0  0  0  0  0  0
   -0.4864    1.4935    1.0215 C   0  0  0  0  0  0  0  0  0  0  0  0
   -1.5184    2.3454    1.3885 C   0  0  0  0  0  0  0  0  0  0  0  0
   -2.8285    1.8729    1.2860 C   0  0  0  0  0  0  0  0  0  0  0  0
   -3.0780    0.5786    0.8237 C   0  0  0  0  0  0  0  0  0  0  0  0
   -2.2055   -1.2564    0.1001 H   0  0  0  0  0  0  0  0  0  0  0  0
    0.1484   -0.4157    0.2794 H   0  0  0  0  0  0  0  0  0  0  0  0
   -1.2919    3.3446    1.7434 H   0  0  0  0  0  0  0  0  0  0  0  0
   -3.6529    2.5205    1.5682 H   0  0  0  0  0  0  0  0  0  0  0  0
   11.7527   -1.7213   -1.8461 N   0  0  0  0  0  0  0  0  0  0  0  0
   10.7763   -1.2375   -2.0308 N   0  0  0  0  0  0  0  0  0  0  0  0
    2.4869    1.6149   -0.5331 B   0  0  0  0  0  0  0  0  0  0  0  0
    1.7340    2.1673   -1.4662 F   0  0  0  0  0  0  0  0  0  0  0  0
    3.3432    2.3475    0.1517 F   0  0  0  0  0  0  0  0  0  0  0  0
    0.7971    1.9533    1.1308 F   0  0  0  0  0  0  0  0  0  0  0  0
    2.4725    0.2990   -0.3753 F   0  0  0  0  0  0  0  0  0  0  0  0
   -4.0987    0.2174    0.7453 H   0  0  0  0  0  0  0  0  0  0  0  0
  1  2  2  0  0  0  0
  1  6  1  0  0  0  0
  2  3  1  0  0  0  0
  3 16  1  0  0  0  0
  3  4  2  0  0  0  0
  4  9  1  0  0  0  0
  5  4  1  0  0  0  0
  5 10  1  0  0  0  0
  6  5  2  0  0  0  0
  7  1  1  0  0  0  0
  8  2  1  0  0  0  0
 12 11  3  0  0  0  0
 13 17  1  0  0  0  0
 13 15  1  0  0  0  0
 14 13  1  0  0  0  0
 18  6  1  0  0  0  0
M  END
