Coordinates from ORCA-job Ph-N2-BF4-B3LYPG-6-31G_dp-MTMO-d009-169-n800
 OpenBabel09051907443D

 18 16  0  0  0  0  0  0  0  0999 V2000
   -1.6417   -0.3352    0.4266 C   0  0  0  0  0  0  0  0  0  0  0  0
   -0.3567    0.1113    0.7421 C   0  0  0  0  0  0  0  0  0  0  0  0
   -0.1880    1.4597    1.0237 C   0  0  0  0  0  0  0  0  0  0  0  0
   -1.2311    2.3747    1.0048 C   0  0  0  0  0  0  0  0  0  0  0  0
   -2.5088    1.9081    0.6886 C   0  0  0  0  0  0  0  0  0  0  0  0
   -2.7159    0.5574    0.3993 C   0  0  0  0  0  0  0  0  0  0  0  0
   -1.7995   -1.3852    0.1995 H   0  0  0  0  0  0  0  0  0  0  0  0
    0.4967   -0.5560    0.7686 H   0  0  0  0  0  0  0  0  0  0  0  0
   -1.0385    3.4168    1.2353 H   0  0  0  0  0  0  0  0  0  0  0  0
   -3.3416    2.6046    0.6679 H   0  0  0  0  0  0  0  0  0  0  0  0
    8.6031   -0.6979   -2.4369 N   0  0  0  0  0  0  0  0  0  0  0  0
    7.6451   -0.4445   -1.9472 N   0  0  0  0  0  0  0  0  0  0  0  0
    3.0663    1.2484    0.1997 B   0  0  0  0  0  0  0  0  0  0  0  0
    2.5659    1.5968   -0.9712 F   0  0  0  0  0  0  0  0  0  0  0  0
    3.7794    2.1078    0.9010 F   0  0  0  0  0  0  0  0  0  0  0  0
    1.0617    1.9142    1.3415 F   0  0  0  0  0  0  0  0  0  0  0  0
    2.9552   -0.0065    0.6108 F   0  0  0  0  0  0  0  0  0  0  0  0
   -3.7111    0.2015    0.1518 H   0  0  0  0  0  0  0  0  0  0  0  0
  1  2  1  0  0  0  0
  2  8  1  0  0  0  0
  2  3  2  0  0  0  0
  3 16  1  0  0  0  0
  4  3  1  0  0  0  0
  4  9  1  0  0  0  0
  5  4  2  0  0  0  0
  6  1  2  0  0  0  0
  6  5  1  0  0  0  0
  7  1  1  0  0  0  0
 10  5  1  0  0  0  0
 11 12  3  0  0  0  0
 13 17  1  0  0  0  0
 13 15  1  0  0  0  0
 14 13  1  0  0  0  0
 18  6  1  0  0  0  0
M  END
