Coordinates from ORCA-job Ph-N2-BF4-B3LYPG-6-31G_dp-MTMO-d009-169-n800
 OpenBabel09051907443D

 18 16  0  0  0  0  0  0  0  0999 V2000
   -1.2268   -0.0842    0.2620 C   0  0  0  0  0  0  0  0  0  0  0  0
    0.1008    0.0418    0.6766 C   0  0  0  0  0  0  0  0  0  0  0  0
    0.6439    1.3176    0.7439 C   0  0  0  0  0  0  0  0  0  0  0  0
   -0.0761    2.4625    0.4302 C   0  0  0  0  0  0  0  0  0  0  0  0
   -1.4021    2.3155    0.0186 C   0  0  0  0  0  0  0  0  0  0  0  0
   -1.9786    1.0458   -0.0682 C   0  0  0  0  0  0  0  0  0  0  0  0
   -1.6725   -1.0725    0.1987 H   0  0  0  0  0  0  0  0  0  0  0  0
    0.7067   -0.8159    0.9416 H   0  0  0  0  0  0  0  0  0  0  0  0
    0.3991    3.4343    0.5071 H   0  0  0  0  0  0  0  0  0  0  0  0
   -1.9827    3.1971   -0.2350 H   0  0  0  0  0  0  0  0  0  0  0  0
    2.0520    1.2267   -1.7466 N   0  0  0  0  0  0  0  0  0  0  0  0
    1.7567    1.0811   -2.8019 N   0  0  0  0  0  0  0  0  0  0  0  0
    3.8278   -0.0981    1.3249 B   0  0  0  0  0  0  0  0  0  0  0  0
    4.2185    0.0861    0.0782 F   0  0  0  0  0  0  0  0  0  0  0  0
    4.3162    0.6511    2.2930 F   0  0  0  0  0  0  0  0  0  0  0  0
    1.9353    1.4655    1.1571 F   0  0  0  0  0  0  0  0  0  0  0  0
    3.0310   -1.1161    1.6169 F   0  0  0  0  0  0  0  0  0  0  0  0
   -3.0090    0.9379   -0.3912 H   0  0  0  0  0  0  0  0  0  0  0  0
  1  2  2  0  0  0  0
  2  3  1  0  0  0  0
  2  8  1  0  0  0  0
  3 16  1  0  0  0  0
  4  9  1  0  0  0  0
  4  3  2  0  0  0  0
  5  4  1  0  0  0  0
  6  5  2  0  0  0  0
  6  1  1  0  0  0  0
  7  1  1  0  0  0  0
 10  5  1  0  0  0  0
 12 11  3  0  0  0  0
 13 17  1  0  0  0  0
 13 15  1  0  0  0  0
 14 13  1  0  0  0  0
 18  6  1  0  0  0  0
M  END
