Coordinates from ORCA-job Ph-N2-BF4-B3LYPG-6-31G_dp-MTMO-d009-169-n800
 OpenBabel09051907443D

 18 16  0  0  0  0  0  0  0  0999 V2000
   -2.2356   -0.2108    0.5162 C   0  0  0  0  0  0  0  0  0  0  0  0
   -0.9184    0.2487    0.5823 C   0  0  0  0  0  0  0  0  0  0  0  0
   -0.7028    1.5360    1.0534 C   0  0  0  0  0  0  0  0  0  0  0  0
   -1.7292    2.3792    1.4549 C   0  0  0  0  0  0  0  0  0  0  0  0
   -3.0392    1.9008    1.3817 C   0  0  0  0  0  0  0  0  0  0  0  0
   -3.2940    0.6095    0.9140 C   0  0  0  0  0  0  0  0  0  0  0  0
   -2.4314   -1.2140    0.1507 H   0  0  0  0  0  0  0  0  0  0  0  0
   -0.0779   -0.3622    0.2757 H   0  0  0  0  0  0  0  0  0  0  0  0
   -1.4986    3.3762    1.8132 H   0  0  0  0  0  0  0  0  0  0  0  0
   -3.8592    2.5415    1.6909 H   0  0  0  0  0  0  0  0  0  0  0  0
   13.5430   -2.1491   -2.1422 N   0  0  0  0  0  0  0  0  0  0  0  0
   12.5651   -1.6636   -2.3146 N   0  0  0  0  0  0  0  0  0  0  0  0
    2.2411    1.7167   -0.5677 B   0  0  0  0  0  0  0  0  0  0  0  0
    1.4926    2.3399   -1.4586 F   0  0  0  0  0  0  0  0  0  0  0  0
    3.1198    2.3885    0.1501 F   0  0  0  0  0  0  0  0  0  0  0  0
    0.5809    2.0011    1.1350 F   0  0  0  0  0  0  0  0  0  0  0  0
    2.1989    0.3943   -0.4881 F   0  0  0  0  0  0  0  0  0  0  0  0
   -4.3146    0.2435    0.8591 H   0  0  0  0  0  0  0  0  0  0  0  0
  1  2  2  0  0  0  0
  1  6  1  0  0  0  0
  2  3  1  0  0  0  0
  3 16  1  0  0  0  0
  3  4  2  0  0  0  0
  4  9  1  0  0  0  0
  5  4  1  0  0  0  0
  5 10  1  0  0  0  0
  6  5  2  0  0  0  0
  7  1  1  0  0  0  0
  8  2  1  0  0  0  0
 12 11  3  0  0  0  0
 13 17  1  0  0  0  0
 13 15  1  0  0  0  0
 14 13  1  0  0  0  0
 18  6  1  0  0  0  0
M  END
