Coordinates from ORCA-job Ph-N2-BF4-B3LYPG-6-31G_dp-MTMO-d009-169-n800
 OpenBabel09051907443D

 18 16  0  0  0  0  0  0  0  0999 V2000
   -1.4154   -0.3474    0.4294 C   0  0  0  0  0  0  0  0  0  0  0  0
   -0.1173    0.0657    0.7364 C   0  0  0  0  0  0  0  0  0  0  0  0
    0.0957    1.4154    0.9801 C   0  0  0  0  0  0  0  0  0  0  0  0
   -0.9174    2.3626    0.9305 C   0  0  0  0  0  0  0  0  0  0  0  0
   -2.2089    1.9295    0.6229 C   0  0  0  0  0  0  0  0  0  0  0  0
   -2.4597    0.5784    0.3721 C   0  0  0  0  0  0  0  0  0  0  0  0
   -1.6071   -1.3980    0.2323 H   0  0  0  0  0  0  0  0  0  0  0  0
    0.7137   -0.6281    0.7843 H   0  0  0  0  0  0  0  0  0  0  0  0
   -0.6911    3.4042    1.1310 H   0  0  0  0  0  0  0  0  0  0  0  0
   -3.0180    2.6523    0.5784 H   0  0  0  0  0  0  0  0  0  0  0  0
    6.3839   -0.3215   -2.0377 N   0  0  0  0  0  0  0  0  0  0  0  0
    5.5730    0.0992   -1.4172 N   0  0  0  0  0  0  0  0  0  0  0  0
    3.3392    1.0545    0.0707 B   0  0  0  0  0  0  0  0  0  0  0  0
    2.7849    1.4000   -1.0764 F   0  0  0  0  0  0  0  0  0  0  0  0
    4.1039    1.9060    0.7253 F   0  0  0  0  0  0  0  0  0  0  0  0
    1.3577    1.8364    1.2883 F   0  0  0  0  0  0  0  0  0  0  0  0
    3.1885   -0.1814    0.5243 F   0  0  0  0  0  0  0  0  0  0  0  0
   -3.4653    0.2483    0.1311 H   0  0  0  0  0  0  0  0  0  0  0  0
  1  2  1  0  0  0  0
  2  8  1  0  0  0  0
  2  3  2  0  0  0  0
  3 16  1  0  0  0  0
  4  3  1  0  0  0  0
  4  9  1  0  0  0  0
  5  4  2  0  0  0  0
  6  1  2  0  0  0  0
  6  5  1  0  0  0  0
  7  1  1  0  0  0  0
 10  5  1  0  0  0  0
 11 12  3  0  0  0  0
 13 17  1  0  0  0  0
 13 15  1  0  0  0  0
 14 13  1  0  0  0  0
 18  6  1  0  0  0  0
M  END
