Coordinates from ORCA-job Ph-N2-BF4-B3LYPG-6-31G_dp-MTMO-d009-169-n800
 OpenBabel09051907443D

 18 17  0  0  0  0  0  0  0  0999 V2000
   -1.1863    0.1335    0.8187 C   0  0  0  0  0  0  0  0  0  0  0  0
    0.1606    0.2221    0.4307 C   0  0  0  0  0  0  0  0  0  0  0  0
    0.4054    1.3588   -0.2821 C   0  0  0  0  0  0  0  0  0  0  0  0
   -0.3898    2.4028   -0.6795 C   0  0  0  0  0  0  0  0  0  0  0  0
   -1.7180    2.2568   -0.2546 C   0  0  0  0  0  0  0  0  0  0  0  0
   -2.1044    1.1340    0.4848 C   0  0  0  0  0  0  0  0  0  0  0  0
   -1.4995   -0.7312    1.3946 H   0  0  0  0  0  0  0  0  0  0  0  0
    0.9446   -0.5039    0.6537 H   0  0  0  0  0  0  0  0  0  0  0  0
   -0.0389    3.2518   -1.2505 H   0  0  0  0  0  0  0  0  0  0  0  0
   -2.4363    3.0288   -0.5100 H   0  0  0  0  0  0  0  0  0  0  0  0
    2.0843    1.5157   -0.8555 N   0  0  0  0  0  0  0  0  0  0  0  0
    3.0752    1.6292   -1.3313 N   0  0  0  0  0  0  0  0  0  0  0  0
    3.5294   -0.1459    1.1431 B   0  0  0  0  0  0  0  0  0  0  0  0
    4.4953    0.3175    0.2343 F   0  0  0  0  0  0  0  0  0  0  0  0
    4.0808   -0.7127    2.2617 F   0  0  0  0  0  0  0  0  0  0  0  0
    2.6878    0.9591    1.4867 F   0  0  0  0  0  0  0  0  0  0  0  0
    2.6865   -1.0803    0.4543 F   0  0  0  0  0  0  0  0  0  0  0  0
   -3.1362    1.0399    0.8068 H   0  0  0  0  0  0  0  0  0  0  0  0
  1  7  1  0  0  0  0
  2  8  1  0  0  0  0
  2  1  2  0  0  0  0
  3  2  1  0  0  0  0
  4  3  2  0  0  0  0
  4  5  1  0  0  0  0
  5  6  2  0  0  0  0
  6 18  1  0  0  0  0
  6  1  1  0  0  0  0
  9  4  1  0  0  0  0
 10  5  1  0  0  0  0
 11  3  1  0  0  0  0
 12 11  1  0  0  0  0
 13 16  1  0  0  0  0
 13 15  1  0  0  0  0
 14 13  1  0  0  0  0
 17 13  1  0  0  0  0
M  RAD  2  11   2  12   3
M  END
