Coordinates from ORCA-job Ph-N2-BF4-B3LYPG-6-31G_dp-MTMO-d009-169-n800
 OpenBabel09051907443D

 18 16  0  0  0  0  0  0  0  0999 V2000
   -2.2571   -0.2068    0.5211 C   0  0  0  0  0  0  0  0  0  0  0  0
   -0.9401    0.2537    0.5829 C   0  0  0  0  0  0  0  0  0  0  0  0
   -0.7238    1.5404    1.0555 C   0  0  0  0  0  0  0  0  0  0  0  0
   -1.7494    2.3821    1.4623 C   0  0  0  0  0  0  0  0  0  0  0  0
   -3.0592    1.9027    1.3932 C   0  0  0  0  0  0  0  0  0  0  0  0
   -3.3147    0.6119    0.9243 C   0  0  0  0  0  0  0  0  0  0  0  0
   -2.4535   -1.2096    0.1547 H   0  0  0  0  0  0  0  0  0  0  0  0
   -0.1001   -0.3557    0.2722 H   0  0  0  0  0  0  0  0  0  0  0  0
   -1.5183    3.3787    1.8214 H   0  0  0  0  0  0  0  0  0  0  0  0
   -3.8786    2.5421    1.7066 H   0  0  0  0  0  0  0  0  0  0  0  0
   13.7156   -2.1909   -2.1672 N   0  0  0  0  0  0  0  0  0  0  0  0
   12.7377   -1.7059   -2.3407 N   0  0  0  0  0  0  0  0  0  0  0  0
    2.2173    1.7271   -0.5732 B   0  0  0  0  0  0  0  0  0  0  0  0
    1.4701    2.3575   -1.4600 F   0  0  0  0  0  0  0  0  0  0  0  0
    3.0982    2.3924    0.1482 F   0  0  0  0  0  0  0  0  0  0  0  0
    0.5598    2.0065    1.1331 F   0  0  0  0  0  0  0  0  0  0  0  0
    2.1718    0.4044   -0.5013 F   0  0  0  0  0  0  0  0  0  0  0  0
   -4.3352    0.2452    0.8727 H   0  0  0  0  0  0  0  0  0  0  0  0
  1  2  2  0  0  0  0
  1  6  1  0  0  0  0
  2  3  1  0  0  0  0
  3 16  1  0  0  0  0
  3  4  2  0  0  0  0
  4  9  1  0  0  0  0
  5  4  1  0  0  0  0
  5 10  1  0  0  0  0
  6  5  2  0  0  0  0
  7  1  1  0  0  0  0
  8  2  1  0  0  0  0
 12 11  3  0  0  0  0
 13 17  1  0  0  0  0
 13 15  1  0  0  0  0
 14 13  1  0  0  0  0
 18  6  1  0  0  0  0
M  END
