Coordinates from ORCA-job Ph-N2-BF4-B3LYPG-6-31G_dp-MTMO-d009-169-n800
 OpenBabel09051907443D

 18 16  0  0  0  0  0  0  0  0999 V2000
   -1.2155   -0.0826    0.2443 C   0  0  0  0  0  0  0  0  0  0  0  0
    0.1083    0.0427    0.6708 C   0  0  0  0  0  0  0  0  0  0  0  0
    0.6527    1.3180    0.7410 C   0  0  0  0  0  0  0  0  0  0  0  0
   -0.0659    2.4636    0.4264 C   0  0  0  0  0  0  0  0  0  0  0  0
   -1.3881    2.3175    0.0028 C   0  0  0  0  0  0  0  0  0  0  0  0
   -1.9639    1.0480   -0.0916 C   0  0  0  0  0  0  0  0  0  0  0  0
   -1.6612   -1.0706    0.1768 H   0  0  0  0  0  0  0  0  0  0  0  0
    0.7116   -0.8155    0.9403 H   0  0  0  0  0  0  0  0  0  0  0  0
    0.4082    3.4354    0.5100 H   0  0  0  0  0  0  0  0  0  0  0  0
   -1.9668    3.1997   -0.2534 H   0  0  0  0  0  0  0  0  0  0  0  0
    1.9852    1.2061   -1.6761 N   0  0  0  0  0  0  0  0  0  0  0  0
    1.6537    1.0709   -2.7222 N   0  0  0  0  0  0  0  0  0  0  0  0
    3.8383   -0.0948    1.3192 B   0  0  0  0  0  0  0  0  0  0  0  0
    4.2279    0.0951    0.0731 F   0  0  0  0  0  0  0  0  0  0  0  0
    4.3261    0.6516    2.2899 F   0  0  0  0  0  0  0  0  0  0  0  0
    1.9382    1.4651    1.1709 F   0  0  0  0  0  0  0  0  0  0  0  0
    3.0430   -1.1149    1.6076 F   0  0  0  0  0  0  0  0  0  0  0  0
   -2.9914    0.9408   -0.4239 H   0  0  0  0  0  0  0  0  0  0  0  0
  1  2  2  0  0  0  0
  2  3  1  0  0  0  0
  2  8  1  0  0  0  0
  3 16  1  0  0  0  0
  4  9  1  0  0  0  0
  4  3  2  0  0  0  0
  5  4  1  0  0  0  0
  6  5  2  0  0  0  0
  6  1  1  0  0  0  0
  7  1  1  0  0  0  0
 10  5  1  0  0  0  0
 12 11  3  0  0  0  0
 13 17  1  0  0  0  0
 13 15  1  0  0  0  0
 14 13  1  0  0  0  0
 18  6  1  0  0  0  0
M  END
