Coordinates from ORCA-job Ph-N2-BF4-B3LYPG-6-31G_dp-MTMO-d009-169-n800
 OpenBabel09051907443D

 18 16  0  0  0  0  0  0  0  0999 V2000
   -1.6766   -0.3111    0.5664 C   0  0  0  0  0  0  0  0  0  0  0  0
   -0.3520    0.1087    0.4261 C   0  0  0  0  0  0  0  0  0  0  0  0
   -0.0794    1.4628    0.5672 C   0  0  0  0  0  0  0  0  0  0  0  0
   -1.0592    2.4078    0.8391 C   0  0  0  0  0  0  0  0  0  0  0  0
   -2.3777    1.9678    0.9759 C   0  0  0  0  0  0  0  0  0  0  0  0
   -2.6881    0.6125    0.8402 C   0  0  0  0  0  0  0  0  0  0  0  0
   -1.9155   -1.3650    0.4590 H   0  0  0  0  0  0  0  0  0  0  0  0
    0.4549   -0.5825    0.2127 H   0  0  0  0  0  0  0  0  0  0  0  0
   -0.7867    3.4526    0.9402 H   0  0  0  0  0  0  0  0  0  0  0  0
   -3.1614    2.6885    1.1890 H   0  0  0  0  0  0  0  0  0  0  0  0
    7.5577    0.0888   -1.3325 N   0  0  0  0  0  0  0  0  0  0  0  0
    6.4967    0.2159   -1.0506 N   0  0  0  0  0  0  0  0  0  0  0  0
    3.4180    0.8018   -0.2472 B   0  0  0  0  0  0  0  0  0  0  0  0
    3.4254    1.4665   -1.3853 F   0  0  0  0  0  0  0  0  0  0  0  0
    3.9905    1.3097    0.8254 F   0  0  0  0  0  0  0  0  0  0  0  0
    1.2092    1.8911    0.4333 F   0  0  0  0  0  0  0  0  0  0  0  0
    2.8994   -0.4169   -0.2019 F   0  0  0  0  0  0  0  0  0  0  0  0
   -3.7148    0.2772    0.9488 H   0  0  0  0  0  0  0  0  0  0  0  0
  1  6  1  0  0  0  0
  2  1  2  0  0  0  0
  2  3  1  0  0  0  0
  3  4  2  0  0  0  0
  4  9  1  0  0  0  0
  4  5  1  0  0  0  0
  5 10  1  0  0  0  0
  6 18  1  0  0  0  0
  6  5  2  0  0  0  0
  7  1  1  0  0  0  0
  8  2  1  0  0  0  0
 11 12  3  0  0  0  0
 13 17  1  0  0  0  0
 13 15  1  0  0  0  0
 14 13  1  0  0  0  0
 16  3  1  0  0  0  0
M  END
