Coordinates from ORCA-job Ph-N2-BF4-B3LYPG-6-31G_dp-MTMO-d009-169-n800
 OpenBabel09051907443D

 18 16  0  0  0  0  0  0  0  0999 V2000
   -1.3573   -0.1039    0.4911 C   0  0  0  0  0  0  0  0  0  0  0  0
   -0.0015    0.0187    0.8030 C   0  0  0  0  0  0  0  0  0  0  0  0
    0.5739    1.2790    0.7183 C   0  0  0  0  0  0  0  0  0  0  0  0
   -0.1353    2.4106    0.3394 C   0  0  0  0  0  0  0  0  0  0  0  0
   -1.4897    2.2671    0.0323 C   0  0  0  0  0  0  0  0  0  0  0  0
   -2.1020    1.0135    0.1065 C   0  0  0  0  0  0  0  0  0  0  0  0
   -1.8301   -1.0798    0.5505 H   0  0  0  0  0  0  0  0  0  0  0  0
    0.6003   -0.8295    1.1052 H   0  0  0  0  0  0  0  0  0  0  0  0
    0.3685    3.3697    0.2900 H   0  0  0  0  0  0  0  0  0  0  0  0
   -2.0641    3.1386   -0.2668 H   0  0  0  0  0  0  0  0  0  0  0  0
    2.5187    1.4871   -2.0175 N   0  0  0  0  0  0  0  0  0  0  0  0
    2.6915    1.4839   -3.1091 N   0  0  0  0  0  0  0  0  0  0  0  0
    3.7602   -0.1562    1.2651 B   0  0  0  0  0  0  0  0  0  0  0  0
    4.1435   -0.0228    0.0095 F   0  0  0  0  0  0  0  0  0  0  0  0
    4.2642    0.6231    2.2008 F   0  0  0  0  0  0  0  0  0  0  0  0
    1.8972    1.4243    1.0221 F   0  0  0  0  0  0  0  0  0  0  0  0
    2.9571   -1.1553    1.6015 F   0  0  0  0  0  0  0  0  0  0  0  0
   -3.1546    0.9078   -0.1361 H   0  0  0  0  0  0  0  0  0  0  0  0
  1  7  1  0  0  0  0
  1  2  2  0  0  0  0
  2  8  1  0  0  0  0
  3  2  1  0  0  0  0
  3 16  1  0  0  0  0
  4  3  2  0  0  0  0
  5  6  2  0  0  0  0
  5  4  1  0  0  0  0
  6  1  1  0  0  0  0
  9  4  1  0  0  0  0
 10  5  1  0  0  0  0
 12 11  3  0  0  0  0
 13 17  1  0  0  0  0
 13 15  1  0  0  0  0
 14 13  1  0  0  0  0
 18  6  1  0  0  0  0
M  END
