Coordinates from ORCA-job Ph-N2-BF4-B3LYPG-6-31G_dp-MTMO-d009-169-n800
 OpenBabel09051907443D

 18 16  0  0  0  0  0  0  0  0999 V2000
   -2.0311   -0.2468    0.4645 C   0  0  0  0  0  0  0  0  0  0  0  0
   -0.7126    0.2037    0.5586 C   0  0  0  0  0  0  0  0  0  0  0  0
   -0.4988    1.4939    1.0228 C   0  0  0  0  0  0  0  0  0  0  0  0
   -1.5284    2.3480    1.3919 C   0  0  0  0  0  0  0  0  0  0  0  0
   -2.8397    1.8783    1.2914 C   0  0  0  0  0  0  0  0  0  0  0  0
   -3.0927    0.5847    0.8290 C   0  0  0  0  0  0  0  0  0  0  0  0
   -2.2256   -1.2518    0.1032 H   0  0  0  0  0  0  0  0  0  0  0  0
    0.1307   -0.4161    0.2789 H   0  0  0  0  0  0  0  0  0  0  0  0
   -1.2992    3.3466    1.7468 H   0  0  0  0  0  0  0  0  0  0  0  0
   -3.6622    2.5276    1.5751 H   0  0  0  0  0  0  0  0  0  0  0  0
   11.8587   -1.7370   -1.8648 N   0  0  0  0  0  0  0  0  0  0  0  0
   10.8817   -1.2531   -2.0463 N   0  0  0  0  0  0  0  0  0  0  0  0
    2.4748    1.6131   -0.5342 B   0  0  0  0  0  0  0  0  0  0  0  0
    1.7218    2.1687   -1.4652 F   0  0  0  0  0  0  0  0  0  0  0  0
    3.3329    2.3429    0.1513 F   0  0  0  0  0  0  0  0  0  0  0  0
    0.7859    1.9508    1.1300 F   0  0  0  0  0  0  0  0  0  0  0  0
    2.4586    0.2968   -0.3793 F   0  0  0  0  0  0  0  0  0  0  0  0
   -4.1144    0.2258    0.7522 H   0  0  0  0  0  0  0  0  0  0  0  0
  1  2  2  0  0  0  0
  1  6  1  0  0  0  0
  2  3  1  0  0  0  0
  3 16  1  0  0  0  0
  3  4  2  0  0  0  0
  4  9  1  0  0  0  0
  5  4  1  0  0  0  0
  5 10  1  0  0  0  0
  6  5  2  0  0  0  0
  7  1  1  0  0  0  0
  8  2  1  0  0  0  0
 12 11  3  0  0  0  0
 13 17  1  0  0  0  0
 13 15  1  0  0  0  0
 14 13  1  0  0  0  0
 18  6  1  0  0  0  0
M  END
