Coordinates from ORCA-job Ph-N2-BF4-B3LYPG-6-31G_dp-MTMO-d009-169-n800
 OpenBabel09051907443D

 18 16  0  0  0  0  0  0  0  0999 V2000
   -1.8185   -0.2937    0.4246 C   0  0  0  0  0  0  0  0  0  0  0  0
   -0.5024    0.1582    0.5426 C   0  0  0  0  0  0  0  0  0  0  0  0
   -0.2993    1.4564    0.9889 C   0  0  0  0  0  0  0  0  0  0  0  0
   -1.3369    2.3170    1.3179 C   0  0  0  0  0  0  0  0  0  0  0  0
   -2.6456    1.8457    1.1940 C   0  0  0  0  0  0  0  0  0  0  0  0
   -2.8881    0.5442    0.7485 C   0  0  0  0  0  0  0  0  0  0  0  0
   -2.0045   -1.3049    0.0762 H   0  0  0  0  0  0  0  0  0  0  0  0
    0.3470   -0.4668    0.2945 H   0  0  0  0  0  0  0  0  0  0  0  0
   -1.1157    3.3216    1.6608 H   0  0  0  0  0  0  0  0  0  0  0  0
   -3.4744    2.5000    1.4465 H   0  0  0  0  0  0  0  0  0  0  0  0
   10.1650   -1.3472   -1.5760 N   0  0  0  0  0  0  0  0  0  0  0  0
    9.2051   -0.8520   -1.8107 N   0  0  0  0  0  0  0  0  0  0  0  0
    2.7108    1.5329   -0.4965 B   0  0  0  0  0  0  0  0  0  0  0  0
    1.9780    2.0566   -1.4616 F   0  0  0  0  0  0  0  0  0  0  0  0
    3.5508    2.2864    0.1856 F   0  0  0  0  0  0  0  0  0  0  0  0
    0.9827    1.9152    1.1188 F   0  0  0  0  0  0  0  0  0  0  0  0
    2.6943    0.2221   -0.3012 F   0  0  0  0  0  0  0  0  0  0  0  0
   -3.9078    0.1843    0.6530 H   0  0  0  0  0  0  0  0  0  0  0  0
  1  2  2  0  0  0  0
  1  6  1  0  0  0  0
  2  3  1  0  0  0  0
  3 16  1  0  0  0  0
  3  4  2  0  0  0  0
  4  9  1  0  0  0  0
  5  4  1  0  0  0  0
  5 10  1  0  0  0  0
  6  5  2  0  0  0  0
  7  1  1  0  0  0  0
  8  2  1  0  0  0  0
 12 11  3  0  0  0  0
 13 17  1  0  0  0  0
 13 15  1  0  0  0  0
 14 13  1  0  0  0  0
 18  6  1  0  0  0  0
M  END
