Coordinates from ORCA-job Ph-N2-BF4-B3LYPG-6-31G_dp-MTMO-d009-169-n800
 OpenBabel09051907443D

 18 16  0  0  0  0  0  0  0  0999 V2000
   -2.0383   -0.2451    0.4660 C   0  0  0  0  0  0  0  0  0  0  0  0
   -0.7196    0.2049    0.5595 C   0  0  0  0  0  0  0  0  0  0  0  0
   -0.5049    1.4949    1.0239 C   0  0  0  0  0  0  0  0  0  0  0  0
   -1.5340    2.3493    1.3937 C   0  0  0  0  0  0  0  0  0  0  0  0
   -2.8456    1.8801    1.2937 C   0  0  0  0  0  0  0  0  0  0  0  0
   -3.0994    0.5868    0.8312 C   0  0  0  0  0  0  0  0  0  0  0  0
   -2.2333   -1.2499    0.1045 H   0  0  0  0  0  0  0  0  0  0  0  0
    0.1234   -0.4152    0.2792 H   0  0  0  0  0  0  0  0  0  0  0  0
   -1.3043    3.3477    1.7487 H   0  0  0  0  0  0  0  0  0  0  0  0
   -3.6677    2.5297    1.5781 H   0  0  0  0  0  0  0  0  0  0  0  0
   11.9109   -1.7471   -1.8744 N   0  0  0  0  0  0  0  0  0  0  0  0
   10.9337   -1.2630   -2.0546 N   0  0  0  0  0  0  0  0  0  0  0  0
    2.4680    1.6136   -0.5346 B   0  0  0  0  0  0  0  0  0  0  0  0
    1.7150    2.1706   -1.4649 F   0  0  0  0  0  0  0  0  0  0  0  0
    3.3269    2.3421    0.1512 F   0  0  0  0  0  0  0  0  0  0  0  0
    0.7800    1.9511    1.1306 F   0  0  0  0  0  0  0  0  0  0  0  0
    2.4508    0.2972   -0.3809 F   0  0  0  0  0  0  0  0  0  0  0  0
   -4.1212    0.2283    0.7548 H   0  0  0  0  0  0  0  0  0  0  0  0
  1  2  2  0  0  0  0
  1  6  1  0  0  0  0
  2  3  1  0  0  0  0
  3 16  1  0  0  0  0
  3  4  2  0  0  0  0
  4  9  1  0  0  0  0
  5  4  1  0  0  0  0
  5 10  1  0  0  0  0
  6  5  2  0  0  0  0
  7  1  1  0  0  0  0
  8  2  1  0  0  0  0
 12 11  3  0  0  0  0
 13 17  1  0  0  0  0
 13 15  1  0  0  0  0
 14 13  1  0  0  0  0
 18  6  1  0  0  0  0
M  END
