Coordinates from ORCA-job Ph-N2-BF4-B3LYPG-6-31G_dp-MTMO-d009-169-n800
 OpenBabel09051907443D

 18 16  0  0  0  0  0  0  0  0999 V2000
   -1.7849   -0.3081    0.5755 C   0  0  0  0  0  0  0  0  0  0  0  0
   -0.4574    0.1222    0.5167 C   0  0  0  0  0  0  0  0  0  0  0  0
   -0.2060    1.4781    0.6751 C   0  0  0  0  0  0  0  0  0  0  0  0
   -1.2081    2.4150    0.8866 C   0  0  0  0  0  0  0  0  0  0  0  0
   -2.5288    1.9643    0.9422 C   0  0  0  0  0  0  0  0  0  0  0  0
   -2.8188    0.6066    0.7872 C   0  0  0  0  0  0  0  0  0  0  0  0
   -2.0079   -1.3638    0.4529 H   0  0  0  0  0  0  0  0  0  0  0  0
    0.3653   -0.5632    0.3519 H   0  0  0  0  0  0  0  0  0  0  0  0
   -0.9507    3.4619    1.0047 H   0  0  0  0  0  0  0  0  0  0  0  0
   -3.3299    2.6784    1.1074 H   0  0  0  0  0  0  0  0  0  0  0  0
    8.7234   -0.1811   -1.7894 N   0  0  0  0  0  0  0  0  0  0  0  0
    7.6703   -0.0825   -1.4683 N   0  0  0  0  0  0  0  0  0  0  0  0
    3.2113    0.9300   -0.1151 B   0  0  0  0  0  0  0  0  0  0  0  0
    3.1534    1.5742   -1.2641 F   0  0  0  0  0  0  0  0  0  0  0  0
    3.8136    1.4728    0.9242 F   0  0  0  0  0  0  0  0  0  0  0  0
    1.0848    1.9217    0.6232 F   0  0  0  0  0  0  0  0  0  0  0  0
    2.7582   -0.3132   -0.0364 F   0  0  0  0  0  0  0  0  0  0  0  0
   -3.8475    0.2626    0.8319 H   0  0  0  0  0  0  0  0  0  0  0  0
  1  6  1  0  0  0  0
  2  1  2  0  0  0  0
  2  3  1  0  0  0  0
  3  4  2  0  0  0  0
  4  5  1  0  0  0  0
  4  9  1  0  0  0  0
  5 10  1  0  0  0  0
  6 18  1  0  0  0  0
  6  5  2  0  0  0  0
  7  1  1  0  0  0  0
  8  2  1  0  0  0  0
 11 12  3  0  0  0  0
 13 17  1  0  0  0  0
 13 15  1  0  0  0  0
 14 13  1  0  0  0  0
 16  3  1  0  0  0  0
M  END
