Coordinates from ORCA-job Ph-N2-BF4-B3LYPG-6-31G_dp-MTMO-d009-169-n800
 OpenBabel09051907443D

 18 17  0  0  0  0  0  0  0  0999 V2000
   -1.1515    0.1390    0.7756 C   0  0  0  0  0  0  0  0  0  0  0  0
    0.1862    0.2500    0.4067 C   0  0  0  0  0  0  0  0  0  0  0  0
    0.5366    1.3970   -0.3193 C   0  0  0  0  0  0  0  0  0  0  0  0
   -0.3610    2.4157   -0.6810 C   0  0  0  0  0  0  0  0  0  0  0  0
   -1.6822    2.2707   -0.2821 C   0  0  0  0  0  0  0  0  0  0  0  0
   -2.0730    1.1357    0.4416 C   0  0  0  0  0  0  0  0  0  0  0  0
   -1.4709   -0.7322    1.3373 H   0  0  0  0  0  0  0  0  0  0  0  0
    0.9484   -0.4885    0.6514 H   0  0  0  0  0  0  0  0  0  0  0  0
   -0.0232    3.2798   -1.2418 H   0  0  0  0  0  0  0  0  0  0  0  0
   -2.4062    3.0377   -0.5347 H   0  0  0  0  0  0  0  0  0  0  0  0
    1.8591    1.5444   -0.7562 N   0  0  0  0  0  0  0  0  0  0  0  0
    2.8823    1.6837   -1.1737 N   0  0  0  0  0  0  0  0  0  0  0  0
    3.5282   -0.1932    1.1539 B   0  0  0  0  0  0  0  0  0  0  0  0
    4.2972    0.2512    0.0466 F   0  0  0  0  0  0  0  0  0  0  0  0
    4.3201   -0.5981    2.1944 F   0  0  0  0  0  0  0  0  0  0  0  0
    2.6824    0.8916    1.5369 F   0  0  0  0  0  0  0  0  0  0  0  0
    2.6772   -1.2398    0.7017 F   0  0  0  0  0  0  0  0  0  0  0  0
   -3.1092    1.0315    0.7485 H   0  0  0  0  0  0  0  0  0  0  0  0
  1  7  1  0  0  0  0
  2  8  1  0  0  0  0
  2  1  2  0  0  0  0
  3  2  1  0  0  0  0
  4  3  2  0  0  0  0
  4  5  1  0  0  0  0
  5  6  2  0  0  0  0
  6 18  1  0  0  0  0
  6  1  1  0  0  0  0
  9  4  1  0  0  0  0
 10  5  1  0  0  0  0
 11  3  1  0  0  0  0
 12 11  1  0  0  0  0
 13 16  1  0  0  0  0
 13 15  1  0  0  0  0
 14 13  1  0  0  0  0
 17 13  1  0  0  0  0
M  RAD  2  11   2  12   3
M  END
