Coordinates from ORCA-job Ph-N2-BF4-B3LYPG-6-31G_dp-MTMO-d009-169-n800
 OpenBabel09051907443D

 18 16  0  0  0  0  0  0  0  0999 V2000
   -2.1453   -0.2235    0.4905 C   0  0  0  0  0  0  0  0  0  0  0  0
   -0.8265    0.2282    0.5762 C   0  0  0  0  0  0  0  0  0  0  0  0
   -0.6107    1.5167    1.0441 C   0  0  0  0  0  0  0  0  0  0  0  0
   -1.6384    2.3681    1.4244 C   0  0  0  0  0  0  0  0  0  0  0  0
   -2.9499    1.8973    1.3321 C   0  0  0  0  0  0  0  0  0  0  0  0
   -3.2050    0.6053    0.8666 C   0  0  0  0  0  0  0  0  0  0  0  0
   -2.3412   -1.2274    0.1268 H   0  0  0  0  0  0  0  0  0  0  0  0
    0.0151   -0.3896    0.2871 H   0  0  0  0  0  0  0  0  0  0  0  0
   -1.4075    3.3655    1.7815 H   0  0  0  0  0  0  0  0  0  0  0  0
   -3.7709    2.5445    1.6248 H   0  0  0  0  0  0  0  0  0  0  0  0
   12.7863   -1.9522   -2.0321 N   0  0  0  0  0  0  0  0  0  0  0  0
   11.8075   -1.4682   -2.2035 N   0  0  0  0  0  0  0  0  0  0  0  0
    2.3477    1.6552   -0.5402 B   0  0  0  0  0  0  0  0  0  0  0  0
    1.5933    2.2344   -1.4555 F   0  0  0  0  0  0  0  0  0  0  0  0
    3.2152    2.3652    0.1542 F   0  0  0  0  0  0  0  0  0  0  0  0
    0.6743    1.9746    1.1437 F   0  0  0  0  0  0  0  0  0  0  0  0
    2.3230    0.3363   -0.4111 F   0  0  0  0  0  0  0  0  0  0  0  0
   -4.2268    0.2454    0.7964 H   0  0  0  0  0  0  0  0  0  0  0  0
  1  2  2  0  0  0  0
  1  6  1  0  0  0  0
  2  3  1  0  0  0  0
  3 16  1  0  0  0  0
  3  4  2  0  0  0  0
  4  9  1  0  0  0  0
  5  4  1  0  0  0  0
  5 10  1  0  0  0  0
  6  5  2  0  0  0  0
  7  1  1  0  0  0  0
  8  2  1  0  0  0  0
 12 11  3  0  0  0  0
 13 17  1  0  0  0  0
 13 15  1  0  0  0  0
 14 13  1  0  0  0  0
 18  6  1  0  0  0  0
M  END
