Coordinates from ORCA-job Ph-N2-BF4-B3LYPG-6-31G_dp-MTMO-d009-169-n800
 OpenBabel09051907443D

 18 16  0  0  0  0  0  0  0  0999 V2000
   -2.3359   -0.1892    0.5373 C   0  0  0  0  0  0  0  0  0  0  0  0
   -1.0187    0.2717    0.5933 C   0  0  0  0  0  0  0  0  0  0  0  0
   -0.8006    1.5575    1.0673 C   0  0  0  0  0  0  0  0  0  0  0  0
   -1.8245    2.3980    1.4809 C   0  0  0  0  0  0  0  0  0  0  0  0
   -3.1345    1.9182    1.4174 C   0  0  0  0  0  0  0  0  0  0  0  0
   -3.3918    0.6282    0.9474 C   0  0  0  0  0  0  0  0  0  0  0  0
   -2.5337   -1.1915    0.1700 H   0  0  0  0  0  0  0  0  0  0  0  0
   -0.1802   -0.3370    0.2771 H   0  0  0  0  0  0  0  0  0  0  0  0
   -1.5920    3.3940    1.8407 H   0  0  0  0  0  0  0  0  0  0  0  0
   -3.9525    2.5567    1.7362 H   0  0  0  0  0  0  0  0  0  0  0  0
   14.3331   -2.3262   -2.2811 N   0  0  0  0  0  0  0  0  0  0  0  0
   13.3521   -1.8471   -2.4537 N   0  0  0  0  0  0  0  0  0  0  0  0
    2.1403    1.7461   -0.5682 B   0  0  0  0  0  0  0  0  0  0  0  0
    1.3976    2.3868   -1.4516 F   0  0  0  0  0  0  0  0  0  0  0  0
    3.0239    2.4015    0.1588 F   0  0  0  0  0  0  0  0  0  0  0  0
    0.4831    2.0240    1.1393 F   0  0  0  0  0  0  0  0  0  0  0  0
    2.0872    0.4232   -0.5054 F   0  0  0  0  0  0  0  0  0  0  0  0
   -4.4124    0.2611    0.9004 H   0  0  0  0  0  0  0  0  0  0  0  0
  1  2  2  0  0  0  0
  1  6  1  0  0  0  0
  2  3  1  0  0  0  0
  3 16  1  0  0  0  0
  3  4  2  0  0  0  0
  4  9  1  0  0  0  0
  5  4  1  0  0  0  0
  5 10  1  0  0  0  0
  6  5  2  0  0  0  0
  7  1  1  0  0  0  0
  8  2  1  0  0  0  0
 12 11  3  0  0  0  0
 13 17  1  0  0  0  0
 13 15  1  0  0  0  0
 14 13  1  0  0  0  0
 18  6  1  0  0  0  0
M  END
