Coordinates from ORCA-job Ph-N2-BF4-B3LYPG-6-31G_dp-MTMO-d009-169-n800
 OpenBabel09051907443D

 18 16  0  0  0  0  0  0  0  0999 V2000
   -1.7506   -0.3087    0.5764 C   0  0  0  0  0  0  0  0  0  0  0  0
   -0.4217    0.1112    0.4847 C   0  0  0  0  0  0  0  0  0  0  0  0
   -0.1555    1.4653    0.6351 C   0  0  0  0  0  0  0  0  0  0  0  0
   -1.1451    2.4101    0.8697 C   0  0  0  0  0  0  0  0  0  0  0  0
   -2.4675    1.9699    0.9580 C   0  0  0  0  0  0  0  0  0  0  0  0
   -2.7720    0.6143    0.8119 C   0  0  0  0  0  0  0  0  0  0  0  0
   -1.9847   -1.3627    0.4607 H   0  0  0  0  0  0  0  0  0  0  0  0
    0.3915   -0.5807    0.3009 H   0  0  0  0  0  0  0  0  0  0  0  0
   -0.8767    3.4551    0.9800 H   0  0  0  0  0  0  0  0  0  0  0  0
   -3.2586    2.6906    1.1416 H   0  0  0  0  0  0  0  0  0  0  0  0
    8.3166   -0.0518   -1.5908 N   0  0  0  0  0  0  0  0  0  0  0  0
    7.2562    0.0508   -1.2964 N   0  0  0  0  0  0  0  0  0  0  0  0
    3.2724    0.8727   -0.1825 B   0  0  0  0  0  0  0  0  0  0  0  0
    3.2318    1.5282   -1.3256 F   0  0  0  0  0  0  0  0  0  0  0  0
    3.8737    1.3976    0.8663 F   0  0  0  0  0  0  0  0  0  0  0  0
    1.1371    1.8976    0.5504 F   0  0  0  0  0  0  0  0  0  0  0  0
    2.7952   -0.3621   -0.1169 F   0  0  0  0  0  0  0  0  0  0  0  0
   -3.8018    0.2785    0.8824 H   0  0  0  0  0  0  0  0  0  0  0  0
  1  6  1  0  0  0  0
  2  1  2  0  0  0  0
  2  3  1  0  0  0  0
  3  4  2  0  0  0  0
  4  5  1  0  0  0  0
  4  9  1  0  0  0  0
  5 10  1  0  0  0  0
  6 18  1  0  0  0  0
  6  5  2  0  0  0  0
  7  1  1  0  0  0  0
  8  2  1  0  0  0  0
 11 12  3  0  0  0  0
 13 17  1  0  0  0  0
 13 15  1  0  0  0  0
 14 13  1  0  0  0  0
 16  3  1  0  0  0  0
M  END
