Coordinates from ORCA-job Ph-N2-BF4-B3LYPG-6-31G_dp-MTMO-d009-169-n800
 OpenBabel09051907443D

 18 16  0  0  0  0  0  0  0  0999 V2000
   -1.8539   -0.2863    0.4310 C   0  0  0  0  0  0  0  0  0  0  0  0
   -0.5383    0.1683    0.5448 C   0  0  0  0  0  0  0  0  0  0  0  0
   -0.3361    1.4653    0.9950 C   0  0  0  0  0  0  0  0  0  0  0  0
   -1.3742    2.3222    1.3320 C   0  0  0  0  0  0  0  0  0  0  0  0
   -2.6825    1.8483    1.2124 C   0  0  0  0  0  0  0  0  0  0  0  0
   -2.9240    0.5479    0.7631 C   0  0  0  0  0  0  0  0  0  0  0  0
   -2.0391   -1.2966    0.0797 H   0  0  0  0  0  0  0  0  0  0  0  0
    0.3114   -0.4538    0.2904 H   0  0  0  0  0  0  0  0  0  0  0  0
   -1.1539    3.3260    1.6776 H   0  0  0  0  0  0  0  0  0  0  0  0
   -3.5116    2.4996    1.4711 H   0  0  0  0  0  0  0  0  0  0  0  0
   10.4728   -1.4262   -1.6320 N   0  0  0  0  0  0  0  0  0  0  0  0
    9.5068   -0.9356   -1.8508 N   0  0  0  0  0  0  0  0  0  0  0  0
    2.6676    1.5544   -0.5029 B   0  0  0  0  0  0  0  0  0  0  0  0
    1.9303    2.0811   -1.4630 F   0  0  0  0  0  0  0  0  0  0  0  0
    3.5090    2.3063    0.1792 F   0  0  0  0  0  0  0  0  0  0  0  0
    0.9453    1.9266    1.1208 F   0  0  0  0  0  0  0  0  0  0  0  0
    2.6540    0.2427   -0.3134 F   0  0  0  0  0  0  0  0  0  0  0  0
   -3.9433    0.1859    0.6710 H   0  0  0  0  0  0  0  0  0  0  0  0
  1  2  2  0  0  0  0
  1  6  1  0  0  0  0
  2  3  1  0  0  0  0
  3 16  1  0  0  0  0
  3  4  2  0  0  0  0
  4  9  1  0  0  0  0
  5  4  1  0  0  0  0
  5 10  1  0  0  0  0
  6  5  2  0  0  0  0
  7  1  1  0  0  0  0
  8  2  1  0  0  0  0
 12 11  3  0  0  0  0
 13 17  1  0  0  0  0
 13 15  1  0  0  0  0
 14 13  1  0  0  0  0
 18  6  1  0  0  0  0
M  END
