Coordinates from ORCA-job Ph-N2-BF4-B3LYPG-6-31G_dp-MTMO-d009-169-n800
 OpenBabel09051907443D

 18 16  0  0  0  0  0  0  0  0999 V2000
   -1.6314   -0.3372    0.4244 C   0  0  0  0  0  0  0  0  0  0  0  0
   -0.3483    0.1098    0.7469 C   0  0  0  0  0  0  0  0  0  0  0  0
   -0.1816    1.4587    1.0274 C   0  0  0  0  0  0  0  0  0  0  0  0
   -1.2245    2.3736    1.0007 C   0  0  0  0  0  0  0  0  0  0  0  0
   -2.5002    1.9065    0.6775 C   0  0  0  0  0  0  0  0  0  0  0  0
   -2.7055    0.5552    0.3892 C   0  0  0  0  0  0  0  0  0  0  0  0
   -1.7877   -1.3876    0.1980 H   0  0  0  0  0  0  0  0  0  0  0  0
    0.5047   -0.5575    0.7794 H   0  0  0  0  0  0  0  0  0  0  0  0
   -1.0332    3.4161    1.2307 H   0  0  0  0  0  0  0  0  0  0  0  0
   -3.3328    2.6029    0.6506 H   0  0  0  0  0  0  0  0  0  0  0  0
    8.5428   -0.6930   -2.4381 N   0  0  0  0  0  0  0  0  0  0  0  0
    7.5889   -0.4358   -1.9426 N   0  0  0  0  0  0  0  0  0  0  0  0
    3.0700    1.2498    0.2081 B   0  0  0  0  0  0  0  0  0  0  0  0
    2.5674    1.5979   -0.9619 F   0  0  0  0  0  0  0  0  0  0  0  0
    3.7845    2.1092    0.9078 F   0  0  0  0  0  0  0  0  0  0  0  0
    1.0663    1.9137    1.3521 F   0  0  0  0  0  0  0  0  0  0  0  0
    2.9602   -0.0052    0.6193 F   0  0  0  0  0  0  0  0  0  0  0  0
   -3.6991    0.1989    0.1363 H   0  0  0  0  0  0  0  0  0  0  0  0
  1  2  1  0  0  0  0
  2  8  1  0  0  0  0
  2  3  2  0  0  0  0
  3 16  1  0  0  0  0
  4  3  1  0  0  0  0
  4  9  1  0  0  0  0
  5  4  2  0  0  0  0
  6  1  2  0  0  0  0
  6  5  1  0  0  0  0
  7  1  1  0  0  0  0
 10  5  1  0  0  0  0
 11 12  3  0  0  0  0
 13 17  1  0  0  0  0
 13 15  1  0  0  0  0
 14 13  1  0  0  0  0
 18  6  1  0  0  0  0
M  END
