Coordinates from ORCA-job Ph-N2-BF4-B3LYPG-6-31G_dp-MTMO-d009-169-n800
 OpenBabel09051907443D

 18 16  0  0  0  0  0  0  0  0999 V2000
   -1.1284    0.1185    0.7821 C   0  0  0  0  0  0  0  0  0  0  0  0
    0.2198    0.2612    0.3653 C   0  0  0  0  0  0  0  0  0  0  0  0
    0.3248    1.4196   -0.2962 C   0  0  0  0  0  0  0  0  0  0  0  0
   -0.4497    2.4657   -0.6694 C   0  0  0  0  0  0  0  0  0  0  0  0
   -1.7677    2.2486   -0.2117 C   0  0  0  0  0  0  0  0  0  0  0  0
   -2.0921    1.0905    0.5016 C   0  0  0  0  0  0  0  0  0  0  0  0
   -1.3813   -0.7765    1.3422 H   0  0  0  0  0  0  0  0  0  0  0  0
    1.0457   -0.4511    0.5707 H   0  0  0  0  0  0  0  0  0  0  0  0
   -0.1332    3.3380   -1.2225 H   0  0  0  0  0  0  0  0  0  0  0  0
   -2.5143    3.0051   -0.4314 H   0  0  0  0  0  0  0  0  0  0  0  0
    2.2543    1.6876   -1.0295 N   0  0  0  0  0  0  0  0  0  0  0  0
    3.2647    1.7308   -1.4714 N   0  0  0  0  0  0  0  0  0  0  0  0
    3.4619   -0.2005    1.2089 B   0  0  0  0  0  0  0  0  0  0  0  0
    4.4072    0.0269    0.2090 F   0  0  0  0  0  0  0  0  0  0  0  0
    4.0159   -0.6258    2.3894 F   0  0  0  0  0  0  0  0  0  0  0  0
    2.6988    0.9879    1.4003 F   0  0  0  0  0  0  0  0  0  0  0  0
    2.5245   -1.1967    0.7223 F   0  0  0  0  0  0  0  0  0  0  0  0
   -3.1103    0.9462    0.8460 H   0  0  0  0  0  0  0  0  0  0  0  0
  1  7  1  0  0  0  0
  2  8  1  0  0  0  0
  2  1  2  0  0  0  0
  3  2  1  0  0  0  0
  4  3  2  0  0  0  0
  4  5  1  0  0  0  0
  5  6  2  0  0  0  0
  6  1  1  0  0  0  0
  6 18  1  0  0  0  0
  9  4  1  0  0  0  0
 10  5  1  0  0  0  0
 12 11  3  0  0  0  0
 13 16  1  0  0  0  0
 13 15  1  0  0  0  0
 14 13  1  0  0  0  0
 17 13  1  0  0  0  0
M  RAD  1   3   2
M  END
