Coordinates from ORCA-job Ph-N2-BF4-B3LYPG-6-31G_dp-MTMO-d009-169-n800
 OpenBabel09051907443D

 18 16  0  0  0  0  0  0  0  0999 V2000
   -2.0608   -0.2399    0.4709 C   0  0  0  0  0  0  0  0  0  0  0  0
   -0.7419    0.2102    0.5638 C   0  0  0  0  0  0  0  0  0  0  0  0
   -0.5273    1.4997    1.0293 C   0  0  0  0  0  0  0  0  0  0  0  0
   -1.5561    2.3536    1.4008 C   0  0  0  0  0  0  0  0  0  0  0  0
   -2.8677    1.8843    1.3015 C   0  0  0  0  0  0  0  0  0  0  0  0
   -3.1217    0.5914    0.8379 C   0  0  0  0  0  0  0  0  0  0  0  0
   -2.2558   -1.2444    0.1085 H   0  0  0  0  0  0  0  0  0  0  0  0
    0.1007   -0.4096    0.2820 H   0  0  0  0  0  0  0  0  0  0  0  0
   -1.3262    3.3516    1.7567 H   0  0  0  0  0  0  0  0  0  0  0  0
   -3.6896    2.5335    1.5872 H   0  0  0  0  0  0  0  0  0  0  0  0
   12.0997   -1.7913   -1.9092 N   0  0  0  0  0  0  0  0  0  0  0  0
   11.1228   -1.3058   -2.0865 N   0  0  0  0  0  0  0  0  0  0  0  0
    2.4404    1.6211   -0.5359 B   0  0  0  0  0  0  0  0  0  0  0  0
    1.6866    2.1823   -1.4630 F   0  0  0  0  0  0  0  0  0  0  0  0
    3.3017    2.3461    0.1507 F   0  0  0  0  0  0  0  0  0  0  0  0
    0.7577    1.9562    1.1357 F   0  0  0  0  0  0  0  0  0  0  0  0
    2.4214    0.3043   -0.3864 F   0  0  0  0  0  0  0  0  0  0  0  0
   -4.1435    0.2328    0.7620 H   0  0  0  0  0  0  0  0  0  0  0  0
  1  2  2  0  0  0  0
  1  6  1  0  0  0  0
  2  3  1  0  0  0  0
  3 16  1  0  0  0  0
  3  4  2  0  0  0  0
  4  9  1  0  0  0  0
  5  4  1  0  0  0  0
  5 10  1  0  0  0  0
  6  5  2  0  0  0  0
  7  1  1  0  0  0  0
  8  2  1  0  0  0  0
 12 11  3  0  0  0  0
 13 17  1  0  0  0  0
 13 15  1  0  0  0  0
 14 13  1  0  0  0  0
 18  6  1  0  0  0  0
M  END
