Coordinates from ORCA-job Ph-N2-BF4-B3LYPG-6-31G_dp-MTMO-d009-169-n800
 OpenBabel09051907443D

 18 16  0  0  0  0  0  0  0  0999 V2000
   -1.5637   -0.2122    0.9505 C   0  0  0  0  0  0  0  0  0  0  0  0
   -0.2093    0.0373    1.1825 C   0  0  0  0  0  0  0  0  0  0  0  0
    0.2997    1.2692    0.7960 C   0  0  0  0  0  0  0  0  0  0  0  0
   -0.4710    2.2532    0.1930 C   0  0  0  0  0  0  0  0  0  0  0  0
   -1.8233    1.9846   -0.0292 C   0  0  0  0  0  0  0  0  0  0  0  0
   -2.3706    0.7557    0.3474 C   0  0  0  0  0  0  0  0  0  0  0  0
   -1.9856   -1.1688    1.2431 H   0  0  0  0  0  0  0  0  0  0  0  0
    0.4420   -0.6956    1.6438 H   0  0  0  0  0  0  0  0  0  0  0  0
   -0.0171    3.1967   -0.0891 H   0  0  0  0  0  0  0  0  0  0  0  0
   -2.4470    2.7397   -0.4980 H   0  0  0  0  0  0  0  0  0  0  0  0
    4.7046    2.4649   -2.2832 N   0  0  0  0  0  0  0  0  0  0  0  0
    5.2338    1.5285   -2.0293 N   0  0  0  0  0  0  0  0  0  0  0  0
    3.3892   -0.0185    0.6017 B   0  0  0  0  0  0  0  0  0  0  0  0
    3.0028   -0.1786   -0.6509 F   0  0  0  0  0  0  0  0  0  0  0  0
    4.2943    0.8915    0.9060 F   0  0  0  0  0  0  0  0  0  0  0  0
    1.6224    1.5359    1.0211 F   0  0  0  0  0  0  0  0  0  0  0  0
    2.9608   -0.8596    1.5312 F   0  0  0  0  0  0  0  0  0  0  0  0
   -3.4217    0.5521    0.1693 H   0  0  0  0  0  0  0  0  0  0  0  0
  1  2  1  0  0  0  0
  1  7  1  0  0  0  0
  2  8  1  0  0  0  0
  3 16  1  0  0  0  0
  3  2  2  0  0  0  0
  4  3  1  0  0  0  0
  5  4  2  0  0  0  0
  5  6  1  0  0  0  0
  6  1  2  0  0  0  0
  9  4  1  0  0  0  0
 10  5  1  0  0  0  0
 11 12  3  0  0  0  0
 13 15  1  0  0  0  0
 13 17  1  0  0  0  0
 14 13  1  0  0  0  0
 18  6  1  0  0  0  0
M  END
