Coordinates from ORCA-job Ph-N2-BF4-B3LYPG-6-31G_dp-MTMO-d009-169-n800
 OpenBabel09051907443D

 18 16  0  0  0  0  0  0  0  0999 V2000
   -1.7674   -0.3084    0.5768 C   0  0  0  0  0  0  0  0  0  0  0  0
   -0.4395    0.1165    0.4940 C   0  0  0  0  0  0  0  0  0  0  0  0
   -0.1793    1.4714    0.6478 C   0  0  0  0  0  0  0  0  0  0  0  0
   -1.1739    2.4121    0.8774 C   0  0  0  0  0  0  0  0  0  0  0  0
   -2.4952    1.9670    0.9569 C   0  0  0  0  0  0  0  0  0  0  0  0
   -2.7937    0.6105    0.8071 C   0  0  0  0  0  0  0  0  0  0  0  0
   -1.9968   -1.3632    0.4583 H   0  0  0  0  0  0  0  0  0  0  0  0
    0.3773   -0.5724    0.3146 H   0  0  0  0  0  0  0  0  0  0  0  0
   -0.9101    3.4580    0.9907 H   0  0  0  0  0  0  0  0  0  0  0  0
   -3.2901    2.6845    1.1363 H   0  0  0  0  0  0  0  0  0  0  0  0
    8.5092   -0.1127   -1.6679 N   0  0  0  0  0  0  0  0  0  0  0  0
    7.4510   -0.0095   -1.3660 N   0  0  0  0  0  0  0  0  0  0  0  0
    3.2430    0.8994   -0.1582 B   0  0  0  0  0  0  0  0  0  0  0  0
    3.1978    1.5511   -1.3035 F   0  0  0  0  0  0  0  0  0  0  0  0
    3.8426    1.4309    0.8883 F   0  0  0  0  0  0  0  0  0  0  0  0
    1.1120    1.9092    0.5719 F   0  0  0  0  0  0  0  0  0  0  0  0
    2.7759   -0.3392   -0.0893 F   0  0  0  0  0  0  0  0  0  0  0  0
   -3.8227    0.2707    0.8706 H   0  0  0  0  0  0  0  0  0  0  0  0
  1  6  1  0  0  0  0
  2  1  2  0  0  0  0
  2  3  1  0  0  0  0
  3  4  2  0  0  0  0
  4  5  1  0  0  0  0
  4  9  1  0  0  0  0
  5 10  1  0  0  0  0
  6 18  1  0  0  0  0
  6  5  2  0  0  0  0
  7  1  1  0  0  0  0
  8  2  1  0  0  0  0
 11 12  3  0  0  0  0
 13 17  1  0  0  0  0
 13 15  1  0  0  0  0
 14 13  1  0  0  0  0
 16  3  1  0  0  0  0
M  END
