Coordinates from ORCA-job Ph-N2-BF4-B3LYPG-6-31G_dp-MTMO-d009-169-n800
 OpenBabel09051907443D

 18 16  0  0  0  0  0  0  0  0999 V2000
   -1.1901   -0.0803    0.2057 C   0  0  0  0  0  0  0  0  0  0  0  0
    0.1279    0.0434    0.6481 C   0  0  0  0  0  0  0  0  0  0  0  0
    0.6821    1.3161    0.7019 C   0  0  0  0  0  0  0  0  0  0  0  0
   -0.0396    2.4642    0.4005 C   0  0  0  0  0  0  0  0  0  0  0  0
   -1.3562    2.3201   -0.0392 C   0  0  0  0  0  0  0  0  0  0  0  0
   -1.9317    1.0510   -0.1445 C   0  0  0  0  0  0  0  0  0  0  0  0
   -1.6387   -1.0671    0.1399 H   0  0  0  0  0  0  0  0  0  0  0  0
    0.7259   -0.8151    0.9280 H   0  0  0  0  0  0  0  0  0  0  0  0
    0.4338    3.4355    0.4931 H   0  0  0  0  0  0  0  0  0  0  0  0
   -1.9326    3.2036   -0.2960 H   0  0  0  0  0  0  0  0  0  0  0  0
    1.8138    1.1791   -1.4576 N   0  0  0  0  0  0  0  0  0  0  0  0
    1.4241    1.0630   -2.4869 N   0  0  0  0  0  0  0  0  0  0  0  0
    3.8610   -0.0907    1.3036 B   0  0  0  0  0  0  0  0  0  0  0  0
    4.2504    0.1080    0.0588 F   0  0  0  0  0  0  0  0  0  0  0  0
    4.3468    0.6505    2.2790 F   0  0  0  0  0  0  0  0  0  0  0  0
    1.9511    1.4636    1.1761 F   0  0  0  0  0  0  0  0  0  0  0  0
    3.0673   -1.1141    1.5850 F   0  0  0  0  0  0  0  0  0  0  0  0
   -2.9549    0.9451   -0.4898 H   0  0  0  0  0  0  0  0  0  0  0  0
  1  2  2  0  0  0  0
  2  3  1  0  0  0  0
  2  8  1  0  0  0  0
  3 16  1  0  0  0  0
  4  9  1  0  0  0  0
  4  3  2  0  0  0  0
  5  4  1  0  0  0  0
  6  5  2  0  0  0  0
  6  1  1  0  0  0  0
  7  1  1  0  0  0  0
 10  5  1  0  0  0  0
 12 11  3  0  0  0  0
 13 17  1  0  0  0  0
 13 15  1  0  0  0  0
 14 13  1  0  0  0  0
 18  6  1  0  0  0  0
M  END
