Coordinates from ORCA-job Ph-N2-BF4-B3LYPG-6-31G_dp-MTMO-d009-169-n800
 OpenBabel09051907443D

 18 16  0  0  0  0  0  0  0  0999 V2000
   -1.8235   -0.2930    0.4253 C   0  0  0  0  0  0  0  0  0  0  0  0
   -0.5068    0.1576    0.5416 C   0  0  0  0  0  0  0  0  0  0  0  0
   -0.3015    1.4555    0.9878 C   0  0  0  0  0  0  0  0  0  0  0  0
   -1.3379    2.3171    1.3182 C   0  0  0  0  0  0  0  0  0  0  0  0
   -2.6474    1.8472    1.1961 C   0  0  0  0  0  0  0  0  0  0  0  0
   -2.8918    0.5460    0.7508 C   0  0  0  0  0  0  0  0  0  0  0  0
   -2.0112   -1.3040    0.0771 H   0  0  0  0  0  0  0  0  0  0  0  0
    0.3418   -0.4680    0.2923 H   0  0  0  0  0  0  0  0  0  0  0  0
   -1.1154    3.3215    1.6608 H   0  0  0  0  0  0  0  0  0  0  0  0
   -3.4751    2.5023    1.4497 H   0  0  0  0  0  0  0  0  0  0  0  0
   10.1841   -1.3469   -1.5781 N   0  0  0  0  0  0  0  0  0  0  0  0
    9.2235   -0.8527   -1.8119 N   0  0  0  0  0  0  0  0  0  0  0  0
    2.7105    1.5317   -0.4971 B   0  0  0  0  0  0  0  0  0  0  0  0
    1.9775    2.0554   -1.4621 F   0  0  0  0  0  0  0  0  0  0  0  0
    3.5498    2.2856    0.1855 F   0  0  0  0  0  0  0  0  0  0  0  0
    0.9810    1.9127    1.1157 F   0  0  0  0  0  0  0  0  0  0  0  0
    2.6948    0.2208   -0.3024 F   0  0  0  0  0  0  0  0  0  0  0  0
   -3.9120    0.1871    0.6567 H   0  0  0  0  0  0  0  0  0  0  0  0
  1  2  2  0  0  0  0
  1  6  1  0  0  0  0
  2  3  1  0  0  0  0
  3 16  1  0  0  0  0
  3  4  2  0  0  0  0
  4  9  1  0  0  0  0
  5  4  1  0  0  0  0
  5 10  1  0  0  0  0
  6  5  2  0  0  0  0
  7  1  1  0  0  0  0
  8  2  1  0  0  0  0
 12 11  3  0  0  0  0
 13 17  1  0  0  0  0
 13 15  1  0  0  0  0
 14 13  1  0  0  0  0
 18  6  1  0  0  0  0
M  END
