Coordinates from ORCA-job Ph-N2-BF4-B3LYPG-6-31G_dp-MTMO-d009-169-n800
 OpenBabel09051907443D

 18 16  0  0  0  0  0  0  0  0999 V2000
   -2.0834   -0.2351    0.4753 C   0  0  0  0  0  0  0  0  0  0  0  0
   -0.7638    0.2131    0.5654 C   0  0  0  0  0  0  0  0  0  0  0  0
   -0.5461    1.5019    1.0316 C   0  0  0  0  0  0  0  0  0  0  0  0
   -1.5729    2.3570    1.4061 C   0  0  0  0  0  0  0  0  0  0  0  0
   -2.8854    1.8897    1.3094 C   0  0  0  0  0  0  0  0  0  0  0  0
   -3.1423    0.5975    0.8454 C   0  0  0  0  0  0  0  0  0  0  0  0
   -2.2809   -1.2390    0.1126 H   0  0  0  0  0  0  0  0  0  0  0  0
    0.0775   -0.4075    0.2812 H   0  0  0  0  0  0  0  0  0  0  0  0
   -1.3408    3.3544    1.7622 H   0  0  0  0  0  0  0  0  0  0  0  0
   -3.7058    2.5397    1.5975 H   0  0  0  0  0  0  0  0  0  0  0  0
   12.2565   -1.8213   -1.9367 N   0  0  0  0  0  0  0  0  0  0  0  0
   11.2786   -1.3367   -2.1114 N   0  0  0  0  0  0  0  0  0  0  0  0
    2.4214    1.6240   -0.5371 B   0  0  0  0  0  0  0  0  0  0  0  0
    1.6671    2.1886   -1.4617 F   0  0  0  0  0  0  0  0  0  0  0  0
    3.2842    2.3462    0.1505 F   0  0  0  0  0  0  0  0  0  0  0  0
    0.7397    1.9563    1.1351 F   0  0  0  0  0  0  0  0  0  0  0  0
    2.4015    0.3068   -0.3913 F   0  0  0  0  0  0  0  0  0  0  0  0
   -4.1648    0.2404    0.7717 H   0  0  0  0  0  0  0  0  0  0  0  0
  1  2  2  0  0  0  0
  1  6  1  0  0  0  0
  2  3  1  0  0  0  0
  3 16  1  0  0  0  0
  3  4  2  0  0  0  0
  4  9  1  0  0  0  0
  5  4  1  0  0  0  0
  5 10  1  0  0  0  0
  6  5  2  0  0  0  0
  7  1  1  0  0  0  0
  8  2  1  0  0  0  0
 12 11  3  0  0  0  0
 13 17  1  0  0  0  0
 13 15  1  0  0  0  0
 14 13  1  0  0  0  0
 18  6  1  0  0  0  0
M  END
