Coordinates from ORCA-job Ph-N2-BF4-B3LYPG-6-31G_dp-MTMO-d009-169-n800
 OpenBabel09051907443D

 18 16  0  0  0  0  0  0  0  0999 V2000
   -1.6472   -0.3157    0.5571 C   0  0  0  0  0  0  0  0  0  0  0  0
   -0.3244    0.1126    0.4248 C   0  0  0  0  0  0  0  0  0  0  0  0
   -0.0610    1.4679    0.5710 C   0  0  0  0  0  0  0  0  0  0  0  0
   -1.0483    2.4060    0.8402 C   0  0  0  0  0  0  0  0  0  0  0  0
   -2.3647    1.9575    0.9689 C   0  0  0  0  0  0  0  0  0  0  0  0
   -2.6659    0.6006    0.8279 C   0  0  0  0  0  0  0  0  0  0  0  0
   -1.8786   -1.3708    0.4455 H   0  0  0  0  0  0  0  0  0  0  0  0
    0.4873   -0.5737    0.2139 H   0  0  0  0  0  0  0  0  0  0  0  0
   -0.7826    3.4522    0.9455 H   0  0  0  0  0  0  0  0  0  0  0  0
   -3.1538    2.6729    1.1798 H   0  0  0  0  0  0  0  0  0  0  0  0
    7.4217    0.0378   -1.3171 N   0  0  0  0  0  0  0  0  0  0  0  0
    6.3637    0.1836   -1.0338 N   0  0  0  0  0  0  0  0  0  0  0  0
    3.4250    0.8315   -0.2433 B   0  0  0  0  0  0  0  0  0  0  0  0
    3.4176    1.4958   -1.3818 F   0  0  0  0  0  0  0  0  0  0  0  0
    3.9959    1.3473    0.8265 F   0  0  0  0  0  0  0  0  0  0  0  0
    1.2253    1.9055    0.4452 F   0  0  0  0  0  0  0  0  0  0  0  0
    2.9214   -0.3935   -0.1946 F   0  0  0  0  0  0  0  0  0  0  0  0
   -3.6911    0.2586    0.9301 H   0  0  0  0  0  0  0  0  0  0  0  0
  1  6  1  0  0  0  0
  2  1  2  0  0  0  0
  2  3  1  0  0  0  0
  3  4  2  0  0  0  0
  4  9  1  0  0  0  0
  4  5  1  0  0  0  0
  5 10  1  0  0  0  0
  6 18  1  0  0  0  0
  6  5  2  0  0  0  0
  7  1  1  0  0  0  0
  8  2  1  0  0  0  0
 11 12  3  0  0  0  0
 13 17  1  0  0  0  0
 13 15  1  0  0  0  0
 14 13  1  0  0  0  0
 16  3  1  0  0  0  0
M  END
