Coordinates from ORCA-job Ph-N2-BF4-B3LYPG-6-31G_dp-MTMO-d009-169-n800
 OpenBabel09051907443D

 18 16  0  0  0  0  0  0  0  0999 V2000
   -1.7488   -0.3087    0.5761 C   0  0  0  0  0  0  0  0  0  0  0  0
   -0.4198    0.1111    0.4843 C   0  0  0  0  0  0  0  0  0  0  0  0
   -0.1537    1.4652    0.6346 C   0  0  0  0  0  0  0  0  0  0  0  0
   -1.1430    2.4102    0.8692 C   0  0  0  0  0  0  0  0  0  0  0  0
   -2.4654    1.9700    0.9577 C   0  0  0  0  0  0  0  0  0  0  0  0
   -2.7700    0.6145    0.8117 C   0  0  0  0  0  0  0  0  0  0  0  0
   -1.9831   -1.3628    0.4605 H   0  0  0  0  0  0  0  0  0  0  0  0
    0.3936   -0.5806    0.3005 H   0  0  0  0  0  0  0  0  0  0  0  0
   -0.8745    3.4552    0.9795 H   0  0  0  0  0  0  0  0  0  0  0  0
   -3.2566    2.6907    1.1412 H   0  0  0  0  0  0  0  0  0  0  0  0
    8.2996   -0.0473   -1.5858 N   0  0  0  0  0  0  0  0  0  0  0  0
    7.2391    0.0550   -1.2915 N   0  0  0  0  0  0  0  0  0  0  0  0
    3.2752    0.8705   -0.1838 B   0  0  0  0  0  0  0  0  0  0  0  0
    3.2346    1.5261   -1.3269 F   0  0  0  0  0  0  0  0  0  0  0  0
    3.8767    1.3952    0.8650 F   0  0  0  0  0  0  0  0  0  0  0  0
    1.1389    1.8972    0.5498 F   0  0  0  0  0  0  0  0  0  0  0  0
    2.7975   -0.3641   -0.1182 F   0  0  0  0  0  0  0  0  0  0  0  0
   -3.7999    0.2788    0.8822 H   0  0  0  0  0  0  0  0  0  0  0  0
  1  6  1  0  0  0  0
  2  1  2  0  0  0  0
  2  3  1  0  0  0  0
  3  4  2  0  0  0  0
  4  5  1  0  0  0  0
  4  9  1  0  0  0  0
  5 10  1  0  0  0  0
  6 18  1  0  0  0  0
  6  5  2  0  0  0  0
  7  1  1  0  0  0  0
  8  2  1  0  0  0  0
 11 12  3  0  0  0  0
 13 17  1  0  0  0  0
 13 15  1  0  0  0  0
 14 13  1  0  0  0  0
 16  3  1  0  0  0  0
M  END
