Coordinates from ORCA-job Ph-N2-BF4-B3LYPG-6-31G_dp-MTMO-d009-169-n800
 OpenBabel09051907443D

 18 16  0  0  0  0  0  0  0  0999 V2000
   -1.7536   -0.3088    0.5760 C   0  0  0  0  0  0  0  0  0  0  0  0
   -0.4253    0.1134    0.4865 C   0  0  0  0  0  0  0  0  0  0  0  0
   -0.1618    1.4680    0.6383 C   0  0  0  0  0  0  0  0  0  0  0  0
   -1.1531    2.4110    0.8721 C   0  0  0  0  0  0  0  0  0  0  0  0
   -2.4749    1.9684    0.9582 C   0  0  0  0  0  0  0  0  0  0  0  0
   -2.7768    0.6124    0.8107 C   0  0  0  0  0  0  0  0  0  0  0  0
   -1.9859   -1.3631    0.4592 H   0  0  0  0  0  0  0  0  0  0  0  0
    0.3896   -0.5767    0.3035 H   0  0  0  0  0  0  0  0  0  0  0  0
   -0.8867    3.4564    0.9836 H   0  0  0  0  0  0  0  0  0  0  0  0
   -3.2676    2.6875    1.1411 H   0  0  0  0  0  0  0  0  0  0  0  0
    8.3636   -0.0709   -1.6096 N   0  0  0  0  0  0  0  0  0  0  0  0
    7.3037    0.0328   -1.3135 N   0  0  0  0  0  0  0  0  0  0  0  0
    3.2652    0.8807   -0.1765 B   0  0  0  0  0  0  0  0  0  0  0  0
    3.2233    1.5352   -1.3203 F   0  0  0  0  0  0  0  0  0  0  0  0
    3.8657    1.4076    0.8718 F   0  0  0  0  0  0  0  0  0  0  0  0
    1.1301    1.9025    0.5557 F   0  0  0  0  0  0  0  0  0  0  0  0
    2.7913   -0.3553   -0.1102 F   0  0  0  0  0  0  0  0  0  0  0  0
   -3.8063    0.2748    0.8794 H   0  0  0  0  0  0  0  0  0  0  0  0
  1  6  1  0  0  0  0
  2  1  2  0  0  0  0
  2  3  1  0  0  0  0
  3  4  2  0  0  0  0
  4  5  1  0  0  0  0
  4  9  1  0  0  0  0
  5 10  1  0  0  0  0
  6 18  1  0  0  0  0
  6  5  2  0  0  0  0
  7  1  1  0  0  0  0
  8  2  1  0  0  0  0
 11 12  3  0  0  0  0
 13 17  1  0  0  0  0
 13 15  1  0  0  0  0
 14 13  1  0  0  0  0
 16  3  1  0  0  0  0
M  END
