Coordinates from ORCA-job Ph-N2-BF4-B3LYPG-6-31G_dp-MTMO-d009-169-n800
 OpenBabel09051907443D

 18 16  0  0  0  0  0  0  0  0999 V2000
   -1.7876   -0.3080    0.5761 C   0  0  0  0  0  0  0  0  0  0  0  0
   -0.4600    0.1218    0.5177 C   0  0  0  0  0  0  0  0  0  0  0  0
   -0.2079    1.4777    0.6761 C   0  0  0  0  0  0  0  0  0  0  0  0
   -1.2099    2.4148    0.8869 C   0  0  0  0  0  0  0  0  0  0  0  0
   -2.5308    1.9647    0.9421 C   0  0  0  0  0  0  0  0  0  0  0  0
   -2.8214    0.6071    0.7872 C   0  0  0  0  0  0  0  0  0  0  0  0
   -2.0109   -1.3636    0.4535 H   0  0  0  0  0  0  0  0  0  0  0  0
    0.3624   -0.5640    0.3534 H   0  0  0  0  0  0  0  0  0  0  0  0
   -0.9522    3.4617    1.0050 H   0  0  0  0  0  0  0  0  0  0  0  0
   -3.3316    2.6792    1.1068 H   0  0  0  0  0  0  0  0  0  0  0  0
    8.7404   -0.1834   -1.7952 N   0  0  0  0  0  0  0  0  0  0  0  0
    7.6874   -0.0851   -1.4738 N   0  0  0  0  0  0  0  0  0  0  0  0
    3.2096    0.9312   -0.1137 B   0  0  0  0  0  0  0  0  0  0  0  0
    3.1513    1.5753   -1.2628 F   0  0  0  0  0  0  0  0  0  0  0  0
    3.8116    1.4745    0.9255 F   0  0  0  0  0  0  0  0  0  0  0  0
    1.0830    1.9207    0.6246 F   0  0  0  0  0  0  0  0  0  0  0  0
    2.7572   -0.3122   -0.0349 F   0  0  0  0  0  0  0  0  0  0  0  0
   -3.8501    0.2635    0.8315 H   0  0  0  0  0  0  0  0  0  0  0  0
  1  6  1  0  0  0  0
  2  1  2  0  0  0  0
  2  3  1  0  0  0  0
  3  4  2  0  0  0  0
  4  5  1  0  0  0  0
  4  9  1  0  0  0  0
  5 10  1  0  0  0  0
  6 18  1  0  0  0  0
  6  5  2  0  0  0  0
  7  1  1  0  0  0  0
  8  2  1  0  0  0  0
 11 12  3  0  0  0  0
 13 17  1  0  0  0  0
 13 15  1  0  0  0  0
 14 13  1  0  0  0  0
 16  3  1  0  0  0  0
M  END
