Coordinates from ORCA-job Ph-N2-BF4-B3LYPG-6-31G_dp-MTMO-d009-169-n800
 OpenBabel09051907443D

 18 16  0  0  0  0  0  0  0  0999 V2000
   -1.5589   -0.2109    0.9477 C   0  0  0  0  0  0  0  0  0  0  0  0
   -0.2050    0.0390    1.1821 C   0  0  0  0  0  0  0  0  0  0  0  0
    0.3042    1.2709    0.7959 C   0  0  0  0  0  0  0  0  0  0  0  0
   -0.4652    2.2547    0.1911 C   0  0  0  0  0  0  0  0  0  0  0  0
   -1.8170    1.9856   -0.0334 C   0  0  0  0  0  0  0  0  0  0  0  0
   -2.3648    0.7567    0.3427 C   0  0  0  0  0  0  0  0  0  0  0  0
   -1.9812   -1.1675    1.2399 H   0  0  0  0  0  0  0  0  0  0  0  0
    0.4456   -0.6935    1.6449 H   0  0  0  0  0  0  0  0  0  0  0  0
   -0.0109    3.1981   -0.0905 H   0  0  0  0  0  0  0  0  0  0  0  0
   -2.4401    2.7403   -0.5037 H   0  0  0  0  0  0  0  0  0  0  0  0
    4.6675    2.4644   -2.2719 N   0  0  0  0  0  0  0  0  0  0  0  0
    5.2069    1.5316   -2.0267 N   0  0  0  0  0  0  0  0  0  0  0  0
    3.3900   -0.0234    0.6050 B   0  0  0  0  0  0  0  0  0  0  0  0
    2.9977   -0.1831   -0.6459 F   0  0  0  0  0  0  0  0  0  0  0  0
    4.2950    0.8876    0.9062 F   0  0  0  0  0  0  0  0  0  0  0  0
    1.6264    1.5374    1.0236 F   0  0  0  0  0  0  0  0  0  0  0  0
    2.9658   -0.8651    1.5360 F   0  0  0  0  0  0  0  0  0  0  0  0
   -3.4156    0.5530    0.1627 H   0  0  0  0  0  0  0  0  0  0  0  0
  1  2  1  0  0  0  0
  1  7  1  0  0  0  0
  2  8  1  0  0  0  0
  3 16  1  0  0  0  0
  3  2  2  0  0  0  0
  4  3  1  0  0  0  0
  5  4  2  0  0  0  0
  5  6  1  0  0  0  0
  6  1  2  0  0  0  0
  9  4  1  0  0  0  0
 10  5  1  0  0  0  0
 11 12  3  0  0  0  0
 13 15  1  0  0  0  0
 13 17  1  0  0  0  0
 14 13  1  0  0  0  0
 18  6  1  0  0  0  0
M  END
