Coordinates from ORCA-job Ph-N2-BF4-B3LYPG-6-31G_dp-MTMO-d009-169-n800
 OpenBabel09051907443D

 18 16  0  0  0  0  0  0  0  0999 V2000
   -2.4151   -0.1709    0.5531 C   0  0  0  0  0  0  0  0  0  0  0  0
   -1.0974    0.2887    0.6080 C   0  0  0  0  0  0  0  0  0  0  0  0
   -0.8776    1.5745    1.0815 C   0  0  0  0  0  0  0  0  0  0  0  0
   -1.9003    2.4160    1.4956 C   0  0  0  0  0  0  0  0  0  0  0  0
   -3.2109    1.9375    1.4333 C   0  0  0  0  0  0  0  0  0  0  0  0
   -3.4698    0.6477    0.9639 C   0  0  0  0  0  0  0  0  0  0  0  0
   -2.6142   -1.1730    0.1862 H   0  0  0  0  0  0  0  0  0  0  0  0
   -0.2598   -0.3208    0.2912 H   0  0  0  0  0  0  0  0  0  0  0  0
   -1.6665    3.4119    1.8550 H   0  0  0  0  0  0  0  0  0  0  0  0
   -4.0280    2.5770    1.7526 H   0  0  0  0  0  0  0  0  0  0  0  0
   14.9498   -2.4529   -2.4050 N   0  0  0  0  0  0  0  0  0  0  0  0
   13.9623   -1.9865   -2.5751 N   0  0  0  0  0  0  0  0  0  0  0  0
    2.0660    1.7581   -0.5528 B   0  0  0  0  0  0  0  0  0  0  0  0
    1.3277    2.4033   -1.4365 F   0  0  0  0  0  0  0  0  0  0  0  0
    2.9506    2.4088    0.1773 F   0  0  0  0  0  0  0  0  0  0  0  0
    0.4066    2.0397    1.1524 F   0  0  0  0  0  0  0  0  0  0  0  0
    2.0078    0.4353   -0.4925 F   0  0  0  0  0  0  0  0  0  0  0  0
   -4.4908    0.2816    0.9177 H   0  0  0  0  0  0  0  0  0  0  0  0
  1  2  2  0  0  0  0
  1  6  1  0  0  0  0
  2  3  1  0  0  0  0
  3 16  1  0  0  0  0
  3  4  2  0  0  0  0
  4  9  1  0  0  0  0
  5  4  1  0  0  0  0
  5 10  1  0  0  0  0
  6  5  2  0  0  0  0
  7  1  1  0  0  0  0
  8  2  1  0  0  0  0
 12 11  3  0  0  0  0
 13 17  1  0  0  0  0
 13 15  1  0  0  0  0
 14 13  1  0  0  0  0
 18  6  1  0  0  0  0
M  END
