Coordinates from ORCA-job Ph-N2-BF4-B3LYPG-6-31G_dp-MTMO-d009-169-n800
 OpenBabel09051907443D

 18 16  0  0  0  0  0  0  0  0999 V2000
   -1.9382   -0.2684    0.4464 C   0  0  0  0  0  0  0  0  0  0  0  0
   -0.6219    0.1866    0.5479 C   0  0  0  0  0  0  0  0  0  0  0  0
   -0.4153    1.4799    1.0069 C   0  0  0  0  0  0  0  0  0  0  0  0
   -1.4502    2.3328    1.3638 C   0  0  0  0  0  0  0  0  0  0  0  0
   -2.7593    1.8585    1.2560 C   0  0  0  0  0  0  0  0  0  0  0  0
   -3.0050    0.5618    0.7986 C   0  0  0  0  0  0  0  0  0  0  0  0
   -2.1269   -1.2759    0.0888 H   0  0  0  0  0  0  0  0  0  0  0  0
    0.2255   -0.4320    0.2779 H   0  0  0  0  0  0  0  0  0  0  0  0
   -1.2268    3.3338    1.7152 H   0  0  0  0  0  0  0  0  0  0  0  0
   -3.5859    2.5066    1.5304 H   0  0  0  0  0  0  0  0  0  0  0  0
   11.1477   -1.5875   -1.7397 N   0  0  0  0  0  0  0  0  0  0  0  0
   10.1753   -1.1005   -1.9375 N   0  0  0  0  0  0  0  0  0  0  0  0
    2.5724    1.5928   -0.5240 B   0  0  0  0  0  0  0  0  0  0  0  0
    1.8241    2.1319   -1.4685 F   0  0  0  0  0  0  0  0  0  0  0  0
    3.4204    2.3363    0.1592 F   0  0  0  0  0  0  0  0  0  0  0  0
    0.8671    1.9413    1.1210 F   0  0  0  0  0  0  0  0  0  0  0  0
    2.5625    0.2786   -0.3525 F   0  0  0  0  0  0  0  0  0  0  0  0
   -4.0250    0.1994    0.7160 H   0  0  0  0  0  0  0  0  0  0  0  0
  1  2  2  0  0  0  0
  1  6  1  0  0  0  0
  2  3  1  0  0  0  0
  3 16  1  0  0  0  0
  3  4  2  0  0  0  0
  4  9  1  0  0  0  0
  5  4  1  0  0  0  0
  5 10  1  0  0  0  0
  6  5  2  0  0  0  0
  7  1  1  0  0  0  0
  8  2  1  0  0  0  0
 12 11  3  0  0  0  0
 13 17  1  0  0  0  0
 13 15  1  0  0  0  0
 14 13  1  0  0  0  0
 18  6  1  0  0  0  0
M  END
