Coordinates from ORCA-job Ph-N2-BF4-B3LYPG-6-31G_dp-MTMO-d009-169-n800
 OpenBabel09051907443D

 18 16  0  0  0  0  0  0  0  0999 V2000
   -1.5694   -0.2326    0.9412 C   0  0  0  0  0  0  0  0  0  0  0  0
   -0.2174    0.0344    1.1674 C   0  0  0  0  0  0  0  0  0  0  0  0
    0.2675    1.2833    0.8051 C   0  0  0  0  0  0  0  0  0  0  0  0
   -0.5247    2.2678    0.2315 C   0  0  0  0  0  0  0  0  0  0  0  0
   -1.8743    1.9816    0.0147 C   0  0  0  0  0  0  0  0  0  0  0  0
   -2.3976    0.7353    0.3675 C   0  0  0  0  0  0  0  0  0  0  0  0
   -1.9729   -1.2025    1.2154 H   0  0  0  0  0  0  0  0  0  0  0  0
    0.4503   -0.6976    1.6061 H   0  0  0  0  0  0  0  0  0  0  0  0
   -0.0891    3.2249   -0.0327 H   0  0  0  0  0  0  0  0  0  0  0  0
   -2.5147    2.7365   -0.4313 H   0  0  0  0  0  0  0  0  0  0  0  0
    4.9786    2.3699   -2.3370 N   0  0  0  0  0  0  0  0  0  0  0  0
    5.3695    1.3897   -2.0091 N   0  0  0  0  0  0  0  0  0  0  0  0
    3.3758    0.0473    0.5671 B   0  0  0  0  0  0  0  0  0  0  0  0
    2.9823   -0.0937   -0.6856 F   0  0  0  0  0  0  0  0  0  0  0  0
    4.2664    0.9672    0.8844 F   0  0  0  0  0  0  0  0  0  0  0  0
    1.5873    1.5669    1.0256 F   0  0  0  0  0  0  0  0  0  0  0  0
    2.9697   -0.8207    1.4818 F   0  0  0  0  0  0  0  0  0  0  0  0
   -3.4468    0.5182    0.1939 H   0  0  0  0  0  0  0  0  0  0  0  0
  1  2  1  0  0  0  0
  1  7  1  0  0  0  0
  2  8  1  0  0  0  0
  3 16  1  0  0  0  0
  3  2  2  0  0  0  0
  4  3  1  0  0  0  0
  5  4  2  0  0  0  0
  5  6  1  0  0  0  0
  6  1  2  0  0  0  0
  9  4  1  0  0  0  0
 10  5  1  0  0  0  0
 11 12  3  0  0  0  0
 13 15  1  0  0  0  0
 13 17  1  0  0  0  0
 14 13  1  0  0  0  0
 18  6  1  0  0  0  0
M  END
