Coordinates from ORCA-job Ph-N2-BF4-B3LYPG-6-31G_dp-MTMO-d009-169-n800
 OpenBabel09051907443D

 18 16  0  0  0  0  0  0  0  0999 V2000
   -1.9469   -0.2665    0.4480 C   0  0  0  0  0  0  0  0  0  0  0  0
   -0.6305    0.1885    0.5486 C   0  0  0  0  0  0  0  0  0  0  0  0
   -0.4235    1.4814    1.0083 C   0  0  0  0  0  0  0  0  0  0  0  0
   -1.4580    2.3340    1.3668 C   0  0  0  0  0  0  0  0  0  0  0  0
   -2.7672    1.8598    1.2600 C   0  0  0  0  0  0  0  0  0  0  0  0
   -3.0134    0.5635    0.8019 C   0  0  0  0  0  0  0  0  0  0  0  0
   -2.1360   -1.2737    0.0899 H   0  0  0  0  0  0  0  0  0  0  0  0
    0.2166   -0.4300    0.2774 H   0  0  0  0  0  0  0  0  0  0  0  0
   -1.2342    3.3349    1.7187 H   0  0  0  0  0  0  0  0  0  0  0  0
   -3.5935    2.5079    1.5355 H   0  0  0  0  0  0  0  0  0  0  0  0
   11.2170   -1.6031   -1.7512 N   0  0  0  0  0  0  0  0  0  0  0  0
   10.2439   -1.1169   -1.9474 N   0  0  0  0  0  0  0  0  0  0  0  0
    2.5627    1.5960   -0.5256 B   0  0  0  0  0  0  0  0  0  0  0  0
    1.8135    2.1365   -1.4685 F   0  0  0  0  0  0  0  0  0  0  0  0
    3.4115    2.3384    0.1578 F   0  0  0  0  0  0  0  0  0  0  0  0
    0.8591    1.9426    1.1216 F   0  0  0  0  0  0  0  0  0  0  0  0
    2.5527    0.2815   -0.3558 F   0  0  0  0  0  0  0  0  0  0  0  0
   -4.0335    0.2012    0.7200 H   0  0  0  0  0  0  0  0  0  0  0  0
  1  2  2  0  0  0  0
  1  6  1  0  0  0  0
  2  3  1  0  0  0  0
  3 16  1  0  0  0  0
  3  4  2  0  0  0  0
  4  9  1  0  0  0  0
  5  4  1  0  0  0  0
  5 10  1  0  0  0  0
  6  5  2  0  0  0  0
  7  1  1  0  0  0  0
  8  2  1  0  0  0  0
 12 11  3  0  0  0  0
 13 17  1  0  0  0  0
 13 15  1  0  0  0  0
 14 13  1  0  0  0  0
 18  6  1  0  0  0  0
M  END
