Coordinates from ORCA-job Ph-N2-BF4-B3LYPG-6-31G_dp-MTMO-d009-169-n800
 OpenBabel09051907443D

 18 16  0  0  0  0  0  0  0  0999 V2000
   -1.7507   -0.3088    0.5753 C   0  0  0  0  0  0  0  0  0  0  0  0
   -0.4225    0.1137    0.4858 C   0  0  0  0  0  0  0  0  0  0  0  0
   -0.1594    1.4682    0.6376 C   0  0  0  0  0  0  0  0  0  0  0  0
   -1.1511    2.4109    0.8716 C   0  0  0  0  0  0  0  0  0  0  0  0
   -2.4727    1.9680    0.9578 C   0  0  0  0  0  0  0  0  0  0  0  0
   -2.7742    0.6119    0.8102 C   0  0  0  0  0  0  0  0  0  0  0  0
   -1.9825   -1.3633    0.4585 H   0  0  0  0  0  0  0  0  0  0  0  0
    0.3923   -0.5766    0.3026 H   0  0  0  0  0  0  0  0  0  0  0  0
   -0.8848    3.4564    0.9831 H   0  0  0  0  0  0  0  0  0  0  0  0
   -3.2656    2.6870    1.1408 H   0  0  0  0  0  0  0  0  0  0  0  0
    8.3466   -0.0690   -1.6052 N   0  0  0  0  0  0  0  0  0  0  0  0
    7.2868    0.0350   -1.3090 N   0  0  0  0  0  0  0  0  0  0  0  0
    3.2661    0.8800   -0.1771 B   0  0  0  0  0  0  0  0  0  0  0  0
    3.2246    1.5345   -1.3209 F   0  0  0  0  0  0  0  0  0  0  0  0
    3.8672    1.4064    0.8711 F   0  0  0  0  0  0  0  0  0  0  0  0
    1.1324    1.9035    0.5552 F   0  0  0  0  0  0  0  0  0  0  0  0
    2.7915   -0.3558   -0.1108 F   0  0  0  0  0  0  0  0  0  0  0  0
   -3.8035    0.2740    0.8790 H   0  0  0  0  0  0  0  0  0  0  0  0
  1  6  1  0  0  0  0
  2  1  2  0  0  0  0
  2  3  1  0  0  0  0
  3  4  2  0  0  0  0
  4  5  1  0  0  0  0
  4  9  1  0  0  0  0
  5 10  1  0  0  0  0
  6 18  1  0  0  0  0
  6  5  2  0  0  0  0
  7  1  1  0  0  0  0
  8  2  1  0  0  0  0
 11 12  3  0  0  0  0
 13 17  1  0  0  0  0
 13 15  1  0  0  0  0
 14 13  1  0  0  0  0
 16  3  1  0  0  0  0
M  END
