Coordinates from ORCA-job Ph-N2-BF4-B3LYPG-6-31G_dp-MTMO-d009-169-n800
 OpenBabel09051907443D

 18 17  0  0  0  0  0  0  0  0999 V2000
   -1.1567    0.1382    0.7773 C   0  0  0  0  0  0  0  0  0  0  0  0
    0.1821    0.2477    0.4103 C   0  0  0  0  0  0  0  0  0  0  0  0
    0.5295    1.3939   -0.3139 C   0  0  0  0  0  0  0  0  0  0  0  0
   -0.3613    2.4145   -0.6784 C   0  0  0  0  0  0  0  0  0  0  0  0
   -1.6839    2.2704   -0.2811 C   0  0  0  0  0  0  0  0  0  0  0  0
   -2.0768    1.1359    0.4419 C   0  0  0  0  0  0  0  0  0  0  0  0
   -1.4779   -0.7327    1.3385 H   0  0  0  0  0  0  0  0  0  0  0  0
    0.9442   -0.4909    0.6546 H   0  0  0  0  0  0  0  0  0  0  0  0
   -0.0213    3.2781   -1.2387 H   0  0  0  0  0  0  0  0  0  0  0  0
   -2.4067    3.0381   -0.5348 H   0  0  0  0  0  0  0  0  0  0  0  0
    1.8714    1.5412   -0.7567 N   0  0  0  0  0  0  0  0  0  0  0  0
    2.8908    1.6782   -1.1819 N   0  0  0  0  0  0  0  0  0  0  0  0
    3.5315   -0.1897    1.1514 B   0  0  0  0  0  0  0  0  0  0  0  0
    4.3100    0.2558    0.0519 F   0  0  0  0  0  0  0  0  0  0  0  0
    4.3134   -0.6012    2.1968 F   0  0  0  0  0  0  0  0  0  0  0  0
    2.6861    0.8968    1.5321 F   0  0  0  0  0  0  0  0  0  0  0  0
    2.6793   -1.2311    0.6890 F   0  0  0  0  0  0  0  0  0  0  0  0
   -3.1134    1.0327    0.7474 H   0  0  0  0  0  0  0  0  0  0  0  0
  1  7  1  0  0  0  0
  2  8  1  0  0  0  0
  2  1  2  0  0  0  0
  3  2  1  0  0  0  0
  4  3  2  0  0  0  0
  4  5  1  0  0  0  0
  5  6  2  0  0  0  0
  6 18  1  0  0  0  0
  6  1  1  0  0  0  0
  9  4  1  0  0  0  0
 10  5  1  0  0  0  0
 11  3  1  0  0  0  0
 12 11  1  0  0  0  0
 13 16  1  0  0  0  0
 13 15  1  0  0  0  0
 14 13  1  0  0  0  0
 17 13  1  0  0  0  0
M  RAD  2  11   2  12   3
M  END
