Coordinates from ORCA-job Ph-N2-BF4-B3LYPG-6-31G_dp-MTMO-d009-169-n800
 OpenBabel09051907443D

 18 16  0  0  0  0  0  0  0  0999 V2000
   -1.5107   -0.3141    0.7740 C   0  0  0  0  0  0  0  0  0  0  0  0
   -0.1958    0.0145    1.1106 C   0  0  0  0  0  0  0  0  0  0  0  0
    0.2051    1.3338    0.9519 C   0  0  0  0  0  0  0  0  0  0  0  0
   -0.6349    2.3302    0.4756 C   0  0  0  0  0  0  0  0  0  0  0  0
   -1.9465    1.9817    0.1460 C   0  0  0  0  0  0  0  0  0  0  0  0
   -2.3855    0.6636    0.2938 C   0  0  0  0  0  0  0  0  0  0  0  0
   -1.8490   -1.3394    0.8891 H   0  0  0  0  0  0  0  0  0  0  0  0
    0.5073   -0.7221    1.4815 H   0  0  0  0  0  0  0  0  0  0  0  0
   -0.2640    3.3437    0.3704 H   0  0  0  0  0  0  0  0  0  0  0  0
   -2.6234    2.7440   -0.2275 H   0  0  0  0  0  0  0  0  0  0  0  0
    5.3785    1.6678   -2.6396 N   0  0  0  0  0  0  0  0  0  0  0  0
    5.4654    0.8328   -1.9212 N   0  0  0  0  0  0  0  0  0  0  0  0
    3.3305    0.3858    0.5058 B   0  0  0  0  0  0  0  0  0  0  0  0
    2.8163    0.3571   -0.7111 F   0  0  0  0  0  0  0  0  0  0  0  0
    4.1801    1.3355    0.8461 F   0  0  0  0  0  0  0  0  0  0  0  0
    1.4867    1.6752    1.2860 F   0  0  0  0  0  0  0  0  0  0  0  0
    3.0857   -0.6127    1.3408 F   0  0  0  0  0  0  0  0  0  0  0  0
   -3.4053    0.3988    0.0338 H   0  0  0  0  0  0  0  0  0  0  0  0
  1  7  1  0  0  0  0
  1  2  2  0  0  0  0
  2  8  1  0  0  0  0
  3  2  1  0  0  0  0
  3 16  1  0  0  0  0
  4  3  2  0  0  0  0
  5  6  2  0  0  0  0
  5  4  1  0  0  0  0
  6  1  1  0  0  0  0
  9  4  1  0  0  0  0
 10  5  1  0  0  0  0
 11 12  3  0  0  0  0
 13 15  1  0  0  0  0
 13 17  1  0  0  0  0
 14 13  1  0  0  0  0
 18  6  1  0  0  0  0
M  END
