Coordinates from ORCA-job Ph-N2-BF4-B3LYPG-6-31G_dp-MTMO-d009-169-n800
 OpenBabel09051907443D

 18 16  0  0  0  0  0  0  0  0999 V2000
   -1.1361    0.1323    0.7977 C   0  0  0  0  0  0  0  0  0  0  0  0
    0.2143    0.2753    0.3968 C   0  0  0  0  0  0  0  0  0  0  0  0
    0.3379    1.4259   -0.2839 C   0  0  0  0  0  0  0  0  0  0  0  0
   -0.4490    2.4579   -0.6802 C   0  0  0  0  0  0  0  0  0  0  0  0
   -1.7707    2.2438   -0.2386 C   0  0  0  0  0  0  0  0  0  0  0  0
   -2.0999    1.0956    0.4886 C   0  0  0  0  0  0  0  0  0  0  0  0
   -1.3955   -0.7550    1.3668 H   0  0  0  0  0  0  0  0  0  0  0  0
    1.0369   -0.4304    0.6181 H   0  0  0  0  0  0  0  0  0  0  0  0
   -0.1309    3.3235   -1.2436 H   0  0  0  0  0  0  0  0  0  0  0  0
   -2.5189    2.9920   -0.4798 H   0  0  0  0  0  0  0  0  0  0  0  0
    2.2214    1.6851   -0.9703 N   0  0  0  0  0  0  0  0  0  0  0  0
    3.2304    1.7409   -1.4144 N   0  0  0  0  0  0  0  0  0  0  0  0
    3.4837   -0.2145    1.1883 B   0  0  0  0  0  0  0  0  0  0  0  0
    4.4114    0.0464    0.1773 F   0  0  0  0  0  0  0  0  0  0  0  0
    4.0636   -0.6664    2.3460 F   0  0  0  0  0  0  0  0  0  0  0  0
    2.7214    0.9678    1.4250 F   0  0  0  0  0  0  0  0  0  0  0  0
    2.5427   -1.1961    0.6912 F   0  0  0  0  0  0  0  0  0  0  0  0
   -3.1224    0.9519    0.8209 H   0  0  0  0  0  0  0  0  0  0  0  0
  1  7  1  0  0  0  0
  2  8  1  0  0  0  0
  2  1  2  0  0  0  0
  3  2  1  0  0  0  0
  4  3  2  0  0  0  0
  4  5  1  0  0  0  0
  5  6  2  0  0  0  0
  6  1  1  0  0  0  0
  6 18  1  0  0  0  0
  9  4  1  0  0  0  0
 10  5  1  0  0  0  0
 12 11  3  0  0  0  0
 13 16  1  0  0  0  0
 13 15  1  0  0  0  0
 14 13  1  0  0  0  0
 17 13  1  0  0  0  0
M  RAD  1   3   2
M  END
