Coordinates from ORCA-job Ph-N2-BF4-B3LYPG-6-31G_dp-MTMO-d009-169-n800
 OpenBabel09051907443D

 18 16  0  0  0  0  0  0  0  0999 V2000
   -2.3687   -0.1813    0.5430 C   0  0  0  0  0  0  0  0  0  0  0  0
   -1.0505    0.2767    0.5969 C   0  0  0  0  0  0  0  0  0  0  0  0
   -0.8285    1.5620    1.0708 C   0  0  0  0  0  0  0  0  0  0  0  0
   -1.8499    2.4046    1.4862 C   0  0  0  0  0  0  0  0  0  0  0  0
   -3.1611    1.9277    1.4250 C   0  0  0  0  0  0  0  0  0  0  0  0
   -3.4220    0.6384    0.9552 C   0  0  0  0  0  0  0  0  0  0  0  0
   -2.5695   -1.1830    0.1759 H   0  0  0  0  0  0  0  0  0  0  0  0
   -0.2136   -0.3335    0.2792 H   0  0  0  0  0  0  0  0  0  0  0  0
   -1.6146    3.4000    1.8458 H   0  0  0  0  0  0  0  0  0  0  0  0
   -3.9772    2.5680    1.7452 H   0  0  0  0  0  0  0  0  0  0  0  0
   14.5580   -2.3667   -2.3252 N   0  0  0  0  0  0  0  0  0  0  0  0
   13.5744   -1.8921   -2.4958 N   0  0  0  0  0  0  0  0  0  0  0  0
    2.1157    1.7458   -0.5634 B   0  0  0  0  0  0  0  0  0  0  0  0
    1.3748    2.3887   -1.4465 F   0  0  0  0  0  0  0  0  0  0  0  0
    3.0000    2.3990    0.1649 F   0  0  0  0  0  0  0  0  0  0  0  0
    0.4563    2.0254    1.1406 F   0  0  0  0  0  0  0  0  0  0  0  0
    2.0603    0.4229   -0.5019 F   0  0  0  0  0  0  0  0  0  0  0  0
   -4.4435    0.2736    0.9099 H   0  0  0  0  0  0  0  0  0  0  0  0
  1  2  2  0  0  0  0
  1  6  1  0  0  0  0
  2  3  1  0  0  0  0
  3 16  1  0  0  0  0
  3  4  2  0  0  0  0
  4  9  1  0  0  0  0
  5  4  1  0  0  0  0
  5 10  1  0  0  0  0
  6  5  2  0  0  0  0
  7  1  1  0  0  0  0
  8  2  1  0  0  0  0
 12 11  3  0  0  0  0
 13 17  1  0  0  0  0
 13 15  1  0  0  0  0
 14 13  1  0  0  0  0
 18  6  1  0  0  0  0
M  END
