Coordinates from ORCA-job Ph-N2-BF4-B3LYPG-6-31G_dp-MTMO-d009-169-n800
 OpenBabel09051907443D

 18 16  0  0  0  0  0  0  0  0999 V2000
   -1.9767   -0.2601    0.4541 C   0  0  0  0  0  0  0  0  0  0  0  0
   -0.6601    0.1952    0.5517 C   0  0  0  0  0  0  0  0  0  0  0  0
   -0.4523    1.4873    1.0133 C   0  0  0  0  0  0  0  0  0  0  0  0
   -1.4862    2.3388    1.3764 C   0  0  0  0  0  0  0  0  0  0  0  0
   -2.7955    1.8643    1.2724 C   0  0  0  0  0  0  0  0  0  0  0  0
   -3.0425    0.5687    0.8126 C   0  0  0  0  0  0  0  0  0  0  0  0
   -2.1664   -1.2667    0.0946 H   0  0  0  0  0  0  0  0  0  0  0  0
    0.1864   -0.4224    0.2768 H   0  0  0  0  0  0  0  0  0  0  0  0
   -1.2618    3.3391    1.7295 H   0  0  0  0  0  0  0  0  0  0  0  0
   -3.6213    2.5115    1.5516 H   0  0  0  0  0  0  0  0  0  0  0  0
   11.4580   -1.6589   -1.7938 N   0  0  0  0  0  0  0  0  0  0  0  0
   10.4826   -1.1752   -1.9844 N   0  0  0  0  0  0  0  0  0  0  0  0
    2.5297    1.6076   -0.5289 B   0  0  0  0  0  0  0  0  0  0  0  0
    1.7789    2.1530   -1.4677 F   0  0  0  0  0  0  0  0  0  0  0  0
    3.3808    2.3463    0.1559 F   0  0  0  0  0  0  0  0  0  0  0  0
    0.8304    1.9489    1.1237 F   0  0  0  0  0  0  0  0  0  0  0  0
    2.5189    0.2924   -0.3648 F   0  0  0  0  0  0  0  0  0  0  0  0
   -4.0626    0.2062    0.7330 H   0  0  0  0  0  0  0  0  0  0  0  0
  1  2  2  0  0  0  0
  1  6  1  0  0  0  0
  2  3  1  0  0  0  0
  3 16  1  0  0  0  0
  3  4  2  0  0  0  0
  4  9  1  0  0  0  0
  5  4  1  0  0  0  0
  5 10  1  0  0  0  0
  6  5  2  0  0  0  0
  7  1  1  0  0  0  0
  8  2  1  0  0  0  0
 12 11  3  0  0  0  0
 13 17  1  0  0  0  0
 13 15  1  0  0  0  0
 14 13  1  0  0  0  0
 18  6  1  0  0  0  0
M  END
