Coordinates from ORCA-job Ph-N2-BF4-B3LYPG-6-31G_dp-MTMO-d009-169-n800
 OpenBabel09051907443D

 18 16  0  0  0  0  0  0  0  0999 V2000
   -1.5533   -0.1966    0.9523 C   0  0  0  0  0  0  0  0  0  0  0  0
   -0.1998    0.0409    1.2015 C   0  0  0  0  0  0  0  0  0  0  0  0
    0.3303    1.2596    0.8016 C   0  0  0  0  0  0  0  0  0  0  0  0
   -0.4187    2.2418    0.1690 C   0  0  0  0  0  0  0  0  0  0  0  0
   -1.7704    1.9854   -0.0699 C   0  0  0  0  0  0  0  0  0  0  0  0
   -2.3386    0.7700    0.3195 C   0  0  0  0  0  0  0  0  0  0  0  0
   -1.9913   -1.1428    1.2548 H   0  0  0  0  0  0  0  0  0  0  0  0
    0.4353   -0.6915    1.6855 H   0  0  0  0  0  0  0  0  0  0  0  0
    0.0511    3.1746   -0.1224 H   0  0  0  0  0  0  0  0  0  0  0  0
   -2.3775    2.7393   -0.5620 H   0  0  0  0  0  0  0  0  0  0  0  0
    4.4468    2.5130   -2.2329 N   0  0  0  0  0  0  0  0  0  0  0  0
    5.0915    1.6352   -2.0459 N   0  0  0  0  0  0  0  0  0  0  0  0
    3.3955   -0.0624    0.6257 B   0  0  0  0  0  0  0  0  0  0  0  0
    3.0020   -0.2252   -0.6245 F   0  0  0  0  0  0  0  0  0  0  0  0
    4.3158    0.8356    0.9198 F   0  0  0  0  0  0  0  0  0  0  0  0
    1.6525    1.5140    1.0434 F   0  0  0  0  0  0  0  0  0  0  0  0
    2.9586   -0.8909    1.5625 F   0  0  0  0  0  0  0  0  0  0  0  0
   -3.3893    0.5759    0.1281 H   0  0  0  0  0  0  0  0  0  0  0  0
  1  2  1  0  0  0  0
  1  7  1  0  0  0  0
  2  8  1  0  0  0  0
  3 16  1  0  0  0  0
  3  2  2  0  0  0  0
  4  3  1  0  0  0  0
  5  4  2  0  0  0  0
  5  6  1  0  0  0  0
  6  1  2  0  0  0  0
  9  4  1  0  0  0  0
 10  5  1  0  0  0  0
 11 12  3  0  0  0  0
 13 15  1  0  0  0  0
 13 17  1  0  0  0  0
 14 13  1  0  0  0  0
 18  6  1  0  0  0  0
M  END
