Coordinates from ORCA-job Ph-N2-BF4-B3LYPG-6-31G_dp-MTMO-d009-169-n800
 OpenBabel09051907443D

 18 16  0  0  0  0  0  0  0  0999 V2000
   -1.5753   -0.1714    0.9954 C   0  0  0  0  0  0  0  0  0  0  0  0
   -0.2138    0.0518    1.2122 C   0  0  0  0  0  0  0  0  0  0  0  0
    0.3272    1.2493    0.7657 C   0  0  0  0  0  0  0  0  0  0  0  0
   -0.4184    2.2237    0.1173 C   0  0  0  0  0  0  0  0  0  0  0  0
   -1.7781    1.9817   -0.0890 C   0  0  0  0  0  0  0  0  0  0  0  0
   -2.3575    0.7878    0.3477 C   0  0  0  0  0  0  0  0  0  0  0  0
   -2.0222   -1.1011    1.3345 H   0  0  0  0  0  0  0  0  0  0  0  0
    0.4192   -0.6755    1.7064 H   0  0  0  0  0  0  0  0  0  0  0  0
    0.0606    3.1393   -0.2112 H   0  0  0  0  0  0  0  0  0  0  0  0
   -2.3827    2.7298   -0.5929 H   0  0  0  0  0  0  0  0  0  0  0  0
    4.3651    2.3065   -1.8484 N   0  0  0  0  0  0  0  0  0  0  0  0
    5.2975    1.9923   -2.3517 N   0  0  0  0  0  0  0  0  0  0  0  0
    3.3957   -0.1088    0.6198 B   0  0  0  0  0  0  0  0  0  0  0  0
    3.0369   -0.2935   -0.6376 F   0  0  0  0  0  0  0  0  0  0  0  0
    4.3208    0.7820    0.9211 F   0  0  0  0  0  0  0  0  0  0  0  0
    1.6572    1.4902    0.9744 F   0  0  0  0  0  0  0  0  0  0  0  0
    2.9229   -0.9129    1.5606 F   0  0  0  0  0  0  0  0  0  0  0  0
   -3.4144    0.6047    0.1816 H   0  0  0  0  0  0  0  0  0  0  0  0
  1  2  1  0  0  0  0
  1  7  1  0  0  0  0
  2  8  1  0  0  0  0
  3 16  1  0  0  0  0
  3  2  2  0  0  0  0
  4  3  1  0  0  0  0
  5  4  2  0  0  0  0
  5  6  1  0  0  0  0
  6  1  2  0  0  0  0
  9  4  1  0  0  0  0
 10  5  1  0  0  0  0
 12 11  3  0  0  0  0
 13 15  1  0  0  0  0
 13 17  1  0  0  0  0
 14 13  1  0  0  0  0
 18  6  1  0  0  0  0
M  END
