Coordinates from ORCA-job Ph-N2-BF4-B3LYPG-6-31G_dp-MTMO-d009-169-n800
 OpenBabel09051907443D

 18 16  0  0  0  0  0  0  0  0999 V2000
   -1.8963   -0.2773    0.4384 C   0  0  0  0  0  0  0  0  0  0  0  0
   -0.5801    0.1768    0.5452 C   0  0  0  0  0  0  0  0  0  0  0  0
   -0.3747    1.4718    0.9999 C   0  0  0  0  0  0  0  0  0  0  0  0
   -1.4107    2.3271    1.3478 C   0  0  0  0  0  0  0  0  0  0  0  0
   -2.7197    1.8536    1.2349 C   0  0  0  0  0  0  0  0  0  0  0  0
   -2.9642    0.5553    0.7815 C   0  0  0  0  0  0  0  0  0  0  0  0
   -2.0841   -1.2861    0.0838 H   0  0  0  0  0  0  0  0  0  0  0  0
    0.2681   -0.4438    0.2823 H   0  0  0  0  0  0  0  0  0  0  0  0
   -1.1882    3.3294    1.6964 H   0  0  0  0  0  0  0  0  0  0  0  0
   -3.5471    2.5037    1.5022 H   0  0  0  0  0  0  0  0  0  0  0  0
   10.8028   -1.5026   -1.6837 N   0  0  0  0  0  0  0  0  0  0  0  0
    9.8327   -1.0151   -1.8908 N   0  0  0  0  0  0  0  0  0  0  0  0
    2.6221    1.5724   -0.5142 B   0  0  0  0  0  0  0  0  0  0  0  0
    1.8788    2.1045   -1.4666 F   0  0  0  0  0  0  0  0  0  0  0  0
    3.4662    2.3210    0.1684 F   0  0  0  0  0  0  0  0  0  0  0  0
    0.9075    1.9324    1.1189 F   0  0  0  0  0  0  0  0  0  0  0  0
    2.6112    0.2594   -0.3331 F   0  0  0  0  0  0  0  0  0  0  0  0
   -3.9840    0.1936    0.6947 H   0  0  0  0  0  0  0  0  0  0  0  0
  1  2  2  0  0  0  0
  1  6  1  0  0  0  0
  2  3  1  0  0  0  0
  3 16  1  0  0  0  0
  3  4  2  0  0  0  0
  4  9  1  0  0  0  0
  5  4  1  0  0  0  0
  5 10  1  0  0  0  0
  6  5  2  0  0  0  0
  7  1  1  0  0  0  0
  8  2  1  0  0  0  0
 12 11  3  0  0  0  0
 13 17  1  0  0  0  0
 13 15  1  0  0  0  0
 14 13  1  0  0  0  0
 18  6  1  0  0  0  0
M  END
