Coordinates from ORCA-job Ph-N2-BF4-B3LYPG-6-31G_dp-MTMO-d009-169-n800
 OpenBabel09051907443D

 18 16  0  0  0  0  0  0  0  0999 V2000
   -2.0089   -0.2522    0.4601 C   0  0  0  0  0  0  0  0  0  0  0  0
   -0.6914    0.2010    0.5555 C   0  0  0  0  0  0  0  0  0  0  0  0
   -0.4807    1.4920    1.0190 C   0  0  0  0  0  0  0  0  0  0  0  0
   -1.5125    2.3442    1.3860 C   0  0  0  0  0  0  0  0  0  0  0  0
   -2.8228    1.8718    1.2842 C   0  0  0  0  0  0  0  0  0  0  0  0
   -3.0726    0.5774    0.8226 C   0  0  0  0  0  0  0  0  0  0  0  0
   -2.2009   -1.2580    0.0993 H   0  0  0  0  0  0  0  0  0  0  0  0
    0.1535   -0.4174    0.2774 H   0  0  0  0  0  0  0  0  0  0  0  0
   -1.2858    3.3435    1.7405 H   0  0  0  0  0  0  0  0  0  0  0  0
   -3.6469    2.5197    1.5665 H   0  0  0  0  0  0  0  0  0  0  0  0
   11.7014   -1.7078   -1.8369 N   0  0  0  0  0  0  0  0  0  0  0  0
   10.7240   -1.2260   -2.0223 N   0  0  0  0  0  0  0  0  0  0  0  0
    2.4964    1.6127   -0.5319 B   0  0  0  0  0  0  0  0  0  0  0  0
    1.7440    2.1629   -1.4666 F   0  0  0  0  0  0  0  0  0  0  0  0
    3.3510    2.3472    0.1528 F   0  0  0  0  0  0  0  0  0  0  0  0
    0.8029    1.9515    1.1274 F   0  0  0  0  0  0  0  0  0  0  0  0
    2.4833    0.2970   -0.3724 F   0  0  0  0  0  0  0  0  0  0  0  0
   -4.0935    0.2164    0.7447 H   0  0  0  0  0  0  0  0  0  0  0  0
  1  2  2  0  0  0  0
  1  6  1  0  0  0  0
  2  3  1  0  0  0  0
  3 16  1  0  0  0  0
  3  4  2  0  0  0  0
  4  9  1  0  0  0  0
  5  4  1  0  0  0  0
  5 10  1  0  0  0  0
  6  5  2  0  0  0  0
  7  1  1  0  0  0  0
  8  2  1  0  0  0  0
 12 11  3  0  0  0  0
 13 17  1  0  0  0  0
 13 15  1  0  0  0  0
 14 13  1  0  0  0  0
 18  6  1  0  0  0  0
M  END
