Coordinates from ORCA-job Ph-N2-BF4-B3LYPG-6-31G_dp-MTMO-d009-169-n800
 OpenBabel09051907443D

 18 17  0  0  0  0  0  0  0  0999 V2000
   -1.1153    0.1349    0.7547 C   0  0  0  0  0  0  0  0  0  0  0  0
    0.2131    0.2516    0.3656 C   0  0  0  0  0  0  0  0  0  0  0  0
    0.5801    1.4095   -0.3629 C   0  0  0  0  0  0  0  0  0  0  0  0
   -0.3540    2.4260   -0.6892 C   0  0  0  0  0  0  0  0  0  0  0  0
   -1.6645    2.2773   -0.2723 C   0  0  0  0  0  0  0  0  0  0  0  0
   -2.0431    1.1337    0.4471 C   0  0  0  0  0  0  0  0  0  0  0  0
   -1.4237   -0.7422    1.3133 H   0  0  0  0  0  0  0  0  0  0  0  0
    0.9750   -0.4930    0.5967 H   0  0  0  0  0  0  0  0  0  0  0  0
   -0.0282    3.2984   -1.2457 H   0  0  0  0  0  0  0  0  0  0  0  0
   -2.3934    3.0460   -0.5045 H   0  0  0  0  0  0  0  0  0  0  0  0
    1.7857    1.5536   -0.7696 N   0  0  0  0  0  0  0  0  0  0  0  0
    2.8246    1.6939   -1.1624 N   0  0  0  0  0  0  0  0  0  0  0  0
    3.4990   -0.2009    1.1795 B   0  0  0  0  0  0  0  0  0  0  0  0
    4.2207    0.2162    0.0299 F   0  0  0  0  0  0  0  0  0  0  0  0
    4.3353   -0.5513    2.2054 F   0  0  0  0  0  0  0  0  0  0  0  0
    2.6456    0.8800    1.5524 F   0  0  0  0  0  0  0  0  0  0  0  0
    2.6576   -1.2835    0.7976 F   0  0  0  0  0  0  0  0  0  0  0  0
   -3.0741    1.0258    0.7703 H   0  0  0  0  0  0  0  0  0  0  0  0
  1  7  1  0  0  0  0
  2  8  1  0  0  0  0
  2  1  2  0  0  0  0
  3  2  1  0  0  0  0
  4  3  2  0  0  0  0
  4  5  1  0  0  0  0
  5  6  2  0  0  0  0
  6  1  1  0  0  0  0
  6 18  1  0  0  0  0
  9  4  1  0  0  0  0
 10  5  1  0  0  0  0
 11  3  1  0  0  0  0
 12 11  1  0  0  0  0
 13 16  1  0  0  0  0
 13 15  1  0  0  0  0
 14 13  1  0  0  0  0
 17 13  1  0  0  0  0
M  RAD  2  11   2  12   3
M  END
