Coordinates from ORCA-job Ph-N2-BF4-B3LYPG-6-31G_dp-MTMO-d009-169-n800
 OpenBabel09051907443D

 18 16  0  0  0  0  0  0  0  0999 V2000
   -1.6919   -0.3081    0.5710 C   0  0  0  0  0  0  0  0  0  0  0  0
   -0.3658    0.1059    0.4267 C   0  0  0  0  0  0  0  0  0  0  0  0
   -0.0873    1.4589    0.5656 C   0  0  0  0  0  0  0  0  0  0  0  0
   -1.0625    2.4083    0.8389 C   0  0  0  0  0  0  0  0  0  0  0  0
   -2.3825    1.9741    0.9795 C   0  0  0  0  0  0  0  0  0  0  0  0
   -2.6988    0.6199    0.8463 C   0  0  0  0  0  0  0  0  0  0  0  0
   -1.9352   -1.3612    0.4655 H   0  0  0  0  0  0  0  0  0  0  0  0
    0.4374   -0.5893    0.2122 H   0  0  0  0  0  0  0  0  0  0  0  0
   -0.7852    3.4521    0.9379 H   0  0  0  0  0  0  0  0  0  0  0  0
   -3.1625    2.6985    1.1938 H   0  0  0  0  0  0  0  0  0  0  0  0
    7.6391    0.1212   -1.3376 N   0  0  0  0  0  0  0  0  0  0  0  0
    6.5755    0.2382   -1.0606 N   0  0  0  0  0  0  0  0  0  0  0  0
    3.4050    0.7836   -0.2495 B   0  0  0  0  0  0  0  0  0  0  0  0
    3.4166    1.4465   -1.3885 F   0  0  0  0  0  0  0  0  0  0  0  0
    3.9839    1.2879    0.8214 F   0  0  0  0  0  0  0  0  0  0  0  0
    1.2028    1.8822    0.4278 F   0  0  0  0  0  0  0  0  0  0  0  0
    2.8785   -0.4317   -0.2025 F   0  0  0  0  0  0  0  0  0  0  0  0
   -3.7266    0.2890    0.9579 H   0  0  0  0  0  0  0  0  0  0  0  0
  1  6  2  0  0  0  0
  2  3  2  0  0  0  0
  2  1  1  0  0  0  0
  3  4  1  0  0  0  0
  4  9  1  0  0  0  0
  4  5  2  0  0  0  0
  5 10  1  0  0  0  0
  6 18  1  0  0  0  0
  6  5  1  0  0  0  0
  7  1  1  0  0  0  0
  8  2  1  0  0  0  0
 11 12  3  0  0  0  0
 13 17  1  0  0  0  0
 13 15  1  0  0  0  0
 14 13  1  0  0  0  0
 16  3  1  0  0  0  0
M  END
