Coordinates from ORCA-job Ph-N2-BF4-B3LYPG-6-31G_dp-MTMO-d009-169-n800
 OpenBabel09051907443D

 18 16  0  0  0  0  0  0  0  0999 V2000
   -1.5903   -0.1910    1.0006 C   0  0  0  0  0  0  0  0  0  0  0  0
   -0.2294    0.0482    1.2036 C   0  0  0  0  0  0  0  0  0  0  0  0
    0.2888    1.2602    0.7691 C   0  0  0  0  0  0  0  0  0  0  0  0
   -0.4789    2.2339    0.1458 C   0  0  0  0  0  0  0  0  0  0  0  0
   -1.8377    1.9758   -0.0467 C   0  0  0  0  0  0  0  0  0  0  0  0
   -2.3943    0.7670    0.3784 C   0  0  0  0  0  0  0  0  0  0  0  0
   -2.0196   -1.1321    1.3307 H   0  0  0  0  0  0  0  0  0  0  0  0
    0.4202   -0.6777    1.6780 H   0  0  0  0  0  0  0  0  0  0  0  0
   -0.0174    3.1615   -0.1740 H   0  0  0  0  0  0  0  0  0  0  0  0
   -2.4593    2.7230   -0.5307 H   0  0  0  0  0  0  0  0  0  0  0  0
    4.6149    2.2554   -1.9109 N   0  0  0  0  0  0  0  0  0  0  0  0
    5.5601    1.8650   -2.3299 N   0  0  0  0  0  0  0  0  0  0  0  0
    3.3803   -0.0515    0.5801 B   0  0  0  0  0  0  0  0  0  0  0  0
    3.0232   -0.2192   -0.6800 F   0  0  0  0  0  0  0  0  0  0  0  0
    4.2924    0.8475    0.8967 F   0  0  0  0  0  0  0  0  0  0  0  0
    1.6178    1.5172    0.9648 F   0  0  0  0  0  0  0  0  0  0  0  0
    2.9205   -0.8787    1.5073 F   0  0  0  0  0  0  0  0  0  0  0  0
   -3.4507    0.5715    0.2231 H   0  0  0  0  0  0  0  0  0  0  0  0
  1  2  1  0  0  0  0
  1  7  1  0  0  0  0
  2  8  1  0  0  0  0
  3 16  1  0  0  0  0
  3  2  2  0  0  0  0
  4  3  1  0  0  0  0
  5  4  2  0  0  0  0
  5  6  1  0  0  0  0
  6  1  2  0  0  0  0
  9  4  1  0  0  0  0
 10  5  1  0  0  0  0
 12 11  3  0  0  0  0
 13 15  1  0  0  0  0
 13 17  1  0  0  0  0
 14 13  1  0  0  0  0
 18  6  1  0  0  0  0
M  END
