Coordinates from ORCA-job Ph-N2-BF4-B3LYPG-6-31G_dp-MTMO-d009-169-n800
 OpenBabel09051907443D

 18 16  0  0  0  0  0  0  0  0999 V2000
   -1.8352   -0.2906    0.4274 C   0  0  0  0  0  0  0  0  0  0  0  0
   -0.5187    0.1610    0.5423 C   0  0  0  0  0  0  0  0  0  0  0  0
   -0.3138    1.4586    0.9897 C   0  0  0  0  0  0  0  0  0  0  0  0
   -1.3505    2.3189    1.3229 C   0  0  0  0  0  0  0  0  0  0  0  0
   -2.6597    1.8479    1.2022 C   0  0  0  0  0  0  0  0  0  0  0  0
   -2.9037    0.5472    0.7557 C   0  0  0  0  0  0  0  0  0  0  0  0
   -2.0226   -1.3012    0.0782 H   0  0  0  0  0  0  0  0  0  0  0  0
    0.3301   -0.4636    0.2909 H   0  0  0  0  0  0  0  0  0  0  0  0
   -1.1283    3.3230    1.6665 H   0  0  0  0  0  0  0  0  0  0  0  0
   -3.4876    2.5020    1.4580 H   0  0  0  0  0  0  0  0  0  0  0  0
   10.2865   -1.3735   -1.5970 N   0  0  0  0  0  0  0  0  0  0  0  0
    9.3238   -0.8809   -1.8251 N   0  0  0  0  0  0  0  0  0  0  0  0
    2.6962    1.5391   -0.4992 B   0  0  0  0  0  0  0  0  0  0  0  0
    1.9617    2.0636   -1.4625 F   0  0  0  0  0  0  0  0  0  0  0  0
    3.5359    2.2924    0.1835 F   0  0  0  0  0  0  0  0  0  0  0  0
    0.9685    1.9168    1.1163 F   0  0  0  0  0  0  0  0  0  0  0  0
    2.6816    0.2278   -0.3063 F   0  0  0  0  0  0  0  0  0  0  0  0
   -3.9238    0.1875    0.6627 H   0  0  0  0  0  0  0  0  0  0  0  0
  1  2  2  0  0  0  0
  1  6  1  0  0  0  0
  2  3  1  0  0  0  0
  3 16  1  0  0  0  0
  3  4  2  0  0  0  0
  4  9  1  0  0  0  0
  5  4  1  0  0  0  0
  5 10  1  0  0  0  0
  6  5  2  0  0  0  0
  7  1  1  0  0  0  0
  8  2  1  0  0  0  0
 12 11  3  0  0  0  0
 13 17  1  0  0  0  0
 13 15  1  0  0  0  0
 14 13  1  0  0  0  0
 18  6  1  0  0  0  0
M  END
