Coordinates from ORCA-job Ph-N2-BF4-B3LYPG-6-31G_dp-MTMO-d009-169-n800
 OpenBabel09051907443D

 18 16  0  0  0  0  0  0  0  0999 V2000
   -1.5624   -0.2307    0.9318 C   0  0  0  0  0  0  0  0  0  0  0  0
   -0.2107    0.0335    1.1635 C   0  0  0  0  0  0  0  0  0  0  0  0
    0.2777    1.2820    0.8048 C   0  0  0  0  0  0  0  0  0  0  0  0
   -0.5106    2.2687    0.2297 C   0  0  0  0  0  0  0  0  0  0  0  0
   -1.8598    1.9854    0.0074 C   0  0  0  0  0  0  0  0  0  0  0  0
   -2.3867    0.7394    0.3564 C   0  0  0  0  0  0  0  0  0  0  0  0
   -1.9684   -1.2003    1.2032 H   0  0  0  0  0  0  0  0  0  0  0  0
    0.4534   -0.7006    1.6042 H   0  0  0  0  0  0  0  0  0  0  0  0
   -0.0721    3.2254   -0.0314 H   0  0  0  0  0  0  0  0  0  0  0  0
   -2.4970    2.7422   -0.4399 H   0  0  0  0  0  0  0  0  0  0  0  0
    4.8923    2.3754   -2.3321 N   0  0  0  0  0  0  0  0  0  0  0  0
    5.3203    1.4070   -2.0154 N   0  0  0  0  0  0  0  0  0  0  0  0
    3.3777    0.0379    0.5839 B   0  0  0  0  0  0  0  0  0  0  0  0
    2.9786   -0.1172   -0.6655 F   0  0  0  0  0  0  0  0  0  0  0  0
    4.2704    0.9606    0.8866 F   0  0  0  0  0  0  0  0  0  0  0  0
    1.5973    1.5629    1.0305 F   0  0  0  0  0  0  0  0  0  0  0  0
    2.9762   -0.8203    1.5099 F   0  0  0  0  0  0  0  0  0  0  0  0
   -3.4357    0.5245    0.1785 H   0  0  0  0  0  0  0  0  0  0  0  0
  1  2  1  0  0  0  0
  1  7  1  0  0  0  0
  2  8  1  0  0  0  0
  3 16  1  0  0  0  0
  3  2  2  0  0  0  0
  4  3  1  0  0  0  0
  5  4  2  0  0  0  0
  5  6  1  0  0  0  0
  6  1  2  0  0  0  0
  9  4  1  0  0  0  0
 10  5  1  0  0  0  0
 11 12  3  0  0  0  0
 13 15  1  0  0  0  0
 13 17  1  0  0  0  0
 14 13  1  0  0  0  0
 18  6  1  0  0  0  0
M  END
