Coordinates from ORCA-job Ph-N2-BF4-B3LYPG-6-31G_dp-MTMO-d009-169-n800
 OpenBabel09051907443D

 18 16  0  0  0  0  0  0  0  0999 V2000
   -1.8224   -0.2929    0.4253 C   0  0  0  0  0  0  0  0  0  0  0  0
   -0.5063    0.1594    0.5428 C   0  0  0  0  0  0  0  0  0  0  0  0
   -0.3034    1.4574    0.9895 C   0  0  0  0  0  0  0  0  0  0  0  0
   -1.3411    2.3176    1.3194 C   0  0  0  0  0  0  0  0  0  0  0  0
   -2.6498    1.8459    1.1961 C   0  0  0  0  0  0  0  0  0  0  0  0
   -2.8921    0.5446    0.7501 C   0  0  0  0  0  0  0  0  0  0  0  0
   -2.0083   -1.3040    0.0765 H   0  0  0  0  0  0  0  0  0  0  0  0
    0.3431   -0.4653    0.2940 H   0  0  0  0  0  0  0  0  0  0  0  0
   -1.1201    3.3221    1.6626 H   0  0  0  0  0  0  0  0  0  0  0  0
   -3.4786    2.4998    1.4492 H   0  0  0  0  0  0  0  0  0  0  0  0
   10.1991   -1.3561   -1.5824 N   0  0  0  0  0  0  0  0  0  0  0  0
    9.2385   -0.8614   -1.8151 N   0  0  0  0  0  0  0  0  0  0  0  0
    2.7061    1.5354   -0.4971 B   0  0  0  0  0  0  0  0  0  0  0  0
    1.9728    2.0594   -1.4617 F   0  0  0  0  0  0  0  0  0  0  0  0
    3.5462    2.2888    0.1850 F   0  0  0  0  0  0  0  0  0  0  0  0
    0.9785    1.9166    1.1190 F   0  0  0  0  0  0  0  0  0  0  0  0
    2.6899    0.2245   -0.3024 F   0  0  0  0  0  0  0  0  0  0  0  0
   -3.9117    0.1843    0.6550 H   0  0  0  0  0  0  0  0  0  0  0  0
  1  2  2  0  0  0  0
  1  6  1  0  0  0  0
  2  3  1  0  0  0  0
  3 16  1  0  0  0  0
  3  4  2  0  0  0  0
  4  9  1  0  0  0  0
  5  4  1  0  0  0  0
  5 10  1  0  0  0  0
  6  5  2  0  0  0  0
  7  1  1  0  0  0  0
  8  2  1  0  0  0  0
 12 11  3  0  0  0  0
 13 17  1  0  0  0  0
 13 15  1  0  0  0  0
 14 13  1  0  0  0  0
 18  6  1  0  0  0  0
M  END
