Coordinates from ORCA-job Ph-N2-BF4-B3LYPG-6-31G_dp-MTMO-d009-169-n800
 OpenBabel09051907443D

 18 16  0  0  0  0  0  0  0  0999 V2000
   -1.5014   -0.3242    0.7506 C   0  0  0  0  0  0  0  0  0  0  0  0
   -0.1896    0.0156    1.0882 C   0  0  0  0  0  0  0  0  0  0  0  0
    0.1907    1.3443    0.9605 C   0  0  0  0  0  0  0  0  0  0  0  0
   -0.6669    2.3396    0.5142 C   0  0  0  0  0  0  0  0  0  0  0  0
   -1.9751    1.9799    0.1831 C   0  0  0  0  0  0  0  0  0  0  0  0
   -2.3934    0.6520    0.2999 C   0  0  0  0  0  0  0  0  0  0  0  0
   -1.8239   -1.3569    0.8416 H   0  0  0  0  0  0  0  0  0  0  0  0
    0.5264   -0.7195    1.4368 H   0  0  0  0  0  0  0  0  0  0  0  0
   -0.3116    3.3609    0.4327 H   0  0  0  0  0  0  0  0  0  0  0  0
   -2.6654    2.7410   -0.1675 H   0  0  0  0  0  0  0  0  0  0  0  0
    5.5080    1.5227   -2.6449 N   0  0  0  0  0  0  0  0  0  0  0  0
    5.4963    0.7345   -1.8707 N   0  0  0  0  0  0  0  0  0  0  0  0
    3.3248    0.4463    0.4724 B   0  0  0  0  0  0  0  0  0  0  0  0
    2.7962    0.4336   -0.7385 F   0  0  0  0  0  0  0  0  0  0  0  0
    4.1639    1.4020    0.8217 F   0  0  0  0  0  0  0  0  0  0  0  0
    1.4690    1.6965    1.2956 F   0  0  0  0  0  0  0  0  0  0  0  0
    3.1033   -0.5709    1.2913 F   0  0  0  0  0  0  0  0  0  0  0  0
   -3.4107    0.3785    0.0388 H   0  0  0  0  0  0  0  0  0  0  0  0
  1  7  1  0  0  0  0
  1  2  2  0  0  0  0
  2  8  1  0  0  0  0
  3  2  1  0  0  0  0
  3 16  1  0  0  0  0
  4  3  2  0  0  0  0
  5  6  2  0  0  0  0
  5  4  1  0  0  0  0
  6  1  1  0  0  0  0
  9  4  1  0  0  0  0
 10  5  1  0  0  0  0
 11 12  3  0  0  0  0
 13 15  1  0  0  0  0
 13 17  1  0  0  0  0
 14 13  1  0  0  0  0
 18  6  1  0  0  0  0
M  END
