Coordinates from ORCA-job Ph-N2-BF4-B3LYPG-6-31G_dp-MTMO-d009-169-n800
 OpenBabel09051907443D

 18 16  0  0  0  0  0  0  0  0999 V2000
   -2.1741   -0.2189    0.4983 C   0  0  0  0  0  0  0  0  0  0  0  0
   -0.8557    0.2345    0.5796 C   0  0  0  0  0  0  0  0  0  0  0  0
   -0.6400    1.5228    1.0482 C   0  0  0  0  0  0  0  0  0  0  0  0
   -1.6675    2.3724    1.4331 C   0  0  0  0  0  0  0  0  0  0  0  0
   -2.9787    1.8998    1.3450 C   0  0  0  0  0  0  0  0  0  0  0  0
   -3.2336    0.6079    0.8791 C   0  0  0  0  0  0  0  0  0  0  0  0
   -2.3699   -1.2227    0.1341 H   0  0  0  0  0  0  0  0  0  0  0  0
   -0.0142   -0.3817    0.2866 H   0  0  0  0  0  0  0  0  0  0  0  0
   -1.4367    3.3697    1.7905 H   0  0  0  0  0  0  0  0  0  0  0  0
   -3.7995    2.5456    1.6413 H   0  0  0  0  0  0  0  0  0  0  0  0
   13.0266   -2.0124   -2.0712 N   0  0  0  0  0  0  0  0  0  0  0  0
   12.0475   -1.5287   -2.2421 N   0  0  0  0  0  0  0  0  0  0  0  0
    2.3145    1.6719   -0.5451 B   0  0  0  0  0  0  0  0  0  0  0  0
    1.5610    2.2617   -1.4543 F   0  0  0  0  0  0  0  0  0  0  0  0
    3.1848    2.3731    0.1548 F   0  0  0  0  0  0  0  0  0  0  0  0
    0.6447    1.9824    1.1439 F   0  0  0  0  0  0  0  0  0  0  0  0
    2.2862    0.3520   -0.4281 F   0  0  0  0  0  0  0  0  0  0  0  0
   -4.2551    0.2466    0.8122 H   0  0  0  0  0  0  0  0  0  0  0  0
  1  2  2  0  0  0  0
  1  6  1  0  0  0  0
  2  3  1  0  0  0  0
  3 16  1  0  0  0  0
  3  4  2  0  0  0  0
  4  9  1  0  0  0  0
  5  4  1  0  0  0  0
  5 10  1  0  0  0  0
  6  5  2  0  0  0  0
  7  1  1  0  0  0  0
  8  2  1  0  0  0  0
 12 11  3  0  0  0  0
 13 17  1  0  0  0  0
 13 15  1  0  0  0  0
 14 13  1  0  0  0  0
 18  6  1  0  0  0  0
M  END
