Coordinates from ORCA-job Ph-N2-BF4-B3LYPG-6-31G_dp-MTMO-d009-169-n800
 OpenBabel09051907443D

 18 16  0  0  0  0  0  0  0  0999 V2000
   -1.3226   -0.0971    0.4127 C   0  0  0  0  0  0  0  0  0  0  0  0
    0.0267    0.0277    0.7508 C   0  0  0  0  0  0  0  0  0  0  0  0
    0.5865    1.2977    0.7347 C   0  0  0  0  0  0  0  0  0  0  0  0
   -0.1327    2.4370    0.4000 C   0  0  0  0  0  0  0  0  0  0  0  0
   -1.4804    2.2911    0.0659 C   0  0  0  0  0  0  0  0  0  0  0  0
   -2.0767    1.0278    0.0706 C   0  0  0  0  0  0  0  0  0  0  0  0
   -1.7831   -1.0806    0.4181 H   0  0  0  0  0  0  0  0  0  0  0  0
    0.6351   -0.8263    1.0218 H   0  0  0  0  0  0  0  0  0  0  0  0
    0.3587    3.4038    0.4047 H   0  0  0  0  0  0  0  0  0  0  0  0
   -2.0621    3.1685   -0.1998 H   0  0  0  0  0  0  0  0  0  0  0  0
    2.4364    1.3634   -2.0250 N   0  0  0  0  0  0  0  0  0  0  0  0
    2.4775    1.2732   -3.1257 N   0  0  0  0  0  0  0  0  0  0  0  0
    3.7784   -0.1225    1.2978 B   0  0  0  0  0  0  0  0  0  0  0  0
    4.1922    0.0562    0.0577 F   0  0  0  0  0  0  0  0  0  0  0  0
    4.2502    0.6302    2.2714 F   0  0  0  0  0  0  0  0  0  0  0  0
    1.9034    1.4452    1.0631 F   0  0  0  0  0  0  0  0  0  0  0  0
    2.9769   -1.1395    1.5801 F   0  0  0  0  0  0  0  0  0  0  0  0
   -3.1241    0.9203   -0.1928 H   0  0  0  0  0  0  0  0  0  0  0  0
  1  7  1  0  0  0  0
  1  2  2  0  0  0  0
  2  8  1  0  0  0  0
  3  2  1  0  0  0  0
  3 16  1  0  0  0  0
  4  9  1  0  0  0  0
  4  3  2  0  0  0  0
  5  6  2  0  0  0  0
  5  4  1  0  0  0  0
  6  1  1  0  0  0  0
 10  5  1  0  0  0  0
 12 11  3  0  0  0  0
 13 17  1  0  0  0  0
 13 15  1  0  0  0  0
 14 13  1  0  0  0  0
 18  6  1  0  0  0  0
M  END
