Coordinates from ORCA-job Ph-N2-BF4-B3LYPG-6-31G_dp-MTMO-d009-169-n800
 OpenBabel09051907443D

 18 16  0  0  0  0  0  0  0  0999 V2000
   -2.1589   -0.2209    0.4933 C   0  0  0  0  0  0  0  0  0  0  0  0
   -0.8396    0.2294    0.5764 C   0  0  0  0  0  0  0  0  0  0  0  0
   -0.6213    1.5175    1.0444 C   0  0  0  0  0  0  0  0  0  0  0  0
   -1.6473    2.3698    1.4272 C   0  0  0  0  0  0  0  0  0  0  0  0
   -2.9595    1.9004    1.3374 C   0  0  0  0  0  0  0  0  0  0  0  0
   -3.2170    0.6089    0.8720 C   0  0  0  0  0  0  0  0  0  0  0  0
   -2.3568   -1.2244    0.1296 H   0  0  0  0  0  0  0  0  0  0  0  0
    0.0011   -0.3889    0.2854 H   0  0  0  0  0  0  0  0  0  0  0  0
   -1.4148    3.3668    1.7842 H   0  0  0  0  0  0  0  0  0  0  0  0
   -3.7793    2.5484    1.6320 H   0  0  0  0  0  0  0  0  0  0  0  0
   12.8740   -1.9682   -2.0462 N   0  0  0  0  0  0  0  0  0  0  0  0
   11.8945   -1.4853   -2.2167 N   0  0  0  0  0  0  0  0  0  0  0  0
    2.3379    1.6570   -0.5416 B   0  0  0  0  0  0  0  0  0  0  0  0
    1.5836    2.2393   -1.4550 F   0  0  0  0  0  0  0  0  0  0  0  0
    3.2063    2.3646    0.1543 F   0  0  0  0  0  0  0  0  0  0  0  0
    0.6643    1.9738    1.1415 F   0  0  0  0  0  0  0  0  0  0  0  0
    2.3123    0.3378   -0.4160 F   0  0  0  0  0  0  0  0  0  0  0  0
   -4.2393    0.2501    0.8038 H   0  0  0  0  0  0  0  0  0  0  0  0
  1  2  2  0  0  0  0
  1  6  1  0  0  0  0
  2  3  1  0  0  0  0
  3 16  1  0  0  0  0
  3  4  2  0  0  0  0
  4  9  1  0  0  0  0
  5  4  1  0  0  0  0
  5 10  1  0  0  0  0
  6  5  2  0  0  0  0
  7  1  1  0  0  0  0
  8  2  1  0  0  0  0
 12 11  3  0  0  0  0
 13 17  1  0  0  0  0
 13 15  1  0  0  0  0
 14 13  1  0  0  0  0
 18  6  1  0  0  0  0
M  END
