Coordinates from ORCA-job Ph-N2-BF4-B3LYPG-6-31G_dp-MTMO-d009-169-n800
 OpenBabel09051907443D

 18 16  0  0  0  0  0  0  0  0999 V2000
   -1.5271   -0.0814    1.0297 C   0  0  0  0  0  0  0  0  0  0  0  0
   -0.1579    0.0867    1.2478 C   0  0  0  0  0  0  0  0  0  0  0  0
    0.4505    1.2155    0.7171 C   0  0  0  0  0  0  0  0  0  0  0  0
   -0.2348    2.1733   -0.0166 C   0  0  0  0  0  0  0  0  0  0  0  0
   -1.6033    1.9873   -0.2226 C   0  0  0  0  0  0  0  0  0  0  0  0
   -2.2501    0.8638    0.2979 C   0  0  0  0  0  0  0  0  0  0  0  0
   -2.0264   -0.9570    1.4333 H   0  0  0  0  0  0  0  0  0  0  0  0
    0.4315   -0.6320    1.8047 H   0  0  0  0  0  0  0  0  0  0  0  0
    0.2972    3.0325   -0.4095 H   0  0  0  0  0  0  0  0  0  0  0  0
   -2.1620    2.7236   -0.7929 H   0  0  0  0  0  0  0  0  0  0  0  0
    3.6467    2.4336   -1.5143 N   0  0  0  0  0  0  0  0  0  0  0  0
    4.4686    2.4416   -2.2530 N   0  0  0  0  0  0  0  0  0  0  0  0
    3.4364   -0.3089    0.6592 B   0  0  0  0  0  0  0  0  0  0  0  0
    3.0730   -0.5248   -0.5918 F   0  0  0  0  0  0  0  0  0  0  0  0
    4.4049    0.5448    0.9305 F   0  0  0  0  0  0  0  0  0  0  0  0
    1.7893    1.4013    0.9263 F   0  0  0  0  0  0  0  0  0  0  0  0
    2.9175   -1.0478    1.6287 F   0  0  0  0  0  0  0  0  0  0  0  0
   -3.3136    0.7238    0.1312 H   0  0  0  0  0  0  0  0  0  0  0  0
  1  2  1  0  0  0  0
  1  7  1  0  0  0  0
  2  8  1  0  0  0  0
  3 16  1  0  0  0  0
  3  2  2  0  0  0  0
  4  3  1  0  0  0  0
  5  4  2  0  0  0  0
  5  6  1  0  0  0  0
  6  1  2  0  0  0  0
  9  4  1  0  0  0  0
 10  5  1  0  0  0  0
 12 11  3  0  0  0  0
 13 15  1  0  0  0  0
 13 17  1  0  0  0  0
 14 13  1  0  0  0  0
 18  6  1  0  0  0  0
M  END
