Coordinates from ORCA-job Ph-N2-BF4-B3LYPG-6-31G_dp-MTMO-d009-169-n800
 OpenBabel09051907443D

 18 16  0  0  0  0  0  0  0  0999 V2000
   -1.8670   -0.2838    0.4332 C   0  0  0  0  0  0  0  0  0  0  0  0
   -0.5509    0.1698    0.5443 C   0  0  0  0  0  0  0  0  0  0  0  0
   -0.3465    1.4662    0.9953 C   0  0  0  0  0  0  0  0  0  0  0  0
   -1.3834    2.3235    1.3354 C   0  0  0  0  0  0  0  0  0  0  0  0
   -2.6922    1.8506    1.2185 C   0  0  0  0  0  0  0  0  0  0  0  0
   -2.9357    0.5509    0.7686 C   0  0  0  0  0  0  0  0  0  0  0  0
   -2.0540   -1.2937    0.0815 H   0  0  0  0  0  0  0  0  0  0  0  0
    0.2980   -0.4524    0.2874 H   0  0  0  0  0  0  0  0  0  0  0  0
   -1.1616    3.3268    1.6815 H   0  0  0  0  0  0  0  0  0  0  0  0
   -3.5203    2.5023    1.4798 H   0  0  0  0  0  0  0  0  0  0  0  0
   10.5606   -1.4430   -1.6463 N   0  0  0  0  0  0  0  0  0  0  0  0
    9.5928   -0.9543   -1.8614 N   0  0  0  0  0  0  0  0  0  0  0  0
    2.6576    1.5575   -0.5051 B   0  0  0  0  0  0  0  0  0  0  0  0
    1.9190    2.0850   -1.4637 F   0  0  0  0  0  0  0  0  0  0  0  0
    3.4988    2.3092    0.1776 F   0  0  0  0  0  0  0  0  0  0  0  0
    0.9355    1.9263    1.1182 F   0  0  0  0  0  0  0  0  0  0  0  0
    2.6454    0.2455   -0.3175 F   0  0  0  0  0  0  0  0  0  0  0  0
   -3.9555    0.1897    0.6786 H   0  0  0  0  0  0  0  0  0  0  0  0
  1  2  2  0  0  0  0
  1  6  1  0  0  0  0
  2  3  1  0  0  0  0
  3 16  1  0  0  0  0
  3  4  2  0  0  0  0
  4  9  1  0  0  0  0
  5  4  1  0  0  0  0
  5 10  1  0  0  0  0
  6  5  2  0  0  0  0
  7  1  1  0  0  0  0
  8  2  1  0  0  0  0
 12 11  3  0  0  0  0
 13 17  1  0  0  0  0
 13 15  1  0  0  0  0
 14 13  1  0  0  0  0
 18  6  1  0  0  0  0
M  END
