Coordinates from ORCA-job Ph-N2-BF4-B3LYPG-6-31G_dp-MTMO-d009-169-n800
 OpenBabel09051907443D

 18 16  0  0  0  0  0  0  0  0999 V2000
   -1.4786   -0.0952    0.8999 C   0  0  0  0  0  0  0  0  0  0  0  0
   -0.1221    0.0605    1.1932 C   0  0  0  0  0  0  0  0  0  0  0  0
    0.5052    1.2238    0.7696 C   0  0  0  0  0  0  0  0  0  0  0  0
   -0.1505    2.2281    0.0715 C   0  0  0  0  0  0  0  0  0  0  0  0
   -1.5067    2.0536   -0.2111 C   0  0  0  0  0  0  0  0  0  0  0  0
   -2.1715    0.8959    0.2007 C   0  0  0  0  0  0  0  0  0  0  0  0
   -1.9916   -0.9971    1.2200 H   0  0  0  0  0  0  0  0  0  0  0  0
    0.4436   -0.6929    1.7284 H   0  0  0  0  0  0  0  0  0  0  0  0
    0.3948    3.1127   -0.2374 H   0  0  0  0  0  0  0  0  0  0  0  0
   -2.0419    2.8260   -0.7555 H   0  0  0  0  0  0  0  0  0  0  0  0
    3.1798    2.3520   -1.6570 N   0  0  0  0  0  0  0  0  0  0  0  0
    3.8616    2.2591   -2.5218 N   0  0  0  0  0  0  0  0  0  0  0  0
    3.5067   -0.3029    0.8215 B   0  0  0  0  0  0  0  0  0  0  0  0
    3.2395   -0.4529   -0.4634 F   0  0  0  0  0  0  0  0  0  0  0  0
    4.4504    0.5322    1.2099 F   0  0  0  0  0  0  0  0  0  0  0  0
    1.8316    1.3969    1.0542 F   0  0  0  0  0  0  0  0  0  0  0  0
    2.9152   -1.0893    1.7084 F   0  0  0  0  0  0  0  0  0  0  0  0
   -3.2252    0.7655   -0.0252 H   0  0  0  0  0  0  0  0  0  0  0  0
  1  2  1  0  0  0  0
  1  7  1  0  0  0  0
  2  8  1  0  0  0  0
  3 16  1  0  0  0  0
  3  2  2  0  0  0  0
  4  3  1  0  0  0  0
  5  4  2  0  0  0  0
  5  6  1  0  0  0  0
  6  1  2  0  0  0  0
  9  4  1  0  0  0  0
 10  5  1  0  0  0  0
 12 11  3  0  0  0  0
 13 15  1  0  0  0  0
 13 17  1  0  0  0  0
 14 13  1  0  0  0  0
 18  6  1  0  0  0  0
M  END
