Coordinates from ORCA-job Ph-N2-BF4-B3LYPG-6-31G_dp-MTMO-d009-169-n800
 OpenBabel09051907443D

 18 16  0  0  0  0  0  0  0  0999 V2000
   -2.3186   -0.1932    0.5337 C   0  0  0  0  0  0  0  0  0  0  0  0
   -1.0014    0.2678    0.5903 C   0  0  0  0  0  0  0  0  0  0  0  0
   -0.7835    1.5537    1.0642 C   0  0  0  0  0  0  0  0  0  0  0  0
   -1.8076    2.3942    1.4772 C   0  0  0  0  0  0  0  0  0  0  0  0
   -3.1176    1.9143    1.4133 C   0  0  0  0  0  0  0  0  0  0  0  0
   -3.3746    0.6243    0.9433 C   0  0  0  0  0  0  0  0  0  0  0  0
   -2.5161   -1.1954    0.1665 H   0  0  0  0  0  0  0  0  0  0  0  0
   -0.1627   -0.3409    0.2745 H   0  0  0  0  0  0  0  0  0  0  0  0
   -1.5753    3.3902    1.8370 H   0  0  0  0  0  0  0  0  0  0  0  0
   -3.9358    2.5529    1.7316 H   0  0  0  0  0  0  0  0  0  0  0  0
   14.1961   -2.2967   -2.2545 N   0  0  0  0  0  0  0  0  0  0  0  0
   13.2160   -1.8158   -2.4272 N   0  0  0  0  0  0  0  0  0  0  0  0
    2.1572    1.7425   -0.5708 B   0  0  0  0  0  0  0  0  0  0  0  0
    1.4138    2.3820   -1.4544 F   0  0  0  0  0  0  0  0  0  0  0  0
    3.0405    2.3991    0.1555 F   0  0  0  0  0  0  0  0  0  0  0  0
    0.5001    2.0203    1.1368 F   0  0  0  0  0  0  0  0  0  0  0  0
    2.1051    0.4196   -0.5070 F   0  0  0  0  0  0  0  0  0  0  0  0
   -4.3952    0.2571    0.8958 H   0  0  0  0  0  0  0  0  0  0  0  0
  1  2  2  0  0  0  0
  1  6  1  0  0  0  0
  2  3  1  0  0  0  0
  3 16  1  0  0  0  0
  3  4  2  0  0  0  0
  4  9  1  0  0  0  0
  5  4  1  0  0  0  0
  5 10  1  0  0  0  0
  6  5  2  0  0  0  0
  7  1  1  0  0  0  0
  8  2  1  0  0  0  0
 12 11  3  0  0  0  0
 13 17  1  0  0  0  0
 13 15  1  0  0  0  0
 14 13  1  0  0  0  0
 18  6  1  0  0  0  0
M  END
