Coordinates from ORCA-job Ph-N2-BF4-B3LYPG-6-31G_dp-MTMO-d009-169-n800
 OpenBabel09051907443D

 18 16  0  0  0  0  0  0  0  0999 V2000
   -2.1004   -0.2316    0.4791 C   0  0  0  0  0  0  0  0  0  0  0  0
   -0.7807    0.2166    0.5683 C   0  0  0  0  0  0  0  0  0  0  0  0
   -0.5627    1.5053    1.0349 C   0  0  0  0  0  0  0  0  0  0  0  0
   -1.5893    2.3600    1.4106 C   0  0  0  0  0  0  0  0  0  0  0  0
   -2.9018    1.8927    1.3149 C   0  0  0  0  0  0  0  0  0  0  0  0
   -3.1590    0.6007    0.8506 C   0  0  0  0  0  0  0  0  0  0  0  0
   -2.2981   -1.2355    0.1163 H   0  0  0  0  0  0  0  0  0  0  0  0
    0.0604   -0.4038    0.2831 H   0  0  0  0  0  0  0  0  0  0  0  0
   -1.3569    3.3574    1.7670 H   0  0  0  0  0  0  0  0  0  0  0  0
   -3.7220    2.5426    1.6039 H   0  0  0  0  0  0  0  0  0  0  0  0
   12.3938   -1.8527   -1.9621 N   0  0  0  0  0  0  0  0  0  0  0  0
   11.4154   -1.3687   -2.1356 N   0  0  0  0  0  0  0  0  0  0  0  0
    2.4029    1.6300   -0.5372 B   0  0  0  0  0  0  0  0  0  0  0  0
    1.6482    2.1977   -1.4596 F   0  0  0  0  0  0  0  0  0  0  0  0
    3.2670    2.3496    0.1515 F   0  0  0  0  0  0  0  0  0  0  0  0
    0.7232    1.9597    1.1376 F   0  0  0  0  0  0  0  0  0  0  0  0
    2.3819    0.3124   -0.3950 F   0  0  0  0  0  0  0  0  0  0  0  0
   -4.1816    0.2436    0.7775 H   0  0  0  0  0  0  0  0  0  0  0  0
  1  2  2  0  0  0  0
  1  6  1  0  0  0  0
  2  3  1  0  0  0  0
  3 16  1  0  0  0  0
  3  4  2  0  0  0  0
  4  9  1  0  0  0  0
  5  4  1  0  0  0  0
  5 10  1  0  0  0  0
  6  5  2  0  0  0  0
  7  1  1  0  0  0  0
  8  2  1  0  0  0  0
 12 11  3  0  0  0  0
 13 17  1  0  0  0  0
 13 15  1  0  0  0  0
 14 13  1  0  0  0  0
 18  6  1  0  0  0  0
M  END
