Coordinates from ORCA-job Ph-N2-BF4-B3LYPG-6-31G_dp-MTMO-d009-169-n800
 OpenBabel09051907443D

 18 17  0  0  0  0  0  0  0  0999 V2000
   -1.1954    0.1397    0.8235 C   0  0  0  0  0  0  0  0  0  0  0  0
    0.1469    0.2100    0.4482 C   0  0  0  0  0  0  0  0  0  0  0  0
    0.4873    1.3325   -0.2907 C   0  0  0  0  0  0  0  0  0  0  0  0
   -0.3509    2.3701   -0.6855 C   0  0  0  0  0  0  0  0  0  0  0  0
   -1.6789    2.2597   -0.2787 C   0  0  0  0  0  0  0  0  0  0  0  0
   -2.0937    1.1514    0.4696 C   0  0  0  0  0  0  0  0  0  0  0  0
   -1.5336   -0.7118    1.4042 H   0  0  0  0  0  0  0  0  0  0  0  0
    0.9033   -0.5316    0.6900 H   0  0  0  0  0  0  0  0  0  0  0  0
    0.0096    3.2122   -1.2637 H   0  0  0  0  0  0  0  0  0  0  0  0
   -2.3846    3.0383   -0.5475 H   0  0  0  0  0  0  0  0  0  0  0  0
    1.9454    1.4545   -0.7736 N   0  0  0  0  0  0  0  0  0  0  0  0
    2.9413    1.6154   -1.2339 N   0  0  0  0  0  0  0  0  0  0  0  0
    3.5454   -0.1254    1.1225 B   0  0  0  0  0  0  0  0  0  0  0  0
    4.4655    0.4386    0.2117 F   0  0  0  0  0  0  0  0  0  0  0  0
    4.1609   -0.7326    2.1832 F   0  0  0  0  0  0  0  0  0  0  0  0
    2.6745    0.9212    1.5530 F   0  0  0  0  0  0  0  0  0  0  0  0
    2.7284   -1.0446    0.3924 F   0  0  0  0  0  0  0  0  0  0  0  0
   -3.1309    1.0784    0.7811 H   0  0  0  0  0  0  0  0  0  0  0  0
  1  7  1  0  0  0  0
  2  8  1  0  0  0  0
  2  1  2  0  0  0  0
  3  2  1  0  0  0  0
  4  3  2  0  0  0  0
  4  5  1  0  0  0  0
  5  6  2  0  0  0  0
  6 18  1  0  0  0  0
  6  1  1  0  0  0  0
  9  4  1  0  0  0  0
 10  5  1  0  0  0  0
 11  3  1  0  0  0  0
 12 11  1  0  0  0  0
 13 16  1  0  0  0  0
 13 15  1  0  0  0  0
 14 13  1  0  0  0  0
 17 13  1  0  0  0  0
M  RAD  2  11   2  12   3
M  END
