Coordinates from ORCA-job Ph-N2-BF4-B3LYPG-6-31G_dp-MTMO-d009-169-n800
 OpenBabel09051907443D

 18 16  0  0  0  0  0  0  0  0999 V2000
   -1.5503   -0.3314    0.4969 C   0  0  0  0  0  0  0  0  0  0  0  0
   -0.2246    0.1029    0.5606 C   0  0  0  0  0  0  0  0  0  0  0  0
    0.0084    1.4562    0.7650 C   0  0  0  0  0  0  0  0  0  0  0  0
   -1.0117    2.3870    0.9057 C   0  0  0  0  0  0  0  0  0  0  0  0
   -2.3307    1.9326    0.8394 C   0  0  0  0  0  0  0  0  0  0  0  0
   -2.6018    0.5776    0.6355 C   0  0  0  0  0  0  0  0  0  0  0  0
   -1.7585   -1.3850    0.3360 H   0  0  0  0  0  0  0  0  0  0  0  0
    0.6125   -0.5768    0.4533 H   0  0  0  0  0  0  0  0  0  0  0  0
   -0.7692    3.4322    1.0642 H   0  0  0  0  0  0  0  0  0  0  0  0
   -3.1456    2.6420    0.9476 H   0  0  0  0  0  0  0  0  0  0  0  0
    7.0276   -0.2035   -1.5278 N   0  0  0  0  0  0  0  0  0  0  0  0
    6.0102    0.0583   -1.1862 N   0  0  0  0  0  0  0  0  0  0  0  0
    3.4120    0.9734   -0.1687 B   0  0  0  0  0  0  0  0  0  0  0  0
    3.1422    1.5240   -1.3364 F   0  0  0  0  0  0  0  0  0  0  0  0
    4.1029    1.6363    0.7372 F   0  0  0  0  0  0  0  0  0  0  0  0
    1.2977    1.8982    0.8338 F   0  0  0  0  0  0  0  0  0  0  0  0
    3.0486   -0.2790    0.0655 F   0  0  0  0  0  0  0  0  0  0  0  0
   -3.6293    0.2311    0.5842 H   0  0  0  0  0  0  0  0  0  0  0  0
  1  2  2  0  0  0  0
  1  6  1  0  0  0  0
  2  3  1  0  0  0  0
  3 16  1  0  0  0  0
  3  4  2  0  0  0  0
  4  9  1  0  0  0  0
  5  4  1  0  0  0  0
  5 10  1  0  0  0  0
  6  5  2  0  0  0  0
  7  1  1  0  0  0  0
  8  2  1  0  0  0  0
 11 12  3  0  0  0  0
 13 17  1  0  0  0  0
 13 15  1  0  0  0  0
 14 13  1  0  0  0  0
 18  6  1  0  0  0  0
M  END
