Coordinates from ORCA-job Ph-N2-BF4-B3LYPG-6-31G_dp-MTMO-d009-169-n800
 OpenBabel09051907443D

 18 16  0  0  0  0  0  0  0  0999 V2000
   -1.5707   -0.1642    0.9959 C   0  0  0  0  0  0  0  0  0  0  0  0
   -0.2084    0.0539    1.2128 C   0  0  0  0  0  0  0  0  0  0  0  0
    0.3389    1.2460    0.7597 C   0  0  0  0  0  0  0  0  0  0  0  0
   -0.4016    2.2201    0.1049 C   0  0  0  0  0  0  0  0  0  0  0  0
   -1.7622    1.9834   -0.1013 C   0  0  0  0  0  0  0  0  0  0  0  0
   -2.3477    0.7949    0.3418 C   0  0  0  0  0  0  0  0  0  0  0  0
   -2.0222   -1.0897    1.3400 H   0  0  0  0  0  0  0  0  0  0  0  0
    0.4207   -0.6737    1.7118 H   0  0  0  0  0  0  0  0  0  0  0  0
    0.0822    3.1314   -0.2286 H   0  0  0  0  0  0  0  0  0  0  0  0
   -2.3627    2.7314   -0.6102 H   0  0  0  0  0  0  0  0  0  0  0  0
    4.2904    2.3267   -1.8271 N   0  0  0  0  0  0  0  0  0  0  0  0
    5.2196    2.0349   -2.3491 N   0  0  0  0  0  0  0  0  0  0  0  0
    3.4018   -0.1297    0.6314 B   0  0  0  0  0  0  0  0  0  0  0  0
    3.0470   -0.3213   -0.6260 F   0  0  0  0  0  0  0  0  0  0  0  0
    4.3312    0.7575    0.9301 F   0  0  0  0  0  0  0  0  0  0  0  0
    1.6699    1.4821    0.9681 F   0  0  0  0  0  0  0  0  0  0  0  0
    2.9197   -0.9236    1.5761 F   0  0  0  0  0  0  0  0  0  0  0  0
   -3.4053    0.6158    0.1757 H   0  0  0  0  0  0  0  0  0  0  0  0
  1  2  1  0  0  0  0
  1  7  1  0  0  0  0
  2  8  1  0  0  0  0
  3 16  1  0  0  0  0
  3  2  2  0  0  0  0
  4  3  1  0  0  0  0
  5  4  2  0  0  0  0
  5  6  1  0  0  0  0
  6  1  2  0  0  0  0
  9  4  1  0  0  0  0
 10  5  1  0  0  0  0
 12 11  3  0  0  0  0
 13 15  1  0  0  0  0
 13 17  1  0  0  0  0
 14 13  1  0  0  0  0
 18  6  1  0  0  0  0
M  END
