Coordinates from ORCA-job Ph-N2-BF4-B3LYPG-6-31G_dp-MTMO-d009-169-n800
 OpenBabel09051907443D

 18 16  0  0  0  0  0  0  0  0999 V2000
   -1.7607   -0.3086    0.5757 C   0  0  0  0  0  0  0  0  0  0  0  0
   -0.4330    0.1168    0.4913 C   0  0  0  0  0  0  0  0  0  0  0  0
   -0.1734    1.4717    0.6450 C   0  0  0  0  0  0  0  0  0  0  0  0
   -1.1679    2.4122    0.8760 C   0  0  0  0  0  0  0  0  0  0  0  0
   -2.4889    1.9665    0.9571 C   0  0  0  0  0  0  0  0  0  0  0  0
   -2.7870    0.6099    0.8074 C   0  0  0  0  0  0  0  0  0  0  0  0
   -1.9899   -1.3635    0.4573 H   0  0  0  0  0  0  0  0  0  0  0  0
    0.3837   -0.5717    0.3107 H   0  0  0  0  0  0  0  0  0  0  0  0
   -0.9043    3.4581    0.9892 H   0  0  0  0  0  0  0  0  0  0  0  0
   -3.2839    2.6836    1.1377 H   0  0  0  0  0  0  0  0  0  0  0  0
    8.4591   -0.1035   -1.6502 N   0  0  0  0  0  0  0  0  0  0  0  0
    7.4005    0.0005   -1.3496 N   0  0  0  0  0  0  0  0  0  0  0  0
    3.2493    0.8950   -0.1630 B   0  0  0  0  0  0  0  0  0  0  0  0
    3.2052    1.5472   -1.3080 F   0  0  0  0  0  0  0  0  0  0  0  0
    3.8494    1.4252    0.8839 F   0  0  0  0  0  0  0  0  0  0  0  0
    1.1178    1.9101    0.5679 F   0  0  0  0  0  0  0  0  0  0  0  0
    2.7805   -0.3430   -0.0947 F   0  0  0  0  0  0  0  0  0  0  0  0
   -3.8159    0.2697    0.8722 H   0  0  0  0  0  0  0  0  0  0  0  0
  1  6  1  0  0  0  0
  2  1  2  0  0  0  0
  2  3  1  0  0  0  0
  3  4  2  0  0  0  0
  4  5  1  0  0  0  0
  4  9  1  0  0  0  0
  5 10  1  0  0  0  0
  6 18  1  0  0  0  0
  6  5  2  0  0  0  0
  7  1  1  0  0  0  0
  8  2  1  0  0  0  0
 11 12  3  0  0  0  0
 13 17  1  0  0  0  0
 13 15  1  0  0  0  0
 14 13  1  0  0  0  0
 16  3  1  0  0  0  0
M  END
