Coordinates from ORCA-job Ph-N2-BF4-B3LYPG-6-31G_dp-MTMO-d009-169-n800
 OpenBabel09051907443D

 18 16  0  0  0  0  0  0  0  0999 V2000
   -1.5660   -0.1507    1.0060 C   0  0  0  0  0  0  0  0  0  0  0  0
   -0.2010    0.0589    1.2145 C   0  0  0  0  0  0  0  0  0  0  0  0
    0.3541    1.2402    0.7430 C   0  0  0  0  0  0  0  0  0  0  0  0
   -0.3807    2.2117    0.0780 C   0  0  0  0  0  0  0  0  0  0  0  0
   -1.7441    1.9835   -0.1194 C   0  0  0  0  0  0  0  0  0  0  0  0
   -2.3376    0.8060    0.3421 C   0  0  0  0  0  0  0  0  0  0  0  0
   -2.0239   -1.0676    1.3643 H   0  0  0  0  0  0  0  0  0  0  0  0
    0.4241   -0.6671    1.7205 H   0  0  0  0  0  0  0  0  0  0  0  0
    0.1095    3.1142   -0.2697 H   0  0  0  0  0  0  0  0  0  0  0  0
   -2.3405    2.7295   -0.6361 H   0  0  0  0  0  0  0  0  0  0  0  0
    4.1920    2.3521   -1.7784 N   0  0  0  0  0  0  0  0  0  0  0  0
    5.1173    2.0872   -2.3215 N   0  0  0  0  0  0  0  0  0  0  0  0
    3.4138   -0.1563    0.6375 B   0  0  0  0  0  0  0  0  0  0  0  0
    3.0794   -0.3421   -0.6264 F   0  0  0  0  0  0  0  0  0  0  0  0
    4.3398    0.7277    0.9552 F   0  0  0  0  0  0  0  0  0  0  0  0
    1.6877    1.4680    0.9429 F   0  0  0  0  0  0  0  0  0  0  0  0
    2.9140   -0.9528    1.5708 F   0  0  0  0  0  0  0  0  0  0  0  0
   -3.3974    0.6337    0.1826 H   0  0  0  0  0  0  0  0  0  0  0  0
  1  2  1  0  0  0  0
  1  7  1  0  0  0  0
  2  8  1  0  0  0  0
  3 16  1  0  0  0  0
  3  2  2  0  0  0  0
  4  3  1  0  0  0  0
  5  4  2  0  0  0  0
  5  6  1  0  0  0  0
  6  1  2  0  0  0  0
  9  4  1  0  0  0  0
 10  5  1  0  0  0  0
 12 11  3  0  0  0  0
 13 15  1  0  0  0  0
 13 17  1  0  0  0  0
 14 13  1  0  0  0  0
 18  6  1  0  0  0  0
M  END
