Coordinates from ORCA-job Ph-N2-BF4-B3LYPG-6-31G_dp-MTMO-d009-169-n800
 OpenBabel09051907443D

 18 16  0  0  0  0  0  0  0  0999 V2000
   -1.5421   -0.0798    1.0592 C   0  0  0  0  0  0  0  0  0  0  0  0
   -0.1699    0.0906    1.2557 C   0  0  0  0  0  0  0  0  0  0  0  0
    0.4309    1.2129    0.7032 C   0  0  0  0  0  0  0  0  0  0  0  0
   -0.2651    2.1621   -0.0317 C   0  0  0  0  0  0  0  0  0  0  0  0
   -1.6363    1.9740   -0.2161 C   0  0  0  0  0  0  0  0  0  0  0  0
   -2.2756    0.8567    0.3268 C   0  0  0  0  0  0  0  0  0  0  0  0
   -2.0356   -0.9506    1.4800 H   0  0  0  0  0  0  0  0  0  0  0  0
    0.4272   -0.6220    1.8122 H   0  0  0  0  0  0  0  0  0  0  0  0
    0.2611    3.0170   -0.4417 H   0  0  0  0  0  0  0  0  0  0  0  0
   -2.2032    2.7036   -0.7869 H   0  0  0  0  0  0  0  0  0  0  0  0
    3.7795    2.4518   -1.5164 N   0  0  0  0  0  0  0  0  0  0  0  0
    4.6303    2.4521   -2.2217 N   0  0  0  0  0  0  0  0  0  0  0  0
    3.4301   -0.3019    0.6312 B   0  0  0  0  0  0  0  0  0  0  0  0
    3.0897   -0.5020   -0.6287 F   0  0  0  0  0  0  0  0  0  0  0  0
    4.3934    0.5482    0.9310 F   0  0  0  0  0  0  0  0  0  0  0  0
    1.7727    1.4017    0.8908 F   0  0  0  0  0  0  0  0  0  0  0  0
    2.8948   -1.0533    1.5821 F   0  0  0  0  0  0  0  0  0  0  0  0
   -3.3415    0.7149    0.1769 H   0  0  0  0  0  0  0  0  0  0  0  0
  1  2  1  0  0  0  0
  1  7  1  0  0  0  0
  2  8  1  0  0  0  0
  3 16  1  0  0  0  0
  3  2  2  0  0  0  0
  4  3  1  0  0  0  0
  5  4  2  0  0  0  0
  5  6  1  0  0  0  0
  6  1  2  0  0  0  0
  9  4  1  0  0  0  0
 10  5  1  0  0  0  0
 12 11  3  0  0  0  0
 13 15  1  0  0  0  0
 13 17  1  0  0  0  0
 14 13  1  0  0  0  0
 18  6  1  0  0  0  0
M  END
