Coordinates from ORCA-job Ph-N2-BF4-B3LYPG-6-31G_dp-MTMO-d009-169-n800
 OpenBabel09051907443D

 18 16  0  0  0  0  0  0  0  0999 V2000
   -1.4457   -0.1091    0.7340 C   0  0  0  0  0  0  0  0  0  0  0  0
   -0.0852    0.0189    1.0224 C   0  0  0  0  0  0  0  0  0  0  0  0
    0.5294    1.2294    0.7339 C   0  0  0  0  0  0  0  0  0  0  0  0
   -0.1444    2.3070    0.1756 C   0  0  0  0  0  0  0  0  0  0  0  0
   -1.5042    2.1591   -0.1044 C   0  0  0  0  0  0  0  0  0  0  0  0
   -2.1558    0.9547    0.1725 C   0  0  0  0  0  0  0  0  0  0  0  0
   -1.9490   -1.0466    0.9507 H   0  0  0  0  0  0  0  0  0  0  0  0
    0.4914   -0.7892    1.4560 H   0  0  0  0  0  0  0  0  0  0  0  0
    0.3901    3.2276   -0.0297 H   0  0  0  0  0  0  0  0  0  0  0  0
   -2.0521    2.9888   -0.5408 H   0  0  0  0  0  0  0  0  0  0  0  0
    2.8887    2.0282   -1.8976 N   0  0  0  0  0  0  0  0  0  0  0  0
    3.3649    2.0341   -2.8948 N   0  0  0  0  0  0  0  0  0  0  0  0
    3.6449   -0.2640    1.0646 B   0  0  0  0  0  0  0  0  0  0  0  0
    3.7123   -0.3315   -0.2523 F   0  0  0  0  0  0  0  0  0  0  0  0
    4.4006    0.5890    1.7267 F   0  0  0  0  0  0  0  0  0  0  0  0
    1.8591    1.3781    1.0124 F   0  0  0  0  0  0  0  0  0  0  0  0
    2.9079   -1.1437    1.7270 F   0  0  0  0  0  0  0  0  0  0  0  0
   -3.2125    0.8451   -0.0503 H   0  0  0  0  0  0  0  0  0  0  0  0
  1  7  1  0  0  0  0
  1  2  2  0  0  0  0
  2  8  1  0  0  0  0
  3 16  1  0  0  0  0
  3  2  1  0  0  0  0
  4  3  2  0  0  0  0
  5  6  2  0  0  0  0
  5  4  1  0  0  0  0
  6  1  1  0  0  0  0
  9  4  1  0  0  0  0
 10  5  1  0  0  0  0
 12 11  3  0  0  0  0
 13 15  1  0  0  0  0
 13 17  1  0  0  0  0
 14 13  1  0  0  0  0
 18  6  1  0  0  0  0
M  END
