Coordinates from ORCA-job Ph-N2-BF4-B3LYPG-6-31G_dp-MTMO-d009-169-n800
 OpenBabel09051907443D

 18 16  0  0  0  0  0  0  0  0999 V2000
   -1.5171   -0.3032    0.7962 C   0  0  0  0  0  0  0  0  0  0  0  0
   -0.1966    0.0186    1.1169 C   0  0  0  0  0  0  0  0  0  0  0  0
    0.2167    1.3301    0.9285 C   0  0  0  0  0  0  0  0  0  0  0  0
   -0.6164    2.3253    0.4379 C   0  0  0  0  0  0  0  0  0  0  0  0
   -1.9338    1.9838    0.1245 C   0  0  0  0  0  0  0  0  0  0  0  0
   -2.3852    0.6736    0.3022 C   0  0  0  0  0  0  0  0  0  0  0  0
   -1.8652   -1.3222    0.9348 H   0  0  0  0  0  0  0  0  0  0  0  0
    0.5015   -0.7173    1.4982 H   0  0  0  0  0  0  0  0  0  0  0  0
   -0.2358    3.3325    0.3094 H   0  0  0  0  0  0  0  0  0  0  0  0
   -2.6054    2.7454   -0.2598 H   0  0  0  0  0  0  0  0  0  0  0  0
    5.2978    1.7879   -2.6062 N   0  0  0  0  0  0  0  0  0  0  0  0
    5.4462    0.9199   -1.9388 N   0  0  0  0  0  0  0  0  0  0  0  0
    3.3374    0.3256    0.5247 B   0  0  0  0  0  0  0  0  0  0  0  0
    2.8397    0.2768   -0.6984 F   0  0  0  0  0  0  0  0  0  0  0  0
    4.1945    1.2713    0.8571 F   0  0  0  0  0  0  0  0  0  0  0  0
    1.5041    1.6649    1.2468 F   0  0  0  0  0  0  0  0  0  0  0  0
    3.0677   -0.6515    1.3773 F   0  0  0  0  0  0  0  0  0  0  0  0
   -3.4096    0.4143    0.0547 H   0  0  0  0  0  0  0  0  0  0  0  0
  1  7  1  0  0  0  0
  1  2  2  0  0  0  0
  2  8  1  0  0  0  0
  3  2  1  0  0  0  0
  3 16  1  0  0  0  0
  4  3  2  0  0  0  0
  5  6  2  0  0  0  0
  5  4  1  0  0  0  0
  6  1  1  0  0  0  0
  9  4  1  0  0  0  0
 10  5  1  0  0  0  0
 11 12  3  0  0  0  0
 13 15  1  0  0  0  0
 13 17  1  0  0  0  0
 14 13  1  0  0  0  0
 18  6  1  0  0  0  0
M  END
