Coordinates from ORCA-job Ph-N2-BF4-B3LYPG-6-31G_dp-MTMO-d009-169-n800
 OpenBabel09051907443D

 18 16  0  0  0  0  0  0  0  0999 V2000
   -2.2626   -0.2054    0.5216 C   0  0  0  0  0  0  0  0  0  0  0  0
   -0.9448    0.2532    0.5821 C   0  0  0  0  0  0  0  0  0  0  0  0
   -0.7260    1.5395    1.0547 C   0  0  0  0  0  0  0  0  0  0  0  0
   -1.7500    2.3826    1.4627 C   0  0  0  0  0  0  0  0  0  0  0  0
   -3.0606    1.9051    1.3949 C   0  0  0  0  0  0  0  0  0  0  0  0
   -3.3185    0.6148    0.9262 C   0  0  0  0  0  0  0  0  0  0  0  0
   -2.4609   -1.2078    0.1553 H   0  0  0  0  0  0  0  0  0  0  0  0
   -0.1059   -0.3573    0.2704 H   0  0  0  0  0  0  0  0  0  0  0  0
   -1.5171    3.3788    1.8216 H   0  0  0  0  0  0  0  0  0  0  0  0
   -3.8787    2.5457    1.7093 H   0  0  0  0  0  0  0  0  0  0  0  0
   13.7346   -2.1900   -2.1700 N   0  0  0  0  0  0  0  0  0  0  0  0
   12.7561   -1.7059   -2.3427 N   0  0  0  0  0  0  0  0  0  0  0  0
    2.2170    1.7241   -0.5732 B   0  0  0  0  0  0  0  0  0  0  0  0
    1.4697    2.3550   -1.4597 F   0  0  0  0  0  0  0  0  0  0  0  0
    3.0981    2.3891    0.1482 F   0  0  0  0  0  0  0  0  0  0  0  0
    0.5583    2.0035    1.1308 F   0  0  0  0  0  0  0  0  0  0  0  0
    2.1713    0.4014   -0.5018 F   0  0  0  0  0  0  0  0  0  0  0  0
   -4.3396    0.2496    0.8757 H   0  0  0  0  0  0  0  0  0  0  0  0
  1  2  2  0  0  0  0
  1  6  1  0  0  0  0
  2  3  1  0  0  0  0
  3 16  1  0  0  0  0
  3  4  2  0  0  0  0
  4  9  1  0  0  0  0
  5  4  1  0  0  0  0
  5 10  1  0  0  0  0
  6  5  2  0  0  0  0
  7  1  1  0  0  0  0
  8  2  1  0  0  0  0
 12 11  3  0  0  0  0
 13 17  1  0  0  0  0
 13 15  1  0  0  0  0
 14 13  1  0  0  0  0
 18  6  1  0  0  0  0
M  END
