Coordinates from ORCA-job Ph-N2-BF4-B3LYPG-6-31G_dp-MTMO-d009-169-n800
 OpenBabel09051907443D

 18 16  0  0  0  0  0  0  0  0999 V2000
   -1.7813   -0.3082    0.5746 C   0  0  0  0  0  0  0  0  0  0  0  0
   -0.4540    0.1229    0.5156 C   0  0  0  0  0  0  0  0  0  0  0  0
   -0.2036    1.4789    0.6744 C   0  0  0  0  0  0  0  0  0  0  0  0
   -1.2063    2.4150    0.8862 C   0  0  0  0  0  0  0  0  0  0  0  0
   -2.5266    1.9635    0.9421 C   0  0  0  0  0  0  0  0  0  0  0  0
   -2.8159    0.6056    0.7867 C   0  0  0  0  0  0  0  0  0  0  0  0
   -2.0034   -1.3641    0.4518 H   0  0  0  0  0  0  0  0  0  0  0  0
    0.3686   -0.5625    0.3505 H   0  0  0  0  0  0  0  0  0  0  0  0
   -0.9493    3.4620    1.0045 H   0  0  0  0  0  0  0  0  0  0  0  0
   -3.3280    2.6772    1.1075 H   0  0  0  0  0  0  0  0  0  0  0  0
    8.7062   -0.1806   -1.7844 N   0  0  0  0  0  0  0  0  0  0  0  0
    7.6532   -0.0813   -1.4635 N   0  0  0  0  0  0  0  0  0  0  0  0
    3.2114    0.9300   -0.1157 B   0  0  0  0  0  0  0  0  0  0  0  0
    3.1545    1.5742   -1.2647 F   0  0  0  0  0  0  0  0  0  0  0  0
    3.8146    1.4719    0.9236 F   0  0  0  0  0  0  0  0  0  0  0  0
    1.0870    1.9238    0.6224 F   0  0  0  0  0  0  0  0  0  0  0  0
    2.7576   -0.3131   -0.0373 F   0  0  0  0  0  0  0  0  0  0  0  0
   -3.8442    0.2609    0.8316 H   0  0  0  0  0  0  0  0  0  0  0  0
  1  6  1  0  0  0  0
  2  1  2  0  0  0  0
  2  3  1  0  0  0  0
  3  4  2  0  0  0  0
  4  5  1  0  0  0  0
  4  9  1  0  0  0  0
  5 10  1  0  0  0  0
  6 18  1  0  0  0  0
  6  5  2  0  0  0  0
  7  1  1  0  0  0  0
  8  2  1  0  0  0  0
 11 12  3  0  0  0  0
 13 17  1  0  0  0  0
 13 15  1  0  0  0  0
 14 13  1  0  0  0  0
 16  3  1  0  0  0  0
M  END
