Coordinates from ORCA-job Ph-N2-BF4-B3LYPG-6-31G_dp-MTMO-d009-169-n800
 OpenBabel09051907443D

 18 17  0  0  0  0  0  0  0  0999 V2000
   -1.1258    0.1333    0.7558 C   0  0  0  0  0  0  0  0  0  0  0  0
    0.2047    0.2482    0.3703 C   0  0  0  0  0  0  0  0  0  0  0  0
    0.5657    1.4051   -0.3533 C   0  0  0  0  0  0  0  0  0  0  0  0
   -0.3558    2.4250   -0.6847 C   0  0  0  0  0  0  0  0  0  0  0  0
   -1.6690    2.2775   -0.2708 C   0  0  0  0  0  0  0  0  0  0  0  0
   -2.0510    1.1342    0.4463 C   0  0  0  0  0  0  0  0  0  0  0  0
   -1.4376   -0.7437    1.3127 H   0  0  0  0  0  0  0  0  0  0  0  0
    0.9661   -0.4966    0.6012 H   0  0  0  0  0  0  0  0  0  0  0  0
   -0.0266    3.2968   -1.2395 H   0  0  0  0  0  0  0  0  0  0  0  0
   -2.3961    3.0476   -0.5043 H   0  0  0  0  0  0  0  0  0  0  0  0
    1.8098    1.5507   -0.7713 N   0  0  0  0  0  0  0  0  0  0  0  0
    2.8450    1.6872   -1.1693 N   0  0  0  0  0  0  0  0  0  0  0  0
    3.5056   -0.1970    1.1761 B   0  0  0  0  0  0  0  0  0  0  0  0
    4.2359    0.2182    0.0304 F   0  0  0  0  0  0  0  0  0  0  0  0
    4.3353   -0.5501    2.2063 F   0  0  0  0  0  0  0  0  0  0  0  0
    2.6544    0.8875    1.5441 F   0  0  0  0  0  0  0  0  0  0  0  0
    2.6627   -1.2757    0.7892 F   0  0  0  0  0  0  0  0  0  0  0  0
   -3.0829    1.0276    0.7666 H   0  0  0  0  0  0  0  0  0  0  0  0
  1  7  1  0  0  0  0
  2  8  1  0  0  0  0
  2  1  2  0  0  0  0
  3  2  1  0  0  0  0
  4  3  2  0  0  0  0
  4  5  1  0  0  0  0
  5  6  2  0  0  0  0
  6  1  1  0  0  0  0
  6 18  1  0  0  0  0
  9  4  1  0  0  0  0
 10  5  1  0  0  0  0
 11  3  1  0  0  0  0
 12 11  1  0  0  0  0
 13 16  1  0  0  0  0
 13 15  1  0  0  0  0
 14 13  1  0  0  0  0
 17 13  1  0  0  0  0
M  RAD  2  11   2  12   3
M  END
