Coordinates from ORCA-job Ph-N2-BF4-B3LYPG-6-31G_dp-MTMO-d009-169-n800
 OpenBabel09051907443D

 18 16  0  0  0  0  0  0  0  0999 V2000
   -1.7096   -0.3056    0.5758 C   0  0  0  0  0  0  0  0  0  0  0  0
   -0.3814    0.1020    0.4326 C   0  0  0  0  0  0  0  0  0  0  0  0
   -0.0968    1.4539    0.5700 C   0  0  0  0  0  0  0  0  0  0  0  0
   -1.0679    2.4081    0.8408 C   0  0  0  0  0  0  0  0  0  0  0  0
   -2.3900    1.9804    0.9804 C   0  0  0  0  0  0  0  0  0  0  0  0
   -2.7126    0.6274    0.8486 C   0  0  0  0  0  0  0  0  0  0  0  0
   -1.9577   -1.3576    0.4715 H   0  0  0  0  0  0  0  0  0  0  0  0
    0.4186   -0.5973    0.2199 H   0  0  0  0  0  0  0  0  0  0  0  0
   -0.7859    3.4508    0.9387 H   0  0  0  0  0  0  0  0  0  0  0  0
   -3.1669    2.7087    1.1927 H   0  0  0  0  0  0  0  0  0  0  0  0
    7.7536    0.1422   -1.3566 N   0  0  0  0  0  0  0  0  0  0  0  0
    6.6881    0.2492   -1.0831 N   0  0  0  0  0  0  0  0  0  0  0  0
    3.3821    0.7727   -0.2489 B   0  0  0  0  0  0  0  0  0  0  0  0
    3.3890    1.4350   -1.3884 F   0  0  0  0  0  0  0  0  0  0  0  0
    3.9694    1.2756    0.8181 F   0  0  0  0  0  0  0  0  0  0  0  0
    1.1955    1.8714    0.4333 F   0  0  0  0  0  0  0  0  0  0  0  0
    2.8548   -0.4422   -0.1989 F   0  0  0  0  0  0  0  0  0  0  0  0
   -3.7420    0.3014    0.9594 H   0  0  0  0  0  0  0  0  0  0  0  0
  1  6  2  0  0  0  0
  2  3  2  0  0  0  0
  2  1  1  0  0  0  0
  3  4  1  0  0  0  0
  4  9  1  0  0  0  0
  4  5  2  0  0  0  0
  5 10  1  0  0  0  0
  6 18  1  0  0  0  0
  6  5  1  0  0  0  0
  7  1  1  0  0  0  0
  8  2  1  0  0  0  0
 11 12  3  0  0  0  0
 13 17  1  0  0  0  0
 13 15  1  0  0  0  0
 14 13  1  0  0  0  0
 16  3  1  0  0  0  0
M  END
