Coordinates from ORCA-job Ph-N2-BF4-B3LYPG-6-31G_dp-MTMO-d009-169-n800
 OpenBabel09051907443D

 18 16  0  0  0  0  0  0  0  0999 V2000
   -1.6716   -0.3273    0.4259 C   0  0  0  0  0  0  0  0  0  0  0  0
   -0.3850    0.1262    0.7249 C   0  0  0  0  0  0  0  0  0  0  0  0
   -0.2228    1.4724    1.0205 C   0  0  0  0  0  0  0  0  0  0  0  0
   -1.2738    2.3785    1.0313 C   0  0  0  0  0  0  0  0  0  0  0  0
   -2.5529    1.9049    0.7312 C   0  0  0  0  0  0  0  0  0  0  0  0
   -2.7536    0.5562    0.4284 C   0  0  0  0  0  0  0  0  0  0  0  0
   -1.8244   -1.3757    0.1883 H   0  0  0  0  0  0  0  0  0  0  0  0
    0.4740   -0.5342    0.7287 H   0  0  0  0  0  0  0  0  0  0  0  0
   -1.0861    3.4193    1.2716 H   0  0  0  0  0  0  0  0  0  0  0  0
   -3.3917    2.5943    0.7340 H   0  0  0  0  0  0  0  0  0  0  0  0
    8.8834   -0.7806   -2.4764 N   0  0  0  0  0  0  0  0  0  0  0  0
    7.9169   -0.5332   -2.0005 N   0  0  0  0  0  0  0  0  0  0  0  0
    3.0368    1.2733    0.1852 B   0  0  0  0  0  0  0  0  0  0  0  0
    2.5425    1.6267   -0.9867 F   0  0  0  0  0  0  0  0  0  0  0  0
    3.7459    2.1297    0.8941 F   0  0  0  0  0  0  0  0  0  0  0  0
    1.0281    1.9342    1.3223 F   0  0  0  0  0  0  0  0  0  0  0  0
    2.9243    0.0164    0.5897 F   0  0  0  0  0  0  0  0  0  0  0  0
   -3.7498    0.1949    0.1936 H   0  0  0  0  0  0  0  0  0  0  0  0
  1  6  2  0  0  0  0
  1  2  1  0  0  0  0
  2  8  1  0  0  0  0
  2  3  2  0  0  0  0
  3  4  1  0  0  0  0
  3 16  1  0  0  0  0
  4  9  1  0  0  0  0
  5 10  1  0  0  0  0
  5  4  2  0  0  0  0
  6  5  1  0  0  0  0
  7  1  1  0  0  0  0
 11 12  3  0  0  0  0
 13 17  1  0  0  0  0
 13 15  1  0  0  0  0
 14 13  1  0  0  0  0
 18  6  1  0  0  0  0
M  END
