Coordinates from ORCA-job Ph-N2-BF4-B3LYPG-6-31G_dp-MTMO-d009-169-n800
 OpenBabel09051907443D

 18 16  0  0  0  0  0  0  0  0999 V2000
   -1.8274   -0.2922    0.4260 C   0  0  0  0  0  0  0  0  0  0  0  0
   -0.5108    0.1587    0.5418 C   0  0  0  0  0  0  0  0  0  0  0  0
   -0.3056    1.4566    0.9884 C   0  0  0  0  0  0  0  0  0  0  0  0
   -1.3421    2.3177    1.3197 C   0  0  0  0  0  0  0  0  0  0  0  0
   -2.6515    1.8474    1.1981 C   0  0  0  0  0  0  0  0  0  0  0  0
   -2.8958    0.5464    0.7524 C   0  0  0  0  0  0  0  0  0  0  0  0
   -2.0150   -1.3031    0.0774 H   0  0  0  0  0  0  0  0  0  0  0  0
    0.3379   -0.4665    0.2918 H   0  0  0  0  0  0  0  0  0  0  0  0
   -1.1197    3.3220    1.6627 H   0  0  0  0  0  0  0  0  0  0  0  0
   -3.4793    2.5021    1.4525 H   0  0  0  0  0  0  0  0  0  0  0  0
   10.2182   -1.3558   -1.5845 N   0  0  0  0  0  0  0  0  0  0  0  0
    9.2569   -0.8621   -1.8163 N   0  0  0  0  0  0  0  0  0  0  0  0
    2.7057    1.5342   -0.4978 B   0  0  0  0  0  0  0  0  0  0  0  0
    1.9723    2.0582   -1.4622 F   0  0  0  0  0  0  0  0  0  0  0  0
    3.5451    2.2879    0.1849 F   0  0  0  0  0  0  0  0  0  0  0  0
    0.9768    1.9141    1.1159 F   0  0  0  0  0  0  0  0  0  0  0  0
    2.6904    0.2232   -0.3037 F   0  0  0  0  0  0  0  0  0  0  0  0
   -3.9159    0.1872    0.6587 H   0  0  0  0  0  0  0  0  0  0  0  0
  1  2  2  0  0  0  0
  1  6  1  0  0  0  0
  2  3  1  0  0  0  0
  3 16  1  0  0  0  0
  3  4  2  0  0  0  0
  4  9  1  0  0  0  0
  5  4  1  0  0  0  0
  5 10  1  0  0  0  0
  6  5  2  0  0  0  0
  7  1  1  0  0  0  0
  8  2  1  0  0  0  0
 12 11  3  0  0  0  0
 13 17  1  0  0  0  0
 13 15  1  0  0  0  0
 14 13  1  0  0  0  0
 18  6  1  0  0  0  0
M  END
