Coordinates from ORCA-job Ph-N2-BF4-B3LYPG-6-31G_dp-MTMO-d009-169-n800
 OpenBabel09051907443D

 18 16  0  0  0  0  0  0  0  0999 V2000
   -1.6506   -0.3155    0.5580 C   0  0  0  0  0  0  0  0  0  0  0  0
   -0.3278    0.1125    0.4255 C   0  0  0  0  0  0  0  0  0  0  0  0
   -0.0640    1.4678    0.5714 C   0  0  0  0  0  0  0  0  0  0  0  0
   -1.0509    2.4062    0.8407 C   0  0  0  0  0  0  0  0  0  0  0  0
   -2.3674    1.9581    0.9696 C   0  0  0  0  0  0  0  0  0  0  0  0
   -2.6690    0.6013    0.8288 C   0  0  0  0  0  0  0  0  0  0  0  0
   -1.8826   -1.3705    0.4466 H   0  0  0  0  0  0  0  0  0  0  0  0
    0.4842   -0.5735    0.2145 H   0  0  0  0  0  0  0  0  0  0  0  0
   -0.7851    3.4524    0.9458 H   0  0  0  0  0  0  0  0  0  0  0  0
   -3.1564    2.6736    1.1805 H   0  0  0  0  0  0  0  0  0  0  0  0
    7.4387    0.0374   -1.3206 N   0  0  0  0  0  0  0  0  0  0  0  0
    6.3805    0.1822   -1.0374 N   0  0  0  0  0  0  0  0  0  0  0  0
    3.4256    0.8313   -0.2435 B   0  0  0  0  0  0  0  0  0  0  0  0
    3.4185    1.4959   -1.3817 F   0  0  0  0  0  0  0  0  0  0  0  0
    3.9960    1.3469    0.8266 F   0  0  0  0  0  0  0  0  0  0  0  0
    1.2225    1.9045    0.4454 F   0  0  0  0  0  0  0  0  0  0  0  0
    2.9224   -0.3939   -0.1955 F   0  0  0  0  0  0  0  0  0  0  0  0
   -3.6943    0.2596    0.9312 H   0  0  0  0  0  0  0  0  0  0  0  0
  1  6  1  0  0  0  0
  2  1  2  0  0  0  0
  2  3  1  0  0  0  0
  3  4  2  0  0  0  0
  4  9  1  0  0  0  0
  4  5  1  0  0  0  0
  5 10  1  0  0  0  0
  6 18  1  0  0  0  0
  6  5  2  0  0  0  0
  7  1  1  0  0  0  0
  8  2  1  0  0  0  0
 11 12  3  0  0  0  0
 13 17  1  0  0  0  0
 13 15  1  0  0  0  0
 14 13  1  0  0  0  0
 16  3  1  0  0  0  0
M  END
