Coordinates from ORCA-job Ph-N2-BF4-B3LYPG-6-31G_dp-MTMO-d009-169-n800
 OpenBabel09051907443D

 18 16  0  0  0  0  0  0  0  0999 V2000
   -2.0732   -0.2372    0.4737 C   0  0  0  0  0  0  0  0  0  0  0  0
   -0.7544    0.2131    0.5660 C   0  0  0  0  0  0  0  0  0  0  0  0
   -0.5397    1.5024    1.0320 C   0  0  0  0  0  0  0  0  0  0  0  0
   -1.5685    2.3559    1.4044 C   0  0  0  0  0  0  0  0  0  0  0  0
   -2.8801    1.8865    1.3057 C   0  0  0  0  0  0  0  0  0  0  0  0
   -3.1341    0.5937    0.8417 C   0  0  0  0  0  0  0  0  0  0  0  0
   -2.2683   -1.2417    0.1111 H   0  0  0  0  0  0  0  0  0  0  0  0
    0.0880   -0.4066    0.2834 H   0  0  0  0  0  0  0  0  0  0  0  0
   -1.3385    3.3538    1.7606 H   0  0  0  0  0  0  0  0  0  0  0  0
   -3.7019    2.5354    1.5921 H   0  0  0  0  0  0  0  0  0  0  0  0
   12.2025   -1.8152   -1.9284 N   0  0  0  0  0  0  0  0  0  0  0  0
   11.2254   -1.3295   -2.1042 N   0  0  0  0  0  0  0  0  0  0  0  0
    2.4263    1.6254   -0.5362 B   0  0  0  0  0  0  0  0  0  0  0  0
    1.6724    2.1890   -1.4617 F   0  0  0  0  0  0  0  0  0  0  0  0
    3.2887    2.3484    0.1511 F   0  0  0  0  0  0  0  0  0  0  0  0
    0.7452    1.9591    1.1377 F   0  0  0  0  0  0  0  0  0  0  0  0
    2.4065    0.3084   -0.3892 F   0  0  0  0  0  0  0  0  0  0  0  0
   -4.1559    0.2350    0.7662 H   0  0  0  0  0  0  0  0  0  0  0  0
  1  2  2  0  0  0  0
  1  6  1  0  0  0  0
  2  3  1  0  0  0  0
  3 16  1  0  0  0  0
  3  4  2  0  0  0  0
  4  9  1  0  0  0  0
  5  4  1  0  0  0  0
  5 10  1  0  0  0  0
  6  5  2  0  0  0  0
  7  1  1  0  0  0  0
  8  2  1  0  0  0  0
 12 11  3  0  0  0  0
 13 17  1  0  0  0  0
 13 15  1  0  0  0  0
 14 13  1  0  0  0  0
 18  6  1  0  0  0  0
M  END
