Coordinates from ORCA-job Ph-N2-BF4-B3LYPG-6-31G_dp-MTMO-d009-169-n800
 OpenBabel09051907443D

 18 16  0  0  0  0  0  0  0  0999 V2000
   -2.1118   -0.2296    0.4824 C   0  0  0  0  0  0  0  0  0  0  0  0
   -0.7929    0.2209    0.5716 C   0  0  0  0  0  0  0  0  0  0  0  0
   -0.5772    1.5097    1.0386 C   0  0  0  0  0  0  0  0  0  0  0  0
   -1.6052    2.3626    1.4149 C   0  0  0  0  0  0  0  0  0  0  0  0
   -2.9169    1.8930    1.3192 C   0  0  0  0  0  0  0  0  0  0  0  0
   -3.1718    0.6007    0.8543 C   0  0  0  0  0  0  0  0  0  0  0  0
   -2.3076   -1.2337    0.1192 H   0  0  0  0  0  0  0  0  0  0  0  0
    0.0490   -0.3981    0.2859 H   0  0  0  0  0  0  0  0  0  0  0  0
   -1.3744    3.3601    1.7716 H   0  0  0  0  0  0  0  0  0  0  0  0
   -3.7381    2.5413    1.6086 H   0  0  0  0  0  0  0  0  0  0  0  0
   12.5118   -1.8863   -1.9842 N   0  0  0  0  0  0  0  0  0  0  0  0
   11.5337   -1.4015   -2.1572 N   0  0  0  0  0  0  0  0  0  0  0  0
    2.3848    1.6397   -0.5376 B   0  0  0  0  0  0  0  0  0  0  0  0
    1.6302    2.2106   -1.4580 F   0  0  0  0  0  0  0  0  0  0  0  0
    3.2499    2.3566    0.1527 F   0  0  0  0  0  0  0  0  0  0  0  0
    0.7079    1.9665    1.1415 F   0  0  0  0  0  0  0  0  0  0  0  0
    2.3628    0.3217   -0.3990 F   0  0  0  0  0  0  0  0  0  0  0  0
   -4.1938    0.2417    0.7813 H   0  0  0  0  0  0  0  0  0  0  0  0
  1  2  2  0  0  0  0
  1  6  1  0  0  0  0
  2  3  1  0  0  0  0
  3 16  1  0  0  0  0
  3  4  2  0  0  0  0
  4  9  1  0  0  0  0
  5  4  1  0  0  0  0
  5 10  1  0  0  0  0
  6  5  2  0  0  0  0
  7  1  1  0  0  0  0
  8  2  1  0  0  0  0
 12 11  3  0  0  0  0
 13 17  1  0  0  0  0
 13 15  1  0  0  0  0
 14 13  1  0  0  0  0
 18  6  1  0  0  0  0
M  END
