Coordinates from ORCA-job Ph-N2-BF4-B3LYPG-6-31G_dp-MTMO-d009-169-n800
 OpenBabel09051907443D

 18 16  0  0  0  0  0  0  0  0999 V2000
   -2.3713   -0.1810    0.5444 C   0  0  0  0  0  0  0  0  0  0  0  0
   -1.0539    0.2793    0.5996 C   0  0  0  0  0  0  0  0  0  0  0  0
   -0.8349    1.5651    1.0734 C   0  0  0  0  0  0  0  0  0  0  0  0
   -1.8582    2.4060    1.4875 C   0  0  0  0  0  0  0  0  0  0  0  0
   -3.1684    1.9268    1.4249 C   0  0  0  0  0  0  0  0  0  0  0  0
   -3.4266    0.6369    0.9551 C   0  0  0  0  0  0  0  0  0  0  0  0
   -2.5698   -1.1832    0.1773 H   0  0  0  0  0  0  0  0  0  0  0  0
   -0.2159   -0.3297    0.2828 H   0  0  0  0  0  0  0  0  0  0  0  0
   -1.6250    3.4019    1.8471 H   0  0  0  0  0  0  0  0  0  0  0  0
   -3.9860    2.5657    1.7442 H   0  0  0  0  0  0  0  0  0  0  0  0
   14.6071   -2.3827   -2.3360 N   0  0  0  0  0  0  0  0  0  0  0  0
   13.6236   -1.9083   -2.5071 N   0  0  0  0  0  0  0  0  0  0  0  0
    2.1074    1.7512   -0.5618 B   0  0  0  0  0  0  0  0  0  0  0  0
    1.3673    2.3945   -1.4452 F   0  0  0  0  0  0  0  0  0  0  0  0
    2.9917    2.4038    0.1670 F   0  0  0  0  0  0  0  0  0  0  0  0
    0.4490    2.0311    1.1446 F   0  0  0  0  0  0  0  0  0  0  0  0
    2.0514    0.4283   -0.5005 F   0  0  0  0  0  0  0  0  0  0  0  0
   -4.4473    0.2702    0.9088 H   0  0  0  0  0  0  0  0  0  0  0  0
  1  2  2  0  0  0  0
  1  6  1  0  0  0  0
  2  3  1  0  0  0  0
  3 16  1  0  0  0  0
  3  4  2  0  0  0  0
  4  9  1  0  0  0  0
  5  4  1  0  0  0  0
  5 10  1  0  0  0  0
  6  5  2  0  0  0  0
  7  1  1  0  0  0  0
  8  2  1  0  0  0  0
 12 11  3  0  0  0  0
 13 17  1  0  0  0  0
 13 15  1  0  0  0  0
 14 13  1  0  0  0  0
 18  6  1  0  0  0  0
M  END
