Coordinates from ORCA-job Ph-N2-BF4-B3LYPG-6-31G_dp-MTMO-d009-169-n800
 OpenBabel09051907443D

 18 16  0  0  0  0  0  0  0  0999 V2000
   -2.1171   -0.2284    0.4831 C   0  0  0  0  0  0  0  0  0  0  0  0
   -0.7976    0.2202    0.5708 C   0  0  0  0  0  0  0  0  0  0  0  0
   -0.5794    1.5087    1.0377 C   0  0  0  0  0  0  0  0  0  0  0  0
   -1.6058    2.3630    1.4153 C   0  0  0  0  0  0  0  0  0  0  0  0
   -2.9183    1.8952    1.3209 C   0  0  0  0  0  0  0  0  0  0  0  0
   -3.1756    0.6033    0.8563 C   0  0  0  0  0  0  0  0  0  0  0  0
   -2.3149   -1.2322    0.1200 H   0  0  0  0  0  0  0  0  0  0  0  0
    0.0434   -0.3996    0.2842 H   0  0  0  0  0  0  0  0  0  0  0  0
   -1.3734    3.3602    1.7718 H   0  0  0  0  0  0  0  0  0  0  0  0
   -3.7384    2.5446    1.6114 H   0  0  0  0  0  0  0  0  0  0  0  0
   12.5309   -1.8853   -1.9868 N   0  0  0  0  0  0  0  0  0  0  0  0
   11.5522   -1.4015   -2.1591 N   0  0  0  0  0  0  0  0  0  0  0  0
    2.3845    1.6371   -0.5379 B   0  0  0  0  0  0  0  0  0  0  0  0
    1.6297    2.2084   -1.4580 F   0  0  0  0  0  0  0  0  0  0  0  0
    3.2497    2.3539    0.1525 F   0  0  0  0  0  0  0  0  0  0  0  0
    0.7064    1.9636    1.1391 F   0  0  0  0  0  0  0  0  0  0  0  0
    2.3624    0.3191   -0.3997 F   0  0  0  0  0  0  0  0  0  0  0  0
   -4.1981    0.2458    0.7844 H   0  0  0  0  0  0  0  0  0  0  0  0
  1  2  2  0  0  0  0
  1  6  1  0  0  0  0
  2  3  1  0  0  0  0
  3 16  1  0  0  0  0
  3  4  2  0  0  0  0
  4  9  1  0  0  0  0
  5  4  1  0  0  0  0
  5 10  1  0  0  0  0
  6  5  2  0  0  0  0
  7  1  1  0  0  0  0
  8  2  1  0  0  0  0
 12 11  3  0  0  0  0
 13 17  1  0  0  0  0
 13 15  1  0  0  0  0
 14 13  1  0  0  0  0
 18  6  1  0  0  0  0
M  END
