Coordinates from ORCA-job Ph-N2-BF4-B3LYPG-6-31G_dp-MTMO-d009-169-n800
 OpenBabel09051907443D

 18 16  0  0  0  0  0  0  0  0999 V2000
   -2.2965   -0.1982    0.5293 C   0  0  0  0  0  0  0  0  0  0  0  0
   -0.9794    0.2629    0.5870 C   0  0  0  0  0  0  0  0  0  0  0  0
   -0.7621    1.5490    1.0608 C   0  0  0  0  0  0  0  0  0  0  0  0
   -1.7867    2.3894    1.4726 C   0  0  0  0  0  0  0  0  0  0  0  0
   -3.0965    1.9094    1.4076 C   0  0  0  0  0  0  0  0  0  0  0  0
   -3.3530    0.6192    0.9377 C   0  0  0  0  0  0  0  0  0  0  0  0
   -2.4936   -1.2006    0.1621 H   0  0  0  0  0  0  0  0  0  0  0  0
   -0.1404   -0.3457    0.2721 H   0  0  0  0  0  0  0  0  0  0  0  0
   -1.5548    3.3856    1.8323 H   0  0  0  0  0  0  0  0  0  0  0  0
   -3.9151    2.5479    1.7250 H   0  0  0  0  0  0  0  0  0  0  0  0
   14.0247   -2.2603   -2.2215 N   0  0  0  0  0  0  0  0  0  0  0  0
   13.0457   -1.7774   -2.3948 N   0  0  0  0  0  0  0  0  0  0  0  0
    2.1781    1.7384   -0.5735 B   0  0  0  0  0  0  0  0  0  0  0  0
    1.4332    2.3757   -1.4575 F   0  0  0  0  0  0  0  0  0  0  0  0
    3.0609    2.3973    0.1514 F   0  0  0  0  0  0  0  0  0  0  0  0
    0.5214    2.0157    1.1344 F   0  0  0  0  0  0  0  0  0  0  0  0
    2.1280    0.4155   -0.5081 F   0  0  0  0  0  0  0  0  0  0  0  0
   -4.3735    0.2520    0.8893 H   0  0  0  0  0  0  0  0  0  0  0  0
  1  2  2  0  0  0  0
  1  6  1  0  0  0  0
  2  3  1  0  0  0  0
  3 16  1  0  0  0  0
  3  4  2  0  0  0  0
  4  9  1  0  0  0  0
  5  4  1  0  0  0  0
  5 10  1  0  0  0  0
  6  5  2  0  0  0  0
  7  1  1  0  0  0  0
  8  2  1  0  0  0  0
 12 11  3  0  0  0  0
 13 17  1  0  0  0  0
 13 15  1  0  0  0  0
 14 13  1  0  0  0  0
 18  6  1  0  0  0  0
M  END
