Coordinates from ORCA-job Ph-N2-BF4-B3LYPG-6-31G_dp-MTMO-d009-169-n800
 OpenBabel09051907443D

 18 16  0  0  0  0  0  0  0  0999 V2000
   -1.1189    0.0931    0.7604 C   0  0  0  0  0  0  0  0  0  0  0  0
    0.2308    0.2459    0.3304 C   0  0  0  0  0  0  0  0  0  0  0  0
    0.2956    1.4177   -0.2880 C   0  0  0  0  0  0  0  0  0  0  0  0
   -0.4538    2.4833   -0.6321 C   0  0  0  0  0  0  0  0  0  0  0  0
   -1.7695    2.2509   -0.1621 C   0  0  0  0  0  0  0  0  0  0  0  0
   -2.0859    1.0725    0.5203 C   0  0  0  0  0  0  0  0  0  0  0  0
   -1.3578   -0.8164    1.3035 H   0  0  0  0  0  0  0  0  0  0  0  0
    1.0714   -0.4686    0.5292 H   0  0  0  0  0  0  0  0  0  0  0  0
   -0.1386    3.3667   -1.1673 H   0  0  0  0  0  0  0  0  0  0  0  0
   -2.5160    3.0152   -0.3550 H   0  0  0  0  0  0  0  0  0  0  0  0
    2.3478    1.7263   -1.1872 N   0  0  0  0  0  0  0  0  0  0  0  0
    3.3723    1.6876   -1.5963 N   0  0  0  0  0  0  0  0  0  0  0  0
    3.4170   -0.1741    1.2395 B   0  0  0  0  0  0  0  0  0  0  0  0
    4.4007   -0.0141    0.2715 F   0  0  0  0  0  0  0  0  0  0  0  0
    3.9068   -0.5658    2.4589 F   0  0  0  0  0  0  0  0  0  0  0  0
    2.6625    1.0254    1.3488 F   0  0  0  0  0  0  0  0  0  0  0  0
    2.4752   -1.1874    0.7577 F   0  0  0  0  0  0  0  0  0  0  0  0
   -3.0994    0.9179    0.8738 H   0  0  0  0  0  0  0  0  0  0  0  0
  1  7  1  0  0  0  0
  2  8  1  0  0  0  0
  2  1  2  0  0  0  0
  3  2  1  0  0  0  0
  4  3  2  0  0  0  0
  4  5  1  0  0  0  0
  5  6  2  0  0  0  0
  6  1  1  0  0  0  0
  6 18  1  0  0  0  0
  9  4  1  0  0  0  0
 10  5  1  0  0  0  0
 12 11  3  0  0  0  0
 13 16  1  0  0  0  0
 13 15  1  0  0  0  0
 14 13  1  0  0  0  0
 17 13  1  0  0  0  0
M  RAD  1   3   2
M  END
