Coordinates from ORCA-job Ph-N2-BF4-B3LYPG-6-31G_dp-MTMO-d009-169-n800
 OpenBabel09051907443D

 18 16  0  0  0  0  0  0  0  0999 V2000
   -2.2064   -0.2149    0.5080 C   0  0  0  0  0  0  0  0  0  0  0  0
   -0.8887    0.2418    0.5819 C   0  0  0  0  0  0  0  0  0  0  0  0
   -0.6735    1.5298    1.0515 C   0  0  0  0  0  0  0  0  0  0  0  0
   -1.7007    2.3761    1.4442 C   0  0  0  0  0  0  0  0  0  0  0  0
   -3.0112    1.9003    1.3633 C   0  0  0  0  0  0  0  0  0  0  0  0
   -3.2657    0.6085    0.8969 C   0  0  0  0  0  0  0  0  0  0  0  0
   -2.4019   -1.2186    0.1434 H   0  0  0  0  0  0  0  0  0  0  0  0
   -0.0475   -0.3716    0.2824 H   0  0  0  0  0  0  0  0  0  0  0  0
   -1.4703    3.3734    1.8018 H   0  0  0  0  0  0  0  0  0  0  0  0
   -3.8318    2.5435    1.6657 H   0  0  0  0  0  0  0  0  0  0  0  0
   13.3015   -2.0860   -2.1103 N   0  0  0  0  0  0  0  0  0  0  0  0
   12.3231   -1.6011   -2.2817 N   0  0  0  0  0  0  0  0  0  0  0  0
    2.2753    1.6964   -0.5561 B   0  0  0  0  0  0  0  0  0  0  0  0
    1.5241    2.3040   -1.4556 F   0  0  0  0  0  0  0  0  0  0  0  0
    3.1500    2.3822    0.1535 F   0  0  0  0  0  0  0  0  0  0  0  0
    0.6107    1.9924    1.1403 F   0  0  0  0  0  0  0  0  0  0  0  0
    2.2401    0.3750   -0.4592 F   0  0  0  0  0  0  0  0  0  0  0  0
   -4.2867    0.2447    0.8359 H   0  0  0  0  0  0  0  0  0  0  0  0
  1  2  2  0  0  0  0
  1  6  1  0  0  0  0
  2  3  1  0  0  0  0
  3 16  1  0  0  0  0
  3  4  2  0  0  0  0
  4  9  1  0  0  0  0
  5  4  1  0  0  0  0
  5 10  1  0  0  0  0
  6  5  2  0  0  0  0
  7  1  1  0  0  0  0
  8  2  1  0  0  0  0
 12 11  3  0  0  0  0
 13 17  1  0  0  0  0
 13 15  1  0  0  0  0
 14 13  1  0  0  0  0
 18  6  1  0  0  0  0
M  END
