Coordinates from ORCA-job Ph-N2-BF4-B3LYPG-6-31G_dp-MTMO-d009-169-n800
 OpenBabel09051907443D

 18 16  0  0  0  0  0  0  0  0999 V2000
   -1.4640   -0.3436    0.6801 C   0  0  0  0  0  0  0  0  0  0  0  0
   -0.1652    0.0181    1.0437 C   0  0  0  0  0  0  0  0  0  0  0  0
    0.1721    1.3635    0.9963 C   0  0  0  0  0  0  0  0  0  0  0  0
   -0.7162    2.3550    0.6052 C   0  0  0  0  0  0  0  0  0  0  0  0
   -2.0110    1.9732    0.2469 C   0  0  0  0  0  0  0  0  0  0  0  0
   -2.3860    0.6280    0.2832 C   0  0  0  0  0  0  0  0  0  0  0  0
   -1.7529   -1.3900    0.7081 H   0  0  0  0  0  0  0  0  0  0  0  0
    0.5733   -0.7127    1.3525 H   0  0  0  0  0  0  0  0  0  0  0  0
   -0.3944    3.3904    0.5862 H   0  0  0  0  0  0  0  0  0  0  0  0
   -2.7248    2.7309   -0.0618 H   0  0  0  0  0  0  0  0  0  0  0  0
    5.6448    1.1734   -2.6648 N   0  0  0  0  0  0  0  0  0  0  0  0
    5.4792    0.5337   -1.7794 N   0  0  0  0  0  0  0  0  0  0  0  0
    3.3144    0.5872    0.4245 B   0  0  0  0  0  0  0  0  0  0  0  0
    2.7424    0.6126   -0.7665 F   0  0  0  0  0  0  0  0  0  0  0  0
    4.1348    1.5532    0.7889 F   0  0  0  0  0  0  0  0  0  0  0  0
    1.4372    1.7364    1.3570 F   0  0  0  0  0  0  0  0  0  0  0  0
    3.1498   -0.4706    1.2044 F   0  0  0  0  0  0  0  0  0  0  0  0
   -3.3931    0.3374    0.0014 H   0  0  0  0  0  0  0  0  0  0  0  0
  1  7  1  0  0  0  0
  1  2  2  0  0  0  0
  2  8  1  0  0  0  0
  3  2  1  0  0  0  0
  3 16  1  0  0  0  0
  4  3  2  0  0  0  0
  5  6  2  0  0  0  0
  5  4  1  0  0  0  0
  6  1  1  0  0  0  0
  9  4  1  0  0  0  0
 10  5  1  0  0  0  0
 11 12  3  0  0  0  0
 13 15  1  0  0  0  0
 13 17  1  0  0  0  0
 14 13  1  0  0  0  0
 18  6  1  0  0  0  0
M  END
