Coordinates from ORCA-job Ph-N2-BF4-B3LYPG-6-31G_dp-MTMO-d009-169-n800
 OpenBabel09051907443D

 18 16  0  0  0  0  0  0  0  0999 V2000
   -1.5870   -0.1910    0.9915 C   0  0  0  0  0  0  0  0  0  0  0  0
   -0.2267    0.0460    1.2006 C   0  0  0  0  0  0  0  0  0  0  0  0
    0.2947    1.2587    0.7718 C   0  0  0  0  0  0  0  0  0  0  0  0
   -0.4693    2.2352    0.1484 C   0  0  0  0  0  0  0  0  0  0  0  0
   -1.8276    1.9792   -0.0504 C   0  0  0  0  0  0  0  0  0  0  0  0
   -2.3874    0.7699    0.3689 C   0  0  0  0  0  0  0  0  0  0  0  0
   -2.0188   -1.1325    1.3171 H   0  0  0  0  0  0  0  0  0  0  0  0
    0.4201   -0.6819    1.6757 H   0  0  0  0  0  0  0  0  0  0  0  0
   -0.0054    3.1631   -0.1669 H   0  0  0  0  0  0  0  0  0  0  0  0
   -2.4464    2.7287   -0.5347 H   0  0  0  0  0  0  0  0  0  0  0  0
    4.5694    2.2540   -1.9134 N   0  0  0  0  0  0  0  0  0  0  0  0
    5.5139    1.8770   -2.3460 N   0  0  0  0  0  0  0  0  0  0  0  0
    3.3839   -0.0558    0.5943 B   0  0  0  0  0  0  0  0  0  0  0  0
    3.0236   -0.2353   -0.6634 F   0  0  0  0  0  0  0  0  0  0  0  0
    4.2981    0.8449    0.8997 F   0  0  0  0  0  0  0  0  0  0  0  0
    1.6232    1.5133    0.9735 F   0  0  0  0  0  0  0  0  0  0  0  0
    2.9255   -0.8738    1.5303 F   0  0  0  0  0  0  0  0  0  0  0  0
   -3.4434    0.5761    0.2087 H   0  0  0  0  0  0  0  0  0  0  0  0
  1  2  1  0  0  0  0
  1  7  1  0  0  0  0
  2  8  1  0  0  0  0
  3 16  1  0  0  0  0
  3  2  2  0  0  0  0
  4  3  1  0  0  0  0
  5  4  2  0  0  0  0
  5  6  1  0  0  0  0
  6  1  2  0  0  0  0
  9  4  1  0  0  0  0
 10  5  1  0  0  0  0
 12 11  3  0  0  0  0
 13 15  1  0  0  0  0
 13 17  1  0  0  0  0
 14 13  1  0  0  0  0
 18  6  1  0  0  0  0
M  END
