Coordinates from ORCA-job Ph-N2-BF4-B3LYPG-6-31G_dp-MTMO-d009-169-n800
 OpenBabel09051907443D

 18 16  0  0  0  0  0  0  0  0999 V2000
   -1.4566   -0.3378    0.4414 C   0  0  0  0  0  0  0  0  0  0  0  0
   -0.1460    0.0756    0.6892 C   0  0  0  0  0  0  0  0  0  0  0  0
    0.0766    1.4242    0.9306 C   0  0  0  0  0  0  0  0  0  0  0  0
   -0.9392    2.3700    0.9351 C   0  0  0  0  0  0  0  0  0  0  0  0
   -2.2432    1.9366    0.6864 C   0  0  0  0  0  0  0  0  0  0  0  0
   -2.5037    0.5867    0.4393 C   0  0  0  0  0  0  0  0  0  0  0  0
   -1.6562   -1.3874    0.2472 H   0  0  0  0  0  0  0  0  0  0  0  0
    0.6873   -0.6172    0.6941 H   0  0  0  0  0  0  0  0  0  0  0  0
   -0.7051    3.4107    1.1311 H   0  0  0  0  0  0  0  0  0  0  0  0
   -3.0545    2.6582    0.6853 H   0  0  0  0  0  0  0  0  0  0  0  0
    6.6193   -0.2332   -1.8718 N   0  0  0  0  0  0  0  0  0  0  0  0
    5.6913    0.0814   -1.3625 N   0  0  0  0  0  0  0  0  0  0  0  0
    3.3448    1.0113   -0.0068 B   0  0  0  0  0  0  0  0  0  0  0  0
    2.8290    1.3643   -1.1691 F   0  0  0  0  0  0  0  0  0  0  0  0
    4.1054    1.8509    0.6678 F   0  0  0  0  0  0  0  0  0  0  0  0
    1.3512    1.8458    1.1796 F   0  0  0  0  0  0  0  0  0  0  0  0
    3.1593   -0.2204    0.4448 F   0  0  0  0  0  0  0  0  0  0  0  0
   -3.5192    0.2563    0.2441 H   0  0  0  0  0  0  0  0  0  0  0  0
  1  2  1  0  0  0  0
  2  8  1  0  0  0  0
  2  3  2  0  0  0  0
  3  4  1  0  0  0  0
  3 16  1  0  0  0  0
  4  9  1  0  0  0  0
  5  4  2  0  0  0  0
  6  1  2  0  0  0  0
  6  5  1  0  0  0  0
  7  1  1  0  0  0  0
 10  5  1  0  0  0  0
 11 12  3  0  0  0  0
 13 17  1  0  0  0  0
 13 15  1  0  0  0  0
 14 13  1  0  0  0  0
 18  6  1  0  0  0  0
M  END
