Coordinates from ORCA-job Ph-N2-BF4-B3LYPG-6-31G_dp-MTMO-d009-169-n800
 OpenBabel09051907443D

 18 16  0  0  0  0  0  0  0  0999 V2000
   -1.3824   -0.3553    0.4198 C   0  0  0  0  0  0  0  0  0  0  0  0
   -0.0948    0.0593    0.7664 C   0  0  0  0  0  0  0  0  0  0  0  0
    0.1105    1.4102    1.0102 C   0  0  0  0  0  0  0  0  0  0  0  0
   -0.9003    2.3571    0.9230 C   0  0  0  0  0  0  0  0  0  0  0  0
   -2.1813    1.9226    0.5760 C   0  0  0  0  0  0  0  0  0  0  0  0
   -2.4242    0.5703    0.3242 C   0  0  0  0  0  0  0  0  0  0  0  0
   -1.5678   -1.4068    0.2218 H   0  0  0  0  0  0  0  0  0  0  0  0
    0.7342   -0.6342    0.8442 H   0  0  0  0  0  0  0  0  0  0  0  0
   -0.6804    3.3997    1.1254 H   0  0  0  0  0  0  0  0  0  0  0  0
   -2.9883    2.6452    0.5015 H   0  0  0  0  0  0  0  0  0  0  0  0
    6.1665   -0.3772   -2.1650 N   0  0  0  0  0  0  0  0  0  0  0  0
    5.4817    0.1064   -1.4463 N   0  0  0  0  0  0  0  0  0  0  0  0
    3.3415    1.0864    0.1338 B   0  0  0  0  0  0  0  0  0  0  0  0
    2.7720    1.4282   -1.0073 F   0  0  0  0  0  0  0  0  0  0  0  0
    4.1044    1.9446    0.7817 F   0  0  0  0  0  0  0  0  0  0  0  0
    1.3618    1.8327    1.3578 F   0  0  0  0  0  0  0  0  0  0  0  0
    3.2089   -0.1521    0.5860 F   0  0  0  0  0  0  0  0  0  0  0  0
   -3.4215    0.2389    0.0527 H   0  0  0  0  0  0  0  0  0  0  0  0
  1  2  1  0  0  0  0
  2  8  1  0  0  0  0
  2  3  2  0  0  0  0
  3 16  1  0  0  0  0
  4  3  1  0  0  0  0
  4  9  1  0  0  0  0
  5  4  2  0  0  0  0
  6  1  2  0  0  0  0
  6  5  1  0  0  0  0
  7  1  1  0  0  0  0
 10  5  1  0  0  0  0
 11 12  3  0  0  0  0
 13 17  1  0  0  0  0
 13 15  1  0  0  0  0
 14 13  1  0  0  0  0
 18  6  1  0  0  0  0
M  END
