Coordinates from ORCA-job Ph-N2-BF4-B3LYPG-6-31G_dp-MTMO-d009-169-n800
 OpenBabel09051907443D

 18 16  0  0  0  0  0  0  0  0999 V2000
   -1.5585   -0.2457    0.9075 C   0  0  0  0  0  0  0  0  0  0  0  0
   -0.2124    0.0292    1.1584 C   0  0  0  0  0  0  0  0  0  0  0  0
    0.2650    1.2905    0.8307 C   0  0  0  0  0  0  0  0  0  0  0  0
   -0.5290    2.2800    0.2682 C   0  0  0  0  0  0  0  0  0  0  0  0
   -1.8726    1.9857    0.0265 C   0  0  0  0  0  0  0  0  0  0  0  0
   -2.3883    0.7268    0.3442 C   0  0  0  0  0  0  0  0  0  0  0  0
   -1.9561   -1.2253    1.1547 H   0  0  0  0  0  0  0  0  0  0  0  0
    0.4564   -0.7058    1.5905 H   0  0  0  0  0  0  0  0  0  0  0  0
   -0.0993    3.2469    0.0314 H   0  0  0  0  0  0  0  0  0  0  0  0
   -2.5144    2.7442   -0.4114 H   0  0  0  0  0  0  0  0  0  0  0  0
    4.9865    2.3006   -2.3939 N   0  0  0  0  0  0  0  0  0  0  0  0
    5.3428    1.3181   -2.0349 N   0  0  0  0  0  0  0  0  0  0  0  0
    3.3707    0.0837    0.5825 B   0  0  0  0  0  0  0  0  0  0  0  0
    2.9544   -0.0605   -0.6627 F   0  0  0  0  0  0  0  0  0  0  0  0
    4.2604    1.0102    0.8824 F   0  0  0  0  0  0  0  0  0  0  0  0
    1.5788    1.5815    1.0763 F   0  0  0  0  0  0  0  0  0  0  0  0
    2.9888   -0.7876    1.5043 F   0  0  0  0  0  0  0  0  0  0  0  0
   -3.4329    0.5036    0.1513 H   0  0  0  0  0  0  0  0  0  0  0  0
  1  7  1  0  0  0  0
  1  2  1  0  0  0  0
  2  8  1  0  0  0  0
  3 16  1  0  0  0  0
  3  2  2  0  0  0  0
  4  3  1  0  0  0  0
  5  4  2  0  0  0  0
  5  6  1  0  0  0  0
  6  1  2  0  0  0  0
  9  4  1  0  0  0  0
 10  5  1  0  0  0  0
 11 12  3  0  0  0  0
 13 15  1  0  0  0  0
 13 17  1  0  0  0  0
 14 13  1  0  0  0  0
 18  6  1  0  0  0  0
M  END
