Coordinates from ORCA-job Ph-N2-BF4-B3LYPG-6-31G_dp-MTMO-d009-169-n800
 OpenBabel09051907443D

 18 16  0  0  0  0  0  0  0  0999 V2000
   -1.5608   -0.2225    0.9360 C   0  0  0  0  0  0  0  0  0  0  0  0
   -0.2079    0.0346    1.1690 C   0  0  0  0  0  0  0  0  0  0  0  0
    0.2898    1.2763    0.8001 C   0  0  0  0  0  0  0  0  0  0  0  0
   -0.4902    2.2631    0.2139 C   0  0  0  0  0  0  0  0  0  0  0  0
   -1.8407    1.9869   -0.0094 C   0  0  0  0  0  0  0  0  0  0  0  0
   -2.3770    0.7478    0.3496 C   0  0  0  0  0  0  0  0  0  0  0  0
   -1.9739   -1.1869    1.2153 H   0  0  0  0  0  0  0  0  0  0  0  0
    0.4497   -0.7002    1.6181 H   0  0  0  0  0  0  0  0  0  0  0  0
   -0.0444    3.2144   -0.0547 H   0  0  0  0  0  0  0  0  0  0  0  0
   -2.4715    2.7440   -0.4653 H   0  0  0  0  0  0  0  0  0  0  0  0
    4.7869    2.4142   -2.3117 N   0  0  0  0  0  0  0  0  0  0  0  0
    5.2705    1.4637   -2.0219 N   0  0  0  0  0  0  0  0  0  0  0  0
    3.3837    0.0107    0.5973 B   0  0  0  0  0  0  0  0  0  0  0  0
    2.9878   -0.1531   -0.6520 F   0  0  0  0  0  0  0  0  0  0  0  0
    4.2816    0.9302    0.8943 F   0  0  0  0  0  0  0  0  0  0  0  0
    1.6108    1.5503    1.0265 F   0  0  0  0  0  0  0  0  0  0  0  0
    2.9729   -0.8359    1.5300 F   0  0  0  0  0  0  0  0  0  0  0  0
   -3.4269    0.5383    0.1708 H   0  0  0  0  0  0  0  0  0  0  0  0
  1  2  1  0  0  0  0
  1  7  1  0  0  0  0
  2  8  1  0  0  0  0
  3 16  1  0  0  0  0
  3  2  2  0  0  0  0
  4  3  1  0  0  0  0
  5  4  2  0  0  0  0
  5  6  1  0  0  0  0
  6  1  2  0  0  0  0
  9  4  1  0  0  0  0
 10  5  1  0  0  0  0
 11 12  3  0  0  0  0
 13 15  1  0  0  0  0
 13 17  1  0  0  0  0
 14 13  1  0  0  0  0
 18  6  1  0  0  0  0
M  END
