Coordinates from ORCA-job Ph-N2-BF4-B3LYPG-6-31G_dp-MTMO-d009-169-n800
 OpenBabel09051907443D

 18 16  0  0  0  0  0  0  0  0999 V2000
   -2.1835   -0.2172    0.5001 C   0  0  0  0  0  0  0  0  0  0  0  0
   -0.8645    0.2348    0.5791 C   0  0  0  0  0  0  0  0  0  0  0  0
   -0.6464    1.5227    1.0477 C   0  0  0  0  0  0  0  0  0  0  0  0
   -1.6722    2.3733    1.4348 C   0  0  0  0  0  0  0  0  0  0  0  0
   -2.9841    1.9023    1.3489 C   0  0  0  0  0  0  0  0  0  0  0  0
   -3.2414    0.6108    0.8831 C   0  0  0  0  0  0  0  0  0  0  0  0
   -2.3813   -1.2206    0.1360 H   0  0  0  0  0  0  0  0  0  0  0  0
   -0.0240   -0.3820    0.2845 H   0  0  0  0  0  0  0  0  0  0  0  0
   -1.4398    3.3703    1.7920 H   0  0  0  0  0  0  0  0  0  0  0  0
   -3.8037    2.5488    1.6468 H   0  0  0  0  0  0  0  0  0  0  0  0
   13.0800   -2.0206   -2.0789 N   0  0  0  0  0  0  0  0  0  0  0  0
   12.1004   -1.5377   -2.2491 N   0  0  0  0  0  0  0  0  0  0  0  0
    2.3093    1.6721   -0.5465 B   0  0  0  0  0  0  0  0  0  0  0  0
    1.5559    2.2644   -1.4543 F   0  0  0  0  0  0  0  0  0  0  0  0
    3.1803    2.3713    0.1546 F   0  0  0  0  0  0  0  0  0  0  0  0
    0.6390    1.9806    1.1412 F   0  0  0  0  0  0  0  0  0  0  0  0
    2.2801    0.3520   -0.4323 F   0  0  0  0  0  0  0  0  0  0  0  0
   -4.2635    0.2507    0.8181 H   0  0  0  0  0  0  0  0  0  0  0  0
  1  2  2  0  0  0  0
  1  6  1  0  0  0  0
  2  3  1  0  0  0  0
  3 16  1  0  0  0  0
  3  4  2  0  0  0  0
  4  9  1  0  0  0  0
  5  4  1  0  0  0  0
  5 10  1  0  0  0  0
  6  5  2  0  0  0  0
  7  1  1  0  0  0  0
  8  2  1  0  0  0  0
 12 11  3  0  0  0  0
 13 17  1  0  0  0  0
 13 15  1  0  0  0  0
 14 13  1  0  0  0  0
 18  6  1  0  0  0  0
M  END
