Coordinates from ORCA-job Ph-N2-BF4-B3LYPG-6-31G_dp-MTMO-d009-169-n800
 OpenBabel09051907443D

 18 16  0  0  0  0  0  0  0  0999 V2000
   -1.8070   -0.2961    0.4225 C   0  0  0  0  0  0  0  0  0  0  0  0
   -0.4906    0.1546    0.5421 C   0  0  0  0  0  0  0  0  0  0  0  0
   -0.2869    1.4532    0.9871 C   0  0  0  0  0  0  0  0  0  0  0  0
   -1.3241    2.3153    1.3132 C   0  0  0  0  0  0  0  0  0  0  0  0
   -2.6332    1.8452    1.1878 C   0  0  0  0  0  0  0  0  0  0  0  0
   -2.8763    0.5434    0.7436 C   0  0  0  0  0  0  0  0  0  0  0  0
   -1.9936   -1.3076    0.0751 H   0  0  0  0  0  0  0  0  0  0  0  0
    0.3585   -0.4716    0.2962 H   0  0  0  0  0  0  0  0  0  0  0  0
   -1.1025    3.3201    1.6552 H   0  0  0  0  0  0  0  0  0  0  0  0
   -3.4617    2.5006    1.4381 H   0  0  0  0  0  0  0  0  0  0  0  0
   10.0628   -1.3202   -1.5568 N   0  0  0  0  0  0  0  0  0  0  0  0
    9.1054   -0.8233   -1.7978 N   0  0  0  0  0  0  0  0  0  0  0  0
    2.7249    1.5253   -0.4945 B   0  0  0  0  0  0  0  0  0  0  0  0
    1.9933    2.0482   -1.4610 F   0  0  0  0  0  0  0  0  0  0  0  0
    3.5647    2.2792    0.1874 F   0  0  0  0  0  0  0  0  0  0  0  0
    0.9953    1.9107    1.1184 F   0  0  0  0  0  0  0  0  0  0  0  0
    2.7074    0.2147   -0.2975 F   0  0  0  0  0  0  0  0  0  0  0  0
   -3.8962    0.1844    0.6469 H   0  0  0  0  0  0  0  0  0  0  0  0
  1  2  2  0  0  0  0
  1  6  1  0  0  0  0
  2  3  1  0  0  0  0
  3 16  1  0  0  0  0
  3  4  2  0  0  0  0
  4  9  1  0  0  0  0
  5  4  1  0  0  0  0
  5 10  1  0  0  0  0
  6  5  2  0  0  0  0
  7  1  1  0  0  0  0
  8  2  1  0  0  0  0
 12 11  3  0  0  0  0
 13 17  1  0  0  0  0
 13 15  1  0  0  0  0
 14 13  1  0  0  0  0
 18  6  1  0  0  0  0
M  END
