Coordinates from ORCA-job Ph-N2-BF4-B3LYPG-6-31G_dp-MTMO-d009-169-n800
 OpenBabel09051907443D

 18 16  0  0  0  0  0  0  0  0999 V2000
   -1.8108   -0.2953    0.4232 C   0  0  0  0  0  0  0  0  0  0  0  0
   -0.4945    0.1558    0.5423 C   0  0  0  0  0  0  0  0  0  0  0  0
   -0.2910    1.4543    0.9877 C   0  0  0  0  0  0  0  0  0  0  0  0
   -1.3284    2.3159    1.3147 C   0  0  0  0  0  0  0  0  0  0  0  0
   -2.6373    1.8453    1.1899 C   0  0  0  0  0  0  0  0  0  0  0  0
   -2.8802    0.5437    0.7453 C   0  0  0  0  0  0  0  0  0  0  0  0
   -1.9972   -1.3067    0.0754 H   0  0  0  0  0  0  0  0  0  0  0  0
    0.3547   -0.4700    0.2956 H   0  0  0  0  0  0  0  0  0  0  0  0
   -1.1069    3.3206    1.6570 H   0  0  0  0  0  0  0  0  0  0  0  0
   -3.4659    2.5004    1.4409 H   0  0  0  0  0  0  0  0  0  0  0  0
   10.0968   -1.3292   -1.5632 N   0  0  0  0  0  0  0  0  0  0  0  0
    9.1386   -0.8329   -1.8021 N   0  0  0  0  0  0  0  0  0  0  0  0
    2.7203    1.5279   -0.4951 B   0  0  0  0  0  0  0  0  0  0  0  0
    1.9883    2.0510   -1.4612 F   0  0  0  0  0  0  0  0  0  0  0  0
    3.5601    2.2816    0.1868 F   0  0  0  0  0  0  0  0  0  0  0  0
    0.9911    1.9122    1.1185 F   0  0  0  0  0  0  0  0  0  0  0  0
    2.7030    0.2172   -0.2987 F   0  0  0  0  0  0  0  0  0  0  0  0
   -3.9001    0.1843    0.6489 H   0  0  0  0  0  0  0  0  0  0  0  0
  1  2  2  0  0  0  0
  1  6  1  0  0  0  0
  2  3  1  0  0  0  0
  3 16  1  0  0  0  0
  3  4  2  0  0  0  0
  4  9  1  0  0  0  0
  5  4  1  0  0  0  0
  5 10  1  0  0  0  0
  6  5  2  0  0  0  0
  7  1  1  0  0  0  0
  8  2  1  0  0  0  0
 12 11  3  0  0  0  0
 13 17  1  0  0  0  0
 13 15  1  0  0  0  0
 14 13  1  0  0  0  0
 18  6  1  0  0  0  0
M  END
