Coordinates from ORCA-job Ph-N2-BF4-B3LYPG-6-31G_dp-MTMO-d009-169-n800
 OpenBabel09051907443D

 18 16  0  0  0  0  0  0  0  0999 V2000
   -1.6641   -0.3291    0.4259 C   0  0  0  0  0  0  0  0  0  0  0  0
   -0.3779    0.1229    0.7284 C   0  0  0  0  0  0  0  0  0  0  0  0
   -0.2143    1.4697    1.0207 C   0  0  0  0  0  0  0  0  0  0  0  0
   -1.2635    2.3778    1.0246 C   0  0  0  0  0  0  0  0  0  0  0  0
   -2.5423    1.9057    0.7211 C   0  0  0  0  0  0  0  0  0  0  0  0
   -2.7444    0.5565    0.4216 C   0  0  0  0  0  0  0  0  0  0  0  0
   -1.8181   -1.3779    0.1909 H   0  0  0  0  0  0  0  0  0  0  0  0
    0.4799   -0.5391    0.7374 H   0  0  0  0  0  0  0  0  0  0  0  0
   -1.0747    3.4189    1.2625 H   0  0  0  0  0  0  0  0  0  0  0  0
   -3.3798    2.5967    0.7185 H   0  0  0  0  0  0  0  0  0  0  0  0
    8.8137   -0.7596   -2.4660 N   0  0  0  0  0  0  0  0  0  0  0  0
    7.8491   -0.5108   -1.9871 N   0  0  0  0  0  0  0  0  0  0  0  0
    3.0447    1.2664    0.1889 B   0  0  0  0  0  0  0  0  0  0  0  0
    2.5495    1.6181   -0.9831 F   0  0  0  0  0  0  0  0  0  0  0  0
    3.7548    2.1236    0.8959 F   0  0  0  0  0  0  0  0  0  0  0  0
    1.0364    1.9299    1.3258 F   0  0  0  0  0  0  0  0  0  0  0  0
    2.9319    0.0102    0.5956 F   0  0  0  0  0  0  0  0  0  0  0  0
   -3.7405    0.1963    0.1841 H   0  0  0  0  0  0  0  0  0  0  0  0
  1  2  1  0  0  0  0
  2  8  1  0  0  0  0
  2  3  2  0  0  0  0
  3  4  1  0  0  0  0
  3 16  1  0  0  0  0
  4  9  1  0  0  0  0
  5  4  2  0  0  0  0
  6  1  2  0  0  0  0
  6  5  1  0  0  0  0
  7  1  1  0  0  0  0
 10  5  1  0  0  0  0
 11 12  3  0  0  0  0
 13 17  1  0  0  0  0
 13 15  1  0  0  0  0
 14 13  1  0  0  0  0
 18  6  1  0  0  0  0
M  END
