Coordinates from ORCA-job Ph-N2-BF4-B3LYPG-6-31G_dp-MTMO-d009-169-n800
 OpenBabel09051907443D

 18 16  0  0  0  0  0  0  0  0999 V2000
   -1.5581   -0.0870    1.0758 C   0  0  0  0  0  0  0  0  0  0  0  0
   -0.1826    0.0879    1.2435 C   0  0  0  0  0  0  0  0  0  0  0  0
    0.4022    1.2137    0.6812 C   0  0  0  0  0  0  0  0  0  0  0  0
   -0.3129    2.1624   -0.0359 C   0  0  0  0  0  0  0  0  0  0  0  0
   -1.6872    1.9696   -0.1917 C   0  0  0  0  0  0  0  0  0  0  0  0
   -2.3105    0.8485    0.3617 C   0  0  0  0  0  0  0  0  0  0  0  0
   -2.0393   -0.9608    1.5048 H   0  0  0  0  0  0  0  0  0  0  0  0
    0.4284   -0.6239    1.7857 H   0  0  0  0  0  0  0  0  0  0  0  0
    0.2009    3.0207   -0.4544 H   0  0  0  0  0  0  0  0  0  0  0  0
   -2.2685    2.6988   -0.7482 H   0  0  0  0  0  0  0  0  0  0  0  0
    3.9526    2.4421   -1.5397 N   0  0  0  0  0  0  0  0  0  0  0  0
    4.8378    2.4221   -2.2010 N   0  0  0  0  0  0  0  0  0  0  0  0
    3.4303   -0.2823    0.6142 B   0  0  0  0  0  0  0  0  0  0  0  0
    3.1168   -0.4863   -0.6518 F   0  0  0  0  0  0  0  0  0  0  0  0
    4.3765    0.5801    0.9328 F   0  0  0  0  0  0  0  0  0  0  0  0
    1.7469    1.4073    0.8397 F   0  0  0  0  0  0  0  0  0  0  0  0
    2.8861   -1.0402    1.5549 F   0  0  0  0  0  0  0  0  0  0  0  0
   -3.3789    0.7033    0.2344 H   0  0  0  0  0  0  0  0  0  0  0  0
  1  2  1  0  0  0  0
  1  7  1  0  0  0  0
  2  8  1  0  0  0  0
  3 16  1  0  0  0  0
  3  2  2  0  0  0  0
  4  3  1  0  0  0  0
  5  4  2  0  0  0  0
  5  6  1  0  0  0  0
  6  1  2  0  0  0  0
  9  4  1  0  0  0  0
 10  5  1  0  0  0  0
 12 11  3  0  0  0  0
 13 15  1  0  0  0  0
 13 17  1  0  0  0  0
 14 13  1  0  0  0  0
 18  6  1  0  0  0  0
M  END
