Coordinates from ORCA-job Ph-N2-BF4-B3LYPG-6-31G_dp-MTMO-d009-169-n800
 OpenBabel09051907443D

 18 16  0  0  0  0  0  0  0  0999 V2000
   -2.1577   -0.2214    0.4938 C   0  0  0  0  0  0  0  0  0  0  0  0
   -0.8390    0.2309    0.5777 C   0  0  0  0  0  0  0  0  0  0  0  0
   -0.6233    1.5193    1.0459 C   0  0  0  0  0  0  0  0  0  0  0  0
   -1.6508    2.3700    1.4281 C   0  0  0  0  0  0  0  0  0  0  0  0
   -2.9622    1.8986    1.3374 C   0  0  0  0  0  0  0  0  0  0  0  0
   -3.2173    0.6066    0.8717 C   0  0  0  0  0  0  0  0  0  0  0  0
   -2.3536   -1.2252    0.1298 H   0  0  0  0  0  0  0  0  0  0  0  0
    0.0025   -0.3863    0.2871 H   0  0  0  0  0  0  0  0  0  0  0  0
   -1.4200    3.3674    1.7853 H   0  0  0  0  0  0  0  0  0  0  0  0
   -3.7832    2.5453    1.6315 H   0  0  0  0  0  0  0  0  0  0  0  0
   12.8892   -1.9776   -2.0493 N   0  0  0  0  0  0  0  0  0  0  0  0
   11.9103   -1.4938   -2.2204 N   0  0  0  0  0  0  0  0  0  0  0  0
    2.3336    1.6618   -0.5418 B   0  0  0  0  0  0  0  0  0  0  0  0
    1.5794    2.2451   -1.4548 F   0  0  0  0  0  0  0  0  0  0  0  0
    3.2022    2.3685    0.1546 F   0  0  0  0  0  0  0  0  0  0  0  0
    0.6616    1.9778    1.1440 F   0  0  0  0  0  0  0  0  0  0  0  0
    2.3075    0.3426   -0.4174 F   0  0  0  0  0  0  0  0  0  0  0  0
   -4.2390    0.2462    0.8028 H   0  0  0  0  0  0  0  0  0  0  0  0
  1  2  2  0  0  0  0
  1  6  1  0  0  0  0
  2  3  1  0  0  0  0
  3 16  1  0  0  0  0
  3  4  2  0  0  0  0
  4  9  1  0  0  0  0
  5  4  1  0  0  0  0
  5 10  1  0  0  0  0
  6  5  2  0  0  0  0
  7  1  1  0  0  0  0
  8  2  1  0  0  0  0
 12 11  3  0  0  0  0
 13 17  1  0  0  0  0
 13 15  1  0  0  0  0
 14 13  1  0  0  0  0
 18  6  1  0  0  0  0
M  END
