Coordinates from ORCA-job Ph-N2-BF4-B3LYPG-6-31G_dp-MTMO-d009-169-n800
 OpenBabel09051907443D

 18 16  0  0  0  0  0  0  0  0999 V2000
   -2.1781   -0.2184    0.4994 C   0  0  0  0  0  0  0  0  0  0  0  0
   -0.8598    0.2354    0.5800 C   0  0  0  0  0  0  0  0  0  0  0  0
   -0.6442    1.5237    1.0487 C   0  0  0  0  0  0  0  0  0  0  0  0
   -1.6716    2.3729    1.4344 C   0  0  0  0  0  0  0  0  0  0  0  0
   -2.9827    1.9000    1.3470 C   0  0  0  0  0  0  0  0  0  0  0  0
   -3.2376    0.6081    0.8811 C   0  0  0  0  0  0  0  0  0  0  0  0
   -2.3739   -1.2221    0.1353 H   0  0  0  0  0  0  0  0  0  0  0  0
   -0.0184   -0.3805    0.2864 H   0  0  0  0  0  0  0  0  0  0  0  0
   -1.4409    3.3702    1.7918 H   0  0  0  0  0  0  0  0  0  0  0  0
   -3.8036    2.5455    1.6439 H   0  0  0  0  0  0  0  0  0  0  0  0
   13.0609   -2.0214   -2.0764 N   0  0  0  0  0  0  0  0  0  0  0  0
   12.0819   -1.5376   -2.2473 N   0  0  0  0  0  0  0  0  0  0  0  0
    2.3097    1.6747   -0.5461 B   0  0  0  0  0  0  0  0  0  0  0  0
    1.5563    2.2664   -1.4543 F   0  0  0  0  0  0  0  0  0  0  0  0
    3.1805    2.3742    0.1548 F   0  0  0  0  0  0  0  0  0  0  0  0
    0.6405    1.9835    1.1437 F   0  0  0  0  0  0  0  0  0  0  0  0
    2.2806    0.3546   -0.4312 F   0  0  0  0  0  0  0  0  0  0  0  0
   -4.2591    0.2466    0.8148 H   0  0  0  0  0  0  0  0  0  0  0  0
  1  2  2  0  0  0  0
  1  6  1  0  0  0  0
  2  3  1  0  0  0  0
  3 16  1  0  0  0  0
  3  4  2  0  0  0  0
  4  9  1  0  0  0  0
  5  4  1  0  0  0  0
  5 10  1  0  0  0  0
  6  5  2  0  0  0  0
  7  1  1  0  0  0  0
  8  2  1  0  0  0  0
 12 11  3  0  0  0  0
 13 17  1  0  0  0  0
 13 15  1  0  0  0  0
 14 13  1  0  0  0  0
 18  6  1  0  0  0  0
M  END
