Coordinates from ORCA-job Ph-N2-BF4-B3LYPG-6-31G_dp-MTMO-d009-169-n800
 OpenBabel09051907443D

 18 16  0  0  0  0  0  0  0  0999 V2000
   -2.3547   -0.1847    0.5404 C   0  0  0  0  0  0  0  0  0  0  0  0
   -1.0367    0.2739    0.5950 C   0  0  0  0  0  0  0  0  0  0  0  0
   -0.8156    1.5594    1.0689 C   0  0  0  0  0  0  0  0  0  0  0  0
   -1.8377    2.4015    1.4837 C   0  0  0  0  0  0  0  0  0  0  0  0
   -3.1485    1.9240    1.4217 C   0  0  0  0  0  0  0  0  0  0  0  0
   -3.4086    0.6345    0.9519 C   0  0  0  0  0  0  0  0  0  0  0  0
   -2.5547   -1.1865    0.1733 H   0  0  0  0  0  0  0  0  0  0  0  0
   -0.1993   -0.3358    0.2777 H   0  0  0  0  0  0  0  0  0  0  0  0
   -1.6031    3.3971    1.8433 H   0  0  0  0  0  0  0  0  0  0  0  0
   -3.9652    2.5639    1.7415 H   0  0  0  0  0  0  0  0  0  0  0  0
   14.4547   -2.3467   -2.3048 N   0  0  0  0  0  0  0  0  0  0  0  0
   13.4724   -1.8700   -2.4762 N   0  0  0  0  0  0  0  0  0  0  0  0
    2.1276    1.7448   -0.5656 B   0  0  0  0  0  0  0  0  0  0  0  0
    1.3857    2.3867   -1.4487 F   0  0  0  0  0  0  0  0  0  0  0  0
    3.0117    2.3992    0.1620 F   0  0  0  0  0  0  0  0  0  0  0  0
    0.4689    2.0235    1.1393 F   0  0  0  0  0  0  0  0  0  0  0  0
    2.0735    0.4219   -0.5035 F   0  0  0  0  0  0  0  0  0  0  0  0
   -4.4299    0.2692    0.9061 H   0  0  0  0  0  0  0  0  0  0  0  0
  1  2  2  0  0  0  0
  1  6  1  0  0  0  0
  2  3  1  0  0  0  0
  3 16  1  0  0  0  0
  3  4  2  0  0  0  0
  4  9  1  0  0  0  0
  5  4  1  0  0  0  0
  5 10  1  0  0  0  0
  6  5  2  0  0  0  0
  7  1  1  0  0  0  0
  8  2  1  0  0  0  0
 12 11  3  0  0  0  0
 13 17  1  0  0  0  0
 13 15  1  0  0  0  0
 14 13  1  0  0  0  0
 18  6  1  0  0  0  0
M  END
