Coordinates from ORCA-job Ph-N2-BF4-B3LYPG-6-31G_dp-MTMO-d009-169-n800
 OpenBabel09051907443D

 18 16  0  0  0  0  0  0  0  0999 V2000
   -1.8824   -0.2801    0.4362 C   0  0  0  0  0  0  0  0  0  0  0  0
   -0.5669    0.1759    0.5458 C   0  0  0  0  0  0  0  0  0  0  0  0
   -0.3646    1.4716    0.9995 C   0  0  0  0  0  0  0  0  0  0  0  0
   -1.4024    2.3259    1.3438 C   0  0  0  0  0  0  0  0  0  0  0  0
   -2.7105    1.8507    1.2282 C   0  0  0  0  0  0  0  0  0  0  0  0
   -2.9522    0.5515    0.7756 C   0  0  0  0  0  0  0  0  0  0  0  0
   -2.0678   -1.2895    0.0823 H   0  0  0  0  0  0  0  0  0  0  0  0
    0.2824   -0.4443    0.2857 H   0  0  0  0  0  0  0  0  0  0  0  0
   -1.1819    3.3289    1.6919 H   0  0  0  0  0  0  0  0  0  0  0  0
   -3.5394    2.5001    1.4927 H   0  0  0  0  0  0  0  0  0  0  0  0
   10.7138   -1.4867   -1.6714 N   0  0  0  0  0  0  0  0  0  0  0  0
    9.7448   -0.9981   -1.8811 N   0  0  0  0  0  0  0  0  0  0  0  0
    2.6330    1.5701   -0.5106 B   0  0  0  0  0  0  0  0  0  0  0  0
    1.8920    2.1007   -1.4656 F   0  0  0  0  0  0  0  0  0  0  0  0
    3.4766    2.3193    0.1718 F   0  0  0  0  0  0  0  0  0  0  0  0
    0.9168    1.9342    1.1214 F   0  0  0  0  0  0  0  0  0  0  0  0
    2.6206    0.2575   -0.3268 F   0  0  0  0  0  0  0  0  0  0  0  0
   -3.9714    0.1884    0.6866 H   0  0  0  0  0  0  0  0  0  0  0  0
  1  2  2  0  0  0  0
  1  6  1  0  0  0  0
  2  3  1  0  0  0  0
  3 16  1  0  0  0  0
  3  4  2  0  0  0  0
  4  9  1  0  0  0  0
  5  4  1  0  0  0  0
  5 10  1  0  0  0  0
  6  5  2  0  0  0  0
  7  1  1  0  0  0  0
  8  2  1  0  0  0  0
 12 11  3  0  0  0  0
 13 17  1  0  0  0  0
 13 15  1  0  0  0  0
 14 13  1  0  0  0  0
 18  6  1  0  0  0  0
M  END
