Coordinates from ORCA-job Ph-N2-BF4-B3LYPG-6-31G_dp-MTMO-d009-169-n800
 OpenBabel09051907443D

 18 16  0  0  0  0  0  0  0  0999 V2000
   -2.1903   -0.2168    0.5030 C   0  0  0  0  0  0  0  0  0  0  0  0
   -0.8722    0.2382    0.5810 C   0  0  0  0  0  0  0  0  0  0  0  0
   -0.6567    1.5263    1.0500 C   0  0  0  0  0  0  0  0  0  0  0  0
   -1.6841    2.3744    1.4385 C   0  0  0  0  0  0  0  0  0  0  0  0
   -2.9950    1.9004    1.3536 C   0  0  0  0  0  0  0  0  0  0  0  0
   -3.2497    0.6085    0.8874 C   0  0  0  0  0  0  0  0  0  0  0  0
   -2.3859   -1.2205    0.1387 H   0  0  0  0  0  0  0  0  0  0  0  0
   -0.0308   -0.3768    0.2852 H   0  0  0  0  0  0  0  0  0  0  0  0
   -1.4535    3.3717    1.7959 H   0  0  0  0  0  0  0  0  0  0  0  0
   -3.8158    2.5450    1.6526 H   0  0  0  0  0  0  0  0  0  0  0  0
   13.1639   -2.0487   -2.0916 N   0  0  0  0  0  0  0  0  0  0  0  0
   12.1851   -1.5646   -2.2626 N   0  0  0  0  0  0  0  0  0  0  0  0
    2.2951    1.6835   -0.5498 B   0  0  0  0  0  0  0  0  0  0  0  0
    1.5425    2.2815   -1.4545 F   0  0  0  0  0  0  0  0  0  0  0  0
    3.1674    2.3777    0.1546 F   0  0  0  0  0  0  0  0  0  0  0  0
    0.6277    1.9872    1.1427 F   0  0  0  0  0  0  0  0  0  0  0  0
    2.2637    0.3629   -0.4421 F   0  0  0  0  0  0  0  0  0  0  0  0
   -4.2710    0.2461    0.8232 H   0  0  0  0  0  0  0  0  0  0  0  0
  1  2  2  0  0  0  0
  1  6  1  0  0  0  0
  2  3  1  0  0  0  0
  3 16  1  0  0  0  0
  3  4  2  0  0  0  0
  4  9  1  0  0  0  0
  5  4  1  0  0  0  0
  5 10  1  0  0  0  0
  6  5  2  0  0  0  0
  7  1  1  0  0  0  0
  8  2  1  0  0  0  0
 12 11  3  0  0  0  0
 13 17  1  0  0  0  0
 13 15  1  0  0  0  0
 14 13  1  0  0  0  0
 18  6  1  0  0  0  0
M  END
