Coordinates from ORCA-job Ph-N2-BF4-B3LYPG-6-31G_dp-MTMO-d009-169-n800
 OpenBabel09051907443D

 18 16  0  0  0  0  0  0  0  0999 V2000
   -1.5187   -0.0868    1.0073 C   0  0  0  0  0  0  0  0  0  0  0  0
   -0.1540    0.0827    1.2507 C   0  0  0  0  0  0  0  0  0  0  0  0
    0.4603    1.2185    0.7424 C   0  0  0  0  0  0  0  0  0  0  0  0
   -0.2150    2.1821    0.0070 C   0  0  0  0  0  0  0  0  0  0  0  0
   -1.5792    1.9946   -0.2245 C   0  0  0  0  0  0  0  0  0  0  0  0
   -2.2317    0.8639    0.2731 C   0  0  0  0  0  0  0  0  0  0  0  0
   -2.0224   -0.9680    1.3931 H   0  0  0  0  0  0  0  0  0  0  0  0
    0.4278   -0.6403    1.8101 H   0  0  0  0  0  0  0  0  0  0  0  0
    0.3212    3.0467   -0.3679 H   0  0  0  0  0  0  0  0  0  0  0  0
   -2.1302    2.7353   -0.7965 H   0  0  0  0  0  0  0  0  0  0  0  0
    3.5767    2.4132   -1.5410 N   0  0  0  0  0  0  0  0  0  0  0  0
    4.3730    2.4162   -2.3072 N   0  0  0  0  0  0  0  0  0  0  0  0
    3.4359   -0.3020    0.6772 B   0  0  0  0  0  0  0  0  0  0  0  0
    3.0599   -0.5051   -0.5725 F   0  0  0  0  0  0  0  0  0  0  0  0
    4.4106    0.5449    0.9467 F   0  0  0  0  0  0  0  0  0  0  0  0
    1.7948    1.4054    0.9770 F   0  0  0  0  0  0  0  0  0  0  0  0
    2.9232   -1.0482    1.6444 F   0  0  0  0  0  0  0  0  0  0  0  0
   -3.2918    0.7230    0.0865 H   0  0  0  0  0  0  0  0  0  0  0  0
  1  2  1  0  0  0  0
  1  7  1  0  0  0  0
  2  8  1  0  0  0  0
  3 16  1  0  0  0  0
  3  2  2  0  0  0  0
  4  3  1  0  0  0  0
  5  4  2  0  0  0  0
  5  6  1  0  0  0  0
  6  1  2  0  0  0  0
  9  4  1  0  0  0  0
 10  5  1  0  0  0  0
 12 11  3  0  0  0  0
 13 15  1  0  0  0  0
 13 17  1  0  0  0  0
 14 13  1  0  0  0  0
 18  6  1  0  0  0  0
M  END
