Coordinates from ORCA-job Ph-N2-BF4-B3LYPG-6-31G_dp-MTMO-d009-169-n800
 OpenBabel09051907443D

 18 16  0  0  0  0  0  0  0  0999 V2000
   -1.7809   -0.3079    0.5773 C   0  0  0  0  0  0  0  0  0  0  0  0
   -0.4530    0.1192    0.5060 C   0  0  0  0  0  0  0  0  0  0  0  0
   -0.1966    1.4745    0.6619 C   0  0  0  0  0  0  0  0  0  0  0  0
   -1.1947    2.4137    0.8826 C   0  0  0  0  0  0  0  0  0  0  0  0
   -2.5159    1.9663    0.9506 C   0  0  0  0  0  0  0  0  0  0  0  0
   -2.8107    0.6093    0.7985 C   0  0  0  0  0  0  0  0  0  0  0  0
   -2.0076   -1.3631    0.4569 H   0  0  0  0  0  0  0  0  0  0  0  0
    0.3664   -0.5683    0.3338 H   0  0  0  0  0  0  0  0  0  0  0  0
   -0.9336    3.4600    0.9981 H   0  0  0  0  0  0  0  0  0  0  0  0
   -3.3136    2.6824    1.1231 H   0  0  0  0  0  0  0  0  0  0  0  0
    8.6512   -0.1515   -1.7376 N   0  0  0  0  0  0  0  0  0  0  0  0
    7.5954   -0.0515   -1.4262 N   0  0  0  0  0  0  0  0  0  0  0  0
    3.2223    0.9166   -0.1348 B   0  0  0  0  0  0  0  0  0  0  0  0
    3.1712    1.5647   -1.2820 F   0  0  0  0  0  0  0  0  0  0  0  0
    3.8227    1.4538    0.9084 F   0  0  0  0  0  0  0  0  0  0  0  0
    1.0946    1.9147    0.5977 F   0  0  0  0  0  0  0  0  0  0  0  0
    2.7628   -0.3245   -0.0614 F   0  0  0  0  0  0  0  0  0  0  0  0
   -3.8397    0.2677    0.8529 H   0  0  0  0  0  0  0  0  0  0  0  0
  1  6  1  0  0  0  0
  2  1  2  0  0  0  0
  2  3  1  0  0  0  0
  3  4  2  0  0  0  0
  4  5  1  0  0  0  0
  4  9  1  0  0  0  0
  5 10  1  0  0  0  0
  6 18  1  0  0  0  0
  6  5  2  0  0  0  0
  7  1  1  0  0  0  0
  8  2  1  0  0  0  0
 11 12  3  0  0  0  0
 13 17  1  0  0  0  0
 13 15  1  0  0  0  0
 14 13  1  0  0  0  0
 16  3  1  0  0  0  0
M  END
