Coordinates from ORCA-job Ph-N2-BF4-B3LYPG-6-31G_dp-MTMO-d009-169-n800
 OpenBabel09051907443D

 18 16  0  0  0  0  0  0  0  0999 V2000
   -1.8120   -0.2954    0.4232 C   0  0  0  0  0  0  0  0  0  0  0  0
   -0.4950    0.1540    0.5411 C   0  0  0  0  0  0  0  0  0  0  0  0
   -0.2891    1.4523    0.9859 C   0  0  0  0  0  0  0  0  0  0  0  0
   -1.3252    2.3154    1.3135 C   0  0  0  0  0  0  0  0  0  0  0  0
   -2.6349    1.8466    1.1899 C   0  0  0  0  0  0  0  0  0  0  0  0
   -2.8800    0.5451    0.7459 C   0  0  0  0  0  0  0  0  0  0  0  0
   -2.0001   -1.3066    0.0760 H   0  0  0  0  0  0  0  0  0  0  0  0
    0.3534   -0.4728    0.2940 H   0  0  0  0  0  0  0  0  0  0  0  0
   -1.1022    3.3200    1.6553 H   0  0  0  0  0  0  0  0  0  0  0  0
   -3.4624    2.5028    1.4413 H   0  0  0  0  0  0  0  0  0  0  0  0
   10.0819   -1.3199   -1.5589 N   0  0  0  0  0  0  0  0  0  0  0  0
    9.1237   -0.8241   -1.7989 N   0  0  0  0  0  0  0  0  0  0  0  0
    2.7246    1.5242   -0.4952 B   0  0  0  0  0  0  0  0  0  0  0  0
    1.9928    2.0470   -1.4615 F   0  0  0  0  0  0  0  0  0  0  0  0
    3.5637    2.2784    0.1873 F   0  0  0  0  0  0  0  0  0  0  0  0
    0.9937    1.9084    1.1153 F   0  0  0  0  0  0  0  0  0  0  0  0
    2.7079    0.2135   -0.2987 F   0  0  0  0  0  0  0  0  0  0  0  0
   -3.9004    0.1872    0.6505 H   0  0  0  0  0  0  0  0  0  0  0  0
  1  2  2  0  0  0  0
  1  6  1  0  0  0  0
  2  3  1  0  0  0  0
  3 16  1  0  0  0  0
  3  4  2  0  0  0  0
  4  9  1  0  0  0  0
  5  4  1  0  0  0  0
  5 10  1  0  0  0  0
  6  5  2  0  0  0  0
  7  1  1  0  0  0  0
  8  2  1  0  0  0  0
 12 11  3  0  0  0  0
 13 17  1  0  0  0  0
 13 15  1  0  0  0  0
 14 13  1  0  0  0  0
 18  6  1  0  0  0  0
M  END
