Coordinates from ORCA-job Ph-N2-BF4-B3LYPG-6-31G_dp-MTMO-d009-169-n800
 OpenBabel09051907443D

 18 16  0  0  0  0  0  0  0  0999 V2000
   -1.5498   -0.0832    1.0677 C   0  0  0  0  0  0  0  0  0  0  0  0
   -0.1760    0.0898    1.2502 C   0  0  0  0  0  0  0  0  0  0  0  0
    0.4170    1.2137    0.6926 C   0  0  0  0  0  0  0  0  0  0  0  0
   -0.2887    2.1623   -0.0339 C   0  0  0  0  0  0  0  0  0  0  0  0
   -1.6614    1.9715   -0.2045 C   0  0  0  0  0  0  0  0  0  0  0  0
   -2.2928    0.8524    0.3438 C   0  0  0  0  0  0  0  0  0  0  0  0
   -2.0371   -0.9554    1.4929 H   0  0  0  0  0  0  0  0  0  0  0  0
    0.4279   -0.6222    1.8001 H   0  0  0  0  0  0  0  0  0  0  0  0
    0.2311    3.0190   -0.4482 H   0  0  0  0  0  0  0  0  0  0  0  0
   -2.2355    2.7006   -0.7685 H   0  0  0  0  0  0  0  0  0  0  0  0
    3.8650    2.4502   -1.5293 N   0  0  0  0  0  0  0  0  0  0  0  0
    4.7330    2.4410   -2.2132 N   0  0  0  0  0  0  0  0  0  0  0  0
    3.4299   -0.2942    0.6233 B   0  0  0  0  0  0  0  0  0  0  0  0
    3.1037   -0.4966   -0.6399 F   0  0  0  0  0  0  0  0  0  0  0  0
    4.3869    0.5595    0.9326 F   0  0  0  0  0  0  0  0  0  0  0  0
    1.7602    1.4053    0.8661 F   0  0  0  0  0  0  0  0  0  0  0  0
    2.8869   -1.0463    1.5693 F   0  0  0  0  0  0  0  0  0  0  0  0
   -3.3599    0.7086    0.2050 H   0  0  0  0  0  0  0  0  0  0  0  0
  1  2  1  0  0  0  0
  1  7  1  0  0  0  0
  2  8  1  0  0  0  0
  3 16  1  0  0  0  0
  3  2  2  0  0  0  0
  4  3  1  0  0  0  0
  5  4  2  0  0  0  0
  5  6  1  0  0  0  0
  6  1  2  0  0  0  0
  9  4  1  0  0  0  0
 10  5  1  0  0  0  0
 12 11  3  0  0  0  0
 13 15  1  0  0  0  0
 13 17  1  0  0  0  0
 14 13  1  0  0  0  0
 18  6  1  0  0  0  0
M  END
