Coordinates from ORCA-job Ph-N2-BF4-B3LYPG-6-31G_dp-MTMO-d009-169-n800
 OpenBabel09051907443D

 18 16  0  0  0  0  0  0  0  0999 V2000
   -1.2626   -0.0886    0.3142 C   0  0  0  0  0  0  0  0  0  0  0  0
    0.0734    0.0374    0.7012 C   0  0  0  0  0  0  0  0  0  0  0  0
    0.6202    1.3126    0.7477 C   0  0  0  0  0  0  0  0  0  0  0  0
   -0.1009    2.4560    0.4314 C   0  0  0  0  0  0  0  0  0  0  0  0
   -1.4352    2.3089    0.0477 C   0  0  0  0  0  0  0  0  0  0  0  0
   -2.0173    1.0403   -0.0129 C   0  0  0  0  0  0  0  0  0  0  0  0
   -1.7123   -1.0761    0.2696 H   0  0  0  0  0  0  0  0  0  0  0  0
    0.6815   -0.8195    0.9634 H   0  0  0  0  0  0  0  0  0  0  0  0
    0.3789    3.4270    0.4877 H   0  0  0  0  0  0  0  0  0  0  0  0
   -2.0177    3.1895   -0.2054 H   0  0  0  0  0  0  0  0  0  0  0  0
    2.2188    1.2690   -1.8878 N   0  0  0  0  0  0  0  0  0  0  0  0
    2.0309    1.1279   -2.9678 N   0  0  0  0  0  0  0  0  0  0  0  0
    3.8079   -0.1040    1.3221 B   0  0  0  0  0  0  0  0  0  0  0  0
    4.2107    0.0764    0.0786 F   0  0  0  0  0  0  0  0  0  0  0  0
    4.2874    0.6478    2.2926 F   0  0  0  0  0  0  0  0  0  0  0  0
    1.9221    1.4607    1.1285 F   0  0  0  0  0  0  0  0  0  0  0  0
    3.0089   -1.1216    1.6096 F   0  0  0  0  0  0  0  0  0  0  0  0
   -3.0543    0.9322   -0.3143 H   0  0  0  0  0  0  0  0  0  0  0  0
  1  2  2  0  0  0  0
  2  3  1  0  0  0  0
  2  8  1  0  0  0  0
  3 16  1  0  0  0  0
  4  9  1  0  0  0  0
  4  3  2  0  0  0  0
  5  4  1  0  0  0  0
  6  5  2  0  0  0  0
  6  1  1  0  0  0  0
  7  1  1  0  0  0  0
 10  5  1  0  0  0  0
 12 11  3  0  0  0  0
 13 17  1  0  0  0  0
 13 15  1  0  0  0  0
 14 13  1  0  0  0  0
 18  6  1  0  0  0  0
M  END
