Coordinates from ORCA-job Ph-N2-BF4-B3LYPG-6-31G_dp-MTMO-d009-169-n800
 OpenBabel09051907443D

 18 17  0  0  0  0  0  0  0  0999 V2000
   -0.9564   -0.0500    0.4619 C   0  0  0  0  0  0  0  0  0  0  0  0
    0.3424    0.1362    0.0121 C   0  0  0  0  0  0  0  0  0  0  0  0
    0.6943    1.4178   -0.4901 C   0  0  0  0  0  0  0  0  0  0  0  0
   -0.2443    2.4873   -0.5297 C   0  0  0  0  0  0  0  0  0  0  0  0
   -1.5259    2.2617   -0.0693 C   0  0  0  0  0  0  0  0  0  0  0  0
   -1.8812    0.9956    0.4247 C   0  0  0  0  0  0  0  0  0  0  0  0
   -1.2371   -1.0173    0.8633 H   0  0  0  0  0  0  0  0  0  0  0  0
    1.1078   -0.6291    0.0598 H   0  0  0  0  0  0  0  0  0  0  0  0
    0.0649    3.4547   -0.9104 H   0  0  0  0  0  0  0  0  0  0  0  0
   -2.2523    3.0668   -0.0868 H   0  0  0  0  0  0  0  0  0  0  0  0
    1.8393    1.6218   -0.9212 N   0  0  0  0  0  0  0  0  0  0  0  0
    2.8609    1.8123   -1.3324 N   0  0  0  0  0  0  0  0  0  0  0  0
    3.1724   -0.0712    1.3824 B   0  0  0  0  0  0  0  0  0  0  0  0
    3.1598   -0.4611   -0.0081 F   0  0  0  0  0  0  0  0  0  0  0  0
    4.3920   -0.3348    1.9496 F   0  0  0  0  0  0  0  0  0  0  0  0
    2.8732    1.3190    1.4017 F   0  0  0  0  0  0  0  0  0  0  0  0
    2.1211   -0.7655    2.0087 F   0  0  0  0  0  0  0  0  0  0  0  0
   -2.8904    0.8321    0.7898 H   0  0  0  0  0  0  0  0  0  0  0  0
  1  7  1  0  0  0  0
  2  8  1  0  0  0  0
  2  1  2  0  0  0  0
  3  2  1  0  0  0  0
  4  3  2  0  0  0  0
  4  5  1  0  0  0  0
  5  6  2  0  0  0  0
  6  1  1  0  0  0  0
  6 18  1  0  0  0  0
  9  4  1  0  0  0  0
 10  5  1  0  0  0  0
 11  3  1  0  0  0  0
 12 11  1  0  0  0  0
 13 16  1  0  0  0  0
 13 15  1  0  0  0  0
 13 17  1  0  0  0  0
 14 13  1  0  0  0  0
M  RAD  2  11   2  12   3
M  END
