Coordinates from ORCA-job Ph-N2-BF4-B3LYPG-6-31G_dp-MTMO-d009-169-n800
 OpenBabel09051907443D

 18 16  0  0  0  0  0  0  0  0999 V2000
   -2.0239   -0.2485    0.4630 C   0  0  0  0  0  0  0  0  0  0  0  0
   -0.7056    0.2026    0.5577 C   0  0  0  0  0  0  0  0  0  0  0  0
   -0.4926    1.4930    1.0217 C   0  0  0  0  0  0  0  0  0  0  0  0
   -1.5228    2.3467    1.3900 C   0  0  0  0  0  0  0  0  0  0  0  0
   -2.8339    1.8763    1.2890 C   0  0  0  0  0  0  0  0  0  0  0  0
   -3.0861    0.5826    0.8268 C   0  0  0  0  0  0  0  0  0  0  0  0
   -2.2176   -1.2538    0.1019 H   0  0  0  0  0  0  0  0  0  0  0  0
    0.1382   -0.4168    0.2786 H   0  0  0  0  0  0  0  0  0  0  0  0
   -1.2943    3.3455    1.7449 H   0  0  0  0  0  0  0  0  0  0  0  0
   -3.6568    2.5253    1.5722 H   0  0  0  0  0  0  0  0  0  0  0  0
   11.8066   -1.7271   -1.8552 N   0  0  0  0  0  0  0  0  0  0  0  0
   10.8296   -1.2436   -2.0382 N   0  0  0  0  0  0  0  0  0  0  0  0
    2.4816    1.6127   -0.5337 B   0  0  0  0  0  0  0  0  0  0  0  0
    1.7285    2.1667   -1.4656 F   0  0  0  0  0  0  0  0  0  0  0  0
    3.3389    2.3440    0.1512 F   0  0  0  0  0  0  0  0  0  0  0  0
    0.7918    1.9505    1.1295 F   0  0  0  0  0  0  0  0  0  0  0  0
    2.4665    0.2967   -0.3775 F   0  0  0  0  0  0  0  0  0  0  0  0
   -4.1075    0.2232    0.7495 H   0  0  0  0  0  0  0  0  0  0  0  0
  1  2  2  0  0  0  0
  1  6  1  0  0  0  0
  2  3  1  0  0  0  0
  3 16  1  0  0  0  0
  3  4  2  0  0  0  0
  4  9  1  0  0  0  0
  5  4  1  0  0  0  0
  5 10  1  0  0  0  0
  6  5  2  0  0  0  0
  7  1  1  0  0  0  0
  8  2  1  0  0  0  0
 12 11  3  0  0  0  0
 13 17  1  0  0  0  0
 13 15  1  0  0  0  0
 14 13  1  0  0  0  0
 18  6  1  0  0  0  0
M  END
