Coordinates from ORCA-job Ph-N2-BF4-B3LYPG-6-31G_dp-MTMO-d009-169-n800
 OpenBabel09051907443D

 18 16  0  0  0  0  0  0  0  0999 V2000
   -1.5038   -0.0899    0.9762 C   0  0  0  0  0  0  0  0  0  0  0  0
   -0.1424    0.0782    1.2377 C   0  0  0  0  0  0  0  0  0  0  0  0
    0.4761    1.2220    0.7529 C   0  0  0  0  0  0  0  0  0  0  0  0
   -0.1924    2.1951    0.0238 C   0  0  0  0  0  0  0  0  0  0  0  0
   -1.5536    2.0090   -0.2261 C   0  0  0  0  0  0  0  0  0  0  0  0
   -2.2099    0.8703    0.2475 C   0  0  0  0  0  0  0  0  0  0  0  0
   -2.0104   -0.9771    1.3438 H   0  0  0  0  0  0  0  0  0  0  0  0
    0.4340   -0.6516    1.7941 H   0  0  0  0  0  0  0  0  0  0  0  0
    0.3464    3.0660   -0.3324 H   0  0  0  0  0  0  0  0  0  0  0  0
   -2.0991    2.7571   -0.7936 H   0  0  0  0  0  0  0  0  0  0  0  0
    3.4586    2.3966   -1.5447 N   0  0  0  0  0  0  0  0  0  0  0  0
    4.2347    2.3875   -2.3313 N   0  0  0  0  0  0  0  0  0  0  0  0
    3.4443   -0.3054    0.7047 B   0  0  0  0  0  0  0  0  0  0  0  0
    3.0505   -0.5305   -0.5358 F   0  0  0  0  0  0  0  0  0  0  0  0
    4.4241    0.5444    0.9446 F   0  0  0  0  0  0  0  0  0  0  0  0
    1.8075    1.4066    1.0057 F   0  0  0  0  0  0  0  0  0  0  0  0
    2.9434   -1.0326    1.6921 F   0  0  0  0  0  0  0  0  0  0  0  0
   -3.2675    0.7304    0.0468 H   0  0  0  0  0  0  0  0  0  0  0  0
  1  2  1  0  0  0  0
  1  7  1  0  0  0  0
  2  8  1  0  0  0  0
  3 16  1  0  0  0  0
  3  2  2  0  0  0  0
  4  3  1  0  0  0  0
  5  4  2  0  0  0  0
  5  6  1  0  0  0  0
  6  1  2  0  0  0  0
  9  4  1  0  0  0  0
 10  5  1  0  0  0  0
 12 11  3  0  0  0  0
 13 15  1  0  0  0  0
 13 17  1  0  0  0  0
 14 13  1  0  0  0  0
 18  6  1  0  0  0  0
M  END
