Coordinates from ORCA-job Ph-N2-BF4-B3LYPG-6-31G_dp-MTMO-d009-169-n800
 OpenBabel09051907443D

 18 16  0  0  0  0  0  0  0  0999 V2000
   -1.5031   -0.3162    0.7638 C   0  0  0  0  0  0  0  0  0  0  0  0
   -0.1885    0.0185    1.0958 C   0  0  0  0  0  0  0  0  0  0  0  0
    0.2020    1.3419    0.9474 C   0  0  0  0  0  0  0  0  0  0  0  0
   -0.6480    2.3368    0.4859 C   0  0  0  0  0  0  0  0  0  0  0  0
   -1.9590    1.9823    0.1606 C   0  0  0  0  0  0  0  0  0  0  0  0
   -2.3877    0.6596    0.2981 C   0  0  0  0  0  0  0  0  0  0  0  0
   -1.8334   -1.3449    0.8712 H   0  0  0  0  0  0  0  0  0  0  0  0
    0.5210   -0.7172    1.4559 H   0  0  0  0  0  0  0  0  0  0  0  0
   -0.2847    3.3539    0.3884 H   0  0  0  0  0  0  0  0  0  0  0  0
   -2.6433    2.7434   -0.2016 H   0  0  0  0  0  0  0  0  0  0  0  0
    5.4104    1.6248   -2.6332 N   0  0  0  0  0  0  0  0  0  0  0  0
    5.4720    0.8004   -1.9002 N   0  0  0  0  0  0  0  0  0  0  0  0
    3.3295    0.3974    0.4990 B   0  0  0  0  0  0  0  0  0  0  0  0
    2.8105    0.3691   -0.7157 F   0  0  0  0  0  0  0  0  0  0  0  0
    4.1757    1.3501    0.8388 F   0  0  0  0  0  0  0  0  0  0  0  0
    1.4831    1.6895    1.2770 F   0  0  0  0  0  0  0  0  0  0  0  0
    3.0910   -0.6035    1.3332 F   0  0  0  0  0  0  0  0  0  0  0  0
   -3.4072    0.3900    0.0416 H   0  0  0  0  0  0  0  0  0  0  0  0
  1  7  1  0  0  0  0
  1  2  2  0  0  0  0
  2  8  1  0  0  0  0
  3  2  1  0  0  0  0
  3 16  1  0  0  0  0
  4  3  2  0  0  0  0
  5  6  2  0  0  0  0
  5  4  1  0  0  0  0
  6  1  1  0  0  0  0
  9  4  1  0  0  0  0
 10  5  1  0  0  0  0
 11 12  3  0  0  0  0
 13 15  1  0  0  0  0
 13 17  1  0  0  0  0
 14 13  1  0  0  0  0
 18  6  1  0  0  0  0
M  END
