Coordinates from ORCA-job Ph-N2-BF4-B3LYPG-6-31G_dp-MTMO-d009-169-n800
 OpenBabel09051907443D

 18 16  0  0  0  0  0  0  0  0999 V2000
   -2.0184   -0.2497    0.4624 C   0  0  0  0  0  0  0  0  0  0  0  0
   -0.7009    0.2034    0.5585 C   0  0  0  0  0  0  0  0  0  0  0  0
   -0.4904    1.4941    1.0226 C   0  0  0  0  0  0  0  0  0  0  0  0
   -1.5222    2.3463    1.3897 C   0  0  0  0  0  0  0  0  0  0  0  0
   -2.8325    1.8741    1.2872 C   0  0  0  0  0  0  0  0  0  0  0  0
   -3.0822    0.5799    0.8248 C   0  0  0  0  0  0  0  0  0  0  0  0
   -2.2101   -1.2552    0.1010 H   0  0  0  0  0  0  0  0  0  0  0  0
    0.1439   -0.4152    0.2804 H   0  0  0  0  0  0  0  0  0  0  0  0
   -1.2955    3.3454    1.7447 H   0  0  0  0  0  0  0  0  0  0  0  0
   -3.6567    2.5219    1.5694 H   0  0  0  0  0  0  0  0  0  0  0  0
   11.7872   -1.7285   -1.8527 N   0  0  0  0  0  0  0  0  0  0  0  0
   10.8109   -1.2441   -2.0365 N   0  0  0  0  0  0  0  0  0  0  0  0
    2.4820    1.6155   -0.5333 B   0  0  0  0  0  0  0  0  0  0  0  0
    1.7291    2.1691   -1.4656 F   0  0  0  0  0  0  0  0  0  0  0  0
    3.3392    2.3469    0.1516 F   0  0  0  0  0  0  0  0  0  0  0  0
    0.7932    1.9537    1.1320 F   0  0  0  0  0  0  0  0  0  0  0  0
    2.4669    0.2995   -0.3766 F   0  0  0  0  0  0  0  0  0  0  0  0
   -4.1031    0.2190    0.7463 H   0  0  0  0  0  0  0  0  0  0  0  0
  1  2  2  0  0  0  0
  1  6  1  0  0  0  0
  2  3  1  0  0  0  0
  3 16  1  0  0  0  0
  3  4  2  0  0  0  0
  4  9  1  0  0  0  0
  5  4  1  0  0  0  0
  5 10  1  0  0  0  0
  6  5  2  0  0  0  0
  7  1  1  0  0  0  0
  8  2  1  0  0  0  0
 12 11  3  0  0  0  0
 13 17  1  0  0  0  0
 13 15  1  0  0  0  0
 14 13  1  0  0  0  0
 18  6  1  0  0  0  0
M  END
