Coordinates from ORCA-job Ph-N2-BF4-B3LYPG-6-31G_dp-MTMO-d009-169-n800
 OpenBabel09051907443D

 18 16  0  0  0  0  0  0  0  0999 V2000
   -1.8797   -0.2809    0.4353 C   0  0  0  0  0  0  0  0  0  0  0  0
   -0.5635    0.1729    0.5444 C   0  0  0  0  0  0  0  0  0  0  0  0
   -0.3586    1.4686    0.9971 C   0  0  0  0  0  0  0  0  0  0  0  0
   -1.3950    2.3251    1.3408 C   0  0  0  0  0  0  0  0  0  0  0  0
   -2.7040    1.8520    1.2257 C   0  0  0  0  0  0  0  0  0  0  0  0
   -2.9480    0.5529    0.7742 C   0  0  0  0  0  0  0  0  0  0  0  0
   -2.0671   -1.2902    0.0822 H   0  0  0  0  0  0  0  0  0  0  0  0
    0.2851   -0.4486    0.2848 H   0  0  0  0  0  0  0  0  0  0  0  0
   -1.1729    3.3279    1.6880 H   0  0  0  0  0  0  0  0  0  0  0  0
   -3.5317    2.5030    1.4897 H   0  0  0  0  0  0  0  0  0  0  0  0
   10.6645   -1.4679   -1.6624 N   0  0  0  0  0  0  0  0  0  0  0  0
    9.6954   -0.9804   -1.8739 N   0  0  0  0  0  0  0  0  0  0  0  0
    2.6425    1.5635   -0.5088 B   0  0  0  0  0  0  0  0  0  0  0  0
    1.9019    2.0922   -1.4651 F   0  0  0  0  0  0  0  0  0  0  0  0
    3.4846    2.3144    0.1735 F   0  0  0  0  0  0  0  0  0  0  0  0
    0.9235    1.9289    1.1183 F   0  0  0  0  0  0  0  0  0  0  0  0
    2.6313    0.2511   -0.3235 F   0  0  0  0  0  0  0  0  0  0  0  0
   -3.9678    0.1915    0.6856 H   0  0  0  0  0  0  0  0  0  0  0  0
  1  2  2  0  0  0  0
  1  6  1  0  0  0  0
  2  3  1  0  0  0  0
  3 16  1  0  0  0  0
  3  4  2  0  0  0  0
  4  9  1  0  0  0  0
  5  4  1  0  0  0  0
  5 10  1  0  0  0  0
  6  5  2  0  0  0  0
  7  1  1  0  0  0  0
  8  2  1  0  0  0  0
 12 11  3  0  0  0  0
 13 17  1  0  0  0  0
 13 15  1  0  0  0  0
 14 13  1  0  0  0  0
 18  6  1  0  0  0  0
M  END
