Coordinates from ORCA-job Ph-N2-BF4-B3LYPG-6-31G_dp-MTMO-d009-169-n800
 OpenBabel09051907443D

 18 16  0  0  0  0  0  0  0  0999 V2000
   -1.7263   -0.3044    0.5804 C   0  0  0  0  0  0  0  0  0  0  0  0
   -0.3978    0.1015    0.4358 C   0  0  0  0  0  0  0  0  0  0  0  0
   -0.1113    1.4530    0.5729 C   0  0  0  0  0  0  0  0  0  0  0  0
   -1.0809    2.4084    0.8448 C   0  0  0  0  0  0  0  0  0  0  0  0
   -2.4035    1.9824    0.9858 C   0  0  0  0  0  0  0  0  0  0  0  0
   -2.7278    0.6299    0.8543 C   0  0  0  0  0  0  0  0  0  0  0  0
   -1.9759   -1.3561    0.4763 H   0  0  0  0  0  0  0  0  0  0  0  0
    0.4012   -0.5988    0.2222 H   0  0  0  0  0  0  0  0  0  0  0  0
   -0.7976    3.4507    0.9425 H   0  0  0  0  0  0  0  0  0  0  0  0
   -3.1792    2.7116    1.1989 H   0  0  0  0  0  0  0  0  0  0  0  0
    7.8985    0.1279   -1.3760 N   0  0  0  0  0  0  0  0  0  0  0  0
    6.8314    0.2326   -1.1077 N   0  0  0  0  0  0  0  0  0  0  0  0
    3.3538    0.7785   -0.2505 B   0  0  0  0  0  0  0  0  0  0  0  0
    3.3564    1.4420   -1.3894 F   0  0  0  0  0  0  0  0  0  0  0  0
    3.9444    1.2808    0.8150 F   0  0  0  0  0  0  0  0  0  0  0  0
    1.1813    1.8694    0.4353 F   0  0  0  0  0  0  0  0  0  0  0  0
    2.8313   -0.4384   -0.2010 F   0  0  0  0  0  0  0  0  0  0  0  0
   -3.7575    0.3051    0.9662 H   0  0  0  0  0  0  0  0  0  0  0  0
  1  6  2  0  0  0  0
  2  3  2  0  0  0  0
  2  1  1  0  0  0  0
  3  4  1  0  0  0  0
  4  9  1  0  0  0  0
  4  5  2  0  0  0  0
  5 10  1  0  0  0  0
  6 18  1  0  0  0  0
  6  5  1  0  0  0  0
  7  1  1  0  0  0  0
  8  2  1  0  0  0  0
 11 12  3  0  0  0  0
 13 17  1  0  0  0  0
 13 15  1  0  0  0  0
 14 13  1  0  0  0  0
 16  3  1  0  0  0  0
M  END
