Coordinates from ORCA-job Ph-N2-BF4-B3LYPG-6-31G_dp-MTMO-d009-169-n800
 OpenBabel09051907443D

 18 16  0  0  0  0  0  0  0  0999 V2000
   -1.4751   -0.0954    0.8955 C   0  0  0  0  0  0  0  0  0  0  0  0
   -0.1188    0.0609    1.1892 C   0  0  0  0  0  0  0  0  0  0  0  0
    0.5075    1.2255    0.7680 C   0  0  0  0  0  0  0  0  0  0  0  0
   -0.1488    2.2309    0.0721 C   0  0  0  0  0  0  0  0  0  0  0  0
   -1.5049    2.0557   -0.2109 C   0  0  0  0  0  0  0  0  0  0  0  0
   -2.1688    0.8966    0.1982 C   0  0  0  0  0  0  0  0  0  0  0  0
   -1.9874   -0.9983    1.2136 H   0  0  0  0  0  0  0  0  0  0  0  0
    0.4474   -0.6931    1.7230 H   0  0  0  0  0  0  0  0  0  0  0  0
    0.3955    3.1166   -0.2350 H   0  0  0  0  0  0  0  0  0  0  0  0
   -2.0407    2.8289   -0.7536 H   0  0  0  0  0  0  0  0  0  0  0  0
    3.1653    2.3456   -1.6499 N   0  0  0  0  0  0  0  0  0  0  0  0
    3.8449    2.2498   -2.5160 N   0  0  0  0  0  0  0  0  0  0  0  0
    3.5072   -0.3029    0.8239 B   0  0  0  0  0  0  0  0  0  0  0  0
    3.2352   -0.4549   -0.4598 F   0  0  0  0  0  0  0  0  0  0  0  0
    4.4518    0.5333    1.2076 F   0  0  0  0  0  0  0  0  0  0  0  0
    1.8336    1.3991    1.0536 F   0  0  0  0  0  0  0  0  0  0  0  0
    2.9190   -1.0880    1.7142 F   0  0  0  0  0  0  0  0  0  0  0  0
   -3.2224    0.7658   -0.0279 H   0  0  0  0  0  0  0  0  0  0  0  0
  1  2  1  0  0  0  0
  1  7  1  0  0  0  0
  2  8  1  0  0  0  0
  3 16  1  0  0  0  0
  3  2  2  0  0  0  0
  4  3  1  0  0  0  0
  5  4  2  0  0  0  0
  5  6  1  0  0  0  0
  6  1  2  0  0  0  0
  9  4  1  0  0  0  0
 10  5  1  0  0  0  0
 12 11  3  0  0  0  0
 13 15  1  0  0  0  0
 13 17  1  0  0  0  0
 14 13  1  0  0  0  0
 18  6  1  0  0  0  0
M  END
