Coordinates from ORCA-job Ph-N2-BF4-B3LYPG-6-31G_dp-MTMO-d009-169-n800
 OpenBabel09051907443D

 18 16  0  0  0  0  0  0  0  0999 V2000
   -1.4963   -0.3241    0.7475 C   0  0  0  0  0  0  0  0  0  0  0  0
   -0.1858    0.0167    1.0891 C   0  0  0  0  0  0  0  0  0  0  0  0
    0.1934    1.3458    0.9631 C   0  0  0  0  0  0  0  0  0  0  0  0
   -0.6636    2.3406    0.5149 C   0  0  0  0  0  0  0  0  0  0  0  0
   -1.9705    1.9798    0.1798 C   0  0  0  0  0  0  0  0  0  0  0  0
   -2.3880    0.6515    0.2948 C   0  0  0  0  0  0  0  0  0  0  0  0
   -1.8180   -1.3572    0.8372 H   0  0  0  0  0  0  0  0  0  0  0  0
    0.5297   -0.7181    1.4394 H   0  0  0  0  0  0  0  0  0  0  0  0
   -0.3089    3.3622    0.4350 H   0  0  0  0  0  0  0  0  0  0  0  0
   -2.6605    2.7406   -0.1723 H   0  0  0  0  0  0  0  0  0  0  0  0
    5.4852    1.5233   -2.6444 N   0  0  0  0  0  0  0  0  0  0  0  0
    5.4797    0.7336   -1.8717 N   0  0  0  0  0  0  0  0  0  0  0  0
    3.3223    0.4449    0.4759 B   0  0  0  0  0  0  0  0  0  0  0  0
    2.7893    0.4326   -0.7331 F   0  0  0  0  0  0  0  0  0  0  0  0
    4.1633    1.3998    0.8225 F   0  0  0  0  0  0  0  0  0  0  0  0
    1.4705    1.6991    1.3021 F   0  0  0  0  0  0  0  0  0  0  0  0
    3.1029   -0.5724    1.2954 F   0  0  0  0  0  0  0  0  0  0  0  0
   -3.4043    0.3771    0.0307 H   0  0  0  0  0  0  0  0  0  0  0  0
  1  7  1  0  0  0  0
  1  2  2  0  0  0  0
  2  8  1  0  0  0  0
  3  2  1  0  0  0  0
  3 16  1  0  0  0  0
  4  3  2  0  0  0  0
  5  6  2  0  0  0  0
  5  4  1  0  0  0  0
  6  1  1  0  0  0  0
  9  4  1  0  0  0  0
 10  5  1  0  0  0  0
 11 12  3  0  0  0  0
 13 15  1  0  0  0  0
 13 17  1  0  0  0  0
 14 13  1  0  0  0  0
 18  6  1  0  0  0  0
M  END
