Coordinates from ORCA-job Ph-N2-BF4-B3LYPG-6-31G_dp-MTMO-d009-169-n800
 OpenBabel09051907443D

 18 16  0  0  0  0  0  0  0  0999 V2000
   -1.5487   -0.1954    0.9491 C   0  0  0  0  0  0  0  0  0  0  0  0
   -0.1958    0.0419    1.2011 C   0  0  0  0  0  0  0  0  0  0  0  0
    0.3350    1.2605    0.8021 C   0  0  0  0  0  0  0  0  0  0  0  0
   -0.4120    2.2429    0.1678 C   0  0  0  0  0  0  0  0  0  0  0  0
   -1.7633    1.9865   -0.0740 C   0  0  0  0  0  0  0  0  0  0  0  0
   -2.3325    0.7712    0.3143 C   0  0  0  0  0  0  0  0  0  0  0  0
   -1.9876   -1.1416    1.2507 H   0  0  0  0  0  0  0  0  0  0  0  0
    0.4383   -0.6905    1.6866 H   0  0  0  0  0  0  0  0  0  0  0  0
    0.0586    3.1755   -0.1228 H   0  0  0  0  0  0  0  0  0  0  0  0
   -2.3692    2.7404   -0.5676 H   0  0  0  0  0  0  0  0  0  0  0  0
    4.4087    2.5107   -2.2222 N   0  0  0  0  0  0  0  0  0  0  0  0
    5.0638    1.6387   -2.0439 N   0  0  0  0  0  0  0  0  0  0  0  0
    3.3953   -0.0658    0.6292 B   0  0  0  0  0  0  0  0  0  0  0  0
    2.9966   -0.2299   -0.6193 F   0  0  0  0  0  0  0  0  0  0  0  0
    4.3160    0.8332    0.9190 F   0  0  0  0  0  0  0  0  0  0  0  0
    1.6568    1.5145    1.0470 F   0  0  0  0  0  0  0  0  0  0  0  0
    2.9630   -0.8942    1.5682 F   0  0  0  0  0  0  0  0  0  0  0  0
   -3.3827    0.5773    0.1207 H   0  0  0  0  0  0  0  0  0  0  0  0
  1  2  1  0  0  0  0
  1  7  1  0  0  0  0
  2  8  1  0  0  0  0
  3 16  1  0  0  0  0
  3  2  2  0  0  0  0
  4  3  1  0  0  0  0
  5  4  2  0  0  0  0
  5  6  1  0  0  0  0
  6  1  2  0  0  0  0
  9  4  1  0  0  0  0
 10  5  1  0  0  0  0
 11 12  3  0  0  0  0
 13 15  1  0  0  0  0
 13 17  1  0  0  0  0
 14 13  1  0  0  0  0
 18  6  1  0  0  0  0
M  END
