Coordinates from ORCA-job Ph-N2-BF4-B3LYPG-6-31G_dp-MTMO-d009-169-n800
 OpenBabel09051907443D

 18 16  0  0  0  0  0  0  0  0999 V2000
   -1.8550   -0.2864    0.4310 C   0  0  0  0  0  0  0  0  0  0  0  0
   -0.5388    0.1665    0.5435 C   0  0  0  0  0  0  0  0  0  0  0  0
   -0.3343    1.4634    0.9932 C   0  0  0  0  0  0  0  0  0  0  0  0
   -1.3711    2.3217    1.3307 C   0  0  0  0  0  0  0  0  0  0  0  0
   -2.6801    1.8495    1.2124 C   0  0  0  0  0  0  0  0  0  0  0  0
   -2.9237    0.5494    0.7637 C   0  0  0  0  0  0  0  0  0  0  0  0
   -2.0420   -1.2965    0.0802 H   0  0  0  0  0  0  0  0  0  0  0  0
    0.3101   -0.4565    0.2886 H   0  0  0  0  0  0  0  0  0  0  0  0
   -1.1493    3.3254    1.6759 H   0  0  0  0  0  0  0  0  0  0  0  0
   -3.5081    2.5020    1.4716 H   0  0  0  0  0  0  0  0  0  0  0  0
   10.4577   -1.4172   -1.6280 N   0  0  0  0  0  0  0  0  0  0  0  0
    9.4917   -0.9270   -1.8476 N   0  0  0  0  0  0  0  0  0  0  0  0
    2.6721    1.5508   -0.5028 B   0  0  0  0  0  0  0  0  0  0  0  0
    1.9351    2.0771   -1.4633 F   0  0  0  0  0  0  0  0  0  0  0  0
    3.5127    2.3032    0.1798 F   0  0  0  0  0  0  0  0  0  0  0  0
    0.9478    1.9229    1.1175 F   0  0  0  0  0  0  0  0  0  0  0  0
    2.6591    0.2390   -0.3133 F   0  0  0  0  0  0  0  0  0  0  0  0
   -3.9435    0.1887    0.6726 H   0  0  0  0  0  0  0  0  0  0  0  0
  1  2  2  0  0  0  0
  1  6  1  0  0  0  0
  2  3  1  0  0  0  0
  3 16  1  0  0  0  0
  3  4  2  0  0  0  0
  4  9  1  0  0  0  0
  5  4  1  0  0  0  0
  5 10  1  0  0  0  0
  6  5  2  0  0  0  0
  7  1  1  0  0  0  0
  8  2  1  0  0  0  0
 12 11  3  0  0  0  0
 13 17  1  0  0  0  0
 13 15  1  0  0  0  0
 14 13  1  0  0  0  0
 18  6  1  0  0  0  0
M  END
