Coordinates from ORCA-job Ph-N2-BF4-B3LYPG-6-31G_dp-MTMO-d009-169-n800
 OpenBabel09051907443D

 18 17  0  0  0  0  0  0  0  0999 V2000
   -1.1477    0.1397    0.7750 C   0  0  0  0  0  0  0  0  0  0  0  0
    0.1889    0.2510    0.4046 C   0  0  0  0  0  0  0  0  0  0  0  0
    0.5434    1.3980   -0.3238 C   0  0  0  0  0  0  0  0  0  0  0  0
   -0.3599    2.4154   -0.6830 C   0  0  0  0  0  0  0  0  0  0  0  0
   -1.6800    2.2709   -0.2829 C   0  0  0  0  0  0  0  0  0  0  0  0
   -2.0700    1.1360    0.4418 C   0  0  0  0  0  0  0  0  0  0  0  0
   -1.4666   -0.7313    1.3375 H   0  0  0  0  0  0  0  0  0  0  0  0
    0.9508   -0.4878    0.6493 H   0  0  0  0  0  0  0  0  0  0  0  0
   -0.0236    3.2799   -1.2446 H   0  0  0  0  0  0  0  0  0  0  0  0
   -2.4044    3.0377   -0.5348 H   0  0  0  0  0  0  0  0  0  0  0  0
    1.8466    1.5440   -0.7553 N   0  0  0  0  0  0  0  0  0  0  0  0
    2.8724    1.6827   -1.1686 N   0  0  0  0  0  0  0  0  0  0  0  0
    3.5264   -0.1936    1.1553 B   0  0  0  0  0  0  0  0  0  0  0  0
    4.2926    0.2539    0.0473 F   0  0  0  0  0  0  0  0  0  0  0  0
    4.3211   -0.5998    2.1933 F   0  0  0  0  0  0  0  0  0  0  0  0
    2.6797    0.8886    1.5422 F   0  0  0  0  0  0  0  0  0  0  0  0
    2.6763   -1.2410    0.7024 F   0  0  0  0  0  0  0  0  0  0  0  0
   -3.1057    1.0317    0.7500 H   0  0  0  0  0  0  0  0  0  0  0  0
  1  7  1  0  0  0  0
  2  8  1  0  0  0  0
  2  1  2  0  0  0  0
  3  2  1  0  0  0  0
  4  3  2  0  0  0  0
  4  5  1  0  0  0  0
  5  6  2  0  0  0  0
  6 18  1  0  0  0  0
  6  1  1  0  0  0  0
  9  4  1  0  0  0  0
 10  5  1  0  0  0  0
 11  3  1  0  0  0  0
 12 11  1  0  0  0  0
 13 16  1  0  0  0  0
 13 15  1  0  0  0  0
 14 13  1  0  0  0  0
 17 13  1  0  0  0  0
M  RAD  2  11   2  12   3
M  END
