Coordinates from ORCA-job Ph-N2-BF4-B3LYPG-6-31G_dp-MTMO-d009-169-n800
 OpenBabel09051907443D

 18 16  0  0  0  0  0  0  0  0999 V2000
   -2.3053   -0.1962    0.5311 C   0  0  0  0  0  0  0  0  0  0  0  0
   -0.9882    0.2649    0.5883 C   0  0  0  0  0  0  0  0  0  0  0  0
   -0.7707    1.5509    1.0621 C   0  0  0  0  0  0  0  0  0  0  0  0
   -1.7951    2.3913    1.4745 C   0  0  0  0  0  0  0  0  0  0  0  0
   -3.1049    1.9113    1.4099 C   0  0  0  0  0  0  0  0  0  0  0  0
   -3.3616    0.6212    0.9400 C   0  0  0  0  0  0  0  0  0  0  0  0
   -2.5026   -1.1985    0.1638 H   0  0  0  0  0  0  0  0  0  0  0  0
   -0.1493   -0.3437    0.2730 H   0  0  0  0  0  0  0  0  0  0  0  0
   -1.5630    3.3874    1.8343 H   0  0  0  0  0  0  0  0  0  0  0  0
   -3.9234    2.5498    1.7278 H   0  0  0  0  0  0  0  0  0  0  0  0
   14.0933   -2.2750   -2.2346 N   0  0  0  0  0  0  0  0  0  0  0  0
   13.1139   -1.7928   -2.4077 N   0  0  0  0  0  0  0  0  0  0  0  0
    2.1697    1.7401   -0.5726 B   0  0  0  0  0  0  0  0  0  0  0  0
    1.4254    2.3784   -1.4564 F   0  0  0  0  0  0  0  0  0  0  0  0
    3.0527    2.3981    0.1529 F   0  0  0  0  0  0  0  0  0  0  0  0
    0.5129    2.0176    1.1353 F   0  0  0  0  0  0  0  0  0  0  0  0
    2.1188    0.4173   -0.5079 F   0  0  0  0  0  0  0  0  0  0  0  0
   -4.3821    0.2540    0.8920 H   0  0  0  0  0  0  0  0  0  0  0  0
  1  2  2  0  0  0  0
  1  6  1  0  0  0  0
  2  3  1  0  0  0  0
  3 16  1  0  0  0  0
  3  4  2  0  0  0  0
  4  9  1  0  0  0  0
  5  4  1  0  0  0  0
  5 10  1  0  0  0  0
  6  5  2  0  0  0  0
  7  1  1  0  0  0  0
  8  2  1  0  0  0  0
 12 11  3  0  0  0  0
 13 17  1  0  0  0  0
 13 15  1  0  0  0  0
 14 13  1  0  0  0  0
 18  6  1  0  0  0  0
M  END
