Coordinates from ORCA-job Ph-N2-BF4-B3LYPG-6-31G_dp-MTMO-d009-169-n800
 OpenBabel09051907443D

 18 16  0  0  0  0  0  0  0  0999 V2000
   -1.8953   -0.2774    0.4385 C   0  0  0  0  0  0  0  0  0  0  0  0
   -0.5796    0.1785    0.5465 C   0  0  0  0  0  0  0  0  0  0  0  0
   -0.3766    1.4736    1.0017 C   0  0  0  0  0  0  0  0  0  0  0  0
   -1.4139    2.3275    1.3490 C   0  0  0  0  0  0  0  0  0  0  0  0
   -2.7221    1.8523    1.2349 C   0  0  0  0  0  0  0  0  0  0  0  0
   -2.9645    0.5537    0.7809 C   0  0  0  0  0  0  0  0  0  0  0  0
   -2.0812   -1.2863    0.0836 H   0  0  0  0  0  0  0  0  0  0  0  0
    0.2693   -0.4412    0.2841 H   0  0  0  0  0  0  0  0  0  0  0  0
   -1.1928    3.3299    1.6980 H   0  0  0  0  0  0  0  0  0  0  0  0
   -3.5506    2.5012    1.5017 H   0  0  0  0  0  0  0  0  0  0  0  0
   10.8178   -1.5120   -1.6874 N   0  0  0  0  0  0  0  0  0  0  0  0
    9.8482   -1.0234   -1.8940 N   0  0  0  0  0  0  0  0  0  0  0  0
    2.6176    1.5763   -0.5145 B   0  0  0  0  0  0  0  0  0  0  0  0
    1.8742    2.1092   -1.4664 F   0  0  0  0  0  0  0  0  0  0  0  0
    3.4626    2.3241    0.1678 F   0  0  0  0  0  0  0  0  0  0  0  0
    0.9049    1.9361    1.1221 F   0  0  0  0  0  0  0  0  0  0  0  0
    2.6060    0.2633   -0.3339 F   0  0  0  0  0  0  0  0  0  0  0  0
   -3.9838    0.1907    0.6932 H   0  0  0  0  0  0  0  0  0  0  0  0
  1  2  2  0  0  0  0
  1  6  1  0  0  0  0
  2  3  1  0  0  0  0
  3 16  1  0  0  0  0
  3  4  2  0  0  0  0
  4  9  1  0  0  0  0
  5  4  1  0  0  0  0
  5 10  1  0  0  0  0
  6  5  2  0  0  0  0
  7  1  1  0  0  0  0
  8  2  1  0  0  0  0
 12 11  3  0  0  0  0
 13 17  1  0  0  0  0
 13 15  1  0  0  0  0
 14 13  1  0  0  0  0
 18  6  1  0  0  0  0
M  END
