Coordinates from ORCA-job Ph-N2-BF4-B3LYPG-6-31G_dp-MTMO-d009-169-n800
 OpenBabel09051907443D

 18 16  0  0  0  0  0  0  0  0999 V2000
   -1.5402   -0.2903    0.8385 C   0  0  0  0  0  0  0  0  0  0  0  0
   -0.2101    0.0209    1.1290 C   0  0  0  0  0  0  0  0  0  0  0  0
    0.2185    1.3206    0.8977 C   0  0  0  0  0  0  0  0  0  0  0  0
   -0.6087    2.3138    0.3927 C   0  0  0  0  0  0  0  0  0  0  0  0
   -1.9356    1.9829    0.1097 C   0  0  0  0  0  0  0  0  0  0  0  0
   -2.4025    0.6848    0.3312 C   0  0  0  0  0  0  0  0  0  0  0  0
   -1.9002   -1.2999    1.0111 H   0  0  0  0  0  0  0  0  0  0  0  0
    0.4833   -0.7147    1.5193 H   0  0  0  0  0  0  0  0  0  0  0  0
   -0.2163    3.3114    0.2300 H   0  0  0  0  0  0  0  0  0  0  0  0
   -2.6026    2.7432   -0.2849 H   0  0  0  0  0  0  0  0  0  0  0  0
    5.3122    1.9218   -2.5617 N   0  0  0  0  0  0  0  0  0  0  0  0
    5.4904    1.0151   -1.9557 N   0  0  0  0  0  0  0  0  0  0  0  0
    3.3451    0.2673    0.5227 B   0  0  0  0  0  0  0  0  0  0  0  0
    2.8825    0.2094   -0.7135 F   0  0  0  0  0  0  0  0  0  0  0  0
    4.2081    1.2034    0.8667 F   0  0  0  0  0  0  0  0  0  0  0  0
    1.5153    1.6462    1.1855 F   0  0  0  0  0  0  0  0  0  0  0  0
    3.0356   -0.6934    1.3804 F   0  0  0  0  0  0  0  0  0  0  0  0
   -3.4343    0.4336    0.1072 H   0  0  0  0  0  0  0  0  0  0  0  0
  1  7  1  0  0  0  0
  1  2  2  0  0  0  0
  2  8  1  0  0  0  0
  3  2  1  0  0  0  0
  3 16  1  0  0  0  0
  4  3  2  0  0  0  0
  5  6  2  0  0  0  0
  5  4  1  0  0  0  0
  6  1  1  0  0  0  0
  9  4  1  0  0  0  0
 10  5  1  0  0  0  0
 11 12  3  0  0  0  0
 13 15  1  0  0  0  0
 13 17  1  0  0  0  0
 14 13  1  0  0  0  0
 18  6  1  0  0  0  0
M  END
