Coordinates from ORCA-job Ph-N2-BF4-B3LYPG-6-31G_dp-MTMO-d009-169-n800
 OpenBabel09051907443D

 18 16  0  0  0  0  0  0  0  0999 V2000
   -2.2931   -0.1988    0.5280 C   0  0  0  0  0  0  0  0  0  0  0  0
   -0.9754    0.2604    0.5850 C   0  0  0  0  0  0  0  0  0  0  0  0
   -0.7558    1.5462    1.0586 C   0  0  0  0  0  0  0  0  0  0  0  0
   -1.7789    2.3882    1.4709 C   0  0  0  0  0  0  0  0  0  0  0  0
   -3.0895    1.9101    1.4066 C   0  0  0  0  0  0  0  0  0  0  0  0
   -3.3482    0.6203    0.9369 C   0  0  0  0  0  0  0  0  0  0  0  0
   -2.4921   -1.2009    0.1609 H   0  0  0  0  0  0  0  0  0  0  0  0
   -0.1372   -0.3492    0.2698 H   0  0  0  0  0  0  0  0  0  0  0  0
   -1.5455    3.3840    1.8305 H   0  0  0  0  0  0  0  0  0  0  0  0
   -3.9070    2.5499    1.7243 H   0  0  0  0  0  0  0  0  0  0  0  0
   13.9751   -2.2446   -2.2116 N   0  0  0  0  0  0  0  0  0  0  0  0
   12.9959   -1.7619   -2.3844 N   0  0  0  0  0  0  0  0  0  0  0  0
    2.1862    1.7334   -0.5742 B   0  0  0  0  0  0  0  0  0  0  0  0
    1.4407    2.3699   -1.4581 F   0  0  0  0  0  0  0  0  0  0  0  0
    3.0689    2.3932    0.1501 F   0  0  0  0  0  0  0  0  0  0  0  0
    0.5285    2.0107    1.1314 F   0  0  0  0  0  0  0  0  0  0  0  0
    2.1370    0.4106   -0.5081 F   0  0  0  0  0  0  0  0  0  0  0  0
   -4.3692    0.2546    0.8891 H   0  0  0  0  0  0  0  0  0  0  0  0
  1  2  2  0  0  0  0
  1  6  1  0  0  0  0
  2  3  1  0  0  0  0
  3 16  1  0  0  0  0
  3  4  2  0  0  0  0
  4  9  1  0  0  0  0
  5  4  1  0  0  0  0
  5 10  1  0  0  0  0
  6  5  2  0  0  0  0
  7  1  1  0  0  0  0
  8  2  1  0  0  0  0
 12 11  3  0  0  0  0
 13 17  1  0  0  0  0
 13 15  1  0  0  0  0
 14 13  1  0  0  0  0
 18  6  1  0  0  0  0
M  END
