Coordinates from ORCA-job Ph-N2-BF4-B3LYPG-6-31G_dp-MTMO-d009-169-n800
 OpenBabel09051907443D

 18 16  0  0  0  0  0  0  0  0999 V2000
   -2.3768   -0.1796    0.5449 C   0  0  0  0  0  0  0  0  0  0  0  0
   -1.0587    0.2787    0.5989 C   0  0  0  0  0  0  0  0  0  0  0  0
   -0.8371    1.5641    1.0726 C   0  0  0  0  0  0  0  0  0  0  0  0
   -1.8587    2.4066    1.4878 C   0  0  0  0  0  0  0  0  0  0  0  0
   -3.1697    1.9294    1.4264 C   0  0  0  0  0  0  0  0  0  0  0  0
   -3.4304    0.6400    0.9568 C   0  0  0  0  0  0  0  0  0  0  0  0
   -2.5774   -1.1813    0.1779 H   0  0  0  0  0  0  0  0  0  0  0  0
   -0.2217   -0.3313    0.2813 H   0  0  0  0  0  0  0  0  0  0  0  0
   -1.6237    3.4021    1.8473 H   0  0  0  0  0  0  0  0  0  0  0  0
   -3.9860    2.5696    1.7465 H   0  0  0  0  0  0  0  0  0  0  0  0
   14.6261   -2.3818   -2.3392 N   0  0  0  0  0  0  0  0  0  0  0  0
   13.6419   -1.9084   -2.5095 N   0  0  0  0  0  0  0  0  0  0  0  0
    2.1072    1.7479   -0.5615 B   0  0  0  0  0  0  0  0  0  0  0  0
    1.3670    2.3915   -1.4447 F   0  0  0  0  0  0  0  0  0  0  0  0
    2.9916    2.4003    0.1672 F   0  0  0  0  0  0  0  0  0  0  0  0
    0.4476    2.0279    1.1425 F   0  0  0  0  0  0  0  0  0  0  0  0
    2.0511    0.4250   -0.5005 F   0  0  0  0  0  0  0  0  0  0  0  0
   -4.4518    0.2750    0.9114 H   0  0  0  0  0  0  0  0  0  0  0  0
  1  2  2  0  0  0  0
  1  6  1  0  0  0  0
  2  3  1  0  0  0  0
  3 16  1  0  0  0  0
  3  4  2  0  0  0  0
  4  9  1  0  0  0  0
  5  4  1  0  0  0  0
  5 10  1  0  0  0  0
  6  5  2  0  0  0  0
  7  1  1  0  0  0  0
  8  2  1  0  0  0  0
 12 11  3  0  0  0  0
 13 17  1  0  0  0  0
 13 15  1  0  0  0  0
 14 13  1  0  0  0  0
 18  6  1  0  0  0  0
M  END
