Coordinates from ORCA-job Ph-N2-BF4-B3LYPG-6-31G_dp-MTMO-d009-169-n800
 OpenBabel09051907443D

 18 16  0  0  0  0  0  0  0  0999 V2000
   -1.1991   -0.0806    0.2187 C   0  0  0  0  0  0  0  0  0  0  0  0
    0.1201    0.0438    0.6580 C   0  0  0  0  0  0  0  0  0  0  0  0
    0.6699    1.3174    0.7215 C   0  0  0  0  0  0  0  0  0  0  0  0
   -0.0492    2.4642    0.4112 C   0  0  0  0  0  0  0  0  0  0  0  0
   -1.3670    2.3195   -0.0253 C   0  0  0  0  0  0  0  0  0  0  0  0
   -1.9426    1.0504   -0.1273 C   0  0  0  0  0  0  0  0  0  0  0  0
   -1.6462   -1.0680    0.1506 H   0  0  0  0  0  0  0  0  0  0  0  0
    0.7199   -0.8145    0.9348 H   0  0  0  0  0  0  0  0  0  0  0  0
    0.4245    3.4357    0.5012 H   0  0  0  0  0  0  0  0  0  0  0  0
   -1.9435    3.2025   -0.2837 H   0  0  0  0  0  0  0  0  0  0  0  0
    1.8748    1.1839   -1.5356 N   0  0  0  0  0  0  0  0  0  0  0  0
    1.5011    1.0633   -2.5698 N   0  0  0  0  0  0  0  0  0  0  0  0
    3.8546   -0.0918    1.3072 B   0  0  0  0  0  0  0  0  0  0  0  0
    4.2435    0.1060    0.0623 F   0  0  0  0  0  0  0  0  0  0  0  0
    4.3407    0.6504    2.2820 F   0  0  0  0  0  0  0  0  0  0  0  0
    1.9448    1.4643    1.1798 F   0  0  0  0  0  0  0  0  0  0  0  0
    3.0607   -1.1145    1.5900 F   0  0  0  0  0  0  0  0  0  0  0  0
   -2.9668    0.9441   -0.4697 H   0  0  0  0  0  0  0  0  0  0  0  0
  1  2  2  0  0  0  0
  2  3  1  0  0  0  0
  2  8  1  0  0  0  0
  3 16  1  0  0  0  0
  4  9  1  0  0  0  0
  4  3  2  0  0  0  0
  5  4  1  0  0  0  0
  6  5  2  0  0  0  0
  6  1  1  0  0  0  0
  7  1  1  0  0  0  0
 10  5  1  0  0  0  0
 12 11  3  0  0  0  0
 13 17  1  0  0  0  0
 13 15  1  0  0  0  0
 14 13  1  0  0  0  0
 18  6  1  0  0  0  0
M  END
