Coordinates from ORCA-job Ph-N2-BF4-B3LYPG-6-31G_dp-MTMO-d009-169-n800
 OpenBabel09051907443D

 18 17  0  0  0  0  0  0  0  0999 V2000
   -1.1974    0.1348    0.8228 C   0  0  0  0  0  0  0  0  0  0  0  0
    0.1486    0.2114    0.4436 C   0  0  0  0  0  0  0  0  0  0  0  0
    0.4391    1.3411   -0.2805 C   0  0  0  0  0  0  0  0  0  0  0  0
   -0.3693    2.3846   -0.6791 C   0  0  0  0  0  0  0  0  0  0  0  0
   -1.6992    2.2580   -0.2650 C   0  0  0  0  0  0  0  0  0  0  0  0
   -2.1030    1.1429    0.4775 C   0  0  0  0  0  0  0  0  0  0  0  0
   -1.5260   -0.7229    1.4003 H   0  0  0  0  0  0  0  0  0  0  0  0
    0.9178   -0.5229    0.6763 H   0  0  0  0  0  0  0  0  0  0  0  0
   -0.0104    3.2294   -1.2527 H   0  0  0  0  0  0  0  0  0  0  0  0
   -2.4093    3.0347   -0.5278 H   0  0  0  0  0  0  0  0  0  0  0  0
    2.0278    1.4776   -0.8125 N   0  0  0  0  0  0  0  0  0  0  0  0
    3.0151    1.6199   -1.2905 N   0  0  0  0  0  0  0  0  0  0  0  0
    3.5414   -0.1306    1.1288 B   0  0  0  0  0  0  0  0  0  0  0  0
    4.4951    0.3808    0.2280 F   0  0  0  0  0  0  0  0  0  0  0  0
    4.1106   -0.7239    2.2234 F   0  0  0  0  0  0  0  0  0  0  0  0
    2.6861    0.9503    1.5113 F   0  0  0  0  0  0  0  0  0  0  0  0
    2.7120   -1.0506    0.4096 F   0  0  0  0  0  0  0  0  0  0  0  0
   -3.1383    1.0612    0.7923 H   0  0  0  0  0  0  0  0  0  0  0  0
  1  7  1  0  0  0  0
  2  8  1  0  0  0  0
  2  1  2  0  0  0  0
  3  2  1  0  0  0  0
  4  3  2  0  0  0  0
  4  5  1  0  0  0  0
  5  6  2  0  0  0  0
  6 18  1  0  0  0  0
  6  1  1  0  0  0  0
  9  4  1  0  0  0  0
 10  5  1  0  0  0  0
 11  3  1  0  0  0  0
 12 11  1  0  0  0  0
 13 16  1  0  0  0  0
 13 15  1  0  0  0  0
 14 13  1  0  0  0  0
 17 13  1  0  0  0  0
M  RAD  2  11   2  12   3
M  END
