Coordinates from ORCA-job Ph-N2-BF4-B3LYPG-6-31G_dp-MTMO-d009-169-n800
 OpenBabel09051907443D

 18 16  0  0  0  0  0  0  0  0999 V2000
   -1.7977   -0.3079    0.5760 C   0  0  0  0  0  0  0  0  0  0  0  0
   -0.4702    0.1237    0.5292 C   0  0  0  0  0  0  0  0  0  0  0  0
   -0.2213    1.4798    0.6896 C   0  0  0  0  0  0  0  0  0  0  0  0
   -1.2265    2.4155    0.8915 C   0  0  0  0  0  0  0  0  0  0  0  0
   -2.5471    1.9638    0.9353 C   0  0  0  0  0  0  0  0  0  0  0  0
   -2.8345    0.6058    0.7780 C   0  0  0  0  0  0  0  0  0  0  0  0
   -2.0185   -1.3639    0.4516 H   0  0  0  0  0  0  0  0  0  0  0  0
    0.3543   -0.5614    0.3719 H   0  0  0  0  0  0  0  0  0  0  0  0
   -0.9711    3.4628    1.0117 H   0  0  0  0  0  0  0  0  0  0  0  0
   -3.3502    2.6773    1.0929 H   0  0  0  0  0  0  0  0  0  0  0  0
    8.8482   -0.2170   -1.8534 N   0  0  0  0  0  0  0  0  0  0  0  0
    7.7978   -0.1189   -1.5239 N   0  0  0  0  0  0  0  0  0  0  0  0
    3.1946    0.9468   -0.0940 B   0  0  0  0  0  0  0  0  0  0  0  0
    3.1298    1.5874   -1.2446 F   0  0  0  0  0  0  0  0  0  0  0  0
    3.7979    1.4955    0.9416 F   0  0  0  0  0  0  0  0  0  0  0  0
    1.0694    1.9248    0.6496 F   0  0  0  0  0  0  0  0  0  0  0  0
    2.7488   -0.2988   -0.0104 F   0  0  0  0  0  0  0  0  0  0  0  0
   -3.8632    0.2608    0.8133 H   0  0  0  0  0  0  0  0  0  0  0  0
  1  6  1  0  0  0  0
  2  1  2  0  0  0  0
  2  3  1  0  0  0  0
  3  4  2  0  0  0  0
  4  5  1  0  0  0  0
  4  9  1  0  0  0  0
  5 10  1  0  0  0  0
  6 18  1  0  0  0  0
  6  5  2  0  0  0  0
  7  1  1  0  0  0  0
  8  2  1  0  0  0  0
 11 12  3  0  0  0  0
 13 17  1  0  0  0  0
 13 15  1  0  0  0  0
 14 13  1  0  0  0  0
 16  3  1  0  0  0  0
M  END
