Coordinates from ORCA-job Ph-N2-BF4-B3LYPG-6-31G_dp-MTMO-d009-169-n800
 OpenBabel09051907443D

 18 16  0  0  0  0  0  0  0  0999 V2000
   -1.6489   -0.3323    0.4252 C   0  0  0  0  0  0  0  0  0  0  0  0
   -0.3637    0.1177    0.7355 C   0  0  0  0  0  0  0  0  0  0  0  0
   -0.1989    1.4654    1.0225 C   0  0  0  0  0  0  0  0  0  0  0  0
   -1.2457    2.3764    1.0140 C   0  0  0  0  0  0  0  0  0  0  0  0
   -2.5234    1.9062    0.7028 C   0  0  0  0  0  0  0  0  0  0  0  0
   -2.7268    0.5560    0.4083 C   0  0  0  0  0  0  0  0  0  0  0  0
   -1.8037   -1.3819    0.1941 H   0  0  0  0  0  0  0  0  0  0  0  0
    0.4920   -0.5466    0.7540 H   0  0  0  0  0  0  0  0  0  0  0  0
   -1.0558    3.4181    1.2483 H   0  0  0  0  0  0  0  0  0  0  0  0
   -3.3589    2.5995    0.6904 H   0  0  0  0  0  0  0  0  0  0  0  0
    8.6899   -0.7266   -2.4487 N   0  0  0  0  0  0  0  0  0  0  0  0
    7.7291   -0.4748   -1.9639 N   0  0  0  0  0  0  0  0  0  0  0  0
    3.0559    1.2564    0.1955 B   0  0  0  0  0  0  0  0  0  0  0  0
    2.5584    1.6068   -0.9759 F   0  0  0  0  0  0  0  0  0  0  0  0
    3.7692    2.1137    0.8991 F   0  0  0  0  0  0  0  0  0  0  0  0
    1.0508    1.9238    1.3353 F   0  0  0  0  0  0  0  0  0  0  0  0
    2.9427    0.0010    0.6046 F   0  0  0  0  0  0  0  0  0  0  0  0
   -3.7219    0.1973    0.1649 H   0  0  0  0  0  0  0  0  0  0  0  0
  1  2  1  0  0  0  0
  2  8  1  0  0  0  0
  2  3  2  0  0  0  0
  3 16  1  0  0  0  0
  4  3  1  0  0  0  0
  4  9  1  0  0  0  0
  5  4  2  0  0  0  0
  6  1  2  0  0  0  0
  6  5  1  0  0  0  0
  7  1  1  0  0  0  0
 10  5  1  0  0  0  0
 11 12  3  0  0  0  0
 13 17  1  0  0  0  0
 13 15  1  0  0  0  0
 14 13  1  0  0  0  0
 18  6  1  0  0  0  0
M  END
