Coordinates from ORCA-job Ph-N2-BF4-B3LYPG-6-31G_dp-MTMO-d009-169-n800
 OpenBabel09051907443D

 18 16  0  0  0  0  0  0  0  0999 V2000
   -2.3229   -0.1922    0.5346 C   0  0  0  0  0  0  0  0  0  0  0  0
   -1.0057    0.2688    0.5911 C   0  0  0  0  0  0  0  0  0  0  0  0
   -0.7878    1.5547    1.0650 C   0  0  0  0  0  0  0  0  0  0  0  0
   -1.8119    2.3952    1.4781 C   0  0  0  0  0  0  0  0  0  0  0  0
   -3.1218    1.9153    1.4143 C   0  0  0  0  0  0  0  0  0  0  0  0
   -3.3789    0.6253    0.9443 C   0  0  0  0  0  0  0  0  0  0  0  0
   -2.5205   -1.1944    0.1674 H   0  0  0  0  0  0  0  0  0  0  0  0
   -0.1671   -0.3399    0.2752 H   0  0  0  0  0  0  0  0  0  0  0  0
   -1.5795    3.3912    1.8379 H   0  0  0  0  0  0  0  0  0  0  0  0
   -3.9400    2.5539    1.7327 H   0  0  0  0  0  0  0  0  0  0  0  0
   14.2303   -2.3040   -2.2612 N   0  0  0  0  0  0  0  0  0  0  0  0
   13.2500   -1.8236   -2.4338 N   0  0  0  0  0  0  0  0  0  0  0  0
    2.1530    1.7433   -0.5701 B   0  0  0  0  0  0  0  0  0  0  0  0
    1.4099    2.3832   -1.4537 F   0  0  0  0  0  0  0  0  0  0  0  0
    3.0364    2.3996    0.1564 F   0  0  0  0  0  0  0  0  0  0  0  0
    0.4958    2.0213    1.1374 F   0  0  0  0  0  0  0  0  0  0  0  0
    2.1006    0.4204   -0.5066 F   0  0  0  0  0  0  0  0  0  0  0  0
   -4.3995    0.2581    0.8970 H   0  0  0  0  0  0  0  0  0  0  0  0
  1  2  2  0  0  0  0
  1  6  1  0  0  0  0
  2  3  1  0  0  0  0
  3 16  1  0  0  0  0
  3  4  2  0  0  0  0
  4  9  1  0  0  0  0
  5  4  1  0  0  0  0
  5 10  1  0  0  0  0
  6  5  2  0  0  0  0
  7  1  1  0  0  0  0
  8  2  1  0  0  0  0
 12 11  3  0  0  0  0
 13 17  1  0  0  0  0
 13 15  1  0  0  0  0
 14 13  1  0  0  0  0
 18  6  1  0  0  0  0
M  END
