Coordinates from ORCA-job Ph-N2-BF4-B3LYPG-6-31G_dp-MTMO-d009-169-n800
 OpenBabel09051907443D

 18 16  0  0  0  0  0  0  0  0999 V2000
   -2.1700   -0.2195    0.4971 C   0  0  0  0  0  0  0  0  0  0  0  0
   -0.8515    0.2336    0.5792 C   0  0  0  0  0  0  0  0  0  0  0  0
   -0.6358    1.5219    1.0476 C   0  0  0  0  0  0  0  0  0  0  0  0
   -1.6633    2.3718    1.4319 C   0  0  0  0  0  0  0  0  0  0  0  0
   -2.9746    1.8996    1.3430 C   0  0  0  0  0  0  0  0  0  0  0  0
   -3.2295    0.6077    0.8772 C   0  0  0  0  0  0  0  0  0  0  0  0
   -2.3658   -1.2233    0.1330 H   0  0  0  0  0  0  0  0  0  0  0  0
   -0.0100   -0.3828    0.2868 H   0  0  0  0  0  0  0  0  0  0  0  0
   -1.4325    3.3692    1.7892 H   0  0  0  0  0  0  0  0  0  0  0  0
   -3.7954    2.5456    1.6387 H   0  0  0  0  0  0  0  0  0  0  0  0
   12.9922   -2.0036   -2.0658 N   0  0  0  0  0  0  0  0  0  0  0  0
   12.0132   -1.5199   -2.2368 N   0  0  0  0  0  0  0  0  0  0  0  0
    2.3193    1.6692   -0.5441 B   0  0  0  0  0  0  0  0  0  0  0  0
    1.5656    2.2573   -1.4544 F   0  0  0  0  0  0  0  0  0  0  0  0
    3.1892    2.3719    0.1548 F   0  0  0  0  0  0  0  0  0  0  0  0
    0.6489    1.9812    1.1440 F   0  0  0  0  0  0  0  0  0  0  0  0
    2.2916    0.3495   -0.4251 F   0  0  0  0  0  0  0  0  0  0  0  0
   -4.2511    0.2466    0.8097 H   0  0  0  0  0  0  0  0  0  0  0  0
  1  2  2  0  0  0  0
  1  6  1  0  0  0  0
  2  3  1  0  0  0  0
  3 16  1  0  0  0  0
  3  4  2  0  0  0  0
  4  9  1  0  0  0  0
  5  4  1  0  0  0  0
  5 10  1  0  0  0  0
  6  5  2  0  0  0  0
  7  1  1  0  0  0  0
  8  2  1  0  0  0  0
 12 11  3  0  0  0  0
 13 17  1  0  0  0  0
 13 15  1  0  0  0  0
 14 13  1  0  0  0  0
 18  6  1  0  0  0  0
M  END
