Coordinates from ORCA-job Ph-N2-BF4-B3LYPG-6-31G_dp-MTMO-d009-169-n800
 OpenBabel09051907443D

 18 17  0  0  0  0  0  0  0  0999 V2000
   -0.8910   -0.1276    0.3753 C   0  0  0  0  0  0  0  0  0  0  0  0
    0.3760    0.0501   -0.1561 C   0  0  0  0  0  0  0  0  0  0  0  0
    0.7690    1.3601   -0.6000 C   0  0  0  0  0  0  0  0  0  0  0  0
   -0.1487    2.4621   -0.4514 C   0  0  0  0  0  0  0  0  0  0  0  0
   -1.3906    2.2442    0.0936 C   0  0  0  0  0  0  0  0  0  0  0  0
   -1.7647    0.9496    0.5038 C   0  0  0  0  0  0  0  0  0  0  0  0
   -1.1785   -1.1143    0.7197 H   0  0  0  0  0  0  0  0  0  0  0  0
    1.1098   -0.7409   -0.2410 H   0  0  0  0  0  0  0  0  0  0  0  0
    0.1760    3.4463   -0.7720 H   0  0  0  0  0  0  0  0  0  0  0  0
   -2.0784    3.0746    0.2110 H   0  0  0  0  0  0  0  0  0  0  0  0
    1.7733    1.5305   -1.0661 N   0  0  0  0  0  0  0  0  0  0  0  0
    2.7748    1.7103   -1.5525 N   0  0  0  0  0  0  0  0  0  0  0  0
    3.0006    0.0837    1.4339 B   0  0  0  0  0  0  0  0  0  0  0  0
    3.1344   -0.4648    0.1115 F   0  0  0  0  0  0  0  0  0  0  0  0
    4.0774   -0.2458    2.2146 F   0  0  0  0  0  0  0  0  0  0  0  0
    2.8619    1.4865    1.2821 F   0  0  0  0  0  0  0  0  0  0  0  0
    1.7874   -0.4224    1.9641 F   0  0  0  0  0  0  0  0  0  0  0  0
   -2.7485    0.7939    0.9355 H   0  0  0  0  0  0  0  0  0  0  0  0
  1  6  1  0  0  0  0
  1  7  1  0  0  0  0
  2  1  2  0  0  0  0
  3  4  2  0  0  0  0
  3  2  1  0  0  0  0
  4  5  1  0  0  0  0
  5 10  1  0  0  0  0
  5  6  2  0  0  0  0
  6 18  1  0  0  0  0
  8  2  1  0  0  0  0
  9  4  1  0  0  0  0
 11  3  1  0  0  0  0
 12 11  1  0  0  0  0
 13 17  1  0  0  0  0
 13 15  1  0  0  0  0
 14 13  1  0  0  0  0
 16 13  1  0  0  0  0
M  RAD  2  11   2  12   3
M  END
