Coordinates from ORCA-job Ph-N2-BF4-B3LYPG-6-31G_dp-MTMO-d009-169-n800
 OpenBabel09051907443D

 18 16  0  0  0  0  0  0  0  0999 V2000
   -1.6892   -0.3226    0.4250 C   0  0  0  0  0  0  0  0  0  0  0  0
   -0.4023    0.1349    0.7163 C   0  0  0  0  0  0  0  0  0  0  0  0
   -0.2441    1.4794    1.0216 C   0  0  0  0  0  0  0  0  0  0  0  0
   -1.2994    2.3801    1.0494 C   0  0  0  0  0  0  0  0  0  0  0  0
   -2.5788    1.9025    0.7568 C   0  0  0  0  0  0  0  0  0  0  0  0
   -2.7755    0.5554    0.4445 C   0  0  0  0  0  0  0  0  0  0  0  0
   -1.8389   -1.3697    0.1800 H   0  0  0  0  0  0  0  0  0  0  0  0
    0.4599   -0.5213    0.7070 H   0  0  0  0  0  0  0  0  0  0  0  0
   -1.1147    3.4197    1.2968 H   0  0  0  0  0  0  0  0  0  0  0  0
   -3.4209    2.5877    0.7730 H   0  0  0  0  0  0  0  0  0  0  0  0
    9.0571   -0.8352   -2.5009 N   0  0  0  0  0  0  0  0  0  0  0  0
    8.0862   -0.5904   -2.0328 N   0  0  0  0  0  0  0  0  0  0  0  0
    3.0158    1.2916    0.1741 B   0  0  0  0  0  0  0  0  0  0  0  0
    2.5202    1.6481   -0.9963 F   0  0  0  0  0  0  0  0  0  0  0  0
    3.7236    2.1468    0.8856 F   0  0  0  0  0  0  0  0  0  0  0  0
    1.0072    1.9451    1.3160 F   0  0  0  0  0  0  0  0  0  0  0  0
    2.9061    0.0329    0.5742 F   0  0  0  0  0  0  0  0  0  0  0  0
   -3.7720    0.1911    0.2156 H   0  0  0  0  0  0  0  0  0  0  0  0
  1  6  2  0  0  0  0
  1  2  1  0  0  0  0
  2  3  2  0  0  0  0
  3  4  1  0  0  0  0
  3 16  1  0  0  0  0
  4  9  1  0  0  0  0
  5 10  1  0  0  0  0
  5  4  2  0  0  0  0
  6  5  1  0  0  0  0
  7  1  1  0  0  0  0
  8  2  1  0  0  0  0
 11 12  3  0  0  0  0
 13 17  1  0  0  0  0
 13 15  1  0  0  0  0
 14 13  1  0  0  0  0
 18  6  1  0  0  0  0
M  END
