Coordinates from ORCA-job Ph-N2-BF4-B3LYPG-6-31G_dp-MTMO-d009-169-n800
 OpenBabel09051907443D

 18 16  0  0  0  0  0  0  0  0999 V2000
   -2.2105   -0.2144    0.5093 C   0  0  0  0  0  0  0  0  0  0  0  0
   -0.8929    0.2428    0.5820 C   0  0  0  0  0  0  0  0  0  0  0  0
   -0.6776    1.5307    1.0518 C   0  0  0  0  0  0  0  0  0  0  0  0
   -1.7048    2.3765    1.4457 C   0  0  0  0  0  0  0  0  0  0  0  0
   -3.0152    1.9003    1.3659 C   0  0  0  0  0  0  0  0  0  0  0  0
   -3.2697    0.6085    0.8993 C   0  0  0  0  0  0  0  0  0  0  0  0
   -2.4060   -1.2181    0.1446 H   0  0  0  0  0  0  0  0  0  0  0  0
   -0.0517   -0.3703    0.2816 H   0  0  0  0  0  0  0  0  0  0  0  0
   -1.4744    3.3738    1.8033 H   0  0  0  0  0  0  0  0  0  0  0  0
   -3.8358    2.5431    1.6693 H   0  0  0  0  0  0  0  0  0  0  0  0
   13.3359   -2.0953   -2.1148 N   0  0  0  0  0  0  0  0  0  0  0  0
   12.3577   -1.6103   -2.2863 N   0  0  0  0  0  0  0  0  0  0  0  0
    2.2704    1.6996   -0.5579 B   0  0  0  0  0  0  0  0  0  0  0  0
    1.5195    2.3097   -1.4559 F   0  0  0  0  0  0  0  0  0  0  0  0
    3.1456    2.3833    0.1530 F   0  0  0  0  0  0  0  0  0  0  0  0
    0.6064    1.9937    1.1396 F   0  0  0  0  0  0  0  0  0  0  0  0
    2.2341    0.3781   -0.4637 F   0  0  0  0  0  0  0  0  0  0  0  0
   -4.2906    0.2443    0.8392 H   0  0  0  0  0  0  0  0  0  0  0  0
  1  2  2  0  0  0  0
  1  6  1  0  0  0  0
  2  3  1  0  0  0  0
  3 16  1  0  0  0  0
  3  4  2  0  0  0  0
  4  9  1  0  0  0  0
  5  4  1  0  0  0  0
  5 10  1  0  0  0  0
  6  5  2  0  0  0  0
  7  1  1  0  0  0  0
  8  2  1  0  0  0  0
 12 11  3  0  0  0  0
 13 17  1  0  0  0  0
 13 15  1  0  0  0  0
 14 13  1  0  0  0  0
 18  6  1  0  0  0  0
M  END
