Coordinates from ORCA-job Ph-N2-BF4-B3LYPG-6-31G_dp-MTMO-d009-169-n800
 OpenBabel09051907443D

 18 16  0  0  0  0  0  0  0  0999 V2000
   -2.0658   -0.2388    0.4715 C   0  0  0  0  0  0  0  0  0  0  0  0
   -0.7464    0.2096    0.5631 C   0  0  0  0  0  0  0  0  0  0  0  0
   -0.5295    1.4988    1.0286 C   0  0  0  0  0  0  0  0  0  0  0  0
   -1.5570    2.3540    1.4012 C   0  0  0  0  0  0  0  0  0  0  0  0
   -2.8693    1.8863    1.3031 C   0  0  0  0  0  0  0  0  0  0  0  0
   -3.1253    0.5938    0.8397 C   0  0  0  0  0  0  0  0  0  0  0  0
   -2.2626   -1.2431    0.1094 H   0  0  0  0  0  0  0  0  0  0  0  0
    0.0954   -0.4110    0.2805 H   0  0  0  0  0  0  0  0  0  0  0  0
   -1.3255    3.3517    1.7568 H   0  0  0  0  0  0  0  0  0  0  0  0
   -3.6901    2.5365    1.5897 H   0  0  0  0  0  0  0  0  0  0  0  0
   12.1186   -1.7907   -1.9119 N   0  0  0  0  0  0  0  0  0  0  0  0
   11.1411   -1.3059   -2.0884 N   0  0  0  0  0  0  0  0  0  0  0  0
    2.4400    1.6188   -0.5361 B   0  0  0  0  0  0  0  0  0  0  0  0
    1.6861    2.1804   -1.4629 F   0  0  0  0  0  0  0  0  0  0  0  0
    3.3014    2.3436    0.1505 F   0  0  0  0  0  0  0  0  0  0  0  0
    0.7560    1.9536    1.1334 F   0  0  0  0  0  0  0  0  0  0  0  0
    2.4210    0.3020   -0.3871 F   0  0  0  0  0  0  0  0  0  0  0  0
   -4.1477    0.2365    0.7648 H   0  0  0  0  0  0  0  0  0  0  0  0
  1  2  2  0  0  0  0
  1  6  1  0  0  0  0
  2  3  1  0  0  0  0
  3 16  1  0  0  0  0
  3  4  2  0  0  0  0
  4  9  1  0  0  0  0
  5  4  1  0  0  0  0
  5 10  1  0  0  0  0
  6  5  2  0  0  0  0
  7  1  1  0  0  0  0
  8  2  1  0  0  0  0
 12 11  3  0  0  0  0
 13 17  1  0  0  0  0
 13 15  1  0  0  0  0
 14 13  1  0  0  0  0
 18  6  1  0  0  0  0
M  END
