Coordinates from ORCA-job Ph-N2-BF4-B3LYPG-6-31G_dp-MTMO-d009-169-n800
 OpenBabel09051907443D

 18 16  0  0  0  0  0  0  0  0999 V2000
   -1.5810   -0.1096    1.0813 C   0  0  0  0  0  0  0  0  0  0  0  0
   -0.2037    0.0767    1.2192 C   0  0  0  0  0  0  0  0  0  0  0  0
    0.3561    1.2189    0.6641 C   0  0  0  0  0  0  0  0  0  0  0  0
   -0.3864    2.1731   -0.0173 C   0  0  0  0  0  0  0  0  0  0  0  0
   -1.7620    1.9687   -0.1436 C   0  0  0  0  0  0  0  0  0  0  0  0
   -2.3602    0.8309    0.4033 C   0  0  0  0  0  0  0  0  0  0  0  0
   -2.0427   -0.9961    1.5054 H   0  0  0  0  0  0  0  0  0  0  0  0
    0.4269   -0.6382    1.7340 H   0  0  0  0  0  0  0  0  0  0  0  0
    0.1077    3.0451   -0.4311 H   0  0  0  0  0  0  0  0  0  0  0  0
   -2.3641    2.7021   -0.6717 H   0  0  0  0  0  0  0  0  0  0  0  0
    4.2209    2.4109   -1.6196 N   0  0  0  0  0  0  0  0  0  0  0  0
    5.1507    2.3225   -2.2104 N   0  0  0  0  0  0  0  0  0  0  0  0
    3.4289   -0.2331    0.6010 B   0  0  0  0  0  0  0  0  0  0  0  0
    3.1535   -0.4437   -0.6725 F   0  0  0  0  0  0  0  0  0  0  0  0
    4.3484    0.6483    0.9441 F   0  0  0  0  0  0  0  0  0  0  0  0
    1.7021    1.4245    0.7926 F   0  0  0  0  0  0  0  0  0  0  0  0
    2.8753   -1.0015    1.5278 F   0  0  0  0  0  0  0  0  0  0  0  0
   -3.4299    0.6766    0.2993 H   0  0  0  0  0  0  0  0  0  0  0  0
  1  2  1  0  0  0  0
  1  7  1  0  0  0  0
  2  8  1  0  0  0  0
  3 16  1  0  0  0  0
  3  2  2  0  0  0  0
  4  3  1  0  0  0  0
  5  4  2  0  0  0  0
  5  6  1  0  0  0  0
  6  1  2  0  0  0  0
  9  4  1  0  0  0  0
 10  5  1  0  0  0  0
 12 11  3  0  0  0  0
 13 15  1  0  0  0  0
 13 17  1  0  0  0  0
 14 13  1  0  0  0  0
 18  6  1  0  0  0  0
M  END
