Coordinates from ORCA-job Ph-N2-BF4-B3LYPG-6-31G_dp-MTMO-d009-169-n800
 OpenBabel09051907443D

 18 17  0  0  0  0  0  0  0  0999 V2000
   -1.1950    0.1341    0.8226 C   0  0  0  0  0  0  0  0  0  0  0  0
    0.1518    0.2141    0.4413 C   0  0  0  0  0  0  0  0  0  0  0  0
    0.4255    1.3460   -0.2791 C   0  0  0  0  0  0  0  0  0  0  0  0
   -0.3760    2.3902   -0.6786 C   0  0  0  0  0  0  0  0  0  0  0  0
   -1.7059    2.2571   -0.2613 C   0  0  0  0  0  0  0  0  0  0  0  0
   -2.1044    1.1397    0.4803 C   0  0  0  0  0  0  0  0  0  0  0  0
   -1.5189   -0.7257    1.3998 H   0  0  0  0  0  0  0  0  0  0  0  0
    0.9260   -0.5174    0.6708 H   0  0  0  0  0  0  0  0  0  0  0  0
   -0.0191    3.2361   -1.2511 H   0  0  0  0  0  0  0  0  0  0  0  0
   -2.4185    3.0323   -0.5224 H   0  0  0  0  0  0  0  0  0  0  0  0
    2.0510    1.4893   -0.8260 N   0  0  0  0  0  0  0  0  0  0  0  0
    3.0370    1.6217   -1.3084 N   0  0  0  0  0  0  0  0  0  0  0  0
    3.5382   -0.1342    1.1323 B   0  0  0  0  0  0  0  0  0  0  0  0
    4.5005    0.3602    0.2338 F   0  0  0  0  0  0  0  0  0  0  0  0
    4.0946   -0.7230    2.2363 F   0  0  0  0  0  0  0  0  0  0  0  0
    2.6885    0.9565    1.5010 F   0  0  0  0  0  0  0  0  0  0  0  0
    2.7040   -1.0551    0.4176 F   0  0  0  0  0  0  0  0  0  0  0  0
   -3.1387    1.0542    0.7969 H   0  0  0  0  0  0  0  0  0  0  0  0
  1  7  1  0  0  0  0
  2  8  1  0  0  0  0
  2  1  2  0  0  0  0
  3  2  1  0  0  0  0
  4  3  2  0  0  0  0
  4  5  1  0  0  0  0
  5  6  2  0  0  0  0
  6 18  1  0  0  0  0
  6  1  1  0  0  0  0
  9  4  1  0  0  0  0
 10  5  1  0  0  0  0
 11  3  1  0  0  0  0
 12 11  1  0  0  0  0
 13 16  1  0  0  0  0
 13 15  1  0  0  0  0
 14 13  1  0  0  0  0
 17 13  1  0  0  0  0
M  RAD  2  11   2  12   3
M  END
