Coordinates from ORCA-job Ph-N2-BF4-B3LYPG-6-31G_dp-MTMO-d009-169-n800
 OpenBabel09051907443D

 18 16  0  0  0  0  0  0  0  0999 V2000
   -2.1286   -0.2265    0.4864 C   0  0  0  0  0  0  0  0  0  0  0  0
   -0.8097    0.2246    0.5740 C   0  0  0  0  0  0  0  0  0  0  0  0
   -0.5940    1.5132    1.0414 C   0  0  0  0  0  0  0  0  0  0  0  0
   -1.6218    2.3654    1.4197 C   0  0  0  0  0  0  0  0  0  0  0  0
   -2.9334    1.8953    1.3255 C   0  0  0  0  0  0  0  0  0  0  0  0
   -3.1884    0.6031    0.8603 C   0  0  0  0  0  0  0  0  0  0  0  0
   -2.3245   -1.2304    0.1229 H   0  0  0  0  0  0  0  0  0  0  0  0
    0.0320   -0.3939    0.2866 H   0  0  0  0  0  0  0  0  0  0  0  0
   -1.3909    3.3629    1.7766 H   0  0  0  0  0  0  0  0  0  0  0  0
   -3.7545    2.5431    1.6165 H   0  0  0  0  0  0  0  0  0  0  0  0
   12.6490   -1.9190   -2.0085 N   0  0  0  0  0  0  0  0  0  0  0  0
   11.6706   -1.4346   -2.1806 N   0  0  0  0  0  0  0  0  0  0  0  0
    2.3663    1.6471   -0.5386 B   0  0  0  0  0  0  0  0  0  0  0  0
    1.6117    2.2218   -1.4567 F   0  0  0  0  0  0  0  0  0  0  0  0
    3.2326    2.3609    0.1535 F   0  0  0  0  0  0  0  0  0  0  0  0
    0.6911    1.9705    1.1428 F   0  0  0  0  0  0  0  0  0  0  0  0
    2.3431    0.3287   -0.4044 F   0  0  0  0  0  0  0  0  0  0  0  0
   -4.2103    0.2438    0.7886 H   0  0  0  0  0  0  0  0  0  0  0  0
  1  2  2  0  0  0  0
  1  6  1  0  0  0  0
  2  3  1  0  0  0  0
  3 16  1  0  0  0  0
  3  4  2  0  0  0  0
  4  9  1  0  0  0  0
  5  4  1  0  0  0  0
  5 10  1  0  0  0  0
  6  5  2  0  0  0  0
  7  1  1  0  0  0  0
  8  2  1  0  0  0  0
 12 11  3  0  0  0  0
 13 17  1  0  0  0  0
 13 15  1  0  0  0  0
 14 13  1  0  0  0  0
 18  6  1  0  0  0  0
M  END
