Coordinates from ORCA-job Ph-N2-BF4-B3LYPG-6-31G_dp-MTMO-d009-169-n800
 OpenBabel09051907443D

 18 16  0  0  0  0  0  0  0  0999 V2000
   -1.7572   -0.3087    0.5765 C   0  0  0  0  0  0  0  0  0  0  0  0
   -0.4289    0.1138    0.4877 C   0  0  0  0  0  0  0  0  0  0  0  0
   -0.1656    1.4682    0.6396 C   0  0  0  0  0  0  0  0  0  0  0  0
   -1.1574    2.4109    0.8731 C   0  0  0  0  0  0  0  0  0  0  0  0
   -2.4792    1.9682    0.9586 C   0  0  0  0  0  0  0  0  0  0  0  0
   -2.7808    0.6122    0.8108 C   0  0  0  0  0  0  0  0  0  0  0  0
   -1.9891   -1.3631    0.4595 H   0  0  0  0  0  0  0  0  0  0  0  0
    0.3859   -0.5766    0.3049 H   0  0  0  0  0  0  0  0  0  0  0  0
   -0.8912    3.4564    0.9848 H   0  0  0  0  0  0  0  0  0  0  0  0
   -3.2720    2.6873    1.1412 H   0  0  0  0  0  0  0  0  0  0  0  0
    8.3970   -0.0797   -1.6206 N   0  0  0  0  0  0  0  0  0  0  0  0
    7.3374    0.0241   -1.3239 N   0  0  0  0  0  0  0  0  0  0  0  0
    3.2601    0.8850   -0.1735 B   0  0  0  0  0  0  0  0  0  0  0  0
    3.2180    1.5393   -1.3174 F   0  0  0  0  0  0  0  0  0  0  0  0
    3.8601    1.4125    0.8748 F   0  0  0  0  0  0  0  0  0  0  0  0
    1.1263    1.9033    0.5578 F   0  0  0  0  0  0  0  0  0  0  0  0
    2.7873   -0.3515   -0.1071 F   0  0  0  0  0  0  0  0  0  0  0  0
   -3.8102    0.2743    0.8790 H   0  0  0  0  0  0  0  0  0  0  0  0
  1  6  1  0  0  0  0
  2  1  2  0  0  0  0
  2  3  1  0  0  0  0
  3  4  2  0  0  0  0
  4  5  1  0  0  0  0
  4  9  1  0  0  0  0
  5 10  1  0  0  0  0
  6 18  1  0  0  0  0
  6  5  2  0  0  0  0
  7  1  1  0  0  0  0
  8  2  1  0  0  0  0
 11 12  3  0  0  0  0
 13 17  1  0  0  0  0
 13 15  1  0  0  0  0
 14 13  1  0  0  0  0
 16  3  1  0  0  0  0
M  END
