Coordinates from ORCA-job Ph-N2-BF4-B3LYPG-6-31G_dp-MTMO-d009-169-n800
 OpenBabel09051907443D

 18 17  0  0  0  0  0  0  0  0999 V2000
   -0.8987   -0.1232    0.3800 C   0  0  0  0  0  0  0  0  0  0  0  0
    0.3712    0.0549   -0.1451 C   0  0  0  0  0  0  0  0  0  0  0  0
    0.7594    1.3629   -0.5891 C   0  0  0  0  0  0  0  0  0  0  0  0
   -0.1570    2.4635   -0.4559 C   0  0  0  0  0  0  0  0  0  0  0  0
   -1.4030    2.2456    0.0822 C   0  0  0  0  0  0  0  0  0  0  0  0
   -1.7761    0.9529    0.4973 C   0  0  0  0  0  0  0  0  0  0  0  0
   -1.1865   -1.1089    0.7273 H   0  0  0  0  0  0  0  0  0  0  0  0
    1.1081   -0.7343   -0.2197 H   0  0  0  0  0  0  0  0  0  0  0  0
    0.1669    3.4469   -0.7796 H   0  0  0  0  0  0  0  0  0  0  0  0
   -2.0936    3.0749    0.1900 H   0  0  0  0  0  0  0  0  0  0  0  0
    1.7851    1.5370   -1.0560 N   0  0  0  0  0  0  0  0  0  0  0  0
    2.7876    1.7175   -1.5355 N   0  0  0  0  0  0  0  0  0  0  0  0
    3.0156    0.0736    1.4306 B   0  0  0  0  0  0  0  0  0  0  0  0
    3.1357   -0.4663    0.1022 F   0  0  0  0  0  0  0  0  0  0  0  0
    4.1051   -0.2546    2.1941 F   0  0  0  0  0  0  0  0  0  0  0  0
    2.8701    1.4771    1.2870 F   0  0  0  0  0  0  0  0  0  0  0  0
    1.8128   -0.4404    1.9724 F   0  0  0  0  0  0  0  0  0  0  0  0
   -2.7622    0.7969    0.9237 H   0  0  0  0  0  0  0  0  0  0  0  0
  1  6  1  0  0  0  0
  1  7  1  0  0  0  0
  2  1  2  0  0  0  0
  3  4  2  0  0  0  0
  3  2  1  0  0  0  0
  4  5  1  0  0  0  0
  5 10  1  0  0  0  0
  5  6  2  0  0  0  0
  6 18  1  0  0  0  0
  8  2  1  0  0  0  0
  9  4  1  0  0  0  0
 11  3  1  0  0  0  0
 12 11  1  0  0  0  0
 13 17  1  0  0  0  0
 13 15  1  0  0  0  0
 14 13  1  0  0  0  0
 16 13  1  0  0  0  0
M  RAD  2  11   2  12   3
M  END
