Coordinates from ORCA-job Ph-N2-BF4-B3LYPG-6-31G_dp-MTMO-d009-169-n800
 OpenBabel09051907443D

 18 16  0  0  0  0  0  0  0  0999 V2000
   -1.3611   -0.1041    0.4977 C   0  0  0  0  0  0  0  0  0  0  0  0
   -0.0051    0.0181    0.8086 C   0  0  0  0  0  0  0  0  0  0  0  0
    0.5716    1.2775    0.7198 C   0  0  0  0  0  0  0  0  0  0  0  0
   -0.1367    2.4086    0.3378 C   0  0  0  0  0  0  0  0  0  0  0  0
   -1.4914    2.2656    0.0319 C   0  0  0  0  0  0  0  0  0  0  0  0
   -2.1049    1.0129    0.1101 C   0  0  0  0  0  0  0  0  0  0  0  0
   -1.8350   -1.0793    0.5602 H   0  0  0  0  0  0  0  0  0  0  0  0
    0.5959   -0.8300    1.1127 H   0  0  0  0  0  0  0  0  0  0  0  0
    0.3680    3.3671    0.2855 H   0  0  0  0  0  0  0  0  0  0  0  0
   -2.0650    3.1368   -0.2695 H   0  0  0  0  0  0  0  0  0  0  0  0
    2.5331    1.4937   -2.0281 N   0  0  0  0  0  0  0  0  0  0  0  0
    2.7122    1.4925   -3.1187 N   0  0  0  0  0  0  0  0  0  0  0  0
    3.7592   -0.1566    1.2627 B   0  0  0  0  0  0  0  0  0  0  0  0
    4.1459   -0.0190    0.0085 F   0  0  0  0  0  0  0  0  0  0  0  0
    4.2604    0.6200    2.2022 F   0  0  0  0  0  0  0  0  0  0  0  0
    1.8953    1.4223    1.0224 F   0  0  0  0  0  0  0  0  0  0  0  0
    2.9559   -1.1573    1.5938 F   0  0  0  0  0  0  0  0  0  0  0  0
   -3.1578    0.9073   -0.1316 H   0  0  0  0  0  0  0  0  0  0  0  0
  1  7  1  0  0  0  0
  1  2  2  0  0  0  0
  2  8  1  0  0  0  0
  3  2  1  0  0  0  0
  3 16  1  0  0  0  0
  4  3  2  0  0  0  0
  5  6  2  0  0  0  0
  5  4  1  0  0  0  0
  6  1  1  0  0  0  0
  9  4  1  0  0  0  0
 10  5  1  0  0  0  0
 12 11  3  0  0  0  0
 13 17  1  0  0  0  0
 13 15  1  0  0  0  0
 14 13  1  0  0  0  0
 18  6  1  0  0  0  0
M  END
