Coordinates from ORCA-job Ph-N2-BF4-B3LYPG-6-31G_dp-MTMO-d009-169-n800
 OpenBabel09051907443D

 18 16  0  0  0  0  0  0  0  0999 V2000
   -1.6991   -0.3189    0.4231 C   0  0  0  0  0  0  0  0  0  0  0  0
   -0.4124    0.1422    0.7097 C   0  0  0  0  0  0  0  0  0  0  0  0
   -0.2586    1.4852    1.0237 C   0  0  0  0  0  0  0  0  0  0  0  0
   -1.3177    2.3809    1.0646 C   0  0  0  0  0  0  0  0  0  0  0  0
   -2.5967    1.8996    0.7765 C   0  0  0  0  0  0  0  0  0  0  0  0
   -2.7892    0.5539    0.4557 C   0  0  0  0  0  0  0  0  0  0  0  0
   -1.8455   -1.3650    0.1715 H   0  0  0  0  0  0  0  0  0  0  0  0
    0.4525   -0.5102    0.6905 H   0  0  0  0  0  0  0  0  0  0  0  0
   -1.1360    3.4195    1.3183 H   0  0  0  0  0  0  0  0  0  0  0  0
   -3.4418    2.5808    0.8030 H   0  0  0  0  0  0  0  0  0  0  0  0
    9.1787   -0.8776   -2.5140 N   0  0  0  0  0  0  0  0  0  0  0  0
    8.2045   -0.6340   -2.0520 N   0  0  0  0  0  0  0  0  0  0  0  0
    2.9979    1.3063    0.1628 B   0  0  0  0  0  0  0  0  0  0  0  0
    2.4992    1.6665   -1.0051 F   0  0  0  0  0  0  0  0  0  0  0  0
    3.7073    2.1592    0.8754 F   0  0  0  0  0  0  0  0  0  0  0  0
    0.9924    1.9549    1.3137 F   0  0  0  0  0  0  0  0  0  0  0  0
    2.8905    0.0460    0.5584 F   0  0  0  0  0  0  0  0  0  0  0  0
   -3.7855    0.1866    0.2303 H   0  0  0  0  0  0  0  0  0  0  0  0
  1  6  2  0  0  0  0
  1  2  1  0  0  0  0
  2  3  2  0  0  0  0
  3  4  1  0  0  0  0
  3 16  1  0  0  0  0
  4  9  1  0  0  0  0
  5 10  1  0  0  0  0
  5  4  2  0  0  0  0
  6  5  1  0  0  0  0
  7  1  1  0  0  0  0
  8  2  1  0  0  0  0
 11 12  3  0  0  0  0
 13 17  1  0  0  0  0
 13 15  1  0  0  0  0
 14 13  1  0  0  0  0
 18  6  1  0  0  0  0
M  END
