Coordinates from ORCA-job Ph-N2-BF4-B3LYPG-6-31G_dp-MTMO-d009-169-n800
 OpenBabel09051907443D

 18 16  0  0  0  0  0  0  0  0999 V2000
   -2.0033   -0.2539    0.4592 C   0  0  0  0  0  0  0  0  0  0  0  0
   -0.6863    0.2006    0.5548 C   0  0  0  0  0  0  0  0  0  0  0  0
   -0.4769    1.4920    1.0179 C   0  0  0  0  0  0  0  0  0  0  0  0
   -1.5096    2.3433    1.3845 C   0  0  0  0  0  0  0  0  0  0  0  0
   -2.8194    1.8696    1.2826 C   0  0  0  0  0  0  0  0  0  0  0  0
   -3.0679    0.5748    0.8213 C   0  0  0  0  0  0  0  0  0  0  0  0
   -2.1941   -1.2600    0.0987 H   0  0  0  0  0  0  0  0  0  0  0  0
    0.1594   -0.4170    0.2771 H   0  0  0  0  0  0  0  0  0  0  0  0
   -1.2840    3.3430    1.7387 H   0  0  0  0  0  0  0  0  0  0  0  0
   -3.6443    2.5167    1.5645 H   0  0  0  0  0  0  0  0  0  0  0  0
   11.6655   -1.7034   -1.8310 N   0  0  0  0  0  0  0  0  0  0  0  0
   10.6883   -1.2216   -2.0170 N   0  0  0  0  0  0  0  0  0  0  0  0
    2.5015    1.6143   -0.5311 B   0  0  0  0  0  0  0  0  0  0  0  0
    1.7498    2.1639   -1.4668 F   0  0  0  0  0  0  0  0  0  0  0  0
    3.3551    2.3495    0.1542 F   0  0  0  0  0  0  0  0  0  0  0  0
    0.8062    1.9528    1.1264 F   0  0  0  0  0  0  0  0  0  0  0  0
    2.4889    0.2987   -0.3712 F   0  0  0  0  0  0  0  0  0  0  0  0
   -4.0884    0.2128    0.7433 H   0  0  0  0  0  0  0  0  0  0  0  0
  1  2  2  0  0  0  0
  1  6  1  0  0  0  0
  2  3  1  0  0  0  0
  3 16  1  0  0  0  0
  3  4  2  0  0  0  0
  4  9  1  0  0  0  0
  5  4  1  0  0  0  0
  5 10  1  0  0  0  0
  6  5  2  0  0  0  0
  7  1  1  0  0  0  0
  8  2  1  0  0  0  0
 12 11  3  0  0  0  0
 13 17  1  0  0  0  0
 13 15  1  0  0  0  0
 14 13  1  0  0  0  0
 18  6  1  0  0  0  0
M  END
