Coordinates from ORCA-job Ph-N2-BF4-B3LYPG-6-31G_dp-MTMO-d009-169-n800
 OpenBabel09051907443D

 18 16  0  0  0  0  0  0  0  0999 V2000
   -1.8710   -0.2829    0.4340 C   0  0  0  0  0  0  0  0  0  0  0  0
   -0.5550    0.1708    0.5446 C   0  0  0  0  0  0  0  0  0  0  0  0
   -0.3506    1.4671    0.9960 C   0  0  0  0  0  0  0  0  0  0  0  0
   -1.3875    2.3241    1.3370 C   0  0  0  0  0  0  0  0  0  0  0  0
   -2.6963    1.8510    1.2205 C   0  0  0  0  0  0  0  0  0  0  0  0
   -2.9398    0.5514    0.7702 C   0  0  0  0  0  0  0  0  0  0  0  0
   -2.0580   -1.2927    0.0819 H   0  0  0  0  0  0  0  0  0  0  0  0
    0.2939   -0.4511    0.2870 H   0  0  0  0  0  0  0  0  0  0  0  0
   -1.1657    3.3273    1.6833 H   0  0  0  0  0  0  0  0  0  0  0  0
   -3.5243    2.5024    1.4824 H   0  0  0  0  0  0  0  0  0  0  0  0
   10.5949   -1.4515   -1.6524 N   0  0  0  0  0  0  0  0  0  0  0  0
    9.6266   -0.9633   -1.8660 N   0  0  0  0  0  0  0  0  0  0  0  0
    2.6528    1.5597   -0.5058 B   0  0  0  0  0  0  0  0  0  0  0  0
    1.9137    2.0876   -1.4638 F   0  0  0  0  0  0  0  0  0  0  0  0
    3.4942    2.3111    0.1769 F   0  0  0  0  0  0  0  0  0  0  0  0
    0.9313    1.9274    1.1185 F   0  0  0  0  0  0  0  0  0  0  0  0
    2.6408    0.2476   -0.3190 F   0  0  0  0  0  0  0  0  0  0  0  0
   -3.9595    0.1900    0.6805 H   0  0  0  0  0  0  0  0  0  0  0  0
  1  2  2  0  0  0  0
  1  6  1  0  0  0  0
  2  3  1  0  0  0  0
  3 16  1  0  0  0  0
  3  4  2  0  0  0  0
  4  9  1  0  0  0  0
  5  4  1  0  0  0  0
  5 10  1  0  0  0  0
  6  5  2  0  0  0  0
  7  1  1  0  0  0  0
  8  2  1  0  0  0  0
 12 11  3  0  0  0  0
 13 17  1  0  0  0  0
 13 15  1  0  0  0  0
 14 13  1  0  0  0  0
 18  6  1  0  0  0  0
M  END
