Coordinates from ORCA-job Ph-N2-BF4-B3LYPG-6-31G_dp-MTMO-d009-169-n800
 OpenBabel09051907443D

 18 17  0  0  0  0  0  0  0  0999 V2000
   -0.9456   -0.0648    0.4441 C   0  0  0  0  0  0  0  0  0  0  0  0
    0.3474    0.1191   -0.0217 C   0  0  0  0  0  0  0  0  0  0  0  0
    0.7067    1.4068   -0.5104 C   0  0  0  0  0  0  0  0  0  0  0  0
   -0.2284    2.4836   -0.5159 C   0  0  0  0  0  0  0  0  0  0  0  0
   -1.5036    2.2603   -0.0399 C   0  0  0  0  0  0  0  0  0  0  0  0
   -1.8618    0.9884    0.4384 C   0  0  0  0  0  0  0  0  0  0  0  0
   -1.2276   -1.0361    0.8345 H   0  0  0  0  0  0  0  0  0  0  0  0
    1.1087   -0.6512    0.0019 H   0  0  0  0  0  0  0  0  0  0  0  0
    0.0832    3.4549   -0.8848 H   0  0  0  0  0  0  0  0  0  0  0  0
   -2.2237    3.0712   -0.0323 H   0  0  0  0  0  0  0  0  0  0  0  0
    1.8285    1.6043   -0.9484 N   0  0  0  0  0  0  0  0  0  0  0  0
    2.8473    1.7923   -1.3713 N   0  0  0  0  0  0  0  0  0  0  0  0
    3.1433   -0.0437    1.3946 B   0  0  0  0  0  0  0  0  0  0  0  0
    3.1538   -0.4634    0.0131 F   0  0  0  0  0  0  0  0  0  0  0  0
    4.3442   -0.3188    1.9951 F   0  0  0  0  0  0  0  0  0  0  0  0
    2.8697    1.3512    1.3801 F   0  0  0  0  0  0  0  0  0  0  0  0
    2.0652   -0.7053    2.0126 F   0  0  0  0  0  0  0  0  0  0  0  0
   -2.8668    0.8270    0.8160 H   0  0  0  0  0  0  0  0  0  0  0  0
  1  7  1  0  0  0  0
  2  8  1  0  0  0  0
  2  1  2  0  0  0  0
  3  2  1  0  0  0  0
  4  3  2  0  0  0  0
  4  5  1  0  0  0  0
  5 10  1  0  0  0  0
  5  6  2  0  0  0  0
  6  1  1  0  0  0  0
  6 18  1  0  0  0  0
  9  4  1  0  0  0  0
 11  3  1  0  0  0  0
 12 11  1  0  0  0  0
 13 15  1  0  0  0  0
 13 17  1  0  0  0  0
 14 13  1  0  0  0  0
 16 13  1  0  0  0  0
M  RAD  2  11   2  12   3
M  END
