Coordinates from ORCA-job Ph-N2-BF4-B3LYPG-6-31G_dp-MTMO-d009-169-n800
 OpenBabel09051907443D

 18 16  0  0  0  0  0  0  0  0999 V2000
   -1.1167    0.1105    0.7747 C   0  0  0  0  0  0  0  0  0  0  0  0
    0.2308    0.2620    0.3452 C   0  0  0  0  0  0  0  0  0  0  0  0
    0.3045    1.4247   -0.2984 C   0  0  0  0  0  0  0  0  0  0  0  0
   -0.4609    2.4765   -0.6599 C   0  0  0  0  0  0  0  0  0  0  0  0
   -1.7752    2.2477   -0.1898 C   0  0  0  0  0  0  0  0  0  0  0  0
   -2.0874    1.0808    0.5143 C   0  0  0  0  0  0  0  0  0  0  0  0
   -1.3556   -0.7911    1.3306 H   0  0  0  0  0  0  0  0  0  0  0  0
    1.0670   -0.4498    0.5471 H   0  0  0  0  0  0  0  0  0  0  0  0
   -0.1505    3.3533   -1.2089 H   0  0  0  0  0  0  0  0  0  0  0  0
   -2.5257    3.0043   -0.3962 H   0  0  0  0  0  0  0  0  0  0  0  0
    2.3062    1.7211   -1.1137 N   0  0  0  0  0  0  0  0  0  0  0  0
    3.3315    1.7153   -1.5224 N   0  0  0  0  0  0  0  0  0  0  0  0
    3.4373   -0.1955    1.2269 B   0  0  0  0  0  0  0  0  0  0  0  0
    4.4020   -0.0063    0.2414 F   0  0  0  0  0  0  0  0  0  0  0  0
    3.9582   -0.6126    2.4251 F   0  0  0  0  0  0  0  0  0  0  0  0
    2.6853    1.0015    1.3813 F   0  0  0  0  0  0  0  0  0  0  0  0
    2.4907   -1.1944    0.7404 F   0  0  0  0  0  0  0  0  0  0  0  0
   -3.1012    0.9281    0.8681 H   0  0  0  0  0  0  0  0  0  0  0  0
  1  7  1  0  0  0  0
  2  8  1  0  0  0  0
  2  1  2  0  0  0  0
  3  2  1  0  0  0  0
  4  3  2  0  0  0  0
  4  5  1  0  0  0  0
  5  6  2  0  0  0  0
  6  1  1  0  0  0  0
  6 18  1  0  0  0  0
  9  4  1  0  0  0  0
 10  5  1  0  0  0  0
 12 11  3  0  0  0  0
 13 16  1  0  0  0  0
 13 15  1  0  0  0  0
 14 13  1  0  0  0  0
 17 13  1  0  0  0  0
M  RAD  1   3   2
M  END
