Coordinates from ORCA-job Ph-N2-BF4-B3LYPG-6-31G_dp-MTMO-d009-169-n800
 OpenBabel09051907443D

 18 16  0  0  0  0  0  0  0  0999 V2000
   -1.1809   -0.0803    0.1925 C   0  0  0  0  0  0  0  0  0  0  0  0
    0.1382    0.0432    0.6295 C   0  0  0  0  0  0  0  0  0  0  0  0
    0.7005    1.3142    0.6638 C   0  0  0  0  0  0  0  0  0  0  0  0
   -0.0298    2.4636    0.3841 C   0  0  0  0  0  0  0  0  0  0  0  0
   -1.3475    2.3203   -0.0505 C   0  0  0  0  0  0  0  0  0  0  0  0
   -1.9227    1.0510   -0.1579 C   0  0  0  0  0  0  0  0  0  0  0  0
   -1.6318   -1.0665    0.1339 H   0  0  0  0  0  0  0  0  0  0  0  0
    0.7363   -0.8150    0.9104 H   0  0  0  0  0  0  0  0  0  0  0  0
    0.4432    3.4348    0.4791 H   0  0  0  0  0  0  0  0  0  0  0  0
   -1.9266    3.2044   -0.2987 H   0  0  0  0  0  0  0  0  0  0  0  0
    1.7555    1.1824   -1.3777 N   0  0  0  0  0  0  0  0  0  0  0  0
    1.3487    1.0667   -2.4016 N   0  0  0  0  0  0  0  0  0  0  0  0
    3.8657   -0.0921    1.3066 B   0  0  0  0  0  0  0  0  0  0  0  0
    4.2570    0.1040    0.0621 F   0  0  0  0  0  0  0  0  0  0  0  0
    4.3491    0.6515    2.2815 F   0  0  0  0  0  0  0  0  0  0  0  0
    1.9612    1.4632    1.1595 F   0  0  0  0  0  0  0  0  0  0  0  0
    3.0716   -1.1150    1.5891 F   0  0  0  0  0  0  0  0  0  0  0  0
   -2.9471    0.9456   -0.4996 H   0  0  0  0  0  0  0  0  0  0  0  0
  1  2  2  0  0  0  0
  2  3  1  0  0  0  0
  2  8  1  0  0  0  0
  3 16  1  0  0  0  0
  4  9  1  0  0  0  0
  4  3  2  0  0  0  0
  5  4  1  0  0  0  0
  6  5  2  0  0  0  0
  6  1  1  0  0  0  0
  7  1  1  0  0  0  0
 10  5  1  0  0  0  0
 12 11  3  0  0  0  0
 13 17  1  0  0  0  0
 13 15  1  0  0  0  0
 14 13  1  0  0  0  0
 18  6  1  0  0  0  0
M  END
