Coordinates from ORCA-job Ph-N2-BF4-B3LYPG-6-31G_dp-MTMO-d009-169-n800
 OpenBabel09051907443D

 18 16  0  0  0  0  0  0  0  0999 V2000
   -2.1535   -0.2221    0.4927 C   0  0  0  0  0  0  0  0  0  0  0  0
   -0.8349    0.2300    0.5772 C   0  0  0  0  0  0  0  0  0  0  0  0
   -0.6191    1.5185    1.0453 C   0  0  0  0  0  0  0  0  0  0  0  0
   -1.6467    2.3694    1.4269 C   0  0  0  0  0  0  0  0  0  0  0  0
   -2.9581    1.8982    1.3356 C   0  0  0  0  0  0  0  0  0  0  0  0
   -3.2132    0.6062    0.8700 C   0  0  0  0  0  0  0  0  0  0  0  0
   -2.3495   -1.2259    0.1288 H   0  0  0  0  0  0  0  0  0  0  0  0
    0.0067   -0.3874    0.2872 H   0  0  0  0  0  0  0  0  0  0  0  0
   -1.4158    3.3668    1.7840 H   0  0  0  0  0  0  0  0  0  0  0  0
   -3.7791    2.5451    1.6292 H   0  0  0  0  0  0  0  0  0  0  0  0
   12.8549   -1.9691   -2.0436 N   0  0  0  0  0  0  0  0  0  0  0  0
   11.8760   -1.4852   -2.2148 N   0  0  0  0  0  0  0  0  0  0  0  0
    2.3383    1.6595   -0.5412 B   0  0  0  0  0  0  0  0  0  0  0  0
    1.5840    2.2414   -1.4550 F   0  0  0  0  0  0  0  0  0  0  0  0
    3.2066    2.3674    0.1545 F   0  0  0  0  0  0  0  0  0  0  0  0
    0.6658    1.9768    1.1440 F   0  0  0  0  0  0  0  0  0  0  0  0
    2.3127    0.3404   -0.4152 F   0  0  0  0  0  0  0  0  0  0  0  0
   -4.2349    0.2460    0.8006 H   0  0  0  0  0  0  0  0  0  0  0  0
  1  2  2  0  0  0  0
  1  6  1  0  0  0  0
  2  3  1  0  0  0  0
  3 16  1  0  0  0  0
  3  4  2  0  0  0  0
  4  9  1  0  0  0  0
  5  4  1  0  0  0  0
  5 10  1  0  0  0  0
  6  5  2  0  0  0  0
  7  1  1  0  0  0  0
  8  2  1  0  0  0  0
 12 11  3  0  0  0  0
 13 17  1  0  0  0  0
 13 15  1  0  0  0  0
 14 13  1  0  0  0  0
 18  6  1  0  0  0  0
M  END
