Coordinates from ORCA-job Ph-N2-BF4-B3LYPG-6-31G_dp-MTMO-d009-169-n800
 OpenBabel09051907443D

 18 16  0  0  0  0  0  0  0  0999 V2000
   -1.7370   -0.3053    0.5819 C   0  0  0  0  0  0  0  0  0  0  0  0
   -0.4094    0.1064    0.4448 C   0  0  0  0  0  0  0  0  0  0  0  0
   -0.1298    1.4587    0.5868 C   0  0  0  0  0  0  0  0  0  0  0  0
   -1.1046    2.4096    0.8561 C   0  0  0  0  0  0  0  0  0  0  0  0
   -2.4260    1.9775    0.9894 C   0  0  0  0  0  0  0  0  0  0  0  0
   -2.7439    0.6240    0.8530 C   0  0  0  0  0  0  0  0  0  0  0  0
   -1.9815   -1.3578    0.4739 H   0  0  0  0  0  0  0  0  0  0  0  0
    0.3930   -0.5904    0.2335 H   0  0  0  0  0  0  0  0  0  0  0  0
   -0.8260    3.4527    0.9577 H   0  0  0  0  0  0  0  0  0  0  0  0
   -3.2059    2.7030    1.2004 H   0  0  0  0  0  0  0  0  0  0  0  0
    8.0843    0.0535   -1.4109 N   0  0  0  0  0  0  0  0  0  0  0  0
    7.0175    0.1751   -1.1486 N   0  0  0  0  0  0  0  0  0  0  0  0
    3.3109    0.8115   -0.2504 B   0  0  0  0  0  0  0  0  0  0  0  0
    3.2945    1.4745   -1.3897 F   0  0  0  0  0  0  0  0  0  0  0  0
    3.9093    1.3192    0.8083 F   0  0  0  0  0  0  0  0  0  0  0  0
    1.1617    1.8822    0.4572 F   0  0  0  0  0  0  0  0  0  0  0  0
    2.8060   -0.4128   -0.1965 F   0  0  0  0  0  0  0  0  0  0  0  0
   -3.7728    0.2945    0.9589 H   0  0  0  0  0  0  0  0  0  0  0  0
  1  6  1  0  0  0  0
  2  1  2  0  0  0  0
  2  3  1  0  0  0  0
  3  4  2  0  0  0  0
  4  9  1  0  0  0  0
  4  5  1  0  0  0  0
  5 10  1  0  0  0  0
  6 18  1  0  0  0  0
  6  5  2  0  0  0  0
  7  1  1  0  0  0  0
  8  2  1  0  0  0  0
 11 12  3  0  0  0  0
 13 17  1  0  0  0  0
 13 15  1  0  0  0  0
 14 13  1  0  0  0  0
 16  3  1  0  0  0  0
M  END
