Coordinates from ORCA-job Ph-N2-BF4-B3LYPG-6-31G_dp-MTMO-d009-169-n800
 OpenBabel09051907443D

 18 17  0  0  0  0  0  0  0  0999 V2000
   -0.8578   -0.1677    0.3260 C   0  0  0  0  0  0  0  0  0  0  0  0
    0.3977   -0.0010   -0.2304 C   0  0  0  0  0  0  0  0  0  0  0  0
    0.8419    1.3223   -0.6720 C   0  0  0  0  0  0  0  0  0  0  0  0
   -0.0679    2.4414   -0.3932 C   0  0  0  0  0  0  0  0  0  0  0  0
   -1.2847    2.2302    0.1909 C   0  0  0  0  0  0  0  0  0  0  0  0
   -1.6910    0.9237    0.5409 C   0  0  0  0  0  0  0  0  0  0  0  0
   -1.1604   -1.1626    0.6327 H   0  0  0  0  0  0  0  0  0  0  0  0
    1.1015   -0.8074   -0.3890 H   0  0  0  0  0  0  0  0  0  0  0  0
    0.2833    3.4277   -0.6783 H   0  0  0  0  0  0  0  0  0  0  0  0
   -1.9372    3.0745    0.3859 H   0  0  0  0  0  0  0  0  0  0  0  0
    1.6928    1.4617   -1.1382 N   0  0  0  0  0  0  0  0  0  0  0  0
    2.6762    1.6362   -1.6976 N   0  0  0  0  0  0  0  0  0  0  0  0
    2.8960    0.1838    1.4548 B   0  0  0  0  0  0  0  0  0  0  0  0
    3.1240   -0.4235    0.1808 F   0  0  0  0  0  0  0  0  0  0  0  0
    3.8842   -0.1314    2.3479 F   0  0  0  0  0  0  0  0  0  0  0  0
    2.7839    1.5785    1.2461 F   0  0  0  0  0  0  0  0  0  0  0  0
    1.6231   -0.2856    1.9026 F   0  0  0  0  0  0  0  0  0  0  0  0
   -2.6652    0.7751    0.9960 H   0  0  0  0  0  0  0  0  0  0  0  0
  1  6  1  0  0  0  0
  1  7  1  0  0  0  0
  2  1  2  0  0  0  0
  3  4  2  0  0  0  0
  3  2  1  0  0  0  0
  4  5  1  0  0  0  0
  5 10  1  0  0  0  0
  5  6  2  0  0  0  0
  6 18  1  0  0  0  0
  8  2  1  0  0  0  0
  9  4  1  0  0  0  0
 11  3  1  0  0  0  0
 12 11  1  0  0  0  0
 13 17  1  0  0  0  0
 13 15  1  0  0  0  0
 14 13  1  0  0  0  0
 16 13  1  0  0  0  0
M  RAD  2  11   2  12   3
M  END
