Coordinates from ORCA-job Ph-N2-BF4-B3LYPG-6-31G_dp-MTMO-d009-169-n800
 OpenBabel09051907443D

 18 16  0  0  0  0  0  0  0  0999 V2000
   -2.2325   -0.2109    0.5146 C   0  0  0  0  0  0  0  0  0  0  0  0
   -0.9145    0.2461    0.5813 C   0  0  0  0  0  0  0  0  0  0  0  0
   -0.6966    1.5332    1.0519 C   0  0  0  0  0  0  0  0  0  0  0  0
   -1.7217    2.3786    1.4523 C   0  0  0  0  0  0  0  0  0  0  0  0
   -3.0326    1.9027    1.3784 C   0  0  0  0  0  0  0  0  0  0  0  0
   -3.2896    0.6116    0.9113 C   0  0  0  0  0  0  0  0  0  0  0  0
   -2.4302   -1.2139    0.1495 H   0  0  0  0  0  0  0  0  0  0  0  0
   -0.0747   -0.3663    0.2757 H   0  0  0  0  0  0  0  0  0  0  0  0
   -1.4895    3.3754    1.8102 H   0  0  0  0  0  0  0  0  0  0  0  0
   -3.8516    2.5451    1.6868 H   0  0  0  0  0  0  0  0  0  0  0  0
   13.4930   -2.1310   -2.1353 N   0  0  0  0  0  0  0  0  0  0  0  0
   12.5145   -1.6463   -2.3068 N   0  0  0  0  0  0  0  0  0  0  0  0
    2.2503    1.7089   -0.5651 B   0  0  0  0  0  0  0  0  0  0  0  0
    1.5011    2.3289   -1.4577 F   0  0  0  0  0  0  0  0  0  0  0  0
    3.1282    2.3839    0.1509 F   0  0  0  0  0  0  0  0  0  0  0  0
    0.5879    1.9957    1.1339 F   0  0  0  0  0  0  0  0  0  0  0  0
    2.2098    0.3867   -0.4819 F   0  0  0  0  0  0  0  0  0  0  0  0
   -4.3109    0.2477    0.8559 H   0  0  0  0  0  0  0  0  0  0  0  0
  1  2  2  0  0  0  0
  1  6  1  0  0  0  0
  2  3  1  0  0  0  0
  3 16  1  0  0  0  0
  3  4  2  0  0  0  0
  4  9  1  0  0  0  0
  5  4  1  0  0  0  0
  5 10  1  0  0  0  0
  6  5  2  0  0  0  0
  7  1  1  0  0  0  0
  8  2  1  0  0  0  0
 12 11  3  0  0  0  0
 13 17  1  0  0  0  0
 13 15  1  0  0  0  0
 14 13  1  0  0  0  0
 18  6  1  0  0  0  0
M  END
