Coordinates from ORCA-job Ph-N2-BF4-B3LYPG-6-31G_dp-MTMO-d009-169-n800
 OpenBabel09051907443D

 18 16  0  0  0  0  0  0  0  0999 V2000
   -2.3009   -0.1972    0.5302 C   0  0  0  0  0  0  0  0  0  0  0  0
   -0.9838    0.2639    0.5876 C   0  0  0  0  0  0  0  0  0  0  0  0
   -0.7664    1.5500    1.0614 C   0  0  0  0  0  0  0  0  0  0  0  0
   -1.7909    2.3904    1.4736 C   0  0  0  0  0  0  0  0  0  0  0  0
   -3.1007    1.9103    1.4088 C   0  0  0  0  0  0  0  0  0  0  0  0
   -3.3573    0.6202    0.9388 C   0  0  0  0  0  0  0  0  0  0  0  0
   -2.4981   -1.1996    0.1630 H   0  0  0  0  0  0  0  0  0  0  0  0
   -0.1448   -0.3447    0.2725 H   0  0  0  0  0  0  0  0  0  0  0  0
   -1.5589    3.3865    1.8333 H   0  0  0  0  0  0  0  0  0  0  0  0
   -3.9192    2.5489    1.7264 H   0  0  0  0  0  0  0  0  0  0  0  0
   14.0590   -2.2676   -2.2280 N   0  0  0  0  0  0  0  0  0  0  0  0
   13.0798   -1.7851   -2.4012 N   0  0  0  0  0  0  0  0  0  0  0  0
    2.1739    1.7393   -0.5731 B   0  0  0  0  0  0  0  0  0  0  0  0
    1.4293    2.3770   -1.4570 F   0  0  0  0  0  0  0  0  0  0  0  0
    3.0568    2.3977    0.1521 F   0  0  0  0  0  0  0  0  0  0  0  0
    0.5171    2.0166    1.1348 F   0  0  0  0  0  0  0  0  0  0  0  0
    2.1234    0.4164   -0.5080 F   0  0  0  0  0  0  0  0  0  0  0  0
   -4.3778    0.2530    0.8907 H   0  0  0  0  0  0  0  0  0  0  0  0
  1  2  2  0  0  0  0
  1  6  1  0  0  0  0
  2  3  1  0  0  0  0
  3 16  1  0  0  0  0
  3  4  2  0  0  0  0
  4  9  1  0  0  0  0
  5  4  1  0  0  0  0
  5 10  1  0  0  0  0
  6  5  2  0  0  0  0
  7  1  1  0  0  0  0
  8  2  1  0  0  0  0
 12 11  3  0  0  0  0
 13 17  1  0  0  0  0
 13 15  1  0  0  0  0
 14 13  1  0  0  0  0
 18  6  1  0  0  0  0
M  END
