Coordinates from ORCA-job Ph-N2-BF4-B3LYPG-6-31G_dp-MTMO-d009-169-n800
 OpenBabel09051907443D

 18 16  0  0  0  0  0  0  0  0999 V2000
   -1.9088   -0.2747    0.4407 C   0  0  0  0  0  0  0  0  0  0  0  0
   -0.5925    0.1797    0.5460 C   0  0  0  0  0  0  0  0  0  0  0  0
   -0.3868    1.4741    1.0021 C   0  0  0  0  0  0  0  0  0  0  0  0
   -1.4224    2.3286    1.3527 C   0  0  0  0  0  0  0  0  0  0  0  0
   -2.7315    1.8549    1.2414 C   0  0  0  0  0  0  0  0  0  0  0  0
   -2.9764    0.5572    0.7867 C   0  0  0  0  0  0  0  0  0  0  0  0
   -2.0969   -1.2831    0.0852 H   0  0  0  0  0  0  0  0  0  0  0  0
    0.2554   -0.4403    0.2809 H   0  0  0  0  0  0  0  0  0  0  0  0
   -1.1996    3.3305    1.7023 H   0  0  0  0  0  0  0  0  0  0  0  0
   -3.5586    2.5045    1.5109 H   0  0  0  0  0  0  0  0  0  0  0  0
   10.9063   -1.5287   -1.7002 N   0  0  0  0  0  0  0  0  0  0  0  0
    9.9356   -1.0409   -1.9043 N   0  0  0  0  0  0  0  0  0  0  0  0
    2.6069    1.5790   -0.5176 B   0  0  0  0  0  0  0  0  0  0  0  0
    1.8616    2.1132   -1.4672 F   0  0  0  0  0  0  0  0  0  0  0  0
    3.4522    2.3262    0.1650 F   0  0  0  0  0  0  0  0  0  0  0  0
    0.8955    1.9349    1.1197 F   0  0  0  0  0  0  0  0  0  0  0  0
    2.5968    0.2656   -0.3396 F   0  0  0  0  0  0  0  0  0  0  0  0
   -3.9963    0.1953    0.7012 H   0  0  0  0  0  0  0  0  0  0  0  0
  1  2  2  0  0  0  0
  1  6  1  0  0  0  0
  2  3  1  0  0  0  0
  3 16  1  0  0  0  0
  3  4  2  0  0  0  0
  4  9  1  0  0  0  0
  5  4  1  0  0  0  0
  5 10  1  0  0  0  0
  6  5  2  0  0  0  0
  7  1  1  0  0  0  0
  8  2  1  0  0  0  0
 12 11  3  0  0  0  0
 13 17  1  0  0  0  0
 13 15  1  0  0  0  0
 14 13  1  0  0  0  0
 18  6  1  0  0  0  0
M  END
