Coordinates from ORCA-job Ph-N2-BF4-B3LYPG-6-31G_dp-MTMO-d009-169-n800
 OpenBabel09051907443D

 18 16  0  0  0  0  0  0  0  0999 V2000
   -1.3937   -0.1061    0.5569 C   0  0  0  0  0  0  0  0  0  0  0  0
   -0.0322    0.0146    0.8438 C   0  0  0  0  0  0  0  0  0  0  0  0
    0.5513    1.2671    0.7130 C   0  0  0  0  0  0  0  0  0  0  0  0
   -0.1551    2.3929    0.3122 C   0  0  0  0  0  0  0  0  0  0  0  0
   -1.5152    2.2515    0.0308 C   0  0  0  0  0  0  0  0  0  0  0  0
   -2.1358    1.0056    0.1515 C   0  0  0  0  0  0  0  0  0  0  0  0
   -1.8730   -1.0760    0.6522 H   0  0  0  0  0  0  0  0  0  0  0  0
    0.5679   -0.8297    1.1598 H   0  0  0  0  0  0  0  0  0  0  0  0
    0.3553    3.3458    0.2263 H   0  0  0  0  0  0  0  0  0  0  0  0
   -2.0876    3.1185   -0.2847 H   0  0  0  0  0  0  0  0  0  0  0  0
    2.6259    1.5769   -2.0678 N   0  0  0  0  0  0  0  0  0  0  0  0
    2.9863    1.5448   -3.1121 N   0  0  0  0  0  0  0  0  0  0  0  0
    3.7431   -0.1637    1.2224 B   0  0  0  0  0  0  0  0  0  0  0  0
    4.1251   -0.0139   -0.0320 F   0  0  0  0  0  0  0  0  0  0  0  0
    4.2469    0.6050    2.1670 F   0  0  0  0  0  0  0  0  0  0  0  0
    1.8809    1.4105    0.9910 F   0  0  0  0  0  0  0  0  0  0  0  0
    2.9434   -1.1692    1.5472 F   0  0  0  0  0  0  0  0  0  0  0  0
   -3.1930    0.9012   -0.0715 H   0  0  0  0  0  0  0  0  0  0  0  0
  1  7  1  0  0  0  0
  1  2  2  0  0  0  0
  2  8  1  0  0  0  0
  3  2  1  0  0  0  0
  3 16  1  0  0  0  0
  4  3  2  0  0  0  0
  5  6  2  0  0  0  0
  5  4  1  0  0  0  0
  6  1  1  0  0  0  0
  9  4  1  0  0  0  0
 10  5  1  0  0  0  0
 12 11  3  0  0  0  0
 13 17  1  0  0  0  0
 13 15  1  0  0  0  0
 14 13  1  0  0  0  0
 18  6  1  0  0  0  0
M  END
