Coordinates from ORCA-job Ph-N2-BF4-B3LYPG-6-31G_dp-MTMO-d009-169-n800
 OpenBabel09051907443D

 18 16  0  0  0  0  0  0  0  0999 V2000
   -2.3019   -0.1968    0.5298 C   0  0  0  0  0  0  0  0  0  0  0  0
   -0.9842    0.2623    0.5862 C   0  0  0  0  0  0  0  0  0  0  0  0
   -0.7643    1.5481    1.0600 C   0  0  0  0  0  0  0  0  0  0  0  0
   -1.7873    2.3900    1.4729 C   0  0  0  0  0  0  0  0  0  0  0  0
   -3.0979    1.9119    1.4091 C   0  0  0  0  0  0  0  0  0  0  0  0
   -3.3568    0.6222    0.9393 C   0  0  0  0  0  0  0  0  0  0  0  0
   -2.5011   -1.1988    0.1627 H   0  0  0  0  0  0  0  0  0  0  0  0
   -0.1461   -0.3472    0.2705 H   0  0  0  0  0  0  0  0  0  0  0  0
   -1.5536    3.3858    1.8325 H   0  0  0  0  0  0  0  0  0  0  0  0
   -3.9152    2.5517    1.7274 H   0  0  0  0  0  0  0  0  0  0  0  0
   14.0436   -2.2594   -2.2245 N   0  0  0  0  0  0  0  0  0  0  0  0
   13.0641   -1.7774   -2.3971 N   0  0  0  0  0  0  0  0  0  0  0  0
    2.1778    1.7353   -0.5734 B   0  0  0  0  0  0  0  0  0  0  0  0
    1.4329    2.3728   -1.4571 F   0  0  0  0  0  0  0  0  0  0  0  0
    3.0608    2.3939    0.1515 F   0  0  0  0  0  0  0  0  0  0  0  0
    0.5200    2.0126    1.1322 F   0  0  0  0  0  0  0  0  0  0  0  0
    2.1277    0.4124   -0.5082 F   0  0  0  0  0  0  0  0  0  0  0  0
   -4.3779    0.2565    0.8920 H   0  0  0  0  0  0  0  0  0  0  0  0
  1  2  2  0  0  0  0
  1  6  1  0  0  0  0
  2  3  1  0  0  0  0
  3 16  1  0  0  0  0
  3  4  2  0  0  0  0
  4  9  1  0  0  0  0
  5  4  1  0  0  0  0
  5 10  1  0  0  0  0
  6  5  2  0  0  0  0
  7  1  1  0  0  0  0
  8  2  1  0  0  0  0
 12 11  3  0  0  0  0
 13 17  1  0  0  0  0
 13 15  1  0  0  0  0
 14 13  1  0  0  0  0
 18  6  1  0  0  0  0
M  END
