Coordinates from ORCA-job Ph-N2-BF4-B3LYPG-6-31G_dp-MTMO-d009-169-n800
 OpenBabel09051907443D

 18 16  0  0  0  0  0  0  0  0999 V2000
   -2.0568   -0.2408    0.4701 C   0  0  0  0  0  0  0  0  0  0  0  0
   -0.7380    0.2091    0.5632 C   0  0  0  0  0  0  0  0  0  0  0  0
   -0.5233    1.4988    1.0284 C   0  0  0  0  0  0  0  0  0  0  0  0
   -1.5522    2.3529    1.3992 C   0  0  0  0  0  0  0  0  0  0  0  0
   -2.8638    1.8838    1.2997 C   0  0  0  0  0  0  0  0  0  0  0  0
   -3.1178    0.5907    0.8365 C   0  0  0  0  0  0  0  0  0  0  0  0
   -2.2519   -1.2455    0.1081 H   0  0  0  0  0  0  0  0  0  0  0  0
    0.1046   -0.4110    0.2819 H   0  0  0  0  0  0  0  0  0  0  0  0
   -1.3222    3.3510    1.7548 H   0  0  0  0  0  0  0  0  0  0  0  0
   -3.6857    2.5332    1.5850 H   0  0  0  0  0  0  0  0  0  0  0  0
   12.0653   -1.7829   -1.9035 N   0  0  0  0  0  0  0  0  0  0  0  0
   11.0883   -1.2976   -2.0810 N   0  0  0  0  0  0  0  0  0  0  0  0
    2.4458    1.6194   -0.5352 B   0  0  0  0  0  0  0  0  0  0  0  0
    1.6924    2.1801   -1.4629 F   0  0  0  0  0  0  0  0  0  0  0  0
    3.3068    2.3448    0.1514 F   0  0  0  0  0  0  0  0  0  0  0  0
    0.7617    1.9552    1.1348 F   0  0  0  0  0  0  0  0  0  0  0  0
    2.4269    0.3027   -0.3851 F   0  0  0  0  0  0  0  0  0  0  0  0
   -4.1396    0.2322    0.7605 H   0  0  0  0  0  0  0  0  0  0  0  0
  1  2  2  0  0  0  0
  1  6  1  0  0  0  0
  2  3  1  0  0  0  0
  3 16  1  0  0  0  0
  3  4  2  0  0  0  0
  4  9  1  0  0  0  0
  5  4  1  0  0  0  0
  5 10  1  0  0  0  0
  6  5  2  0  0  0  0
  7  1  1  0  0  0  0
  8  2  1  0  0  0  0
 12 11  3  0  0  0  0
 13 17  1  0  0  0  0
 13 15  1  0  0  0  0
 14 13  1  0  0  0  0
 18  6  1  0  0  0  0
M  END
