Coordinates from ORCA-job Ph-N2-BF4-B3LYPG-6-31G_dp-MTMO-d009-169-n800
 OpenBabel09051907443D

 18 16  0  0  0  0  0  0  0  0999 V2000
   -1.7173   -0.3049    0.5778 C   0  0  0  0  0  0  0  0  0  0  0  0
   -0.3888    0.1016    0.4346 C   0  0  0  0  0  0  0  0  0  0  0  0
   -0.1034    1.4533    0.5719 C   0  0  0  0  0  0  0  0  0  0  0  0
   -1.0738    2.4083    0.8426 C   0  0  0  0  0  0  0  0  0  0  0  0
   -2.3962    1.9815    0.9822 C   0  0  0  0  0  0  0  0  0  0  0  0
   -2.7197    0.6288    0.8505 C   0  0  0  0  0  0  0  0  0  0  0  0
   -1.9662   -1.3568    0.4736 H   0  0  0  0  0  0  0  0  0  0  0  0
    0.4106   -0.5984    0.2220 H   0  0  0  0  0  0  0  0  0  0  0  0
   -0.7910    3.4507    0.9405 H   0  0  0  0  0  0  0  0  0  0  0  0
   -3.1725    2.7104    1.1944 H   0  0  0  0  0  0  0  0  0  0  0  0
    7.8260    0.1363   -1.3696 N   0  0  0  0  0  0  0  0  0  0  0  0
    6.7599    0.2407   -1.0972 N   0  0  0  0  0  0  0  0  0  0  0  0
    3.3658    0.7754   -0.2477 B   0  0  0  0  0  0  0  0  0  0  0  0
    3.3713    1.4378   -1.3873 F   0  0  0  0  0  0  0  0  0  0  0  0
    3.9546    1.2782    0.8185 F   0  0  0  0  0  0  0  0  0  0  0  0
    1.1892    1.8703    0.4355 F   0  0  0  0  0  0  0  0  0  0  0  0
    2.8412   -0.4406   -0.1979 F   0  0  0  0  0  0  0  0  0  0  0  0
   -3.7493    0.3035    0.9613 H   0  0  0  0  0  0  0  0  0  0  0  0
  1  6  2  0  0  0  0
  2  3  2  0  0  0  0
  2  1  1  0  0  0  0
  3  4  1  0  0  0  0
  4  9  1  0  0  0  0
  4  5  2  0  0  0  0
  5 10  1  0  0  0  0
  6 18  1  0  0  0  0
  6  5  1  0  0  0  0
  7  1  1  0  0  0  0
  8  2  1  0  0  0  0
 11 12  3  0  0  0  0
 13 17  1  0  0  0  0
 13 15  1  0  0  0  0
 14 13  1  0  0  0  0
 16  3  1  0  0  0  0
M  END
