Coordinates from ORCA-job Ph-N2-BF4-B3LYPG-6-31G_dp-MTMO-d009-169-n800
 OpenBabel09051907443D

 18 16  0  0  0  0  0  0  0  0999 V2000
   -1.8510   -0.2872    0.4303 C   0  0  0  0  0  0  0  0  0  0  0  0
   -0.5347    0.1655    0.5432 C   0  0  0  0  0  0  0  0  0  0  0  0
   -0.3302    1.4625    0.9925 C   0  0  0  0  0  0  0  0  0  0  0  0
   -1.3670    2.3212    1.3292 C   0  0  0  0  0  0  0  0  0  0  0  0
   -2.6760    1.8492    1.2104 C   0  0  0  0  0  0  0  0  0  0  0  0
   -2.9197    0.5489    0.7621 C   0  0  0  0  0  0  0  0  0  0  0  0
   -2.0381   -1.2975    0.0798 H   0  0  0  0  0  0  0  0  0  0  0  0
    0.3142   -0.4579    0.2891 H   0  0  0  0  0  0  0  0  0  0  0  0
   -1.1451    3.3249    1.6740 H   0  0  0  0  0  0  0  0  0  0  0  0
   -3.5040    2.5020    1.4689 H   0  0  0  0  0  0  0  0  0  0  0  0
   10.4234   -1.4085   -1.6218 N   0  0  0  0  0  0  0  0  0  0  0  0
    9.4580   -0.9178   -1.8430 N   0  0  0  0  0  0  0  0  0  0  0  0
    2.6770    1.5485   -0.5021 B   0  0  0  0  0  0  0  0  0  0  0  0
    1.9404    2.0744   -1.4631 F   0  0  0  0  0  0  0  0  0  0  0  0
    3.5173    2.3011    0.1806 F   0  0  0  0  0  0  0  0  0  0  0  0
    0.9519    1.9217    1.1172 F   0  0  0  0  0  0  0  0  0  0  0  0
    2.6636    0.2369   -0.3118 F   0  0  0  0  0  0  0  0  0  0  0  0
   -3.9396    0.1884    0.6706 H   0  0  0  0  0  0  0  0  0  0  0  0
  1  2  2  0  0  0  0
  1  6  1  0  0  0  0
  2  3  1  0  0  0  0
  3 16  1  0  0  0  0
  3  4  2  0  0  0  0
  4  9  1  0  0  0  0
  5  4  1  0  0  0  0
  5 10  1  0  0  0  0
  6  5  2  0  0  0  0
  7  1  1  0  0  0  0
  8  2  1  0  0  0  0
 12 11  3  0  0  0  0
 13 17  1  0  0  0  0
 13 15  1  0  0  0  0
 14 13  1  0  0  0  0
 18  6  1  0  0  0  0
M  END
