Coordinates from ORCA-job Ph-N2-BF4-B3LYPG-6-31G_dp-MTMO-d009-169-n800
 OpenBabel09051907443D

 18 16  0  0  0  0  0  0  0  0999 V2000
   -2.4343   -0.1663    0.5566 C   0  0  0  0  0  0  0  0  0  0  0  0
   -1.1161    0.2920    0.6107 C   0  0  0  0  0  0  0  0  0  0  0  0
   -0.8947    1.5775    1.0842 C   0  0  0  0  0  0  0  0  0  0  0  0
   -1.9163    2.4201    1.4989 C   0  0  0  0  0  0  0  0  0  0  0  0
   -3.2274    1.9430    1.4374 C   0  0  0  0  0  0  0  0  0  0  0  0
   -3.4879    0.6534    0.9680 C   0  0  0  0  0  0  0  0  0  0  0  0
   -2.6346   -1.1681    0.1898 H   0  0  0  0  0  0  0  0  0  0  0  0
   -0.2792   -0.3183    0.2935 H   0  0  0  0  0  0  0  0  0  0  0  0
   -1.6813    3.4158    1.8582 H   0  0  0  0  0  0  0  0  0  0  0  0
   -4.0437    2.5833    1.7571 H   0  0  0  0  0  0  0  0  0  0  0  0
   15.0879   -2.4782   -2.4325 N   0  0  0  0  0  0  0  0  0  0  0  0
   14.0981   -2.0162   -2.6015 N   0  0  0  0  0  0  0  0  0  0  0  0
    2.0503    1.7588   -0.5495 B   0  0  0  0  0  0  0  0  0  0  0  0
    1.3129    2.4049   -1.4332 F   0  0  0  0  0  0  0  0  0  0  0  0
    2.9352    2.4084    0.1812 F   0  0  0  0  0  0  0  0  0  0  0  0
    0.3900    2.0415    1.1544 F   0  0  0  0  0  0  0  0  0  0  0  0
    1.9908    0.4360   -0.4897 F   0  0  0  0  0  0  0  0  0  0  0  0
   -4.5093    0.2884    0.9225 H   0  0  0  0  0  0  0  0  0  0  0  0
  1  2  2  0  0  0  0
  1  6  1  0  0  0  0
  2  3  1  0  0  0  0
  3 16  1  0  0  0  0
  3  4  2  0  0  0  0
  4  9  1  0  0  0  0
  5  4  1  0  0  0  0
  5 10  1  0  0  0  0
  6  5  2  0  0  0  0
  7  1  1  0  0  0  0
  8  2  1  0  0  0  0
 12 11  3  0  0  0  0
 13 17  1  0  0  0  0
 13 15  1  0  0  0  0
 14 13  1  0  0  0  0
 18  6  1  0  0  0  0
M  END
