Coordinates from ORCA-job Ph-N2-BF4-B3LYPG-6-31G_dp-MTMO-d009-169-n800
 OpenBabel09051907443D

 18 16  0  0  0  0  0  0  0  0999 V2000
   -2.1202   -0.2280    0.4844 C   0  0  0  0  0  0  0  0  0  0  0  0
   -0.8013    0.2227    0.5728 C   0  0  0  0  0  0  0  0  0  0  0  0
   -0.5856    1.5115    1.0400 C   0  0  0  0  0  0  0  0  0  0  0  0
   -1.6135    2.3640    1.4173 C   0  0  0  0  0  0  0  0  0  0  0  0
   -2.9252    1.8941    1.3223 C   0  0  0  0  0  0  0  0  0  0  0  0
   -3.1801    0.6019    0.8573 C   0  0  0  0  0  0  0  0  0  0  0  0
   -2.3160   -1.2320    0.1210 H   0  0  0  0  0  0  0  0  0  0  0  0
    0.0405   -0.3960    0.2863 H   0  0  0  0  0  0  0  0  0  0  0  0
   -1.3827    3.3615    1.7741 H   0  0  0  0  0  0  0  0  0  0  0  0
   -3.7463    2.5423    1.6125 H   0  0  0  0  0  0  0  0  0  0  0  0
   12.5804   -1.9026   -1.9964 N   0  0  0  0  0  0  0  0  0  0  0  0
   11.6022   -1.4180   -2.1689 N   0  0  0  0  0  0  0  0  0  0  0  0
    2.3756    1.6433   -0.5380 B   0  0  0  0  0  0  0  0  0  0  0  0
    1.6210    2.2161   -1.4573 F   0  0  0  0  0  0  0  0  0  0  0  0
    3.2413    2.3587    0.1531 F   0  0  0  0  0  0  0  0  0  0  0  0
    0.6995    1.9685    1.1422 F   0  0  0  0  0  0  0  0  0  0  0  0
    2.3530    0.3252   -0.4016 F   0  0  0  0  0  0  0  0  0  0  0  0
   -4.2021    0.2428    0.7849 H   0  0  0  0  0  0  0  0  0  0  0  0
  1  2  2  0  0  0  0
  1  6  1  0  0  0  0
  2  3  1  0  0  0  0
  3 16  1  0  0  0  0
  3  4  2  0  0  0  0
  4  9  1  0  0  0  0
  5  4  1  0  0  0  0
  5 10  1  0  0  0  0
  6  5  2  0  0  0  0
  7  1  1  0  0  0  0
  8  2  1  0  0  0  0
 12 11  3  0  0  0  0
 13 17  1  0  0  0  0
 13 15  1  0  0  0  0
 14 13  1  0  0  0  0
 18  6  1  0  0  0  0
M  END
