Coordinates from ORCA-job Ph-N2-BF4-B3LYPG-6-31G_dp-MTMO-d009-169-n800
 OpenBabel09051907443D

 18 16  0  0  0  0  0  0  0  0999 V2000
   -2.2450   -0.2089    0.5181 C   0  0  0  0  0  0  0  0  0  0  0  0
   -0.9277    0.2505    0.5821 C   0  0  0  0  0  0  0  0  0  0  0  0
   -0.7112    1.5374    1.0540 C   0  0  0  0  0  0  0  0  0  0  0  0
   -1.7368    2.3803    1.4581 C   0  0  0  0  0  0  0  0  0  0  0  0
   -3.0470    1.9020    1.3869 C   0  0  0  0  0  0  0  0  0  0  0  0
   -3.3026    0.6111    0.9186 C   0  0  0  0  0  0  0  0  0  0  0  0
   -2.4415   -1.2118    0.1521 H   0  0  0  0  0  0  0  0  0  0  0  0
   -0.0877   -0.3600    0.2735 H   0  0  0  0  0  0  0  0  0  0  0  0
   -1.5055    3.3770    1.8168 H   0  0  0  0  0  0  0  0  0  0  0  0
   -3.8664    2.5424    1.6982 H   0  0  0  0  0  0  0  0  0  0  0  0
   13.6126   -2.1646   -2.1517 N   0  0  0  0  0  0  0  0  0  0  0  0
   12.6346   -1.6796   -2.3244 N   0  0  0  0  0  0  0  0  0  0  0  0
    2.2318    1.7199   -0.5704 B   0  0  0  0  0  0  0  0  0  0  0  0
    1.4839    2.3462   -1.4596 F   0  0  0  0  0  0  0  0  0  0  0  0
    3.1115    2.3890    0.1489 F   0  0  0  0  0  0  0  0  0  0  0  0
    0.5726    2.0025    1.1336 F   0  0  0  0  0  0  0  0  0  0  0  0
    2.1881    0.3974   -0.4940 F   0  0  0  0  0  0  0  0  0  0  0  0
   -4.3233    0.2452    0.8653 H   0  0  0  0  0  0  0  0  0  0  0  0
  1  2  2  0  0  0  0
  1  6  1  0  0  0  0
  2  3  1  0  0  0  0
  3 16  1  0  0  0  0
  3  4  2  0  0  0  0
  4  9  1  0  0  0  0
  5  4  1  0  0  0  0
  5 10  1  0  0  0  0
  6  5  2  0  0  0  0
  7  1  1  0  0  0  0
  8  2  1  0  0  0  0
 12 11  3  0  0  0  0
 13 17  1  0  0  0  0
 13 15  1  0  0  0  0
 14 13  1  0  0  0  0
 18  6  1  0  0  0  0
M  END
