Coordinates from ORCA-job Ph-N2-BF4-B3LYPG-6-31G_dp-MTMO-d009-169-n800
 OpenBabel09051907443D

 18 17  0  0  0  0  0  0  0  0999 V2000
   -1.1907    0.1418    0.8224 C   0  0  0  0  0  0  0  0  0  0  0  0
    0.1502    0.2127    0.4465 C   0  0  0  0  0  0  0  0  0  0  0  0
    0.5009    1.3344   -0.2966 C   0  0  0  0  0  0  0  0  0  0  0  0
   -0.3483    2.3692   -0.6888 C   0  0  0  0  0  0  0  0  0  0  0  0
   -1.6748    2.2605   -0.2821 C   0  0  0  0  0  0  0  0  0  0  0  0
   -2.0893    1.1528    0.4680 C   0  0  0  0  0  0  0  0  0  0  0  0
   -1.5287   -0.7090    1.4042 H   0  0  0  0  0  0  0  0  0  0  0  0
    0.9047   -0.5300    0.6899 H   0  0  0  0  0  0  0  0  0  0  0  0
    0.0104    3.2114   -1.2685 H   0  0  0  0  0  0  0  0  0  0  0  0
   -2.3811    3.0383   -0.5514 H   0  0  0  0  0  0  0  0  0  0  0  0
    1.9209    1.4549   -0.7671 N   0  0  0  0  0  0  0  0  0  0  0  0
    2.9220    1.6150   -1.2191 N   0  0  0  0  0  0  0  0  0  0  0  0
    3.5439   -0.1281    1.1238 B   0  0  0  0  0  0  0  0  0  0  0  0
    4.4517    0.4475    0.2060 F   0  0  0  0  0  0  0  0  0  0  0  0
    4.1759   -0.7329    2.1760 F   0  0  0  0  0  0  0  0  0  0  0  0
    2.6689    0.9095    1.5652 F   0  0  0  0  0  0  0  0  0  0  0  0
    2.7302   -1.0520    0.3974 F   0  0  0  0  0  0  0  0  0  0  0  0
   -3.1264    1.0801    0.7801 H   0  0  0  0  0  0  0  0  0  0  0  0
  1  7  1  0  0  0  0
  2  8  1  0  0  0  0
  2  1  2  0  0  0  0
  3  2  1  0  0  0  0
  4  3  2  0  0  0  0
  4  5  1  0  0  0  0
  5  6  2  0  0  0  0
  6 18  1  0  0  0  0
  6  1  1  0  0  0  0
  9  4  1  0  0  0  0
 10  5  1  0  0  0  0
 11  3  1  0  0  0  0
 12 11  1  0  0  0  0
 13 16  1  0  0  0  0
 13 15  1  0  0  0  0
 14 13  1  0  0  0  0
 17 13  1  0  0  0  0
M  RAD  2  11   2  12   3
M  END
