Coordinates from ORCA-job Ph-N2-BF4-B3LYPG-6-31G_dp-MTMO-d009-169-n800
 OpenBabel09051907443D

 18 16  0  0  0  0  0  0  0  0999 V2000
   -1.7728   -0.3083    0.5760 C   0  0  0  0  0  0  0  0  0  0  0  0
   -0.4452    0.1190    0.5019 C   0  0  0  0  0  0  0  0  0  0  0  0
   -0.1888    1.4744    0.6576 C   0  0  0  0  0  0  0  0  0  0  0  0
   -1.1863    2.4135    0.8807 C   0  0  0  0  0  0  0  0  0  0  0  0
   -2.5072    1.9658    0.9516 C   0  0  0  0  0  0  0  0  0  0  0  0
   -2.8022    0.6088    0.7997 C   0  0  0  0  0  0  0  0  0  0  0  0
   -1.9997   -1.3635    0.4559 H   0  0  0  0  0  0  0  0  0  0  0  0
    0.3741   -0.5682    0.3277 H   0  0  0  0  0  0  0  0  0  0  0  0
   -0.9251    3.4598    0.9959 H   0  0  0  0  0  0  0  0  0  0  0  0
   -3.3047    2.6817    1.1260 H   0  0  0  0  0  0  0  0  0  0  0  0
    8.5854   -0.1379   -1.7122 N   0  0  0  0  0  0  0  0  0  0  0  0
    7.5290   -0.0369   -1.4030 N   0  0  0  0  0  0  0  0  0  0  0  0
    3.2308    0.9105   -0.1420 B   0  0  0  0  0  0  0  0  0  0  0  0
    3.1812    1.5592   -1.2888 F   0  0  0  0  0  0  0  0  0  0  0  0
    3.8315    1.4462    0.9018 F   0  0  0  0  0  0  0  0  0  0  0  0
    1.1023    1.9147    0.5904 F   0  0  0  0  0  0  0  0  0  0  0  0
    2.7692   -0.3300   -0.0695 F   0  0  0  0  0  0  0  0  0  0  0  0
   -3.8310    0.2672    0.8564 H   0  0  0  0  0  0  0  0  0  0  0  0
  1  6  1  0  0  0  0
  2  1  2  0  0  0  0
  2  3  1  0  0  0  0
  3  4  2  0  0  0  0
  4  5  1  0  0  0  0
  4  9  1  0  0  0  0
  5 10  1  0  0  0  0
  6 18  1  0  0  0  0
  6  5  2  0  0  0  0
  7  1  1  0  0  0  0
  8  2  1  0  0  0  0
 11 12  3  0  0  0  0
 13 17  1  0  0  0  0
 13 15  1  0  0  0  0
 14 13  1  0  0  0  0
 16  3  1  0  0  0  0
M  END
