Coordinates from ORCA-job Ph-N2-BF4-B3LYPG-6-31G_dp-MTMO-d009-169-n800
 OpenBabel09051907443D

 18 16  0  0  0  0  0  0  0  0999 V2000
   -1.6570   -0.3310    0.4262 C   0  0  0  0  0  0  0  0  0  0  0  0
   -0.3710    0.1192    0.7323 C   0  0  0  0  0  0  0  0  0  0  0  0
   -0.2056    1.4666    1.0209 C   0  0  0  0  0  0  0  0  0  0  0  0
   -1.2530    2.3770    1.0179 C   0  0  0  0  0  0  0  0  0  0  0  0
   -2.5316    1.9066    0.7109 C   0  0  0  0  0  0  0  0  0  0  0  0
   -2.7354    0.5568    0.4149 C   0  0  0  0  0  0  0  0  0  0  0  0
   -1.8122   -1.3802    0.1939 H   0  0  0  0  0  0  0  0  0  0  0  0
    0.4854   -0.5445    0.7466 H   0  0  0  0  0  0  0  0  0  0  0  0
   -1.0629    3.4184    1.2532 H   0  0  0  0  0  0  0  0  0  0  0  0
   -3.3676    2.5994    0.7028 H   0  0  0  0  0  0  0  0  0  0  0  0
    8.7442   -0.7384   -2.4554 N   0  0  0  0  0  0  0  0  0  0  0  0
    7.7816   -0.4881   -1.9734 N   0  0  0  0  0  0  0  0  0  0  0  0
    3.0524    1.2597    0.1923 B   0  0  0  0  0  0  0  0  0  0  0  0
    2.5564    1.6102   -0.9797 F   0  0  0  0  0  0  0  0  0  0  0  0
    3.7635    2.1174    0.8976 F   0  0  0  0  0  0  0  0  0  0  0  0
    1.0449    1.9250    1.3295 F   0  0  0  0  0  0  0  0  0  0  0  0
    2.9394    0.0040    0.6006 F   0  0  0  0  0  0  0  0  0  0  0  0
   -3.7313    0.1980    0.1747 H   0  0  0  0  0  0  0  0  0  0  0  0
  1  2  1  0  0  0  0
  2  8  1  0  0  0  0
  2  3  2  0  0  0  0
  3 16  1  0  0  0  0
  4  3  1  0  0  0  0
  4  9  1  0  0  0  0
  5  4  2  0  0  0  0
  6  1  2  0  0  0  0
  6  5  1  0  0  0  0
  7  1  1  0  0  0  0
 10  5  1  0  0  0  0
 11 12  3  0  0  0  0
 13 17  1  0  0  0  0
 13 15  1  0  0  0  0
 14 13  1  0  0  0  0
 18  6  1  0  0  0  0
M  END
