Coordinates from ORCA-job Ph-N2-BF4-B3LYPG-6-31G_dp-MTMO-d009-169-n800
 OpenBabel09051907443D

 18 16  0  0  0  0  0  0  0  0999 V2000
   -1.7522   -0.3086    0.5766 C   0  0  0  0  0  0  0  0  0  0  0  0
   -0.4234    0.1116    0.4851 C   0  0  0  0  0  0  0  0  0  0  0  0
   -0.1575    1.4657    0.6357 C   0  0  0  0  0  0  0  0  0  0  0  0
   -1.1473    2.4102    0.8703 C   0  0  0  0  0  0  0  0  0  0  0  0
   -2.4697    1.9697    0.9584 C   0  0  0  0  0  0  0  0  0  0  0  0
   -2.7738    0.6141    0.8121 C   0  0  0  0  0  0  0  0  0  0  0  0
   -1.9860   -1.3628    0.4607 H   0  0  0  0  0  0  0  0  0  0  0  0
    0.3901   -0.5802    0.3014 H   0  0  0  0  0  0  0  0  0  0  0  0
   -0.8792    3.4553    0.9808 H   0  0  0  0  0  0  0  0  0  0  0  0
   -3.2610    2.6902    1.1419 H   0  0  0  0  0  0  0  0  0  0  0  0
    8.3332   -0.0566   -1.5960 N   0  0  0  0  0  0  0  0  0  0  0  0
    7.2728    0.0462   -1.3014 N   0  0  0  0  0  0  0  0  0  0  0  0
    3.2698    0.8748   -0.1811 B   0  0  0  0  0  0  0  0  0  0  0  0
    3.2292    1.5302   -1.3243 F   0  0  0  0  0  0  0  0  0  0  0  0
    3.8709    1.4000    0.8677 F   0  0  0  0  0  0  0  0  0  0  0  0
    1.1350    1.8984    0.5513 F   0  0  0  0  0  0  0  0  0  0  0  0
    2.7932   -0.3603   -0.1156 F   0  0  0  0  0  0  0  0  0  0  0  0
   -3.8036    0.2780    0.8823 H   0  0  0  0  0  0  0  0  0  0  0  0
  1  6  1  0  0  0  0
  2  1  2  0  0  0  0
  2  3  1  0  0  0  0
  3  4  2  0  0  0  0
  4  5  1  0  0  0  0
  4  9  1  0  0  0  0
  5 10  1  0  0  0  0
  6 18  1  0  0  0  0
  6  5  2  0  0  0  0
  7  1  1  0  0  0  0
  8  2  1  0  0  0  0
 11 12  3  0  0  0  0
 13 17  1  0  0  0  0
 13 15  1  0  0  0  0
 14 13  1  0  0  0  0
 16  3  1  0  0  0  0
M  END
