Coordinates from ORCA-job Ph-N2-BF4-B3LYPG-6-31G_dp-MTMO-d009-169-n800
 OpenBabel09051907443D

 18 16  0  0  0  0  0  0  0  0999 V2000
   -1.7033   -0.3058    0.5744 C   0  0  0  0  0  0  0  0  0  0  0  0
   -0.3757    0.1032    0.4309 C   0  0  0  0  0  0  0  0  0  0  0  0
   -0.0921    1.4554    0.5684 C   0  0  0  0  0  0  0  0  0  0  0  0
   -1.0644    2.4085    0.8397 C   0  0  0  0  0  0  0  0  0  0  0  0
   -2.3860    1.9793    0.9795 C   0  0  0  0  0  0  0  0  0  0  0  0
   -2.7072    0.6261    0.8476 C   0  0  0  0  0  0  0  0  0  0  0  0
   -1.9504   -1.3581    0.4699 H   0  0  0  0  0  0  0  0  0  0  0  0
    0.4252   -0.5951    0.2179 H   0  0  0  0  0  0  0  0  0  0  0  0
   -0.7835    3.4514    0.9377 H   0  0  0  0  0  0  0  0  0  0  0  0
   -3.1636    2.7068    1.1921 H   0  0  0  0  0  0  0  0  0  0  0  0
    7.6991    0.1458   -1.3456 N   0  0  0  0  0  0  0  0  0  0  0  0
    6.6339    0.2546   -1.0713 N   0  0  0  0  0  0  0  0  0  0  0  0
    3.3953    0.7698   -0.2510 B   0  0  0  0  0  0  0  0  0  0  0  0
    3.4026    1.4329   -1.3900 F   0  0  0  0  0  0  0  0  0  0  0  0
    3.9801    1.2730    0.8172 F   0  0  0  0  0  0  0  0  0  0  0  0
    1.1996    1.8739    0.4314 F   0  0  0  0  0  0  0  0  0  0  0  0
    2.8671   -0.4446   -0.2016 F   0  0  0  0  0  0  0  0  0  0  0  0
   -3.7363    0.2990    0.9586 H   0  0  0  0  0  0  0  0  0  0  0  0
  1  6  2  0  0  0  0
  2  3  2  0  0  0  0
  2  1  1  0  0  0  0
  3  4  1  0  0  0  0
  4  9  1  0  0  0  0
  4  5  2  0  0  0  0
  5 10  1  0  0  0  0
  6 18  1  0  0  0  0
  6  5  1  0  0  0  0
  7  1  1  0  0  0  0
  8  2  1  0  0  0  0
 11 12  3  0  0  0  0
 13 17  1  0  0  0  0
 13 15  1  0  0  0  0
 14 13  1  0  0  0  0
 16  3  1  0  0  0  0
M  END
