Coordinates from ORCA-job Ph-N2-BF4-B3LYPG-6-31G_dp-MTMO-d009-169-n800
 OpenBabel09051907443D

 18 16  0  0  0  0  0  0  0  0999 V2000
   -2.0786   -0.2361    0.4744 C   0  0  0  0  0  0  0  0  0  0  0  0
   -0.7592    0.2123    0.5652 C   0  0  0  0  0  0  0  0  0  0  0  0
   -0.5420    1.5014    1.0310 C   0  0  0  0  0  0  0  0  0  0  0  0
   -1.5692    2.3563    1.4047 C   0  0  0  0  0  0  0  0  0  0  0  0
   -2.8815    1.8887    1.3074 C   0  0  0  0  0  0  0  0  0  0  0  0
   -3.1379    0.5963    0.8437 C   0  0  0  0  0  0  0  0  0  0  0  0
   -2.2756   -1.2402    0.1119 H   0  0  0  0  0  0  0  0  0  0  0  0
    0.0825   -0.4081    0.2817 H   0  0  0  0  0  0  0  0  0  0  0  0
   -1.3375    3.3539    1.7607 H   0  0  0  0  0  0  0  0  0  0  0  0
   -3.7022    2.5387    1.5949 H   0  0  0  0  0  0  0  0  0  0  0  0
   12.2216   -1.8141   -1.9310 N   0  0  0  0  0  0  0  0  0  0  0  0
   11.2439   -1.3293   -2.1061 N   0  0  0  0  0  0  0  0  0  0  0  0
    2.4260    1.6229   -0.5365 B   0  0  0  0  0  0  0  0  0  0  0  0
    1.6719    2.1867   -1.4617 F   0  0  0  0  0  0  0  0  0  0  0  0
    3.2885    2.3457    0.1509 F   0  0  0  0  0  0  0  0  0  0  0  0
    0.7437    1.9561    1.1352 F   0  0  0  0  0  0  0  0  0  0  0  0
    2.4062    0.3058   -0.3899 F   0  0  0  0  0  0  0  0  0  0  0  0
   -4.1603    0.2390    0.7694 H   0  0  0  0  0  0  0  0  0  0  0  0
  1  2  2  0  0  0  0
  1  6  1  0  0  0  0
  2  3  1  0  0  0  0
  3 16  1  0  0  0  0
  3  4  2  0  0  0  0
  4  9  1  0  0  0  0
  5  4  1  0  0  0  0
  5 10  1  0  0  0  0
  6  5  2  0  0  0  0
  7  1  1  0  0  0  0
  8  2  1  0  0  0  0
 12 11  3  0  0  0  0
 13 17  1  0  0  0  0
 13 15  1  0  0  0  0
 14 13  1  0  0  0  0
 18  6  1  0  0  0  0
M  END
