Coordinates from ORCA-job Ph-N2-BF4-B3LYPG-6-31G_dp-MTMO-d009-169-n800
 OpenBabel09051907443D

 18 16  0  0  0  0  0  0  0  0999 V2000
   -1.5399   -0.0796    1.0561 C   0  0  0  0  0  0  0  0  0  0  0  0
   -0.1678    0.0906    1.2542 C   0  0  0  0  0  0  0  0  0  0  0  0
    0.4335    1.2133    0.7036 C   0  0  0  0  0  0  0  0  0  0  0  0
   -0.2614    2.1634   -0.0312 C   0  0  0  0  0  0  0  0  0  0  0  0
   -1.6325    1.9755   -0.2172 C   0  0  0  0  0  0  0  0  0  0  0  0
   -2.2725    0.8578    0.3239 C   0  0  0  0  0  0  0  0  0  0  0  0
   -2.0338   -0.9508    1.4755 H   0  0  0  0  0  0  0  0  0  0  0  0
    0.4285   -0.6227    1.8107 H   0  0  0  0  0  0  0  0  0  0  0  0
    0.2652    3.0186   -0.4399 H   0  0  0  0  0  0  0  0  0  0  0  0
   -2.1986    2.7058   -0.7879 H   0  0  0  0  0  0  0  0  0  0  0  0
    3.7618    2.4471   -1.5117 N   0  0  0  0  0  0  0  0  0  0  0  0
    4.6095    2.4490   -2.2206 N   0  0  0  0  0  0  0  0  0  0  0  0
    3.4310   -0.3021    0.6336 B   0  0  0  0  0  0  0  0  0  0  0  0
    3.0871   -0.5035   -0.6252 F   0  0  0  0  0  0  0  0  0  0  0  0
    4.3940    0.5493    0.9300 F   0  0  0  0  0  0  0  0  0  0  0  0
    1.7751    1.4017    0.8928 F   0  0  0  0  0  0  0  0  0  0  0  0
    2.8994   -1.0538    1.5864 F   0  0  0  0  0  0  0  0  0  0  0  0
   -3.3382    0.7163    0.1727 H   0  0  0  0  0  0  0  0  0  0  0  0
  1  2  1  0  0  0  0
  1  7  1  0  0  0  0
  2  8  1  0  0  0  0
  3 16  1  0  0  0  0
  3  2  2  0  0  0  0
  4  3  1  0  0  0  0
  5  4  2  0  0  0  0
  5  6  1  0  0  0  0
  6  1  2  0  0  0  0
  9  4  1  0  0  0  0
 10  5  1  0  0  0  0
 12 11  3  0  0  0  0
 13 15  1  0  0  0  0
 13 17  1  0  0  0  0
 14 13  1  0  0  0  0
 18  6  1  0  0  0  0
M  END
