Coordinates from ORCA-job Ph-N2-BF4-B3LYPG-6-31G_dp-MTMO-d009-169-n800
 OpenBabel09051907443D

 18 16  0  0  0  0  0  0  0  0999 V2000
   -1.4667   -0.1062    0.7728 C   0  0  0  0  0  0  0  0  0  0  0  0
   -0.1016    0.0199    1.0398 C   0  0  0  0  0  0  0  0  0  0  0  0
    0.5146    1.2218    0.7205 C   0  0  0  0  0  0  0  0  0  0  0  0
   -0.1611    2.2925    0.1513 C   0  0  0  0  0  0  0  0  0  0  0  0
   -1.5254    2.1464   -0.1070 C   0  0  0  0  0  0  0  0  0  0  0  0
   -2.1792    0.9508    0.2015 C   0  0  0  0  0  0  0  0  0  0  0  0
   -1.9716   -1.0370    1.0136 H   0  0  0  0  0  0  0  0  0  0  0  0
    0.4776   -0.7831    1.4794 H   0  0  0  0  0  0  0  0  0  0  0  0
    0.3750    3.2063   -0.0786 H   0  0  0  0  0  0  0  0  0  0  0  0
   -2.0754    2.9706   -0.5513 H   0  0  0  0  0  0  0  0  0  0  0  0
    2.9924    2.0698   -1.8982 N   0  0  0  0  0  0  0  0  0  0  0  0
    3.5024    2.0838   -2.8785 N   0  0  0  0  0  0  0  0  0  0  0  0
    3.6411   -0.2695    1.0400 B   0  0  0  0  0  0  0  0  0  0  0  0
    3.7226   -0.3257   -0.2766 F   0  0  0  0  0  0  0  0  0  0  0  0
    4.3849    0.5824    1.7168 F   0  0  0  0  0  0  0  0  0  0  0  0
    1.8487    1.3683    0.9777 F   0  0  0  0  0  0  0  0  0  0  0  0
    2.9015   -1.1580    1.6876 F   0  0  0  0  0  0  0  0  0  0  0  0
   -3.2394    0.8428   -0.0047 H   0  0  0  0  0  0  0  0  0  0  0  0
  1  7  1  0  0  0  0
  1  2  1  0  0  0  0
  2  8  1  0  0  0  0
  3 16  1  0  0  0  0
  3  2  2  0  0  0  0
  4  3  1  0  0  0  0
  5  4  2  0  0  0  0
  5  6  1  0  0  0  0
  6  1  2  0  0  0  0
  9  4  1  0  0  0  0
 10  5  1  0  0  0  0
 12 11  3  0  0  0  0
 13 17  1  0  0  0  0
 13 15  1  0  0  0  0
 14 13  1  0  0  0  0
 18  6  1  0  0  0  0
M  END
