Coordinates from ORCA-job Ph-N2-BF4-B3LYPG-6-31G_dp-MTMO-d009-169-n800
 OpenBabel09051907443D

 18 16  0  0  0  0  0  0  0  0999 V2000
   -1.5870   -0.1725    1.0130 C   0  0  0  0  0  0  0  0  0  0  0  0
   -0.2238    0.0531    1.2162 C   0  0  0  0  0  0  0  0  0  0  0  0
    0.3118    1.2492    0.7594 C   0  0  0  0  0  0  0  0  0  0  0  0
   -0.4410    2.2199    0.1136 C   0  0  0  0  0  0  0  0  0  0  0  0
   -1.8023    1.9756   -0.0789 C   0  0  0  0  0  0  0  0  0  0  0  0
   -2.3762    0.7831    0.3685 C   0  0  0  0  0  0  0  0  0  0  0  0
   -2.0296   -1.1011    1.3603 H   0  0  0  0  0  0  0  0  0  0  0  0
    0.4146   -0.6716    1.7072 H   0  0  0  0  0  0  0  0  0  0  0  0
    0.0339    3.1346   -0.2232 H   0  0  0  0  0  0  0  0  0  0  0  0
   -2.4123    2.7209   -0.5804 H   0  0  0  0  0  0  0  0  0  0  0  0
    4.4691    2.3085   -1.8573 N   0  0  0  0  0  0  0  0  0  0  0  0
    5.4092    1.9789   -2.3359 N   0  0  0  0  0  0  0  0  0  0  0  0
    3.3929   -0.0992    0.5977 B   0  0  0  0  0  0  0  0  0  0  0  0
    3.0492   -0.2678   -0.6660 F   0  0  0  0  0  0  0  0  0  0  0  0
    4.3116    0.7903    0.9216 F   0  0  0  0  0  0  0  0  0  0  0  0
    1.6434    1.4927    0.9546 F   0  0  0  0  0  0  0  0  0  0  0  0
    2.9115   -0.9167    1.5224 F   0  0  0  0  0  0  0  0  0  0  0  0
   -3.4345    0.5981    0.2131 H   0  0  0  0  0  0  0  0  0  0  0  0
  1  2  1  0  0  0  0
  1  7  1  0  0  0  0
  2  8  1  0  0  0  0
  3 16  1  0  0  0  0
  3  2  2  0  0  0  0
  4  3  1  0  0  0  0
  5  4  2  0  0  0  0
  5  6  1  0  0  0  0
  6  1  2  0  0  0  0
  9  4  1  0  0  0  0
 10  5  1  0  0  0  0
 12 11  3  0  0  0  0
 13 15  1  0  0  0  0
 13 17  1  0  0  0  0
 14 13  1  0  0  0  0
 18  6  1  0  0  0  0
M  END
