Coordinates from ORCA-job Ph-N2-BF4-B3LYPG-6-31G_dp-MTMO-d009-169-n800
 OpenBabel09051907443D

 18 16  0  0  0  0  0  0  0  0999 V2000
   -1.5130   -0.0884    0.9933 C   0  0  0  0  0  0  0  0  0  0  0  0
   -0.1500    0.0801    1.2463 C   0  0  0  0  0  0  0  0  0  0  0  0
    0.4671    1.2194    0.7492 C   0  0  0  0  0  0  0  0  0  0  0  0
   -0.2041    2.1874    0.0159 C   0  0  0  0  0  0  0  0  0  0  0  0
   -1.5667    2.0009   -0.2254 C   0  0  0  0  0  0  0  0  0  0  0  0
   -2.2218    0.8668    0.2608 C   0  0  0  0  0  0  0  0  0  0  0  0
   -2.0187   -0.9722    1.3704 H   0  0  0  0  0  0  0  0  0  0  0  0
    0.4285   -0.6462    1.8050 H   0  0  0  0  0  0  0  0  0  0  0  0
    0.3341    3.0546   -0.3501 H   0  0  0  0  0  0  0  0  0  0  0  0
   -2.1144    2.7451   -0.7961 H   0  0  0  0  0  0  0  0  0  0  0  0
    3.5238    2.4078   -1.5476 N   0  0  0  0  0  0  0  0  0  0  0  0
    4.3101    2.4062   -2.3240 N   0  0  0  0  0  0  0  0  0  0  0  0
    3.4400   -0.3036    0.6904 B   0  0  0  0  0  0  0  0  0  0  0  0
    3.0569   -0.5157   -0.5556 F   0  0  0  0  0  0  0  0  0  0  0  0
    4.4172    0.5442    0.9477 F   0  0  0  0  0  0  0  0  0  0  0  0
    1.8001    1.4048    0.9932 F   0  0  0  0  0  0  0  0  0  0  0  0
    2.9317   -1.0418    1.6659 F   0  0  0  0  0  0  0  0  0  0  0  0
   -3.2806    0.7266    0.0667 H   0  0  0  0  0  0  0  0  0  0  0  0
  1  2  1  0  0  0  0
  1  7  1  0  0  0  0
  2  8  1  0  0  0  0
  3 16  1  0  0  0  0
  3  2  2  0  0  0  0
  4  3  1  0  0  0  0
  5  4  2  0  0  0  0
  5  6  1  0  0  0  0
  6  1  2  0  0  0  0
  9  4  1  0  0  0  0
 10  5  1  0  0  0  0
 12 11  3  0  0  0  0
 13 15  1  0  0  0  0
 13 17  1  0  0  0  0
 14 13  1  0  0  0  0
 18  6  1  0  0  0  0
M  END
