Coordinates from ORCA-job Ph-N2-BF4-B3LYPG-6-31G_dp-MTMO-d009-169-n800
 OpenBabel09051907443D

 18 16  0  0  0  0  0  0  0  0999 V2000
   -1.3419   -0.3632    0.3954 C   0  0  0  0  0  0  0  0  0  0  0  0
   -0.0668    0.0596    0.7767 C   0  0  0  0  0  0  0  0  0  0  0  0
    0.1215    1.4106    1.0328 C   0  0  0  0  0  0  0  0  0  0  0  0
   -0.8942    2.3502    0.9252 C   0  0  0  0  0  0  0  0  0  0  0  0
   -2.1625    1.9076    0.5437 C   0  0  0  0  0  0  0  0  0  0  0  0
   -2.3882    0.5549    0.2786 C   0  0  0  0  0  0  0  0  0  0  0  0
   -1.5139   -1.4149    0.1870 H   0  0  0  0  0  0  0  0  0  0  0  0
    0.7657   -0.6277    0.8715 H   0  0  0  0  0  0  0  0  0  0  0  0
   -0.6879    3.3933    1.1388 H   0  0  0  0  0  0  0  0  0  0  0  0
   -2.9732    2.6242    0.4527 H   0  0  0  0  0  0  0  0  0  0  0  0
    5.9038   -0.5105   -2.2634 N   0  0  0  0  0  0  0  0  0  0  0  0
    5.3978    0.0858   -1.4836 N   0  0  0  0  0  0  0  0  0  0  0  0
    3.3578    1.1466    0.1998 B   0  0  0  0  0  0  0  0  0  0  0  0
    2.7841    1.4868   -0.9399 F   0  0  0  0  0  0  0  0  0  0  0  0
    4.1102    2.0110    0.8517 F   0  0  0  0  0  0  0  0  0  0  0  0
    1.3602    1.8411    1.4144 F   0  0  0  0  0  0  0  0  0  0  0  0
    3.2435   -0.0967    0.6440 F   0  0  0  0  0  0  0  0  0  0  0  0
   -3.3758    0.2173   -0.0196 H   0  0  0  0  0  0  0  0  0  0  0  0
  1  2  1  0  0  0  0
  2  8  1  0  0  0  0
  2  3  2  0  0  0  0
  3 16  1  0  0  0  0
  4  3  1  0  0  0  0
  4  9  1  0  0  0  0
  5  4  2  0  0  0  0
  6  1  2  0  0  0  0
  6  5  1  0  0  0  0
  7  1  1  0  0  0  0
 10  5  1  0  0  0  0
 11 12  3  0  0  0  0
 13 17  1  0  0  0  0
 13 15  1  0  0  0  0
 14 13  1  0  0  0  0
 18  6  1  0  0  0  0
M  END
