Coordinates from ORCA-job Ph-N2-BF4-B3LYPG-6-31G_dp-MTMO-d009-169-n800
 OpenBabel09051907443D

 18 16  0  0  0  0  0  0  0  0999 V2000
   -1.7847   -0.3010    0.4187 C   0  0  0  0  0  0  0  0  0  0  0  0
   -0.4671    0.1450    0.5417 C   0  0  0  0  0  0  0  0  0  0  0  0
   -0.2596    1.4442    0.9830 C   0  0  0  0  0  0  0  0  0  0  0  0
   -1.2949    2.3112    1.3023 C   0  0  0  0  0  0  0  0  0  0  0  0
   -2.6053    1.8460    1.1738 C   0  0  0  0  0  0  0  0  0  0  0  0
   -2.8519    0.5436    0.7330 C   0  0  0  0  0  0  0  0  0  0  0  0
   -1.9738   -1.3129    0.0739 H   0  0  0  0  0  0  0  0  0  0  0  0
    0.3804   -0.4854    0.3007 H   0  0  0  0  0  0  0  0  0  0  0  0
   -1.0707    3.3163    1.6418 H   0  0  0  0  0  0  0  0  0  0  0  0
   -3.4321    2.5056    1.4188 H   0  0  0  0  0  0  0  0  0  0  0  0
    9.8439   -1.2566   -1.5145 N   0  0  0  0  0  0  0  0  0  0  0  0
    8.8921   -0.7567   -1.7710 N   0  0  0  0  0  0  0  0  0  0  0  0
    2.7556    1.5064   -0.4900 B   0  0  0  0  0  0  0  0  0  0  0  0
    2.0255    2.0277   -1.4585 F   0  0  0  0  0  0  0  0  0  0  0  0
    3.5953    2.2612    0.1910 F   0  0  0  0  0  0  0  0  0  0  0  0
    1.0239    1.8970    1.1174 F   0  0  0  0  0  0  0  0  0  0  0  0
    2.7365    0.1963   -0.2899 F   0  0  0  0  0  0  0  0  0  0  0  0
   -3.8729    0.1882    0.6336 H   0  0  0  0  0  0  0  0  0  0  0  0
  1  2  2  0  0  0  0
  1  6  1  0  0  0  0
  2  3  1  0  0  0  0
  3 16  1  0  0  0  0
  3  4  2  0  0  0  0
  4  9  1  0  0  0  0
  5  4  1  0  0  0  0
  5 10  1  0  0  0  0
  6  5  2  0  0  0  0
  7  1  1  0  0  0  0
  8  2  1  0  0  0  0
 12 11  3  0  0  0  0
 13 17  1  0  0  0  0
 13 15  1  0  0  0  0
 14 13  1  0  0  0  0
 18  6  1  0  0  0  0
M  END
