Coordinates from ORCA-job Ph-N2-BF4-B3LYPG-6-31G_dp-MTMO-d009-169-n800
 OpenBabel09051907443D

 18 17  0  0  0  0  0  0  0  0999 V2000
   -0.8623   -0.1525    0.3460 C   0  0  0  0  0  0  0  0  0  0  0  0
    0.3948    0.0193   -0.2068 C   0  0  0  0  0  0  0  0  0  0  0  0
    0.8193    1.3392   -0.6510 C   0  0  0  0  0  0  0  0  0  0  0  0
   -0.0982    2.4511   -0.4183 C   0  0  0  0  0  0  0  0  0  0  0  0
   -1.3216    2.2361    0.1558 C   0  0  0  0  0  0  0  0  0  0  0  0
   -1.7118    0.9329    0.5313 C   0  0  0  0  0  0  0  0  0  0  0  0
   -1.1557   -1.1448    0.6689 H   0  0  0  0  0  0  0  0  0  0  0  0
    1.1102   -0.7812   -0.3423 H   0  0  0  0  0  0  0  0  0  0  0  0
    0.2402    3.4373   -0.7185 H   0  0  0  0  0  0  0  0  0  0  0  0
   -1.9887    3.0748    0.3236 H   0  0  0  0  0  0  0  0  0  0  0  0
    1.7152    1.4884   -1.1156 N   0  0  0  0  0  0  0  0  0  0  0  0
    2.7059    1.6651   -1.6495 N   0  0  0  0  0  0  0  0  0  0  0  0
    2.9281    0.1446    1.4498 B   0  0  0  0  0  0  0  0  0  0  0  0
    3.1271   -0.4423    0.1583 F   0  0  0  0  0  0  0  0  0  0  0  0
    3.9445   -0.1790    2.3080 F   0  0  0  0  0  0  0  0  0  0  0  0
    2.8086    1.5422    1.2612 F   0  0  0  0  0  0  0  0  0  0  0  0
    1.6723   -0.3358    1.9230 F   0  0  0  0  0  0  0  0  0  0  0  0
   -2.6875    0.7806    0.9819 H   0  0  0  0  0  0  0  0  0  0  0  0
  1  6  1  0  0  0  0
  1  7  1  0  0  0  0
  2  1  2  0  0  0  0
  3  4  2  0  0  0  0
  3  2  1  0  0  0  0
  4  5  1  0  0  0  0
  5 10  1  0  0  0  0
  5  6  2  0  0  0  0
  6 18  1  0  0  0  0
  8  2  1  0  0  0  0
  9  4  1  0  0  0  0
 11  3  1  0  0  0  0
 12 11  1  0  0  0  0
 13 17  1  0  0  0  0
 13 15  1  0  0  0  0
 14 13  1  0  0  0  0
 16 13  1  0  0  0  0
M  RAD  2  11   2  12   3
M  END
