Coordinates from ORCA-job Ph-N2-BF4-B3LYPG-6-31G_dp-MTMO-d009-169-n800
 OpenBabel09051907443D

 18 16  0  0  0  0  0  0  0  0999 V2000
   -1.5808   -0.1158    1.0727 C   0  0  0  0  0  0  0  0  0  0  0  0
   -0.2038    0.0729    1.2095 C   0  0  0  0  0  0  0  0  0  0  0  0
    0.3519    1.2213    0.6631 C   0  0  0  0  0  0  0  0  0  0  0  0
   -0.3944    2.1795   -0.0085 C   0  0  0  0  0  0  0  0  0  0  0  0
   -1.7697    1.9725   -0.1338 C   0  0  0  0  0  0  0  0  0  0  0  0
   -2.3638    0.8284    0.4043 C   0  0  0  0  0  0  0  0  0  0  0  0
   -2.0394   -1.0072    1.4901 H   0  0  0  0  0  0  0  0  0  0  0  0
    0.4299   -0.6444    1.7171 H   0  0  0  0  0  0  0  0  0  0  0  0
    0.0966    3.0564   -0.4157 H   0  0  0  0  0  0  0  0  0  0  0  0
   -2.3748    2.7089   -0.6543 H   0  0  0  0  0  0  0  0  0  0  0  0
    4.2394    2.3916   -1.6340 N   0  0  0  0  0  0  0  0  0  0  0  0
    5.1736    2.2863   -2.2150 N   0  0  0  0  0  0  0  0  0  0  0  0
    3.4300   -0.2195    0.6055 B   0  0  0  0  0  0  0  0  0  0  0  0
    3.1551   -0.4348   -0.6674 F   0  0  0  0  0  0  0  0  0  0  0  0
    4.3424    0.6702    0.9464 F   0  0  0  0  0  0  0  0  0  0  0  0
    1.6976    1.4290    0.7907 F   0  0  0  0  0  0  0  0  0  0  0  0
    2.8841   -0.9914    1.5340 F   0  0  0  0  0  0  0  0  0  0  0  0
   -3.4333    0.6722    0.3012 H   0  0  0  0  0  0  0  0  0  0  0  0
  1  2  1  0  0  0  0
  1  7  1  0  0  0  0
  2  8  1  0  0  0  0
  3 16  1  0  0  0  0
  3  2  2  0  0  0  0
  4  3  1  0  0  0  0
  5  4  2  0  0  0  0
  5  6  1  0  0  0  0
  6  1  2  0  0  0  0
  9  4  1  0  0  0  0
 10  5  1  0  0  0  0
 12 11  3  0  0  0  0
 13 15  1  0  0  0  0
 13 17  1  0  0  0  0
 14 13  1  0  0  0  0
 18  6  1  0  0  0  0
M  END
