Coordinates from ORCA-job Ph-N2-BF4-B3LYPG-6-31G_dp-MTMO-d009-169-n800
 OpenBabel09051907443D

 18 16  0  0  0  0  0  0  0  0999 V2000
   -2.2410   -0.2095    0.5167 C   0  0  0  0  0  0  0  0  0  0  0  0
   -0.9231    0.2481    0.5814 C   0  0  0  0  0  0  0  0  0  0  0  0
   -0.7050    1.5350    1.0526 C   0  0  0  0  0  0  0  0  0  0  0  0
   -1.7298    2.3796    1.4553 C   0  0  0  0  0  0  0  0  0  0  0  0
   -3.0406    1.9031    1.3835 C   0  0  0  0  0  0  0  0  0  0  0  0
   -3.2978    0.6122    0.9159 C   0  0  0  0  0  0  0  0  0  0  0  0
   -2.4388   -1.2124    0.1513 H   0  0  0  0  0  0  0  0  0  0  0  0
   -0.0836   -0.3636    0.2738 H   0  0  0  0  0  0  0  0  0  0  0  0
   -1.4975    3.3763    1.8135 H   0  0  0  0  0  0  0  0  0  0  0  0
   -3.8593    2.5449    1.6938 H   0  0  0  0  0  0  0  0  0  0  0  0
   13.5620   -2.1484   -2.1448 N   0  0  0  0  0  0  0  0  0  0  0  0
   12.5836   -1.6637   -2.3165 N   0  0  0  0  0  0  0  0  0  0  0  0
    2.2407    1.7139   -0.5680 B   0  0  0  0  0  0  0  0  0  0  0  0
    1.4922    2.3378   -1.4585 F   0  0  0  0  0  0  0  0  0  0  0  0
    3.1197    2.3854    0.1500 F   0  0  0  0  0  0  0  0  0  0  0  0
    0.5794    1.9981    1.1326 F   0  0  0  0  0  0  0  0  0  0  0  0
    2.1984    0.3915   -0.4890 F   0  0  0  0  0  0  0  0  0  0  0  0
   -4.3190    0.2478    0.8622 H   0  0  0  0  0  0  0  0  0  0  0  0
  1  2  2  0  0  0  0
  1  6  1  0  0  0  0
  2  3  1  0  0  0  0
  3 16  1  0  0  0  0
  3  4  2  0  0  0  0
  4  9  1  0  0  0  0
  5  4  1  0  0  0  0
  5 10  1  0  0  0  0
  6  5  2  0  0  0  0
  7  1  1  0  0  0  0
  8  2  1  0  0  0  0
 12 11  3  0  0  0  0
 13 17  1  0  0  0  0
 13 15  1  0  0  0  0
 14 13  1  0  0  0  0
 18  6  1  0  0  0  0
M  END
