Coordinates from ORCA-job Ph-N2-BF4-B3LYPG-6-31G_dp-MTMO-d009-169-n800
 OpenBabel09051907443D

 18 17  0  0  0  0  0  0  0  0999 V2000
   -1.1651    0.1376    0.8030 C   0  0  0  0  0  0  0  0  0  0  0  0
    0.1859    0.2606    0.4272 C   0  0  0  0  0  0  0  0  0  0  0  0
    0.3878    1.4069   -0.2731 C   0  0  0  0  0  0  0  0  0  0  0  0
   -0.4163    2.4367   -0.6765 C   0  0  0  0  0  0  0  0  0  0  0  0
   -1.7450    2.2519   -0.2621 C   0  0  0  0  0  0  0  0  0  0  0  0
   -2.1069    1.1149    0.4678 C   0  0  0  0  0  0  0  0  0  0  0  0
   -1.4577   -0.7395    1.3712 H   0  0  0  0  0  0  0  0  0  0  0  0
    0.9845   -0.4541    0.6571 H   0  0  0  0  0  0  0  0  0  0  0  0
   -0.0807    3.2961   -1.2405 H   0  0  0  0  0  0  0  0  0  0  0  0
   -2.4802    3.0069   -0.5202 H   0  0  0  0  0  0  0  0  0  0  0  0
    2.1202    1.6134   -0.8611 N   0  0  0  0  0  0  0  0  0  0  0  0
    3.1146    1.7015   -1.3340 N   0  0  0  0  0  0  0  0  0  0  0  0
    3.5228   -0.2003    1.1562 B   0  0  0  0  0  0  0  0  0  0  0  0
    4.4227    0.1488    0.1375 F   0  0  0  0  0  0  0  0  0  0  0  0
    4.1507   -0.6626    2.2830 F   0  0  0  0  0  0  0  0  0  0  0  0
    2.7249    0.9511    1.4524 F   0  0  0  0  0  0  0  0  0  0  0  0
    2.6164   -1.1849    0.6373 F   0  0  0  0  0  0  0  0  0  0  0  0
   -3.1383    0.9911    0.7808 H   0  0  0  0  0  0  0  0  0  0  0  0
  1  7  1  0  0  0  0
  2  8  1  0  0  0  0
  2  1  2  0  0  0  0
  3  2  1  0  0  0  0
  4  3  2  0  0  0  0
  4  5  1  0  0  0  0
  5  6  2  0  0  0  0
  6 18  1  0  0  0  0
  6  1  1  0  0  0  0
  9  4  1  0  0  0  0
 10  5  1  0  0  0  0
 11  3  1  0  0  0  0
 12 11  1  0  0  0  0
 13 16  1  0  0  0  0
 13 15  1  0  0  0  0
 14 13  1  0  0  0  0
 17 13  1  0  0  0  0
M  RAD  2  11   2  12   3
M  END
