Coordinates from ORCA-job Ph-N2-BF4-B3LYPG-6-31G_dp-MTMO-d009-169-n800
 OpenBabel09051907443D

 18 16  0  0  0  0  0  0  0  0999 V2000
   -1.8044   -0.2970    0.4219 C   0  0  0  0  0  0  0  0  0  0  0  0
   -0.4872    0.1515    0.5409 C   0  0  0  0  0  0  0  0  0  0  0  0
   -0.2808    1.4500    0.9848 C   0  0  0  0  0  0  0  0  0  0  0  0
   -1.3166    2.3142    1.3104 C   0  0  0  0  0  0  0  0  0  0  0  0
   -2.6265    1.8464    1.1857 C   0  0  0  0  0  0  0  0  0  0  0  0
   -2.8721    0.5447    0.7425 C   0  0  0  0  0  0  0  0  0  0  0  0
   -1.9929   -1.3084    0.0753 H   0  0  0  0  0  0  0  0  0  0  0  0
    0.3610   -0.4762    0.2953 H   0  0  0  0  0  0  0  0  0  0  0  0
   -1.0932    3.3189    1.6515 H   0  0  0  0  0  0  0  0  0  0  0  0
   -3.4538    2.5035    1.4355 H   0  0  0  0  0  0  0  0  0  0  0  0
   10.0140   -1.3017   -1.5459 N   0  0  0  0  0  0  0  0  0  0  0  0
    9.0575   -0.8047   -1.7904 N   0  0  0  0  0  0  0  0  0  0  0  0
    2.7338    1.5190   -0.4939 B   0  0  0  0  0  0  0  0  0  0  0  0
    2.0027    2.0413   -1.4611 F   0  0  0  0  0  0  0  0  0  0  0  0
    3.5729    2.2735    0.1883 F   0  0  0  0  0  0  0  0  0  0  0  0
    1.0022    1.9052    1.1153 F   0  0  0  0  0  0  0  0  0  0  0  0
    2.7165    0.2085   -0.2964 F   0  0  0  0  0  0  0  0  0  0  0  0
   -3.8927    0.1874    0.6463 H   0  0  0  0  0  0  0  0  0  0  0  0
  1  2  2  0  0  0  0
  1  6  1  0  0  0  0
  2  3  1  0  0  0  0
  3 16  1  0  0  0  0
  3  4  2  0  0  0  0
  4  9  1  0  0  0  0
  5  4  1  0  0  0  0
  5 10  1  0  0  0  0
  6  5  2  0  0  0  0
  7  1  1  0  0  0  0
  8  2  1  0  0  0  0
 12 11  3  0  0  0  0
 13 17  1  0  0  0  0
 13 15  1  0  0  0  0
 14 13  1  0  0  0  0
 18  6  1  0  0  0  0
M  END
