Coordinates from ORCA-job Ph-N2-BF4-B3LYPG-6-31G_dp-MTMO-d009-169-n800
 OpenBabel09051907443D

 18 16  0  0  0  0  0  0  0  0999 V2000
   -1.7758   -0.3026    0.4171 C   0  0  0  0  0  0  0  0  0  0  0  0
   -0.4581    0.1424    0.5434 C   0  0  0  0  0  0  0  0  0  0  0  0
   -0.2509    1.4419    0.9841 C   0  0  0  0  0  0  0  0  0  0  0  0
   -1.2862    2.3103    1.2997 C   0  0  0  0  0  0  0  0  0  0  0  0
   -2.5966    1.8459    1.1679 C   0  0  0  0  0  0  0  0  0  0  0  0
   -2.8431    0.5434    0.7277 C   0  0  0  0  0  0  0  0  0  0  0  0
   -1.9649   -1.3146    0.0727 H   0  0  0  0  0  0  0  0  0  0  0  0
    0.3898   -0.4887    0.3055 H   0  0  0  0  0  0  0  0  0  0  0  0
   -1.0620    3.3155    1.6389 H   0  0  0  0  0  0  0  0  0  0  0  0
   -3.4236    2.5063    1.4099 H   0  0  0  0  0  0  0  0  0  0  0  0
    9.7753   -1.2389   -1.5027 N   0  0  0  0  0  0  0  0  0  0  0  0
    8.8255   -0.7380   -1.7644 N   0  0  0  0  0  0  0  0  0  0  0  0
    2.7630    1.5011   -0.4885 B   0  0  0  0  0  0  0  0  0  0  0  0
    2.0320    2.0212   -1.4569 F   0  0  0  0  0  0  0  0  0  0  0  0
    3.6034    2.2567    0.1908 F   0  0  0  0  0  0  0  0  0  0  0  0
    1.0326    1.8937    1.1217 F   0  0  0  0  0  0  0  0  0  0  0  0
    2.7440    0.1913   -0.2866 F   0  0  0  0  0  0  0  0  0  0  0  0
   -3.8640    0.1888    0.6258 H   0  0  0  0  0  0  0  0  0  0  0  0
  1  2  2  0  0  0  0
  1  6  1  0  0  0  0
  2  3  1  0  0  0  0
  3 16  1  0  0  0  0
  3  4  2  0  0  0  0
  4  9  1  0  0  0  0
  5  4  1  0  0  0  0
  5 10  1  0  0  0  0
  6  5  2  0  0  0  0
  7  1  1  0  0  0  0
  8  2  1  0  0  0  0
 12 11  3  0  0  0  0
 13 17  1  0  0  0  0
 13 15  1  0  0  0  0
 14 13  1  0  0  0  0
 18  6  1  0  0  0  0
M  END
