Coordinates from ORCA-job Ph-N2-BF4-B3LYPG-6-31G_dp-MTMO-d009-169-n800
 OpenBabel09051907443D

 18 16  0  0  0  0  0  0  0  0999 V2000
   -1.5008   -0.3143    0.7648 C   0  0  0  0  0  0  0  0  0  0  0  0
   -0.1887    0.0159    1.1105 C   0  0  0  0  0  0  0  0  0  0  0  0
    0.2106    1.3363    0.9578 C   0  0  0  0  0  0  0  0  0  0  0  0
   -0.6282    2.3325    0.4791 C   0  0  0  0  0  0  0  0  0  0  0  0
   -1.9370    1.9823    0.1403 C   0  0  0  0  0  0  0  0  0  0  0  0
   -2.3744    0.6630    0.2818 C   0  0  0  0  0  0  0  0  0  0  0  0
   -1.8379   -1.3405    0.8752 H   0  0  0  0  0  0  0  0  0  0  0  0
    0.5131   -0.7206    1.4841 H   0  0  0  0  0  0  0  0  0  0  0  0
   -0.2584    3.3469    0.3790 H   0  0  0  0  0  0  0  0  0  0  0  0
   -2.6129    2.7444   -0.2355 H   0  0  0  0  0  0  0  0  0  0  0  0
    5.3288    1.6646   -2.6432 N   0  0  0  0  0  0  0  0  0  0  0  0
    5.4304    0.8299   -1.9263 N   0  0  0  0  0  0  0  0  0  0  0  0
    3.3271    0.3843    0.5161 B   0  0  0  0  0  0  0  0  0  0  0  0
    2.8021    0.3512   -0.6961 F   0  0  0  0  0  0  0  0  0  0  0  0
    4.1783    1.3360    0.8464 F   0  0  0  0  0  0  0  0  0  0  0  0
    1.4894    1.6794    1.3011 F   0  0  0  0  0  0  0  0  0  0  0  0
    3.0911   -0.6124    1.3559 F   0  0  0  0  0  0  0  0  0  0  0  0
   -3.3922    0.3971    0.0148 H   0  0  0  0  0  0  0  0  0  0  0  0
  1  7  1  0  0  0  0
  1  2  2  0  0  0  0
  2  8  1  0  0  0  0
  3  2  1  0  0  0  0
  3 16  1  0  0  0  0
  4  3  2  0  0  0  0
  5  6  2  0  0  0  0
  5  4  1  0  0  0  0
  6  1  1  0  0  0  0
  9  4  1  0  0  0  0
 10  5  1  0  0  0  0
 11 12  3  0  0  0  0
 13 15  1  0  0  0  0
 13 17  1  0  0  0  0
 14 13  1  0  0  0  0
 18  6  1  0  0  0  0
M  END
