Coordinates from ORCA-job Ph-N2-BF4-B3LYPG-6-31G_dp-MTMO-d009-169-n800
 OpenBabel09051907443D

 18 16  0  0  0  0  0  0  0  0999 V2000
   -1.4088   -0.1062    0.5921 C   0  0  0  0  0  0  0  0  0  0  0  0
   -0.0424    0.0117    0.8562 C   0  0  0  0  0  0  0  0  0  0  0  0
    0.5458    1.2583    0.6936 C   0  0  0  0  0  0  0  0  0  0  0  0
   -0.1602    2.3806    0.2826 C   0  0  0  0  0  0  0  0  0  0  0  0
   -1.5252    2.2419    0.0244 C   0  0  0  0  0  0  0  0  0  0  0  0
   -2.1508    1.0021    0.1774 C   0  0  0  0  0  0  0  0  0  0  0  0
   -1.8919   -1.0714    0.7126 H   0  0  0  0  0  0  0  0  0  0  0  0
    0.5578   -0.8301    1.1785 H   0  0  0  0  0  0  0  0  0  0  0  0
    0.3543    3.3287    0.1712 H   0  0  0  0  0  0  0  0  0  0  0  0
   -2.0975    3.1063   -0.2985 H   0  0  0  0  0  0  0  0  0  0  0  0
    2.6919    1.6323   -2.0755 N   0  0  0  0  0  0  0  0  0  0  0  0
    3.0759    1.6205   -3.1117 N   0  0  0  0  0  0  0  0  0  0  0  0
    3.7343   -0.1777    1.2165 B   0  0  0  0  0  0  0  0  0  0  0  0
    4.1234   -0.0352   -0.0366 F   0  0  0  0  0  0  0  0  0  0  0  0
    4.2341    0.5952    2.1599 F   0  0  0  0  0  0  0  0  0  0  0  0
    1.8804    1.3992    0.9483 F   0  0  0  0  0  0  0  0  0  0  0  0
    2.9311   -1.1800    1.5426 F   0  0  0  0  0  0  0  0  0  0  0  0
   -3.2118    0.8998   -0.0278 H   0  0  0  0  0  0  0  0  0  0  0  0
  1  7  1  0  0  0  0
  1  2  2  0  0  0  0
  2  8  1  0  0  0  0
  3  2  1  0  0  0  0
  3 16  1  0  0  0  0
  4  3  2  0  0  0  0
  5  6  2  0  0  0  0
  5  4  1  0  0  0  0
  6  1  1  0  0  0  0
  9  4  1  0  0  0  0
 10  5  1  0  0  0  0
 12 11  3  0  0  0  0
 13 17  1  0  0  0  0
 13 15  1  0  0  0  0
 14 13  1  0  0  0  0
 18  6  1  0  0  0  0
M  END
