Coordinates from ORCA-job Ph-N2-BF4-B3LYPG-6-31G_dp-MTMO-d009-169-n800
 OpenBabel09051907443D

 18 16  0  0  0  0  0  0  0  0999 V2000
   -2.2200   -0.2127    0.5111 C   0  0  0  0  0  0  0  0  0  0  0  0
   -0.9018    0.2431    0.5812 C   0  0  0  0  0  0  0  0  0  0  0  0
   -0.6840    1.5306    1.0511 C   0  0  0  0  0  0  0  0  0  0  0  0
   -1.7095    2.3773    1.4476 C   0  0  0  0  0  0  0  0  0  0  0  0
   -3.0206    1.9025    1.3705 C   0  0  0  0  0  0  0  0  0  0  0  0
   -3.2775    0.6113    0.9039 C   0  0  0  0  0  0  0  0  0  0  0  0
   -2.4176   -1.2159    0.1464 H   0  0  0  0  0  0  0  0  0  0  0  0
   -0.0617   -0.3704    0.2787 H   0  0  0  0  0  0  0  0  0  0  0  0
   -1.4774    3.3742    1.8052 H   0  0  0  0  0  0  0  0  0  0  0  0
   -3.8399    2.5460    1.6759 H   0  0  0  0  0  0  0  0  0  0  0  0
   13.3895   -2.1038   -2.1217 N   0  0  0  0  0  0  0  0  0  0  0  0
   12.4108   -1.6195   -2.2927 N   0  0  0  0  0  0  0  0  0  0  0  0
    2.2650    1.7002   -0.5601 B   0  0  0  0  0  0  0  0  0  0  0  0
    1.5145    2.3134   -1.4563 F   0  0  0  0  0  0  0  0  0  0  0  0
    3.1411    2.3812    0.1524 F   0  0  0  0  0  0  0  0  0  0  0  0
    0.6006    1.9920    1.1362 F   0  0  0  0  0  0  0  0  0  0  0  0
    2.2276    0.3784   -0.4694 F   0  0  0  0  0  0  0  0  0  0  0  0
   -4.2989    0.2482    0.8459 H   0  0  0  0  0  0  0  0  0  0  0  0
  1  2  2  0  0  0  0
  1  6  1  0  0  0  0
  2  3  1  0  0  0  0
  3 16  1  0  0  0  0
  3  4  2  0  0  0  0
  4  9  1  0  0  0  0
  5  4  1  0  0  0  0
  5 10  1  0  0  0  0
  6  5  2  0  0  0  0
  7  1  1  0  0  0  0
  8  2  1  0  0  0  0
 12 11  3  0  0  0  0
 13 17  1  0  0  0  0
 13 15  1  0  0  0  0
 14 13  1  0  0  0  0
 18  6  1  0  0  0  0
M  END
