Coordinates from ORCA-job Ph-N2-BF4-B3LYPG-6-31G_dp-MTMO-d009-169-n800
 OpenBabel09051907443D

 18 16  0  0  0  0  0  0  0  0999 V2000
   -1.6733   -0.3113    0.5656 C   0  0  0  0  0  0  0  0  0  0  0  0
   -0.3488    0.1089    0.4255 C   0  0  0  0  0  0  0  0  0  0  0  0
   -0.0765    1.4630    0.5668 C   0  0  0  0  0  0  0  0  0  0  0  0
   -1.0569    2.4075    0.8387 C   0  0  0  0  0  0  0  0  0  0  0  0
   -2.3753    1.9672    0.9752 C   0  0  0  0  0  0  0  0  0  0  0  0
   -2.6853    0.6118    0.8393 C   0  0  0  0  0  0  0  0  0  0  0  0
   -1.9117   -1.3652    0.4580 H   0  0  0  0  0  0  0  0  0  0  0  0
    0.4580   -0.5824    0.2123 H   0  0  0  0  0  0  0  0  0  0  0  0
   -0.7847    3.4524    0.9399 H   0  0  0  0  0  0  0  0  0  0  0  0
   -3.1591    2.6878    1.1883 H   0  0  0  0  0  0  0  0  0  0  0  0
    7.5406    0.0890   -1.3294 N   0  0  0  0  0  0  0  0  0  0  0  0
    6.4798    0.2169   -1.0471 N   0  0  0  0  0  0  0  0  0  0  0  0
    3.4182    0.8020   -0.2470 B   0  0  0  0  0  0  0  0  0  0  0  0
    3.4253    1.4665   -1.3852 F   0  0  0  0  0  0  0  0  0  0  0  0
    3.9909    1.3101    0.8254 F   0  0  0  0  0  0  0  0  0  0  0  0
    1.2119    1.8922    0.4333 F   0  0  0  0  0  0  0  0  0  0  0  0
    2.8993   -0.4166   -0.2014 F   0  0  0  0  0  0  0  0  0  0  0  0
   -3.7119    0.2761    0.9476 H   0  0  0  0  0  0  0  0  0  0  0  0
  1  6  1  0  0  0  0
  2  1  2  0  0  0  0
  2  3  1  0  0  0  0
  3  4  2  0  0  0  0
  4  9  1  0  0  0  0
  4  5  1  0  0  0  0
  5 10  1  0  0  0  0
  6 18  1  0  0  0  0
  6  5  2  0  0  0  0
  7  1  1  0  0  0  0
  8  2  1  0  0  0  0
 11 12  3  0  0  0  0
 13 17  1  0  0  0  0
 13 15  1  0  0  0  0
 14 13  1  0  0  0  0
 16  3  1  0  0  0  0
M  END
