Coordinates from ORCA-job Ph-N2-BF4-B3LYPG-6-31G_dp-MTMO-d009-169-n800
 OpenBabel09051907443D

 18 16  0  0  0  0  0  0  0  0999 V2000
   -1.7399   -0.3088    0.5746 C   0  0  0  0  0  0  0  0  0  0  0  0
   -0.4106    0.1097    0.4825 C   0  0  0  0  0  0  0  0  0  0  0  0
   -0.1432    1.4637    0.6321 C   0  0  0  0  0  0  0  0  0  0  0  0
   -1.1317    2.4096    0.8664 C   0  0  0  0  0  0  0  0  0  0  0  0
   -2.4545    1.9707    0.9551 C   0  0  0  0  0  0  0  0  0  0  0  0
   -2.7603    0.6154    0.8098 C   0  0  0  0  0  0  0  0  0  0  0  0
   -1.9750   -1.3627    0.4595 H   0  0  0  0  0  0  0  0  0  0  0  0
    0.4018   -0.5833    0.2989 H   0  0  0  0  0  0  0  0  0  0  0  0
   -0.8621    3.4544    0.9761 H   0  0  0  0  0  0  0  0  0  0  0  0
   -3.2449    2.6923    1.1384 H   0  0  0  0  0  0  0  0  0  0  0  0
    8.2160   -0.0246   -1.5632 N   0  0  0  0  0  0  0  0  0  0  0  0
    7.1554    0.0757   -1.2688 N   0  0  0  0  0  0  0  0  0  0  0  0
    3.2871    0.8607   -0.1887 B   0  0  0  0  0  0  0  0  0  0  0  0
    3.2458    1.5166   -1.3316 F   0  0  0  0  0  0  0  0  0  0  0  0
    3.8896    1.3849    0.8597 F   0  0  0  0  0  0  0  0  0  0  0  0
    1.1499    1.8944    0.5470 F   0  0  0  0  0  0  0  0  0  0  0  0
    2.8077   -0.3732   -0.1227 F   0  0  0  0  0  0  0  0  0  0  0  0
   -3.7905    0.2806    0.8806 H   0  0  0  0  0  0  0  0  0  0  0  0
  1  6  1  0  0  0  0
  2  1  2  0  0  0  0
  2  3  1  0  0  0  0
  3  4  2  0  0  0  0
  4  5  1  0  0  0  0
  4  9  1  0  0  0  0
  5 10  1  0  0  0  0
  6 18  1  0  0  0  0
  6  5  2  0  0  0  0
  7  1  1  0  0  0  0
  8  2  1  0  0  0  0
 11 12  3  0  0  0  0
 13 17  1  0  0  0  0
 13 15  1  0  0  0  0
 14 13  1  0  0  0  0
 16  3  1  0  0  0  0
M  END
