Coordinates from ORCA-job Ph-N2-BF4-B3LYPG-6-31G_dp-MTMO-d009-169-n800
 OpenBabel09051907443D

 18 16  0  0  0  0  0  0  0  0999 V2000
   -1.7386   -0.3090    0.5751 C   0  0  0  0  0  0  0  0  0  0  0  0
   -0.4089    0.1076    0.4813 C   0  0  0  0  0  0  0  0  0  0  0  0
   -0.1391    1.4612    0.6301 C   0  0  0  0  0  0  0  0  0  0  0  0
   -1.1261    2.4085    0.8651 C   0  0  0  0  0  0  0  0  0  0  0  0
   -2.4495    1.9717    0.9556 C   0  0  0  0  0  0  0  0  0  0  0  0
   -2.7575    0.6167    0.8112 C   0  0  0  0  0  0  0  0  0  0  0  0
   -1.9754   -1.3627    0.4608 H   0  0  0  0  0  0  0  0  0  0  0  0
    0.4025   -0.5864    0.2970 H   0  0  0  0  0  0  0  0  0  0  0  0
   -0.8551    3.4530    0.9740 H   0  0  0  0  0  0  0  0  0  0  0  0
   -3.2386    2.6944    1.1395 H   0  0  0  0  0  0  0  0  0  0  0  0
    8.1827   -0.0261   -1.5478 N   0  0  0  0  0  0  0  0  0  0  0  0
    7.1248    0.1048   -1.2559 N   0  0  0  0  0  0  0  0  0  0  0  0
    3.2929    0.8557   -0.1945 B   0  0  0  0  0  0  0  0  0  0  0  0
    3.2533    1.5119   -1.3373 F   0  0  0  0  0  0  0  0  0  0  0  0
    3.8960    1.3785    0.8542 F   0  0  0  0  0  0  0  0  0  0  0  0
    1.1544    1.8898    0.5432 F   0  0  0  0  0  0  0  0  0  0  0  0
    2.8105   -0.3771   -0.1288 F   0  0  0  0  0  0  0  0  0  0  0  0
   -3.7880    0.2833    0.8833 H   0  0  0  0  0  0  0  0  0  0  0  0
  1  6  1  0  0  0  0
  2  1  2  0  0  0  0
  2  3  1  0  0  0  0
  3  4  2  0  0  0  0
  4  5  1  0  0  0  0
  4  9  1  0  0  0  0
  5 10  1  0  0  0  0
  6 18  1  0  0  0  0
  6  5  2  0  0  0  0
  7  1  1  0  0  0  0
  8  2  1  0  0  0  0
 11 12  3  0  0  0  0
 13 17  1  0  0  0  0
 13 15  1  0  0  0  0
 14 13  1  0  0  0  0
 16  3  1  0  0  0  0
M  END
