Coordinates from ORCA-job Ph-N2-BF4-B3LYPG-6-31G_dp-MTMO-d009-169-n800
 OpenBabel09051907443D

 18 17  0  0  0  0  0  0  0  0999 V2000
   -1.1616    0.1386    0.8039 C   0  0  0  0  0  0  0  0  0  0  0  0
    0.1898    0.2649    0.4265 C   0  0  0  0  0  0  0  0  0  0  0  0
    0.3816    1.4111   -0.2730 C   0  0  0  0  0  0  0  0  0  0  0  0
   -0.4213    2.4393   -0.6785 C   0  0  0  0  0  0  0  0  0  0  0  0
   -1.7495    2.2500   -0.2622 C   0  0  0  0  0  0  0  0  0  0  0  0
   -2.1069    1.1124    0.4690 C   0  0  0  0  0  0  0  0  0  0  0  0
   -1.4499   -0.7393    1.3732 H   0  0  0  0  0  0  0  0  0  0  0  0
    0.9916   -0.4474    0.6573 H   0  0  0  0  0  0  0  0  0  0  0  0
   -0.0881    3.2988   -1.2435 H   0  0  0  0  0  0  0  0  0  0  0  0
   -2.4869    3.0028   -0.5205 H   0  0  0  0  0  0  0  0  0  0  0  0
    2.1317    1.6245   -0.8695 N   0  0  0  0  0  0  0  0  0  0  0  0
    3.1281    1.7098   -1.3383 N   0  0  0  0  0  0  0  0  0  0  0  0
    3.5196   -0.2048    1.1585 B   0  0  0  0  0  0  0  0  0  0  0  0
    4.4204    0.1344    0.1382 F   0  0  0  0  0  0  0  0  0  0  0  0
    4.1449   -0.6676    2.2866 F   0  0  0  0  0  0  0  0  0  0  0  0
    2.7275    0.9508    1.4512 F   0  0  0  0  0  0  0  0  0  0  0  0
    2.6068   -1.1876    0.6437 F   0  0  0  0  0  0  0  0  0  0  0  0
   -3.1374    0.9853    0.7832 H   0  0  0  0  0  0  0  0  0  0  0  0
  1  7  1  0  0  0  0
  2  8  1  0  0  0  0
  2  1  2  0  0  0  0
  3  2  1  0  0  0  0
  4  3  2  0  0  0  0
  4  5  1  0  0  0  0
  5  6  2  0  0  0  0
  6 18  1  0  0  0  0
  6  1  1  0  0  0  0
  9  4  1  0  0  0  0
 10  5  1  0  0  0  0
 11  3  1  0  0  0  0
 12 11  1  0  0  0  0
 13 16  1  0  0  0  0
 13 15  1  0  0  0  0
 14 13  1  0  0  0  0
 17 13  1  0  0  0  0
M  RAD  2  11   2  12   3
M  END
