Coordinates from ORCA-job Ph-N2-BF4-B3LYPG-6-31G_dp-MTMO-d009-169-n800
 OpenBabel09051907443D

 18 16  0  0  0  0  0  0  0  0999 V2000
   -1.7002   -0.3058    0.5734 C   0  0  0  0  0  0  0  0  0  0  0  0
   -0.3728    0.1040    0.4302 C   0  0  0  0  0  0  0  0  0  0  0  0
   -0.0901    1.4563    0.5681 C   0  0  0  0  0  0  0  0  0  0  0  0
   -1.0628    2.4088    0.8394 C   0  0  0  0  0  0  0  0  0  0  0  0
   -2.3842    1.9789    0.9790 C   0  0  0  0  0  0  0  0  0  0  0  0
   -2.7047    0.6255    0.8467 C   0  0  0  0  0  0  0  0  0  0  0  0
   -1.9468   -1.3582    0.4687 H   0  0  0  0  0  0  0  0  0  0  0  0
    0.4285   -0.5939    0.2173 H   0  0  0  0  0  0  0  0  0  0  0  0
   -0.7825    3.4519    0.9378 H   0  0  0  0  0  0  0  0  0  0  0  0
   -3.1622    2.7059    1.1916 H   0  0  0  0  0  0  0  0  0  0  0  0
    7.6811    0.1470   -1.3429 N   0  0  0  0  0  0  0  0  0  0  0  0
    6.6161    0.2561   -1.0679 N   0  0  0  0  0  0  0  0  0  0  0  0
    3.3973    0.7686   -0.2508 B   0  0  0  0  0  0  0  0  0  0  0  0
    3.4039    1.4311   -1.3901 F   0  0  0  0  0  0  0  0  0  0  0  0
    3.9821    1.2725    0.8170 F   0  0  0  0  0  0  0  0  0  0  0  0
    1.2015    1.8754    0.4315 F   0  0  0  0  0  0  0  0  0  0  0  0
    2.8696   -0.4461   -0.2007 F   0  0  0  0  0  0  0  0  0  0  0  0
   -3.7336    0.2978    0.9575 H   0  0  0  0  0  0  0  0  0  0  0  0
  1  6  2  0  0  0  0
  2  3  2  0  0  0  0
  2  1  1  0  0  0  0
  3  4  1  0  0  0  0
  4  9  1  0  0  0  0
  4  5  2  0  0  0  0
  5 10  1  0  0  0  0
  6 18  1  0  0  0  0
  6  5  1  0  0  0  0
  7  1  1  0  0  0  0
  8  2  1  0  0  0  0
 11 12  3  0  0  0  0
 13 17  1  0  0  0  0
 13 15  1  0  0  0  0
 14 13  1  0  0  0  0
 16  3  1  0  0  0  0
M  END
