Coordinates from ORCA-job Ph-N2-BF4-B3LYPG-6-31G_dp-MTMO-d009-169-n800
 OpenBabel09051907443D

 18 16  0  0  0  0  0  0  0  0999 V2000
   -1.6309   -0.3380    0.4247 C   0  0  0  0  0  0  0  0  0  0  0  0
   -0.3477    0.1078    0.7487 C   0  0  0  0  0  0  0  0  0  0  0  0
   -0.1797    1.4568    1.0279 C   0  0  0  0  0  0  0  0  0  0  0  0
   -1.2213    2.3732    0.9985 C   0  0  0  0  0  0  0  0  0  0  0  0
   -2.4971    1.9071    0.6737 C   0  0  0  0  0  0  0  0  0  0  0  0
   -2.7037    0.5558    0.3868 C   0  0  0  0  0  0  0  0  0  0  0  0
   -1.7883   -1.3885    0.1993 H   0  0  0  0  0  0  0  0  0  0  0  0
    0.5047   -0.5602    0.7835 H   0  0  0  0  0  0  0  0  0  0  0  0
   -1.0292    3.4157    1.2274 H   0  0  0  0  0  0  0  0  0  0  0  0
   -3.3288    2.6045    0.6446 H   0  0  0  0  0  0  0  0  0  0  0  0
    8.5244   -0.6869   -2.4380 N   0  0  0  0  0  0  0  0  0  0  0  0
    7.5719   -0.4288   -1.9401 N   0  0  0  0  0  0  0  0  0  0  0  0
    3.0735    1.2484    0.2102 B   0  0  0  0  0  0  0  0  0  0  0  0
    2.5690    1.5943   -0.9597 F   0  0  0  0  0  0  0  0  0  0  0  0
    3.7864    2.1102    0.9086 F   0  0  0  0  0  0  0  0  0  0  0  0
    1.0682    1.9103    1.3540 F   0  0  0  0  0  0  0  0  0  0  0  0
    2.9663   -0.0063    0.6230 F   0  0  0  0  0  0  0  0  0  0  0  0
   -3.6974    0.2005    0.1327 H   0  0  0  0  0  0  0  0  0  0  0  0
  1  2  1  0  0  0  0
  2  8  1  0  0  0  0
  2  3  2  0  0  0  0
  3 16  1  0  0  0  0
  4  3  1  0  0  0  0
  4  9  1  0  0  0  0
  5  4  2  0  0  0  0
  6  1  2  0  0  0  0
  6  5  1  0  0  0  0
  7  1  1  0  0  0  0
 10  5  1  0  0  0  0
 11 12  3  0  0  0  0
 13 17  1  0  0  0  0
 13 15  1  0  0  0  0
 14 13  1  0  0  0  0
 18  6  1  0  0  0  0
M  END
