Coordinates from ORCA-job Ph-N2-BF4-B3LYPG-6-31G_dp-MTMO-d009-169-n800
 OpenBabel09051907443D

 18 16  0  0  0  0  0  0  0  0999 V2000
   -2.2024   -0.2154    0.5068 C   0  0  0  0  0  0  0  0  0  0  0  0
   -0.8846    0.2409    0.5817 C   0  0  0  0  0  0  0  0  0  0  0  0
   -0.6693    1.5289    1.0511 C   0  0  0  0  0  0  0  0  0  0  0  0
   -1.6965    2.3757    1.4427 C   0  0  0  0  0  0  0  0  0  0  0  0
   -3.0072    1.9004    1.3608 C   0  0  0  0  0  0  0  0  0  0  0  0
   -3.2617    0.6085    0.8944 C   0  0  0  0  0  0  0  0  0  0  0  0
   -2.3979   -1.2191    0.1423 H   0  0  0  0  0  0  0  0  0  0  0  0
   -0.0433   -0.3729    0.2833 H   0  0  0  0  0  0  0  0  0  0  0  0
   -1.4661    3.3730    1.8003 H   0  0  0  0  0  0  0  0  0  0  0  0
   -3.8278    2.5439    1.6623 H   0  0  0  0  0  0  0  0  0  0  0  0
   13.2671   -2.0766   -2.1057 N   0  0  0  0  0  0  0  0  0  0  0  0
   12.2886   -1.5920   -2.2770 N   0  0  0  0  0  0  0  0  0  0  0  0
    2.2803    1.6931   -0.5544 B   0  0  0  0  0  0  0  0  0  0  0  0
    1.5287    2.2983   -1.4552 F   0  0  0  0  0  0  0  0  0  0  0  0
    3.1543    2.3811    0.1538 F   0  0  0  0  0  0  0  0  0  0  0  0
    0.6149    1.9911    1.1410 F   0  0  0  0  0  0  0  0  0  0  0  0
    2.2461    0.3719   -0.4548 F   0  0  0  0  0  0  0  0  0  0  0  0
   -4.2828    0.2451    0.8326 H   0  0  0  0  0  0  0  0  0  0  0  0
  1  2  2  0  0  0  0
  1  6  1  0  0  0  0
  2  3  1  0  0  0  0
  3 16  1  0  0  0  0
  3  4  2  0  0  0  0
  4  9  1  0  0  0  0
  5  4  1  0  0  0  0
  5 10  1  0  0  0  0
  6  5  2  0  0  0  0
  7  1  1  0  0  0  0
  8  2  1  0  0  0  0
 12 11  3  0  0  0  0
 13 17  1  0  0  0  0
 13 15  1  0  0  0  0
 14 13  1  0  0  0  0
 18  6  1  0  0  0  0
M  END
