Coordinates from ORCA-job Ph-N2-BF4-B3LYPG-6-31G_dp-MTMO-d009-169-n800
 OpenBabel09051907443D

 18 16  0  0  0  0  0  0  0  0999 V2000
   -1.8302   -0.2913    0.4267 C   0  0  0  0  0  0  0  0  0  0  0  0
   -0.5142    0.1617    0.5433 C   0  0  0  0  0  0  0  0  0  0  0  0
   -0.3116    1.4595    0.9909 C   0  0  0  0  0  0  0  0  0  0  0  0
   -1.3495    2.3187    1.3225 C   0  0  0  0  0  0  0  0  0  0  0  0
   -2.6580    1.8464    1.2001 C   0  0  0  0  0  0  0  0  0  0  0  0
   -2.9000    0.5453    0.7534 C   0  0  0  0  0  0  0  0  0  0  0  0
   -2.0158   -1.3022    0.0773 H   0  0  0  0  0  0  0  0  0  0  0  0
    0.3353   -0.4623    0.2930 H   0  0  0  0  0  0  0  0  0  0  0  0
   -1.1287    3.3231    1.6664 H   0  0  0  0  0  0  0  0  0  0  0  0
   -3.4869    2.4996    1.4547 H   0  0  0  0  0  0  0  0  0  0  0  0
   10.2674   -1.3739   -1.5950 N   0  0  0  0  0  0  0  0  0  0  0  0
    9.3053   -0.8802   -1.8239 N   0  0  0  0  0  0  0  0  0  0  0  0
    2.6966    1.5403   -0.4985 B   0  0  0  0  0  0  0  0  0  0  0  0
    1.9623    2.0649   -1.4621 F   0  0  0  0  0  0  0  0  0  0  0  0
    3.5369    2.2934    0.1836 F   0  0  0  0  0  0  0  0  0  0  0  0
    0.9701    1.9192    1.1194 F   0  0  0  0  0  0  0  0  0  0  0  0
    2.6810    0.2292   -0.3050 F   0  0  0  0  0  0  0  0  0  0  0  0
   -3.9195    0.1845    0.6590 H   0  0  0  0  0  0  0  0  0  0  0  0
  1  2  2  0  0  0  0
  1  6  1  0  0  0  0
  2  3  1  0  0  0  0
  3 16  1  0  0  0  0
  3  4  2  0  0  0  0
  4  9  1  0  0  0  0
  5  4  1  0  0  0  0
  5 10  1  0  0  0  0
  6  5  2  0  0  0  0
  7  1  1  0  0  0  0
  8  2  1  0  0  0  0
 12 11  3  0  0  0  0
 13 17  1  0  0  0  0
 13 15  1  0  0  0  0
 14 13  1  0  0  0  0
 18  6  1  0  0  0  0
M  END
