Coordinates from ORCA-job Ph-N2-BF4-B3LYPG-6-31G_dp-MTMO-d009-169-n800
 OpenBabel09051907443D

 18 16  0  0  0  0  0  0  0  0999 V2000
   -1.6522   -0.3313    0.4249 C   0  0  0  0  0  0  0  0  0  0  0  0
   -0.3670    0.1198    0.7333 C   0  0  0  0  0  0  0  0  0  0  0  0
   -0.2034    1.4673    1.0222 C   0  0  0  0  0  0  0  0  0  0  0  0
   -1.2513    2.3770    1.0174 C   0  0  0  0  0  0  0  0  0  0  0  0
   -2.5290    1.9056    0.7080 C   0  0  0  0  0  0  0  0  0  0  0  0
   -2.7312    0.5557    0.4117 C   0  0  0  0  0  0  0  0  0  0  0  0
   -1.8062   -1.3807    0.1923 H   0  0  0  0  0  0  0  0  0  0  0  0
    0.4897   -0.5433    0.7492 H   0  0  0  0  0  0  0  0  0  0  0  0
   -1.0623    3.4185    1.2531 H   0  0  0  0  0  0  0  0  0  0  0  0
   -3.3655    2.5978    0.6984 H   0  0  0  0  0  0  0  0  0  0  0  0
    8.7244   -0.7375   -2.4542 N   0  0  0  0  0  0  0  0  0  0  0  0
    7.7626   -0.4864   -1.9710 N   0  0  0  0  0  0  0  0  0  0  0  0
    3.0524    1.2596    0.1941 B   0  0  0  0  0  0  0  0  0  0  0  0
    2.5556    1.6104   -0.9775 F   0  0  0  0  0  0  0  0  0  0  0  0
    3.7650    2.1167    0.8986 F   0  0  0  0  0  0  0  0  0  0  0  0
    1.0463    1.9268    1.3333 F   0  0  0  0  0  0  0  0  0  0  0  0
    2.9390    0.0039    0.6025 F   0  0  0  0  0  0  0  0  0  0  0  0
   -3.7264    0.1962    0.1696 H   0  0  0  0  0  0  0  0  0  0  0  0
  1  2  1  0  0  0  0
  2  8  1  0  0  0  0
  2  3  2  0  0  0  0
  3 16  1  0  0  0  0
  4  3  1  0  0  0  0
  4  9  1  0  0  0  0
  5  4  2  0  0  0  0
  6  1  2  0  0  0  0
  6  5  1  0  0  0  0
  7  1  1  0  0  0  0
 10  5  1  0  0  0  0
 11 12  3  0  0  0  0
 13 17  1  0  0  0  0
 13 15  1  0  0  0  0
 14 13  1  0  0  0  0
 18  6  1  0  0  0  0
M  END
