Coordinates from ORCA-job Ph-N2-BF4-B3LYPG-6-31G_dp-MTMO-d009-169-n800
 OpenBabel09051907443D

 18 16  0  0  0  0  0  0  0  0999 V2000
   -1.8391   -0.2897    0.4281 C   0  0  0  0  0  0  0  0  0  0  0  0
   -0.5227    0.1621    0.5425 C   0  0  0  0  0  0  0  0  0  0  0  0
   -0.3179    1.4596    0.9904 C   0  0  0  0  0  0  0  0  0  0  0  0
   -1.3546    2.3194    1.3244 C   0  0  0  0  0  0  0  0  0  0  0  0
   -2.6638    1.8482    1.2043 C   0  0  0  0  0  0  0  0  0  0  0  0
   -2.9077    0.5476    0.7573 C   0  0  0  0  0  0  0  0  0  0  0  0
   -2.0264   -1.3003    0.0786 H   0  0  0  0  0  0  0  0  0  0  0  0
    0.3261   -0.4621    0.2904 H   0  0  0  0  0  0  0  0  0  0  0  0
   -1.1325    3.3235    1.6684 H   0  0  0  0  0  0  0  0  0  0  0  0
   -3.4917    2.5019    1.4607 H   0  0  0  0  0  0  0  0  0  0  0  0
   10.3207   -1.3823   -1.6033 N   0  0  0  0  0  0  0  0  0  0  0  0
    9.3573   -0.8902   -1.8296 N   0  0  0  0  0  0  0  0  0  0  0  0
    2.6914    1.5414   -0.4999 B   0  0  0  0  0  0  0  0  0  0  0  0
    1.9564    2.0663   -1.4627 F   0  0  0  0  0  0  0  0  0  0  0  0
    3.5312    2.2947    0.1828 F   0  0  0  0  0  0  0  0  0  0  0  0
    0.9644    1.9180    1.1165 F   0  0  0  0  0  0  0  0  0  0  0  0
    2.6771    0.2301   -0.3077 F   0  0  0  0  0  0  0  0  0  0  0  0
   -3.9277    0.1877    0.6647 H   0  0  0  0  0  0  0  0  0  0  0  0
  1  2  2  0  0  0  0
  1  6  1  0  0  0  0
  2  3  1  0  0  0  0
  3 16  1  0  0  0  0
  3  4  2  0  0  0  0
  4  9  1  0  0  0  0
  5  4  1  0  0  0  0
  5 10  1  0  0  0  0
  6  5  2  0  0  0  0
  7  1  1  0  0  0  0
  8  2  1  0  0  0  0
 12 11  3  0  0  0  0
 13 17  1  0  0  0  0
 13 15  1  0  0  0  0
 14 13  1  0  0  0  0
 18  6  1  0  0  0  0
M  END
