Coordinates from ORCA-job Ph-N2-BF4-B3LYPG-6-31G_dp-MTMO-d009-169-n800
 OpenBabel09051907443D

 18 16  0  0  0  0  0  0  0  0999 V2000
   -2.2283   -0.2115    0.5134 C   0  0  0  0  0  0  0  0  0  0  0  0
   -0.9103    0.2451    0.5813 C   0  0  0  0  0  0  0  0  0  0  0  0
   -0.6924    1.5323    1.0517 C   0  0  0  0  0  0  0  0  0  0  0  0
   -1.7176    2.3781    1.4507 C   0  0  0  0  0  0  0  0  0  0  0  0
   -3.0286    1.9026    1.3758 C   0  0  0  0  0  0  0  0  0  0  0  0
   -3.2855    0.6115    0.9089 C   0  0  0  0  0  0  0  0  0  0  0  0
   -2.4259   -1.2146    0.1485 H   0  0  0  0  0  0  0  0  0  0  0  0
   -0.0704   -0.3677    0.2767 H   0  0  0  0  0  0  0  0  0  0  0  0
   -1.4855    3.3750    1.8085 H   0  0  0  0  0  0  0  0  0  0  0  0
   -3.8477    2.5453    1.6832 H   0  0  0  0  0  0  0  0  0  0  0  0
   13.4585   -2.1221   -2.1307 N   0  0  0  0  0  0  0  0  0  0  0  0
   12.4799   -1.6375   -2.3020 N   0  0  0  0  0  0  0  0  0  0  0  0
    2.2552    1.7062   -0.5635 B   0  0  0  0  0  0  0  0  0  0  0  0
    1.5055    2.3240   -1.4572 F   0  0  0  0  0  0  0  0  0  0  0  0
    3.1325    2.3830    0.1514 F   0  0  0  0  0  0  0  0  0  0  0  0
    0.5921    1.9945    1.1347 F   0  0  0  0  0  0  0  0  0  0  0  0
    2.2157    0.3841   -0.4780 F   0  0  0  0  0  0  0  0  0  0  0  0
   -4.3069    0.2478    0.8526 H   0  0  0  0  0  0  0  0  0  0  0  0
  1  2  2  0  0  0  0
  1  6  1  0  0  0  0
  2  3  1  0  0  0  0
  3 16  1  0  0  0  0
  3  4  2  0  0  0  0
  4  9  1  0  0  0  0
  5  4  1  0  0  0  0
  5 10  1  0  0  0  0
  6  5  2  0  0  0  0
  7  1  1  0  0  0  0
  8  2  1  0  0  0  0
 12 11  3  0  0  0  0
 13 17  1  0  0  0  0
 13 15  1  0  0  0  0
 14 13  1  0  0  0  0
 18  6  1  0  0  0  0
M  END
