Coordinates from ORCA-job Ph-N2-BF4-B3LYPG-6-31G_dp-MTMO-d009-169-n800
 OpenBabel09051907443D

 18 16  0  0  0  0  0  0  0  0999 V2000
   -1.3262   -0.0973    0.4178 C   0  0  0  0  0  0  0  0  0  0  0  0
    0.0234    0.0273    0.7545 C   0  0  0  0  0  0  0  0  0  0  0  0
    0.5839    1.2970    0.7359 C   0  0  0  0  0  0  0  0  0  0  0  0
   -0.1350    2.4361    0.3999 C   0  0  0  0  0  0  0  0  0  0  0  0
   -1.4831    2.2904    0.0673 C   0  0  0  0  0  0  0  0  0  0  0  0
   -2.0800    1.0274    0.0745 C   0  0  0  0  0  0  0  0  0  0  0  0
   -1.7873   -1.0806    0.4252 H   0  0  0  0  0  0  0  0  0  0  0  0
    0.6317   -0.8265    1.0263 H   0  0  0  0  0  0  0  0  0  0  0  0
    0.3568    3.4027    0.4027 H   0  0  0  0  0  0  0  0  0  0  0  0
   -2.0646    3.1677   -0.1993 H   0  0  0  0  0  0  0  0  0  0  0  0
    2.4527    1.3661   -2.0352 N   0  0  0  0  0  0  0  0  0  0  0  0
    2.5000    1.2774   -3.1358 N   0  0  0  0  0  0  0  0  0  0  0  0
    3.7775   -0.1226    1.2955 B   0  0  0  0  0  0  0  0  0  0  0  0
    4.1930    0.0581    0.0562 F   0  0  0  0  0  0  0  0  0  0  0  0
    4.2475    0.6290    2.2708 F   0  0  0  0  0  0  0  0  0  0  0  0
    1.9013    1.4443    1.0627 F   0  0  0  0  0  0  0  0  0  0  0  0
    2.9763   -1.1405    1.5751 F   0  0  0  0  0  0  0  0  0  0  0  0
   -3.1277    0.9200   -0.1878 H   0  0  0  0  0  0  0  0  0  0  0  0
  1  7  1  0  0  0  0
  1  2  2  0  0  0  0
  2  8  1  0  0  0  0
  3  2  1  0  0  0  0
  3 16  1  0  0  0  0
  4  9  1  0  0  0  0
  4  3  2  0  0  0  0
  5  6  2  0  0  0  0
  5  4  1  0  0  0  0
  6  1  1  0  0  0  0
 10  5  1  0  0  0  0
 12 11  3  0  0  0  0
 13 17  1  0  0  0  0
 13 15  1  0  0  0  0
 14 13  1  0  0  0  0
 18  6  1  0  0  0  0
M  END
