Coordinates from ORCA-job Ph-N2-BF4-B3LYPG-6-31G_dp-MTMO-d009-169-n800
 OpenBabel09051907443D

 18 16  0  0  0  0  0  0  0  0999 V2000
   -1.5722   -0.3266    0.5040 C   0  0  0  0  0  0  0  0  0  0  0  0
   -0.2454    0.1083    0.5337 C   0  0  0  0  0  0  0  0  0  0  0  0
   -0.0077    1.4612    0.7347 C   0  0  0  0  0  0  0  0  0  0  0  0
   -1.0245    2.3909    0.9043 C   0  0  0  0  0  0  0  0  0  0  0  0
   -2.3445    1.9361    0.8718 C   0  0  0  0  0  0  0  0  0  0  0  0
   -2.6202    0.5813    0.6720 C   0  0  0  0  0  0  0  0  0  0  0  0
   -1.7837   -1.3801    0.3463 H   0  0  0  0  0  0  0  0  0  0  0  0
    0.5886   -0.5712    0.4033 H   0  0  0  0  0  0  0  0  0  0  0  0
   -0.7784    3.4359    1.0587 H   0  0  0  0  0  0  0  0  0  0  0  0
   -3.1564    2.6449    1.0030 H   0  0  0  0  0  0  0  0  0  0  0  0
    7.1333   -0.1713   -1.4652 N   0  0  0  0  0  0  0  0  0  0  0  0
    6.1020    0.0694   -1.1505 N   0  0  0  0  0  0  0  0  0  0  0  0
    3.4145    0.9496   -0.2000 B   0  0  0  0  0  0  0  0  0  0  0  0
    3.1757    1.5117   -1.3688 F   0  0  0  0  0  0  0  0  0  0  0  0
    4.0951    1.5971    0.7243 F   0  0  0  0  0  0  0  0  0  0  0  0
    1.2827    1.9040    0.7690 F   0  0  0  0  0  0  0  0  0  0  0  0
    3.0300   -0.2995    0.0180 F   0  0  0  0  0  0  0  0  0  0  0  0
   -3.6485    0.2343    0.6473 H   0  0  0  0  0  0  0  0  0  0  0  0
  1  2  2  0  0  0  0
  1  6  1  0  0  0  0
  2  3  1  0  0  0  0
  3 16  1  0  0  0  0
  3  4  2  0  0  0  0
  4  9  1  0  0  0  0
  5  4  1  0  0  0  0
  5 10  1  0  0  0  0
  6  5  2  0  0  0  0
  7  1  1  0  0  0  0
  8  2  1  0  0  0  0
 11 12  3  0  0  0  0
 13 17  1  0  0  0  0
 13 15  1  0  0  0  0
 14 13  1  0  0  0  0
 18  6  1  0  0  0  0
M  END
