Coordinates from ORCA-job Ph-N2-BF4-B3LYPG-6-31G_dp-MTMO-d009-169-n800
 OpenBabel09051907443D

 18 16  0  0  0  0  0  0  0  0999 V2000
   -1.2486   -0.0886    0.2981 C   0  0  0  0  0  0  0  0  0  0  0  0
    0.0865    0.0379    0.6877 C   0  0  0  0  0  0  0  0  0  0  0  0
    0.6325    1.3132    0.7367 C   0  0  0  0  0  0  0  0  0  0  0  0
   -0.0892    2.4566    0.4221 C   0  0  0  0  0  0  0  0  0  0  0  0
   -1.4227    2.3093    0.0357 C   0  0  0  0  0  0  0  0  0  0  0  0
   -2.0038    1.0403   -0.0283 C   0  0  0  0  0  0  0  0  0  0  0  0
   -1.6975   -1.0763    0.2511 H   0  0  0  0  0  0  0  0  0  0  0  0
    0.6951   -0.8189    0.9496 H   0  0  0  0  0  0  0  0  0  0  0  0
    0.3901    3.4277    0.4805 H   0  0  0  0  0  0  0  0  0  0  0  0
   -2.0055    3.1899   -0.2167 H   0  0  0  0  0  0  0  0  0  0  0  0
    2.1511    1.2701   -1.8300 N   0  0  0  0  0  0  0  0  0  0  0  0
    1.9324    1.1317   -2.9046 N   0  0  0  0  0  0  0  0  0  0  0  0
    3.8111   -0.1062    1.3294 B   0  0  0  0  0  0  0  0  0  0  0  0
    4.2090    0.0659    0.0832 F   0  0  0  0  0  0  0  0  0  0  0  0
    4.2967    0.6496    2.2937 F   0  0  0  0  0  0  0  0  0  0  0  0
    1.9326    1.4622    1.1231 F   0  0  0  0  0  0  0  0  0  0  0  0
    3.0106   -1.1201    1.6261 F   0  0  0  0  0  0  0  0  0  0  0  0
   -3.0401    0.9319   -0.3317 H   0  0  0  0  0  0  0  0  0  0  0  0
  1  2  2  0  0  0  0
  2  3  1  0  0  0  0
  2  8  1  0  0  0  0
  3 16  1  0  0  0  0
  4  9  1  0  0  0  0
  4  3  2  0  0  0  0
  5  4  1  0  0  0  0
  6  5  2  0  0  0  0
  6  1  1  0  0  0  0
  7  1  1  0  0  0  0
 10  5  1  0  0  0  0
 12 11  3  0  0  0  0
 13 17  1  0  0  0  0
 13 15  1  0  0  0  0
 14 13  1  0  0  0  0
 18  6  1  0  0  0  0
M  END
