Coordinates from ORCA-job Ph-N2-BF4-B3LYPG-6-31G_dp-MTMO-d009-169-n800
 OpenBabel09051907443D

 18 16  0  0  0  0  0  0  0  0999 V2000
   -1.4974   -0.0902    0.9683 C   0  0  0  0  0  0  0  0  0  0  0  0
   -0.1362    0.0784    1.2313 C   0  0  0  0  0  0  0  0  0  0  0  0
    0.4813    1.2246    0.7509 C   0  0  0  0  0  0  0  0  0  0  0  0
   -0.1876    2.1997    0.0247 C   0  0  0  0  0  0  0  0  0  0  0  0
   -1.5484    2.0128   -0.2265 C   0  0  0  0  0  0  0  0  0  0  0  0
   -2.2040    0.8719    0.2426 C   0  0  0  0  0  0  0  0  0  0  0  0
   -2.0033   -0.9792    1.3325 H   0  0  0  0  0  0  0  0  0  0  0  0
    0.4404   -0.6525    1.7858 H   0  0  0  0  0  0  0  0  0  0  0  0
    0.3502    3.0724   -0.3280 H   0  0  0  0  0  0  0  0  0  0  0  0
   -2.0943    2.7625   -0.7917 H   0  0  0  0  0  0  0  0  0  0  0  0
    3.4260    2.3863   -1.5335 N   0  0  0  0  0  0  0  0  0  0  0  0
    4.1987    2.3724   -2.3235 N   0  0  0  0  0  0  0  0  0  0  0  0
    3.4449   -0.3054    0.7099 B   0  0  0  0  0  0  0  0  0  0  0  0
    3.0435   -0.5349   -0.5275 F   0  0  0  0  0  0  0  0  0  0  0  0
    4.4250    0.5464    0.9413 F   0  0  0  0  0  0  0  0  0  0  0  0
    1.8121    1.4097    1.0060 F   0  0  0  0  0  0  0  0  0  0  0  0
    2.9509   -1.0303    1.7025 F   0  0  0  0  0  0  0  0  0  0  0  0
   -3.2613    0.7317    0.0408 H   0  0  0  0  0  0  0  0  0  0  0  0
  1  2  1  0  0  0  0
  1  7  1  0  0  0  0
  2  8  1  0  0  0  0
  3 16  1  0  0  0  0
  3  2  2  0  0  0  0
  4  3  1  0  0  0  0
  5  4  2  0  0  0  0
  5  6  1  0  0  0  0
  6  1  2  0  0  0  0
  9  4  1  0  0  0  0
 10  5  1  0  0  0  0
 12 11  3  0  0  0  0
 13 15  1  0  0  0  0
 13 17  1  0  0  0  0
 14 13  1  0  0  0  0
 18  6  1  0  0  0  0
M  END
