Coordinates from ORCA-job Ph-N2-BF4-B3LYPG-6-31G_dp-MTMO-d009-169-n800
 OpenBabel09051907443D

 18 16  0  0  0  0  0  0  0  0999 V2000
   -2.0910   -0.2334    0.4774 C   0  0  0  0  0  0  0  0  0  0  0  0
   -0.7720    0.2164    0.5683 C   0  0  0  0  0  0  0  0  0  0  0  0
   -0.5563    1.5053    1.0350 C   0  0  0  0  0  0  0  0  0  0  0  0
   -1.5843    2.3589    1.4094 C   0  0  0  0  0  0  0  0  0  0  0  0
   -2.8961    1.8900    1.3119 C   0  0  0  0  0  0  0  0  0  0  0  0
   -3.1511    0.5976    0.8473 C   0  0  0  0  0  0  0  0  0  0  0  0
   -2.2869   -1.2375    0.1143 H   0  0  0  0  0  0  0  0  0  0  0  0
    0.0700   -0.4033    0.2842 H   0  0  0  0  0  0  0  0  0  0  0  0
   -1.3535    3.3565    1.7660 H   0  0  0  0  0  0  0  0  0  0  0  0
   -3.7174    2.5390    1.5999 H   0  0  0  0  0  0  0  0  0  0  0  0
   12.3407   -1.8451   -1.9529 N   0  0  0  0  0  0  0  0  0  0  0  0
   11.3629   -1.3603   -2.1276 N   0  0  0  0  0  0  0  0  0  0  0  0
    2.4078    1.6304   -0.5370 B   0  0  0  0  0  0  0  0  0  0  0  0
    1.6531    2.1966   -1.4603 F   0  0  0  0  0  0  0  0  0  0  0  0
    3.2715    2.3512    0.1509 F   0  0  0  0  0  0  0  0  0  0  0  0
    0.7290    1.9615    1.1395 F   0  0  0  0  0  0  0  0  0  0  0  0
    2.3872    0.3130   -0.3931 F   0  0  0  0  0  0  0  0  0  0  0  0
   -4.1732    0.2393    0.7729 H   0  0  0  0  0  0  0  0  0  0  0  0
  1  2  2  0  0  0  0
  1  6  1  0  0  0  0
  2  3  1  0  0  0  0
  3 16  1  0  0  0  0
  3  4  2  0  0  0  0
  4  9  1  0  0  0  0
  5  4  1  0  0  0  0
  5 10  1  0  0  0  0
  6  5  2  0  0  0  0
  7  1  1  0  0  0  0
  8  2  1  0  0  0  0
 12 11  3  0  0  0  0
 13 17  1  0  0  0  0
 13 15  1  0  0  0  0
 14 13  1  0  0  0  0
 18  6  1  0  0  0  0
M  END
