Coordinates from ORCA-job Ph-N2-BF4-B3LYPG-6-31G_dp-MTMO-d009-169-n800
 OpenBabel09051907443D

 18 16  0  0  0  0  0  0  0  0999 V2000
   -1.9629   -0.2629    0.4517 C   0  0  0  0  0  0  0  0  0  0  0  0
   -0.6469    0.1940    0.5518 C   0  0  0  0  0  0  0  0  0  0  0  0
   -0.4418    1.4867    1.0130 C   0  0  0  0  0  0  0  0  0  0  0  0
   -1.4773    2.3372    1.3734 C   0  0  0  0  0  0  0  0  0  0  0  0
   -2.7859    1.8611    1.2669 C   0  0  0  0  0  0  0  0  0  0  0  0
   -3.0303    0.5649    0.8074 C   0  0  0  0  0  0  0  0  0  0  0  0
   -2.1504   -1.2700    0.0924 H   0  0  0  0  0  0  0  0  0  0  0  0
    0.2006   -0.4231    0.2790 H   0  0  0  0  0  0  0  0  0  0  0  0
   -1.2547    3.3379    1.7264 H   0  0  0  0  0  0  0  0  0  0  0  0
   -3.6130    2.5075    1.5440 H   0  0  0  0  0  0  0  0  0  0  0  0
   11.3699   -1.6439   -1.7794 N   0  0  0  0  0  0  0  0  0  0  0  0
   10.3958   -1.1585   -1.9720 N   0  0  0  0  0  0  0  0  0  0  0  0
    2.5394    1.6064   -0.5276 B   0  0  0  0  0  0  0  0  0  0  0  0
    1.7893    2.1504   -1.4679 F   0  0  0  0  0  0  0  0  0  0  0  0
    3.3903    2.3460    0.1563 F   0  0  0  0  0  0  0  0  0  0  0  0
    0.8401    1.9500    1.1260 F   0  0  0  0  0  0  0  0  0  0  0  0
    2.5280    0.2916   -0.3613 F   0  0  0  0  0  0  0  0  0  0  0  0
   -4.0499    0.2010    0.7257 H   0  0  0  0  0  0  0  0  0  0  0  0
  1  2  2  0  0  0  0
  1  6  1  0  0  0  0
  2  3  1  0  0  0  0
  3 16  1  0  0  0  0
  3  4  2  0  0  0  0
  4  9  1  0  0  0  0
  5  4  1  0  0  0  0
  5 10  1  0  0  0  0
  6  5  2  0  0  0  0
  7  1  1  0  0  0  0
  8  2  1  0  0  0  0
 12 11  3  0  0  0  0
 13 17  1  0  0  0  0
 13 15  1  0  0  0  0
 14 13  1  0  0  0  0
 18  6  1  0  0  0  0
M  END
