Coordinates from ORCA-job Ph-N2-BF4-B3LYPG-6-31G_dp-MTMO-d009-169-n800
 OpenBabel09051907443D

 18 16  0  0  0  0  0  0  0  0999 V2000
   -1.1934   -0.0803    0.2101 C   0  0  0  0  0  0  0  0  0  0  0  0
    0.1251    0.0437    0.6512 C   0  0  0  0  0  0  0  0  0  0  0  0
    0.6781    1.3166    0.7084 C   0  0  0  0  0  0  0  0  0  0  0  0
   -0.0430    2.4641    0.4037 C   0  0  0  0  0  0  0  0  0  0  0  0
   -1.3600    2.3199   -0.0346 C   0  0  0  0  0  0  0  0  0  0  0  0
   -1.9356    1.0508   -0.1386 C   0  0  0  0  0  0  0  0  0  0  0  0
   -1.6415   -1.0673    0.1437 H   0  0  0  0  0  0  0  0  0  0  0  0
    0.7238   -0.8146    0.9302 H   0  0  0  0  0  0  0  0  0  0  0  0
    0.4305    3.4354    0.4955 H   0  0  0  0  0  0  0  0  0  0  0  0
   -1.9365    3.2031   -0.2919 H   0  0  0  0  0  0  0  0  0  0  0  0
    1.8352    1.1807   -1.4831 N   0  0  0  0  0  0  0  0  0  0  0  0
    1.4506    1.0633   -2.5141 N   0  0  0  0  0  0  0  0  0  0  0  0
    3.8592   -0.0913    1.3046 B   0  0  0  0  0  0  0  0  0  0  0  0
    4.2482    0.1074    0.0598 F   0  0  0  0  0  0  0  0  0  0  0  0
    4.3449    0.6504    2.2800 F   0  0  0  0  0  0  0  0  0  0  0  0
    1.9488    1.4638    1.1771 F   0  0  0  0  0  0  0  0  0  0  0  0
    3.0654   -1.1144    1.5866 F   0  0  0  0  0  0  0  0  0  0  0  0
   -2.9592    0.9448   -0.4827 H   0  0  0  0  0  0  0  0  0  0  0  0
  1  2  2  0  0  0  0
  2  3  1  0  0  0  0
  2  8  1  0  0  0  0
  3 16  1  0  0  0  0
  4  9  1  0  0  0  0
  4  3  2  0  0  0  0
  5  4  1  0  0  0  0
  6  5  2  0  0  0  0
  6  1  1  0  0  0  0
  7  1  1  0  0  0  0
 10  5  1  0  0  0  0
 12 11  3  0  0  0  0
 13 17  1  0  0  0  0
 13 15  1  0  0  0  0
 14 13  1  0  0  0  0
 18  6  1  0  0  0  0
M  END
