Coordinates from ORCA-job Ph-N2-BF4-B3LYPG-6-31G_dp-MTMO-d009-169-n800
 OpenBabel09051907443D

 18 16  0  0  0  0  0  0  0  0999 V2000
   -1.5448   -0.2642    0.8628 C   0  0  0  0  0  0  0  0  0  0  0  0
   -0.2088    0.0219    1.1516 C   0  0  0  0  0  0  0  0  0  0  0  0
    0.2565    1.2997    0.8741 C   0  0  0  0  0  0  0  0  0  0  0  0
   -0.5397    2.2949    0.3253 C   0  0  0  0  0  0  0  0  0  0  0  0
   -1.8733    1.9893    0.0451 C   0  0  0  0  0  0  0  0  0  0  0  0
   -2.3768    0.7137    0.3121 C   0  0  0  0  0  0  0  0  0  0  0  0
   -1.9330   -1.2566    1.0705 H   0  0  0  0  0  0  0  0  0  0  0  0
    0.4618   -0.7165    1.5750 H   0  0  0  0  0  0  0  0  0  0  0  0
   -0.1194    3.2748    0.1281 H   0  0  0  0  0  0  0  0  0  0  0  0
   -2.5168    2.7519   -0.3829 H   0  0  0  0  0  0  0  0  0  0  0  0
    4.9803    2.1383   -2.5362 N   0  0  0  0  0  0  0  0  0  0  0  0
    5.3552    1.2365   -2.0190 N   0  0  0  0  0  0  0  0  0  0  0  0
    3.3653    0.1492    0.5951 B   0  0  0  0  0  0  0  0  0  0  0  0
    2.9313    0.0426   -0.6482 F   0  0  0  0  0  0  0  0  0  0  0  0
    4.2464    1.0773    0.9141 F   0  0  0  0  0  0  0  0  0  0  0  0
    1.5601    1.6011    1.1587 F   0  0  0  0  0  0  0  0  0  0  0  0
    3.0098   -0.7601    1.4902 F   0  0  0  0  0  0  0  0  0  0  0  0
   -3.4136    0.4820    0.0897 H   0  0  0  0  0  0  0  0  0  0  0  0
  1  7  1  0  0  0  0
  1  2  2  0  0  0  0
  2  8  1  0  0  0  0
  3  2  1  0  0  0  0
  3 16  1  0  0  0  0
  4  3  2  0  0  0  0
  5  6  2  0  0  0  0
  5  4  1  0  0  0  0
  6  1  1  0  0  0  0
  9  4  1  0  0  0  0
 10  5  1  0  0  0  0
 11 12  3  0  0  0  0
 13 15  1  0  0  0  0
 13 17  1  0  0  0  0
 14 13  1  0  0  0  0
 18  6  1  0  0  0  0
M  END
