Coordinates from ORCA-job Ph-N2-BF4-B3LYPG-6-31G_dp-MTMO-d009-169-n800
 OpenBabel09051907443D

 18 16  0  0  0  0  0  0  0  0999 V2000
   -1.6863   -0.3086    0.5697 C   0  0  0  0  0  0  0  0  0  0  0  0
   -0.3607    0.1070    0.4260 C   0  0  0  0  0  0  0  0  0  0  0  0
   -0.0837    1.4603    0.5652 C   0  0  0  0  0  0  0  0  0  0  0  0
   -1.0600    2.4086    0.8384 C   0  0  0  0  0  0  0  0  0  0  0  0
   -2.3796    1.9728    0.9784 C   0  0  0  0  0  0  0  0  0  0  0  0
   -2.6944    0.6183    0.8447 C   0  0  0  0  0  0  0  0  0  0  0  0
   -1.9286   -1.3619    0.4639 H   0  0  0  0  0  0  0  0  0  0  0  0
    0.4436   -0.5869    0.2116 H   0  0  0  0  0  0  0  0  0  0  0  0
   -0.7841    3.4527    0.9378 H   0  0  0  0  0  0  0  0  0  0  0  0
   -3.1606    2.6961    1.1925 H   0  0  0  0  0  0  0  0  0  0  0  0
    7.6018    0.1192   -1.3316 N   0  0  0  0  0  0  0  0  0  0  0  0
    6.5389    0.2382   -1.0534 N   0  0  0  0  0  0  0  0  0  0  0  0
    3.4121    0.7841   -0.2502 B   0  0  0  0  0  0  0  0  0  0  0  0
    3.4225    1.4479   -1.3887 F   0  0  0  0  0  0  0  0  0  0  0  0
    3.9890    1.2889    0.8215 F   0  0  0  0  0  0  0  0  0  0  0  0
    1.2059    1.8848    0.4281 F   0  0  0  0  0  0  0  0  0  0  0  0
    2.8864   -0.4316   -0.2038 F   0  0  0  0  0  0  0  0  0  0  0  0
   -3.7219    0.2862    0.9559 H   0  0  0  0  0  0  0  0  0  0  0  0
  1  6  2  0  0  0  0
  2  3  2  0  0  0  0
  2  1  1  0  0  0  0
  3  4  1  0  0  0  0
  4  9  1  0  0  0  0
  4  5  2  0  0  0  0
  5 10  1  0  0  0  0
  6 18  1  0  0  0  0
  6  5  1  0  0  0  0
  7  1  1  0  0  0  0
  8  2  1  0  0  0  0
 11 12  3  0  0  0  0
 13 17  1  0  0  0  0
 13 15  1  0  0  0  0
 14 13  1  0  0  0  0
 16  3  1  0  0  0  0
M  END
