Coordinates from ORCA-job Ph-N2-BF4-B3LYPG-6-31G_dp-MTMO-d009-169-n800
 OpenBabel09051907443D

 18 16  0  0  0  0  0  0  0  0999 V2000
   -2.2367   -0.2102    0.5157 C   0  0  0  0  0  0  0  0  0  0  0  0
   -0.9188    0.2471    0.5813 C   0  0  0  0  0  0  0  0  0  0  0  0
   -0.7008    1.5341    1.0522 C   0  0  0  0  0  0  0  0  0  0  0  0
   -1.7258    2.3791    1.4538 C   0  0  0  0  0  0  0  0  0  0  0  0
   -3.0366    1.9028    1.3810 C   0  0  0  0  0  0  0  0  0  0  0  0
   -3.2937    0.6119    0.9136 C   0  0  0  0  0  0  0  0  0  0  0  0
   -2.4344   -1.2132    0.1504 H   0  0  0  0  0  0  0  0  0  0  0  0
   -0.0791   -0.3649    0.2747 H   0  0  0  0  0  0  0  0  0  0  0  0
   -1.4935    3.3758    1.8119 H   0  0  0  0  0  0  0  0  0  0  0  0
   -3.8555    2.5449    1.6903 H   0  0  0  0  0  0  0  0  0  0  0  0
   13.5275   -2.1398   -2.1400 N   0  0  0  0  0  0  0  0  0  0  0  0
   12.5490   -1.6551   -2.3116 N   0  0  0  0  0  0  0  0  0  0  0  0
    2.2455    1.7115   -0.5667 B   0  0  0  0  0  0  0  0  0  0  0  0
    1.4966    2.3335   -1.4581 F   0  0  0  0  0  0  0  0  0  0  0  0
    3.1239    2.3847    0.1504 F   0  0  0  0  0  0  0  0  0  0  0  0
    0.5836    1.9969    1.1333 F   0  0  0  0  0  0  0  0  0  0  0  0
    2.2041    0.3892   -0.4856 F   0  0  0  0  0  0  0  0  0  0  0  0
   -4.3149    0.2477    0.8591 H   0  0  0  0  0  0  0  0  0  0  0  0
  1  2  2  0  0  0  0
  1  6  1  0  0  0  0
  2  3  1  0  0  0  0
  3 16  1  0  0  0  0
  3  4  2  0  0  0  0
  4  9  1  0  0  0  0
  5  4  1  0  0  0  0
  5 10  1  0  0  0  0
  6  5  2  0  0  0  0
  7  1  1  0  0  0  0
  8  2  1  0  0  0  0
 12 11  3  0  0  0  0
 13 17  1  0  0  0  0
 13 15  1  0  0  0  0
 14 13  1  0  0  0  0
 18  6  1  0  0  0  0
M  END
