Coordinates from ORCA-job Ph-N2-BF4-B3LYPG-6-31G_dp-MTMO-d009-169-n800
 OpenBabel09051907443D

 18 17  0  0  0  0  0  0  0  0999 V2000
   -0.9324   -0.0830    0.4237 C   0  0  0  0  0  0  0  0  0  0  0  0
    0.3537    0.0986   -0.0608 C   0  0  0  0  0  0  0  0  0  0  0  0
    0.7210    1.3929   -0.5334 C   0  0  0  0  0  0  0  0  0  0  0  0
   -0.2082    2.4780   -0.4981 C   0  0  0  0  0  0  0  0  0  0  0  0
   -1.4755    2.2569   -0.0036 C   0  0  0  0  0  0  0  0  0  0  0  0
   -1.8378    0.9784    0.4555 C   0  0  0  0  0  0  0  0  0  0  0  0
   -1.2162   -1.0590    0.8008 H   0  0  0  0  0  0  0  0  0  0  0  0
    1.1087   -0.6777   -0.0663 H   0  0  0  0  0  0  0  0  0  0  0  0
    0.1067    3.4535   -0.8527 H   0  0  0  0  0  0  0  0  0  0  0  0
   -2.1874    3.0742    0.0342 H   0  0  0  0  0  0  0  0  0  0  0  0
    1.8183    1.5840   -0.9810 N   0  0  0  0  0  0  0  0  0  0  0  0
    2.8325    1.7706   -1.4195 N   0  0  0  0  0  0  0  0  0  0  0  0
    3.1062   -0.0089    1.4071 B   0  0  0  0  0  0  0  0  0  0  0  0
    3.1466   -0.4659    0.0389 F   0  0  0  0  0  0  0  0  0  0  0  0
    4.2795   -0.3013    2.0523 F   0  0  0  0  0  0  0  0  0  0  0  0
    2.8703    1.3909    1.3510 F   0  0  0  0  0  0  0  0  0  0  0  0
    1.9916   -0.6256    2.0099 F   0  0  0  0  0  0  0  0  0  0  0  0
   -2.8373    0.8192    0.8480 H   0  0  0  0  0  0  0  0  0  0  0  0
  1  6  1  0  0  0  0
  1  7  1  0  0  0  0
  2  1  2  0  0  0  0
  3  4  2  0  0  0  0
  3  2  1  0  0  0  0
  4  5  1  0  0  0  0
  5 10  1  0  0  0  0
  5  6  2  0  0  0  0
  6 18  1  0  0  0  0
  8  2  1  0  0  0  0
  9  4  1  0  0  0  0
 11  3  1  0  0  0  0
 12 11  1  0  0  0  0
 13 17  1  0  0  0  0
 13 15  1  0  0  0  0
 14 13  1  0  0  0  0
 16 13  1  0  0  0  0
M  RAD  2  11   2  12   3
M  END
