Coordinates from ORCA-job Ph-N2-BF4-B3LYPG-6-31G_dp-MTMO-d009-169-n800
 OpenBabel09051907443D

 18 16  0  0  0  0  0  0  0  0999 V2000
   -1.6894   -0.3085    0.5705 C   0  0  0  0  0  0  0  0  0  0  0  0
   -0.3637    0.1063    0.4265 C   0  0  0  0  0  0  0  0  0  0  0  0
   -0.0856    1.4595    0.5654 C   0  0  0  0  0  0  0  0  0  0  0  0
   -1.0616    2.4082    0.8386 C   0  0  0  0  0  0  0  0  0  0  0  0
   -2.3814    1.9733    0.9790 C   0  0  0  0  0  0  0  0  0  0  0  0
   -2.6970    0.6190    0.8456 C   0  0  0  0  0  0  0  0  0  0  0  0
   -1.9322   -1.3616    0.4649 H   0  0  0  0  0  0  0  0  0  0  0  0
    0.4400   -0.5883    0.2120 H   0  0  0  0  0  0  0  0  0  0  0  0
   -0.7850    3.4522    0.9378 H   0  0  0  0  0  0  0  0  0  0  0  0
   -3.1618    2.6973    1.1931 H   0  0  0  0  0  0  0  0  0  0  0  0
    7.6201    0.1190   -1.3348 N   0  0  0  0  0  0  0  0  0  0  0  0
    6.5569    0.2372   -1.0571 N   0  0  0  0  0  0  0  0  0  0  0  0
    3.4099    0.7847   -0.2500 B   0  0  0  0  0  0  0  0  0  0  0  0
    3.4209    1.4487   -1.3884 F   0  0  0  0  0  0  0  0  0  0  0  0
    3.9868    1.2893    0.8218 F   0  0  0  0  0  0  0  0  0  0  0  0
    1.2042    1.8833    0.4278 F   0  0  0  0  0  0  0  0  0  0  0  0
    2.8841   -0.4309   -0.2039 F   0  0  0  0  0  0  0  0  0  0  0  0
   -3.7246    0.2874    0.9570 H   0  0  0  0  0  0  0  0  0  0  0  0
  1  6  2  0  0  0  0
  2  3  2  0  0  0  0
  2  1  1  0  0  0  0
  3  4  1  0  0  0  0
  4  9  1  0  0  0  0
  4  5  2  0  0  0  0
  5 10  1  0  0  0  0
  6 18  1  0  0  0  0
  6  5  1  0  0  0  0
  7  1  1  0  0  0  0
  8  2  1  0  0  0  0
 11 12  3  0  0  0  0
 13 17  1  0  0  0  0
 13 15  1  0  0  0  0
 14 13  1  0  0  0  0
 16  3  1  0  0  0  0
M  END
