Coordinates from ORCA-job Ph-N2-BF4-B3LYPG-6-31G_dp-MTMO-d009-169-n800
 OpenBabel09051907443D

 18 16  0  0  0  0  0  0  0  0999 V2000
   -1.5544   -0.2055    0.9448 C   0  0  0  0  0  0  0  0  0  0  0  0
   -0.2010    0.0386    1.1876 C   0  0  0  0  0  0  0  0  0  0  0  0
    0.3176    1.2658    0.7990 C   0  0  0  0  0  0  0  0  0  0  0  0
   -0.4426    2.2504    0.1838 C   0  0  0  0  0  0  0  0  0  0  0  0
   -1.7941    1.9873   -0.0490 C   0  0  0  0  0  0  0  0  0  0  0  0
   -2.3509    0.7632    0.3293 C   0  0  0  0  0  0  0  0  0  0  0  0
   -1.9837   -1.1584    1.2387 H   0  0  0  0  0  0  0  0  0  0  0  0
    0.4425   -0.6950    1.6586 H   0  0  0  0  0  0  0  0  0  0  0  0
    0.0186    3.1900   -0.0992 H   0  0  0  0  0  0  0  0  0  0  0  0
   -2.4099    2.7429   -0.5275 H   0  0  0  0  0  0  0  0  0  0  0  0
    4.5544    2.4823   -2.2603 N   0  0  0  0  0  0  0  0  0  0  0  0
    5.1457    1.5752   -2.0394 N   0  0  0  0  0  0  0  0  0  0  0  0
    3.3924   -0.0397    0.6203 B   0  0  0  0  0  0  0  0  0  0  0  0
    2.9988   -0.2059   -0.6295 F   0  0  0  0  0  0  0  0  0  0  0  0
    4.3048    0.8665    0.9138 F   0  0  0  0  0  0  0  0  0  0  0  0
    1.6396    1.5268    1.0348 F   0  0  0  0  0  0  0  0  0  0  0  0
    2.9641   -0.8725    1.5572 F   0  0  0  0  0  0  0  0  0  0  0  0
   -3.4015    0.5639    0.1428 H   0  0  0  0  0  0  0  0  0  0  0  0
  1  2  1  0  0  0  0
  1  7  1  0  0  0  0
  2  8  1  0  0  0  0
  3 16  1  0  0  0  0
  3  2  2  0  0  0  0
  4  3  1  0  0  0  0
  5  4  2  0  0  0  0
  5  6  1  0  0  0  0
  6  1  2  0  0  0  0
  9  4  1  0  0  0  0
 10  5  1  0  0  0  0
 11 12  3  0  0  0  0
 13 15  1  0  0  0  0
 13 17  1  0  0  0  0
 14 13  1  0  0  0  0
 18  6  1  0  0  0  0
M  END
