Coordinates from ORCA-job Ph-N2-BF4-B3LYPG-6-31G_dp-MTMO-d009-169-n800
 OpenBabel09051907443D

 18 16  0  0  0  0  0  0  0  0999 V2000
   -1.6953   -0.3200    0.4232 C   0  0  0  0  0  0  0  0  0  0  0  0
   -0.4088    0.1405    0.7117 C   0  0  0  0  0  0  0  0  0  0  0  0
   -0.2545    1.4840    1.0235 C   0  0  0  0  0  0  0  0  0  0  0  0
   -1.3128    2.3807    1.0605 C   0  0  0  0  0  0  0  0  0  0  0  0
   -2.5916    1.9001    0.7706 C   0  0  0  0  0  0  0  0  0  0  0  0
   -2.7847    0.5539    0.4518 C   0  0  0  0  0  0  0  0  0  0  0  0
   -1.8422   -1.3663    0.1733 H   0  0  0  0  0  0  0  0  0  0  0  0
    0.4555   -0.5126    0.6955 H   0  0  0  0  0  0  0  0  0  0  0  0
   -1.1307    3.4196    1.3127 H   0  0  0  0  0  0  0  0  0  0  0  0
   -3.4362    2.5820    0.7939 H   0  0  0  0  0  0  0  0  0  0  0  0
    9.1430   -0.8668   -2.5112 N   0  0  0  0  0  0  0  0  0  0  0  0
    8.1699   -0.6228   -2.0472 N   0  0  0  0  0  0  0  0  0  0  0  0
    3.0025    1.3027    0.1667 B   0  0  0  0  0  0  0  0  0  0  0  0
    2.5046    1.6619   -1.0019 F   0  0  0  0  0  0  0  0  0  0  0  0
    3.7117    2.1561    0.8789 F   0  0  0  0  0  0  0  0  0  0  0  0
    0.9964    1.9530    1.3153 F   0  0  0  0  0  0  0  0  0  0  0  0
    2.8944    0.0428    0.5635 F   0  0  0  0  0  0  0  0  0  0  0  0
   -3.7808    0.1872    0.2251 H   0  0  0  0  0  0  0  0  0  0  0  0
  1  6  2  0  0  0  0
  1  2  1  0  0  0  0
  2  3  2  0  0  0  0
  3  4  1  0  0  0  0
  3 16  1  0  0  0  0
  4  9  1  0  0  0  0
  5 10  1  0  0  0  0
  5  4  2  0  0  0  0
  6  5  1  0  0  0  0
  7  1  1  0  0  0  0
  8  2  1  0  0  0  0
 11 12  3  0  0  0  0
 13 17  1  0  0  0  0
 13 15  1  0  0  0  0
 14 13  1  0  0  0  0
 18  6  1  0  0  0  0
M  END
