Coordinates from ORCA-job Ph-N2-BF4-B3LYPG-6-31G_dp-MTMO-d009-169-n800
 OpenBabel09051907443D

 18 16  0  0  0  0  0  0  0  0999 V2000
   -1.1833   -0.0803    0.1961 C   0  0  0  0  0  0  0  0  0  0  0  0
    0.1353    0.0431    0.6353 C   0  0  0  0  0  0  0  0  0  0  0  0
    0.6949    1.3147    0.6758 C   0  0  0  0  0  0  0  0  0  0  0  0
   -0.0324    2.4638    0.3890 C   0  0  0  0  0  0  0  0  0  0  0  0
   -1.3496    2.3202   -0.0476 C   0  0  0  0  0  0  0  0  0  0  0  0
   -1.9249    1.0510   -0.1545 C   0  0  0  0  0  0  0  0  0  0  0  0
   -1.6336   -1.0667    0.1351 H   0  0  0  0  0  0  0  0  0  0  0  0
    0.7332   -0.8152    0.9162 H   0  0  0  0  0  0  0  0  0  0  0  0
    0.4409    3.4350    0.4833 H   0  0  0  0  0  0  0  0  0  0  0  0
   -1.9278    3.2042   -0.2986 H   0  0  0  0  0  0  0  0  0  0  0  0
    1.7711    1.1809   -1.3998 N   0  0  0  0  0  0  0  0  0  0  0  0
    1.3692    1.0655   -2.4253 N   0  0  0  0  0  0  0  0  0  0  0  0
    3.8642   -0.0914    1.3053 B   0  0  0  0  0  0  0  0  0  0  0  0
    4.2548    0.1055    0.0606 F   0  0  0  0  0  0  0  0  0  0  0  0
    4.3487    0.6512    2.2803 F   0  0  0  0  0  0  0  0  0  0  0  0
    1.9582    1.4633    1.1650 F   0  0  0  0  0  0  0  0  0  0  0  0
    3.0702   -1.1144    1.5873 F   0  0  0  0  0  0  0  0  0  0  0  0
   -2.9488    0.9454   -0.4977 H   0  0  0  0  0  0  0  0  0  0  0  0
  1  2  2  0  0  0  0
  2  3  1  0  0  0  0
  2  8  1  0  0  0  0
  3 16  1  0  0  0  0
  4  9  1  0  0  0  0
  4  3  2  0  0  0  0
  5  4  1  0  0  0  0
  6  5  2  0  0  0  0
  6  1  1  0  0  0  0
  7  1  1  0  0  0  0
 10  5  1  0  0  0  0
 12 11  3  0  0  0  0
 13 17  1  0  0  0  0
 13 15  1  0  0  0  0
 14 13  1  0  0  0  0
 18  6  1  0  0  0  0
M  END
