Coordinates from ORCA-job Ph-N2-BF4-B3LYPG-6-31G_dp-MTMO-d009-169-n800
 OpenBabel09051907443D

 18 16  0  0  0  0  0  0  0  0999 V2000
   -2.0873   -0.2344    0.4763 C   0  0  0  0  0  0  0  0  0  0  0  0
   -0.7678    0.2140    0.5663 C   0  0  0  0  0  0  0  0  0  0  0  0
   -0.5503    1.5029    1.0325 C   0  0  0  0  0  0  0  0  0  0  0  0
   -1.5772    2.3577    1.4071 C   0  0  0  0  0  0  0  0  0  0  0  0
   -2.8896    1.8902    1.3106 C   0  0  0  0  0  0  0  0  0  0  0  0
   -3.1463    0.5980    0.8466 C   0  0  0  0  0  0  0  0  0  0  0  0
   -2.2846   -1.2384    0.1137 H   0  0  0  0  0  0  0  0  0  0  0  0
    0.0736   -0.4064    0.2821 H   0  0  0  0  0  0  0  0  0  0  0  0
   -1.3453    3.3553    1.7632 H   0  0  0  0  0  0  0  0  0  0  0  0
   -3.7101    2.5401    1.5987 H   0  0  0  0  0  0  0  0  0  0  0  0
   12.2905   -1.8298   -1.9433 N   0  0  0  0  0  0  0  0  0  0  0  0
   11.3126   -1.3451   -2.1176 N   0  0  0  0  0  0  0  0  0  0  0  0
    2.4168    1.6260   -0.5370 B   0  0  0  0  0  0  0  0  0  0  0  0
    1.6624    2.1916   -1.4609 F   0  0  0  0  0  0  0  0  0  0  0  0
    3.2799    2.3474    0.1510 F   0  0  0  0  0  0  0  0  0  0  0  0
    0.7354    1.9576    1.1359 F   0  0  0  0  0  0  0  0  0  0  0  0
    2.3964    0.3086   -0.3923 F   0  0  0  0  0  0  0  0  0  0  0  0
   -4.1688    0.2407    0.7729 H   0  0  0  0  0  0  0  0  0  0  0  0
  1  2  2  0  0  0  0
  1  6  1  0  0  0  0
  2  3  1  0  0  0  0
  3 16  1  0  0  0  0
  3  4  2  0  0  0  0
  4  9  1  0  0  0  0
  5  4  1  0  0  0  0
  5 10  1  0  0  0  0
  6  5  2  0  0  0  0
  7  1  1  0  0  0  0
  8  2  1  0  0  0  0
 12 11  3  0  0  0  0
 13 17  1  0  0  0  0
 13 15  1  0  0  0  0
 14 13  1  0  0  0  0
 18  6  1  0  0  0  0
M  END
