Coordinates from ORCA-job Ph-N2-BF4-B3LYPG-6-31G_dp-MTMO-d009-169-n800
 OpenBabel09051907443D

 18 16  0  0  0  0  0  0  0  0999 V2000
   -1.3534   -0.3611    0.4011 C   0  0  0  0  0  0  0  0  0  0  0  0
   -0.0747    0.0596    0.7725 C   0  0  0  0  0  0  0  0  0  0  0  0
    0.1178    1.4105    1.0263 C   0  0  0  0  0  0  0  0  0  0  0  0
   -0.8967    2.3520    0.9257 C   0  0  0  0  0  0  0  0  0  0  0  0
   -2.1687    1.9113    0.5540 C   0  0  0  0  0  0  0  0  0  0  0  0
   -2.3988    0.5589    0.2916 C   0  0  0  0  0  0  0  0  0  0  0  0
   -1.5290   -1.4127    0.1946 H   0  0  0  0  0  0  0  0  0  0  0  0
    0.7574   -0.6288    0.8616 H   0  0  0  0  0  0  0  0  0  0  0  0
   -0.6869    3.3949    1.1371 H   0  0  0  0  0  0  0  0  0  0  0  0
   -2.9788    2.6293    0.4687 H   0  0  0  0  0  0  0  0  0  0  0  0
    5.9768   -0.4833   -2.2346 N   0  0  0  0  0  0  0  0  0  0  0  0
    5.4238    0.0931   -1.4719 N   0  0  0  0  0  0  0  0  0  0  0  0
    3.3543    1.1324    0.1807 B   0  0  0  0  0  0  0  0  0  0  0  0
    2.7813    1.4734   -0.9591 F   0  0  0  0  0  0  0  0  0  0  0  0
    4.1091    1.9951    0.8320 F   0  0  0  0  0  0  0  0  0  0  0  0
    1.3602    1.8386    1.3983 F   0  0  0  0  0  0  0  0  0  0  0  0
    3.2359   -0.1101    0.6263 F   0  0  0  0  0  0  0  0  0  0  0  0
   -3.3893    0.2230    0.0010 H   0  0  0  0  0  0  0  0  0  0  0  0
  1  2  1  0  0  0  0
  2  8  1  0  0  0  0
  2  3  2  0  0  0  0
  3 16  1  0  0  0  0
  4  3  1  0  0  0  0
  4  9  1  0  0  0  0
  5  4  2  0  0  0  0
  6  1  2  0  0  0  0
  6  5  1  0  0  0  0
  7  1  1  0  0  0  0
 10  5  1  0  0  0  0
 11 12  3  0  0  0  0
 13 17  1  0  0  0  0
 13 15  1  0  0  0  0
 14 13  1  0  0  0  0
 18  6  1  0  0  0  0
M  END
