Coordinates from ORCA-job Ph-N2-BF4-B3LYPG-6-31G_dp-MTMO-d009-169-n800
 OpenBabel09051907443D

 18 16  0  0  0  0  0  0  0  0999 V2000
   -2.1045   -0.2308    0.4801 C   0  0  0  0  0  0  0  0  0  0  0  0
   -0.7849    0.2175    0.5690 C   0  0  0  0  0  0  0  0  0  0  0  0
   -0.5669    1.5061    1.0356 C   0  0  0  0  0  0  0  0  0  0  0  0
   -1.5934    2.3608    1.4118 C   0  0  0  0  0  0  0  0  0  0  0  0
   -2.9059    1.8933    1.3163 C   0  0  0  0  0  0  0  0  0  0  0  0
   -3.1631    0.6013    0.8520 C   0  0  0  0  0  0  0  0  0  0  0  0
   -2.3022   -1.2347    0.1172 H   0  0  0  0  0  0  0  0  0  0  0  0
    0.0562   -0.4027    0.2835 H   0  0  0  0  0  0  0  0  0  0  0  0
   -1.3611    3.3581    1.7681 H   0  0  0  0  0  0  0  0  0  0  0  0
   -3.7261    2.5431    1.6057 H   0  0  0  0  0  0  0  0  0  0  0  0
   12.4281   -1.8609   -1.9684 N   0  0  0  0  0  0  0  0  0  0  0  0
   11.4496   -1.3769   -2.1415 N   0  0  0  0  0  0  0  0  0  0  0  0
    2.3983    1.6318   -0.5373 B   0  0  0  0  0  0  0  0  0  0  0  0
    1.6436    2.2004   -1.4591 F   0  0  0  0  0  0  0  0  0  0  0  0
    3.2627    2.3507    0.1518 F   0  0  0  0  0  0  0  0  0  0  0  0
    0.7190    1.9607    1.1380 F   0  0  0  0  0  0  0  0  0  0  0  0
    2.3770    0.3141   -0.3961 F   0  0  0  0  0  0  0  0  0  0  0  0
   -4.1857    0.2441    0.7792 H   0  0  0  0  0  0  0  0  0  0  0  0
  1  2  2  0  0  0  0
  1  6  1  0  0  0  0
  2  3  1  0  0  0  0
  3 16  1  0  0  0  0
  3  4  2  0  0  0  0
  4  9  1  0  0  0  0
  5  4  1  0  0  0  0
  5 10  1  0  0  0  0
  6  5  2  0  0  0  0
  7  1  1  0  0  0  0
  8  2  1  0  0  0  0
 12 11  3  0  0  0  0
 13 17  1  0  0  0  0
 13 15  1  0  0  0  0
 14 13  1  0  0  0  0
 18  6  1  0  0  0  0
M  END
