Coordinates from ORCA-job Ph-N2-BF4-B3LYPG-6-31G_dp-MTMO-d009-169-n800
 OpenBabel09051907443D

 18 16  0  0  0  0  0  0  0  0999 V2000
   -2.2799   -0.2018    0.5252 C   0  0  0  0  0  0  0  0  0  0  0  0
   -0.9622    0.2573    0.5834 C   0  0  0  0  0  0  0  0  0  0  0  0
   -0.7430    1.5433    1.0568 C   0  0  0  0  0  0  0  0  0  0  0  0
   -1.7664    2.3855    1.4678 C   0  0  0  0  0  0  0  0  0  0  0  0
   -3.0770    1.9075    1.4023 C   0  0  0  0  0  0  0  0  0  0  0  0
   -3.3353    0.6176    0.9328 C   0  0  0  0  0  0  0  0  0  0  0  0
   -2.4786   -1.2039    0.1584 H   0  0  0  0  0  0  0  0  0  0  0  0
   -0.1237   -0.3525    0.2692 H   0  0  0  0  0  0  0  0  0  0  0  0
   -1.5333    3.3815    1.8272 H   0  0  0  0  0  0  0  0  0  0  0  0
   -3.8948    2.5474    1.7191 H   0  0  0  0  0  0  0  0  0  0  0  0
   13.8721   -2.2220   -2.1927 N   0  0  0  0  0  0  0  0  0  0  0  0
   12.8934   -1.7385   -2.3658 N   0  0  0  0  0  0  0  0  0  0  0  0
    2.1990    1.7304   -0.5748 B   0  0  0  0  0  0  0  0  0  0  0  0
    1.4525    2.3648   -1.4593 F   0  0  0  0  0  0  0  0  0  0  0  0
    3.0812    2.3921    0.1483 F   0  0  0  0  0  0  0  0  0  0  0  0
    0.5413    2.0078    1.1307 F   0  0  0  0  0  0  0  0  0  0  0  0
    2.1514    0.4075   -0.5069 F   0  0  0  0  0  0  0  0  0  0  0  0
   -4.3564    0.2519    0.8842 H   0  0  0  0  0  0  0  0  0  0  0  0
  1  2  2  0  0  0  0
  1  6  1  0  0  0  0
  2  3  1  0  0  0  0
  3 16  1  0  0  0  0
  3  4  2  0  0  0  0
  4  9  1  0  0  0  0
  5  4  1  0  0  0  0
  5 10  1  0  0  0  0
  6  5  2  0  0  0  0
  7  1  1  0  0  0  0
  8  2  1  0  0  0  0
 12 11  3  0  0  0  0
 13 17  1  0  0  0  0
 13 15  1  0  0  0  0
 14 13  1  0  0  0  0
 18  6  1  0  0  0  0
M  END
