Coordinates from ORCA-job Ph-N2-BF4-B3LYPG-6-31G_dp-MTMO-d009-169-n800
 OpenBabel09051907443D

 18 16  0  0  0  0  0  0  0  0999 V2000
   -2.1943   -0.2163    0.5043 C   0  0  0  0  0  0  0  0  0  0  0  0
   -0.8763    0.2391    0.5813 C   0  0  0  0  0  0  0  0  0  0  0  0
   -0.6609    1.5272    1.0504 C   0  0  0  0  0  0  0  0  0  0  0  0
   -1.6883    2.3748    1.4398 C   0  0  0  0  0  0  0  0  0  0  0  0
   -2.9991    1.9004    1.3559 C   0  0  0  0  0  0  0  0  0  0  0  0
   -3.2537    0.6086    0.8897 C   0  0  0  0  0  0  0  0  0  0  0  0
   -2.3899   -1.2200    0.1399 H   0  0  0  0  0  0  0  0  0  0  0  0
   -0.0350   -0.3756    0.2847 H   0  0  0  0  0  0  0  0  0  0  0  0
   -1.4577    3.3722    1.7973 H   0  0  0  0  0  0  0  0  0  0  0  0
   -3.8198    2.5447    1.6557 H   0  0  0  0  0  0  0  0  0  0  0  0
   13.1983   -2.0579   -2.0964 N   0  0  0  0  0  0  0  0  0  0  0  0
   12.2196   -1.5737   -2.2675 N   0  0  0  0  0  0  0  0  0  0  0  0
    2.2902    1.6867   -0.5512 B   0  0  0  0  0  0  0  0  0  0  0  0
    1.5379    2.2870   -1.4547 F   0  0  0  0  0  0  0  0  0  0  0  0
    3.1630    2.3789    0.1544 F   0  0  0  0  0  0  0  0  0  0  0  0
    0.6235    1.9885    1.1422 F   0  0  0  0  0  0  0  0  0  0  0  0
    2.2579    0.3658   -0.4461 F   0  0  0  0  0  0  0  0  0  0  0  0
   -4.2749    0.2458    0.8262 H   0  0  0  0  0  0  0  0  0  0  0  0
  1  2  2  0  0  0  0
  1  6  1  0  0  0  0
  2  3  1  0  0  0  0
  3 16  1  0  0  0  0
  3  4  2  0  0  0  0
  4  9  1  0  0  0  0
  5  4  1  0  0  0  0
  5 10  1  0  0  0  0
  6  5  2  0  0  0  0
  7  1  1  0  0  0  0
  8  2  1  0  0  0  0
 12 11  3  0  0  0  0
 13 17  1  0  0  0  0
 13 15  1  0  0  0  0
 14 13  1  0  0  0  0
 18  6  1  0  0  0  0
M  END
