Coordinates from ORCA-job Ph-N2-BF4-B3LYPG-6-31G_dp-MTMO-d009-169-n800
 OpenBabel09051907443D

 18 16  0  0  0  0  0  0  0  0999 V2000
   -1.7894   -0.3000    0.4192 C   0  0  0  0  0  0  0  0  0  0  0  0
   -0.4717    0.1461    0.5410 C   0  0  0  0  0  0  0  0  0  0  0  0
   -0.2640    1.4451    0.9831 C   0  0  0  0  0  0  0  0  0  0  0  0
   -1.2990    2.3119    1.3042 C   0  0  0  0  0  0  0  0  0  0  0  0
   -2.6095    1.8463    1.1767 C   0  0  0  0  0  0  0  0  0  0  0  0
   -2.8563    0.5443    0.7353 C   0  0  0  0  0  0  0  0  0  0  0  0
   -1.9789   -1.3117    0.0739 H   0  0  0  0  0  0  0  0  0  0  0  0
    0.3760   -0.4836    0.2989 H   0  0  0  0  0  0  0  0  0  0  0  0
   -1.0746    3.3168    1.6442 H   0  0  0  0  0  0  0  0  0  0  0  0
   -3.4362    2.5055    1.4231 H   0  0  0  0  0  0  0  0  0  0  0  0
    9.8785   -1.2641   -1.5200 N   0  0  0  0  0  0  0  0  0  0  0  0
    8.9255   -0.7652   -1.7743 N   0  0  0  0  0  0  0  0  0  0  0  0
    2.7518    1.5079   -0.4913 B   0  0  0  0  0  0  0  0  0  0  0  0
    2.0213    2.0288   -1.4597 F   0  0  0  0  0  0  0  0  0  0  0  0
    3.5910    2.2632    0.1897 F   0  0  0  0  0  0  0  0  0  0  0  0
    1.0195    1.8979    1.1164 F   0  0  0  0  0  0  0  0  0  0  0  0
    2.7336    0.1978   -0.2914 F   0  0  0  0  0  0  0  0  0  0  0  0
   -3.8773    0.1889    0.6368 H   0  0  0  0  0  0  0  0  0  0  0  0
  1  2  2  0  0  0  0
  1  6  1  0  0  0  0
  2  3  1  0  0  0  0
  3 16  1  0  0  0  0
  3  4  2  0  0  0  0
  4  9  1  0  0  0  0
  5  4  1  0  0  0  0
  5 10  1  0  0  0  0
  6  5  2  0  0  0  0
  7  1  1  0  0  0  0
  8  2  1  0  0  0  0
 12 11  3  0  0  0  0
 13 17  1  0  0  0  0
 13 15  1  0  0  0  0
 14 13  1  0  0  0  0
 18  6  1  0  0  0  0
M  END
