Coordinates from ORCA-job Ph-N2-BF4-B3LYPG-6-31G_dp-MTMO-d009-169-n800
 OpenBabel09051907443D

 18 16  0  0  0  0  0  0  0  0999 V2000
   -1.5789   -0.1089    1.0795 C   0  0  0  0  0  0  0  0  0  0  0  0
   -0.2016    0.0770    1.2187 C   0  0  0  0  0  0  0  0  0  0  0  0
    0.3589    1.2190    0.6642 C   0  0  0  0  0  0  0  0  0  0  0  0
   -0.3826    2.1736   -0.0178 C   0  0  0  0  0  0  0  0  0  0  0  0
   -1.7582    1.9695   -0.1453 C   0  0  0  0  0  0  0  0  0  0  0  0
   -2.3572    0.8318    0.4009 C   0  0  0  0  0  0  0  0  0  0  0  0
   -2.0412   -0.9953    1.5032 H   0  0  0  0  0  0  0  0  0  0  0  0
    0.4284   -0.6380    1.7340 H   0  0  0  0  0  0  0  0  0  0  0  0
    0.1122    3.0454   -0.4312 H   0  0  0  0  0  0  0  0  0  0  0  0
   -2.3596    2.7031   -0.6740 H   0  0  0  0  0  0  0  0  0  0  0  0
    4.2038    2.4085   -1.6138 N   0  0  0  0  0  0  0  0  0  0  0  0
    5.1315    2.3231   -2.2082 N   0  0  0  0  0  0  0  0  0  0  0  0
    3.4290   -0.2343    0.6024 B   0  0  0  0  0  0  0  0  0  0  0  0
    3.1507   -0.4457   -0.6704 F   0  0  0  0  0  0  0  0  0  0  0  0
    4.3490    0.6477    0.9430 F   0  0  0  0  0  0  0  0  0  0  0  0
    1.7049    1.4242    0.7939 F   0  0  0  0  0  0  0  0  0  0  0  0
    2.8781   -1.0026    1.5308 F   0  0  0  0  0  0  0  0  0  0  0  0
   -3.4268    0.6779    0.2959 H   0  0  0  0  0  0  0  0  0  0  0  0
  1  2  1  0  0  0  0
  1  7  1  0  0  0  0
  2  8  1  0  0  0  0
  3 16  1  0  0  0  0
  3  2  2  0  0  0  0
  4  3  1  0  0  0  0
  5  4  2  0  0  0  0
  5  6  1  0  0  0  0
  6  1  2  0  0  0  0
  9  4  1  0  0  0  0
 10  5  1  0  0  0  0
 12 11  3  0  0  0  0
 13 15  1  0  0  0  0
 13 17  1  0  0  0  0
 14 13  1  0  0  0  0
 18  6  1  0  0  0  0
M  END
