Coordinates from ORCA-job Ph-N2-BF4-B3LYPG-6-31G_dp-MTMO-d009-169-n800
 OpenBabel09051907443D

 18 16  0  0  0  0  0  0  0  0999 V2000
   -2.0528   -0.2417    0.4689 C   0  0  0  0  0  0  0  0  0  0  0  0
   -0.7335    0.2070    0.5613 C   0  0  0  0  0  0  0  0  0  0  0  0
   -0.5171    1.4965    1.0260 C   0  0  0  0  0  0  0  0  0  0  0  0
   -1.5452    2.3516    1.3971 C   0  0  0  0  0  0  0  0  0  0  0  0
   -2.8573    1.8838    1.2983 C   0  0  0  0  0  0  0  0  0  0  0  0
   -3.1128    0.5909    0.8356 C   0  0  0  0  0  0  0  0  0  0  0  0
   -2.2490   -1.2463    0.1072 H   0  0  0  0  0  0  0  0  0  0  0  0
    0.1084   -0.4140    0.2798 H   0  0  0  0  0  0  0  0  0  0  0  0
   -1.3141    3.3496    1.7523 H   0  0  0  0  0  0  0  0  0  0  0  0
   -3.6784    2.5341    1.5838 H   0  0  0  0  0  0  0  0  0  0  0  0
   12.0153   -1.7675   -1.8935 N   0  0  0  0  0  0  0  0  0  0  0  0
   11.0378   -1.2834   -2.0714 N   0  0  0  0  0  0  0  0  0  0  0  0
    2.4542    1.6153   -0.5351 B   0  0  0  0  0  0  0  0  0  0  0  0
    1.7009    2.1749   -1.4635 F   0  0  0  0  0  0  0  0  0  0  0  0
    3.3147    2.3417    0.1511 F   0  0  0  0  0  0  0  0  0  0  0  0
    0.7683    1.9516    1.1316 F   0  0  0  0  0  0  0  0  0  0  0  0
    2.4358    0.2987   -0.3837 F   0  0  0  0  0  0  0  0  0  0  0  0
   -4.1350    0.2333    0.7600 H   0  0  0  0  0  0  0  0  0  0  0  0
  1  2  2  0  0  0  0
  1  6  1  0  0  0  0
  2  3  1  0  0  0  0
  3 16  1  0  0  0  0
  3  4  2  0  0  0  0
  4  9  1  0  0  0  0
  5  4  1  0  0  0  0
  5 10  1  0  0  0  0
  6  5  2  0  0  0  0
  7  1  1  0  0  0  0
  8  2  1  0  0  0  0
 12 11  3  0  0  0  0
 13 17  1  0  0  0  0
 13 15  1  0  0  0  0
 14 13  1  0  0  0  0
 18  6  1  0  0  0  0
M  END
