Coordinates from ORCA-job Ph-N2-BF4-B3LYPG-6-31G_dp-MTMO-d009-169-n800
 OpenBabel09051907443D

 18 16  0  0  0  0  0  0  0  0999 V2000
   -1.6703   -0.3267    0.4245 C   0  0  0  0  0  0  0  0  0  0  0  0
   -0.3845    0.1286    0.7241 C   0  0  0  0  0  0  0  0  0  0  0  0
   -0.2249    1.4746    1.0218 C   0  0  0  0  0  0  0  0  0  0  0  0
   -1.2774    2.3789    1.0340 C   0  0  0  0  0  0  0  0  0  0  0  0
   -2.5556    1.9035    0.7333 C   0  0  0  0  0  0  0  0  0  0  0  0
   -2.7539    0.5548    0.4285 C   0  0  0  0  0  0  0  0  0  0  0  0
   -1.8212   -1.3750    0.1853 H   0  0  0  0  0  0  0  0  0  0  0  0
    0.4754   -0.5306    0.7267 H   0  0  0  0  0  0  0  0  0  0  0  0
   -1.0914    3.4195    1.2760 H   0  0  0  0  0  0  0  0  0  0  0  0
   -3.3956    2.5914    0.7373 H   0  0  0  0  0  0  0  0  0  0  0  0
    8.8983   -0.7905   -2.4805 N   0  0  0  0  0  0  0  0  0  0  0  0
    7.9318   -0.5428   -2.0051 N   0  0  0  0  0  0  0  0  0  0  0  0
    3.0327    1.2769    0.1854 B   0  0  0  0  0  0  0  0  0  0  0  0
    2.5383    1.6313   -0.9862 F   0  0  0  0  0  0  0  0  0  0  0  0
    3.7429    2.1321    0.8944 F   0  0  0  0  0  0  0  0  0  0  0  0
    1.0254    1.9384    1.3243 F   0  0  0  0  0  0  0  0  0  0  0  0
    2.9200    0.0195    0.5889 F   0  0  0  0  0  0  0  0  0  0  0  0
   -3.7496    0.1920    0.1932 H   0  0  0  0  0  0  0  0  0  0  0  0
  1  6  2  0  0  0  0
  1  2  1  0  0  0  0
  2  8  1  0  0  0  0
  2  3  2  0  0  0  0
  3  4  1  0  0  0  0
  3 16  1  0  0  0  0
  4  9  1  0  0  0  0
  5 10  1  0  0  0  0
  5  4  2  0  0  0  0
  6  5  1  0  0  0  0
  7  1  1  0  0  0  0
 11 12  3  0  0  0  0
 13 17  1  0  0  0  0
 13 15  1  0  0  0  0
 14 13  1  0  0  0  0
 18  6  1  0  0  0  0
M  END
