Coordinates from ORCA-job Ph-N2-BF4-B3LYPG-6-31G_dp-MTMO-d009-169-n800
 OpenBabel09051907443D

 18 16  0  0  0  0  0  0  0  0999 V2000
   -1.6841   -0.3229    0.4235 C   0  0  0  0  0  0  0  0  0  0  0  0
   -0.3981    0.1356    0.7172 C   0  0  0  0  0  0  0  0  0  0  0  0
   -0.2419    1.4803    1.0229 C   0  0  0  0  0  0  0  0  0  0  0  0
   -1.2980    2.3801    1.0488 C   0  0  0  0  0  0  0  0  0  0  0  0
   -2.5764    1.9014    0.7539 C   0  0  0  0  0  0  0  0  0  0  0  0
   -2.7713    0.5541    0.4411 C   0  0  0  0  0  0  0  0  0  0  0  0
   -1.8324   -1.3702    0.1783 H   0  0  0  0  0  0  0  0  0  0  0  0
    0.4646   -0.5199    0.7095 H   0  0  0  0  0  0  0  0  0  0  0  0
   -1.1145    3.4198    1.2967 H   0  0  0  0  0  0  0  0  0  0  0  0
   -3.4192    2.5858    0.7686 H   0  0  0  0  0  0  0  0  0  0  0  0
    9.0370   -0.8347   -2.5000 N   0  0  0  0  0  0  0  0  0  0  0  0
    8.0670   -0.5891   -2.0307 N   0  0  0  0  0  0  0  0  0  0  0  0
    3.0157    1.2918    0.1763 B   0  0  0  0  0  0  0  0  0  0  0  0
    2.5197    1.6484   -0.9939 F   0  0  0  0  0  0  0  0  0  0  0  0
    3.7250    2.1462    0.8871 F   0  0  0  0  0  0  0  0  0  0  0  0
    1.0085    1.9473    1.3197 F   0  0  0  0  0  0  0  0  0  0  0  0
    2.9056    0.0331    0.5764 F   0  0  0  0  0  0  0  0  0  0  0  0
   -3.7670    0.1888    0.2104 H   0  0  0  0  0  0  0  0  0  0  0  0
  1  6  2  0  0  0  0
  1  2  1  0  0  0  0
  2  3  2  0  0  0  0
  3  4  1  0  0  0  0
  3 16  1  0  0  0  0
  4  9  1  0  0  0  0
  5 10  1  0  0  0  0
  5  4  2  0  0  0  0
  6  5  1  0  0  0  0
  7  1  1  0  0  0  0
  8  2  1  0  0  0  0
 11 12  3  0  0  0  0
 13 17  1  0  0  0  0
 13 15  1  0  0  0  0
 14 13  1  0  0  0  0
 18  6  1  0  0  0  0
M  END
