Coordinates from ORCA-job Ph-N2-BF4-B3LYPG-6-31G_dp-MTMO-d009-169-n800
 OpenBabel09051907443D

 18 16  0  0  0  0  0  0  0  0999 V2000
   -1.7440   -0.3052    0.5831 C   0  0  0  0  0  0  0  0  0  0  0  0
   -0.4160    0.1055    0.4477 C   0  0  0  0  0  0  0  0  0  0  0  0
   -0.1353    1.4577    0.5897 C   0  0  0  0  0  0  0  0  0  0  0  0
   -1.1101    2.4090    0.8575 C   0  0  0  0  0  0  0  0  0  0  0  0
   -2.4320    1.9781    0.9892 C   0  0  0  0  0  0  0  0  0  0  0  0
   -2.7506    0.6248    0.8527 C   0  0  0  0  0  0  0  0  0  0  0  0
   -1.9891   -1.3576    0.4750 H   0  0  0  0  0  0  0  0  0  0  0  0
    0.3862   -0.5918    0.2375 H   0  0  0  0  0  0  0  0  0  0  0  0
   -0.8309    3.4521    0.9593 H   0  0  0  0  0  0  0  0  0  0  0  0
   -3.2115    2.7043    1.1990 H   0  0  0  0  0  0  0  0  0  0  0  0
    8.1357    0.0444   -1.4262 N   0  0  0  0  0  0  0  0  0  0  0  0
    7.0692    0.1671   -1.1633 N   0  0  0  0  0  0  0  0  0  0  0  0
    3.3037    0.8162   -0.2469 B   0  0  0  0  0  0  0  0  0  0  0  0
    3.2844    1.4792   -1.3861 F   0  0  0  0  0  0  0  0  0  0  0  0
    3.9033    1.3248    0.8107 F   0  0  0  0  0  0  0  0  0  0  0  0
    1.1566    1.8802    0.4617 F   0  0  0  0  0  0  0  0  0  0  0  0
    2.8007   -0.4088   -0.1921 F   0  0  0  0  0  0  0  0  0  0  0  0
   -3.7799    0.2960    0.9573 H   0  0  0  0  0  0  0  0  0  0  0  0
  1  6  1  0  0  0  0
  2  1  2  0  0  0  0
  2  3  1  0  0  0  0
  3  4  2  0  0  0  0
  4  9  1  0  0  0  0
  4  5  1  0  0  0  0
  5 10  1  0  0  0  0
  6 18  1  0  0  0  0
  6  5  2  0  0  0  0
  7  1  1  0  0  0  0
  8  2  1  0  0  0  0
 11 12  3  0  0  0  0
 13 17  1  0  0  0  0
 13 15  1  0  0  0  0
 14 13  1  0  0  0  0
 16  3  1  0  0  0  0
M  END
