Coordinates from ORCA-job Ph-N2-BF4-B3LYPG-6-31G_dp-MTMO-d009-169-n800
 OpenBabel09051907443D

 18 17  0  0  0  0  0  0  0  0999 V2000
   -0.9178   -0.1028    0.4025 C   0  0  0  0  0  0  0  0  0  0  0  0
    0.3609    0.0769   -0.1016 C   0  0  0  0  0  0  0  0  0  0  0  0
    0.7365    1.3778   -0.5579 C   0  0  0  0  0  0  0  0  0  0  0  0
   -0.1852    2.4711   -0.4777 C   0  0  0  0  0  0  0  0  0  0  0  0
   -1.4433    2.2517    0.0371 C   0  0  0  0  0  0  0  0  0  0  0  0
   -1.8103    0.9663    0.4750 C   0  0  0  0  0  0  0  0  0  0  0  0
   -1.2037   -1.0837    0.7649 H   0  0  0  0  0  0  0  0  0  0  0  0
    1.1078   -0.7057   -0.1398 H   0  0  0  0  0  0  0  0  0  0  0  0
    0.1336    3.4508   -0.8170 H   0  0  0  0  0  0  0  0  0  0  0  0
   -2.1456    3.0751    0.1080 H   0  0  0  0  0  0  0  0  0  0  0  0
    1.8081    1.5623   -1.0171 N   0  0  0  0  0  0  0  0  0  0  0  0
    2.8166    1.7467   -1.4737 N   0  0  0  0  0  0  0  0  0  0  0  0
    3.0643    0.0304    1.4187 B   0  0  0  0  0  0  0  0  0  0  0  0
    3.1404   -0.4680    0.0682 F   0  0  0  0  0  0  0  0  0  0  0  0
    4.2005   -0.2826    2.1184 F   0  0  0  0  0  0  0  0  0  0  0  0
    2.8752    1.4339    1.3176 F   0  0  0  0  0  0  0  0  0  0  0  0
    1.9063   -0.5329    1.9968 F   0  0  0  0  0  0  0  0  0  0  0  0
   -2.8037    0.8087    0.8835 H   0  0  0  0  0  0  0  0  0  0  0  0
  1  6  1  0  0  0  0
  1  7  1  0  0  0  0
  2  1  2  0  0  0  0
  3  4  2  0  0  0  0
  3  2  1  0  0  0  0
  4  5  1  0  0  0  0
  5 10  1  0  0  0  0
  5  6  2  0  0  0  0
  6 18  1  0  0  0  0
  8  2  1  0  0  0  0
  9  4  1  0  0  0  0
 11  3  1  0  0  0  0
 12 11  1  0  0  0  0
 13 17  1  0  0  0  0
 13 15  1  0  0  0  0
 14 13  1  0  0  0  0
 16 13  1  0  0  0  0
M  RAD  2  11   2  12   3
M  END
