Coordinates from ORCA-job Ph-N2-BF4-B3LYPG-6-31G_dp-MTMO-d009-169-n800
 OpenBabel09051907443D

 18 16  0  0  0  0  0  0  0  0999 V2000
   -1.7768   -0.3027    0.4173 C   0  0  0  0  0  0  0  0  0  0  0  0
   -0.4584    0.1403    0.5429 C   0  0  0  0  0  0  0  0  0  0  0  0
   -0.2489    1.4396    0.9828 C   0  0  0  0  0  0  0  0  0  0  0  0
   -1.2827    2.3099    1.2983 C   0  0  0  0  0  0  0  0  0  0  0  0
   -2.5940    1.8475    1.1671 C   0  0  0  0  0  0  0  0  0  0  0  0
   -2.8427    0.5451    0.7277 C   0  0  0  0  0  0  0  0  0  0  0  0
   -1.9678   -1.3146    0.0735 H   0  0  0  0  0  0  0  0  0  0  0  0
    0.3885   -0.4921    0.3051 H   0  0  0  0  0  0  0  0  0  0  0  0
   -1.0570    3.3150    1.6367 H   0  0  0  0  0  0  0  0  0  0  0  0
   -3.4198    2.5094    1.4089 H   0  0  0  0  0  0  0  0  0  0  0  0
    9.7605   -1.2289   -1.4990 N   0  0  0  0  0  0  0  0  0  0  0  0
    8.8108   -0.7285   -1.7621 N   0  0  0  0  0  0  0  0  0  0  0  0
    2.7667    1.4972   -0.4880 B   0  0  0  0  0  0  0  0  0  0  0  0
    2.0356    2.0169   -1.4565 F   0  0  0  0  0  0  0  0  0  0  0  0
    3.6067    2.2532    0.1913 F   0  0  0  0  0  0  0  0  0  0  0  0
    1.0354    1.8893    1.1197 F   0  0  0  0  0  0  0  0  0  0  0  0
    2.7484    0.1874   -0.2862 F   0  0  0  0  0  0  0  0  0  0  0  0
   -3.8642    0.1922    0.6263 H   0  0  0  0  0  0  0  0  0  0  0  0
  1  2  2  0  0  0  0
  1  6  1  0  0  0  0
  2  3  1  0  0  0  0
  3 16  1  0  0  0  0
  3  4  2  0  0  0  0
  4  9  1  0  0  0  0
  5  4  1  0  0  0  0
  5 10  1  0  0  0  0
  6  5  2  0  0  0  0
  7  1  1  0  0  0  0
  8  2  1  0  0  0  0
 12 11  3  0  0  0  0
 13 17  1  0  0  0  0
 13 15  1  0  0  0  0
 14 13  1  0  0  0  0
 18  6  1  0  0  0  0
M  END
