Coordinates from ORCA-job Ph-N2-BF4-B3LYPG-6-31G_dp-MTMO-d009-169-n800
 OpenBabel09051907443D

 18 16  0  0  0  0  0  0  0  0999 V2000
   -1.9286   -0.2703    0.4449 C   0  0  0  0  0  0  0  0  0  0  0  0
   -0.6129    0.1863    0.5488 C   0  0  0  0  0  0  0  0  0  0  0  0
   -0.4090    1.4801    1.0074 C   0  0  0  0  0  0  0  0  0  0  0  0
   -1.4455    2.3319    1.3619 C   0  0  0  0  0  0  0  0  0  0  0  0
   -2.7538    1.8560    1.2519 C   0  0  0  0  0  0  0  0  0  0  0  0
   -2.9971    0.5588    0.7946 C   0  0  0  0  0  0  0  0  0  0  0  0
   -2.1153   -1.2782    0.0875 H   0  0  0  0  0  0  0  0  0  0  0  0
    0.2354   -0.4318    0.2807 H   0  0  0  0  0  0  0  0  0  0  0  0
   -1.2238    3.3334    1.7133 H   0  0  0  0  0  0  0  0  0  0  0  0
   -3.5816    2.5034    1.5243 H   0  0  0  0  0  0  0  0  0  0  0  0
   11.0939   -1.5802   -1.7321 N   0  0  0  0  0  0  0  0  0  0  0  0
   10.1224   -1.0920   -1.9312 N   0  0  0  0  0  0  0  0  0  0  0  0
    2.5776    1.5930   -0.5226 B   0  0  0  0  0  0  0  0  0  0  0  0
    1.8298    2.1313   -1.4680 F   0  0  0  0  0  0  0  0  0  0  0  0
    3.4257    2.3369    0.1601 F   0  0  0  0  0  0  0  0  0  0  0  0
    0.8727    1.9432    1.1239 F   0  0  0  0  0  0  0  0  0  0  0  0
    2.5669    0.2790   -0.3494 F   0  0  0  0  0  0  0  0  0  0  0  0
   -4.0165    0.1952    0.7101 H   0  0  0  0  0  0  0  0  0  0  0  0
  1  2  2  0  0  0  0
  1  6  1  0  0  0  0
  2  3  1  0  0  0  0
  3 16  1  0  0  0  0
  3  4  2  0  0  0  0
  4  9  1  0  0  0  0
  5  4  1  0  0  0  0
  5 10  1  0  0  0  0
  6  5  2  0  0  0  0
  7  1  1  0  0  0  0
  8  2  1  0  0  0  0
 12 11  3  0  0  0  0
 13 17  1  0  0  0  0
 13 15  1  0  0  0  0
 14 13  1  0  0  0  0
 18  6  1  0  0  0  0
M  END
