Coordinates from ORCA-job Ph-N2-BF4-B3LYPG-6-31G_dp-MTMO-d009-169-n800
 OpenBabel09051907443D

 18 16  0  0  0  0  0  0  0  0999 V2000
   -1.5360   -0.2903    0.8343 C   0  0  0  0  0  0  0  0  0  0  0  0
   -0.2067    0.0217    1.1278 C   0  0  0  0  0  0  0  0  0  0  0  0
    0.2209    1.3220    0.8989 C   0  0  0  0  0  0  0  0  0  0  0  0
   -0.6059    2.3153    0.3938 C   0  0  0  0  0  0  0  0  0  0  0  0
   -1.9320    1.9835    0.1079 C   0  0  0  0  0  0  0  0  0  0  0  0
   -2.3982    0.6847    0.3267 C   0  0  0  0  0  0  0  0  0  0  0  0
   -1.8951   -1.3006    1.0048 H   0  0  0  0  0  0  0  0  0  0  0  0
    0.4863   -0.7141    1.5184 H   0  0  0  0  0  0  0  0  0  0  0  0
   -0.2140    3.3135    0.2333 H   0  0  0  0  0  0  0  0  0  0  0  0
   -2.5989    2.7439   -0.2869 H   0  0  0  0  0  0  0  0  0  0  0  0
    5.2900    1.9200   -2.5614 N   0  0  0  0  0  0  0  0  0  0  0  0
    5.4746    1.0136   -1.9569 N   0  0  0  0  0  0  0  0  0  0  0  0
    3.3442    0.2661    0.5274 B   0  0  0  0  0  0  0  0  0  0  0  0
    2.8767    0.2060   -0.7069 F   0  0  0  0  0  0  0  0  0  0  0  0
    4.2077    1.2033    0.8667 F   0  0  0  0  0  0  0  0  0  0  0  0
    1.5171    1.6482    1.1898 F   0  0  0  0  0  0  0  0  0  0  0  0
    3.0387   -0.6937    1.3877 F   0  0  0  0  0  0  0  0  0  0  0  0
   -3.4293    0.4328    0.1004 H   0  0  0  0  0  0  0  0  0  0  0  0
  1  7  1  0  0  0  0
  1  2  2  0  0  0  0
  2  8  1  0  0  0  0
  3  2  1  0  0  0  0
  3 16  1  0  0  0  0
  4  3  2  0  0  0  0
  5  6  2  0  0  0  0
  5  4  1  0  0  0  0
  6  1  1  0  0  0  0
  9  4  1  0  0  0  0
 10  5  1  0  0  0  0
 11 12  3  0  0  0  0
 13 15  1  0  0  0  0
 13 17  1  0  0  0  0
 14 13  1  0  0  0  0
 18  6  1  0  0  0  0
M  END
