Coordinates from ORCA-job Ph-N2-BF4-B3LYPG-6-31G_dp-MTMO-d009-169-n800
 OpenBabel09051907443D

 18 16  0  0  0  0  0  0  0  0999 V2000
   -1.7164   -0.3154    0.4242 C   0  0  0  0  0  0  0  0  0  0  0  0
   -0.4279    0.1460    0.7021 C   0  0  0  0  0  0  0  0  0  0  0  0
   -0.2731    1.4875    1.0226 C   0  0  0  0  0  0  0  0  0  0  0  0
   -1.3332    2.3813    1.0781 C   0  0  0  0  0  0  0  0  0  0  0  0
   -2.6140    1.8998    0.7987 C   0  0  0  0  0  0  0  0  0  0  0  0
   -2.8074    0.5557    0.4717 C   0  0  0  0  0  0  0  0  0  0  0  0
   -1.8636   -1.3601    0.1679 H   0  0  0  0  0  0  0  0  0  0  0  0
    0.4378   -0.5048    0.6715 H   0  0  0  0  0  0  0  0  0  0  0  0
   -1.1508    3.4186    1.3362 H   0  0  0  0  0  0  0  0  0  0  0  0
   -3.4598    2.5795    0.8368 H   0  0  0  0  0  0  0  0  0  0  0  0
    9.3076   -0.9089   -2.5201 N   0  0  0  0  0  0  0  0  0  0  0  0
    8.3291   -0.6680   -2.0660 N   0  0  0  0  0  0  0  0  0  0  0  0
    2.9837    1.3165    0.1463 B   0  0  0  0  0  0  0  0  0  0  0  0
    2.4818    1.6797   -1.0193 F   0  0  0  0  0  0  0  0  0  0  0  0
    3.6926    2.1685    0.8605 F   0  0  0  0  0  0  0  0  0  0  0  0
    0.9797    1.9573    1.3039 F   0  0  0  0  0  0  0  0  0  0  0  0
    2.8792    0.0547    0.5380 F   0  0  0  0  0  0  0  0  0  0  0  0
   -3.8052    0.1882    0.2531 H   0  0  0  0  0  0  0  0  0  0  0  0
  1  6  2  0  0  0  0
  1  2  1  0  0  0  0
  2  3  2  0  0  0  0
  3  4  1  0  0  0  0
  3 16  1  0  0  0  0
  4  9  1  0  0  0  0
  5 10  1  0  0  0  0
  5  4  2  0  0  0  0
  6  5  1  0  0  0  0
  7  1  1  0  0  0  0
  8  2  1  0  0  0  0
 11 12  3  0  0  0  0
 13 17  1  0  0  0  0
 13 15  1  0  0  0  0
 14 13  1  0  0  0  0
 18  6  1  0  0  0  0
M  END
