Coordinates from ORCA-job Ph-N2-BF4-B3LYPG-6-31G_dp-MTMO-d009-169-n800
 OpenBabel09051907443D

 18 16  0  0  0  0  0  0  0  0999 V2000
   -1.4952   -0.3241    0.7426 C   0  0  0  0  0  0  0  0  0  0  0  0
   -0.1852    0.0150    1.0877 C   0  0  0  0  0  0  0  0  0  0  0  0
    0.1958    1.3439    0.9646 C   0  0  0  0  0  0  0  0  0  0  0  0
   -0.6593    2.3401    0.5157 C   0  0  0  0  0  0  0  0  0  0  0  0
   -1.9658    1.9810    0.1770 C   0  0  0  0  0  0  0  0  0  0  0  0
   -2.3848    0.6529    0.2891 C   0  0  0  0  0  0  0  0  0  0  0  0
   -1.8182   -1.3571    0.8301 H   0  0  0  0  0  0  0  0  0  0  0  0
    0.5289   -0.7207    1.4390 H   0  0  0  0  0  0  0  0  0  0  0  0
   -0.3037    3.3615    0.4380 H   0  0  0  0  0  0  0  0  0  0  0  0
   -2.6542    2.7428   -0.1758 H   0  0  0  0  0  0  0  0  0  0  0  0
    5.4579    1.5255   -2.6505 N   0  0  0  0  0  0  0  0  0  0  0  0
    5.4649    0.7368   -1.8768 N   0  0  0  0  0  0  0  0  0  0  0  0
    3.3246    0.4445    0.4847 B   0  0  0  0  0  0  0  0  0  0  0  0
    2.7861    0.4210   -0.7218 F   0  0  0  0  0  0  0  0  0  0  0  0
    4.1638    1.4052    0.8200 F   0  0  0  0  0  0  0  0  0  0  0  0
    1.4724    1.6952    1.3072 F   0  0  0  0  0  0  0  0  0  0  0  0
    3.1130   -0.5674    1.3127 F   0  0  0  0  0  0  0  0  0  0  0  0
   -3.4007    0.3799    0.0223 H   0  0  0  0  0  0  0  0  0  0  0  0
  1  7  1  0  0  0  0
  1  2  2  0  0  0  0
  2  8  1  0  0  0  0
  3  2  1  0  0  0  0
  3 16  1  0  0  0  0
  4  3  2  0  0  0  0
  5  6  2  0  0  0  0
  5  4  1  0  0  0  0
  6  1  1  0  0  0  0
  9  4  1  0  0  0  0
 10  5  1  0  0  0  0
 11 12  3  0  0  0  0
 13 15  1  0  0  0  0
 13 17  1  0  0  0  0
 14 13  1  0  0  0  0
 18  6  1  0  0  0  0
M  END
