Coordinates from ORCA-job Ph-N2-BF4-B3LYPG-6-31G_dp-MTMO-d009-169-n800
 OpenBabel09051907443D

 18 16  0  0  0  0  0  0  0  0999 V2000
   -2.1411   -0.2242    0.4895 C   0  0  0  0  0  0  0  0  0  0  0  0
   -0.8223    0.2273    0.5756 C   0  0  0  0  0  0  0  0  0  0  0  0
   -0.6065    1.5158    1.0434 C   0  0  0  0  0  0  0  0  0  0  0  0
   -1.6342    2.3675    1.4232 C   0  0  0  0  0  0  0  0  0  0  0  0
   -2.9458    1.8968    1.3304 C   0  0  0  0  0  0  0  0  0  0  0  0
   -3.2008    0.6048    0.8650 C   0  0  0  0  0  0  0  0  0  0  0  0
   -2.3370   -1.2281    0.1258 H   0  0  0  0  0  0  0  0  0  0  0  0
    0.0193   -0.3907    0.2870 H   0  0  0  0  0  0  0  0  0  0  0  0
   -1.4033    3.3649    1.7803 H   0  0  0  0  0  0  0  0  0  0  0  0
   -3.7668    2.5442    1.6226 H   0  0  0  0  0  0  0  0  0  0  0  0
   12.7520   -1.9438   -2.0263 N   0  0  0  0  0  0  0  0  0  0  0  0
   11.7733   -1.4597   -2.1978 N   0  0  0  0  0  0  0  0  0  0  0  0
    2.3524    1.6531   -0.5397 B   0  0  0  0  0  0  0  0  0  0  0  0
    1.5979    2.2311   -1.4558 F   0  0  0  0  0  0  0  0  0  0  0  0
    3.2196    2.3641    0.1540 F   0  0  0  0  0  0  0  0  0  0  0  0
    0.6785    1.9736    1.1435 F   0  0  0  0  0  0  0  0  0  0  0  0
    2.3281    0.3343   -0.4093 F   0  0  0  0  0  0  0  0  0  0  0  0
   -4.2227    0.2450    0.7944 H   0  0  0  0  0  0  0  0  0  0  0  0
  1  2  2  0  0  0  0
  1  6  1  0  0  0  0
  2  3  1  0  0  0  0
  3 16  1  0  0  0  0
  3  4  2  0  0  0  0
  4  9  1  0  0  0  0
  5  4  1  0  0  0  0
  5 10  1  0  0  0  0
  6  5  2  0  0  0  0
  7  1  1  0  0  0  0
  8  2  1  0  0  0  0
 12 11  3  0  0  0  0
 13 17  1  0  0  0  0
 13 15  1  0  0  0  0
 14 13  1  0  0  0  0
 18  6  1  0  0  0  0
M  END
