Coordinates from ORCA-job Ph-N2-BF4-B3LYPG-6-31G_dp-MTMO-d009-169-n800
 OpenBabel09051907443D

 18 16  0  0  0  0  0  0  0  0999 V2000
   -1.8873   -0.2788    0.4367 C   0  0  0  0  0  0  0  0  0  0  0  0
   -0.5716    0.1766    0.5458 C   0  0  0  0  0  0  0  0  0  0  0  0
   -0.3684    1.4719    1.0004 C   0  0  0  0  0  0  0  0  0  0  0  0
   -1.4057    2.3264    1.3460 C   0  0  0  0  0  0  0  0  0  0  0  0
   -2.7140    1.8517    1.2309 C   0  0  0  0  0  0  0  0  0  0  0  0
   -2.9565    0.5530    0.7774 C   0  0  0  0  0  0  0  0  0  0  0  0
   -2.0733   -1.2878    0.0821 H   0  0  0  0  0  0  0  0  0  0  0  0
    0.2775   -0.4436    0.2847 H   0  0  0  0  0  0  0  0  0  0  0  0
   -1.1846    3.3290    1.6947 H   0  0  0  0  0  0  0  0  0  0  0  0
   -3.5425    2.5011    1.4964 H   0  0  0  0  0  0  0  0  0  0  0  0
   10.7494   -1.4935   -1.6760 N   0  0  0  0  0  0  0  0  0  0  0  0
    9.7799   -1.0055   -1.8849 N   0  0  0  0  0  0  0  0  0  0  0  0
    2.6275    1.5710   -0.5125 B   0  0  0  0  0  0  0  0  0  0  0  0
    1.8851    2.1014   -1.4665 F   0  0  0  0  0  0  0  0  0  0  0  0
    3.4715    2.3205    0.1691 F   0  0  0  0  0  0  0  0  0  0  0  0
    0.9132    1.9340    1.1218 F   0  0  0  0  0  0  0  0  0  0  0  0
    2.6161    0.2584   -0.3290 F   0  0  0  0  0  0  0  0  0  0  0  0
   -3.9759    0.1904    0.6889 H   0  0  0  0  0  0  0  0  0  0  0  0
  1  2  2  0  0  0  0
  1  6  1  0  0  0  0
  2  3  1  0  0  0  0
  3 16  1  0  0  0  0
  3  4  2  0  0  0  0
  4  9  1  0  0  0  0
  5  4  1  0  0  0  0
  5 10  1  0  0  0  0
  6  5  2  0  0  0  0
  7  1  1  0  0  0  0
  8  2  1  0  0  0  0
 12 11  3  0  0  0  0
 13 17  1  0  0  0  0
 13 15  1  0  0  0  0
 14 13  1  0  0  0  0
 18  6  1  0  0  0  0
M  END
