Coordinates from ORCA-job Ph-N2-BF4-B3LYPG-6-31G_dp-MTMO-d009-169-n800
 OpenBabel09051907443D

 18 16  0  0  0  0  0  0  0  0999 V2000
   -2.3107   -0.1948    0.5316 C   0  0  0  0  0  0  0  0  0  0  0  0
   -0.9930    0.2643    0.5875 C   0  0  0  0  0  0  0  0  0  0  0  0
   -0.7729    1.5500    1.0613 C   0  0  0  0  0  0  0  0  0  0  0  0
   -1.7956    2.3919    1.4748 C   0  0  0  0  0  0  0  0  0  0  0  0
   -3.1063    1.9139    1.4115 C   0  0  0  0  0  0  0  0  0  0  0  0
   -3.3654    0.6242    0.9417 C   0  0  0  0  0  0  0  0  0  0  0  0
   -2.5101   -1.1968    0.1644 H   0  0  0  0  0  0  0  0  0  0  0  0
   -0.1550   -0.3452    0.2714 H   0  0  0  0  0  0  0  0  0  0  0  0
   -1.5618    3.3876    1.8344 H   0  0  0  0  0  0  0  0  0  0  0  0
   -3.9235    2.5536    1.7302 H   0  0  0  0  0  0  0  0  0  0  0  0
   14.1122   -2.2740   -2.2376 N   0  0  0  0  0  0  0  0  0  0  0  0
   13.1322   -1.7928   -2.4100 N   0  0  0  0  0  0  0  0  0  0  0  0
    2.1694    1.7370   -0.5724 B   0  0  0  0  0  0  0  0  0  0  0  0
    1.4251    2.3755   -1.4559 F   0  0  0  0  0  0  0  0  0  0  0  0
    3.0526    2.3947    0.1531 F   0  0  0  0  0  0  0  0  0  0  0  0
    0.5114    2.0145    1.1331 F   0  0  0  0  0  0  0  0  0  0  0  0
    2.1184    0.4141   -0.5080 F   0  0  0  0  0  0  0  0  0  0  0  0
   -4.3866    0.2586    0.8947 H   0  0  0  0  0  0  0  0  0  0  0  0
  1  2  2  0  0  0  0
  1  6  1  0  0  0  0
  2  3  1  0  0  0  0
  3 16  1  0  0  0  0
  3  4  2  0  0  0  0
  4  9  1  0  0  0  0
  5  4  1  0  0  0  0
  5 10  1  0  0  0  0
  6  5  2  0  0  0  0
  7  1  1  0  0  0  0
  8  2  1  0  0  0  0
 12 11  3  0  0  0  0
 13 17  1  0  0  0  0
 13 15  1  0  0  0  0
 14 13  1  0  0  0  0
 18  6  1  0  0  0  0
M  END
