Coordinates from ORCA-job Ph-N2-BF4-B3LYPG-6-31G_dp-MTMO-d009-169-n800
 OpenBabel09051907443D

 18 16  0  0  0  0  0  0  0  0999 V2000
   -2.0646   -0.2391    0.4719 C   0  0  0  0  0  0  0  0  0  0  0  0
   -0.7459    0.2112    0.5647 C   0  0  0  0  0  0  0  0  0  0  0  0
   -0.5315    1.5007    1.0304 C   0  0  0  0  0  0  0  0  0  0  0  0
   -1.5605    2.3544    1.4020 C   0  0  0  0  0  0  0  0  0  0  0  0
   -2.8720    1.8849    1.3026 C   0  0  0  0  0  0  0  0  0  0  0  0
   -3.1257    0.5919    0.8389 C   0  0  0  0  0  0  0  0  0  0  0  0
   -2.2594   -1.2437    0.1095 H   0  0  0  0  0  0  0  0  0  0  0  0
    0.0968   -0.4085    0.2829 H   0  0  0  0  0  0  0  0  0  0  0  0
   -1.3307    3.3524    1.7579 H   0  0  0  0  0  0  0  0  0  0  0  0
   -3.6940    2.5339    1.5884 H   0  0  0  0  0  0  0  0  0  0  0  0
   12.1336   -1.7999   -1.9158 N   0  0  0  0  0  0  0  0  0  0  0  0
   11.1567   -1.3140   -2.0926 N   0  0  0  0  0  0  0  0  0  0  0  0
    2.4357    1.6229   -0.5358 B   0  0  0  0  0  0  0  0  0  0  0  0
    1.6819    2.1851   -1.4624 F   0  0  0  0  0  0  0  0  0  0  0  0
    3.2975    2.3471    0.1510 F   0  0  0  0  0  0  0  0  0  0  0  0
    0.7534    1.9575    1.1367 F   0  0  0  0  0  0  0  0  0  0  0  0
    2.4163    0.3060   -0.3874 F   0  0  0  0  0  0  0  0  0  0  0  0
   -4.1474    0.2331    0.7630 H   0  0  0  0  0  0  0  0  0  0  0  0
  1  2  2  0  0  0  0
  1  6  1  0  0  0  0
  2  3  1  0  0  0  0
  3 16  1  0  0  0  0
  3  4  2  0  0  0  0
  4  9  1  0  0  0  0
  5  4  1  0  0  0  0
  5 10  1  0  0  0  0
  6  5  2  0  0  0  0
  7  1  1  0  0  0  0
  8  2  1  0  0  0  0
 12 11  3  0  0  0  0
 13 17  1  0  0  0  0
 13 15  1  0  0  0  0
 14 13  1  0  0  0  0
 18  6  1  0  0  0  0
M  END
