Coordinates from ORCA-job Ph-N2-BF4-B3LYPG-6-31G_dp-MTMO-d009-169-n800
 OpenBabel09051907443D

 18 16  0  0  0  0  0  0  0  0999 V2000
   -1.1887   -0.0803    0.2038 C   0  0  0  0  0  0  0  0  0  0  0  0
    0.1293    0.0434    0.6457 C   0  0  0  0  0  0  0  0  0  0  0  0
    0.6845    1.3159    0.6972 C   0  0  0  0  0  0  0  0  0  0  0  0
   -0.0381    2.4642    0.3983 C   0  0  0  0  0  0  0  0  0  0  0  0
   -1.3548    2.3201   -0.0410 C   0  0  0  0  0  0  0  0  0  0  0  0
   -1.9302    1.0510   -0.1467 C   0  0  0  0  0  0  0  0  0  0  0  0
   -1.6376   -1.0670    0.1388 H   0  0  0  0  0  0  0  0  0  0  0  0
    0.7273   -0.8151    0.9259 H   0  0  0  0  0  0  0  0  0  0  0  0
    0.4353    3.4354    0.4912 H   0  0  0  0  0  0  0  0  0  0  0  0
   -1.9315    3.2037   -0.2969 H   0  0  0  0  0  0  0  0  0  0  0  0
    1.8049    1.1793   -1.4456 N   0  0  0  0  0  0  0  0  0  0  0  0
    1.4128    1.0635   -2.4742 N   0  0  0  0  0  0  0  0  0  0  0  0
    3.8617   -0.0908    1.3037 B   0  0  0  0  0  0  0  0  0  0  0  0
    4.2513    0.1076    0.0590 F   0  0  0  0  0  0  0  0  0  0  0  0
    4.3474    0.6506    2.2791 F   0  0  0  0  0  0  0  0  0  0  0  0
    1.9525    1.4635    1.1742 F   0  0  0  0  0  0  0  0  0  0  0  0
    3.0679   -1.1141    1.5853 F   0  0  0  0  0  0  0  0  0  0  0  0
   -2.9535    0.9452   -0.4917 H   0  0  0  0  0  0  0  0  0  0  0  0
  1  2  2  0  0  0  0
  2  3  1  0  0  0  0
  2  8  1  0  0  0  0
  3 16  1  0  0  0  0
  4  9  1  0  0  0  0
  4  3  2  0  0  0  0
  5  4  1  0  0  0  0
  6  5  2  0  0  0  0
  6  1  1  0  0  0  0
  7  1  1  0  0  0  0
 10  5  1  0  0  0  0
 12 11  3  0  0  0  0
 13 17  1  0  0  0  0
 13 15  1  0  0  0  0
 14 13  1  0  0  0  0
 18  6  1  0  0  0  0
M  END
