Coordinates from ORCA-job Ph-N2-BF4-B3LYPG-6-31G_dp-MTMO-d009-169-n800
 OpenBabel09051907443D

 18 16  0  0  0  0  0  0  0  0999 V2000
   -2.0872   -0.2341    0.4764 C   0  0  0  0  0  0  0  0  0  0  0  0
   -0.7681    0.2153    0.5675 C   0  0  0  0  0  0  0  0  0  0  0  0
   -0.5521    1.5042    1.0342 C   0  0  0  0  0  0  0  0  0  0  0  0
   -1.5800    2.3582    1.4083 C   0  0  0  0  0  0  0  0  0  0  0  0
   -2.8919    1.8896    1.3106 C   0  0  0  0  0  0  0  0  0  0  0  0
   -3.1472    0.5973    0.8461 C   0  0  0  0  0  0  0  0  0  0  0  0
   -2.2833   -1.2382    0.1133 H   0  0  0  0  0  0  0  0  0  0  0  0
    0.0738   -0.4046    0.2836 H   0  0  0  0  0  0  0  0  0  0  0  0
   -1.3489    3.3557    1.7648 H   0  0  0  0  0  0  0  0  0  0  0  0
   -3.7131    2.5388    1.5984 H   0  0  0  0  0  0  0  0  0  0  0  0
   12.3067   -1.8365   -1.9464 N   0  0  0  0  0  0  0  0  0  0  0  0
   11.3290   -1.3516   -2.1215 N   0  0  0  0  0  0  0  0  0  0  0  0
    2.4126    1.6282   -0.5371 B   0  0  0  0  0  0  0  0  0  0  0  0
    1.6579    2.1935   -1.4609 F   0  0  0  0  0  0  0  0  0  0  0  0
    3.2759    2.3499    0.1505 F   0  0  0  0  0  0  0  0  0  0  0  0
    0.7332    1.9601    1.1389 F   0  0  0  0  0  0  0  0  0  0  0  0
    2.3926    0.3109   -0.3922 F   0  0  0  0  0  0  0  0  0  0  0  0
   -4.1693    0.2392    0.7715 H   0  0  0  0  0  0  0  0  0  0  0  0
  1  2  2  0  0  0  0
  1  6  1  0  0  0  0
  2  3  1  0  0  0  0
  3 16  1  0  0  0  0
  3  4  2  0  0  0  0
  4  9  1  0  0  0  0
  5  4  1  0  0  0  0
  5 10  1  0  0  0  0
  6  5  2  0  0  0  0
  7  1  1  0  0  0  0
  8  2  1  0  0  0  0
 12 11  3  0  0  0  0
 13 17  1  0  0  0  0
 13 15  1  0  0  0  0
 14 13  1  0  0  0  0
 18  6  1  0  0  0  0
M  END
