Coordinates from ORCA-job Ph-N2-BF4-B3LYPG-6-31G_dp-MTMO-d009-169-n800
 OpenBabel09051907443D

 18 16  0  0  0  0  0  0  0  0999 V2000
   -1.7135   -0.3053    0.5768 C   0  0  0  0  0  0  0  0  0  0  0  0
   -0.3851    0.1016    0.4337 C   0  0  0  0  0  0  0  0  0  0  0  0
   -0.0999    1.4534    0.5711 C   0  0  0  0  0  0  0  0  0  0  0  0
   -1.0706    2.4081    0.8417 C   0  0  0  0  0  0  0  0  0  0  0  0
   -2.3930    1.9810    0.9811 C   0  0  0  0  0  0  0  0  0  0  0  0
   -2.7161    0.6282    0.8493 C   0  0  0  0  0  0  0  0  0  0  0  0
   -1.9621   -1.3572    0.4725 H   0  0  0  0  0  0  0  0  0  0  0  0
    0.4146   -0.5981    0.2212 H   0  0  0  0  0  0  0  0  0  0  0  0
   -0.7881    3.4506    0.9396 H   0  0  0  0  0  0  0  0  0  0  0  0
   -3.1695    2.7097    1.1932 H   0  0  0  0  0  0  0  0  0  0  0  0
    7.7899    0.1398   -1.3638 N   0  0  0  0  0  0  0  0  0  0  0  0
    6.7241    0.2453   -1.0906 N   0  0  0  0  0  0  0  0  0  0  0  0
    3.3735    0.7740   -0.2479 B   0  0  0  0  0  0  0  0  0  0  0  0
    3.3796    1.4362   -1.3874 F   0  0  0  0  0  0  0  0  0  0  0  0
    3.9618    1.2769    0.8186 F   0  0  0  0  0  0  0  0  0  0  0  0
    1.1926    1.8706    0.4347 F   0  0  0  0  0  0  0  0  0  0  0  0
    2.8477   -0.4415   -0.1978 F   0  0  0  0  0  0  0  0  0  0  0  0
   -3.7457    0.3027    0.9600 H   0  0  0  0  0  0  0  0  0  0  0  0
  1  6  2  0  0  0  0
  2  3  2  0  0  0  0
  2  1  1  0  0  0  0
  3  4  1  0  0  0  0
  4  9  1  0  0  0  0
  4  5  2  0  0  0  0
  5 10  1  0  0  0  0
  6 18  1  0  0  0  0
  6  5  1  0  0  0  0
  7  1  1  0  0  0  0
  8  2  1  0  0  0  0
 11 12  3  0  0  0  0
 13 17  1  0  0  0  0
 13 15  1  0  0  0  0
 14 13  1  0  0  0  0
 16  3  1  0  0  0  0
M  END
