Coordinates from ORCA-job Ph-N2-BF4-B3LYPG-6-31G_dp-MTMO-d009-169-n800
 OpenBabel09051907443D

 18 16  0  0  0  0  0  0  0  0999 V2000
   -1.7556   -0.3087    0.5763 C   0  0  0  0  0  0  0  0  0  0  0  0
   -0.4273    0.1135    0.4871 C   0  0  0  0  0  0  0  0  0  0  0  0
   -0.1636    1.4679    0.6388 C   0  0  0  0  0  0  0  0  0  0  0  0
   -1.1552    2.4108    0.8725 C   0  0  0  0  0  0  0  0  0  0  0  0
   -2.4770    1.9684    0.9584 C   0  0  0  0  0  0  0  0  0  0  0  0
   -2.7789    0.6124    0.8109 C   0  0  0  0  0  0  0  0  0  0  0  0
   -1.9877   -1.3631    0.4595 H   0  0  0  0  0  0  0  0  0  0  0  0
    0.3874   -0.5770    0.3041 H   0  0  0  0  0  0  0  0  0  0  0  0
   -0.8887    3.4562    0.9840 H   0  0  0  0  0  0  0  0  0  0  0  0
   -3.2696    2.6876    1.1412 H   0  0  0  0  0  0  0  0  0  0  0  0
    8.3805   -0.0751   -1.6150 N   0  0  0  0  0  0  0  0  0  0  0  0
    7.3208    0.0286   -1.3186 N   0  0  0  0  0  0  0  0  0  0  0  0
    3.2626    0.8829   -0.1751 B   0  0  0  0  0  0  0  0  0  0  0  0
    3.2206    1.5373   -1.3188 F   0  0  0  0  0  0  0  0  0  0  0  0
    3.8628    1.4101    0.8733 F   0  0  0  0  0  0  0  0  0  0  0  0
    1.1283    1.9027    0.5566 F   0  0  0  0  0  0  0  0  0  0  0  0
    2.7892   -0.3533   -0.1087 F   0  0  0  0  0  0  0  0  0  0  0  0
   -3.8083    0.2747    0.8794 H   0  0  0  0  0  0  0  0  0  0  0  0
  1  6  1  0  0  0  0
  2  1  2  0  0  0  0
  2  3  1  0  0  0  0
  3  4  2  0  0  0  0
  4  5  1  0  0  0  0
  4  9  1  0  0  0  0
  5 10  1  0  0  0  0
  6 18  1  0  0  0  0
  6  5  2  0  0  0  0
  7  1  1  0  0  0  0
  8  2  1  0  0  0  0
 11 12  3  0  0  0  0
 13 17  1  0  0  0  0
 13 15  1  0  0  0  0
 14 13  1  0  0  0  0
 16  3  1  0  0  0  0
M  END
