Coordinates from ORCA-job Ph-N2-BF4-B3LYPG-6-31G_dp-MTMO-d009-169-n800
 OpenBabel09051907443D

 18 16  0  0  0  0  0  0  0  0999 V2000
   -1.7754   -0.3082    0.5765 C   0  0  0  0  0  0  0  0  0  0  0  0
   -0.4476    0.1187    0.5029 C   0  0  0  0  0  0  0  0  0  0  0  0
   -0.1906    1.4739    0.6585 C   0  0  0  0  0  0  0  0  0  0  0  0
   -1.1881    2.4133    0.8811 C   0  0  0  0  0  0  0  0  0  0  0  0
   -2.5092    1.9661    0.9514 C   0  0  0  0  0  0  0  0  0  0  0  0
   -2.8046    0.6092    0.7997 C   0  0  0  0  0  0  0  0  0  0  0  0
   -2.0026   -1.3633    0.4565 H   0  0  0  0  0  0  0  0  0  0  0  0
    0.3714   -0.5689    0.3291 H   0  0  0  0  0  0  0  0  0  0  0  0
   -0.9266    3.4596    0.9962 H   0  0  0  0  0  0  0  0  0  0  0  0
   -3.3065    2.6824    1.1254 H   0  0  0  0  0  0  0  0  0  0  0  0
    8.6024   -0.1403   -1.7181 N   0  0  0  0  0  0  0  0  0  0  0  0
    7.5461   -0.0397   -1.4085 N   0  0  0  0  0  0  0  0  0  0  0  0
    3.2289    0.9118   -0.1406 B   0  0  0  0  0  0  0  0  0  0  0  0
    3.1788    1.5604   -1.2874 F   0  0  0  0  0  0  0  0  0  0  0  0
    3.8293    1.4479    0.9032 F   0  0  0  0  0  0  0  0  0  0  0  0
    1.1005    1.9139    0.5917 F   0  0  0  0  0  0  0  0  0  0  0  0
    2.7678   -0.3288   -0.0678 F   0  0  0  0  0  0  0  0  0  0  0  0
   -3.8336    0.2679    0.8560 H   0  0  0  0  0  0  0  0  0  0  0  0
  1  6  1  0  0  0  0
  2  1  2  0  0  0  0
  2  3  1  0  0  0  0
  3  4  2  0  0  0  0
  4  5  1  0  0  0  0
  4  9  1  0  0  0  0
  5 10  1  0  0  0  0
  6 18  1  0  0  0  0
  6  5  2  0  0  0  0
  7  1  1  0  0  0  0
  8  2  1  0  0  0  0
 11 12  3  0  0  0  0
 13 17  1  0  0  0  0
 13 15  1  0  0  0  0
 14 13  1  0  0  0  0
 16  3  1  0  0  0  0
M  END
