Coordinates from ORCA-job Ph-N2-BF4-B3LYPG-6-31G_dp-MTMO-d009-169-n800
 OpenBabel09051907443D

 18 16  0  0  0  0  0  0  0  0999 V2000
   -1.4820   -0.0949    0.9047 C   0  0  0  0  0  0  0  0  0  0  0  0
   -0.1253    0.0603    1.1972 C   0  0  0  0  0  0  0  0  0  0  0  0
    0.5028    1.2221    0.7706 C   0  0  0  0  0  0  0  0  0  0  0  0
   -0.1524    2.2253    0.0705 C   0  0  0  0  0  0  0  0  0  0  0  0
   -1.5089    2.0513   -0.2112 C   0  0  0  0  0  0  0  0  0  0  0  0
   -2.1745    0.8951    0.2035 C   0  0  0  0  0  0  0  0  0  0  0  0
   -1.9957   -0.9957    1.2270 H   0  0  0  0  0  0  0  0  0  0  0  0
    0.4400   -0.6925    1.7336 H   0  0  0  0  0  0  0  0  0  0  0  0
    0.3935    3.1087   -0.2407 H   0  0  0  0  0  0  0  0  0  0  0  0
   -2.0436    2.8229   -0.7572 H   0  0  0  0  0  0  0  0  0  0  0  0
    3.1956    2.3584   -1.6635 N   0  0  0  0  0  0  0  0  0  0  0  0
    3.8798    2.2683   -2.5266 N   0  0  0  0  0  0  0  0  0  0  0  0
    3.5061   -0.3029    0.8188 B   0  0  0  0  0  0  0  0  0  0  0  0
    3.2435   -0.4500   -0.4674 F   0  0  0  0  0  0  0  0  0  0  0  0
    4.4486    0.5311    1.2123 F   0  0  0  0  0  0  0  0  0  0  0  0
    1.8295    1.3948    1.0541 F   0  0  0  0  0  0  0  0  0  0  0  0
    2.9114   -1.0913    1.7019 F   0  0  0  0  0  0  0  0  0  0  0  0
   -3.2283    0.7650   -0.0216 H   0  0  0  0  0  0  0  0  0  0  0  0
  1  2  1  0  0  0  0
  1  7  1  0  0  0  0
  2  8  1  0  0  0  0
  3 16  1  0  0  0  0
  3  2  2  0  0  0  0
  4  3  1  0  0  0  0
  5  4  2  0  0  0  0
  5  6  1  0  0  0  0
  6  1  2  0  0  0  0
  9  4  1  0  0  0  0
 10  5  1  0  0  0  0
 12 11  3  0  0  0  0
 13 15  1  0  0  0  0
 13 17  1  0  0  0  0
 14 13  1  0  0  0  0
 18  6  1  0  0  0  0
M  END
