Coordinates from ORCA-job Ph-N2-BF4-B3LYPG-6-31G_dp-MTMO-d009-169-n800
 OpenBabel09051907443D

 18 16  0  0  0  0  0  0  0  0999 V2000
   -2.0526   -0.2418    0.4693 C   0  0  0  0  0  0  0  0  0  0  0  0
   -0.7338    0.2083    0.5624 C   0  0  0  0  0  0  0  0  0  0  0  0
   -0.5191    1.4980    1.0274 C   0  0  0  0  0  0  0  0  0  0  0  0
   -1.5482    2.3521    1.3979 C   0  0  0  0  0  0  0  0  0  0  0  0
   -2.8598    1.8829    1.2984 C   0  0  0  0  0  0  0  0  0  0  0  0
   -3.1136    0.5897    0.8353 C   0  0  0  0  0  0  0  0  0  0  0  0
   -2.2474   -1.2465    0.1074 H   0  0  0  0  0  0  0  0  0  0  0  0
    0.1088   -0.4119    0.2813 H   0  0  0  0  0  0  0  0  0  0  0  0
   -1.3184    3.3503    1.7534 H   0  0  0  0  0  0  0  0  0  0  0  0
   -3.6818    2.5323    1.5834 H   0  0  0  0  0  0  0  0  0  0  0  0
   12.0309   -1.7750   -1.8972 N   0  0  0  0  0  0  0  0  0  0  0  0
   11.0538   -1.2901   -2.0750 N   0  0  0  0  0  0  0  0  0  0  0  0
    2.4506    1.6182   -0.5350 B   0  0  0  0  0  0  0  0  0  0  0  0
    1.6976    2.1784   -1.4634 F   0  0  0  0  0  0  0  0  0  0  0  0
    3.3113    2.3439    0.1515 F   0  0  0  0  0  0  0  0  0  0  0  0
    0.7657    1.9546    1.1339 F   0  0  0  0  0  0  0  0  0  0  0  0
    2.4316    0.3015   -0.3843 F   0  0  0  0  0  0  0  0  0  0  0  0
   -4.1354    0.2311    0.7592 H   0  0  0  0  0  0  0  0  0  0  0  0
  1  2  2  0  0  0  0
  1  6  1  0  0  0  0
  2  3  1  0  0  0  0
  3 16  1  0  0  0  0
  3  4  2  0  0  0  0
  4  9  1  0  0  0  0
  5  4  1  0  0  0  0
  5 10  1  0  0  0  0
  6  5  2  0  0  0  0
  7  1  1  0  0  0  0
  8  2  1  0  0  0  0
 12 11  3  0  0  0  0
 13 17  1  0  0  0  0
 13 15  1  0  0  0  0
 14 13  1  0  0  0  0
 18  6  1  0  0  0  0
M  END
