Coordinates from ORCA-job Ph-N2-BF4-B3LYPG-6-31G_dp-MTMO-d009-169-n800
 OpenBabel09051907443D

 18 16  0  0  0  0  0  0  0  0999 V2000
   -1.6818   -0.3244    0.4252 C   0  0  0  0  0  0  0  0  0  0  0  0
   -0.3952    0.1316    0.7197 C   0  0  0  0  0  0  0  0  0  0  0  0
   -0.2357    1.4769    1.0212 C   0  0  0  0  0  0  0  0  0  0  0  0
   -1.2894    2.3796    1.0420 C   0  0  0  0  0  0  0  0  0  0  0  0
   -2.5686    1.9034    0.7464 C   0  0  0  0  0  0  0  0  0  0  0  0
   -2.7666    0.5556    0.4378 C   0  0  0  0  0  0  0  0  0  0  0  0
   -1.8327   -1.3721    0.1832 H   0  0  0  0  0  0  0  0  0  0  0  0
    0.4659   -0.5261    0.7157 H   0  0  0  0  0  0  0  0  0  0  0  0
   -1.1037    3.4197    1.2866 H   0  0  0  0  0  0  0  0  0  0  0  0
   -3.4095    2.5901    0.7571 H   0  0  0  0  0  0  0  0  0  0  0  0
    8.9871   -0.8137   -2.4919 N   0  0  0  0  0  0  0  0  0  0  0  0
    8.0181   -0.5678   -2.0205 N   0  0  0  0  0  0  0  0  0  0  0  0
    3.0243    1.2843    0.1793 B   0  0  0  0  0  0  0  0  0  0  0  0
    2.5296    1.6392   -0.9919 F   0  0  0  0  0  0  0  0  0  0  0  0
    3.7325    2.1400    0.8897 F   0  0  0  0  0  0  0  0  0  0  0  0
    1.0154    1.9412    1.3186 F   0  0  0  0  0  0  0  0  0  0  0  0
    2.9134    0.0263    0.5814 F   0  0  0  0  0  0  0  0  0  0  0  0
   -3.7630    0.1923    0.2065 H   0  0  0  0  0  0  0  0  0  0  0  0
  1  6  2  0  0  0  0
  1  2  1  0  0  0  0
  2  3  2  0  0  0  0
  3  4  1  0  0  0  0
  3 16  1  0  0  0  0
  4  9  1  0  0  0  0
  5 10  1  0  0  0  0
  5  4  2  0  0  0  0
  6  5  1  0  0  0  0
  7  1  1  0  0  0  0
  8  2  1  0  0  0  0
 11 12  3  0  0  0  0
 13 17  1  0  0  0  0
 13 15  1  0  0  0  0
 14 13  1  0  0  0  0
 18  6  1  0  0  0  0
M  END
