Coordinates from ORCA-job Ph-N2-BF4-B3LYPG-6-31G_dp-MTMO-d009-169-n800
 OpenBabel09051907443D

 18 16  0  0  0  0  0  0  0  0999 V2000
   -1.5767   -0.1083    1.0777 C   0  0  0  0  0  0  0  0  0  0  0  0
   -0.1996    0.0773    1.2180 C   0  0  0  0  0  0  0  0  0  0  0  0
    0.3617    1.2192    0.6641 C   0  0  0  0  0  0  0  0  0  0  0  0
   -0.3791    2.1740   -0.0184 C   0  0  0  0  0  0  0  0  0  0  0  0
   -1.7545    1.9704   -0.1470 C   0  0  0  0  0  0  0  0  0  0  0  0
   -2.3543    0.8327    0.3987 C   0  0  0  0  0  0  0  0  0  0  0  0
   -2.0396   -0.9947    1.5009 H   0  0  0  0  0  0  0  0  0  0  0  0
    0.4299   -0.6380    1.7336 H   0  0  0  0  0  0  0  0  0  0  0  0
    0.1164    3.0458   -0.4312 H   0  0  0  0  0  0  0  0  0  0  0  0
   -2.3553    2.7042   -0.6759 H   0  0  0  0  0  0  0  0  0  0  0  0
    4.1871    2.4055   -1.6078 N   0  0  0  0  0  0  0  0  0  0  0  0
    5.1130    2.3226   -2.2054 N   0  0  0  0  0  0  0  0  0  0  0  0
    3.4292   -0.2349    0.6037 B   0  0  0  0  0  0  0  0  0  0  0  0
    3.1479   -0.4471   -0.6684 F   0  0  0  0  0  0  0  0  0  0  0  0
    4.3492    0.6480    0.9418 F   0  0  0  0  0  0  0  0  0  0  0  0
    1.7076    1.4238    0.7949 F   0  0  0  0  0  0  0  0  0  0  0  0
    2.8815   -1.0037    1.5337 F   0  0  0  0  0  0  0  0  0  0  0  0
   -3.4238    0.6791    0.2929 H   0  0  0  0  0  0  0  0  0  0  0  0
  1  2  1  0  0  0  0
  1  7  1  0  0  0  0
  2  8  1  0  0  0  0
  3 16  1  0  0  0  0
  3  2  2  0  0  0  0
  4  3  1  0  0  0  0
  5  4  2  0  0  0  0
  5  6  1  0  0  0  0
  6  1  2  0  0  0  0
  9  4  1  0  0  0  0
 10  5  1  0  0  0  0
 12 11  3  0  0  0  0
 13 15  1  0  0  0  0
 13 17  1  0  0  0  0
 14 13  1  0  0  0  0
 18  6  1  0  0  0  0
M  END
