Coordinates from ORCA-job Ph-N2-BF4-B3LYPG-6-31G_dp-MTMO-d009-169-n800
 OpenBabel09051907443D

 18 16  0  0  0  0  0  0  0  0999 V2000
   -1.8752   -0.2820    0.4347 C   0  0  0  0  0  0  0  0  0  0  0  0
   -0.5591    0.1719    0.5447 C   0  0  0  0  0  0  0  0  0  0  0  0
   -0.3547    1.4680    0.9966 C   0  0  0  0  0  0  0  0  0  0  0  0
   -1.3914    2.3246    1.3386 C   0  0  0  0  0  0  0  0  0  0  0  0
   -2.7002    1.8514    1.2228 C   0  0  0  0  0  0  0  0  0  0  0  0
   -2.9438    0.5520    0.7720 C   0  0  0  0  0  0  0  0  0  0  0  0
   -2.0623   -1.2916    0.0823 H   0  0  0  0  0  0  0  0  0  0  0  0
    0.2897   -0.4498    0.2863 H   0  0  0  0  0  0  0  0  0  0  0  0
   -1.1696    3.3278    1.6853 H   0  0  0  0  0  0  0  0  0  0  0  0
   -3.5282    2.5026    1.4855 H   0  0  0  0  0  0  0  0  0  0  0  0
   10.6294   -1.4599   -1.6580 N   0  0  0  0  0  0  0  0  0  0  0  0
    9.6606   -0.9721   -1.8703 N   0  0  0  0  0  0  0  0  0  0  0  0
    2.6478    1.5617   -0.5069 B   0  0  0  0  0  0  0  0  0  0  0  0
    1.9081    2.0902   -1.4640 F   0  0  0  0  0  0  0  0  0  0  0  0
    3.4896    2.3128    0.1758 F   0  0  0  0  0  0  0  0  0  0  0  0
    0.9273    1.9283    1.1186 F   0  0  0  0  0  0  0  0  0  0  0  0
    2.6362    0.2495   -0.3209 F   0  0  0  0  0  0  0  0  0  0  0  0
   -3.9636    0.1905    0.6828 H   0  0  0  0  0  0  0  0  0  0  0  0
  1  2  2  0  0  0  0
  1  6  1  0  0  0  0
  2  3  1  0  0  0  0
  3 16  1  0  0  0  0
  3  4  2  0  0  0  0
  4  9  1  0  0  0  0
  5  4  1  0  0  0  0
  5 10  1  0  0  0  0
  6  5  2  0  0  0  0
  7  1  1  0  0  0  0
  8  2  1  0  0  0  0
 12 11  3  0  0  0  0
 13 17  1  0  0  0  0
 13 15  1  0  0  0  0
 14 13  1  0  0  0  0
 18  6  1  0  0  0  0
M  END
