Coordinates from ORCA-job Ph-N2-BF4-B3LYPG-6-31G_dp-MTMO-d009-169-n800
 OpenBabel09051907443D

 18 16  0  0  0  0  0  0  0  0999 V2000
   -1.3718   -0.3573    0.4142 C   0  0  0  0  0  0  0  0  0  0  0  0
   -0.0870    0.0588    0.7695 C   0  0  0  0  0  0  0  0  0  0  0  0
    0.1145    1.4097    1.0158 C   0  0  0  0  0  0  0  0  0  0  0  0
   -0.8969    2.3554    0.9231 C   0  0  0  0  0  0  0  0  0  0  0  0
   -2.1749    1.9194    0.5674 C   0  0  0  0  0  0  0  0  0  0  0  0
   -2.4143    0.5669    0.3128 C   0  0  0  0  0  0  0  0  0  0  0  0
   -1.5543   -1.4089    0.2140 H   0  0  0  0  0  0  0  0  0  0  0  0
    0.7422   -0.6339    0.8517 H   0  0  0  0  0  0  0  0  0  0  0  0
   -0.6796    3.3981    1.1280 H   0  0  0  0  0  0  0  0  0  0  0  0
   -2.9825    2.6409    0.4885 H   0  0  0  0  0  0  0  0  0  0  0  0
    6.1007   -0.4068   -2.1865 N   0  0  0  0  0  0  0  0  0  0  0  0
    5.4578    0.1070   -1.4502 N   0  0  0  0  0  0  0  0  0  0  0  0
    3.3428    1.0993    0.1482 B   0  0  0  0  0  0  0  0  0  0  0  0
    2.7695    1.4409   -0.9912 F   0  0  0  0  0  0  0  0  0  0  0  0
    4.1051    1.9588    0.7951 F   0  0  0  0  0  0  0  0  0  0  0  0
    1.3630    1.8338    1.3722 F   0  0  0  0  0  0  0  0  0  0  0  0
    3.2155   -0.1404    0.5988 F   0  0  0  0  0  0  0  0  0  0  0  0
   -3.4094    0.2344    0.0346 H   0  0  0  0  0  0  0  0  0  0  0  0
  1  2  1  0  0  0  0
  2  8  1  0  0  0  0
  2  3  2  0  0  0  0
  3 16  1  0  0  0  0
  4  3  1  0  0  0  0
  4  9  1  0  0  0  0
  5  4  2  0  0  0  0
  6  1  2  0  0  0  0
  6  5  1  0  0  0  0
  7  1  1  0  0  0  0
 10  5  1  0  0  0  0
 11 12  3  0  0  0  0
 13 17  1  0  0  0  0
 13 15  1  0  0  0  0
 14 13  1  0  0  0  0
 18  6  1  0  0  0  0
M  END
