Coordinates from ORCA-job Ph-N2-BF4-B3LYPG-6-31G_dp-MTMO-d009-169-n800
 OpenBabel09051907443D

 18 16  0  0  0  0  0  0  0  0999 V2000
   -1.6915   -0.3210    0.4233 C   0  0  0  0  0  0  0  0  0  0  0  0
   -0.4052    0.1389    0.7136 C   0  0  0  0  0  0  0  0  0  0  0  0
   -0.2503    1.4828    1.0233 C   0  0  0  0  0  0  0  0  0  0  0  0
   -1.3079    2.3806    1.0565 C   0  0  0  0  0  0  0  0  0  0  0  0
   -2.5865    1.9005    0.7648 C   0  0  0  0  0  0  0  0  0  0  0  0
   -2.7802    0.5540    0.4482 C   0  0  0  0  0  0  0  0  0  0  0  0
   -1.8388   -1.3677    0.1750 H   0  0  0  0  0  0  0  0  0  0  0  0
    0.4586   -0.5151    0.7004 H   0  0  0  0  0  0  0  0  0  0  0  0
   -1.1254    3.4197    1.3072 H   0  0  0  0  0  0  0  0  0  0  0  0
   -3.4305    2.5833    0.7852 H   0  0  0  0  0  0  0  0  0  0  0  0
    9.1075   -0.8562   -2.5078 N   0  0  0  0  0  0  0  0  0  0  0  0
    8.1355   -0.6116   -2.0420 N   0  0  0  0  0  0  0  0  0  0  0  0
    3.0070    1.2991    0.1702 B   0  0  0  0  0  0  0  0  0  0  0  0
    2.5098    1.6574   -0.9990 F   0  0  0  0  0  0  0  0  0  0  0  0
    3.7162    2.1528    0.8820 F   0  0  0  0  0  0  0  0  0  0  0  0
    1.0004    1.9512    1.3169 F   0  0  0  0  0  0  0  0  0  0  0  0
    2.8982    0.0396    0.5681 F   0  0  0  0  0  0  0  0  0  0  0  0
   -3.7762    0.1877    0.2200 H   0  0  0  0  0  0  0  0  0  0  0  0
  1  6  2  0  0  0  0
  1  2  1  0  0  0  0
  2  3  2  0  0  0  0
  3  4  1  0  0  0  0
  3 16  1  0  0  0  0
  4  9  1  0  0  0  0
  5 10  1  0  0  0  0
  5  4  2  0  0  0  0
  6  5  1  0  0  0  0
  7  1  1  0  0  0  0
  8  2  1  0  0  0  0
 11 12  3  0  0  0  0
 13 17  1  0  0  0  0
 13 15  1  0  0  0  0
 14 13  1  0  0  0  0
 18  6  1  0  0  0  0
M  END
