Coordinates from ORCA-job Ph-N2-BF4-B3LYPG-6-31G_dp-MTMO-d009-169-n800
 OpenBabel09051907443D

 18 16  0  0  0  0  0  0  0  0999 V2000
   -1.3313   -0.3655    0.3913 C   0  0  0  0  0  0  0  0  0  0  0  0
   -0.0597    0.0586    0.7824 C   0  0  0  0  0  0  0  0  0  0  0  0
    0.1252    1.4100    1.0393 C   0  0  0  0  0  0  0  0  0  0  0  0
   -0.8902    2.3488    0.9234 C   0  0  0  0  0  0  0  0  0  0  0  0
   -2.1551    1.9047    0.5321 C   0  0  0  0  0  0  0  0  0  0  0  0
   -2.3775    0.5517    0.2659 C   0  0  0  0  0  0  0  0  0  0  0  0
   -1.5008   -1.4174    0.1818 H   0  0  0  0  0  0  0  0  0  0  0  0
    0.7729   -0.6275    0.8840 H   0  0  0  0  0  0  0  0  0  0  0  0
   -0.6866    3.3921    1.1382 H   0  0  0  0  0  0  0  0  0  0  0  0
   -2.9658    2.6205    0.4345 H   0  0  0  0  0  0  0  0  0  0  0  0
    5.8340   -0.5270   -2.2917 N   0  0  0  0  0  0  0  0  0  0  0  0
    5.3701    0.0804   -1.4944 N   0  0  0  0  0  0  0  0  0  0  0  0
    3.3605    1.1576    0.2181 B   0  0  0  0  0  0  0  0  0  0  0  0
    2.7839    1.4962   -0.9207 F   0  0  0  0  0  0  0  0  0  0  0  0
    4.1116    2.0243    0.8686 F   0  0  0  0  0  0  0  0  0  0  0  0
    1.3607    1.8415    1.4306 F   0  0  0  0  0  0  0  0  0  0  0  0
    3.2511   -0.0861    0.6624 F   0  0  0  0  0  0  0  0  0  0  0  0
   -3.3625    0.2131   -0.0399 H   0  0  0  0  0  0  0  0  0  0  0  0
  1  2  1  0  0  0  0
  2  8  1  0  0  0  0
  2  3  2  0  0  0  0
  3 16  1  0  0  0  0
  4  3  1  0  0  0  0
  4  9  1  0  0  0  0
  5  4  2  0  0  0  0
  6  1  2  0  0  0  0
  6  5  1  0  0  0  0
  7  1  1  0  0  0  0
 10  5  1  0  0  0  0
 11 12  3  0  0  0  0
 13 17  1  0  0  0  0
 13 15  1  0  0  0  0
 14 13  1  0  0  0  0
 18  6  1  0  0  0  0
M  END
