Coordinates from ORCA-job Ph-N2-BF4-B3LYPG-6-31G_dp-MTMO-d009-169-n800
 OpenBabel09051907443D

 18 16  0  0  0  0  0  0  0  0999 V2000
   -1.5558   -0.2072    0.9475 C   0  0  0  0  0  0  0  0  0  0  0  0
   -0.2022    0.0399    1.1866 C   0  0  0  0  0  0  0  0  0  0  0  0
    0.3120    1.2688    0.7974 C   0  0  0  0  0  0  0  0  0  0  0  0
   -0.4521    2.2523    0.1854 C   0  0  0  0  0  0  0  0  0  0  0  0
   -1.8038    1.9860   -0.0435 C   0  0  0  0  0  0  0  0  0  0  0  0
   -2.3565    0.7602    0.3353 C   0  0  0  0  0  0  0  0  0  0  0  0
   -1.9819   -1.1614    1.2419 H   0  0  0  0  0  0  0  0  0  0  0  0
    0.4446   -0.6925    1.6549 H   0  0  0  0  0  0  0  0  0  0  0  0
    0.0059    3.1933   -0.0981 H   0  0  0  0  0  0  0  0  0  0  0  0
   -2.4228    2.7405   -0.5194 H   0  0  0  0  0  0  0  0  0  0  0  0
    4.6026    2.4773   -2.2606 N   0  0  0  0  0  0  0  0  0  0  0  0
    5.1703    1.5570   -2.0322 N   0  0  0  0  0  0  0  0  0  0  0  0
    3.3912   -0.0346    0.6120 B   0  0  0  0  0  0  0  0  0  0  0  0
    2.9969   -0.1948   -0.6382 F   0  0  0  0  0  0  0  0  0  0  0  0
    4.3008    0.8728    0.9104 F   0  0  0  0  0  0  0  0  0  0  0  0
    1.6340    1.5326    1.0296 F   0  0  0  0  0  0  0  0  0  0  0  0
    2.9645   -0.8728    1.5450 F   0  0  0  0  0  0  0  0  0  0  0  0
   -3.4071    0.5586    0.1518 H   0  0  0  0  0  0  0  0  0  0  0  0
  1  2  1  0  0  0  0
  1  7  1  0  0  0  0
  2  8  1  0  0  0  0
  3 16  1  0  0  0  0
  3  2  2  0  0  0  0
  4  3  1  0  0  0  0
  5  4  2  0  0  0  0
  5  6  1  0  0  0  0
  6  1  2  0  0  0  0
  9  4  1  0  0  0  0
 10  5  1  0  0  0  0
 11 12  3  0  0  0  0
 13 15  1  0  0  0  0
 13 17  1  0  0  0  0
 14 13  1  0  0  0  0
 18  6  1  0  0  0  0
M  END
