Coordinates from ORCA-job Ph-N2-BF4-B3LYPG-6-31G_dp-MTMO-d009-169-n800
 OpenBabel09051907443D

 18 16  0  0  0  0  0  0  0  0999 V2000
   -1.2886   -0.0928    0.3539 C   0  0  0  0  0  0  0  0  0  0  0  0
    0.0540    0.0336    0.7172 C   0  0  0  0  0  0  0  0  0  0  0  0
    0.6056    1.3073    0.7374 C   0  0  0  0  0  0  0  0  0  0  0  0
   -0.1160    2.4488    0.4155 C   0  0  0  0  0  0  0  0  0  0  0  0
   -1.4570    2.3013    0.0558 C   0  0  0  0  0  0  0  0  0  0  0  0
   -2.0446    1.0342    0.0232 C   0  0  0  0  0  0  0  0  0  0  0  0
   -1.7425   -1.0791    0.3307 H   0  0  0  0  0  0  0  0  0  0  0  0
    0.6634   -0.8218    0.9815 H   0  0  0  0  0  0  0  0  0  0  0  0
    0.3685    3.4184    0.4494 H   0  0  0  0  0  0  0  0  0  0  0  0
   -2.0402    3.1804   -0.2007 H   0  0  0  0  0  0  0  0  0  0  0  0
    2.2902    1.3114   -1.9157 N   0  0  0  0  0  0  0  0  0  0  0  0
    2.2543    1.1922   -3.0139 N   0  0  0  0  0  0  0  0  0  0  0  0
    3.7956   -0.1135    1.3055 B   0  0  0  0  0  0  0  0  0  0  0  0
    4.1922    0.0469    0.0572 F   0  0  0  0  0  0  0  0  0  0  0  0
    4.2840    0.6502    2.2621 F   0  0  0  0  0  0  0  0  0  0  0  0
    1.9144    1.4560    1.0943 F   0  0  0  0  0  0  0  0  0  0  0  0
    2.9939   -1.1232    1.6122 F   0  0  0  0  0  0  0  0  0  0  0  0
   -3.0867    0.9257   -0.2598 H   0  0  0  0  0  0  0  0  0  0  0  0
  1  2  2  0  0  0  0
  2  3  1  0  0  0  0
  2  8  1  0  0  0  0
  3 16  1  0  0  0  0
  4  9  1  0  0  0  0
  4  3  2  0  0  0  0
  5  4  1  0  0  0  0
  6  5  2  0  0  0  0
  6  1  1  0  0  0  0
  7  1  1  0  0  0  0
 10  5  1  0  0  0  0
 12 11  3  0  0  0  0
 13 17  1  0  0  0  0
 13 15  1  0  0  0  0
 14 13  1  0  0  0  0
 18  6  1  0  0  0  0
M  END
