Coordinates from ORCA-job Ph-N2-BF4-B3LYPG-6-31G_dp-MTMO-d009-169-n800
 OpenBabel09051907443D

 18 16  0  0  0  0  0  0  0  0999 V2000
   -2.1494   -0.2228    0.4916 C   0  0  0  0  0  0  0  0  0  0  0  0
   -0.8307    0.2291    0.5767 C   0  0  0  0  0  0  0  0  0  0  0  0
   -0.6149    1.5176    1.0447 C   0  0  0  0  0  0  0  0  0  0  0  0
   -1.6425    2.3688    1.4256 C   0  0  0  0  0  0  0  0  0  0  0  0
   -2.9540    1.8978    1.3338 C   0  0  0  0  0  0  0  0  0  0  0  0
   -3.2091    0.6057    0.8683 C   0  0  0  0  0  0  0  0  0  0  0  0
   -2.3453   -1.2266    0.1278 H   0  0  0  0  0  0  0  0  0  0  0  0
    0.0109   -0.3885    0.2871 H   0  0  0  0  0  0  0  0  0  0  0  0
   -1.4117    3.3661    1.7828 H   0  0  0  0  0  0  0  0  0  0  0  0
   -3.7750    2.5448    1.6269 H   0  0  0  0  0  0  0  0  0  0  0  0
   12.8206   -1.9606   -2.0379 N   0  0  0  0  0  0  0  0  0  0  0  0
   11.8418   -1.4767   -2.2092 N   0  0  0  0  0  0  0  0  0  0  0  0
    2.3430    1.6573   -0.5407 B   0  0  0  0  0  0  0  0  0  0  0  0
    1.5887    2.2378   -1.4553 F   0  0  0  0  0  0  0  0  0  0  0  0
    3.2109    2.3663    0.1543 F   0  0  0  0  0  0  0  0  0  0  0  0
    0.6701    1.9757    1.1438 F   0  0  0  0  0  0  0  0  0  0  0  0
    2.3179    0.3383   -0.4131 F   0  0  0  0  0  0  0  0  0  0  0  0
   -4.2309    0.2457    0.7984 H   0  0  0  0  0  0  0  0  0  0  0  0
  1  2  2  0  0  0  0
  1  6  1  0  0  0  0
  2  3  1  0  0  0  0
  3 16  1  0  0  0  0
  3  4  2  0  0  0  0
  4  9  1  0  0  0  0
  5  4  1  0  0  0  0
  5 10  1  0  0  0  0
  6  5  2  0  0  0  0
  7  1  1  0  0  0  0
  8  2  1  0  0  0  0
 12 11  3  0  0  0  0
 13 17  1  0  0  0  0
 13 15  1  0  0  0  0
 14 13  1  0  0  0  0
 18  6  1  0  0  0  0
M  END
