Coordinates from ORCA-job Ph-N2-BF4-B3LYPG-6-31G_dp-MTMO-d009-169-n800
 OpenBabel09051907443D

 18 16  0  0  0  0  0  0  0  0999 V2000
   -1.5489   -0.2686    0.8660 C   0  0  0  0  0  0  0  0  0  0  0  0
   -0.2104    0.0240    1.1364 C   0  0  0  0  0  0  0  0  0  0  0  0
    0.2426    1.3067    0.8610 C   0  0  0  0  0  0  0  0  0  0  0  0
   -0.5685    2.3006    0.3318 C   0  0  0  0  0  0  0  0  0  0  0  0
   -1.9043    1.9885    0.0699 C   0  0  0  0  0  0  0  0  0  0  0  0
   -2.3955    0.7078    0.3353 C   0  0  0  0  0  0  0  0  0  0  0  0
   -1.9276   -1.2649    1.0727 H   0  0  0  0  0  0  0  0  0  0  0  0
    0.4710   -0.7132    1.5443 H   0  0  0  0  0  0  0  0  0  0  0  0
   -0.1574    3.2845    0.1353 H   0  0  0  0  0  0  0  0  0  0  0  0
   -2.5590    2.7500   -0.3426 H   0  0  0  0  0  0  0  0  0  0  0  0
    5.1124    2.1012   -2.5288 N   0  0  0  0  0  0  0  0  0  0  0  0
    5.4232    1.1881   -1.9894 N   0  0  0  0  0  0  0  0  0  0  0  0
    3.3644    0.1680    0.5719 B   0  0  0  0  0  0  0  0  0  0  0  0
    2.9397    0.0655   -0.6748 F   0  0  0  0  0  0  0  0  0  0  0  0
    4.2368    1.1000    0.9028 F   0  0  0  0  0  0  0  0  0  0  0  0
    1.5484    1.6148    1.1272 F   0  0  0  0  0  0  0  0  0  0  0  0
    3.0077   -0.7480    1.4598 F   0  0  0  0  0  0  0  0  0  0  0  0
   -3.4341    0.4709    0.1271 H   0  0  0  0  0  0  0  0  0  0  0  0
  1  7  1  0  0  0  0
  1  2  1  0  0  0  0
  2  8  1  0  0  0  0
  3 16  1  0  0  0  0
  3  2  2  0  0  0  0
  4  3  1  0  0  0  0
  5  4  2  0  0  0  0
  5  6  1  0  0  0  0
  6  1  2  0  0  0  0
  9  4  1  0  0  0  0
 10  5  1  0  0  0  0
 11 12  3  0  0  0  0
 13 15  1  0  0  0  0
 13 17  1  0  0  0  0
 14 13  1  0  0  0  0
 18  6  1  0  0  0  0
M  END
