Coordinates from ORCA-job Ph-N2-BF4-B3LYPG-6-31G_dp-MTMO-d009-169-n800
 OpenBabel09051907443D

 18 16  0  0  0  0  0  0  0  0999 V2000
   -2.4031   -0.1735    0.5501 C   0  0  0  0  0  0  0  0  0  0  0  0
   -1.0848    0.2844    0.6039 C   0  0  0  0  0  0  0  0  0  0  0  0
   -0.8627    1.5698    1.0775 C   0  0  0  0  0  0  0  0  0  0  0  0
   -1.8840    2.4126    1.4927 C   0  0  0  0  0  0  0  0  0  0  0  0
   -3.1952    1.9359    1.4315 C   0  0  0  0  0  0  0  0  0  0  0  0
   -3.4564    0.6465    0.9620 C   0  0  0  0  0  0  0  0  0  0  0  0
   -2.6040   -1.1752    0.1833 H   0  0  0  0  0  0  0  0  0  0  0  0
   -0.2480   -0.3260    0.2863 H   0  0  0  0  0  0  0  0  0  0  0  0
   -1.6486    3.4081    1.8520 H   0  0  0  0  0  0  0  0  0  0  0  0
   -4.0112    2.5764    1.7516 H   0  0  0  0  0  0  0  0  0  0  0  0
   14.8316   -2.4241   -2.3805 N   0  0  0  0  0  0  0  0  0  0  0  0
   13.8452   -1.9552   -2.5503 N   0  0  0  0  0  0  0  0  0  0  0  0
    2.0823    1.7520   -0.5562 B   0  0  0  0  0  0  0  0  0  0  0  0
    1.3433    2.3968   -1.4395 F   0  0  0  0  0  0  0  0  0  0  0  0
    2.9670    2.4033    0.1734 F   0  0  0  0  0  0  0  0  0  0  0  0
    0.4222    2.0331    1.1472 F   0  0  0  0  0  0  0  0  0  0  0  0
    2.0248    0.4292   -0.4958 F   0  0  0  0  0  0  0  0  0  0  0  0
   -4.4779    0.2818    0.9168 H   0  0  0  0  0  0  0  0  0  0  0  0
  1  2  2  0  0  0  0
  1  6  1  0  0  0  0
  2  3  1  0  0  0  0
  3 16  1  0  0  0  0
  3  4  2  0  0  0  0
  4  9  1  0  0  0  0
  5  4  1  0  0  0  0
  5 10  1  0  0  0  0
  6  5  2  0  0  0  0
  7  1  1  0  0  0  0
  8  2  1  0  0  0  0
 12 11  3  0  0  0  0
 13 17  1  0  0  0  0
 13 15  1  0  0  0  0
 14 13  1  0  0  0  0
 18  6  1  0  0  0  0
M  END
