Coordinates from ORCA-job Ph-N2-BF4-B3LYPG-6-31G_dp-MTMO-d009-169-n800
 OpenBabel09051907443D

 18 16  0  0  0  0  0  0  0  0999 V2000
   -1.5726   -0.1715    0.9915 C   0  0  0  0  0  0  0  0  0  0  0  0
   -0.2115    0.0520    1.2101 C   0  0  0  0  0  0  0  0  0  0  0  0
    0.3297    1.2503    0.7660 C   0  0  0  0  0  0  0  0  0  0  0  0
   -0.4156    2.2253    0.1182 C   0  0  0  0  0  0  0  0  0  0  0  0
   -1.7750    1.9832   -0.0899 C   0  0  0  0  0  0  0  0  0  0  0  0
   -2.3544    0.7884    0.3444 C   0  0  0  0  0  0  0  0  0  0  0  0
   -2.0195   -1.1018    1.3288 H   0  0  0  0  0  0  0  0  0  0  0  0
    0.4215   -0.6757    1.7040 H   0  0  0  0  0  0  0  0  0  0  0  0
    0.0635    3.1415   -0.2085 H   0  0  0  0  0  0  0  0  0  0  0  0
   -2.3792    2.7319   -0.5934 H   0  0  0  0  0  0  0  0  0  0  0  0
    4.3469    2.3020   -1.8445 N   0  0  0  0  0  0  0  0  0  0  0  0
    5.2781    1.9895   -2.3511 N   0  0  0  0  0  0  0  0  0  0  0  0
    3.3967   -0.1094    0.6229 B   0  0  0  0  0  0  0  0  0  0  0  0
    3.0343   -0.2964   -0.6330 F   0  0  0  0  0  0  0  0  0  0  0  0
    4.3213    0.7833    0.9203 F   0  0  0  0  0  0  0  0  0  0  0  0
    1.6594    1.4910    0.9767 F   0  0  0  0  0  0  0  0  0  0  0  0
    2.9278   -0.9127    1.5664 F   0  0  0  0  0  0  0  0  0  0  0  0
   -3.4111    0.6051    0.1769 H   0  0  0  0  0  0  0  0  0  0  0  0
  1  2  1  0  0  0  0
  1  7  1  0  0  0  0
  2  8  1  0  0  0  0
  3 16  1  0  0  0  0
  3  2  2  0  0  0  0
  4  3  1  0  0  0  0
  5  4  2  0  0  0  0
  5  6  1  0  0  0  0
  6  1  2  0  0  0  0
  9  4  1  0  0  0  0
 10  5  1  0  0  0  0
 12 11  3  0  0  0  0
 13 15  1  0  0  0  0
 13 17  1  0  0  0  0
 14 13  1  0  0  0  0
 18  6  1  0  0  0  0
M  END
