Coordinates from ORCA-job Ph-N2-BF4-B3LYPG-6-31G_dp-MTMO-d009-169-n800
 OpenBabel09051907443D

 18 16  0  0  0  0  0  0  0  0999 V2000
   -1.9005   -0.2765    0.4392 C   0  0  0  0  0  0  0  0  0  0  0  0
   -0.5842    0.1778    0.5454 C   0  0  0  0  0  0  0  0  0  0  0  0
   -0.3788    1.4726    1.0005 C   0  0  0  0  0  0  0  0  0  0  0  0
   -1.4147    2.3276    1.3493 C   0  0  0  0  0  0  0  0  0  0  0  0
   -2.7237    1.8540    1.2371 C   0  0  0  0  0  0  0  0  0  0  0  0
   -2.9682    0.5558    0.7833 C   0  0  0  0  0  0  0  0  0  0  0  0
   -2.0883   -1.2852    0.0844 H   0  0  0  0  0  0  0  0  0  0  0  0
    0.2639   -0.4425    0.2817 H   0  0  0  0  0  0  0  0  0  0  0  0
   -1.1921    3.3298    1.6982 H   0  0  0  0  0  0  0  0  0  0  0  0
   -3.5510    2.5038    1.5052 H   0  0  0  0  0  0  0  0  0  0  0  0
   10.8372   -1.5115   -1.6892 N   0  0  0  0  0  0  0  0  0  0  0  0
    9.8669   -1.0238   -1.8952 N   0  0  0  0  0  0  0  0  0  0  0  0
    2.6172    1.5747   -0.5153 B   0  0  0  0  0  0  0  0  0  0  0  0
    1.8735    2.1077   -1.4668 F   0  0  0  0  0  0  0  0  0  0  0  0
    3.4617    2.3226    0.1675 F   0  0  0  0  0  0  0  0  0  0  0  0
    0.9034    1.9334    1.1190 F   0  0  0  0  0  0  0  0  0  0  0  0
    2.6064    0.2616   -0.3355 F   0  0  0  0  0  0  0  0  0  0  0  0
   -3.9881    0.1940    0.6971 H   0  0  0  0  0  0  0  0  0  0  0  0
  1  2  2  0  0  0  0
  1  6  1  0  0  0  0
  2  3  1  0  0  0  0
  3 16  1  0  0  0  0
  3  4  2  0  0  0  0
  4  9  1  0  0  0  0
  5  4  1  0  0  0  0
  5 10  1  0  0  0  0
  6  5  2  0  0  0  0
  7  1  1  0  0  0  0
  8  2  1  0  0  0  0
 12 11  3  0  0  0  0
 13 17  1  0  0  0  0
 13 15  1  0  0  0  0
 14 13  1  0  0  0  0
 18  6  1  0  0  0  0
M  END
