Coordinates from ORCA-job Ph-N2-BF4-B3LYPG-6-31G_dp-MTMO-d009-169-n800
 OpenBabel09051907443D

 18 16  0  0  0  0  0  0  0  0999 V2000
   -2.0329   -0.2462    0.4653 C   0  0  0  0  0  0  0  0  0  0  0  0
   -0.7148    0.2056    0.5603 C   0  0  0  0  0  0  0  0  0  0  0  0
   -0.5027    1.4960    1.0249 C   0  0  0  0  0  0  0  0  0  0  0  0
   -1.5334    2.3489    1.3934 C   0  0  0  0  0  0  0  0  0  0  0  0
   -2.8442    1.8779    1.2919 C   0  0  0  0  0  0  0  0  0  0  0  0
   -3.0956    0.5841    0.8292 C   0  0  0  0  0  0  0  0  0  0  0  0
   -2.2259   -1.2514    0.1037 H   0  0  0  0  0  0  0  0  0  0  0  0
    0.1291   -0.4135    0.2810 H   0  0  0  0  0  0  0  0  0  0  0  0
   -1.3054    3.3476    1.7486 H   0  0  0  0  0  0  0  0  0  0  0  0
   -3.6675    2.5263    1.5753 H   0  0  0  0  0  0  0  0  0  0  0  0
   11.8915   -1.7485   -1.8719 N   0  0  0  0  0  0  0  0  0  0  0  0
   10.9150   -1.2635   -2.0528 N   0  0  0  0  0  0  0  0  0  0  0  0
    2.4684    1.6163   -0.5342 B   0  0  0  0  0  0  0  0  0  0  0  0
    1.7157    2.1731   -1.4648 F   0  0  0  0  0  0  0  0  0  0  0  0
    3.3272    2.3449    0.1516 F   0  0  0  0  0  0  0  0  0  0  0  0
    0.7814    1.9543    1.1331 F   0  0  0  0  0  0  0  0  0  0  0  0
    2.4511    0.3000   -0.3802 F   0  0  0  0  0  0  0  0  0  0  0  0
   -4.1168    0.2241    0.7516 H   0  0  0  0  0  0  0  0  0  0  0  0
  1  2  2  0  0  0  0
  1  6  1  0  0  0  0
  2  3  1  0  0  0  0
  3 16  1  0  0  0  0
  3  4  2  0  0  0  0
  4  9  1  0  0  0  0
  5  4  1  0  0  0  0
  5 10  1  0  0  0  0
  6  5  2  0  0  0  0
  7  1  1  0  0  0  0
  8  2  1  0  0  0  0
 12 11  3  0  0  0  0
 13 17  1  0  0  0  0
 13 15  1  0  0  0  0
 14 13  1  0  0  0  0
 18  6  1  0  0  0  0
M  END
