Coordinates from ORCA-job Ph-N2-BF4-B3LYPG-6-31G_dp-MTMO-d009-169-n800
 OpenBabel09051907443D

 18 16  0  0  0  0  0  0  0  0999 V2000
   -2.2614   -0.2059    0.5220 C   0  0  0  0  0  0  0  0  0  0  0  0
   -0.9444    0.2548    0.5831 C   0  0  0  0  0  0  0  0  0  0  0  0
   -0.7280    1.5414    1.0560 C   0  0  0  0  0  0  0  0  0  0  0  0
   -1.7535    2.3827    1.4638 C   0  0  0  0  0  0  0  0  0  0  0  0
   -3.0633    1.9030    1.3954 C   0  0  0  0  0  0  0  0  0  0  0  0
   -3.3188    0.6124    0.9262 C   0  0  0  0  0  0  0  0  0  0  0  0
   -2.4578   -1.2086    0.1554 H   0  0  0  0  0  0  0  0  0  0  0  0
   -0.1045   -0.3544    0.2716 H   0  0  0  0  0  0  0  0  0  0  0  0
   -1.5223    3.3792    1.8231 H   0  0  0  0  0  0  0  0  0  0  0  0
   -3.8826    2.5422    1.7096 H   0  0  0  0  0  0  0  0  0  0  0  0
   13.7501   -2.1994   -2.1723 N   0  0  0  0  0  0  0  0  0  0  0  0
   12.7722   -1.7144   -2.3461 N   0  0  0  0  0  0  0  0  0  0  0  0
    2.2126    1.7292   -0.5741 B   0  0  0  0  0  0  0  0  0  0  0  0
    1.4653    2.3607   -1.4601 F   0  0  0  0  0  0  0  0  0  0  0  0
    3.0937    2.3936    0.1478 F   0  0  0  0  0  0  0  0  0  0  0  0
    0.5556    2.0076    1.1329 F   0  0  0  0  0  0  0  0  0  0  0  0
    2.1666    0.4064   -0.5034 F   0  0  0  0  0  0  0  0  0  0  0  0
   -4.3393    0.2455    0.8752 H   0  0  0  0  0  0  0  0  0  0  0  0
  1  2  2  0  0  0  0
  1  6  1  0  0  0  0
  2  3  1  0  0  0  0
  3 16  1  0  0  0  0
  3  4  2  0  0  0  0
  4  9  1  0  0  0  0
  5  4  1  0  0  0  0
  5 10  1  0  0  0  0
  6  5  2  0  0  0  0
  7  1  1  0  0  0  0
  8  2  1  0  0  0  0
 12 11  3  0  0  0  0
 13 17  1  0  0  0  0
 13 15  1  0  0  0  0
 14 13  1  0  0  0  0
 18  6  1  0  0  0  0
M  END
