Coordinates from ORCA-job Ph-N2-BF4-B3LYPG-6-31G_dp-MTMO-d009-169-n800
 OpenBabel09051907443D

 18 16  0  0  0  0  0  0  0  0999 V2000
   -1.5415   -0.2639    0.8604 C   0  0  0  0  0  0  0  0  0  0  0  0
   -0.2061    0.0227    1.1517 C   0  0  0  0  0  0  0  0  0  0  0  0
    0.2590    1.3007    0.8753 C   0  0  0  0  0  0  0  0  0  0  0  0
   -0.5365    2.2957    0.3253 C   0  0  0  0  0  0  0  0  0  0  0  0
   -1.8694    1.9896    0.0427 C   0  0  0  0  0  0  0  0  0  0  0  0
   -2.3730    0.7137    0.3085 C   0  0  0  0  0  0  0  0  0  0  0  0
   -1.9296   -1.2566    1.0673 H   0  0  0  0  0  0  0  0  0  0  0  0
    0.4638   -0.7157    1.5761 H   0  0  0  0  0  0  0  0  0  0  0  0
   -0.1162    3.2758    0.1291 H   0  0  0  0  0  0  0  0  0  0  0  0
   -2.5125    2.7520   -0.3863 H   0  0  0  0  0  0  0  0  0  0  0  0
    4.9601    2.1380   -2.5323 N   0  0  0  0  0  0  0  0  0  0  0  0
    5.3404    1.2365   -2.0188 N   0  0  0  0  0  0  0  0  0  0  0  0
    3.3645    0.1477    0.5974 B   0  0  0  0  0  0  0  0  0  0  0  0
    2.9265    0.0414   -0.6446 F   0  0  0  0  0  0  0  0  0  0  0  0
    4.2466    1.0756    0.9140 F   0  0  0  0  0  0  0  0  0  0  0  0
    1.5621    1.6026    1.1623 F   0  0  0  0  0  0  0  0  0  0  0  0
    3.0115   -0.7616    1.4935 F   0  0  0  0  0  0  0  0  0  0  0  0
   -3.4092    0.4818    0.0841 H   0  0  0  0  0  0  0  0  0  0  0  0
  1  7  1  0  0  0  0
  1  2  2  0  0  0  0
  2  8  1  0  0  0  0
  3  2  1  0  0  0  0
  3 16  1  0  0  0  0
  4  3  2  0  0  0  0
  5  6  2  0  0  0  0
  5  4  1  0  0  0  0
  6  1  1  0  0  0  0
  9  4  1  0  0  0  0
 10  5  1  0  0  0  0
 11 12  3  0  0  0  0
 13 15  1  0  0  0  0
 13 17  1  0  0  0  0
 14 13  1  0  0  0  0
 18  6  1  0  0  0  0
M  END
