Coordinates from ORCA-job Ph-N2-BF4-B3LYPG-6-31G_dp-MTMO-d009-169-n800
 OpenBabel09051907443D

 18 16  0  0  0  0  0  0  0  0999 V2000
   -1.9895   -0.2573    0.4570 C   0  0  0  0  0  0  0  0  0  0  0  0
   -0.6733    0.1993    0.5542 C   0  0  0  0  0  0  0  0  0  0  0  0
   -0.4668    1.4913    1.0166 C   0  0  0  0  0  0  0  0  0  0  0  0
   -1.5013    2.3415    1.3810 C   0  0  0  0  0  0  0  0  0  0  0  0
   -2.8102    1.8656    1.2775 C   0  0  0  0  0  0  0  0  0  0  0  0
   -3.0560    0.5701    0.8168 C   0  0  0  0  0  0  0  0  0  0  0  0
   -2.1782   -1.2639    0.0969 H   0  0  0  0  0  0  0  0  0  0  0  0
    0.1735   -0.4174    0.2783 H   0  0  0  0  0  0  0  0  0  0  0  0
   -1.2776    3.3417    1.7348 H   0  0  0  0  0  0  0  0  0  0  0  0
   -3.6364    2.5117    1.5576 H   0  0  0  0  0  0  0  0  0  0  0  0
   11.5770   -1.6894   -1.8165 N   0  0  0  0  0  0  0  0  0  0  0  0
   10.6005   -1.2068   -2.0044 N   0  0  0  0  0  0  0  0  0  0  0  0
    2.5124    1.6149   -0.5295 B   0  0  0  0  0  0  0  0  0  0  0  0
    1.7614    2.1628   -1.4667 F   0  0  0  0  0  0  0  0  0  0  0  0
    3.3647    2.3515    0.1559 F   0  0  0  0  0  0  0  0  0  0  0  0
    0.8154    1.9544    1.1269 F   0  0  0  0  0  0  0  0  0  0  0  0
    2.5004    0.2995   -0.3679 F   0  0  0  0  0  0  0  0  0  0  0  0
   -4.0758    0.2065    0.7375 H   0  0  0  0  0  0  0  0  0  0  0  0
  1  2  2  0  0  0  0
  1  6  1  0  0  0  0
  2  3  1  0  0  0  0
  3 16  1  0  0  0  0
  3  4  2  0  0  0  0
  4  9  1  0  0  0  0
  5  4  1  0  0  0  0
  5 10  1  0  0  0  0
  6  5  2  0  0  0  0
  7  1  1  0  0  0  0
  8  2  1  0  0  0  0
 12 11  3  0  0  0  0
 13 17  1  0  0  0  0
 13 15  1  0  0  0  0
 14 13  1  0  0  0  0
 18  6  1  0  0  0  0
M  END
