Coordinates from ORCA-job Ph-N2-BF4-B3LYPG-6-31G_dp-MTMO-d009-169-n800
 OpenBabel09051907443D

 18 16  0  0  0  0  0  0  0  0999 V2000
   -2.2583   -0.2062    0.5207 C   0  0  0  0  0  0  0  0  0  0  0  0
   -0.9405    0.2522    0.5820 C   0  0  0  0  0  0  0  0  0  0  0  0
   -0.7218    1.5386    1.0542 C   0  0  0  0  0  0  0  0  0  0  0  0
   -1.7459    2.3821    1.4612 C   0  0  0  0  0  0  0  0  0  0  0  0
   -3.0566    1.9048    1.3926 C   0  0  0  0  0  0  0  0  0  0  0  0
   -3.3144    0.6144    0.9241 C   0  0  0  0  0  0  0  0  0  0  0  0
   -2.4566   -1.2087    0.1546 H   0  0  0  0  0  0  0  0  0  0  0  0
   -0.1015   -0.3585    0.2711 H   0  0  0  0  0  0  0  0  0  0  0  0
   -1.5132    3.3784    1.8199 H   0  0  0  0  0  0  0  0  0  0  0  0
   -3.8749    2.5456    1.7062 H   0  0  0  0  0  0  0  0  0  0  0  0
   13.7001   -2.1814   -2.1651 N   0  0  0  0  0  0  0  0  0  0  0  0
   12.7215   -1.6973   -2.3374 N   0  0  0  0  0  0  0  0  0  0  0  0
    2.2219    1.7218   -0.5722 B   0  0  0  0  0  0  0  0  0  0  0  0
    1.4746    2.3516   -1.4595 F   0  0  0  0  0  0  0  0  0  0  0  0
    3.1026    2.3878    0.1487 F   0  0  0  0  0  0  0  0  0  0  0  0
    0.5625    2.0024    1.1311 F   0  0  0  0  0  0  0  0  0  0  0  0
    2.1766    0.3991   -0.4994 F   0  0  0  0  0  0  0  0  0  0  0  0
   -4.3355    0.2493    0.8730 H   0  0  0  0  0  0  0  0  0  0  0  0
  1  2  2  0  0  0  0
  1  6  1  0  0  0  0
  2  3  1  0  0  0  0
  3 16  1  0  0  0  0
  3  4  2  0  0  0  0
  4  9  1  0  0  0  0
  5  4  1  0  0  0  0
  5 10  1  0  0  0  0
  6  5  2  0  0  0  0
  7  1  1  0  0  0  0
  8  2  1  0  0  0  0
 12 11  3  0  0  0  0
 13 17  1  0  0  0  0
 13 15  1  0  0  0  0
 14 13  1  0  0  0  0
 18  6  1  0  0  0  0
M  END
