Coordinates from ORCA-job Ph-N2-BF4-B3LYPG-6-31G_dp-MTMO-d009-169-n800
 OpenBabel09051907443D

 18 16  0  0  0  0  0  0  0  0999 V2000
   -1.4274   -0.3447    0.4334 C   0  0  0  0  0  0  0  0  0  0  0  0
   -0.1256    0.0681    0.7251 C   0  0  0  0  0  0  0  0  0  0  0  0
    0.0903    1.4175    0.9679 C   0  0  0  0  0  0  0  0  0  0  0  0
   -0.9234    2.3648    0.9320 C   0  0  0  0  0  0  0  0  0  0  0  0
   -2.2185    1.9320    0.6396 C   0  0  0  0  0  0  0  0  0  0  0  0
   -2.4723    0.5813    0.3902 C   0  0  0  0  0  0  0  0  0  0  0  0
   -1.6215   -1.3949    0.2373 H   0  0  0  0  0  0  0  0  0  0  0  0
    0.7059   -0.6258    0.7619 H   0  0  0  0  0  0  0  0  0  0  0  0
   -0.6946    3.4062    1.1311 H   0  0  0  0  0  0  0  0  0  0  0  0
   -3.0281    2.6548    0.6061 H   0  0  0  0  0  0  0  0  0  0  0  0
    6.4586   -0.2937   -1.9916 N   0  0  0  0  0  0  0  0  0  0  0  0
    5.6054    0.0932   -1.4069 N   0  0  0  0  0  0  0  0  0  0  0  0
    3.3392    1.0416    0.0492 B   0  0  0  0  0  0  0  0  0  0  0  0
    2.7930    1.3892   -1.1011 F   0  0  0  0  0  0  0  0  0  0  0  0
    4.1043    1.8899    0.7076 F   0  0  0  0  0  0  0  0  0  0  0  0
    1.3560    1.8382    1.2606 F   0  0  0  0  0  0  0  0  0  0  0  0
    3.1801   -0.1932    0.5026 F   0  0  0  0  0  0  0  0  0  0  0  0
   -3.4808    0.2515    0.1610 H   0  0  0  0  0  0  0  0  0  0  0  0
  1  2  1  0  0  0  0
  2  8  1  0  0  0  0
  2  3  2  0  0  0  0
  3 16  1  0  0  0  0
  4  3  1  0  0  0  0
  4  9  1  0  0  0  0
  5  4  2  0  0  0  0
  6  1  2  0  0  0  0
  6  5  1  0  0  0  0
  7  1  1  0  0  0  0
 10  5  1  0  0  0  0
 11 12  3  0  0  0  0
 13 17  1  0  0  0  0
 13 15  1  0  0  0  0
 14 13  1  0  0  0  0
 18  6  1  0  0  0  0
M  END
