Coordinates from ORCA-job Ph-N2-BF4-B3LYPG-6-31G_dp-MTMO-d009-169-n800
 OpenBabel09051907443D

 18 16  0  0  0  0  0  0  0  0999 V2000
   -1.5520   -0.2689    0.8686 C   0  0  0  0  0  0  0  0  0  0  0  0
   -0.2129    0.0233    1.1365 C   0  0  0  0  0  0  0  0  0  0  0  0
    0.2400    1.3058    0.8599 C   0  0  0  0  0  0  0  0  0  0  0  0
   -0.5717    2.2998    0.3318 C   0  0  0  0  0  0  0  0  0  0  0  0
   -1.9080    1.9880    0.0723 C   0  0  0  0  0  0  0  0  0  0  0  0
   -2.3992    0.7076    0.3389 C   0  0  0  0  0  0  0  0  0  0  0  0
   -1.9308   -1.2649    1.0762 H   0  0  0  0  0  0  0  0  0  0  0  0
    0.4689   -0.7139    1.5435 H   0  0  0  0  0  0  0  0  0  0  0  0
   -0.1606    3.2835    0.1342 H   0  0  0  0  0  0  0  0  0  0  0  0
   -2.5632    2.7496   -0.3395 H   0  0  0  0  0  0  0  0  0  0  0  0
    5.1335    2.1010   -2.5309 N   0  0  0  0  0  0  0  0  0  0  0  0
    5.4373    1.1871   -1.9888 N   0  0  0  0  0  0  0  0  0  0  0  0
    3.3649    0.1699    0.5686 B   0  0  0  0  0  0  0  0  0  0  0  0
    2.9437    0.0679   -0.6793 F   0  0  0  0  0  0  0  0  0  0  0  0
    4.2365    1.1018    0.9021 F   0  0  0  0  0  0  0  0  0  0  0  0
    1.5463    1.6136    1.1238 F   0  0  0  0  0  0  0  0  0  0  0  0
    3.0059   -0.7464    1.4553 F   0  0  0  0  0  0  0  0  0  0  0  0
   -3.4382    0.4710    0.1326 H   0  0  0  0  0  0  0  0  0  0  0  0
  1  7  1  0  0  0  0
  1  2  1  0  0  0  0
  2  8  1  0  0  0  0
  3 16  1  0  0  0  0
  3  2  2  0  0  0  0
  4  3  1  0  0  0  0
  5  4  2  0  0  0  0
  5  6  1  0  0  0  0
  6  1  2  0  0  0  0
  9  4  1  0  0  0  0
 10  5  1  0  0  0  0
 11 12  3  0  0  0  0
 13 15  1  0  0  0  0
 13 17  1  0  0  0  0
 14 13  1  0  0  0  0
 18  6  1  0  0  0  0
M  END
