Coordinates from ORCA-job Ph-N2-BF4-B3LYPG-6-31G_dp-MTMO-d009-169-n800
 OpenBabel09051907443D

 18 16  0  0  0  0  0  0  0  0999 V2000
   -2.3944   -0.1755    0.5484 C   0  0  0  0  0  0  0  0  0  0  0  0
   -1.0761    0.2825    0.6022 C   0  0  0  0  0  0  0  0  0  0  0  0
   -0.8542    1.5679    1.0758 C   0  0  0  0  0  0  0  0  0  0  0  0
   -1.8755    2.4106    1.4910 C   0  0  0  0  0  0  0  0  0  0  0  0
   -3.1867    1.9337    1.4298 C   0  0  0  0  0  0  0  0  0  0  0  0
   -3.4477    0.6444    0.9603 C   0  0  0  0  0  0  0  0  0  0  0  0
   -2.5951   -1.1772    0.1815 H   0  0  0  0  0  0  0  0  0  0  0  0
   -0.2392   -0.3277    0.2847 H   0  0  0  0  0  0  0  0  0  0  0  0
   -1.6403    3.4061    1.8504 H   0  0  0  0  0  0  0  0  0  0  0  0
   -4.0028    2.5741    1.7499 H   0  0  0  0  0  0  0  0  0  0  0  0
   14.7631   -2.4101   -2.3667 N   0  0  0  0  0  0  0  0  0  0  0  0
   13.7775   -1.9395   -2.5367 N   0  0  0  0  0  0  0  0  0  0  0  0
    2.0906    1.7507   -0.5580 B   0  0  0  0  0  0  0  0  0  0  0  0
    1.3512    2.3950   -1.4413 F   0  0  0  0  0  0  0  0  0  0  0  0
    2.9752    2.4023    0.1713 F   0  0  0  0  0  0  0  0  0  0  0  0
    0.4306    2.0314    1.1456 F   0  0  0  0  0  0  0  0  0  0  0  0
    2.0335    0.4278   -0.4974 F   0  0  0  0  0  0  0  0  0  0  0  0
   -4.4692    0.2796    0.9150 H   0  0  0  0  0  0  0  0  0  0  0  0
  1  2  2  0  0  0  0
  1  6  1  0  0  0  0
  2  3  1  0  0  0  0
  3 16  1  0  0  0  0
  3  4  2  0  0  0  0
  4  9  1  0  0  0  0
  5  4  1  0  0  0  0
  5 10  1  0  0  0  0
  6  5  2  0  0  0  0
  7  1  1  0  0  0  0
  8  2  1  0  0  0  0
 12 11  3  0  0  0  0
 13 17  1  0  0  0  0
 13 15  1  0  0  0  0
 14 13  1  0  0  0  0
 18  6  1  0  0  0  0
M  END
