Coordinates from ORCA-job Ph-N2-BF4-B3LYPG-6-31G_dp-MTMO-d009-169-n800
 OpenBabel09051907443D

 18 16  0  0  0  0  0  0  0  0999 V2000
   -1.5583   -0.2079    0.9489 C   0  0  0  0  0  0  0  0  0  0  0  0
   -0.2044    0.0389    1.1867 C   0  0  0  0  0  0  0  0  0  0  0  0
    0.3099    1.2677    0.7975 C   0  0  0  0  0  0  0  0  0  0  0  0
   -0.4548    2.2514    0.1864 C   0  0  0  0  0  0  0  0  0  0  0  0
   -1.8066    1.9855   -0.0414 C   0  0  0  0  0  0  0  0  0  0  0  0
   -2.3593    0.7597    0.3376 C   0  0  0  0  0  0  0  0  0  0  0  0
   -1.9844   -1.1621    1.2434 H   0  0  0  0  0  0  0  0  0  0  0  0
    0.4427   -0.6937    1.6543 H   0  0  0  0  0  0  0  0  0  0  0  0
    0.0032    3.1924   -0.0973 H   0  0  0  0  0  0  0  0  0  0  0  0
   -2.4260    2.7403   -0.5167 H   0  0  0  0  0  0  0  0  0  0  0  0
    4.6206    2.4781   -2.2668 N   0  0  0  0  0  0  0  0  0  0  0  0
    5.1835    1.5560   -2.0342 N   0  0  0  0  0  0  0  0  0  0  0  0
    3.3906   -0.0320    0.6108 B   0  0  0  0  0  0  0  0  0  0  0  0
    2.9996   -0.1929   -0.6404 F   0  0  0  0  0  0  0  0  0  0  0  0
    4.3004    0.8747    0.9106 F   0  0  0  0  0  0  0  0  0  0  0  0
    1.6322    1.5314    1.0285 F   0  0  0  0  0  0  0  0  0  0  0  0
    2.9615   -0.8697    1.5431 F   0  0  0  0  0  0  0  0  0  0  0  0
   -3.4101    0.5584    0.1550 H   0  0  0  0  0  0  0  0  0  0  0  0
  1  2  1  0  0  0  0
  1  7  1  0  0  0  0
  2  8  1  0  0  0  0
  3 16  1  0  0  0  0
  3  2  2  0  0  0  0
  4  3  1  0  0  0  0
  5  4  2  0  0  0  0
  5  6  1  0  0  0  0
  6  1  2  0  0  0  0
  9  4  1  0  0  0  0
 10  5  1  0  0  0  0
 11 12  3  0  0  0  0
 13 15  1  0  0  0  0
 13 17  1  0  0  0  0
 14 13  1  0  0  0  0
 18  6  1  0  0  0  0
M  END
