Coordinates from ORCA-job Ph-N2-BF4-B3LYPG-6-31G_dp-MTMO-d009-169-n800
 OpenBabel09051907443D

 18 16  0  0  0  0  0  0  0  0999 V2000
   -1.7123   -0.3165    0.4243 C   0  0  0  0  0  0  0  0  0  0  0  0
   -0.4241    0.1445    0.7044 C   0  0  0  0  0  0  0  0  0  0  0  0
   -0.2690    1.4864    1.0225 C   0  0  0  0  0  0  0  0  0  0  0  0
   -1.3285    2.3812    1.0736 C   0  0  0  0  0  0  0  0  0  0  0  0
   -2.6090    1.9001    0.7921 C   0  0  0  0  0  0  0  0  0  0  0  0
   -2.8028    0.5555    0.4673 C   0  0  0  0  0  0  0  0  0  0  0  0
   -1.8597   -1.3616    0.1697 H   0  0  0  0  0  0  0  0  0  0  0  0
    0.4412   -0.5071    0.6771 H   0  0  0  0  0  0  0  0  0  0  0  0
   -1.1460    3.4189    1.3301 H   0  0  0  0  0  0  0  0  0  0  0  0
   -3.4544    2.5806    0.8267 H   0  0  0  0  0  0  0  0  0  0  0  0
    9.2711   -0.8986   -2.5188 N   0  0  0  0  0  0  0  0  0  0  0  0
    8.2939   -0.6571   -2.0624 N   0  0  0  0  0  0  0  0  0  0  0  0
    2.9886    1.3131    0.1514 B   0  0  0  0  0  0  0  0  0  0  0  0
    2.4880    1.6751   -1.0151 F   0  0  0  0  0  0  0  0  0  0  0  0
    3.6970    2.1656    0.8654 F   0  0  0  0  0  0  0  0  0  0  0  0
    0.9835    1.9558    1.3060 F   0  0  0  0  0  0  0  0  0  0  0  0
    2.8832    0.0518    0.5444 F   0  0  0  0  0  0  0  0  0  0  0  0
   -3.8002    0.1884    0.2471 H   0  0  0  0  0  0  0  0  0  0  0  0
  1  6  2  0  0  0  0
  1  2  1  0  0  0  0
  2  3  2  0  0  0  0
  3  4  1  0  0  0  0
  3 16  1  0  0  0  0
  4  9  1  0  0  0  0
  5 10  1  0  0  0  0
  5  4  2  0  0  0  0
  6  5  1  0  0  0  0
  7  1  1  0  0  0  0
  8  2  1  0  0  0  0
 11 12  3  0  0  0  0
 13 17  1  0  0  0  0
 13 15  1  0  0  0  0
 14 13  1  0  0  0  0
 18  6  1  0  0  0  0
M  END
