Coordinates from ORCA-job Ph-N2-BF4-B3LYPG-6-31G_dp-MTMO-d009-169-n800
 OpenBabel09051907443D

 18 16  0  0  0  0  0  0  0  0999 V2000
   -1.5479   -0.2707    0.8679 C   0  0  0  0  0  0  0  0  0  0  0  0
   -0.2091    0.0264    1.1321 C   0  0  0  0  0  0  0  0  0  0  0  0
    0.2370    1.3117    0.8575 C   0  0  0  0  0  0  0  0  0  0  0  0
   -0.5804    2.3040    0.3352 C   0  0  0  0  0  0  0  0  0  0  0  0
   -1.9163    1.9870    0.0795 C   0  0  0  0  0  0  0  0  0  0  0  0
   -2.4010    0.7037    0.3441 C   0  0  0  0  0  0  0  0  0  0  0  0
   -1.9217   -1.2690    1.0740 H   0  0  0  0  0  0  0  0  0  0  0  0
    0.4776   -0.7088    1.5345 H   0  0  0  0  0  0  0  0  0  0  0  0
   -0.1742    3.2900    0.1391 H   0  0  0  0  0  0  0  0  0  0  0  0
   -2.5763    2.7469   -0.3277 H   0  0  0  0  0  0  0  0  0  0  0  0
    5.1710    2.0826   -2.5158 N   0  0  0  0  0  0  0  0  0  0  0  0
    5.4448    1.1595   -1.9736 N   0  0  0  0  0  0  0  0  0  0  0  0
    3.3608    0.1777    0.5570 B   0  0  0  0  0  0  0  0  0  0  0  0
    2.9350    0.0832   -0.6899 F   0  0  0  0  0  0  0  0  0  0  0  0
    4.2308    1.1096    0.8946 F   0  0  0  0  0  0  0  0  0  0  0  0
    1.5429    1.6243    1.1179 F   0  0  0  0  0  0  0  0  0  0  0  0
    3.0069   -0.7456    1.4386 F   0  0  0  0  0  0  0  0  0  0  0  0
   -3.4397    0.4634    0.1407 H   0  0  0  0  0  0  0  0  0  0  0  0
  1  7  1  0  0  0  0
  1  2  1  0  0  0  0
  2  8  1  0  0  0  0
  3 16  1  0  0  0  0
  3  2  2  0  0  0  0
  4  3  1  0  0  0  0
  5  4  2  0  0  0  0
  5  6  1  0  0  0  0
  6  1  2  0  0  0  0
  9  4  1  0  0  0  0
 10  5  1  0  0  0  0
 11 12  3  0  0  0  0
 13 15  1  0  0  0  0
 13 17  1  0  0  0  0
 14 13  1  0  0  0  0
 18  6  1  0  0  0  0
M  END
