Coordinates from ORCA-job Ph-N2-BF4-B3LYPG-6-31G_dp-MTMO-d009-169-n800
 OpenBabel09051907443D

 18 16  0  0  0  0  0  0  0  0999 V2000
   -1.5474   -0.0831    1.0645 C   0  0  0  0  0  0  0  0  0  0  0  0
   -0.1738    0.0896    1.2489 C   0  0  0  0  0  0  0  0  0  0  0  0
    0.4198    1.2141    0.6931 C   0  0  0  0  0  0  0  0  0  0  0  0
   -0.2849    2.1636   -0.0332 C   0  0  0  0  0  0  0  0  0  0  0  0
   -1.6574    1.9731   -0.2056 C   0  0  0  0  0  0  0  0  0  0  0  0
   -2.2895    0.8534    0.3407 C   0  0  0  0  0  0  0  0  0  0  0  0
   -2.0353   -0.9557    1.4881 H   0  0  0  0  0  0  0  0  0  0  0  0
    0.4295   -0.6229    1.7987 H   0  0  0  0  0  0  0  0  0  0  0  0
    0.2356    3.0206   -0.4460 H   0  0  0  0  0  0  0  0  0  0  0  0
   -2.2308    2.7028   -0.7696 H   0  0  0  0  0  0  0  0  0  0  0  0
    3.8468    2.4461   -1.5252 N   0  0  0  0  0  0  0  0  0  0  0  0
    4.7118    2.4386   -2.2129 N   0  0  0  0  0  0  0  0  0  0  0  0
    3.4304   -0.2946    0.6259 B   0  0  0  0  0  0  0  0  0  0  0  0
    3.1009   -0.4986   -0.6362 F   0  0  0  0  0  0  0  0  0  0  0  0
    4.3876    0.5601    0.9317 F   0  0  0  0  0  0  0  0  0  0  0  0
    1.7628    1.4054    0.8685 F   0  0  0  0  0  0  0  0  0  0  0  0
    2.8906   -1.0463    1.5741 F   0  0  0  0  0  0  0  0  0  0  0  0
   -3.3564    0.7098    0.2004 H   0  0  0  0  0  0  0  0  0  0  0  0
  1  2  1  0  0  0  0
  1  7  1  0  0  0  0
  2  8  1  0  0  0  0
  3 16  1  0  0  0  0
  3  2  2  0  0  0  0
  4  3  1  0  0  0  0
  5  4  2  0  0  0  0
  5  6  1  0  0  0  0
  6  1  2  0  0  0  0
  9  4  1  0  0  0  0
 10  5  1  0  0  0  0
 12 11  3  0  0  0  0
 13 15  1  0  0  0  0
 13 17  1  0  0  0  0
 14 13  1  0  0  0  0
 18  6  1  0  0  0  0
M  END
