Coordinates from ORCA-job Ph-N2-BF4-B3LYPG-6-31G_dp-MTMO-d009-169-n800
 OpenBabel09051907443D

 18 16  0  0  0  0  0  0  0  0999 V2000
   -1.4216   -0.3474    0.4320 C   0  0  0  0  0  0  0  0  0  0  0  0
   -0.1225    0.0646    0.7359 C   0  0  0  0  0  0  0  0  0  0  0  0
    0.0924    1.4143    0.9784 C   0  0  0  0  0  0  0  0  0  0  0  0
   -0.9197    2.3628    0.9303 C   0  0  0  0  0  0  0  0  0  0  0  0
   -2.2123    1.9306    0.6257 C   0  0  0  0  0  0  0  0  0  0  0  0
   -2.4650    0.5797    0.3764 C   0  0  0  0  0  0  0  0  0  0  0  0
   -1.6150   -1.3978    0.2358 H   0  0  0  0  0  0  0  0  0  0  0  0
    0.7084   -0.6294    0.7825 H   0  0  0  0  0  0  0  0  0  0  0  0
   -0.6919    3.4043    1.1296 H   0  0  0  0  0  0  0  0  0  0  0  0
   -3.0208    2.6541    0.5824 H   0  0  0  0  0  0  0  0  0  0  0  0
    6.4067   -0.3177   -2.0354 N   0  0  0  0  0  0  0  0  0  0  0  0
    5.5910    0.0997   -1.4188 N   0  0  0  0  0  0  0  0  0  0  0  0
    3.3416    1.0532    0.0674 B   0  0  0  0  0  0  0  0  0  0  0  0
    2.7904    1.3992   -1.0811 F   0  0  0  0  0  0  0  0  0  0  0  0
    4.1039    1.9047    0.7247 F   0  0  0  0  0  0  0  0  0  0  0  0
    1.3555    1.8337    1.2832 F   0  0  0  0  0  0  0  0  0  0  0  0
    3.1906   -0.1833    0.5194 F   0  0  0  0  0  0  0  0  0  0  0  0
   -3.4715    0.2506    0.1377 H   0  0  0  0  0  0  0  0  0  0  0  0
  1  2  1  0  0  0  0
  2  8  1  0  0  0  0
  2  3  2  0  0  0  0
  3 16  1  0  0  0  0
  4  3  1  0  0  0  0
  4  9  1  0  0  0  0
  5  4  2  0  0  0  0
  6  1  2  0  0  0  0
  6  5  1  0  0  0  0
  7  1  1  0  0  0  0
 10  5  1  0  0  0  0
 11 12  3  0  0  0  0
 13 17  1  0  0  0  0
 13 15  1  0  0  0  0
 14 13  1  0  0  0  0
 18  6  1  0  0  0  0
M  END
