Coordinates from ORCA-job Ph-N2-BF4-B3LYPG-6-31G_dp-MTMO-d009-169-n800
 OpenBabel09051907443D

 18 16  0  0  0  0  0  0  0  0999 V2000
   -1.6620   -0.3132    0.5620 C   0  0  0  0  0  0  0  0  0  0  0  0
   -0.3378    0.1095    0.4260 C   0  0  0  0  0  0  0  0  0  0  0  0
   -0.0686    1.4640    0.5689 C   0  0  0  0  0  0  0  0  0  0  0  0
   -1.0512    2.4068    0.8385 C   0  0  0  0  0  0  0  0  0  0  0  0
   -2.3692    1.9639    0.9710 C   0  0  0  0  0  0  0  0  0  0  0  0
   -2.6763    0.6080    0.8334 C   0  0  0  0  0  0  0  0  0  0  0  0
   -1.8983   -1.3675    0.4531 H   0  0  0  0  0  0  0  0  0  0  0  0
    0.4711   -0.5799    0.2146 H   0  0  0  0  0  0  0  0  0  0  0  0
   -0.7812    3.4521    0.9411 H   0  0  0  0  0  0  0  0  0  0  0  0
   -3.1550    2.6829    1.1822 H   0  0  0  0  0  0  0  0  0  0  0  0
    7.4825    0.0751   -1.3287 N   0  0  0  0  0  0  0  0  0  0  0  0
    6.4239    0.2054   -1.0395 N   0  0  0  0  0  0  0  0  0  0  0  0
    3.4212    0.8122   -0.2435 B   0  0  0  0  0  0  0  0  0  0  0  0
    3.4215    1.4770   -1.3816 F   0  0  0  0  0  0  0  0  0  0  0  0
    3.9921    1.3238    0.8282 F   0  0  0  0  0  0  0  0  0  0  0  0
    1.2194    1.8955    0.4393 F   0  0  0  0  0  0  0  0  0  0  0  0
    2.9109   -0.4102   -0.1974 F   0  0  0  0  0  0  0  0  0  0  0  0
   -3.7026    0.2705    0.9385 H   0  0  0  0  0  0  0  0  0  0  0  0
  1  6  1  0  0  0  0
  2  1  2  0  0  0  0
  2  3  1  0  0  0  0
  3  4  2  0  0  0  0
  4  9  1  0  0  0  0
  4  5  1  0  0  0  0
  5 10  1  0  0  0  0
  6 18  1  0  0  0  0
  6  5  2  0  0  0  0
  7  1  1  0  0  0  0
  8  2  1  0  0  0  0
 11 12  3  0  0  0  0
 13 17  1  0  0  0  0
 13 15  1  0  0  0  0
 14 13  1  0  0  0  0
 16  3  1  0  0  0  0
M  END
