Coordinates from ORCA-job Ph-N2-BF4-B3LYPG-6-31G_dp-MTMO-d009-169-n800
 OpenBabel09051907443D

 18 16  0  0  0  0  0  0  0  0999 V2000
   -2.3856   -0.1775    0.5466 C   0  0  0  0  0  0  0  0  0  0  0  0
   -1.0674    0.2806    0.6005 C   0  0  0  0  0  0  0  0  0  0  0  0
   -0.8456    1.5660    1.0742 C   0  0  0  0  0  0  0  0  0  0  0  0
   -1.8671    2.4086    1.4894 C   0  0  0  0  0  0  0  0  0  0  0  0
   -3.1782    1.9316    1.4281 C   0  0  0  0  0  0  0  0  0  0  0  0
   -3.4391    0.6422    0.9585 C   0  0  0  0  0  0  0  0  0  0  0  0
   -2.5863   -1.1793    0.1797 H   0  0  0  0  0  0  0  0  0  0  0  0
   -0.2304   -0.3295    0.2830 H   0  0  0  0  0  0  0  0  0  0  0  0
   -1.6320    3.4041    1.8488 H   0  0  0  0  0  0  0  0  0  0  0  0
   -3.9944    2.5718    1.7482 H   0  0  0  0  0  0  0  0  0  0  0  0
   14.6946   -2.3960   -2.3529 N   0  0  0  0  0  0  0  0  0  0  0  0
   13.7097   -1.9239   -2.5231 N   0  0  0  0  0  0  0  0  0  0  0  0
    2.0989    1.7493   -0.5598 B   0  0  0  0  0  0  0  0  0  0  0  0
    1.3591    2.3933   -1.4430 F   0  0  0  0  0  0  0  0  0  0  0  0
    2.9834    2.4013    0.1693 F   0  0  0  0  0  0  0  0  0  0  0  0
    0.4391    2.0296    1.1441 F   0  0  0  0  0  0  0  0  0  0  0  0
    2.0423    0.4264   -0.4990 F   0  0  0  0  0  0  0  0  0  0  0  0
   -4.4605    0.2773    0.9132 H   0  0  0  0  0  0  0  0  0  0  0  0
  1  2  2  0  0  0  0
  1  6  1  0  0  0  0
  2  3  1  0  0  0  0
  3 16  1  0  0  0  0
  3  4  2  0  0  0  0
  4  9  1  0  0  0  0
  5  4  1  0  0  0  0
  5 10  1  0  0  0  0
  6  5  2  0  0  0  0
  7  1  1  0  0  0  0
  8  2  1  0  0  0  0
 12 11  3  0  0  0  0
 13 17  1  0  0  0  0
 13 15  1  0  0  0  0
 14 13  1  0  0  0  0
 18  6  1  0  0  0  0
M  END
