Coordinates from ORCA-job Ph-N2-BF4-B3LYPG-6-31G_dp-MTMO-d009-169-n800
 OpenBabel09051907443D

 18 16  0  0  0  0  0  0  0  0999 V2000
   -1.5645   -0.1652    0.9862 C   0  0  0  0  0  0  0  0  0  0  0  0
   -0.2030    0.0535    1.2072 C   0  0  0  0  0  0  0  0  0  0  0  0
    0.3439    1.2483    0.7606 C   0  0  0  0  0  0  0  0  0  0  0  0
   -0.3960    2.2244    0.1083 C   0  0  0  0  0  0  0  0  0  0  0  0
   -1.7558    1.9871   -0.1021 C   0  0  0  0  0  0  0  0  0  0  0  0
   -2.3410    0.7960    0.3344 C   0  0  0  0  0  0  0  0  0  0  0  0
   -2.0160   -1.0926    1.3252 H   0  0  0  0  0  0  0  0  0  0  0  0
    0.4259   -0.6751    1.7048 H   0  0  0  0  0  0  0  0  0  0  0  0
    0.0876    3.1377   -0.2201 H   0  0  0  0  0  0  0  0  0  0  0  0
   -2.3560    2.7366   -0.6091 H   0  0  0  0  0  0  0  0  0  0  0  0
    4.2529    2.3156   -1.8215 N   0  0  0  0  0  0  0  0  0  0  0  0
    5.1792    2.0265   -2.3505 N   0  0  0  0  0  0  0  0  0  0  0  0
    3.4037   -0.1300    0.6395 B   0  0  0  0  0  0  0  0  0  0  0  0
    3.0416   -0.3285   -0.6147 F   0  0  0  0  0  0  0  0  0  0  0  0
    4.3326    0.7610    0.9284 F   0  0  0  0  0  0  0  0  0  0  0  0
    1.6741    1.4844    0.9733 F   0  0  0  0  0  0  0  0  0  0  0  0
    2.9291   -0.9204    1.5910 F   0  0  0  0  0  0  0  0  0  0  0  0
   -3.3980    0.6165    0.1650 H   0  0  0  0  0  0  0  0  0  0  0  0
  1  2  1  0  0  0  0
  1  7  1  0  0  0  0
  2  8  1  0  0  0  0
  3 16  1  0  0  0  0
  3  2  2  0  0  0  0
  4  3  1  0  0  0  0
  5  4  2  0  0  0  0
  5  6  1  0  0  0  0
  6  1  2  0  0  0  0
  9  4  1  0  0  0  0
 10  5  1  0  0  0  0
 12 11  3  0  0  0  0
 13 15  1  0  0  0  0
 13 17  1  0  0  0  0
 14 13  1  0  0  0  0
 18  6  1  0  0  0  0
M  END
