Coordinates from ORCA-job Ph-N2-BF4-B3LYPG-6-31G_dp-MTMO-d009-169-n800
 OpenBabel09051907443D

 18 16  0  0  0  0  0  0  0  0999 V2000
   -1.7721   -0.3033    0.4166 C   0  0  0  0  0  0  0  0  0  0  0  0
   -0.4542    0.1407    0.5442 C   0  0  0  0  0  0  0  0  0  0  0  0
   -0.2465    1.4403    0.9842 C   0  0  0  0  0  0  0  0  0  0  0  0
   -1.2814    2.3098    1.2979 C   0  0  0  0  0  0  0  0  0  0  0  0
   -2.5921    1.8464    1.1648 C   0  0  0  0  0  0  0  0  0  0  0  0
   -2.8391    0.5437    0.7252 C   0  0  0  0  0  0  0  0  0  0  0  0
   -1.9616   -1.3154    0.0727 H   0  0  0  0  0  0  0  0  0  0  0  0
    0.3933   -0.4914    0.3077 H   0  0  0  0  0  0  0  0  0  0  0  0
   -1.0568    3.3150    1.6366 H   0  0  0  0  0  0  0  0  0  0  0  0
   -3.4188    2.5077    1.4053 H   0  0  0  0  0  0  0  0  0  0  0  0
    9.7416   -1.2286   -1.4971 N   0  0  0  0  0  0  0  0  0  0  0  0
    8.7927   -0.7273   -1.7613 N   0  0  0  0  0  0  0  0  0  0  0  0
    2.7670    1.4979   -0.4872 B   0  0  0  0  0  0  0  0  0  0  0  0
    2.0358    2.0177   -1.4557 F   0  0  0  0  0  0  0  0  0  0  0  0
    3.6078    2.2537    0.1914 F   0  0  0  0  0  0  0  0  0  0  0  0
    1.0372    1.8911    1.1231 F   0  0  0  0  0  0  0  0  0  0  0  0
    2.7478    0.1882   -0.2847 F   0  0  0  0  0  0  0  0  0  0  0  0
   -3.8602    0.1899    0.6223 H   0  0  0  0  0  0  0  0  0  0  0  0
  1  2  2  0  0  0  0
  1  6  1  0  0  0  0
  2  3  1  0  0  0  0
  3 16  1  0  0  0  0
  3  4  2  0  0  0  0
  4  9  1  0  0  0  0
  5  4  1  0  0  0  0
  5 10  1  0  0  0  0
  6  5  2  0  0  0  0
  7  1  1  0  0  0  0
  8  2  1  0  0  0  0
 12 11  3  0  0  0  0
 13 17  1  0  0  0  0
 13 15  1  0  0  0  0
 14 13  1  0  0  0  0
 18  6  1  0  0  0  0
M  END
