Coordinates from ORCA-job Ph-N2-BF4-B3LYPG-6-31G_dp-MTMO-d009-169-n800
 OpenBabel09051907443D

 18 16  0  0  0  0  0  0  0  0999 V2000
   -1.3032   -0.0939    0.3759 C   0  0  0  0  0  0  0  0  0  0  0  0
    0.0406    0.0321    0.7348 C   0  0  0  0  0  0  0  0  0  0  0  0
    0.5948    1.3047    0.7455 C   0  0  0  0  0  0  0  0  0  0  0  0
   -0.1253    2.4456    0.4182 C   0  0  0  0  0  0  0  0  0  0  0  0
   -1.4675    2.2986    0.0630 C   0  0  0  0  0  0  0  0  0  0  0  0
   -2.0578    1.0325    0.0400 C   0  0  0  0  0  0  0  0  0  0  0  0
   -1.7591   -1.0795    0.3600 H   0  0  0  0  0  0  0  0  0  0  0  0
    0.6492   -0.8229    1.0021 H   0  0  0  0  0  0  0  0  0  0  0  0
    0.3610    3.4146    0.4447 H   0  0  0  0  0  0  0  0  0  0  0  0
   -2.0497    3.1772   -0.1976 H   0  0  0  0  0  0  0  0  0  0  0  0
    2.3591    1.3221   -1.9754 N   0  0  0  0  0  0  0  0  0  0  0  0
    2.3495    1.2089   -3.0748 N   0  0  0  0  0  0  0  0  0  0  0  0
    3.7901   -0.1140    1.2995 B   0  0  0  0  0  0  0  0  0  0  0  0
    4.1948    0.0593    0.0555 F   0  0  0  0  0  0  0  0  0  0  0  0
    4.2696    0.6426    2.2662 F   0  0  0  0  0  0  0  0  0  0  0  0
    1.9055    1.4529    1.0962 F   0  0  0  0  0  0  0  0  0  0  0  0
    2.9898   -1.1291    1.5916 F   0  0  0  0  0  0  0  0  0  0  0  0
   -3.1009    0.9243   -0.2396 H   0  0  0  0  0  0  0  0  0  0  0  0
  1  2  2  0  0  0  0
  2  3  1  0  0  0  0
  2  8  1  0  0  0  0
  3 16  1  0  0  0  0
  4  9  1  0  0  0  0
  4  3  2  0  0  0  0
  5  4  1  0  0  0  0
  6  5  2  0  0  0  0
  6  1  1  0  0  0  0
  7  1  1  0  0  0  0
 10  5  1  0  0  0  0
 12 11  3  0  0  0  0
 13 17  1  0  0  0  0
 13 15  1  0  0  0  0
 14 13  1  0  0  0  0
 18  6  1  0  0  0  0
M  END
