Coordinates from ORCA-job Ph-N2-BF4-B3LYPG-6-31G_dp-MTMO-d009-169-n800
 OpenBabel09051907443D

 18 16  0  0  0  0  0  0  0  0999 V2000
   -1.5353   -0.3337    0.4928 C   0  0  0  0  0  0  0  0  0  0  0  0
   -0.2104    0.1006    0.5722 C   0  0  0  0  0  0  0  0  0  0  0  0
    0.0202    1.4541    0.7778 C   0  0  0  0  0  0  0  0  0  0  0  0
   -1.0019    2.3848    0.9047 C   0  0  0  0  0  0  0  0  0  0  0  0
   -2.3199    1.9305    0.8228 C   0  0  0  0  0  0  0  0  0  0  0  0
   -2.5885    0.5752    0.6172 C   0  0  0  0  0  0  0  0  0  0  0  0
   -1.7413   -1.3875    0.3306 H   0  0  0  0  0  0  0  0  0  0  0  0
    0.6275   -0.5796    0.4759 H   0  0  0  0  0  0  0  0  0  0  0  0
   -0.7614    3.4302    1.0651 H   0  0  0  0  0  0  0  0  0  0  0  0
   -3.1360    2.6401    0.9202 H   0  0  0  0  0  0  0  0  0  0  0  0
    6.9594   -0.2143   -1.5541 N   0  0  0  0  0  0  0  0  0  0  0  0
    5.9498    0.0571   -1.1976 N   0  0  0  0  0  0  0  0  0  0  0  0
    3.4068    0.9829   -0.1525 B   0  0  0  0  0  0  0  0  0  0  0  0
    3.1214    1.5297   -1.3183 F   0  0  0  0  0  0  0  0  0  0  0  0
    4.1055    1.6507    0.7439 F   0  0  0  0  0  0  0  0  0  0  0  0
    1.3083    1.8969    0.8628 F   0  0  0  0  0  0  0  0  0  0  0  0
    3.0514   -0.2706    0.0888 F   0  0  0  0  0  0  0  0  0  0  0  0
   -3.6153    0.2286    0.5537 H   0  0  0  0  0  0  0  0  0  0  0  0
  1  2  2  0  0  0  0
  1  6  1  0  0  0  0
  2  3  1  0  0  0  0
  3 16  1  0  0  0  0
  3  4  2  0  0  0  0
  4  9  1  0  0  0  0
  5  4  1  0  0  0  0
  5 10  1  0  0  0  0
  6  5  2  0  0  0  0
  7  1  1  0  0  0  0
  8  2  1  0  0  0  0
 11 12  3  0  0  0  0
 13 17  1  0  0  0  0
 13 15  1  0  0  0  0
 14 13  1  0  0  0  0
 18  6  1  0  0  0  0
M  END
