Coordinates from ORCA-job Ph-N2-BF4-B3LYPG-6-31G_dp-MTMO-d009-169-n800
 OpenBabel09051907443D

 18 16  0  0  0  0  0  0  0  0999 V2000
   -2.1876   -0.2166    0.5013 C   0  0  0  0  0  0  0  0  0  0  0  0
   -0.8687    0.2357    0.5795 C   0  0  0  0  0  0  0  0  0  0  0  0
   -0.6506    1.5236    1.0482 C   0  0  0  0  0  0  0  0  0  0  0  0
   -1.6764    2.3738    1.4361 C   0  0  0  0  0  0  0  0  0  0  0  0
   -2.9882    1.9024    1.3510 C   0  0  0  0  0  0  0  0  0  0  0  0
   -3.2454    0.6110    0.8852 C   0  0  0  0  0  0  0  0  0  0  0  0
   -2.3853   -1.2200    0.1372 H   0  0  0  0  0  0  0  0  0  0  0  0
   -0.0282   -0.3808    0.2842 H   0  0  0  0  0  0  0  0  0  0  0  0
   -1.4440    3.3708    1.7933 H   0  0  0  0  0  0  0  0  0  0  0  0
   -3.8078    2.5487    1.6496 H   0  0  0  0  0  0  0  0  0  0  0  0
   13.1143   -2.0296   -2.0841 N   0  0  0  0  0  0  0  0  0  0  0  0
   12.1348   -1.5467   -2.2543 N   0  0  0  0  0  0  0  0  0  0  0  0
    2.3045    1.6750   -0.5476 B   0  0  0  0  0  0  0  0  0  0  0  0
    1.5512    2.2693   -1.4543 F   0  0  0  0  0  0  0  0  0  0  0  0
    3.1759    2.3724    0.1546 F   0  0  0  0  0  0  0  0  0  0  0  0
    0.6347    1.9818    1.1409 F   0  0  0  0  0  0  0  0  0  0  0  0
    2.2745    0.3547   -0.4357 F   0  0  0  0  0  0  0  0  0  0  0  0
   -4.2675    0.2506    0.8208 H   0  0  0  0  0  0  0  0  0  0  0  0
  1  2  2  0  0  0  0
  1  6  1  0  0  0  0
  2  3  1  0  0  0  0
  3 16  1  0  0  0  0
  3  4  2  0  0  0  0
  4  9  1  0  0  0  0
  5  4  1  0  0  0  0
  5 10  1  0  0  0  0
  6  5  2  0  0  0  0
  7  1  1  0  0  0  0
  8  2  1  0  0  0  0
 12 11  3  0  0  0  0
 13 17  1  0  0  0  0
 13 15  1  0  0  0  0
 14 13  1  0  0  0  0
 18  6  1  0  0  0  0
M  END
