Coordinates from ORCA-job Ph-N2-BF4-B3LYPG-6-31G_dp-MTMO-d009-169-n800
 OpenBabel09051907443D

 18 16  0  0  0  0  0  0  0  0999 V2000
   -1.5737   -0.1638    1.0005 C   0  0  0  0  0  0  0  0  0  0  0  0
   -0.2110    0.0542    1.2151 C   0  0  0  0  0  0  0  0  0  0  0  0
    0.3361    1.2452    0.7590 C   0  0  0  0  0  0  0  0  0  0  0  0
   -0.4050    2.2183    0.1033 C   0  0  0  0  0  0  0  0  0  0  0  0
   -1.7660    1.9817   -0.1006 C   0  0  0  0  0  0  0  0  0  0  0  0
   -2.3513    0.7943    0.3457 C   0  0  0  0  0  0  0  0  0  0  0  0
   -2.0251   -1.0885    1.3470 H   0  0  0  0  0  0  0  0  0  0  0  0
    0.4184   -0.6727    1.7146 H   0  0  0  0  0  0  0  0  0  0  0  0
    0.0786    3.1288   -0.2325 H   0  0  0  0  0  0  0  0  0  0  0  0
   -2.3669    2.7290   -0.6101 H   0  0  0  0  0  0  0  0  0  0  0  0
    4.3096    2.3311   -1.8295 N   0  0  0  0  0  0  0  0  0  0  0  0
    5.2405    2.0376   -2.3478 N   0  0  0  0  0  0  0  0  0  0  0  0
    3.4014   -0.1294    0.6272 B   0  0  0  0  0  0  0  0  0  0  0  0
    3.0502   -0.3175   -0.6317 F   0  0  0  0  0  0  0  0  0  0  0  0
    4.3304    0.7565    0.9307 F   0  0  0  0  0  0  0  0  0  0  0  0
    1.6674    1.4813    0.9651 F   0  0  0  0  0  0  0  0  0  0  0  0
    2.9161   -0.9254    1.5685 F   0  0  0  0  0  0  0  0  0  0  0  0
   -3.4092    0.6153    0.1813 H   0  0  0  0  0  0  0  0  0  0  0  0
  1  2  1  0  0  0  0
  1  7  1  0  0  0  0
  2  8  1  0  0  0  0
  3 16  1  0  0  0  0
  3  2  2  0  0  0  0
  4  3  1  0  0  0  0
  5  4  2  0  0  0  0
  5  6  1  0  0  0  0
  6  1  2  0  0  0  0
  9  4  1  0  0  0  0
 10  5  1  0  0  0  0
 12 11  3  0  0  0  0
 13 15  1  0  0  0  0
 13 17  1  0  0  0  0
 14 13  1  0  0  0  0
 18  6  1  0  0  0  0
M  END
