Coordinates from ORCA-job Ph-N2-BF4-B3LYPG-6-31G_dp-MTMO-d009-169-n800
 OpenBabel09051907443D

 18 16  0  0  0  0  0  0  0  0999 V2000
   -1.4576   -0.1076    0.7554 C   0  0  0  0  0  0  0  0  0  0  0  0
   -0.0939    0.0189    1.0290 C   0  0  0  0  0  0  0  0  0  0  0  0
    0.5215    1.2246    0.7225 C   0  0  0  0  0  0  0  0  0  0  0  0
   -0.1544    2.2987    0.1601 C   0  0  0  0  0  0  0  0  0  0  0  0
   -1.5174    2.1524   -0.1050 C   0  0  0  0  0  0  0  0  0  0  0  0
   -2.1700    0.9529    0.1904 C   0  0  0  0  0  0  0  0  0  0  0  0
   -1.9616   -1.0413    0.9864 H   0  0  0  0  0  0  0  0  0  0  0  0
    0.4846   -0.7867    1.4646 H   0  0  0  0  0  0  0  0  0  0  0  0
    0.3809    3.2156   -0.0597 H   0  0  0  0  0  0  0  0  0  0  0  0
   -2.0671    2.9794   -0.5442 H   0  0  0  0  0  0  0  0  0  0  0  0
    2.9474    2.0555   -1.8939 N   0  0  0  0  0  0  0  0  0  0  0  0
    3.4440    2.0639   -2.8811 N   0  0  0  0  0  0  0  0  0  0  0  0
    3.6432   -0.2682    1.0520 B   0  0  0  0  0  0  0  0  0  0  0  0
    3.7192   -0.3388   -0.2643 F   0  0  0  0  0  0  0  0  0  0  0  0
    4.3927    0.5882    1.7167 F   0  0  0  0  0  0  0  0  0  0  0  0
    1.8543    1.3717    0.9860 F   0  0  0  0  0  0  0  0  0  0  0  0
    2.9036   -1.1476    1.7119 F   0  0  0  0  0  0  0  0  0  0  0  0
   -3.2291    0.8445   -0.0209 H   0  0  0  0  0  0  0  0  0  0  0  0
  1  7  1  0  0  0  0
  1  2  1  0  0  0  0
  2  8  1  0  0  0  0
  3 16  1  0  0  0  0
  3  2  2  0  0  0  0
  4  3  1  0  0  0  0
  5  4  2  0  0  0  0
  5  6  1  0  0  0  0
  6  1  2  0  0  0  0
  9  4  1  0  0  0  0
 10  5  1  0  0  0  0
 12 11  3  0  0  0  0
 13 17  1  0  0  0  0
 13 15  1  0  0  0  0
 14 13  1  0  0  0  0
 18  6  1  0  0  0  0
M  END
