Coordinates from ORCA-job Ph-N2-BF4-B3LYPG-6-31G_dp-MTMO-d009-169-n800
 OpenBabel09051907443D

 18 16  0  0  0  0  0  0  0  0999 V2000
   -1.7083   -0.3176    0.4244 C   0  0  0  0  0  0  0  0  0  0  0  0
   -0.4204    0.1429    0.7066 C   0  0  0  0  0  0  0  0  0  0  0  0
   -0.2649    1.4853    1.0224 C   0  0  0  0  0  0  0  0  0  0  0  0
   -1.3238    2.3810    1.0693 C   0  0  0  0  0  0  0  0  0  0  0  0
   -2.6040    1.9005    0.7857 C   0  0  0  0  0  0  0  0  0  0  0  0
   -2.7981    0.5554    0.4632 C   0  0  0  0  0  0  0  0  0  0  0  0
   -1.8560   -1.3631    0.1716 H   0  0  0  0  0  0  0  0  0  0  0  0
    0.4444   -0.5094    0.6826 H   0  0  0  0  0  0  0  0  0  0  0  0
   -1.1410    3.4192    1.3242 H   0  0  0  0  0  0  0  0  0  0  0  0
   -3.4489    2.5817    0.8170 H   0  0  0  0  0  0  0  0  0  0  0  0
    9.2349   -0.8883   -2.5170 N   0  0  0  0  0  0  0  0  0  0  0  0
    8.2588   -0.6462   -2.0583 N   0  0  0  0  0  0  0  0  0  0  0  0
    2.9933    1.3096    0.1561 B   0  0  0  0  0  0  0  0  0  0  0  0
    2.4940    1.6707   -1.0112 F   0  0  0  0  0  0  0  0  0  0  0  0
    3.7014    2.1626    0.8698 F   0  0  0  0  0  0  0  0  0  0  0  0
    0.9873    1.9542    1.3079 F   0  0  0  0  0  0  0  0  0  0  0  0
    2.8871    0.0488    0.5503 F   0  0  0  0  0  0  0  0  0  0  0  0
   -3.7954    0.1887    0.2413 H   0  0  0  0  0  0  0  0  0  0  0  0
  1  6  2  0  0  0  0
  1  2  1  0  0  0  0
  2  3  2  0  0  0  0
  3  4  1  0  0  0  0
  3 16  1  0  0  0  0
  4  9  1  0  0  0  0
  5 10  1  0  0  0  0
  5  4  2  0  0  0  0
  6  5  1  0  0  0  0
  7  1  1  0  0  0  0
  8  2  1  0  0  0  0
 11 12  3  0  0  0  0
 13 17  1  0  0  0  0
 13 15  1  0  0  0  0
 14 13  1  0  0  0  0
 18  6  1  0  0  0  0
M  END
