Coordinates from ORCA-job Ph-N2-BF4-B3LYPG-6-31G_dp-MTMO-d009-169-n800
 OpenBabel09051907443D

 18 16  0  0  0  0  0  0  0  0999 V2000
   -2.3725   -0.1805    0.5440 C   0  0  0  0  0  0  0  0  0  0  0  0
   -1.0544    0.2778    0.5980 C   0  0  0  0  0  0  0  0  0  0  0  0
   -0.8328    1.5632    1.0718 C   0  0  0  0  0  0  0  0  0  0  0  0
   -1.8544    2.4056    1.4870 C   0  0  0  0  0  0  0  0  0  0  0  0
   -3.1655    1.9284    1.4256 C   0  0  0  0  0  0  0  0  0  0  0  0
   -3.4261    0.6390    0.9559 C   0  0  0  0  0  0  0  0  0  0  0  0
   -2.5730   -1.1823    0.1769 H   0  0  0  0  0  0  0  0  0  0  0  0
   -0.2173   -0.3322    0.2804 H   0  0  0  0  0  0  0  0  0  0  0  0
   -1.6195    3.4011    1.8465 H   0  0  0  0  0  0  0  0  0  0  0  0
   -3.9818    2.5685    1.7457 H   0  0  0  0  0  0  0  0  0  0  0  0
   14.5918   -2.3746   -2.3322 N   0  0  0  0  0  0  0  0  0  0  0  0
   13.6080   -1.9005   -2.5027 N   0  0  0  0  0  0  0  0  0  0  0  0
    2.1113    1.7471   -0.5624 B   0  0  0  0  0  0  0  0  0  0  0  0
    1.3709    2.3905   -1.4456 F   0  0  0  0  0  0  0  0  0  0  0  0
    2.9957    2.3999    0.1662 F   0  0  0  0  0  0  0  0  0  0  0  0
    0.4519    2.0270    1.1417 F   0  0  0  0  0  0  0  0  0  0  0  0
    2.0555    0.4243   -0.5012 F   0  0  0  0  0  0  0  0  0  0  0  0
   -4.4475    0.2739    0.9105 H   0  0  0  0  0  0  0  0  0  0  0  0
  1  2  2  0  0  0  0
  1  6  1  0  0  0  0
  2  3  1  0  0  0  0
  3 16  1  0  0  0  0
  3  4  2  0  0  0  0
  4  9  1  0  0  0  0
  5  4  1  0  0  0  0
  5 10  1  0  0  0  0
  6  5  2  0  0  0  0
  7  1  1  0  0  0  0
  8  2  1  0  0  0  0
 12 11  3  0  0  0  0
 13 17  1  0  0  0  0
 13 15  1  0  0  0  0
 14 13  1  0  0  0  0
 18  6  1  0  0  0  0
M  END
