Coordinates from ORCA-job Ph-N2-BF4-B3LYPG-6-31G_dp-MTMO-d009-169-n800
 OpenBabel09051907443D

 18 16  0  0  0  0  0  0  0  0999 V2000
   -2.2313   -0.2115    0.5151 C   0  0  0  0  0  0  0  0  0  0  0  0
   -0.9141    0.2477    0.5822 C   0  0  0  0  0  0  0  0  0  0  0  0
   -0.6986    1.5351    1.0532 C   0  0  0  0  0  0  0  0  0  0  0  0
   -1.7252    2.3787    1.4534 C   0  0  0  0  0  0  0  0  0  0  0  0
   -3.0352    1.9005    1.3791 C   0  0  0  0  0  0  0  0  0  0  0  0
   -3.2899    0.6091    0.9116 C   0  0  0  0  0  0  0  0  0  0  0  0
   -2.4270   -1.2148    0.1497 H   0  0  0  0  0  0  0  0  0  0  0  0
   -0.0734   -0.3635    0.2766 H   0  0  0  0  0  0  0  0  0  0  0  0
   -1.4947    3.3757    1.8116 H   0  0  0  0  0  0  0  0  0  0  0  0
   -3.8554    2.5415    1.6874 H   0  0  0  0  0  0  0  0  0  0  0  0
   13.5084   -2.1405   -2.1374 N   0  0  0  0  0  0  0  0  0  0  0  0
   12.5306   -1.6550   -2.3097 N   0  0  0  0  0  0  0  0  0  0  0  0
    2.2459    1.7142   -0.5663 B   0  0  0  0  0  0  0  0  0  0  0  0
    1.4970    2.3356   -1.4582 F   0  0  0  0  0  0  0  0  0  0  0  0
    3.1241    2.3878    0.1506 F   0  0  0  0  0  0  0  0  0  0  0  0
    0.5851    1.9999    1.1357 F   0  0  0  0  0  0  0  0  0  0  0  0
    2.2046    0.3920   -0.4846 F   0  0  0  0  0  0  0  0  0  0  0  0
   -4.3105    0.2434    0.8559 H   0  0  0  0  0  0  0  0  0  0  0  0
  1  2  2  0  0  0  0
  1  6  1  0  0  0  0
  2  3  1  0  0  0  0
  3 16  1  0  0  0  0
  3  4  2  0  0  0  0
  4  9  1  0  0  0  0
  5  4  1  0  0  0  0
  5 10  1  0  0  0  0
  6  5  2  0  0  0  0
  7  1  1  0  0  0  0
  8  2  1  0  0  0  0
 12 11  3  0  0  0  0
 13 17  1  0  0  0  0
 13 15  1  0  0  0  0
 14 13  1  0  0  0  0
 18  6  1  0  0  0  0
M  END
