Coordinates from ORCA-job Ph-N2-BF4-B3LYPG-6-31G_dp-MTMO-d009-169-n800
 OpenBabel09051907443D

 18 16  0  0  0  0  0  0  0  0999 V2000
   -1.5451   -0.0828    1.0615 C   0  0  0  0  0  0  0  0  0  0  0  0
   -0.1717    0.0896    1.2474 C   0  0  0  0  0  0  0  0  0  0  0  0
    0.4224    1.2147    0.6934 C   0  0  0  0  0  0  0  0  0  0  0  0
   -0.2813    2.1649   -0.0328 C   0  0  0  0  0  0  0  0  0  0  0  0
   -1.6537    1.9746   -0.2067 C   0  0  0  0  0  0  0  0  0  0  0  0
   -2.2864    0.8544    0.3379 C   0  0  0  0  0  0  0  0  0  0  0  0
   -2.0333   -0.9559    1.4838 H   0  0  0  0  0  0  0  0  0  0  0  0
    0.4309   -0.6235    1.7972 H   0  0  0  0  0  0  0  0  0  0  0  0
    0.2393    3.0224   -0.4444 H   0  0  0  0  0  0  0  0  0  0  0  0
   -2.2264    2.7050   -0.7705 H   0  0  0  0  0  0  0  0  0  0  0  0
    3.8294    2.4414   -1.5203 N   0  0  0  0  0  0  0  0  0  0  0  0
    4.6917    2.4354   -2.2114 N   0  0  0  0  0  0  0  0  0  0  0  0
    3.4312   -0.2949    0.6280 B   0  0  0  0  0  0  0  0  0  0  0  0
    3.0981   -0.5001   -0.6329 F   0  0  0  0  0  0  0  0  0  0  0  0
    4.3882    0.5612    0.9307 F   0  0  0  0  0  0  0  0  0  0  0  0
    1.7653    1.4054    0.8703 F   0  0  0  0  0  0  0  0  0  0  0  0
    2.8951   -1.0467    1.5783 F   0  0  0  0  0  0  0  0  0  0  0  0
   -3.3532    0.7110    0.1964 H   0  0  0  0  0  0  0  0  0  0  0  0
  1  2  1  0  0  0  0
  1  7  1  0  0  0  0
  2  8  1  0  0  0  0
  3 16  1  0  0  0  0
  3  2  2  0  0  0  0
  4  3  1  0  0  0  0
  5  4  2  0  0  0  0
  5  6  1  0  0  0  0
  6  1  2  0  0  0  0
  9  4  1  0  0  0  0
 10  5  1  0  0  0  0
 12 11  3  0  0  0  0
 13 15  1  0  0  0  0
 13 17  1  0  0  0  0
 14 13  1  0  0  0  0
 18  6  1  0  0  0  0
M  END
