Coordinates from ORCA-job Ph-N2-BF4-B3LYPG-6-31G_dp-MTMO-d009-169-n800
 OpenBabel09051907443D

 18 17  0  0  0  0  0  0  0  0999 V2000
   -0.8692   -0.1523    0.3452 C   0  0  0  0  0  0  0  0  0  0  0  0
    0.3891    0.0194   -0.2054 C   0  0  0  0  0  0  0  0  0  0  0  0
    0.8109    1.3376   -0.6439 C   0  0  0  0  0  0  0  0  0  0  0  0
   -0.1017    2.4497   -0.4186 C   0  0  0  0  0  0  0  0  0  0  0  0
   -1.3279    2.2361    0.1525 C   0  0  0  0  0  0  0  0  0  0  0  0
   -1.7190    0.9338    0.5283 C   0  0  0  0  0  0  0  0  0  0  0  0
   -1.1643   -1.1443    0.6676 H   0  0  0  0  0  0  0  0  0  0  0  0
    1.1050   -0.7815   -0.3358 H   0  0  0  0  0  0  0  0  0  0  0  0
    0.2368    3.4360   -0.7182 H   0  0  0  0  0  0  0  0  0  0  0  0
   -1.9952    3.0751    0.3173 H   0  0  0  0  0  0  0  0  0  0  0  0
    1.7275    1.4900   -1.1114 N   0  0  0  0  0  0  0  0  0  0  0  0
    2.7192    1.6671   -1.6378 N   0  0  0  0  0  0  0  0  0  0  0  0
    2.9358    0.1436    1.4482 B   0  0  0  0  0  0  0  0  0  0  0  0
    3.1255   -0.4432    0.1540 F   0  0  0  0  0  0  0  0  0  0  0  0
    3.9596   -0.1811    2.2976 F   0  0  0  0  0  0  0  0  0  0  0  0
    2.8194    1.5420    1.2591 F   0  0  0  0  0  0  0  0  0  0  0  0
    1.6843   -0.3339    1.9299 F   0  0  0  0  0  0  0  0  0  0  0  0
   -2.6956    0.7820    0.9772 H   0  0  0  0  0  0  0  0  0  0  0  0
  1  6  1  0  0  0  0
  1  7  1  0  0  0  0
  2  1  2  0  0  0  0
  3  4  2  0  0  0  0
  3  2  1  0  0  0  0
  4  5  1  0  0  0  0
  5 10  1  0  0  0  0
  5  6  2  0  0  0  0
  6 18  1  0  0  0  0
  8  2  1  0  0  0  0
  9  4  1  0  0  0  0
 11  3  1  0  0  0  0
 12 11  1  0  0  0  0
 13 17  1  0  0  0  0
 13 15  1  0  0  0  0
 14 13  1  0  0  0  0
 16 13  1  0  0  0  0
M  RAD  2  11   2  12   3
M  END
