Coordinates from ORCA-job Ph-N2-BF4-B3LYPG-6-31G_dp-MTMO-d009-169-n800
 OpenBabel09051907443D

 18 16  0  0  0  0  0  0  0  0999 V2000
   -1.9843   -0.2584    0.4561 C   0  0  0  0  0  0  0  0  0  0  0  0
   -0.6683    0.1987    0.5542 C   0  0  0  0  0  0  0  0  0  0  0  0
   -0.4626    1.4909    1.0164 C   0  0  0  0  0  0  0  0  0  0  0  0
   -1.4976    2.3408    1.3798 C   0  0  0  0  0  0  0  0  0  0  0  0
   -2.8063    1.8644    1.2754 C   0  0  0  0  0  0  0  0  0  0  0  0
   -3.0513    0.5687    0.8149 C   0  0  0  0  0  0  0  0  0  0  0  0
   -2.1723   -1.2652    0.0961 H   0  0  0  0  0  0  0  0  0  0  0  0
    0.1789   -0.4178    0.2790 H   0  0  0  0  0  0  0  0  0  0  0  0
   -1.2746    3.3412    1.7335 H   0  0  0  0  0  0  0  0  0  0  0  0
   -3.6330    2.5103    1.5548 H   0  0  0  0  0  0  0  0  0  0  0  0
   11.5419   -1.6831   -1.8106 N   0  0  0  0  0  0  0  0  0  0  0  0
   10.5660   -1.1998   -1.9993 N   0  0  0  0  0  0  0  0  0  0  0  0
    2.5165    1.6143   -0.5291 B   0  0  0  0  0  0  0  0  0  0  0  0
    1.7657    2.1617   -1.4668 F   0  0  0  0  0  0  0  0  0  0  0  0
    3.3688    2.3511    0.1561 F   0  0  0  0  0  0  0  0  0  0  0  0
    0.8194    1.9544    1.1275 F   0  0  0  0  0  0  0  0  0  0  0  0
    2.5044    0.2989   -0.3668 F   0  0  0  0  0  0  0  0  0  0  0  0
   -4.0709    0.2047    0.7349 H   0  0  0  0  0  0  0  0  0  0  0  0
  1  2  2  0  0  0  0
  1  6  1  0  0  0  0
  2  3  1  0  0  0  0
  3 16  1  0  0  0  0
  3  4  2  0  0  0  0
  4  9  1  0  0  0  0
  5  4  1  0  0  0  0
  5 10  1  0  0  0  0
  6  5  2  0  0  0  0
  7  1  1  0  0  0  0
  8  2  1  0  0  0  0
 12 11  3  0  0  0  0
 13 17  1  0  0  0  0
 13 15  1  0  0  0  0
 14 13  1  0  0  0  0
 18  6  1  0  0  0  0
M  END
