Coordinates from ORCA-job Ph-N2-BF4-B3LYPG-6-31G_dp-MTMO-d009-169-n800
 OpenBabel09051907443D

 18 16  0  0  0  0  0  0  0  0999 V2000
   -2.0191   -0.2497    0.4620 C   0  0  0  0  0  0  0  0  0  0  0  0
   -0.7011    0.2020    0.5568 C   0  0  0  0  0  0  0  0  0  0  0  0
   -0.4886    1.4925    1.0207 C   0  0  0  0  0  0  0  0  0  0  0  0
   -1.5192    2.3458    1.3888 C   0  0  0  0  0  0  0  0  0  0  0  0
   -2.8300    1.8749    1.2877 C   0  0  0  0  0  0  0  0  0  0  0  0
   -3.0817    0.5810    0.8256 C   0  0  0  0  0  0  0  0  0  0  0  0
   -2.2125   -1.2550    0.1009 H   0  0  0  0  0  0  0  0  0  0  0  0
    0.1430   -0.4171    0.2778 H   0  0  0  0  0  0  0  0  0  0  0  0
   -1.2911    3.3447    1.7436 H   0  0  0  0  0  0  0  0  0  0  0  0
   -3.6533    2.5236    1.5708 H   0  0  0  0  0  0  0  0  0  0  0  0
   11.7718   -1.7204   -1.8487 N   0  0  0  0  0  0  0  0  0  0  0  0
   10.7947   -1.2374   -2.0325 N   0  0  0  0  0  0  0  0  0  0  0  0
    2.4865    1.6125   -0.5335 B   0  0  0  0  0  0  0  0  0  0  0  0
    1.7335    2.1653   -1.4662 F   0  0  0  0  0  0  0  0  0  0  0  0
    3.3429    2.3448    0.1514 F   0  0  0  0  0  0  0  0  0  0  0  0
    0.7956    1.9505    1.1286 F   0  0  0  0  0  0  0  0  0  0  0  0
    2.4720    0.2965   -0.3762 F   0  0  0  0  0  0  0  0  0  0  0  0
   -4.1030    0.2212    0.7483 H   0  0  0  0  0  0  0  0  0  0  0  0
  1  2  2  0  0  0  0
  1  6  1  0  0  0  0
  2  3  1  0  0  0  0
  3 16  1  0  0  0  0
  3  4  2  0  0  0  0
  4  9  1  0  0  0  0
  5  4  1  0  0  0  0
  5 10  1  0  0  0  0
  6  5  2  0  0  0  0
  7  1  1  0  0  0  0
  8  2  1  0  0  0  0
 12 11  3  0  0  0  0
 13 17  1  0  0  0  0
 13 15  1  0  0  0  0
 14 13  1  0  0  0  0
 18  6  1  0  0  0  0
M  END
