Coordinates from ORCA-job Ph-N2-BF4-B3LYPG-6-31G_dp-MTMO-d009-169-n800
 OpenBabel09051907443D

 18 17  0  0  0  0  0  0  0  0999 V2000
   -1.1815    0.1452    0.8207 C   0  0  0  0  0  0  0  0  0  0  0  0
    0.1570    0.2178    0.4429 C   0  0  0  0  0  0  0  0  0  0  0  0
    0.5215    1.3385   -0.3066 C   0  0  0  0  0  0  0  0  0  0  0  0
   -0.3450    2.3688   -0.6941 C   0  0  0  0  0  0  0  0  0  0  0  0
   -1.6689    2.2614   -0.2869 C   0  0  0  0  0  0  0  0  0  0  0  0
   -2.0819    1.1544    0.4662 C   0  0  0  0  0  0  0  0  0  0  0  0
   -1.5181   -0.7050    1.4042 H   0  0  0  0  0  0  0  0  0  0  0  0
    0.9093   -0.5265    0.6880 H   0  0  0  0  0  0  0  0  0  0  0  0
    0.0104    3.2115   -1.2761 H   0  0  0  0  0  0  0  0  0  0  0  0
   -2.3766    3.0379   -0.5564 H   0  0  0  0  0  0  0  0  0  0  0  0
    1.8841    1.4580   -0.7588 N   0  0  0  0  0  0  0  0  0  0  0  0
    2.8928    1.6154   -1.1997 N   0  0  0  0  0  0  0  0  0  0  0  0
    3.5401   -0.1334    1.1267 B   0  0  0  0  0  0  0  0  0  0  0  0
    4.4296    0.4578    0.1988 F   0  0  0  0  0  0  0  0  0  0  0  0
    4.1957   -0.7328    2.1676 F   0  0  0  0  0  0  0  0  0  0  0  0
    2.6587    0.8912    1.5824 F   0  0  0  0  0  0  0  0  0  0  0  0
    2.7316   -1.0656    0.4069 F   0  0  0  0  0  0  0  0  0  0  0  0
   -3.1185    1.0815    0.7799 H   0  0  0  0  0  0  0  0  0  0  0  0
  1  7  1  0  0  0  0
  2  8  1  0  0  0  0
  2  1  2  0  0  0  0
  3  2  1  0  0  0  0
  4  3  2  0  0  0  0
  4  5  1  0  0  0  0
  5  6  2  0  0  0  0
  6 18  1  0  0  0  0
  6  1  1  0  0  0  0
  9  4  1  0  0  0  0
 10  5  1  0  0  0  0
 11  3  1  0  0  0  0
 12 11  1  0  0  0  0
 13 16  1  0  0  0  0
 13 15  1  0  0  0  0
 14 13  1  0  0  0  0
 17 13  1  0  0  0  0
M  RAD  2  11   2  12   3
M  END
