Coordinates from ORCA-job Ph-N2-BF4-B3LYPG-6-31G_dp-MTMO-d009-169-n800
 OpenBabel09051907443D

 18 16  0  0  0  0  0  0  0  0999 V2000
   -1.2134   -0.0825    0.2415 C   0  0  0  0  0  0  0  0  0  0  0  0
    0.1101    0.0427    0.6688 C   0  0  0  0  0  0  0  0  0  0  0  0
    0.6547    1.3179    0.7388 C   0  0  0  0  0  0  0  0  0  0  0  0
   -0.0640    2.4637    0.4247 C   0  0  0  0  0  0  0  0  0  0  0  0
   -1.3859    2.3176    0.0003 C   0  0  0  0  0  0  0  0  0  0  0  0
   -1.9617    1.0481   -0.0949 C   0  0  0  0  0  0  0  0  0  0  0  0
   -1.6592   -1.0705    0.1738 H   0  0  0  0  0  0  0  0  0  0  0  0
    0.7131   -0.8154    0.9387 H   0  0  0  0  0  0  0  0  0  0  0  0
    0.4100    3.4354    0.5089 H   0  0  0  0  0  0  0  0  0  0  0  0
   -1.9645    3.1999   -0.2559 H   0  0  0  0  0  0  0  0  0  0  0  0
    1.9734    1.2052   -1.6630 N   0  0  0  0  0  0  0  0  0  0  0  0
    1.6372    1.0707   -2.7076 N   0  0  0  0  0  0  0  0  0  0  0  0
    3.8395   -0.0947    1.3190 B   0  0  0  0  0  0  0  0  0  0  0  0
    4.2286    0.0948    0.0726 F   0  0  0  0  0  0  0  0  0  0  0  0
    4.3276    0.6518    2.2892 F   0  0  0  0  0  0  0  0  0  0  0  0
    1.9394    1.4651    1.1709 F   0  0  0  0  0  0  0  0  0  0  0  0
    3.0443   -1.1148    1.6079 F   0  0  0  0  0  0  0  0  0  0  0  0
   -2.9889    0.9410   -0.4279 H   0  0  0  0  0  0  0  0  0  0  0  0
  1  2  2  0  0  0  0
  2  3  1  0  0  0  0
  2  8  1  0  0  0  0
  3 16  1  0  0  0  0
  4  9  1  0  0  0  0
  4  3  2  0  0  0  0
  5  4  1  0  0  0  0
  6  5  2  0  0  0  0
  6  1  1  0  0  0  0
  7  1  1  0  0  0  0
 10  5  1  0  0  0  0
 12 11  3  0  0  0  0
 13 17  1  0  0  0  0
 13 15  1  0  0  0  0
 14 13  1  0  0  0  0
 18  6  1  0  0  0  0
M  END
