Coordinates from ORCA-job Ph-N2-BF4-B3LYPG-6-31G_dp-MTMO-d009-169-n800
 OpenBabel09051907443D

 18 16  0  0  0  0  0  0  0  0999 V2000
   -1.3652   -0.1043    0.5046 C   0  0  0  0  0  0  0  0  0  0  0  0
   -0.0088    0.0174    0.8141 C   0  0  0  0  0  0  0  0  0  0  0  0
    0.5692    1.2759    0.7209 C   0  0  0  0  0  0  0  0  0  0  0  0
   -0.1384    2.4066    0.3359 C   0  0  0  0  0  0  0  0  0  0  0  0
   -1.4934    2.2640    0.0316 C   0  0  0  0  0  0  0  0  0  0  0  0
   -2.1082    1.0122    0.1142 C   0  0  0  0  0  0  0  0  0  0  0  0
   -1.8400   -1.0788    0.5706 H   0  0  0  0  0  0  0  0  0  0  0  0
    0.5916   -0.8304    1.1201 H   0  0  0  0  0  0  0  0  0  0  0  0
    0.3672    3.3644    0.2802 H   0  0  0  0  0  0  0  0  0  0  0  0
   -2.0664    3.1349   -0.2721 H   0  0  0  0  0  0  0  0  0  0  0  0
    2.5488    1.5005   -2.0381 N   0  0  0  0  0  0  0  0  0  0  0  0
    2.7349    1.5013   -3.1275 N   0  0  0  0  0  0  0  0  0  0  0  0
    3.7581   -0.1571    1.2599 B   0  0  0  0  0  0  0  0  0  0  0  0
    4.1478   -0.0151    0.0071 F   0  0  0  0  0  0  0  0  0  0  0  0
    4.2565    0.6167    2.2032 F   0  0  0  0  0  0  0  0  0  0  0  0
    1.8933    1.4204    1.0218 F   0  0  0  0  0  0  0  0  0  0  0  0
    2.9547   -1.1594    1.5857 F   0  0  0  0  0  0  0  0  0  0  0  0
   -3.1614    0.9069   -0.1264 H   0  0  0  0  0  0  0  0  0  0  0  0
  1  7  1  0  0  0  0
  1  2  2  0  0  0  0
  2  8  1  0  0  0  0
  3  2  1  0  0  0  0
  3 16  1  0  0  0  0
  4  3  2  0  0  0  0
  5  6  2  0  0  0  0
  5  4  1  0  0  0  0
  6  1  1  0  0  0  0
  9  4  1  0  0  0  0
 10  5  1  0  0  0  0
 12 11  3  0  0  0  0
 13 17  1  0  0  0  0
 13 15  1  0  0  0  0
 14 13  1  0  0  0  0
 18  6  1  0  0  0  0
M  END
