Coordinates from ORCA-job Ph-N2-BF4-B3LYPG-6-31G_dp-MTMO-d009-169-n800
 OpenBabel09051907443D

 18 16  0  0  0  0  0  0  0  0999 V2000
   -1.4581   -0.3436    0.6771 C   0  0  0  0  0  0  0  0  0  0  0  0
   -0.1608    0.0192    1.0453 C   0  0  0  0  0  0  0  0  0  0  0  0
    0.1749    1.3651    0.9995 C   0  0  0  0  0  0  0  0  0  0  0  0
   -0.7129    2.3560    0.6060 C   0  0  0  0  0  0  0  0  0  0  0  0
   -2.0060    1.9729    0.2431 C   0  0  0  0  0  0  0  0  0  0  0  0
   -2.3797    0.6273    0.2774 C   0  0  0  0  0  0  0  0  0  0  0  0
   -1.7459   -1.3903    0.7036 H   0  0  0  0  0  0  0  0  0  0  0  0
    0.5773   -0.7109    1.3563 H   0  0  0  0  0  0  0  0  0  0  0  0
   -0.3919    3.3917    0.5886 H   0  0  0  0  0  0  0  0  0  0  0  0
   -2.7195    2.7299   -0.0676 H   0  0  0  0  0  0  0  0  0  0  0  0
    5.6207    1.1741   -2.6657 N   0  0  0  0  0  0  0  0  0  0  0  0
    5.4615    0.5324   -1.7806 N   0  0  0  0  0  0  0  0  0  0  0  0
    3.3110    0.5861    0.4282 B   0  0  0  0  0  0  0  0  0  0  0  0
    2.7345    0.6122   -0.7606 F   0  0  0  0  0  0  0  0  0  0  0  0
    4.1339    1.5510    0.7898 F   0  0  0  0  0  0  0  0  0  0  0  0
    1.4385    1.7392    1.3649 F   0  0  0  0  0  0  0  0  0  0  0  0
    3.1485   -0.4720    1.2083 F   0  0  0  0  0  0  0  0  0  0  0  0
   -3.3855    0.3358   -0.0079 H   0  0  0  0  0  0  0  0  0  0  0  0
  1  7  1  0  0  0  0
  1  2  2  0  0  0  0
  2  8  1  0  0  0  0
  3  2  1  0  0  0  0
  3 16  1  0  0  0  0
  4  3  2  0  0  0  0
  5  6  2  0  0  0  0
  5  4  1  0  0  0  0
  6  1  1  0  0  0  0
  9  4  1  0  0  0  0
 10  5  1  0  0  0  0
 11 12  3  0  0  0  0
 13 15  1  0  0  0  0
 13 17  1  0  0  0  0
 14 13  1  0  0  0  0
 18  6  1  0  0  0  0
M  END
