Coordinates from ORCA-job Ph-N2-BF4-B3LYPG-6-31G_dp-MTMO-d009-169-n800
 OpenBabel09051907443D

 18 17  0  0  0  0  0  0  0  0999 V2000
   -0.9071   -0.1139    0.3905 C   0  0  0  0  0  0  0  0  0  0  0  0
    0.3667    0.0651   -0.1256 C   0  0  0  0  0  0  0  0  0  0  0  0
    0.7484    1.3699   -0.5747 C   0  0  0  0  0  0  0  0  0  0  0  0
   -0.1704    2.4672   -0.4661 C   0  0  0  0  0  0  0  0  0  0  0  0
   -1.4220    2.2484    0.0615 C   0  0  0  0  0  0  0  0  0  0  0  0
   -1.7917    0.9590    0.4874 C   0  0  0  0  0  0  0  0  0  0  0  0
   -1.1937   -1.0974    0.7449 H   0  0  0  0  0  0  0  0  0  0  0  0
    1.1084   -0.7211   -0.1838 H   0  0  0  0  0  0  0  0  0  0  0  0
    0.1506    3.4491   -0.7970 H   0  0  0  0  0  0  0  0  0  0  0  0
   -2.1184    3.0749    0.1524 H   0  0  0  0  0  0  0  0  0  0  0  0
    1.7967    1.5491   -1.0386 N   0  0  0  0  0  0  0  0  0  0  0  0
    2.8021    1.7314   -1.5071 N   0  0  0  0  0  0  0  0  0  0  0  0
    3.0377    0.0535    1.4252 B   0  0  0  0  0  0  0  0  0  0  0  0
    3.1378   -0.4682    0.0866 F   0  0  0  0  0  0  0  0  0  0  0  0
    4.1486   -0.2690    2.1602 F   0  0  0  0  0  0  0  0  0  0  0  0
    2.8737    1.4574    1.3001 F   0  0  0  0  0  0  0  0  0  0  0  0
    1.8543   -0.4814    1.9841 F   0  0  0  0  0  0  0  0  0  0  0  0
   -2.7810    0.8021    0.9060 H   0  0  0  0  0  0  0  0  0  0  0  0
  1  6  1  0  0  0  0
  1  7  1  0  0  0  0
  2  1  2  0  0  0  0
  3  4  2  0  0  0  0
  3  2  1  0  0  0  0
  4  5  1  0  0  0  0
  5 10  1  0  0  0  0
  5  6  2  0  0  0  0
  6 18  1  0  0  0  0
  8  2  1  0  0  0  0
  9  4  1  0  0  0  0
 11  3  1  0  0  0  0
 12 11  1  0  0  0  0
 13 17  1  0  0  0  0
 13 15  1  0  0  0  0
 14 13  1  0  0  0  0
 16 13  1  0  0  0  0
M  RAD  2  11   2  12   3
M  END
