Coordinates from ORCA-job Ph-N2-BF4-B3LYPG-6-31G_dp-MTMO-d009-169-n800
 OpenBabel09051907443D

 18 16  0  0  0  0  0  0  0  0999 V2000
   -1.9673   -0.2620    0.4526 C   0  0  0  0  0  0  0  0  0  0  0  0
   -0.6513    0.1948    0.5523 C   0  0  0  0  0  0  0  0  0  0  0  0
   -0.4460    1.4874    1.0136 C   0  0  0  0  0  0  0  0  0  0  0  0
   -1.4813    2.3379    1.3746 C   0  0  0  0  0  0  0  0  0  0  0  0
   -2.7899    1.8618    1.2686 C   0  0  0  0  0  0  0  0  0  0  0  0
   -3.0346    0.5657    0.8089 C   0  0  0  0  0  0  0  0  0  0  0  0
   -2.1550   -1.2690    0.0932 H   0  0  0  0  0  0  0  0  0  0  0  0
    0.1962   -0.4222    0.2790 H   0  0  0  0  0  0  0  0  0  0  0  0
   -1.2586    3.3385    1.7278 H   0  0  0  0  0  0  0  0  0  0  0  0
   -3.6169    2.5081    1.5461 H   0  0  0  0  0  0  0  0  0  0  0  0
   11.4043   -1.6517   -1.7856 N   0  0  0  0  0  0  0  0  0  0  0  0
   10.4299   -1.1666   -1.9774 N   0  0  0  0  0  0  0  0  0  0  0  0
    2.5349    1.6080   -0.5279 B   0  0  0  0  0  0  0  0  0  0  0  0
    1.7846    2.1527   -1.4676 F   0  0  0  0  0  0  0  0  0  0  0  0
    3.3861    2.3469    0.1563 F   0  0  0  0  0  0  0  0  0  0  0  0
    0.8360    1.9507    1.1263 F   0  0  0  0  0  0  0  0  0  0  0  0
    2.5235    0.2930   -0.3626 F   0  0  0  0  0  0  0  0  0  0  0  0
   -4.0542    0.2019    0.7277 H   0  0  0  0  0  0  0  0  0  0  0  0
  1  2  2  0  0  0  0
  1  6  1  0  0  0  0
  2  3  1  0  0  0  0
  3 16  1  0  0  0  0
  3  4  2  0  0  0  0
  4  9  1  0  0  0  0
  5  4  1  0  0  0  0
  5 10  1  0  0  0  0
  6  5  2  0  0  0  0
  7  1  1  0  0  0  0
  8  2  1  0  0  0  0
 12 11  3  0  0  0  0
 13 17  1  0  0  0  0
 13 15  1  0  0  0  0
 14 13  1  0  0  0  0
 18  6  1  0  0  0  0
M  END
