Coordinates from ORCA-job Ph-N2-BF4-B3LYPG-6-31G_dp-MTMO-d009-169-n800
 OpenBabel09051907443D

 18 16  0  0  0  0  0  0  0  0999 V2000
   -1.9928   -0.2566    0.4578 C   0  0  0  0  0  0  0  0  0  0  0  0
   -0.6768    0.2007    0.5552 C   0  0  0  0  0  0  0  0  0  0  0  0
   -0.4710    1.4927    1.0178 C   0  0  0  0  0  0  0  0  0  0  0  0
   -1.5058    2.3423    1.3823 C   0  0  0  0  0  0  0  0  0  0  0  0
   -2.8145    1.8658    1.2786 C   0  0  0  0  0  0  0  0  0  0  0  0
   -3.0596    0.5703    0.8177 C   0  0  0  0  0  0  0  0  0  0  0  0
   -2.1810   -1.2632    0.0976 H   0  0  0  0  0  0  0  0  0  0  0  0
    0.1703   -0.4156    0.2791 H   0  0  0  0  0  0  0  0  0  0  0  0
   -1.2826    3.3425    1.7363 H   0  0  0  0  0  0  0  0  0  0  0  0
   -3.6410    2.5115    1.5589 H   0  0  0  0  0  0  0  0  0  0  0  0
   11.6107   -1.6986   -1.8233 N   0  0  0  0  0  0  0  0  0  0  0  0
   10.6339   -1.2163   -2.0104 N   0  0  0  0  0  0  0  0  0  0  0  0
    2.5074    1.6173   -0.5295 B   0  0  0  0  0  0  0  0  0  0  0  0
    1.7564    2.1659   -1.4663 F   0  0  0  0  0  0  0  0  0  0  0  0
    3.3602    2.3531    0.1562 F   0  0  0  0  0  0  0  0  0  0  0  0
    0.8111    1.9563    1.1281 F   0  0  0  0  0  0  0  0  0  0  0  0
    2.4949    0.3017   -0.3686 F   0  0  0  0  0  0  0  0  0  0  0  0
   -4.0793    0.2061    0.7384 H   0  0  0  0  0  0  0  0  0  0  0  0
  1  2  2  0  0  0  0
  1  6  1  0  0  0  0
  2  3  1  0  0  0  0
  3 16  1  0  0  0  0
  3  4  2  0  0  0  0
  4  9  1  0  0  0  0
  5  4  1  0  0  0  0
  5 10  1  0  0  0  0
  6  5  2  0  0  0  0
  7  1  1  0  0  0  0
  8  2  1  0  0  0  0
 12 11  3  0  0  0  0
 13 17  1  0  0  0  0
 13 15  1  0  0  0  0
 14 13  1  0  0  0  0
 18  6  1  0  0  0  0
M  END
