Coordinates from ORCA-job Ph-N2-BF4-B3LYPG-6-31G_dp-MTMO-d009-169-n800
 OpenBabel09051907443D

 18 16  0  0  0  0  0  0  0  0999 V2000
   -1.2114   -0.0824    0.2388 C   0  0  0  0  0  0  0  0  0  0  0  0
    0.1118    0.0428    0.6669 C   0  0  0  0  0  0  0  0  0  0  0  0
    0.6567    1.3179    0.7365 C   0  0  0  0  0  0  0  0  0  0  0  0
   -0.0621    2.4637    0.4230 C   0  0  0  0  0  0  0  0  0  0  0  0
   -1.3837    2.3177   -0.0023 C   0  0  0  0  0  0  0  0  0  0  0  0
   -1.9594    1.0482   -0.0982 C   0  0  0  0  0  0  0  0  0  0  0  0
   -1.6572   -1.0704    0.1709 H   0  0  0  0  0  0  0  0  0  0  0  0
    0.7147   -0.8154    0.9372 H   0  0  0  0  0  0  0  0  0  0  0  0
    0.4118    3.4355    0.5077 H   0  0  0  0  0  0  0  0  0  0  0  0
   -1.9622    3.2000   -0.2585 H   0  0  0  0  0  0  0  0  0  0  0  0
    1.9618    1.2045   -1.6499 N   0  0  0  0  0  0  0  0  0  0  0  0
    1.6209    1.0708   -2.6932 N   0  0  0  0  0  0  0  0  0  0  0  0
    3.8406   -0.0947    1.3188 B   0  0  0  0  0  0  0  0  0  0  0  0
    4.2293    0.0944    0.0723 F   0  0  0  0  0  0  0  0  0  0  0  0
    4.3291    0.6521    2.2887 F   0  0  0  0  0  0  0  0  0  0  0  0
    1.9407    1.4651    1.1706 F   0  0  0  0  0  0  0  0  0  0  0  0
    3.0455   -1.1147    1.6084 F   0  0  0  0  0  0  0  0  0  0  0  0
   -2.9865    0.9411   -0.4317 H   0  0  0  0  0  0  0  0  0  0  0  0
  1  2  2  0  0  0  0
  2  3  1  0  0  0  0
  2  8  1  0  0  0  0
  3 16  1  0  0  0  0
  4  9  1  0  0  0  0
  4  3  2  0  0  0  0
  5  4  1  0  0  0  0
  6  5  2  0  0  0  0
  6  1  1  0  0  0  0
  7  1  1  0  0  0  0
 10  5  1  0  0  0  0
 12 11  3  0  0  0  0
 13 17  1  0  0  0  0
 13 15  1  0  0  0  0
 14 13  1  0  0  0  0
 18  6  1  0  0  0  0
M  END
