Coordinates from ORCA-job Ph-N2-BF4-B3LYPG-6-31G_dp-MTMO-d009-169-n800
 OpenBabel09051907443D

 18 16  0  0  0  0  0  0  0  0999 V2000
   -1.9810   -0.2592    0.4550 C   0  0  0  0  0  0  0  0  0  0  0  0
   -0.6644    0.1961    0.5522 C   0  0  0  0  0  0  0  0  0  0  0  0
   -0.4565    1.4882    1.0139 C   0  0  0  0  0  0  0  0  0  0  0  0
   -1.4902    2.3396    1.3776 C   0  0  0  0  0  0  0  0  0  0  0  0
   -2.7996    1.8650    1.2741 C   0  0  0  0  0  0  0  0  0  0  0  0
   -3.0467    0.5695    0.8141 C   0  0  0  0  0  0  0  0  0  0  0  0
   -2.1708   -1.2658    0.0954 H   0  0  0  0  0  0  0  0  0  0  0  0
    0.1821   -0.4214    0.2768 H   0  0  0  0  0  0  0  0  0  0  0  0
   -1.2657    3.3398    1.7309 H   0  0  0  0  0  0  0  0  0  0  0  0
   -3.6253    2.5121    1.5537 H   0  0  0  0  0  0  0  0  0  0  0  0
   11.4924   -1.6667   -1.8002 N   0  0  0  0  0  0  0  0  0  0  0  0
   10.5166   -1.1834   -1.9899 N   0  0  0  0  0  0  0  0  0  0  0  0
    2.5252    1.6092   -0.5291 B   0  0  0  0  0  0  0  0  0  0  0  0
    1.7742    2.1553   -1.4674 F   0  0  0  0  0  0  0  0  0  0  0  0
    3.3765    2.3473    0.1559 F   0  0  0  0  0  0  0  0  0  0  0  0
    0.8262    1.9497    1.1240 F   0  0  0  0  0  0  0  0  0  0  0  0
    2.5142    0.2939   -0.3660 F   0  0  0  0  0  0  0  0  0  0  0  0
   -4.0668    0.2069    0.7348 H   0  0  0  0  0  0  0  0  0  0  0  0
  1  2  2  0  0  0  0
  1  6  1  0  0  0  0
  2  3  1  0  0  0  0
  3 16  1  0  0  0  0
  3  4  2  0  0  0  0
  4  9  1  0  0  0  0
  5  4  1  0  0  0  0
  5 10  1  0  0  0  0
  6  5  2  0  0  0  0
  7  1  1  0  0  0  0
  8  2  1  0  0  0  0
 12 11  3  0  0  0  0
 13 17  1  0  0  0  0
 13 15  1  0  0  0  0
 14 13  1  0  0  0  0
 18  6  1  0  0  0  0
M  END
