Coordinates from ORCA-job Ph-N2-BF4-B3LYPG-6-31G_dp-MTMO-d009-169-n800
 OpenBabel09051907443D

 18 16  0  0  0  0  0  0  0  0999 V2000
   -1.3471   -0.3612    0.3986 C   0  0  0  0  0  0  0  0  0  0  0  0
   -0.0695    0.0606    0.7728 C   0  0  0  0  0  0  0  0  0  0  0  0
    0.1211    1.4114    1.0279 C   0  0  0  0  0  0  0  0  0  0  0  0
   -0.8944    2.3518    0.9261 C   0  0  0  0  0  0  0  0  0  0  0  0
   -2.1652    1.9102    0.5515 C   0  0  0  0  0  0  0  0  0  0  0  0
   -2.3934    0.5577    0.2876 C   0  0  0  0  0  0  0  0  0  0  0  0
   -1.5210   -1.4128    0.1911 H   0  0  0  0  0  0  0  0  0  0  0  0
    0.7627   -0.6275    0.8630 H   0  0  0  0  0  0  0  0  0  0  0  0
   -0.6860    3.3947    1.1387 H   0  0  0  0  0  0  0  0  0  0  0  0
   -2.9758    2.6275    0.4652 H   0  0  0  0  0  0  0  0  0  0  0  0
    5.9540   -0.4866   -2.2345 N   0  0  0  0  0  0  0  0  0  0  0  0
    5.4069    0.0928   -1.4699 N   0  0  0  0  0  0  0  0  0  0  0  0
    3.3513    1.1336    0.1833 B   0  0  0  0  0  0  0  0  0  0  0  0
    2.7756    1.4743   -0.9552 F   0  0  0  0  0  0  0  0  0  0  0  0
    4.1085    1.9961    0.8321 F   0  0  0  0  0  0  0  0  0  0  0  0
    1.3623    1.8410    1.4030 F   0  0  0  0  0  0  0  0  0  0  0  0
    3.2334   -0.1086    0.6300 F   0  0  0  0  0  0  0  0  0  0  0  0
   -3.3828    0.2208   -0.0052 H   0  0  0  0  0  0  0  0  0  0  0  0
  1  2  1  0  0  0  0
  2  8  1  0  0  0  0
  2  3  2  0  0  0  0
  3 16  1  0  0  0  0
  4  3  1  0  0  0  0
  4  9  1  0  0  0  0
  5  4  2  0  0  0  0
  6  1  2  0  0  0  0
  6  5  1  0  0  0  0
  7  1  1  0  0  0  0
 10  5  1  0  0  0  0
 11 12  3  0  0  0  0
 13 17  1  0  0  0  0
 13 15  1  0  0  0  0
 14 13  1  0  0  0  0
 18  6  1  0  0  0  0
M  END
