Coordinates from ORCA-job Ph-N2-BF4-B3LYPG-6-31G_dp-MTMO-d009-169-n800
 OpenBabel09051907443D

 18 16  0  0  0  0  0  0  0  0999 V2000
   -1.7348   -0.3093    0.5741 C   0  0  0  0  0  0  0  0  0  0  0  0
   -0.4050    0.1073    0.4807 C   0  0  0  0  0  0  0  0  0  0  0  0
   -0.1353    1.4609    0.6297 C   0  0  0  0  0  0  0  0  0  0  0  0
   -1.1222    2.4083    0.8646 C   0  0  0  0  0  0  0  0  0  0  0  0
   -2.4456    1.9714    0.9546 C   0  0  0  0  0  0  0  0  0  0  0  0
   -2.7536    0.6165    0.8099 C   0  0  0  0  0  0  0  0  0  0  0  0
   -1.9717   -1.3629    0.4595 H   0  0  0  0  0  0  0  0  0  0  0  0
    0.4066   -0.5865    0.2965 H   0  0  0  0  0  0  0  0  0  0  0  0
   -0.8511    3.4528    0.9738 H   0  0  0  0  0  0  0  0  0  0  0  0
   -3.2348    2.6942    1.1383 H   0  0  0  0  0  0  0  0  0  0  0  0
    8.1475   -0.0236   -1.5389 N   0  0  0  0  0  0  0  0  0  0  0  0
    7.0904    0.1151   -1.2473 N   0  0  0  0  0  0  0  0  0  0  0  0
    3.2988    0.8532   -0.1966 B   0  0  0  0  0  0  0  0  0  0  0  0
    3.2582    1.5086   -1.3398 F   0  0  0  0  0  0  0  0  0  0  0  0
    3.9018    1.3773    0.8516 F   0  0  0  0  0  0  0  0  0  0  0  0
    1.1583    1.8892    0.5432 F   0  0  0  0  0  0  0  0  0  0  0  0
    2.8169   -0.3796   -0.1297 F   0  0  0  0  0  0  0  0  0  0  0  0
   -3.7842    0.2832    0.8817 H   0  0  0  0  0  0  0  0  0  0  0  0
  1  6  1  0  0  0  0
  2  1  2  0  0  0  0
  2  3  1  0  0  0  0
  3  4  2  0  0  0  0
  4  5  1  0  0  0  0
  4  9  1  0  0  0  0
  5 10  1  0  0  0  0
  6 18  1  0  0  0  0
  6  5  2  0  0  0  0
  7  1  1  0  0  0  0
  8  2  1  0  0  0  0
 11 12  3  0  0  0  0
 13 17  1  0  0  0  0
 13 15  1  0  0  0  0
 14 13  1  0  0  0  0
 16  3  1  0  0  0  0
M  END
