Coordinates from ORCA-job Ph-N2-BF4-B3LYPG-6-31G_dp-MTMO-d009-169-n800
 OpenBabel09051907443D

 18 16  0  0  0  0  0  0  0  0999 V2000
   -2.2754   -0.2028    0.5243 C   0  0  0  0  0  0  0  0  0  0  0  0
   -0.9578    0.2563    0.5830 C   0  0  0  0  0  0  0  0  0  0  0  0
   -0.7387    1.5423    1.0562 C   0  0  0  0  0  0  0  0  0  0  0  0
   -1.7623    2.3847    1.4667 C   0  0  0  0  0  0  0  0  0  0  0  0
   -3.0729    1.9067    1.4007 C   0  0  0  0  0  0  0  0  0  0  0  0
   -3.3310    0.6167    0.9313 C   0  0  0  0  0  0  0  0  0  0  0  0
   -2.4740   -1.2050    0.1575 H   0  0  0  0  0  0  0  0  0  0  0  0
   -0.1191   -0.3535    0.2693 H   0  0  0  0  0  0  0  0  0  0  0  0
   -1.5293    3.3807    1.8261 H   0  0  0  0  0  0  0  0  0  0  0  0
   -3.8908    2.5466    1.7170 H   0  0  0  0  0  0  0  0  0  0  0  0
   13.8377   -2.2146   -2.1866 N   0  0  0  0  0  0  0  0  0  0  0  0
   12.8592   -1.7307   -2.3598 N   0  0  0  0  0  0  0  0  0  0  0  0
    2.2033    1.7293   -0.5748 B   0  0  0  0  0  0  0  0  0  0  0  0
    1.4564    2.3630   -1.4596 F   0  0  0  0  0  0  0  0  0  0  0  0
    3.0853    2.3918    0.1479 F   0  0  0  0  0  0  0  0  0  0  0  0
    0.5455    2.0068    1.1306 F   0  0  0  0  0  0  0  0  0  0  0  0
    2.1563    0.4065   -0.5062 F   0  0  0  0  0  0  0  0  0  0  0  0
   -4.3520    0.2510    0.8823 H   0  0  0  0  0  0  0  0  0  0  0  0
  1  2  2  0  0  0  0
  1  6  1  0  0  0  0
  2  3  1  0  0  0  0
  3 16  1  0  0  0  0
  3  4  2  0  0  0  0
  4  9  1  0  0  0  0
  5  4  1  0  0  0  0
  5 10  1  0  0  0  0
  6  5  2  0  0  0  0
  7  1  1  0  0  0  0
  8  2  1  0  0  0  0
 12 11  3  0  0  0  0
 13 17  1  0  0  0  0
 13 15  1  0  0  0  0
 14 13  1  0  0  0  0
 18  6  1  0  0  0  0
M  END
