Coordinates from ORCA-job Ph-N2-BF4-B3LYPG-6-31G_dp-MTMO-d009-169-n800
 OpenBabel09051907443D

 18 16  0  0  0  0  0  0  0  0999 V2000
   -1.7860   -0.3083    0.5739 C   0  0  0  0  0  0  0  0  0  0  0  0
   -0.4589    0.1244    0.5233 C   0  0  0  0  0  0  0  0  0  0  0  0
   -0.2111    1.4807    0.6837 C   0  0  0  0  0  0  0  0  0  0  0  0
   -1.2163    2.4155    0.8892 C   0  0  0  0  0  0  0  0  0  0  0  0
   -2.5365    1.9625    0.9366 C   0  0  0  0  0  0  0  0  0  0  0  0
   -2.8230    0.6042    0.7794 C   0  0  0  0  0  0  0  0  0  0  0  0
   -2.0060   -1.3645    0.4496 H   0  0  0  0  0  0  0  0  0  0  0  0
    0.3654   -0.5601    0.3633 H   0  0  0  0  0  0  0  0  0  0  0  0
   -0.9614    3.4629    1.0091 H   0  0  0  0  0  0  0  0  0  0  0  0
   -3.3397    2.6752    1.0970 H   0  0  0  0  0  0  0  0  0  0  0  0
    8.7658   -0.2022   -1.8219 N   0  0  0  0  0  0  0  0  0  0  0  0
    7.7147   -0.1032   -1.4948 N   0  0  0  0  0  0  0  0  0  0  0  0
    3.2030    0.9401   -0.1021 B   0  0  0  0  0  0  0  0  0  0  0  0
    3.1412    1.5817   -1.2524 F   0  0  0  0  0  0  0  0  0  0  0  0
    3.8072    1.4859    0.9344 F   0  0  0  0  0  0  0  0  0  0  0  0
    1.0792    1.9273    0.6401 F   0  0  0  0  0  0  0  0  0  0  0  0
    2.7538   -0.3044   -0.0202 F   0  0  0  0  0  0  0  0  0  0  0  0
   -3.8512    0.2582    0.8177 H   0  0  0  0  0  0  0  0  0  0  0  0
  1  6  1  0  0  0  0
  2  1  2  0  0  0  0
  2  3  1  0  0  0  0
  3  4  2  0  0  0  0
  4  5  1  0  0  0  0
  4  9  1  0  0  0  0
  5 10  1  0  0  0  0
  6 18  1  0  0  0  0
  6  5  2  0  0  0  0
  7  1  1  0  0  0  0
  8  2  1  0  0  0  0
 11 12  3  0  0  0  0
 13 17  1  0  0  0  0
 13 15  1  0  0  0  0
 14 13  1  0  0  0  0
 16  3  1  0  0  0  0
M  END
