Coordinates from ORCA-job Ph-N2-BF4-B3LYPG-6-31G_dp-MTMO-d009-169-n800
 OpenBabel09051907443D

 18 16  0  0  0  0  0  0  0  0999 V2000
   -1.1168    0.1066    0.7731 C   0  0  0  0  0  0  0  0  0  0  0  0
    0.2323    0.2609    0.3450 C   0  0  0  0  0  0  0  0  0  0  0  0
    0.2981    1.4249   -0.2919 C   0  0  0  0  0  0  0  0  0  0  0  0
   -0.4618    2.4793   -0.6522 C   0  0  0  0  0  0  0  0  0  0  0  0
   -1.7769    2.2468   -0.1834 C   0  0  0  0  0  0  0  0  0  0  0  0
   -2.0885    1.0768    0.5158 C   0  0  0  0  0  0  0  0  0  0  0  0
   -1.3538   -0.7972    1.3264 H   0  0  0  0  0  0  0  0  0  0  0  0
    1.0719   -0.4506    0.5486 H   0  0  0  0  0  0  0  0  0  0  0  0
   -0.1508    3.3576   -1.1983 H   0  0  0  0  0  0  0  0  0  0  0  0
   -2.5276    3.0037   -0.3884 H   0  0  0  0  0  0  0  0  0  0  0  0
    2.3293    1.7313   -1.1381 N   0  0  0  0  0  0  0  0  0  0  0  0
    3.3523    1.7165   -1.5524 N   0  0  0  0  0  0  0  0  0  0  0  0
    3.4308   -0.1929    1.2306 B   0  0  0  0  0  0  0  0  0  0  0  0
    4.4005   -0.0188    0.2491 F   0  0  0  0  0  0  0  0  0  0  0  0
    3.9409   -0.6054    2.4349 F   0  0  0  0  0  0  0  0  0  0  0  0
    2.6835    1.0077    1.3718 F   0  0  0  0  0  0  0  0  0  0  0  0
    2.4793   -1.1928    0.7469 F   0  0  0  0  0  0  0  0  0  0  0  0
   -3.1022    0.9216    0.8684 H   0  0  0  0  0  0  0  0  0  0  0  0
  1  7  1  0  0  0  0
  2  8  1  0  0  0  0
  2  1  2  0  0  0  0
  3  2  1  0  0  0  0
  4  3  2  0  0  0  0
  4  5  1  0  0  0  0
  5  6  2  0  0  0  0
  6  1  1  0  0  0  0
  6 18  1  0  0  0  0
  9  4  1  0  0  0  0
 10  5  1  0  0  0  0
 12 11  3  0  0  0  0
 13 16  1  0  0  0  0
 13 15  1  0  0  0  0
 14 13  1  0  0  0  0
 17 13  1  0  0  0  0
M  RAD  1   3   2
M  END
