Coordinates from ORCA-job Ph-N2-BF4-B3LYPG-6-31G_dp-MTMO-d009-169-n800
 OpenBabel09051907443D

 18 16  0  0  0  0  0  0  0  0999 V2000
   -1.2970   -0.0934    0.3665 C   0  0  0  0  0  0  0  0  0  0  0  0
    0.0461    0.0327    0.7279 C   0  0  0  0  0  0  0  0  0  0  0  0
    0.5992    1.3058    0.7431 C   0  0  0  0  0  0  0  0  0  0  0  0
   -0.1214    2.4470    0.4178 C   0  0  0  0  0  0  0  0  0  0  0  0
   -1.4629    2.2998    0.0600 C   0  0  0  0  0  0  0  0  0  0  0  0
   -2.0520    1.0333    0.0326 C   0  0  0  0  0  0  0  0  0  0  0  0
   -1.7520   -1.0793    0.3472 H   0  0  0  0  0  0  0  0  0  0  0  0
    0.6549   -0.8225    0.9941 H   0  0  0  0  0  0  0  0  0  0  0  0
    0.3641    3.4163    0.4478 H   0  0  0  0  0  0  0  0  0  0  0  0
   -2.0454    3.1786   -0.1990 H   0  0  0  0  0  0  0  0  0  0  0  0
    2.3299    1.3171   -1.9519 N   0  0  0  0  0  0  0  0  0  0  0  0
    2.3089    1.2011   -3.0508 N   0  0  0  0  0  0  0  0  0  0  0  0
    3.7925   -0.1136    1.3020 B   0  0  0  0  0  0  0  0  0  0  0  0
    4.1942    0.0545    0.0563 F   0  0  0  0  0  0  0  0  0  0  0  0
    4.2752    0.6461    2.2646 F   0  0  0  0  0  0  0  0  0  0  0  0
    1.9090    1.4542    1.0968 F   0  0  0  0  0  0  0  0  0  0  0  0
    2.9919   -1.1267    1.5998 F   0  0  0  0  0  0  0  0  0  0  0  0
   -3.0946    0.9250   -0.2490 H   0  0  0  0  0  0  0  0  0  0  0  0
  1  2  2  0  0  0  0
  2  3  1  0  0  0  0
  2  8  1  0  0  0  0
  3 16  1  0  0  0  0
  4  9  1  0  0  0  0
  4  3  2  0  0  0  0
  5  4  1  0  0  0  0
  6  5  2  0  0  0  0
  6  1  1  0  0  0  0
  7  1  1  0  0  0  0
 10  5  1  0  0  0  0
 12 11  3  0  0  0  0
 13 17  1  0  0  0  0
 13 15  1  0  0  0  0
 14 13  1  0  0  0  0
 18  6  1  0  0  0  0
M  END
