Coordinates from ORCA-job Ph-N2-BF4-B3LYPG-6-31G_dp-MTMO-d009-169-n800
 OpenBabel09051907443D

 18 16  0  0  0  0  0  0  0  0999 V2000
   -1.5676   -0.1647    0.9911 C   0  0  0  0  0  0  0  0  0  0  0  0
   -0.2056    0.0536    1.2101 C   0  0  0  0  0  0  0  0  0  0  0  0
    0.3415    1.2469    0.7602 C   0  0  0  0  0  0  0  0  0  0  0  0
   -0.3985    2.2221    0.1065 C   0  0  0  0  0  0  0  0  0  0  0  0
   -1.7588    1.9852   -0.1018 C   0  0  0  0  0  0  0  0  0  0  0  0
   -2.3442    0.7955    0.3381 C   0  0  0  0  0  0  0  0  0  0  0  0
   -2.0192   -1.0911    1.3328 H   0  0  0  0  0  0  0  0  0  0  0  0
    0.4231   -0.6746    1.7086 H   0  0  0  0  0  0  0  0  0  0  0  0
    0.0853    3.1343   -0.2245 H   0  0  0  0  0  0  0  0  0  0  0  0
   -2.3590    2.7340   -0.6099 H   0  0  0  0  0  0  0  0  0  0  0  0
    4.2715    2.3217   -1.8244 N   0  0  0  0  0  0  0  0  0  0  0  0
    5.1993    2.0312   -2.3500 N   0  0  0  0  0  0  0  0  0  0  0  0
    3.4024   -0.1298    0.6355 B   0  0  0  0  0  0  0  0  0  0  0  0
    3.0441   -0.3249   -0.6204 F   0  0  0  0  0  0  0  0  0  0  0  0
    4.3318    0.7590    0.9293 F   0  0  0  0  0  0  0  0  0  0  0  0
    1.6722    1.4831    0.9708 F   0  0  0  0  0  0  0  0  0  0  0  0
    2.9238   -0.9218    1.5836 F   0  0  0  0  0  0  0  0  0  0  0  0
   -3.4016    0.6162    0.1703 H   0  0  0  0  0  0  0  0  0  0  0  0
  1  2  1  0  0  0  0
  1  7  1  0  0  0  0
  2  8  1  0  0  0  0
  3 16  1  0  0  0  0
  3  2  2  0  0  0  0
  4  3  1  0  0  0  0
  5  4  2  0  0  0  0
  5  6  1  0  0  0  0
  6  1  2  0  0  0  0
  9  4  1  0  0  0  0
 10  5  1  0  0  0  0
 12 11  3  0  0  0  0
 13 15  1  0  0  0  0
 13 17  1  0  0  0  0
 14 13  1  0  0  0  0
 18  6  1  0  0  0  0
M  END
