Coordinates from ORCA-job Ph-N2-BF4-B3LYPG-6-31G_dp-MTMO-d009-169-n800
 OpenBabel09051907443D

 18 16  0  0  0  0  0  0  0  0999 V2000
   -2.2877   -0.2002    0.5275 C   0  0  0  0  0  0  0  0  0  0  0  0
   -0.9706    0.2609    0.5857 C   0  0  0  0  0  0  0  0  0  0  0  0
   -0.7536    1.5471    1.0594 C   0  0  0  0  0  0  0  0  0  0  0  0
   -1.7784    2.3876    1.4706 C   0  0  0  0  0  0  0  0  0  0  0  0
   -3.0882    1.9076    1.4050 C   0  0  0  0  0  0  0  0  0  0  0  0
   -3.3444    0.6173    0.9352 C   0  0  0  0  0  0  0  0  0  0  0  0
   -2.4846   -1.2026    0.1603 H   0  0  0  0  0  0  0  0  0  0  0  0
   -0.1314   -0.3477    0.2714 H   0  0  0  0  0  0  0  0  0  0  0  0
   -1.5466    3.3838    1.8303 H   0  0  0  0  0  0  0  0  0  0  0  0
   -3.9069    2.5462    1.7219 H   0  0  0  0  0  0  0  0  0  0  0  0
   13.9561   -2.2455   -2.2086 N   0  0  0  0  0  0  0  0  0  0  0  0
   12.9775   -1.7619   -2.3821 N   0  0  0  0  0  0  0  0  0  0  0  0
    2.1865    1.7366   -0.5743 B   0  0  0  0  0  0  0  0  0  0  0  0
    1.4411    2.3727   -1.4585 F   0  0  0  0  0  0  0  0  0  0  0  0
    3.0690    2.3965    0.1500 F   0  0  0  0  0  0  0  0  0  0  0  0
    0.5299    2.0138    1.1336 F   0  0  0  0  0  0  0  0  0  0  0  0
    2.1374    0.4137   -0.5079 F   0  0  0  0  0  0  0  0  0  0  0  0
   -4.3648    0.2501    0.8864 H   0  0  0  0  0  0  0  0  0  0  0  0
  1  2  2  0  0  0  0
  1  6  1  0  0  0  0
  2  3  1  0  0  0  0
  3 16  1  0  0  0  0
  3  4  2  0  0  0  0
  4  9  1  0  0  0  0
  5  4  1  0  0  0  0
  5 10  1  0  0  0  0
  6  5  2  0  0  0  0
  7  1  1  0  0  0  0
  8  2  1  0  0  0  0
 12 11  3  0  0  0  0
 13 17  1  0  0  0  0
 13 15  1  0  0  0  0
 14 13  1  0  0  0  0
 18  6  1  0  0  0  0
M  END
