Coordinates from ORCA-job Ph-N2-BF4-B3LYPG-6-31G_dp-MTMO-d009-169-n800
 OpenBabel09051907443D

 18 16  0  0  0  0  0  0  0  0999 V2000
   -2.2887   -0.1998    0.5271 C   0  0  0  0  0  0  0  0  0  0  0  0
   -0.9710    0.2594    0.5844 C   0  0  0  0  0  0  0  0  0  0  0  0
   -0.7515    1.5452    1.0580 C   0  0  0  0  0  0  0  0  0  0  0  0
   -1.7748    2.3873    1.4699 C   0  0  0  0  0  0  0  0  0  0  0  0
   -3.0854    1.9092    1.4052 C   0  0  0  0  0  0  0  0  0  0  0  0
   -3.3439    0.6194    0.9356 C   0  0  0  0  0  0  0  0  0  0  0  0
   -2.4876   -1.2019    0.1601 H   0  0  0  0  0  0  0  0  0  0  0  0
   -0.1327   -0.3503    0.2696 H   0  0  0  0  0  0  0  0  0  0  0  0
   -1.5414    3.3832    1.8294 H   0  0  0  0  0  0  0  0  0  0  0  0
   -3.9029    2.5490    1.7227 H   0  0  0  0  0  0  0  0  0  0  0  0
   13.9408   -2.2371   -2.2052 N   0  0  0  0  0  0  0  0  0  0  0  0
   12.9617   -1.7541   -2.3781 N   0  0  0  0  0  0  0  0  0  0  0  0
    2.1905    1.7325   -0.5744 B   0  0  0  0  0  0  0  0  0  0  0  0
    1.4447    2.3683   -1.4586 F   0  0  0  0  0  0  0  0  0  0  0  0
    3.0730    2.3928    0.1495 F   0  0  0  0  0  0  0  0  0  0  0  0
    0.5327    2.0098    1.1311 F   0  0  0  0  0  0  0  0  0  0  0  0
    2.1417    0.4096   -0.5078 F   0  0  0  0  0  0  0  0  0  0  0  0
   -4.3649    0.2537    0.8875 H   0  0  0  0  0  0  0  0  0  0  0  0
  1  2  2  0  0  0  0
  1  6  1  0  0  0  0
  2  3  1  0  0  0  0
  3 16  1  0  0  0  0
  3  4  2  0  0  0  0
  4  9  1  0  0  0  0
  5  4  1  0  0  0  0
  5 10  1  0  0  0  0
  6  5  2  0  0  0  0
  7  1  1  0  0  0  0
  8  2  1  0  0  0  0
 12 11  3  0  0  0  0
 13 17  1  0  0  0  0
 13 15  1  0  0  0  0
 14 13  1  0  0  0  0
 18  6  1  0  0  0  0
M  END
