Coordinates from ORCA-job Ph-N2-BF4-B3LYPG-6-31G_dp-MTMO-d009-169-n800
 OpenBabel09051907443D

 18 16  0  0  0  0  0  0  0  0999 V2000
   -1.7657   -0.3084    0.5767 C   0  0  0  0  0  0  0  0  0  0  0  0
   -0.4378    0.1164    0.4931 C   0  0  0  0  0  0  0  0  0  0  0  0
   -0.1774    1.4712    0.6467 C   0  0  0  0  0  0  0  0  0  0  0  0
   -1.1718    2.4120    0.8769 C   0  0  0  0  0  0  0  0  0  0  0  0
   -2.4931    1.9670    0.9571 C   0  0  0  0  0  0  0  0  0  0  0  0
   -2.7917    0.6105    0.8075 C   0  0  0  0  0  0  0  0  0  0  0  0
   -1.9953   -1.3632    0.4583 H   0  0  0  0  0  0  0  0  0  0  0  0
    0.3788   -0.5726    0.3132 H   0  0  0  0  0  0  0  0  0  0  0  0
   -0.9078    3.4579    0.9901 H   0  0  0  0  0  0  0  0  0  0  0  0
   -3.2878    2.6846    1.1370 H   0  0  0  0  0  0  0  0  0  0  0  0
    8.4929   -0.1087   -1.6614 N   0  0  0  0  0  0  0  0  0  0  0  0
    7.4345   -0.0054   -1.3601 N   0  0  0  0  0  0  0  0  0  0  0  0
    3.2456    0.8975   -0.1603 B   0  0  0  0  0  0  0  0  0  0  0  0
    3.2007    1.5496   -1.3053 F   0  0  0  0  0  0  0  0  0  0  0  0
    3.8452    1.4286    0.8865 F   0  0  0  0  0  0  0  0  0  0  0  0
    1.1139    1.9089    0.5701 F   0  0  0  0  0  0  0  0  0  0  0  0
    2.7779   -0.3408   -0.0916 F   0  0  0  0  0  0  0  0  0  0  0  0
   -3.8208    0.2708    0.8716 H   0  0  0  0  0  0  0  0  0  0  0  0
  1  6  1  0  0  0  0
  2  1  2  0  0  0  0
  2  3  1  0  0  0  0
  3  4  2  0  0  0  0
  4  5  1  0  0  0  0
  4  9  1  0  0  0  0
  5 10  1  0  0  0  0
  6 18  1  0  0  0  0
  6  5  2  0  0  0  0
  7  1  1  0  0  0  0
  8  2  1  0  0  0  0
 11 12  3  0  0  0  0
 13 17  1  0  0  0  0
 13 15  1  0  0  0  0
 14 13  1  0  0  0  0
 16  3  1  0  0  0  0
M  END
