Coordinates from ORCA-job Ph-N2-BF4-B3LYPG-6-31G_dp-MTMO-d009-169-n800
 OpenBabel09051907443D

 18 16  0  0  0  0  0  0  0  0999 V2000
   -1.4711   -0.3352    0.7035 C   0  0  0  0  0  0  0  0  0  0  0  0
   -0.1710    0.0146    1.0743 C   0  0  0  0  0  0  0  0  0  0  0  0
    0.1897    1.3523    0.9945 C   0  0  0  0  0  0  0  0  0  0  0  0
   -0.6761    2.3475    0.5643 C   0  0  0  0  0  0  0  0  0  0  0  0
   -1.9725    1.9776    0.1994 C   0  0  0  0  0  0  0  0  0  0  0  0
   -2.3711    0.6404    0.2677 C   0  0  0  0  0  0  0  0  0  0  0  0
   -1.7782   -1.3754    0.7567 H   0  0  0  0  0  0  0  0  0  0  0  0
    0.5507   -0.7197    1.4127 H   0  0  0  0  0  0  0  0  0  0  0  0
   -0.3361    3.3763    0.5208 H   0  0  0  0  0  0  0  0  0  0  0  0
   -2.6690    2.7383   -0.1396 H   0  0  0  0  0  0  0  0  0  0  0  0
    5.4888    1.3530   -2.6773 N   0  0  0  0  0  0  0  0  0  0  0  0
    5.4358    0.6373   -1.8374 N   0  0  0  0  0  0  0  0  0  0  0  0
    3.3143    0.5168    0.4673 B   0  0  0  0  0  0  0  0  0  0  0  0
    2.7420    0.5108   -0.7238 F   0  0  0  0  0  0  0  0  0  0  0  0
    4.1446    1.4853    0.8015 F   0  0  0  0  0  0  0  0  0  0  0  0
    1.4564    1.7135    1.3625 F   0  0  0  0  0  0  0  0  0  0  0  0
    3.1425   -0.5166    1.2778 F   0  0  0  0  0  0  0  0  0  0  0  0
   -3.3793    0.3592   -0.0193 H   0  0  0  0  0  0  0  0  0  0  0  0
  1  7  1  0  0  0  0
  1  2  2  0  0  0  0
  2  8  1  0  0  0  0
  3  2  1  0  0  0  0
  3 16  1  0  0  0  0
  4  3  2  0  0  0  0
  5  6  2  0  0  0  0
  5  4  1  0  0  0  0
  6  1  1  0  0  0  0
  9  4  1  0  0  0  0
 10  5  1  0  0  0  0
 11 12  3  0  0  0  0
 13 15  1  0  0  0  0
 13 17  1  0  0  0  0
 14 13  1  0  0  0  0
 18  6  1  0  0  0  0
M  END
