Coordinates from ORCA-job Ph-N2-BF4-B3LYPG-6-31G_dp-MTMO-d009-169-n800
 OpenBabel09051907443D

 18 16  0  0  0  0  0  0  0  0999 V2000
   -1.5354   -0.0794    1.0467 C   0  0  0  0  0  0  0  0  0  0  0  0
   -0.1649    0.0893    1.2561 C   0  0  0  0  0  0  0  0  0  0  0  0
    0.4416    1.2130    0.7130 C   0  0  0  0  0  0  0  0  0  0  0  0
   -0.2469    2.1653   -0.0250 C   0  0  0  0  0  0  0  0  0  0  0  0
   -1.6166    1.9788   -0.2223 C   0  0  0  0  0  0  0  0  0  0  0  0
   -2.2616    0.8602    0.3110 C   0  0  0  0  0  0  0  0  0  0  0  0
   -2.0333   -0.9513    1.4601 H   0  0  0  0  0  0  0  0  0  0  0  0
    0.4268   -0.6256    1.8155 H   0  0  0  0  0  0  0  0  0  0  0  0
    0.2838    3.0209   -0.4276 H   0  0  0  0  0  0  0  0  0  0  0  0
   -2.1777    2.7108   -0.7957 H   0  0  0  0  0  0  0  0  0  0  0  0
    3.7094    2.4492   -1.5156 N   0  0  0  0  0  0  0  0  0  0  0  0
    4.5438    2.4559   -2.2402 N   0  0  0  0  0  0  0  0  0  0  0  0
    3.4322   -0.3073    0.6439 B   0  0  0  0  0  0  0  0  0  0  0  0
    3.0794   -0.5108   -0.6122 F   0  0  0  0  0  0  0  0  0  0  0  0
    4.4008    0.5409    0.9314 F   0  0  0  0  0  0  0  0  0  0  0  0
    1.7817    1.3999    0.9135 F   0  0  0  0  0  0  0  0  0  0  0  0
    2.9033   -1.0537    1.6022 F   0  0  0  0  0  0  0  0  0  0  0  0
   -3.3261    0.7198    0.1511 H   0  0  0  0  0  0  0  0  0  0  0  0
  1  2  1  0  0  0  0
  1  7  1  0  0  0  0
  2  8  1  0  0  0  0
  3 16  1  0  0  0  0
  3  2  2  0  0  0  0
  4  3  1  0  0  0  0
  5  4  2  0  0  0  0
  5  6  1  0  0  0  0
  6  1  2  0  0  0  0
  9  4  1  0  0  0  0
 10  5  1  0  0  0  0
 12 11  3  0  0  0  0
 13 15  1  0  0  0  0
 13 17  1  0  0  0  0
 14 13  1  0  0  0  0
 18  6  1  0  0  0  0
M  END
