Coordinates from ORCA-job Ph-N2-BF4-B3LYPG-6-31G_dp-MTMO-d009-169-n800
 OpenBabel09051907443D

 18 16  0  0  0  0  0  0  0  0999 V2000
   -2.3492   -0.1862    0.5399 C   0  0  0  0  0  0  0  0  0  0  0  0
   -1.0319    0.2745    0.5957 C   0  0  0  0  0  0  0  0  0  0  0  0
   -0.8135    1.5604    1.0696 C   0  0  0  0  0  0  0  0  0  0  0  0
   -1.8371    2.4010    1.4834 C   0  0  0  0  0  0  0  0  0  0  0  0
   -3.1472    1.9214    1.4202 C   0  0  0  0  0  0  0  0  0  0  0  0
   -3.4048    0.6314    0.9503 C   0  0  0  0  0  0  0  0  0  0  0  0
   -2.5471   -1.1884    0.1727 H   0  0  0  0  0  0  0  0  0  0  0  0
   -0.1935   -0.3342    0.2792 H   0  0  0  0  0  0  0  0  0  0  0  0
   -1.6043    3.3969    1.8431 H   0  0  0  0  0  0  0  0  0  0  0  0
   -3.9651    2.5600    1.7392 H   0  0  0  0  0  0  0  0  0  0  0  0
   14.4358   -2.3476   -2.3016 N   0  0  0  0  0  0  0  0  0  0  0  0
   13.4540   -1.8700   -2.4738 N   0  0  0  0  0  0  0  0  0  0  0  0
    2.1279    1.7481   -0.5658 B   0  0  0  0  0  0  0  0  0  0  0  0
    1.3860    2.3897   -1.4492 F   0  0  0  0  0  0  0  0  0  0  0  0
    3.0117    2.4026    0.1617 F   0  0  0  0  0  0  0  0  0  0  0  0
    0.4703    2.0267    1.1414 F   0  0  0  0  0  0  0  0  0  0  0  0
    2.0738    0.4252   -0.5035 F   0  0  0  0  0  0  0  0  0  0  0  0
   -4.4255    0.2645    0.9034 H   0  0  0  0  0  0  0  0  0  0  0  0
  1  2  2  0  0  0  0
  1  6  1  0  0  0  0
  2  3  1  0  0  0  0
  3 16  1  0  0  0  0
  3  4  2  0  0  0  0
  4  9  1  0  0  0  0
  5  4  1  0  0  0  0
  5 10  1  0  0  0  0
  6  5  2  0  0  0  0
  7  1  1  0  0  0  0
  8  2  1  0  0  0  0
 12 11  3  0  0  0  0
 13 17  1  0  0  0  0
 13 15  1  0  0  0  0
 14 13  1  0  0  0  0
 18  6  1  0  0  0  0
M  END
