Coordinates from ORCA-job Ph-N2-BF4-B3LYPG-6-31G_dp-MTMO-d009-169-n800
 OpenBabel09051907443D

 18 17  0  0  0  0  0  0  0  0999 V2000
   -1.1970    0.1386    0.8237 C   0  0  0  0  0  0  0  0  0  0  0  0
    0.1459    0.2090    0.4484 C   0  0  0  0  0  0  0  0  0  0  0  0
    0.4804    1.3323   -0.2883 C   0  0  0  0  0  0  0  0  0  0  0  0
   -0.3526    2.3712   -0.6839 C   0  0  0  0  0  0  0  0  0  0  0  0
   -1.6811    2.2595   -0.2767 C   0  0  0  0  0  0  0  0  0  0  0  0
   -2.0955    1.1504    0.4706 C   0  0  0  0  0  0  0  0  0  0  0  0
   -1.5348   -0.7135    1.4037 H   0  0  0  0  0  0  0  0  0  0  0  0
    0.9037   -0.5318    0.6890 H   0  0  0  0  0  0  0  0  0  0  0  0
    0.0084    3.2136   -1.2613 H   0  0  0  0  0  0  0  0  0  0  0  0
   -2.3869    3.0382   -0.5449 H   0  0  0  0  0  0  0  0  0  0  0  0
    1.9575    1.4553   -0.7777 N   0  0  0  0  0  0  0  0  0  0  0  0
    2.9510    1.6156   -1.2421 N   0  0  0  0  0  0  0  0  0  0  0  0
    3.5457   -0.1247    1.1225 B   0  0  0  0  0  0  0  0  0  0  0  0
    4.4718    0.4323    0.2145 F   0  0  0  0  0  0  0  0  0  0  0  0
    4.1528   -0.7316    2.1882 F   0  0  0  0  0  0  0  0  0  0  0  0
    2.6770    0.9271    1.5463 F   0  0  0  0  0  0  0  0  0  0  0  0
    2.7270   -1.0425    0.3919 F   0  0  0  0  0  0  0  0  0  0  0  0
   -3.1326    1.0769    0.7820 H   0  0  0  0  0  0  0  0  0  0  0  0
  1  7  1  0  0  0  0
  2  8  1  0  0  0  0
  2  1  2  0  0  0  0
  3  2  1  0  0  0  0
  4  3  2  0  0  0  0
  4  5  1  0  0  0  0
  5  6  2  0  0  0  0
  6 18  1  0  0  0  0
  6  1  1  0  0  0  0
  9  4  1  0  0  0  0
 10  5  1  0  0  0  0
 11  3  1  0  0  0  0
 12 11  1  0  0  0  0
 13 16  1  0  0  0  0
 13 15  1  0  0  0  0
 14 13  1  0  0  0  0
 17 13  1  0  0  0  0
M  RAD  2  11   2  12   3
M  END
