Coordinates from ORCA-job Ph-N2-BF4-B3LYPG-6-31G_dp-MTMO-d009-169-n800
 OpenBabel09051907443D

 18 16  0  0  0  0  0  0  0  0999 V2000
   -2.1672   -0.2196    0.4955 C   0  0  0  0  0  0  0  0  0  0  0  0
   -0.8479    0.2312    0.5774 C   0  0  0  0  0  0  0  0  0  0  0  0
   -0.6297    1.5192    1.0456 C   0  0  0  0  0  0  0  0  0  0  0  0
   -1.6556    2.3711    1.4297 C   0  0  0  0  0  0  0  0  0  0  0  0
   -2.9677    1.9012    1.3411 C   0  0  0  0  0  0  0  0  0  0  0  0
   -3.2251    0.6097    0.8755 C   0  0  0  0  0  0  0  0  0  0  0  0
   -2.3650   -1.2230    0.1317 H   0  0  0  0  0  0  0  0  0  0  0  0
   -0.0073   -0.3866    0.2853 H   0  0  0  0  0  0  0  0  0  0  0  0
   -1.4231    3.3681    1.7868 H   0  0  0  0  0  0  0  0  0  0  0  0
   -3.7874    2.5487    1.6366 H   0  0  0  0  0  0  0  0  0  0  0  0
   12.9427   -1.9854   -2.0574 N   0  0  0  0  0  0  0  0  0  0  0  0
   11.9631   -1.5025   -2.2278 N   0  0  0  0  0  0  0  0  0  0  0  0
    2.3285    1.6617   -0.5429 B   0  0  0  0  0  0  0  0  0  0  0  0
    1.5743    2.2469   -1.4546 F   0  0  0  0  0  0  0  0  0  0  0  0
    3.1976    2.3668    0.1545 F   0  0  0  0  0  0  0  0  0  0  0  0
    0.6559    1.9760    1.1416 F   0  0  0  0  0  0  0  0  0  0  0  0
    2.3018    0.3422   -0.4207 F   0  0  0  0  0  0  0  0  0  0  0  0
   -4.2474    0.2505    0.8082 H   0  0  0  0  0  0  0  0  0  0  0  0
  1  2  2  0  0  0  0
  1  6  1  0  0  0  0
  2  3  1  0  0  0  0
  3 16  1  0  0  0  0
  3  4  2  0  0  0  0
  4  9  1  0  0  0  0
  5  4  1  0  0  0  0
  5 10  1  0  0  0  0
  6  5  2  0  0  0  0
  7  1  1  0  0  0  0
  8  2  1  0  0  0  0
 12 11  3  0  0  0  0
 13 17  1  0  0  0  0
 13 15  1  0  0  0  0
 14 13  1  0  0  0  0
 18  6  1  0  0  0  0
M  END
