Coordinates from ORCA-job Ph-N2-BF4-B3LYPG-6-31G_dp-MTMO-d009-169-n800
 OpenBabel09051907443D

 18 16  0  0  0  0  0  0  0  0999 V2000
   -1.1332    0.1303    0.7977 C   0  0  0  0  0  0  0  0  0  0  0  0
    0.2179    0.2760    0.3935 C   0  0  0  0  0  0  0  0  0  0  0  0
    0.3273    1.4265   -0.2835 C   0  0  0  0  0  0  0  0  0  0  0  0
   -0.4536    2.4610   -0.6790 C   0  0  0  0  0  0  0  0  0  0  0  0
   -1.7746    2.2424   -0.2331 C   0  0  0  0  0  0  0  0  0  0  0  0
   -2.0996    1.0923    0.4930 C   0  0  0  0  0  0  0  0  0  0  0  0
   -1.3877   -0.7587    1.3665 H   0  0  0  0  0  0  0  0  0  0  0  0
    1.0448   -0.4295    0.6124 H   0  0  0  0  0  0  0  0  0  0  0  0
   -0.1373    3.3274   -1.2416 H   0  0  0  0  0  0  0  0  0  0  0  0
   -2.5240    2.9905   -0.4713 H   0  0  0  0  0  0  0  0  0  0  0  0
    2.2447    1.6936   -0.9919 N   0  0  0  0  0  0  0  0  0  0  0  0
    3.2521    1.7510   -1.4392 N   0  0  0  0  0  0  0  0  0  0  0  0
    3.4771   -0.2148    1.1936 B   0  0  0  0  0  0  0  0  0  0  0  0
    4.4144    0.0303    0.1896 F   0  0  0  0  0  0  0  0  0  0  0  0
    4.0411   -0.6678    2.3590 F   0  0  0  0  0  0  0  0  0  0  0  0
    2.7218    0.9731    1.4183 F   0  0  0  0  0  0  0  0  0  0  0  0
    2.5299   -1.1939    0.6941 F   0  0  0  0  0  0  0  0  0  0  0  0
   -3.1208    0.9462    0.8279 H   0  0  0  0  0  0  0  0  0  0  0  0
  1  7  1  0  0  0  0
  2  8  1  0  0  0  0
  2  1  2  0  0  0  0
  3  2  1  0  0  0  0
  4  3  2  0  0  0  0
  4  5  1  0  0  0  0
  5  6  2  0  0  0  0
  6  1  1  0  0  0  0
  6 18  1  0  0  0  0
  9  4  1  0  0  0  0
 10  5  1  0  0  0  0
 12 11  3  0  0  0  0
 13 16  1  0  0  0  0
 13 15  1  0  0  0  0
 14 13  1  0  0  0  0
 17 13  1  0  0  0  0
M  RAD  1   3   2
M  END
