Coordinates from ORCA-job Ph-N2-BF4-B3LYPG-6-31G_dp-MTMO-d009-169-n800
 OpenBabel09051907443D

 18 16  0  0  0  0  0  0  0  0999 V2000
   -1.5159   -0.0867    1.0040 C   0  0  0  0  0  0  0  0  0  0  0  0
   -0.1514    0.0828    1.2488 C   0  0  0  0  0  0  0  0  0  0  0  0
    0.4629    1.2195    0.7425 C   0  0  0  0  0  0  0  0  0  0  0  0
   -0.2118    2.1838    0.0074 C   0  0  0  0  0  0  0  0  0  0  0  0
   -1.5757    1.9962   -0.2255 C   0  0  0  0  0  0  0  0  0  0  0  0
   -2.2284    0.8648    0.2702 C   0  0  0  0  0  0  0  0  0  0  0  0
   -2.0198   -0.9684    1.3883 H   0  0  0  0  0  0  0  0  0  0  0  0
    0.4302   -0.6406    1.8079 H   0  0  0  0  0  0  0  0  0  0  0  0
    0.3246    3.0489   -0.3660 H   0  0  0  0  0  0  0  0  0  0  0  0
   -2.1264    2.7374   -0.7972 H   0  0  0  0  0  0  0  0  0  0  0  0
    3.5590    2.4089   -1.5359 N   0  0  0  0  0  0  0  0  0  0  0  0
    4.3532    2.4107   -2.3044 N   0  0  0  0  0  0  0  0  0  0  0  0
    3.4363   -0.3023    0.6796 B   0  0  0  0  0  0  0  0  0  0  0  0
    3.0562   -0.5061   -0.5688 F   0  0  0  0  0  0  0  0  0  0  0  0
    4.4108    0.5459    0.9457 F   0  0  0  0  0  0  0  0  0  0  0  0
    1.7971    1.4062    0.9785 F   0  0  0  0  0  0  0  0  0  0  0  0
    2.9278   -1.0490    1.6485 F   0  0  0  0  0  0  0  0  0  0  0  0
   -3.2883    0.7239    0.0825 H   0  0  0  0  0  0  0  0  0  0  0  0
  1  2  1  0  0  0  0
  1  7  1  0  0  0  0
  2  8  1  0  0  0  0
  3 16  1  0  0  0  0
  3  2  2  0  0  0  0
  4  3  1  0  0  0  0
  5  4  2  0  0  0  0
  5  6  1  0  0  0  0
  6  1  2  0  0  0  0
  9  4  1  0  0  0  0
 10  5  1  0  0  0  0
 12 11  3  0  0  0  0
 13 15  1  0  0  0  0
 13 17  1  0  0  0  0
 14 13  1  0  0  0  0
 18  6  1  0  0  0  0
M  END
