18
Coordinates from ORCA-job Ph-N2-BF4-B3LYPG-6-31G_dp-MTMO-d009-169-n800
  C   -1.62507805035876     -0.33843857557532      0.42263357166651
  C   -0.34322662033452      0.10870097283568      0.74998957682231
  C   -0.17735891425744      1.45776665965467      1.02992063194961
  C   -1.22000678697744      2.37286597805633      0.99807620817838
  C   -2.49452697301769      1.90560056998156      0.66999440770684
  C   -2.69886502290676      0.55412745095918      0.38216935065306
  H   -1.78064624355822     -1.38901409482382      0.19658152100159
  H   0.50963409238012     -0.55866675626566      0.78668176594255
  H   -1.02959221929064      3.41552034290249      1.22780241167454
  H   -3.32686266335012      2.60214011228737      0.63898352876797
  N   8.50230190379207     -0.68904257711376     -2.43985773549910
  N   7.55160017505596     -0.42914743999185     -1.93959659872709
  B   3.07348715387157      1.25006493639186      0.21411238757172
  F   2.56735629839913      1.59572293762080     -0.95509472245535
  F   3.78801362048919      2.11171414614742      0.91106196448461
  F   1.06919187420571      1.91283912081329      1.35948526237208
  F   2.96647382823957     -0.00446430653424      0.62742608774912
  H   -3.69149545238153      0.19771052265404      0.12553038014054
