18
Coordinates from ORCA-job Ph-N2-BF4-B3LYPG-6-31G_dp-MTMO-d009-169-n800
  C   -1.50643916983854     -0.08874702373846      0.98536770943287
  C   -0.14371670372737      0.08033114119661      1.24016530094007
  C   0.47238399707058      1.22205663926729      0.74757521540536
  C   -0.19893557610227      2.19212668821095      0.01703763682728
  C   -1.56122354741087      2.00480936150957     -0.22593956211407
  C   -2.21556217939807      0.86832195924579      0.25559018563763
  H   -2.01145454741993     -0.97436769546012      1.35899520039945
  H   0.43513078004766     -0.64706749109313      1.79695377909381
  H   0.33807539368776      3.06140354708510     -0.34539487070874
  H   -2.10915495252869      2.75052903984515     -0.79434062908337
  N   3.49046042422558      2.39760643668269     -1.53742886952142
  N   4.27325965641056      2.39126643984498     -2.31743190007008
  B   3.44042856255988     -0.30401222871473      0.69602314561526
  F   3.04958227435594     -0.51943135542558     -0.54713578072126
  F   4.41764395713200      0.54611801511609      0.94551664547118
  F   1.80478272648698      1.40797977701053      0.99399838646308
  F   2.93917904512455     -1.04069113459243      1.67624881656724
  H   -3.27404014067566      0.72776788400975      0.06009959036560
