18
Coordinates from ORCA-job Ph-N2-BF4-B3LYPG-6-31G_dp-MTMO-d009-169-n800
  C   -1.14771449217429      0.13965793669057      0.77503079497681
  C   0.18887104534870      0.25100077529093      0.40462229329861
  C   0.54335599608531      1.39799609611021     -0.32375392757822
  C   -0.35989214447165      2.41543374115934     -0.68301294728438
  C   -1.67996489431608      2.27092557820743     -0.28289676446997
  C   -2.06998461747866      1.13600840079163      0.44184374635650
  H   -1.46660156288116     -0.73126682647191      1.33750390275424
  H   0.95083074602809     -0.48780921312849      0.64928891383425
  H   -0.02360452100631      3.27987172565841     -1.24456417042093
  H   -2.40443991399286      3.03766189268777     -0.53478539889798
  N   1.84663382661022      1.54404628521646     -0.75525673958633
  N   2.87243407032142      1.68272289355822     -1.16864682704967
  B   3.52638501117938     -0.19364522944089      1.15534507782430
  F   4.29261939761850      0.25386213128773      0.04731467075742
  F   4.32114582373213     -0.59976610993886      2.19325897682135
  F   2.67972464070648      0.88859362254344      1.54216815215444
  F   2.67634245489446     -1.24097176120791      0.70243578198081
  H   -3.10574086620370      1.03167806098594      0.75000446452873
