24
Coordinates from ORCA-job p-CH3O-Ph-N2-OOCCF3-B3LYPG-aug-cc-pVDZ-scan-d09-49-n400
  C   11.76835018881057      8.35976052812809     -1.53932137037056
  C   10.52012767358604      7.89797735434605     -1.97544419185847
  C   10.31821855666100      6.59454365232873     -1.62666839846849
  C   11.04086600008575      5.65878996250666     -0.96751243509496
  C   12.28796814892609      6.17592364615864     -0.55098204578619
  C   12.64578829573976      7.50768925576770     -0.83322680870916
  H   12.06971591415977      9.38602969311965     -1.74416799991962
  H   9.81181596384520      8.51394243410128     -2.52120778444258
  H   10.69284414070023      4.63618962879618     -0.78423386481543
  H   12.95073223984097      5.50617508915242     -0.00904262439577
  N   8.50646104893830      5.84761138739846     -2.23818481327294
  N   7.96264700172821      4.87361694444079     -2.14755606866396
  O   13.82036488969339      8.07217714210687     -0.46719790549791
  C   14.76878611428851      7.27818323651952      0.25380107313408
  H   15.62190820852215      7.93698166224765      0.43576685622375
  H   15.09039333740561      6.41261919668834     -0.34325639617453
  H   14.34993523457994      6.94155247556681      1.21314926018239
  O   7.40064358790420      2.07561614394863     -1.01231099025326
  C   8.57633946708567      2.32146347198494     -0.78544055903939
  O   9.27761048143586      3.36537158930017     -1.00476380786411
  C   9.44608452564031      1.19729593812964     -0.10676916108065
  F   10.00708480469091      1.64110687732597      1.05331682832535
  F   8.73915779804130      0.09398230920100      0.19171907898403
  F   10.46935637769030      0.81430038073585     -0.91866587114181
