Coordinates from ORCA-job Ph-N2-OTf-B3LYPG-6-31G_dp-MTMO-d009-169-n800
 OpenBabel09051908113D

 21 20  0  0  0  0  0  0  0  0999 V2000
   -1.7628   -2.4236   -4.5533 C   0  0  0  0  0  0  0  0  0  0  0  0
   -0.5272   -1.7753   -4.5256 C   0  0  0  0  0  0  0  0  0  0  0  0
   -0.4752   -0.4276   -4.8660 C   0  0  0  0  0  0  0  0  0  0  0  0
   -1.6091    0.2905   -5.2317 C   0  0  0  0  0  0  0  0  0  0  0  0
   -2.8368   -0.3719   -5.2582 C   0  0  0  0  0  0  0  0  0  0  0  0
   -2.9153   -1.7248   -4.9196 C   0  0  0  0  0  0  0  0  0  0  0  0
   -1.8223   -3.4740   -4.2863 H   0  0  0  0  0  0  0  0  0  0  0  0
    0.3820   -2.2921   -4.2384 H   0  0  0  0  0  0  0  0  0  0  0  0
   -1.5241    1.3398   -5.4888 H   0  0  0  0  0  0  0  0  0  0  0  0
   -3.7318    0.1722   -5.5431 H   0  0  0  0  0  0  0  0  0  0  0  0
    4.4591    5.4115   -8.1220 N   0  0  0  0  0  0  0  0  0  0  0  0
    5.1892    6.0981   -8.5877 N   0  0  0  0  0  0  0  0  0  0  0  0
    1.6996    0.4775   -6.0831 S   0  0  0  0  0  0  0  0  0  0  0  0
    1.7243    2.3451   -6.0171 C   0  0  0  0  0  0  0  0  0  0  0  0
    0.7661    0.2384   -4.7468 O   0  0  0  0  0  0  0  0  0  0  0  0
    3.0424    0.0243   -5.7715 O   0  0  0  0  0  0  0  0  0  0  0  0
    0.9869    0.0804   -7.2860 O   0  0  0  0  0  0  0  0  0  0  0  0
    0.4849    2.8164   -6.1816 F   0  0  0  0  0  0  0  0  0  0  0  0
    2.2043    2.7502   -4.8462 F   0  0  0  0  0  0  0  0  0  0  0  0
    2.5013    2.7856   -7.0039 F   0  0  0  0  0  0  0  0  0  0  0  0
   -3.8741   -2.2339   -4.9408 H   0  0  0  0  0  0  0  0  0  0  0  0
  1  2  1  0  0  0  0
  1  7  1  0  0  0  0
  2  8  1  0  0  0  0
  3 15  1  0  0  0  0
  3  2  2  0  0  0  0
  4  3  1  0  0  0  0
  5  4  2  0  0  0  0
  5  6  1  0  0  0  0
  6  1  2  0  0  0  0
  9  4  1  0  0  0  0
 10  5  1  0  0  0  0
 12 11  3  0  0  0  0
 13 14  1  0  0  0  0
 13 16  2  0  0  0  0
 13 15  1  0  0  0  0
 14 19  1  0  0  0  0
 17 13  2  0  0  0  0
 18 14  1  0  0  0  0
 20 14  1  0  0  0  0
 21  6  1  0  0  0  0
M  END
