Coordinates from ORCA-job Ph-N2-OTf-B3LYPG-6-31G_dp-MTMO-d009-169-n800
 OpenBabel09051908113D

 21 20  0  0  0  0  0  0  0  0999 V2000
   -2.2180   -3.0252   -4.3854 C   0  0  0  0  0  0  0  0  0  0  0  0
   -0.9957   -2.3545   -4.3230 C   0  0  0  0  0  0  0  0  0  0  0  0
   -0.9769   -0.9825   -4.5515 C   0  0  0  0  0  0  0  0  0  0  0  0
   -2.1316   -0.2618   -4.8388 C   0  0  0  0  0  0  0  0  0  0  0  0
   -3.3457   -0.9464   -4.9013 C   0  0  0  0  0  0  0  0  0  0  0  0
   -3.3907   -2.3239   -4.6748 C   0  0  0  0  0  0  0  0  0  0  0  0
   -2.2515   -4.0952   -4.2051 H   0  0  0  0  0  0  0  0  0  0  0  0
   -0.0716   -2.8736   -4.0932 H   0  0  0  0  0  0  0  0  0  0  0  0
   -2.0729    0.8068   -5.0095 H   0  0  0  0  0  0  0  0  0  0  0  0
   -4.2564   -0.4001   -5.1261 H   0  0  0  0  0  0  0  0  0  0  0  0
    9.3399   10.4220  -11.4133 N   0  0  0  0  0  0  0  0  0  0  0  0
   10.3011   10.9228  -11.6298 N   0  0  0  0  0  0  0  0  0  0  0  0
    1.1656    0.0549   -5.7179 S   0  0  0  0  0  0  0  0  0  0  0  0
    1.0997    1.9150   -5.5563 C   0  0  0  0  0  0  0  0  0  0  0  0
    0.2521   -0.3021   -4.3948 O   0  0  0  0  0  0  0  0  0  0  0  0
    2.5300   -0.3459   -5.4301 O   0  0  0  0  0  0  0  0  0  0  0  0
    0.4689   -0.3135   -6.9390 O   0  0  0  0  0  0  0  0  0  0  0  0
   -0.1613    2.3353   -5.6922 F   0  0  0  0  0  0  0  0  0  0  0  0
    1.5676    2.2838   -4.3688 F   0  0  0  0  0  0  0  0  0  0  0  0
    1.8480    2.4418   -6.5232 F   0  0  0  0  0  0  0  0  0  0  0  0
   -4.3391   -2.8503   -4.7234 H   0  0  0  0  0  0  0  0  0  0  0  0
  1  2  1  0  0  0  0
  1  7  1  0  0  0  0
  2  8  1  0  0  0  0
  3 15  1  0  0  0  0
  3  2  2  0  0  0  0
  4  3  1  0  0  0  0
  5  4  2  0  0  0  0
  5  6  1  0  0  0  0
  6  1  2  0  0  0  0
  9  4  1  0  0  0  0
 10  5  1  0  0  0  0
 12 11  3  0  0  0  0
 13 14  1  0  0  0  0
 13 16  2  0  0  0  0
 13 15  1  0  0  0  0
 14 19  1  0  0  0  0
 17 13  2  0  0  0  0
 18 14  1  0  0  0  0
 20 14  1  0  0  0  0
 21  6  1  0  0  0  0
M  END
