Coordinates from ORCA-job Ph-N2-OTf-B3LYPG-6-31G_dp-MTMO-d009-169-n800
 OpenBabel09051908113D

 21 20  0  0  0  0  0  0  0  0999 V2000
   -2.0866   -2.8862   -4.4577 C   0  0  0  0  0  0  0  0  0  0  0  0
   -0.8652   -2.2141   -4.3950 C   0  0  0  0  0  0  0  0  0  0  0  0
   -0.8469   -0.8432   -4.6304 C   0  0  0  0  0  0  0  0  0  0  0  0
   -2.0014   -0.1252   -4.9250 C   0  0  0  0  0  0  0  0  0  0  0  0
   -3.2146   -0.8113   -4.9878 C   0  0  0  0  0  0  0  0  0  0  0  0
   -3.2591   -2.1876   -4.7545 C   0  0  0  0  0  0  0  0  0  0  0  0
   -2.1196   -3.9553   -4.2720 H   0  0  0  0  0  0  0  0  0  0  0  0
    0.0588   -2.7311   -4.1597 H   0  0  0  0  0  0  0  0  0  0  0  0
   -1.9432    0.9426   -5.1009 H   0  0  0  0  0  0  0  0  0  0  0  0
   -4.1251   -0.2670   -5.2183 H   0  0  0  0  0  0  0  0  0  0  0  0
    8.0973    9.1112  -10.6578 N   0  0  0  0  0  0  0  0  0  0  0  0
    9.0601    9.6081  -10.8765 N   0  0  0  0  0  0  0  0  0  0  0  0
    1.2964    0.1936   -5.7958 S   0  0  0  0  0  0  0  0  0  0  0  0
    1.2299    2.0540   -5.6373 C   0  0  0  0  0  0  0  0  0  0  0  0
    0.3811   -0.1612   -4.4733 O   0  0  0  0  0  0  0  0  0  0  0  0
    2.6605   -0.2064   -5.5054 O   0  0  0  0  0  0  0  0  0  0  0  0
    0.6015   -0.1769   -7.0173 O   0  0  0  0  0  0  0  0  0  0  0  0
   -0.0310    2.4738   -5.7754 F   0  0  0  0  0  0  0  0  0  0  0  0
    1.6963    2.4248   -4.4499 F   0  0  0  0  0  0  0  0  0  0  0  0
    1.9793    2.5794   -6.6041 F   0  0  0  0  0  0  0  0  0  0  0  0
   -4.2068   -2.7152   -4.8033 H   0  0  0  0  0  0  0  0  0  0  0  0
  1  2  1  0  0  0  0
  1  7  1  0  0  0  0
  2  8  1  0  0  0  0
  3 15  1  0  0  0  0
  3  2  2  0  0  0  0
  4  3  1  0  0  0  0
  5  4  2  0  0  0  0
  5  6  1  0  0  0  0
  6  1  2  0  0  0  0
  9  4  1  0  0  0  0
 10  5  1  0  0  0  0
 12 11  3  0  0  0  0
 13 14  1  0  0  0  0
 13 16  2  0  0  0  0
 13 15  1  0  0  0  0
 14 19  1  0  0  0  0
 17 13  2  0  0  0  0
 18 14  1  0  0  0  0
 20 14  1  0  0  0  0
 21  6  1  0  0  0  0
M  END
