Coordinates from ORCA-job Ph-N2-OTf-B3LYPG-6-31G_dp-MTMO-d009-169-n800
 OpenBabel09051908113D

 21 20  0  0  0  0  0  0  0  0999 V2000
   -2.0577   -2.8552   -4.4731 C   0  0  0  0  0  0  0  0  0  0  0  0
   -0.8363   -2.1828   -4.4106 C   0  0  0  0  0  0  0  0  0  0  0  0
   -0.8180   -0.8123   -4.6479 C   0  0  0  0  0  0  0  0  0  0  0  0
   -1.9724   -0.0947   -4.9442 C   0  0  0  0  0  0  0  0  0  0  0  0
   -3.1855   -0.7810   -5.0068 C   0  0  0  0  0  0  0  0  0  0  0  0
   -3.2300   -2.1571   -4.7715 C   0  0  0  0  0  0  0  0  0  0  0  0
   -2.0907   -3.9240   -4.2859 H   0  0  0  0  0  0  0  0  0  0  0  0
    0.0875   -2.6994   -4.1740 H   0  0  0  0  0  0  0  0  0  0  0  0
   -1.9143    0.9728   -5.1215 H   0  0  0  0  0  0  0  0  0  0  0  0
   -4.0960   -0.2372   -5.2387 H   0  0  0  0  0  0  0  0  0  0  0  0
    7.8222    8.8197  -10.4888 N   0  0  0  0  0  0  0  0  0  0  0  0
    8.7836    9.3185  -10.7088 N   0  0  0  0  0  0  0  0  0  0  0  0
    1.3255    0.2240   -5.8136 S   0  0  0  0  0  0  0  0  0  0  0  0
    1.2590    2.0844   -5.6562 C   0  0  0  0  0  0  0  0  0  0  0  0
    0.4099   -0.1300   -4.4911 O   0  0  0  0  0  0  0  0  0  0  0  0
    2.6894   -0.1761   -5.5228 O   0  0  0  0  0  0  0  0  0  0  0  0
    0.6307   -0.1472   -7.0350 O   0  0  0  0  0  0  0  0  0  0  0  0
   -0.0018    2.5043   -5.7947 F   0  0  0  0  0  0  0  0  0  0  0  0
    1.7253    2.4559   -4.4689 F   0  0  0  0  0  0  0  0  0  0  0  0
    2.0086    2.6092   -6.6232 F   0  0  0  0  0  0  0  0  0  0  0  0
   -4.1777   -2.6848   -4.8202 H   0  0  0  0  0  0  0  0  0  0  0  0
  1  2  1  0  0  0  0
  1  7  1  0  0  0  0
  2  8  1  0  0  0  0
  3 15  1  0  0  0  0
  3  2  2  0  0  0  0
  4  3  1  0  0  0  0
  5  4  2  0  0  0  0
  5  6  1  0  0  0  0
  6  1  2  0  0  0  0
  9  4  1  0  0  0  0
 10  5  1  0  0  0  0
 12 11  3  0  0  0  0
 13 14  1  0  0  0  0
 13 16  2  0  0  0  0
 13 15  1  0  0  0  0
 14 19  1  0  0  0  0
 17 13  2  0  0  0  0
 18 14  1  0  0  0  0
 20 14  1  0  0  0  0
 21  6  1  0  0  0  0
M  END
