Coordinates from ORCA-job Ph-N2-OTf-B3LYPG-6-31G_dp-MTMO-d009-169-n800
 OpenBabel09051908113D

 21 19  0  0  0  0  0  0  0  0999 V2000
   -1.6839   -1.2937   -5.4889 C   0  0  0  0  0  0  0  0  0  0  0  0
   -0.7028   -0.2974   -5.2697 C   0  0  0  0  0  0  0  0  0  0  0  0
   -1.1446    0.8852   -5.3144 C   0  0  0  0  0  0  0  0  0  0  0  0
   -2.3164    1.5491   -5.5146 C   0  0  0  0  0  0  0  0  0  0  0  0
   -3.2977    0.5502   -5.7350 C   0  0  0  0  0  0  0  0  0  0  0  0
   -2.9872   -0.8212   -5.7214 C   0  0  0  0  0  0  0  0  0  0  0  0
   -1.4597   -2.3562   -5.4806 H   0  0  0  0  0  0  0  0  0  0  0  0
    1.0581   -0.5744   -4.9441 H   0  0  0  0  0  0  0  0  0  0  0  0
   -2.5090    2.6130   -5.5140 H   0  0  0  0  0  0  0  0  0  0  0  0
   -4.3186    0.8735   -5.9202 H   0  0  0  0  0  0  0  0  0  0  0  0
    0.0572    4.0003   -4.6565 N   0  0  0  0  0  0  0  0  0  0  0  0
    0.8481    4.6578   -4.2529 N   0  0  0  0  0  0  0  0  0  0  0  0
    2.9518    0.4689   -5.1754 S   0  0  0  0  0  0  0  0  0  0  0  0
    3.2539    0.0988   -6.9759 C   0  0  0  0  0  0  0  0  0  0  0  0
    2.1722    1.7015   -5.1320 O   0  0  0  0  0  0  0  0  0  0  0  0
    4.2211    0.3244   -4.4897 O   0  0  0  0  0  0  0  0  0  0  0  0
    2.0361   -0.7862   -4.7922 O   0  0  0  0  0  0  0  0  0  0  0  0
    2.0812    0.0145   -7.6130 F   0  0  0  0  0  0  0  0  0  0  0  0
    3.9743    1.0882   -7.5042 F   0  0  0  0  0  0  0  0  0  0  0  0
    3.9115   -1.0511   -7.1053 F   0  0  0  0  0  0  0  0  0  0  0  0
   -3.7841   -1.5384   -5.8974 H   0  0  0  0  0  0  0  0  0  0  0  0
  1  7  1  0  0  0  0
  1  2  2  0  0  0  0
  3  2  1  0  0  0  0
  4  9  1  0  0  0  0
  4  3  2  0  0  0  0
  5  6  2  0  0  0  0
  5  4  1  0  0  0  0
  6  1  1  0  0  0  0
  8 17  1  0  0  0  0
 10  5  1  0  0  0  0
 11 12  3  0  0  0  0
 13 15  2  0  0  0  0
 13 17  1  0  0  0  0
 13 16  2  0  0  0  0
 14 13  1  0  0  0  0
 18 14  1  0  0  0  0
 19 14  1  0  0  0  0
 20 14  1  0  0  0  0
 21  6  1  0  0  0  0
M  RAD  2   2   2   3   2
M  END
