Coordinates from ORCA-job Ph-N2-OTf-B3LYPG-6-31G_dp-MTMO-d009-169-n800
 OpenBabel09051908113D

 21 20  0  0  0  0  0  0  0  0999 V2000
   -2.0634   -2.8617   -4.4698 C   0  0  0  0  0  0  0  0  0  0  0  0
   -0.8422   -2.1892   -4.4072 C   0  0  0  0  0  0  0  0  0  0  0  0
   -0.8242   -0.8186   -4.6443 C   0  0  0  0  0  0  0  0  0  0  0  0
   -1.9787   -0.1012   -4.9405 C   0  0  0  0  0  0  0  0  0  0  0  0
   -3.1918   -0.7878   -5.0032 C   0  0  0  0  0  0  0  0  0  0  0  0
   -3.2359   -2.1639   -4.7681 C   0  0  0  0  0  0  0  0  0  0  0  0
   -2.0961   -3.9306   -4.2828 H   0  0  0  0  0  0  0  0  0  0  0  0
    0.0818   -2.7055   -4.1708 H   0  0  0  0  0  0  0  0  0  0  0  0
   -1.9209    0.9663   -5.1176 H   0  0  0  0  0  0  0  0  0  0  0  0
   -4.1023   -0.2441   -5.2349 H   0  0  0  0  0  0  0  0  0  0  0  0
    7.8797    8.8802  -10.5242 N   0  0  0  0  0  0  0  0  0  0  0  0
    8.8416    9.3782  -10.7442 N   0  0  0  0  0  0  0  0  0  0  0  0
    1.3190    0.2180   -5.8100 S   0  0  0  0  0  0  0  0  0  0  0  0
    1.2532    2.0784   -5.6516 C   0  0  0  0  0  0  0  0  0  0  0  0
    0.4035   -0.1358   -4.4874 O   0  0  0  0  0  0  0  0  0  0  0  0
    2.6829   -0.1829   -5.5201 O   0  0  0  0  0  0  0  0  0  0  0  0
    0.6238   -0.1522   -7.0314 O   0  0  0  0  0  0  0  0  0  0  0  0
   -0.0076    2.4987   -5.7893 F   0  0  0  0  0  0  0  0  0  0  0  0
    1.7202    2.4492   -4.4643 F   0  0  0  0  0  0  0  0  0  0  0  0
    2.0025    2.6034   -6.6187 F   0  0  0  0  0  0  0  0  0  0  0  0
   -4.1834   -2.6918   -4.8169 H   0  0  0  0  0  0  0  0  0  0  0  0
  1  2  1  0  0  0  0
  1  7  1  0  0  0  0
  2  8  1  0  0  0  0
  3 15  1  0  0  0  0
  3  2  2  0  0  0  0
  4  3  1  0  0  0  0
  5  4  2  0  0  0  0
  5  6  1  0  0  0  0
  6  1  2  0  0  0  0
  9  4  1  0  0  0  0
 10  5  1  0  0  0  0
 12 11  3  0  0  0  0
 13 14  1  0  0  0  0
 13 16  2  0  0  0  0
 13 15  1  0  0  0  0
 14 19  1  0  0  0  0
 17 13  2  0  0  0  0
 18 14  1  0  0  0  0
 20 14  1  0  0  0  0
 21  6  1  0  0  0  0
M  END
