Coordinates from ORCA-job Ph-N2-OTf-B3LYPG-6-31G_dp-MTMO-d009-169-n800
 OpenBabel09051908113D

 21 19  0  0  0  0  0  0  0  0999 V2000
   -1.6102   -0.9715   -5.4746 C   0  0  0  0  0  0  0  0  0  0  0  0
   -0.6301   -0.0023   -5.1298 C   0  0  0  0  0  0  0  0  0  0  0  0
   -1.2134    1.1924   -5.1123 C   0  0  0  0  0  0  0  0  0  0  0  0
   -2.4369    1.7410   -5.3252 C   0  0  0  0  0  0  0  0  0  0  0  0
   -3.3498    0.7217   -5.6665 C   0  0  0  0  0  0  0  0  0  0  0  0
   -2.9342   -0.6127   -5.7357 C   0  0  0  0  0  0  0  0  0  0  0  0
   -1.2828   -2.0049   -5.5391 H   0  0  0  0  0  0  0  0  0  0  0  0
    0.4607   -0.2591   -4.9519 H   0  0  0  0  0  0  0  0  0  0  0  0
   -2.6974    2.7875   -5.2550 H   0  0  0  0  0  0  0  0  0  0  0  0
   -4.3774    1.0035   -5.8733 H   0  0  0  0  0  0  0  0  0  0  0  0
    0.0566    2.7288   -4.5131 N   0  0  0  0  0  0  0  0  0  0  0  0
    0.5506    3.6212   -4.0908 N   0  0  0  0  0  0  0  0  0  0  0  0
    2.7950    0.5934   -5.4353 S   0  0  0  0  0  0  0  0  0  0  0  0
    3.5718   -0.1524   -6.9483 C   0  0  0  0  0  0  0  0  0  0  0  0
    1.8637    1.6131   -5.9862 O   0  0  0  0  0  0  0  0  0  0  0  0
    3.9112    1.0834   -4.6231 O   0  0  0  0  0  0  0  0  0  0  0  0
    2.0485   -0.5760   -4.8415 O   0  0  0  0  0  0  0  0  0  0  0  0
    2.6237   -0.6565   -7.7571 F   0  0  0  0  0  0  0  0  0  0  0  0
    4.2556    0.7776   -7.6271 F   0  0  0  0  0  0  0  0  0  0  0  0
    4.4094   -1.1405   -6.6110 F   0  0  0  0  0  0  0  0  0  0  0  0
   -3.6531   -1.3808   -6.0007 H   0  0  0  0  0  0  0  0  0  0  0  0
  1  2  2  0  0  0  0
  2  3  1  0  0  0  0
  2  8  1  0  0  0  0
  4  9  1  0  0  0  0
  4  3  2  0  0  0  0
  5  4  1  0  0  0  0
  6  5  2  0  0  0  0
  6  1  1  0  0  0  0
  7  1  1  0  0  0  0
 10  5  1  0  0  0  0
 11 12  3  0  0  0  0
 13 17  2  0  0  0  0
 13 16  1  0  0  0  0
 14 20  1  0  0  0  0
 14 13  1  0  0  0  0
 15 13  2  0  0  0  0
 18 14  1  0  0  0  0
 19 14  1  0  0  0  0
 21  6  1  0  0  0  0
M  RAD  2   3   2  16   2
M  END
