Coordinates from ORCA-job Ph-N2-OTf-B3LYPG-6-31G_dp-MTMO-d009-169-n800
 OpenBabel09051908113D

 21 20  0  0  0  0  0  0  0  0999 V2000
   -1.8526   -1.5601   -4.7919 C   0  0  0  0  0  0  0  0  0  0  0  0
   -0.5692   -1.0682   -4.5490 C   0  0  0  0  0  0  0  0  0  0  0  0
   -0.2253    0.1730   -5.0764 C   0  0  0  0  0  0  0  0  0  0  0  0
   -1.1189    0.9383   -5.8200 C   0  0  0  0  0  0  0  0  0  0  0  0
   -2.4012    0.4362   -6.0447 C   0  0  0  0  0  0  0  0  0  0  0  0
   -2.7675   -0.8118   -5.5358 C   0  0  0  0  0  0  0  0  0  0  0  0
   -2.1360   -2.5290   -4.3937 H   0  0  0  0  0  0  0  0  0  0  0  0
    0.1524   -1.6328   -3.9707 H   0  0  0  0  0  0  0  0  0  0  0  0
   -0.8094    1.9053   -6.1988 H   0  0  0  0  0  0  0  0  0  0  0  0
   -3.1124    1.0227   -6.6183 H   0  0  0  0  0  0  0  0  0  0  0  0
    0.6131    4.2776   -5.4296 N   0  0  0  0  0  0  0  0  0  0  0  0
    1.0444    5.0129   -4.7265 N   0  0  0  0  0  0  0  0  0  0  0  0
    2.4174    0.1166   -5.4002 S   0  0  0  0  0  0  0  0  0  0  0  0
    2.5133    1.0741   -7.0032 C   0  0  0  0  0  0  0  0  0  0  0  0
    1.0327    0.7487   -4.7837 O   0  0  0  0  0  0  0  0  0  0  0  0
    3.4811    0.6030   -4.5445 O   0  0  0  0  0  0  0  0  0  0  0  0
    2.2448   -1.2842   -5.7466 O   0  0  0  0  0  0  0  0  0  0  0  0
    1.4385    0.8098   -7.7477 F   0  0  0  0  0  0  0  0  0  0  0  0
    2.5692    2.3791   -6.7475 F   0  0  0  0  0  0  0  0  0  0  0  0
    3.6123    0.6952   -7.6516 F   0  0  0  0  0  0  0  0  0  0  0  0
   -3.7651   -1.1994   -5.7171 H   0  0  0  0  0  0  0  0  0  0  0  0
  1  2  1  0  0  0  0
  1  7  1  0  0  0  0
  2  8  1  0  0  0  0
  3 15  1  0  0  0  0
  3  2  2  0  0  0  0
  4  3  1  0  0  0  0
  5  4  2  0  0  0  0
  5  6  1  0  0  0  0
  6  1  2  0  0  0  0
  9  4  1  0  0  0  0
 10  5  1  0  0  0  0
 11 12  3  0  0  0  0
 13 15  1  0  0  0  0
 13 16  2  0  0  0  0
 14 19  1  0  0  0  0
 14 13  1  0  0  0  0
 17 13  2  0  0  0  0
 18 14  1  0  0  0  0
 20 14  1  0  0  0  0
 21  6  1  0  0  0  0
M  END
