Coordinates from ORCA-job Ph-N2-OTf-B3LYPG-6-31G_dp-MTMO-d009-169-n800
 OpenBabel09051908113D

 21 20  0  0  0  0  0  0  0  0999 V2000
   -2.0490   -2.8462   -4.4773 C   0  0  0  0  0  0  0  0  0  0  0  0
   -0.8278   -2.1735   -4.4149 C   0  0  0  0  0  0  0  0  0  0  0  0
   -0.8098   -0.8031   -4.6531 C   0  0  0  0  0  0  0  0  0  0  0  0
   -1.9642   -0.0860   -4.9502 C   0  0  0  0  0  0  0  0  0  0  0  0
   -3.1772   -0.7727   -5.0126 C   0  0  0  0  0  0  0  0  0  0  0  0
   -3.2214   -2.1486   -4.7765 C   0  0  0  0  0  0  0  0  0  0  0  0
   -2.0818   -3.9149   -4.2895 H   0  0  0  0  0  0  0  0  0  0  0  0
    0.0961   -2.6896   -4.1778 H   0  0  0  0  0  0  0  0  0  0  0  0
   -1.9064    0.9814   -5.1281 H   0  0  0  0  0  0  0  0  0  0  0  0
   -4.0877   -0.2291   -5.2450 H   0  0  0  0  0  0  0  0  0  0  0  0
    7.7424    8.7344  -10.4393 N   0  0  0  0  0  0  0  0  0  0  0  0
    8.7032    9.2340  -10.6603 N   0  0  0  0  0  0  0  0  0  0  0  0
    1.3335    0.2330   -5.8191 S   0  0  0  0  0  0  0  0  0  0  0  0
    1.2679    2.0935   -5.6613 C   0  0  0  0  0  0  0  0  0  0  0  0
    0.4179   -0.1203   -4.4964 O   0  0  0  0  0  0  0  0  0  0  0  0
    2.6974   -0.1679   -5.5289 O   0  0  0  0  0  0  0  0  0  0  0  0
    0.6383   -0.1376   -7.0404 O   0  0  0  0  0  0  0  0  0  0  0  0
    0.0071    2.5138   -5.7992 F   0  0  0  0  0  0  0  0  0  0  0  0
    1.7348    2.4646   -4.4741 F   0  0  0  0  0  0  0  0  0  0  0  0
    2.0173    2.6181   -6.6285 F   0  0  0  0  0  0  0  0  0  0  0  0
   -4.1689   -2.6765   -4.8251 H   0  0  0  0  0  0  0  0  0  0  0  0
  1  2  1  0  0  0  0
  1  7  1  0  0  0  0
  2  8  1  0  0  0  0
  3 15  1  0  0  0  0
  3  2  2  0  0  0  0
  4  3  1  0  0  0  0
  5  4  2  0  0  0  0
  5  6  1  0  0  0  0
  6  1  2  0  0  0  0
  9  4  1  0  0  0  0
 10  5  1  0  0  0  0
 12 11  3  0  0  0  0
 13 14  1  0  0  0  0
 13 16  2  0  0  0  0
 13 15  1  0  0  0  0
 14 19  1  0  0  0  0
 17 13  2  0  0  0  0
 18 14  1  0  0  0  0
 20 14  1  0  0  0  0
 21  6  1  0  0  0  0
M  END
