Coordinates from ORCA-job Ph-N2-OTf-B3LYPG-6-31G_dp-MTMO-d009-169-n800
 OpenBabel09051908113D

 21 20  0  0  0  0  0  0  0  0999 V2000
   -2.0290   -2.8238   -4.4875 C   0  0  0  0  0  0  0  0  0  0  0  0
   -0.8076   -2.1515   -4.4256 C   0  0  0  0  0  0  0  0  0  0  0  0
   -0.7892   -0.7814   -4.6654 C   0  0  0  0  0  0  0  0  0  0  0  0
   -1.9433   -0.0643   -4.9637 C   0  0  0  0  0  0  0  0  0  0  0  0
   -3.1565   -0.7507   -5.0257 C   0  0  0  0  0  0  0  0  0  0  0  0
   -3.2012   -2.1263   -4.7879 C   0  0  0  0  0  0  0  0  0  0  0  0
   -2.0621   -3.8923   -4.2984 H   0  0  0  0  0  0  0  0  0  0  0  0
    0.1161   -2.6676   -4.1876 H   0  0  0  0  0  0  0  0  0  0  0  0
   -1.8851    1.0029   -5.1429 H   0  0  0  0  0  0  0  0  0  0  0  0
   -4.0668   -0.2072   -5.2590 H   0  0  0  0  0  0  0  0  0  0  0  0
    7.5481    8.5281  -10.3182 N   0  0  0  0  0  0  0  0  0  0  0  0
    8.5065    9.0317  -10.5407 N   0  0  0  0  0  0  0  0  0  0  0  0
    1.3545    0.2537   -5.8320 S   0  0  0  0  0  0  0  0  0  0  0  0
    1.2885    2.1143   -5.6761 C   0  0  0  0  0  0  0  0  0  0  0  0
    0.4387   -0.0989   -4.5092 O   0  0  0  0  0  0  0  0  0  0  0  0
    2.7183   -0.1465   -5.5408 O   0  0  0  0  0  0  0  0  0  0  0  0
    0.6596   -0.1183   -7.0531 O   0  0  0  0  0  0  0  0  0  0  0  0
    0.0278    2.5344   -5.8150 F   0  0  0  0  0  0  0  0  0  0  0  0
    1.7549    2.4866   -4.4891 F   0  0  0  0  0  0  0  0  0  0  0  0
    2.0383    2.6380   -6.6435 F   0  0  0  0  0  0  0  0  0  0  0  0
   -4.1488   -2.6540   -4.8361 H   0  0  0  0  0  0  0  0  0  0  0  0
  1  2  1  0  0  0  0
  1  7  1  0  0  0  0
  2  8  1  0  0  0  0
  3 15  1  0  0  0  0
  3  2  2  0  0  0  0
  4  3  1  0  0  0  0
  5  4  2  0  0  0  0
  5  6  1  0  0  0  0
  6  1  2  0  0  0  0
  9  4  1  0  0  0  0
 10  5  1  0  0  0  0
 12 11  3  0  0  0  0
 13 14  1  0  0  0  0
 13 16  2  0  0  0  0
 13 15  1  0  0  0  0
 14 19  1  0  0  0  0
 17 13  2  0  0  0  0
 18 14  1  0  0  0  0
 20 14  1  0  0  0  0
 21  6  1  0  0  0  0
M  END
