Coordinates from ORCA-job Ph-N2-OTf-B3LYPG-6-31G_dp-MTMO-d009-169-n800
 OpenBabel09051908113D

 21 20  0  0  0  0  0  0  0  0999 V2000
   -1.7478   -2.2379   -4.3505 C   0  0  0  0  0  0  0  0  0  0  0  0
   -0.4920   -1.6343   -4.4310 C   0  0  0  0  0  0  0  0  0  0  0  0
   -0.4086   -0.3357   -4.9224 C   0  0  0  0  0  0  0  0  0  0  0  0
   -1.5303    0.3767   -5.3338 C   0  0  0  0  0  0  0  0  0  0  0  0
   -2.7789   -0.2402   -5.2486 C   0  0  0  0  0  0  0  0  0  0  0  0
   -2.8890   -1.5436   -4.7586 C   0  0  0  0  0  0  0  0  0  0  0  0
   -1.8316   -3.2500   -3.9679 H   0  0  0  0  0  0  0  0  0  0  0  0
    0.4091   -2.1479   -4.1139 H   0  0  0  0  0  0  0  0  0  0  0  0
   -1.4191    1.3868   -5.7096 H   0  0  0  0  0  0  0  0  0  0  0  0
   -3.6652    0.3002   -5.5658 H   0  0  0  0  0  0  0  0  0  0  0  0
    3.8353    5.2775   -7.1730 N   0  0  0  0  0  0  0  0  0  0  0  0
    4.4657    6.1630   -7.3723 N   0  0  0  0  0  0  0  0  0  0  0  0
    1.7773    0.2877   -6.2835 S   0  0  0  0  0  0  0  0  0  0  0  0
    1.8599    2.1393   -6.5338 C   0  0  0  0  0  0  0  0  0  0  0  0
    0.8544    0.2999   -4.9184 O   0  0  0  0  0  0  0  0  0  0  0  0
    3.1104   -0.1497   -5.9123 O   0  0  0  0  0  0  0  0  0  0  0  0
    1.0372   -0.2817   -7.3973 O   0  0  0  0  0  0  0  0  0  0  0  0
    0.6279    2.6242   -6.7134 F   0  0  0  0  0  0  0  0  0  0  0  0
    2.4188    2.7167   -5.4766 F   0  0  0  0  0  0  0  0  0  0  0  0
    2.5917    2.3737   -7.6206 F   0  0  0  0  0  0  0  0  0  0  0  0
   -3.8636   -2.0177   -4.6942 H   0  0  0  0  0  0  0  0  0  0  0  0
  1  7  1  0  0  0  0
  2  1  1  0  0  0  0
  2  8  1  0  0  0  0
  3 15  1  0  0  0  0
  3  2  2  0  0  0  0
  4  5  2  0  0  0  0
  4  3  1  0  0  0  0
  5  6  1  0  0  0  0
  6 21  1  0  0  0  0
  6  1  2  0  0  0  0
  9  4  1  0  0  0  0
 10  5  1  0  0  0  0
 12 11  3  0  0  0  0
 13 16  2  0  0  0  0
 13 15  1  0  0  0  0
 14 13  1  0  0  0  0
 14 19  1  0  0  0  0
 17 13  2  0  0  0  0
 18 14  1  0  0  0  0
 20 14  1  0  0  0  0
M  END
