Coordinates from ORCA-job Ph-N2-OTf-B3LYPG-6-31G_dp-MTMO-d009-169-n800
 OpenBabel09051908113D

 21 20  0  0  0  0  0  0  0  0999 V2000
   -2.0433   -2.8395   -4.4805 C   0  0  0  0  0  0  0  0  0  0  0  0
   -0.8219   -2.1672   -4.4182 C   0  0  0  0  0  0  0  0  0  0  0  0
   -0.8036   -0.7968   -4.6567 C   0  0  0  0  0  0  0  0  0  0  0  0
   -1.9579   -0.0795   -4.9539 C   0  0  0  0  0  0  0  0  0  0  0  0
   -3.1710   -0.7659   -5.0163 C   0  0  0  0  0  0  0  0  0  0  0  0
   -3.2155   -2.1417   -4.7798 C   0  0  0  0  0  0  0  0  0  0  0  0
   -2.0763   -3.9082   -4.2924 H   0  0  0  0  0  0  0  0  0  0  0  0
    0.1018   -2.6835   -4.1810 H   0  0  0  0  0  0  0  0  0  0  0  0
   -1.8997    0.9879   -5.1321 H   0  0  0  0  0  0  0  0  0  0  0  0
   -4.0814   -0.2222   -5.2488 H   0  0  0  0  0  0  0  0  0  0  0  0
    7.6850    8.6739  -10.4038 N   0  0  0  0  0  0  0  0  0  0  0  0
    8.6452    9.1746  -10.6249 N   0  0  0  0  0  0  0  0  0  0  0  0
    1.3400    0.2389   -5.8227 S   0  0  0  0  0  0  0  0  0  0  0  0
    1.2737    2.0994   -5.6660 C   0  0  0  0  0  0  0  0  0  0  0  0
    0.4243   -0.1144   -4.5001 O   0  0  0  0  0  0  0  0  0  0  0  0
    2.7039   -0.1611   -5.5317 O   0  0  0  0  0  0  0  0  0  0  0  0
    0.6452   -0.1326   -7.0440 O   0  0  0  0  0  0  0  0  0  0  0  0
    0.0129    2.5194   -5.8046 F   0  0  0  0  0  0  0  0  0  0  0  0
    1.7400    2.4713   -4.4788 F   0  0  0  0  0  0  0  0  0  0  0  0
    2.0234    2.6237   -6.6331 F   0  0  0  0  0  0  0  0  0  0  0  0
   -4.1632   -2.6695   -4.8283 H   0  0  0  0  0  0  0  0  0  0  0  0
  1  2  1  0  0  0  0
  1  7  1  0  0  0  0
  2  8  1  0  0  0  0
  3 15  1  0  0  0  0
  3  2  2  0  0  0  0
  4  3  1  0  0  0  0
  5  4  2  0  0  0  0
  5  6  1  0  0  0  0
  6  1  2  0  0  0  0
  9  4  1  0  0  0  0
 10  5  1  0  0  0  0
 12 11  3  0  0  0  0
 13 14  1  0  0  0  0
 13 16  2  0  0  0  0
 13 15  1  0  0  0  0
 14 19  1  0  0  0  0
 17 13  2  0  0  0  0
 18 14  1  0  0  0  0
 20 14  1  0  0  0  0
 21  6  1  0  0  0  0
M  END
