Coordinates from ORCA-job Ph-N2-OTf-B3LYPG-6-31G_dp-MTMO-d009-169-n800
 OpenBabel09051908113D

 21 20  0  0  0  0  0  0  0  0999 V2000
   -1.9378   -2.7087   -4.5333 C   0  0  0  0  0  0  0  0  0  0  0  0
   -0.7142   -2.0404   -4.4721 C   0  0  0  0  0  0  0  0  0  0  0  0
   -0.6890   -0.6731   -4.7265 C   0  0  0  0  0  0  0  0  0  0  0  0
   -1.8387    0.0452   -5.0387 C   0  0  0  0  0  0  0  0  0  0  0  0
   -3.0542   -0.6371   -5.0999 C   0  0  0  0  0  0  0  0  0  0  0  0
   -3.1056   -2.0099   -4.8475 C   0  0  0  0  0  0  0  0  0  0  0  0
   -1.9762   -3.7749   -4.3328 H   0  0  0  0  0  0  0  0  0  0  0  0
    0.2062   -2.5575   -4.2236 H   0  0  0  0  0  0  0  0  0  0  0  0
   -1.7755    1.1102   -5.2290 H   0  0  0  0  0  0  0  0  0  0  0  0
   -3.9610   -0.0927   -5.3441 H   0  0  0  0  0  0  0  0  0  0  0  0
    6.5919    7.5046   -9.6711 N   0  0  0  0  0  0  0  0  0  0  0  0
    7.4881    8.0615  -10.0003 N   0  0  0  0  0  0  0  0  0  0  0  0
    1.4619    0.3466   -5.8933 S   0  0  0  0  0  0  0  0  0  0  0  0
    1.4067    2.2082   -5.7456 C   0  0  0  0  0  0  0  0  0  0  0  0
    0.5410    0.0058   -4.5710 O   0  0  0  0  0  0  0  0  0  0  0  0
    2.8227   -0.0606   -5.5975 O   0  0  0  0  0  0  0  0  0  0  0  0
    0.7675   -0.0266   -7.1143 O   0  0  0  0  0  0  0  0  0  0  0  0
    0.1488    2.6352   -5.8893 F   0  0  0  0  0  0  0  0  0  0  0  0
    1.8723    2.5828   -4.5590 F   0  0  0  0  0  0  0  0  0  0  0  0
    2.1619    2.7231   -6.7134 F   0  0  0  0  0  0  0  0  0  0  0  0
   -4.0550   -2.5345   -4.8952 H   0  0  0  0  0  0  0  0  0  0  0  0
  1  2  1  0  0  0  0
  1  7  1  0  0  0  0
  2  8  1  0  0  0  0
  3 15  1  0  0  0  0
  3  2  2  0  0  0  0
  4  3  1  0  0  0  0
  5  4  2  0  0  0  0
  5  6  1  0  0  0  0
  6  1  2  0  0  0  0
  9  4  1  0  0  0  0
 10  5  1  0  0  0  0
 12 11  3  0  0  0  0
 13 14  1  0  0  0  0
 13 16  2  0  0  0  0
 13 15  1  0  0  0  0
 14 19  1  0  0  0  0
 17 13  2  0  0  0  0
 18 14  1  0  0  0  0
 20 14  1  0  0  0  0
 21  6  1  0  0  0  0
M  END
