Coordinates from ORCA-job Ph-N2-OTf-B3LYPG-6-31G_dp-MTMO-d009-169-n800
 OpenBabel09051908113D

 21 20  0  0  0  0  0  0  0  0999 V2000
   -1.8857   -2.6333   -4.5604 C   0  0  0  0  0  0  0  0  0  0  0  0
   -0.6592   -1.9702   -4.4988 C   0  0  0  0  0  0  0  0  0  0  0  0
   -0.6263   -0.6052   -4.7644 C   0  0  0  0  0  0  0  0  0  0  0  0
   -1.7712    0.1159   -5.0882 C   0  0  0  0  0  0  0  0  0  0  0  0
   -2.9895   -0.5613   -5.1498 C   0  0  0  0  0  0  0  0  0  0  0  0
   -3.0486   -1.9317   -4.8862 C   0  0  0  0  0  0  0  0  0  0  0  0
   -1.9301   -3.6975   -4.3512 H   0  0  0  0  0  0  0  0  0  0  0  0
    0.2575   -2.4895   -4.2415 H   0  0  0  0  0  0  0  0  0  0  0  0
   -1.7021    1.1789   -5.2869 H   0  0  0  0  0  0  0  0  0  0  0  0
   -3.8925   -0.0147   -5.4029 H   0  0  0  0  0  0  0  0  0  0  0  0
    5.9728    6.8920   -9.2592 N   0  0  0  0  0  0  0  0  0  0  0  0
    6.8408    7.4445   -9.6628 N   0  0  0  0  0  0  0  0  0  0  0  0
    1.5334    0.3977   -5.9294 S   0  0  0  0  0  0  0  0  0  0  0  0
    1.4886    2.2603   -5.7909 C   0  0  0  0  0  0  0  0  0  0  0  0
    0.6062    0.0689   -4.6085 O   0  0  0  0  0  0  0  0  0  0  0  0
    2.8908   -0.0160   -5.6272 O   0  0  0  0  0  0  0  0  0  0  0  0
    0.8408    0.0225   -7.1508 O   0  0  0  0  0  0  0  0  0  0  0  0
    0.2335    2.6937   -5.9400 F   0  0  0  0  0  0  0  0  0  0  0  0
    1.9532    2.6379   -4.6049 F   0  0  0  0  0  0  0  0  0  0  0  0
    2.2493    2.7660   -6.7591 F   0  0  0  0  0  0  0  0  0  0  0  0
   -4.0003   -2.4522   -4.9342 H   0  0  0  0  0  0  0  0  0  0  0  0
  1  2  1  0  0  0  0
  1  7  1  0  0  0  0
  2  8  1  0  0  0  0
  3 15  1  0  0  0  0
  3  2  2  0  0  0  0
  4  3  1  0  0  0  0
  5  4  2  0  0  0  0
  5  6  1  0  0  0  0
  6  1  2  0  0  0  0
  9  4  1  0  0  0  0
 10  5  1  0  0  0  0
 12 11  3  0  0  0  0
 13 14  1  0  0  0  0
 13 16  2  0  0  0  0
 13 15  1  0  0  0  0
 14 19  1  0  0  0  0
 17 13  2  0  0  0  0
 18 14  1  0  0  0  0
 20 14  1  0  0  0  0
 21  6  1  0  0  0  0
M  END
