Coordinates from ORCA-job Ph-N2-OTf-B3LYPG-6-31G_dp-MTMO-d009-169-n800
 OpenBabel09051908113D

 21 20  0  0  0  0  0  0  0  0999 V2000
   -2.1288   -2.9314   -4.4345 C   0  0  0  0  0  0  0  0  0  0  0  0
   -0.9073   -2.2594   -4.3717 C   0  0  0  0  0  0  0  0  0  0  0  0
   -0.8892   -0.8882   -4.6049 C   0  0  0  0  0  0  0  0  0  0  0  0
   -2.0439   -0.1696   -4.8974 C   0  0  0  0  0  0  0  0  0  0  0  0
   -3.2572   -0.8556   -4.9603 C   0  0  0  0  0  0  0  0  0  0  0  0
   -3.3015   -2.2323   -4.7291 C   0  0  0  0  0  0  0  0  0  0  0  0
   -2.1617   -4.0008   -4.2506 H   0  0  0  0  0  0  0  0  0  0  0  0
    0.0168   -2.7768   -4.1380 H   0  0  0  0  0  0  0  0  0  0  0  0
   -1.9859    0.8984   -5.0716 H   0  0  0  0  0  0  0  0  0  0  0  0
   -4.1679   -0.3109   -5.1891 H   0  0  0  0  0  0  0  0  0  0  0  0
    8.4998    9.5359  -10.9034 N   0  0  0  0  0  0  0  0  0  0  0  0
    9.4629   10.0326  -11.1212 N   0  0  0  0  0  0  0  0  0  0  0  0
    1.2536    0.1492   -5.7705 S   0  0  0  0  0  0  0  0  0  0  0  0
    1.1879    2.0094   -5.6100 C   0  0  0  0  0  0  0  0  0  0  0  0
    0.3389   -0.2062   -4.4478 O   0  0  0  0  0  0  0  0  0  0  0  0
    2.6177   -0.2520   -5.4817 O   0  0  0  0  0  0  0  0  0  0  0  0
    0.5578   -0.2197   -6.9919 O   0  0  0  0  0  0  0  0  0  0  0  0
   -0.0730    2.4298   -5.7466 F   0  0  0  0  0  0  0  0  0  0  0  0
    1.6554    2.3790   -4.4225 F   0  0  0  0  0  0  0  0  0  0  0  0
    1.9367    2.5355   -6.5769 F   0  0  0  0  0  0  0  0  0  0  0  0
   -4.2493   -2.7598   -4.7780 H   0  0  0  0  0  0  0  0  0  0  0  0
  1  2  1  0  0  0  0
  1  7  1  0  0  0  0
  2  8  1  0  0  0  0
  3 15  1  0  0  0  0
  3  2  2  0  0  0  0
  4  3  1  0  0  0  0
  5  4  2  0  0  0  0
  5  6  1  0  0  0  0
  6  1  2  0  0  0  0
  9  4  1  0  0  0  0
 10  5  1  0  0  0  0
 12 11  3  0  0  0  0
 13 14  1  0  0  0  0
 13 16  2  0  0  0  0
 13 15  1  0  0  0  0
 14 19  1  0  0  0  0
 17 13  2  0  0  0  0
 18 14  1  0  0  0  0
 20 14  1  0  0  0  0
 21  6  1  0  0  0  0
M  END
