Coordinates from ORCA-job Ph-N2-OTf-B3LYPG-6-31G_dp-MTMO-d009-169-n800
 OpenBabel09051908113D

 21 20  0  0  0  0  0  0  0  0999 V2000
   -1.9476   -2.7244   -4.5267 C   0  0  0  0  0  0  0  0  0  0  0  0
   -0.7247   -2.0546   -4.4665 C   0  0  0  0  0  0  0  0  0  0  0  0
   -0.7017   -0.6869   -4.7189 C   0  0  0  0  0  0  0  0  0  0  0  0
   -1.8529    0.0304   -5.0279 C   0  0  0  0  0  0  0  0  0  0  0  0
   -3.0676   -0.6534   -5.0881 C   0  0  0  0  0  0  0  0  0  0  0  0
   -3.1168   -2.0266   -4.8378 C   0  0  0  0  0  0  0  0  0  0  0  0
   -1.9843   -3.7910   -4.3278 H   0  0  0  0  0  0  0  0  0  0  0  0
    0.1968   -2.5709   -4.2204 H   0  0  0  0  0  0  0  0  0  0  0  0
   -1.7914    1.0958   -5.2167 H   0  0  0  0  0  0  0  0  0  0  0  0
   -3.9756   -0.1097   -5.3299 H   0  0  0  0  0  0  0  0  0  0  0  0
    6.7182    7.6344   -9.7563 N   0  0  0  0  0  0  0  0  0  0  0  0
    7.6272    8.1836  -10.0627 N   0  0  0  0  0  0  0  0  0  0  0  0
    1.4463    0.3365   -5.8876 S   0  0  0  0  0  0  0  0  0  0  0  0
    1.3884    2.1979   -5.7388 C   0  0  0  0  0  0  0  0  0  0  0  0
    0.5276   -0.0065   -4.5644 O   0  0  0  0  0  0  0  0  0  0  0  0
    2.8081   -0.0688   -5.5938 O   0  0  0  0  0  0  0  0  0  0  0  0
    0.7510   -0.0370   -7.1080 O   0  0  0  0  0  0  0  0  0  0  0  0
    0.1297    2.6231   -5.8809 F   0  0  0  0  0  0  0  0  0  0  0  0
    1.8547    2.5726   -4.5525 F   0  0  0  0  0  0  0  0  0  0  0  0
    2.1419    2.7145   -6.7071 F   0  0  0  0  0  0  0  0  0  0  0  0
   -4.0657   -2.5523   -4.8847 H   0  0  0  0  0  0  0  0  0  0  0  0
  1  2  1  0  0  0  0
  1  7  1  0  0  0  0
  2  8  1  0  0  0  0
  3 15  1  0  0  0  0
  3  2  2  0  0  0  0
  4  3  1  0  0  0  0
  5  4  2  0  0  0  0
  5  6  1  0  0  0  0
  6  1  2  0  0  0  0
  9  4  1  0  0  0  0
 10  5  1  0  0  0  0
 12 11  3  0  0  0  0
 13 14  1  0  0  0  0
 13 16  2  0  0  0  0
 13 15  1  0  0  0  0
 14 19  1  0  0  0  0
 17 13  2  0  0  0  0
 18 14  1  0  0  0  0
 20 14  1  0  0  0  0
 21  6  1  0  0  0  0
M  END
