Coordinates from ORCA-job Ph-N2-OTf-B3LYPG-6-31G_dp-MTMO-d009-169-n800
 OpenBabel09051908113D

 21 20  0  0  0  0  0  0  0  0999 V2000
   -1.7796   -2.4720   -4.5854 C   0  0  0  0  0  0  0  0  0  0  0  0
   -0.5466   -1.8198   -4.5390 C   0  0  0  0  0  0  0  0  0  0  0  0
   -0.4991   -0.4636   -4.8447 C   0  0  0  0  0  0  0  0  0  0  0  0
   -1.6355    0.2591   -5.1935 C   0  0  0  0  0  0  0  0  0  0  0  0
   -2.8604   -0.4073   -5.2394 C   0  0  0  0  0  0  0  0  0  0  0  0
   -2.9342   -1.7687   -4.9357 C   0  0  0  0  0  0  0  0  0  0  0  0
   -1.8354   -3.5291   -4.3452 H   0  0  0  0  0  0  0  0  0  0  0  0
    0.3641   -2.3404   -4.2635 H   0  0  0  0  0  0  0  0  0  0  0  0
   -1.5549    1.3150   -5.4233 H   0  0  0  0  0  0  0  0  0  0  0  0
   -3.7570    0.1405   -5.5117 H   0  0  0  0  0  0  0  0  0  0  0  0
    4.7307    5.6476   -8.3891 N   0  0  0  0  0  0  0  0  0  0  0  0
    5.5210    6.2577   -8.8633 N   0  0  0  0  0  0  0  0  0  0  0  0
    1.6724    0.4866   -6.0324 S   0  0  0  0  0  0  0  0  0  0  0  0
    1.6600    2.3523   -5.9325 C   0  0  0  0  0  0  0  0  0  0  0  0
    0.7398    0.2023   -4.7048 O   0  0  0  0  0  0  0  0  0  0  0  0
    3.0226    0.0553   -5.7222 O   0  0  0  0  0  0  0  0  0  0  0  0
    0.9728    0.0978   -7.2456 O   0  0  0  0  0  0  0  0  0  0  0  0
    0.4123    2.8035   -6.0917 F   0  0  0  0  0  0  0  0  0  0  0  0
    2.1297    2.7456   -4.7534 F   0  0  0  0  0  0  0  0  0  0  0  0
    2.4301    2.8252   -6.9095 F   0  0  0  0  0  0  0  0  0  0  0  0
   -3.8910   -2.2807   -4.9717 H   0  0  0  0  0  0  0  0  0  0  0  0
  1  2  1  0  0  0  0
  1  7  1  0  0  0  0
  2  8  1  0  0  0  0
  3 15  1  0  0  0  0
  3  2  2  0  0  0  0
  4  3  1  0  0  0  0
  5  4  2  0  0  0  0
  5  6  1  0  0  0  0
  6  1  2  0  0  0  0
  9  4  1  0  0  0  0
 10  5  1  0  0  0  0
 12 11  3  0  0  0  0
 13 14  1  0  0  0  0
 13 16  2  0  0  0  0
 13 15  1  0  0  0  0
 14 19  1  0  0  0  0
 17 13  2  0  0  0  0
 18 14  1  0  0  0  0
 20 14  1  0  0  0  0
 21  6  1  0  0  0  0
M  END
