Coordinates from ORCA-job Ph-N2-OTf-B3LYPG-6-31G_dp-MTMO-d009-169-n800
 OpenBabel09051908113D

 21 20  0  0  0  0  0  0  0  0999 V2000
   -1.7918   -2.4927   -4.5885 C   0  0  0  0  0  0  0  0  0  0  0  0
   -0.5598   -1.8391   -4.5375 C   0  0  0  0  0  0  0  0  0  0  0  0
   -0.5139   -0.4809   -4.8342 C   0  0  0  0  0  0  0  0  0  0  0  0
   -1.6512    0.2425   -5.1787 C   0  0  0  0  0  0  0  0  0  0  0  0
   -2.8752   -0.4253   -5.2293 C   0  0  0  0  0  0  0  0  0  0  0  0
   -2.9473   -1.7887   -4.9347 C   0  0  0  0  0  0  0  0  0  0  0  0
   -1.8462   -3.5515   -4.3553 H   0  0  0  0  0  0  0  0  0  0  0  0
    0.3515   -2.3602   -4.2651 H   0  0  0  0  0  0  0  0  0  0  0  0
   -1.5721    1.3000   -5.4015 H   0  0  0  0  0  0  0  0  0  0  0  0
   -3.7725    0.1232   -5.4984 H   0  0  0  0  0  0  0  0  0  0  0  0
    4.8754    5.7968   -8.5018 N   0  0  0  0  0  0  0  0  0  0  0  0
    5.6821    6.3851   -8.9760 N   0  0  0  0  0  0  0  0  0  0  0  0
    1.6572    0.4786   -6.0146 S   0  0  0  0  0  0  0  0  0  0  0  0
    1.6371    2.3437   -5.9078 C   0  0  0  0  0  0  0  0  0  0  0  0
    0.7240    0.1858   -4.6894 O   0  0  0  0  0  0  0  0  0  0  0  0
    3.0087    0.0514   -5.7041 O   0  0  0  0  0  0  0  0  0  0  0  0
    0.9609    0.0916   -7.2302 O   0  0  0  0  0  0  0  0  0  0  0  0
    0.3877    2.7905   -6.0655 F   0  0  0  0  0  0  0  0  0  0  0  0
    2.1052    2.7348   -4.7275 F   0  0  0  0  0  0  0  0  0  0  0  0
    2.4052    2.8231   -6.8832 F   0  0  0  0  0  0  0  0  0  0  0  0
   -3.9033   -2.3018   -4.9743 H   0  0  0  0  0  0  0  0  0  0  0  0
  1  2  1  0  0  0  0
  1  7  1  0  0  0  0
  2  8  1  0  0  0  0
  3 15  1  0  0  0  0
  3  2  2  0  0  0  0
  4  3  1  0  0  0  0
  5  4  2  0  0  0  0
  5  6  1  0  0  0  0
  6  1  2  0  0  0  0
  9  4  1  0  0  0  0
 10  5  1  0  0  0  0
 12 11  3  0  0  0  0
 13 14  1  0  0  0  0
 13 16  2  0  0  0  0
 13 15  1  0  0  0  0
 14 19  1  0  0  0  0
 17 13  2  0  0  0  0
 18 14  1  0  0  0  0
 20 14  1  0  0  0  0
 21  6  1  0  0  0  0
M  END
