Coordinates from ORCA-job Ph-N2-OTf-B3LYPG-6-31G_dp-MTMO-d009-169-n800
 OpenBabel09051908113D

 21 20  0  0  0  0  0  0  0  0999 V2000
   -1.8762   -2.6208   -4.5655 C   0  0  0  0  0  0  0  0  0  0  0  0
   -0.6494   -1.9583   -4.5039 C   0  0  0  0  0  0  0  0  0  0  0  0
   -0.6156   -0.5936   -4.7709 C   0  0  0  0  0  0  0  0  0  0  0  0
   -1.7598    0.1278   -5.0961 C   0  0  0  0  0  0  0  0  0  0  0  0
   -2.9785   -0.5488   -5.1577 C   0  0  0  0  0  0  0  0  0  0  0  0
   -3.0385   -1.9189   -4.8927 C   0  0  0  0  0  0  0  0  0  0  0  0
   -1.9212   -3.6848   -4.3552 H   0  0  0  0  0  0  0  0  0  0  0  0
    0.2669   -2.4778   -4.2455 H   0  0  0  0  0  0  0  0  0  0  0  0
   -1.6901    1.1906   -5.2959 H   0  0  0  0  0  0  0  0  0  0  0  0
   -3.8811   -0.0020   -5.4120 H   0  0  0  0  0  0  0  0  0  0  0  0
    5.8675    6.7882   -9.1894 N   0  0  0  0  0  0  0  0  0  0  0  0
    6.7330    7.3358   -9.6050 N   0  0  0  0  0  0  0  0  0  0  0  0
    1.5452    0.4073   -5.9357 S   0  0  0  0  0  0  0  0  0  0  0  0
    1.5016    2.2699   -5.7985 C   0  0  0  0  0  0  0  0  0  0  0  0
    0.6172    0.0800   -4.6150 O   0  0  0  0  0  0  0  0  0  0  0  0
    2.9022   -0.0072   -5.6328 O   0  0  0  0  0  0  0  0  0  0  0  0
    0.8529    0.0317   -7.1572 O   0  0  0  0  0  0  0  0  0  0  0  0
    0.2469    2.7041   -5.9483 F   0  0  0  0  0  0  0  0  0  0  0  0
    1.9661    2.6480   -4.6126 F   0  0  0  0  0  0  0  0  0  0  0  0
    2.2630    2.7745   -6.7668 F   0  0  0  0  0  0  0  0  0  0  0  0
   -3.9904   -2.4389   -4.9408 H   0  0  0  0  0  0  0  0  0  0  0  0
  1  2  1  0  0  0  0
  1  7  1  0  0  0  0
  2  8  1  0  0  0  0
  3 15  1  0  0  0  0
  3  2  2  0  0  0  0
  4  3  1  0  0  0  0
  5  4  2  0  0  0  0
  5  6  1  0  0  0  0
  6  1  2  0  0  0  0
  9  4  1  0  0  0  0
 10  5  1  0  0  0  0
 12 11  3  0  0  0  0
 13 14  1  0  0  0  0
 13 16  2  0  0  0  0
 13 15  1  0  0  0  0
 14 19  1  0  0  0  0
 17 13  2  0  0  0  0
 18 14  1  0  0  0  0
 20 14  1  0  0  0  0
 21  6  1  0  0  0  0
M  END
