Coordinates from ORCA-job Ph-N2-OTf-B3LYPG-6-31G_dp-MTMO-d009-169-n800
 OpenBabel09051908113D

 21 20  0  0  0  0  0  0  0  0999 V2000
   -2.0924   -2.8928   -4.4544 C   0  0  0  0  0  0  0  0  0  0  0  0
   -0.8711   -2.2204   -4.3916 C   0  0  0  0  0  0  0  0  0  0  0  0
   -0.8531   -0.8495   -4.6268 C   0  0  0  0  0  0  0  0  0  0  0  0
   -2.0077   -0.1317   -4.9213 C   0  0  0  0  0  0  0  0  0  0  0  0
   -3.2209   -0.8180   -4.9842 C   0  0  0  0  0  0  0  0  0  0  0  0
   -3.2650   -2.1944   -4.7510 C   0  0  0  0  0  0  0  0  0  0  0  0
   -2.1252   -3.9619   -4.2688 H   0  0  0  0  0  0  0  0  0  0  0  0
    0.0530   -2.7372   -4.1563 H   0  0  0  0  0  0  0  0  0  0  0  0
   -1.9498    0.9361   -5.0970 H   0  0  0  0  0  0  0  0  0  0  0  0
   -4.1315   -0.2738   -5.2146 H   0  0  0  0  0  0  0  0  0  0  0  0
    8.1550    9.1717  -10.6930 N   0  0  0  0  0  0  0  0  0  0  0  0
    9.1179    9.6682  -10.9118 N   0  0  0  0  0  0  0  0  0  0  0  0
    1.2899    0.1876   -5.7923 S   0  0  0  0  0  0  0  0  0  0  0  0
    1.2241    2.0479   -5.6329 C   0  0  0  0  0  0  0  0  0  0  0  0
    0.3748   -0.1671   -4.4697 O   0  0  0  0  0  0  0  0  0  0  0  0
    2.6539   -0.2134   -5.5028 O   0  0  0  0  0  0  0  0  0  0  0  0
    0.5945   -0.1820   -7.0138 O   0  0  0  0  0  0  0  0  0  0  0  0
   -0.0367    2.4682   -5.7701 F   0  0  0  0  0  0  0  0  0  0  0  0
    1.6912    2.4181   -4.4455 F   0  0  0  0  0  0  0  0  0  0  0  0
    1.9732    2.5734   -6.5998 F   0  0  0  0  0  0  0  0  0  0  0  0
   -4.2126   -2.7221   -4.7999 H   0  0  0  0  0  0  0  0  0  0  0  0
  1  2  1  0  0  0  0
  1  7  1  0  0  0  0
  2  8  1  0  0  0  0
  3 15  1  0  0  0  0
  3  2  2  0  0  0  0
  4  3  1  0  0  0  0
  5  4  2  0  0  0  0
  5  6  1  0  0  0  0
  6  1  2  0  0  0  0
  9  4  1  0  0  0  0
 10  5  1  0  0  0  0
 12 11  3  0  0  0  0
 13 14  1  0  0  0  0
 13 16  2  0  0  0  0
 13 15  1  0  0  0  0
 14 19  1  0  0  0  0
 17 13  2  0  0  0  0
 18 14  1  0  0  0  0
 20 14  1  0  0  0  0
 21  6  1  0  0  0  0
M  END
