Coordinates from ORCA-job Ph-N2-OTf-B3LYPG-6-31G_dp-MTMO-d009-169-n800
 OpenBabel09051908113D

 21 20  0  0  0  0  0  0  0  0999 V2000
   -1.9687   -2.7529   -4.5136 C   0  0  0  0  0  0  0  0  0  0  0  0
   -0.7465   -2.0816   -4.4548 C   0  0  0  0  0  0  0  0  0  0  0  0
   -0.7259   -0.7133   -4.7041 C   0  0  0  0  0  0  0  0  0  0  0  0
   -1.8788    0.0033   -5.0087 C   0  0  0  0  0  0  0  0  0  0  0  0
   -3.0928   -0.6820   -5.0675 C   0  0  0  0  0  0  0  0  0  0  0  0
   -3.1395   -2.0558   -4.8202 C   0  0  0  0  0  0  0  0  0  0  0  0
   -2.0035   -3.8199   -4.3170 H   0  0  0  0  0  0  0  0  0  0  0  0
    0.1762   -2.5973   -4.2121 H   0  0  0  0  0  0  0  0  0  0  0  0
   -1.8191    1.0691   -5.1952 H   0  0  0  0  0  0  0  0  0  0  0  0
   -4.0020   -0.1390   -5.3058 H   0  0  0  0  0  0  0  0  0  0  0  0
    6.9522    7.8858   -9.9236 N   0  0  0  0  0  0  0  0  0  0  0  0
    7.8856    8.4203  -10.1777 N   0  0  0  0  0  0  0  0  0  0  0  0
    1.4187    0.3143   -5.8754 S   0  0  0  0  0  0  0  0  0  0  0  0
    1.3570    2.1755   -5.7258 C   0  0  0  0  0  0  0  0  0  0  0  0
    0.5028   -0.0316   -4.5510 O   0  0  0  0  0  0  0  0  0  0  0  0
    2.7818   -0.0879   -5.5834 O   0  0  0  0  0  0  0  0  0  0  0  0
    0.7225   -0.0604   -7.0949 O   0  0  0  0  0  0  0  0  0  0  0  0
    0.0972    2.5981   -5.8662 F   0  0  0  0  0  0  0  0  0  0  0  0
    1.8240    2.5507   -4.5399 F   0  0  0  0  0  0  0  0  0  0  0  0
    2.1081    2.6941   -6.6948 F   0  0  0  0  0  0  0  0  0  0  0  0
   -4.0878   -2.5827   -4.8660 H   0  0  0  0  0  0  0  0  0  0  0  0
  1  2  1  0  0  0  0
  1  7  1  0  0  0  0
  2  8  1  0  0  0  0
  3 15  1  0  0  0  0
  3  2  2  0  0  0  0
  4  3  1  0  0  0  0
  5  4  2  0  0  0  0
  5  6  1  0  0  0  0
  6  1  2  0  0  0  0
  9  4  1  0  0  0  0
 10  5  1  0  0  0  0
 12 11  3  0  0  0  0
 13 14  1  0  0  0  0
 13 16  2  0  0  0  0
 13 15  1  0  0  0  0
 14 19  1  0  0  0  0
 17 13  2  0  0  0  0
 18 14  1  0  0  0  0
 20 14  1  0  0  0  0
 21  6  1  0  0  0  0
M  END
