Coordinates from ORCA-job Ph-N2-OTf-B3LYPG-6-31G_dp-MTMO-d009-169-n800
 OpenBabel09051908113D

 21 19  0  0  0  0  0  0  0  0999 V2000
   -1.5938   -0.9700   -5.4774 C   0  0  0  0  0  0  0  0  0  0  0  0
   -0.6222    0.0057   -5.1232 C   0  0  0  0  0  0  0  0  0  0  0  0
   -1.2154    1.1934   -5.1106 C   0  0  0  0  0  0  0  0  0  0  0  0
   -2.4382    1.7380   -5.3321 C   0  0  0  0  0  0  0  0  0  0  0  0
   -3.3421    0.7128   -5.6818 C   0  0  0  0  0  0  0  0  0  0  0  0
   -2.9178   -0.6190   -5.7487 C   0  0  0  0  0  0  0  0  0  0  0  0
   -1.2587   -2.0011   -5.5410 H   0  0  0  0  0  0  0  0  0  0  0  0
    0.4725   -0.2459   -4.9396 H   0  0  0  0  0  0  0  0  0  0  0  0
   -2.7047    2.7831   -5.2625 H   0  0  0  0  0  0  0  0  0  0  0  0
   -4.3697    0.9887   -5.8964 H   0  0  0  0  0  0  0  0  0  0  0  0
    0.0478    2.7524   -4.4858 N   0  0  0  0  0  0  0  0  0  0  0  0
    0.5582    3.6320   -4.0568 N   0  0  0  0  0  0  0  0  0  0  0  0
    2.8007    0.6035   -5.4315 S   0  0  0  0  0  0  0  0  0  0  0  0
    3.5424   -0.1636   -6.9513 C   0  0  0  0  0  0  0  0  0  0  0  0
    1.8774    1.6343   -5.9719 O   0  0  0  0  0  0  0  0  0  0  0  0
    3.9370    1.0755   -4.6371 O   0  0  0  0  0  0  0  0  0  0  0  0
    2.0446   -0.5526   -4.8203 O   0  0  0  0  0  0  0  0  0  0  0  0
    2.5738   -0.6568   -7.7425 F   0  0  0  0  0  0  0  0  0  0  0  0
    4.2306    0.7512   -7.6459 F   0  0  0  0  0  0  0  0  0  0  0  0
    4.3690   -1.1634   -6.6210 F   0  0  0  0  0  0  0  0  0  0  0  0
   -3.6298   -1.3912   -6.0201 H   0  0  0  0  0  0  0  0  0  0  0  0
  1  2  2  0  0  0  0
  2  3  1  0  0  0  0
  2  8  1  0  0  0  0
  4  9  1  0  0  0  0
  4  3  2  0  0  0  0
  5  4  1  0  0  0  0
  6  5  2  0  0  0  0
  6  1  1  0  0  0  0
  7  1  1  0  0  0  0
 10  5  1  0  0  0  0
 11 12  3  0  0  0  0
 13 17  2  0  0  0  0
 13 16  1  0  0  0  0
 14 20  1  0  0  0  0
 14 13  1  0  0  0  0
 15 13  2  0  0  0  0
 18 14  1  0  0  0  0
 19 14  1  0  0  0  0
 21  6  1  0  0  0  0
M  RAD  2   3   2  16   2
M  END
