Coordinates from ORCA-job Ph-N2-OTf-B3LYPG-6-31G_dp-MTMO-d009-169-n800
 OpenBabel09051908113D

 21 20  0  0  0  0  0  0  0  0999 V2000
   -1.8484   -1.5330   -4.7635 C   0  0  0  0  0  0  0  0  0  0  0  0
   -0.5717   -1.0197   -4.5306 C   0  0  0  0  0  0  0  0  0  0  0  0
   -0.2366    0.2051   -5.1006 C   0  0  0  0  0  0  0  0  0  0  0  0
   -1.1332    0.9336   -5.8768 C   0  0  0  0  0  0  0  0  0  0  0  0
   -2.4090    0.4110   -6.0910 C   0  0  0  0  0  0  0  0  0  0  0  0
   -2.7660   -0.8215   -5.5396 C   0  0  0  0  0  0  0  0  0  0  0  0
   -2.1247   -2.4900   -4.3326 H   0  0  0  0  0  0  0  0  0  0  0  0
    0.1517   -1.5556   -3.9277 H   0  0  0  0  0  0  0  0  0  0  0  0
   -0.8308    1.8894   -6.2885 H   0  0  0  0  0  0  0  0  0  0  0  0
   -3.1222    0.9689   -6.6899 H   0  0  0  0  0  0  0  0  0  0  0  0
    0.6940    4.2175   -5.3059 N   0  0  0  0  0  0  0  0  0  0  0  0
    1.0815    4.8734   -4.5054 N   0  0  0  0  0  0  0  0  0  0  0  0
    2.4091    0.1647   -5.4050 S   0  0  0  0  0  0  0  0  0  0  0  0
    2.5041    1.0559   -7.0460 C   0  0  0  0  0  0  0  0  0  0  0  0
    1.0134    0.8043   -4.8217 O   0  0  0  0  0  0  0  0  0  0  0  0
    3.4615    0.6987   -4.5639 O   0  0  0  0  0  0  0  0  0  0  0  0
    2.2552   -1.2512   -5.6943 O   0  0  0  0  0  0  0  0  0  0  0  0
    1.4328    0.7549   -7.7819 F   0  0  0  0  0  0  0  0  0  0  0  0
    2.5524    2.3705   -6.8451 F   0  0  0  0  0  0  0  0  0  0  0  0
    3.6069    0.6556   -7.6748 F   0  0  0  0  0  0  0  0  0  0  0  0
   -3.7585   -1.2256   -5.7128 H   0  0  0  0  0  0  0  0  0  0  0  0
  1  2  1  0  0  0  0
  1  7  1  0  0  0  0
  2  8  1  0  0  0  0
  3 15  1  0  0  0  0
  3  2  2  0  0  0  0
  4  3  1  0  0  0  0
  5  4  2  0  0  0  0
  5  6  1  0  0  0  0
  6  1  2  0  0  0  0
  9  4  1  0  0  0  0
 10  5  1  0  0  0  0
 11 12  3  0  0  0  0
 13 15  1  0  0  0  0
 13 16  2  0  0  0  0
 14 19  1  0  0  0  0
 14 13  1  0  0  0  0
 17 13  2  0  0  0  0
 18 14  1  0  0  0  0
 20 14  1  0  0  0  0
 21  6  1  0  0  0  0
M  END
