Coordinates from ORCA-job Ph-N2-OTf-B3LYPG-6-31G_dp-MTMO-d009-169-n800
 OpenBabel09051908113D

 21 20  0  0  0  0  0  0  0  0999 V2000
   -1.7463   -2.3136   -4.4261 C   0  0  0  0  0  0  0  0  0  0  0  0
   -0.5025   -1.6817   -4.4650 C   0  0  0  0  0  0  0  0  0  0  0  0
   -0.4406   -0.3609   -4.8968 C   0  0  0  0  0  0  0  0  0  0  0  0
   -1.5724    0.3465   -5.2886 C   0  0  0  0  0  0  0  0  0  0  0  0
   -2.8088   -0.2987   -5.2456 C   0  0  0  0  0  0  0  0  0  0  0  0
   -2.8971   -1.6248   -4.8158 C   0  0  0  0  0  0  0  0  0  0  0  0
   -1.8133   -3.3432   -4.0894 H   0  0  0  0  0  0  0  0  0  0  0  0
    0.4056   -2.1908   -4.1608 H   0  0  0  0  0  0  0  0  0  0  0  0
   -1.4785    1.3744   -5.6180 H   0  0  0  0  0  0  0  0  0  0  0  0
   -3.7027    0.2373   -5.5485 H   0  0  0  0  0  0  0  0  0  0  0  0
    4.1233    5.3017   -7.5114 N   0  0  0  0  0  0  0  0  0  0  0  0
    4.7939    6.1378   -7.7811 N   0  0  0  0  0  0  0  0  0  0  0  0
    1.7468    0.3645   -6.2034 S   0  0  0  0  0  0  0  0  0  0  0  0
    1.7899    2.2262   -6.3700 C   0  0  0  0  0  0  0  0  0  0  0  0
    0.8092    0.2984   -4.8500 O   0  0  0  0  0  0  0  0  0  0  0  0
    3.0849   -0.0593   -5.8349 O   0  0  0  0  0  0  0  0  0  0  0  0
    1.0317   -0.1716   -7.3495 O   0  0  0  0  0  0  0  0  0  0  0  0
    0.5508    2.6896   -6.5580 F   0  0  0  0  0  0  0  0  0  0  0  0
    2.3086    2.7677   -5.2740 F   0  0  0  0  0  0  0  0  0  0  0  0
    2.5413    2.5285   -7.4264 F   0  0  0  0  0  0  0  0  0  0  0  0
   -3.8624   -2.1209   -4.7841 H   0  0  0  0  0  0  0  0  0  0  0  0
  1  7  1  0  0  0  0
  2  1  1  0  0  0  0
  2  8  1  0  0  0  0
  3 15  1  0  0  0  0
  3  2  2  0  0  0  0
  4  5  2  0  0  0  0
  4  3  1  0  0  0  0
  5  6  1  0  0  0  0
  6 21  1  0  0  0  0
  6  1  2  0  0  0  0
  9  4  1  0  0  0  0
 10  5  1  0  0  0  0
 12 11  3  0  0  0  0
 13 16  2  0  0  0  0
 13 15  1  0  0  0  0
 14 13  1  0  0  0  0
 14 19  1  0  0  0  0
 17 13  2  0  0  0  0
 18 14  1  0  0  0  0
 20 14  1  0  0  0  0
M  END
