Coordinates from ORCA-job Ph-N2-OTf-B3LYPG-6-31G_dp-MTMO-d009-169-n800
 OpenBabel09051908113D

 21 19  0  0  0  0  0  0  0  0999 V2000
   -1.5792   -1.1604   -5.5029 C   0  0  0  0  0  0  0  0  0  0  0  0
   -0.6994   -0.0885   -5.2149 C   0  0  0  0  0  0  0  0  0  0  0  0
   -1.2465    1.0500   -5.2458 C   0  0  0  0  0  0  0  0  0  0  0  0
   -2.4653    1.6101   -5.4799 C   0  0  0  0  0  0  0  0  0  0  0  0
   -3.3428    0.5356   -5.7695 C   0  0  0  0  0  0  0  0  0  0  0  0
   -2.9095   -0.8018   -5.7789 C   0  0  0  0  0  0  0  0  0  0  0  0
   -1.2582   -2.1976   -5.5147 H   0  0  0  0  0  0  0  0  0  0  0  0
    1.0493   -0.3557   -4.8808 H   0  0  0  0  0  0  0  0  0  0  0  0
   -2.7541    2.6516   -5.4592 H   0  0  0  0  0  0  0  0  0  0  0  0
   -4.3804    0.7721   -5.9897 H   0  0  0  0  0  0  0  0  0  0  0  0
   -0.0133    3.7671   -4.4711 N   0  0  0  0  0  0  0  0  0  0  0  0
    0.7998    4.4025   -4.0766 N   0  0  0  0  0  0  0  0  0  0  0  0
    3.0050    0.5275   -5.2440 S   0  0  0  0  0  0  0  0  0  0  0  0
    3.2555   -0.0475   -6.9979 C   0  0  0  0  0  0  0  0  0  0  0  0
    2.3064    1.8054   -5.3233 O   0  0  0  0  0  0  0  0  0  0  0  0
    4.2728    0.3716   -4.5575 O   0  0  0  0  0  0  0  0  0  0  0  0
    2.0154   -0.6174   -4.7241 O   0  0  0  0  0  0  0  0  0  0  0  0
    2.0694   -0.1281   -7.6108 F   0  0  0  0  0  0  0  0  0  0  0  0
    4.0238    0.8353   -7.6357 F   0  0  0  0  0  0  0  0  0  0  0  0
    3.8420   -1.2423   -7.0116 F   0  0  0  0  0  0  0  0  0  0  0  0
   -3.6290   -1.5828   -6.0086 H   0  0  0  0  0  0  0  0  0  0  0  0
  1  2  2  0  0  0  0
  3  2  1  0  0  0  0
  4  9  1  0  0  0  0
  4  3  2  0  0  0  0
  5  4  1  0  0  0  0
  6  5  2  0  0  0  0
  6  1  1  0  0  0  0
  7  1  1  0  0  0  0
  8 17  1  0  0  0  0
 10  5  1  0  0  0  0
 11 12  3  0  0  0  0
 13 17  1  0  0  0  0
 13 16  2  0  0  0  0
 14 13  1  0  0  0  0
 15 13  2  0  0  0  0
 18 14  1  0  0  0  0
 19 14  1  0  0  0  0
 20 14  1  0  0  0  0
 21  6  1  0  0  0  0
M  RAD  2   2   2   3   2
M  END
