Coordinates from ORCA-job Ph-N2-OTf-B3LYPG-6-31G_dp-MTMO-d009-169-n800
 OpenBabel09051908113D

 21 20  0  0  0  0  0  0  0  0999 V2000
   -2.1194   -2.9210   -4.4399 C   0  0  0  0  0  0  0  0  0  0  0  0
   -0.8978   -2.2492   -4.3771 C   0  0  0  0  0  0  0  0  0  0  0  0
   -0.8794   -0.8781   -4.6107 C   0  0  0  0  0  0  0  0  0  0  0  0
   -2.0339   -0.1593   -4.9035 C   0  0  0  0  0  0  0  0  0  0  0  0
   -3.2474   -0.8451   -4.9663 C   0  0  0  0  0  0  0  0  0  0  0  0
   -3.2919   -2.2218   -4.7348 C   0  0  0  0  0  0  0  0  0  0  0  0
   -2.1525   -3.9904   -4.2557 H   0  0  0  0  0  0  0  0  0  0  0  0
    0.0262   -2.7667   -4.1432 H   0  0  0  0  0  0  0  0  0  0  0  0
   -1.9757    0.9087   -5.0779 H   0  0  0  0  0  0  0  0  0  0  0  0
   -4.1580   -0.3003   -5.1954 H   0  0  0  0  0  0  0  0  0  0  0  0
    8.4076    9.4390  -10.8473 N   0  0  0  0  0  0  0  0  0  0  0  0
    9.3706    9.9357  -11.0649 N   0  0  0  0  0  0  0  0  0  0  0  0
    1.2637    0.1592   -5.7761 S   0  0  0  0  0  0  0  0  0  0  0  0
    1.1972    2.0194   -5.6167 C   0  0  0  0  0  0  0  0  0  0  0  0
    0.3488   -0.1964   -4.4535 O   0  0  0  0  0  0  0  0  0  0  0  0
    2.6279   -0.2411   -5.4863 O   0  0  0  0  0  0  0  0  0  0  0  0
    0.5685   -0.2107   -6.9976 O   0  0  0  0  0  0  0  0  0  0  0  0
   -0.0637    2.4393   -5.7542 F   0  0  0  0  0  0  0  0  0  0  0  0
    1.6640    2.3897   -4.4292 F   0  0  0  0  0  0  0  0  0  0  0  0
    1.9464    2.5453   -6.5834 F   0  0  0  0  0  0  0  0  0  0  0  0
   -4.2398   -2.7491   -4.7837 H   0  0  0  0  0  0  0  0  0  0  0  0
  1  2  1  0  0  0  0
  1  7  1  0  0  0  0
  2  8  1  0  0  0  0
  3 15  1  0  0  0  0
  3  2  2  0  0  0  0
  4  3  1  0  0  0  0
  5  4  2  0  0  0  0
  5  6  1  0  0  0  0
  6  1  2  0  0  0  0
  9  4  1  0  0  0  0
 10  5  1  0  0  0  0
 12 11  3  0  0  0  0
 13 14  1  0  0  0  0
 13 16  2  0  0  0  0
 13 15  1  0  0  0  0
 14 19  1  0  0  0  0
 17 13  2  0  0  0  0
 18 14  1  0  0  0  0
 20 14  1  0  0  0  0
 21  6  1  0  0  0  0
M  END
