Coordinates from ORCA-job Ph-N2-OTf-B3LYPG-6-31G_dp-MTMO-d009-169-n800
 OpenBabel09051908113D

 21 20  0  0  0  0  0  0  0  0999 V2000
   -2.0303   -2.8251   -4.4870 C   0  0  0  0  0  0  0  0  0  0  0  0
   -0.8089   -2.1528   -4.4250 C   0  0  0  0  0  0  0  0  0  0  0  0
   -0.7903   -0.7827   -4.6647 C   0  0  0  0  0  0  0  0  0  0  0  0
   -1.9445   -0.0656   -4.9629 C   0  0  0  0  0  0  0  0  0  0  0  0
   -3.1577   -0.7519   -5.0249 C   0  0  0  0  0  0  0  0  0  0  0  0
   -3.2024   -2.1275   -4.7873 C   0  0  0  0  0  0  0  0  0  0  0  0
   -2.0634   -3.8936   -4.2979 H   0  0  0  0  0  0  0  0  0  0  0  0
    0.1148   -2.6690   -4.1870 H   0  0  0  0  0  0  0  0  0  0  0  0
   -1.8862    1.0017   -5.1420 H   0  0  0  0  0  0  0  0  0  0  0  0
   -4.0679   -0.2084   -5.2582 H   0  0  0  0  0  0  0  0  0  0  0  0
    7.5594    8.5403  -10.3254 N   0  0  0  0  0  0  0  0  0  0  0  0
    8.5179    9.0435  -10.5478 N   0  0  0  0  0  0  0  0  0  0  0  0
    1.3533    0.2524   -5.8312 S   0  0  0  0  0  0  0  0  0  0  0  0
    1.2873    2.1130   -5.6752 C   0  0  0  0  0  0  0  0  0  0  0  0
    0.4376   -0.1003   -4.5084 O   0  0  0  0  0  0  0  0  0  0  0  0
    2.7172   -0.1477   -5.5400 O   0  0  0  0  0  0  0  0  0  0  0  0
    0.6585   -0.1195   -7.0523 O   0  0  0  0  0  0  0  0  0  0  0  0
    0.0265    2.5331   -5.8141 F   0  0  0  0  0  0  0  0  0  0  0  0
    1.7536    2.4853   -4.4882 F   0  0  0  0  0  0  0  0  0  0  0  0
    2.0370    2.6368   -6.6426 F   0  0  0  0  0  0  0  0  0  0  0  0
   -4.1500   -2.6552   -4.8355 H   0  0  0  0  0  0  0  0  0  0  0  0
  1  2  1  0  0  0  0
  1  7  1  0  0  0  0
  2  8  1  0  0  0  0
  3 15  1  0  0  0  0
  3  2  2  0  0  0  0
  4  3  1  0  0  0  0
  5  4  2  0  0  0  0
  5  6  1  0  0  0  0
  6  1  2  0  0  0  0
  9  4  1  0  0  0  0
 10  5  1  0  0  0  0
 12 11  3  0  0  0  0
 13 14  1  0  0  0  0
 13 16  2  0  0  0  0
 13 15  1  0  0  0  0
 14 19  1  0  0  0  0
 17 13  2  0  0  0  0
 18 14  1  0  0  0  0
 20 14  1  0  0  0  0
 21  6  1  0  0  0  0
M  END
