Coordinates from ORCA-job Ph-N2-OTf-B3LYPG-6-31G_dp-MTMO-d009-169-n800
 OpenBabel09051908113D

 21 20  0  0  0  0  0  0  0  0999 V2000
   -2.2107   -3.0175   -4.3895 C   0  0  0  0  0  0  0  0  0  0  0  0
   -0.9885   -2.3467   -4.3270 C   0  0  0  0  0  0  0  0  0  0  0  0
   -0.9696   -0.9748   -4.5559 C   0  0  0  0  0  0  0  0  0  0  0  0
   -2.1243   -0.2543   -4.8436 C   0  0  0  0  0  0  0  0  0  0  0  0
   -3.3384   -0.9389   -4.9061 C   0  0  0  0  0  0  0  0  0  0  0  0
   -3.3834   -2.3164   -4.6793 C   0  0  0  0  0  0  0  0  0  0  0  0
   -2.2441   -4.0874   -4.2089 H   0  0  0  0  0  0  0  0  0  0  0  0
   -0.0643   -2.8657   -4.0969 H   0  0  0  0  0  0  0  0  0  0  0  0
   -2.0657    0.8143   -5.0145 H   0  0  0  0  0  0  0  0  0  0  0  0
   -4.2491   -0.3927   -5.1313 H   0  0  0  0  0  0  0  0  0  0  0  0
    9.2708   10.3492  -11.3714 N   0  0  0  0  0  0  0  0  0  0  0  0
   10.2322   10.8496  -11.5880 N   0  0  0  0  0  0  0  0  0  0  0  0
    1.1729    0.0626   -5.7222 S   0  0  0  0  0  0  0  0  0  0  0  0
    1.1069    1.9227   -5.5608 C   0  0  0  0  0  0  0  0  0  0  0  0
    0.2593   -0.2943   -4.3991 O   0  0  0  0  0  0  0  0  0  0  0  0
    2.5373   -0.3381   -5.4342 O   0  0  0  0  0  0  0  0  0  0  0  0
    0.4763   -0.3059   -6.9433 O   0  0  0  0  0  0  0  0  0  0  0  0
   -0.1541    2.3430   -5.6967 F   0  0  0  0  0  0  0  0  0  0  0  0
    1.5748    2.2916   -4.3733 F   0  0  0  0  0  0  0  0  0  0  0  0
    1.8553    2.4495   -6.5276 F   0  0  0  0  0  0  0  0  0  0  0  0
   -4.3317   -2.8429   -4.7279 H   0  0  0  0  0  0  0  0  0  0  0  0
  1  2  1  0  0  0  0
  1  7  1  0  0  0  0
  2  8  1  0  0  0  0
  3 15  1  0  0  0  0
  3  2  2  0  0  0  0
  4  3  1  0  0  0  0
  5  4  2  0  0  0  0
  5  6  1  0  0  0  0
  6  1  2  0  0  0  0
  9  4  1  0  0  0  0
 10  5  1  0  0  0  0
 12 11  3  0  0  0  0
 13 14  1  0  0  0  0
 13 16  2  0  0  0  0
 13 15  1  0  0  0  0
 14 19  1  0  0  0  0
 17 13  2  0  0  0  0
 18 14  1  0  0  0  0
 20 14  1  0  0  0  0
 21  6  1  0  0  0  0
M  END
