Coordinates from ORCA-job Ph-N2-OTf-B3LYPG-6-31G_dp-MTMO-d009-169-n800
 OpenBabel09051908113D

 21 20  0  0  0  0  0  0  0  0999 V2000
   -1.9961   -2.7867   -4.5019 C   0  0  0  0  0  0  0  0  0  0  0  0
   -0.7747   -2.1143   -4.4415 C   0  0  0  0  0  0  0  0  0  0  0  0
   -0.7558   -0.7451   -4.6860 C   0  0  0  0  0  0  0  0  0  0  0  0
   -1.9097   -0.0288   -4.9873 C   0  0  0  0  0  0  0  0  0  0  0  0
   -3.1229   -0.7152   -5.0477 C   0  0  0  0  0  0  0  0  0  0  0  0
   -3.1680   -2.0900   -4.8053 C   0  0  0  0  0  0  0  0  0  0  0  0
   -2.0295   -3.8545   -4.3091 H   0  0  0  0  0  0  0  0  0  0  0  0
    0.1488   -2.6298   -4.2012 H   0  0  0  0  0  0  0  0  0  0  0  0
   -1.8512    1.0377   -5.1701 H   0  0  0  0  0  0  0  0  0  0  0  0
   -4.0329   -0.1724   -5.2835 H   0  0  0  0  0  0  0  0  0  0  0  0
    7.2311    8.1881  -10.1147 N   0  0  0  0  0  0  0  0  0  0  0  0
    8.1814    8.7037  -10.3445 N   0  0  0  0  0  0  0  0  0  0  0  0
    1.3878    0.2870   -5.8551 S   0  0  0  0  0  0  0  0  0  0  0  0
    1.3242    2.1478   -5.7014 C   0  0  0  0  0  0  0  0  0  0  0  0
    0.4721   -0.0623   -4.5313 O   0  0  0  0  0  0  0  0  0  0  0  0
    2.7513   -0.1148   -5.5644 O   0  0  0  0  0  0  0  0  0  0  0  0
    0.6919   -0.0856   -7.0753 O   0  0  0  0  0  0  0  0  0  0  0  0
    0.0639    2.5692   -5.8400 F   0  0  0  0  0  0  0  0  0  0  0  0
    1.7916    2.5211   -4.5151 F   0  0  0  0  0  0  0  0  0  0  0  0
    2.0740    2.6694   -6.6698 F   0  0  0  0  0  0  0  0  0  0  0  0
   -4.1157   -2.6177   -4.8523 H   0  0  0  0  0  0  0  0  0  0  0  0
  1  2  1  0  0  0  0
  1  7  1  0  0  0  0
  2  8  1  0  0  0  0
  3 15  1  0  0  0  0
  3  2  2  0  0  0  0
  4  3  1  0  0  0  0
  5  4  2  0  0  0  0
  5  6  1  0  0  0  0
  6  1  2  0  0  0  0
  9  4  1  0  0  0  0
 10  5  1  0  0  0  0
 12 11  3  0  0  0  0
 13 14  1  0  0  0  0
 13 16  2  0  0  0  0
 13 15  1  0  0  0  0
 14 19  1  0  0  0  0
 17 13  2  0  0  0  0
 18 14  1  0  0  0  0
 20 14  1  0  0  0  0
 21  6  1  0  0  0  0
M  END
