Coordinates from ORCA-job Ph-N2-OTf-B3LYPG-6-31G_dp-MTMO-d009-169-n800
 OpenBabel09051908113D

 21 20  0  0  0  0  0  0  0  0999 V2000
   -1.8599   -1.5978   -4.8236 C   0  0  0  0  0  0  0  0  0  0  0  0
   -0.5696   -1.1286   -4.5725 C   0  0  0  0  0  0  0  0  0  0  0  0
   -0.2178    0.1298   -5.0521 C   0  0  0  0  0  0  0  0  0  0  0  0
   -1.1099    0.9330   -5.7564 C   0  0  0  0  0  0  0  0  0  0  0  0
   -2.3991    0.4530   -5.9896 C   0  0  0  0  0  0  0  0  0  0  0  0
   -2.7736   -0.8111   -5.5283 C   0  0  0  0  0  0  0  0  0  0  0  0
   -2.1496   -2.5791   -4.4619 H   0  0  0  0  0  0  0  0  0  0  0  0
    0.1513   -1.7233   -4.0241 H   0  0  0  0  0  0  0  0  0  0  0  0
   -0.7936    1.9110   -6.1001 H   0  0  0  0  0  0  0  0  0  0  0  0
   -3.1093    1.0691   -6.5326 H   0  0  0  0  0  0  0  0  0  0  0  0
    0.5865    4.3859   -5.5866 N   0  0  0  0  0  0  0  0  0  0  0  0
    0.9910    5.2141   -4.9770 N   0  0  0  0  0  0  0  0  0  0  0  0
    2.4216    0.0612   -5.3978 S   0  0  0  0  0  0  0  0  0  0  0  0
    2.5283    1.1003   -6.9483 C   0  0  0  0  0  0  0  0  0  0  0  0
    1.0478    0.6818   -4.7468 O   0  0  0  0  0  0  0  0  0  0  0  0
    3.4949    0.4855   -4.5212 O   0  0  0  0  0  0  0  0  0  0  0  0
    2.2265   -1.3168   -5.8164 O   0  0  0  0  0  0  0  0  0  0  0  0
    1.4430    0.8997   -7.6973 F   0  0  0  0  0  0  0  0  0  0  0  0
    2.6156    2.3881   -6.6238 F   0  0  0  0  0  0  0  0  0  0  0  0
    3.6141    0.7325   -7.6251 F   0  0  0  0  0  0  0  0  0  0  0  0
   -3.7766   -1.1813   -5.7160 H   0  0  0  0  0  0  0  0  0  0  0  0
  1  2  1  0  0  0  0
  1  7  1  0  0  0  0
  2  8  1  0  0  0  0
  3 15  1  0  0  0  0
  3  2  2  0  0  0  0
  4  3  1  0  0  0  0
  5  4  2  0  0  0  0
  5  6  1  0  0  0  0
  6  1  2  0  0  0  0
  9  4  1  0  0  0  0
 10  5  1  0  0  0  0
 11 12  3  0  0  0  0
 13 15  1  0  0  0  0
 13 16  2  0  0  0  0
 14 19  1  0  0  0  0
 14 13  1  0  0  0  0
 17 13  2  0  0  0  0
 18 14  1  0  0  0  0
 20 14  1  0  0  0  0
 21  6  1  0  0  0  0
M  END
