Coordinates from ORCA-job Ph-N2-OTf-B3LYPG-6-31G_dp-MTMO-d009-169-n800
 OpenBabel09051908113D

 21 20  0  0  0  0  0  0  0  0999 V2000
   -2.0526   -2.8501   -4.4755 C   0  0  0  0  0  0  0  0  0  0  0  0
   -0.8314   -2.1774   -4.4130 C   0  0  0  0  0  0  0  0  0  0  0  0
   -0.8134   -0.8070   -4.6509 C   0  0  0  0  0  0  0  0  0  0  0  0
   -1.9679   -0.0898   -4.9478 C   0  0  0  0  0  0  0  0  0  0  0  0
   -3.1809   -0.7764   -5.0103 C   0  0  0  0  0  0  0  0  0  0  0  0
   -3.2250   -2.1524   -4.7744 C   0  0  0  0  0  0  0  0  0  0  0  0
   -2.0853   -3.9188   -4.2879 H   0  0  0  0  0  0  0  0  0  0  0  0
    0.0925   -2.6936   -4.1760 H   0  0  0  0  0  0  0  0  0  0  0  0
   -1.9100    0.9776   -5.1255 H   0  0  0  0  0  0  0  0  0  0  0  0
   -4.0914   -0.2329   -5.2425 H   0  0  0  0  0  0  0  0  0  0  0  0
    7.7767    8.7709  -10.4606 N   0  0  0  0  0  0  0  0  0  0  0  0
    8.7378    9.2700  -10.6812 N   0  0  0  0  0  0  0  0  0  0  0  0
    1.3299    0.2293   -5.8168 S   0  0  0  0  0  0  0  0  0  0  0  0
    1.2642    2.0897   -5.6589 C   0  0  0  0  0  0  0  0  0  0  0  0
    0.4143   -0.1241   -4.4942 O   0  0  0  0  0  0  0  0  0  0  0  0
    2.6937   -0.1717   -5.5267 O   0  0  0  0  0  0  0  0  0  0  0  0
    0.6347   -0.1412   -7.0381 O   0  0  0  0  0  0  0  0  0  0  0  0
    0.0035    2.5100   -5.7967 F   0  0  0  0  0  0  0  0  0  0  0  0
    1.7311    2.4608   -4.4716 F   0  0  0  0  0  0  0  0  0  0  0  0
    2.0136    2.6144   -6.6260 F   0  0  0  0  0  0  0  0  0  0  0  0
   -4.1726   -2.6804   -4.8231 H   0  0  0  0  0  0  0  0  0  0  0  0
  1  2  1  0  0  0  0
  1  7  1  0  0  0  0
  2  8  1  0  0  0  0
  3 15  1  0  0  0  0
  3  2  2  0  0  0  0
  4  3  1  0  0  0  0
  5  4  2  0  0  0  0
  5  6  1  0  0  0  0
  6  1  2  0  0  0  0
  9  4  1  0  0  0  0
 10  5  1  0  0  0  0
 12 11  3  0  0  0  0
 13 14  1  0  0  0  0
 13 16  2  0  0  0  0
 13 15  1  0  0  0  0
 14 19  1  0  0  0  0
 17 13  2  0  0  0  0
 18 14  1  0  0  0  0
 20 14  1  0  0  0  0
 21  6  1  0  0  0  0
M  END
