Coordinates from ORCA-job Ph-N2-OTf-B3LYPG-6-31G_dp-MTMO-d009-169-n800
 OpenBabel09051908113D

 21 20  0  0  0  0  0  0  0  0999 V2000
   -1.8537   -1.4440   -4.6816 C   0  0  0  0  0  0  0  0  0  0  0  0
   -0.5735   -0.9285   -4.4759 C   0  0  0  0  0  0  0  0  0  0  0  0
   -0.2200    0.2499   -5.1267 C   0  0  0  0  0  0  0  0  0  0  0  0
   -1.1025    0.9302   -5.9608 C   0  0  0  0  0  0  0  0  0  0  0  0
   -2.3823    0.4065   -6.1480 C   0  0  0  0  0  0  0  0  0  0  0  0
   -2.7575   -0.7796   -5.5137 C   0  0  0  0  0  0  0  0  0  0  0  0
   -2.1433   -2.3658   -4.1872 H   0  0  0  0  0  0  0  0  0  0  0  0
    0.1397   -1.4275   -3.8304 H   0  0  0  0  0  0  0  0  0  0  0  0
   -0.7880    1.8505   -6.4382 H   0  0  0  0  0  0  0  0  0  0  0  0
   -3.0842    0.9277   -6.7917 H   0  0  0  0  0  0  0  0  0  0  0  0
    0.6027    4.0039   -5.1926 N   0  0  0  0  0  0  0  0  0  0  0  0
    0.8620    4.5343   -4.2584 N   0  0  0  0  0  0  0  0  0  0  0  0
    2.4201    0.1730   -5.4549 S   0  0  0  0  0  0  0  0  0  0  0  0
    2.5369    1.0645   -7.0943 C   0  0  0  0  0  0  0  0  0  0  0  0
    1.0369    0.8454   -4.8755 O   0  0  0  0  0  0  0  0  0  0  0  0
    3.4840    0.6835   -4.6134 O   0  0  0  0  0  0  0  0  0  0  0  0
    2.2326   -1.2389   -5.7430 O   0  0  0  0  0  0  0  0  0  0  0  0
    1.4697    0.7726   -7.8402 F   0  0  0  0  0  0  0  0  0  0  0  0
    2.5934    2.3782   -6.8908 F   0  0  0  0  0  0  0  0  0  0  0  0
    3.6417    0.6559   -7.7140 F   0  0  0  0  0  0  0  0  0  0  0  0
   -3.7530   -1.1847   -5.6663 H   0  0  0  0  0  0  0  0  0  0  0  0
  1  2  1  0  0  0  0
  1  7  1  0  0  0  0
  2  8  1  0  0  0  0
  3 15  1  0  0  0  0
  3  2  2  0  0  0  0
  4  3  1  0  0  0  0
  5  4  2  0  0  0  0
  5  6  1  0  0  0  0
  6  1  2  0  0  0  0
  9  4  1  0  0  0  0
 10  5  1  0  0  0  0
 11 12  3  0  0  0  0
 13 15  1  0  0  0  0
 13 16  2  0  0  0  0
 14 19  1  0  0  0  0
 14 13  1  0  0  0  0
 17 13  2  0  0  0  0
 18 14  1  0  0  0  0
 20 14  1  0  0  0  0
 21  6  1  0  0  0  0
M  END
