Coordinates from ORCA-job Ph-N2-OTf-B3LYPG-6-31G_dp-MTMO-d009-169-n800
 OpenBabel09051908113D

 21 20  0  0  0  0  0  0  0  0999 V2000
   -2.0879   -2.8875   -4.4571 C   0  0  0  0  0  0  0  0  0  0  0  0
   -0.8664   -2.2155   -4.3943 C   0  0  0  0  0  0  0  0  0  0  0  0
   -0.8480   -0.8446   -4.6296 C   0  0  0  0  0  0  0  0  0  0  0  0
   -2.0025   -0.1264   -4.9242 C   0  0  0  0  0  0  0  0  0  0  0  0
   -3.2158   -0.8125   -4.9871 C   0  0  0  0  0  0  0  0  0  0  0  0
   -3.2603   -2.1888   -4.7538 C   0  0  0  0  0  0  0  0  0  0  0  0
   -2.1210   -3.9566   -4.2715 H   0  0  0  0  0  0  0  0  0  0  0  0
    0.0575   -2.7325   -4.1590 H   0  0  0  0  0  0  0  0  0  0  0  0
   -1.9443    0.9414   -5.1000 H   0  0  0  0  0  0  0  0  0  0  0  0
   -4.1263   -0.2681   -5.2176 H   0  0  0  0  0  0  0  0  0  0  0  0
    8.1087    9.1234  -10.6649 N   0  0  0  0  0  0  0  0  0  0  0  0
    9.0715    9.6202  -10.8835 N   0  0  0  0  0  0  0  0  0  0  0  0
    1.2953    0.1924   -5.7950 S   0  0  0  0  0  0  0  0  0  0  0  0
    1.2286    2.0527   -5.6365 C   0  0  0  0  0  0  0  0  0  0  0  0
    0.3800   -0.1626   -4.4725 O   0  0  0  0  0  0  0  0  0  0  0  0
    2.6594   -0.2076   -5.5047 O   0  0  0  0  0  0  0  0  0  0  0  0
    0.6003   -0.1782   -7.0165 O   0  0  0  0  0  0  0  0  0  0  0  0
   -0.0323    2.4725   -5.7745 F   0  0  0  0  0  0  0  0  0  0  0  0
    1.6951    2.4235   -4.4491 F   0  0  0  0  0  0  0  0  0  0  0  0
    1.9780    2.5781   -6.6033 F   0  0  0  0  0  0  0  0  0  0  0  0
   -4.2081   -2.7163   -4.8027 H   0  0  0  0  0  0  0  0  0  0  0  0
  1  2  1  0  0  0  0
  1  7  1  0  0  0  0
  2  8  1  0  0  0  0
  3 15  1  0  0  0  0
  3  2  2  0  0  0  0
  4  3  1  0  0  0  0
  5  4  2  0  0  0  0
  5  6  1  0  0  0  0
  6  1  2  0  0  0  0
  9  4  1  0  0  0  0
 10  5  1  0  0  0  0
 12 11  3  0  0  0  0
 13 14  1  0  0  0  0
 13 16  2  0  0  0  0
 13 15  1  0  0  0  0
 14 19  1  0  0  0  0
 17 13  2  0  0  0  0
 18 14  1  0  0  0  0
 20 14  1  0  0  0  0
 21  6  1  0  0  0  0
M  END
