Coordinates from ORCA-job Ph-N2-OTf-B3LYPG-6-31G_dp-MTMO-d009-169-n800
 OpenBabel09051908113D

 21 20  0  0  0  0  0  0  0  0999 V2000
   -1.8952   -2.6457   -4.5550 C   0  0  0  0  0  0  0  0  0  0  0  0
   -0.6690   -1.9820   -4.4936 C   0  0  0  0  0  0  0  0  0  0  0  0
   -0.6370   -0.6167   -4.7580 C   0  0  0  0  0  0  0  0  0  0  0  0
   -1.7825    0.1040   -5.0802 C   0  0  0  0  0  0  0  0  0  0  0  0
   -3.0005   -0.5738   -5.1416 C   0  0  0  0  0  0  0  0  0  0  0  0
   -3.0587   -1.9444   -4.8793 C   0  0  0  0  0  0  0  0  0  0  0  0
   -1.9388   -3.7102   -4.3467 H   0  0  0  0  0  0  0  0  0  0  0  0
    0.2482   -2.5010   -4.2374 H   0  0  0  0  0  0  0  0  0  0  0  0
   -1.7142    1.1672   -5.2781 H   0  0  0  0  0  0  0  0  0  0  0  0
   -3.9040   -0.0275   -5.3936 H   0  0  0  0  0  0  0  0  0  0  0  0
    6.0781    6.9953   -9.3299 N   0  0  0  0  0  0  0  0  0  0  0  0
    6.9491    7.5541   -9.7182 N   0  0  0  0  0  0  0  0  0  0  0  0
    1.5215    0.3881   -5.9234 S   0  0  0  0  0  0  0  0  0  0  0  0
    1.4755    2.2505   -5.7839 C   0  0  0  0  0  0  0  0  0  0  0  0
    0.5952    0.0579   -4.6023 O   0  0  0  0  0  0  0  0  0  0  0  0
    2.8794   -0.0249   -5.6222 O   0  0  0  0  0  0  0  0  0  0  0  0
    0.8286    0.0131   -7.1447 O   0  0  0  0  0  0  0  0  0  0  0  0
    0.2201    2.6833   -5.9323 F   0  0  0  0  0  0  0  0  0  0  0  0
    1.9403    2.6279   -4.5979 F   0  0  0  0  0  0  0  0  0  0  0  0
    2.2355    2.7573   -6.7522 F   0  0  0  0  0  0  0  0  0  0  0  0
   -4.0101   -2.4654   -4.9271 H   0  0  0  0  0  0  0  0  0  0  0  0
  1  2  1  0  0  0  0
  1  7  1  0  0  0  0
  2  8  1  0  0  0  0
  3 15  1  0  0  0  0
  3  2  2  0  0  0  0
  4  3  1  0  0  0  0
  5  4  2  0  0  0  0
  5  6  1  0  0  0  0
  6  1  2  0  0  0  0
  9  4  1  0  0  0  0
 10  5  1  0  0  0  0
 12 11  3  0  0  0  0
 13 14  1  0  0  0  0
 13 16  2  0  0  0  0
 13 15  1  0  0  0  0
 14 19  1  0  0  0  0
 17 13  2  0  0  0  0
 18 14  1  0  0  0  0
 20 14  1  0  0  0  0
 21  6  1  0  0  0  0
M  END
