Coordinates from ORCA-job Ph-N2-OTf-B3LYPG-6-31G_dp-MTMO-d009-169-n800
 OpenBabel09051908113D

 21 20  0  0  0  0  0  0  0  0999 V2000
   -1.4996   -0.8577   -5.9882 C   0  0  0  0  0  0  0  0  0  0  0  0
   -0.5856   -0.0445   -5.3161 C   0  0  0  0  0  0  0  0  0  0  0  0
   -1.0932    1.1660   -4.8699 C   0  0  0  0  0  0  0  0  0  0  0  0
   -2.3885    1.6375   -5.0168 C   0  0  0  0  0  0  0  0  0  0  0  0
   -3.2675    0.7948   -5.6960 C   0  0  0  0  0  0  0  0  0  0  0  0
   -2.8218   -0.4421   -6.1760 C   0  0  0  0  0  0  0  0  0  0  0  0
   -1.1636   -1.8147   -6.3719 H   0  0  0  0  0  0  0  0  0  0  0  0
    0.4497   -0.3135   -5.1502 H   0  0  0  0  0  0  0  0  0  0  0  0
   -2.6883    2.6044   -4.6324 H   0  0  0  0  0  0  0  0  0  0  0  0
   -4.2948    1.1059   -5.8510 H   0  0  0  0  0  0  0  0  0  0  0  0
   -0.0913    2.0969   -4.1179 N   0  0  0  0  0  0  0  0  0  0  0  0
    0.9333    2.3767   -3.7506 N   0  0  0  0  0  0  0  0  0  0  0  0
    2.8790    1.2403   -5.7059 S   0  0  0  0  0  0  0  0  0  0  0  0
    3.2393   -0.4075   -6.4989 C   0  0  0  0  0  0  0  0  0  0  0  0
    1.7972    1.8228   -6.5269 O   0  0  0  0  0  0  0  0  0  0  0  0
    4.1694    1.9287   -5.6671 O   0  0  0  0  0  0  0  0  0  0  0  0
    2.3524    0.7856   -4.3505 O   0  0  0  0  0  0  0  0  0  0  0  0
    2.1204   -1.1726   -6.5291 F   0  0  0  0  0  0  0  0  0  0  0  0
    3.6535   -0.2370   -7.7577 F   0  0  0  0  0  0  0  0  0  0  0  0
    4.1763   -1.0739   -5.8196 F   0  0  0  0  0  0  0  0  0  0  0  0
   -3.5145   -1.0891   -6.7048 H   0  0  0  0  0  0  0  0  0  0  0  0
  1  2  1  0  0  0  0
  2  8  1  0  0  0  0
  2  3  2  0  0  0  0
  3 11  1  0  0  0  0
  4  3  1  0  0  0  0
  4  9  1  0  0  0  0
  5  4  2  0  0  0  0
  6  1  2  0  0  0  0
  6  5  1  0  0  0  0
  7  1  1  0  0  0  0
 10  5  1  0  0  0  0
 11 12  2  0  0  0  0
 13 16  2  0  0  0  0
 13 17  1  0  0  0  0
 14 20  1  0  0  0  0
 14 13  1  0  0  0  0
 15 13  2  0  0  0  0
 18 14  1  0  0  0  0
 19 14  1  0  0  0  0
 21  6  1  0  0  0  0
M  RAD  2  12   2  17   2
M  END
