Coordinates from ORCA-job Ph-N2-OTf-B3LYPG-6-31G_dp-MTMO-d009-169-n800
 OpenBabel09051908113D

 21 20  0  0  0  0  0  0  0  0999 V2000
   -2.1325   -2.9353   -4.4325 C   0  0  0  0  0  0  0  0  0  0  0  0
   -0.9109   -2.2633   -4.3697 C   0  0  0  0  0  0  0  0  0  0  0  0
   -0.8928   -0.8921   -4.6027 C   0  0  0  0  0  0  0  0  0  0  0  0
   -2.0475   -0.1734   -4.8950 C   0  0  0  0  0  0  0  0  0  0  0  0
   -3.2609   -0.8594   -4.9579 C   0  0  0  0  0  0  0  0  0  0  0  0
   -3.3052   -2.2361   -4.7269 C   0  0  0  0  0  0  0  0  0  0  0  0
   -2.1653   -4.0047   -4.2487 H   0  0  0  0  0  0  0  0  0  0  0  0
    0.0132   -2.7808   -4.1361 H   0  0  0  0  0  0  0  0  0  0  0  0
   -1.9895    0.8946   -5.0690 H   0  0  0  0  0  0  0  0  0  0  0  0
   -4.1716   -0.3146   -5.1866 H   0  0  0  0  0  0  0  0  0  0  0  0
    8.5343    9.5723  -10.9244 N   0  0  0  0  0  0  0  0  0  0  0  0
    9.4973   10.0691  -11.1421 N   0  0  0  0  0  0  0  0  0  0  0  0
    1.2500    0.1454   -5.7683 S   0  0  0  0  0  0  0  0  0  0  0  0
    1.1843    2.0055   -5.6078 C   0  0  0  0  0  0  0  0  0  0  0  0
    0.3353   -0.2101   -4.4456 O   0  0  0  0  0  0  0  0  0  0  0  0
    2.6141   -0.2558   -5.4795 O   0  0  0  0  0  0  0  0  0  0  0  0
    0.5541   -0.2235   -6.9897 O   0  0  0  0  0  0  0  0  0  0  0  0
   -0.0766    2.4260   -5.7443 F   0  0  0  0  0  0  0  0  0  0  0  0
    1.6518    2.3750   -4.4203 F   0  0  0  0  0  0  0  0  0  0  0  0
    1.9331    2.5317   -6.5746 F   0  0  0  0  0  0  0  0  0  0  0  0
   -4.2530   -2.7636   -4.7758 H   0  0  0  0  0  0  0  0  0  0  0  0
  1  2  1  0  0  0  0
  1  7  1  0  0  0  0
  2  8  1  0  0  0  0
  3 15  1  0  0  0  0
  3  2  2  0  0  0  0
  4  3  1  0  0  0  0
  5  4  2  0  0  0  0
  5  6  1  0  0  0  0
  6  1  2  0  0  0  0
  9  4  1  0  0  0  0
 10  5  1  0  0  0  0
 12 11  3  0  0  0  0
 13 14  1  0  0  0  0
 13 16  2  0  0  0  0
 13 15  1  0  0  0  0
 14 19  1  0  0  0  0
 17 13  2  0  0  0  0
 18 14  1  0  0  0  0
 20 14  1  0  0  0  0
 21  6  1  0  0  0  0
M  END
