Coordinates from ORCA-job Ph-N2-OTf-B3LYPG-6-31G_dp-MTMO-d009-169-n800
 OpenBabel09051908113D

 21 20  0  0  0  0  0  0  0  0999 V2000
   -1.8498   -1.5363   -4.7687 C   0  0  0  0  0  0  0  0  0  0  0  0
   -0.5709   -1.0296   -4.5332 C   0  0  0  0  0  0  0  0  0  0  0  0
   -0.2313    0.1977   -5.0949 C   0  0  0  0  0  0  0  0  0  0  0  0
   -1.1252    0.9351   -5.8657 C   0  0  0  0  0  0  0  0  0  0  0  0
   -2.4032    0.4189   -6.0827 C   0  0  0  0  0  0  0  0  0  0  0  0
   -2.7649   -0.8158   -5.5394 C   0  0  0  0  0  0  0  0  0  0  0  0
   -2.1297   -2.4950   -4.3441 H   0  0  0  0  0  0  0  0  0  0  0  0
    0.1508   -1.5724   -3.9345 H   0  0  0  0  0  0  0  0  0  0  0  0
   -0.8194    1.8925   -6.2709 H   0  0  0  0  0  0  0  0  0  0  0  0
   -3.1144    0.9838   -6.6775 H   0  0  0  0  0  0  0  0  0  0  0  0
    0.6706    4.2358   -5.3246 N   0  0  0  0  0  0  0  0  0  0  0  0
    1.0599    4.9104   -4.5407 N   0  0  0  0  0  0  0  0  0  0  0  0
    2.4133    0.1514   -5.4053 S   0  0  0  0  0  0  0  0  0  0  0  0
    2.5032    1.0543   -7.0401 C   0  0  0  0  0  0  0  0  0  0  0  0
    1.0212    0.7898   -4.8123 O   0  0  0  0  0  0  0  0  0  0  0  0
    3.4699    0.6777   -4.5645 O   0  0  0  0  0  0  0  0  0  0  0  0
    2.2555   -1.2621   -5.7038 O   0  0  0  0  0  0  0  0  0  0  0  0
    1.4358    0.7486   -7.7797 F   0  0  0  0  0  0  0  0  0  0  0  0
    2.5387    2.3679   -6.8296 F   0  0  0  0  0  0  0  0  0  0  0  0
    3.6105    0.6690   -7.6702 F   0  0  0  0  0  0  0  0  0  0  0  0
   -3.7591   -1.2148   -5.7148 H   0  0  0  0  0  0  0  0  0  0  0  0
  1  2  1  0  0  0  0
  1  7  1  0  0  0  0
  2  8  1  0  0  0  0
  3 15  1  0  0  0  0
  3  2  2  0  0  0  0
  4  3  1  0  0  0  0
  5  4  2  0  0  0  0
  5  6  1  0  0  0  0
  6  1  2  0  0  0  0
  9  4  1  0  0  0  0
 10  5  1  0  0  0  0
 11 12  3  0  0  0  0
 13 15  1  0  0  0  0
 13 16  2  0  0  0  0
 14 19  1  0  0  0  0
 14 13  1  0  0  0  0
 17 13  2  0  0  0  0
 18 14  1  0  0  0  0
 20 14  1  0  0  0  0
 21  6  1  0  0  0  0
M  END
