Coordinates from ORCA-job Ph-N2-OTf-B3LYPG-6-31G_dp-MTMO-d009-169-n800
 OpenBabel09051908113D

 21 20  0  0  0  0  0  0  0  0999 V2000
   -1.7898   -2.4897   -4.5883 C   0  0  0  0  0  0  0  0  0  0  0  0
   -0.5577   -1.8362   -4.5379 C   0  0  0  0  0  0  0  0  0  0  0  0
   -0.5117   -0.4782   -4.8358 C   0  0  0  0  0  0  0  0  0  0  0  0
   -1.6488    0.2450   -5.1809 C   0  0  0  0  0  0  0  0  0  0  0  0
   -2.8729   -0.4226   -5.2309 C   0  0  0  0  0  0  0  0  0  0  0  0
   -2.9452   -1.7857   -4.9350 C   0  0  0  0  0  0  0  0  0  0  0  0
   -1.8444   -3.5482   -4.3541 H   0  0  0  0  0  0  0  0  0  0  0  0
    0.3535   -2.3572   -4.2650 H   0  0  0  0  0  0  0  0  0  0  0  0
   -1.5696    1.3023   -5.4047 H   0  0  0  0  0  0  0  0  0  0  0  0
   -3.7702    0.1257   -5.5004 H   0  0  0  0  0  0  0  0  0  0  0  0
    4.8532    5.7735   -8.4850 N   0  0  0  0  0  0  0  0  0  0  0  0
    5.6576    6.3647   -8.9594 N   0  0  0  0  0  0  0  0  0  0  0  0
    1.6595    0.4801   -6.0172 S   0  0  0  0  0  0  0  0  0  0  0  0
    1.6405    2.3453   -5.9112 C   0  0  0  0  0  0  0  0  0  0  0  0
    0.7263    0.1884   -4.6916 O   0  0  0  0  0  0  0  0  0  0  0  0
    3.0108    0.0522   -5.7068 O   0  0  0  0  0  0  0  0  0  0  0  0
    0.9627    0.0930   -7.2325 O   0  0  0  0  0  0  0  0  0  0  0  0
    0.3914    2.7928   -6.0689 F   0  0  0  0  0  0  0  0  0  0  0  0
    2.1089    2.7365   -4.7309 F   0  0  0  0  0  0  0  0  0  0  0  0
    2.4089    2.8239   -6.8867 F   0  0  0  0  0  0  0  0  0  0  0  0
   -3.9014   -2.2988   -4.9742 H   0  0  0  0  0  0  0  0  0  0  0  0
  1  2  1  0  0  0  0
  1  7  1  0  0  0  0
  2  8  1  0  0  0  0
  3 15  1  0  0  0  0
  3  2  2  0  0  0  0
  4  3  1  0  0  0  0
  5  4  2  0  0  0  0
  5  6  1  0  0  0  0
  6  1  2  0  0  0  0
  9  4  1  0  0  0  0
 10  5  1  0  0  0  0
 12 11  3  0  0  0  0
 13 14  1  0  0  0  0
 13 16  2  0  0  0  0
 13 15  1  0  0  0  0
 14 19  1  0  0  0  0
 17 13  2  0  0  0  0
 18 14  1  0  0  0  0
 20 14  1  0  0  0  0
 21  6  1  0  0  0  0
M  END
