Coordinates from ORCA-job Ph-N2-OTf-B3LYPG-6-31G_dp-MTMO-d009-169-n800
 OpenBabel09051908113D

 21 20  0  0  0  0  0  0  0  0999 V2000
   -1.8684   -1.6174   -4.8546 C   0  0  0  0  0  0  0  0  0  0  0  0
   -0.5685   -1.1807   -4.5950 C   0  0  0  0  0  0  0  0  0  0  0  0
   -0.1992    0.0913   -5.0229 C   0  0  0  0  0  0  0  0  0  0  0  0
   -1.0829    0.9384   -5.6853 C   0  0  0  0  0  0  0  0  0  0  0  0
   -2.3819    0.4900   -5.9277 C   0  0  0  0  0  0  0  0  0  0  0  0
   -2.7743   -0.7861   -5.5172 C   0  0  0  0  0  0  0  0  0  0  0  0
   -2.1720   -2.6081   -4.5321 H   0  0  0  0  0  0  0  0  0  0  0  0
    0.1466   -1.8100   -4.0786 H   0  0  0  0  0  0  0  0  0  0  0  0
   -0.7534    1.9246   -5.9907 H   0  0  0  0  0  0  0  0  0  0  0  0
   -3.0856    1.1405   -6.4380 H   0  0  0  0  0  0  0  0  0  0  0  0
    0.4967    4.4176   -5.7655 N   0  0  0  0  0  0  0  0  0  0  0  0
    0.8659    5.3231   -5.2510 N   0  0  0  0  0  0  0  0  0  0  0  0
    2.4342   -0.0004   -5.4029 S   0  0  0  0  0  0  0  0  0  0  0  0
    2.5470    1.1296   -6.8880 C   0  0  0  0  0  0  0  0  0  0  0  0
    1.0779    0.6073   -4.7036 O   0  0  0  0  0  0  0  0  0  0  0  0
    3.5236    0.3503   -4.5136 O   0  0  0  0  0  0  0  0  0  0  0  0
    2.2079   -1.3468   -5.9008 O   0  0  0  0  0  0  0  0  0  0  0  0
    1.4609    0.9812   -7.6474 F   0  0  0  0  0  0  0  0  0  0  0  0
    2.6407    2.3947   -6.4845 F   0  0  0  0  0  0  0  0  0  0  0  0
    3.6311    0.7990   -7.5863 F   0  0  0  0  0  0  0  0  0  0  0  0
   -3.7848   -1.1314   -5.7118 H   0  0  0  0  0  0  0  0  0  0  0  0
  1  2  1  0  0  0  0
  1  7  1  0  0  0  0
  2  8  1  0  0  0  0
  3 15  1  0  0  0  0
  3  2  2  0  0  0  0
  4  3  1  0  0  0  0
  5  4  2  0  0  0  0
  5  6  1  0  0  0  0
  6  1  2  0  0  0  0
  9  4  1  0  0  0  0
 10  5  1  0  0  0  0
 11 12  3  0  0  0  0
 13 15  1  0  0  0  0
 13 16  2  0  0  0  0
 14 19  1  0  0  0  0
 14 13  1  0  0  0  0
 17 13  2  0  0  0  0
 18 14  1  0  0  0  0
 20 14  1  0  0  0  0
 21  6  1  0  0  0  0
M  END
