Coordinates from ORCA-job Ph-N2-OTf-B3LYPG-6-31G_dp-MTMO-d009-169-n800
 OpenBabel09051908113D

 21 20  0  0  0  0  0  0  0  0999 V2000
   -2.0939   -2.8940   -4.4538 C   0  0  0  0  0  0  0  0  0  0  0  0
   -0.8724   -2.2219   -4.3910 C   0  0  0  0  0  0  0  0  0  0  0  0
   -0.8541   -0.8510   -4.6260 C   0  0  0  0  0  0  0  0  0  0  0  0
   -2.0086   -0.1328   -4.9202 C   0  0  0  0  0  0  0  0  0  0  0  0
   -3.2219   -0.8188   -4.9831 C   0  0  0  0  0  0  0  0  0  0  0  0
   -3.2664   -2.1952   -4.7501 C   0  0  0  0  0  0  0  0  0  0  0  0
   -2.1269   -3.9631   -4.2685 H   0  0  0  0  0  0  0  0  0  0  0  0
    0.0515   -2.7390   -4.1561 H   0  0  0  0  0  0  0  0  0  0  0  0
   -1.9505    0.9351   -5.0957 H   0  0  0  0  0  0  0  0  0  0  0  0
   -4.1324   -0.2744   -5.2133 H   0  0  0  0  0  0  0  0  0  0  0  0
    8.1662    9.1841  -10.7000 N   0  0  0  0  0  0  0  0  0  0  0  0
    9.1291    9.6807  -10.9184 N   0  0  0  0  0  0  0  0  0  0  0  0
    1.2892    0.1860   -5.7914 S   0  0  0  0  0  0  0  0  0  0  0  0
    1.2226    2.0463   -5.6327 C   0  0  0  0  0  0  0  0  0  0  0  0
    0.3740   -0.1690   -4.4689 O   0  0  0  0  0  0  0  0  0  0  0  0
    2.6533   -0.2141   -5.5012 O   0  0  0  0  0  0  0  0  0  0  0  0
    0.5941   -0.1844   -7.0129 O   0  0  0  0  0  0  0  0  0  0  0  0
   -0.0383    2.4662   -5.7706 F   0  0  0  0  0  0  0  0  0  0  0  0
    1.6891    2.4170   -4.4452 F   0  0  0  0  0  0  0  0  0  0  0  0
    1.9719    2.5718   -6.5995 F   0  0  0  0  0  0  0  0  0  0  0  0
   -4.2141   -2.7227   -4.7990 H   0  0  0  0  0  0  0  0  0  0  0  0
  1  2  1  0  0  0  0
  1  7  1  0  0  0  0
  2  8  1  0  0  0  0
  3 15  1  0  0  0  0
  3  2  2  0  0  0  0
  4  3  1  0  0  0  0
  5  4  2  0  0  0  0
  5  6  1  0  0  0  0
  6  1  2  0  0  0  0
  9  4  1  0  0  0  0
 10  5  1  0  0  0  0
 12 11  3  0  0  0  0
 13 14  1  0  0  0  0
 13 16  2  0  0  0  0
 13 15  1  0  0  0  0
 14 19  1  0  0  0  0
 17 13  2  0  0  0  0
 18 14  1  0  0  0  0
 20 14  1  0  0  0  0
 21  6  1  0  0  0  0
M  END
