Coordinates from ORCA-job Ph-N2-OTf-B3LYPG-6-31G_dp-MTMO-d009-169-n800
 OpenBabel09051908113D

 21 20  0  0  0  0  0  0  0  0999 V2000
   -2.1207   -2.9223   -4.4393 C   0  0  0  0  0  0  0  0  0  0  0  0
   -0.8990   -2.2506   -4.3765 C   0  0  0  0  0  0  0  0  0  0  0  0
   -0.8805   -0.8794   -4.6099 C   0  0  0  0  0  0  0  0  0  0  0  0
   -2.0351   -0.1606   -4.9027 C   0  0  0  0  0  0  0  0  0  0  0  0
   -3.2485   -0.8463   -4.9656 C   0  0  0  0  0  0  0  0  0  0  0  0
   -3.2932   -2.2230   -4.7342 C   0  0  0  0  0  0  0  0  0  0  0  0
   -2.1538   -3.9917   -4.2551 H   0  0  0  0  0  0  0  0  0  0  0  0
    0.0250   -2.7681   -4.1426 H   0  0  0  0  0  0  0  0  0  0  0  0
   -1.9768    0.9074   -5.0771 H   0  0  0  0  0  0  0  0  0  0  0  0
   -4.1591   -0.3015   -5.1947 H   0  0  0  0  0  0  0  0  0  0  0  0
    8.4189    9.4512  -10.8543 N   0  0  0  0  0  0  0  0  0  0  0  0
    9.3821    9.9478  -11.0720 N   0  0  0  0  0  0  0  0  0  0  0  0
    1.2626    0.1579   -5.7753 S   0  0  0  0  0  0  0  0  0  0  0  0
    1.1960    2.0181   -5.6159 C   0  0  0  0  0  0  0  0  0  0  0  0
    0.3477   -0.1978   -4.4528 O   0  0  0  0  0  0  0  0  0  0  0  0
    2.6268   -0.2423   -5.4855 O   0  0  0  0  0  0  0  0  0  0  0  0
    0.5673   -0.2120   -6.9968 O   0  0  0  0  0  0  0  0  0  0  0  0
   -0.0649    2.4381   -5.7533 F   0  0  0  0  0  0  0  0  0  0  0  0
    1.6628    2.3883   -4.4283 F   0  0  0  0  0  0  0  0  0  0  0  0
    1.9452    2.5440   -6.5826 F   0  0  0  0  0  0  0  0  0  0  0  0
   -4.2411   -2.7503   -4.7831 H   0  0  0  0  0  0  0  0  0  0  0  0
  1  2  1  0  0  0  0
  1  7  1  0  0  0  0
  2  8  1  0  0  0  0
  3 15  1  0  0  0  0
  3  2  2  0  0  0  0
  4  3  1  0  0  0  0
  5  4  2  0  0  0  0
  5  6  1  0  0  0  0
  6  1  2  0  0  0  0
  9  4  1  0  0  0  0
 10  5  1  0  0  0  0
 12 11  3  0  0  0  0
 13 14  1  0  0  0  0
 13 16  2  0  0  0  0
 13 15  1  0  0  0  0
 14 19  1  0  0  0  0
 17 13  2  0  0  0  0
 18 14  1  0  0  0  0
 20 14  1  0  0  0  0
 21  6  1  0  0  0  0
M  END
