Coordinates from ORCA-job Ph-N2-OTf-B3LYPG-6-31G_dp-MTMO-d009-169-n800
 OpenBabel09051908113D

 21 20  0  0  0  0  0  0  0  0999 V2000
   -1.7629   -2.4046   -4.5428 C   0  0  0  0  0  0  0  0  0  0  0  0
   -0.5245   -1.7614   -4.5202 C   0  0  0  0  0  0  0  0  0  0  0  0
   -0.4670   -0.4166   -4.8707 C   0  0  0  0  0  0  0  0  0  0  0  0
   -1.5979    0.3036   -5.2415 C   0  0  0  0  0  0  0  0  0  0  0  0
   -2.8284   -0.3537   -5.2625 C   0  0  0  0  0  0  0  0  0  0  0  0
   -2.9125   -1.7036   -4.9139 C   0  0  0  0  0  0  0  0  0  0  0  0
   -1.8268   -3.4528   -4.2683 H   0  0  0  0  0  0  0  0  0  0  0  0
    0.3826   -2.2800   -4.2295 H   0  0  0  0  0  0  0  0  0  0  0  0
   -1.5083    1.3505   -5.5066 H   0  0  0  0  0  0  0  0  0  0  0  0
   -3.7213    0.1921   -5.5510 H   0  0  0  0  0  0  0  0  0  0  0  0
    4.3648    5.3599   -8.0361 N   0  0  0  0  0  0  0  0  0  0  0  0
    5.0672    6.0826   -8.4899 N   0  0  0  0  0  0  0  0  0  0  0  0
    1.7149    0.4615   -6.0944 S   0  0  0  0  0  0  0  0  0  0  0  0
    1.7491    2.3297   -6.0541 C   0  0  0  0  0  0  0  0  0  0  0  0
    0.7769    0.2457   -4.7573 O   0  0  0  0  0  0  0  0  0  0  0  0
    3.0546    0.0056   -5.7733 O   0  0  0  0  0  0  0  0  0  0  0  0
    1.0029    0.0514   -7.2934 O   0  0  0  0  0  0  0  0  0  0  0  0
    0.5121    2.8050   -6.2252 F   0  0  0  0  0  0  0  0  0  0  0  0
    2.2313    2.7483   -4.8889 F   0  0  0  0  0  0  0  0  0  0  0  0
    2.5282    2.7525   -7.0470 F   0  0  0  0  0  0  0  0  0  0  0  0
   -3.8735   -2.2088   -4.9310 H   0  0  0  0  0  0  0  0  0  0  0  0
  1  2  1  0  0  0  0
  1  7  1  0  0  0  0
  2  8  1  0  0  0  0
  3 15  1  0  0  0  0
  3  2  2  0  0  0  0
  4  3  1  0  0  0  0
  5  4  2  0  0  0  0
  5  6  1  0  0  0  0
  6  1  2  0  0  0  0
  9  4  1  0  0  0  0
 10  5  1  0  0  0  0
 12 11  3  0  0  0  0
 13 14  1  0  0  0  0
 13 16  2  0  0  0  0
 13 15  1  0  0  0  0
 14 19  1  0  0  0  0
 17 13  2  0  0  0  0
 18 14  1  0  0  0  0
 20 14  1  0  0  0  0
 21  6  1  0  0  0  0
M  END
