Coordinates from ORCA-job Ph-N2-OTf-B3LYPG-6-31G_dp-MTMO-d009-169-n800
 OpenBabel09051908113D

 21 20  0  0  0  0  0  0  0  0999 V2000
   -2.2129   -3.0201   -4.3880 C   0  0  0  0  0  0  0  0  0  0  0  0
   -0.9908   -2.3491   -4.3256 C   0  0  0  0  0  0  0  0  0  0  0  0
   -0.9722   -0.9772   -4.5545 C   0  0  0  0  0  0  0  0  0  0  0  0
   -2.1271   -0.2570   -4.8423 C   0  0  0  0  0  0  0  0  0  0  0  0
   -3.3410   -0.9419   -4.9049 C   0  0  0  0  0  0  0  0  0  0  0  0
   -3.3857   -2.3193   -4.6780 C   0  0  0  0  0  0  0  0  0  0  0  0
   -2.2460   -4.0901   -4.2074 H   0  0  0  0  0  0  0  0  0  0  0  0
   -0.0665   -2.8679   -4.0954 H   0  0  0  0  0  0  0  0  0  0  0  0
   -2.0687    0.8116   -5.0133 H   0  0  0  0  0  0  0  0  0  0  0  0
   -4.2518   -0.3959   -5.1301 H   0  0  0  0  0  0  0  0  0  0  0  0
    9.2941   10.3732  -11.3855 N   0  0  0  0  0  0  0  0  0  0  0  0
   10.2554   10.8736  -11.6023 N   0  0  0  0  0  0  0  0  0  0  0  0
    1.1700    0.0604   -5.7209 S   0  0  0  0  0  0  0  0  0  0  0  0
    1.1048    1.9204   -5.5586 C   0  0  0  0  0  0  0  0  0  0  0  0
    0.2565   -0.2963   -4.3977 O   0  0  0  0  0  0  0  0  0  0  0  0
    2.5343   -0.3413   -5.4338 O   0  0  0  0  0  0  0  0  0  0  0  0
    0.4730   -0.3073   -6.9420 O   0  0  0  0  0  0  0  0  0  0  0  0
   -0.1561    2.3412   -5.6938 F   0  0  0  0  0  0  0  0  0  0  0  0
    1.5733    2.2887   -4.3712 F   0  0  0  0  0  0  0  0  0  0  0  0
    1.8529    2.4473   -6.5256 F   0  0  0  0  0  0  0  0  0  0  0  0
   -4.3339   -2.8460   -4.7266 H   0  0  0  0  0  0  0  0  0  0  0  0
  1  2  1  0  0  0  0
  1  7  1  0  0  0  0
  2  8  1  0  0  0  0
  3 15  1  0  0  0  0
  3  2  2  0  0  0  0
  4  3  1  0  0  0  0
  5  4  2  0  0  0  0
  5  6  1  0  0  0  0
  6  1  2  0  0  0  0
  9  4  1  0  0  0  0
 10  5  1  0  0  0  0
 12 11  3  0  0  0  0
 13 14  1  0  0  0  0
 13 16  2  0  0  0  0
 13 15  1  0  0  0  0
 14 19  1  0  0  0  0
 17 13  2  0  0  0  0
 18 14  1  0  0  0  0
 20 14  1  0  0  0  0
 21  6  1  0  0  0  0
M  END
