Coordinates from ORCA-job Ph-N2-OTf-B3LYPG-6-31G_dp-MTMO-d009-169-n800
 OpenBabel09051908113D

 21 20  0  0  0  0  0  0  0  0999 V2000
   -1.9468   -2.7230   -4.5273 C   0  0  0  0  0  0  0  0  0  0  0  0
   -0.7238   -2.0534   -4.4670 C   0  0  0  0  0  0  0  0  0  0  0  0
   -0.7006   -0.6856   -4.7196 C   0  0  0  0  0  0  0  0  0  0  0  0
   -1.8516    0.0318   -5.0289 C   0  0  0  0  0  0  0  0  0  0  0  0
   -3.0664   -0.6519   -5.0892 C   0  0  0  0  0  0  0  0  0  0  0  0
   -3.1158   -2.0251   -4.8387 C   0  0  0  0  0  0  0  0  0  0  0  0
   -1.9836   -3.7895   -4.3283 H   0  0  0  0  0  0  0  0  0  0  0  0
    0.1976   -2.5697   -4.2207 H   0  0  0  0  0  0  0  0  0  0  0  0
   -1.7899    1.0971   -5.2178 H   0  0  0  0  0  0  0  0  0  0  0  0
   -3.9743   -0.1082   -5.3312 H   0  0  0  0  0  0  0  0  0  0  0  0
    6.7068    7.6226   -9.7484 N   0  0  0  0  0  0  0  0  0  0  0  0
    7.6144    8.1726  -10.0574 N   0  0  0  0  0  0  0  0  0  0  0  0
    1.4477    0.3374   -5.8881 S   0  0  0  0  0  0  0  0  0  0  0  0
    1.3901    2.1988   -5.7393 C   0  0  0  0  0  0  0  0  0  0  0  0
    0.5288   -0.0054   -4.5650 O   0  0  0  0  0  0  0  0  0  0  0  0
    2.8094   -0.0680   -5.5941 O   0  0  0  0  0  0  0  0  0  0  0  0
    0.7525   -0.0361   -7.1085 O   0  0  0  0  0  0  0  0  0  0  0  0
    0.1315    2.6242   -5.8816 F   0  0  0  0  0  0  0  0  0  0  0  0
    1.8563    2.5735   -4.5530 F   0  0  0  0  0  0  0  0  0  0  0  0
    2.1437    2.7153   -6.7075 F   0  0  0  0  0  0  0  0  0  0  0  0
   -4.0647   -2.5507   -4.8857 H   0  0  0  0  0  0  0  0  0  0  0  0
  1  2  1  0  0  0  0
  1  7  1  0  0  0  0
  2  8  1  0  0  0  0
  3 15  1  0  0  0  0
  3  2  2  0  0  0  0
  4  3  1  0  0  0  0
  5  4  2  0  0  0  0
  5  6  1  0  0  0  0
  6  1  2  0  0  0  0
  9  4  1  0  0  0  0
 10  5  1  0  0  0  0
 12 11  3  0  0  0  0
 13 14  1  0  0  0  0
 13 16  2  0  0  0  0
 13 15  1  0  0  0  0
 14 19  1  0  0  0  0
 17 13  2  0  0  0  0
 18 14  1  0  0  0  0
 20 14  1  0  0  0  0
 21  6  1  0  0  0  0
M  END
