Coordinates from ORCA-job Ph-N2-OTf-B3LYPG-6-31G_dp-MTMO-d009-169-n800
 OpenBabel09051908113D

 21 20  0  0  0  0  0  0  0  0999 V2000
   -2.0851   -2.8850   -4.4583 C   0  0  0  0  0  0  0  0  0  0  0  0
   -0.8639   -2.2126   -4.3955 C   0  0  0  0  0  0  0  0  0  0  0  0
   -0.8458   -0.8418   -4.6312 C   0  0  0  0  0  0  0  0  0  0  0  0
   -2.0005   -0.1241   -4.9261 C   0  0  0  0  0  0  0  0  0  0  0  0
   -3.2136   -0.8104   -4.9889 C   0  0  0  0  0  0  0  0  0  0  0  0
   -3.2577   -2.1868   -4.7553 C   0  0  0  0  0  0  0  0  0  0  0  0
   -2.1179   -3.9541   -4.2724 H   0  0  0  0  0  0  0  0  0  0  0  0
    0.0602   -2.7293   -4.1600 H   0  0  0  0  0  0  0  0  0  0  0  0
   -1.9426    0.9437   -5.1022 H   0  0  0  0  0  0  0  0  0  0  0  0
   -4.1242   -0.2664   -5.2196 H   0  0  0  0  0  0  0  0  0  0  0  0
    8.0861    9.0989  -10.6509 N   0  0  0  0  0  0  0  0  0  0  0  0
    9.0489    9.5956  -10.8699 N   0  0  0  0  0  0  0  0  0  0  0  0
    1.2972    0.1952   -5.7967 S   0  0  0  0  0  0  0  0  0  0  0  0
    1.2314    2.0555   -5.6375 C   0  0  0  0  0  0  0  0  0  0  0  0
    0.3819   -0.1592   -4.4741 O   0  0  0  0  0  0  0  0  0  0  0  0
    2.6612   -0.2058   -5.5071 O   0  0  0  0  0  0  0  0  0  0  0  0
    0.6018   -0.1745   -7.0182 O   0  0  0  0  0  0  0  0  0  0  0  0
   -0.0295    2.4758   -5.7748 F   0  0  0  0  0  0  0  0  0  0  0  0
    1.6984    2.4259   -4.4501 F   0  0  0  0  0  0  0  0  0  0  0  0
    1.9805    2.5810   -6.6044 F   0  0  0  0  0  0  0  0  0  0  0  0
   -4.2053   -2.7146   -4.8042 H   0  0  0  0  0  0  0  0  0  0  0  0
  1  2  1  0  0  0  0
  1  7  1  0  0  0  0
  2  8  1  0  0  0  0
  3 15  1  0  0  0  0
  3  2  2  0  0  0  0
  4  3  1  0  0  0  0
  5  4  2  0  0  0  0
  5  6  1  0  0  0  0
  6  1  2  0  0  0  0
  9  4  1  0  0  0  0
 10  5  1  0  0  0  0
 12 11  3  0  0  0  0
 13 14  1  0  0  0  0
 13 16  2  0  0  0  0
 13 15  1  0  0  0  0
 14 19  1  0  0  0  0
 17 13  2  0  0  0  0
 18 14  1  0  0  0  0
 20 14  1  0  0  0  0
 21  6  1  0  0  0  0
M  END
