Coordinates from ORCA-job Ph-N2-OTf-B3LYPG-6-31G_dp-MTMO-d009-169-n800
 OpenBabel09051908113D

 21 19  0  0  0  0  0  0  0  0999 V2000
   -1.7695   -1.4090   -5.4832 C   0  0  0  0  0  0  0  0  0  0  0  0
   -0.6818   -0.5281   -5.2717 C   0  0  0  0  0  0  0  0  0  0  0  0
   -0.9968    0.6959   -5.3168 C   0  0  0  0  0  0  0  0  0  0  0  0
   -2.0866    1.4874   -5.5109 C   0  0  0  0  0  0  0  0  0  0  0  0
   -3.1725    0.6005   -5.7238 C   0  0  0  0  0  0  0  0  0  0  0  0
   -3.0146   -0.7967   -5.7096 C   0  0  0  0  0  0  0  0  0  0  0  0
   -1.6649   -2.4900   -5.4740 H   0  0  0  0  0  0  0  0  0  0  0  0
    1.0801   -0.7944   -4.9532 H   0  0  0  0  0  0  0  0  0  0  0  0
   -2.1582    2.5661   -5.5080 H   0  0  0  0  0  0  0  0  0  0  0  0
   -4.1533    1.0336   -5.9023 H   0  0  0  0  0  0  0  0  0  0  0  0
    0.0338    4.1231   -4.7498 N   0  0  0  0  0  0  0  0  0  0  0  0
    0.9431    4.6852   -4.4711 N   0  0  0  0  0  0  0  0  0  0  0  0
    2.8316    0.4761   -5.1376 S   0  0  0  0  0  0  0  0  0  0  0  0
    3.1832    0.2167   -6.9486 C   0  0  0  0  0  0  0  0  0  0  0  0
    1.9034    1.6015   -5.0563 O   0  0  0  0  0  0  0  0  0  0  0  0
    4.1058    0.4723   -4.4470 O   0  0  0  0  0  0  0  0  0  0  0  0
    2.0792   -0.8944   -4.8082 O   0  0  0  0  0  0  0  0  0  0  0  0
    2.0342   -0.0114   -7.5935 F   0  0  0  0  0  0  0  0  0  0  0  0
    3.7548    1.3166   -7.4386 F   0  0  0  0  0  0  0  0  0  0  0  0
    3.9978   -0.8223   -7.1137 F   0  0  0  0  0  0  0  0  0  0  0  0
   -3.8870   -1.4215   -5.8796 H   0  0  0  0  0  0  0  0  0  0  0  0
  1  7  1  0  0  0  0
  1  2  2  0  0  0  0
  3  2  1  0  0  0  0
  4  9  1  0  0  0  0
  4  3  2  0  0  0  0
  5  6  2  0  0  0  0
  5  4  1  0  0  0  0
  6  1  1  0  0  0  0
  8 17  1  0  0  0  0
 10  5  1  0  0  0  0
 11 12  3  0  0  0  0
 13 15  2  0  0  0  0
 13 17  1  0  0  0  0
 13 16  2  0  0  0  0
 14 13  1  0  0  0  0
 18 14  1  0  0  0  0
 19 14  1  0  0  0  0
 20 14  1  0  0  0  0
 21  6  1  0  0  0  0
M  RAD  2   2   2   3   2
M  END
