Coordinates from ORCA-job Ph-N2-OTf-B3LYPG-6-31G_dp-MTMO-d009-169-n800
 OpenBabel09051908113D

 21 20  0  0  0  0  0  0  0  0999 V2000
   -1.9248   -2.6887   -4.5407 C   0  0  0  0  0  0  0  0  0  0  0  0
   -0.7002   -2.0220   -4.4789 C   0  0  0  0  0  0  0  0  0  0  0  0
   -0.6726   -0.6553   -4.7364 C   0  0  0  0  0  0  0  0  0  0  0  0
   -1.8207    0.0640   -5.0521 C   0  0  0  0  0  0  0  0  0  0  0  0
   -3.0371   -0.6167   -5.1139 C   0  0  0  0  0  0  0  0  0  0  0  0
   -3.0910   -1.9888   -4.8585 C   0  0  0  0  0  0  0  0  0  0  0  0
   -1.9650   -3.7544   -4.3378 H   0  0  0  0  0  0  0  0  0  0  0  0
    0.2190   -2.5399   -4.2277 H   0  0  0  0  0  0  0  0  0  0  0  0
   -1.7557    1.1284   -5.2447 H   0  0  0  0  0  0  0  0  0  0  0  0
   -3.9427   -0.0715   -5.3608 H   0  0  0  0  0  0  0  0  0  0  0  0
    6.4293    7.3404   -9.5643 N   0  0  0  0  0  0  0  0  0  0  0  0
    7.3142    7.9036   -9.9127 N   0  0  0  0  0  0  0  0  0  0  0  0
    1.4812    0.3596   -5.9020 S   0  0  0  0  0  0  0  0  0  0  0  0
    1.4292    2.2214   -5.7565 C   0  0  0  0  0  0  0  0  0  0  0  0
    0.5582    0.0220   -4.5804 O   0  0  0  0  0  0  0  0  0  0  0  0
    2.8409   -0.0498   -5.6041 O   0  0  0  0  0  0  0  0  0  0  0  0
    0.7876   -0.0138   -7.1233 O   0  0  0  0  0  0  0  0  0  0  0  0
    0.1722    2.6505   -5.9019 F   0  0  0  0  0  0  0  0  0  0  0  0
    1.8944    2.5966   -4.5699 F   0  0  0  0  0  0  0  0  0  0  0  0
    2.1863    2.7338   -6.7242 F   0  0  0  0  0  0  0  0  0  0  0  0
   -4.0411   -2.5121   -4.9066 H   0  0  0  0  0  0  0  0  0  0  0  0
  1  2  1  0  0  0  0
  1  7  1  0  0  0  0
  2  8  1  0  0  0  0
  3 15  1  0  0  0  0
  3  2  2  0  0  0  0
  4  3  1  0  0  0  0
  5  4  2  0  0  0  0
  5  6  1  0  0  0  0
  6  1  2  0  0  0  0
  9  4  1  0  0  0  0
 10  5  1  0  0  0  0
 12 11  3  0  0  0  0
 13 14  1  0  0  0  0
 13 16  2  0  0  0  0
 13 15  1  0  0  0  0
 14 19  1  0  0  0  0
 17 13  2  0  0  0  0
 18 14  1  0  0  0  0
 20 14  1  0  0  0  0
 21  6  1  0  0  0  0
M  END
