Coordinates from ORCA-job Ph-N2-OTf-B3LYPG-6-31G_dp-MTMO-d009-169-n800
 OpenBabel09051908113D

 21 21  0  0  1  0  0  0  0  0999 V2000
   -0.7889   -0.7974   -5.5364 C   0  0  0  0  0  0  0  0  0  0  0  0
   -0.0799    0.0221   -4.5213 C   0  0  2  0  0  0  0  0  0  0  0  0
   -0.7424    1.3751   -4.2457 C   0  0  0  0  0  0  0  0  0  0  0  0
   -1.7925    1.8500   -5.1646 C   0  0  0  0  0  0  0  0  0  0  0  0
   -2.2966    1.0435   -6.1193 C   0  0  0  0  0  0  0  0  0  0  0  0
   -1.8060   -0.3110   -6.2747 C   0  0  0  0  0  0  0  0  0  0  0  0
   -0.4401   -1.8173   -5.6565 H   0  0  0  0  0  0  0  0  0  0  0  0
    0.0520   -0.5179   -3.5790 H   0  0  0  0  0  0  0  0  0  0  0  0
   -2.1374    2.8689   -5.0209 H   0  0  0  0  0  0  0  0  0  0  0  0
   -3.0769    1.4057   -6.7802 H   0  0  0  0  0  0  0  0  0  0  0  0
   -0.4250    1.9466   -3.3858 N   0  0  0  0  0  0  0  0  0  0  0  0
   -0.0804    2.5517   -2.4606 N   0  0  0  0  0  0  0  0  0  0  0  0
    1.9785    0.9681   -6.1283 S   0  0  0  0  0  0  0  0  0  0  0  0
    2.5906   -0.4956   -7.1154 C   0  0  0  0  0  0  0  0  0  0  0  0
    0.9081    1.5937   -6.8912 O   0  0  0  0  0  0  0  0  0  0  0  0
    3.1631    1.6960   -5.7094 O   0  0  0  0  0  0  0  0  0  0  0  0
    1.4079    0.1911   -4.8284 O   0  0  0  0  0  0  0  0  0  0  0  0
    1.5709   -1.2917   -7.4485 F   0  0  0  0  0  0  0  0  0  0  0  0
    3.1683   -0.0339   -8.2238 F   0  0  0  0  0  0  0  0  0  0  0  0
    3.4755   -1.1869   -6.4010 F   0  0  0  0  0  0  0  0  0  0  0  0
   -2.2870   -0.9542   -7.0064 H   0  0  0  0  0  0  0  0  0  0  0  0
  1  2  1  0  0  0  0
  2  3  1  0  0  0  0
  2  8  1  1  0  0  0
  3 11  1  0  0  0  0
  4  9  1  0  0  0  0
  4  3  2  0  0  0  0
  5  4  1  0  0  0  0
  6  5  2  0  0  0  0
  6  1  1  0  0  0  0
  7  1  1  0  0  0  0
 10  5  1  0  0  0  0
 11 12  1  0  0  0  0
 13 16  2  0  0  0  0
 13 17  1  0  0  0  0
 14 20  1  0  0  0  0
 14 13  1  0  0  0  0
 15 13  2  0  0  0  0
 17  2  1  0  0  0  0
 18 14  1  0  0  0  0
 19 14  1  0  0  0  0
 21  6  1  0  0  0  0
M  RAD  3   1   2  11   2  12   3
M  END
