Coordinates from ORCA-job Ph-N2-OTf-B3LYPG-6-31G_dp-MTMO-d009-169-n800
 OpenBabel09051908113D

 21 20  0  0  0  0  0  0  0  0999 V2000
   -1.8152   -2.5292   -4.5858 C   0  0  0  0  0  0  0  0  0  0  0  0
   -0.5847   -1.8731   -4.5299 C   0  0  0  0  0  0  0  0  0  0  0  0
   -0.5421   -0.5125   -4.8161 C   0  0  0  0  0  0  0  0  0  0  0  0
   -1.6811    0.2109   -5.1547 C   0  0  0  0  0  0  0  0  0  0  0  0
   -2.9036   -0.4594   -5.2103 C   0  0  0  0  0  0  0  0  0  0  0  0
   -2.9724   -1.8251   -4.9262 C   0  0  0  0  0  0  0  0  0  0  0  0
   -1.8671   -3.5898   -4.3607 H   0  0  0  0  0  0  0  0  0  0  0  0
    0.3278   -2.3942   -4.2617 H   0  0  0  0  0  0  0  0  0  0  0  0
   -1.6046    1.2703   -5.3692 H   0  0  0  0  0  0  0  0  0  0  0  0
   -3.8022    0.0891   -5.4748 H   0  0  0  0  0  0  0  0  0  0  0  0
    5.1467    6.0756   -8.6982 N   0  0  0  0  0  0  0  0  0  0  0  0
    5.9766    6.6396   -9.1618 N   0  0  0  0  0  0  0  0  0  0  0  0
    1.6271    0.4601   -5.9891 S   0  0  0  0  0  0  0  0  0  0  0  0
    1.5986    2.3244   -5.8725 C   0  0  0  0  0  0  0  0  0  0  0  0
    0.6943    0.1559   -4.6662 O   0  0  0  0  0  0  0  0  0  0  0  0
    2.9802    0.0374   -5.6797 O   0  0  0  0  0  0  0  0  0  0  0  0
    0.9334    0.0766   -7.2073 O   0  0  0  0  0  0  0  0  0  0  0  0
    0.3474    2.7668   -6.0280 F   0  0  0  0  0  0  0  0  0  0  0  0
    2.0651    2.7116   -4.6902 F   0  0  0  0  0  0  0  0  0  0  0  0
    2.3647    2.8122   -6.8454 F   0  0  0  0  0  0  0  0  0  0  0  0
   -3.9273   -2.3402   -4.9697 H   0  0  0  0  0  0  0  0  0  0  0  0
  1  2  1  0  0  0  0
  1  7  1  0  0  0  0
  2  8  1  0  0  0  0
  3 15  1  0  0  0  0
  3  2  2  0  0  0  0
  4  3  1  0  0  0  0
  5  4  2  0  0  0  0
  5  6  1  0  0  0  0
  6  1  2  0  0  0  0
  9  4  1  0  0  0  0
 10  5  1  0  0  0  0
 12 11  3  0  0  0  0
 13 14  1  0  0  0  0
 13 16  2  0  0  0  0
 13 15  1  0  0  0  0
 14 19  1  0  0  0  0
 17 13  2  0  0  0  0
 18 14  1  0  0  0  0
 20 14  1  0  0  0  0
 21  6  1  0  0  0  0
M  END
