Coordinates from ORCA-job Ph-N2-OTf-B3LYPG-6-31G_dp-MTMO-d009-169-n800
 OpenBabel09051908113D

 21 21  0  0  1  0  0  0  0  0999 V2000
   -0.7767   -0.7944   -5.5691 C   0  0  0  0  0  0  0  0  0  0  0  0
   -0.0696    0.0154   -4.5423 C   0  0  2  0  0  0  0  0  0  0  0  0
   -0.7050    1.4321   -4.2383 C   0  0  0  0  0  0  0  0  0  0  0  0
   -1.8200    1.8432   -5.1593 C   0  0  0  0  0  0  0  0  0  0  0  0
   -2.3402    1.0179   -6.0815 C   0  0  0  0  0  0  0  0  0  0  0  0
   -1.8271   -0.3280   -6.2661 C   0  0  0  0  0  0  0  0  0  0  0  0
   -0.4042   -1.8035   -5.7132 H   0  0  0  0  0  0  0  0  0  0  0  0
   -0.0091   -0.5094   -3.5826 H   0  0  0  0  0  0  0  0  0  0  0  0
   -2.1714    2.8599   -5.0112 H   0  0  0  0  0  0  0  0  0  0  0  0
   -3.1531    1.3627   -6.7127 H   0  0  0  0  0  0  0  0  0  0  0  0
   -0.3888    1.9338   -3.5349 N   0  0  0  0  0  0  0  0  0  0  0  0
    0.0237    2.5691   -2.6281 N   0  0  0  0  0  0  0  0  0  0  0  0
    1.9987    0.9661   -6.0758 S   0  0  0  0  0  0  0  0  0  0  0  0
    2.5906   -0.4812   -7.1021 C   0  0  0  0  0  0  0  0  0  0  0  0
    0.9405    1.6354   -6.8172 O   0  0  0  0  0  0  0  0  0  0  0  0
    3.1931    1.6496   -5.6181 O   0  0  0  0  0  0  0  0  0  0  0  0
    1.3944    0.1579   -4.7966 O   0  0  0  0  0  0  0  0  0  0  0  0
    1.5587   -1.2413   -7.4762 F   0  0  0  0  0  0  0  0  0  0  0  0
    3.1946    0.0063   -8.1840 F   0  0  0  0  0  0  0  0  0  0  0  0
    3.4476   -1.2129   -6.3959 F   0  0  0  0  0  0  0  0  0  0  0  0
   -2.3151   -0.9718   -6.9923 H   0  0  0  0  0  0  0  0  0  0  0  0
  1  2  1  0  0  0  0
  2  3  1  0  0  0  0
  2  8  1  1  0  0  0
  3 11  1  0  0  0  0
  4  9  1  0  0  0  0
  4  3  2  0  0  0  0
  5  4  1  0  0  0  0
  6  5  2  0  0  0  0
  6  1  1  0  0  0  0
  7  1  1  0  0  0  0
 10  5  1  0  0  0  0
 11 12  1  0  0  0  0
 13 16  2  0  0  0  0
 13 17  1  0  0  0  0
 14 20  1  0  0  0  0
 14 13  1  0  0  0  0
 15 13  2  0  0  0  0
 17  2  1  0  0  0  0
 18 14  1  0  0  0  0
 19 14  1  0  0  0  0
 21  6  1  0  0  0  0
M  RAD  3   1   2  11   2  12   3
M  END
