Coordinates from ORCA-job Ph-N2-OTf-B3LYPG-6-31G_dp-MTMO-d009-169-n800
 OpenBabel09051908113D

 21 20  0  0  0  0  0  0  0  0999 V2000
   -1.7648   -2.3453   -4.4841 C   0  0  0  0  0  0  0  0  0  0  0  0
   -0.5189   -1.7163   -4.4914 C   0  0  0  0  0  0  0  0  0  0  0  0
   -0.4493   -0.3830   -4.8818 C   0  0  0  0  0  0  0  0  0  0  0  0
   -1.5754    0.3394   -5.2627 C   0  0  0  0  0  0  0  0  0  0  0  0
   -2.8138   -0.3032   -5.2518 C   0  0  0  0  0  0  0  0  0  0  0  0
   -2.9099   -1.6415   -4.8638 C   0  0  0  0  0  0  0  0  0  0  0  0
   -1.8379   -3.3845   -4.1796 H   0  0  0  0  0  0  0  0  0  0  0  0
    0.3847   -2.2372   -4.1942 H   0  0  0  0  0  0  0  0  0  0  0  0
   -1.4756    1.3767   -5.5597 H   0  0  0  0  0  0  0  0  0  0  0  0
   -3.7032    0.2446   -5.5470 H   0  0  0  0  0  0  0  0  0  0  0  0
    4.1627    5.3436   -7.7396 N   0  0  0  0  0  0  0  0  0  0  0  0
    4.8250    6.1630   -8.0736 N   0  0  0  0  0  0  0  0  0  0  0  0
    1.7508    0.3818   -6.1441 S   0  0  0  0  0  0  0  0  0  0  0  0
    1.7994    2.2478   -6.2432 C   0  0  0  0  0  0  0  0  0  0  0  0
    0.8018    0.2704   -4.8019 O   0  0  0  0  0  0  0  0  0  0  0  0
    3.0847   -0.0581   -5.7791 O   0  0  0  0  0  0  0  0  0  0  0  0
    1.0444   -0.1115   -7.3146 O   0  0  0  0  0  0  0  0  0  0  0  0
    0.5649    2.7200   -6.4391 F   0  0  0  0  0  0  0  0  0  0  0  0
    2.2961    2.7483   -5.1174 F   0  0  0  0  0  0  0  0  0  0  0  0
    2.5727    2.5875   -7.2721 F   0  0  0  0  0  0  0  0  0  0  0  0
   -3.8767   -2.1356   -4.8569 H   0  0  0  0  0  0  0  0  0  0  0  0
  1  7  1  0  0  0  0
  2  1  1  0  0  0  0
  2  8  1  0  0  0  0
  3 15  1  0  0  0  0
  3  2  2  0  0  0  0
  4  5  2  0  0  0  0
  4  3  1  0  0  0  0
  5  6  1  0  0  0  0
  6 21  1  0  0  0  0
  6  1  2  0  0  0  0
  9  4  1  0  0  0  0
 10  5  1  0  0  0  0
 12 11  3  0  0  0  0
 13 16  2  0  0  0  0
 13 15  1  0  0  0  0
 14 13  1  0  0  0  0
 14 19  1  0  0  0  0
 17 13  2  0  0  0  0
 18 14  1  0  0  0  0
 20 14  1  0  0  0  0
M  END
