Coordinates from ORCA-job Ph-N2-OTf-B3LYPG-6-31G_dp-MTMO-d009-169-n800
 OpenBabel09051908113D

 21 20  0  0  0  0  0  0  0  0999 V2000
   -1.8973   -1.7518   -5.0684 C   0  0  0  0  0  0  0  0  0  0  0  0
   -0.5709   -1.4344   -4.7725 C   0  0  0  0  0  0  0  0  0  0  0  0
   -0.1677   -0.1065   -4.8798 C   0  0  0  0  0  0  0  0  0  0  0  0
   -1.0428    0.9070   -5.2595 C   0  0  0  0  0  0  0  0  0  0  0  0
   -2.3681    0.5742   -5.5423 C   0  0  0  0  0  0  0  0  0  0  0  0
   -2.7951   -0.7527   -5.4504 C   0  0  0  0  0  0  0  0  0  0  0  0
   -2.2279   -2.7831   -4.9938 H   0  0  0  0  0  0  0  0  0  0  0  0
    0.1388   -2.1947   -4.4691 H   0  0  0  0  0  0  0  0  0  0  0  0
   -0.6862    1.9287   -5.3271 H   0  0  0  0  0  0  0  0  0  0  0  0
   -3.0644    1.3535   -5.8361 H   0  0  0  0  0  0  0  0  0  0  0  0
    0.5674    4.5160   -6.6527 N   0  0  0  0  0  0  0  0  0  0  0  0
    0.8305    5.5400   -6.9743 N   0  0  0  0  0  0  0  0  0  0  0  0
    2.4357   -0.1428   -5.4287 S   0  0  0  0  0  0  0  0  0  0  0  0
    2.5286    1.3768   -6.5142 C   0  0  0  0  0  0  0  0  0  0  0  0
    1.1421    0.2691   -4.5033 O   0  0  0  0  0  0  0  0  0  0  0  0
    3.5812   -0.1058   -4.5416 O   0  0  0  0  0  0  0  0  0  0  0  0
    2.1240   -1.2720   -6.2888 O   0  0  0  0  0  0  0  0  0  0  0  0
    1.4101    1.4820   -7.2340 F   0  0  0  0  0  0  0  0  0  0  0  0
    2.6753    2.4611   -5.7569 F   0  0  0  0  0  0  0  0  0  0  0  0
    3.5742    1.2499   -7.3283 F   0  0  0  0  0  0  0  0  0  0  0  0
   -3.8259   -1.0077   -5.6758 H   0  0  0  0  0  0  0  0  0  0  0  0
  1  7  1  0  0  0  0
  1  2  2  0  0  0  0
  2  8  1  0  0  0  0
  3  2  1  0  0  0  0
  3 15  1  0  0  0  0
  4  3  2  0  0  0  0
  5  6  2  0  0  0  0
  5  4  1  0  0  0  0
  6  1  1  0  0  0  0
  9  4  1  0  0  0  0
 10  5  1  0  0  0  0
 12 11  3  0  0  0  0
 13 16  2  0  0  0  0
 13 15  1  0  0  0  0
 14 19  1  0  0  0  0
 14 13  1  0  0  0  0
 17 13  2  0  0  0  0
 18 14  1  0  0  0  0
 20 14  1  0  0  0  0
 21  6  1  0  0  0  0
M  END
