Coordinates from ORCA-job Ph-N2-OTf-B3LYPG-6-31G_dp-MTMO-d009-169-n800
 OpenBabel09051908113D

 21 20  0  0  0  0  0  0  0  0999 V2000
   -2.0541   -2.8513   -4.4750 C   0  0  0  0  0  0  0  0  0  0  0  0
   -0.8327   -2.1789   -4.4125 C   0  0  0  0  0  0  0  0  0  0  0  0
   -0.8144   -0.8084   -4.6501 C   0  0  0  0  0  0  0  0  0  0  0  0
   -1.9687   -0.0909   -4.9466 C   0  0  0  0  0  0  0  0  0  0  0  0
   -3.1819   -0.7773   -5.0092 C   0  0  0  0  0  0  0  0  0  0  0  0
   -3.2264   -2.1532   -4.7736 C   0  0  0  0  0  0  0  0  0  0  0  0
   -2.0871   -3.9201   -4.2876 H   0  0  0  0  0  0  0  0  0  0  0  0
    0.0911   -2.6954   -4.1758 H   0  0  0  0  0  0  0  0  0  0  0  0
   -1.9106    0.9766   -5.1242 H   0  0  0  0  0  0  0  0  0  0  0  0
   -4.0923   -0.2335   -5.2412 H   0  0  0  0  0  0  0  0  0  0  0  0
    7.7879    8.7832  -10.4676 N   0  0  0  0  0  0  0  0  0  0  0  0
    8.7490    9.2824  -10.6879 N   0  0  0  0  0  0  0  0  0  0  0  0
    1.3291    0.2277   -5.8159 S   0  0  0  0  0  0  0  0  0  0  0  0
    1.2627    2.0882   -5.6586 C   0  0  0  0  0  0  0  0  0  0  0  0
    0.4135   -0.1261   -4.4933 O   0  0  0  0  0  0  0  0  0  0  0  0
    2.6931   -0.1723   -5.5250 O   0  0  0  0  0  0  0  0  0  0  0  0
    0.6343   -0.1435   -7.0372 O   0  0  0  0  0  0  0  0  0  0  0  0
    0.0019    2.5081   -5.7971 F   0  0  0  0  0  0  0  0  0  0  0  0
    1.7290    2.4597   -4.4713 F   0  0  0  0  0  0  0  0  0  0  0  0
    2.0123    2.6128   -6.6256 F   0  0  0  0  0  0  0  0  0  0  0  0
   -4.1740   -2.6810   -4.8223 H   0  0  0  0  0  0  0  0  0  0  0  0
  1  2  1  0  0  0  0
  1  7  1  0  0  0  0
  2  8  1  0  0  0  0
  3 15  1  0  0  0  0
  3  2  2  0  0  0  0
  4  3  1  0  0  0  0
  5  4  2  0  0  0  0
  5  6  1  0  0  0  0
  6  1  2  0  0  0  0
  9  4  1  0  0  0  0
 10  5  1  0  0  0  0
 12 11  3  0  0  0  0
 13 14  1  0  0  0  0
 13 16  2  0  0  0  0
 13 15  1  0  0  0  0
 14 19  1  0  0  0  0
 17 13  2  0  0  0  0
 18 14  1  0  0  0  0
 20 14  1  0  0  0  0
 21  6  1  0  0  0  0
M  END
