Coordinates from ORCA-job Ph-N2-OTf-B3LYPG-6-31G_dp-MTMO-d009-169-n800
 OpenBabel09051908113D

 21 19  0  0  0  0  0  0  0  0999 V2000
   -1.4794   -0.9644   -5.5047 C   0  0  0  0  0  0  0  0  0  0  0  0
   -0.5693    0.0599   -5.1008 C   0  0  0  0  0  0  0  0  0  0  0  0
   -1.2299    1.1925   -5.1138 C   0  0  0  0  0  0  0  0  0  0  0  0
   -2.4521    1.7095   -5.3723 C   0  0  0  0  0  0  0  0  0  0  0  0
   -3.2928    0.6427   -5.7664 C   0  0  0  0  0  0  0  0  0  0  0  0
   -2.8057   -0.6690   -5.8263 C   0  0  0  0  0  0  0  0  0  0  0  0
   -1.0921   -1.9776   -5.5634 H   0  0  0  0  0  0  0  0  0  0  0  0
    0.5671   -0.1609   -4.8796 H   0  0  0  0  0  0  0  0  0  0  0  0
   -2.7639    2.7417   -5.3023 H   0  0  0  0  0  0  0  0  0  0  0  0
   -4.3231    0.8744   -6.0188 H   0  0  0  0  0  0  0  0  0  0  0  0
   -0.0049    2.9749   -4.3262 N   0  0  0  0  0  0  0  0  0  0  0  0
    0.6336    3.7775   -3.9181 N   0  0  0  0  0  0  0  0  0  0  0  0
    2.8380    0.6361   -5.3929 S   0  0  0  0  0  0  0  0  0  0  0  0
    3.3420   -0.2200   -6.9618 C   0  0  0  0  0  0  0  0  0  0  0  0
    1.9978    1.7641   -5.8454 O   0  0  0  0  0  0  0  0  0  0  0  0
    4.0840    0.9355   -4.6894 O   0  0  0  0  0  0  0  0  0  0  0  0
    2.0013   -0.4398   -4.7090 O   0  0  0  0  0  0  0  0  0  0  0  0
    2.2486   -0.5984   -7.6486 F   0  0  0  0  0  0  0  0  0  0  0  0
    4.0608    0.6061   -7.7303 F   0  0  0  0  0  0  0  0  0  0  0  0
    4.0725   -1.3083   -6.6957 F   0  0  0  0  0  0  0  0  0  0  0  0
   -3.4709   -1.4697   -6.1316 H   0  0  0  0  0  0  0  0  0  0  0  0
  1  2  2  0  0  0  0
  2  8  1  0  0  0  0
  3  2  1  0  0  0  0
  4  9  1  0  0  0  0
  4  3  2  0  0  0  0
  5  4  1  0  0  0  0
  6  5  2  0  0  0  0
  6  1  1  0  0  0  0
  7  1  1  0  0  0  0
 10  5  1  0  0  0  0
 11 12  3  0  0  0  0
 13 17  2  0  0  0  0
 13 16  1  0  0  0  0
 14 20  1  0  0  0  0
 14 13  1  0  0  0  0
 15 13  2  0  0  0  0
 18 14  1  0  0  0  0
 19 14  1  0  0  0  0
 21  6  1  0  0  0  0
M  RAD  2   3   2  16   2
M  END
