Coordinates from ORCA-job Ph-N2-OTf-B3LYPG-6-31G_dp-MTMO-d009-169-n800
 OpenBabel09051908113D

 21 20  0  0  0  0  0  0  0  0999 V2000
   -1.8335   -2.5580   -4.5818 C   0  0  0  0  0  0  0  0  0  0  0  0
   -0.6042   -1.8998   -4.5232 C   0  0  0  0  0  0  0  0  0  0  0  0
   -0.5644   -0.5376   -4.8021 C   0  0  0  0  0  0  0  0  0  0  0  0
   -1.7051    0.1853   -5.1361 C   0  0  0  0  0  0  0  0  0  0  0  0
   -2.9263   -0.4870   -5.1945 C   0  0  0  0  0  0  0  0  0  0  0  0
   -2.9923   -1.8544   -4.9177 C   0  0  0  0  0  0  0  0  0  0  0  0
   -1.8831   -3.6199   -4.3623 H   0  0  0  0  0  0  0  0  0  0  0  0
    0.3095   -2.4205   -4.2583 H   0  0  0  0  0  0  0  0  0  0  0  0
   -1.6309    1.2460   -5.3451 H   0  0  0  0  0  0  0  0  0  0  0  0
   -3.8262    0.0611   -5.4556 H   0  0  0  0  0  0  0  0  0  0  0  0
    5.3653    6.2934   -8.8529 N   0  0  0  0  0  0  0  0  0  0  0  0
    6.2106    6.8457   -9.3024 N   0  0  0  0  0  0  0  0  0  0  0  0
    1.6021    0.4456   -5.9711 S   0  0  0  0  0  0  0  0  0  0  0  0
    1.5679    2.3093   -5.8466 C   0  0  0  0  0  0  0  0  0  0  0  0
    0.6707    0.1323   -4.6494 O   0  0  0  0  0  0  0  0  0  0  0  0
    2.9566    0.0261   -5.6635 O   0  0  0  0  0  0  0  0  0  0  0  0
    0.9095    0.0652   -7.1908 O   0  0  0  0  0  0  0  0  0  0  0  0
    0.3155    2.7488   -6.0005 F   0  0  0  0  0  0  0  0  0  0  0  0
    2.0332    2.6930   -4.6627 F   0  0  0  0  0  0  0  0  0  0  0  0
    2.3328    2.8034   -6.8175 F   0  0  0  0  0  0  0  0  0  0  0  0
   -3.9461   -2.3711   -4.9633 H   0  0  0  0  0  0  0  0  0  0  0  0
  1  2  1  0  0  0  0
  1  7  1  0  0  0  0
  2  8  1  0  0  0  0
  3 15  1  0  0  0  0
  3  2  2  0  0  0  0
  4  3  1  0  0  0  0
  5  4  2  0  0  0  0
  5  6  1  0  0  0  0
  6  1  2  0  0  0  0
  9  4  1  0  0  0  0
 10  5  1  0  0  0  0
 12 11  3  0  0  0  0
 13 14  1  0  0  0  0
 13 16  2  0  0  0  0
 13 15  1  0  0  0  0
 14 19  1  0  0  0  0
 17 13  2  0  0  0  0
 18 14  1  0  0  0  0
 20 14  1  0  0  0  0
 21  6  1  0  0  0  0
M  END
