Coordinates from ORCA-job Ph-N2-OTf-B3LYPG-6-31G_dp-MTMO-d009-169-n800
 OpenBabel09051908113D

 21 20  0  0  0  0  0  0  0  0999 V2000
   -1.8591   -2.0730   -5.0931 C   0  0  0  0  0  0  0  0  0  0  0  0
   -0.5418   -1.6564   -4.8965 C   0  0  0  0  0  0  0  0  0  0  0  0
   -0.2878   -0.2929   -4.7807 C   0  0  0  0  0  0  0  0  0  0  0  0
   -1.3021    0.6580   -4.8437 C   0  0  0  0  0  0  0  0  0  0  0  0
   -2.6153    0.2247   -5.0300 C   0  0  0  0  0  0  0  0  0  0  0  0
   -2.8940   -1.1378   -5.1583 C   0  0  0  0  0  0  0  0  0  0  0  0
   -2.0743   -3.1326   -5.1919 H   0  0  0  0  0  0  0  0  0  0  0  0
    0.2732   -2.3681   -4.8371 H   0  0  0  0  0  0  0  0  0  0  0  0
   -1.0584    1.7098   -4.7421 H   0  0  0  0  0  0  0  0  0  0  0  0
   -3.4183    0.9538   -5.0765 H   0  0  0  0  0  0  0  0  0  0  0  0
    2.5623    4.9841   -7.6931 N   0  0  0  0  0  0  0  0  0  0  0  0
    2.8325    5.9401   -8.1769 N   0  0  0  0  0  0  0  0  0  0  0  0
    2.2082    0.0780   -5.6276 S   0  0  0  0  0  0  0  0  0  0  0  0
    2.0537    1.7917   -6.3642 C   0  0  0  0  0  0  0  0  0  0  0  0
    1.0181    0.1649   -4.4953 O   0  0  0  0  0  0  0  0  0  0  0  0
    3.4540    0.0417   -4.8877 O   0  0  0  0  0  0  0  0  0  0  0  0
    1.8668   -0.8766   -6.6688 O   0  0  0  0  0  0  0  0  0  0  0  0
    0.8401    1.9402   -6.8987 F   0  0  0  0  0  0  0  0  0  0  0  0
    2.2396    2.7057   -5.4170 F   0  0  0  0  0  0  0  0  0  0  0  0
    2.9805    1.9220   -7.3102 F   0  0  0  0  0  0  0  0  0  0  0  0
   -3.9165   -1.4706   -5.3081 H   0  0  0  0  0  0  0  0  0  0  0  0
  1  2  1  0  0  0  0
  2  8  1  0  0  0  0
  2  3  2  0  0  0  0
  3 15  1  0  0  0  0
  4  3  1  0  0  0  0
  4  9  1  0  0  0  0
  5  4  2  0  0  0  0
  6  1  2  0  0  0  0
  6  5  1  0  0  0  0
  7  1  1  0  0  0  0
 10  5  1  0  0  0  0
 12 11  3  0  0  0  0
 13 16  2  0  0  0  0
 13 15  1  0  0  0  0
 14 13  1  0  0  0  0
 14 19  1  0  0  0  0
 17 13  2  0  0  0  0
 18 14  1  0  0  0  0
 20 14  1  0  0  0  0
 21  6  1  0  0  0  0
M  END
