Coordinates from ORCA-job Ph-N2-OTf-B3LYPG-6-31G_dp-MTMO-d009-169-n800
 OpenBabel09051908113D

 21 20  0  0  0  0  0  0  0  0999 V2000
   -1.5041   -0.8577   -5.9917 C   0  0  0  0  0  0  0  0  0  0  0  0
   -0.5873   -0.0470   -5.3219 C   0  0  0  0  0  0  0  0  0  0  0  0
   -1.0875    1.1665   -4.8697 C   0  0  0  0  0  0  0  0  0  0  0  0
   -2.3851    1.6372   -5.0144 C   0  0  0  0  0  0  0  0  0  0  0  0
   -3.2679    0.7979   -5.6916 C   0  0  0  0  0  0  0  0  0  0  0  0
   -2.8262   -0.4392   -6.1749 C   0  0  0  0  0  0  0  0  0  0  0  0
   -1.1717   -1.8149   -6.3777 H   0  0  0  0  0  0  0  0  0  0  0  0
    0.4477   -0.3192   -5.1599 H   0  0  0  0  0  0  0  0  0  0  0  0
   -2.6827    2.6041   -4.6280 H   0  0  0  0  0  0  0  0  0  0  0  0
   -4.2951    1.1111   -5.8430 H   0  0  0  0  0  0  0  0  0  0  0  0
   -0.0946    2.0828   -4.1290 N   0  0  0  0  0  0  0  0  0  0  0  0
    0.9254    2.3727   -3.7560 N   0  0  0  0  0  0  0  0  0  0  0  0
    2.8786    1.2421   -5.7064 S   0  0  0  0  0  0  0  0  0  0  0  0
    3.2457   -0.4067   -6.4939 C   0  0  0  0  0  0  0  0  0  0  0  0
    1.7933    1.8165   -6.5287 O   0  0  0  0  0  0  0  0  0  0  0  0
    4.1658    1.9369   -5.6717 O   0  0  0  0  0  0  0  0  0  0  0  0
    2.3552    0.7900   -4.3491 O   0  0  0  0  0  0  0  0  0  0  0  0
    2.1297   -1.1761   -6.5225 F   0  0  0  0  0  0  0  0  0  0  0  0
    3.6599   -0.2386   -7.7530 F   0  0  0  0  0  0  0  0  0  0  0  0
    4.1847   -1.0675   -5.8120 F   0  0  0  0  0  0  0  0  0  0  0  0
   -3.5220   -1.0841   -6.7024 H   0  0  0  0  0  0  0  0  0  0  0  0
  1  2  1  0  0  0  0
  2  8  1  0  0  0  0
  2  3  2  0  0  0  0
  3 11  1  0  0  0  0
  4  3  1  0  0  0  0
  4  9  1  0  0  0  0
  5  4  2  0  0  0  0
  6  1  2  0  0  0  0
  6  5  1  0  0  0  0
  7  1  1  0  0  0  0
 10  5  1  0  0  0  0
 11 12  2  0  0  0  0
 13 16  2  0  0  0  0
 13 17  1  0  0  0  0
 14 20  1  0  0  0  0
 14 13  1  0  0  0  0
 15 13  2  0  0  0  0
 18 14  1  0  0  0  0
 19 14  1  0  0  0  0
 21  6  1  0  0  0  0
M  RAD  2  12   2  17   2
M  END
