Coordinates from ORCA-job Ph-N2-OTf-B3LYPG-6-31G_dp-MTMO-d009-169-n800
 OpenBabel09051908113D

 21 20  0  0  0  0  0  0  0  0999 V2000
   -1.8278   -2.5489   -4.5833 C   0  0  0  0  0  0  0  0  0  0  0  0
   -0.5981   -1.8915   -4.5254 C   0  0  0  0  0  0  0  0  0  0  0  0
   -0.5573   -0.5297   -4.8065 C   0  0  0  0  0  0  0  0  0  0  0  0
   -1.6974    0.1934   -5.1419 C   0  0  0  0  0  0  0  0  0  0  0  0
   -2.9191   -0.4782   -5.1995 C   0  0  0  0  0  0  0  0  0  0  0  0
   -2.9860   -1.8451   -4.9206 C   0  0  0  0  0  0  0  0  0  0  0  0
   -1.8782   -3.6105   -4.3621 H   0  0  0  0  0  0  0  0  0  0  0  0
    0.3152   -2.4124   -4.2595 H   0  0  0  0  0  0  0  0  0  0  0  0
   -1.6224    1.2538   -5.3525 H   0  0  0  0  0  0  0  0  0  0  0  0
   -3.8185    0.0701   -5.4617 H   0  0  0  0  0  0  0  0  0  0  0  0
    5.2959    6.2247   -8.8044 N   0  0  0  0  0  0  0  0  0  0  0  0
    6.1366    6.7803   -9.2584 N   0  0  0  0  0  0  0  0  0  0  0  0
    1.6101    0.4502   -5.9765 S   0  0  0  0  0  0  0  0  0  0  0  0
    1.5776    2.3141   -5.8546 C   0  0  0  0  0  0  0  0  0  0  0  0
    0.6783    0.1396   -4.6545 O   0  0  0  0  0  0  0  0  0  0  0  0
    2.9642    0.0299   -5.6682 O   0  0  0  0  0  0  0  0  0  0  0  0
    0.9173    0.0687   -7.1959 O   0  0  0  0  0  0  0  0  0  0  0  0
    0.3255    2.7544   -6.0091 F   0  0  0  0  0  0  0  0  0  0  0  0
    2.0431    2.6989   -4.6711 F   0  0  0  0  0  0  0  0  0  0  0  0
    2.3429    2.8062   -6.8261 F   0  0  0  0  0  0  0  0  0  0  0  0
   -3.9402   -2.3612   -4.9656 H   0  0  0  0  0  0  0  0  0  0  0  0
  1  2  1  0  0  0  0
  1  7  1  0  0  0  0
  2  8  1  0  0  0  0
  3 15  1  0  0  0  0
  3  2  2  0  0  0  0
  4  3  1  0  0  0  0
  5  4  2  0  0  0  0
  5  6  1  0  0  0  0
  6  1  2  0  0  0  0
  9  4  1  0  0  0  0
 10  5  1  0  0  0  0
 12 11  3  0  0  0  0
 13 14  1  0  0  0  0
 13 16  2  0  0  0  0
 13 15  1  0  0  0  0
 14 19  1  0  0  0  0
 17 13  2  0  0  0  0
 18 14  1  0  0  0  0
 20 14  1  0  0  0  0
 21  6  1  0  0  0  0
M  END
