Coordinates from ORCA-job Ph-N2-OTf-B3LYPG-6-31G_dp-MTMO-d009-169-n800
 OpenBabel09051908113D

 21 20  0  0  0  0  0  0  0  0999 V2000
   -1.9793   -2.7664   -4.5085 C   0  0  0  0  0  0  0  0  0  0  0  0
   -0.7575   -2.0945   -4.4493 C   0  0  0  0  0  0  0  0  0  0  0  0
   -0.7379   -0.7258   -4.6969 C   0  0  0  0  0  0  0  0  0  0  0  0
   -1.8914   -0.0097   -5.0003 C   0  0  0  0  0  0  0  0  0  0  0  0
   -3.1049   -0.6957   -5.0595 C   0  0  0  0  0  0  0  0  0  0  0  0
   -3.1507   -2.0698   -4.8139 C   0  0  0  0  0  0  0  0  0  0  0  0
   -2.0132   -3.8338   -4.3133 H   0  0  0  0  0  0  0  0  0  0  0  0
    0.1656   -2.6098   -4.2075 H   0  0  0  0  0  0  0  0  0  0  0  0
   -1.8324    1.0564   -5.1855 H   0  0  0  0  0  0  0  0  0  0  0  0
   -4.0146   -0.1529   -5.2968 H   0  0  0  0  0  0  0  0  0  0  0  0
    7.0633    8.0064  -10.0017 N   0  0  0  0  0  0  0  0  0  0  0  0
    8.0050    8.5328  -10.2415 N   0  0  0  0  0  0  0  0  0  0  0  0
    1.4059    0.3037   -5.8678 S   0  0  0  0  0  0  0  0  0  0  0  0
    1.3439    2.1647   -5.7162 C   0  0  0  0  0  0  0  0  0  0  0  0
    0.4903   -0.0432   -4.5435 O   0  0  0  0  0  0  0  0  0  0  0  0
    2.7692   -0.0989   -5.5770 O   0  0  0  0  0  0  0  0  0  0  0  0
    0.7094   -0.0698   -7.0875 O   0  0  0  0  0  0  0  0  0  0  0  0
    0.0839    2.5870   -5.8553 F   0  0  0  0  0  0  0  0  0  0  0  0
    1.8117    2.5389   -4.5303 F   0  0  0  0  0  0  0  0  0  0  0  0
    2.0941    2.6846   -6.6852 F   0  0  0  0  0  0  0  0  0  0  0  0
   -4.0986   -2.5973   -4.8600 H   0  0  0  0  0  0  0  0  0  0  0  0
  1  2  1  0  0  0  0
  1  7  1  0  0  0  0
  2  8  1  0  0  0  0
  3 15  1  0  0  0  0
  3  2  2  0  0  0  0
  4  3  1  0  0  0  0
  5  4  2  0  0  0  0
  5  6  1  0  0  0  0
  6  1  2  0  0  0  0
  9  4  1  0  0  0  0
 10  5  1  0  0  0  0
 12 11  3  0  0  0  0
 13 14  1  0  0  0  0
 13 16  2  0  0  0  0
 13 15  1  0  0  0  0
 14 19  1  0  0  0  0
 17 13  2  0  0  0  0
 18 14  1  0  0  0  0
 20 14  1  0  0  0  0
 21  6  1  0  0  0  0
M  END
