Coordinates from ORCA-job Ph-N2-OTf-B3LYPG-6-31G_dp-MTMO-d009-169-n800
 OpenBabel09051908113D

 21 20  0  0  0  0  0  0  0  0999 V2000
   -1.9238   -2.6872   -4.5412 C   0  0  0  0  0  0  0  0  0  0  0  0
   -0.6992   -2.0207   -4.4794 C   0  0  0  0  0  0  0  0  0  0  0  0
   -0.6714   -0.6540   -4.7371 C   0  0  0  0  0  0  0  0  0  0  0  0
   -1.8195    0.0653   -5.0531 C   0  0  0  0  0  0  0  0  0  0  0  0
   -3.0359   -0.6153   -5.1148 C   0  0  0  0  0  0  0  0  0  0  0  0
   -3.0899   -1.9873   -4.8592 C   0  0  0  0  0  0  0  0  0  0  0  0
   -1.9642   -3.7529   -4.3381 H   0  0  0  0  0  0  0  0  0  0  0  0
    0.2199   -2.5386   -4.2280 H   0  0  0  0  0  0  0  0  0  0  0  0
   -1.7543    1.1297   -5.2459 H   0  0  0  0  0  0  0  0  0  0  0  0
   -3.9414   -0.0700   -5.3620 H   0  0  0  0  0  0  0  0  0  0  0  0
    6.4176    7.3287   -9.5567 N   0  0  0  0  0  0  0  0  0  0  0  0
    7.3019    7.8922   -9.9062 N   0  0  0  0  0  0  0  0  0  0  0  0
    1.4826    0.3605   -5.9026 S   0  0  0  0  0  0  0  0  0  0  0  0
    1.4308    2.2223   -5.7574 C   0  0  0  0  0  0  0  0  0  0  0  0
    0.5594    0.0232   -4.5811 O   0  0  0  0  0  0  0  0  0  0  0  0
    2.8422   -0.0490   -5.6047 O   0  0  0  0  0  0  0  0  0  0  0  0
    0.7890   -0.0130   -7.1240 O   0  0  0  0  0  0  0  0  0  0  0  0
    0.1739    2.6515   -5.9029 F   0  0  0  0  0  0  0  0  0  0  0  0
    1.8960    2.5976   -4.5708 F   0  0  0  0  0  0  0  0  0  0  0  0
    2.1880    2.7345   -6.7251 F   0  0  0  0  0  0  0  0  0  0  0  0
   -4.0401   -2.5105   -4.9073 H   0  0  0  0  0  0  0  0  0  0  0  0
  1  2  1  0  0  0  0
  1  7  1  0  0  0  0
  2  8  1  0  0  0  0
  3 15  1  0  0  0  0
  3  2  2  0  0  0  0
  4  3  1  0  0  0  0
  5  4  2  0  0  0  0
  5  6  1  0  0  0  0
  6  1  2  0  0  0  0
  9  4  1  0  0  0  0
 10  5  1  0  0  0  0
 12 11  3  0  0  0  0
 13 14  1  0  0  0  0
 13 16  2  0  0  0  0
 13 15  1  0  0  0  0
 14 19  1  0  0  0  0
 17 13  2  0  0  0  0
 18 14  1  0  0  0  0
 20 14  1  0  0  0  0
 21  6  1  0  0  0  0
M  END
