Coordinates from ORCA-job Ph-N2-OTf-B3LYPG-6-31G_dp-MTMO-d009-169-n800
 OpenBabel09051908113D

 21 20  0  0  0  0  0  0  0  0999 V2000
   -1.9018   -1.7655   -5.1115 C   0  0  0  0  0  0  0  0  0  0  0  0
   -0.5726   -1.4709   -4.8052 C   0  0  0  0  0  0  0  0  0  0  0  0
   -0.1600   -0.1426   -4.8551 C   0  0  0  0  0  0  0  0  0  0  0  0
   -1.0290    0.8924   -5.1878 C   0  0  0  0  0  0  0  0  0  0  0  0
   -2.3573    0.5823   -5.4818 C   0  0  0  0  0  0  0  0  0  0  0  0
   -2.7934   -0.7443   -5.4469 C   0  0  0  0  0  0  0  0  0  0  0  0
   -2.2397   -2.7968   -5.0817 H   0  0  0  0  0  0  0  0  0  0  0  0
    0.1325   -2.2486   -4.5371 H   0  0  0  0  0  0  0  0  0  0  0  0
   -0.6639    1.9131   -5.2112 H   0  0  0  0  0  0  0  0  0  0  0  0
   -3.0485    1.3785   -5.7396 H   0  0  0  0  0  0  0  0  0  0  0  0
    0.7459    4.5795   -6.9518 N   0  0  0  0  0  0  0  0  0  0  0  0
    0.6945    5.6757   -7.0829 N   0  0  0  0  0  0  0  0  0  0  0  0
    2.4408   -0.1658   -5.4160 S   0  0  0  0  0  0  0  0  0  0  0  0
    2.5026    1.3821   -6.4643 C   0  0  0  0  0  0  0  0  0  0  0  0
    1.1526    0.2079   -4.4667 O   0  0  0  0  0  0  0  0  0  0  0  0
    3.5937   -0.1374   -4.5383 O   0  0  0  0  0  0  0  0  0  0  0  0
    2.1334   -1.2779   -6.2996 O   0  0  0  0  0  0  0  0  0  0  0  0
    1.3901    1.4700   -7.1947 F   0  0  0  0  0  0  0  0  0  0  0  0
    2.6067    2.4500   -5.6773 F   0  0  0  0  0  0  0  0  0  0  0  0
    3.5615    1.3072   -7.2673 F   0  0  0  0  0  0  0  0  0  0  0  0
   -3.8265   -0.9820   -5.6806 H   0  0  0  0  0  0  0  0  0  0  0  0
  1  7  1  0  0  0  0
  1  2  2  0  0  0  0
  2  8  1  0  0  0  0
  3  2  1  0  0  0  0
  3 15  1  0  0  0  0
  4  3  2  0  0  0  0
  5  6  2  0  0  0  0
  5  4  1  0  0  0  0
  6  1  1  0  0  0  0
  9  4  1  0  0  0  0
 10  5  1  0  0  0  0
 12 11  3  0  0  0  0
 13 16  2  0  0  0  0
 13 15  1  0  0  0  0
 14 19  1  0  0  0  0
 14 13  1  0  0  0  0
 17 13  2  0  0  0  0
 18 14  1  0  0  0  0
 20 14  1  0  0  0  0
 21  6  1  0  0  0  0
M  END
