Coordinates from ORCA-job Ph-N2-OTf-B3LYPG-6-31G_dp-MTMO-d009-169-n800
 OpenBabel09051908113D

 21 20  0  0  0  0  0  0  0  0999 V2000
   -2.0169   -2.8107   -4.4929 C   0  0  0  0  0  0  0  0  0  0  0  0
   -0.7957   -2.1381   -4.4314 C   0  0  0  0  0  0  0  0  0  0  0  0
   -0.7773   -0.7683   -4.6728 C   0  0  0  0  0  0  0  0  0  0  0  0
   -1.9315   -0.0517   -4.9722 C   0  0  0  0  0  0  0  0  0  0  0  0
   -3.1446   -0.7384   -5.0338 C   0  0  0  0  0  0  0  0  0  0  0  0
   -3.1891   -2.1137   -4.7944 C   0  0  0  0  0  0  0  0  0  0  0  0
   -2.0500   -3.8790   -4.3026 H   0  0  0  0  0  0  0  0  0  0  0  0
    0.1280   -2.6538   -4.1926 H   0  0  0  0  0  0  0  0  0  0  0  0
   -1.8734    1.0153   -5.1526 H   0  0  0  0  0  0  0  0  0  0  0  0
   -4.0549   -0.1953   -5.2680 H   0  0  0  0  0  0  0  0  0  0  0  0
    7.4346    8.4065  -10.2463 N   0  0  0  0  0  0  0  0  0  0  0  0
    8.3909    8.9131  -10.4708 N   0  0  0  0  0  0  0  0  0  0  0  0
    1.3661    0.2660   -5.8401 S   0  0  0  0  0  0  0  0  0  0  0  0
    1.3013    2.1267   -5.6844 C   0  0  0  0  0  0  0  0  0  0  0  0
    0.4504   -0.0853   -4.5170 O   0  0  0  0  0  0  0  0  0  0  0  0
    2.7298   -0.1352   -5.5496 O   0  0  0  0  0  0  0  0  0  0  0  0
    0.6707   -0.1056   -7.0610 O   0  0  0  0  0  0  0  0  0  0  0  0
    0.0407    2.5474   -5.8227 F   0  0  0  0  0  0  0  0  0  0  0  0
    1.7684    2.4989   -4.4976 F   0  0  0  0  0  0  0  0  0  0  0  0
    2.0509    2.6498   -6.6522 F   0  0  0  0  0  0  0  0  0  0  0  0
   -4.1367   -2.6416   -4.8423 H   0  0  0  0  0  0  0  0  0  0  0  0
  1  2  1  0  0  0  0
  1  7  1  0  0  0  0
  2  8  1  0  0  0  0
  3 15  1  0  0  0  0
  3  2  2  0  0  0  0
  4  3  1  0  0  0  0
  5  4  2  0  0  0  0
  5  6  1  0  0  0  0
  6  1  2  0  0  0  0
  9  4  1  0  0  0  0
 10  5  1  0  0  0  0
 12 11  3  0  0  0  0
 13 14  1  0  0  0  0
 13 16  2  0  0  0  0
 13 15  1  0  0  0  0
 14 19  1  0  0  0  0
 17 13  2  0  0  0  0
 18 14  1  0  0  0  0
 20 14  1  0  0  0  0
 21  6  1  0  0  0  0
M  END
