Coordinates from ORCA-job Ph-N2-OTf-B3LYPG-6-31G_dp-MTMO-d009-169-n800
 OpenBabel09051908113D

 21 20  0  0  0  0  0  0  0  0999 V2000
   -1.8868   -2.6347   -4.5598 C   0  0  0  0  0  0  0  0  0  0  0  0
   -0.6603   -1.9715   -4.4982 C   0  0  0  0  0  0  0  0  0  0  0  0
   -0.6275   -0.6065   -4.7637 C   0  0  0  0  0  0  0  0  0  0  0  0
   -1.7724    0.1146   -5.0873 C   0  0  0  0  0  0  0  0  0  0  0  0
   -2.9907   -0.5627   -5.1489 C   0  0  0  0  0  0  0  0  0  0  0  0
   -3.0497   -1.9331   -4.8855 C   0  0  0  0  0  0  0  0  0  0  0  0
   -1.9310   -3.6990   -4.3507 H   0  0  0  0  0  0  0  0  0  0  0  0
    0.2565   -2.4907   -4.2410 H   0  0  0  0  0  0  0  0  0  0  0  0
   -1.7035    1.1776   -5.2860 H   0  0  0  0  0  0  0  0  0  0  0  0
   -3.8938   -0.0161   -5.4019 H   0  0  0  0  0  0  0  0  0  0  0  0
    5.9845    6.9035   -9.2670 N   0  0  0  0  0  0  0  0  0  0  0  0
    6.8528    7.4567   -9.6690 N   0  0  0  0  0  0  0  0  0  0  0  0
    1.5321    0.3967   -5.9287 S   0  0  0  0  0  0  0  0  0  0  0  0
    1.4871    2.2592   -5.7901 C   0  0  0  0  0  0  0  0  0  0  0  0
    0.6050    0.0677   -4.6078 O   0  0  0  0  0  0  0  0  0  0  0  0
    2.8896   -0.0170   -5.6266 O   0  0  0  0  0  0  0  0  0  0  0  0
    0.8395    0.0215   -7.1501 O   0  0  0  0  0  0  0  0  0  0  0  0
    0.2320    2.6926   -5.9391 F   0  0  0  0  0  0  0  0  0  0  0  0
    1.9518    2.6368   -4.6041 F   0  0  0  0  0  0  0  0  0  0  0  0
    2.2478    2.7650   -6.7584 F   0  0  0  0  0  0  0  0  0  0  0  0
   -4.0014   -2.4536   -4.9335 H   0  0  0  0  0  0  0  0  0  0  0  0
  1  2  1  0  0  0  0
  1  7  1  0  0  0  0
  2  8  1  0  0  0  0
  3 15  1  0  0  0  0
  3  2  2  0  0  0  0
  4  3  1  0  0  0  0
  5  4  2  0  0  0  0
  5  6  1  0  0  0  0
  6  1  2  0  0  0  0
  9  4  1  0  0  0  0
 10  5  1  0  0  0  0
 12 11  3  0  0  0  0
 13 14  1  0  0  0  0
 13 16  2  0  0  0  0
 13 15  1  0  0  0  0
 14 19  1  0  0  0  0
 17 13  2  0  0  0  0
 18 14  1  0  0  0  0
 20 14  1  0  0  0  0
 21  6  1  0  0  0  0
M  END
