Coordinates from ORCA-job Ph-N2-OTf-B3LYPG-6-31G_dp-MTMO-d009-169-n800
 OpenBabel09051908113D

 21 20  0  0  0  0  0  0  0  0999 V2000
   -1.8977   -1.7581   -5.0707 C   0  0  0  0  0  0  0  0  0  0  0  0
   -0.5713   -1.4410   -4.7745 C   0  0  0  0  0  0  0  0  0  0  0  0
   -0.1690   -0.1125   -4.8768 C   0  0  0  0  0  0  0  0  0  0  0  0
   -1.0450    0.9019   -5.2520 C   0  0  0  0  0  0  0  0  0  0  0  0
   -2.3703    0.5694   -5.5352 C   0  0  0  0  0  0  0  0  0  0  0  0
   -2.7965   -0.7580   -5.4481 C   0  0  0  0  0  0  0  0  0  0  0  0
   -2.2276   -2.7899   -4.9999 H   0  0  0  0  0  0  0  0  0  0  0  0
    0.1391   -2.2021   -4.4746 H   0  0  0  0  0  0  0  0  0  0  0  0
   -0.6888    1.9241   -5.3160 H   0  0  0  0  0  0  0  0  0  0  0  0
   -3.0673    1.3494   -5.8254 H   0  0  0  0  0  0  0  0  0  0  0  0
    0.5926    4.5354   -6.6853 N   0  0  0  0  0  0  0  0  0  0  0  0
    0.8556    5.5628   -6.9962 N   0  0  0  0  0  0  0  0  0  0  0  0
    2.4337   -0.1429   -5.4292 S   0  0  0  0  0  0  0  0  0  0  0  0
    2.5218    1.3822   -6.5077 C   0  0  0  0  0  0  0  0  0  0  0  0
    1.1408    0.2624   -4.5000 O   0  0  0  0  0  0  0  0  0  0  0  0
    3.5803   -0.1079   -4.5436 O   0  0  0  0  0  0  0  0  0  0  0  0
    2.1228   -1.2686   -6.2941 O   0  0  0  0  0  0  0  0  0  0  0  0
    1.4031    1.4870   -7.2271 F   0  0  0  0  0  0  0  0  0  0  0  0
    2.6647    2.4632   -5.7451 F   0  0  0  0  0  0  0  0  0  0  0  0
    3.5679    1.2628   -7.3222 F   0  0  0  0  0  0  0  0  0  0  0  0
   -3.8273   -1.0128   -5.6737 H   0  0  0  0  0  0  0  0  0  0  0  0
  1  7  1  0  0  0  0
  1  2  2  0  0  0  0
  2  8  1  0  0  0  0
  3  2  1  0  0  0  0
  3 15  1  0  0  0  0
  4  3  2  0  0  0  0
  5  6  2  0  0  0  0
  5  4  1  0  0  0  0
  6  1  1  0  0  0  0
  9  4  1  0  0  0  0
 10  5  1  0  0  0  0
 12 11  3  0  0  0  0
 13 16  2  0  0  0  0
 13 15  1  0  0  0  0
 14 19  1  0  0  0  0
 14 13  1  0  0  0  0
 17 13  2  0  0  0  0
 18 14  1  0  0  0  0
 20 14  1  0  0  0  0
 21  6  1  0  0  0  0
M  END
