Coordinates from ORCA-job Ph-N2-OTf-B3LYPG-6-31G_dp-MTMO-d009-169-n800
 OpenBabel09051908113D

 21 20  0  0  0  0  0  0  0  0999 V2000
   -1.9028   -1.7549   -5.0902 C   0  0  0  0  0  0  0  0  0  0  0  0
   -0.5739   -1.4545   -4.7878 C   0  0  0  0  0  0  0  0  0  0  0  0
   -0.1601   -0.1279   -4.8663 C   0  0  0  0  0  0  0  0  0  0  0  0
   -1.0277    0.9001   -5.2237 C   0  0  0  0  0  0  0  0  0  0  0  0
   -2.3555    0.5844   -5.5134 C   0  0  0  0  0  0  0  0  0  0  0  0
   -2.7929   -0.7407   -5.4501 C   0  0  0  0  0  0  0  0  0  0  0  0
   -2.2415   -2.7850   -5.0380 H   0  0  0  0  0  0  0  0  0  0  0  0
    0.1299   -2.2266   -4.5012 H   0  0  0  0  0  0  0  0  0  0  0  0
   -0.6621    1.9199   -5.2692 H   0  0  0  0  0  0  0  0  0  0  0  0
   -3.0457    1.3753   -5.7901 H   0  0  0  0  0  0  0  0  0  0  0  0
    0.6952    4.5638   -6.8505 N   0  0  0  0  0  0  0  0  0  0  0  0
    0.6394    5.6560   -7.0096 N   0  0  0  0  0  0  0  0  0  0  0  0
    2.4421   -0.1676   -5.4200 S   0  0  0  0  0  0  0  0  0  0  0  0
    2.5264    1.3684   -6.4838 C   0  0  0  0  0  0  0  0  0  0  0  0
    1.1520    0.2295   -4.4825 O   0  0  0  0  0  0  0  0  0  0  0  0
    3.5907   -0.1419   -4.5367 O   0  0  0  0  0  0  0  0  0  0  0  0
    2.1277   -1.2855   -6.2938 O   0  0  0  0  0  0  0  0  0  0  0  0
    1.4115    1.4701   -7.2091 F   0  0  0  0  0  0  0  0  0  0  0  0
    2.6556    2.4420   -5.7089 F   0  0  0  0  0  0  0  0  0  0  0  0
    3.5789    1.2649   -7.2922 F   0  0  0  0  0  0  0  0  0  0  0  0
   -3.8257   -0.9828   -5.6805 H   0  0  0  0  0  0  0  0  0  0  0  0
  1  7  1  0  0  0  0
  1  2  2  0  0  0  0
  2  8  1  0  0  0  0
  3  2  1  0  0  0  0
  3 15  1  0  0  0  0
  4  3  2  0  0  0  0
  5  6  2  0  0  0  0
  5  4  1  0  0  0  0
  6  1  1  0  0  0  0
  9  4  1  0  0  0  0
 10  5  1  0  0  0  0
 12 11  3  0  0  0  0
 13 16  2  0  0  0  0
 13 15  1  0  0  0  0
 14 19  1  0  0  0  0
 14 13  1  0  0  0  0
 17 13  2  0  0  0  0
 18 14  1  0  0  0  0
 20 14  1  0  0  0  0
 21  6  1  0  0  0  0
M  END
