Coordinates from ORCA-job Ph-N2-OTf-B3LYPG-6-31G_dp-MTMO-d009-169-n800
 OpenBabel09051908113D

 21 20  0  0  0  0  0  0  0  0999 V2000
   -1.8540   -1.4386   -4.6772 C   0  0  0  0  0  0  0  0  0  0  0  0
   -0.5735   -0.9233   -4.4726 C   0  0  0  0  0  0  0  0  0  0  0  0
   -0.2189    0.2525   -5.1277 C   0  0  0  0  0  0  0  0  0  0  0  0
   -1.1003    0.9302   -5.9648 C   0  0  0  0  0  0  0  0  0  0  0  0
   -2.3803    0.4067   -6.1509 C   0  0  0  0  0  0  0  0  0  0  0  0
   -2.7567   -0.7768   -5.5124 C   0  0  0  0  0  0  0  0  0  0  0  0
   -2.1446   -2.3583   -4.1795 H   0  0  0  0  0  0  0  0  0  0  0  0
    0.1390   -1.4202   -3.8247 H   0  0  0  0  0  0  0  0  0  0  0  0
   -0.7849    1.8484   -6.4456 H   0  0  0  0  0  0  0  0  0  0  0  0
   -3.0815    0.9258   -6.7971 H   0  0  0  0  0  0  0  0  0  0  0  0
    0.5936    3.9884   -5.1858 N   0  0  0  0  0  0  0  0  0  0  0  0
    0.8516    4.5150   -4.2492 N   0  0  0  0  0  0  0  0  0  0  0  0
    2.4207    0.1729   -5.4578 S   0  0  0  0  0  0  0  0  0  0  0  0
    2.5384    1.0655   -7.0965 C   0  0  0  0  0  0  0  0  0  0  0  0
    1.0388    0.8471   -4.8775 O   0  0  0  0  0  0  0  0  0  0  0  0
    3.4859    0.6812   -4.6166 O   0  0  0  0  0  0  0  0  0  0  0  0
    2.2308   -1.2385   -5.7466 O   0  0  0  0  0  0  0  0  0  0  0  0
    1.4722    0.7735   -7.8437 F   0  0  0  0  0  0  0  0  0  0  0  0
    2.5937    2.3791   -6.8921 F   0  0  0  0  0  0  0  0  0  0  0  0
    3.6441    0.6580   -7.7153 F   0  0  0  0  0  0  0  0  0  0  0  0
   -3.7524   -1.1816   -5.6642 H   0  0  0  0  0  0  0  0  0  0  0  0
  1  2  1  0  0  0  0
  1  7  1  0  0  0  0
  2  8  1  0  0  0  0
  3 15  1  0  0  0  0
  3  2  2  0  0  0  0
  4  3  1  0  0  0  0
  5  4  2  0  0  0  0
  5  6  1  0  0  0  0
  6  1  2  0  0  0  0
  9  4  1  0  0  0  0
 10  5  1  0  0  0  0
 11 12  3  0  0  0  0
 13 15  1  0  0  0  0
 13 16  2  0  0  0  0
 14 19  1  0  0  0  0
 14 13  1  0  0  0  0
 17 13  2  0  0  0  0
 18 14  1  0  0  0  0
 20 14  1  0  0  0  0
 21  6  1  0  0  0  0
M  END
