Coordinates from ORCA-job Ph-N2-OTf-B3LYPG-6-31G_dp-MTMO-d009-169-n800
 OpenBabel09051908113D

 21 20  0  0  0  0  0  0  0  0999 V2000
   -1.7814   -2.4753   -4.5862 C   0  0  0  0  0  0  0  0  0  0  0  0
   -0.5486   -1.8229   -4.5390 C   0  0  0  0  0  0  0  0  0  0  0  0
   -0.5013   -0.4663   -4.8430 C   0  0  0  0  0  0  0  0  0  0  0  0
   -1.6378    0.2565   -5.1911 C   0  0  0  0  0  0  0  0  0  0  0  0
   -2.8626   -0.4101   -5.2378 C   0  0  0  0  0  0  0  0  0  0  0  0
   -2.9362   -1.7718   -4.9358 C   0  0  0  0  0  0  0  0  0  0  0  0
   -1.8370   -3.5327   -4.3472 H   0  0  0  0  0  0  0  0  0  0  0  0
    0.3622   -2.3436   -4.2641 H   0  0  0  0  0  0  0  0  0  0  0  0
   -1.5576    1.3128   -5.4196 H   0  0  0  0  0  0  0  0  0  0  0  0
   -3.7594    0.1379   -5.5095 H   0  0  0  0  0  0  0  0  0  0  0  0
    4.7530    5.6702   -8.4070 N   0  0  0  0  0  0  0  0  0  0  0  0
    5.5462    6.2765   -8.8812 N   0  0  0  0  0  0  0  0  0  0  0  0
    1.6701    0.4856   -6.0294 S   0  0  0  0  0  0  0  0  0  0  0  0
    1.6562    2.3512   -5.9284 C   0  0  0  0  0  0  0  0  0  0  0  0
    0.7374    0.1997   -4.7022 O   0  0  0  0  0  0  0  0  0  0  0  0
    3.0206    0.0552   -5.7191 O   0  0  0  0  0  0  0  0  0  0  0  0
    0.9711    0.0971   -7.2430 O   0  0  0  0  0  0  0  0  0  0  0  0
    0.4082    2.8016   -6.0873 F   0  0  0  0  0  0  0  0  0  0  0  0
    2.1256    2.7442   -4.7491 F   0  0  0  0  0  0  0  0  0  0  0  0
    2.4260    2.8252   -6.9050 F   0  0  0  0  0  0  0  0  0  0  0  0
   -3.8928   -2.2841   -4.9724 H   0  0  0  0  0  0  0  0  0  0  0  0
  1  2  1  0  0  0  0
  1  7  1  0  0  0  0
  2  8  1  0  0  0  0
  3 15  1  0  0  0  0
  3  2  2  0  0  0  0
  4  3  1  0  0  0  0
  5  4  2  0  0  0  0
  5  6  1  0  0  0  0
  6  1  2  0  0  0  0
  9  4  1  0  0  0  0
 10  5  1  0  0  0  0
 12 11  3  0  0  0  0
 13 14  1  0  0  0  0
 13 16  2  0  0  0  0
 13 15  1  0  0  0  0
 14 19  1  0  0  0  0
 17 13  2  0  0  0  0
 18 14  1  0  0  0  0
 20 14  1  0  0  0  0
 21  6  1  0  0  0  0
M  END
