Coordinates from ORCA-job Ph-N2-OTf-B3LYPG-6-31G_dp-MTMO-d009-169-n800
 OpenBabel09051908113D

 21 20  0  0  0  0  0  0  0  0999 V2000
   -1.8561   -2.0660   -5.1232 C   0  0  0  0  0  0  0  0  0  0  0  0
   -0.5384   -1.6544   -4.9189 C   0  0  0  0  0  0  0  0  0  0  0  0
   -0.2844   -0.2938   -4.7723 C   0  0  0  0  0  0  0  0  0  0  0  0
   -1.2989    0.6582   -4.8111 C   0  0  0  0  0  0  0  0  0  0  0  0
   -2.6124    0.2294   -5.0051 C   0  0  0  0  0  0  0  0  0  0  0  0
   -2.8913   -1.1297   -5.1648 C   0  0  0  0  0  0  0  0  0  0  0  0
   -2.0715   -3.1231   -5.2463 H   0  0  0  0  0  0  0  0  0  0  0  0
    0.2767   -2.3671   -4.8782 H   0  0  0  0  0  0  0  0  0  0  0  0
   -1.0548    1.7072   -4.6844 H   0  0  0  0  0  0  0  0  0  0  0  0
   -3.4155    0.9594   -5.0329 H   0  0  0  0  0  0  0  0  0  0  0  0
    2.5839    4.9827   -7.7134 N   0  0  0  0  0  0  0  0  0  0  0  0
    2.8612    5.9376   -8.1954 N   0  0  0  0  0  0  0  0  0  0  0  0
    2.2166    0.0827   -5.6055 S   0  0  0  0  0  0  0  0  0  0  0  0
    2.0259    1.7781   -6.3751 C   0  0  0  0  0  0  0  0  0  0  0  0
    1.0211    0.1604   -4.4790 O   0  0  0  0  0  0  0  0  0  0  0  0
    3.4584    0.0878   -4.8582 O   0  0  0  0  0  0  0  0  0  0  0  0
    1.9033   -0.8978   -6.6315 O   0  0  0  0  0  0  0  0  0  0  0  0
    0.8161    1.8834   -6.9278 F   0  0  0  0  0  0  0  0  0  0  0  0
    2.1739    2.7139   -5.4424 F   0  0  0  0  0  0  0  0  0  0  0  0
    2.9617    1.9171   -7.3110 F   0  0  0  0  0  0  0  0  0  0  0  0
   -3.9139   -1.4590   -5.3207 H   0  0  0  0  0  0  0  0  0  0  0  0
  1  2  1  0  0  0  0
  2  8  1  0  0  0  0
  2  3  2  0  0  0  0
  3 15  1  0  0  0  0
  4  3  1  0  0  0  0
  4  9  1  0  0  0  0
  5  4  2  0  0  0  0
  6  1  2  0  0  0  0
  6  5  1  0  0  0  0
  7  1  1  0  0  0  0
 10  5  1  0  0  0  0
 12 11  3  0  0  0  0
 13 16  2  0  0  0  0
 13 15  1  0  0  0  0
 14 13  1  0  0  0  0
 14 19  1  0  0  0  0
 17 13  2  0  0  0  0
 18 14  1  0  0  0  0
 20 14  1  0  0  0  0
 21  6  1  0  0  0  0
M  END
