Coordinates from ORCA-job Ph-N2-OTf-B3LYPG-6-31G_dp-MTMO-d009-169-n800
 OpenBabel09051908113D

 21 20  0  0  0  0  0  0  0  0999 V2000
   -2.0326   -2.8278   -4.4858 C   0  0  0  0  0  0  0  0  0  0  0  0
   -0.8112   -2.1554   -4.4238 C   0  0  0  0  0  0  0  0  0  0  0  0
   -0.7928   -0.7852   -4.6632 C   0  0  0  0  0  0  0  0  0  0  0  0
   -1.9470   -0.0681   -4.9612 C   0  0  0  0  0  0  0  0  0  0  0  0
   -3.1601   -0.7545   -5.0233 C   0  0  0  0  0  0  0  0  0  0  0  0
   -3.2047   -2.1301   -4.7859 C   0  0  0  0  0  0  0  0  0  0  0  0
   -2.0657   -3.8963   -4.2970 H   0  0  0  0  0  0  0  0  0  0  0  0
    0.1125   -2.6716   -4.1860 H   0  0  0  0  0  0  0  0  0  0  0  0
   -1.8888    0.9991   -5.1402 H   0  0  0  0  0  0  0  0  0  0  0  0
   -4.0704   -0.2110   -5.2564 H   0  0  0  0  0  0  0  0  0  0  0  0
    7.5823    8.5646  -10.3396 N   0  0  0  0  0  0  0  0  0  0  0  0
    8.5412    9.0673  -10.5618 N   0  0  0  0  0  0  0  0  0  0  0  0
    1.3508    0.2500   -5.8296 S   0  0  0  0  0  0  0  0  0  0  0  0
    1.2848    2.1106   -5.6735 C   0  0  0  0  0  0  0  0  0  0  0  0
    0.4351   -0.1027   -4.5069 O   0  0  0  0  0  0  0  0  0  0  0  0
    2.7147   -0.1501   -5.5385 O   0  0  0  0  0  0  0  0  0  0  0  0
    0.6560   -0.1219   -7.0508 O   0  0  0  0  0  0  0  0  0  0  0  0
    0.0241    2.5306   -5.8124 F   0  0  0  0  0  0  0  0  0  0  0  0
    1.7511    2.4828   -4.4865 F   0  0  0  0  0  0  0  0  0  0  0  0
    2.0346    2.6345   -6.6409 F   0  0  0  0  0  0  0  0  0  0  0  0
   -4.1524   -2.6579   -4.8342 H   0  0  0  0  0  0  0  0  0  0  0  0
  1  2  1  0  0  0  0
  1  7  1  0  0  0  0
  2  8  1  0  0  0  0
  3 15  1  0  0  0  0
  3  2  2  0  0  0  0
  4  3  1  0  0  0  0
  5  4  2  0  0  0  0
  5  6  1  0  0  0  0
  6  1  2  0  0  0  0
  9  4  1  0  0  0  0
 10  5  1  0  0  0  0
 12 11  3  0  0  0  0
 13 14  1  0  0  0  0
 13 16  2  0  0  0  0
 13 15  1  0  0  0  0
 14 19  1  0  0  0  0
 17 13  2  0  0  0  0
 18 14  1  0  0  0  0
 20 14  1  0  0  0  0
 21  6  1  0  0  0  0
M  END
