Coordinates from ORCA-job Ph-N2-OTf-B3LYPG-6-31G_dp-MTMO-d009-169-n800
 OpenBabel09051908113D

 21 20  0  0  0  0  0  0  0  0999 V2000
   -1.8788   -1.6398   -4.8795 C   0  0  0  0  0  0  0  0  0  0  0  0
   -0.5711   -1.2294   -4.6163 C   0  0  0  0  0  0  0  0  0  0  0  0
   -0.1890    0.0531   -4.9998 C   0  0  0  0  0  0  0  0  0  0  0  0
   -1.0673    0.9350   -5.6227 C   0  0  0  0  0  0  0  0  0  0  0  0
   -2.3743    0.5122   -5.8694 C   0  0  0  0  0  0  0  0  0  0  0  0
   -2.7797   -0.7730   -5.5023 C   0  0  0  0  0  0  0  0  0  0  0  0
   -2.1923   -2.6379   -4.5908 H   0  0  0  0  0  0  0  0  0  0  0  0
    0.1403   -1.8862   -4.1300 H   0  0  0  0  0  0  0  0  0  0  0  0
   -0.7277    1.9266   -5.8977 H   0  0  0  0  0  0  0  0  0  0  0  0
   -3.0738    1.1897   -6.3492 H   0  0  0  0  0  0  0  0  0  0  0  0
    0.4654    4.4186   -5.8969 N   0  0  0  0  0  0  0  0  0  0  0  0
    0.7685    5.4292   -5.5685 N   0  0  0  0  0  0  0  0  0  0  0  0
    2.4383   -0.0502   -5.4146 S   0  0  0  0  0  0  0  0  0  0  0  0
    2.5698    1.1757   -6.8197 C   0  0  0  0  0  0  0  0  0  0  0  0
    1.0974    0.5389   -4.6709 O   0  0  0  0  0  0  0  0  0  0  0  0
    3.5387    0.2158   -4.5099 O   0  0  0  0  0  0  0  0  0  0  0  0
    2.1804   -1.3547   -6.0009 O   0  0  0  0  0  0  0  0  0  0  0  0
    1.4765    1.1048   -7.5804 F   0  0  0  0  0  0  0  0  0  0  0  0
    2.6949    2.4077   -6.3311 F   0  0  0  0  0  0  0  0  0  0  0  0
    3.6419    0.8690   -7.5467 F   0  0  0  0  0  0  0  0  0  0  0  0
   -3.7963   -1.0981   -5.7000 H   0  0  0  0  0  0  0  0  0  0  0  0
  1  2  1  0  0  0  0
  1  7  1  0  0  0  0
  2  8  1  0  0  0  0
  3 15  1  0  0  0  0
  3  2  2  0  0  0  0
  4  3  1  0  0  0  0
  5  4  2  0  0  0  0
  5  6  1  0  0  0  0
  6  1  2  0  0  0  0
  9  4  1  0  0  0  0
 10  5  1  0  0  0  0
 11 12  3  0  0  0  0
 13 15  1  0  0  0  0
 13 16  2  0  0  0  0
 14 19  1  0  0  0  0
 14 13  1  0  0  0  0
 17 13  2  0  0  0  0
 18 14  1  0  0  0  0
 20 14  1  0  0  0  0
 21  6  1  0  0  0  0
M  END
