Coordinates from ORCA-job Ph-N2-OTf-B3LYPG-6-31G_dp-MTMO-d009-169-n800
 OpenBabel09051908113D

 21 20  0  0  0  0  0  0  0  0999 V2000
   -1.8567   -2.5936   -4.5744 C   0  0  0  0  0  0  0  0  0  0  0  0
   -0.6290   -1.9328   -4.5134 C   0  0  0  0  0  0  0  0  0  0  0  0
   -0.5930   -0.5689   -4.7847 C   0  0  0  0  0  0  0  0  0  0  0  0
   -1.7358    0.1531   -5.1133 C   0  0  0  0  0  0  0  0  0  0  0  0
   -2.9554   -0.5220   -5.1742 C   0  0  0  0  0  0  0  0  0  0  0  0
   -3.0177   -1.8911   -4.9051 C   0  0  0  0  0  0  0  0  0  0  0  0
   -1.9036   -3.6570   -4.3609 H   0  0  0  0  0  0  0  0  0  0  0  0
    0.2863   -2.4528   -4.2525 H   0  0  0  0  0  0  0  0  0  0  0  0
   -1.6644    1.2151   -5.3164 H   0  0  0  0  0  0  0  0  0  0  0  0
   -3.8569    0.0254   -5.4311 H   0  0  0  0  0  0  0  0  0  0  0  0
    5.6450    6.5688   -9.0429 N   0  0  0  0  0  0  0  0  0  0  0  0
    6.5040    7.1134   -9.4754 N   0  0  0  0  0  0  0  0  0  0  0  0
    1.5702    0.4257   -5.9503 S   0  0  0  0  0  0  0  0  0  0  0  0
    1.5301    2.2888   -5.8173 C   0  0  0  0  0  0  0  0  0  0  0  0
    0.6407    0.1033   -4.6295 O   0  0  0  0  0  0  0  0  0  0  0  0
    2.9262    0.0093   -5.6455 O   0  0  0  0  0  0  0  0  0  0  0  0
    0.8780    0.0488   -7.1714 O   0  0  0  0  0  0  0  0  0  0  0  0
    0.2763    2.7250   -5.9686 F   0  0  0  0  0  0  0  0  0  0  0  0
    1.9947    2.6686   -4.6319 F   0  0  0  0  0  0  0  0  0  0  0  0
    2.2929    2.7897   -6.7862 F   0  0  0  0  0  0  0  0  0  0  0  0
   -3.9703   -2.4099   -4.9525 H   0  0  0  0  0  0  0  0  0  0  0  0
  1  2  1  0  0  0  0
  1  7  1  0  0  0  0
  2  8  1  0  0  0  0
  3 15  1  0  0  0  0
  3  2  2  0  0  0  0
  4  3  1  0  0  0  0
  5  4  2  0  0  0  0
  5  6  1  0  0  0  0
  6  1  2  0  0  0  0
  9  4  1  0  0  0  0
 10  5  1  0  0  0  0
 12 11  3  0  0  0  0
 13 14  1  0  0  0  0
 13 16  2  0  0  0  0
 13 15  1  0  0  0  0
 14 19  1  0  0  0  0
 17 13  2  0  0  0  0
 18 14  1  0  0  0  0
 20 14  1  0  0  0  0
 21  6  1  0  0  0  0
M  END
