Coordinates from ORCA-job Ph-N2-OTf-B3LYPG-6-31G_dp-MTMO-d009-169-n800
 OpenBabel09051908113D

 21 19  0  0  0  0  0  0  0  0999 V2000
   -1.6988   -1.3165   -5.5053 C   0  0  0  0  0  0  0  0  0  0  0  0
   -0.7024   -0.3399   -5.2677 C   0  0  0  0  0  0  0  0  0  0  0  0
   -1.1252    0.8504   -5.2909 C   0  0  0  0  0  0  0  0  0  0  0  0
   -2.2859    1.5369   -5.4793 C   0  0  0  0  0  0  0  0  0  0  0  0
   -3.2825    0.5574   -5.7181 C   0  0  0  0  0  0  0  0  0  0  0  0
   -2.9943   -0.8187   -5.7296 C   0  0  0  0  0  0  0  0  0  0  0  0
   -1.4918   -2.3824   -5.5165 H   0  0  0  0  0  0  0  0  0  0  0  0
    1.0592   -0.6214   -4.9431 H   0  0  0  0  0  0  0  0  0  0  0  0
   -2.4611    2.6035   -5.4583 H   0  0  0  0  0  0  0  0  0  0  0  0
   -4.2982    0.9002   -5.8975 H   0  0  0  0  0  0  0  0  0  0  0  0
    0.0303    4.0373   -4.6878 N   0  0  0  0  0  0  0  0  0  0  0  0
    0.9189    4.6434   -4.4352 N   0  0  0  0  0  0  0  0  0  0  0  0
    2.9321    0.4607   -5.1535 S   0  0  0  0  0  0  0  0  0  0  0  0
    3.2452    0.1361   -6.9609 C   0  0  0  0  0  0  0  0  0  0  0  0
    2.1266    1.6756   -5.0853 O   0  0  0  0  0  0  0  0  0  0  0  0
    4.2029    0.3284   -4.4683 O   0  0  0  0  0  0  0  0  0  0  0  0
    2.0413   -0.8204   -4.7997 O   0  0  0  0  0  0  0  0  0  0  0  0
    2.0756    0.0445   -7.6028 F   0  0  0  0  0  0  0  0  0  0  0  0
    3.9484    1.1499   -7.4652 F   0  0  0  0  0  0  0  0  0  0  0  0
    3.9239   -0.9984   -7.1138 F   0  0  0  0  0  0  0  0  0  0  0  0
   -3.8026   -1.5196   -5.9188 H   0  0  0  0  0  0  0  0  0  0  0  0
  1  2  2  0  0  0  0
  3  2  1  0  0  0  0
  4  9  1  0  0  0  0
  4  3  2  0  0  0  0
  5  4  1  0  0  0  0
  6  5  2  0  0  0  0
  6  1  1  0  0  0  0
  7  1  1  0  0  0  0
  8 17  1  0  0  0  0
 10  5  1  0  0  0  0
 11 12  3  0  0  0  0
 13 15  2  0  0  0  0
 13 17  1  0  0  0  0
 13 16  2  0  0  0  0
 14 13  1  0  0  0  0
 18 14  1  0  0  0  0
 19 14  1  0  0  0  0
 20 14  1  0  0  0  0
 21  6  1  0  0  0  0
M  RAD  2   2   2   3   2
M  END
