Coordinates from ORCA-job Ph-N2-OTf-B3LYPG-6-31G_dp-MTMO-d009-169-n800
 OpenBabel09051908113D

 21 19  0  0  0  0  0  0  0  0999 V2000
   -1.6311   -0.9746   -5.4669 C   0  0  0  0  0  0  0  0  0  0  0  0
   -0.6402   -0.0128   -5.1365 C   0  0  0  0  0  0  0  0  0  0  0  0
   -1.2102    1.1907   -5.1174 C   0  0  0  0  0  0  0  0  0  0  0  0
   -2.4333    1.7450   -5.3224 C   0  0  0  0  0  0  0  0  0  0  0  0
   -3.3579    0.7325   -5.6502 C   0  0  0  0  0  0  0  0  0  0  0  0
   -2.9544   -0.6056   -5.7173 C   0  0  0  0  0  0  0  0  0  0  0  0
   -1.3136   -2.0113   -5.5293 H   0  0  0  0  0  0  0  0  0  0  0  0
    0.4461   -0.2760   -4.9662 H   0  0  0  0  0  0  0  0  0  0  0  0
   -2.6849    2.7940   -5.2549 H   0  0  0  0  0  0  0  0  0  0  0  0
   -4.3850    1.0218   -5.8489 H   0  0  0  0  0  0  0  0  0  0  0  0
    0.0698    2.7022   -4.5460 N   0  0  0  0  0  0  0  0  0  0  0  0
    0.5401    3.6062   -4.1209 N   0  0  0  0  0  0  0  0  0  0  0  0
    2.7873    0.5799   -5.4411 S   0  0  0  0  0  0  0  0  0  0  0  0
    3.6067   -0.1367   -6.9460 C   0  0  0  0  0  0  0  0  0  0  0  0
    1.8478    1.5878   -6.0036 O   0  0  0  0  0  0  0  0  0  0  0  0
    3.8780    1.0887   -4.6055 O   0  0  0  0  0  0  0  0  0  0  0  0
    2.0521   -0.6060   -4.8712 O   0  0  0  0  0  0  0  0  0  0  0  0
    2.6848   -0.6533   -7.7764 F   0  0  0  0  0  0  0  0  0  0  0  0
    4.2838    0.8130   -7.6041 F   0  0  0  0  0  0  0  0  0  0  0  0
    4.4581   -1.1100   -6.6005 F   0  0  0  0  0  0  0  0  0  0  0  0
   -3.6822   -1.3686   -5.9722 H   0  0  0  0  0  0  0  0  0  0  0  0
  1  2  2  0  0  0  0
  2  3  1  0  0  0  0
  2  8  1  0  0  0  0
  4  9  1  0  0  0  0
  4  3  2  0  0  0  0
  5  4  1  0  0  0  0
  6  5  2  0  0  0  0
  6  1  1  0  0  0  0
  7  1  1  0  0  0  0
 10  5  1  0  0  0  0
 11 12  3  0  0  0  0
 13 17  2  0  0  0  0
 13 16  1  0  0  0  0
 14 20  1  0  0  0  0
 14 13  1  0  0  0  0
 15 13  2  0  0  0  0
 18 14  1  0  0  0  0
 19 14  1  0  0  0  0
 21  6  1  0  0  0  0
M  RAD  2   3   2  16   2
M  END
