Coordinates from ORCA-job Ph-N2-OTf-B3LYPG-6-31G_dp-MTMO-d009-169-n800
 OpenBabel09051908113D

 21 20  0  0  0  0  0  0  0  0999 V2000
   -1.8183   -2.5337   -4.5855 C   0  0  0  0  0  0  0  0  0  0  0  0
   -0.5878   -1.8775   -4.5291 C   0  0  0  0  0  0  0  0  0  0  0  0
   -0.5455   -0.5166   -4.8138 C   0  0  0  0  0  0  0  0  0  0  0  0
   -1.6847    0.2069   -5.1515 C   0  0  0  0  0  0  0  0  0  0  0  0
   -2.9070   -0.4635   -5.2077 C   0  0  0  0  0  0  0  0  0  0  0  0
   -2.9756   -1.8295   -4.9251 C   0  0  0  0  0  0  0  0  0  0  0  0
   -1.8700   -3.5946   -4.3615 H   0  0  0  0  0  0  0  0  0  0  0  0
    0.3248   -2.3988   -4.2614 H   0  0  0  0  0  0  0  0  0  0  0  0
   -1.6084    1.2666   -5.3650 H   0  0  0  0  0  0  0  0  0  0  0  0
   -3.8058    0.0851   -5.4716 H   0  0  0  0  0  0  0  0  0  0  0  0
    5.1808    6.1101   -8.7229 N   0  0  0  0  0  0  0  0  0  0  0  0
    6.0132    6.6720   -9.1844 N   0  0  0  0  0  0  0  0  0  0  0  0
    1.6234    0.4577   -5.9859 S   0  0  0  0  0  0  0  0  0  0  0  0
    1.5936    2.3220   -5.8684 C   0  0  0  0  0  0  0  0  0  0  0  0
    0.6908    0.1517   -4.6633 O   0  0  0  0  0  0  0  0  0  0  0  0
    2.9768    0.0361   -5.6764 O   0  0  0  0  0  0  0  0  0  0  0  0
    0.9302    0.0743   -7.2044 O   0  0  0  0  0  0  0  0  0  0  0  0
    0.3422    2.7637   -6.0240 F   0  0  0  0  0  0  0  0  0  0  0  0
    2.0596    2.7088   -4.6858 F   0  0  0  0  0  0  0  0  0  0  0  0
    2.3596    2.8107   -6.8409 F   0  0  0  0  0  0  0  0  0  0  0  0
   -3.9304   -2.3447   -4.9690 H   0  0  0  0  0  0  0  0  0  0  0  0
  1  2  1  0  0  0  0
  1  7  1  0  0  0  0
  2  8  1  0  0  0  0
  3 15  1  0  0  0  0
  3  2  2  0  0  0  0
  4  3  1  0  0  0  0
  5  4  2  0  0  0  0
  5  6  1  0  0  0  0
  6  1  2  0  0  0  0
  9  4  1  0  0  0  0
 10  5  1  0  0  0  0
 12 11  3  0  0  0  0
 13 14  1  0  0  0  0
 13 16  2  0  0  0  0
 13 15  1  0  0  0  0
 14 19  1  0  0  0  0
 17 13  2  0  0  0  0
 18 14  1  0  0  0  0
 20 14  1  0  0  0  0
 21  6  1  0  0  0  0
M  END
