Coordinates from ORCA-job Ph-N2-OTf-B3LYPG-6-31G_dp-MTMO-d009-169-n800
 OpenBabel09051908113D

 21 19  0  0  0  0  0  0  0  0999 V2000
   -1.4662   -0.9656   -5.5046 C   0  0  0  0  0  0  0  0  0  0  0  0
   -0.5614    0.0638   -5.0994 C   0  0  0  0  0  0  0  0  0  0  0  0
   -1.2268    1.1916   -5.1189 C   0  0  0  0  0  0  0  0  0  0  0  0
   -2.4484    1.7068   -5.3838 C   0  0  0  0  0  0  0  0  0  0  0  0
   -3.2836    0.6355   -5.7784 C   0  0  0  0  0  0  0  0  0  0  0  0
   -2.7921   -0.6748   -5.8326 C   0  0  0  0  0  0  0  0  0  0  0  0
   -1.0760   -1.9779   -5.5591 H   0  0  0  0  0  0  0  0  0  0  0  0
    0.5817   -0.1534   -4.8725 H   0  0  0  0  0  0  0  0  0  0  0  0
   -2.7637    2.7381   -5.3180 H   0  0  0  0  0  0  0  0  0  0  0  0
   -4.3136    0.8629   -6.0359 H   0  0  0  0  0  0  0  0  0  0  0  0
   -0.0089    2.9965   -4.3129 N   0  0  0  0  0  0  0  0  0  0  0  0
    0.6351    3.7879   -3.8917 N   0  0  0  0  0  0  0  0  0  0  0  0
    2.8429    0.6401   -5.3875 S   0  0  0  0  0  0  0  0  0  0  0  0
    3.3137   -0.2229   -6.9629 C   0  0  0  0  0  0  0  0  0  0  0  0
    2.0134    1.7799   -5.8274 O   0  0  0  0  0  0  0  0  0  0  0  0
    4.1007    0.9171   -4.6968 O   0  0  0  0  0  0  0  0  0  0  0  0
    1.9983   -0.4261   -4.6946 O   0  0  0  0  0  0  0  0  0  0  0  0
    2.2049   -0.5853   -7.6337 F   0  0  0  0  0  0  0  0  0  0  0  0
    4.0333    0.5927   -7.7415 F   0  0  0  0  0  0  0  0  0  0  0  0
    4.0319   -1.3216   -6.7066 F   0  0  0  0  0  0  0  0  0  0  0  0
   -3.4537   -1.4783   -6.1387 H   0  0  0  0  0  0  0  0  0  0  0  0
  1  2  2  0  0  0  0
  2  8  1  0  0  0  0
  3  2  1  0  0  0  0
  4  9  1  0  0  0  0
  4  3  2  0  0  0  0
  5  4  1  0  0  0  0
  6  5  2  0  0  0  0
  6  1  1  0  0  0  0
  7  1  1  0  0  0  0
 10  5  1  0  0  0  0
 11 12  3  0  0  0  0
 13 16  2  0  0  0  0
 13 17  1  0  0  0  0
 14 20  1  0  0  0  0
 14 13  1  0  0  0  0
 15 13  2  0  0  0  0
 18 14  1  0  0  0  0
 19 14  1  0  0  0  0
 21  6  1  0  0  0  0
M  RAD  2   3   2  17   2
M  END
