Coordinates from ORCA-job Ph-N2-OTf-B3LYPG-6-31G_dp-MTMO-d009-169-n800
 OpenBabel09051908113D

 21 21  0  0  1  0  0  0  0  0999 V2000
   -0.7812   -0.7955   -5.5516 C   0  0  0  0  0  0  0  0  0  0  0  0
   -0.0714    0.0198   -4.5317 C   0  0  2  0  0  0  0  0  0  0  0  0
   -0.7205    1.4066   -4.2366 C   0  0  0  0  0  0  0  0  0  0  0  0
   -1.8026    1.8485   -5.1633 C   0  0  0  0  0  0  0  0  0  0  0  0
   -2.3158    1.0317   -6.0996 C   0  0  0  0  0  0  0  0  0  0  0  0
   -1.8159   -0.3199   -6.2682 C   0  0  0  0  0  0  0  0  0  0  0  0
   -0.4209   -1.8105   -5.6822 H   0  0  0  0  0  0  0  0  0  0  0  0
    0.0219   -0.5130   -3.5796 H   0  0  0  0  0  0  0  0  0  0  0  0
   -2.1482    2.8675   -5.0192 H   0  0  0  0  0  0  0  0  0  0  0  0
   -3.1117    1.3859   -6.7468 H   0  0  0  0  0  0  0  0  0  0  0  0
   -0.4107    1.9315   -3.4691 N   0  0  0  0  0  0  0  0  0  0  0  0
   -0.0354    2.5504   -2.5484 N   0  0  0  0  0  0  0  0  0  0  0  0
    1.9868    0.9686   -6.1031 S   0  0  0  0  0  0  0  0  0  0  0  0
    2.5889   -0.4880   -7.1087 C   0  0  0  0  0  0  0  0  0  0  0  0
    0.9213    1.6153   -6.8545 O   0  0  0  0  0  0  0  0  0  0  0  0
    3.1761    1.6748   -5.6646 O   0  0  0  0  0  0  0  0  0  0  0  0
    1.4002    0.1759   -4.8116 O   0  0  0  0  0  0  0  0  0  0  0  0
    1.5629   -1.2659   -7.4629 F   0  0  0  0  0  0  0  0  0  0  0  0
    3.1806   -0.0134   -8.2035 F   0  0  0  0  0  0  0  0  0  0  0  0
    3.4591   -1.1993   -6.3970 F   0  0  0  0  0  0  0  0  0  0  0  0
   -2.3022   -0.9640   -6.9954 H   0  0  0  0  0  0  0  0  0  0  0  0
  1  2  1  0  0  0  0
  2  3  1  0  0  0  0
  2  8  1  1  0  0  0
  3 11  1  0  0  0  0
  4  9  1  0  0  0  0
  4  3  2  0  0  0  0
  5  4  1  0  0  0  0
  6  5  2  0  0  0  0
  6  1  1  0  0  0  0
  7  1  1  0  0  0  0
 10  5  1  0  0  0  0
 11 12  1  0  0  0  0
 13 16  2  0  0  0  0
 13 17  1  0  0  0  0
 14 20  1  0  0  0  0
 14 13  1  0  0  0  0
 15 13  2  0  0  0  0
 17  2  1  0  0  0  0
 18 14  1  0  0  0  0
 19 14  1  0  0  0  0
 21  6  1  0  0  0  0
M  RAD  3   1   2  11   2  12   3
M  END
