Coordinates from ORCA-job Ph-N2-OTf-B3LYPG-6-31G_dp-MTMO-d009-169-n800
 OpenBabel09051908113D

 21 20  0  0  0  0  0  0  0  0999 V2000
   -2.1179   -2.9199   -4.4405 C   0  0  0  0  0  0  0  0  0  0  0  0
   -0.8964   -2.2477   -4.3777 C   0  0  0  0  0  0  0  0  0  0  0  0
   -0.8783   -0.8766   -4.6115 C   0  0  0  0  0  0  0  0  0  0  0  0
   -2.0331   -0.1583   -4.9046 C   0  0  0  0  0  0  0  0  0  0  0  0
   -3.2463   -0.8443   -4.9674 C   0  0  0  0  0  0  0  0  0  0  0  0
   -3.2906   -2.2210   -4.7357 C   0  0  0  0  0  0  0  0  0  0  0  0
   -2.1507   -3.9892   -4.2561 H   0  0  0  0  0  0  0  0  0  0  0  0
    0.0277   -2.7649   -4.1435 H   0  0  0  0  0  0  0  0  0  0  0  0
   -1.9751    0.9097   -5.0792 H   0  0  0  0  0  0  0  0  0  0  0  0
   -4.1570   -0.2998   -5.1968 H   0  0  0  0  0  0  0  0  0  0  0  0
    8.3963    9.4266  -10.8403 N   0  0  0  0  0  0  0  0  0  0  0  0
    9.3594    9.9231  -11.0584 N   0  0  0  0  0  0  0  0  0  0  0  0
    1.2645    0.1608   -5.7770 S   0  0  0  0  0  0  0  0  0  0  0  0
    1.1987    2.0210   -5.6168 C   0  0  0  0  0  0  0  0  0  0  0  0
    0.3496   -0.1944   -4.4543 O   0  0  0  0  0  0  0  0  0  0  0  0
    2.6286   -0.2404   -5.4880 O   0  0  0  0  0  0  0  0  0  0  0  0
    0.5688   -0.2084   -6.9984 O   0  0  0  0  0  0  0  0  0  0  0  0
   -0.0621    2.4413   -5.7536 F   0  0  0  0  0  0  0  0  0  0  0  0
    1.6661    2.3907   -4.4294 F   0  0  0  0  0  0  0  0  0  0  0  0
    1.9476    2.5469   -6.5837 F   0  0  0  0  0  0  0  0  0  0  0  0
   -4.2383   -2.7485   -4.7846 H   0  0  0  0  0  0  0  0  0  0  0  0
  1  2  1  0  0  0  0
  1  7  1  0  0  0  0
  2  8  1  0  0  0  0
  3 15  1  0  0  0  0
  3  2  2  0  0  0  0
  4  3  1  0  0  0  0
  5  4  2  0  0  0  0
  5  6  1  0  0  0  0
  6  1  2  0  0  0  0
  9  4  1  0  0  0  0
 10  5  1  0  0  0  0
 12 11  3  0  0  0  0
 13 14  1  0  0  0  0
 13 16  2  0  0  0  0
 13 15  1  0  0  0  0
 14 19  1  0  0  0  0
 17 13  2  0  0  0  0
 18 14  1  0  0  0  0
 20 14  1  0  0  0  0
 21  6  1  0  0  0  0
M  END
