Coordinates from ORCA-job Ph-N2-OTf-B3LYPG-6-31G_dp-MTMO-d009-169-n800
 OpenBabel09051908113D

 21 20  0  0  0  0  0  0  0  0999 V2000
   -2.0079   -2.8000   -4.4972 C   0  0  0  0  0  0  0  0  0  0  0  0
   -0.7864   -2.1278   -4.4362 C   0  0  0  0  0  0  0  0  0  0  0  0
   -0.7676   -0.7581   -4.6786 C   0  0  0  0  0  0  0  0  0  0  0  0
   -1.9215   -0.0414   -4.9786 C   0  0  0  0  0  0  0  0  0  0  0  0
   -3.1348   -0.7277   -5.0397 C   0  0  0  0  0  0  0  0  0  0  0  0
   -3.1798   -2.1028   -4.7993 C   0  0  0  0  0  0  0  0  0  0  0  0
   -2.0413   -3.8681   -4.3060 H   0  0  0  0  0  0  0  0  0  0  0  0
    0.1371   -2.6436   -4.1969 H   0  0  0  0  0  0  0  0  0  0  0  0
   -1.8630    1.0254   -5.1598 H   0  0  0  0  0  0  0  0  0  0  0  0
   -4.0449   -0.1844   -5.2744 H   0  0  0  0  0  0  0  0  0  0  0  0
    7.3437    8.3096  -10.1881 N   0  0  0  0  0  0  0  0  0  0  0  0
    8.2976    8.8199  -10.4143 N   0  0  0  0  0  0  0  0  0  0  0  0
    1.3762    0.2752   -5.8465 S   0  0  0  0  0  0  0  0  0  0  0  0
    1.3111    2.1359   -5.6923 C   0  0  0  0  0  0  0  0  0  0  0  0
    0.4604   -0.0757   -4.5232 O   0  0  0  0  0  0  0  0  0  0  0  0
    2.7399   -0.1254   -5.5551 O   0  0  0  0  0  0  0  0  0  0  0  0
    0.6810   -0.0977   -7.0671 O   0  0  0  0  0  0  0  0  0  0  0  0
    0.0506    2.5565   -5.8315 F   0  0  0  0  0  0  0  0  0  0  0  0
    1.7777    2.5091   -4.5057 F   0  0  0  0  0  0  0  0  0  0  0  0
    2.0610    2.6584   -6.6602 F   0  0  0  0  0  0  0  0  0  0  0  0
   -4.1275   -2.6304   -4.8468 H   0  0  0  0  0  0  0  0  0  0  0  0
  1  2  1  0  0  0  0
  1  7  1  0  0  0  0
  2  8  1  0  0  0  0
  3 15  1  0  0  0  0
  3  2  2  0  0  0  0
  4  3  1  0  0  0  0
  5  4  2  0  0  0  0
  5  6  1  0  0  0  0
  6  1  2  0  0  0  0
  9  4  1  0  0  0  0
 10  5  1  0  0  0  0
 12 11  3  0  0  0  0
 13 14  1  0  0  0  0
 13 16  2  0  0  0  0
 13 15  1  0  0  0  0
 14 19  1  0  0  0  0
 17 13  2  0  0  0  0
 18 14  1  0  0  0  0
 20 14  1  0  0  0  0
 21  6  1  0  0  0  0
M  END
