Coordinates from ORCA-job Ph-N2-OTf-B3LYPG-6-31G_dp-MTMO-d009-169-n800
 OpenBabel09051908113D

 21 20  0  0  0  0  0  0  0  0999 V2000
   -1.8877   -1.7724   -5.3908 C   0  0  0  0  0  0  0  0  0  0  0  0
   -0.5495   -1.5612   -5.0557 C   0  0  0  0  0  0  0  0  0  0  0  0
   -0.1384   -0.2646   -4.7607 C   0  0  0  0  0  0  0  0  0  0  0  0
   -1.0171    0.8148   -4.7768 C   0  0  0  0  0  0  0  0  0  0  0  0
   -2.3535    0.5852   -5.1046 C   0  0  0  0  0  0  0  0  0  0  0  0
   -2.7886   -0.7054   -5.4146 C   0  0  0  0  0  0  0  0  0  0  0  0
   -2.2253   -2.7761   -5.6297 H   0  0  0  0  0  0  0  0  0  0  0  0
    0.1635   -2.3763   -5.0274 H   0  0  0  0  0  0  0  0  0  0  0  0
   -0.6511    1.8058   -4.5312 H   0  0  0  0  0  0  0  0  0  0  0  0
   -3.0519    1.4162   -5.1180 H   0  0  0  0  0  0  0  0  0  0  0  0
    1.4049    4.4513   -7.6183 N   0  0  0  0  0  0  0  0  0  0  0  0
    0.9319    5.3176   -8.1152 N   0  0  0  0  0  0  0  0  0  0  0  0
    2.4401   -0.1064   -5.3910 S   0  0  0  0  0  0  0  0  0  0  0  0
    2.2532    1.5495   -6.2475 C   0  0  0  0  0  0  0  0  0  0  0  0
    1.1858   -0.0146   -4.3352 O   0  0  0  0  0  0  0  0  0  0  0  0
    3.6321   -0.0435   -4.5698 O   0  0  0  0  0  0  0  0  0  0  0  0
    2.2108   -1.1366   -6.3904 O   0  0  0  0  0  0  0  0  0  0  0  0
    1.1707    1.5229   -7.0251 F   0  0  0  0  0  0  0  0  0  0  0  0
    2.1247    2.5107   -5.3343 F   0  0  0  0  0  0  0  0  0  0  0  0
    3.3354    1.7696   -6.9877 F   0  0  0  0  0  0  0  0  0  0  0  0
   -3.8283   -0.8796   -5.6735 H   0  0  0  0  0  0  0  0  0  0  0  0
  1  2  1  0  0  0  0
  2  8  1  0  0  0  0
  2  3  2  0  0  0  0
  3 15  1  0  0  0  0
  4  3  1  0  0  0  0
  4  9  1  0  0  0  0
  5  4  2  0  0  0  0
  6  1  2  0  0  0  0
  6  5  1  0  0  0  0
  7  1  1  0  0  0  0
 10  5  1  0  0  0  0
 12 11  3  0  0  0  0
 13 16  2  0  0  0  0
 13 15  1  0  0  0  0
 14 13  1  0  0  0  0
 14 19  1  0  0  0  0
 17 13  2  0  0  0  0
 18 14  1  0  0  0  0
 20 14  1  0  0  0  0
 21  6  1  0  0  0  0
M  END
