Coordinates from ORCA-job Ph-N2-OTf-B3LYPG-6-31G_dp-MTMO-d009-169-n800
 OpenBabel09051908113D

 21 20  0  0  0  0  0  0  0  0999 V2000
   -1.8535   -1.5500   -4.7791 C   0  0  0  0  0  0  0  0  0  0  0  0
   -0.5705   -1.0552   -4.5407 C   0  0  0  0  0  0  0  0  0  0  0  0
   -0.2257    0.1798   -5.0820 C   0  0  0  0  0  0  0  0  0  0  0  0
   -1.1184    0.9362   -5.8357 C   0  0  0  0  0  0  0  0  0  0  0  0
   -2.4005    0.4316   -6.0557 C   0  0  0  0  0  0  0  0  0  0  0  0
   -2.7675   -0.8103   -5.5327 C   0  0  0  0  0  0  0  0  0  0  0  0
   -2.1374   -2.5143   -4.3701 H   0  0  0  0  0  0  0  0  0  0  0  0
    0.1506   -1.6130   -3.9550 H   0  0  0  0  0  0  0  0  0  0  0  0
   -0.8086    1.8987   -6.2252 H   0  0  0  0  0  0  0  0  0  0  0  0
   -3.1109    1.0112   -6.6372 H   0  0  0  0  0  0  0  0  0  0  0  0
    0.6080    4.2467   -5.4054 N   0  0  0  0  0  0  0  0  0  0  0  0
    1.0368    4.9699   -4.6883 N   0  0  0  0  0  0  0  0  0  0  0  0
    2.4165    0.1212   -5.4067 S   0  0  0  0  0  0  0  0  0  0  0  0
    2.5179    1.0773   -7.0101 C   0  0  0  0  0  0  0  0  0  0  0  0
    1.0321    0.7580   -4.7940 O   0  0  0  0  0  0  0  0  0  0  0  0
    3.4800    0.6056   -4.5495 O   0  0  0  0  0  0  0  0  0  0  0  0
    2.2403   -1.2794   -5.7519 O   0  0  0  0  0  0  0  0  0  0  0  0
    1.4426    0.8171   -7.7554 F   0  0  0  0  0  0  0  0  0  0  0  0
    2.5790    2.3821   -6.7547 F   0  0  0  0  0  0  0  0  0  0  0  0
    3.6157    0.6937   -7.6576 F   0  0  0  0  0  0  0  0  0  0  0  0
   -3.7650   -1.1999   -5.7106 H   0  0  0  0  0  0  0  0  0  0  0  0
  1  2  1  0  0  0  0
  1  7  1  0  0  0  0
  2  8  1  0  0  0  0
  3 15  1  0  0  0  0
  3  2  2  0  0  0  0
  4  3  1  0  0  0  0
  5  4  2  0  0  0  0
  5  6  1  0  0  0  0
  6  1  2  0  0  0  0
  9  4  1  0  0  0  0
 10  5  1  0  0  0  0
 11 12  3  0  0  0  0
 13 15  1  0  0  0  0
 13 16  2  0  0  0  0
 14 19  1  0  0  0  0
 14 13  1  0  0  0  0
 17 13  2  0  0  0  0
 18 14  1  0  0  0  0
 20 14  1  0  0  0  0
 21  6  1  0  0  0  0
M  END
