Coordinates from ORCA-job Ph-N2-OTf-B3LYPG-6-31G_dp-MTMO-d009-169-n800
 OpenBabel09051908113D

 21 20  0  0  0  0  0  0  0  0999 V2000
   -2.1507   -2.9546   -4.4225 C   0  0  0  0  0  0  0  0  0  0  0  0
   -0.9291   -2.2828   -4.3597 C   0  0  0  0  0  0  0  0  0  0  0  0
   -0.9109   -0.9114   -4.5917 C   0  0  0  0  0  0  0  0  0  0  0  0
   -2.0656   -0.1924   -4.8830 C   0  0  0  0  0  0  0  0  0  0  0  0
   -3.2791   -0.8781   -4.9459 C   0  0  0  0  0  0  0  0  0  0  0  0
   -3.3235   -2.2551   -4.7159 C   0  0  0  0  0  0  0  0  0  0  0  0
   -2.1836   -4.0242   -4.2394 H   0  0  0  0  0  0  0  0  0  0  0  0
   -0.0049   -2.8006   -4.1269 H   0  0  0  0  0  0  0  0  0  0  0  0
   -2.0075    0.8758   -5.0563 H   0  0  0  0  0  0  0  0  0  0  0  0
   -4.1898   -0.3331   -5.1738 H   0  0  0  0  0  0  0  0  0  0  0  0
    8.7069    9.7543  -11.0293 N   0  0  0  0  0  0  0  0  0  0  0  0
    9.6697   10.2517  -11.2467 N   0  0  0  0  0  0  0  0  0  0  0  0
    1.2318    0.1261   -5.7575 S   0  0  0  0  0  0  0  0  0  0  0  0
    1.1662    1.9862   -5.5965 C   0  0  0  0  0  0  0  0  0  0  0  0
    0.3174   -0.2297   -4.4347 O   0  0  0  0  0  0  0  0  0  0  0  0
    2.5960   -0.2752   -5.4691 O   0  0  0  0  0  0  0  0  0  0  0  0
    0.5357   -0.2425   -6.9788 O   0  0  0  0  0  0  0  0  0  0  0  0
   -0.0947    2.4067   -5.7327 F   0  0  0  0  0  0  0  0  0  0  0  0
    1.6339    2.3555   -4.4090 F   0  0  0  0  0  0  0  0  0  0  0  0
    1.9148    2.5126   -6.5633 F   0  0  0  0  0  0  0  0  0  0  0  0
   -4.2714   -2.7823   -4.7647 H   0  0  0  0  0  0  0  0  0  0  0  0
  1  2  1  0  0  0  0
  1  7  1  0  0  0  0
  2  8  1  0  0  0  0
  3 15  1  0  0  0  0
  3  2  2  0  0  0  0
  4  3  1  0  0  0  0
  5  4  2  0  0  0  0
  5  6  1  0  0  0  0
  6  1  2  0  0  0  0
  9  4  1  0  0  0  0
 10  5  1  0  0  0  0
 12 11  3  0  0  0  0
 13 14  1  0  0  0  0
 13 16  2  0  0  0  0
 13 15  1  0  0  0  0
 14 19  1  0  0  0  0
 17 13  2  0  0  0  0
 18 14  1  0  0  0  0
 20 14  1  0  0  0  0
 21  6  1  0  0  0  0
M  END
