Coordinates from ORCA-job Ph-N2-OTf-B3LYPG-6-31G_dp-MTMO-d009-169-n800
 OpenBabel09051908113D

 21 20  0  0  0  0  0  0  0  0999 V2000
   -1.8861   -1.8497   -5.3472 C   0  0  0  0  0  0  0  0  0  0  0  0
   -0.5481   -1.5966   -5.0416 C   0  0  0  0  0  0  0  0  0  0  0  0
   -0.1717   -0.2878   -4.7546 C   0  0  0  0  0  0  0  0  0  0  0  0
   -1.0841    0.7633   -4.7505 C   0  0  0  0  0  0  0  0  0  0  0  0
   -2.4196    0.4919   -5.0485 C   0  0  0  0  0  0  0  0  0  0  0  0
   -2.8204   -0.8117   -5.3500 C   0  0  0  0  0  0  0  0  0  0  0  0
   -2.1970   -2.8635   -5.5799 H   0  0  0  0  0  0  0  0  0  0  0  0
    0.1906   -2.3890   -5.0303 H   0  0  0  0  0  0  0  0  0  0  0  0
   -0.7442    1.7653   -4.5119 H   0  0  0  0  0  0  0  0  0  0  0  0
   -3.1440    1.3004   -5.0457 H   0  0  0  0  0  0  0  0  0  0  0  0
    1.7194    4.5585   -7.7166 N   0  0  0  0  0  0  0  0  0  0  0  0
    1.4688    5.4937   -8.2491 N   0  0  0  0  0  0  0  0  0  0  0  0
    2.3877   -0.0528   -5.4401 S   0  0  0  0  0  0  0  0  0  0  0  0
    2.1793    1.6230   -6.2524 C   0  0  0  0  0  0  0  0  0  0  0  0
    1.1528    0.0048   -4.3589 O   0  0  0  0  0  0  0  0  0  0  0  0
    3.5952   -0.0021   -4.6408 O   0  0  0  0  0  0  0  0  0  0  0  0
    2.1448   -1.0593   -6.4602 O   0  0  0  0  0  0  0  0  0  0  0  0
    1.0714    1.6219   -6.9936 F   0  0  0  0  0  0  0  0  0  0  0  0
    2.0884    2.5652   -5.3158 F   0  0  0  0  0  0  0  0  0  0  0  0
    3.2383    1.8502   -7.0236 F   0  0  0  0  0  0  0  0  0  0  0  0
   -3.8597   -1.0188   -5.5859 H   0  0  0  0  0  0  0  0  0  0  0  0
  1  2  1  0  0  0  0
  2  8  1  0  0  0  0
  2  3  2  0  0  0  0
  3  4  1  0  0  0  0
  3 15  1  0  0  0  0
  4  9  1  0  0  0  0
  5 10  1  0  0  0  0
  5  4  2  0  0  0  0
  6  1  2  0  0  0  0
  6  5  1  0  0  0  0
  7  1  1  0  0  0  0
 12 11  3  0  0  0  0
 13 16  2  0  0  0  0
 13 15  1  0  0  0  0
 14 13  1  0  0  0  0
 14 19  1  0  0  0  0
 17 13  2  0  0  0  0
 18 14  1  0  0  0  0
 20 14  1  0  0  0  0
 21  6  1  0  0  0  0
M  END
