Coordinates from ORCA-job Ph-N2-OTf-B3LYPG-6-31G_dp-MTMO-d009-169-n800
 OpenBabel09051908113D

 21 20  0  0  0  0  0  0  0  0999 V2000
   -1.7626   -2.4023   -4.5423 C   0  0  0  0  0  0  0  0  0  0  0  0
   -0.5239   -1.7596   -4.5201 C   0  0  0  0  0  0  0  0  0  0  0  0
   -0.4658   -0.4150   -4.8713 C   0  0  0  0  0  0  0  0  0  0  0  0
   -1.5964    0.3056   -5.2423 C   0  0  0  0  0  0  0  0  0  0  0  0
   -2.8273   -0.3511   -5.2628 C   0  0  0  0  0  0  0  0  0  0  0  0
   -2.9119   -1.7009   -4.9136 C   0  0  0  0  0  0  0  0  0  0  0  0
   -1.8269   -3.4502   -4.2672 H   0  0  0  0  0  0  0  0  0  0  0  0
    0.3830   -2.2785   -4.2292 H   0  0  0  0  0  0  0  0  0  0  0  0
   -1.5064    1.3523   -5.5079 H   0  0  0  0  0  0  0  0  0  0  0  0
   -3.7199    0.1949   -5.5515 H   0  0  0  0  0  0  0  0  0  0  0  0
    4.3518    5.3512   -8.0255 N   0  0  0  0  0  0  0  0  0  0  0  0
    5.0510    6.0779   -8.4778 N   0  0  0  0  0  0  0  0  0  0  0  0
    1.7170    0.4599   -6.0954 S   0  0  0  0  0  0  0  0  0  0  0  0
    1.7520    2.3282   -6.0584 C   0  0  0  0  0  0  0  0  0  0  0  0
    0.7783    0.2469   -4.7583 O   0  0  0  0  0  0  0  0  0  0  0  0
    3.0565    0.0042   -5.7728 O   0  0  0  0  0  0  0  0  0  0  0  0
    1.0055    0.0479   -7.2940 O   0  0  0  0  0  0  0  0  0  0  0  0
    0.5152    2.8036   -6.2306 F   0  0  0  0  0  0  0  0  0  0  0  0
    2.2341    2.7487   -4.8940 F   0  0  0  0  0  0  0  0  0  0  0  0
    2.5314    2.7489   -7.0520 F   0  0  0  0  0  0  0  0  0  0  0  0
   -3.8731   -2.2056   -4.9303 H   0  0  0  0  0  0  0  0  0  0  0  0
  1  2  1  0  0  0  0
  1  7  1  0  0  0  0
  2  8  1  0  0  0  0
  3 15  1  0  0  0  0
  3  2  2  0  0  0  0
  4  3  1  0  0  0  0
  5  4  2  0  0  0  0
  5  6  1  0  0  0  0
  6  1  2  0  0  0  0
  9  4  1  0  0  0  0
 10  5  1  0  0  0  0
 12 11  3  0  0  0  0
 13 14  1  0  0  0  0
 13 16  2  0  0  0  0
 13 15  1  0  0  0  0
 14 19  1  0  0  0  0
 17 13  2  0  0  0  0
 18 14  1  0  0  0  0
 20 14  1  0  0  0  0
 21  6  1  0  0  0  0
M  END
