Coordinates from ORCA-job Ph-N2-OTf-B3LYPG-6-31G_dp-MTMO-d009-169-n800
 OpenBabel09051908113D

 21 20  0  0  0  0  0  0  0  0999 V2000
   -1.8519   -2.0809   -5.1031 C   0  0  0  0  0  0  0  0  0  0  0  0
   -0.5365   -1.6578   -4.9073 C   0  0  0  0  0  0  0  0  0  0  0  0
   -0.2920   -0.2941   -4.7737 C   0  0  0  0  0  0  0  0  0  0  0  0
   -1.3135    0.6501   -4.8176 C   0  0  0  0  0  0  0  0  0  0  0  0
   -2.6245    0.2100   -5.0029 C   0  0  0  0  0  0  0  0  0  0  0  0
   -2.8940   -1.1525   -5.1494 C   0  0  0  0  0  0  0  0  0  0  0  0
   -2.0600   -3.1405   -5.2159 H   0  0  0  0  0  0  0  0  0  0  0  0
    0.2839   -2.3642   -4.8631 H   0  0  0  0  0  0  0  0  0  0  0  0
   -1.0766    1.7020   -4.7015 H   0  0  0  0  0  0  0  0  0  0  0  0
   -3.4330    0.9338   -5.0344 H   0  0  0  0  0  0  0  0  0  0  0  0
    2.6677    5.0152   -7.7025 N   0  0  0  0  0  0  0  0  0  0  0  0
    2.9686    5.9682   -8.1739 N   0  0  0  0  0  0  0  0  0  0  0  0
    2.2030    0.0940   -5.6198 S   0  0  0  0  0  0  0  0  0  0  0  0
    2.0050    1.7873   -6.3916 C   0  0  0  0  0  0  0  0  0  0  0  0
    1.0113    0.1718   -4.4891 O   0  0  0  0  0  0  0  0  0  0  0  0
    3.4479    0.1033   -4.8778 O   0  0  0  0  0  0  0  0  0  0  0  0
    1.8878   -0.8893   -6.6425 O   0  0  0  0  0  0  0  0  0  0  0  0
    0.7905    1.8903   -6.9345 F   0  0  0  0  0  0  0  0  0  0  0  0
    2.1601    2.7257   -5.4626 F   0  0  0  0  0  0  0  0  0  0  0  0
    2.9327    1.9250   -7.3358 F   0  0  0  0  0  0  0  0  0  0  0  0
   -3.9148   -1.4906   -5.2985 H   0  0  0  0  0  0  0  0  0  0  0  0
  1  2  1  0  0  0  0
  2  8  1  0  0  0  0
  2  3  2  0  0  0  0
  3 15  1  0  0  0  0
  4  3  1  0  0  0  0
  4  9  1  0  0  0  0
  5  4  2  0  0  0  0
  6  1  2  0  0  0  0
  6  5  1  0  0  0  0
  7  1  1  0  0  0  0
 10  5  1  0  0  0  0
 12 11  3  0  0  0  0
 13 16  2  0  0  0  0
 13 15  1  0  0  0  0
 14 13  1  0  0  0  0
 14 19  1  0  0  0  0
 17 13  2  0  0  0  0
 18 14  1  0  0  0  0
 20 14  1  0  0  0  0
 21  6  1  0  0  0  0
M  END
