Coordinates from ORCA-job Ph-N2-OTf-B3LYPG-6-31G_dp-MTMO-d009-169-n800
 OpenBabel09051908113D

 21 20  0  0  0  0  0  0  0  0999 V2000
   -1.8137   -2.1602   -4.9655 C   0  0  0  0  0  0  0  0  0  0  0  0
   -0.5157   -1.6666   -4.8277 C   0  0  0  0  0  0  0  0  0  0  0  0
   -0.3310   -0.2876   -4.7895 C   0  0  0  0  0  0  0  0  0  0  0  0
   -1.3950    0.6054   -4.8742 C   0  0  0  0  0  0  0  0  0  0  0  0
   -2.6878    0.0960   -5.0017 C   0  0  0  0  0  0  0  0  0  0  0  0
   -2.8976   -1.2838   -5.0506 C   0  0  0  0  0  0  0  0  0  0  0  0
   -1.9755   -3.2333   -5.0017 H   0  0  0  0  0  0  0  0  0  0  0  0
    0.3369   -2.3314   -4.7533 H   0  0  0  0  0  0  0  0  0  0  0  0
   -1.2046    1.6723   -4.8354 H   0  0  0  0  0  0  0  0  0  0  0  0
   -3.5289    0.7794   -5.0643 H   0  0  0  0  0  0  0  0  0  0  0  0
    3.1125    5.1288   -7.6025 N   0  0  0  0  0  0  0  0  0  0  0  0
    3.6453    6.0410   -7.9267 N   0  0  0  0  0  0  0  0  0  0  0  0
    2.1158    0.1769   -5.7280 S   0  0  0  0  0  0  0  0  0  0  0  0
    1.8630    1.8579   -6.5095 C   0  0  0  0  0  0  0  0  0  0  0  0
    0.9564    0.2491   -4.5629 O   0  0  0  0  0  0  0  0  0  0  0  0
    3.3840    0.2175   -5.0272 O   0  0  0  0  0  0  0  0  0  0  0  0
    1.7858   -0.8239   -6.7287 O   0  0  0  0  0  0  0  0  0  0  0  0
    0.6249    1.9389   -7.0018 F   0  0  0  0  0  0  0  0  0  0  0  0
    2.0443    2.8090   -5.5987 F   0  0  0  0  0  0  0  0  0  0  0  0
    2.7473    1.9972   -7.4941 F   0  0  0  0  0  0  0  0  0  0  0  0
   -3.9047   -1.6759   -5.1536 H   0  0  0  0  0  0  0  0  0  0  0  0
  1  2  2  0  0  0  0
  2  3  1  0  0  0  0
  2  8  1  0  0  0  0
  3 15  1  0  0  0  0
  4  9  1  0  0  0  0
  4  3  2  0  0  0  0
  5  4  1  0  0  0  0
  6  5  2  0  0  0  0
  6  1  1  0  0  0  0
  7  1  1  0  0  0  0
 10  5  1  0  0  0  0
 12 11  3  0  0  0  0
 13 16  2  0  0  0  0
 13 15  1  0  0  0  0
 14 13  1  0  0  0  0
 14 19  1  0  0  0  0
 17 13  2  0  0  0  0
 18 14  1  0  0  0  0
 20 14  1  0  0  0  0
 21  6  1  0  0  0  0
M  END
