Coordinates from ORCA-job Ph-N2-OTf-B3LYPG-6-31G_dp-MTMO-d009-169-n800
 OpenBabel09051908113D

 21 20  0  0  0  0  0  0  0  0999 V2000
   -1.9441   -2.7187   -4.5292 C   0  0  0  0  0  0  0  0  0  0  0  0
   -0.7209   -2.0495   -4.4686 C   0  0  0  0  0  0  0  0  0  0  0  0
   -0.6971   -0.6819   -4.7217 C   0  0  0  0  0  0  0  0  0  0  0  0
   -1.8478    0.0358   -5.0319 C   0  0  0  0  0  0  0  0  0  0  0  0
   -3.0627   -0.6474   -5.0925 C   0  0  0  0  0  0  0  0  0  0  0  0
   -3.1128   -2.0205   -4.8415 C   0  0  0  0  0  0  0  0  0  0  0  0
   -1.9814   -3.7852   -4.3298 H   0  0  0  0  0  0  0  0  0  0  0  0
    0.2001   -2.5661   -4.2216 H   0  0  0  0  0  0  0  0  0  0  0  0
   -1.7856    1.1010   -5.2212 H   0  0  0  0  0  0  0  0  0  0  0  0
   -3.9703   -0.1035   -5.3352 H   0  0  0  0  0  0  0  0  0  0  0  0
    6.6725    7.5871   -9.7250 N   0  0  0  0  0  0  0  0  0  0  0  0
    7.5763    8.1394  -10.0410 N   0  0  0  0  0  0  0  0  0  0  0  0
    1.4520    0.3402   -5.8895 S   0  0  0  0  0  0  0  0  0  0  0  0
    1.3951    2.2016   -5.7411 C   0  0  0  0  0  0  0  0  0  0  0  0
    0.5325   -0.0021   -4.5667 O   0  0  0  0  0  0  0  0  0  0  0  0
    2.8134   -0.0658   -5.5949 O   0  0  0  0  0  0  0  0  0  0  0  0
    0.7571   -0.0332   -7.1102 O   0  0  0  0  0  0  0  0  0  0  0  0
    0.1367    2.6275   -5.8838 F   0  0  0  0  0  0  0  0  0  0  0  0
    1.8611    2.5762   -4.5546 F   0  0  0  0  0  0  0  0  0  0  0  0
    2.1493    2.7177   -6.7091 F   0  0  0  0  0  0  0  0  0  0  0  0
   -4.0618   -2.5458   -4.8887 H   0  0  0  0  0  0  0  0  0  0  0  0
  1  2  1  0  0  0  0
  1  7  1  0  0  0  0
  2  8  1  0  0  0  0
  3 15  1  0  0  0  0
  3  2  2  0  0  0  0
  4  3  1  0  0  0  0
  5  4  2  0  0  0  0
  5  6  1  0  0  0  0
  6  1  2  0  0  0  0
  9  4  1  0  0  0  0
 10  5  1  0  0  0  0
 12 11  3  0  0  0  0
 13 14  1  0  0  0  0
 13 16  2  0  0  0  0
 13 15  1  0  0  0  0
 14 19  1  0  0  0  0
 17 13  2  0  0  0  0
 18 14  1  0  0  0  0
 20 14  1  0  0  0  0
 21  6  1  0  0  0  0
M  END
