Coordinates from ORCA-job Ph-N2-OTf-B3LYPG-6-31G_dp-MTMO-d009-169-n800
 OpenBabel09051908113D

 21 20  0  0  0  0  0  0  0  0999 V2000
   -1.9332   -2.7016   -4.5361 C   0  0  0  0  0  0  0  0  0  0  0  0
   -0.7093   -2.0339   -4.4746 C   0  0  0  0  0  0  0  0  0  0  0  0
   -0.6831   -0.6668   -4.7301 C   0  0  0  0  0  0  0  0  0  0  0  0
   -1.8323    0.0519   -5.0435 C   0  0  0  0  0  0  0  0  0  0  0  0
   -3.0481   -0.6298   -5.1050 C   0  0  0  0  0  0  0  0  0  0  0  0
   -3.1004   -2.0024   -4.8516 C   0  0  0  0  0  0  0  0  0  0  0  0
   -1.9723   -3.7676   -4.3348 H   0  0  0  0  0  0  0  0  0  0  0  0
    0.2107   -2.5513   -4.2251 H   0  0  0  0  0  0  0  0  0  0  0  0
   -1.7684    1.1167   -5.2346 H   0  0  0  0  0  0  0  0  0  0  0  0
   -3.9545   -0.0851   -5.3502 H   0  0  0  0  0  0  0  0  0  0  0  0
    6.5340    7.4457   -9.6329 N   0  0  0  0  0  0  0  0  0  0  0  0
    7.4256    8.0054   -9.9698 N   0  0  0  0  0  0  0  0  0  0  0  0
    1.4688    0.3512   -5.8962 S   0  0  0  0  0  0  0  0  0  0  0  0
    1.4148    2.2129   -5.7493 C   0  0  0  0  0  0  0  0  0  0  0  0
    0.5471    0.0115   -4.5743 O   0  0  0  0  0  0  0  0  0  0  0  0
    2.8292   -0.0568   -5.5996 O   0  0  0  0  0  0  0  0  0  0  0  0
    0.7748   -0.0220   -7.1174 O   0  0  0  0  0  0  0  0  0  0  0  0
    0.1572    2.6406   -5.8936 F   0  0  0  0  0  0  0  0  0  0  0  0
    1.8802    2.5877   -4.5626 F   0  0  0  0  0  0  0  0  0  0  0  0
    2.1708    2.7269   -6.7170 F   0  0  0  0  0  0  0  0  0  0  0  0
   -4.0501   -2.5264   -4.8995 H   0  0  0  0  0  0  0  0  0  0  0  0
  1  2  1  0  0  0  0
  1  7  1  0  0  0  0
  2  8  1  0  0  0  0
  3 15  1  0  0  0  0
  3  2  2  0  0  0  0
  4  3  1  0  0  0  0
  5  4  2  0  0  0  0
  5  6  1  0  0  0  0
  6  1  2  0  0  0  0
  9  4  1  0  0  0  0
 10  5  1  0  0  0  0
 12 11  3  0  0  0  0
 13 14  1  0  0  0  0
 13 16  2  0  0  0  0
 13 15  1  0  0  0  0
 14 19  1  0  0  0  0
 17 13  2  0  0  0  0
 18 14  1  0  0  0  0
 20 14  1  0  0  0  0
 21  6  1  0  0  0  0
M  END
