Coordinates from ORCA-job Ph-N2-OTf-B3LYPG-6-31G_dp-MTMO-d009-169-n800
 OpenBabel09051908113D

 21 20  0  0  0  0  0  0  0  0999 V2000
   -1.9528   -2.7329   -4.5227 C   0  0  0  0  0  0  0  0  0  0  0  0
   -0.7303   -2.0622   -4.4633 C   0  0  0  0  0  0  0  0  0  0  0  0
   -0.7086   -0.6943   -4.7148 C   0  0  0  0  0  0  0  0  0  0  0  0
   -1.8607    0.0224   -5.0220 C   0  0  0  0  0  0  0  0  0  0  0  0
   -3.0749   -0.6623   -5.0814 C   0  0  0  0  0  0  0  0  0  0  0  0
   -3.1228   -2.0357   -4.8320 C   0  0  0  0  0  0  0  0  0  0  0  0
   -1.9884   -3.7996   -4.3245 H   0  0  0  0  0  0  0  0  0  0  0  0
    0.1918   -2.5780   -4.2186 H   0  0  0  0  0  0  0  0  0  0  0  0
   -1.8001    1.0879   -5.2101 H   0  0  0  0  0  0  0  0  0  0  0  0
   -3.9835   -0.1191   -5.3217 H   0  0  0  0  0  0  0  0  0  0  0  0
    6.7864    7.7054   -9.8041 N   0  0  0  0  0  0  0  0  0  0  0  0
    7.7040    8.2495  -10.0932 N   0  0  0  0  0  0  0  0  0  0  0  0
    1.4376    0.3310   -5.8851 S   0  0  0  0  0  0  0  0  0  0  0  0
    1.3782    2.1924   -5.7359 C   0  0  0  0  0  0  0  0  0  0  0  0
    0.5204   -0.0130   -4.5612 O   0  0  0  0  0  0  0  0  0  0  0  0
    2.8000   -0.0731   -5.5925 O   0  0  0  0  0  0  0  0  0  0  0  0
    0.7416   -0.0429   -7.1049 O   0  0  0  0  0  0  0  0  0  0  0  0
    0.1191    2.6165   -5.8770 F   0  0  0  0  0  0  0  0  0  0  0  0
    1.8451    2.5672   -4.5498 F   0  0  0  0  0  0  0  0  0  0  0  0
    2.1306    2.7098   -6.7046 F   0  0  0  0  0  0  0  0  0  0  0  0
   -4.0713   -2.5621   -4.8782 H   0  0  0  0  0  0  0  0  0  0  0  0
  1  2  1  0  0  0  0
  1  7  1  0  0  0  0
  2  8  1  0  0  0  0
  3 15  1  0  0  0  0
  3  2  2  0  0  0  0
  4  3  1  0  0  0  0
  5  4  2  0  0  0  0
  5  6  1  0  0  0  0
  6  1  2  0  0  0  0
  9  4  1  0  0  0  0
 10  5  1  0  0  0  0
 12 11  3  0  0  0  0
 13 14  1  0  0  0  0
 13 16  2  0  0  0  0
 13 15  1  0  0  0  0
 14 19  1  0  0  0  0
 17 13  2  0  0  0  0
 18 14  1  0  0  0  0
 20 14  1  0  0  0  0
 21  6  1  0  0  0  0
M  END
