Coordinates from ORCA-job Ph-N2-OTf-B3LYPG-6-31G_dp-MTMO-d009-169-n800
 OpenBabel09051908113D

 21 20  0  0  0  0  0  0  0  0999 V2000
   -2.0134   -2.8068   -4.4945 C   0  0  0  0  0  0  0  0  0  0  0  0
   -0.7922   -2.1342   -4.4332 C   0  0  0  0  0  0  0  0  0  0  0  0
   -0.7737   -0.7644   -4.6750 C   0  0  0  0  0  0  0  0  0  0  0  0
   -1.9279   -0.0479   -4.9747 C   0  0  0  0  0  0  0  0  0  0  0  0
   -3.1410   -0.7345   -5.0361 C   0  0  0  0  0  0  0  0  0  0  0  0
   -3.1856   -2.1098   -4.7963 C   0  0  0  0  0  0  0  0  0  0  0  0
   -2.0465   -3.8750   -4.3038 H   0  0  0  0  0  0  0  0  0  0  0  0
    0.1315   -2.6498   -4.1941 H   0  0  0  0  0  0  0  0  0  0  0  0
   -1.8698    1.0190   -5.1555 H   0  0  0  0  0  0  0  0  0  0  0  0
   -4.0512   -0.1915   -5.2705 H   0  0  0  0  0  0  0  0  0  0  0  0
    7.4006    8.3701  -10.2246 N   0  0  0  0  0  0  0  0  0  0  0  0
    8.3561    8.8779  -10.4498 N   0  0  0  0  0  0  0  0  0  0  0  0
    1.3697    0.2696   -5.8426 S   0  0  0  0  0  0  0  0  0  0  0  0
    1.3051    2.1302   -5.6871 C   0  0  0  0  0  0  0  0  0  0  0  0
    0.4540   -0.0815   -4.5194 O   0  0  0  0  0  0  0  0  0  0  0  0
    2.7334   -0.1317   -5.5520 O   0  0  0  0  0  0  0  0  0  0  0  0
    0.6742   -0.1022   -7.0634 O   0  0  0  0  0  0  0  0  0  0  0  0
    0.0445    2.5511   -5.8255 F   0  0  0  0  0  0  0  0  0  0  0  0
    1.7722    2.5027   -4.5004 F   0  0  0  0  0  0  0  0  0  0  0  0
    2.0547    2.6532   -6.6550 F   0  0  0  0  0  0  0  0  0  0  0  0
   -4.1331   -2.6377   -4.8440 H   0  0  0  0  0  0  0  0  0  0  0  0
  1  2  1  0  0  0  0
  1  7  1  0  0  0  0
  2  8  1  0  0  0  0
  3 15  1  0  0  0  0
  3  2  2  0  0  0  0
  4  3  1  0  0  0  0
  5  4  2  0  0  0  0
  5  6  1  0  0  0  0
  6  1  2  0  0  0  0
  9  4  1  0  0  0  0
 10  5  1  0  0  0  0
 12 11  3  0  0  0  0
 13 14  1  0  0  0  0
 13 16  2  0  0  0  0
 13 15  1  0  0  0  0
 14 19  1  0  0  0  0
 17 13  2  0  0  0  0
 18 14  1  0  0  0  0
 20 14  1  0  0  0  0
 21  6  1  0  0  0  0
M  END
