Coordinates from ORCA-job Ph-N2-OTf-B3LYPG-6-31G_dp-MTMO-d009-169-n800
 OpenBabel09051908113D

 21 20  0  0  0  0  0  0  0  0999 V2000
   -1.8717   -2.0028   -5.1981 C   0  0  0  0  0  0  0  0  0  0  0  0
   -0.5457   -1.6377   -4.9617 C   0  0  0  0  0  0  0  0  0  0  0  0
   -0.2535   -0.2903   -4.7714 C   0  0  0  0  0  0  0  0  0  0  0  0
   -1.2383    0.6928   -4.7972 C   0  0  0  0  0  0  0  0  0  0  0  0
   -2.5607    0.3102   -5.0238 C   0  0  0  0  0  0  0  0  0  0  0  0
   -2.8776   -1.0346   -5.2280 C   0  0  0  0  0  0  0  0  0  0  0  0
   -2.1166   -3.0487   -5.3558 H   0  0  0  0  0  0  0  0  0  0  0  0
    0.2468   -2.3758   -4.9297 H   0  0  0  0  0  0  0  0  0  0  0  0
   -0.9648    1.7297   -4.6354 H   0  0  0  0  0  0  0  0  0  0  0  0
   -3.3409    1.0649   -5.0421 H   0  0  0  0  0  0  0  0  0  0  0  0
    2.2116    4.8180   -7.7508 N   0  0  0  0  0  0  0  0  0  0  0  0
    2.3863    5.7746   -8.2755 N   0  0  0  0  0  0  0  0  0  0  0  0
    2.2695    0.0367   -5.5572 S   0  0  0  0  0  0  0  0  0  0  0  0
    2.1259    1.7510   -6.2958 C   0  0  0  0  0  0  0  0  0  0  0  0
    1.0601    0.1159   -4.4461 O   0  0  0  0  0  0  0  0  0  0  0  0
    3.4998    0.0006   -4.7919 O   0  0  0  0  0  0  0  0  0  0  0  0
    1.9516   -0.9164   -6.6073 O   0  0  0  0  0  0  0  0  0  0  0  0
    0.9348    1.8871   -6.8802 F   0  0  0  0  0  0  0  0  0  0  0  0
    2.2613    2.6646   -5.3391 F   0  0  0  0  0  0  0  0  0  0  0  0
    3.0906    1.8948   -7.2011 F   0  0  0  0  0  0  0  0  0  0  0  0
   -3.9070   -1.3280   -5.4093 H   0  0  0  0  0  0  0  0  0  0  0  0
  1  2  1  0  0  0  0
  2  8  1  0  0  0  0
  2  3  2  0  0  0  0
  3 15  1  0  0  0  0
  4  3  1  0  0  0  0
  4  9  1  0  0  0  0
  5  4  2  0  0  0  0
  6  1  2  0  0  0  0
  6  5  1  0  0  0  0
  7  1  1  0  0  0  0
 10  5  1  0  0  0  0
 12 11  3  0  0  0  0
 13 16  2  0  0  0  0
 13 15  1  0  0  0  0
 14 13  1  0  0  0  0
 14 19  1  0  0  0  0
 17 13  2  0  0  0  0
 18 14  1  0  0  0  0
 20 14  1  0  0  0  0
 21  6  1  0  0  0  0
M  END
