Coordinates from ORCA-job Ph-N2-OTf-B3LYPG-6-31G_dp-MTMO-d009-169-n800
 OpenBabel09051908113D

 21 20  0  0  0  0  0  0  0  0999 V2000
   -1.7821   -2.4770   -4.5861 C   0  0  0  0  0  0  0  0  0  0  0  0
   -0.5495   -1.8242   -4.5387 C   0  0  0  0  0  0  0  0  0  0  0  0
   -0.5026   -0.4675   -4.8423 C   0  0  0  0  0  0  0  0  0  0  0  0
   -1.6393    0.2551   -5.1902 C   0  0  0  0  0  0  0  0  0  0  0  0
   -2.8639   -0.4118   -5.2372 C   0  0  0  0  0  0  0  0  0  0  0  0
   -2.9371   -1.7736   -4.9355 C   0  0  0  0  0  0  0  0  0  0  0  0
   -1.8374   -3.5344   -4.3475 H   0  0  0  0  0  0  0  0  0  0  0  0
    0.3614   -2.3447   -4.2639 H   0  0  0  0  0  0  0  0  0  0  0  0
   -1.5593    1.3114   -5.4184 H   0  0  0  0  0  0  0  0  0  0  0  0
   -3.7608    0.1360   -5.5088 H   0  0  0  0  0  0  0  0  0  0  0  0
    4.7645    5.6815   -8.4156 N   0  0  0  0  0  0  0  0  0  0  0  0
    5.5593    6.2858   -8.8897 N   0  0  0  0  0  0  0  0  0  0  0  0
    1.6686    0.4853   -6.0284 S   0  0  0  0  0  0  0  0  0  0  0  0
    1.6546    2.3508   -5.9262 C   0  0  0  0  0  0  0  0  0  0  0  0
    0.7359    0.1989   -4.7013 O   0  0  0  0  0  0  0  0  0  0  0  0
    3.0191    0.0544   -5.7186 O   0  0  0  0  0  0  0  0  0  0  0  0
    0.9695    0.0974   -7.2422 O   0  0  0  0  0  0  0  0  0  0  0  0
    0.4065    2.8010   -6.0847 F   0  0  0  0  0  0  0  0  0  0  0  0
    2.1242    2.7431   -4.7469 F   0  0  0  0  0  0  0  0  0  0  0  0
    2.4240    2.8255   -6.9028 F   0  0  0  0  0  0  0  0  0  0  0  0
   -3.8936   -2.2862   -4.9724 H   0  0  0  0  0  0  0  0  0  0  0  0
  1  2  1  0  0  0  0
  1  7  1  0  0  0  0
  2  8  1  0  0  0  0
  3 15  1  0  0  0  0
  3  2  2  0  0  0  0
  4  3  1  0  0  0  0
  5  4  2  0  0  0  0
  5  6  1  0  0  0  0
  6  1  2  0  0  0  0
  9  4  1  0  0  0  0
 10  5  1  0  0  0  0
 12 11  3  0  0  0  0
 13 14  1  0  0  0  0
 13 16  2  0  0  0  0
 13 15  1  0  0  0  0
 14 19  1  0  0  0  0
 17 13  2  0  0  0  0
 18 14  1  0  0  0  0
 20 14  1  0  0  0  0
 21  6  1  0  0  0  0
M  END
