Coordinates from ORCA-job Ph-N2-OTf-B3LYPG-6-31G_dp-MTMO-d009-169-n800
 OpenBabel09051908113D

 21 20  0  0  0  0  0  0  0  0999 V2000
   -2.2071   -3.0136   -4.3915 C   0  0  0  0  0  0  0  0  0  0  0  0
   -0.9848   -2.3428   -4.3290 C   0  0  0  0  0  0  0  0  0  0  0  0
   -0.9660   -0.9709   -4.5580 C   0  0  0  0  0  0  0  0  0  0  0  0
   -2.1207   -0.2505   -4.8460 C   0  0  0  0  0  0  0  0  0  0  0  0
   -3.3348   -0.9352   -4.9086 C   0  0  0  0  0  0  0  0  0  0  0  0
   -3.3798   -2.3126   -4.6815 C   0  0  0  0  0  0  0  0  0  0  0  0
   -2.2405   -4.0835   -4.2108 H   0  0  0  0  0  0  0  0  0  0  0  0
   -0.0607   -2.8617   -4.0988 H   0  0  0  0  0  0  0  0  0  0  0  0
   -2.0621    0.8181   -5.0171 H   0  0  0  0  0  0  0  0  0  0  0  0
   -4.2455   -0.3891   -5.1339 H   0  0  0  0  0  0  0  0  0  0  0  0
    9.2363   10.3128  -11.3505 N   0  0  0  0  0  0  0  0  0  0  0  0
   10.1978   10.8130  -11.5671 N   0  0  0  0  0  0  0  0  0  0  0  0
    1.1765    0.0665   -5.7244 S   0  0  0  0  0  0  0  0  0  0  0  0
    1.1105    1.9266   -5.5630 C   0  0  0  0  0  0  0  0  0  0  0  0
    0.2629   -0.2904   -4.4013 O   0  0  0  0  0  0  0  0  0  0  0  0
    2.5409   -0.3343   -5.4363 O   0  0  0  0  0  0  0  0  0  0  0  0
    0.4800   -0.3021   -6.9455 O   0  0  0  0  0  0  0  0  0  0  0  0
   -0.1504    2.3469   -5.6990 F   0  0  0  0  0  0  0  0  0  0  0  0
    1.5783    2.2955   -4.3755 F   0  0  0  0  0  0  0  0  0  0  0  0
    1.8590    2.4533   -6.5298 F   0  0  0  0  0  0  0  0  0  0  0  0
   -4.3281   -2.8391   -4.7302 H   0  0  0  0  0  0  0  0  0  0  0  0
  1  2  1  0  0  0  0
  1  7  1  0  0  0  0
  2  8  1  0  0  0  0
  3 15  1  0  0  0  0
  3  2  2  0  0  0  0
  4  3  1  0  0  0  0
  5  4  2  0  0  0  0
  5  6  1  0  0  0  0
  6  1  2  0  0  0  0
  9  4  1  0  0  0  0
 10  5  1  0  0  0  0
 12 11  3  0  0  0  0
 13 14  1  0  0  0  0
 13 16  2  0  0  0  0
 13 15  1  0  0  0  0
 14 19  1  0  0  0  0
 17 13  2  0  0  0  0
 18 14  1  0  0  0  0
 20 14  1  0  0  0  0
 21  6  1  0  0  0  0
M  END
