Coordinates from ORCA-job Ph-N2-OTf-B3LYPG-6-31G_dp-MTMO-d009-169-n800
 OpenBabel09051908113D

 21 20  0  0  0  0  0  0  0  0999 V2000
   -1.5137   -0.8579   -5.9995 C   0  0  0  0  0  0  0  0  0  0  0  0
   -0.5900   -0.0548   -5.3341 C   0  0  0  0  0  0  0  0  0  0  0  0
   -1.0688    1.1684   -4.8674 C   0  0  0  0  0  0  0  0  0  0  0  0
   -2.3726    1.6378   -5.0102 C   0  0  0  0  0  0  0  0  0  0  0  0
   -3.2648    0.8087   -5.6837 C   0  0  0  0  0  0  0  0  0  0  0  0
   -2.8342   -0.4301   -6.1736 C   0  0  0  0  0  0  0  0  0  0  0  0
   -1.1908   -1.8165   -6.3901 H   0  0  0  0  0  0  0  0  0  0  0  0
    0.4436   -0.3370   -5.1803 H   0  0  0  0  0  0  0  0  0  0  0  0
   -2.6644    2.6053   -4.6198 H   0  0  0  0  0  0  0  0  0  0  0  0
   -4.2909    1.1286   -5.8283 H   0  0  0  0  0  0  0  0  0  0  0  0
   -0.1038    2.0394   -4.1584 N   0  0  0  0  0  0  0  0  0  0  0  0
    0.8976    2.3641   -3.7634 N   0  0  0  0  0  0  0  0  0  0  0  0
    2.8735    1.2455   -5.7058 S   0  0  0  0  0  0  0  0  0  0  0  0
    3.2593   -0.4042   -6.4818 C   0  0  0  0  0  0  0  0  0  0  0  0
    1.7726    1.7941   -6.5265 O   0  0  0  0  0  0  0  0  0  0  0  0
    4.1494    1.9617   -5.6917 O   0  0  0  0  0  0  0  0  0  0  0  0
    2.3680    0.8004   -4.3413 O   0  0  0  0  0  0  0  0  0  0  0  0
    2.1534   -1.1890   -6.4993 F   0  0  0  0  0  0  0  0  0  0  0  0
    3.6657   -0.2416   -7.7443 F   0  0  0  0  0  0  0  0  0  0  0  0
    4.2100   -1.0474   -5.7990 F   0  0  0  0  0  0  0  0  0  0  0  0
   -3.5375   -1.0687   -6.6988 H   0  0  0  0  0  0  0  0  0  0  0  0
  1  2  1  0  0  0  0
  2  8  1  0  0  0  0
  2  3  2  0  0  0  0
  3 11  1  0  0  0  0
  4  3  1  0  0  0  0
  4  9  1  0  0  0  0
  5  4  2  0  0  0  0
  6  1  2  0  0  0  0
  6  5  1  0  0  0  0
  7  1  1  0  0  0  0
 10  5  1  0  0  0  0
 11 12  1  0  0  0  0
 13 16  2  0  0  0  0
 13 17  1  0  0  0  0
 14 20  1  0  0  0  0
 14 13  1  0  0  0  0
 15 13  2  0  0  0  0
 18 14  1  0  0  0  0
 19 14  1  0  0  0  0
 21  6  1  0  0  0  0
M  RAD  3  11   2  12   3  17   2
M  END
