Coordinates from ORCA-job Ph-N2-OTf-B3LYPG-6-31G_dp-MTMO-d009-169-n800
 OpenBabel09051908113D

 21 20  0  0  0  0  0  0  0  0999 V2000
   -1.7670   -2.3620   -4.5017 C   0  0  0  0  0  0  0  0  0  0  0  0
   -0.5228   -1.7296   -4.4988 C   0  0  0  0  0  0  0  0  0  0  0  0
   -0.4553   -0.3931   -4.8782 C   0  0  0  0  0  0  0  0  0  0  0  0
   -1.5816    0.3292   -5.2584 C   0  0  0  0  0  0  0  0  0  0  0  0
   -2.8183   -0.3169   -5.2582 C   0  0  0  0  0  0  0  0  0  0  0  0
   -2.9124   -1.6584   -4.8809 C   0  0  0  0  0  0  0  0  0  0  0  0
   -1.8386   -3.4037   -4.2054 H   0  0  0  0  0  0  0  0  0  0  0  0
    0.3810   -2.2503   -4.2018 H   0  0  0  0  0  0  0  0  0  0  0  0
   -1.4835    1.3692   -5.5466 H   0  0  0  0  0  0  0  0  0  0  0  0
   -3.7079    0.2308   -5.5531 H   0  0  0  0  0  0  0  0  0  0  0  0
    4.2072    5.3530   -7.8356 N   0  0  0  0  0  0  0  0  0  0  0  0
    4.8791    6.1485   -8.2059 N   0  0  0  0  0  0  0  0  0  0  0  0
    1.7419    0.4019   -6.1277 S   0  0  0  0  0  0  0  0  0  0  0  0
    1.7946    2.2696   -6.1812 C   0  0  0  0  0  0  0  0  0  0  0  0
    0.7939    0.2627   -4.7874 O   0  0  0  0  0  0  0  0  0  0  0  0
    3.0751   -0.0506   -5.7759 O   0  0  0  0  0  0  0  0  0  0  0  0
    1.0325   -0.0611   -7.3088 O   0  0  0  0  0  0  0  0  0  0  0  0
    0.5615    2.7482   -6.3697 F   0  0  0  0  0  0  0  0  0  0  0  0
    2.2878    2.7413   -5.0414 F   0  0  0  0  0  0  0  0  0  0  0  0
    2.5721    2.6334   -7.1985 F   0  0  0  0  0  0  0  0  0  0  0  0
   -3.8778   -2.1552   -4.8822 H   0  0  0  0  0  0  0  0  0  0  0  0
  1  2  1  0  0  0  0
  1  7  1  0  0  0  0
  2  8  1  0  0  0  0
  3 15  1  0  0  0  0
  3  2  2  0  0  0  0
  4  5  2  0  0  0  0
  4  3  1  0  0  0  0
  5  6  1  0  0  0  0
  6  1  2  0  0  0  0
  9  4  1  0  0  0  0
 10  5  1  0  0  0  0
 12 11  3  0  0  0  0
 13 16  2  0  0  0  0
 13 15  1  0  0  0  0
 14 13  1  0  0  0  0
 14 19  1  0  0  0  0
 17 13  2  0  0  0  0
 18 14  1  0  0  0  0
 20 14  1  0  0  0  0
 21  6  1  0  0  0  0
M  END
