Coordinates from ORCA-job Ph-N2-OTf-B3LYPG-6-31G_dp-MTMO-d009-169-n800
 OpenBabel09051908113D

 21 20  0  0  0  0  0  0  0  0999 V2000
   -2.0706   -2.8695   -4.4660 C   0  0  0  0  0  0  0  0  0  0  0  0
   -0.8494   -2.1970   -4.4034 C   0  0  0  0  0  0  0  0  0  0  0  0
   -0.8314   -0.8263   -4.6400 C   0  0  0  0  0  0  0  0  0  0  0  0
   -1.9860   -0.1089   -4.9357 C   0  0  0  0  0  0  0  0  0  0  0  0
   -3.1990   -0.7954   -4.9984 C   0  0  0  0  0  0  0  0  0  0  0  0
   -3.2432   -2.1715   -4.7639 C   0  0  0  0  0  0  0  0  0  0  0  0
   -2.1034   -3.9385   -4.2794 H   0  0  0  0  0  0  0  0  0  0  0  0
    0.0746   -2.7134   -4.1672 H   0  0  0  0  0  0  0  0  0  0  0  0
   -1.9281    0.9588   -5.1125 H   0  0  0  0  0  0  0  0  0  0  0  0
   -4.1096   -0.2515   -5.2298 H   0  0  0  0  0  0  0  0  0  0  0  0
    7.9485    8.9531  -10.5665 N   0  0  0  0  0  0  0  0  0  0  0  0
    8.9107    9.4505  -10.7861 N   0  0  0  0  0  0  0  0  0  0  0  0
    1.3117    0.2105   -5.8056 S   0  0  0  0  0  0  0  0  0  0  0  0
    1.2459    2.0708   -5.6469 C   0  0  0  0  0  0  0  0  0  0  0  0
    0.3963   -0.1436   -4.4830 O   0  0  0  0  0  0  0  0  0  0  0  0
    2.6757   -0.1905   -5.5157 O   0  0  0  0  0  0  0  0  0  0  0  0
    0.6165   -0.1596   -7.0270 O   0  0  0  0  0  0  0  0  0  0  0  0
   -0.0149    2.4911   -5.7844 F   0  0  0  0  0  0  0  0  0  0  0  0
    1.7129    2.4414   -4.4595 F   0  0  0  0  0  0  0  0  0  0  0  0
    1.9952    2.5959   -6.6139 F   0  0  0  0  0  0  0  0  0  0  0  0
   -4.1907   -2.6994   -4.8127 H   0  0  0  0  0  0  0  0  0  0  0  0
  1  2  1  0  0  0  0
  1  7  1  0  0  0  0
  2  8  1  0  0  0  0
  3 15  1  0  0  0  0
  3  2  2  0  0  0  0
  4  3  1  0  0  0  0
  5  4  2  0  0  0  0
  5  6  1  0  0  0  0
  6  1  2  0  0  0  0
  9  4  1  0  0  0  0
 10  5  1  0  0  0  0
 12 11  3  0  0  0  0
 13 14  1  0  0  0  0
 13 16  2  0  0  0  0
 13 15  1  0  0  0  0
 14 19  1  0  0  0  0
 17 13  2  0  0  0  0
 18 14  1  0  0  0  0
 20 14  1  0  0  0  0
 21  6  1  0  0  0  0
M  END
