Coordinates from ORCA-job Ph-N2-OTf-B3LYPG-6-31G_dp-MTMO-d009-169-n800
 OpenBabel09051908113D

 21 20  0  0  0  0  0  0  0  0999 V2000
   -1.9351   -2.7044   -4.5350 C   0  0  0  0  0  0  0  0  0  0  0  0
   -0.7112   -2.0365   -4.4736 C   0  0  0  0  0  0  0  0  0  0  0  0
   -0.6855   -0.6693   -4.7286 C   0  0  0  0  0  0  0  0  0  0  0  0
   -1.8349    0.0492   -5.0416 C   0  0  0  0  0  0  0  0  0  0  0  0
   -3.0505   -0.6328   -5.1030 C   0  0  0  0  0  0  0  0  0  0  0  0
   -3.1025   -2.0054   -4.8500 C   0  0  0  0  0  0  0  0  0  0  0  0
   -1.9739   -3.7705   -4.3340 H   0  0  0  0  0  0  0  0  0  0  0  0
    0.2089   -2.5538   -4.2245 H   0  0  0  0  0  0  0  0  0  0  0  0
   -1.7712    1.1141   -5.2323 H   0  0  0  0  0  0  0  0  0  0  0  0
   -3.9571   -0.0881   -5.3477 H   0  0  0  0  0  0  0  0  0  0  0  0
    6.5572    7.4692   -9.6481 N   0  0  0  0  0  0  0  0  0  0  0  0
    7.4505    8.0279   -9.9821 N   0  0  0  0  0  0  0  0  0  0  0  0
    1.4660    0.3494   -5.8950 S   0  0  0  0  0  0  0  0  0  0  0  0
    1.4115    2.2110   -5.7478 C   0  0  0  0  0  0  0  0  0  0  0  0
    0.5447    0.0092   -4.5729 O   0  0  0  0  0  0  0  0  0  0  0  0
    2.8266   -0.0583   -5.5987 O   0  0  0  0  0  0  0  0  0  0  0  0
    0.7719   -0.0238   -7.1161 O   0  0  0  0  0  0  0  0  0  0  0  0
    0.1539    2.6384   -5.8919 F   0  0  0  0  0  0  0  0  0  0  0  0
    1.8771    2.5857   -4.5611 F   0  0  0  0  0  0  0  0  0  0  0  0
    2.1672    2.7254   -6.7155 F   0  0  0  0  0  0  0  0  0  0  0  0
   -4.0521   -2.5296   -4.8978 H   0  0  0  0  0  0  0  0  0  0  0  0
  1  2  1  0  0  0  0
  1  7  1  0  0  0  0
  2  8  1  0  0  0  0
  3 15  1  0  0  0  0
  3  2  2  0  0  0  0
  4  3  1  0  0  0  0
  5  4  2  0  0  0  0
  5  6  1  0  0  0  0
  6  1  2  0  0  0  0
  9  4  1  0  0  0  0
 10  5  1  0  0  0  0
 12 11  3  0  0  0  0
 13 14  1  0  0  0  0
 13 16  2  0  0  0  0
 13 15  1  0  0  0  0
 14 19  1  0  0  0  0
 17 13  2  0  0  0  0
 18 14  1  0  0  0  0
 20 14  1  0  0  0  0
 21  6  1  0  0  0  0
M  END
