Coordinates from ORCA-job Ph-N2-OTf-B3LYPG-6-31G_dp-MTMO-d009-169-n800
 OpenBabel09051908113D

 21 20  0  0  0  0  0  0  0  0999 V2000
   -2.0960   -2.8967   -4.4524 C   0  0  0  0  0  0  0  0  0  0  0  0
   -0.8747   -2.2243   -4.3896 C   0  0  0  0  0  0  0  0  0  0  0  0
   -0.8567   -0.8534   -4.6246 C   0  0  0  0  0  0  0  0  0  0  0  0
   -2.0113   -0.1355   -4.9189 C   0  0  0  0  0  0  0  0  0  0  0  0
   -3.2245   -0.8217   -4.9818 C   0  0  0  0  0  0  0  0  0  0  0  0
   -3.2687   -2.1982   -4.7488 C   0  0  0  0  0  0  0  0  0  0  0  0
   -2.1288   -3.9658   -4.2670 H   0  0  0  0  0  0  0  0  0  0  0  0
    0.0493   -2.7412   -4.1545 H   0  0  0  0  0  0  0  0  0  0  0  0
   -1.9534    0.9324   -5.0945 H   0  0  0  0  0  0  0  0  0  0  0  0
   -4.1351   -0.2776   -5.2120 H   0  0  0  0  0  0  0  0  0  0  0  0
    8.1895    9.2081  -10.7141 N   0  0  0  0  0  0  0  0  0  0  0  0
    9.1524    9.7046  -10.9327 N   0  0  0  0  0  0  0  0  0  0  0  0
    1.2863    0.1838   -5.7901 S   0  0  0  0  0  0  0  0  0  0  0  0
    1.2205    2.0440   -5.6306 C   0  0  0  0  0  0  0  0  0  0  0  0
    0.3712   -0.1710   -4.4675 O   0  0  0  0  0  0  0  0  0  0  0  0
    2.6503   -0.2173   -5.5007 O   0  0  0  0  0  0  0  0  0  0  0  0
    0.5908   -0.1858   -7.0116 O   0  0  0  0  0  0  0  0  0  0  0  0
   -0.0404    2.4643   -5.7677 F   0  0  0  0  0  0  0  0  0  0  0  0
    1.6876    2.4142   -4.4432 F   0  0  0  0  0  0  0  0  0  0  0  0
    1.9695    2.5697   -6.5975 F   0  0  0  0  0  0  0  0  0  0  0  0
   -4.2163   -2.7259   -4.7977 H   0  0  0  0  0  0  0  0  0  0  0  0
  1  2  1  0  0  0  0
  1  7  1  0  0  0  0
  2  8  1  0  0  0  0
  3 15  1  0  0  0  0
  3  2  2  0  0  0  0
  4  3  1  0  0  0  0
  5  4  2  0  0  0  0
  5  6  1  0  0  0  0
  6  1  2  0  0  0  0
  9  4  1  0  0  0  0
 10  5  1  0  0  0  0
 12 11  3  0  0  0  0
 13 14  1  0  0  0  0
 13 16  2  0  0  0  0
 13 15  1  0  0  0  0
 14 19  1  0  0  0  0
 17 13  2  0  0  0  0
 18 14  1  0  0  0  0
 20 14  1  0  0  0  0
 21  6  1  0  0  0  0
M  END
