Coordinates from ORCA-job Ph-N2-OTf-B3LYPG-6-31G_dp-MTMO-d009-169-n800
 OpenBabel09051908113D

 21 20  0  0  0  0  0  0  0  0999 V2000
   -1.9654   -2.7488   -4.5152 C   0  0  0  0  0  0  0  0  0  0  0  0
   -0.7432   -2.0777   -4.4565 C   0  0  0  0  0  0  0  0  0  0  0  0
   -0.7225   -0.7094   -4.7062 C   0  0  0  0  0  0  0  0  0  0  0  0
   -1.8752    0.0071   -5.0112 C   0  0  0  0  0  0  0  0  0  0  0  0
   -3.0892   -0.6781   -5.0700 C   0  0  0  0  0  0  0  0  0  0  0  0
   -3.1362   -2.0518   -4.8223 C   0  0  0  0  0  0  0  0  0  0  0  0
   -2.0003   -3.8159   -4.3184 H   0  0  0  0  0  0  0  0  0  0  0  0
    0.1795   -2.5933   -4.2135 H   0  0  0  0  0  0  0  0  0  0  0  0
   -1.8154    1.0729   -5.1981 H   0  0  0  0  0  0  0  0  0  0  0  0
   -3.9984   -0.1351   -5.3086 H   0  0  0  0  0  0  0  0  0  0  0  0
    6.9191    7.8497   -9.8998 N   0  0  0  0  0  0  0  0  0  0  0  0
    7.8497    8.3862  -10.1598 N   0  0  0  0  0  0  0  0  0  0  0  0
    1.4224    0.3176   -5.8775 S   0  0  0  0  0  0  0  0  0  0  0  0
    1.3611    2.1789   -5.7282 C   0  0  0  0  0  0  0  0  0  0  0  0
    0.5063   -0.0278   -4.5531 O   0  0  0  0  0  0  0  0  0  0  0  0
    2.7854   -0.0849   -5.5854 O   0  0  0  0  0  0  0  0  0  0  0  0
    0.7263   -0.0571   -7.0970 O   0  0  0  0  0  0  0  0  0  0  0  0
    0.1015    2.6016   -5.8689 F   0  0  0  0  0  0  0  0  0  0  0  0
    1.8280    2.5542   -4.5423 F   0  0  0  0  0  0  0  0  0  0  0  0
    2.1125    2.6973   -6.6972 F   0  0  0  0  0  0  0  0  0  0  0  0
   -4.0845   -2.5786   -4.8680 H   0  0  0  0  0  0  0  0  0  0  0  0
  1  2  1  0  0  0  0
  1  7  1  0  0  0  0
  2  8  1  0  0  0  0
  3 15  1  0  0  0  0
  3  2  2  0  0  0  0
  4  3  1  0  0  0  0
  5  4  2  0  0  0  0
  5  6  1  0  0  0  0
  6  1  2  0  0  0  0
  9  4  1  0  0  0  0
 10  5  1  0  0  0  0
 12 11  3  0  0  0  0
 13 14  1  0  0  0  0
 13 16  2  0  0  0  0
 13 15  1  0  0  0  0
 14 19  1  0  0  0  0
 17 13  2  0  0  0  0
 18 14  1  0  0  0  0
 20 14  1  0  0  0  0
 21  6  1  0  0  0  0
M  END
