Coordinates from ORCA-job Ph-N2-OTf-B3LYPG-6-31G_dp-MTMO-d009-169-n800
 OpenBabel09051908113D

 21 20  0  0  0  0  0  0  0  0999 V2000
   -2.1376   -2.9403   -4.4299 C   0  0  0  0  0  0  0  0  0  0  0  0
   -0.9159   -2.2688   -4.3671 C   0  0  0  0  0  0  0  0  0  0  0  0
   -0.8974   -0.8974   -4.5997 C   0  0  0  0  0  0  0  0  0  0  0  0
   -2.0520   -0.1783   -4.8915 C   0  0  0  0  0  0  0  0  0  0  0  0
   -3.2656   -0.8639   -4.9544 C   0  0  0  0  0  0  0  0  0  0  0  0
   -3.3102   -2.2407   -4.7238 C   0  0  0  0  0  0  0  0  0  0  0  0
   -2.1708   -4.0098   -4.2465 H   0  0  0  0  0  0  0  0  0  0  0  0
    0.0081   -2.7865   -4.1340 H   0  0  0  0  0  0  0  0  0  0  0  0
   -1.9937    0.8898   -5.0652 H   0  0  0  0  0  0  0  0  0  0  0  0
   -4.1762   -0.3189   -5.1827 H   0  0  0  0  0  0  0  0  0  0  0  0
    8.5801    9.6211  -10.9523 N   0  0  0  0  0  0  0  0  0  0  0  0
    9.5430   10.1182  -11.1696 N   0  0  0  0  0  0  0  0  0  0  0  0
    1.2456    0.1399   -5.7653 S   0  0  0  0  0  0  0  0  0  0  0  0
    1.1791    2.0001   -5.6054 C   0  0  0  0  0  0  0  0  0  0  0  0
    0.3309   -0.2159   -4.4426 O   0  0  0  0  0  0  0  0  0  0  0  0
    2.6098   -0.2604   -5.4758 O   0  0  0  0  0  0  0  0  0  0  0  0
    0.5501   -0.2297   -6.9867 O   0  0  0  0  0  0  0  0  0  0  0  0
   -0.0818    2.4201   -5.7426 F   0  0  0  0  0  0  0  0  0  0  0  0
    1.6461    2.3701   -4.4178 F   0  0  0  0  0  0  0  0  0  0  0  0
    1.9282    2.5262   -6.5721 F   0  0  0  0  0  0  0  0  0  0  0  0
   -4.2582   -2.7679   -4.7727 H   0  0  0  0  0  0  0  0  0  0  0  0
  1  2  1  0  0  0  0
  1  7  1  0  0  0  0
  2  8  1  0  0  0  0
  3 15  1  0  0  0  0
  3  2  2  0  0  0  0
  4  3  1  0  0  0  0
  5  4  2  0  0  0  0
  5  6  1  0  0  0  0
  6  1  2  0  0  0  0
  9  4  1  0  0  0  0
 10  5  1  0  0  0  0
 12 11  3  0  0  0  0
 13 14  1  0  0  0  0
 13 16  2  0  0  0  0
 13 15  1  0  0  0  0
 14 19  1  0  0  0  0
 17 13  2  0  0  0  0
 18 14  1  0  0  0  0
 20 14  1  0  0  0  0
 21  6  1  0  0  0  0
M  END
