Coordinates from ORCA-job Ph-N2-OTf-B3LYPG-6-31G_dp-MTMO-d009-169-n800
 OpenBabel09051908113D

 21 20  0  0  0  0  0  0  0  0999 V2000
   -2.0779   -2.8773   -4.4622 C   0  0  0  0  0  0  0  0  0  0  0  0
   -0.8566   -2.2048   -4.3994 C   0  0  0  0  0  0  0  0  0  0  0  0
   -0.8386   -0.8341   -4.6356 C   0  0  0  0  0  0  0  0  0  0  0  0
   -1.9932   -0.1165   -4.9309 C   0  0  0  0  0  0  0  0  0  0  0  0
   -3.2063   -0.8029   -4.9937 C   0  0  0  0  0  0  0  0  0  0  0  0
   -3.2505   -2.1792   -4.7596 C   0  0  0  0  0  0  0  0  0  0  0  0
   -2.1106   -3.9463   -4.2759 H   0  0  0  0  0  0  0  0  0  0  0  0
    0.0674   -2.7214   -4.1636 H   0  0  0  0  0  0  0  0  0  0  0  0
   -1.9354    0.9512   -5.1073 H   0  0  0  0  0  0  0  0  0  0  0  0
   -4.1169   -0.2590   -5.2247 H   0  0  0  0  0  0  0  0  0  0  0  0
    8.0173    9.0260  -10.6087 N   0  0  0  0  0  0  0  0  0  0  0  0
    8.9798    9.5230  -10.8280 N   0  0  0  0  0  0  0  0  0  0  0  0
    1.3045    0.2029   -5.8011 S   0  0  0  0  0  0  0  0  0  0  0  0
    1.2386    2.0632   -5.6422 C   0  0  0  0  0  0  0  0  0  0  0  0
    0.3891   -0.1514   -4.4786 O   0  0  0  0  0  0  0  0  0  0  0  0
    2.6684   -0.1981   -5.5114 O   0  0  0  0  0  0  0  0  0  0  0  0
    0.6092   -0.1671   -7.0226 O   0  0  0  0  0  0  0  0  0  0  0  0
   -0.0222    2.4834   -5.7796 F   0  0  0  0  0  0  0  0  0  0  0  0
    1.7057    2.4336   -4.4548 F   0  0  0  0  0  0  0  0  0  0  0  0
    1.9878    2.5885   -6.6091 F   0  0  0  0  0  0  0  0  0  0  0  0
   -4.1980   -2.7070   -4.8084 H   0  0  0  0  0  0  0  0  0  0  0  0
  1  2  1  0  0  0  0
  1  7  1  0  0  0  0
  2  8  1  0  0  0  0
  3 15  1  0  0  0  0
  3  2  2  0  0  0  0
  4  3  1  0  0  0  0
  5  4  2  0  0  0  0
  5  6  1  0  0  0  0
  6  1  2  0  0  0  0
  9  4  1  0  0  0  0
 10  5  1  0  0  0  0
 12 11  3  0  0  0  0
 13 14  1  0  0  0  0
 13 16  2  0  0  0  0
 13 15  1  0  0  0  0
 14 19  1  0  0  0  0
 17 13  2  0  0  0  0
 18 14  1  0  0  0  0
 20 14  1  0  0  0  0
 21  6  1  0  0  0  0
M  END
