Coordinates from ORCA-job Ph-N2-OTf-B3LYPG-6-31G_dp-MTMO-d009-169-n800
 OpenBabel09051908113D

 21 20  0  0  0  0  0  0  0  0999 V2000
   -2.1426   -2.9455   -4.4273 C   0  0  0  0  0  0  0  0  0  0  0  0
   -0.9208   -2.2740   -4.3645 C   0  0  0  0  0  0  0  0  0  0  0  0
   -0.9022   -0.9026   -4.5968 C   0  0  0  0  0  0  0  0  0  0  0  0
   -2.0568   -0.1834   -4.8883 C   0  0  0  0  0  0  0  0  0  0  0  0
   -3.2704   -0.8689   -4.9512 C   0  0  0  0  0  0  0  0  0  0  0  0
   -3.3151   -2.2457   -4.7210 C   0  0  0  0  0  0  0  0  0  0  0  0
   -2.1758   -4.0150   -4.2440 H   0  0  0  0  0  0  0  0  0  0  0  0
    0.0032   -2.7919   -4.1315 H   0  0  0  0  0  0  0  0  0  0  0  0
   -1.9984    0.8848   -5.0618 H   0  0  0  0  0  0  0  0  0  0  0  0
   -4.1810   -0.3237   -5.1793 H   0  0  0  0  0  0  0  0  0  0  0  0
    8.6260    9.6697  -10.9803 N   0  0  0  0  0  0  0  0  0  0  0  0
    9.5889   10.1668  -11.1976 N   0  0  0  0  0  0  0  0  0  0  0  0
    1.2408    0.1348   -5.7623 S   0  0  0  0  0  0  0  0  0  0  0  0
    1.1743    1.9950   -5.6023 C   0  0  0  0  0  0  0  0  0  0  0  0
    0.3262   -0.2213   -4.4396 O   0  0  0  0  0  0  0  0  0  0  0  0
    2.6050   -0.2655   -5.4729 O   0  0  0  0  0  0  0  0  0  0  0  0
    0.5452   -0.2348   -6.9837 O   0  0  0  0  0  0  0  0  0  0  0  0
   -0.0866    2.4150   -5.7394 F   0  0  0  0  0  0  0  0  0  0  0  0
    1.6413    2.3648   -4.4148 F   0  0  0  0  0  0  0  0  0  0  0  0
    1.9233    2.5211   -6.5690 F   0  0  0  0  0  0  0  0  0  0  0  0
   -4.2631   -2.7728   -4.7698 H   0  0  0  0  0  0  0  0  0  0  0  0
  1  2  1  0  0  0  0
  1  7  1  0  0  0  0
  2  8  1  0  0  0  0
  3 15  1  0  0  0  0
  3  2  2  0  0  0  0
  4  3  1  0  0  0  0
  5  4  2  0  0  0  0
  5  6  1  0  0  0  0
  6  1  2  0  0  0  0
  9  4  1  0  0  0  0
 10  5  1  0  0  0  0
 12 11  3  0  0  0  0
 13 14  1  0  0  0  0
 13 16  2  0  0  0  0
 13 15  1  0  0  0  0
 14 19  1  0  0  0  0
 17 13  2  0  0  0  0
 18 14  1  0  0  0  0
 20 14  1  0  0  0  0
 21  6  1  0  0  0  0
M  END
