Coordinates from ORCA-job Ph-N2-OTf-B3LYPG-6-31G_dp-MTMO-d009-169-n800
 OpenBabel09051908113D

 21 20  0  0  0  0  0  0  0  0999 V2000
   -1.8597   -2.5980   -4.5732 C   0  0  0  0  0  0  0  0  0  0  0  0
   -0.6322   -1.9368   -4.5121 C   0  0  0  0  0  0  0  0  0  0  0  0
   -0.5965   -0.5728   -4.7825 C   0  0  0  0  0  0  0  0  0  0  0  0
   -1.7396    0.1490   -5.1106 C   0  0  0  0  0  0  0  0  0  0  0  0
   -2.9590   -0.5263   -5.1716 C   0  0  0  0  0  0  0  0  0  0  0  0
   -3.0209   -1.8955   -4.9033 C   0  0  0  0  0  0  0  0  0  0  0  0
   -1.9063   -3.6614   -4.3603 H   0  0  0  0  0  0  0  0  0  0  0  0
    0.2833   -2.4567   -4.2515 H   0  0  0  0  0  0  0  0  0  0  0  0
   -1.6685    1.2112   -5.3130 H   0  0  0  0  0  0  0  0  0  0  0  0
   -3.8607    0.0210   -5.4281 H   0  0  0  0  0  0  0  0  0  0  0  0
    5.6801    6.6034   -9.0661 N   0  0  0  0  0  0  0  0  0  0  0  0
    6.5403    7.1479   -9.4965 N   0  0  0  0  0  0  0  0  0  0  0  0
    1.5662    0.4230   -5.9479 S   0  0  0  0  0  0  0  0  0  0  0  0
    1.5255    2.2859   -5.8141 C   0  0  0  0  0  0  0  0  0  0  0  0
    0.6370    0.0996   -4.6271 O   0  0  0  0  0  0  0  0  0  0  0  0
    2.9224    0.0069   -5.6434 O   0  0  0  0  0  0  0  0  0  0  0  0
    0.8741    0.0463   -7.1691 O   0  0  0  0  0  0  0  0  0  0  0  0
    0.2715    2.7218   -5.9651 F   0  0  0  0  0  0  0  0  0  0  0  0
    1.9900    2.6654   -4.6285 F   0  0  0  0  0  0  0  0  0  0  0  0
    2.2881    2.7876   -6.7829 F   0  0  0  0  0  0  0  0  0  0  0  0
   -3.9734   -2.4146   -4.9509 H   0  0  0  0  0  0  0  0  0  0  0  0
  1  2  1  0  0  0  0
  1  7  1  0  0  0  0
  2  8  1  0  0  0  0
  3 15  1  0  0  0  0
  3  2  2  0  0  0  0
  4  3  1  0  0  0  0
  5  4  2  0  0  0  0
  5  6  1  0  0  0  0
  6  1  2  0  0  0  0
  9  4  1  0  0  0  0
 10  5  1  0  0  0  0
 12 11  3  0  0  0  0
 13 14  1  0  0  0  0
 13 16  2  0  0  0  0
 13 15  1  0  0  0  0
 14 19  1  0  0  0  0
 17 13  2  0  0  0  0
 18 14  1  0  0  0  0
 20 14  1  0  0  0  0
 21  6  1  0  0  0  0
M  END
