Coordinates from ORCA-job Ph-N2-OTf-B3LYPG-6-31G_dp-MTMO-d009-169-n800
 OpenBabel09051908113D

 21 20  0  0  0  0  0  0  0  0999 V2000
   -1.7426   -2.2568   -4.3622 C   0  0  0  0  0  0  0  0  0  0  0  0
   -0.4917   -1.6422   -4.4363 C   0  0  0  0  0  0  0  0  0  0  0  0
   -0.4183   -0.3391   -4.9175 C   0  0  0  0  0  0  0  0  0  0  0  0
   -1.5453    0.3672   -5.3247 C   0  0  0  0  0  0  0  0  0  0  0  0
   -2.7889   -0.2607   -5.2461 C   0  0  0  0  0  0  0  0  0  0  0  0
   -2.8888   -1.5687   -4.7665 C   0  0  0  0  0  0  0  0  0  0  0  0
   -1.8186   -3.2724   -3.9874 H   0  0  0  0  0  0  0  0  0  0  0  0
    0.4132   -2.1508   -4.1220 H   0  0  0  0  0  0  0  0  0  0  0  0
   -1.4422    1.3811   -5.6926 H   0  0  0  0  0  0  0  0  0  0  0  0
   -3.6792    0.2749   -5.5603 H   0  0  0  0  0  0  0  0  0  0  0  0
    3.9244    5.2810   -7.2260 N   0  0  0  0  0  0  0  0  0  0  0  0
    4.5778    6.1440   -7.4486 N   0  0  0  0  0  0  0  0  0  0  0  0
    1.7650    0.3110   -6.2702 S   0  0  0  0  0  0  0  0  0  0  0  0
    1.8336    2.1646   -6.5087 C   0  0  0  0  0  0  0  0  0  0  0  0
    0.8398    0.3060   -4.9068 O   0  0  0  0  0  0  0  0  0  0  0  0
    3.1008   -0.1173   -5.8982 O   0  0  0  0  0  0  0  0  0  0  0  0
    1.0318   -0.2570   -7.3892 O   0  0  0  0  0  0  0  0  0  0  0  0
    0.5983    2.6421   -6.6863 F   0  0  0  0  0  0  0  0  0  0  0  0
    2.3873    2.7395   -5.4474 F   0  0  0  0  0  0  0  0  0  0  0  0
    2.5646    2.4114   -7.5933 F   0  0  0  0  0  0  0  0  0  0  0  0
   -3.8596   -2.0513   -4.7072 H   0  0  0  0  0  0  0  0  0  0  0  0
  1  7  1  0  0  0  0
  2  1  1  0  0  0  0
  2  8  1  0  0  0  0
  3 15  1  0  0  0  0
  3  2  2  0  0  0  0
  4  5  2  0  0  0  0
  4  3  1  0  0  0  0
  5  6  1  0  0  0  0
  6 21  1  0  0  0  0
  6  1  2  0  0  0  0
  9  4  1  0  0  0  0
 10  5  1  0  0  0  0
 12 11  3  0  0  0  0
 13 16  2  0  0  0  0
 13 15  1  0  0  0  0
 14 13  1  0  0  0  0
 14 19  1  0  0  0  0
 17 13  2  0  0  0  0
 18 14  1  0  0  0  0
 20 14  1  0  0  0  0
M  END
