Coordinates from ORCA-job Ph-N2-OTf-B3LYPG-6-31G_dp-MTMO-d009-169-n800
 OpenBabel09051908113D

 21 20  0  0  0  0  0  0  0  0999 V2000
   -2.0553   -2.8526   -4.4744 C   0  0  0  0  0  0  0  0  0  0  0  0
   -0.8339   -2.1803   -4.4118 C   0  0  0  0  0  0  0  0  0  0  0  0
   -0.8155   -0.8098   -4.6494 C   0  0  0  0  0  0  0  0  0  0  0  0
   -1.9699   -0.0922   -4.9459 C   0  0  0  0  0  0  0  0  0  0  0  0
   -3.1831   -0.7785   -5.0084 C   0  0  0  0  0  0  0  0  0  0  0  0
   -3.2276   -2.1545   -4.7730 C   0  0  0  0  0  0  0  0  0  0  0  0
   -2.0884   -3.9214   -4.2870 H   0  0  0  0  0  0  0  0  0  0  0  0
    0.0899   -2.6968   -4.1751 H   0  0  0  0  0  0  0  0  0  0  0  0
   -1.9117    0.9753   -5.1233 H   0  0  0  0  0  0  0  0  0  0  0  0
   -4.0934   -0.2346   -5.2404 H   0  0  0  0  0  0  0  0  0  0  0  0
    7.7992    8.7954  -10.4747 N   0  0  0  0  0  0  0  0  0  0  0  0
    8.7605    9.2944  -10.6949 N   0  0  0  0  0  0  0  0  0  0  0  0
    1.3279    0.2265   -5.8151 S   0  0  0  0  0  0  0  0  0  0  0  0
    1.2615    2.0869   -5.6578 C   0  0  0  0  0  0  0  0  0  0  0  0
    0.4124   -0.1275   -4.4925 O   0  0  0  0  0  0  0  0  0  0  0  0
    2.6919   -0.1735   -5.5242 O   0  0  0  0  0  0  0  0  0  0  0  0
    0.6332   -0.1448   -7.0364 O   0  0  0  0  0  0  0  0  0  0  0  0
    0.0006    2.5068   -5.7962 F   0  0  0  0  0  0  0  0  0  0  0  0
    1.7278    2.4584   -4.4705 F   0  0  0  0  0  0  0  0  0  0  0  0
    2.0110    2.6116   -6.6248 F   0  0  0  0  0  0  0  0  0  0  0  0
   -4.1753   -2.6822   -4.8217 H   0  0  0  0  0  0  0  0  0  0  0  0
  1  2  1  0  0  0  0
  1  7  1  0  0  0  0
  2  8  1  0  0  0  0
  3 15  1  0  0  0  0
  3  2  2  0  0  0  0
  4  3  1  0  0  0  0
  5  4  2  0  0  0  0
  5  6  1  0  0  0  0
  6  1  2  0  0  0  0
  9  4  1  0  0  0  0
 10  5  1  0  0  0  0
 12 11  3  0  0  0  0
 13 14  1  0  0  0  0
 13 16  2  0  0  0  0
 13 15  1  0  0  0  0
 14 19  1  0  0  0  0
 17 13  2  0  0  0  0
 18 14  1  0  0  0  0
 20 14  1  0  0  0  0
 21  6  1  0  0  0  0
M  END
