Coordinates from ORCA-job Ph-N2-OTf-B3LYPG-6-31G_dp-MTMO-d009-169-n800
 OpenBabel09051908113D

 21 20  0  0  0  0  0  0  0  0999 V2000
   -1.7374   -2.2972   -4.3970 C   0  0  0  0  0  0  0  0  0  0  0  0
   -0.4946   -1.6643   -4.4515 C   0  0  0  0  0  0  0  0  0  0  0  0
   -0.4366   -0.3506   -4.9051 C   0  0  0  0  0  0  0  0  0  0  0  0
   -1.5710    0.3487   -5.3037 C   0  0  0  0  0  0  0  0  0  0  0  0
   -2.8063   -0.2975   -5.2450 C   0  0  0  0  0  0  0  0  0  0  0  0
   -2.8908   -1.6165   -4.7932 C   0  0  0  0  0  0  0  0  0  0  0  0
   -1.8014   -3.3213   -4.0435 H   0  0  0  0  0  0  0  0  0  0  0  0
    0.4154   -2.1671   -4.1428 H   0  0  0  0  0  0  0  0  0  0  0  0
   -1.4799    1.3713   -5.6501 H   0  0  0  0  0  0  0  0  0  0  0  0
   -3.7022    0.2322   -5.5530 H   0  0  0  0  0  0  0  0  0  0  0  0
    4.0963    5.2829   -7.3981 N   0  0  0  0  0  0  0  0  0  0  0  0
    4.7735    6.1198   -7.6476 N   0  0  0  0  0  0  0  0  0  0  0  0
    1.7439    0.3570   -6.2329 S   0  0  0  0  0  0  0  0  0  0  0  0
    1.7893    2.2162   -6.4271 C   0  0  0  0  0  0  0  0  0  0  0  0
    0.8125    0.3112   -4.8744 O   0  0  0  0  0  0  0  0  0  0  0  0
    3.0833   -0.0636   -5.8650 O   0  0  0  0  0  0  0  0  0  0  0  0
    1.0226   -0.1942   -7.3679 O   0  0  0  0  0  0  0  0  0  0  0  0
    0.5490    2.6801   -6.6057 F   0  0  0  0  0  0  0  0  0  0  0  0
    2.3240    2.7728   -5.3465 F   0  0  0  0  0  0  0  0  0  0  0  0
    2.5273    2.5003   -7.4979 F   0  0  0  0  0  0  0  0  0  0  0  0
   -3.8552   -2.1134   -4.7494 H   0  0  0  0  0  0  0  0  0  0  0  0
  1  7  1  0  0  0  0
  2  1  1  0  0  0  0
  2  8  1  0  0  0  0
  3 15  1  0  0  0  0
  3  2  2  0  0  0  0
  4  5  2  0  0  0  0
  4  3  1  0  0  0  0
  5  6  1  0  0  0  0
  6 21  1  0  0  0  0
  6  1  2  0  0  0  0
  9  4  1  0  0  0  0
 10  5  1  0  0  0  0
 12 11  3  0  0  0  0
 13 16  2  0  0  0  0
 13 15  1  0  0  0  0
 14 13  1  0  0  0  0
 14 19  1  0  0  0  0
 17 13  2  0  0  0  0
 18 14  1  0  0  0  0
 20 14  1  0  0  0  0
M  END
