Coordinates from ORCA-job Ph-N2-OTf-B3LYPG-6-31G_dp-MTMO-d009-169-n800
 OpenBabel09051908113D

 21 19  0  0  0  0  0  0  0  0999 V2000
   -1.3814   -0.9408   -5.6151 C   0  0  0  0  0  0  0  0  0  0  0  0
   -0.6494    0.1771   -5.1373 C   0  0  0  0  0  0  0  0  0  0  0  0
   -1.3444    1.2355   -5.0801 C   0  0  0  0  0  0  0  0  0  0  0  0
   -2.6077    1.6705   -5.3381 C   0  0  0  0  0  0  0  0  0  0  0  0
   -3.3276    0.5478   -5.8138 C   0  0  0  0  0  0  0  0  0  0  0  0
   -2.7274   -0.7165   -5.9458 C   0  0  0  0  0  0  0  0  0  0  0  0
   -0.9304   -1.9224   -5.7257 H   0  0  0  0  0  0  0  0  0  0  0  0
    1.0602   -0.0257   -4.7507 H   0  0  0  0  0  0  0  0  0  0  0  0
   -3.0222    2.6620   -5.2194 H   0  0  0  0  0  0  0  0  0  0  0  0
   -4.3713    0.6867   -6.0817 H   0  0  0  0  0  0  0  0  0  0  0  0
   -0.1835    3.3787   -4.2280 N   0  0  0  0  0  0  0  0  0  0  0  0
    0.7310    3.8762   -3.8577 N   0  0  0  0  0  0  0  0  0  0  0  0
    3.0236    0.6790   -5.3860 S   0  0  0  0  0  0  0  0  0  0  0  0
    3.1546   -0.3168   -6.9547 C   0  0  0  0  0  0  0  0  0  0  0  0
    2.3610    1.9277   -5.7455 O   0  0  0  0  0  0  0  0  0  0  0  0
    4.3246    0.6422   -4.7457 O   0  0  0  0  0  0  0  0  0  0  0  0
    2.0329   -0.2592   -4.5538 O   0  0  0  0  0  0  0  0  0  0  0  0
    1.9291   -0.5212   -7.4528 F   0  0  0  0  0  0  0  0  0  0  0  0
    3.8839    0.3618   -7.8400 F   0  0  0  0  0  0  0  0  0  0  0  0
    3.7309   -1.4916   -6.7084 F   0  0  0  0  0  0  0  0  0  0  0  0
   -3.3250   -1.5440   -6.3172 H   0  0  0  0  0  0  0  0  0  0  0  0
  1  2  2  0  0  0  0
  2  3  1  0  0  0  0
  4  9  1  0  0  0  0
  4  3  2  0  0  0  0
  5  4  1  0  0  0  0
  6  5  2  0  0  0  0
  6  1  1  0  0  0  0
  7  1  1  0  0  0  0
  8 17  1  0  0  0  0
 10  5  1  0  0  0  0
 11 12  3  0  0  0  0
 13 16  2  0  0  0  0
 13 17  1  0  0  0  0
 14 20  1  0  0  0  0
 14 13  1  0  0  0  0
 15 13  2  0  0  0  0
 18 14  1  0  0  0  0
 19 14  1  0  0  0  0
 21  6  1  0  0  0  0
M  RAD  2   2   2   3   2
M  END
