Coordinates from ORCA-job Ph-N2-OTf-B3LYPG-6-31G_dp-MTMO-d009-169-n800
 OpenBabel09051908113D

 21 20  0  0  0  0  0  0  0  0999 V2000
   -1.8863   -1.8370   -5.3578 C   0  0  0  0  0  0  0  0  0  0  0  0
   -0.5480   -1.5913   -5.0475 C   0  0  0  0  0  0  0  0  0  0  0  0
   -0.1662   -0.2853   -4.7550 C   0  0  0  0  0  0  0  0  0  0  0  0
   -1.0736    0.7703   -4.7501 C   0  0  0  0  0  0  0  0  0  0  0  0
   -2.4095    0.5062   -5.0529 C   0  0  0  0  0  0  0  0  0  0  0  0
   -2.8156   -0.7945   -5.3598 C   0  0  0  0  0  0  0  0  0  0  0  0
   -2.2013   -2.8485   -5.5946 H   0  0  0  0  0  0  0  0  0  0  0  0
    0.1869   -2.3872   -5.0366 H   0  0  0  0  0  0  0  0  0  0  0  0
   -0.7295    1.7698   -4.5072 H   0  0  0  0  0  0  0  0  0  0  0  0
   -3.1300    1.3182   -5.0494 H   0  0  0  0  0  0  0  0  0  0  0  0
    1.6779    4.5371   -7.7050 N   0  0  0  0  0  0  0  0  0  0  0  0
    1.3879    5.4582   -8.2420 N   0  0  0  0  0  0  0  0  0  0  0  0
    2.3961   -0.0597   -5.4320 S   0  0  0  0  0  0  0  0  0  0  0  0
    2.1879    1.6139   -6.2489 C   0  0  0  0  0  0  0  0  0  0  0  0
    1.1585   -0.0004   -4.3543 O   0  0  0  0  0  0  0  0  0  0  0  0
    3.6014   -0.0064   -4.6295 O   0  0  0  0  0  0  0  0  0  0  0  0
    2.1568   -1.0689   -6.4504 O   0  0  0  0  0  0  0  0  0  0  0  0
    1.0843    1.6075   -6.9965 F   0  0  0  0  0  0  0  0  0  0  0  0
    2.0884    2.5574   -5.3143 F   0  0  0  0  0  0  0  0  0  0  0  0
    3.2506    1.8434   -7.0142 F   0  0  0  0  0  0  0  0  0  0  0  0
   -3.8552   -0.9959   -5.5995 H   0  0  0  0  0  0  0  0  0  0  0  0
  1  2  1  0  0  0  0
  2  8  1  0  0  0  0
  2  3  2  0  0  0  0
  3  4  1  0  0  0  0
  3 15  1  0  0  0  0
  4  9  1  0  0  0  0
  5 10  1  0  0  0  0
  5  4  2  0  0  0  0
  6  1  2  0  0  0  0
  6  5  1  0  0  0  0
  7  1  1  0  0  0  0
 12 11  3  0  0  0  0
 13 16  2  0  0  0  0
 13 15  1  0  0  0  0
 14 13  1  0  0  0  0
 14 19  1  0  0  0  0
 17 13  2  0  0  0  0
 18 14  1  0  0  0  0
 20 14  1  0  0  0  0
 21  6  1  0  0  0  0
M  END
