Coordinates from ORCA-job Ph-N2-OTf-B3LYPG-6-31G_dp-MTMO-d009-169-n800
 OpenBabel09051908113D

 21 20  0  0  0  0  0  0  0  0999 V2000
   -1.8689   -2.6109   -4.5691 C   0  0  0  0  0  0  0  0  0  0  0  0
   -0.6418   -1.9489   -4.5076 C   0  0  0  0  0  0  0  0  0  0  0  0
   -0.6072   -0.5845   -4.7760 C   0  0  0  0  0  0  0  0  0  0  0  0
   -1.7510    0.1371   -5.1023 C   0  0  0  0  0  0  0  0  0  0  0  0
   -2.9700   -0.5390   -5.1638 C   0  0  0  0  0  0  0  0  0  0  0  0
   -3.0307   -1.9088   -4.8975 C   0  0  0  0  0  0  0  0  0  0  0  0
   -1.9145   -3.6747   -4.3578 H   0  0  0  0  0  0  0  0  0  0  0  0
    0.2742   -2.4686   -4.2484 H   0  0  0  0  0  0  0  0  0  0  0  0
   -1.6808    1.1996   -5.3031 H   0  0  0  0  0  0  0  0  0  0  0  0
   -3.8722    0.0080   -5.4189 H   0  0  0  0  0  0  0  0  0  0  0  0
    5.7856    6.7073   -9.1355 N   0  0  0  0  0  0  0  0  0  0  0  0
    6.6490    7.2527   -9.5582 N   0  0  0  0  0  0  0  0  0  0  0  0
    1.5543    0.4144   -5.9409 S   0  0  0  0  0  0  0  0  0  0  0  0
    1.5119    2.2771   -5.8050 C   0  0  0  0  0  0  0  0  0  0  0  0
    0.6258    0.0886   -4.6202 O   0  0  0  0  0  0  0  0  0  0  0  0
    2.9110   -0.0008   -5.6373 O   0  0  0  0  0  0  0  0  0  0  0  0
    0.8621    0.0384   -7.1623 O   0  0  0  0  0  0  0  0  0  0  0  0
    0.2575    2.7120   -5.9553 F   0  0  0  0  0  0  0  0  0  0  0  0
    1.9764    2.6558   -4.6192 F   0  0  0  0  0  0  0  0  0  0  0  0
    2.2738    2.7806   -6.7735 F   0  0  0  0  0  0  0  0  0  0  0  0
   -3.9829   -2.4284   -4.9454 H   0  0  0  0  0  0  0  0  0  0  0  0
  1  2  1  0  0  0  0
  1  7  1  0  0  0  0
  2  8  1  0  0  0  0
  3 15  1  0  0  0  0
  3  2  2  0  0  0  0
  4  3  1  0  0  0  0
  5  4  2  0  0  0  0
  5  6  1  0  0  0  0
  6  1  2  0  0  0  0
  9  4  1  0  0  0  0
 10  5  1  0  0  0  0
 12 11  3  0  0  0  0
 13 14  1  0  0  0  0
 13 16  2  0  0  0  0
 13 15  1  0  0  0  0
 14 19  1  0  0  0  0
 17 13  2  0  0  0  0
 18 14  1  0  0  0  0
 20 14  1  0  0  0  0
 21  6  1  0  0  0  0
M  END
