Coordinates from ORCA-job Ph-N2-OTf-B3LYPG-6-31G_dp-MTMO-d009-169-n800
 OpenBabel09051908113D

 21 20  0  0  0  0  0  0  0  0999 V2000
   -1.4590   -1.0318   -5.6581 C   0  0  0  0  0  0  0  0  0  0  0  0
   -0.5100   -0.1685   -5.0782 C   0  0  0  0  0  0  0  0  0  0  0  0
   -1.0013    1.0877   -4.9776 C   0  0  0  0  0  0  0  0  0  0  0  0
   -2.1759    1.6963   -5.3091 C   0  0  0  0  0  0  0  0  0  0  0  0
   -3.0749    0.7790   -5.8830 C   0  0  0  0  0  0  0  0  0  0  0  0
   -2.7166   -0.5624   -6.0497 C   0  0  0  0  0  0  0  0  0  0  0  0
   -1.1821   -2.0704   -5.8075 H   0  0  0  0  0  0  0  0  0  0  0  0
    0.5145   -0.4199   -4.7763 H   0  0  0  0  0  0  0  0  0  0  0  0
   -2.4005    2.7439   -5.1644 H   0  0  0  0  0  0  0  0  0  0  0  0
   -4.0498    1.1388   -6.1948 H   0  0  0  0  0  0  0  0  0  0  0  0
    0.1815    2.2763   -4.1249 N   0  0  0  0  0  0  0  0  0  0  0  0
    0.5921    3.0738   -3.4793 N   0  0  0  0  0  0  0  0  0  0  0  0
    2.7482    1.0462   -5.5146 S   0  0  0  0  0  0  0  0  0  0  0  0
    3.0477   -0.2597   -6.8023 C   0  0  0  0  0  0  0  0  0  0  0  0
    1.6596    1.8671   -6.1235 O   0  0  0  0  0  0  0  0  0  0  0  0
    4.0403    1.7089   -5.3218 O   0  0  0  0  0  0  0  0  0  0  0  0
    2.2477    0.2463   -4.3486 O   0  0  0  0  0  0  0  0  0  0  0  0
    1.9139   -0.9709   -7.0059 F   0  0  0  0  0  0  0  0  0  0  0  0
    3.4095    0.2857   -7.9690 F   0  0  0  0  0  0  0  0  0  0  0  0
    4.0033   -1.1102   -6.4109 F   0  0  0  0  0  0  0  0  0  0  0  0
   -3.4267   -1.2492   -6.4980 H   0  0  0  0  0  0  0  0  0  0  0  0
  1  2  2  0  0  0  0
  2  3  1  0  0  0  0
  2  8  1  0  0  0  0
  3 11  1  0  0  0  0
  4  9  1  0  0  0  0
  4  3  2  0  0  0  0
  5  4  1  0  0  0  0
  6  5  2  0  0  0  0
  6  1  1  0  0  0  0
  7  1  1  0  0  0  0
 10  5  1  0  0  0  0
 11 12  1  0  0  0  0
 13 16  2  0  0  0  0
 13 17  1  0  0  0  0
 14 20  1  0  0  0  0
 14 13  1  0  0  0  0
 15 13  2  0  0  0  0
 18 14  1  0  0  0  0
 19 14  1  0  0  0  0
 21  6  1  0  0  0  0
M  RAD  3  11   2  12   3  17   2
M  END
