Coordinates from ORCA-job Ph-N2-OTf-B3LYPG-6-31G_dp-MTMO-d009-169-n800
 OpenBabel09051908113D

 21 20  0  0  0  0  0  0  0  0999 V2000
   -2.1353   -2.9378   -4.4313 C   0  0  0  0  0  0  0  0  0  0  0  0
   -0.9135   -2.2662   -4.3685 C   0  0  0  0  0  0  0  0  0  0  0  0
   -0.8950   -0.8949   -4.6012 C   0  0  0  0  0  0  0  0  0  0  0  0
   -2.0495   -0.1758   -4.8931 C   0  0  0  0  0  0  0  0  0  0  0  0
   -3.2631   -0.8613   -4.9560 C   0  0  0  0  0  0  0  0  0  0  0  0
   -3.3078   -2.2382   -4.7254 C   0  0  0  0  0  0  0  0  0  0  0  0
   -2.1684   -4.0072   -4.2477 H   0  0  0  0  0  0  0  0  0  0  0  0
    0.0105   -2.7840   -4.1352 H   0  0  0  0  0  0  0  0  0  0  0  0
   -1.9912    0.8923   -5.0669 H   0  0  0  0  0  0  0  0  0  0  0  0
   -4.1737   -0.3163   -5.1845 H   0  0  0  0  0  0  0  0  0  0  0  0
    8.5570    9.5969  -10.9383 N   0  0  0  0  0  0  0  0  0  0  0  0
    9.5200   10.0938  -11.1557 N   0  0  0  0  0  0  0  0  0  0  0  0
    1.2481    0.1425   -5.7666 S   0  0  0  0  0  0  0  0  0  0  0  0
    1.1815    2.0027   -5.6068 C   0  0  0  0  0  0  0  0  0  0  0  0
    0.3334   -0.2135   -4.4440 O   0  0  0  0  0  0  0  0  0  0  0  0
    2.6123   -0.2578   -5.4771 O   0  0  0  0  0  0  0  0  0  0  0  0
    0.5526   -0.2272   -6.9881 O   0  0  0  0  0  0  0  0  0  0  0  0
   -0.0794    2.4227   -5.7440 F   0  0  0  0  0  0  0  0  0  0  0  0
    1.6485    2.3727   -4.4193 F   0  0  0  0  0  0  0  0  0  0  0  0
    1.9306    2.5287   -6.5735 F   0  0  0  0  0  0  0  0  0  0  0  0
   -4.2558   -2.7653   -4.7743 H   0  0  0  0  0  0  0  0  0  0  0  0
  1  2  1  0  0  0  0
  1  7  1  0  0  0  0
  2  8  1  0  0  0  0
  3 15  1  0  0  0  0
  3  2  2  0  0  0  0
  4  3  1  0  0  0  0
  5  4  2  0  0  0  0
  5  6  1  0  0  0  0
  6  1  2  0  0  0  0
  9  4  1  0  0  0  0
 10  5  1  0  0  0  0
 12 11  3  0  0  0  0
 13 14  1  0  0  0  0
 13 16  2  0  0  0  0
 13 15  1  0  0  0  0
 14 19  1  0  0  0  0
 17 13  2  0  0  0  0
 18 14  1  0  0  0  0
 20 14  1  0  0  0  0
 21  6  1  0  0  0  0
M  END
