Coordinates from ORCA-job Ph-N2-OTf-B3LYPG-6-31G_dp-MTMO-d009-169-n800
 OpenBabel09051908113D

 21 20  0  0  0  0  0  0  0  0999 V2000
   -1.7997   -2.5049   -4.5887 C   0  0  0  0  0  0  0  0  0  0  0  0
   -0.5681   -1.8506   -4.5356 C   0  0  0  0  0  0  0  0  0  0  0  0
   -0.5232   -0.4914   -4.8279 C   0  0  0  0  0  0  0  0  0  0  0  0
   -1.6609    0.2323   -5.1701 C   0  0  0  0  0  0  0  0  0  0  0  0
   -2.8845   -0.4362   -5.2230 C   0  0  0  0  0  0  0  0  0  0  0  0
   -2.9557   -1.8005   -4.9327 C   0  0  0  0  0  0  0  0  0  0  0  0
   -1.8534   -3.5644   -4.3589 H   0  0  0  0  0  0  0  0  0  0  0  0
    0.3435   -2.3720   -4.2647 H   0  0  0  0  0  0  0  0  0  0  0  0
   -1.5826    1.2906   -5.3895 H   0  0  0  0  0  0  0  0  0  0  0  0
   -3.7821    0.1126   -5.4903 H   0  0  0  0  0  0  0  0  0  0  0  0
    4.9647    5.8902   -8.5681 N   0  0  0  0  0  0  0  0  0  0  0  0
    5.7796    6.4687   -9.0404 N   0  0  0  0  0  0  0  0  0  0  0  0
    1.6478    0.4723   -6.0049 S   0  0  0  0  0  0  0  0  0  0  0  0
    1.6240    2.3371   -5.8954 C   0  0  0  0  0  0  0  0  0  0  0  0
    0.7142    0.1756   -4.6808 O   0  0  0  0  0  0  0  0  0  0  0  0
    2.9998    0.0472   -5.6940 O   0  0  0  0  0  0  0  0  0  0  0  0
    0.9531    0.0858   -7.2216 O   0  0  0  0  0  0  0  0  0  0  0  0
    0.3739    2.7820   -6.0525 F   0  0  0  0  0  0  0  0  0  0  0  0
    2.0915    2.7275   -4.7145 F   0  0  0  0  0  0  0  0  0  0  0  0
    2.3913    2.8193   -6.8701 F   0  0  0  0  0  0  0  0  0  0  0  0
   -3.9114   -2.3142   -4.9741 H   0  0  0  0  0  0  0  0  0  0  0  0
  1  2  1  0  0  0  0
  1  7  1  0  0  0  0
  2  8  1  0  0  0  0
  3 15  1  0  0  0  0
  3  2  2  0  0  0  0
  4  3  1  0  0  0  0
  5  4  2  0  0  0  0
  5  6  1  0  0  0  0
  6  1  2  0  0  0  0
  9  4  1  0  0  0  0
 10  5  1  0  0  0  0
 12 11  3  0  0  0  0
 13 14  1  0  0  0  0
 13 16  2  0  0  0  0
 13 15  1  0  0  0  0
 14 19  1  0  0  0  0
 17 13  2  0  0  0  0
 18 14  1  0  0  0  0
 20 14  1  0  0  0  0
 21  6  1  0  0  0  0
M  END
