Coordinates from ORCA-job Ph-N2-OTf-B3LYPG-6-31G_dp-MTMO-d009-169-n800
 OpenBabel09051908113D

 21 20  0  0  0  0  0  0  0  0999 V2000
   -2.1413   -2.9442   -4.4279 C   0  0  0  0  0  0  0  0  0  0  0  0
   -0.9195   -2.2727   -4.3651 C   0  0  0  0  0  0  0  0  0  0  0  0
   -0.9010   -0.9013   -4.5975 C   0  0  0  0  0  0  0  0  0  0  0  0
   -2.0556   -0.1821   -4.8891 C   0  0  0  0  0  0  0  0  0  0  0  0
   -3.2692   -0.8677   -4.9520 C   0  0  0  0  0  0  0  0  0  0  0  0
   -3.3139   -2.2445   -4.7216 C   0  0  0  0  0  0  0  0  0  0  0  0
   -2.1744   -4.0137   -4.2446 H   0  0  0  0  0  0  0  0  0  0  0  0
    0.0045   -2.7905   -4.1321 H   0  0  0  0  0  0  0  0  0  0  0  0
   -1.9973    0.8860   -5.0627 H   0  0  0  0  0  0  0  0  0  0  0  0
   -4.1798   -0.3225   -5.1801 H   0  0  0  0  0  0  0  0  0  0  0  0
    8.6146    9.6575  -10.9733 N   0  0  0  0  0  0  0  0  0  0  0  0
    9.5775   10.1547  -11.1905 N   0  0  0  0  0  0  0  0  0  0  0  0
    1.2419    0.1361   -5.7631 S   0  0  0  0  0  0  0  0  0  0  0  0
    1.1755    1.9963   -5.6031 C   0  0  0  0  0  0  0  0  0  0  0  0
    0.3273   -0.2199   -4.4404 O   0  0  0  0  0  0  0  0  0  0  0  0
    2.6062   -0.2643   -5.4737 O   0  0  0  0  0  0  0  0  0  0  0  0
    0.5464   -0.2335   -6.9845 O   0  0  0  0  0  0  0  0  0  0  0  0
   -0.0854    2.4163   -5.7403 F   0  0  0  0  0  0  0  0  0  0  0  0
    1.6425    2.3662   -4.4156 F   0  0  0  0  0  0  0  0  0  0  0  0
    1.9245    2.5224   -6.5698 F   0  0  0  0  0  0  0  0  0  0  0  0
   -4.2618   -2.7717   -4.7705 H   0  0  0  0  0  0  0  0  0  0  0  0
  1  2  1  0  0  0  0
  1  7  1  0  0  0  0
  2  8  1  0  0  0  0
  3 15  1  0  0  0  0
  3  2  2  0  0  0  0
  4  3  1  0  0  0  0
  5  4  2  0  0  0  0
  5  6  1  0  0  0  0
  6  1  2  0  0  0  0
  9  4  1  0  0  0  0
 10  5  1  0  0  0  0
 12 11  3  0  0  0  0
 13 14  1  0  0  0  0
 13 16  2  0  0  0  0
 13 15  1  0  0  0  0
 14 19  1  0  0  0  0
 17 13  2  0  0  0  0
 18 14  1  0  0  0  0
 20 14  1  0  0  0  0
 21  6  1  0  0  0  0
M  END
