Coordinates from ORCA-job Ph-N2-OTf-B3LYPG-6-31G_dp-MTMO-d009-169-n800
 OpenBabel09051908113D

 21 19  0  0  0  0  0  0  0  0999 V2000
   -1.3768   -0.9347   -5.6158 C   0  0  0  0  0  0  0  0  0  0  0  0
   -0.6467    0.1835   -5.1354 C   0  0  0  0  0  0  0  0  0  0  0  0
   -1.3450    1.2400   -5.0772 C   0  0  0  0  0  0  0  0  0  0  0  0
   -2.6092    1.6723   -5.3354 C   0  0  0  0  0  0  0  0  0  0  0  0
   -3.3264    0.5491   -5.8135 C   0  0  0  0  0  0  0  0  0  0  0  0
   -2.7230   -0.7134   -5.9472 C   0  0  0  0  0  0  0  0  0  0  0  0
   -0.9234   -1.9151   -5.7279 H   0  0  0  0  0  0  0  0  0  0  0  0
    1.0596   -0.0201   -4.7497 H   0  0  0  0  0  0  0  0  0  0  0  0
   -3.0258    2.6628   -5.2154 H   0  0  0  0  0  0  0  0  0  0  0  0
   -4.3702    0.6861   -6.0820 H   0  0  0  0  0  0  0  0  0  0  0  0
   -0.1914    3.3647   -4.2292 N   0  0  0  0  0  0  0  0  0  0  0  0
    0.7244    3.8599   -3.8590 N   0  0  0  0  0  0  0  0  0  0  0  0
    3.0240    0.6804   -5.3879 S   0  0  0  0  0  0  0  0  0  0  0  0
    3.1527   -0.3204   -6.9536 C   0  0  0  0  0  0  0  0  0  0  0  0
    2.3627    1.9288   -5.7509 O   0  0  0  0  0  0  0  0  0  0  0  0
    4.3255    0.6443   -4.7486 O   0  0  0  0  0  0  0  0  0  0  0  0
    2.0328   -0.2539   -4.5523 O   0  0  0  0  0  0  0  0  0  0  0  0
    1.9265   -0.5253   -7.4500 F   0  0  0  0  0  0  0  0  0  0  0  0
    3.8818    0.3547   -7.8418 F   0  0  0  0  0  0  0  0  0  0  0  0
    3.7282   -1.4949   -6.7042 F   0  0  0  0  0  0  0  0  0  0  0  0
   -3.3184   -1.5419   -6.3205 H   0  0  0  0  0  0  0  0  0  0  0  0
  1  2  2  0  0  0  0
  2  3  1  0  0  0  0
  4  9  1  0  0  0  0
  4  3  2  0  0  0  0
  5  4  1  0  0  0  0
  6  5  2  0  0  0  0
  6  1  1  0  0  0  0
  7  1  1  0  0  0  0
  8 17  1  0  0  0  0
 10  5  1  0  0  0  0
 11 12  3  0  0  0  0
 13 16  2  0  0  0  0
 13 17  1  0  0  0  0
 14 20  1  0  0  0  0
 14 13  1  0  0  0  0
 15 13  2  0  0  0  0
 18 14  1  0  0  0  0
 19 14  1  0  0  0  0
 21  6  1  0  0  0  0
M  RAD  2   2   2   3   2
M  END
