Coordinates from ORCA-job Ph-N2-OTf-B3LYPG-6-31G_dp-MTMO-d009-169-n800
 OpenBabel09051908113D

 21 20  0  0  0  0  0  0  0  0999 V2000
   -1.9907   -2.7799   -4.5043 C   0  0  0  0  0  0  0  0  0  0  0  0
   -0.7690   -2.1079   -4.4443 C   0  0  0  0  0  0  0  0  0  0  0  0
   -0.7496   -0.7388   -4.6896 C   0  0  0  0  0  0  0  0  0  0  0  0
   -1.9033   -0.0223   -4.9913 C   0  0  0  0  0  0  0  0  0  0  0  0
   -3.1167   -0.7083   -5.0513 C   0  0  0  0  0  0  0  0  0  0  0  0
   -3.1623   -2.0829   -4.8081 C   0  0  0  0  0  0  0  0  0  0  0  0
   -2.0246   -3.8476   -4.3109 H   0  0  0  0  0  0  0  0  0  0  0  0
    0.1543   -2.6236   -4.2037 H   0  0  0  0  0  0  0  0  0  0  0  0
   -1.8444    1.0442   -5.1747 H   0  0  0  0  0  0  0  0  0  0  0  0
   -4.0266   -0.1652   -5.2874 H   0  0  0  0  0  0  0  0  0  0  0  0
    7.1747    8.1277  -10.0773 N   0  0  0  0  0  0  0  0  0  0  0  0
    8.1224    8.6468  -10.3094 N   0  0  0  0  0  0  0  0  0  0  0  0
    1.3942    0.2923   -5.8591 S   0  0  0  0  0  0  0  0  0  0  0  0
    1.3304    2.1533   -5.7069 C   0  0  0  0  0  0  0  0  0  0  0  0
    0.4786   -0.0565   -4.5353 O   0  0  0  0  0  0  0  0  0  0  0  0
    2.7578   -0.1088   -5.5676 O   0  0  0  0  0  0  0  0  0  0  0  0
    0.6986   -0.0814   -7.0792 O   0  0  0  0  0  0  0  0  0  0  0  0
    0.0701    2.5745   -5.8463 F   0  0  0  0  0  0  0  0  0  0  0  0
    1.7974    2.5274   -4.5206 F   0  0  0  0  0  0  0  0  0  0  0  0
    2.0806    2.6742   -6.6754 F   0  0  0  0  0  0  0  0  0  0  0  0
   -4.1102   -2.6103   -4.8548 H   0  0  0  0  0  0  0  0  0  0  0  0
  1  2  1  0  0  0  0
  1  7  1  0  0  0  0
  2  8  1  0  0  0  0
  3 15  1  0  0  0  0
  3  2  2  0  0  0  0
  4  3  1  0  0  0  0
  5  4  2  0  0  0  0
  5  6  1  0  0  0  0
  6  1  2  0  0  0  0
  9  4  1  0  0  0  0
 10  5  1  0  0  0  0
 12 11  3  0  0  0  0
 13 14  1  0  0  0  0
 13 16  2  0  0  0  0
 13 15  1  0  0  0  0
 14 19  1  0  0  0  0
 17 13  2  0  0  0  0
 18 14  1  0  0  0  0
 20 14  1  0  0  0  0
 21  6  1  0  0  0  0
M  END
