Coordinates from ORCA-job Ph-N2-OTf-B3LYPG-6-31G_dp-MTMO-d009-169-n800
 OpenBabel09051908113D

 21 20  0  0  0  0  0  0  0  0999 V2000
   -2.1434   -2.9469   -4.4265 C   0  0  0  0  0  0  0  0  0  0  0  0
   -0.9218   -2.2750   -4.3637 C   0  0  0  0  0  0  0  0  0  0  0  0
   -0.9036   -0.9037   -4.5961 C   0  0  0  0  0  0  0  0  0  0  0  0
   -2.0584   -0.1848   -4.8878 C   0  0  0  0  0  0  0  0  0  0  0  0
   -3.2718   -0.8706   -4.9507 C   0  0  0  0  0  0  0  0  0  0  0  0
   -3.3162   -2.2475   -4.7203 C   0  0  0  0  0  0  0  0  0  0  0  0
   -2.1763   -4.0164   -4.2431 H   0  0  0  0  0  0  0  0  0  0  0  0
    0.0023   -2.7927   -4.1306 H   0  0  0  0  0  0  0  0  0  0  0  0
   -2.0003    0.8833   -5.0614 H   0  0  0  0  0  0  0  0  0  0  0  0
   -4.1825   -0.3257   -5.1789 H   0  0  0  0  0  0  0  0  0  0  0  0
    8.6379    9.6815  -10.9874 N   0  0  0  0  0  0  0  0  0  0  0  0
    9.6008   10.1787  -11.2049 N   0  0  0  0  0  0  0  0  0  0  0  0
    1.2391    0.1338   -5.7618 S   0  0  0  0  0  0  0  0  0  0  0  0
    1.1734    1.9940   -5.6010 C   0  0  0  0  0  0  0  0  0  0  0  0
    0.3245   -0.2218   -4.4390 O   0  0  0  0  0  0  0  0  0  0  0  0
    2.6032   -0.2675   -5.4732 O   0  0  0  0  0  0  0  0  0  0  0  0
    0.5431   -0.2349   -6.9832 O   0  0  0  0  0  0  0  0  0  0  0  0
   -0.0874    2.4144   -5.7374 F   0  0  0  0  0  0  0  0  0  0  0  0
    1.6411    2.3633   -4.4135 F   0  0  0  0  0  0  0  0  0  0  0  0
    1.9221    2.5202   -6.5678 F   0  0  0  0  0  0  0  0  0  0  0  0
   -4.2640   -2.7748   -4.7692 H   0  0  0  0  0  0  0  0  0  0  0  0
  1  2  1  0  0  0  0
  1  7  1  0  0  0  0
  2  8  1  0  0  0  0
  3 15  1  0  0  0  0
  3  2  2  0  0  0  0
  4  3  1  0  0  0  0
  5  4  2  0  0  0  0
  5  6  1  0  0  0  0
  6  1  2  0  0  0  0
  9  4  1  0  0  0  0
 10  5  1  0  0  0  0
 12 11  3  0  0  0  0
 13 14  1  0  0  0  0
 13 16  2  0  0  0  0
 13 15  1  0  0  0  0
 14 19  1  0  0  0  0
 17 13  2  0  0  0  0
 18 14  1  0  0  0  0
 20 14  1  0  0  0  0
 21  6  1  0  0  0  0
M  END
