Coordinates from ORCA-job Ph-N2-OTf-B3LYPG-6-31G_dp-MTMO-d009-169-n800
 OpenBabel09051908113D

 21 20  0  0  0  0  0  0  0  0999 V2000
   -1.9004   -1.7650   -5.2945 C   0  0  0  0  0  0  0  0  0  0  0  0
   -0.5643   -1.5469   -4.9556 C   0  0  0  0  0  0  0  0  0  0  0  0
   -0.1318   -0.2358   -4.7805 C   0  0  0  0  0  0  0  0  0  0  0  0
   -0.9871    0.8533   -4.9203 C   0  0  0  0  0  0  0  0  0  0  0  0
   -2.3218    0.6179   -5.2507 C   0  0  0  0  0  0  0  0  0  0  0  0
   -2.7782   -0.6886   -5.4407 C   0  0  0  0  0  0  0  0  0  0  0  0
   -2.2544   -2.7808   -5.4406 H   0  0  0  0  0  0  0  0  0  0  0  0
    0.1314   -2.3684   -4.8332 H   0  0  0  0  0  0  0  0  0  0  0  0
   -0.6045    1.8566   -4.7677 H   0  0  0  0  0  0  0  0  0  0  0  0
   -3.0023    1.4565   -5.3610 H   0  0  0  0  0  0  0  0  0  0  0  0
    1.0531    4.5433   -7.4183 N   0  0  0  0  0  0  0  0  0  0  0  0
    0.7040    5.5310   -7.7701 N   0  0  0  0  0  0  0  0  0  0  0  0
    2.4545   -0.1635   -5.3882 S   0  0  0  0  0  0  0  0  0  0  0  0
    2.3551    1.4610   -6.3154 C   0  0  0  0  0  0  0  0  0  0  0  0
    1.1905    0.0266   -4.3569 O   0  0  0  0  0  0  0  0  0  0  0  0
    3.6378   -0.1150   -4.5533 O   0  0  0  0  0  0  0  0  0  0  0  0
    2.1933   -1.2246   -6.3464 O   0  0  0  0  0  0  0  0  0  0  0  0
    1.2798    1.4576   -7.1028 F   0  0  0  0  0  0  0  0  0  0  0  0
    2.2693    2.4663   -5.4459 F   0  0  0  0  0  0  0  0  0  0  0  0
    3.4539    1.5932   -7.0533 F   0  0  0  0  0  0  0  0  0  0  0  0
   -3.8164   -0.8678   -5.7021 H   0  0  0  0  0  0  0  0  0  0  0  0
  1  2  1  0  0  0  0
  2  8  1  0  0  0  0
  2  3  2  0  0  0  0
  3 15  1  0  0  0  0
  4  3  1  0  0  0  0
  4  9  1  0  0  0  0
  5  4  2  0  0  0  0
  6  1  2  0  0  0  0
  6  5  1  0  0  0  0
  7  1  1  0  0  0  0
 10  5  1  0  0  0  0
 12 11  3  0  0  0  0
 13 16  2  0  0  0  0
 13 15  1  0  0  0  0
 14 19  1  0  0  0  0
 14 13  1  0  0  0  0
 17 13  2  0  0  0  0
 18 14  1  0  0  0  0
 20 14  1  0  0  0  0
 21  6  1  0  0  0  0
M  END
