Coordinates from ORCA-job Ph-N2-OTf-B3LYPG-6-31G_dp-MTMO-d009-169-n800
 OpenBabel09051908113D

 21 20  0  0  0  0  0  0  0  0999 V2000
   -1.8910   -2.6402   -4.5574 C   0  0  0  0  0  0  0  0  0  0  0  0
   -0.6647   -1.9768   -4.4959 C   0  0  0  0  0  0  0  0  0  0  0  0
   -0.6323   -0.6116   -4.7608 C   0  0  0  0  0  0  0  0  0  0  0  0
   -1.7774    0.1093   -5.0838 C   0  0  0  0  0  0  0  0  0  0  0  0
   -2.9956   -0.5682   -5.1452 C   0  0  0  0  0  0  0  0  0  0  0  0
   -3.0542   -1.9387   -4.8824 C   0  0  0  0  0  0  0  0  0  0  0  0
   -1.9349   -3.7046   -4.3487 H   0  0  0  0  0  0  0  0  0  0  0  0
    0.2523   -2.4959   -4.2392 H   0  0  0  0  0  0  0  0  0  0  0  0
   -1.7088    1.1724   -5.2820 H   0  0  0  0  0  0  0  0  0  0  0  0
   -3.8989   -0.0218   -5.3978 H   0  0  0  0  0  0  0  0  0  0  0  0
    6.0313    6.9495   -9.2984 N   0  0  0  0  0  0  0  0  0  0  0  0
    6.9009    7.5054   -9.6937 N   0  0  0  0  0  0  0  0  0  0  0  0
    1.5268    0.3923   -5.9261 S   0  0  0  0  0  0  0  0  0  0  0  0
    1.4813    2.2548   -5.7870 C   0  0  0  0  0  0  0  0  0  0  0  0
    0.6001    0.0628   -4.6050 O   0  0  0  0  0  0  0  0  0  0  0  0
    2.8845   -0.0210   -5.6244 O   0  0  0  0  0  0  0  0  0  0  0  0
    0.8340    0.0173   -7.1474 O   0  0  0  0  0  0  0  0  0  0  0  0
    0.2261    2.6879   -5.9357 F   0  0  0  0  0  0  0  0  0  0  0  0
    1.9461    2.6323   -4.6010 F   0  0  0  0  0  0  0  0  0  0  0  0
    2.2417    2.7612   -6.7553 F   0  0  0  0  0  0  0  0  0  0  0  0
   -4.0057   -2.4595   -4.9303 H   0  0  0  0  0  0  0  0  0  0  0  0
  1  2  1  0  0  0  0
  1  7  1  0  0  0  0
  2  8  1  0  0  0  0
  3 15  1  0  0  0  0
  3  2  2  0  0  0  0
  4  3  1  0  0  0  0
  5  4  2  0  0  0  0
  5  6  1  0  0  0  0
  6  1  2  0  0  0  0
  9  4  1  0  0  0  0
 10  5  1  0  0  0  0
 12 11  3  0  0  0  0
 13 14  1  0  0  0  0
 13 16  2  0  0  0  0
 13 15  1  0  0  0  0
 14 19  1  0  0  0  0
 17 13  2  0  0  0  0
 18 14  1  0  0  0  0
 20 14  1  0  0  0  0
 21  6  1  0  0  0  0
M  END
