Coordinates from ORCA-job Ph-N2-OTf-B3LYPG-6-31G_dp-MTMO-d009-169-n800
 OpenBabel09051908113D

 21 20  0  0  0  0  0  0  0  0999 V2000
   -1.8209   -2.5383   -4.5845 C   0  0  0  0  0  0  0  0  0  0  0  0
   -0.5908   -1.8815   -4.5278 C   0  0  0  0  0  0  0  0  0  0  0  0
   -0.5492   -0.5204   -4.8117 C   0  0  0  0  0  0  0  0  0  0  0  0
   -1.6887    0.2028   -5.1490 C   0  0  0  0  0  0  0  0  0  0  0  0
   -2.9108   -0.4682   -5.2054 C   0  0  0  0  0  0  0  0  0  0  0  0
   -2.9787   -1.8345   -4.9236 C   0  0  0  0  0  0  0  0  0  0  0  0
   -1.8721   -3.5993   -4.3611 H   0  0  0  0  0  0  0  0  0  0  0  0
    0.3221   -2.4024   -4.2605 H   0  0  0  0  0  0  0  0  0  0  0  0
   -1.6130    1.2626   -5.3618 H   0  0  0  0  0  0  0  0  0  0  0  0
   -3.8098    0.0801   -5.4689 H   0  0  0  0  0  0  0  0  0  0  0  0
    5.2155    6.1446   -8.7471 N   0  0  0  0  0  0  0  0  0  0  0  0
    6.0506    6.7043   -9.2064 N   0  0  0  0  0  0  0  0  0  0  0  0
    1.6191    0.4556   -5.9834 S   0  0  0  0  0  0  0  0  0  0  0  0
    1.5890    2.3197   -5.8641 C   0  0  0  0  0  0  0  0  0  0  0  0
    0.6868    0.1486   -4.6609 O   0  0  0  0  0  0  0  0  0  0  0  0
    2.9726    0.0337   -5.6748 O   0  0  0  0  0  0  0  0  0  0  0  0
    0.9257    0.0733   -7.2022 O   0  0  0  0  0  0  0  0  0  0  0  0
    0.3374    2.7613   -6.0190 F   0  0  0  0  0  0  0  0  0  0  0  0
    2.0552    2.7056   -4.6813 F   0  0  0  0  0  0  0  0  0  0  0  0
    2.3547    2.8095   -6.8364 F   0  0  0  0  0  0  0  0  0  0  0  0
   -3.9332   -2.3501   -4.9677 H   0  0  0  0  0  0  0  0  0  0  0  0
  1  2  1  0  0  0  0
  1  7  1  0  0  0  0
  2  8  1  0  0  0  0
  3 15  1  0  0  0  0
  3  2  2  0  0  0  0
  4  3  1  0  0  0  0
  5  4  2  0  0  0  0
  5  6  1  0  0  0  0
  6  1  2  0  0  0  0
  9  4  1  0  0  0  0
 10  5  1  0  0  0  0
 12 11  3  0  0  0  0
 13 14  1  0  0  0  0
 13 16  2  0  0  0  0
 13 15  1  0  0  0  0
 14 19  1  0  0  0  0
 17 13  2  0  0  0  0
 18 14  1  0  0  0  0
 20 14  1  0  0  0  0
 21  6  1  0  0  0  0
M  END
