Coordinates from ORCA-job Ph-N2-OTf-B3LYPG-6-31G_dp-MTMO-d009-169-n800
 OpenBabel09051908113D

 21 20  0  0  0  0  0  0  0  0999 V2000
   -1.9030   -1.7533   -5.0793 C   0  0  0  0  0  0  0  0  0  0  0  0
   -0.5746   -1.4484   -4.7794 C   0  0  0  0  0  0  0  0  0  0  0  0
   -0.1620   -0.1223   -4.8713 C   0  0  0  0  0  0  0  0  0  0  0  0
   -1.0303    0.9012   -5.2398 C   0  0  0  0  0  0  0  0  0  0  0  0
   -2.3577    0.5811   -5.5269 C   0  0  0  0  0  0  0  0  0  0  0  0
   -2.7939   -0.7437   -5.4502 C   0  0  0  0  0  0  0  0  0  0  0  0
   -2.2407   -2.7831   -5.0166 H   0  0  0  0  0  0  0  0  0  0  0  0
    0.1297   -2.2169   -4.4844 H   0  0  0  0  0  0  0  0  0  0  0  0
   -0.6658    1.9209   -5.2957 H   0  0  0  0  0  0  0  0  0  0  0  0
   -3.0485    1.3684   -5.8121 H   0  0  0  0  0  0  0  0  0  0  0  0
    0.6871    4.5670   -6.8114 N   0  0  0  0  0  0  0  0  0  0  0  0
    0.6283    5.6580   -6.9776 N   0  0  0  0  0  0  0  0  0  0  0  0
    2.4408   -0.1670   -5.4223 S   0  0  0  0  0  0  0  0  0  0  0  0
    2.5358    1.3640   -6.4922 C   0  0  0  0  0  0  0  0  0  0  0  0
    1.1497    0.2401   -4.4903 O   0  0  0  0  0  0  0  0  0  0  0  0
    3.5871   -0.1432   -4.5359 O   0  0  0  0  0  0  0  0  0  0  0  0
    2.1236   -1.2868   -6.2926 O   0  0  0  0  0  0  0  0  0  0  0  0
    1.4190    1.4746   -7.2133 F   0  0  0  0  0  0  0  0  0  0  0  0
    2.6798    2.4394   -5.7226 F   0  0  0  0  0  0  0  0  0  0  0  0
    3.5837    1.2460   -7.3048 F   0  0  0  0  0  0  0  0  0  0  0  0
   -3.8263   -0.9891   -5.6788 H   0  0  0  0  0  0  0  0  0  0  0  0
  1  7  1  0  0  0  0
  1  2  2  0  0  0  0
  2  8  1  0  0  0  0
  3  2  1  0  0  0  0
  3 15  1  0  0  0  0
  4  3  2  0  0  0  0
  5  6  2  0  0  0  0
  5  4  1  0  0  0  0
  6  1  1  0  0  0  0
  9  4  1  0  0  0  0
 10  5  1  0  0  0  0
 12 11  3  0  0  0  0
 13 16  2  0  0  0  0
 13 15  1  0  0  0  0
 14 19  1  0  0  0  0
 14 13  1  0  0  0  0
 17 13  2  0  0  0  0
 18 14  1  0  0  0  0
 20 14  1  0  0  0  0
 21  6  1  0  0  0  0
M  END
