Coordinates from ORCA-job Ph-N2-OTf-B3LYPG-6-31G_dp-MTMO-d009-169-n800
 OpenBabel09051908113D

 21 21  0  0  1  0  0  0  0  0999 V2000
   -0.7907   -0.7978   -5.5345 C   0  0  0  0  0  0  0  0  0  0  0  0
   -0.0823    0.0220   -4.5199 C   0  0  2  0  0  0  0  0  0  0  0  0
   -0.7466    1.3696   -4.2483 C   0  0  0  0  0  0  0  0  0  0  0  0
   -1.7921    1.8497   -5.1645 C   0  0  0  0  0  0  0  0  0  0  0  0
   -2.2945    1.0452   -6.1226 C   0  0  0  0  0  0  0  0  0  0  0  0
   -1.8049   -0.3094   -6.2765 C   0  0  0  0  0  0  0  0  0  0  0  0
   -0.4437   -1.8184   -5.6534 H   0  0  0  0  0  0  0  0  0  0  0  0
    0.0563   -0.5189   -3.5792 H   0  0  0  0  0  0  0  0  0  0  0  0
   -2.1374    2.8684   -5.0202 H   0  0  0  0  0  0  0  0  0  0  0  0
   -3.0726    1.4085   -6.7853 H   0  0  0  0  0  0  0  0  0  0  0  0
   -0.4260    1.9511   -3.3710 N   0  0  0  0  0  0  0  0  0  0  0  0
   -0.0848    2.5545   -2.4462 N   0  0  0  0  0  0  0  0  0  0  0  0
    1.9776    0.9676   -6.1318 S   0  0  0  0  0  0  0  0  0  0  0  0
    2.5916   -0.4968   -7.1163 C   0  0  0  0  0  0  0  0  0  0  0  0
    0.9066    1.5899   -6.8968 O   0  0  0  0  0  0  0  0  0  0  0  0
    3.1615    1.6991   -5.7162 O   0  0  0  0  0  0  0  0  0  0  0  0
    1.4093    0.1931   -4.8312 O   0  0  0  0  0  0  0  0  0  0  0  0
    1.5731   -1.2962   -7.4456 F   0  0  0  0  0  0  0  0  0  0  0  0
    3.1664   -0.0371   -8.2271 F   0  0  0  0  0  0  0  0  0  0  0  0
    3.4793   -1.1847   -6.4018 F   0  0  0  0  0  0  0  0  0  0  0  0
   -2.2846   -0.9523   -7.0093 H   0  0  0  0  0  0  0  0  0  0  0  0
  1  2  1  0  0  0  0
  2  3  1  0  0  0  0
  2  8  1  1  0  0  0
  3 11  1  0  0  0  0
  4  9  1  0  0  0  0
  4  3  2  0  0  0  0
  5  4  1  0  0  0  0
  6  5  1  0  0  0  0
  6  1  2  0  0  0  0
  7  1  1  0  0  0  0
 10  5  1  0  0  0  0
 11 12  1  0  0  0  0
 13 16  2  0  0  0  0
 13 17  1  0  0  0  0
 14 20  1  0  0  0  0
 14 13  1  0  0  0  0
 15 13  2  0  0  0  0
 17  2  1  0  0  0  0
 18 14  1  0  0  0  0
 19 14  1  0  0  0  0
 21  6  1  0  0  0  0
M  RAD  3   5   2  11   2  12   3
M  END
