Coordinates from ORCA-job Ph-N2-OTf-B3LYPG-6-31G_dp-MTMO-d009-169-n800
 OpenBabel09051908113D

 21 20  0  0  0  0  0  0  0  0999 V2000
   -1.7930   -2.4943   -4.5890 C   0  0  0  0  0  0  0  0  0  0  0  0
   -0.5609   -1.8408   -4.5375 C   0  0  0  0  0  0  0  0  0  0  0  0
   -0.5149   -0.4824   -4.8333 C   0  0  0  0  0  0  0  0  0  0  0  0
   -1.6521    0.2414   -5.1773 C   0  0  0  0  0  0  0  0  0  0  0  0
   -2.8762   -0.4263   -5.2284 C   0  0  0  0  0  0  0  0  0  0  0  0
   -2.9484   -1.7899   -4.9346 C   0  0  0  0  0  0  0  0  0  0  0  0
   -1.8475   -3.5532   -4.3564 H   0  0  0  0  0  0  0  0  0  0  0  0
    0.3504   -2.3622   -4.2654 H   0  0  0  0  0  0  0  0  0  0  0  0
   -1.5730    1.2990   -5.3993 H   0  0  0  0  0  0  0  0  0  0  0  0
   -3.7735    0.1224   -5.4970 H   0  0  0  0  0  0  0  0  0  0  0  0
    4.8863    5.8085   -8.5104 N   0  0  0  0  0  0  0  0  0  0  0  0
    5.6938    6.3956   -8.9845 N   0  0  0  0  0  0  0  0  0  0  0  0
    1.6564    0.4777   -6.0130 S   0  0  0  0  0  0  0  0  0  0  0  0
    1.6352    2.3428   -5.9064 C   0  0  0  0  0  0  0  0  0  0  0  0
    0.7231    0.1840   -4.6880 O   0  0  0  0  0  0  0  0  0  0  0  0
    3.0080    0.0516   -5.7018 O   0  0  0  0  0  0  0  0  0  0  0  0
    0.9606    0.0902   -7.2287 O   0  0  0  0  0  0  0  0  0  0  0  0
    0.3856    2.7891   -6.0645 F   0  0  0  0  0  0  0  0  0  0  0  0
    2.1028    2.7342   -4.7259 F   0  0  0  0  0  0  0  0  0  0  0  0
    2.4034    2.8224   -6.8815 F   0  0  0  0  0  0  0  0  0  0  0  0
   -3.9045   -2.3029   -4.9746 H   0  0  0  0  0  0  0  0  0  0  0  0
  1  2  1  0  0  0  0
  1  7  1  0  0  0  0
  2  8  1  0  0  0  0
  3 15  1  0  0  0  0
  3  2  2  0  0  0  0
  4  3  1  0  0  0  0
  5  4  2  0  0  0  0
  5  6  1  0  0  0  0
  6  1  2  0  0  0  0
  9  4  1  0  0  0  0
 10  5  1  0  0  0  0
 12 11  3  0  0  0  0
 13 14  1  0  0  0  0
 13 16  2  0  0  0  0
 13 15  1  0  0  0  0
 14 19  1  0  0  0  0
 17 13  2  0  0  0  0
 18 14  1  0  0  0  0
 20 14  1  0  0  0  0
 21  6  1  0  0  0  0
M  END
