Coordinates from ORCA-job Ph-N2-OTf-B3LYPG-6-31G_dp-MTMO-d009-169-n800
 OpenBabel09051908113D

 21 20  0  0  0  0  0  0  0  0999 V2000
   -1.8144   -2.5277   -4.5863 C   0  0  0  0  0  0  0  0  0  0  0  0
   -0.5837   -1.8719   -4.5305 C   0  0  0  0  0  0  0  0  0  0  0  0
   -0.5407   -0.5114   -4.8167 C   0  0  0  0  0  0  0  0  0  0  0  0
   -1.6796    0.2123   -5.1554 C   0  0  0  0  0  0  0  0  0  0  0  0
   -2.9022   -0.4576   -5.2109 C   0  0  0  0  0  0  0  0  0  0  0  0
   -2.9714   -1.8233   -4.9268 C   0  0  0  0  0  0  0  0  0  0  0  0
   -1.8667   -3.5883   -4.3612 H   0  0  0  0  0  0  0  0  0  0  0  0
    0.3286   -2.3933   -4.2622 H   0  0  0  0  0  0  0  0  0  0  0  0
   -1.6028    1.2717   -5.3700 H   0  0  0  0  0  0  0  0  0  0  0  0
   -3.8007    0.0911   -5.4756 H   0  0  0  0  0  0  0  0  0  0  0  0
    5.1349    6.0642   -8.6903 N   0  0  0  0  0  0  0  0  0  0  0  0
    5.9638    6.6290   -9.1546 N   0  0  0  0  0  0  0  0  0  0  0  0
    1.6287    0.4607   -5.9897 S   0  0  0  0  0  0  0  0  0  0  0  0
    1.6000    2.3251   -5.8740 C   0  0  0  0  0  0  0  0  0  0  0  0
    0.6959    0.1566   -4.6668 O   0  0  0  0  0  0  0  0  0  0  0  0
    2.9818    0.0386   -5.6796 O   0  0  0  0  0  0  0  0  0  0  0  0
    0.9353    0.0765   -7.2078 O   0  0  0  0  0  0  0  0  0  0  0  0
    0.3488    2.7674   -6.0300 F   0  0  0  0  0  0  0  0  0  0  0  0
    2.0662    2.7128   -4.6918 F   0  0  0  0  0  0  0  0  0  0  0  0
    2.3663    2.8124   -6.8470 F   0  0  0  0  0  0  0  0  0  0  0  0
   -3.9264   -2.3381   -4.9703 H   0  0  0  0  0  0  0  0  0  0  0  0
  1  2  1  0  0  0  0
  1  7  1  0  0  0  0
  2  8  1  0  0  0  0
  3 15  1  0  0  0  0
  3  2  2  0  0  0  0
  4  3  1  0  0  0  0
  5  4  2  0  0  0  0
  5  6  1  0  0  0  0
  6  1  2  0  0  0  0
  9  4  1  0  0  0  0
 10  5  1  0  0  0  0
 12 11  3  0  0  0  0
 13 14  1  0  0  0  0
 13 16  2  0  0  0  0
 13 15  1  0  0  0  0
 14 19  1  0  0  0  0
 17 13  2  0  0  0  0
 18 14  1  0  0  0  0
 20 14  1  0  0  0  0
 21  6  1  0  0  0  0
M  END
