Coordinates from ORCA-job Ph-N2-OTf-B3LYPG-6-31G_dp-MTMO-d009-169-n800
 OpenBabel09051908113D

 21 20  0  0  0  0  0  0  0  0999 V2000
   -1.8304   -2.5535   -4.5822 C   0  0  0  0  0  0  0  0  0  0  0  0
   -0.6011   -1.8954   -4.5242 C   0  0  0  0  0  0  0  0  0  0  0  0
   -0.5610   -0.5335   -4.8044 C   0  0  0  0  0  0  0  0  0  0  0  0
   -1.7016    0.1893   -5.1393 C   0  0  0  0  0  0  0  0  0  0  0  0
   -2.9228   -0.4829   -5.1972 C   0  0  0  0  0  0  0  0  0  0  0  0
   -2.9891   -1.8500   -4.9190 C   0  0  0  0  0  0  0  0  0  0  0  0
   -1.8803   -3.6152   -4.3617 H   0  0  0  0  0  0  0  0  0  0  0  0
    0.3126   -2.4160   -4.2586 H   0  0  0  0  0  0  0  0  0  0  0  0
   -1.6271    1.2497   -5.3493 H   0  0  0  0  0  0  0  0  0  0  0  0
   -3.8226    0.0651   -5.4589 H   0  0  0  0  0  0  0  0  0  0  0  0
    5.3309    6.2590   -8.8285 N   0  0  0  0  0  0  0  0  0  0  0  0
    6.1741    6.8128   -9.2801 N   0  0  0  0  0  0  0  0  0  0  0  0
    1.6058    0.4481   -5.9741 S   0  0  0  0  0  0  0  0  0  0  0  0
    1.5730    2.3118   -5.8504 C   0  0  0  0  0  0  0  0  0  0  0  0
    0.6742    0.1365   -4.6522 O   0  0  0  0  0  0  0  0  0  0  0  0
    2.9600    0.0275   -5.6668 O   0  0  0  0  0  0  0  0  0  0  0  0
    0.9127    0.0676   -7.1937 O   0  0  0  0  0  0  0  0  0  0  0  0
    0.3208    2.7520   -6.0042 F   0  0  0  0  0  0  0  0  0  0  0  0
    2.0387    2.6957   -4.6668 F   0  0  0  0  0  0  0  0  0  0  0  0
    2.3378    2.8051   -6.8216 F   0  0  0  0  0  0  0  0  0  0  0  0
   -3.9430   -2.3666   -4.9642 H   0  0  0  0  0  0  0  0  0  0  0  0
  1  2  1  0  0  0  0
  1  7  1  0  0  0  0
  2  8  1  0  0  0  0
  3 15  1  0  0  0  0
  3  2  2  0  0  0  0
  4  3  1  0  0  0  0
  5  4  2  0  0  0  0
  5  6  1  0  0  0  0
  6  1  2  0  0  0  0
  9  4  1  0  0  0  0
 10  5  1  0  0  0  0
 12 11  3  0  0  0  0
 13 14  1  0  0  0  0
 13 16  2  0  0  0  0
 13 15  1  0  0  0  0
 14 19  1  0  0  0  0
 17 13  2  0  0  0  0
 18 14  1  0  0  0  0
 20 14  1  0  0  0  0
 21  6  1  0  0  0  0
M  END
