Coordinates from ORCA-job Ph-N2-OTf-B3LYPG-6-31G_dp-MTMO-d009-169-n800
 OpenBabel09051908113D

 21 20  0  0  0  0  0  0  0  0999 V2000
   -1.8149   -2.1542   -4.9776 C   0  0  0  0  0  0  0  0  0  0  0  0
   -0.5157   -1.6651   -4.8354 C   0  0  0  0  0  0  0  0  0  0  0  0
   -0.3274   -0.2869   -4.7874 C   0  0  0  0  0  0  0  0  0  0  0  0
   -1.3890    0.6096   -4.8661 C   0  0  0  0  0  0  0  0  0  0  0  0
   -2.6831    0.1045   -4.9980 C   0  0  0  0  0  0  0  0  0  0  0  0
   -2.8965   -1.2743   -5.0570 C   0  0  0  0  0  0  0  0  0  0  0  0
   -1.9795   -3.2265   -5.0218 H   0  0  0  0  0  0  0  0  0  0  0  0
    0.3351   -2.3326   -4.7657 H   0  0  0  0  0  0  0  0  0  0  0  0
   -1.1957    1.6756   -4.8191 H   0  0  0  0  0  0  0  0  0  0  0  0
   -3.5224    0.7906   -5.0559 H   0  0  0  0  0  0  0  0  0  0  0  0
    3.0870    5.1189   -7.6063 N   0  0  0  0  0  0  0  0  0  0  0  0
    3.6141    6.0338   -7.9323 N   0  0  0  0  0  0  0  0  0  0  0  0
    2.1231    0.1737   -5.7185 S   0  0  0  0  0  0  0  0  0  0  0  0
    1.8644    1.8499   -6.5089 C   0  0  0  0  0  0  0  0  0  0  0  0
    0.9610    0.2454   -4.5562 O   0  0  0  0  0  0  0  0  0  0  0  0
    3.3891    0.2238   -5.0145 O   0  0  0  0  0  0  0  0  0  0  0  0
    1.8002   -0.8333   -6.7153 O   0  0  0  0  0  0  0  0  0  0  0  0
    0.6284    1.9211   -7.0078 F   0  0  0  0  0  0  0  0  0  0  0  0
    2.0352    2.8058   -5.6010 F   0  0  0  0  0  0  0  0  0  0  0  0
    2.7530    1.9902   -7.4894 F   0  0  0  0  0  0  0  0  0  0  0  0
   -3.9046   -1.6630   -5.1634 H   0  0  0  0  0  0  0  0  0  0  0  0
  1  2  2  0  0  0  0
  2  3  1  0  0  0  0
  2  8  1  0  0  0  0
  3 15  1  0  0  0  0
  4  9  1  0  0  0  0
  4  3  2  0  0  0  0
  5  4  1  0  0  0  0
  6  5  2  0  0  0  0
  6  1  1  0  0  0  0
  7  1  1  0  0  0  0
 10  5  1  0  0  0  0
 12 11  3  0  0  0  0
 13 16  2  0  0  0  0
 13 15  1  0  0  0  0
 14 13  1  0  0  0  0
 14 19  1  0  0  0  0
 17 13  2  0  0  0  0
 18 14  1  0  0  0  0
 20 14  1  0  0  0  0
 21  6  1  0  0  0  0
M  END
