Coordinates from ORCA-job Ph-N2-OTf-B3LYPG-6-31G_dp-MTMO-d009-169-n800
 OpenBabel09051908113D

 21 20  0  0  0  0  0  0  0  0999 V2000
   -1.8183   -2.1395   -5.0074 C   0  0  0  0  0  0  0  0  0  0  0  0
   -0.5161   -1.6616   -4.8546 C   0  0  0  0  0  0  0  0  0  0  0  0
   -0.3191   -0.2857   -4.7816 C   0  0  0  0  0  0  0  0  0  0  0  0
   -1.3749    0.6189   -4.8451 C   0  0  0  0  0  0  0  0  0  0  0  0
   -2.6720    0.1247   -4.9877 C   0  0  0  0  0  0  0  0  0  0  0  0
   -2.8941   -1.2515   -5.0722 C   0  0  0  0  0  0  0  0  0  0  0  0
   -1.9897   -3.2098   -5.0716 H   0  0  0  0  0  0  0  0  0  0  0  0
    0.3304   -2.3356   -4.7965 H   0  0  0  0  0  0  0  0  0  0  0  0
   -1.1747    1.6826   -4.7776 H   0  0  0  0  0  0  0  0  0  0  0  0
   -3.5069    0.8171   -5.0339 H   0  0  0  0  0  0  0  0  0  0  0  0
    3.0286    5.1009   -7.6182 N   0  0  0  0  0  0  0  0  0  0  0  0
    3.5423    6.0221   -7.9481 N   0  0  0  0  0  0  0  0  0  0  0  0
    2.1405    0.1656   -5.6949 S   0  0  0  0  0  0  0  0  0  0  0  0
    1.8669    1.8285   -6.5075 C   0  0  0  0  0  0  0  0  0  0  0  0
    0.9716    0.2361   -4.5399 O   0  0  0  0  0  0  0  0  0  0  0  0
    3.4006    0.2386   -4.9825 O   0  0  0  0  0  0  0  0  0  0  0  0
    1.8366   -0.8567   -6.6820 O   0  0  0  0  0  0  0  0  0  0  0  0
    0.6375    1.8746   -7.0248 F   0  0  0  0  0  0  0  0  0  0  0  0
    2.0093    2.7969   -5.6078 F   0  0  0  0  0  0  0  0  0  0  0  0
    2.7676    1.9724   -7.4765 F   0  0  0  0  0  0  0  0  0  0  0  0
   -3.9045   -1.6317   -5.1871 H   0  0  0  0  0  0  0  0  0  0  0  0
  1  2  1  0  0  0  0
  2  8  1  0  0  0  0
  2  3  2  0  0  0  0
  3 15  1  0  0  0  0
  4  3  1  0  0  0  0
  4  9  1  0  0  0  0
  5  4  2  0  0  0  0
  6  1  2  0  0  0  0
  6  5  1  0  0  0  0
  7  1  1  0  0  0  0
 10  5  1  0  0  0  0
 12 11  3  0  0  0  0
 13 16  2  0  0  0  0
 13 15  1  0  0  0  0
 14 13  1  0  0  0  0
 14 19  1  0  0  0  0
 17 13  2  0  0  0  0
 18 14  1  0  0  0  0
 20 14  1  0  0  0  0
 21  6  1  0  0  0  0
M  END
