Coordinates from ORCA-job Ph-N2-OTf-B3LYPG-6-31G_dp-MTMO-d009-169-n800
 OpenBabel09051908113D

 21 20  0  0  0  0  0  0  0  0999 V2000
   -1.7729   -2.4605   -4.5807 C   0  0  0  0  0  0  0  0  0  0  0  0
   -0.5396   -1.8085   -4.5381 C   0  0  0  0  0  0  0  0  0  0  0  0
   -0.4918   -0.4540   -4.8509 C   0  0  0  0  0  0  0  0  0  0  0  0
   -1.6279    0.2673   -5.2035 C   0  0  0  0  0  0  0  0  0  0  0  0
   -2.8531   -0.3989   -5.2455 C   0  0  0  0  0  0  0  0  0  0  0  0
   -2.9273   -1.7585   -4.9345 C   0  0  0  0  0  0  0  0  0  0  0  0
   -1.8290   -3.5163   -4.3349 H   0  0  0  0  0  0  0  0  0  0  0  0
    0.3709   -2.3279   -4.2601 H   0  0  0  0  0  0  0  0  0  0  0  0
   -1.5469    1.3219   -5.4389 H   0  0  0  0  0  0  0  0  0  0  0  0
   -3.7496    0.1478   -5.5206 H   0  0  0  0  0  0  0  0  0  0  0  0
    4.6545    5.5685   -8.3242 N   0  0  0  0  0  0  0  0  0  0  0  0
    5.4337    6.1923   -8.7988 N   0  0  0  0  0  0  0  0  0  0  0  0
    1.6791    0.4907   -6.0447 S   0  0  0  0  0  0  0  0  0  0  0  0
    1.6743    2.3567   -5.9470 C   0  0  0  0  0  0  0  0  0  0  0  0
    0.7474    0.2125   -4.7151 O   0  0  0  0  0  0  0  0  0  0  0  0
    3.0282    0.0541   -5.7366 O   0  0  0  0  0  0  0  0  0  0  0  0
    0.9759    0.1031   -7.2562 O   0  0  0  0  0  0  0  0  0  0  0  0
    0.4282    2.8122   -6.1064 F   0  0  0  0  0  0  0  0  0  0  0  0
    2.1458    2.7495   -4.7685 F   0  0  0  0  0  0  0  0  0  0  0  0
    2.4460    2.8256   -6.9247 F   0  0  0  0  0  0  0  0  0  0  0  0
   -3.8843   -2.2705   -4.9676 H   0  0  0  0  0  0  0  0  0  0  0  0
  1  2  1  0  0  0  0
  1  7  1  0  0  0  0
  2  8  1  0  0  0  0
  3 15  1  0  0  0  0
  3  2  2  0  0  0  0
  4  3  1  0  0  0  0
  5  4  2  0  0  0  0
  5  6  1  0  0  0  0
  6  1  2  0  0  0  0
  9  4  1  0  0  0  0
 10  5  1  0  0  0  0
 12 11  3  0  0  0  0
 13 14  1  0  0  0  0
 13 16  2  0  0  0  0
 13 15  1  0  0  0  0
 14 19  1  0  0  0  0
 17 13  2  0  0  0  0
 18 14  1  0  0  0  0
 20 14  1  0  0  0  0
 21  6  1  0  0  0  0
M  END
