Coordinates from ORCA-job Ph-N2-OTf-B3LYPG-6-31G_dp-MTMO-d009-169-n800
 OpenBabel09051908113D

 21 20  0  0  0  0  0  0  0  0999 V2000
   -1.8773   -2.6222   -4.5650 C   0  0  0  0  0  0  0  0  0  0  0  0
   -0.6505   -1.9596   -4.5033 C   0  0  0  0  0  0  0  0  0  0  0  0
   -0.6168   -0.5948   -4.7702 C   0  0  0  0  0  0  0  0  0  0  0  0
   -1.7611    0.1264   -5.0952 C   0  0  0  0  0  0  0  0  0  0  0  0
   -2.9797   -0.5502   -5.1568 C   0  0  0  0  0  0  0  0  0  0  0  0
   -3.0396   -1.9203   -4.8920 C   0  0  0  0  0  0  0  0  0  0  0  0
   -1.9222   -3.6862   -4.3548 H   0  0  0  0  0  0  0  0  0  0  0  0
    0.2659   -2.4791   -4.2451 H   0  0  0  0  0  0  0  0  0  0  0  0
   -1.6915    1.1893   -5.2949 H   0  0  0  0  0  0  0  0  0  0  0  0
   -3.8824   -0.0034   -5.4110 H   0  0  0  0  0  0  0  0  0  0  0  0
    5.8792    6.7997   -9.1971 N   0  0  0  0  0  0  0  0  0  0  0  0
    6.7450    7.3478   -9.6115 N   0  0  0  0  0  0  0  0  0  0  0  0
    1.5439    0.4062   -5.9350 S   0  0  0  0  0  0  0  0  0  0  0  0
    1.5002    2.2689   -5.7976 C   0  0  0  0  0  0  0  0  0  0  0  0
    0.6160    0.0788   -4.6143 O   0  0  0  0  0  0  0  0  0  0  0  0
    2.9009   -0.0082   -5.6321 O   0  0  0  0  0  0  0  0  0  0  0  0
    0.8515    0.0307   -7.1565 O   0  0  0  0  0  0  0  0  0  0  0  0
    0.2454    2.7030   -5.9473 F   0  0  0  0  0  0  0  0  0  0  0  0
    1.9647    2.6469   -4.6117 F   0  0  0  0  0  0  0  0  0  0  0  0
    2.2615    2.7736   -6.7659 F   0  0  0  0  0  0  0  0  0  0  0  0
   -3.9915   -2.4404   -4.9401 H   0  0  0  0  0  0  0  0  0  0  0  0
  1  2  1  0  0  0  0
  1  7  1  0  0  0  0
  2  8  1  0  0  0  0
  3 15  1  0  0  0  0
  3  2  2  0  0  0  0
  4  3  1  0  0  0  0
  5  4  2  0  0  0  0
  5  6  1  0  0  0  0
  6  1  2  0  0  0  0
  9  4  1  0  0  0  0
 10  5  1  0  0  0  0
 12 11  3  0  0  0  0
 13 14  1  0  0  0  0
 13 16  2  0  0  0  0
 13 15  1  0  0  0  0
 14 19  1  0  0  0  0
 17 13  2  0  0  0  0
 18 14  1  0  0  0  0
 20 14  1  0  0  0  0
 21  6  1  0  0  0  0
M  END
