Coordinates from ORCA-job Ph-N2-OTf-B3LYPG-6-31G_dp-MTMO-d009-169-n800
 OpenBabel09051908113D

 21 20  0  0  0  0  0  0  0  0999 V2000
   -1.8791   -1.9395   -5.2657 C   0  0  0  0  0  0  0  0  0  0  0  0
   -0.5477   -1.6175   -4.9987 C   0  0  0  0  0  0  0  0  0  0  0  0
   -0.2231   -0.2844   -4.7652 C   0  0  0  0  0  0  0  0  0  0  0  0
   -1.1812    0.7251   -4.7764 C   0  0  0  0  0  0  0  0  0  0  0  0
   -2.5094    0.3852   -5.0342 C   0  0  0  0  0  0  0  0  0  0  0  0
   -2.8584   -0.9441   -5.2827 C   0  0  0  0  0  0  0  0  0  0  0  0
   -2.1491   -2.9734   -5.4574 H   0  0  0  0  0  0  0  0  0  0  0  0
    0.2245   -2.3772   -4.9767 H   0  0  0  0  0  0  0  0  0  0  0  0
   -0.8827    1.7490   -4.5795 H   0  0  0  0  0  0  0  0  0  0  0  0
   -3.2688    1.1609   -5.0421 H   0  0  0  0  0  0  0  0  0  0  0  0
    2.0146    4.7039   -7.7453 N   0  0  0  0  0  0  0  0  0  0  0  0
    1.9468    5.6703   -8.2766 N   0  0  0  0  0  0  0  0  0  0  0  0
    2.3205   -0.0037   -5.5020 S   0  0  0  0  0  0  0  0  0  0  0  0
    2.1706    1.6967   -6.2717 C   0  0  0  0  0  0  0  0  0  0  0  0
    1.0952    0.0793   -4.4096 O   0  0  0  0  0  0  0  0  0  0  0  0
    3.5379   -0.0165   -4.7160 O   0  0  0  0  0  0  0  0  0  0  0  0
    2.0289   -0.9762   -6.5420 O   0  0  0  0  0  0  0  0  0  0  0  0
    0.9977    1.7992   -6.8982 F   0  0  0  0  0  0  0  0  0  0  0  0
    2.2540    2.6265   -5.3242 F   0  0  0  0  0  0  0  0  0  0  0  0
    3.1626    1.8477   -7.1450 F   0  0  0  0  0  0  0  0  0  0  0  0
   -3.8921   -1.2045   -5.4884 H   0  0  0  0  0  0  0  0  0  0  0  0
  1  2  1  0  0  0  0
  2  8  1  0  0  0  0
  2  3  2  0  0  0  0
  3 15  1  0  0  0  0
  4  3  1  0  0  0  0
  4  9  1  0  0  0  0
  5  4  2  0  0  0  0
  6  1  2  0  0  0  0
  6  5  1  0  0  0  0
  7  1  1  0  0  0  0
 10  5  1  0  0  0  0
 12 11  3  0  0  0  0
 13 16  2  0  0  0  0
 13 15  1  0  0  0  0
 14 13  1  0  0  0  0
 14 19  1  0  0  0  0
 17 13  2  0  0  0  0
 18 14  1  0  0  0  0
 20 14  1  0  0  0  0
 21  6  1  0  0  0  0
M  END
