Coordinates from ORCA-job Ph-N2-OTf-B3LYPG-6-31G_dp-MTMO-d009-169-n800
 OpenBabel09051908113D

 21 20  0  0  0  0  0  0  0  0999 V2000
   -2.1025   -2.9030   -4.4492 C   0  0  0  0  0  0  0  0  0  0  0  0
   -0.8809   -2.2311   -4.3864 C   0  0  0  0  0  0  0  0  0  0  0  0
   -0.8625   -0.8601   -4.6209 C   0  0  0  0  0  0  0  0  0  0  0  0
   -2.0170   -0.1416   -4.9146 C   0  0  0  0  0  0  0  0  0  0  0  0
   -3.2303   -0.8275   -4.9775 C   0  0  0  0  0  0  0  0  0  0  0  0
   -3.2749   -2.2040   -4.7451 C   0  0  0  0  0  0  0  0  0  0  0  0
   -2.1355   -3.9722   -4.2643 H   0  0  0  0  0  0  0  0  0  0  0  0
    0.0430   -2.7483   -4.1518 H   0  0  0  0  0  0  0  0  0  0  0  0
   -1.9588    0.9263   -5.0898 H   0  0  0  0  0  0  0  0  0  0  0  0
   -4.1409   -0.2830   -5.2074 H   0  0  0  0  0  0  0  0  0  0  0  0
    8.2465    9.2691  -10.7492 N   0  0  0  0  0  0  0  0  0  0  0  0
    9.2096    9.7656  -10.9673 N   0  0  0  0  0  0  0  0  0  0  0  0
    1.2807    0.1771   -5.7862 S   0  0  0  0  0  0  0  0  0  0  0  0
    1.2141    2.0374   -5.6273 C   0  0  0  0  0  0  0  0  0  0  0  0
    0.3657   -0.1783   -4.4637 O   0  0  0  0  0  0  0  0  0  0  0  0
    2.6449   -0.2230   -5.4961 O   0  0  0  0  0  0  0  0  0  0  0  0
    0.5857   -0.1932   -7.0077 O   0  0  0  0  0  0  0  0  0  0  0  0
   -0.0468    2.4572   -5.7650 F   0  0  0  0  0  0  0  0  0  0  0  0
    1.6807    2.4079   -4.4398 F   0  0  0  0  0  0  0  0  0  0  0  0
    1.9634    2.5630   -6.5941 F   0  0  0  0  0  0  0  0  0  0  0  0
   -4.2227   -2.7314   -4.7940 H   0  0  0  0  0  0  0  0  0  0  0  0
  1  2  1  0  0  0  0
  1  7  1  0  0  0  0
  2  8  1  0  0  0  0
  3 15  1  0  0  0  0
  3  2  2  0  0  0  0
  4  3  1  0  0  0  0
  5  4  2  0  0  0  0
  5  6  1  0  0  0  0
  6  1  2  0  0  0  0
  9  4  1  0  0  0  0
 10  5  1  0  0  0  0
 12 11  3  0  0  0  0
 13 14  1  0  0  0  0
 13 16  2  0  0  0  0
 13 15  1  0  0  0  0
 14 19  1  0  0  0  0
 17 13  2  0  0  0  0
 18 14  1  0  0  0  0
 20 14  1  0  0  0  0
 21  6  1  0  0  0  0
M  END
