Coordinates from ORCA-job Ph-N2-OTf-B3LYPG-6-31G_dp-MTMO-d009-169-n800
 OpenBabel09051908113D

 21 20  0  0  0  0  0  0  0  0999 V2000
   -1.7950   -2.4973   -4.5891 C   0  0  0  0  0  0  0  0  0  0  0  0
   -0.5630   -1.8437   -4.5371 C   0  0  0  0  0  0  0  0  0  0  0  0
   -0.5172   -0.4850   -4.8317 C   0  0  0  0  0  0  0  0  0  0  0  0
   -1.6545    0.2389   -5.1751 C   0  0  0  0  0  0  0  0  0  0  0  0
   -2.8785   -0.4289   -5.2268 C   0  0  0  0  0  0  0  0  0  0  0  0
   -2.9505   -1.7928   -4.9342 C   0  0  0  0  0  0  0  0  0  0  0  0
   -1.8494   -3.5564   -4.3575 H   0  0  0  0  0  0  0  0  0  0  0  0
    0.3483   -2.3652   -4.2654 H   0  0  0  0  0  0  0  0  0  0  0  0
   -1.5755    1.2967   -5.3962 H   0  0  0  0  0  0  0  0  0  0  0  0
   -3.7758    0.1199   -5.4949 H   0  0  0  0  0  0  0  0  0  0  0  0
    4.9085    5.8319   -8.5270 N   0  0  0  0  0  0  0  0  0  0  0  0
    5.7181    6.4165   -9.0007 N   0  0  0  0  0  0  0  0  0  0  0  0
    1.6541    0.4760   -6.0104 S   0  0  0  0  0  0  0  0  0  0  0  0
    1.6318    2.3411   -5.9033 C   0  0  0  0  0  0  0  0  0  0  0  0
    0.7207    0.1814   -4.6858 O   0  0  0  0  0  0  0  0  0  0  0  0
    3.0059    0.0506   -5.6991 O   0  0  0  0  0  0  0  0  0  0  0  0
    0.9589    0.0885   -7.2265 O   0  0  0  0  0  0  0  0  0  0  0  0
    0.3821    2.7868   -6.0612 F   0  0  0  0  0  0  0  0  0  0  0  0
    2.0993    2.7324   -4.7227 F   0  0  0  0  0  0  0  0  0  0  0  0
    2.3998    2.8214   -6.8783 F   0  0  0  0  0  0  0  0  0  0  0  0
   -3.9065   -2.3059   -4.9746 H   0  0  0  0  0  0  0  0  0  0  0  0
  1  2  1  0  0  0  0
  1  7  1  0  0  0  0
  2  8  1  0  0  0  0
  3 15  1  0  0  0  0
  3  2  2  0  0  0  0
  4  3  1  0  0  0  0
  5  4  2  0  0  0  0
  5  6  1  0  0  0  0
  6  1  2  0  0  0  0
  9  4  1  0  0  0  0
 10  5  1  0  0  0  0
 12 11  3  0  0  0  0
 13 14  1  0  0  0  0
 13 16  2  0  0  0  0
 13 15  1  0  0  0  0
 14 19  1  0  0  0  0
 17 13  2  0  0  0  0
 18 14  1  0  0  0  0
 20 14  1  0  0  0  0
 21  6  1  0  0  0  0
M  END
