Coordinates from ORCA-job Ph-N2-OTf-B3LYPG-6-31G_dp-MTMO-d009-169-n800
 OpenBabel09051908113D

 21 20  0  0  0  0  0  0  0  0999 V2000
   -1.8954   -1.7154   -5.0588 C   0  0  0  0  0  0  0  0  0  0  0  0
   -0.5689   -1.3980   -4.7637 C   0  0  0  0  0  0  0  0  0  0  0  0
   -0.1592   -0.0742   -4.8951 C   0  0  0  0  0  0  0  0  0  0  0  0
   -1.0282    0.9358   -5.2972 C   0  0  0  0  0  0  0  0  0  0  0  0
   -2.3540    0.6030   -5.5786 C   0  0  0  0  0  0  0  0  0  0  0  0
   -2.7874   -0.7198   -5.4633 C   0  0  0  0  0  0  0  0  0  0  0  0
   -2.2309   -2.7436   -4.9654 H   0  0  0  0  0  0  0  0  0  0  0  0
    0.1362   -2.1556   -4.4433 H   0  0  0  0  0  0  0  0  0  0  0  0
   -0.6678    1.9546   -5.3822 H   0  0  0  0  0  0  0  0  0  0  0  0
   -3.0458    1.3797   -5.8896 H   0  0  0  0  0  0  0  0  0  0  0  0
    0.4492    4.3927   -6.4986 N   0  0  0  0  0  0  0  0  0  0  0  0
    0.6624    5.4198   -6.8461 N   0  0  0  0  0  0  0  0  0  0  0  0
    2.4480   -0.1435   -5.4247 S   0  0  0  0  0  0  0  0  0  0  0  0
    2.5650    1.3468   -6.5474 C   0  0  0  0  0  0  0  0  0  0  0  0
    1.1510    0.3029   -4.5206 O   0  0  0  0  0  0  0  0  0  0  0  0
    3.5867   -0.0952   -4.5295 O   0  0  0  0  0  0  0  0  0  0  0  0
    2.1328   -1.2905   -6.2596 O   0  0  0  0  0  0  0  0  0  0  0  0
    1.4488    1.4514   -7.2709 F   0  0  0  0  0  0  0  0  0  0  0  0
    2.7286    2.4478   -5.8180 F   0  0  0  0  0  0  0  0  0  0  0  0
    3.6090    1.1828   -7.3569 F   0  0  0  0  0  0  0  0  0  0  0  0
   -3.8185   -0.9746   -5.6879 H   0  0  0  0  0  0  0  0  0  0  0  0
  1  7  1  0  0  0  0
  1  2  2  0  0  0  0
  2  8  1  0  0  0  0
  3  2  1  0  0  0  0
  3 15  1  0  0  0  0
  4  3  2  0  0  0  0
  5  6  2  0  0  0  0
  5  4  1  0  0  0  0
  6  1  1  0  0  0  0
  9  4  1  0  0  0  0
 10  5  1  0  0  0  0
 12 11  3  0  0  0  0
 13 16  2  0  0  0  0
 13 15  1  0  0  0  0
 14 19  1  0  0  0  0
 14 13  1  0  0  0  0
 17 13  2  0  0  0  0
 18 14  1  0  0  0  0
 20 14  1  0  0  0  0
 21  6  1  0  0  0  0
M  END
