Coordinates from ORCA-job Ph-N2-OTf-B3LYPG-6-31G_dp-MTMO-d009-169-n800
 OpenBabel09051908113D

 21 20  0  0  0  0  0  0  0  0999 V2000
   -1.7852   -2.4818   -4.5873 C   0  0  0  0  0  0  0  0  0  0  0  0
   -0.5526   -1.8289   -4.5387 C   0  0  0  0  0  0  0  0  0  0  0  0
   -0.5058   -0.4717   -4.8398 C   0  0  0  0  0  0  0  0  0  0  0  0
   -1.6426    0.2514   -5.1864 C   0  0  0  0  0  0  0  0  0  0  0  0
   -2.8671   -0.4156   -5.2347 C   0  0  0  0  0  0  0  0  0  0  0  0
   -2.9402   -1.7780   -4.9355 C   0  0  0  0  0  0  0  0  0  0  0  0
   -1.8404   -3.5397   -4.3506 H   0  0  0  0  0  0  0  0  0  0  0  0
    0.3584   -2.3498   -4.2647 H   0  0  0  0  0  0  0  0  0  0  0  0
   -1.5628    1.3082   -5.4127 H   0  0  0  0  0  0  0  0  0  0  0  0
   -3.7641    0.1326   -5.5053 H   0  0  0  0  0  0  0  0  0  0  0  0
    4.7975    5.7159   -8.4420 N   0  0  0  0  0  0  0  0  0  0  0  0
    5.5960    6.3152   -8.9163 N   0  0  0  0  0  0  0  0  0  0  0  0
    1.6654    0.4833   -6.0239 S   0  0  0  0  0  0  0  0  0  0  0  0
    1.6490    2.3487   -5.9206 C   0  0  0  0  0  0  0  0  0  0  0  0
    0.7326    0.1944   -4.6974 O   0  0  0  0  0  0  0  0  0  0  0  0
    3.0164    0.0544   -5.7134 O   0  0  0  0  0  0  0  0  0  0  0  0
    0.9675    0.0953   -7.2382 O   0  0  0  0  0  0  0  0  0  0  0  0
    0.4004    2.7976   -6.0792 F   0  0  0  0  0  0  0  0  0  0  0  0
    2.1177    2.7410   -4.7408 F   0  0  0  0  0  0  0  0  0  0  0  0
    2.4181    2.8249   -6.8967 F   0  0  0  0  0  0  0  0  0  0  0  0
   -3.8966   -2.2905   -4.9733 H   0  0  0  0  0  0  0  0  0  0  0  0
  1  2  1  0  0  0  0
  1  7  1  0  0  0  0
  2  8  1  0  0  0  0
  3 15  1  0  0  0  0
  3  2  2  0  0  0  0
  4  3  1  0  0  0  0
  5  4  2  0  0  0  0
  5  6  1  0  0  0  0
  6  1  2  0  0  0  0
  9  4  1  0  0  0  0
 10  5  1  0  0  0  0
 12 11  3  0  0  0  0
 13 14  1  0  0  0  0
 13 16  2  0  0  0  0
 13 15  1  0  0  0  0
 14 19  1  0  0  0  0
 17 13  2  0  0  0  0
 18 14  1  0  0  0  0
 20 14  1  0  0  0  0
 21  6  1  0  0  0  0
M  END
