Coordinates from ORCA-job Ph-N2-OTf-B3LYPG-6-31G_dp-MTMO-d009-169-n800
 OpenBabel09051908113D

 21 20  0  0  0  0  0  0  0  0999 V2000
   -1.8512   -1.4689   -4.7044 C   0  0  0  0  0  0  0  0  0  0  0  0
   -0.5724   -0.9526   -4.4917 C   0  0  0  0  0  0  0  0  0  0  0  0
   -0.2255    0.2395   -5.1207 C   0  0  0  0  0  0  0  0  0  0  0  0
   -1.1130    0.9328   -5.9387 C   0  0  0  0  0  0  0  0  0  0  0  0
   -2.3912    0.4080   -6.1327 C   0  0  0  0  0  0  0  0  0  0  0  0
   -2.7599   -0.7919   -5.5208 C   0  0  0  0  0  0  0  0  0  0  0  0
   -2.1360   -2.4012   -4.2272 H   0  0  0  0  0  0  0  0  0  0  0  0
    0.1444   -1.4615   -3.8580 H   0  0  0  0  0  0  0  0  0  0  0  0
   -0.8029    1.8636   -6.3984 H   0  0  0  0  0  0  0  0  0  0  0  0
   -3.0971    0.9390   -6.7640 H   0  0  0  0  0  0  0  0  0  0  0  0
    0.6422    4.0646   -5.2295 N   0  0  0  0  0  0  0  0  0  0  0  0
    0.9137    4.6164   -4.3113 N   0  0  0  0  0  0  0  0  0  0  0  0
    2.4167    0.1742   -5.4400 S   0  0  0  0  0  0  0  0  0  0  0  0
    2.5281    1.0602   -7.0828 C   0  0  0  0  0  0  0  0  0  0  0  0
    1.0288    0.8381   -4.8627 O   0  0  0  0  0  0  0  0  0  0  0  0
    3.4762    0.6947   -4.5993 O   0  0  0  0  0  0  0  0  0  0  0  0
    2.2398   -1.2400   -5.7240 O   0  0  0  0  0  0  0  0  0  0  0  0
    1.4580    0.7667   -7.8236 F   0  0  0  0  0  0  0  0  0  0  0  0
    2.5866    2.3745   -6.8840 F   0  0  0  0  0  0  0  0  0  0  0  0
    3.6304    0.6486   -7.7050 F   0  0  0  0  0  0  0  0  0  0  0  0
   -3.7542   -1.1979   -5.6786 H   0  0  0  0  0  0  0  0  0  0  0  0
  1  2  1  0  0  0  0
  1  7  1  0  0  0  0
  2  8  1  0  0  0  0
  3 15  1  0  0  0  0
  3  2  2  0  0  0  0
  4  3  1  0  0  0  0
  5  4  2  0  0  0  0
  5  6  1  0  0  0  0
  6  1  2  0  0  0  0
  9  4  1  0  0  0  0
 10  5  1  0  0  0  0
 11 12  3  0  0  0  0
 13 15  1  0  0  0  0
 13 16  2  0  0  0  0
 14 19  1  0  0  0  0
 14 13  1  0  0  0  0
 17 13  2  0  0  0  0
 18 14  1  0  0  0  0
 20 14  1  0  0  0  0
 21  6  1  0  0  0  0
M  END
