Coordinates from ORCA-job Ph-N2-OTf-B3LYPG-6-31G_dp-MTMO-d009-169-n800
 OpenBabel09051908113D

 21 20  0  0  0  0  0  0  0  0999 V2000
   -1.8036   -2.5110   -4.5881 C   0  0  0  0  0  0  0  0  0  0  0  0
   -0.5723   -1.8563   -4.5342 C   0  0  0  0  0  0  0  0  0  0  0  0
   -0.5279   -0.4967   -4.8249 C   0  0  0  0  0  0  0  0  0  0  0  0
   -1.6659    0.2270   -5.1662 C   0  0  0  0  0  0  0  0  0  0  0  0
   -2.8892   -0.4418   -5.2198 C   0  0  0  0  0  0  0  0  0  0  0  0
   -2.9599   -1.8066   -4.9312 C   0  0  0  0  0  0  0  0  0  0  0  0
   -1.8570   -3.5708   -4.3595 H   0  0  0  0  0  0  0  0  0  0  0  0
    0.3395   -2.3776   -4.2640 H   0  0  0  0  0  0  0  0  0  0  0  0
   -1.5880    1.2856   -5.3843 H   0  0  0  0  0  0  0  0  0  0  0  0
   -3.7871    0.1069   -5.4864 H   0  0  0  0  0  0  0  0  0  0  0  0
    5.0100    5.9368   -8.6006 N   0  0  0  0  0  0  0  0  0  0  0  0
    5.8287    6.5112   -9.0711 N   0  0  0  0  0  0  0  0  0  0  0  0
    1.6427    0.4692   -6.0008 S   0  0  0  0  0  0  0  0  0  0  0  0
    1.6176    2.3339   -5.8896 C   0  0  0  0  0  0  0  0  0  0  0  0
    0.7093    0.1706   -4.6770 O   0  0  0  0  0  0  0  0  0  0  0  0
    2.9950    0.0449   -5.6901 O   0  0  0  0  0  0  0  0  0  0  0  0
    0.9484    0.0833   -7.2179 O   0  0  0  0  0  0  0  0  0  0  0  0
    0.3671    2.7780   -6.0464 F   0  0  0  0  0  0  0  0  0  0  0  0
    2.0848    2.7236   -4.7084 F   0  0  0  0  0  0  0  0  0  0  0  0
    2.3845    2.8174   -6.8639 F   0  0  0  0  0  0  0  0  0  0  0  0
   -3.9154   -2.3205   -4.9731 H   0  0  0  0  0  0  0  0  0  0  0  0
  1  2  1  0  0  0  0
  1  7  1  0  0  0  0
  2  8  1  0  0  0  0
  3 15  1  0  0  0  0
  3  2  2  0  0  0  0
  4  3  1  0  0  0  0
  5  4  2  0  0  0  0
  5  6  1  0  0  0  0
  6  1  2  0  0  0  0
  9  4  1  0  0  0  0
 10  5  1  0  0  0  0
 12 11  3  0  0  0  0
 13 14  1  0  0  0  0
 13 16  2  0  0  0  0
 13 15  1  0  0  0  0
 14 19  1  0  0  0  0
 17 13  2  0  0  0  0
 18 14  1  0  0  0  0
 20 14  1  0  0  0  0
 21  6  1  0  0  0  0
M  END
