Coordinates from ORCA-job Ph-N2-OTf-B3LYPG-6-31G_dp-MTMO-d009-169-n800
 OpenBabel09051908113D

 21 19  0  0  0  0  0  0  0  0999 V2000
   -1.5188   -0.9617   -5.4982 C   0  0  0  0  0  0  0  0  0  0  0  0
   -0.5893    0.0470   -5.1073 C   0  0  0  0  0  0  0  0  0  0  0  0
   -1.2316    1.1970   -5.1076 C   0  0  0  0  0  0  0  0  0  0  0  0
   -2.4559    1.7205   -5.3513 C   0  0  0  0  0  0  0  0  0  0  0  0
   -3.3156    0.6664   -5.7340 C   0  0  0  0  0  0  0  0  0  0  0  0
   -2.8459   -0.6507   -5.8012 C   0  0  0  0  0  0  0  0  0  0  0  0
   -1.1457   -1.9798   -5.5624 H   0  0  0  0  0  0  0  0  0  0  0  0
    0.5299   -0.1820   -4.8999 H   0  0  0  0  0  0  0  0  0  0  0  0
   -2.7552    2.7562   -5.2780 H   0  0  0  0  0  0  0  0  0  0  0  0
   -4.3461    0.9112   -5.9725 H   0  0  0  0  0  0  0  0  0  0  0  0
    0.0057    2.8932   -4.3812 N   0  0  0  0  0  0  0  0  0  0  0  0
    0.6117    3.7203   -3.9729 N   0  0  0  0  0  0  0  0  0  0  0  0
    2.8277    0.6261   -5.4075 S   0  0  0  0  0  0  0  0  0  0  0  0
    3.4188   -0.2056   -6.9588 C   0  0  0  0  0  0  0  0  0  0  0  0
    1.9591    1.7221   -5.8926 O   0  0  0  0  0  0  0  0  0  0  0  0
    4.0392    0.9866   -4.6709 O   0  0  0  0  0  0  0  0  0  0  0  0
    2.0148   -0.4757   -4.7490 O   0  0  0  0  0  0  0  0  0  0  0  0
    2.3685   -0.6277   -7.6854 F   0  0  0  0  0  0  0  0  0  0  0  0
    4.1307    0.6504   -7.7016 F   0  0  0  0  0  0  0  0  0  0  0  0
    4.1845   -1.2637   -6.6678 F   0  0  0  0  0  0  0  0  0  0  0  0
   -3.5249   -1.4431   -6.0976 H   0  0  0  0  0  0  0  0  0  0  0  0
  1  2  2  0  0  0  0
  2  8  1  0  0  0  0
  3  2  1  0  0  0  0
  4  9  1  0  0  0  0
  4  3  2  0  0  0  0
  5  4  1  0  0  0  0
  6  5  2  0  0  0  0
  6  1  1  0  0  0  0
  7  1  1  0  0  0  0
 10  5  1  0  0  0  0
 11 12  3  0  0  0  0
 13 17  2  0  0  0  0
 13 16  1  0  0  0  0
 14 20  1  0  0  0  0
 14 13  1  0  0  0  0
 15 13  2  0  0  0  0
 18 14  1  0  0  0  0
 19 14  1  0  0  0  0
 21  6  1  0  0  0  0
M  RAD  2   3   2  16   2
M  END
