Coordinates from ORCA-job Ph-N2-OTf-B3LYPG-6-31G_dp-MTMO-d009-169-n800
 OpenBabel09051908113D

 21 20  0  0  0  0  0  0  0  0999 V2000
   -1.8976   -1.7566   -5.0619 C   0  0  0  0  0  0  0  0  0  0  0  0
   -0.5717   -1.4355   -4.7680 C   0  0  0  0  0  0  0  0  0  0  0  0
   -0.1707   -0.1075   -4.8812 C   0  0  0  0  0  0  0  0  0  0  0  0
   -1.0477    0.9028   -5.2652 C   0  0  0  0  0  0  0  0  0  0  0  0
   -2.3726    0.5665   -5.5459 C   0  0  0  0  0  0  0  0  0  0  0  0
   -2.7974   -0.7606   -5.4479 C   0  0  0  0  0  0  0  0  0  0  0  0
   -2.2265   -2.7881   -4.9825 H   0  0  0  0  0  0  0  0  0  0  0  0
    0.1393   -2.1934   -4.4614 H   0  0  0  0  0  0  0  0  0  0  0  0
   -0.6928    1.9249   -5.3375 H   0  0  0  0  0  0  0  0  0  0  0  0
   -3.0703    1.3433   -5.8428 H   0  0  0  0  0  0  0  0  0  0  0  0
    0.5845    4.5355   -6.6489 N   0  0  0  0  0  0  0  0  0  0  0  0
    0.8519    5.5583   -6.9710 N   0  0  0  0  0  0  0  0  0  0  0  0
    2.4323   -0.1413   -5.4315 S   0  0  0  0  0  0  0  0  0  0  0  0
    2.5293    1.3796   -6.5151 C   0  0  0  0  0  0  0  0  0  0  0  0
    1.1385    0.2718   -4.5070 O   0  0  0  0  0  0  0  0  0  0  0  0
    3.5771   -0.1078   -4.5434 O   0  0  0  0  0  0  0  0  0  0  0  0
    2.1193   -1.2686   -6.2936 O   0  0  0  0  0  0  0  0  0  0  0  0
    1.4092    1.4913   -7.2315 F   0  0  0  0  0  0  0  0  0  0  0  0
    2.6835    2.4622   -5.7569 F   0  0  0  0  0  0  0  0  0  0  0  0
    3.5718    1.2487   -7.3324 F   0  0  0  0  0  0  0  0  0  0  0  0
   -3.8278   -1.0184   -5.6718 H   0  0  0  0  0  0  0  0  0  0  0  0
  1  7  1  0  0  0  0
  1  2  2  0  0  0  0
  2  8  1  0  0  0  0
  3  2  1  0  0  0  0
  3 15  1  0  0  0  0
  4  3  2  0  0  0  0
  5  6  2  0  0  0  0
  5  4  1  0  0  0  0
  6  1  1  0  0  0  0
  9  4  1  0  0  0  0
 10  5  1  0  0  0  0
 12 11  3  0  0  0  0
 13 16  2  0  0  0  0
 13 15  1  0  0  0  0
 14 19  1  0  0  0  0
 14 13  1  0  0  0  0
 17 13  2  0  0  0  0
 18 14  1  0  0  0  0
 20 14  1  0  0  0  0
 21  6  1  0  0  0  0
M  END
