Coordinates from ORCA-job Ph-N2-OTf-B3LYPG-6-31G_dp-MTMO-d009-169-n800
 OpenBabel09051908113D

 21 20  0  0  0  0  0  0  0  0999 V2000
   -1.9675   -2.7515   -4.5141 C   0  0  0  0  0  0  0  0  0  0  0  0
   -0.7454   -2.0803   -4.4554 C   0  0  0  0  0  0  0  0  0  0  0  0
   -0.7248   -0.7119   -4.7048 C   0  0  0  0  0  0  0  0  0  0  0  0
   -1.8777    0.0045   -5.0095 C   0  0  0  0  0  0  0  0  0  0  0  0
   -3.0916   -0.6807   -5.0683 C   0  0  0  0  0  0  0  0  0  0  0  0
   -3.1384   -2.0546   -4.8209 C   0  0  0  0  0  0  0  0  0  0  0  0
   -2.0023   -3.8186   -4.3175 H   0  0  0  0  0  0  0  0  0  0  0  0
    0.1774   -2.5959   -4.2126 H   0  0  0  0  0  0  0  0  0  0  0  0
   -1.8179    1.0704   -5.1961 H   0  0  0  0  0  0  0  0  0  0  0  0
   -4.0009   -0.1377   -5.3066 H   0  0  0  0  0  0  0  0  0  0  0  0
    6.9412    7.8737   -9.9158 N   0  0  0  0  0  0  0  0  0  0  0  0
    7.8738    8.4089  -10.1716 N   0  0  0  0  0  0  0  0  0  0  0  0
    1.4199    0.3154   -5.8761 S   0  0  0  0  0  0  0  0  0  0  0  0
    1.3583    2.1767   -5.7266 C   0  0  0  0  0  0  0  0  0  0  0  0
    0.5039   -0.0302   -4.5517 O   0  0  0  0  0  0  0  0  0  0  0  0
    2.7830   -0.0869   -5.5841 O   0  0  0  0  0  0  0  0  0  0  0  0
    0.7237   -0.0592   -7.0956 O   0  0  0  0  0  0  0  0  0  0  0  0
    0.0986    2.5993   -5.8672 F   0  0  0  0  0  0  0  0  0  0  0  0
    1.8254    2.5519   -4.5408 F   0  0  0  0  0  0  0  0  0  0  0  0
    2.1096    2.6952   -6.6956 F   0  0  0  0  0  0  0  0  0  0  0  0
   -4.0867   -2.5814   -4.8666 H   0  0  0  0  0  0  0  0  0  0  0  0
  1  2  1  0  0  0  0
  1  7  1  0  0  0  0
  2  8  1  0  0  0  0
  3 15  1  0  0  0  0
  3  2  2  0  0  0  0
  4  3  1  0  0  0  0
  5  4  2  0  0  0  0
  5  6  1  0  0  0  0
  6  1  2  0  0  0  0
  9  4  1  0  0  0  0
 10  5  1  0  0  0  0
 12 11  3  0  0  0  0
 13 14  1  0  0  0  0
 13 16  2  0  0  0  0
 13 15  1  0  0  0  0
 14 19  1  0  0  0  0
 17 13  2  0  0  0  0
 18 14  1  0  0  0  0
 20 14  1  0  0  0  0
 21  6  1  0  0  0  0
M  END
