Coordinates from ORCA-job Ph-N2-OTf-B3LYPG-6-31G_dp-MTMO-d009-169-n800
 OpenBabel09051908113D

 21 20  0  0  0  0  0  0  0  0999 V2000
   -2.0830   -2.8823   -4.4597 C   0  0  0  0  0  0  0  0  0  0  0  0
   -0.8615   -2.2102   -4.3970 C   0  0  0  0  0  0  0  0  0  0  0  0
   -0.8433   -0.8394   -4.6326 C   0  0  0  0  0  0  0  0  0  0  0  0
   -1.9977   -0.1214   -4.9274 C   0  0  0  0  0  0  0  0  0  0  0  0
   -3.2110   -0.8075   -4.9902 C   0  0  0  0  0  0  0  0  0  0  0  0
   -3.2554   -2.1838   -4.7566 C   0  0  0  0  0  0  0  0  0  0  0  0
   -2.1160   -3.9514   -4.2738 H   0  0  0  0  0  0  0  0  0  0  0  0
    0.0624   -2.7271   -4.1615 H   0  0  0  0  0  0  0  0  0  0  0  0
   -1.9396    0.9464   -5.1034 H   0  0  0  0  0  0  0  0  0  0  0  0
   -4.1215   -0.2633   -5.2209 H   0  0  0  0  0  0  0  0  0  0  0  0
    8.0629    9.0748  -10.6368 N   0  0  0  0  0  0  0  0  0  0  0  0
    9.0256    9.5718  -10.8556 N   0  0  0  0  0  0  0  0  0  0  0  0
    1.3001    0.1975   -5.7980 S   0  0  0  0  0  0  0  0  0  0  0  0
    1.2335    2.0578   -5.6397 C   0  0  0  0  0  0  0  0  0  0  0  0
    0.3847   -0.1573   -4.4755 O   0  0  0  0  0  0  0  0  0  0  0  0
    2.6641   -0.2026   -5.5076 O   0  0  0  0  0  0  0  0  0  0  0  0
    0.6051   -0.1731   -7.0195 O   0  0  0  0  0  0  0  0  0  0  0  0
   -0.0274    2.4777   -5.7777 F   0  0  0  0  0  0  0  0  0  0  0  0
    1.6999    2.4287   -4.4522 F   0  0  0  0  0  0  0  0  0  0  0  0
    1.9829    2.5831   -6.6065 F   0  0  0  0  0  0  0  0  0  0  0  0
   -4.2032   -2.7114   -4.8054 H   0  0  0  0  0  0  0  0  0  0  0  0
  1  2  1  0  0  0  0
  1  7  1  0  0  0  0
  2  8  1  0  0  0  0
  3 15  1  0  0  0  0
  3  2  2  0  0  0  0
  4  3  1  0  0  0  0
  5  4  2  0  0  0  0
  5  6  1  0  0  0  0
  6  1  2  0  0  0  0
  9  4  1  0  0  0  0
 10  5  1  0  0  0  0
 12 11  3  0  0  0  0
 13 14  1  0  0  0  0
 13 16  2  0  0  0  0
 13 15  1  0  0  0  0
 14 19  1  0  0  0  0
 17 13  2  0  0  0  0
 18 14  1  0  0  0  0
 20 14  1  0  0  0  0
 21  6  1  0  0  0  0
M  END
