Coordinates from ORCA-job Ph-N2-OTf-B3LYPG-6-31G_dp-MTMO-d009-169-n800
 OpenBabel09051908113D

 21 20  0  0  0  0  0  0  0  0999 V2000
   -1.9058   -1.6625   -4.8721 C   0  0  0  0  0  0  0  0  0  0  0  0
   -0.5869   -1.2848   -4.6165 C   0  0  0  0  0  0  0  0  0  0  0  0
   -0.1820   -0.0021   -4.9747 C   0  0  0  0  0  0  0  0  0  0  0  0
   -1.0485    0.9109   -5.5685 C   0  0  0  0  0  0  0  0  0  0  0  0
   -2.3668    0.5207   -5.8090 C   0  0  0  0  0  0  0  0  0  0  0  0
   -2.7953   -0.7633   -5.4646 C   0  0  0  0  0  0  0  0  0  0  0  0
   -2.2369   -2.6601   -4.6017 H   0  0  0  0  0  0  0  0  0  0  0  0
    0.1162   -1.9661   -4.1516 H   0  0  0  0  0  0  0  0  0  0  0  0
   -0.6910    1.8992   -5.8317 H   0  0  0  0  0  0  0  0  0  0  0  0
   -3.0569    1.2225   -6.2672 H   0  0  0  0  0  0  0  0  0  0  0  0
    0.5018    4.3562   -6.2223 N   0  0  0  0  0  0  0  0  0  0  0  0
    0.5920    5.4247   -5.9554 N   0  0  0  0  0  0  0  0  0  0  0  0
    2.4271   -0.1118   -5.4745 S   0  0  0  0  0  0  0  0  0  0  0  0
    2.6273    1.3010   -6.6818 C   0  0  0  0  0  0  0  0  0  0  0  0
    1.1193    0.4407   -4.6449 O   0  0  0  0  0  0  0  0  0  0  0  0
    3.5441   -0.0454   -4.5530 O   0  0  0  0  0  0  0  0  0  0  0  0
    2.0914   -1.2989   -6.2426 O   0  0  0  0  0  0  0  0  0  0  0  0
    1.5205    1.4238   -7.4165 F   0  0  0  0  0  0  0  0  0  0  0  0
    2.8502    2.4318   -6.0164 F   0  0  0  0  0  0  0  0  0  0  0  0
    3.6625    1.0332   -7.4747 F   0  0  0  0  0  0  0  0  0  0  0  0
   -3.8207   -1.0628   -5.6577 H   0  0  0  0  0  0  0  0  0  0  0  0
  1  2  1  0  0  0  0
  1  7  1  0  0  0  0
  2  8  1  0  0  0  0
  3 15  1  0  0  0  0
  3  2  2  0  0  0  0
  4  3  1  0  0  0  0
  5  4  2  0  0  0  0
  5  6  1  0  0  0  0
  6  1  2  0  0  0  0
  9  4  1  0  0  0  0
 10  5  1  0  0  0  0
 11 12  3  0  0  0  0
 13 15  1  0  0  0  0
 13 16  2  0  0  0  0
 14 19  1  0  0  0  0
 14 13  1  0  0  0  0
 17 13  2  0  0  0  0
 18 14  1  0  0  0  0
 20 14  1  0  0  0  0
 21  6  1  0  0  0  0
M  END
