Coordinates from ORCA-job Ph-N2-OTf-B3LYPG-6-31G_dp-MTMO-d009-169-n800
 OpenBabel09051908113D

 21 20  0  0  0  0  0  0  0  0999 V2000
   -1.9019   -1.7780   -5.0952 C   0  0  0  0  0  0  0  0  0  0  0  0
   -0.5738   -1.4733   -4.7942 C   0  0  0  0  0  0  0  0  0  0  0  0
   -0.1678   -0.1436   -4.8587 C   0  0  0  0  0  0  0  0  0  0  0  0
   -1.0426    0.8834   -5.2012 C   0  0  0  0  0  0  0  0  0  0  0  0
   -2.3697    0.5633   -5.4897 C   0  0  0  0  0  0  0  0  0  0  0  0
   -2.7992   -0.7649   -5.4401 C   0  0  0  0  0  0  0  0  0  0  0  0
   -2.2345   -2.8106   -5.0538 H   0  0  0  0  0  0  0  0  0  0  0  0
    0.1356   -2.2446   -4.5188 H   0  0  0  0  0  0  0  0  0  0  0  0
   -0.6832    1.9058   -5.2362 H   0  0  0  0  0  0  0  0  0  0  0  0
   -3.0653    1.3535   -5.7548 H   0  0  0  0  0  0  0  0  0  0  0  0
    0.7935    4.6157   -6.9472 N   0  0  0  0  0  0  0  0  0  0  0  0
    0.7554    5.7132   -7.0716 N   0  0  0  0  0  0  0  0  0  0  0  0
    2.4320   -0.1601   -5.4240 S   0  0  0  0  0  0  0  0  0  0  0  0
    2.5026    1.3914   -6.4666 C   0  0  0  0  0  0  0  0  0  0  0  0
    1.1435    0.2170   -4.4757 O   0  0  0  0  0  0  0  0  0  0  0  0
    3.5842   -0.1403   -4.5452 O   0  0  0  0  0  0  0  0  0  0  0  0
    2.1200   -1.2675   -6.3119 O   0  0  0  0  0  0  0  0  0  0  0  0
    1.3857    1.4936   -7.1889 F   0  0  0  0  0  0  0  0  0  0  0  0
    2.6237    2.4551   -5.6766 F   0  0  0  0  0  0  0  0  0  0  0  0
    3.5548    1.3082   -7.2775 F   0  0  0  0  0  0  0  0  0  0  0  0
   -3.8314   -1.0103   -5.6696 H   0  0  0  0  0  0  0  0  0  0  0  0
  1  7  1  0  0  0  0
  1  2  2  0  0  0  0
  2  8  1  0  0  0  0
  3  2  1  0  0  0  0
  3 15  1  0  0  0  0
  4  3  2  0  0  0  0
  5  6  2  0  0  0  0
  5  4  1  0  0  0  0
  6  1  1  0  0  0  0
  9  4  1  0  0  0  0
 10  5  1  0  0  0  0
 12 11  3  0  0  0  0
 13 16  2  0  0  0  0
 13 15  1  0  0  0  0
 14 19  1  0  0  0  0
 14 13  1  0  0  0  0
 17 13  2  0  0  0  0
 18 14  1  0  0  0  0
 20 14  1  0  0  0  0
 21  6  1  0  0  0  0
M  END
