Coordinates from ORCA-job Ph-N2-OTf-B3LYPG-6-31G_dp-MTMO-d009-169-n800
 OpenBabel09051908113D

 21 20  0  0  0  0  0  0  0  0999 V2000
   -2.0397   -2.8356   -4.4823 C   0  0  0  0  0  0  0  0  0  0  0  0
   -0.8184   -2.1632   -4.4201 C   0  0  0  0  0  0  0  0  0  0  0  0
   -0.8000   -0.7930   -4.6589 C   0  0  0  0  0  0  0  0  0  0  0  0
   -1.9542   -0.0757   -4.9563 C   0  0  0  0  0  0  0  0  0  0  0  0
   -3.1674   -0.7621   -5.0186 C   0  0  0  0  0  0  0  0  0  0  0  0
   -3.2119   -2.1379   -4.7819 C   0  0  0  0  0  0  0  0  0  0  0  0
   -2.0728   -3.9043   -4.2940 H   0  0  0  0  0  0  0  0  0  0  0  0
    0.1054   -2.6795   -4.1827 H   0  0  0  0  0  0  0  0  0  0  0  0
   -1.8961    0.9916   -5.1348 H   0  0  0  0  0  0  0  0  0  0  0  0
   -4.0777   -0.2185   -5.2514 H   0  0  0  0  0  0  0  0  0  0  0  0
    7.6507    8.6374  -10.3824 N   0  0  0  0  0  0  0  0  0  0  0  0
    8.6105    9.1388  -10.6038 N   0  0  0  0  0  0  0  0  0  0  0  0
    1.3436    0.2427   -5.8250 S   0  0  0  0  0  0  0  0  0  0  0  0
    1.2774    2.1032   -5.6685 C   0  0  0  0  0  0  0  0  0  0  0  0
    0.4279   -0.1105   -4.5023 O   0  0  0  0  0  0  0  0  0  0  0  0
    2.7075   -0.1575   -5.5339 O   0  0  0  0  0  0  0  0  0  0  0  0
    0.6488   -0.1290   -7.0462 O   0  0  0  0  0  0  0  0  0  0  0  0
    0.0166    2.5232   -5.8072 F   0  0  0  0  0  0  0  0  0  0  0  0
    1.7437    2.4751   -4.4813 F   0  0  0  0  0  0  0  0  0  0  0  0
    2.0271    2.6273   -6.6357 F   0  0  0  0  0  0  0  0  0  0  0  0
   -4.1596   -2.6656   -4.8303 H   0  0  0  0  0  0  0  0  0  0  0  0
  1  2  1  0  0  0  0
  1  7  1  0  0  0  0
  2  8  1  0  0  0  0
  3 15  1  0  0  0  0
  3  2  2  0  0  0  0
  4  3  1  0  0  0  0
  5  4  2  0  0  0  0
  5  6  1  0  0  0  0
  6  1  2  0  0  0  0
  9  4  1  0  0  0  0
 10  5  1  0  0  0  0
 12 11  3  0  0  0  0
 13 14  1  0  0  0  0
 13 16  2  0  0  0  0
 13 15  1  0  0  0  0
 14 19  1  0  0  0  0
 17 13  2  0  0  0  0
 18 14  1  0  0  0  0
 20 14  1  0  0  0  0
 21  6  1  0  0  0  0
M  END
