Coordinates from ORCA-job Ph-N2-OTf-B3LYPG-6-31G_dp-MTMO-d009-169-n800
 OpenBabel09051908113D

 21 20  0  0  0  0  0  0  0  0999 V2000
   -1.8469   -2.5790   -4.5780 C   0  0  0  0  0  0  0  0  0  0  0  0
   -0.6186   -1.9191   -4.5178 C   0  0  0  0  0  0  0  0  0  0  0  0
   -0.5811   -0.5559   -4.7920 C   0  0  0  0  0  0  0  0  0  0  0  0
   -1.7231    0.1665   -5.1227 C   0  0  0  0  0  0  0  0  0  0  0  0
   -2.9433   -0.5075   -5.1827 C   0  0  0  0  0  0  0  0  0  0  0  0
   -3.0070   -1.8760   -4.9107 C   0  0  0  0  0  0  0  0  0  0  0  0
   -1.8948   -3.6418   -4.3622 H   0  0  0  0  0  0  0  0  0  0  0  0
    0.2961   -2.4394   -4.2553 H   0  0  0  0  0  0  0  0  0  0  0  0
   -1.6505    1.2280   -5.3279 H   0  0  0  0  0  0  0  0  0  0  0  0
   -3.8441    0.0401   -5.4413 H   0  0  0  0  0  0  0  0  0  0  0  0
    5.5281    6.4537   -8.9647 N   0  0  0  0  0  0  0  0  0  0  0  0
    6.3824    7.0004   -9.4041 N   0  0  0  0  0  0  0  0  0  0  0  0
    1.5835    0.4344   -5.9587 S   0  0  0  0  0  0  0  0  0  0  0  0
    1.5457    2.2977   -5.8288 C   0  0  0  0  0  0  0  0  0  0  0  0
    0.6531    0.1155   -4.6376 O   0  0  0  0  0  0  0  0  0  0  0  0
    2.9389    0.0168   -5.6527 O   0  0  0  0  0  0  0  0  0  0  0  0
    0.8912    0.0562   -7.1793 O   0  0  0  0  0  0  0  0  0  0  0  0
    0.2924    2.7352   -5.9812 F   0  0  0  0  0  0  0  0  0  0  0  0
    2.0104    2.6789   -4.6439 F   0  0  0  0  0  0  0  0  0  0  0  0
    2.3093    2.7961   -6.7984 F   0  0  0  0  0  0  0  0  0  0  0  0
   -3.9601   -2.3940   -4.9575 H   0  0  0  0  0  0  0  0  0  0  0  0
  1  2  1  0  0  0  0
  1  7  1  0  0  0  0
  2  8  1  0  0  0  0
  3 15  1  0  0  0  0
  3  2  2  0  0  0  0
  4  3  1  0  0  0  0
  5  4  2  0  0  0  0
  5  6  1  0  0  0  0
  6  1  2  0  0  0  0
  9  4  1  0  0  0  0
 10  5  1  0  0  0  0
 12 11  3  0  0  0  0
 13 14  1  0  0  0  0
 13 16  2  0  0  0  0
 13 15  1  0  0  0  0
 14 19  1  0  0  0  0
 17 13  2  0  0  0  0
 18 14  1  0  0  0  0
 20 14  1  0  0  0  0
 21  6  1  0  0  0  0
M  END
