Coordinates from ORCA-job Ph-N2-OTf-B3LYPG-6-31G_dp-MTMO-d009-169-n800
 OpenBabel09051908113D

 21 20  0  0  0  0  0  0  0  0999 V2000
   -1.8697   -2.6123   -4.5684 C   0  0  0  0  0  0  0  0  0  0  0  0
   -0.6428   -1.9501   -4.5070 C   0  0  0  0  0  0  0  0  0  0  0  0
   -0.6086   -0.5856   -4.7754 C   0  0  0  0  0  0  0  0  0  0  0  0
   -1.7526    0.1356   -5.1016 C   0  0  0  0  0  0  0  0  0  0  0  0
   -2.9714   -0.5408   -5.1630 C   0  0  0  0  0  0  0  0  0  0  0  0
   -3.0317   -1.9105   -4.8967 C   0  0  0  0  0  0  0  0  0  0  0  0
   -1.9150   -3.6762   -4.3571 H   0  0  0  0  0  0  0  0  0  0  0  0
    0.2734   -2.4695   -4.2478 H   0  0  0  0  0  0  0  0  0  0  0  0
   -1.6826    1.1982   -5.3025 H   0  0  0  0  0  0  0  0  0  0  0  0
   -3.8738    0.0060   -5.4181 H   0  0  0  0  0  0  0  0  0  0  0  0
    5.7977    6.7186   -9.1431 N   0  0  0  0  0  0  0  0  0  0  0  0
    6.6615    7.2643   -9.5647 N   0  0  0  0  0  0  0  0  0  0  0  0
    1.5527    0.4136   -5.9405 S   0  0  0  0  0  0  0  0  0  0  0  0
    1.5106    2.2763   -5.8039 C   0  0  0  0  0  0  0  0  0  0  0  0
    0.6242    0.0880   -4.6197 O   0  0  0  0  0  0  0  0  0  0  0  0
    2.9094   -0.0022   -5.6375 O   0  0  0  0  0  0  0  0  0  0  0  0
    0.8602    0.0382   -7.1618 O   0  0  0  0  0  0  0  0  0  0  0  0
    0.2562    2.7113   -5.9538 F   0  0  0  0  0  0  0  0  0  0  0  0
    1.9754    2.6545   -4.6181 F   0  0  0  0  0  0  0  0  0  0  0  0
    2.2723    2.7800   -6.7724 F   0  0  0  0  0  0  0  0  0  0  0  0
   -3.9838   -2.4304   -4.9445 H   0  0  0  0  0  0  0  0  0  0  0  0
  1  2  1  0  0  0  0
  1  7  1  0  0  0  0
  2  8  1  0  0  0  0
  3 15  1  0  0  0  0
  3  2  2  0  0  0  0
  4  3  1  0  0  0  0
  5  4  2  0  0  0  0
  5  6  1  0  0  0  0
  6  1  2  0  0  0  0
  9  4  1  0  0  0  0
 10  5  1  0  0  0  0
 12 11  3  0  0  0  0
 13 14  1  0  0  0  0
 13 16  2  0  0  0  0
 13 15  1  0  0  0  0
 14 19  1  0  0  0  0
 17 13  2  0  0  0  0
 18 14  1  0  0  0  0
 20 14  1  0  0  0  0
 21  6  1  0  0  0  0
M  END
