Coordinates from ORCA-job Ph-N2-OTf-B3LYPG-6-31G_dp-MTMO-d009-169-n800
 OpenBabel09051908113D

 21 20  0  0  0  0  0  0  0  0999 V2000
   -1.8666   -2.6081   -4.5698 C   0  0  0  0  0  0  0  0  0  0  0  0
   -0.6395   -1.9460   -4.5085 C   0  0  0  0  0  0  0  0  0  0  0  0
   -0.6050   -0.5817   -4.7776 C   0  0  0  0  0  0  0  0  0  0  0  0
   -1.7488    0.1396   -5.1044 C   0  0  0  0  0  0  0  0  0  0  0  0
   -2.9677   -0.5365   -5.1656 C   0  0  0  0  0  0  0  0  0  0  0  0
   -3.0284   -1.9062   -4.8987 C   0  0  0  0  0  0  0  0  0  0  0  0
   -1.9122   -3.6718   -4.3580 H   0  0  0  0  0  0  0  0  0  0  0  0
    0.2764   -2.4655   -4.2489 H   0  0  0  0  0  0  0  0  0  0  0  0
   -1.6785    1.2021   -5.3057 H   0  0  0  0  0  0  0  0  0  0  0  0
   -3.8700    0.0103   -5.4211 H   0  0  0  0  0  0  0  0  0  0  0  0
    5.7625    6.6840   -9.1199 N   0  0  0  0  0  0  0  0  0  0  0  0
    6.6253    7.2290   -9.5444 N   0  0  0  0  0  0  0  0  0  0  0  0
    1.5566    0.4165   -5.9428 S   0  0  0  0  0  0  0  0  0  0  0  0
    1.5151    2.2793   -5.8068 C   0  0  0  0  0  0  0  0  0  0  0  0
    0.6279    0.0917   -4.6220 O   0  0  0  0  0  0  0  0  0  0  0  0
    2.9132    0.0004   -5.6395 O   0  0  0  0  0  0  0  0  0  0  0  0
    0.8641    0.0409   -7.1641 O   0  0  0  0  0  0  0  0  0  0  0  0
    0.2608    2.7146   -5.9569 F   0  0  0  0  0  0  0  0  0  0  0  0
    1.9799    2.6577   -4.6211 F   0  0  0  0  0  0  0  0  0  0  0  0
    2.2770    2.7825   -6.7754 F   0  0  0  0  0  0  0  0  0  0  0  0
   -3.9806   -2.4259   -4.9464 H   0  0  0  0  0  0  0  0  0  0  0  0
  1  2  1  0  0  0  0
  1  7  1  0  0  0  0
  2  8  1  0  0  0  0
  3 15  1  0  0  0  0
  3  2  2  0  0  0  0
  4  3  1  0  0  0  0
  5  4  2  0  0  0  0
  5  6  1  0  0  0  0
  6  1  2  0  0  0  0
  9  4  1  0  0  0  0
 10  5  1  0  0  0  0
 12 11  3  0  0  0  0
 13 14  1  0  0  0  0
 13 16  2  0  0  0  0
 13 15  1  0  0  0  0
 14 19  1  0  0  0  0
 17 13  2  0  0  0  0
 18 14  1  0  0  0  0
 20 14  1  0  0  0  0
 21  6  1  0  0  0  0
M  END
