Coordinates from ORCA-job Ph-N2-OTf-B3LYPG-6-31G_dp-MTMO-d009-169-n800
 OpenBabel09051908113D

 21 20  0  0  0  0  0  0  0  0999 V2000
   -1.7778   -2.4687   -4.5845 C   0  0  0  0  0  0  0  0  0  0  0  0
   -0.5447   -1.8167   -4.5390 C   0  0  0  0  0  0  0  0  0  0  0  0
   -0.4969   -0.4609   -4.8463 C   0  0  0  0  0  0  0  0  0  0  0  0
   -1.6331    0.2616   -5.1960 C   0  0  0  0  0  0  0  0  0  0  0  0
   -2.8582   -0.4046   -5.2410 C   0  0  0  0  0  0  0  0  0  0  0  0
   -2.9323   -1.7655   -4.9357 C   0  0  0  0  0  0  0  0  0  0  0  0
   -1.8339   -3.5255   -4.3430 H   0  0  0  0  0  0  0  0  0  0  0  0
    0.3659   -2.3372   -4.2629 H   0  0  0  0  0  0  0  0  0  0  0  0
   -1.5523    1.3172   -5.4271 H   0  0  0  0  0  0  0  0  0  0  0  0
   -3.7547    0.1432   -5.5140 H   0  0  0  0  0  0  0  0  0  0  0  0
    4.7085    5.6251   -8.3711 N   0  0  0  0  0  0  0  0  0  0  0  0
    5.4957    6.2391   -8.8453 N   0  0  0  0  0  0  0  0  0  0  0  0
    1.6747    0.4876   -6.0354 S   0  0  0  0  0  0  0  0  0  0  0  0
    1.6638    2.3534   -5.9366 C   0  0  0  0  0  0  0  0  0  0  0  0
    0.7422    0.2049   -4.7073 O   0  0  0  0  0  0  0  0  0  0  0  0
    3.0247    0.0553   -5.7253 O   0  0  0  0  0  0  0  0  0  0  0  0
    0.9744    0.0986   -7.2481 O   0  0  0  0  0  0  0  0  0  0  0  0
    0.4165    2.8054   -6.0961 F   0  0  0  0  0  0  0  0  0  0  0  0
    2.1338    2.7470   -4.7578 F   0  0  0  0  0  0  0  0  0  0  0  0
    2.4343    2.8250   -6.9139 F   0  0  0  0  0  0  0  0  0  0  0  0
   -3.8892   -2.2774   -4.9709 H   0  0  0  0  0  0  0  0  0  0  0  0
  1  2  1  0  0  0  0
  1  7  1  0  0  0  0
  2  8  1  0  0  0  0
  3 15  1  0  0  0  0
  3  2  2  0  0  0  0
  4  3  1  0  0  0  0
  5  4  2  0  0  0  0
  5  6  1  0  0  0  0
  6  1  2  0  0  0  0
  9  4  1  0  0  0  0
 10  5  1  0  0  0  0
 12 11  3  0  0  0  0
 13 14  1  0  0  0  0
 13 16  2  0  0  0  0
 13 15  1  0  0  0  0
 14 19  1  0  0  0  0
 17 13  2  0  0  0  0
 18 14  1  0  0  0  0
 20 14  1  0  0  0  0
 21  6  1  0  0  0  0
M  END
