Coordinates from ORCA-job Ph-N2-OTf-B3LYPG-6-31G_dp-MTMO-d009-169-n800
 OpenBabel09051908113D

 21 20  0  0  0  0  0  0  0  0999 V2000
   -1.8964   -1.7350   -5.0643 C   0  0  0  0  0  0  0  0  0  0  0  0
   -0.5699   -1.4178   -4.7685 C   0  0  0  0  0  0  0  0  0  0  0  0
   -0.1635   -0.0918   -4.8865 C   0  0  0  0  0  0  0  0  0  0  0  0
   -1.0357    0.9204   -5.2765 C   0  0  0  0  0  0  0  0  0  0  0  0
   -2.3612    0.5877   -5.5589 C   0  0  0  0  0  0  0  0  0  0  0  0
   -2.7914   -0.7373   -5.4566 C   0  0  0  0  0  0  0  0  0  0  0  0
   -2.2294   -2.7649   -4.9813 H   0  0  0  0  0  0  0  0  0  0  0  0
    0.1376   -2.1770   -4.4573 H   0  0  0  0  0  0  0  0  0  0  0  0
   -0.6774    1.9408   -5.3518 H   0  0  0  0  0  0  0  0  0  0  0  0
   -3.0552    1.3661   -5.8605 H   0  0  0  0  0  0  0  0  0  0  0  0
    0.5077    4.4626   -6.5793 N   0  0  0  0  0  0  0  0  0  0  0  0
    0.7539    5.4854   -6.9176 N   0  0  0  0  0  0  0  0  0  0  0  0
    2.4416   -0.1437   -5.4265 S   0  0  0  0  0  0  0  0  0  0  0  0
    2.5457    1.3623   -6.5298 C   0  0  0  0  0  0  0  0  0  0  0  0
    1.1464    0.2845   -4.5108 O   0  0  0  0  0  0  0  0  0  0  0  0
    3.5841   -0.1013   -4.5360 O   0  0  0  0  0  0  0  0  0  0  0  0
    2.1280   -1.2814   -6.2747 O   0  0  0  0  0  0  0  0  0  0  0  0
    1.4285    1.4666   -7.2517 F   0  0  0  0  0  0  0  0  0  0  0  0
    2.6996    2.4548   -5.7859 F   0  0  0  0  0  0  0  0  0  0  0  0
    3.5909    1.2180   -7.3414 F   0  0  0  0  0  0  0  0  0  0  0  0
   -3.8222   -0.9920   -5.6818 H   0  0  0  0  0  0  0  0  0  0  0  0
  1  7  1  0  0  0  0
  1  2  2  0  0  0  0
  2  8  1  0  0  0  0
  3  2  1  0  0  0  0
  3 15  1  0  0  0  0
  4  3  2  0  0  0  0
  5  6  2  0  0  0  0
  5  4  1  0  0  0  0
  6  1  1  0  0  0  0
  9  4  1  0  0  0  0
 10  5  1  0  0  0  0
 12 11  3  0  0  0  0
 13 16  2  0  0  0  0
 13 15  1  0  0  0  0
 14 19  1  0  0  0  0
 14 13  1  0  0  0  0
 17 13  2  0  0  0  0
 18 14  1  0  0  0  0
 20 14  1  0  0  0  0
 21  6  1  0  0  0  0
M  END
