Coordinates from ORCA-job Ph-N2-OTf-B3LYPG-6-31G_dp-MTMO-d009-169-n800
 OpenBabel09051908113D

 21 20  0  0  0  0  0  0  0  0999 V2000
   -1.7786   -2.2294   -4.8372 C   0  0  0  0  0  0  0  0  0  0  0  0
   -0.5011   -1.6751   -4.7501 C   0  0  0  0  0  0  0  0  0  0  0  0
   -0.3722   -0.2908   -4.8104 C   0  0  0  0  0  0  0  0  0  0  0  0
   -1.4719    0.5508   -4.9472 C   0  0  0  0  0  0  0  0  0  0  0  0
   -2.7437   -0.0181   -5.0248 C   0  0  0  0  0  0  0  0  0  0  0  0
   -2.8978   -1.4050   -4.9725 C   0  0  0  0  0  0  0  0  0  0  0  0
   -1.8971   -3.3079   -4.7942 H   0  0  0  0  0  0  0  0  0  0  0  0
    0.3788   -2.2980   -4.6364 H   0  0  0  0  0  0  0  0  0  0  0  0
   -1.3251    1.6242   -4.9889 H   0  0  0  0  0  0  0  0  0  0  0  0
   -3.6124    0.6248   -5.1278 H   0  0  0  0  0  0  0  0  0  0  0  0
    3.5310    5.1707   -7.5435 N   0  0  0  0  0  0  0  0  0  0  0  0
    4.1282    6.0576   -7.8231 N   0  0  0  0  0  0  0  0  0  0  0  0
    2.0197    0.2494   -5.8379 S   0  0  0  0  0  0  0  0  0  0  0  0
    1.7790    1.9659   -6.5426 C   0  0  0  0  0  0  0  0  0  0  0  0
    0.8978    0.3038   -4.6340 O   0  0  0  0  0  0  0  0  0  0  0  0
    3.3137    0.2377   -5.1844 O   0  0  0  0  0  0  0  0  0  0  0  0
    1.6313   -0.7049   -6.8627 O   0  0  0  0  0  0  0  0  0  0  0  0
    0.5193    2.1030   -6.9648 F   0  0  0  0  0  0  0  0  0  0  0  0
    2.0387    2.8765   -5.6105 F   0  0  0  0  0  0  0  0  0  0  0  0
    2.6131    2.1149   -7.5684 F   0  0  0  0  0  0  0  0  0  0  0  0
   -3.8891   -1.8433   -5.0360 H   0  0  0  0  0  0  0  0  0  0  0  0
  1  7  1  0  0  0  0
  1  2  2  0  0  0  0
  2  8  1  0  0  0  0
  3  2  1  0  0  0  0
  3 15  1  0  0  0  0
  4  3  2  0  0  0  0
  5  6  2  0  0  0  0
  5  4  1  0  0  0  0
  6  1  1  0  0  0  0
  9  4  1  0  0  0  0
 10  5  1  0  0  0  0
 12 11  3  0  0  0  0
 13 16  2  0  0  0  0
 13 15  1  0  0  0  0
 14 13  1  0  0  0  0
 14 19  1  0  0  0  0
 17 13  2  0  0  0  0
 18 14  1  0  0  0  0
 20 14  1  0  0  0  0
 21  6  1  0  0  0  0
M  END
