Coordinates from ORCA-job Ph-N2-OTf-B3LYPG-6-31G_dp-MTMO-d009-169-n800
 OpenBabel09051908113D

 21 20  0  0  0  0  0  0  0  0999 V2000
   -1.7749   -2.4638   -4.5826 C   0  0  0  0  0  0  0  0  0  0  0  0
   -0.5417   -1.8118   -4.5387 C   0  0  0  0  0  0  0  0  0  0  0  0
   -0.4938   -0.4567   -4.8490 C   0  0  0  0  0  0  0  0  0  0  0  0
   -1.6299    0.2652   -5.2003 C   0  0  0  0  0  0  0  0  0  0  0  0
   -2.8550   -0.4010   -5.2437 C   0  0  0  0  0  0  0  0  0  0  0  0
   -2.9293   -1.7612   -4.9353 C   0  0  0  0  0  0  0  0  0  0  0  0
   -1.8310   -3.5200   -4.3387 H   0  0  0  0  0  0  0  0  0  0  0  0
    0.3689   -2.3317   -4.2614 H   0  0  0  0  0  0  0  0  0  0  0  0
   -1.5489    1.3202   -5.4338 H   0  0  0  0  0  0  0  0  0  0  0  0
   -3.7515    0.1463   -5.5179 H   0  0  0  0  0  0  0  0  0  0  0  0
    4.6757    5.5911   -8.3436 N   0  0  0  0  0  0  0  0  0  0  0  0
    5.4582    6.2109   -8.8180 N   0  0  0  0  0  0  0  0  0  0  0  0
    1.6776    0.4893   -6.0406 S   0  0  0  0  0  0  0  0  0  0  0  0
    1.6700    2.3552   -5.9426 C   0  0  0  0  0  0  0  0  0  0  0  0
    0.7453    0.2095   -4.7117 O   0  0  0  0  0  0  0  0  0  0  0  0
    3.0270    0.0546   -5.7315 O   0  0  0  0  0  0  0  0  0  0  0  0
    0.9758    0.1010   -7.2526 O   0  0  0  0  0  0  0  0  0  0  0  0
    0.4234    2.8091   -6.1019 F   0  0  0  0  0  0  0  0  0  0  0  0
    2.1410    2.7485   -4.7641 F   0  0  0  0  0  0  0  0  0  0  0  0
    2.4410    2.8253   -6.9202 F   0  0  0  0  0  0  0  0  0  0  0  0
   -3.8863   -2.2731   -4.9694 H   0  0  0  0  0  0  0  0  0  0  0  0
  1  2  1  0  0  0  0
  1  7  1  0  0  0  0
  2  8  1  0  0  0  0
  3 15  1  0  0  0  0
  3  2  2  0  0  0  0
  4  3  1  0  0  0  0
  5  4  2  0  0  0  0
  5  6  1  0  0  0  0
  6  1  2  0  0  0  0
  9  4  1  0  0  0  0
 10  5  1  0  0  0  0
 12 11  3  0  0  0  0
 13 14  1  0  0  0  0
 13 16  2  0  0  0  0
 13 15  1  0  0  0  0
 14 19  1  0  0  0  0
 17 13  2  0  0  0  0
 18 14  1  0  0  0  0
 20 14  1  0  0  0  0
 21  6  1  0  0  0  0
M  END
