Coordinates from ORCA-job Ph-N2-OTf-B3LYPG-6-31G_dp-MTMO-d009-169-n800
 OpenBabel09051908113D

 21 20  0  0  0  0  0  0  0  0999 V2000
   -1.8853   -1.8431   -5.3556 C   0  0  0  0  0  0  0  0  0  0  0  0
   -0.5471   -1.5940   -5.0475 C   0  0  0  0  0  0  0  0  0  0  0  0
   -0.1686   -0.2873   -4.7539 C   0  0  0  0  0  0  0  0  0  0  0  0
   -1.0790    0.7656   -4.7457 C   0  0  0  0  0  0  0  0  0  0  0  0
   -2.4147    0.4981   -5.0464 C   0  0  0  0  0  0  0  0  0  0  0  0
   -2.8177   -0.8034   -5.3544 C   0  0  0  0  0  0  0  0  0  0  0  0
   -2.1979   -2.8552   -5.5934 H   0  0  0  0  0  0  0  0  0  0  0  0
    0.1901   -2.3878   -5.0392 H   0  0  0  0  0  0  0  0  0  0  0  0
   -0.7373    1.7657   -4.5021 H   0  0  0  0  0  0  0  0  0  0  0  0
   -3.1376    1.3080   -5.0404 H   0  0  0  0  0  0  0  0  0  0  0  0
    1.7031    4.5419   -7.7158 N   0  0  0  0  0  0  0  0  0  0  0  0
    1.4462    5.4741   -8.2504 N   0  0  0  0  0  0  0  0  0  0  0  0
    2.3918   -0.0538   -5.4352 S   0  0  0  0  0  0  0  0  0  0  0  0
    2.1773    1.6196   -6.2509 C   0  0  0  0  0  0  0  0  0  0  0  0
    1.1561    0.0009   -4.3553 O   0  0  0  0  0  0  0  0  0  0  0  0
    3.5982    0.0029   -4.6348 O   0  0  0  0  0  0  0  0  0  0  0  0
    2.1537   -1.0630   -6.4539 O   0  0  0  0  0  0  0  0  0  0  0  0
    1.0716    1.6113   -6.9953 F   0  0  0  0  0  0  0  0  0  0  0  0
    2.0786    2.5626   -5.3157 F   0  0  0  0  0  0  0  0  0  0  0  0
    3.2374    1.8513   -7.0192 F   0  0  0  0  0  0  0  0  0  0  0  0
   -3.8571   -1.0074   -5.5924 H   0  0  0  0  0  0  0  0  0  0  0  0
  1  6  2  0  0  0  0
  1  2  1  0  0  0  0
  2  8  1  0  0  0  0
  2  3  2  0  0  0  0
  3  4  1  0  0  0  0
  3 15  1  0  0  0  0
  4  9  1  0  0  0  0
  5 10  1  0  0  0  0
  5  4  2  0  0  0  0
  6  5  1  0  0  0  0
  7  1  1  0  0  0  0
 12 11  3  0  0  0  0
 13 16  2  0  0  0  0
 13 15  1  0  0  0  0
 14 13  1  0  0  0  0
 14 19  1  0  0  0  0
 17 13  2  0  0  0  0
 18 14  1  0  0  0  0
 20 14  1  0  0  0  0
 21  6  1  0  0  0  0
M  END
