Coordinates from ORCA-job Ph-N2-OTf-B3LYPG-6-31G_dp-MTMO-d009-169-n800
 OpenBabel09051908113D

 21 20  0  0  0  0  0  0  0  0999 V2000
   -2.1791   -2.9840   -4.4071 C   0  0  0  0  0  0  0  0  0  0  0  0
   -0.9571   -2.3130   -4.3444 C   0  0  0  0  0  0  0  0  0  0  0  0
   -0.9383   -0.9413   -4.5748 C   0  0  0  0  0  0  0  0  0  0  0  0
   -2.0929   -0.2214   -4.8644 C   0  0  0  0  0  0  0  0  0  0  0  0
   -3.3068   -0.9064   -4.9271 C   0  0  0  0  0  0  0  0  0  0  0  0
   -3.3517   -2.2836   -4.6988 C   0  0  0  0  0  0  0  0  0  0  0  0
   -2.2125   -4.0538   -4.2253 H   0  0  0  0  0  0  0  0  0  0  0  0
   -0.0330   -2.8315   -4.1130 H   0  0  0  0  0  0  0  0  0  0  0  0
   -2.0344    0.8470   -5.0365 H   0  0  0  0  0  0  0  0  0  0  0  0
   -4.2174   -0.3606   -5.1537 H   0  0  0  0  0  0  0  0  0  0  0  0
    8.9713   10.0337  -11.1900 N   0  0  0  0  0  0  0  0  0  0  0  0
    9.9335   10.5324  -11.4068 N   0  0  0  0  0  0  0  0  0  0  0  0
    1.2044    0.0961   -5.7407 S   0  0  0  0  0  0  0  0  0  0  0  0
    1.1382    1.9563   -5.5799 C   0  0  0  0  0  0  0  0  0  0  0  0
    0.2904   -0.2605   -4.4179 O   0  0  0  0  0  0  0  0  0  0  0  0
    2.5688   -0.3043   -5.4521 O   0  0  0  0  0  0  0  0  0  0  0  0
    0.5084   -0.2728   -6.9620 O   0  0  0  0  0  0  0  0  0  0  0  0
   -0.1228    2.3765   -5.7164 F   0  0  0  0  0  0  0  0  0  0  0  0
    1.6056    2.3256   -4.3924 F   0  0  0  0  0  0  0  0  0  0  0  0
    1.8869    2.4827   -6.5467 F   0  0  0  0  0  0  0  0  0  0  0  0
   -4.2999   -2.8103   -4.7475 H   0  0  0  0  0  0  0  0  0  0  0  0
  1  2  1  0  0  0  0
  1  7  1  0  0  0  0
  2  8  1  0  0  0  0
  3 15  1  0  0  0  0
  3  2  2  0  0  0  0
  4  3  1  0  0  0  0
  5  4  2  0  0  0  0
  5  6  1  0  0  0  0
  6  1  2  0  0  0  0
  9  4  1  0  0  0  0
 10  5  1  0  0  0  0
 12 11  3  0  0  0  0
 13 14  1  0  0  0  0
 13 16  2  0  0  0  0
 13 15  1  0  0  0  0
 14 19  1  0  0  0  0
 17 13  2  0  0  0  0
 18 14  1  0  0  0  0
 20 14  1  0  0  0  0
 21  6  1  0  0  0  0
M  END
