Coordinates from ORCA-job Ph-N2-OTf-B3LYPG-6-31G_dp-MTMO-d009-169-n800
 OpenBabel09051908113D

 21 20  0  0  0  0  0  0  0  0999 V2000
   -1.8259   -2.5459   -4.5837 C   0  0  0  0  0  0  0  0  0  0  0  0
   -0.5960   -1.8887   -4.5262 C   0  0  0  0  0  0  0  0  0  0  0  0
   -0.5549   -0.5271   -4.8080 C   0  0  0  0  0  0  0  0  0  0  0  0
   -1.6949    0.1961   -5.1438 C   0  0  0  0  0  0  0  0  0  0  0  0
   -2.9166   -0.4752   -5.2012 C   0  0  0  0  0  0  0  0  0  0  0  0
   -2.9839   -1.8420   -4.9215 C   0  0  0  0  0  0  0  0  0  0  0  0
   -1.8766   -3.6073   -4.3621 H   0  0  0  0  0  0  0  0  0  0  0  0
    0.3171   -2.4097   -4.2599 H   0  0  0  0  0  0  0  0  0  0  0  0
   -1.6196    1.2563   -5.3550 H   0  0  0  0  0  0  0  0  0  0  0  0
   -3.8160    0.0731   -5.4637 H   0  0  0  0  0  0  0  0  0  0  0  0
    5.2728    6.2019   -8.7881 N   0  0  0  0  0  0  0  0  0  0  0  0
    6.1119    6.7586   -9.2437 N   0  0  0  0  0  0  0  0  0  0  0  0
    1.6128    0.4517   -5.9784 S   0  0  0  0  0  0  0  0  0  0  0  0
    1.5808    2.3157   -5.8573 C   0  0  0  0  0  0  0  0  0  0  0  0
    0.6808    0.1420   -4.6563 O   0  0  0  0  0  0  0  0  0  0  0  0
    2.9667    0.0311   -5.6698 O   0  0  0  0  0  0  0  0  0  0  0  0
    0.9199    0.0698   -7.1975 O   0  0  0  0  0  0  0  0  0  0  0  0
    0.3289    2.7563   -6.0120 F   0  0  0  0  0  0  0  0  0  0  0  0
    2.0464    2.7009   -4.6740 F   0  0  0  0  0  0  0  0  0  0  0  0
    2.3462    2.8071   -6.8290 F   0  0  0  0  0  0  0  0  0  0  0  0
   -3.9383   -2.3579   -4.9663 H   0  0  0  0  0  0  0  0  0  0  0  0
  1  2  1  0  0  0  0
  1  7  1  0  0  0  0
  2  8  1  0  0  0  0
  3 15  1  0  0  0  0
  3  2  2  0  0  0  0
  4  3  1  0  0  0  0
  5  4  2  0  0  0  0
  5  6  1  0  0  0  0
  6  1  2  0  0  0  0
  9  4  1  0  0  0  0
 10  5  1  0  0  0  0
 12 11  3  0  0  0  0
 13 14  1  0  0  0  0
 13 16  2  0  0  0  0
 13 15  1  0  0  0  0
 14 19  1  0  0  0  0
 17 13  2  0  0  0  0
 18 14  1  0  0  0  0
 20 14  1  0  0  0  0
 21  6  1  0  0  0  0
M  END
