Coordinates from ORCA-job Ph-N2-OTf-B3LYPG-6-31G_dp-MTMO-d009-169-n800
 OpenBabel09051908113D

 21 20  0  0  0  0  0  0  0  0999 V2000
   -2.2165   -3.0240   -4.3860 C   0  0  0  0  0  0  0  0  0  0  0  0
   -0.9944   -2.3530   -4.3236 C   0  0  0  0  0  0  0  0  0  0  0  0
   -0.9758   -0.9810   -4.5523 C   0  0  0  0  0  0  0  0  0  0  0  0
   -2.1307   -0.2608   -4.8399 C   0  0  0  0  0  0  0  0  0  0  0  0
   -3.3447   -0.9457   -4.9024 C   0  0  0  0  0  0  0  0  0  0  0  0
   -3.3894   -2.3231   -4.6757 C   0  0  0  0  0  0  0  0  0  0  0  0
   -2.2497   -4.0940   -4.2055 H   0  0  0  0  0  0  0  0  0  0  0  0
   -0.0702   -2.8718   -4.0935 H   0  0  0  0  0  0  0  0  0  0  0  0
   -2.0723    0.8078   -5.0107 H   0  0  0  0  0  0  0  0  0  0  0  0
   -4.2555   -0.3996   -5.1275 H   0  0  0  0  0  0  0  0  0  0  0  0
    9.3286   10.4096  -11.4064 N   0  0  0  0  0  0  0  0  0  0  0  0
   10.2899   10.9102  -11.6233 N   0  0  0  0  0  0  0  0  0  0  0  0
    1.1664    0.0565   -5.7188 S   0  0  0  0  0  0  0  0  0  0  0  0
    1.1012    1.9165   -5.5564 C   0  0  0  0  0  0  0  0  0  0  0  0
    0.2529   -0.3002   -4.3955 O   0  0  0  0  0  0  0  0  0  0  0  0
    2.5307   -0.3452   -5.4317 O   0  0  0  0  0  0  0  0  0  0  0  0
    0.4693   -0.3111   -6.9399 O   0  0  0  0  0  0  0  0  0  0  0  0
   -0.1597    2.3373   -5.6915 F   0  0  0  0  0  0  0  0  0  0  0  0
    1.5698    2.2848   -4.3690 F   0  0  0  0  0  0  0  0  0  0  0  0
    1.8493    2.4434   -6.5234 F   0  0  0  0  0  0  0  0  0  0  0  0
   -4.3376   -2.8498   -4.7243 H   0  0  0  0  0  0  0  0  0  0  0  0
  1  2  1  0  0  0  0
  1  7  1  0  0  0  0
  2  8  1  0  0  0  0
  3 15  1  0  0  0  0
  3  2  2  0  0  0  0
  4  3  1  0  0  0  0
  5  4  2  0  0  0  0
  5  6  1  0  0  0  0
  6  1  2  0  0  0  0
  9  4  1  0  0  0  0
 10  5  1  0  0  0  0
 12 11  3  0  0  0  0
 13 14  1  0  0  0  0
 13 16  2  0  0  0  0
 13 15  1  0  0  0  0
 14 19  1  0  0  0  0
 17 13  2  0  0  0  0
 18 14  1  0  0  0  0
 20 14  1  0  0  0  0
 21  6  1  0  0  0  0
M  END
