Coordinates from ORCA-job Ph-N2-OTf-B3LYPG-6-31G_dp-MTMO-d009-169-n800
 OpenBabel09051908113D

 21 20  0  0  0  0  0  0  0  0999 V2000
   -1.8851   -1.8677   -5.3349 C   0  0  0  0  0  0  0  0  0  0  0  0
   -0.5477   -1.6034   -5.0361 C   0  0  0  0  0  0  0  0  0  0  0  0
   -0.1803   -0.2910   -4.7539 C   0  0  0  0  0  0  0  0  0  0  0  0
   -1.1009    0.7529   -4.7482 C   0  0  0  0  0  0  0  0  0  0  0  0
   -2.4356    0.4704   -5.0393 C   0  0  0  0  0  0  0  0  0  0  0  0
   -2.8276   -0.8371   -5.3358 C   0  0  0  0  0  0  0  0  0  0  0  0
   -2.1891   -2.8844   -5.5639 H   0  0  0  0  0  0  0  0  0  0  0  0
    0.1971   -2.3901   -5.0265 H   0  0  0  0  0  0  0  0  0  0  0  0
   -0.7677    1.7581   -4.5135 H   0  0  0  0  0  0  0  0  0  0  0  0
   -3.1664    1.2732   -5.0350 H   0  0  0  0  0  0  0  0  0  0  0  0
    1.7858    4.5876   -7.7359 N   0  0  0  0  0  0  0  0  0  0  0  0
    1.5869    5.5380   -8.2634 N   0  0  0  0  0  0  0  0  0  0  0  0
    2.3752   -0.0412   -5.4504 S   0  0  0  0  0  0  0  0  0  0  0  0
    2.1663    1.6372   -6.2570 C   0  0  0  0  0  0  0  0  0  0  0  0
    1.1436    0.0135   -4.3654 O   0  0  0  0  0  0  0  0  0  0  0  0
    3.5852    0.0067   -4.6548 O   0  0  0  0  0  0  0  0  0  0  0  0
    2.1284   -1.0442   -6.4731 O   0  0  0  0  0  0  0  0  0  0  0  0
    1.0495    1.6444   -6.9849 F   0  0  0  0  0  0  0  0  0  0  0  0
    2.0926    2.5784   -5.3180 F   0  0  0  0  0  0  0  0  0  0  0  0
    3.2174    1.8586   -7.0407 F   0  0  0  0  0  0  0  0  0  0  0  0
   -3.8662   -1.0529   -5.5666 H   0  0  0  0  0  0  0  0  0  0  0  0
  1  2  1  0  0  0  0
  2  8  1  0  0  0  0
  2  3  2  0  0  0  0
  3  4  1  0  0  0  0
  3 15  1  0  0  0  0
  4  9  1  0  0  0  0
  5 10  1  0  0  0  0
  5  4  2  0  0  0  0
  6  1  2  0  0  0  0
  6  5  1  0  0  0  0
  7  1  1  0  0  0  0
 12 11  3  0  0  0  0
 13 16  2  0  0  0  0
 13 15  1  0  0  0  0
 14 13  1  0  0  0  0
 14 19  1  0  0  0  0
 17 13  2  0  0  0  0
 18 14  1  0  0  0  0
 20 14  1  0  0  0  0
 21  6  1  0  0  0  0
M  END
