Coordinates from ORCA-job Ph-N2-OTf-B3LYPG-6-31G_dp-MTMO-d009-169-n800
 OpenBabel09051908113D

 21 20  0  0  0  0  0  0  0  0999 V2000
   -1.8794   -2.6249   -4.5639 C   0  0  0  0  0  0  0  0  0  0  0  0
   -0.6527   -1.9623   -4.5022 C   0  0  0  0  0  0  0  0  0  0  0  0
   -0.6192   -0.5974   -4.7688 C   0  0  0  0  0  0  0  0  0  0  0  0
   -1.7636    0.1238   -5.0934 C   0  0  0  0  0  0  0  0  0  0  0  0
   -2.9822   -0.5530   -5.1551 C   0  0  0  0  0  0  0  0  0  0  0  0
   -3.0419   -1.9231   -4.8906 C   0  0  0  0  0  0  0  0  0  0  0  0
   -1.9242   -3.6891   -4.3540 H   0  0  0  0  0  0  0  0  0  0  0  0
    0.2638   -2.4817   -4.2442 H   0  0  0  0  0  0  0  0  0  0  0  0
   -1.6941    1.1867   -5.2929 H   0  0  0  0  0  0  0  0  0  0  0  0
   -3.8849   -0.0062   -5.4090 H   0  0  0  0  0  0  0  0  0  0  0  0
    5.9026    6.8228   -9.2126 N   0  0  0  0  0  0  0  0  0  0  0  0
    6.7689    7.3718   -9.6246 N   0  0  0  0  0  0  0  0  0  0  0  0
    1.5412    0.4041   -5.9336 S   0  0  0  0  0  0  0  0  0  0  0  0
    1.4973    2.2667   -5.7959 C   0  0  0  0  0  0  0  0  0  0  0  0
    0.6136    0.0763   -4.6128 O   0  0  0  0  0  0  0  0  0  0  0  0
    2.8984   -0.0101   -5.6308 O   0  0  0  0  0  0  0  0  0  0  0  0
    0.8489    0.0287   -7.1550 O   0  0  0  0  0  0  0  0  0  0  0  0
    0.2424    2.7007   -5.9454 F   0  0  0  0  0  0  0  0  0  0  0  0
    1.9618    2.6447   -4.6099 F   0  0  0  0  0  0  0  0  0  0  0  0
    2.2584    2.7717   -6.7642 F   0  0  0  0  0  0  0  0  0  0  0  0
   -3.9937   -2.4433   -4.9387 H   0  0  0  0  0  0  0  0  0  0  0  0
  1  2  1  0  0  0  0
  1  7  1  0  0  0  0
  2  8  1  0  0  0  0
  3 15  1  0  0  0  0
  3  2  2  0  0  0  0
  4  3  1  0  0  0  0
  5  4  2  0  0  0  0
  5  6  1  0  0  0  0
  6  1  2  0  0  0  0
  9  4  1  0  0  0  0
 10  5  1  0  0  0  0
 12 11  3  0  0  0  0
 13 14  1  0  0  0  0
 13 16  2  0  0  0  0
 13 15  1  0  0  0  0
 14 19  1  0  0  0  0
 17 13  2  0  0  0  0
 18 14  1  0  0  0  0
 20 14  1  0  0  0  0
 21  6  1  0  0  0  0
M  END
