Coordinates from ORCA-job Ph-N2-OTf-B3LYPG-6-31G_dp-MTMO-d009-169-n800
 OpenBabel09051908113D

 21 19  0  0  0  0  0  0  0  0999 V2000
   -1.6342   -1.2253   -5.4892 C   0  0  0  0  0  0  0  0  0  0  0  0
   -0.7040   -0.1869   -5.2424 C   0  0  0  0  0  0  0  0  0  0  0  0
   -1.2001    0.9741   -5.2838 C   0  0  0  0  0  0  0  0  0  0  0  0
   -2.3986    1.5832   -5.5003 C   0  0  0  0  0  0  0  0  0  0  0  0
   -3.3280    0.5425   -5.7490 C   0  0  0  0  0  0  0  0  0  0  0  0
   -2.9537   -0.8128   -5.7421 C   0  0  0  0  0  0  0  0  0  0  0  0
   -1.3598   -2.2759   -5.4870 H   0  0  0  0  0  0  0  0  0  0  0  0
    1.0507   -0.4668   -4.9199 H   0  0  0  0  0  0  0  0  0  0  0  0
   -2.6413    2.6367   -5.4933 H   0  0  0  0  0  0  0  0  0  0  0  0
   -4.3593    0.8199   -5.9504 H   0  0  0  0  0  0  0  0  0  0  0  0
    0.0196    3.8709   -4.5709 N   0  0  0  0  0  0  0  0  0  0  0  0
    0.8179    4.5321   -4.1887 N   0  0  0  0  0  0  0  0  0  0  0  0
    2.9842    0.4882   -5.2045 S   0  0  0  0  0  0  0  0  0  0  0  0
    3.2663    0.0349   -6.9891 C   0  0  0  0  0  0  0  0  0  0  0  0
    2.2528    1.7502   -5.2085 O   0  0  0  0  0  0  0  0  0  0  0  0
    4.2494    0.3212   -4.5159 O   0  0  0  0  0  0  0  0  0  0  0  0
    2.0213   -0.7140   -4.7709 O   0  0  0  0  0  0  0  0  0  0  0  0
    2.0891   -0.0327   -7.6199 F   0  0  0  0  0  0  0  0  0  0  0  0
    4.0202    0.9751   -7.5588 F   0  0  0  0  0  0  0  0  0  0  0  0
    3.8814   -1.1425   -7.0730 F   0  0  0  0  0  0  0  0  0  0  0  0
   -3.7122   -1.5651   -5.9398 H   0  0  0  0  0  0  0  0  0  0  0  0
  1  7  1  0  0  0  0
  1  2  2  0  0  0  0
  3  2  1  0  0  0  0
  4  9  1  0  0  0  0
  4  3  2  0  0  0  0
  5  6  2  0  0  0  0
  5  4  1  0  0  0  0
  6  1  1  0  0  0  0
  8 17  1  0  0  0  0
 10  5  1  0  0  0  0
 11 12  3  0  0  0  0
 13 17  1  0  0  0  0
 13 16  2  0  0  0  0
 14 13  1  0  0  0  0
 15 13  2  0  0  0  0
 18 14  1  0  0  0  0
 19 14  1  0  0  0  0
 20 14  1  0  0  0  0
 21  6  1  0  0  0  0
M  RAD  2   2   2   3   2
M  END
