Coordinates from ORCA-job Ph-N2-OTf-B3LYPG-6-31G_dp-MTMO-d009-169-n800
 OpenBabel09051908113D

 21 20  0  0  0  0  0  0  0  0999 V2000
   -1.7910   -2.4912   -4.5888 C   0  0  0  0  0  0  0  0  0  0  0  0
   -0.5588   -1.8379   -4.5379 C   0  0  0  0  0  0  0  0  0  0  0  0
   -0.5127   -0.4797   -4.8349 C   0  0  0  0  0  0  0  0  0  0  0  0
   -1.6498    0.2439   -5.1795 C   0  0  0  0  0  0  0  0  0  0  0  0
   -2.8739   -0.4236   -5.2300 C   0  0  0  0  0  0  0  0  0  0  0  0
   -2.9463   -1.7869   -4.9351 C   0  0  0  0  0  0  0  0  0  0  0  0
   -1.8457   -3.5499   -4.3553 H   0  0  0  0  0  0  0  0  0  0  0  0
    0.3524   -2.3592   -4.2654 H   0  0  0  0  0  0  0  0  0  0  0  0
   -1.5705    1.3013   -5.4025 H   0  0  0  0  0  0  0  0  0  0  0  0
   -3.7711    0.1250   -5.4991 H   0  0  0  0  0  0  0  0  0  0  0  0
    4.8640    5.7851   -8.4938 N   0  0  0  0  0  0  0  0  0  0  0  0
    5.6694    6.3750   -8.9681 N   0  0  0  0  0  0  0  0  0  0  0  0
    1.6586    0.4793   -6.0155 S   0  0  0  0  0  0  0  0  0  0  0  0
    1.6386    2.3444   -5.9095 C   0  0  0  0  0  0  0  0  0  0  0  0
    0.7255    0.1866   -4.6902 O   0  0  0  0  0  0  0  0  0  0  0  0
    3.0101    0.0524   -5.7045 O   0  0  0  0  0  0  0  0  0  0  0  0
    0.9625    0.0917   -7.2310 O   0  0  0  0  0  0  0  0  0  0  0  0
    0.3893    2.7913   -6.0677 F   0  0  0  0  0  0  0  0  0  0  0  0
    2.1064    2.7360   -4.7292 F   0  0  0  0  0  0  0  0  0  0  0  0
    2.4070    2.8233   -6.8849 F   0  0  0  0  0  0  0  0  0  0  0  0
   -3.9025   -2.2999   -4.9746 H   0  0  0  0  0  0  0  0  0  0  0  0
  1  2  1  0  0  0  0
  1  7  1  0  0  0  0
  2  8  1  0  0  0  0
  3 15  1  0  0  0  0
  3  2  2  0  0  0  0
  4  3  1  0  0  0  0
  5  4  2  0  0  0  0
  5  6  1  0  0  0  0
  6  1  2  0  0  0  0
  9  4  1  0  0  0  0
 10  5  1  0  0  0  0
 12 11  3  0  0  0  0
 13 14  1  0  0  0  0
 13 16  2  0  0  0  0
 13 15  1  0  0  0  0
 14 19  1  0  0  0  0
 17 13  2  0  0  0  0
 18 14  1  0  0  0  0
 20 14  1  0  0  0  0
 21  6  1  0  0  0  0
M  END
