Coordinates from ORCA-job Ph-N2-OTf-B3LYPG-6-31G_dp-MTMO-d009-169-n800
 OpenBabel09051908113D

 21 20  0  0  0  0  0  0  0  0999 V2000
   -2.1690   -2.9739   -4.4124 C   0  0  0  0  0  0  0  0  0  0  0  0
   -0.9472   -2.3023   -4.3497 C   0  0  0  0  0  0  0  0  0  0  0  0
   -0.9289   -0.9308   -4.5808 C   0  0  0  0  0  0  0  0  0  0  0  0
   -2.0837   -0.2114   -4.8711 C   0  0  0  0  0  0  0  0  0  0  0  0
   -3.2973   -0.8969   -4.9338 C   0  0  0  0  0  0  0  0  0  0  0  0
   -3.3418   -2.2740   -4.7048 C   0  0  0  0  0  0  0  0  0  0  0  0
   -2.2020   -4.0436   -4.2300 H   0  0  0  0  0  0  0  0  0  0  0  0
   -0.0231   -2.8204   -4.1176 H   0  0  0  0  0  0  0  0  0  0  0  0
   -2.0255    0.8569   -5.0437 H   0  0  0  0  0  0  0  0  0  0  0  0
   -4.2081   -0.3516   -5.1610 H   0  0  0  0  0  0  0  0  0  0  0  0
    8.8796    9.9363  -11.1342 N   0  0  0  0  0  0  0  0  0  0  0  0
    9.8420   10.4346  -11.3513 N   0  0  0  0  0  0  0  0  0  0  0  0
    1.2137    0.1068   -5.7467 S   0  0  0  0  0  0  0  0  0  0  0  0
    1.1481    1.9669   -5.5853 C   0  0  0  0  0  0  0  0  0  0  0  0
    0.2995   -0.2493   -4.4238 O   0  0  0  0  0  0  0  0  0  0  0  0
    2.5778   -0.2946   -5.4586 O   0  0  0  0  0  0  0  0  0  0  0  0
    0.5173   -0.2615   -6.9680 O   0  0  0  0  0  0  0  0  0  0  0  0
   -0.1128    2.3875   -5.7212 F   0  0  0  0  0  0  0  0  0  0  0  0
    1.6161    2.3358   -4.3978 F   0  0  0  0  0  0  0  0  0  0  0  0
    1.8966    2.4934   -6.5522 F   0  0  0  0  0  0  0  0  0  0  0  0
   -4.2897   -2.8011   -4.7536 H   0  0  0  0  0  0  0  0  0  0  0  0
  1  2  1  0  0  0  0
  1  7  1  0  0  0  0
  2  8  1  0  0  0  0
  3 15  1  0  0  0  0
  3  2  2  0  0  0  0
  4  3  1  0  0  0  0
  5  4  2  0  0  0  0
  5  6  1  0  0  0  0
  6  1  2  0  0  0  0
  9  4  1  0  0  0  0
 10  5  1  0  0  0  0
 12 11  3  0  0  0  0
 13 14  1  0  0  0  0
 13 16  2  0  0  0  0
 13 15  1  0  0  0  0
 14 19  1  0  0  0  0
 17 13  2  0  0  0  0
 18 14  1  0  0  0  0
 20 14  1  0  0  0  0
 21  6  1  0  0  0  0
M  END
