Coordinates from ORCA-job Ph-N2-OTf-B3LYPG-6-31G_dp-MTMO-d009-169-n800
 OpenBabel09051908113D

 21 20  0  0  0  0  0  0  0  0999 V2000
   -1.8496   -2.5834   -4.5767 C   0  0  0  0  0  0  0  0  0  0  0  0
   -0.6216   -1.9230   -4.5164 C   0  0  0  0  0  0  0  0  0  0  0  0
   -0.5848   -0.5596   -4.7899 C   0  0  0  0  0  0  0  0  0  0  0  0
   -1.7272    0.1623   -5.1201 C   0  0  0  0  0  0  0  0  0  0  0  0
   -2.9471   -0.5122   -5.1803 C   0  0  0  0  0  0  0  0  0  0  0  0
   -3.0101   -1.8808   -4.9089 C   0  0  0  0  0  0  0  0  0  0  0  0
   -1.8970   -3.6463   -4.3615 H   0  0  0  0  0  0  0  0  0  0  0  0
    0.2934   -2.4430   -4.2543 H   0  0  0  0  0  0  0  0  0  0  0  0
   -1.6551    1.2240   -5.3248 H   0  0  0  0  0  0  0  0  0  0  0  0
   -3.8482    0.0352   -5.4384 H   0  0  0  0  0  0  0  0  0  0  0  0
    5.5635    6.4880   -8.9882 N   0  0  0  0  0  0  0  0  0  0  0  0
    6.4194    7.0338   -9.4255 N   0  0  0  0  0  0  0  0  0  0  0  0
    1.5792    0.4321   -5.9564 S   0  0  0  0  0  0  0  0  0  0  0  0
    1.5411    2.2952   -5.8251 C   0  0  0  0  0  0  0  0  0  0  0  0
    0.6491    0.1123   -4.6354 O   0  0  0  0  0  0  0  0  0  0  0  0
    2.9347    0.0141   -5.6513 O   0  0  0  0  0  0  0  0  0  0  0  0
    0.8866    0.0547   -7.1772 O   0  0  0  0  0  0  0  0  0  0  0  0
    0.2877    2.7325   -5.9768 F   0  0  0  0  0  0  0  0  0  0  0  0
    2.0062    2.6757   -4.6401 F   0  0  0  0  0  0  0  0  0  0  0  0
    2.3044    2.7946   -6.7945 F   0  0  0  0  0  0  0  0  0  0  0  0
   -3.9629   -2.3993   -4.9559 H   0  0  0  0  0  0  0  0  0  0  0  0
  1  2  1  0  0  0  0
  1  7  1  0  0  0  0
  2  8  1  0  0  0  0
  3 15  1  0  0  0  0
  3  2  2  0  0  0  0
  4  3  1  0  0  0  0
  5  4  2  0  0  0  0
  5  6  1  0  0  0  0
  6  1  2  0  0  0  0
  9  4  1  0  0  0  0
 10  5  1  0  0  0  0
 12 11  3  0  0  0  0
 13 14  1  0  0  0  0
 13 16  2  0  0  0  0
 13 15  1  0  0  0  0
 14 19  1  0  0  0  0
 17 13  2  0  0  0  0
 18 14  1  0  0  0  0
 20 14  1  0  0  0  0
 21  6  1  0  0  0  0
M  END
