Coordinates from ORCA-job Ph-N2-OTf-B3LYPG-6-31G_dp-MTMO-d009-169-n800
 OpenBabel09051908113D

 21 20  0  0  0  0  0  0  0  0999 V2000
   -1.8106   -2.5216   -4.5871 C   0  0  0  0  0  0  0  0  0  0  0  0
   -0.5796   -1.8663   -4.5319 C   0  0  0  0  0  0  0  0  0  0  0  0
   -0.5360   -0.5061   -4.8197 C   0  0  0  0  0  0  0  0  0  0  0  0
   -1.6745    0.2177   -5.1592 C   0  0  0  0  0  0  0  0  0  0  0  0
   -2.8974   -0.4517   -5.2141 C   0  0  0  0  0  0  0  0  0  0  0  0
   -2.9673   -1.8171   -4.9285 C   0  0  0  0  0  0  0  0  0  0  0  0
   -1.8633   -3.5819   -4.3608 H   0  0  0  0  0  0  0  0  0  0  0  0
    0.3325   -2.3878   -4.2630 H   0  0  0  0  0  0  0  0  0  0  0  0
   -1.5972    1.2768   -5.3750 H   0  0  0  0  0  0  0  0  0  0  0  0
   -3.7956    0.0971   -5.4794 H   0  0  0  0  0  0  0  0  0  0  0  0
    5.0893    6.0181   -8.6576 N   0  0  0  0  0  0  0  0  0  0  0  0
    5.9145    6.5861   -9.1244 N   0  0  0  0  0  0  0  0  0  0  0  0
    1.6339    0.4637   -5.9936 S   0  0  0  0  0  0  0  0  0  0  0  0
    1.6063    2.3282   -5.8798 C   0  0  0  0  0  0  0  0  0  0  0  0
    0.7009    0.1615   -4.6704 O   0  0  0  0  0  0  0  0  0  0  0  0
    2.9868    0.0411   -5.6831 O   0  0  0  0  0  0  0  0  0  0  0  0
    0.9404    0.0787   -7.2113 O   0  0  0  0  0  0  0  0  0  0  0  0
    0.3554    2.7711   -6.0362 F   0  0  0  0  0  0  0  0  0  0  0  0
    2.0727    2.7168   -4.6979 F   0  0  0  0  0  0  0  0  0  0  0  0
    2.3729    2.8141   -6.8532 F   0  0  0  0  0  0  0  0  0  0  0  0
   -3.9225   -2.3315   -4.9714 H   0  0  0  0  0  0  0  0  0  0  0  0
  1  2  1  0  0  0  0
  1  7  1  0  0  0  0
  2  8  1  0  0  0  0
  3 15  1  0  0  0  0
  3  2  2  0  0  0  0
  4  3  1  0  0  0  0
  5  4  2  0  0  0  0
  5  6  1  0  0  0  0
  6  1  2  0  0  0  0
  9  4  1  0  0  0  0
 10  5  1  0  0  0  0
 12 11  3  0  0  0  0
 13 14  1  0  0  0  0
 13 16  2  0  0  0  0
 13 15  1  0  0  0  0
 14 19  1  0  0  0  0
 17 13  2  0  0  0  0
 18 14  1  0  0  0  0
 20 14  1  0  0  0  0
 21  6  1  0  0  0  0
M  END
