Coordinates from ORCA-job Ph-N2-OTf-B3LYPG-6-31G_dp-MTMO-d009-169-n800
 OpenBabel09051908113D

 21 20  0  0  0  0  0  0  0  0999 V2000
   -1.7622   -2.4002   -4.5436 C   0  0  0  0  0  0  0  0  0  0  0  0
   -0.5232   -1.7581   -4.5211 C   0  0  0  0  0  0  0  0  0  0  0  0
   -0.4646   -0.4132   -4.8714 C   0  0  0  0  0  0  0  0  0  0  0  0
   -1.5950    0.3080   -5.2417 C   0  0  0  0  0  0  0  0  0  0  0  0
   -2.8262   -0.3482   -5.2624 C   0  0  0  0  0  0  0  0  0  0  0  0
   -2.9113   -1.6981   -4.9141 C   0  0  0  0  0  0  0  0  0  0  0  0
   -1.8269   -3.4484   -4.2693 H   0  0  0  0  0  0  0  0  0  0  0  0
    0.3835   -2.2776   -4.2307 H   0  0  0  0  0  0  0  0  0  0  0  0
   -1.5045    1.3549   -5.5066 H   0  0  0  0  0  0  0  0  0  0  0  0
   -3.7186    0.1985   -5.5505 H   0  0  0  0  0  0  0  0  0  0  0  0
    4.3388    5.3414   -8.0166 N   0  0  0  0  0  0  0  0  0  0  0  0
    5.0347    6.0717   -8.4681 N   0  0  0  0  0  0  0  0  0  0  0  0
    1.7197    0.4586   -6.0949 S   0  0  0  0  0  0  0  0  0  0  0  0
    1.7543    2.3270   -6.0625 C   0  0  0  0  0  0  0  0  0  0  0  0
    0.7797    0.2482   -4.7582 O   0  0  0  0  0  0  0  0  0  0  0  0
    3.0589    0.0041   -5.7695 O   0  0  0  0  0  0  0  0  0  0  0  0
    1.0095    0.0434   -7.2931 O   0  0  0  0  0  0  0  0  0  0  0  0
    0.5176    2.8019   -6.2366 F   0  0  0  0  0  0  0  0  0  0  0  0
    2.2357    2.7503   -4.8988 F   0  0  0  0  0  0  0  0  0  0  0  0
    2.5343    2.7452   -7.0566 F   0  0  0  0  0  0  0  0  0  0  0  0
   -3.8727   -2.2025   -4.9310 H   0  0  0  0  0  0  0  0  0  0  0  0
  1  2  1  0  0  0  0
  1  7  1  0  0  0  0
  2  8  1  0  0  0  0
  3 15  1  0  0  0  0
  3  2  2  0  0  0  0
  4  3  1  0  0  0  0
  5  4  2  0  0  0  0
  5  6  1  0  0  0  0
  6  1  2  0  0  0  0
  9  4  1  0  0  0  0
 10  5  1  0  0  0  0
 12 11  3  0  0  0  0
 13 14  1  0  0  0  0
 13 16  2  0  0  0  0
 13 15  1  0  0  0  0
 14 19  1  0  0  0  0
 17 13  2  0  0  0  0
 18 14  1  0  0  0  0
 20 14  1  0  0  0  0
 21  6  1  0  0  0  0
M  END
