Coordinates from ORCA-job Ph-N2-OTf-B3LYPG-6-31G_dp-MTMO-d009-169-n800
 OpenBabel09051908113D

 21 21  0  0  1  0  0  0  0  0999 V2000
   -0.8133   -0.8053   -5.5164 C   0  0  0  0  0  0  0  0  0  0  0  0
   -0.1206    0.0120   -4.5023 C   0  0  2  0  0  0  0  0  0  0  0  0
   -0.7923    1.3186   -4.2708 C   0  0  0  0  0  0  0  0  0  0  0  0
   -1.7976    1.8444   -5.1648 C   0  0  0  0  0  0  0  0  0  0  0  0
   -2.2817    1.0541   -6.1536 C   0  0  0  0  0  0  0  0  0  0  0  0
   -1.7985   -0.2981   -6.2949 C   0  0  0  0  0  0  0  0  0  0  0  0
   -0.4808   -1.8311   -5.6272 H   0  0  0  0  0  0  0  0  0  0  0  0
    0.0889   -0.5266   -3.5768 H   0  0  0  0  0  0  0  0  0  0  0  0
   -2.1449    2.8605   -5.0125 H   0  0  0  0  0  0  0  0  0  0  0  0
   -3.0398    1.4276   -6.8327 H   0  0  0  0  0  0  0  0  0  0  0  0
   -0.4299    1.9970   -3.2471 N   0  0  0  0  0  0  0  0  0  0  0  0
   -0.1014    2.5949   -2.3342 N   0  0  0  0  0  0  0  0  0  0  0  0
    1.9816    0.9618   -6.1502 S   0  0  0  0  0  0  0  0  0  0  0  0
    2.6010   -0.5034   -7.1255 C   0  0  0  0  0  0  0  0  0  0  0  0
    0.9053    1.5640   -6.9271 O   0  0  0  0  0  0  0  0  0  0  0  0
    3.1634    1.7195   -5.7680 O   0  0  0  0  0  0  0  0  0  0  0  0
    1.4332    0.2079   -4.8501 O   0  0  0  0  0  0  0  0  0  0  0  0
    1.5897   -1.3295   -7.4155 F   0  0  0  0  0  0  0  0  0  0  0  0
    3.1406   -0.0584   -8.2610 F   0  0  0  0  0  0  0  0  0  0  0  0
    3.5200   -1.1663   -6.4244 F   0  0  0  0  0  0  0  0  0  0  0  0
   -2.2615   -0.9367   -7.0423 H   0  0  0  0  0  0  0  0  0  0  0  0
  1  2  1  0  0  0  0
  2  3  1  0  0  0  0
  2  8  1  1  0  0  0
  3 11  1  0  0  0  0
  4  9  1  0  0  0  0
  4  3  2  0  0  0  0
  5  4  1  0  0  0  0
  6  5  1  0  0  0  0
  6  1  2  0  0  0  0
  7  1  1  0  0  0  0
 10  5  1  0  0  0  0
 11 12  1  0  0  0  0
 13 16  2  0  0  0  0
 13 17  1  0  0  0  0
 14 20  1  0  0  0  0
 14 13  1  0  0  0  0
 15 13  2  0  0  0  0
 17  2  1  0  0  0  0
 18 14  1  0  0  0  0
 19 14  1  0  0  0  0
 21  6  1  0  0  0  0
M  RAD  3   5   2  11   2  12   3
M  END
