Coordinates from ORCA-job Ph-N2-OTf-B3LYPG-6-31G_dp-MTMO-d009-169-n800
 OpenBabel09051908113D

 21 20  0  0  0  0  0  0  0  0999 V2000
   -1.7632   -2.4097   -4.5451 C   0  0  0  0  0  0  0  0  0  0  0  0
   -0.5255   -1.7652   -4.5213 C   0  0  0  0  0  0  0  0  0  0  0  0
   -0.4693   -0.4197   -4.8694 C   0  0  0  0  0  0  0  0  0  0  0  0
   -1.6010    0.2999   -5.2390 C   0  0  0  0  0  0  0  0  0  0  0  0
   -2.8308   -0.3586   -5.2614 C   0  0  0  0  0  0  0  0  0  0  0  0
   -2.9135   -1.7093   -4.9151 C   0  0  0  0  0  0  0  0  0  0  0  0
   -1.8260   -3.4584   -4.2723 H   0  0  0  0  0  0  0  0  0  0  0  0
    0.3821   -2.2833   -4.2313 H   0  0  0  0  0  0  0  0  0  0  0  0
   -1.5126    1.3474   -5.5023 H   0  0  0  0  0  0  0  0  0  0  0  0
   -3.7242    0.1867   -5.5491 H   0  0  0  0  0  0  0  0  0  0  0  0
    4.3911    5.3761   -8.0591 N   0  0  0  0  0  0  0  0  0  0  0  0
    5.1004    6.0899   -8.5163 N   0  0  0  0  0  0  0  0  0  0  0  0
    1.7107    0.4651   -6.0915 S   0  0  0  0  0  0  0  0  0  0  0  0
    1.7428    2.3333   -6.0445 C   0  0  0  0  0  0  0  0  0  0  0  0
    0.7739    0.2435   -4.7545 O   0  0  0  0  0  0  0  0  0  0  0  0
    3.0512    0.0097   -5.7730 O   0  0  0  0  0  0  0  0  0  0  0  0
    0.9985    0.0585   -7.2915 O   0  0  0  0  0  0  0  0  0  0  0  0
    0.5053    2.8077   -6.2139 F   0  0  0  0  0  0  0  0  0  0  0  0
    2.2245    2.7482   -4.8778 F   0  0  0  0  0  0  0  0  0  0  0  0
    2.5214    2.7605   -7.0359 F   0  0  0  0  0  0  0  0  0  0  0  0
   -3.8740   -2.2154   -4.9332 H   0  0  0  0  0  0  0  0  0  0  0  0
  1  2  1  0  0  0  0
  1  7  1  0  0  0  0
  2  8  1  0  0  0  0
  3 15  1  0  0  0  0
  3  2  2  0  0  0  0
  4  3  1  0  0  0  0
  5  4  2  0  0  0  0
  5  6  1  0  0  0  0
  6  1  2  0  0  0  0
  9  4  1  0  0  0  0
 10  5  1  0  0  0  0
 12 11  3  0  0  0  0
 13 14  1  0  0  0  0
 13 16  2  0  0  0  0
 13 15  1  0  0  0  0
 14 19  1  0  0  0  0
 17 13  2  0  0  0  0
 18 14  1  0  0  0  0
 20 14  1  0  0  0  0
 21  6  1  0  0  0  0
M  END
