Coordinates from ORCA-job Ph-N2-OTf-B3LYPG-6-31G_dp-MTMO-d009-169-n800
 OpenBabel09051908113D

 21 20  0  0  0  0  0  0  0  0999 V2000
   -1.8531   -1.4507   -4.6876 C   0  0  0  0  0  0  0  0  0  0  0  0
   -0.5731   -0.9349   -4.4799 C   0  0  0  0  0  0  0  0  0  0  0  0
   -0.2216    0.2472   -5.1251 C   0  0  0  0  0  0  0  0  0  0  0  0
   -1.1054    0.9310   -5.9548 C   0  0  0  0  0  0  0  0  0  0  0  0
   -2.3847    0.4070   -6.1438 C   0  0  0  0  0  0  0  0  0  0  0  0
   -2.7581   -0.7829   -5.5155 C   0  0  0  0  0  0  0  0  0  0  0  0
   -2.1413   -2.3753   -4.1977 H   0  0  0  0  0  0  0  0  0  0  0  0
    0.1411   -1.4364   -3.8376 H   0  0  0  0  0  0  0  0  0  0  0  0
   -0.7921    1.8541   -6.4276 H   0  0  0  0  0  0  0  0  0  0  0  0
   -3.0877    0.9307   -6.7843 H   0  0  0  0  0  0  0  0  0  0  0  0
    0.6140    4.0187   -5.2036 N   0  0  0  0  0  0  0  0  0  0  0  0
    0.8754    4.5551   -4.2736 N   0  0  0  0  0  0  0  0  0  0  0  0
    2.4190    0.1732   -5.4510 S   0  0  0  0  0  0  0  0  0  0  0  0
    2.5347    1.0639   -7.0909 C   0  0  0  0  0  0  0  0  0  0  0  0
    1.0347    0.8435   -4.8717 O   0  0  0  0  0  0  0  0  0  0  0  0
    3.4820    0.6857   -4.6097 O   0  0  0  0  0  0  0  0  0  0  0  0
    2.2338   -1.2392   -5.7386 O   0  0  0  0  0  0  0  0  0  0  0  0
    1.4668    0.7719   -7.8358 F   0  0  0  0  0  0  0  0  0  0  0  0
    2.5916    2.3776   -6.8881 F   0  0  0  0  0  0  0  0  0  0  0  0
    3.6389    0.6547   -7.7112 F   0  0  0  0  0  0  0  0  0  0  0  0
   -3.7532   -1.1882   -5.6694 H   0  0  0  0  0  0  0  0  0  0  0  0
  1  2  1  0  0  0  0
  1  7  1  0  0  0  0
  2  8  1  0  0  0  0
  3 15  1  0  0  0  0
  3  2  2  0  0  0  0
  4  3  1  0  0  0  0
  5  4  2  0  0  0  0
  5  6  1  0  0  0  0
  6  1  2  0  0  0  0
  9  4  1  0  0  0  0
 10  5  1  0  0  0  0
 11 12  3  0  0  0  0
 13 15  1  0  0  0  0
 13 16  2  0  0  0  0
 14 19  1  0  0  0  0
 14 13  1  0  0  0  0
 17 13  2  0  0  0  0
 18 14  1  0  0  0  0
 20 14  1  0  0  0  0
 21  6  1  0  0  0  0
M  END
