Coordinates from ORCA-job Ph-N2-OTf-B3LYPG-6-31G_dp-MTMO-d009-169-n800
 OpenBabel09051908113D

 21 19  0  0  0  0  0  0  0  0999 V2000
   -1.6569   -1.2494   -5.4884 C   0  0  0  0  0  0  0  0  0  0  0  0
   -0.7056   -0.2280   -5.2520 C   0  0  0  0  0  0  0  0  0  0  0  0
   -1.1802    0.9421   -5.2910 C   0  0  0  0  0  0  0  0  0  0  0  0
   -2.3689    1.5736   -5.4973 C   0  0  0  0  0  0  0  0  0  0  0  0
   -3.3196    0.5497   -5.7355 C   0  0  0  0  0  0  0  0  0  0  0  0
   -2.9708   -0.8123   -5.7298 C   0  0  0  0  0  0  0  0  0  0  0  0
   -1.4025   -2.3051   -5.4868 H   0  0  0  0  0  0  0  0  0  0  0  0
    1.0515   -0.5134   -4.9376 H   0  0  0  0  0  0  0  0  0  0  0  0
   -2.5915    2.6315   -5.4899 H   0  0  0  0  0  0  0  0  0  0  0  0
   -4.3474    0.8459   -5.9278 H   0  0  0  0  0  0  0  0  0  0  0  0
    0.0263    3.8993   -4.6231 N   0  0  0  0  0  0  0  0  0  0  0  0
    0.8237    4.5614   -4.2405 N   0  0  0  0  0  0  0  0  0  0  0  0
    2.9699    0.4780   -5.1924 S   0  0  0  0  0  0  0  0  0  0  0  0
    3.2746    0.0654   -6.9832 C   0  0  0  0  0  0  0  0  0  0  0  0
    2.2152    1.7264   -5.1777 O   0  0  0  0  0  0  0  0  0  0  0  0
    4.2323    0.3208   -4.4967 O   0  0  0  0  0  0  0  0  0  0  0  0
    2.0251   -0.7494   -4.7909 O   0  0  0  0  0  0  0  0  0  0  0  0
    2.1042   -0.0073   -7.6259 F   0  0  0  0  0  0  0  0  0  0  0  0
    4.0188    1.0286   -7.5267 F   0  0  0  0  0  0  0  0  0  0  0  0
    3.9087   -1.1004   -7.0852 F   0  0  0  0  0  0  0  0  0  0  0  0
   -3.7453   -1.5504   -5.9192 H   0  0  0  0  0  0  0  0  0  0  0  0
  1  7  1  0  0  0  0
  1  2  2  0  0  0  0
  3  2  1  0  0  0  0
  4  9  1  0  0  0  0
  4  3  2  0  0  0  0
  5  6  2  0  0  0  0
  5  4  1  0  0  0  0
  6  1  1  0  0  0  0
  8 17  1  0  0  0  0
 10  5  1  0  0  0  0
 11 12  3  0  0  0  0
 13 15  2  0  0  0  0
 13 17  1  0  0  0  0
 13 16  2  0  0  0  0
 14 13  1  0  0  0  0
 18 14  1  0  0  0  0
 19 14  1  0  0  0  0
 20 14  1  0  0  0  0
 21  6  1  0  0  0  0
M  RAD  2   2   2   3   2
M  END
