Coordinates from ORCA-job Ph-N2-OTf-B3LYPG-6-31G_dp-MTMO-d009-169-n800
 OpenBabel09051908113D

 21 20  0  0  0  0  0  0  0  0999 V2000
   -1.7355   -2.2826   -4.3773 C   0  0  0  0  0  0  0  0  0  0  0  0
   -0.4917   -1.6529   -4.4423 C   0  0  0  0  0  0  0  0  0  0  0  0
   -0.4322   -0.3445   -4.9109 C   0  0  0  0  0  0  0  0  0  0  0  0
   -1.5663    0.3526   -5.3144 C   0  0  0  0  0  0  0  0  0  0  0  0
   -2.8027   -0.2904   -5.2450 C   0  0  0  0  0  0  0  0  0  0  0  0
   -2.8887   -1.6041   -4.7780 C   0  0  0  0  0  0  0  0  0  0  0  0
   -1.8007   -3.3025   -4.0122 H   0  0  0  0  0  0  0  0  0  0  0  0
    0.4182   -2.1539   -4.1304 H   0  0  0  0  0  0  0  0  0  0  0  0
   -1.4742    1.3710   -5.6725 H   0  0  0  0  0  0  0  0  0  0  0  0
   -3.6984    0.2376   -5.5565 H   0  0  0  0  0  0  0  0  0  0  0  0
    4.0524    5.2844   -7.3164 N   0  0  0  0  0  0  0  0  0  0  0  0
    4.7297    6.1250   -7.5533 N   0  0  0  0  0  0  0  0  0  0  0  0
    1.7463    0.3433   -6.2523 S   0  0  0  0  0  0  0  0  0  0  0  0
    1.7995    2.2001   -6.4679 C   0  0  0  0  0  0  0  0  0  0  0  0
    0.8183    0.3150   -4.8911 O   0  0  0  0  0  0  0  0  0  0  0  0
    3.0849   -0.0785   -5.8830 O   0  0  0  0  0  0  0  0  0  0  0  0
    1.0200   -0.2171   -7.3796 O   0  0  0  0  0  0  0  0  0  0  0  0
    0.5603    2.6690   -6.6412 F   0  0  0  0  0  0  0  0  0  0  0  0
    2.3468    2.7666   -5.3988 F   0  0  0  0  0  0  0  0  0  0  0  0
    2.5296    2.4672   -7.5484 F   0  0  0  0  0  0  0  0  0  0  0  0
   -3.8540   -2.0984   -4.7260 H   0  0  0  0  0  0  0  0  0  0  0  0
  1  7  1  0  0  0  0
  2  1  1  0  0  0  0
  2  8  1  0  0  0  0
  3 15  1  0  0  0  0
  3  2  2  0  0  0  0
  4  5  2  0  0  0  0
  4  3  1  0  0  0  0
  5  6  1  0  0  0  0
  6 21  1  0  0  0  0
  6  1  2  0  0  0  0
  9  4  1  0  0  0  0
 10  5  1  0  0  0  0
 12 11  3  0  0  0  0
 13 16  2  0  0  0  0
 13 15  1  0  0  0  0
 14 13  1  0  0  0  0
 14 19  1  0  0  0  0
 17 13  2  0  0  0  0
 18 14  1  0  0  0  0
 20 14  1  0  0  0  0
M  END
