Coordinates from ORCA-job Ph-N2-OTf-B3LYPG-6-31G_dp-MTMO-d009-169-n800
 OpenBabel09051908113D

 21 20  0  0  0  0  0  0  0  0999 V2000
   -1.4488   -0.8580   -5.9506 C   0  0  0  0  0  0  0  0  0  0  0  0
   -0.5645   -0.0237   -5.2547 C   0  0  0  0  0  0  0  0  0  0  0  0
   -1.1305    1.1648   -4.8645 C   0  0  0  0  0  0  0  0  0  0  0  0
   -2.4065    1.6455   -5.0447 C   0  0  0  0  0  0  0  0  0  0  0  0
   -3.2481    0.7739   -5.7446 C   0  0  0  0  0  0  0  0  0  0  0  0
   -2.7685   -0.4627   -6.1900 C   0  0  0  0  0  0  0  0  0  0  0  0
   -1.0826   -1.8133   -6.3105 H   0  0  0  0  0  0  0  0  0  0  0  0
    0.4717   -0.2648   -5.0462 H   0  0  0  0  0  0  0  0  0  0  0  0
   -2.7262    2.6143   -4.6844 H   0  0  0  0  0  0  0  0  0  0  0  0
   -4.2730    1.0706   -5.9395 H   0  0  0  0  0  0  0  0  0  0  0  0
   -0.0694    2.1956   -4.0250 N   0  0  0  0  0  0  0  0  0  0  0  0
    0.9740    2.4163   -3.6825 N   0  0  0  0  0  0  0  0  0  0  0  0
    2.8679    1.2178   -5.6971 S   0  0  0  0  0  0  0  0  0  0  0  0
    3.1725   -0.4134   -6.5464 C   0  0  0  0  0  0  0  0  0  0  0  0
    1.7968    1.8569   -6.4892 O   0  0  0  0  0  0  0  0  0  0  0  0
    4.1792    1.8658   -5.6525 O   0  0  0  0  0  0  0  0  0  0  0  0
    2.3444    0.7383   -4.3512 O   0  0  0  0  0  0  0  0  0  0  0  0
    2.0349   -1.1518   -6.5744 F   0  0  0  0  0  0  0  0  0  0  0  0
    3.5644   -0.2171   -7.8086 F   0  0  0  0  0  0  0  0  0  0  0  0
    4.1069   -1.1220   -5.9069 F   0  0  0  0  0  0  0  0  0  0  0  0
   -3.4332   -1.1262   -6.7339 H   0  0  0  0  0  0  0  0  0  0  0  0
  1  2  1  0  0  0  0
  2  8  1  0  0  0  0
  2  3  2  0  0  0  0
  3 11  1  0  0  0  0
  4  3  1  0  0  0  0
  4  9  1  0  0  0  0
  5  4  2  0  0  0  0
  6  1  2  0  0  0  0
  6  5  1  0  0  0  0
  7  1  1  0  0  0  0
 10  5  1  0  0  0  0
 11 12  2  0  0  0  0
 13 16  2  0  0  0  0
 13 17  1  0  0  0  0
 14 20  1  0  0  0  0
 14 13  1  0  0  0  0
 15 13  2  0  0  0  0
 18 14  1  0  0  0  0
 19 14  1  0  0  0  0
 21  6  1  0  0  0  0
M  RAD  2  12   2  17   2
M  END
