Coordinates from ORCA-job Ph-N2-OTf-B3LYPG-6-31G_dp-MTMO-d009-169-n800
 OpenBabel09051908113D

 21 20  0  0  0  0  0  0  0  0999 V2000
   -1.8825   -1.8911   -5.3164 C   0  0  0  0  0  0  0  0  0  0  0  0
   -0.5471   -1.6071   -5.0271 C   0  0  0  0  0  0  0  0  0  0  0  0
   -0.1952   -0.2879   -4.7570 C   0  0  0  0  0  0  0  0  0  0  0  0
   -1.1295    0.7437   -4.7534 C   0  0  0  0  0  0  0  0  0  0  0  0
   -2.4621    0.4414   -5.0343 C   0  0  0  0  0  0  0  0  0  0  0  0
   -2.8385   -0.8731   -5.3193 C   0  0  0  0  0  0  0  0  0  0  0  0
   -2.1743   -2.9134   -5.5363 H   0  0  0  0  0  0  0  0  0  0  0  0
    0.2076   -2.3842   -5.0161 H   0  0  0  0  0  0  0  0  0  0  0  0
   -0.8088    1.7550   -4.5278 H   0  0  0  0  0  0  0  0  0  0  0  0
   -3.2033    1.2346   -5.0314 H   0  0  0  0  0  0  0  0  0  0  0  0
    1.8640    4.6240   -7.7439 N   0  0  0  0  0  0  0  0  0  0  0  0
    1.7047    5.5806   -8.2736 N   0  0  0  0  0  0  0  0  0  0  0  0
    2.3577   -0.0280   -5.4646 S   0  0  0  0  0  0  0  0  0  0  0  0
    2.1692    1.6569   -6.2611 C   0  0  0  0  0  0  0  0  0  0  0  0
    1.1268    0.0375   -4.3786 O   0  0  0  0  0  0  0  0  0  0  0  0
    3.5694    0.0004   -4.6705 O   0  0  0  0  0  0  0  0  0  0  0  0
    2.0972   -1.0222   -6.4924 O   0  0  0  0  0  0  0  0  0  0  0  0
    1.0278    1.6971   -6.9492 F   0  0  0  0  0  0  0  0  0  0  0  0
    2.1563    2.5979   -5.3200 F   0  0  0  0  0  0  0  0  0  0  0  0
    3.1977    1.8490   -7.0818 F   0  0  0  0  0  0  0  0  0  0  0  0
   -3.8755   -1.1042   -5.5426 H   0  0  0  0  0  0  0  0  0  0  0  0
  1  2  1  0  0  0  0
  2  8  1  0  0  0  0
  2  3  2  0  0  0  0
  3  4  1  0  0  0  0
  3 15  1  0  0  0  0
  4  9  1  0  0  0  0
  5 10  1  0  0  0  0
  5  4  2  0  0  0  0
  6  1  2  0  0  0  0
  6  5  1  0  0  0  0
  7  1  1  0  0  0  0
 12 11  3  0  0  0  0
 13 16  2  0  0  0  0
 13 15  1  0  0  0  0
 14 13  1  0  0  0  0
 14 19  1  0  0  0  0
 17 13  2  0  0  0  0
 18 14  1  0  0  0  0
 20 14  1  0  0  0  0
 21  6  1  0  0  0  0
M  END
