Coordinates from ORCA-job Ph-N2-OTf-B3LYPG-6-31G_dp-MTMO-d009-169-n800
 OpenBabel09051908113D

 21 20  0  0  0  0  0  0  0  0999 V2000
   -1.9807   -2.7677   -4.5082 C   0  0  0  0  0  0  0  0  0  0  0  0
   -0.7588   -2.0960   -4.4490 C   0  0  0  0  0  0  0  0  0  0  0  0
   -0.7389   -0.7272   -4.6961 C   0  0  0  0  0  0  0  0  0  0  0  0
   -1.8923   -0.0108   -4.9991 C   0  0  0  0  0  0  0  0  0  0  0  0
   -3.1060   -0.6965   -5.0584 C   0  0  0  0  0  0  0  0  0  0  0  0
   -3.1520   -2.0708   -4.8132 C   0  0  0  0  0  0  0  0  0  0  0  0
   -2.0149   -3.8351   -4.3133 H   0  0  0  0  0  0  0  0  0  0  0  0
    0.1643   -2.6116   -4.2075 H   0  0  0  0  0  0  0  0  0  0  0  0
   -1.8331    1.0554   -5.1840 H   0  0  0  0  0  0  0  0  0  0  0  0
   -4.0156   -0.1535   -5.2954 H   0  0  0  0  0  0  0  0  0  0  0  0
    7.0742    8.0187  -10.0092 N   0  0  0  0  0  0  0  0  0  0  0  0
    8.0165    8.5446  -10.2479 N   0  0  0  0  0  0  0  0  0  0  0  0
    1.4052    0.3023   -5.8667 S   0  0  0  0  0  0  0  0  0  0  0  0
    1.3422    2.1633   -5.7158 C   0  0  0  0  0  0  0  0  0  0  0  0
    0.4895   -0.0452   -4.5425 O   0  0  0  0  0  0  0  0  0  0  0  0
    2.7685   -0.0993   -5.5752 O   0  0  0  0  0  0  0  0  0  0  0  0
    0.7091   -0.0719   -7.0865 O   0  0  0  0  0  0  0  0  0  0  0  0
    0.0822    2.5851   -5.8556 F   0  0  0  0  0  0  0  0  0  0  0  0
    1.8094    2.5380   -4.5298 F   0  0  0  0  0  0  0  0  0  0  0  0
    2.0927    2.6832   -6.6847 F   0  0  0  0  0  0  0  0  0  0  0  0
   -4.1000   -2.5980   -4.8594 H   0  0  0  0  0  0  0  0  0  0  0  0
  1  2  1  0  0  0  0
  1  7  1  0  0  0  0
  2  8  1  0  0  0  0
  3 15  1  0  0  0  0
  3  2  2  0  0  0  0
  4  3  1  0  0  0  0
  5  4  2  0  0  0  0
  5  6  1  0  0  0  0
  6  1  2  0  0  0  0
  9  4  1  0  0  0  0
 10  5  1  0  0  0  0
 12 11  3  0  0  0  0
 13 14  1  0  0  0  0
 13 16  2  0  0  0  0
 13 15  1  0  0  0  0
 14 19  1  0  0  0  0
 17 13  2  0  0  0  0
 18 14  1  0  0  0  0
 20 14  1  0  0  0  0
 21  6  1  0  0  0  0
M  END
