Coordinates from ORCA-job Ph-N2-OTf-B3LYPG-6-31G_dp-MTMO-d009-169-n800
 OpenBabel09051908113D

 21 19  0  0  0  0  0  0  0  0999 V2000
   -1.3538   -0.9024   -5.6163 C   0  0  0  0  0  0  0  0  0  0  0  0
   -0.6296    0.2168   -5.1252 C   0  0  0  0  0  0  0  0  0  0  0  0
   -1.3453    1.2647   -5.0646 C   0  0  0  0  0  0  0  0  0  0  0  0
   -2.6140    1.6830   -5.3245 C   0  0  0  0  0  0  0  0  0  0  0  0
   -3.3193    0.5573   -5.8116 C   0  0  0  0  0  0  0  0  0  0  0  0
   -2.7010   -0.6972   -5.9510 C   0  0  0  0  0  0  0  0  0  0  0  0
   -0.8891   -1.8771   -5.7335 H   0  0  0  0  0  0  0  0  0  0  0  0
    1.0534    0.0063   -4.7456 H   0  0  0  0  0  0  0  0  0  0  0  0
   -3.0397    2.6689   -5.1993 H   0  0  0  0  0  0  0  0  0  0  0  0
   -4.3636    0.6854   -6.0822 H   0  0  0  0  0  0  0  0  0  0  0  0
   -0.2327    3.2777   -4.2443 N   0  0  0  0  0  0  0  0  0  0  0  0
    0.6867    3.7654   -3.8727 N   0  0  0  0  0  0  0  0  0  0  0  0
    3.0244    0.6867   -5.3950 S   0  0  0  0  0  0  0  0  0  0  0  0
    3.1424   -0.3342   -6.9483 C   0  0  0  0  0  0  0  0  0  0  0  0
    2.3705    1.9349   -5.7734 O   0  0  0  0  0  0  0  0  0  0  0  0
    4.3287    0.6527   -4.7607 O   0  0  0  0  0  0  0  0  0  0  0  0
    2.0308   -0.2287   -4.5455 O   0  0  0  0  0  0  0  0  0  0  0  0
    1.9132   -0.5394   -7.4378 F   0  0  0  0  0  0  0  0  0  0  0  0
    3.8715    0.3254   -7.8483 F   0  0  0  0  0  0  0  0  0  0  0  0
    3.7128   -1.5087   -6.6865 F   0  0  0  0  0  0  0  0  0  0  0  0
   -3.2848   -1.5306   -6.3312 H   0  0  0  0  0  0  0  0  0  0  0  0
  1  2  2  0  0  0  0
  2  3  1  0  0  0  0
  4  9  1  0  0  0  0
  4  3  2  0  0  0  0
  5  4  1  0  0  0  0
  6  5  2  0  0  0  0
  6  1  1  0  0  0  0
  7  1  1  0  0  0  0
  8 17  1  0  0  0  0
 10  5  1  0  0  0  0
 11 12  3  0  0  0  0
 13 16  2  0  0  0  0
 13 17  1  0  0  0  0
 14 20  1  0  0  0  0
 14 13  1  0  0  0  0
 15 13  2  0  0  0  0
 18 14  1  0  0  0  0
 19 14  1  0  0  0  0
 21  6  1  0  0  0  0
M  RAD  2   2   2   3   2
M  END
