Coordinates from ORCA-job Ph-N2-OTf-B3LYPG-6-31G_dp-MTMO-d009-169-n800
 OpenBabel09051908113D

 21 20  0  0  0  0  0  0  0  0999 V2000
   -1.7633   -2.4124   -4.5466 C   0  0  0  0  0  0  0  0  0  0  0  0
   -0.5259   -1.7672   -4.5220 C   0  0  0  0  0  0  0  0  0  0  0  0
   -0.4705   -0.4213   -4.8687 C   0  0  0  0  0  0  0  0  0  0  0  0
   -1.6026    0.2981   -5.2376 C   0  0  0  0  0  0  0  0  0  0  0  0
   -2.8320   -0.3611   -5.2608 C   0  0  0  0  0  0  0  0  0  0  0  0
   -2.9140   -1.7122   -4.9160 C   0  0  0  0  0  0  0  0  0  0  0  0
   -1.8255   -3.4614   -4.2749 H   0  0  0  0  0  0  0  0  0  0  0  0
    0.3819   -2.2851   -4.2326 H   0  0  0  0  0  0  0  0  0  0  0  0
   -1.5147    1.3459   -5.4997 H   0  0  0  0  0  0  0  0  0  0  0  0
   -3.7257    0.1840   -5.5480 H   0  0  0  0  0  0  0  0  0  0  0  0
    4.4045    5.3837   -8.0712 N   0  0  0  0  0  0  0  0  0  0  0  0
    5.1173    6.0926   -8.5303 N   0  0  0  0  0  0  0  0  0  0  0  0
    1.7086    0.4672   -6.0898 S   0  0  0  0  0  0  0  0  0  0  0  0
    1.7394    2.3353   -6.0393 C   0  0  0  0  0  0  0  0  0  0  0  0
    0.7724    0.2424   -4.7530 O   0  0  0  0  0  0  0  0  0  0  0  0
    3.0495    0.0122   -5.7725 O   0  0  0  0  0  0  0  0  0  0  0  0
    0.9964    0.0624   -7.2904 O   0  0  0  0  0  0  0  0  0  0  0  0
    0.5015    2.8092   -6.2078 F   0  0  0  0  0  0  0  0  0  0  0  0
    2.2208    2.7484   -4.8719 F   0  0  0  0  0  0  0  0  0  0  0  0
    2.5177    2.7649   -7.0299 F   0  0  0  0  0  0  0  0  0  0  0  0
   -3.8741   -2.2189   -4.9347 H   0  0  0  0  0  0  0  0  0  0  0  0
  1  2  1  0  0  0  0
  1  7  1  0  0  0  0
  2  8  1  0  0  0  0
  3 15  1  0  0  0  0
  3  2  2  0  0  0  0
  4  3  1  0  0  0  0
  5  4  2  0  0  0  0
  5  6  1  0  0  0  0
  6  1  2  0  0  0  0
  9  4  1  0  0  0  0
 10  5  1  0  0  0  0
 12 11  3  0  0  0  0
 13 14  1  0  0  0  0
 13 16  2  0  0  0  0
 13 15  1  0  0  0  0
 14 19  1  0  0  0  0
 17 13  2  0  0  0  0
 18 14  1  0  0  0  0
 20 14  1  0  0  0  0
 21  6  1  0  0  0  0
M  END
