Coordinates from ORCA-job Ph-N2-OTf-B3LYPG-6-31G_dp-MTMO-d009-169-n800
 OpenBabel09051908113D

 21 20  0  0  0  0  0  0  0  0999 V2000
   -2.0903   -2.8901   -4.4558 C   0  0  0  0  0  0  0  0  0  0  0  0
   -0.8688   -2.2180   -4.3930 C   0  0  0  0  0  0  0  0  0  0  0  0
   -0.8505   -0.8471   -4.6282 C   0  0  0  0  0  0  0  0  0  0  0  0
   -2.0050   -0.1290   -4.9226 C   0  0  0  0  0  0  0  0  0  0  0  0
   -3.2183   -0.8150   -4.9854 C   0  0  0  0  0  0  0  0  0  0  0  0
   -3.2627   -2.1914   -4.7523 C   0  0  0  0  0  0  0  0  0  0  0  0
   -2.1233   -3.9592   -4.2703 H   0  0  0  0  0  0  0  0  0  0  0  0
    0.0551   -2.7350   -4.1579 H   0  0  0  0  0  0  0  0  0  0  0  0
   -1.9469    0.9388   -5.0983 H   0  0  0  0  0  0  0  0  0  0  0  0
   -4.1288   -0.2707   -5.2158 H   0  0  0  0  0  0  0  0  0  0  0  0
    8.1318    9.1477  -10.6789 N   0  0  0  0  0  0  0  0  0  0  0  0
    9.0946    9.6444  -10.8974 N   0  0  0  0  0  0  0  0  0  0  0  0
    1.2928    0.1898   -5.7936 S   0  0  0  0  0  0  0  0  0  0  0  0
    1.2262    2.0502   -5.6350 C   0  0  0  0  0  0  0  0  0  0  0  0
    0.3776   -0.1651   -4.4711 O   0  0  0  0  0  0  0  0  0  0  0  0
    2.6569   -0.2103   -5.5033 O   0  0  0  0  0  0  0  0  0  0  0  0
    0.5978   -0.1806   -7.0151 O   0  0  0  0  0  0  0  0  0  0  0  0
   -0.0347    2.4700   -5.7730 F   0  0  0  0  0  0  0  0  0  0  0  0
    1.6927    2.4209   -4.4476 F   0  0  0  0  0  0  0  0  0  0  0  0
    1.9756    2.5756   -6.6018 F   0  0  0  0  0  0  0  0  0  0  0  0
   -4.2105   -2.7189   -4.8011 H   0  0  0  0  0  0  0  0  0  0  0  0
  1  2  1  0  0  0  0
  1  7  1  0  0  0  0
  2  8  1  0  0  0  0
  3 15  1  0  0  0  0
  3  2  2  0  0  0  0
  4  3  1  0  0  0  0
  5  4  2  0  0  0  0
  5  6  1  0  0  0  0
  6  1  2  0  0  0  0
  9  4  1  0  0  0  0
 10  5  1  0  0  0  0
 12 11  3  0  0  0  0
 13 14  1  0  0  0  0
 13 16  2  0  0  0  0
 13 15  1  0  0  0  0
 14 19  1  0  0  0  0
 17 13  2  0  0  0  0
 18 14  1  0  0  0  0
 20 14  1  0  0  0  0
 21  6  1  0  0  0  0
M  END
