Coordinates from ORCA-job Ph-N2-OTf-B3LYPG-6-31G_dp-MTMO-d009-169-n800
 OpenBabel09051908113D

 21 20  0  0  0  0  0  0  0  0999 V2000
   -1.9003   -2.6527   -4.5522 C   0  0  0  0  0  0  0  0  0  0  0  0
   -0.6744   -1.9887   -4.4908 C   0  0  0  0  0  0  0  0  0  0  0  0
   -0.6430   -0.6232   -4.7544 C   0  0  0  0  0  0  0  0  0  0  0  0
   -1.7888    0.0973   -5.0757 C   0  0  0  0  0  0  0  0  0  0  0  0
   -3.0066   -0.5808   -5.1371 C   0  0  0  0  0  0  0  0  0  0  0  0
   -3.0642   -1.9516   -4.8756 C   0  0  0  0  0  0  0  0  0  0  0  0
   -1.9435   -3.7174   -4.3446 H   0  0  0  0  0  0  0  0  0  0  0  0
    0.2431   -2.5075   -4.2353 H   0  0  0  0  0  0  0  0  0  0  0  0
   -1.7209    1.1607   -5.2729 H   0  0  0  0  0  0  0  0  0  0  0  0
   -3.9104   -0.0347   -5.3884 H   0  0  0  0  0  0  0  0  0  0  0  0
    6.1367    7.0525   -9.3695 N   0  0  0  0  0  0  0  0  0  0  0  0
    7.0095    7.6143   -9.7493 N   0  0  0  0  0  0  0  0  0  0  0  0
    1.5148    0.3830   -5.9200 S   0  0  0  0  0  0  0  0  0  0  0  0
    1.4681    2.2453   -5.7798 C   0  0  0  0  0  0  0  0  0  0  0  0
    0.5891    0.0519   -4.5987 O   0  0  0  0  0  0  0  0  0  0  0  0
    2.8730   -0.0295   -5.6193 O   0  0  0  0  0  0  0  0  0  0  0  0
    0.8218    0.0082   -7.1412 O   0  0  0  0  0  0  0  0  0  0  0  0
    0.2124    2.6776   -5.9277 F   0  0  0  0  0  0  0  0  0  0  0  0
    1.9330    2.6224   -4.5937 F   0  0  0  0  0  0  0  0  0  0  0  0
    2.2277    2.7528   -6.7480 F   0  0  0  0  0  0  0  0  0  0  0  0
   -4.0154   -2.4729   -4.9234 H   0  0  0  0  0  0  0  0  0  0  0  0
  1  2  1  0  0  0  0
  1  7  1  0  0  0  0
  2  8  1  0  0  0  0
  3 15  1  0  0  0  0
  3  2  2  0  0  0  0
  4  3  1  0  0  0  0
  5  4  2  0  0  0  0
  5  6  1  0  0  0  0
  6  1  2  0  0  0  0
  9  4  1  0  0  0  0
 10  5  1  0  0  0  0
 12 11  3  0  0  0  0
 13 14  1  0  0  0  0
 13 16  2  0  0  0  0
 13 15  1  0  0  0  0
 14 19  1  0  0  0  0
 17 13  2  0  0  0  0
 18 14  1  0  0  0  0
 20 14  1  0  0  0  0
 21  6  1  0  0  0  0
M  END
