Coordinates from ORCA-job Ph-N2-OTf-B3LYPG-6-31G_dp-MTMO-d009-169-n800
 OpenBabel09051908113D

 21 20  0  0  0  0  0  0  0  0999 V2000
   -1.8476   -2.0912   -5.0883 C   0  0  0  0  0  0  0  0  0  0  0  0
   -0.5340   -1.6595   -4.8989 C   0  0  0  0  0  0  0  0  0  0  0  0
   -0.2968   -0.2936   -4.7746 C   0  0  0  0  0  0  0  0  0  0  0  0
   -1.3236    0.6446   -4.8215 C   0  0  0  0  0  0  0  0  0  0  0  0
   -2.6327    0.1960   -5.0005 C   0  0  0  0  0  0  0  0  0  0  0  0
   -2.8950   -1.1689   -5.1375 C   0  0  0  0  0  0  0  0  0  0  0  0
   -2.0501   -3.1527   -5.1938 H   0  0  0  0  0  0  0  0  0  0  0  0
    0.2905   -2.3610   -4.8525 H   0  0  0  0  0  0  0  0  0  0  0  0
   -1.0924    1.6985   -4.7128 H   0  0  0  0  0  0  0  0  0  0  0  0
   -3.4454    0.9150   -5.0343 H   0  0  0  0  0  0  0  0  0  0  0  0
    2.7346    5.0343   -7.6887 N   0  0  0  0  0  0  0  0  0  0  0  0
    3.0550    5.9866   -8.1487 N   0  0  0  0  0  0  0  0  0  0  0  0
    2.1931    0.1042   -5.6306 S   0  0  0  0  0  0  0  0  0  0  0  0
    1.9840    1.7933   -6.4085 C   0  0  0  0  0  0  0  0  0  0  0  0
    1.0047    0.1810   -4.4962 O   0  0  0  0  0  0  0  0  0  0  0  0
    3.4405    0.1229   -4.8929 O   0  0  0  0  0  0  0  0  0  0  0  0
    1.8792   -0.8849   -6.6480 O   0  0  0  0  0  0  0  0  0  0  0  0
    0.7660    1.8887   -6.9450 F   0  0  0  0  0  0  0  0  0  0  0  0
    2.1401    2.7360   -5.4841 F   0  0  0  0  0  0  0  0  0  0  0  0
    2.9057    1.9310   -7.3583 F   0  0  0  0  0  0  0  0  0  0  0  0
   -3.9143   -1.5136   -5.2816 H   0  0  0  0  0  0  0  0  0  0  0  0
  1  2  1  0  0  0  0
  2  8  1  0  0  0  0
  2  3  2  0  0  0  0
  3 15  1  0  0  0  0
  4  3  1  0  0  0  0
  4  9  1  0  0  0  0
  5  4  2  0  0  0  0
  6  1  2  0  0  0  0
  6  5  1  0  0  0  0
  7  1  1  0  0  0  0
 10  5  1  0  0  0  0
 12 11  3  0  0  0  0
 13 16  2  0  0  0  0
 13 15  1  0  0  0  0
 14 13  1  0  0  0  0
 14 19  1  0  0  0  0
 17 13  2  0  0  0  0
 18 14  1  0  0  0  0
 20 14  1  0  0  0  0
 21  6  1  0  0  0  0
M  END
