Coordinates from ORCA-job Ph-N2-OTf-B3LYPG-6-31G_dp-MTMO-d009-169-n800
 OpenBabel09051908113D

 21 20  0  0  0  0  0  0  0  0999 V2000
   -2.0997   -2.9005   -4.4504 C   0  0  0  0  0  0  0  0  0  0  0  0
   -0.8783   -2.2282   -4.3876 C   0  0  0  0  0  0  0  0  0  0  0  0
   -0.8603   -0.8573   -4.6224 C   0  0  0  0  0  0  0  0  0  0  0  0
   -2.0150   -0.1393   -4.9165 C   0  0  0  0  0  0  0  0  0  0  0  0
   -3.2281   -0.8255   -4.9794 C   0  0  0  0  0  0  0  0  0  0  0  0
   -3.2723   -2.2020   -4.7466 C   0  0  0  0  0  0  0  0  0  0  0  0
   -2.1324   -3.9697   -4.2652 H   0  0  0  0  0  0  0  0  0  0  0  0
    0.0457   -2.7451   -4.1527 H   0  0  0  0  0  0  0  0  0  0  0  0
   -1.9570    0.9286   -5.0919 H   0  0  0  0  0  0  0  0  0  0  0  0
   -4.1388   -0.2813   -5.2095 H   0  0  0  0  0  0  0  0  0  0  0  0
    8.2239    9.2446  -10.7352 N   0  0  0  0  0  0  0  0  0  0  0  0
    9.1869    9.7410  -10.9537 N   0  0  0  0  0  0  0  0  0  0  0  0
    1.2827    0.1800   -5.7879 S   0  0  0  0  0  0  0  0  0  0  0  0
    1.2169    2.0402   -5.6283 C   0  0  0  0  0  0  0  0  0  0  0  0
    0.3676   -0.1749   -4.4653 O   0  0  0  0  0  0  0  0  0  0  0  0
    2.6467   -0.2211   -5.4986 O   0  0  0  0  0  0  0  0  0  0  0  0
    0.5872   -0.1895   -7.0094 O   0  0  0  0  0  0  0  0  0  0  0  0
   -0.0440    2.4605   -5.7654 F   0  0  0  0  0  0  0  0  0  0  0  0
    1.6840    2.4103   -4.4408 F   0  0  0  0  0  0  0  0  0  0  0  0
    1.9659    2.5659   -6.5952 F   0  0  0  0  0  0  0  0  0  0  0  0
   -4.2200   -2.7297   -4.7955 H   0  0  0  0  0  0  0  0  0  0  0  0
  1  2  1  0  0  0  0
  1  7  1  0  0  0  0
  2  8  1  0  0  0  0
  3 15  1  0  0  0  0
  3  2  2  0  0  0  0
  4  3  1  0  0  0  0
  5  4  2  0  0  0  0
  5  6  1  0  0  0  0
  6  1  2  0  0  0  0
  9  4  1  0  0  0  0
 10  5  1  0  0  0  0
 12 11  3  0  0  0  0
 13 14  1  0  0  0  0
 13 16  2  0  0  0  0
 13 15  1  0  0  0  0
 14 19  1  0  0  0  0
 17 13  2  0  0  0  0
 18 14  1  0  0  0  0
 20 14  1  0  0  0  0
 21  6  1  0  0  0  0
M  END
