Coordinates from ORCA-job Ph-N2-OTf-B3LYPG-6-31G_dp-MTMO-d009-169-n800
 OpenBabel09051908113D

 21 20  0  0  0  0  0  0  0  0999 V2000
   -1.7349   -2.2803   -4.3765 C   0  0  0  0  0  0  0  0  0  0  0  0
   -0.4907   -1.6514   -4.4419 C   0  0  0  0  0  0  0  0  0  0  0  0
   -0.4305   -0.3435   -4.9116 C   0  0  0  0  0  0  0  0  0  0  0  0
   -1.5641    0.3539   -5.3159 C   0  0  0  0  0  0  0  0  0  0  0  0
   -2.8008   -0.2883   -5.2461 C   0  0  0  0  0  0  0  0  0  0  0  0
   -2.8876   -1.6015   -4.7780 C   0  0  0  0  0  0  0  0  0  0  0  0
   -1.8007   -3.2999   -4.0105 H   0  0  0  0  0  0  0  0  0  0  0  0
    0.4189   -2.1527   -4.1294 H   0  0  0  0  0  0  0  0  0  0  0  0
   -1.4711    1.3720   -5.6747 H   0  0  0  0  0  0  0  0  0  0  0  0
   -3.6962    0.2399   -5.5582 H   0  0  0  0  0  0  0  0  0  0  0  0
    4.0407    5.2724   -7.3095 N   0  0  0  0  0  0  0  0  0  0  0  0
    4.7149    6.1154   -7.5464 N   0  0  0  0  0  0  0  0  0  0  0  0
    1.7478    0.3433   -6.2541 S   0  0  0  0  0  0  0  0  0  0  0  0
    1.8009    2.2003   -6.4688 C   0  0  0  0  0  0  0  0  0  0  0  0
    0.8205    0.3154   -4.8921 O   0  0  0  0  0  0  0  0  0  0  0  0
    3.0865   -0.0792   -5.8862 O   0  0  0  0  0  0  0  0  0  0  0  0
    1.0203   -0.2165   -7.3809 O   0  0  0  0  0  0  0  0  0  0  0  0
    0.5616    2.6689   -6.6420 F   0  0  0  0  0  0  0  0  0  0  0  0
    2.3482    2.7663   -5.3995 F   0  0  0  0  0  0  0  0  0  0  0  0
    2.5310    2.4678   -7.5493 F   0  0  0  0  0  0  0  0  0  0  0  0
   -3.8532   -2.0953   -4.7257 H   0  0  0  0  0  0  0  0  0  0  0  0
  1  7  1  0  0  0  0
  2  1  1  0  0  0  0
  2  8  1  0  0  0  0
  3 15  1  0  0  0  0
  3  2  2  0  0  0  0
  4  5  2  0  0  0  0
  4  3  1  0  0  0  0
  5  6  1  0  0  0  0
  6 21  1  0  0  0  0
  6  1  2  0  0  0  0
  9  4  1  0  0  0  0
 10  5  1  0  0  0  0
 12 11  3  0  0  0  0
 13 16  2  0  0  0  0
 13 15  1  0  0  0  0
 14 13  1  0  0  0  0
 14 19  1  0  0  0  0
 17 13  2  0  0  0  0
 18 14  1  0  0  0  0
 20 14  1  0  0  0  0
M  END
