Coordinates from ORCA-job Ph-N2-OTf-B3LYPG-6-31G_dp-MTMO-d009-169-n800
 OpenBabel09051908113D

 21 20  0  0  0  0  0  0  0  0999 V2000
   -1.8801   -1.9190   -5.2863 C   0  0  0  0  0  0  0  0  0  0  0  0
   -0.5474   -1.6105   -5.0100 C   0  0  0  0  0  0  0  0  0  0  0  0
   -0.2131   -0.2821   -4.7635 C   0  0  0  0  0  0  0  0  0  0  0  0
   -1.1628    0.7353   -4.7702 C   0  0  0  0  0  0  0  0  0  0  0  0
   -2.4925    0.4087   -5.0374 C   0  0  0  0  0  0  0  0  0  0  0  0
   -2.8512   -0.9155   -5.2992 C   0  0  0  0  0  0  0  0  0  0  0  0
   -2.1577   -2.9489   -5.4881 H   0  0  0  0  0  0  0  0  0  0  0  0
    0.2184   -2.3766   -4.9911 H   0  0  0  0  0  0  0  0  0  0  0  0
   -0.8568    1.7549   -4.5628 H   0  0  0  0  0  0  0  0  0  0  0  0
   -3.2455    1.1907   -5.0421 H   0  0  0  0  0  0  0  0  0  0  0  0
    1.9486    4.6672   -7.7398 N   0  0  0  0  0  0  0  0  0  0  0  0
    1.8237    5.6302   -8.2669 N   0  0  0  0  0  0  0  0  0  0  0  0
    2.3361   -0.0148   -5.4855 S   0  0  0  0  0  0  0  0  0  0  0  0
    2.1800    1.6794   -6.2675 C   0  0  0  0  0  0  0  0  0  0  0  0
    1.1062    0.0683   -4.3986 O   0  0  0  0  0  0  0  0  0  0  0  0
    3.5497   -0.0163   -4.6936 O   0  0  0  0  0  0  0  0  0  0  0  0
    2.0543   -0.9956   -6.5205 O   0  0  0  0  0  0  0  0  0  0  0  0
    1.0137    1.7666   -6.9084 F   0  0  0  0  0  0  0  0  0  0  0  0
    2.2430    2.6156   -5.3244 F   0  0  0  0  0  0  0  0  0  0  0  0
    3.1809    1.8350   -7.1297 F   0  0  0  0  0  0  0  0  0  0  0  0
   -3.8860   -1.1655   -5.5122 H   0  0  0  0  0  0  0  0  0  0  0  0
  1  2  1  0  0  0  0
  2  8  1  0  0  0  0
  2  3  2  0  0  0  0
  3 15  1  0  0  0  0
  4  3  1  0  0  0  0
  4  9  1  0  0  0  0
  5  4  2  0  0  0  0
  6  1  2  0  0  0  0
  6  5  1  0  0  0  0
  7  1  1  0  0  0  0
 10  5  1  0  0  0  0
 12 11  3  0  0  0  0
 13 16  2  0  0  0  0
 13 15  1  0  0  0  0
 14 13  1  0  0  0  0
 14 19  1  0  0  0  0
 17 13  2  0  0  0  0
 18 14  1  0  0  0  0
 20 14  1  0  0  0  0
 21  6  1  0  0  0  0
M  END
