Coordinates from ORCA-job Ph-N2-OTf-B3LYPG-6-31G_dp-MTMO-d009-169-n800
 OpenBabel09051908113D

 21 19  0  0  0  0  0  0  0  0999 V2000
   -1.6338   -1.2145   -5.4801 C   0  0  0  0  0  0  0  0  0  0  0  0
   -0.7052   -0.1733   -5.2396 C   0  0  0  0  0  0  0  0  0  0  0  0
   -1.2032    0.9870   -5.2846 C   0  0  0  0  0  0  0  0  0  0  0  0
   -2.4033    1.5924   -5.5029 C   0  0  0  0  0  0  0  0  0  0  0  0
   -3.3311    0.5488   -5.7453 C   0  0  0  0  0  0  0  0  0  0  0  0
   -2.9546   -0.8056   -5.7329 C   0  0  0  0  0  0  0  0  0  0  0  0
   -1.3573   -2.2646   -5.4740 H   0  0  0  0  0  0  0  0  0  0  0  0
    1.0490   -0.4636   -4.9269 H   0  0  0  0  0  0  0  0  0  0  0  0
   -2.6480    2.6453   -5.5001 H   0  0  0  0  0  0  0  0  0  0  0  0
   -4.3634    0.8232   -5.9462 H   0  0  0  0  0  0  0  0  0  0  0  0
   -0.0007    3.8249   -4.5746 N   0  0  0  0  0  0  0  0  0  0  0  0
    0.8014    4.4828   -4.1947 N   0  0  0  0  0  0  0  0  0  0  0  0
    2.9843    0.4874   -5.2086 S   0  0  0  0  0  0  0  0  0  0  0  0
    3.2808    0.0367   -6.9915 C   0  0  0  0  0  0  0  0  0  0  0  0
    2.2499    1.7477   -5.2161 O   0  0  0  0  0  0  0  0  0  0  0  0
    4.2446    0.3220   -4.5108 O   0  0  0  0  0  0  0  0  0  0  0  0
    2.0192   -0.7166   -4.7846 O   0  0  0  0  0  0  0  0  0  0  0  0
    2.1089   -0.0300   -7.6321 F   0  0  0  0  0  0  0  0  0  0  0  0
    4.0393    0.9779   -7.5535 F   0  0  0  0  0  0  0  0  0  0  0  0
    3.8968   -1.1405   -7.0720 F   0  0  0  0  0  0  0  0  0  0  0  0
   -3.7120   -1.5602   -5.9263 H   0  0  0  0  0  0  0  0  0  0  0  0
  1  7  1  0  0  0  0
  1  2  2  0  0  0  0
  3  2  1  0  0  0  0
  4  9  1  0  0  0  0
  4  3  2  0  0  0  0
  5  6  2  0  0  0  0
  5  4  1  0  0  0  0
  6  1  1  0  0  0  0
  8 17  1  0  0  0  0
 10  5  1  0  0  0  0
 11 12  3  0  0  0  0
 13 17  1  0  0  0  0
 13 16  2  0  0  0  0
 14 13  1  0  0  0  0
 15 13  2  0  0  0  0
 18 14  1  0  0  0  0
 19 14  1  0  0  0  0
 20 14  1  0  0  0  0
 21  6  1  0  0  0  0
M  RAD  2   2   2   3   2
M  END
