Coordinates from ORCA-job Ph-N2-OTf-B3LYPG-6-31G_dp-MTMO-d009-169-n800
 OpenBabel09051908113D

 21 20  0  0  0  0  0  0  0  0999 V2000
   -1.8170   -2.1462   -4.9942 C   0  0  0  0  0  0  0  0  0  0  0  0
   -0.5162   -1.6632   -4.8462 C   0  0  0  0  0  0  0  0  0  0  0  0
   -0.3232   -0.2862   -4.7842 C   0  0  0  0  0  0  0  0  0  0  0  0
   -1.3817    0.6146   -4.8543 C   0  0  0  0  0  0  0  0  0  0  0  0
   -2.6775    0.1155   -4.9919 C   0  0  0  0  0  0  0  0  0  0  0  0
   -2.8955   -1.2620   -5.0652 C   0  0  0  0  0  0  0  0  0  0  0  0
   -1.9852   -3.2175   -5.0495 H   0  0  0  0  0  0  0  0  0  0  0  0
    0.3323   -2.3343   -4.7832 H   0  0  0  0  0  0  0  0  0  0  0  0
   -1.1847    1.6794   -4.7958 H   0  0  0  0  0  0  0  0  0  0  0  0
   -3.5144    0.8050   -5.0431 H   0  0  0  0  0  0  0  0  0  0  0  0
    3.0548    5.1110   -7.6138 N   0  0  0  0  0  0  0  0  0  0  0  0
    3.5746    6.0293   -7.9423 N   0  0  0  0  0  0  0  0  0  0  0  0
    2.1327    0.1689   -5.7052 S   0  0  0  0  0  0  0  0  0  0  0  0
    1.8667    1.8378   -6.5080 C   0  0  0  0  0  0  0  0  0  0  0  0
    0.9664    0.2406   -4.5475 O   0  0  0  0  0  0  0  0  0  0  0  0
    3.3952    0.2309   -4.9960 O   0  0  0  0  0  0  0  0  0  0  0  0
    1.8203   -0.8465   -6.6969 O   0  0  0  0  0  0  0  0  0  0  0  0
    0.6344    1.8958   -7.0173 F   0  0  0  0  0  0  0  0  0  0  0  0
    2.0222    2.8008   -5.6047 F   0  0  0  0  0  0  0  0  0  0  0  0
    2.7622    1.9796   -7.4821 F   0  0  0  0  0  0  0  0  0  0  0  0
   -3.9049   -1.6462   -5.1762 H   0  0  0  0  0  0  0  0  0  0  0  0
  1  2  1  0  0  0  0
  2  3  2  0  0  0  0
  2  8  1  0  0  0  0
  3 15  1  0  0  0  0
  4  9  1  0  0  0  0
  4  3  1  0  0  0  0
  5  4  2  0  0  0  0
  6  1  2  0  0  0  0
  6  5  1  0  0  0  0
  7  1  1  0  0  0  0
 10  5  1  0  0  0  0
 12 11  3  0  0  0  0
 13 16  2  0  0  0  0
 13 15  1  0  0  0  0
 14 13  1  0  0  0  0
 14 19  1  0  0  0  0
 17 13  2  0  0  0  0
 18 14  1  0  0  0  0
 20 14  1  0  0  0  0
 21  6  1  0  0  0  0
M  END
