Coordinates from ORCA-job Ph-N2-OTf-B3LYPG-6-31G_dp-MTMO-d009-169-n800
 OpenBabel09051908113D

 21 20  0  0  0  0  0  0  0  0999 V2000
   -1.9142   -2.6728   -4.5457 C   0  0  0  0  0  0  0  0  0  0  0  0
   -0.6890   -2.0074   -4.4841 C   0  0  0  0  0  0  0  0  0  0  0  0
   -0.6596   -0.6412   -4.7443 C   0  0  0  0  0  0  0  0  0  0  0  0
   -1.8067    0.0787   -5.0626 C   0  0  0  0  0  0  0  0  0  0  0  0
   -3.0237   -0.6008   -5.1243 C   0  0  0  0  0  0  0  0  0  0  0  0
   -3.0793   -1.9724   -4.8662 C   0  0  0  0  0  0  0  0  0  0  0  0
   -1.9558   -3.7380   -4.3408 H   0  0  0  0  0  0  0  0  0  0  0  0
    0.2294   -2.5257   -4.2309 H   0  0  0  0  0  0  0  0  0  0  0  0
   -1.7403    1.1427   -5.2573 H   0  0  0  0  0  0  0  0  0  0  0  0
   -3.9285   -0.0551   -5.3732 H   0  0  0  0  0  0  0  0  0  0  0  0
    6.3007    7.2128   -9.4797 N   0  0  0  0  0  0  0  0  0  0  0  0
    7.1794    7.7779   -9.8405 N   0  0  0  0  0  0  0  0  0  0  0  0
    1.4961    0.3697   -5.9097 S   0  0  0  0  0  0  0  0  0  0  0  0
    1.4466    2.2317   -5.7665 C   0  0  0  0  0  0  0  0  0  0  0  0
    0.5718    0.0350   -4.5883 O   0  0  0  0  0  0  0  0  0  0  0  0
    2.8551   -0.0412   -5.6105 O   0  0  0  0  0  0  0  0  0  0  0  0
    0.8028   -0.0043   -7.1311 O   0  0  0  0  0  0  0  0  0  0  0  0
    0.1902    2.6623   -5.9131 F   0  0  0  0  0  0  0  0  0  0  0  0
    1.9116    2.6077   -4.5801 F   0  0  0  0  0  0  0  0  0  0  0  0
    2.2048    2.7419   -6.7344 F   0  0  0  0  0  0  0  0  0  0  0  0
   -4.0300   -2.4947   -4.9142 H   0  0  0  0  0  0  0  0  0  0  0  0
  1  2  1  0  0  0  0
  1  7  1  0  0  0  0
  2  8  1  0  0  0  0
  3 15  1  0  0  0  0
  3  2  2  0  0  0  0
  4  3  1  0  0  0  0
  5  4  2  0  0  0  0
  5  6  1  0  0  0  0
  6  1  2  0  0  0  0
  9  4  1  0  0  0  0
 10  5  1  0  0  0  0
 12 11  3  0  0  0  0
 13 14  1  0  0  0  0
 13 16  2  0  0  0  0
 13 15  1  0  0  0  0
 14 19  1  0  0  0  0
 17 13  2  0  0  0  0
 18 14  1  0  0  0  0
 20 14  1  0  0  0  0
 21  6  1  0  0  0  0
M  END
