Coordinates from ORCA-job Ph-N2-OTf-B3LYPG-6-31G_dp-MTMO-d009-169-n800
 OpenBabel09051908113D

 21 20  0  0  0  0  0  0  0  0999 V2000
   -1.7970   -2.5003   -4.5893 C   0  0  0  0  0  0  0  0  0  0  0  0
   -0.5651   -1.8466   -4.5367 C   0  0  0  0  0  0  0  0  0  0  0  0
   -0.5195   -0.4876   -4.8301 C   0  0  0  0  0  0  0  0  0  0  0  0
   -1.6569    0.2364   -5.1728 C   0  0  0  0  0  0  0  0  0  0  0  0
   -2.8808   -0.4316   -5.2252 C   0  0  0  0  0  0  0  0  0  0  0  0
   -2.9526   -1.7957   -4.9338 C   0  0  0  0  0  0  0  0  0  0  0  0
   -1.8512   -3.5596   -4.3586 H   0  0  0  0  0  0  0  0  0  0  0  0
    0.3463   -2.3682   -4.2654 H   0  0  0  0  0  0  0  0  0  0  0  0
   -1.5781    1.2944   -5.3930 H   0  0  0  0  0  0  0  0  0  0  0  0
   -3.7782    0.1174   -5.4929 H   0  0  0  0  0  0  0  0  0  0  0  0
    4.9306    5.8553   -8.5438 N   0  0  0  0  0  0  0  0  0  0  0  0
    5.7423    6.4374   -9.0171 N   0  0  0  0  0  0  0  0  0  0  0  0
    1.6518    0.4744   -6.0078 S   0  0  0  0  0  0  0  0  0  0  0  0
    1.6286    2.3394   -5.9000 C   0  0  0  0  0  0  0  0  0  0  0  0
    0.7183    0.1788   -4.6835 O   0  0  0  0  0  0  0  0  0  0  0  0
    3.0038    0.0495   -5.6962 O   0  0  0  0  0  0  0  0  0  0  0  0
    0.9571    0.0870   -7.2242 O   0  0  0  0  0  0  0  0  0  0  0  0
    0.3786    2.7845   -6.0579 F   0  0  0  0  0  0  0  0  0  0  0  0
    2.0959    2.7306   -4.7194 F   0  0  0  0  0  0  0  0  0  0  0  0
    2.3963    2.8203   -6.8750 F   0  0  0  0  0  0  0  0  0  0  0  0
   -3.9086   -2.3089   -4.9748 H   0  0  0  0  0  0  0  0  0  0  0  0
  1  2  1  0  0  0  0
  1  7  1  0  0  0  0
  2  8  1  0  0  0  0
  3 15  1  0  0  0  0
  3  2  2  0  0  0  0
  4  3  1  0  0  0  0
  5  4  2  0  0  0  0
  5  6  1  0  0  0  0
  6  1  2  0  0  0  0
  9  4  1  0  0  0  0
 10  5  1  0  0  0  0
 12 11  3  0  0  0  0
 13 14  1  0  0  0  0
 13 16  2  0  0  0  0
 13 15  1  0  0  0  0
 14 19  1  0  0  0  0
 17 13  2  0  0  0  0
 18 14  1  0  0  0  0
 20 14  1  0  0  0  0
 21  6  1  0  0  0  0
M  END
