Coordinates from ORCA-job Ph-N2-OTf-B3LYPG-6-31G_dp-MTMO-d009-169-n800
 OpenBabel09051908113D

 21 20  0  0  0  0  0  0  0  0999 V2000
   -2.2055   -3.0124   -4.3921 C   0  0  0  0  0  0  0  0  0  0  0  0
   -0.9835   -2.3413   -4.3296 C   0  0  0  0  0  0  0  0  0  0  0  0
   -0.9650   -0.9694   -4.5589 C   0  0  0  0  0  0  0  0  0  0  0  0
   -2.1199   -0.2494   -4.8471 C   0  0  0  0  0  0  0  0  0  0  0  0
   -3.3337   -0.9344   -4.9097 C   0  0  0  0  0  0  0  0  0  0  0  0
   -3.3784   -2.3118   -4.6825 C   0  0  0  0  0  0  0  0  0  0  0  0
   -2.2387   -4.0824   -4.2112 H   0  0  0  0  0  0  0  0  0  0  0  0
   -0.0593   -2.8599   -4.0991 H   0  0  0  0  0  0  0  0  0  0  0  0
   -2.0615    0.8191   -5.0183 H   0  0  0  0  0  0  0  0  0  0  0  0
   -4.2445   -0.3885   -5.1352 H   0  0  0  0  0  0  0  0  0  0  0  0
    9.2250   10.3004  -11.3436 N   0  0  0  0  0  0  0  0  0  0  0  0
   10.1865   10.8004  -11.5605 N   0  0  0  0  0  0  0  0  0  0  0  0
    1.1773    0.0681   -5.7252 S   0  0  0  0  0  0  0  0  0  0  0  0
    1.1120    1.9281   -5.5631 C   0  0  0  0  0  0  0  0  0  0  0  0
    0.2637   -0.2884   -4.4021 O   0  0  0  0  0  0  0  0  0  0  0  0
    2.5416   -0.3335   -5.4379 O   0  0  0  0  0  0  0  0  0  0  0  0
    0.4804   -0.2996   -6.9464 O   0  0  0  0  0  0  0  0  0  0  0  0
   -0.1489    2.3489   -5.6984 F   0  0  0  0  0  0  0  0  0  0  0  0
    1.5804    2.2966   -4.3756 F   0  0  0  0  0  0  0  0  0  0  0  0
    1.8602    2.4550   -6.5300 F   0  0  0  0  0  0  0  0  0  0  0  0
   -4.3266   -2.8386   -4.7311 H   0  0  0  0  0  0  0  0  0  0  0  0
  1  2  1  0  0  0  0
  1  7  1  0  0  0  0
  2  8  1  0  0  0  0
  3 15  1  0  0  0  0
  3  2  2  0  0  0  0
  4  3  1  0  0  0  0
  5  4  2  0  0  0  0
  5  6  1  0  0  0  0
  6  1  2  0  0  0  0
  9  4  1  0  0  0  0
 10  5  1  0  0  0  0
 12 11  3  0  0  0  0
 13 14  1  0  0  0  0
 13 16  2  0  0  0  0
 13 15  1  0  0  0  0
 14 19  1  0  0  0  0
 17 13  2  0  0  0  0
 18 14  1  0  0  0  0
 20 14  1  0  0  0  0
 21  6  1  0  0  0  0
M  END
