Coordinates from ORCA-job Ph-N2-OTf-B3LYPG-6-31G_dp-MTMO-d009-169-n800
 OpenBabel09051908113D

 21 20  0  0  0  0  0  0  0  0999 V2000
   -1.7983   -2.1909   -4.9073 C   0  0  0  0  0  0  0  0  0  0  0  0
   -0.5087   -1.6703   -4.7923 C   0  0  0  0  0  0  0  0  0  0  0  0
   -0.3480   -0.2879   -4.7985 C   0  0  0  0  0  0  0  0  0  0  0  0
   -1.4278    0.5833   -4.9065 C   0  0  0  0  0  0  0  0  0  0  0  0
   -2.7119    0.0475   -5.0115 C   0  0  0  0  0  0  0  0  0  0  0  0
   -2.8977   -1.3366   -5.0149 C   0  0  0  0  0  0  0  0  0  0  0  0
   -1.9414   -3.2673   -4.9078 H   0  0  0  0  0  0  0  0  0  0  0  0
    0.3558   -2.3175   -4.7003 H   0  0  0  0  0  0  0  0  0  0  0  0
   -1.2561    1.6540   -4.9039 H   0  0  0  0  0  0  0  0  0  0  0  0
   -3.5652    0.7137   -5.0921 H   0  0  0  0  0  0  0  0  0  0  0  0
    3.3019    5.1464   -7.5675 N   0  0  0  0  0  0  0  0  0  0  0  0
    3.8594    6.0531   -7.8646 N   0  0  0  0  0  0  0  0  0  0  0  0
    2.0752    0.2090   -5.7770 S   0  0  0  0  0  0  0  0  0  0  0  0
    1.8218    1.9021   -6.5321 C   0  0  0  0  0  0  0  0  0  0  0  0
    0.9322    0.2745   -4.5945 O   0  0  0  0  0  0  0  0  0  0  0  0
    3.3549    0.2339   -5.0966 O   0  0  0  0  0  0  0  0  0  0  0  0
    1.7225   -0.7770   -6.7845 O   0  0  0  0  0  0  0  0  0  0  0  0
    0.5727    2.0028   -6.9931 F   0  0  0  0  0  0  0  0  0  0  0  0
    2.0361    2.8403   -5.6155 F   0  0  0  0  0  0  0  0  0  0  0  0
    2.6827    2.0429   -7.5368 F   0  0  0  0  0  0  0  0  0  0  0  0
   -3.8984   -1.7492   -5.1000 H   0  0  0  0  0  0  0  0  0  0  0  0
  1  2  2  0  0  0  0
  2  8  1  0  0  0  0
  3  2  1  0  0  0  0
  3 15  1  0  0  0  0
  4  9  1  0  0  0  0
  4  3  2  0  0  0  0
  5  4  1  0  0  0  0
  6  5  2  0  0  0  0
  6  1  1  0  0  0  0
  7  1  1  0  0  0  0
 10  5  1  0  0  0  0
 12 11  3  0  0  0  0
 13 16  2  0  0  0  0
 13 15  1  0  0  0  0
 14 13  1  0  0  0  0
 14 19  1  0  0  0  0
 17 13  2  0  0  0  0
 18 14  1  0  0  0  0
 20 14  1  0  0  0  0
 21  6  1  0  0  0  0
M  END
