Coordinates from ORCA-job Ph-N2-OTf-B3LYPG-6-31G_dp-MTMO-d009-169-n800
 OpenBabel09051908113D

 21 20  0  0  0  0  0  0  0  0999 V2000
   -1.9826   -2.7705   -4.5072 C   0  0  0  0  0  0  0  0  0  0  0  0
   -0.7609   -2.0984   -4.4478 C   0  0  0  0  0  0  0  0  0  0  0  0
   -0.7415   -0.7296   -4.6947 C   0  0  0  0  0  0  0  0  0  0  0  0
   -1.8951   -0.0135   -4.9977 C   0  0  0  0  0  0  0  0  0  0  0  0
   -3.1085   -0.6996   -5.0571 C   0  0  0  0  0  0  0  0  0  0  0  0
   -3.1541   -2.0739   -4.8122 C   0  0  0  0  0  0  0  0  0  0  0  0
   -2.0164   -3.8379   -4.3124 H   0  0  0  0  0  0  0  0  0  0  0  0
    0.1623   -2.6138   -4.2063 H   0  0  0  0  0  0  0  0  0  0  0  0
   -1.8362    1.0527   -5.1824 H   0  0  0  0  0  0  0  0  0  0  0  0
   -4.0183   -0.1568   -5.2941 H   0  0  0  0  0  0  0  0  0  0  0  0
    7.0967    8.0427  -10.0246 N   0  0  0  0  0  0  0  0  0  0  0  0
    8.0405    8.5668  -10.2617 N   0  0  0  0  0  0  0  0  0  0  0  0
    1.4023    0.3004   -5.8653 S   0  0  0  0  0  0  0  0  0  0  0  0
    1.3399    2.1614   -5.7133 C   0  0  0  0  0  0  0  0  0  0  0  0
    0.4867   -0.0470   -4.5411 O   0  0  0  0  0  0  0  0  0  0  0  0
    2.7656   -0.1020   -5.5745 O   0  0  0  0  0  0  0  0  0  0  0  0
    0.7059   -0.0729   -7.0851 O   0  0  0  0  0  0  0  0  0  0  0  0
    0.0798    2.5834   -5.8522 F   0  0  0  0  0  0  0  0  0  0  0  0
    1.8076    2.5354   -4.5273 F   0  0  0  0  0  0  0  0  0  0  0  0
    2.0900    2.6816   -6.6822 F   0  0  0  0  0  0  0  0  0  0  0  0
   -4.1020   -2.6014   -4.8584 H   0  0  0  0  0  0  0  0  0  0  0  0
  1  2  1  0  0  0  0
  1  7  1  0  0  0  0
  2  8  1  0  0  0  0
  3 15  1  0  0  0  0
  3  2  2  0  0  0  0
  4  3  1  0  0  0  0
  5  4  2  0  0  0  0
  5  6  1  0  0  0  0
  6  1  2  0  0  0  0
  9  4  1  0  0  0  0
 10  5  1  0  0  0  0
 12 11  3  0  0  0  0
 13 14  1  0  0  0  0
 13 16  2  0  0  0  0
 13 15  1  0  0  0  0
 14 19  1  0  0  0  0
 17 13  2  0  0  0  0
 18 14  1  0  0  0  0
 20 14  1  0  0  0  0
 21  6  1  0  0  0  0
M  END
