Coordinates from ORCA-job Ph-N2-OTf-B3LYPG-6-31G_dp-MTMO-d009-169-n800
 OpenBabel09051908113D

 21 20  0  0  0  0  0  0  0  0999 V2000
   -1.8658   -2.6066   -4.5705 C   0  0  0  0  0  0  0  0  0  0  0  0
   -0.6386   -1.9449   -4.5091 C   0  0  0  0  0  0  0  0  0  0  0  0
   -0.6037   -0.5806   -4.7782 C   0  0  0  0  0  0  0  0  0  0  0  0
   -1.7472    0.1410   -5.1050 C   0  0  0  0  0  0  0  0  0  0  0  0
   -2.9663   -0.5348   -5.1664 C   0  0  0  0  0  0  0  0  0  0  0  0
   -3.0274   -1.9044   -4.8995 C   0  0  0  0  0  0  0  0  0  0  0  0
   -1.9117   -3.6703   -4.3587 H   0  0  0  0  0  0  0  0  0  0  0  0
    0.2772   -2.4646   -4.2495 H   0  0  0  0  0  0  0  0  0  0  0  0
   -1.6767    1.2035   -5.3064 H   0  0  0  0  0  0  0  0  0  0  0  0
   -3.8684    0.0123   -5.4220 H   0  0  0  0  0  0  0  0  0  0  0  0
    5.7504    6.6727   -9.1124 N   0  0  0  0  0  0  0  0  0  0  0  0
    6.6128    7.2175   -9.5379 N   0  0  0  0  0  0  0  0  0  0  0  0
    1.5583    0.4173   -5.9432 S   0  0  0  0  0  0  0  0  0  0  0  0
    1.5164    2.2801   -5.8079 C   0  0  0  0  0  0  0  0  0  0  0  0
    0.6295    0.0923   -4.6225 O   0  0  0  0  0  0  0  0  0  0  0  0
    2.9148    0.0018   -5.6393 O   0  0  0  0  0  0  0  0  0  0  0  0
    0.8661    0.0411   -7.1645 O   0  0  0  0  0  0  0  0  0  0  0  0
    0.2621    2.7153   -5.9585 F   0  0  0  0  0  0  0  0  0  0  0  0
    1.9809    2.6590   -4.6222 F   0  0  0  0  0  0  0  0  0  0  0  0
    2.2786    2.7830   -6.7765 F   0  0  0  0  0  0  0  0  0  0  0  0
   -3.9797   -2.4238   -4.9473 H   0  0  0  0  0  0  0  0  0  0  0  0
  1  2  1  0  0  0  0
  1  7  1  0  0  0  0
  2  8  1  0  0  0  0
  3 15  1  0  0  0  0
  3  2  2  0  0  0  0
  4  3  1  0  0  0  0
  5  4  2  0  0  0  0
  5  6  1  0  0  0  0
  6  1  2  0  0  0  0
  9  4  1  0  0  0  0
 10  5  1  0  0  0  0
 12 11  3  0  0  0  0
 13 14  1  0  0  0  0
 13 16  2  0  0  0  0
 13 15  1  0  0  0  0
 14 19  1  0  0  0  0
 17 13  2  0  0  0  0
 18 14  1  0  0  0  0
 20 14  1  0  0  0  0
 21  6  1  0  0  0  0
M  END
