Coordinates from ORCA-job Ph-N2-OTf-B3LYPG-6-31G_dp-MTMO-d009-169-n800
 OpenBabel09051908113D

 21 20  0  0  0  0  0  0  0  0999 V2000
   -1.8523   -1.5651   -4.7955 C   0  0  0  0  0  0  0  0  0  0  0  0
   -0.5695   -1.0720   -4.5518 C   0  0  0  0  0  0  0  0  0  0  0  0
   -0.2275    0.1711   -5.0761 C   0  0  0  0  0  0  0  0  0  0  0  0
   -1.1226    0.9370   -5.8174 C   0  0  0  0  0  0  0  0  0  0  0  0
   -2.4043    0.4338   -6.0427 C   0  0  0  0  0  0  0  0  0  0  0  0
   -2.7686   -0.8162   -5.5370 C   0  0  0  0  0  0  0  0  0  0  0  0
   -2.1341   -2.5355   -4.3996 H   0  0  0  0  0  0  0  0  0  0  0  0
    0.1531   -1.6372   -3.9753 H   0  0  0  0  0  0  0  0  0  0  0  0
   -0.8147    1.9054   -6.1938 H   0  0  0  0  0  0  0  0  0  0  0  0
   -3.1166    1.0207   -6.6144 H   0  0  0  0  0  0  0  0  0  0  0  0
    0.6261    4.2927   -5.4335 N   0  0  0  0  0  0  0  0  0  0  0  0
    1.0613    5.0282   -4.7331 N   0  0  0  0  0  0  0  0  0  0  0  0
    2.4159    0.1185   -5.3974 S   0  0  0  0  0  0  0  0  0  0  0  0
    2.5118    1.0741   -7.0016 C   0  0  0  0  0  0  0  0  0  0  0  0
    1.0295    0.7485   -4.7829 O   0  0  0  0  0  0  0  0  0  0  0  0
    3.4777    0.6077   -4.5409 O   0  0  0  0  0  0  0  0  0  0  0  0
    2.2464   -1.2830   -5.7426 O   0  0  0  0  0  0  0  0  0  0  0  0
    1.4350    0.8118   -7.7440 F   0  0  0  0  0  0  0  0  0  0  0  0
    2.5718    2.3794   -6.7478 F   0  0  0  0  0  0  0  0  0  0  0  0
    3.6086    0.6913   -7.6513 F   0  0  0  0  0  0  0  0  0  0  0  0
   -3.7657   -1.2047   -5.7188 H   0  0  0  0  0  0  0  0  0  0  0  0
  1  2  1  0  0  0  0
  1  7  1  0  0  0  0
  2  8  1  0  0  0  0
  3 15  1  0  0  0  0
  3  2  2  0  0  0  0
  4  3  1  0  0  0  0
  5  4  2  0  0  0  0
  5  6  1  0  0  0  0
  6  1  2  0  0  0  0
  9  4  1  0  0  0  0
 10  5  1  0  0  0  0
 11 12  3  0  0  0  0
 13 15  1  0  0  0  0
 13 16  2  0  0  0  0
 14 19  1  0  0  0  0
 14 13  1  0  0  0  0
 17 13  2  0  0  0  0
 18 14  1  0  0  0  0
 20 14  1  0  0  0  0
 21  6  1  0  0  0  0
M  END
