Coordinates from ORCA-job Ph-N2-OTf-B3LYPG-6-31G_dp-MTMO-d009-169-n800
 OpenBabel09051908113D

 21 20  0  0  0  0  0  0  0  0999 V2000
   -1.7879   -2.4865   -4.5878 C   0  0  0  0  0  0  0  0  0  0  0  0
   -0.5556   -1.8332   -4.5381 C   0  0  0  0  0  0  0  0  0  0  0  0
   -0.5094   -0.4756   -4.8375 C   0  0  0  0  0  0  0  0  0  0  0  0
   -1.6464    0.2475   -5.1833 C   0  0  0  0  0  0  0  0  0  0  0  0
   -2.8707   -0.4200   -5.2325 C   0  0  0  0  0  0  0  0  0  0  0  0
   -2.9432   -1.7827   -4.9352 C   0  0  0  0  0  0  0  0  0  0  0  0
   -1.8426   -3.5448   -4.3524 H   0  0  0  0  0  0  0  0  0  0  0  0
    0.3555   -2.3541   -4.2647 H   0  0  0  0  0  0  0  0  0  0  0  0
   -1.5670    1.3046   -5.4081 H   0  0  0  0  0  0  0  0  0  0  0  0
   -3.7678    0.1283   -5.5025 H   0  0  0  0  0  0  0  0  0  0  0  0
    4.8310    5.7505   -8.4678 N   0  0  0  0  0  0  0  0  0  0  0  0
    5.6332    6.3447   -8.9421 N   0  0  0  0  0  0  0  0  0  0  0  0
    1.6617    0.4815   -6.0200 S   0  0  0  0  0  0  0  0  0  0  0  0
    1.6440    2.3467   -5.9148 C   0  0  0  0  0  0  0  0  0  0  0  0
    0.7287    0.1910   -4.6941 O   0  0  0  0  0  0  0  0  0  0  0  0
    3.0128    0.0529   -5.7098 O   0  0  0  0  0  0  0  0  0  0  0  0
    0.9644    0.0942   -7.2349 O   0  0  0  0  0  0  0  0  0  0  0  0
    0.3951    2.7949   -6.0727 F   0  0  0  0  0  0  0  0  0  0  0  0
    2.1127    2.7382   -4.7348 F   0  0  0  0  0  0  0  0  0  0  0  0
    2.4126    2.8244   -6.8906 F   0  0  0  0  0  0  0  0  0  0  0  0
   -3.8994   -2.2956   -4.9738 H   0  0  0  0  0  0  0  0  0  0  0  0
  1  2  1  0  0  0  0
  1  7  1  0  0  0  0
  2  8  1  0  0  0  0
  3 15  1  0  0  0  0
  3  2  2  0  0  0  0
  4  3  1  0  0  0  0
  5  4  2  0  0  0  0
  5  6  1  0  0  0  0
  6  1  2  0  0  0  0
  9  4  1  0  0  0  0
 10  5  1  0  0  0  0
 12 11  3  0  0  0  0
 13 14  1  0  0  0  0
 13 16  2  0  0  0  0
 13 15  1  0  0  0  0
 14 19  1  0  0  0  0
 17 13  2  0  0  0  0
 18 14  1  0  0  0  0
 20 14  1  0  0  0  0
 21  6  1  0  0  0  0
M  END
