Coordinates from ORCA-job Ph-N2-OTf-B3LYPG-6-31G_dp-MTMO-d009-169-n800
 OpenBabel09051908113D

 21 19  0  0  0  0  0  0  0  0999 V2000
   -1.4709   -1.0248   -5.5482 C   0  0  0  0  0  0  0  0  0  0  0  0
   -0.6778    0.0916   -5.1791 C   0  0  0  0  0  0  0  0  0  0  0  0
   -1.3197    1.1823   -5.1709 C   0  0  0  0  0  0  0  0  0  0  0  0
   -2.5721    1.6569   -5.4130 C   0  0  0  0  0  0  0  0  0  0  0  0
   -3.3565    0.5366   -5.7822 C   0  0  0  0  0  0  0  0  0  0  0  0
   -2.8178   -0.7602   -5.8455 C   0  0  0  0  0  0  0  0  0  0  0  0
   -1.0682   -2.0317   -5.6031 H   0  0  0  0  0  0  0  0  0  0  0  0
    1.0473   -0.1572   -4.8235 H   0  0  0  0  0  0  0  0  0  0  0  0
   -2.9406    2.6713   -5.3495 H   0  0  0  0  0  0  0  0  0  0  0  0
   -4.4031    0.7039   -6.0216 H   0  0  0  0  0  0  0  0  0  0  0  0
   -0.1102    3.5107   -4.3735 N   0  0  0  0  0  0  0  0  0  0  0  0
    0.7286    4.0981   -3.9587 N   0  0  0  0  0  0  0  0  0  0  0  0
    3.0360    0.5940   -5.3106 S   0  0  0  0  0  0  0  0  0  0  0  0
    3.2288   -0.1868   -6.9905 C   0  0  0  0  0  0  0  0  0  0  0  0
    2.3917    1.8845   -5.5271 O   0  0  0  0  0  0  0  0  0  0  0  0
    4.3093    0.4618   -4.6286 O   0  0  0  0  0  0  0  0  0  0  0  0
    2.0087   -0.4386   -4.6506 O   0  0  0  0  0  0  0  0  0  0  0  0
    2.0288   -0.2833   -7.5738 F   0  0  0  0  0  0  0  0  0  0  0  0
    4.0226    0.5818   -7.7361 F   0  0  0  0  0  0  0  0  0  0  0  0
    3.7624   -1.4013   -6.8764 F   0  0  0  0  0  0  0  0  0  0  0  0
   -3.4658   -1.5827   -6.1350 H   0  0  0  0  0  0  0  0  0  0  0  0
  1  2  2  0  0  0  0
  2  3  1  0  0  0  0
  4  9  1  0  0  0  0
  4  3  2  0  0  0  0
  5  4  1  0  0  0  0
  6  5  2  0  0  0  0
  6  1  1  0  0  0  0
  7  1  1  0  0  0  0
  8 17  1  0  0  0  0
 10  5  1  0  0  0  0
 11 12  3  0  0  0  0
 13 17  1  0  0  0  0
 13 16  2  0  0  0  0
 14 20  1  0  0  0  0
 14 13  1  0  0  0  0
 15 13  2  0  0  0  0
 18 14  1  0  0  0  0
 19 14  1  0  0  0  0
 21  6  1  0  0  0  0
M  RAD  2   2   2   3   2
M  END
