Coordinates from ORCA-job Ph-N2-OTf-B3LYPG-6-31G_dp-MTMO-d009-169-n800
 OpenBabel09051908113D

 21 20  0  0  0  0  0  0  0  0999 V2000
   -1.9131   -1.6778   -4.8760 C   0  0  0  0  0  0  0  0  0  0  0  0
   -0.5916   -1.3113   -4.6177 C   0  0  0  0  0  0  0  0  0  0  0  0
   -0.1788   -0.0278   -4.9630 C   0  0  0  0  0  0  0  0  0  0  0  0
   -1.0396    0.8967   -5.5477 C   0  0  0  0  0  0  0  0  0  0  0  0
   -2.3603    0.5173   -5.7917 C   0  0  0  0  0  0  0  0  0  0  0  0
   -2.7970   -0.7671   -5.4593 C   0  0  0  0  0  0  0  0  0  0  0  0
   -2.2507   -2.6759   -4.6153 H   0  0  0  0  0  0  0  0  0  0  0  0
    0.1075   -2.0014   -4.1596 H   0  0  0  0  0  0  0  0  0  0  0  0
   -0.6749    1.8845   -5.8033 H   0  0  0  0  0  0  0  0  0  0  0  0
   -3.0460    1.2278   -6.2432 H   0  0  0  0  0  0  0  0  0  0  0  0
    0.5194    4.4159   -6.2718 N   0  0  0  0  0  0  0  0  0  0  0  0
    0.5992    5.5025   -6.0872 N   0  0  0  0  0  0  0  0  0  0  0  0
    2.4260   -0.1276   -5.4842 S   0  0  0  0  0  0  0  0  0  0  0  0
    2.6203    1.3195   -6.6514 C   0  0  0  0  0  0  0  0  0  0  0  0
    1.1256    0.4021   -4.6285 O   0  0  0  0  0  0  0  0  0  0  0  0
    3.5503   -0.0896   -4.5700 O   0  0  0  0  0  0  0  0  0  0  0  0
    2.0819   -1.2915   -6.2835 O   0  0  0  0  0  0  0  0  0  0  0  0
    1.5133    1.4581   -7.3833 F   0  0  0  0  0  0  0  0  0  0  0  0
    2.8377    2.4323   -5.9550 F   0  0  0  0  0  0  0  0  0  0  0  0
    3.6569    1.0782   -7.4510 F   0  0  0  0  0  0  0  0  0  0  0  0
   -3.8243   -1.0581   -5.6548 H   0  0  0  0  0  0  0  0  0  0  0  0
  1  2  1  0  0  0  0
  1  7  1  0  0  0  0
  2  8  1  0  0  0  0
  3 15  1  0  0  0  0
  3  2  2  0  0  0  0
  4  3  1  0  0  0  0
  5  4  2  0  0  0  0
  5  6  1  0  0  0  0
  6  1  2  0  0  0  0
  9  4  1  0  0  0  0
 10  5  1  0  0  0  0
 11 12  3  0  0  0  0
 13 15  1  0  0  0  0
 13 16  2  0  0  0  0
 14 19  1  0  0  0  0
 14 13  1  0  0  0  0
 17 13  2  0  0  0  0
 18 14  1  0  0  0  0
 20 14  1  0  0  0  0
 21  6  1  0  0  0  0
M  END
