Coordinates from ORCA-job Ph-N2-OTf-B3LYPG-6-31G_dp-MTMO-d009-169-n800
 OpenBabel09051908113D

 21 20  0  0  0  0  0  0  0  0999 V2000
   -1.8399   -2.5685   -4.5797 C   0  0  0  0  0  0  0  0  0  0  0  0
   -0.6113   -1.9093   -4.5204 C   0  0  0  0  0  0  0  0  0  0  0  0
   -0.5729   -0.5466   -4.7971 C   0  0  0  0  0  0  0  0  0  0  0  0
   -1.7144    0.1758   -5.1296 C   0  0  0  0  0  0  0  0  0  0  0  0
   -2.9349   -0.4976   -5.1888 C   0  0  0  0  0  0  0  0  0  0  0  0
   -2.9995   -1.8655   -4.9142 C   0  0  0  0  0  0  0  0  0  0  0  0
   -1.8885   -3.6309   -4.3619 H   0  0  0  0  0  0  0  0  0  0  0  0
    0.3030   -2.4296   -4.2566 H   0  0  0  0  0  0  0  0  0  0  0  0
   -1.6411    1.2369   -5.3369 H   0  0  0  0  0  0  0  0  0  0  0  0
   -3.8354    0.0501   -5.4487 H   0  0  0  0  0  0  0  0  0  0  0  0
    5.4469    6.3734   -8.9090 N   0  0  0  0  0  0  0  0  0  0  0  0
    6.2971    6.9225   -9.3532 N   0  0  0  0  0  0  0  0  0  0  0  0
    1.5925    0.4403   -5.9651 S   0  0  0  0  0  0  0  0  0  0  0  0
    1.5570    2.3037   -5.8374 C   0  0  0  0  0  0  0  0  0  0  0  0
    0.6616    0.1244   -4.6437 O   0  0  0  0  0  0  0  0  0  0  0  0
    2.9474    0.0210   -5.6589 O   0  0  0  0  0  0  0  0  0  0  0  0
    0.8997    0.0615   -7.1853 O   0  0  0  0  0  0  0  0  0  0  0  0
    0.3041    2.7424   -5.9901 F   0  0  0  0  0  0  0  0  0  0  0  0
    2.0223    2.6858   -4.6530 F   0  0  0  0  0  0  0  0  0  0  0  0
    2.3210    2.8002   -6.8076 F   0  0  0  0  0  0  0  0  0  0  0  0
   -3.9529   -2.3831   -4.9603 H   0  0  0  0  0  0  0  0  0  0  0  0
  1  2  1  0  0  0  0
  1  7  1  0  0  0  0
  2  8  1  0  0  0  0
  3 15  1  0  0  0  0
  3  2  2  0  0  0  0
  4  3  1  0  0  0  0
  5  4  2  0  0  0  0
  5  6  1  0  0  0  0
  6  1  2  0  0  0  0
  9  4  1  0  0  0  0
 10  5  1  0  0  0  0
 12 11  3  0  0  0  0
 13 14  1  0  0  0  0
 13 16  2  0  0  0  0
 13 15  1  0  0  0  0
 14 19  1  0  0  0  0
 17 13  2  0  0  0  0
 18 14  1  0  0  0  0
 20 14  1  0  0  0  0
 21  6  1  0  0  0  0
M  END
