Coordinates from ORCA-job Ph-N2-OTf-B3LYPG-6-31G_dp-MTMO-d009-169-n800
 OpenBabel09051908113D

 21 20  0  0  0  0  0  0  0  0999 V2000
   -1.8963   -1.7333   -5.0546 C   0  0  0  0  0  0  0  0  0  0  0  0
   -0.5704   -1.4114   -4.7614 C   0  0  0  0  0  0  0  0  0  0  0  0
   -0.1658   -0.0859   -4.8918 C   0  0  0  0  0  0  0  0  0  0  0  0
   -1.0392    0.9212   -5.2916 C   0  0  0  0  0  0  0  0  0  0  0  0
   -2.3642    0.5841   -5.5712 C   0  0  0  0  0  0  0  0  0  0  0  0
   -2.7926   -0.7405   -5.4566 C   0  0  0  0  0  0  0  0  0  0  0  0
   -2.2278   -2.7629   -4.9619 H   0  0  0  0  0  0  0  0  0  0  0  0
    0.1378   -2.1669   -4.4428 H   0  0  0  0  0  0  0  0  0  0  0  0
   -0.6822    1.9415   -5.3762 H   0  0  0  0  0  0  0  0  0  0  0  0
   -3.0593    1.3586   -5.8802 H   0  0  0  0  0  0  0  0  0  0  0  0
    0.5040    4.4635   -6.5404 N   0  0  0  0  0  0  0  0  0  0  0  0
    0.7438    5.4855   -6.8855 N   0  0  0  0  0  0  0  0  0  0  0  0
    2.4402   -0.1420   -5.4284 S   0  0  0  0  0  0  0  0  0  0  0  0
    2.5547    1.3583   -6.5384 C   0  0  0  0  0  0  0  0  0  0  0  0
    1.1435    0.2953   -4.5192 O   0  0  0  0  0  0  0  0  0  0  0  0
    3.5797   -0.1006   -4.5339 O   0  0  0  0  0  0  0  0  0  0  0  0
    2.1252   -1.2820   -6.2730 O   0  0  0  0  0  0  0  0  0  0  0  0
    1.4354    1.4716   -7.2559 F   0  0  0  0  0  0  0  0  0  0  0  0
    2.7238    2.4524   -5.8004 F   0  0  0  0  0  0  0  0  0  0  0  0
    3.5945    1.1991   -7.3542 F   0  0  0  0  0  0  0  0  0  0  0  0
   -3.8231   -0.9988   -5.6798 H   0  0  0  0  0  0  0  0  0  0  0  0
  1  7  1  0  0  0  0
  1  2  2  0  0  0  0
  2  8  1  0  0  0  0
  3  2  1  0  0  0  0
  3 15  1  0  0  0  0
  4  3  2  0  0  0  0
  5  6  2  0  0  0  0
  5  4  1  0  0  0  0
  6  1  1  0  0  0  0
  9  4  1  0  0  0  0
 10  5  1  0  0  0  0
 12 11  3  0  0  0  0
 13 16  2  0  0  0  0
 13 15  1  0  0  0  0
 14 19  1  0  0  0  0
 14 13  1  0  0  0  0
 17 13  2  0  0  0  0
 18 14  1  0  0  0  0
 20 14  1  0  0  0  0
 21  6  1  0  0  0  0
M  END
