Coordinates from ORCA-job Ph-N2-OTf-B3LYPG-6-31G_dp-MTMO-d009-169-n800
 OpenBabel09051908113D

 21 20  0  0  0  0  0  0  0  0999 V2000
   -1.7677   -2.4496   -4.5726 C   0  0  0  0  0  0  0  0  0  0  0  0
   -0.5341   -1.7978   -4.5350 C   0  0  0  0  0  0  0  0  0  0  0  0
   -0.4860   -0.4454   -4.8568 C   0  0  0  0  0  0  0  0  0  0  0  0
   -1.6220    0.2740   -5.2137 C   0  0  0  0  0  0  0  0  0  0  0  0
   -2.8475   -0.3920   -5.2506 C   0  0  0  0  0  0  0  0  0  0  0  0
   -2.9220   -1.7496   -4.9306 C   0  0  0  0  0  0  0  0  0  0  0  0
   -1.8240   -3.5037   -4.3198 H   0  0  0  0  0  0  0  0  0  0  0  0
    0.3765   -2.3156   -4.2540 H   0  0  0  0  0  0  0  0  0  0  0  0
   -1.5405    1.3270   -5.4562 H   0  0  0  0  0  0  0  0  0  0  0  0
   -3.7439    0.1531   -5.5290 H   0  0  0  0  0  0  0  0  0  0  0  0
    4.5894    5.5053   -8.2600 N   0  0  0  0  0  0  0  0  0  0  0  0
    5.3568    6.1443   -8.7337 N   0  0  0  0  0  0  0  0  0  0  0  0
    1.6841    0.4919   -6.0585 S   0  0  0  0  0  0  0  0  0  0  0  0
    1.6892    2.3583   -5.9649 C   0  0  0  0  0  0  0  0  0  0  0  0
    0.7534    0.2219   -4.7263 O   0  0  0  0  0  0  0  0  0  0  0  0
    3.0316    0.0489   -5.7525 O   0  0  0  0  0  0  0  0  0  0  0  0
    0.9763    0.1053   -7.2676 O   0  0  0  0  0  0  0  0  0  0  0  0
    0.4453    2.8195   -6.1247 F   0  0  0  0  0  0  0  0  0  0  0  0
    2.1631    2.7511   -4.7874 F   0  0  0  0  0  0  0  0  0  0  0  0
    2.4630    2.8215   -6.9438 F   0  0  0  0  0  0  0  0  0  0  0  0
   -3.8792   -2.2614   -4.9597 H   0  0  0  0  0  0  0  0  0  0  0  0
  1  2  1  0  0  0  0
  1  7  1  0  0  0  0
  2  8  1  0  0  0  0
  3 15  1  0  0  0  0
  3  2  2  0  0  0  0
  4  3  1  0  0  0  0
  5  4  2  0  0  0  0
  5  6  1  0  0  0  0
  6  1  2  0  0  0  0
  9  4  1  0  0  0  0
 10  5  1  0  0  0  0
 12 11  3  0  0  0  0
 13 14  1  0  0  0  0
 13 16  2  0  0  0  0
 13 15  1  0  0  0  0
 14 19  1  0  0  0  0
 17 13  2  0  0  0  0
 18 14  1  0  0  0  0
 20 14  1  0  0  0  0
 21  6  1  0  0  0  0
M  END
