Coordinates from ORCA-job Ph-N2-OTf-B3LYPG-6-31G_dp-MTMO-d009-169-n800
 OpenBabel09051908113D

 21 20  0  0  0  0  0  0  0  0999 V2000
   -1.8677   -2.0280   -5.1684 C   0  0  0  0  0  0  0  0  0  0  0  0
   -0.5443   -1.6457   -4.9445 C   0  0  0  0  0  0  0  0  0  0  0  0
   -0.2655   -0.2930   -4.7727 C   0  0  0  0  0  0  0  0  0  0  0  0
   -1.2608    0.6792   -4.8054 C   0  0  0  0  0  0  0  0  0  0  0  0
   -2.5804    0.2796   -5.0193 C   0  0  0  0  0  0  0  0  0  0  0  0
   -2.8840   -1.0710   -5.2045 C   0  0  0  0  0  0  0  0  0  0  0  0
   -2.1023   -3.0784   -5.3114 H   0  0  0  0  0  0  0  0  0  0  0  0
    0.2563   -2.3748   -4.9077 H   0  0  0  0  0  0  0  0  0  0  0  0
   -0.9977    1.7210   -4.6586 H   0  0  0  0  0  0  0  0  0  0  0  0
   -3.3688    1.0255   -5.0427 H   0  0  0  0  0  0  0  0  0  0  0  0
    2.3347    4.8795   -7.7436 N   0  0  0  0  0  0  0  0  0  0  0  0
    2.5566    5.8304   -8.2608 N   0  0  0  0  0  0  0  0  0  0  0  0
    2.2487    0.0526   -5.5782 S   0  0  0  0  0  0  0  0  0  0  0  0
    2.0974    1.7664   -6.3159 C   0  0  0  0  0  0  0  0  0  0  0  0
    1.0457    0.1305   -4.4598 O   0  0  0  0  0  0  0  0  0  0  0  0
    3.4841    0.0194   -4.8212 O   0  0  0  0  0  0  0  0  0  0  0  0
    1.9254   -0.9014   -6.6259 O   0  0  0  0  0  0  0  0  0  0  0  0
    0.8993    1.9035   -6.8862 F   0  0  0  0  0  0  0  0  0  0  0  0
    2.2451    2.6805   -5.3616 F   0  0  0  0  0  0  0  0  0  0  0  0
    3.0512    1.9087   -7.2329 F   0  0  0  0  0  0  0  0  0  0  0  0
   -3.9112   -1.3776   -5.3760 H   0  0  0  0  0  0  0  0  0  0  0  0
  1  2  1  0  0  0  0
  2  8  1  0  0  0  0
  2  3  2  0  0  0  0
  3 15  1  0  0  0  0
  4  3  1  0  0  0  0
  4  9  1  0  0  0  0
  5  4  2  0  0  0  0
  6  1  2  0  0  0  0
  6  5  1  0  0  0  0
  7  1  1  0  0  0  0
 10  5  1  0  0  0  0
 12 11  3  0  0  0  0
 13 16  2  0  0  0  0
 13 15  1  0  0  0  0
 14 13  1  0  0  0  0
 14 19  1  0  0  0  0
 17 13  2  0  0  0  0
 18 14  1  0  0  0  0
 20 14  1  0  0  0  0
 21  6  1  0  0  0  0
M  END
