Coordinates from ORCA-job Ph-N2-OTf-B3LYPG-6-31G_dp-MTMO-d009-169-n800
 OpenBabel09051908113D

 21 20  0  0  0  0  0  0  0  0999 V2000
   -1.7674   -2.3592   -4.5026 C   0  0  0  0  0  0  0  0  0  0  0  0
   -0.5224   -1.7283   -4.4996 C   0  0  0  0  0  0  0  0  0  0  0  0
   -0.4533   -0.3916   -4.8781 C   0  0  0  0  0  0  0  0  0  0  0  0
   -1.5789    0.3324   -5.2574 C   0  0  0  0  0  0  0  0  0  0  0  0
   -2.8164   -0.3122   -5.2572 C   0  0  0  0  0  0  0  0  0  0  0  0
   -2.9120   -1.6539   -4.8810 C   0  0  0  0  0  0  0  0  0  0  0  0
   -1.8402   -3.4010   -4.2071 H   0  0  0  0  0  0  0  0  0  0  0  0
    0.3808   -2.2504   -4.2033 H   0  0  0  0  0  0  0  0  0  0  0  0
   -1.4796    1.3724   -5.5450 H   0  0  0  0  0  0  0  0  0  0  0  0
   -3.7053    0.2369   -5.5514 H   0  0  0  0  0  0  0  0  0  0  0  0
    4.1920    5.3462   -7.8249 N   0  0  0  0  0  0  0  0  0  0  0  0
    4.8603    6.1464   -8.1915 N   0  0  0  0  0  0  0  0  0  0  0  0
    1.7459    0.3986   -6.1270 S   0  0  0  0  0  0  0  0  0  0  0  0
    1.7963    2.2661   -6.1880 C   0  0  0  0  0  0  0  0  0  0  0  0
    0.7967    0.2624   -4.7872 O   0  0  0  0  0  0  0  0  0  0  0  0
    3.0793   -0.0504   -5.7716 O   0  0  0  0  0  0  0  0  0  0  0  0
    1.0386   -0.0701   -7.3071 O   0  0  0  0  0  0  0  0  0  0  0  0
    0.5628    2.7427   -6.3793 F   0  0  0  0  0  0  0  0  0  0  0  0
    2.2882    2.7429   -5.0498 F   0  0  0  0  0  0  0  0  0  0  0  0
    2.5741    2.6266   -7.2062 F   0  0  0  0  0  0  0  0  0  0  0  0
   -3.8781   -2.1494   -4.8822 H   0  0  0  0  0  0  0  0  0  0  0  0
  1  2  1  0  0  0  0
  1  7  1  0  0  0  0
  2  8  1  0  0  0  0
  3 15  1  0  0  0  0
  3  2  2  0  0  0  0
  4  5  2  0  0  0  0
  4  3  1  0  0  0  0
  5  6  1  0  0  0  0
  6  1  2  0  0  0  0
  9  4  1  0  0  0  0
 10  5  1  0  0  0  0
 12 11  3  0  0  0  0
 13 16  2  0  0  0  0
 13 15  1  0  0  0  0
 14 13  1  0  0  0  0
 14 19  1  0  0  0  0
 17 13  2  0  0  0  0
 18 14  1  0  0  0  0
 20 14  1  0  0  0  0
 21  6  1  0  0  0  0
M  END
