Coordinates from ORCA-job Ph-N2-OTf-B3LYPG-6-31G_dp-MTMO-d009-169-n800
 OpenBabel09051908113D

 21 20  0  0  0  0  0  0  0  0999 V2000
   -1.8972   -1.7728   -5.3093 C   0  0  0  0  0  0  0  0  0  0  0  0
   -0.5609   -1.5541   -4.9716 C   0  0  0  0  0  0  0  0  0  0  0  0
   -0.1344   -0.2440   -4.7748 C   0  0  0  0  0  0  0  0  0  0  0  0
   -0.9958    0.8430   -4.8915 C   0  0  0  0  0  0  0  0  0  0  0  0
   -2.3306    0.6066   -5.2210 C   0  0  0  0  0  0  0  0  0  0  0  0
   -2.7810   -0.6985   -5.4328 C   0  0  0  0  0  0  0  0  0  0  0  0
   -2.2466   -2.7877   -5.4724 H   0  0  0  0  0  0  0  0  0  0  0  0
    0.1394   -2.3740   -4.8666 H   0  0  0  0  0  0  0  0  0  0  0  0
   -0.6179    1.8453   -4.7219 H   0  0  0  0  0  0  0  0  0  0  0  0
   -3.0158    1.4436   -5.3134 H   0  0  0  0  0  0  0  0  0  0  0  0
    1.1172    4.5379   -7.4613 N   0  0  0  0  0  0  0  0  0  0  0  0
    0.8023    5.5262   -7.8425 N   0  0  0  0  0  0  0  0  0  0  0  0
    2.4496   -0.1511   -5.3897 S   0  0  0  0  0  0  0  0  0  0  0  0
    2.3278    1.4784   -6.3057 C   0  0  0  0  0  0  0  0  0  0  0  0
    1.1882    0.0179   -4.3516 O   0  0  0  0  0  0  0  0  0  0  0  0
    3.6358   -0.0955   -4.5593 O   0  0  0  0  0  0  0  0  0  0  0  0
    2.1963   -1.2086   -6.3540 O   0  0  0  0  0  0  0  0  0  0  0  0
    1.2520    1.4654   -7.0923 F   0  0  0  0  0  0  0  0  0  0  0  0
    2.2287    2.4762   -5.4289 F   0  0  0  0  0  0  0  0  0  0  0  0
    3.4240    1.6312   -7.0432 F   0  0  0  0  0  0  0  0  0  0  0  0
   -3.8194   -0.8783   -5.6935 H   0  0  0  0  0  0  0  0  0  0  0  0
  1  2  1  0  0  0  0
  2  8  1  0  0  0  0
  2  3  2  0  0  0  0
  3 15  1  0  0  0  0
  4  3  1  0  0  0  0
  4  9  1  0  0  0  0
  5  4  2  0  0  0  0
  6  1  2  0  0  0  0
  6  5  1  0  0  0  0
  7  1  1  0  0  0  0
 10  5  1  0  0  0  0
 12 11  3  0  0  0  0
 13 16  2  0  0  0  0
 13 15  1  0  0  0  0
 14 19  1  0  0  0  0
 14 13  1  0  0  0  0
 17 13  2  0  0  0  0
 18 14  1  0  0  0  0
 20 14  1  0  0  0  0
 21  6  1  0  0  0  0
M  END
