Coordinates from ORCA-job Ph-N2-OTf-B3LYPG-6-31G_dp-MTMO-d009-169-n800
 OpenBabel09051908113D

 21 19  0  0  0  0  0  0  0  0999 V2000
   -1.5601   -1.1353   -5.5124 C   0  0  0  0  0  0  0  0  0  0  0  0
   -0.6995   -0.0519   -5.2092 C   0  0  0  0  0  0  0  0  0  0  0  0
   -1.2650    1.0779   -5.2318 C   0  0  0  0  0  0  0  0  0  0  0  0
   -2.4918    1.6199   -5.4669 C   0  0  0  0  0  0  0  0  0  0  0  0
   -3.3501    0.5342   -5.7716 C   0  0  0  0  0  0  0  0  0  0  0  0
   -2.8948   -0.7957   -5.7919 C   0  0  0  0  0  0  0  0  0  0  0  0
   -1.2219   -2.1668   -5.5330 H   0  0  0  0  0  0  0  0  0  0  0  0
    1.0488   -0.3115   -4.8698 H   0  0  0  0  0  0  0  0  0  0  0  0
   -2.7978    2.6564   -5.4378 H   0  0  0  0  0  0  0  0  0  0  0  0
   -4.3903    0.7558   -5.9951 H   0  0  0  0  0  0  0  0  0  0  0  0
   -0.0250    3.7201   -4.4459 N   0  0  0  0  0  0  0  0  0  0  0  0
    0.7898    4.3482   -4.0432 N   0  0  0  0  0  0  0  0  0  0  0  0
    3.0129    0.5424   -5.2589 S   0  0  0  0  0  0  0  0  0  0  0  0
    3.2560   -0.0778   -6.9984 C   0  0  0  0  0  0  0  0  0  0  0  0
    2.3261    1.8243   -5.3690 O   0  0  0  0  0  0  0  0  0  0  0  0
    4.2801    0.3913   -4.5699 O   0  0  0  0  0  0  0  0  0  0  0  0
    2.0127   -0.5798   -4.7102 O   0  0  0  0  0  0  0  0  0  0  0  0
    2.0684   -0.1632   -7.6076 F   0  0  0  0  0  0  0  0  0  0  0  0
    4.0310    0.7824   -7.6585 F   0  0  0  0  0  0  0  0  0  0  0  0
    3.8321   -1.2777   -6.9836 F   0  0  0  0  0  0  0  0  0  0  0  0
   -3.6000   -1.5863   -6.0330 H   0  0  0  0  0  0  0  0  0  0  0  0
  1  2  2  0  0  0  0
  3  2  1  0  0  0  0
  4  9  1  0  0  0  0
  4  3  2  0  0  0  0
  5  4  1  0  0  0  0
  6  5  2  0  0  0  0
  6  1  1  0  0  0  0
  7  1  1  0  0  0  0
  8 17  1  0  0  0  0
 10  5  1  0  0  0  0
 11 12  3  0  0  0  0
 13 17  1  0  0  0  0
 13 16  2  0  0  0  0
 14 20  1  0  0  0  0
 14 13  1  0  0  0  0
 15 13  2  0  0  0  0
 18 14  1  0  0  0  0
 19 14  1  0  0  0  0
 21  6  1  0  0  0  0
M  RAD  2   2   2   3   2
M  END
