Coordinates from ORCA-job Ph-N2-OTf-B3LYPG-6-31G_dp-MTMO-d009-169-n800
 OpenBabel09051908113D

 21 19  0  0  0  0  0  0  0  0999 V2000
   -1.7684   -0.9919   -5.5036 C   0  0  0  0  0  0  0  0  0  0  0  0
   -0.7098   -0.0839   -5.2568 C   0  0  0  0  0  0  0  0  0  0  0  0
   -1.2071    1.1564   -5.1607 C   0  0  0  0  0  0  0  0  0  0  0  0
   -2.4260    1.7559   -5.2435 C   0  0  0  0  0  0  0  0  0  0  0  0
   -3.4234    0.7944   -5.4960 C   0  0  0  0  0  0  0  0  0  0  0  0
   -3.0910   -0.5584   -5.6221 C   0  0  0  0  0  0  0  0  0  0  0  0
   -1.5112   -2.0416   -5.6074 H   0  0  0  0  0  0  0  0  0  0  0  0
    0.3622   -0.3863   -5.1731 H   0  0  0  0  0  0  0  0  0  0  0  0
   -2.6235    2.8132   -5.1355 H   0  0  0  0  0  0  0  0  0  0  0  0
   -4.4506    1.1321   -5.5903 H   0  0  0  0  0  0  0  0  0  0  0  0
    0.1656    2.5469   -4.7277 N   0  0  0  0  0  0  0  0  0  0  0  0
    0.6130    3.4606   -4.2951 N   0  0  0  0  0  0  0  0  0  0  0  0
    2.7173    0.5578   -5.5256 S   0  0  0  0  0  0  0  0  0  0  0  0
    3.8365   -0.0687   -6.8703 C   0  0  0  0  0  0  0  0  0  0  0  0
    1.7568    1.4343   -6.2606 O   0  0  0  0  0  0  0  0  0  0  0  0
    3.5930    1.2366   -4.5633 O   0  0  0  0  0  0  0  0  0  0  0  0
    2.0563   -0.6914   -5.0225 O   0  0  0  0  0  0  0  0  0  0  0  0
    3.1281   -0.7330   -7.7964 F   0  0  0  0  0  0  0  0  0  0  0  0
    4.4622    0.9544   -7.4667 F   0  0  0  0  0  0  0  0  0  0  0  0
    4.7565   -0.8977   -6.3621 F   0  0  0  0  0  0  0  0  0  0  0  0
   -3.8747   -1.2826   -5.8181 H   0  0  0  0  0  0  0  0  0  0  0  0
  1  2  1  0  0  0  0
  2  8  1  0  0  0  0
  2  3  2  0  0  0  0
  4  3  1  0  0  0  0
  4  9  1  0  0  0  0
  5  4  2  0  0  0  0
  6  1  2  0  0  0  0
  6  5  1  0  0  0  0
  7  1  1  0  0  0  0
 10  5  1  0  0  0  0
 11 12  3  0  0  0  0
 13 17  2  0  0  0  0
 13 16  1  0  0  0  0
 14 20  1  0  0  0  0
 14 13  1  0  0  0  0
 15 13  2  0  0  0  0
 18 14  1  0  0  0  0
 19 14  1  0  0  0  0
 21  6  1  0  0  0  0
M  RAD  2   3   2  16   2
M  END
