Coordinates from ORCA-job Ph-N2-OTf-B3LYPG-6-31G_dp-MTMO-d009-169-n800
 OpenBabel09051908113D

 21 20  0  0  0  0  0  0  0  0999 V2000
   -2.1252   -2.9276   -4.4365 C   0  0  0  0  0  0  0  0  0  0  0  0
   -0.9037   -2.2555   -4.3737 C   0  0  0  0  0  0  0  0  0  0  0  0
   -0.8856   -0.8843   -4.6071 C   0  0  0  0  0  0  0  0  0  0  0  0
   -2.0403   -0.1658   -4.8998 C   0  0  0  0  0  0  0  0  0  0  0  0
   -3.2536   -0.8518   -4.9627 C   0  0  0  0  0  0  0  0  0  0  0  0
   -3.2979   -2.2285   -4.7313 C   0  0  0  0  0  0  0  0  0  0  0  0
   -2.1580   -3.9970   -4.2524 H   0  0  0  0  0  0  0  0  0  0  0  0
    0.0204   -2.7729   -4.1398 H   0  0  0  0  0  0  0  0  0  0  0  0
   -1.9823    0.9022   -5.0741 H   0  0  0  0  0  0  0  0  0  0  0  0
   -4.1643   -0.3072   -5.1917 H   0  0  0  0  0  0  0  0  0  0  0  0
    8.4653    9.4995  -10.8824 N   0  0  0  0  0  0  0  0  0  0  0  0
    9.4284    9.9961  -11.1002 N   0  0  0  0  0  0  0  0  0  0  0  0
    1.2573    0.1531   -5.7726 S   0  0  0  0  0  0  0  0  0  0  0  0
    1.1915    2.0133   -5.6123 C   0  0  0  0  0  0  0  0  0  0  0  0
    0.3425   -0.2023   -4.4500 O   0  0  0  0  0  0  0  0  0  0  0  0
    2.6213   -0.2481   -5.4838 O   0  0  0  0  0  0  0  0  0  0  0  0
    0.5615   -0.2159   -6.9941 O   0  0  0  0  0  0  0  0  0  0  0  0
   -0.0694    2.4336   -5.7490 F   0  0  0  0  0  0  0  0  0  0  0  0
    1.6589    2.3829   -4.4248 F   0  0  0  0  0  0  0  0  0  0  0  0
    1.9403    2.5393   -6.5791 F   0  0  0  0  0  0  0  0  0  0  0  0
   -4.2456   -2.7560   -4.7802 H   0  0  0  0  0  0  0  0  0  0  0  0
  1  2  1  0  0  0  0
  1  7  1  0  0  0  0
  2  8  1  0  0  0  0
  3 15  1  0  0  0  0
  3  2  2  0  0  0  0
  4  3  1  0  0  0  0
  5  4  2  0  0  0  0
  5  6  1  0  0  0  0
  6  1  2  0  0  0  0
  9  4  1  0  0  0  0
 10  5  1  0  0  0  0
 12 11  3  0  0  0  0
 13 14  1  0  0  0  0
 13 16  2  0  0  0  0
 13 15  1  0  0  0  0
 14 19  1  0  0  0  0
 17 13  2  0  0  0  0
 18 14  1  0  0  0  0
 20 14  1  0  0  0  0
 21  6  1  0  0  0  0
M  END
