Coordinates from ORCA-job Ph-N2-OTf-B3LYPG-6-31G_dp-MTMO-d009-169-n800
 OpenBabel09051908113D

 21 20  0  0  0  0  0  0  0  0999 V2000
   -1.8628   -2.6023   -4.5719 C   0  0  0  0  0  0  0  0  0  0  0  0
   -0.6354   -1.9409   -4.5106 C   0  0  0  0  0  0  0  0  0  0  0  0
   -0.6001   -0.5767   -4.7804 C   0  0  0  0  0  0  0  0  0  0  0  0
   -1.7434    0.1450   -5.1078 C   0  0  0  0  0  0  0  0  0  0  0  0
   -2.9627   -0.5305   -5.1690 C   0  0  0  0  0  0  0  0  0  0  0  0
   -3.0242   -1.9000   -4.9014 C   0  0  0  0  0  0  0  0  0  0  0  0
   -1.9090   -3.6659   -4.3595 H   0  0  0  0  0  0  0  0  0  0  0  0
    0.2803   -2.4607   -4.2505 H   0  0  0  0  0  0  0  0  0  0  0  0
   -1.6726    1.2074   -5.3097 H   0  0  0  0  0  0  0  0  0  0  0  0
   -3.8646    0.0166   -5.4250 H   0  0  0  0  0  0  0  0  0  0  0  0
    5.7152    6.6380   -9.0892 N   0  0  0  0  0  0  0  0  0  0  0  0
    6.5766    7.1826   -9.5173 N   0  0  0  0  0  0  0  0  0  0  0  0
    1.5623    0.4202   -5.9455 S   0  0  0  0  0  0  0  0  0  0  0  0
    1.5209    2.2831   -5.8109 C   0  0  0  0  0  0  0  0  0  0  0  0
    0.6333    0.0960   -4.6248 O   0  0  0  0  0  0  0  0  0  0  0  0
    2.9186    0.0044   -5.6413 O   0  0  0  0  0  0  0  0  0  0  0  0
    0.8701    0.0438   -7.1668 O   0  0  0  0  0  0  0  0  0  0  0  0
    0.2668    2.7186   -5.9618 F   0  0  0  0  0  0  0  0  0  0  0  0
    1.9854    2.6622   -4.6253 F   0  0  0  0  0  0  0  0  0  0  0  0
    2.2833    2.7853   -6.7796 F   0  0  0  0  0  0  0  0  0  0  0  0
   -3.9765   -2.4192   -4.9491 H   0  0  0  0  0  0  0  0  0  0  0  0
  1  2  1  0  0  0  0
  1  7  1  0  0  0  0
  2  8  1  0  0  0  0
  3 15  1  0  0  0  0
  3  2  2  0  0  0  0
  4  3  1  0  0  0  0
  5  4  2  0  0  0  0
  5  6  1  0  0  0  0
  6  1  2  0  0  0  0
  9  4  1  0  0  0  0
 10  5  1  0  0  0  0
 12 11  3  0  0  0  0
 13 14  1  0  0  0  0
 13 16  2  0  0  0  0
 13 15  1  0  0  0  0
 14 19  1  0  0  0  0
 17 13  2  0  0  0  0
 18 14  1  0  0  0  0
 20 14  1  0  0  0  0
 21  6  1  0  0  0  0
M  END
