Coordinates from ORCA-job Ph-N2-OTf-B3LYPG-6-31G_dp-MTMO-d009-169-n800
 OpenBabel09051908113D

 21 20  0  0  0  0  0  0  0  0999 V2000
   -1.8488   -2.5819   -4.5773 C   0  0  0  0  0  0  0  0  0  0  0  0
   -0.6206   -1.9219   -4.5170 C   0  0  0  0  0  0  0  0  0  0  0  0
   -0.5835   -0.5585   -4.7905 C   0  0  0  0  0  0  0  0  0  0  0  0
   -1.7256    0.1638   -5.1208 C   0  0  0  0  0  0  0  0  0  0  0  0
   -2.9457   -0.5104   -5.1810 C   0  0  0  0  0  0  0  0  0  0  0  0
   -3.0091   -1.8790   -4.9096 C   0  0  0  0  0  0  0  0  0  0  0  0
   -1.8965   -3.6448   -4.3620 H   0  0  0  0  0  0  0  0  0  0  0  0
    0.2942   -2.4421   -4.2548 H   0  0  0  0  0  0  0  0  0  0  0  0
   -1.6533    1.2255   -5.3255 H   0  0  0  0  0  0  0  0  0  0  0  0
   -3.8467    0.0371   -5.4392 H   0  0  0  0  0  0  0  0  0  0  0  0
    5.5515    6.4767   -8.9805 N   0  0  0  0  0  0  0  0  0  0  0  0
    6.4068    7.0228   -9.4185 N   0  0  0  0  0  0  0  0  0  0  0  0
    1.5808    0.4327   -5.9570 S   0  0  0  0  0  0  0  0  0  0  0  0
    1.5425    2.2960   -5.8264 C   0  0  0  0  0  0  0  0  0  0  0  0
    0.6506    0.1130   -4.6359 O   0  0  0  0  0  0  0  0  0  0  0  0
    2.9364    0.0153   -5.6512 O   0  0  0  0  0  0  0  0  0  0  0  0
    0.8886    0.0548   -7.1777 O   0  0  0  0  0  0  0  0  0  0  0  0
    0.2891    2.7332   -5.9786 F   0  0  0  0  0  0  0  0  0  0  0  0
    2.0072    2.6769   -4.6414 F   0  0  0  0  0  0  0  0  0  0  0  0
    2.3060    2.7949   -6.7959 F   0  0  0  0  0  0  0  0  0  0  0  0
   -3.9621   -2.3972   -4.9566 H   0  0  0  0  0  0  0  0  0  0  0  0
  1  2  1  0  0  0  0
  1  7  1  0  0  0  0
  2  8  1  0  0  0  0
  3 15  1  0  0  0  0
  3  2  2  0  0  0  0
  4  3  1  0  0  0  0
  5  4  2  0  0  0  0
  5  6  1  0  0  0  0
  6  1  2  0  0  0  0
  9  4  1  0  0  0  0
 10  5  1  0  0  0  0
 12 11  3  0  0  0  0
 13 14  1  0  0  0  0
 13 16  2  0  0  0  0
 13 15  1  0  0  0  0
 14 19  1  0  0  0  0
 17 13  2  0  0  0  0
 18 14  1  0  0  0  0
 20 14  1  0  0  0  0
 21  6  1  0  0  0  0
M  END
