Coordinates from ORCA-job Ph-N2-OTf-B3LYPG-6-31G_dp-MTMO-d009-169-n800
 OpenBabel09051908113D

 21 20  0  0  0  0  0  0  0  0999 V2000
   -1.8381   -2.1112   -5.0584 C   0  0  0  0  0  0  0  0  0  0  0  0
   -0.5286   -1.6620   -4.8824 C   0  0  0  0  0  0  0  0  0  0  0  0
   -0.3064   -0.2921   -4.7763 C   0  0  0  0  0  0  0  0  0  0  0  0
   -1.3443    0.6336   -4.8288 C   0  0  0  0  0  0  0  0  0  0  0  0
   -2.6491    0.1678   -4.9943 C   0  0  0  0  0  0  0  0  0  0  0  0
   -2.8963   -1.2017   -5.1127 C   0  0  0  0  0  0  0  0  0  0  0  0
   -2.0289   -3.1762   -5.1492 H   0  0  0  0  0  0  0  0  0  0  0  0
    0.3043   -2.3533   -4.8322 H   0  0  0  0  0  0  0  0  0  0  0  0
   -1.1247    1.6915   -4.7348 H   0  0  0  0  0  0  0  0  0  0  0  0
   -3.4702    0.8769   -5.0322 H   0  0  0  0  0  0  0  0  0  0  0  0
    2.8702    5.0708   -7.6593 N   0  0  0  0  0  0  0  0  0  0  0  0
    3.2327    6.0210   -8.0915 N   0  0  0  0  0  0  0  0  0  0  0  0
    2.1730    0.1255   -5.6529 S   0  0  0  0  0  0  0  0  0  0  0  0
    1.9397    1.8046   -6.4450 C   0  0  0  0  0  0  0  0  0  0  0  0
    0.9913    0.2005   -4.5115 O   0  0  0  0  0  0  0  0  0  0  0  0
    3.4251    0.1649   -4.9239 O   0  0  0  0  0  0  0  0  0  0  0  0
    1.8633   -0.8768   -6.6587 O   0  0  0  0  0  0  0  0  0  0  0  0
    0.7169    1.8811   -6.9741 F   0  0  0  0  0  0  0  0  0  0  0  0
    2.0911    2.7577   -5.5307 F   0  0  0  0  0  0  0  0  0  0  0  0
    2.8531    1.9442   -7.4026 F   0  0  0  0  0  0  0  0  0  0  0  0
   -3.9125   -1.5599   -5.2460 H   0  0  0  0  0  0  0  0  0  0  0  0
  1  2  1  0  0  0  0
  2  8  1  0  0  0  0
  2  3  2  0  0  0  0
  3 15  1  0  0  0  0
  4  3  1  0  0  0  0
  4  9  1  0  0  0  0
  5  4  2  0  0  0  0
  6  1  2  0  0  0  0
  6  5  1  0  0  0  0
  7  1  1  0  0  0  0
 10  5  1  0  0  0  0
 12 11  3  0  0  0  0
 13 16  2  0  0  0  0
 13 15  1  0  0  0  0
 14 13  1  0  0  0  0
 14 19  1  0  0  0  0
 17 13  2  0  0  0  0
 18 14  1  0  0  0  0
 20 14  1  0  0  0  0
 21  6  1  0  0  0  0
M  END
