Coordinates from ORCA-job Ph-N2-OTf-B3LYPG-6-31G_dp-MTMO-d009-169-n800
 OpenBabel09051908113D

 21 20  0  0  0  0  0  0  0  0999 V2000
   -1.8554   -1.4216   -4.6615 C   0  0  0  0  0  0  0  0  0  0  0  0
   -0.5751   -0.9041   -4.4620 C   0  0  0  0  0  0  0  0  0  0  0  0
   -0.2179    0.2618   -5.1334 C   0  0  0  0  0  0  0  0  0  0  0  0
   -1.0971    0.9274   -5.9825 C   0  0  0  0  0  0  0  0  0  0  0  0
   -2.3771    0.4019   -6.1637 C   0  0  0  0  0  0  0  0  0  0  0  0
   -2.7558   -0.7716   -5.5085 C   0  0  0  0  0  0  0  0  0  0  0  0
   -2.1476   -2.3337   -4.1509 H   0  0  0  0  0  0  0  0  0  0  0  0
    0.1357   -1.3918   -3.8052 H   0  0  0  0  0  0  0  0  0  0  0  0
   -0.7805    1.8378   -6.4769 H   0  0  0  0  0  0  0  0  0  0  0  0
   -3.0764    0.9118   -6.8192 H   0  0  0  0  0  0  0  0  0  0  0  0
    0.5764    3.9405   -5.1528 N   0  0  0  0  0  0  0  0  0  0  0  0
    0.8363    4.4517   -4.2082 N   0  0  0  0  0  0  0  0  0  0  0  0
    2.4208    0.1772   -5.4666 S   0  0  0  0  0  0  0  0  0  0  0  0
    2.5438    1.0697   -7.1050 C   0  0  0  0  0  0  0  0  0  0  0  0
    1.0403    0.8568   -4.8890 O   0  0  0  0  0  0  0  0  0  0  0  0
    3.4869    0.6818   -4.6243 O   0  0  0  0  0  0  0  0  0  0  0  0
    2.2260   -1.2336   -5.7550 O   0  0  0  0  0  0  0  0  0  0  0  0
    1.4786    0.7798   -7.8546 F   0  0  0  0  0  0  0  0  0  0  0  0
    2.6011    2.3831   -6.9002 F   0  0  0  0  0  0  0  0  0  0  0  0
    3.6500    0.6601   -7.7214 F   0  0  0  0  0  0  0  0  0  0  0  0
   -3.7514   -1.1782   -5.6565 H   0  0  0  0  0  0  0  0  0  0  0  0
  1  2  1  0  0  0  0
  1  7  1  0  0  0  0
  2  8  1  0  0  0  0
  3 15  1  0  0  0  0
  3  2  2  0  0  0  0
  4  3  1  0  0  0  0
  5  4  2  0  0  0  0
  5  6  1  0  0  0  0
  6  1  2  0  0  0  0
  9  4  1  0  0  0  0
 10  5  1  0  0  0  0
 11 12  3  0  0  0  0
 13 15  1  0  0  0  0
 13 16  2  0  0  0  0
 14 19  1  0  0  0  0
 14 13  1  0  0  0  0
 17 13  2  0  0  0  0
 18 14  1  0  0  0  0
 20 14  1  0  0  0  0
 21  6  1  0  0  0  0
M  END
