Coordinates from ORCA-job Ph-N2-OTf-B3LYPG-6-31G_dp-MTMO-d009-169-n800
 OpenBabel09051908113D

 21 20  0  0  0  0  0  0  0  0999 V2000
   -1.7703   -2.4553   -4.5772 C   0  0  0  0  0  0  0  0  0  0  0  0
   -0.5368   -1.8035   -4.5369 C   0  0  0  0  0  0  0  0  0  0  0  0
   -0.4888   -0.4500   -4.8538 C   0  0  0  0  0  0  0  0  0  0  0  0
   -1.6247    0.2706   -5.2083 C   0  0  0  0  0  0  0  0  0  0  0  0
   -2.8501   -0.3954   -5.2480 C   0  0  0  0  0  0  0  0  0  0  0  0
   -2.9246   -1.7541   -4.9329 C   0  0  0  0  0  0  0  0  0  0  0  0
   -1.8267   -3.5103   -4.3282 H   0  0  0  0  0  0  0  0  0  0  0  0
    0.3737   -2.3223   -4.2576 H   0  0  0  0  0  0  0  0  0  0  0  0
   -1.5434    1.3245   -5.4470 H   0  0  0  0  0  0  0  0  0  0  0  0
   -3.7466    0.1507   -5.5246 H   0  0  0  0  0  0  0  0  0  0  0  0
    4.6220    5.5360   -8.2932 N   0  0  0  0  0  0  0  0  0  0  0  0
    5.3954    6.1670   -8.7678 N   0  0  0  0  0  0  0  0  0  0  0  0
    1.6817    0.4918   -6.0512 S   0  0  0  0  0  0  0  0  0  0  0  0
    1.6813    2.3580   -5.9553 C   0  0  0  0  0  0  0  0  0  0  0  0
    0.7506    0.2166   -4.7204 O   0  0  0  0  0  0  0  0  0  0  0  0
    3.0301    0.0526   -5.7440 O   0  0  0  0  0  0  0  0  0  0  0  0
    0.9764    0.1047   -7.2616 O   0  0  0  0  0  0  0  0  0  0  0  0
    0.4363    2.8162   -6.1152 F   0  0  0  0  0  0  0  0  0  0  0  0
    2.1535    2.7507   -4.7770 F   0  0  0  0  0  0  0  0  0  0  0  0
    2.4544    2.8243   -6.9331 F   0  0  0  0  0  0  0  0  0  0  0  0
   -3.8817   -2.2659   -4.9641 H   0  0  0  0  0  0  0  0  0  0  0  0
  1  2  1  0  0  0  0
  1  7  1  0  0  0  0
  2  8  1  0  0  0  0
  3 15  1  0  0  0  0
  3  2  2  0  0  0  0
  4  3  1  0  0  0  0
  5  4  2  0  0  0  0
  5  6  1  0  0  0  0
  6  1  2  0  0  0  0
  9  4  1  0  0  0  0
 10  5  1  0  0  0  0
 12 11  3  0  0  0  0
 13 14  1  0  0  0  0
 13 16  2  0  0  0  0
 13 15  1  0  0  0  0
 14 19  1  0  0  0  0
 17 13  2  0  0  0  0
 18 14  1  0  0  0  0
 20 14  1  0  0  0  0
 21  6  1  0  0  0  0
M  END
