Coordinates from ORCA-job Ph-N2-OTf-B3LYPG-6-31G_dp-MTMO-d009-169-n800
 OpenBabel09051908113D

 21 20  0  0  0  0  0  0  0  0999 V2000
   -2.0374   -2.8330   -4.4835 C   0  0  0  0  0  0  0  0  0  0  0  0
   -0.8160   -2.1607   -4.4213 C   0  0  0  0  0  0  0  0  0  0  0  0
   -0.7975   -0.7904   -4.6603 C   0  0  0  0  0  0  0  0  0  0  0  0
   -1.9517   -0.0732   -4.9580 C   0  0  0  0  0  0  0  0  0  0  0  0
   -3.1649   -0.7595   -5.0202 C   0  0  0  0  0  0  0  0  0  0  0  0
   -3.2096   -2.1352   -4.7833 C   0  0  0  0  0  0  0  0  0  0  0  0
   -2.0705   -3.9016   -4.2950 H   0  0  0  0  0  0  0  0  0  0  0  0
    0.1077   -2.6770   -4.1837 H   0  0  0  0  0  0  0  0  0  0  0  0
   -1.8935    0.9941   -5.1366 H   0  0  0  0  0  0  0  0  0  0  0  0
   -4.0752   -0.2159   -5.2531 H   0  0  0  0  0  0  0  0  0  0  0  0
    7.6278    8.6132  -10.3682 N   0  0  0  0  0  0  0  0  0  0  0  0
    8.5873    9.1149  -10.5899 N   0  0  0  0  0  0  0  0  0  0  0  0
    1.3460    0.2451   -5.8265 S   0  0  0  0  0  0  0  0  0  0  0  0
    1.2799    2.1056   -5.6701 C   0  0  0  0  0  0  0  0  0  0  0  0
    0.4304   -0.1081   -4.5038 O   0  0  0  0  0  0  0  0  0  0  0  0
    2.7100   -0.1549   -5.5354 O   0  0  0  0  0  0  0  0  0  0  0  0
    0.6513   -0.1266   -7.0477 O   0  0  0  0  0  0  0  0  0  0  0  0
    0.0191    2.5256   -5.8088 F   0  0  0  0  0  0  0  0  0  0  0  0
    1.7462    2.4777   -4.4830 F   0  0  0  0  0  0  0  0  0  0  0  0
    2.0296    2.6297   -6.6374 F   0  0  0  0  0  0  0  0  0  0  0  0
   -4.1572   -2.6630   -4.8317 H   0  0  0  0  0  0  0  0  0  0  0  0
  1  2  1  0  0  0  0
  1  7  1  0  0  0  0
  2  8  1  0  0  0  0
  3 15  1  0  0  0  0
  3  2  2  0  0  0  0
  4  3  1  0  0  0  0
  5  4  2  0  0  0  0
  5  6  1  0  0  0  0
  6  1  2  0  0  0  0
  9  4  1  0  0  0  0
 10  5  1  0  0  0  0
 12 11  3  0  0  0  0
 13 14  1  0  0  0  0
 13 16  2  0  0  0  0
 13 15  1  0  0  0  0
 14 19  1  0  0  0  0
 17 13  2  0  0  0  0
 18 14  1  0  0  0  0
 20 14  1  0  0  0  0
 21  6  1  0  0  0  0
M  END
