Coordinates from ORCA-job Ph-N2-OTf-B3LYPG-6-31G_dp-MTMO-d009-169-n800
 OpenBabel09051908113D

 21 20  0  0  0  0  0  0  0  0999 V2000
   -1.7871   -2.4849   -4.5878 C   0  0  0  0  0  0  0  0  0  0  0  0
   -0.5547   -1.8319   -4.5384 C   0  0  0  0  0  0  0  0  0  0  0  0
   -0.5081   -0.4744   -4.8382 C   0  0  0  0  0  0  0  0  0  0  0  0
   -1.6450    0.2489   -5.1841 C   0  0  0  0  0  0  0  0  0  0  0  0
   -2.8694   -0.4183   -5.2331 C   0  0  0  0  0  0  0  0  0  0  0  0
   -2.9422   -1.7810   -4.9354 C   0  0  0  0  0  0  0  0  0  0  0  0
   -1.8421   -3.5431   -4.3522 H   0  0  0  0  0  0  0  0  0  0  0  0
    0.3564   -2.3530   -4.2649 H   0  0  0  0  0  0  0  0  0  0  0  0
   -1.5653    1.3059   -5.4093 H   0  0  0  0  0  0  0  0  0  0  0  0
   -3.7664    0.1301   -5.5033 H   0  0  0  0  0  0  0  0  0  0  0  0
    4.8197    5.7390   -8.4593 N   0  0  0  0  0  0  0  0  0  0  0  0
    5.6205    6.3349   -8.9336 N   0  0  0  0  0  0  0  0  0  0  0  0
    1.6632    0.4820   -6.0211 S   0  0  0  0  0  0  0  0  0  0  0  0
    1.6455    2.3473   -5.9168 C   0  0  0  0  0  0  0  0  0  0  0  0
    0.7302    0.1918   -4.6950 O   0  0  0  0  0  0  0  0  0  0  0  0
    3.0143    0.0538   -5.7104 O   0  0  0  0  0  0  0  0  0  0  0  0
    0.9658    0.0942   -7.2358 O   0  0  0  0  0  0  0  0  0  0  0  0
    0.3967    2.7956   -6.0753 F   0  0  0  0  0  0  0  0  0  0  0  0
    2.1139    2.7393   -4.7369 F   0  0  0  0  0  0  0  0  0  0  0  0
    2.4144    2.8244   -6.8927 F   0  0  0  0  0  0  0  0  0  0  0  0
   -3.8986   -2.2937   -4.9738 H   0  0  0  0  0  0  0  0  0  0  0  0
  1  2  1  0  0  0  0
  1  7  1  0  0  0  0
  2  8  1  0  0  0  0
  3 15  1  0  0  0  0
  3  2  2  0  0  0  0
  4  3  1  0  0  0  0
  5  4  2  0  0  0  0
  5  6  1  0  0  0  0
  6  1  2  0  0  0  0
  9  4  1  0  0  0  0
 10  5  1  0  0  0  0
 12 11  3  0  0  0  0
 13 14  1  0  0  0  0
 13 16  2  0  0  0  0
 13 15  1  0  0  0  0
 14 19  1  0  0  0  0
 17 13  2  0  0  0  0
 18 14  1  0  0  0  0
 20 14  1  0  0  0  0
 21  6  1  0  0  0  0
M  END
