Coordinates from ORCA-job Ph-N2-OTf-B3LYPG-6-31G_dp-MTMO-d009-169-n800
 OpenBabel09051908113D

 21 20  0  0  0  0  0  0  0  0999 V2000
   -1.8854   -1.7818   -5.3976 C   0  0  0  0  0  0  0  0  0  0  0  0
   -0.5468   -1.5661   -5.0666 C   0  0  0  0  0  0  0  0  0  0  0  0
   -0.1428   -0.2706   -4.7574 C   0  0  0  0  0  0  0  0  0  0  0  0
   -1.0287    0.8031   -4.7553 C   0  0  0  0  0  0  0  0  0  0  0  0
   -2.3652    0.5688   -5.0791 C   0  0  0  0  0  0  0  0  0  0  0  0
   -2.7933   -0.7206   -5.4033 C   0  0  0  0  0  0  0  0  0  0  0  0
   -2.2175   -2.7847   -5.6475 H   0  0  0  0  0  0  0  0  0  0  0  0
    0.1716   -2.3767   -5.0524 H   0  0  0  0  0  0  0  0  0  0  0  0
   -0.6679    1.7933   -4.4991 H   0  0  0  0  0  0  0  0  0  0  0  0
   -3.0692    1.3952   -5.0782 H   0  0  0  0  0  0  0  0  0  0  0  0
    1.4775    4.4470   -7.6499 N   0  0  0  0  0  0  0  0  0  0  0  0
    1.0459    5.3210   -8.1704 N   0  0  0  0  0  0  0  0  0  0  0  0
    2.4324   -0.0913   -5.3962 S   0  0  0  0  0  0  0  0  0  0  0  0
    2.2272    1.5674   -6.2433 C   0  0  0  0  0  0  0  0  0  0  0  0
    1.1817   -0.0166   -4.3351 O   0  0  0  0  0  0  0  0  0  0  0  0
    3.6270   -0.0222   -4.5792 O   0  0  0  0  0  0  0  0  0  0  0  0
    2.2085   -1.1182   -6.4004 O   0  0  0  0  0  0  0  0  0  0  0  0
    1.1403    1.5360   -7.0146 F   0  0  0  0  0  0  0  0  0  0  0  0
    2.0963    2.5226   -5.3242 F   0  0  0  0  0  0  0  0  0  0  0  0
    3.3032    1.7997   -6.9885 F   0  0  0  0  0  0  0  0  0  0  0  0
   -3.8333   -0.8986   -5.6590 H   0  0  0  0  0  0  0  0  0  0  0  0
  1  2  1  0  0  0  0
  2  8  1  0  0  0  0
  2  3  2  0  0  0  0
  3  4  1  0  0  0  0
  3 15  1  0  0  0  0
  4  9  1  0  0  0  0
  5 10  1  0  0  0  0
  5  4  2  0  0  0  0
  6  1  2  0  0  0  0
  6  5  1  0  0  0  0
  7  1  1  0  0  0  0
 12 11  3  0  0  0  0
 13 16  2  0  0  0  0
 13 15  1  0  0  0  0
 14 13  1  0  0  0  0
 14 19  1  0  0  0  0
 17 13  2  0  0  0  0
 18 14  1  0  0  0  0
 20 14  1  0  0  0  0
 21  6  1  0  0  0  0
M  END
