Coordinates from ORCA-job Ph-N2-OTf-B3LYPG-6-31G_dp-MTMO-d009-169-n800
 OpenBabel09051908113D

 21 20  0  0  0  0  0  0  0  0999 V2000
   -1.8285   -2.5504   -4.5827 C   0  0  0  0  0  0  0  0  0  0  0  0
   -0.5990   -1.8926   -4.5249 C   0  0  0  0  0  0  0  0  0  0  0  0
   -0.5587   -0.5309   -4.8059 C   0  0  0  0  0  0  0  0  0  0  0  0
   -1.6990    0.1920   -5.1412 C   0  0  0  0  0  0  0  0  0  0  0  0
   -2.9204   -0.4800   -5.1988 C   0  0  0  0  0  0  0  0  0  0  0  0
   -2.9870   -1.8469   -4.9199 C   0  0  0  0  0  0  0  0  0  0  0  0
   -1.8787   -3.6120   -4.3616 H   0  0  0  0  0  0  0  0  0  0  0  0
    0.3145   -2.4133   -4.2590 H   0  0  0  0  0  0  0  0  0  0  0  0
   -1.6242    1.2523   -5.3518 H   0  0  0  0  0  0  0  0  0  0  0  0
   -3.8200    0.0681   -5.4609 H   0  0  0  0  0  0  0  0  0  0  0  0
    5.3078    6.2361   -8.8123 N   0  0  0  0  0  0  0  0  0  0  0  0
    6.1494    6.7910   -9.2655 N   0  0  0  0  0  0  0  0  0  0  0  0
    1.6085    0.4496   -5.9760 S   0  0  0  0  0  0  0  0  0  0  0  0
    1.5762    2.3134   -5.8531 C   0  0  0  0  0  0  0  0  0  0  0  0
    0.6767    0.1389   -4.6539 O   0  0  0  0  0  0  0  0  0  0  0  0
    2.9625    0.0287   -5.6683 O   0  0  0  0  0  0  0  0  0  0  0  0
    0.9153    0.0688   -7.1953 O   0  0  0  0  0  0  0  0  0  0  0  0
    0.3241    2.7539   -6.0071 F   0  0  0  0  0  0  0  0  0  0  0  0
    2.0420    2.6977   -4.6696 F   0  0  0  0  0  0  0  0  0  0  0  0
    2.3412    2.8060   -6.8245 F   0  0  0  0  0  0  0  0  0  0  0  0
   -3.9411   -2.3633   -4.9650 H   0  0  0  0  0  0  0  0  0  0  0  0
  1  2  1  0  0  0  0
  1  7  1  0  0  0  0
  2  8  1  0  0  0  0
  3 15  1  0  0  0  0
  3  2  2  0  0  0  0
  4  3  1  0  0  0  0
  5  4  2  0  0  0  0
  5  6  1  0  0  0  0
  6  1  2  0  0  0  0
  9  4  1  0  0  0  0
 10  5  1  0  0  0  0
 12 11  3  0  0  0  0
 13 14  1  0  0  0  0
 13 16  2  0  0  0  0
 13 15  1  0  0  0  0
 14 19  1  0  0  0  0
 17 13  2  0  0  0  0
 18 14  1  0  0  0  0
 20 14  1  0  0  0  0
 21  6  1  0  0  0  0
M  END
