Coordinates from ORCA-job Ph-N2-OTf-B3LYPG-6-31G_dp-MTMO-d009-169-n800
 OpenBabel09051908113D

 21 20  0  0  0  0  0  0  0  0999 V2000
   -1.8783   -2.6236   -4.5644 C   0  0  0  0  0  0  0  0  0  0  0  0
   -0.6516   -1.9610   -4.5028 C   0  0  0  0  0  0  0  0  0  0  0  0
   -0.6180   -0.5961   -4.7695 C   0  0  0  0  0  0  0  0  0  0  0  0
   -1.7624    0.1251   -5.0943 C   0  0  0  0  0  0  0  0  0  0  0  0
   -2.9809   -0.5516   -5.1560 C   0  0  0  0  0  0  0  0  0  0  0  0
   -3.0407   -1.9217   -4.8913 C   0  0  0  0  0  0  0  0  0  0  0  0
   -1.9232   -3.6876   -4.3544 H   0  0  0  0  0  0  0  0  0  0  0  0
    0.2648   -2.4804   -4.2446 H   0  0  0  0  0  0  0  0  0  0  0  0
   -1.6928    1.1880   -5.2939 H   0  0  0  0  0  0  0  0  0  0  0  0
   -3.8836   -0.0048   -5.4100 H   0  0  0  0  0  0  0  0  0  0  0  0
    5.8909    6.8113   -9.2049 N   0  0  0  0  0  0  0  0  0  0  0  0
    6.7569    7.3598   -9.6181 N   0  0  0  0  0  0  0  0  0  0  0  0
    1.5426    0.4052   -5.9343 S   0  0  0  0  0  0  0  0  0  0  0  0
    1.4987    2.2678   -5.7968 C   0  0  0  0  0  0  0  0  0  0  0  0
    0.6148    0.0775   -4.6135 O   0  0  0  0  0  0  0  0  0  0  0  0
    2.8997   -0.0092   -5.6315 O   0  0  0  0  0  0  0  0  0  0  0  0
    0.8502    0.0297   -7.1557 O   0  0  0  0  0  0  0  0  0  0  0  0
    0.2439    2.7018   -5.9463 F   0  0  0  0  0  0  0  0  0  0  0  0
    1.9632    2.6458   -4.6108 F   0  0  0  0  0  0  0  0  0  0  0  0
    2.2599    2.7727   -6.7650 F   0  0  0  0  0  0  0  0  0  0  0  0
   -3.9926   -2.4418   -4.9394 H   0  0  0  0  0  0  0  0  0  0  0  0
  1  2  1  0  0  0  0
  1  7  1  0  0  0  0
  2  8  1  0  0  0  0
  3 15  1  0  0  0  0
  3  2  2  0  0  0  0
  4  3  1  0  0  0  0
  5  4  2  0  0  0  0
  5  6  1  0  0  0  0
  6  1  2  0  0  0  0
  9  4  1  0  0  0  0
 10  5  1  0  0  0  0
 12 11  3  0  0  0  0
 13 14  1  0  0  0  0
 13 16  2  0  0  0  0
 13 15  1  0  0  0  0
 14 19  1  0  0  0  0
 17 13  2  0  0  0  0
 18 14  1  0  0  0  0
 20 14  1  0  0  0  0
 21  6  1  0  0  0  0
M  END
