Coordinates from ORCA-job Ph-N2-OTf-B3LYPG-6-31G_dp-MTMO-d009-169-n800
 OpenBabel09051908113D

 21 20  0  0  0  0  0  0  0  0999 V2000
   -1.9360   -2.7059   -4.5344 C   0  0  0  0  0  0  0  0  0  0  0  0
   -0.7122   -2.0378   -4.4731 C   0  0  0  0  0  0  0  0  0  0  0  0
   -0.6866   -0.6706   -4.7279 C   0  0  0  0  0  0  0  0  0  0  0  0
   -1.8362    0.0479   -5.0406 C   0  0  0  0  0  0  0  0  0  0  0  0
   -3.0518   -0.6342   -5.1020 C   0  0  0  0  0  0  0  0  0  0  0  0
   -3.1035   -2.0069   -4.8492 C   0  0  0  0  0  0  0  0  0  0  0  0
   -1.9746   -3.7720   -4.3336 H   0  0  0  0  0  0  0  0  0  0  0  0
    0.2080   -2.5550   -4.2242 H   0  0  0  0  0  0  0  0  0  0  0  0
   -1.7727    1.1128   -5.2312 H   0  0  0  0  0  0  0  0  0  0  0  0
   -3.9584   -0.0897   -5.3465 H   0  0  0  0  0  0  0  0  0  0  0  0
    6.5688    7.4810   -9.6558 N   0  0  0  0  0  0  0  0  0  0  0  0
    7.4630    8.0391   -9.9882 N   0  0  0  0  0  0  0  0  0  0  0  0
    1.4646    0.3485   -5.8944 S   0  0  0  0  0  0  0  0  0  0  0  0
    1.4099    2.2101   -5.7470 C   0  0  0  0  0  0  0  0  0  0  0  0
    0.5434    0.0081   -4.5723 O   0  0  0  0  0  0  0  0  0  0  0  0
    2.8253   -0.0591   -5.5983 O   0  0  0  0  0  0  0  0  0  0  0  0
    0.7705   -0.0248   -7.1155 O   0  0  0  0  0  0  0  0  0  0  0  0
    0.1522    2.6374   -5.8910 F   0  0  0  0  0  0  0  0  0  0  0  0
    1.8755    2.5848   -4.5604 F   0  0  0  0  0  0  0  0  0  0  0  0
    2.1655    2.7246   -6.7148 F   0  0  0  0  0  0  0  0  0  0  0  0
   -4.0531   -2.5313   -4.8970 H   0  0  0  0  0  0  0  0  0  0  0  0
  1  2  1  0  0  0  0
  1  7  1  0  0  0  0
  2  8  1  0  0  0  0
  3 15  1  0  0  0  0
  3  2  2  0  0  0  0
  4  3  1  0  0  0  0
  5  4  2  0  0  0  0
  5  6  1  0  0  0  0
  6  1  2  0  0  0  0
  9  4  1  0  0  0  0
 10  5  1  0  0  0  0
 12 11  3  0  0  0  0
 13 14  1  0  0  0  0
 13 16  2  0  0  0  0
 13 15  1  0  0  0  0
 14 19  1  0  0  0  0
 17 13  2  0  0  0  0
 18 14  1  0  0  0  0
 20 14  1  0  0  0  0
 21  6  1  0  0  0  0
M  END
