Coordinates from ORCA-job Ph-N2-OTf-B3LYPG-6-31G_dp-MTMO-d009-169-n800
 OpenBabel09051908113D

 21 19  0  0  0  0  0  0  0  0999 V2000
   -1.7898   -0.9952   -5.4980 C   0  0  0  0  0  0  0  0  0  0  0  0
   -0.7208   -0.0966   -5.2682 C   0  0  0  0  0  0  0  0  0  0  0  0
   -1.2009    1.1529   -5.1700 C   0  0  0  0  0  0  0  0  0  0  0  0
   -2.4184    1.7588   -5.2416 C   0  0  0  0  0  0  0  0  0  0  0  0
   -3.4276    0.8065   -5.4783 C   0  0  0  0  0  0  0  0  0  0  0  0
   -3.1095   -0.5498   -5.6028 C   0  0  0  0  0  0  0  0  0  0  0  0
   -1.5445   -2.0480   -5.5995 H   0  0  0  0  0  0  0  0  0  0  0  0
    0.3455   -0.4082   -5.1932 H   0  0  0  0  0  0  0  0  0  0  0  0
   -2.6059    2.8183   -5.1356 H   0  0  0  0  0  0  0  0  0  0  0  0
   -4.4528    1.1530   -5.5619 H   0  0  0  0  0  0  0  0  0  0  0  0
    0.1778    2.5179   -4.7680 N   0  0  0  0  0  0  0  0  0  0  0  0
    0.6126    3.4391   -4.3374 N   0  0  0  0  0  0  0  0  0  0  0  0
    2.7092    0.5396   -5.5303 S   0  0  0  0  0  0  0  0  0  0  0  0
    3.8657   -0.0465   -6.8619 C   0  0  0  0  0  0  0  0  0  0  0  0
    1.7438    1.4038   -6.2774 O   0  0  0  0  0  0  0  0  0  0  0  0
    3.5505    1.2335   -4.5478 O   0  0  0  0  0  0  0  0  0  0  0  0
    2.0664   -0.7258   -5.0507 O   0  0  0  0  0  0  0  0  0  0  0  0
    3.1892   -0.7166   -7.8070 F   0  0  0  0  0  0  0  0  0  0  0  0
    4.4781    0.9971   -7.4360 F   0  0  0  0  0  0  0  0  0  0  0  0
    4.7952   -0.8595   -6.3454 F   0  0  0  0  0  0  0  0  0  0  0  0
   -3.9022   -1.2673   -5.7867 H   0  0  0  0  0  0  0  0  0  0  0  0
  1  2  1  0  0  0  0
  2  8  1  0  0  0  0
  2  3  2  0  0  0  0
  4  3  1  0  0  0  0
  4  9  1  0  0  0  0
  5  4  2  0  0  0  0
  6  1  2  0  0  0  0
  6  5  1  0  0  0  0
  7  1  1  0  0  0  0
 10  5  1  0  0  0  0
 11 12  3  0  0  0  0
 13 17  2  0  0  0  0
 13 16  1  0  0  0  0
 14 20  1  0  0  0  0
 14 13  1  0  0  0  0
 15 13  2  0  0  0  0
 18 14  1  0  0  0  0
 19 14  1  0  0  0  0
 21  6  1  0  0  0  0
M  RAD  2   3   2  16   2
M  END
