Coordinates from ORCA-job Ph-N2-OTf-B3LYPG-6-31G_dp-MTMO-d009-169-n800
 OpenBabel09051908113D

 21 20  0  0  0  0  0  0  0  0999 V2000
   -1.8068   -2.5155   -4.5880 C   0  0  0  0  0  0  0  0  0  0  0  0
   -0.5755   -1.8607   -4.5334 C   0  0  0  0  0  0  0  0  0  0  0  0
   -0.5312   -0.5008   -4.8226 C   0  0  0  0  0  0  0  0  0  0  0  0
   -1.6694    0.2231   -5.1630 C   0  0  0  0  0  0  0  0  0  0  0  0
   -2.8926   -0.4458   -5.2173 C   0  0  0  0  0  0  0  0  0  0  0  0
   -2.9631   -1.8109   -4.9302 C   0  0  0  0  0  0  0  0  0  0  0  0
   -1.8599   -3.5756   -4.3606 H   0  0  0  0  0  0  0  0  0  0  0  0
    0.3364   -2.3823   -4.2638 H   0  0  0  0  0  0  0  0  0  0  0  0
   -1.5917    1.2820   -5.3799 H   0  0  0  0  0  0  0  0  0  0  0  0
   -3.7906    0.1031   -5.4832 H   0  0  0  0  0  0  0  0  0  0  0  0
    5.0436    5.9717   -8.6252 N   0  0  0  0  0  0  0  0  0  0  0  0
    5.8652    6.5433   -9.0943 N   0  0  0  0  0  0  0  0  0  0  0  0
    1.6392    0.4667   -5.9973 S   0  0  0  0  0  0  0  0  0  0  0  0
    1.6126    2.3314   -5.8854 C   0  0  0  0  0  0  0  0  0  0  0  0
    0.7059    0.1664   -4.6740 O   0  0  0  0  0  0  0  0  0  0  0  0
    2.9918    0.0436   -5.6864 O   0  0  0  0  0  0  0  0  0  0  0  0
    0.9455    0.0808   -7.2148 O   0  0  0  0  0  0  0  0  0  0  0  0
    0.3619    2.7748   -6.0423 F   0  0  0  0  0  0  0  0  0  0  0  0
    2.0792    2.7209   -4.7039 F   0  0  0  0  0  0  0  0  0  0  0  0
    2.3795    2.8158   -6.8593 F   0  0  0  0  0  0  0  0  0  0  0  0
   -3.9185   -2.3250   -4.9727 H   0  0  0  0  0  0  0  0  0  0  0  0
  1  2  1  0  0  0  0
  1  7  1  0  0  0  0
  2  8  1  0  0  0  0
  3 15  1  0  0  0  0
  3  2  2  0  0  0  0
  4  3  1  0  0  0  0
  5  4  2  0  0  0  0
  5  6  1  0  0  0  0
  6  1  2  0  0  0  0
  9  4  1  0  0  0  0
 10  5  1  0  0  0  0
 12 11  3  0  0  0  0
 13 14  1  0  0  0  0
 13 16  2  0  0  0  0
 13 15  1  0  0  0  0
 14 19  1  0  0  0  0
 17 13  2  0  0  0  0
 18 14  1  0  0  0  0
 20 14  1  0  0  0  0
 21  6  1  0  0  0  0
M  END
