Coordinates from ORCA-job Ph-N2-OTf-B3LYPG-6-31G_dp-MTMO-d009-169-n800
 OpenBabel09051908113D

 21 20  0  0  0  0  0  0  0  0999 V2000
   -1.7531   -2.3233   -4.4425 C   0  0  0  0  0  0  0  0  0  0  0  0
   -0.5085   -1.6926   -4.4725 C   0  0  0  0  0  0  0  0  0  0  0  0
   -0.4440   -0.3678   -4.8918 C   0  0  0  0  0  0  0  0  0  0  0  0
   -1.5741    0.3445   -5.2796 C   0  0  0  0  0  0  0  0  0  0  0  0
   -2.8113   -0.2996   -5.2456 C   0  0  0  0  0  0  0  0  0  0  0  0
   -2.9022   -1.6296   -4.8285 C   0  0  0  0  0  0  0  0  0  0  0  0
   -1.8221   -3.3559   -4.1156 H   0  0  0  0  0  0  0  0  0  0  0  0
    0.3982   -2.2056   -4.1708 H   0  0  0  0  0  0  0  0  0  0  0  0
   -1.4783    1.3754   -5.5993 H   0  0  0  0  0  0  0  0  0  0  0  0
   -3.7038    0.2404   -5.5457 H   0  0  0  0  0  0  0  0  0  0  0  0
    4.1395    5.3268   -7.5797 N   0  0  0  0  0  0  0  0  0  0  0  0
    4.8077    6.1607   -7.8615 N   0  0  0  0  0  0  0  0  0  0  0  0
    1.7482    0.3661   -6.1854 S   0  0  0  0  0  0  0  0  0  0  0  0
    1.7932    2.2289   -6.3372 C   0  0  0  0  0  0  0  0  0  0  0  0
    0.8064    0.2895   -4.8356 O   0  0  0  0  0  0  0  0  0  0  0  0
    3.0849   -0.0610   -5.8154 O   0  0  0  0  0  0  0  0  0  0  0  0
    1.0367   -0.1606   -7.3380 O   0  0  0  0  0  0  0  0  0  0  0  0
    0.5556    2.6946   -6.5295 F   0  0  0  0  0  0  0  0  0  0  0  0
    2.3049    2.7615   -5.2334 F   0  0  0  0  0  0  0  0  0  0  0  0
    2.5517    2.5395   -7.3861 F   0  0  0  0  0  0  0  0  0  0  0  0
   -3.8681   -2.1248   -4.8038 H   0  0  0  0  0  0  0  0  0  0  0  0
  1  7  1  0  0  0  0
  2  1  1  0  0  0  0
  2  8  1  0  0  0  0
  3 15  1  0  0  0  0
  3  2  2  0  0  0  0
  4  5  2  0  0  0  0
  4  3  1  0  0  0  0
  5  6  1  0  0  0  0
  6 21  1  0  0  0  0
  6  1  2  0  0  0  0
  9  4  1  0  0  0  0
 10  5  1  0  0  0  0
 12 11  3  0  0  0  0
 13 16  2  0  0  0  0
 13 15  1  0  0  0  0
 14 13  1  0  0  0  0
 14 19  1  0  0  0  0
 17 13  2  0  0  0  0
 18 14  1  0  0  0  0
 20 14  1  0  0  0  0
M  END
