Coordinates from ORCA-job Ph-N2-OTf-B3LYPG-6-31G_dp-MTMO-d009-169-n800
 OpenBabel09051908113D

 21 20  0  0  0  0  0  0  0  0999 V2000
   -1.8993   -2.6513   -4.5527 C   0  0  0  0  0  0  0  0  0  0  0  0
   -0.6733   -1.9873   -4.4914 C   0  0  0  0  0  0  0  0  0  0  0  0
   -0.6418   -0.6219   -4.7551 C   0  0  0  0  0  0  0  0  0  0  0  0
   -1.7875    0.0987   -5.0766 C   0  0  0  0  0  0  0  0  0  0  0  0
   -3.0054   -0.5794   -5.1380 C   0  0  0  0  0  0  0  0  0  0  0  0
   -3.0631   -1.9502   -4.8763 C   0  0  0  0  0  0  0  0  0  0  0  0
   -1.9425   -3.7159   -4.3450 H   0  0  0  0  0  0  0  0  0  0  0  0
    0.2441   -2.5062   -4.2357 H   0  0  0  0  0  0  0  0  0  0  0  0
   -1.7196    1.1620   -5.2740 H   0  0  0  0  0  0  0  0  0  0  0  0
   -3.9091   -0.0332   -5.3894 H   0  0  0  0  0  0  0  0  0  0  0  0
    6.1250    7.0410   -9.3615 N   0  0  0  0  0  0  0  0  0  0  0  0
    6.9974    7.6023   -9.7430 N   0  0  0  0  0  0  0  0  0  0  0  0
    1.5162    0.3840   -5.9207 S   0  0  0  0  0  0  0  0  0  0  0  0
    1.4696    2.2463   -5.7806 C   0  0  0  0  0  0  0  0  0  0  0  0
    0.5903    0.0531   -4.5994 O   0  0  0  0  0  0  0  0  0  0  0  0
    2.8743   -0.0286   -5.6199 O   0  0  0  0  0  0  0  0  0  0  0  0
    0.8231    0.0091   -7.1420 O   0  0  0  0  0  0  0  0  0  0  0  0
    0.2140    2.6787   -5.9286 F   0  0  0  0  0  0  0  0  0  0  0  0
    1.9345    2.6235   -4.5946 F   0  0  0  0  0  0  0  0  0  0  0  0
    2.2292    2.7537   -6.7489 F   0  0  0  0  0  0  0  0  0  0  0  0
   -4.0144   -2.4714   -4.9241 H   0  0  0  0  0  0  0  0  0  0  0  0
  1  2  1  0  0  0  0
  1  7  1  0  0  0  0
  2  8  1  0  0  0  0
  3 15  1  0  0  0  0
  3  2  2  0  0  0  0
  4  3  1  0  0  0  0
  5  4  2  0  0  0  0
  5  6  1  0  0  0  0
  6  1  2  0  0  0  0
  9  4  1  0  0  0  0
 10  5  1  0  0  0  0
 12 11  3  0  0  0  0
 13 14  1  0  0  0  0
 13 16  2  0  0  0  0
 13 15  1  0  0  0  0
 14 19  1  0  0  0  0
 17 13  2  0  0  0  0
 18 14  1  0  0  0  0
 20 14  1  0  0  0  0
 21  6  1  0  0  0  0
M  END
