Coordinates from ORCA-job Ph-N2-OTf-B3LYPG-6-31G_dp-MTMO-d009-169-n800
 OpenBabel09051908113D

 21 19  0  0  0  0  0  0  0  0999 V2000
   -1.5148   -0.9633   -5.4981 C   0  0  0  0  0  0  0  0  0  0  0  0
   -0.5871    0.0473   -5.1060 C   0  0  0  0  0  0  0  0  0  0  0  0
   -1.2318    1.1944   -5.1094 C   0  0  0  0  0  0  0  0  0  0  0  0
   -2.4548    1.7188   -5.3552 C   0  0  0  0  0  0  0  0  0  0  0  0
   -3.3127    0.6631   -5.7388 C   0  0  0  0  0  0  0  0  0  0  0  0
   -2.8416   -0.6537   -5.8039 C   0  0  0  0  0  0  0  0  0  0  0  0
   -1.1403   -1.9810   -5.5609 H   0  0  0  0  0  0  0  0  0  0  0  0
    0.5353   -0.1812   -4.8974 H   0  0  0  0  0  0  0  0  0  0  0  0
   -2.7550    2.7542   -5.2830 H   0  0  0  0  0  0  0  0  0  0  0  0
   -4.3430    0.9068   -5.9793 H   0  0  0  0  0  0  0  0  0  0  0  0
    0.0060    2.9104   -4.3688 N   0  0  0  0  0  0  0  0  0  0  0  0
    0.6198    3.7316   -3.9601 N   0  0  0  0  0  0  0  0  0  0  0  0
    2.8263    0.6275   -5.4077 S   0  0  0  0  0  0  0  0  0  0  0  0
    3.4104   -0.2076   -6.9599 C   0  0  0  0  0  0  0  0  0  0  0  0
    1.9601    1.7259   -5.8902 O   0  0  0  0  0  0  0  0  0  0  0  0
    4.0405    0.9821   -4.6731 O   0  0  0  0  0  0  0  0  0  0  0  0
    2.0109   -0.4724   -4.7466 O   0  0  0  0  0  0  0  0  0  0  0  0
    2.3566   -0.6263   -7.6832 F   0  0  0  0  0  0  0  0  0  0  0  0
    4.1233    0.6455   -7.7049 F   0  0  0  0  0  0  0  0  0  0  0  0
    4.1729   -1.2682   -6.6701 F   0  0  0  0  0  0  0  0  0  0  0  0
   -3.5193   -1.4470   -6.1009 H   0  0  0  0  0  0  0  0  0  0  0  0
  1  2  2  0  0  0  0
  2  8  1  0  0  0  0
  3  2  1  0  0  0  0
  4  9  1  0  0  0  0
  4  3  2  0  0  0  0
  5  4  1  0  0  0  0
  6  5  2  0  0  0  0
  6  1  1  0  0  0  0
  7  1  1  0  0  0  0
 10  5  1  0  0  0  0
 11 12  3  0  0  0  0
 13 17  2  0  0  0  0
 13 16  1  0  0  0  0
 14 20  1  0  0  0  0
 14 13  1  0  0  0  0
 15 13  2  0  0  0  0
 18 14  1  0  0  0  0
 19 14  1  0  0  0  0
 21  6  1  0  0  0  0
M  RAD  2   3   2  16   2
M  END
