Coordinates from ORCA-job Ph-N2-OTf-B3LYPG-6-31G_dp-MTMO-d009-169-n800
 OpenBabel09051908113D

 21 20  0  0  0  0  0  0  0  0999 V2000
   -1.8545   -2.5908   -4.5749 C   0  0  0  0  0  0  0  0  0  0  0  0
   -0.6268   -1.9298   -4.5142 C   0  0  0  0  0  0  0  0  0  0  0  0
   -0.5907   -0.5662   -4.7863 C   0  0  0  0  0  0  0  0  0  0  0  0
   -1.7336    0.1556   -5.1154 C   0  0  0  0  0  0  0  0  0  0  0  0
   -2.9531   -0.5194   -5.1760 C   0  0  0  0  0  0  0  0  0  0  0  0
   -3.0154   -1.8884   -4.9061 C   0  0  0  0  0  0  0  0  0  0  0  0
   -1.9013   -3.6539   -4.3608 H   0  0  0  0  0  0  0  0  0  0  0  0
    0.2885   -2.4497   -4.2529 H   0  0  0  0  0  0  0  0  0  0  0  0
   -1.6621    1.2176   -5.3191 H   0  0  0  0  0  0  0  0  0  0  0  0
   -3.8546    0.0278   -5.4334 H   0  0  0  0  0  0  0  0  0  0  0  0
    5.6220    6.5456   -9.0272 N   0  0  0  0  0  0  0  0  0  0  0  0
    6.4802    7.0904   -9.4611 N   0  0  0  0  0  0  0  0  0  0  0  0
    1.5725    0.4277   -5.9523 S   0  0  0  0  0  0  0  0  0  0  0  0
    1.5334    2.2907   -5.8193 C   0  0  0  0  0  0  0  0  0  0  0  0
    0.6428    0.1063   -4.6313 O   0  0  0  0  0  0  0  0  0  0  0  0
    2.9283    0.0103   -5.6478 O   0  0  0  0  0  0  0  0  0  0  0  0
    0.8800    0.0510   -7.1733 O   0  0  0  0  0  0  0  0  0  0  0  0
    0.2797    2.7275   -5.9705 F   0  0  0  0  0  0  0  0  0  0  0  0
    1.9983    2.6705   -4.6340 F   0  0  0  0  0  0  0  0  0  0  0  0
    2.2962    2.7914   -6.7885 F   0  0  0  0  0  0  0  0  0  0  0  0
   -3.9680   -2.4072   -4.9534 H   0  0  0  0  0  0  0  0  0  0  0  0
  1  2  1  0  0  0  0
  1  7  1  0  0  0  0
  2  8  1  0  0  0  0
  3 15  1  0  0  0  0
  3  2  2  0  0  0  0
  4  3  1  0  0  0  0
  5  4  2  0  0  0  0
  5  6  1  0  0  0  0
  6  1  2  0  0  0  0
  9  4  1  0  0  0  0
 10  5  1  0  0  0  0
 12 11  3  0  0  0  0
 13 14  1  0  0  0  0
 13 16  2  0  0  0  0
 13 15  1  0  0  0  0
 14 19  1  0  0  0  0
 17 13  2  0  0  0  0
 18 14  1  0  0  0  0
 20 14  1  0  0  0  0
 21  6  1  0  0  0  0
M  END
