Coordinates from ORCA-job Ph-N2-OTf-B3LYPG-6-31G_dp-MTMO-d009-169-n800
 OpenBabel09051908113D

 21 20  0  0  0  0  0  0  0  0999 V2000
   -1.8690   -1.6121   -4.8400 C   0  0  0  0  0  0  0  0  0  0  0  0
   -0.5704   -1.1686   -4.5851 C   0  0  0  0  0  0  0  0  0  0  0  0
   -0.2036    0.0981   -5.0304 C   0  0  0  0  0  0  0  0  0  0  0  0
   -1.0885    0.9337   -5.7057 C   0  0  0  0  0  0  0  0  0  0  0  0
   -2.3862    0.4786   -5.9433 C   0  0  0  0  0  0  0  0  0  0  0  0
   -2.7760   -0.7925   -5.5153 C   0  0  0  0  0  0  0  0  0  0  0  0
   -2.1704   -2.5991   -4.5041 H   0  0  0  0  0  0  0  0  0  0  0  0
    0.1455   -1.7888   -4.0590 H   0  0  0  0  0  0  0  0  0  0  0  0
   -0.7615    1.9162   -6.0252 H   0  0  0  0  0  0  0  0  0  0  0  0
   -3.0908    1.1200   -6.4636 H   0  0  0  0  0  0  0  0  0  0  0  0
    0.5132    4.4065   -5.7371 N   0  0  0  0  0  0  0  0  0  0  0  0
    0.8862    5.2947   -5.1959 N   0  0  0  0  0  0  0  0  0  0  0  0
    2.4299    0.0079   -5.4083 S   0  0  0  0  0  0  0  0  0  0  0  0
    2.5501    1.1330   -6.8965 C   0  0  0  0  0  0  0  0  0  0  0  0
    1.0721    0.6209   -4.7165 O   0  0  0  0  0  0  0  0  0  0  0  0
    3.5171    0.3593   -4.5166 O   0  0  0  0  0  0  0  0  0  0  0  0
    2.2024   -1.3396   -5.9026 O   0  0  0  0  0  0  0  0  0  0  0  0
    1.4629    0.9898   -7.6555 F   0  0  0  0  0  0  0  0  0  0  0  0
    2.6523    2.3985   -6.4963 F   0  0  0  0  0  0  0  0  0  0  0  0
    3.6317    0.7932   -7.5941 F   0  0  0  0  0  0  0  0  0  0  0  0
   -3.7855   -1.1429   -5.7063 H   0  0  0  0  0  0  0  0  0  0  0  0
  1  2  1  0  0  0  0
  1  7  1  0  0  0  0
  2  8  1  0  0  0  0
  3 15  1  0  0  0  0
  3  2  2  0  0  0  0
  4  3  1  0  0  0  0
  5  4  2  0  0  0  0
  5  6  1  0  0  0  0
  6  1  2  0  0  0  0
  9  4  1  0  0  0  0
 10  5  1  0  0  0  0
 11 12  3  0  0  0  0
 13 15  1  0  0  0  0
 13 16  2  0  0  0  0
 14 19  1  0  0  0  0
 14 13  1  0  0  0  0
 17 13  2  0  0  0  0
 18 14  1  0  0  0  0
 20 14  1  0  0  0  0
 21  6  1  0  0  0  0
M  END
