Coordinates from ORCA-job Ph-N2-OTf-B3LYPG-6-31G_dp-MTMO-d009-169-n800
 OpenBabel09051908113D

 21 20  0  0  0  0  0  0  0  0999 V2000
   -1.8639   -2.0630   -5.1015 C   0  0  0  0  0  0  0  0  0  0  0  0
   -0.5447   -1.6548   -4.9000 C   0  0  0  0  0  0  0  0  0  0  0  0
   -0.2824   -0.2930   -4.7825 C   0  0  0  0  0  0  0  0  0  0  0  0
   -1.2903    0.6644   -4.8486 C   0  0  0  0  0  0  0  0  0  0  0  0
   -2.6056    0.2395   -5.0400 C   0  0  0  0  0  0  0  0  0  0  0  0
   -2.8926   -1.1211   -5.1699 C   0  0  0  0  0  0  0  0  0  0  0  0
   -2.0855   -3.1211   -5.2017 H   0  0  0  0  0  0  0  0  0  0  0  0
    0.2655   -2.3718   -4.8377 H   0  0  0  0  0  0  0  0  0  0  0  0
   -1.0404    1.7145   -4.7457 H   0  0  0  0  0  0  0  0  0  0  0  0
   -3.4038    0.9738   -5.0891 H   0  0  0  0  0  0  0  0  0  0  0  0
    2.4770    4.9529   -7.7014 N   0  0  0  0  0  0  0  0  0  0  0  0
    2.7308    5.9063   -8.1989 N   0  0  0  0  0  0  0  0  0  0  0  0
    2.2165    0.0677   -5.6237 S   0  0  0  0  0  0  0  0  0  0  0  0
    2.0828    1.7916   -6.3405 C   0  0  0  0  0  0  0  0  0  0  0  0
    1.0256    0.1553   -4.4921 O   0  0  0  0  0  0  0  0  0  0  0  0
    3.4610    0.0090   -4.8829 O   0  0  0  0  0  0  0  0  0  0  0  0
    1.8655   -0.8710   -6.6761 O   0  0  0  0  0  0  0  0  0  0  0  0
    0.8726    1.9603   -6.8766 F   0  0  0  0  0  0  0  0  0  0  0  0
    2.2764    2.6924   -5.3824 F   0  0  0  0  0  0  0  0  0  0  0  0
    3.0138    1.9222   -7.2824 F   0  0  0  0  0  0  0  0  0  0  0  0
   -3.9166   -1.4472   -5.3237 H   0  0  0  0  0  0  0  0  0  0  0  0
  1  2  1  0  0  0  0
  2  8  1  0  0  0  0
  2  3  2  0  0  0  0
  3 15  1  0  0  0  0
  4  3  1  0  0  0  0
  4  9  1  0  0  0  0
  5  4  2  0  0  0  0
  6  1  2  0  0  0  0
  6  5  1  0  0  0  0
  7  1  1  0  0  0  0
 10  5  1  0  0  0  0
 12 11  3  0  0  0  0
 13 16  2  0  0  0  0
 13 15  1  0  0  0  0
 14 13  1  0  0  0  0
 14 19  1  0  0  0  0
 17 13  2  0  0  0  0
 18 14  1  0  0  0  0
 20 14  1  0  0  0  0
 21  6  1  0  0  0  0
M  END
