Coordinates from ORCA-job Ph-N2-OTf-B3LYPG-6-31G_dp-MTMO-d009-169-n800
 OpenBabel09051908113D

 21 20  0  0  0  0  0  0  0  0999 V2000
   -1.8815   -2.6277   -4.5628 C   0  0  0  0  0  0  0  0  0  0  0  0
   -0.6549   -1.9649   -4.5011 C   0  0  0  0  0  0  0  0  0  0  0  0
   -0.6215   -0.6000   -4.7673 C   0  0  0  0  0  0  0  0  0  0  0  0
   -1.7661    0.1212   -5.0917 C   0  0  0  0  0  0  0  0  0  0  0  0
   -2.9846   -0.5558   -5.1533 C   0  0  0  0  0  0  0  0  0  0  0  0
   -3.0441   -1.9260   -4.8892 C   0  0  0  0  0  0  0  0  0  0  0  0
   -1.9261   -3.6919   -4.3531 H   0  0  0  0  0  0  0  0  0  0  0  0
    0.2617   -2.4843   -4.2433 H   0  0  0  0  0  0  0  0  0  0  0  0
   -1.6968    1.1841   -5.2909 H   0  0  0  0  0  0  0  0  0  0  0  0
   -3.8875   -0.0091   -5.4070 H   0  0  0  0  0  0  0  0  0  0  0  0
    5.9260    6.8459   -9.2281 N   0  0  0  0  0  0  0  0  0  0  0  0
    6.7929    7.3960   -9.6375 N   0  0  0  0  0  0  0  0  0  0  0  0
    1.5386    0.4020   -5.9321 S   0  0  0  0  0  0  0  0  0  0  0  0
    1.4944    2.2646   -5.7942 C   0  0  0  0  0  0  0  0  0  0  0  0
    0.6111    0.0738   -4.6114 O   0  0  0  0  0  0  0  0  0  0  0  0
    2.8959   -0.0121   -5.6296 O   0  0  0  0  0  0  0  0  0  0  0  0
    0.8462    0.0267   -7.1536 O   0  0  0  0  0  0  0  0  0  0  0  0
    0.2395    2.6984   -5.9436 F   0  0  0  0  0  0  0  0  0  0  0  0
    1.9589    2.6424   -4.6082 F   0  0  0  0  0  0  0  0  0  0  0  0
    2.2554    2.7699   -6.7624 F   0  0  0  0  0  0  0  0  0  0  0  0
   -3.9959   -2.4463   -4.9372 H   0  0  0  0  0  0  0  0  0  0  0  0
  1  2  1  0  0  0  0
  1  7  1  0  0  0  0
  2  8  1  0  0  0  0
  3 15  1  0  0  0  0
  3  2  2  0  0  0  0
  4  3  1  0  0  0  0
  5  4  2  0  0  0  0
  5  6  1  0  0  0  0
  6  1  2  0  0  0  0
  9  4  1  0  0  0  0
 10  5  1  0  0  0  0
 12 11  3  0  0  0  0
 13 14  1  0  0  0  0
 13 16  2  0  0  0  0
 13 15  1  0  0  0  0
 14 19  1  0  0  0  0
 17 13  2  0  0  0  0
 18 14  1  0  0  0  0
 20 14  1  0  0  0  0
 21  6  1  0  0  0  0
M  END
