Coordinates from ORCA-job Ph-N2-OTf-B3LYPG-6-31G_dp-MTMO-d009-169-n800
 OpenBabel09051908113D

 21 20  0  0  0  0  0  0  0  0999 V2000
   -1.8554   -2.0735   -5.1092 C   0  0  0  0  0  0  0  0  0  0  0  0
   -0.5387   -1.6564   -4.9099 C   0  0  0  0  0  0  0  0  0  0  0  0
   -0.2884   -0.2939   -4.7748 C   0  0  0  0  0  0  0  0  0  0  0  0
   -1.3056    0.6549   -4.8207 C   0  0  0  0  0  0  0  0  0  0  0  0
   -2.6182    0.2207   -5.0096 C   0  0  0  0  0  0  0  0  0  0  0  0
   -2.8933   -1.1405   -5.1575 C   0  0  0  0  0  0  0  0  0  0  0  0
   -2.0679   -3.1322   -5.2232 H   0  0  0  0  0  0  0  0  0  0  0  0
    0.2785   -2.3664   -4.8639 H   0  0  0  0  0  0  0  0  0  0  0  0
   -1.0645    1.7057   -4.7034 H   0  0  0  0  0  0  0  0  0  0  0  0
   -3.4234    0.9481   -5.0428 H   0  0  0  0  0  0  0  0  0  0  0  0
    2.6103    4.9963   -7.7071 N   0  0  0  0  0  0  0  0  0  0  0  0
    2.8942    5.9506   -8.1864 N   0  0  0  0  0  0  0  0  0  0  0  0
    2.2094    0.0856   -5.6157 S   0  0  0  0  0  0  0  0  0  0  0  0
    2.0258    1.7852   -6.3775 C   0  0  0  0  0  0  0  0  0  0  0  0
    1.0162    0.1658   -4.4866 O   0  0  0  0  0  0  0  0  0  0  0  0
    3.4533    0.0812   -4.8717 O   0  0  0  0  0  0  0  0  0  0  0  0
    1.8885   -0.8892   -6.6446 O   0  0  0  0  0  0  0  0  0  0  0  0
    0.8132    1.9009   -6.9221 F   0  0  0  0  0  0  0  0  0  0  0  0
    2.1864    2.7165   -5.4424 F   0  0  0  0  0  0  0  0  0  0  0  0
    2.9564    1.9214   -7.3190 F   0  0  0  0  0  0  0  0  0  0  0  0
   -3.9152   -1.4740   -5.3095 H   0  0  0  0  0  0  0  0  0  0  0  0
  1  2  1  0  0  0  0
  2  8  1  0  0  0  0
  2  3  2  0  0  0  0
  3 15  1  0  0  0  0
  4  3  1  0  0  0  0
  4  9  1  0  0  0  0
  5  4  2  0  0  0  0
  6  1  2  0  0  0  0
  6  5  1  0  0  0  0
  7  1  1  0  0  0  0
 10  5  1  0  0  0  0
 12 11  3  0  0  0  0
 13 16  2  0  0  0  0
 13 15  1  0  0  0  0
 14 13  1  0  0  0  0
 14 19  1  0  0  0  0
 17 13  2  0  0  0  0
 18 14  1  0  0  0  0
 20 14  1  0  0  0  0
 21  6  1  0  0  0  0
M  END
