Coordinates from ORCA-job Ph-N2-OTf-B3LYPG-6-31G_dp-MTMO-d009-169-n800
 OpenBabel09051908113D

 21 20  0  0  0  0  0  0  0  0999 V2000
   -1.7803   -2.4737   -4.5854 C   0  0  0  0  0  0  0  0  0  0  0  0
   -0.5475   -1.8211   -4.5388 C   0  0  0  0  0  0  0  0  0  0  0  0
   -0.5004   -0.4648   -4.8440 C   0  0  0  0  0  0  0  0  0  0  0  0
   -1.6369    0.2577   -5.1926 C   0  0  0  0  0  0  0  0  0  0  0  0
   -2.8617   -0.4091   -5.2387 C   0  0  0  0  0  0  0  0  0  0  0  0
   -2.9351   -1.7705   -4.9356 C   0  0  0  0  0  0  0  0  0  0  0  0
   -1.8358   -3.5309   -4.3456 H   0  0  0  0  0  0  0  0  0  0  0  0
    0.3633   -2.3415   -4.2634 H   0  0  0  0  0  0  0  0  0  0  0  0
   -1.5567    1.3137   -5.4220 H   0  0  0  0  0  0  0  0  0  0  0  0
   -3.7585    0.1386   -5.5109 H   0  0  0  0  0  0  0  0  0  0  0  0
    4.7422    5.6589   -8.3978 N   0  0  0  0  0  0  0  0  0  0  0  0
    5.5342    6.2668   -8.8719 N   0  0  0  0  0  0  0  0  0  0  0  0
    1.6709    0.4863   -6.0313 S   0  0  0  0  0  0  0  0  0  0  0  0
    1.6583    2.3519   -5.9303 C   0  0  0  0  0  0  0  0  0  0  0  0
    0.7383    0.2016   -4.7038 O   0  0  0  0  0  0  0  0  0  0  0  0
    3.0211    0.0546   -5.7216 O   0  0  0  0  0  0  0  0  0  0  0  0
    0.9712    0.0982   -7.2447 O   0  0  0  0  0  0  0  0  0  0  0  0
    0.4105    2.8029   -6.0889 F   0  0  0  0  0  0  0  0  0  0  0  0
    2.1283    2.7446   -4.7512 F   0  0  0  0  0  0  0  0  0  0  0  0
    2.4280    2.8255   -6.9072 F   0  0  0  0  0  0  0  0  0  0  0  0
   -3.8917   -2.2829   -4.9717 H   0  0  0  0  0  0  0  0  0  0  0  0
  1  2  1  0  0  0  0
  1  7  1  0  0  0  0
  2  8  1  0  0  0  0
  3 15  1  0  0  0  0
  3  2  2  0  0  0  0
  4  3  1  0  0  0  0
  5  4  2  0  0  0  0
  5  6  1  0  0  0  0
  6  1  2  0  0  0  0
  9  4  1  0  0  0  0
 10  5  1  0  0  0  0
 12 11  3  0  0  0  0
 13 14  1  0  0  0  0
 13 16  2  0  0  0  0
 13 15  1  0  0  0  0
 14 19  1  0  0  0  0
 17 13  2  0  0  0  0
 18 14  1  0  0  0  0
 20 14  1  0  0  0  0
 21  6  1  0  0  0  0
M  END
