Coordinates from ORCA-job Ph-N2-OTf-B3LYPG-6-31G_dp-MTMO-d009-169-n800
 OpenBabel09051908113D

 21 20  0  0  0  0  0  0  0  0999 V2000
   -1.8654   -2.0462   -5.1363 C   0  0  0  0  0  0  0  0  0  0  0  0
   -0.5442   -1.6503   -4.9237 C   0  0  0  0  0  0  0  0  0  0  0  0
   -0.2746   -0.2928   -4.7767 C   0  0  0  0  0  0  0  0  0  0  0  0
   -1.2770    0.6715   -4.8238 C   0  0  0  0  0  0  0  0  0  0  0  0
   -2.5943    0.2586   -5.0262 C   0  0  0  0  0  0  0  0  0  0  0  0
   -2.8887   -1.0972   -5.1861 C   0  0  0  0  0  0  0  0  0  0  0  0
   -2.0929   -3.1006   -5.2597 H   0  0  0  0  0  0  0  0  0  0  0  0
    0.2618   -2.3729   -4.8761 H   0  0  0  0  0  0  0  0  0  0  0  0
   -1.0210    1.7177   -4.6970 H   0  0  0  0  0  0  0  0  0  0  0  0
   -3.3881    0.9983   -5.0605 H   0  0  0  0  0  0  0  0  0  0  0  0
    2.4159    4.9234   -7.7228 N   0  0  0  0  0  0  0  0  0  0  0  0
    2.6549    5.8765   -8.2283 N   0  0  0  0  0  0  0  0  0  0  0  0
    2.2328    0.0606   -5.5990 S   0  0  0  0  0  0  0  0  0  0  0  0
    2.0861    1.7763   -6.3329 C   0  0  0  0  0  0  0  0  0  0  0  0
    1.0348    0.1443   -4.4752 O   0  0  0  0  0  0  0  0  0  0  0  0
    3.4722    0.0205   -4.8488 O   0  0  0  0  0  0  0  0  0  0  0  0
    1.8993   -0.8907   -6.6459 O   0  0  0  0  0  0  0  0  0  0  0  0
    0.8825    1.9231   -6.8893 F   0  0  0  0  0  0  0  0  0  0  0  0
    2.2518    2.6880   -5.3796 F   0  0  0  0  0  0  0  0  0  0  0  0
    3.0302    1.9126   -7.2610 F   0  0  0  0  0  0  0  0  0  0  0  0
   -3.9142   -1.4142   -5.3486 H   0  0  0  0  0  0  0  0  0  0  0  0
  1  2  1  0  0  0  0
  2  8  1  0  0  0  0
  2  3  2  0  0  0  0
  3 15  1  0  0  0  0
  4  3  1  0  0  0  0
  4  9  1  0  0  0  0
  5  4  2  0  0  0  0
  6  1  2  0  0  0  0
  6  5  1  0  0  0  0
  7  1  1  0  0  0  0
 10  5  1  0  0  0  0
 12 11  3  0  0  0  0
 13 16  2  0  0  0  0
 13 15  1  0  0  0  0
 14 13  1  0  0  0  0
 14 19  1  0  0  0  0
 17 13  2  0  0  0  0
 18 14  1  0  0  0  0
 20 14  1  0  0  0  0
 21  6  1  0  0  0  0
M  END
