Coordinates from ORCA-job Ph-N2-OTf-B3LYPG-6-31G_dp-MTMO-d009-169-n800
 OpenBabel09051908113D

 21 19  0  0  0  0  0  0  0  0999 V2000
   -1.3488   -0.8933   -5.6145 C   0  0  0  0  0  0  0  0  0  0  0  0
   -0.6240    0.2257   -5.1220 C   0  0  0  0  0  0  0  0  0  0  0  0
   -1.3442    1.2719   -5.0616 C   0  0  0  0  0  0  0  0  0  0  0  0
   -2.6142    1.6866   -5.3219 C   0  0  0  0  0  0  0  0  0  0  0  0
   -3.3177    0.5607   -5.8098 C   0  0  0  0  0  0  0  0  0  0  0  0
   -2.6962   -0.6921   -5.9497 C   0  0  0  0  0  0  0  0  0  0  0  0
   -0.8819   -1.8669   -5.7322 H   0  0  0  0  0  0  0  0  0  0  0  0
    1.0496    0.0110   -4.7461 H   0  0  0  0  0  0  0  0  0  0  0  0
   -3.0413    2.6719   -5.1959 H   0  0  0  0  0  0  0  0  0  0  0  0
   -4.3621    0.6869   -6.0805 H   0  0  0  0  0  0  0  0  0  0  0  0
   -0.2452    3.2488   -4.2533 N   0  0  0  0  0  0  0  0  0  0  0  0
    0.6743    3.7362   -3.8812 N   0  0  0  0  0  0  0  0  0  0  0  0
    3.0233    0.6875   -5.3960 S   0  0  0  0  0  0  0  0  0  0  0  0
    3.1423   -0.3359   -6.9475 C   0  0  0  0  0  0  0  0  0  0  0  0
    2.3708    1.9355   -5.7775 O   0  0  0  0  0  0  0  0  0  0  0  0
    4.3276    0.6548   -4.7613 O   0  0  0  0  0  0  0  0  0  0  0  0
    2.0290   -0.2254   -4.5464 O   0  0  0  0  0  0  0  0  0  0  0  0
    1.9135   -0.5411   -7.4381 F   0  0  0  0  0  0  0  0  0  0  0  0
    3.8728    0.3215   -7.8481 F   0  0  0  0  0  0  0  0  0  0  0  0
    3.7114   -1.5105   -6.6833 F   0  0  0  0  0  0  0  0  0  0  0  0
   -3.2775   -1.5269   -6.3305 H   0  0  0  0  0  0  0  0  0  0  0  0
  1  2  2  0  0  0  0
  2  3  1  0  0  0  0
  4  9  1  0  0  0  0
  4  3  2  0  0  0  0
  5  4  1  0  0  0  0
  6  5  2  0  0  0  0
  6  1  1  0  0  0  0
  7  1  1  0  0  0  0
  8 17  1  0  0  0  0
 10  5  1  0  0  0  0
 11 12  3  0  0  0  0
 13 16  2  0  0  0  0
 13 17  1  0  0  0  0
 14 20  1  0  0  0  0
 14 13  1  0  0  0  0
 15 13  2  0  0  0  0
 18 14  1  0  0  0  0
 19 14  1  0  0  0  0
 21  6  1  0  0  0  0
M  RAD  2   2   2   3   2
M  END
