Coordinates from ORCA-job Ph-N2-OTf-B3LYPG-6-31G_dp-MTMO-d009-169-n800
 OpenBabel09051908113D

 21 20  0  0  0  0  0  0  0  0999 V2000
   -1.5210   -0.8587   -6.0081 C   0  0  0  0  0  0  0  0  0  0  0  0
   -0.5899   -0.0676   -5.3439 C   0  0  0  0  0  0  0  0  0  0  0  0
   -1.0413    1.1691   -4.8605 C   0  0  0  0  0  0  0  0  0  0  0  0
   -2.3518    1.6405   -5.0075 C   0  0  0  0  0  0  0  0  0  0  0  0
   -3.2535    0.8260   -5.6808 C   0  0  0  0  0  0  0  0  0  0  0  0
   -2.8374   -0.4160   -6.1770 C   0  0  0  0  0  0  0  0  0  0  0  0
   -1.2100   -1.8192   -6.4032 H   0  0  0  0  0  0  0  0  0  0  0  0
    0.4407   -0.3632   -5.1954 H   0  0  0  0  0  0  0  0  0  0  0  0
   -2.6359    2.6095   -4.6139 H   0  0  0  0  0  0  0  0  0  0  0  0
   -4.2765    1.1568   -5.8218 H   0  0  0  0  0  0  0  0  0  0  0  0
   -0.1150    1.9775   -4.1894 N   0  0  0  0  0  0  0  0  0  0  0  0
    0.8494    2.3594   -3.7566 N   0  0  0  0  0  0  0  0  0  0  0  0
    2.8605    1.2474   -5.7035 S   0  0  0  0  0  0  0  0  0  0  0  0
    3.2707   -0.4012   -6.4678 C   0  0  0  0  0  0  0  0  0  0  0  0
    1.7288    1.7537   -6.5131 O   0  0  0  0  0  0  0  0  0  0  0  0
    4.1165    1.9980   -5.7347 O   0  0  0  0  0  0  0  0  0  0  0  0
    2.3959    0.8141   -4.3256 O   0  0  0  0  0  0  0  0  0  0  0  0
    2.1824   -1.2119   -6.4564 F   0  0  0  0  0  0  0  0  0  0  0  0
    3.6505   -0.2467   -7.7399 F   0  0  0  0  0  0  0  0  0  0  0  0
    4.2477   -1.0160   -5.7956 F   0  0  0  0  0  0  0  0  0  0  0  0
   -3.5492   -1.0447   -6.7029 H   0  0  0  0  0  0  0  0  0  0  0  0
  1  2  1  0  0  0  0
  2  8  1  0  0  0  0
  2  3  2  0  0  0  0
  3 11  1  0  0  0  0
  4  3  1  0  0  0  0
  4  9  1  0  0  0  0
  5  4  2  0  0  0  0
  6  1  2  0  0  0  0
  6  5  1  0  0  0  0
  7  1  1  0  0  0  0
 10  5  1  0  0  0  0
 11 12  1  0  0  0  0
 13 17  1  0  0  0  0
 14 18  1  0  0  0  0
 14 20  1  0  0  0  0
 14 13  1  0  0  0  0
 15 13  2  0  0  0  0
 16 13  2  0  0  0  0
 19 14  1  0  0  0  0
 21  6  1  0  0  0  0
M  RAD  3  11   2  12   3  17   2
M  END
