Coordinates from ORCA-job Ph-N2-OTf-B3LYPG-6-31G_dp-MTMO-d009-169-n800
 OpenBabel09051908113D

 21 19  0  0  0  0  0  0  0  0999 V2000
   -1.5799   -1.1581   -5.5013 C   0  0  0  0  0  0  0  0  0  0  0  0
   -0.7000   -0.0863   -5.2140 C   0  0  0  0  0  0  0  0  0  0  0  0
   -1.2462    1.0528   -5.2443 C   0  0  0  0  0  0  0  0  0  0  0  0
   -2.4650    1.6130   -5.4782 C   0  0  0  0  0  0  0  0  0  0  0  0
   -3.3429    0.5388   -5.7675 C   0  0  0  0  0  0  0  0  0  0  0  0
   -2.9103   -0.7988   -5.7770 C   0  0  0  0  0  0  0  0  0  0  0  0
   -1.2596   -2.1955   -5.5133 H   0  0  0  0  0  0  0  0  0  0  0  0
    1.0499   -0.3563   -4.8824 H   0  0  0  0  0  0  0  0  0  0  0  0
   -2.7537    2.6546   -5.4574 H   0  0  0  0  0  0  0  0  0  0  0  0
   -4.3807    0.7752   -5.9874 H   0  0  0  0  0  0  0  0  0  0  0  0
   -0.0210    3.7522   -4.4747 N   0  0  0  0  0  0  0  0  0  0  0  0
    0.7908    4.3897   -4.0808 N   0  0  0  0  0  0  0  0  0  0  0  0
    3.0050    0.5279   -5.2454 S   0  0  0  0  0  0  0  0  0  0  0  0
    3.2604   -0.0476   -6.9984 C   0  0  0  0  0  0  0  0  0  0  0  0
    2.3041    1.8043   -5.3267 O   0  0  0  0  0  0  0  0  0  0  0  0
    4.2715    0.3744   -4.5559 O   0  0  0  0  0  0  0  0  0  0  0  0
    2.0159   -0.6186   -4.7274 O   0  0  0  0  0  0  0  0  0  0  0  0
    2.0759   -0.1305   -7.6139 F   0  0  0  0  0  0  0  0  0  0  0  0
    4.0286    0.8363   -7.6349 F   0  0  0  0  0  0  0  0  0  0  0  0
    3.8491   -1.2413   -7.0101 F   0  0  0  0  0  0  0  0  0  0  0  0
   -3.6303   -1.5794   -6.0065 H   0  0  0  0  0  0  0  0  0  0  0  0
  1  2  2  0  0  0  0
  3  2  1  0  0  0  0
  4  9  1  0  0  0  0
  4  3  2  0  0  0  0
  5  4  1  0  0  0  0
  6  5  2  0  0  0  0
  6  1  1  0  0  0  0
  7  1  1  0  0  0  0
  8 17  1  0  0  0  0
 10  5  1  0  0  0  0
 11 12  3  0  0  0  0
 13 17  1  0  0  0  0
 13 16  2  0  0  0  0
 14 13  1  0  0  0  0
 15 13  2  0  0  0  0
 18 14  1  0  0  0  0
 19 14  1  0  0  0  0
 20 14  1  0  0  0  0
 21  6  1  0  0  0  0
M  RAD  2   2   2   3   2
M  END
