Coordinates from ORCA-job Ph-N2-OTf-B3LYPG-6-31G_dp-MTMO-d009-169-n800
 OpenBabel09051908113D

 21 20  0  0  0  0  0  0  0  0999 V2000
   -1.8525   -1.5558   -4.7845 C   0  0  0  0  0  0  0  0  0  0  0  0
   -0.5702   -1.0595   -4.5447 C   0  0  0  0  0  0  0  0  0  0  0  0
   -0.2283    0.1783   -5.0814 C   0  0  0  0  0  0  0  0  0  0  0  0
   -1.1231    0.9361   -5.8313 C   0  0  0  0  0  0  0  0  0  0  0  0
   -2.4043    0.4298   -6.0527 C   0  0  0  0  0  0  0  0  0  0  0  0
   -2.7685   -0.8150   -5.5346 C   0  0  0  0  0  0  0  0  0  0  0  0
   -2.1341   -2.5223   -4.3791 H   0  0  0  0  0  0  0  0  0  0  0  0
    0.1521   -1.6183   -3.9616 H   0  0  0  0  0  0  0  0  0  0  0  0
   -0.8154    1.9008   -6.2172 H   0  0  0  0  0  0  0  0  0  0  0  0
   -3.1164    1.0105   -6.6311 H   0  0  0  0  0  0  0  0  0  0  0  0
    0.6228    4.2616   -5.4118 N   0  0  0  0  0  0  0  0  0  0  0  0
    1.0555    4.9845   -4.6967 N   0  0  0  0  0  0  0  0  0  0  0  0
    2.4148    0.1241   -5.4026 S   0  0  0  0  0  0  0  0  0  0  0  0
    2.5159    1.0766   -7.0082 C   0  0  0  0  0  0  0  0  0  0  0  0
    1.0283    0.7587   -4.7924 O   0  0  0  0  0  0  0  0  0  0  0  0
    3.4762    0.6126   -4.5451 O   0  0  0  0  0  0  0  0  0  0  0  0
    2.2426   -1.2777   -5.7452 O   0  0  0  0  0  0  0  0  0  0  0  0
    1.4384    0.8181   -7.7509 F   0  0  0  0  0  0  0  0  0  0  0  0
    2.5817    2.3819   -6.7562 F   0  0  0  0  0  0  0  0  0  0  0  0
    3.6113    0.6878   -7.6567 F   0  0  0  0  0  0  0  0  0  0  0  0
   -3.7652   -1.2060   -5.7134 H   0  0  0  0  0  0  0  0  0  0  0  0
  1  2  1  0  0  0  0
  1  7  1  0  0  0  0
  2  8  1  0  0  0  0
  3 15  1  0  0  0  0
  3  2  2  0  0  0  0
  4  3  1  0  0  0  0
  5  4  2  0  0  0  0
  5  6  1  0  0  0  0
  6  1  2  0  0  0  0
  9  4  1  0  0  0  0
 10  5  1  0  0  0  0
 11 12  3  0  0  0  0
 13 15  1  0  0  0  0
 13 16  2  0  0  0  0
 14 19  1  0  0  0  0
 14 13  1  0  0  0  0
 17 13  2  0  0  0  0
 18 14  1  0  0  0  0
 20 14  1  0  0  0  0
 21  6  1  0  0  0  0
M  END
