Coordinates from ORCA-job Ph-N2-OTf-B3LYPG-6-31G_dp-MTMO-d009-169-n800
 OpenBabel09051908113D

 21 20  0  0  0  0  0  0  0  0999 V2000
   -1.8476   -2.5805   -4.5774 C   0  0  0  0  0  0  0  0  0  0  0  0
   -0.6195   -1.9203   -4.5173 C   0  0  0  0  0  0  0  0  0  0  0  0
   -0.5824   -0.5570   -4.7913 C   0  0  0  0  0  0  0  0  0  0  0  0
   -1.7246    0.1650   -5.1220 C   0  0  0  0  0  0  0  0  0  0  0  0
   -2.9446   -0.5093   -5.1820 C   0  0  0  0  0  0  0  0  0  0  0  0
   -3.0080   -1.8778   -4.9100 C   0  0  0  0  0  0  0  0  0  0  0  0
   -1.8953   -3.6433   -4.3617 H   0  0  0  0  0  0  0  0  0  0  0  0
    0.2953   -2.4403   -4.2548 H   0  0  0  0  0  0  0  0  0  0  0  0
   -1.6524    1.2266   -5.3272 H   0  0  0  0  0  0  0  0  0  0  0  0
   -3.8457    0.0381   -5.4405 H   0  0  0  0  0  0  0  0  0  0  0  0
    5.5401    6.4651   -8.9725 N   0  0  0  0  0  0  0  0  0  0  0  0
    6.3950    7.0113   -9.4111 N   0  0  0  0  0  0  0  0  0  0  0  0
    1.5818    0.4337   -5.9581 S   0  0  0  0  0  0  0  0  0  0  0  0
    1.5443    2.2970   -5.8274 C   0  0  0  0  0  0  0  0  0  0  0  0
    0.6516    0.1147   -4.6370 O   0  0  0  0  0  0  0  0  0  0  0  0
    2.9372    0.0155   -5.6528 O   0  0  0  0  0  0  0  0  0  0  0  0
    0.8892    0.0562   -7.1788 O   0  0  0  0  0  0  0  0  0  0  0  0
    0.2909    2.7346   -5.9793 F   0  0  0  0  0  0  0  0  0  0  0  0
    2.0094    2.6777   -4.6425 F   0  0  0  0  0  0  0  0  0  0  0  0
    2.3077    2.7958   -6.7971 F   0  0  0  0  0  0  0  0  0  0  0  0
   -3.9609   -2.3960   -4.9568 H   0  0  0  0  0  0  0  0  0  0  0  0
  1  2  1  0  0  0  0
  1  7  1  0  0  0  0
  2  8  1  0  0  0  0
  3 15  1  0  0  0  0
  3  2  2  0  0  0  0
  4  3  1  0  0  0  0
  5  4  2  0  0  0  0
  5  6  1  0  0  0  0
  6  1  2  0  0  0  0
  9  4  1  0  0  0  0
 10  5  1  0  0  0  0
 12 11  3  0  0  0  0
 13 14  1  0  0  0  0
 13 16  2  0  0  0  0
 13 15  1  0  0  0  0
 14 19  1  0  0  0  0
 17 13  2  0  0  0  0
 18 14  1  0  0  0  0
 20 14  1  0  0  0  0
 21  6  1  0  0  0  0
M  END
