Coordinates from ORCA-job Ph-N2-OTf-B3LYPG-6-31G_dp-MTMO-d009-169-n800
 OpenBabel09051908113D

 21 20  0  0  0  0  0  0  0  0999 V2000
   -1.8851   -1.8555   -5.3457 C   0  0  0  0  0  0  0  0  0  0  0  0
   -0.5473   -1.5986   -5.0424 C   0  0  0  0  0  0  0  0  0  0  0  0
   -0.1747   -0.2891   -4.7539 C   0  0  0  0  0  0  0  0  0  0  0  0
   -1.0905    0.7591   -4.7463 C   0  0  0  0  0  0  0  0  0  0  0  0
   -2.4257    0.4838   -5.0421 C   0  0  0  0  0  0  0  0  0  0  0  0
   -2.8228   -0.8206   -5.3449 C   0  0  0  0  0  0  0  0  0  0  0  0
   -2.1931   -2.8699   -5.5795 H   0  0  0  0  0  0  0  0  0  0  0  0
    0.1939   -2.3887   -5.0340 H   0  0  0  0  0  0  0  0  0  0  0  0
   -0.7532    1.7617   -4.5068 H   0  0  0  0  0  0  0  0  0  0  0  0
   -3.1528    1.2900   -5.0364 H   0  0  0  0  0  0  0  0  0  0  0  0
    1.7448    4.5643   -7.7265 N   0  0  0  0  0  0  0  0  0  0  0  0
    1.5196    5.5070   -8.2572 N   0  0  0  0  0  0  0  0  0  0  0  0
    2.3835   -0.0471   -5.4425 S   0  0  0  0  0  0  0  0  0  0  0  0
    2.1716    1.6284   -6.2544 C   0  0  0  0  0  0  0  0  0  0  0  0
    1.1495    0.0078   -4.3604 O   0  0  0  0  0  0  0  0  0  0  0  0
    3.5914    0.0059   -4.6440 O   0  0  0  0  0  0  0  0  0  0  0  0
    2.1416   -1.0536   -6.4629 O   0  0  0  0  0  0  0  0  0  0  0  0
    1.0597    1.6277   -6.9896 F   0  0  0  0  0  0  0  0  0  0  0  0
    2.0864    2.5710   -5.3176 F   0  0  0  0  0  0  0  0  0  0  0  0
    3.2267    1.8542   -7.0313 F   0  0  0  0  0  0  0  0  0  0  0  0
   -3.8619   -1.0308   -5.5792 H   0  0  0  0  0  0  0  0  0  0  0  0
  1  6  2  0  0  0  0
  1  2  1  0  0  0  0
  2  8  1  0  0  0  0
  2  3  2  0  0  0  0
  3  4  1  0  0  0  0
  3 15  1  0  0  0  0
  4  9  1  0  0  0  0
  5 10  1  0  0  0  0
  5  4  2  0  0  0  0
  6  5  1  0  0  0  0
  7  1  1  0  0  0  0
 12 11  3  0  0  0  0
 13 16  2  0  0  0  0
 13 15  1  0  0  0  0
 14 13  1  0  0  0  0
 14 19  1  0  0  0  0
 17 13  2  0  0  0  0
 18 14  1  0  0  0  0
 20 14  1  0  0  0  0
 21  6  1  0  0  0  0
M  END
