Coordinates from ORCA-job Ph-N2-OTf-B3LYPG-6-31G_dp-MTMO-d009-169-n800
 OpenBabel09051908113D

 21 20  0  0  0  0  0  0  0  0999 V2000
   -1.7610   -2.3983   -4.5450 C   0  0  0  0  0  0  0  0  0  0  0  0
   -0.5221   -1.7561   -4.5224 C   0  0  0  0  0  0  0  0  0  0  0  0
   -0.4638   -0.4110   -4.8715 C   0  0  0  0  0  0  0  0  0  0  0  0
   -1.5944    0.3104   -5.2411 C   0  0  0  0  0  0  0  0  0  0  0  0
   -2.8255   -0.3458   -5.2619 C   0  0  0  0  0  0  0  0  0  0  0  0
   -2.9103   -1.6960   -4.9146 C   0  0  0  0  0  0  0  0  0  0  0  0
   -1.8256   -3.4467   -4.2716 H   0  0  0  0  0  0  0  0  0  0  0  0
    0.3847   -2.2757   -4.2325 H   0  0  0  0  0  0  0  0  0  0  0  0
   -1.5038    1.3575   -5.5053 H   0  0  0  0  0  0  0  0  0  0  0  0
   -3.7181    0.2010   -5.5493 H   0  0  0  0  0  0  0  0  0  0  0  0
    4.3270    5.3307   -8.0081 N   0  0  0  0  0  0  0  0  0  0  0  0
    5.0204    6.0639   -8.4588 N   0  0  0  0  0  0  0  0  0  0  0  0
    1.7218    0.4577   -6.0946 S   0  0  0  0  0  0  0  0  0  0  0  0
    1.7565    2.3262   -6.0660 C   0  0  0  0  0  0  0  0  0  0  0  0
    0.7802    0.2511   -4.7583 O   0  0  0  0  0  0  0  0  0  0  0  0
    3.0605    0.0034   -5.7671 O   0  0  0  0  0  0  0  0  0  0  0  0
    1.0126    0.0401   -7.2926 O   0  0  0  0  0  0  0  0  0  0  0  0
    0.5199    2.8006   -6.2419 F   0  0  0  0  0  0  0  0  0  0  0  0
    2.2372    2.7519   -4.9029 F   0  0  0  0  0  0  0  0  0  0  0  0
    2.5370    2.7425   -7.0605 F   0  0  0  0  0  0  0  0  0  0  0  0
   -3.8717   -2.2005   -4.9317 H   0  0  0  0  0  0  0  0  0  0  0  0
  1  2  1  0  0  0  0
  1  7  1  0  0  0  0
  2  8  1  0  0  0  0
  3 15  1  0  0  0  0
  3  2  2  0  0  0  0
  4  3  1  0  0  0  0
  5  4  2  0  0  0  0
  5  6  1  0  0  0  0
  6  1  2  0  0  0  0
  9  4  1  0  0  0  0
 10  5  1  0  0  0  0
 12 11  3  0  0  0  0
 13 14  1  0  0  0  0
 13 16  2  0  0  0  0
 13 15  1  0  0  0  0
 14 19  1  0  0  0  0
 17 13  2  0  0  0  0
 18 14  1  0  0  0  0
 20 14  1  0  0  0  0
 21  6  1  0  0  0  0
M  END
