Coordinates from ORCA-job Ph-N2-OTf-B3LYPG-6-31G_dp-MTMO-d009-169-n800
 OpenBabel09051908113D

 21 20  0  0  0  0  0  0  0  0999 V2000
   -2.1580   -2.9623   -4.4184 C   0  0  0  0  0  0  0  0  0  0  0  0
   -0.9363   -2.2907   -4.3557 C   0  0  0  0  0  0  0  0  0  0  0  0
   -0.9181   -0.9192   -4.5874 C   0  0  0  0  0  0  0  0  0  0  0  0
   -2.0728   -0.2000   -4.8783 C   0  0  0  0  0  0  0  0  0  0  0  0
   -3.2864   -0.8856   -4.9411 C   0  0  0  0  0  0  0  0  0  0  0  0
   -3.3308   -2.2626   -4.7114 C   0  0  0  0  0  0  0  0  0  0  0  0
   -2.1910   -4.0319   -4.2357 H   0  0  0  0  0  0  0  0  0  0  0  0
   -0.0122   -2.8085   -4.1232 H   0  0  0  0  0  0  0  0  0  0  0  0
   -2.0147    0.8682   -5.0513 H   0  0  0  0  0  0  0  0  0  0  0  0
   -4.1971   -0.3405   -5.1686 H   0  0  0  0  0  0  0  0  0  0  0  0
    8.7760    9.8271  -11.0713 N   0  0  0  0  0  0  0  0  0  0  0  0
    9.7386   10.3249  -11.2886 N   0  0  0  0  0  0  0  0  0  0  0  0
    1.2246    0.1184   -5.7532 S   0  0  0  0  0  0  0  0  0  0  0  0
    1.1590    1.9785   -5.5920 C   0  0  0  0  0  0  0  0  0  0  0  0
    0.3102   -0.2375   -4.4303 O   0  0  0  0  0  0  0  0  0  0  0  0
    2.5887   -0.2830   -5.4649 O   0  0  0  0  0  0  0  0  0  0  0  0
    0.5283   -0.2501   -6.9745 O   0  0  0  0  0  0  0  0  0  0  0  0
   -0.1019    2.3990   -5.7281 F   0  0  0  0  0  0  0  0  0  0  0  0
    1.6268    2.3476   -4.4045 F   0  0  0  0  0  0  0  0  0  0  0  0
    1.9076    2.5049   -6.5588 F   0  0  0  0  0  0  0  0  0  0  0  0
   -4.2787   -2.7898   -4.7603 H   0  0  0  0  0  0  0  0  0  0  0  0
  1  2  1  0  0  0  0
  1  7  1  0  0  0  0
  2  8  1  0  0  0  0
  3 15  1  0  0  0  0
  3  2  2  0  0  0  0
  4  3  1  0  0  0  0
  5  4  2  0  0  0  0
  5  6  1  0  0  0  0
  6  1  2  0  0  0  0
  9  4  1  0  0  0  0
 10  5  1  0  0  0  0
 12 11  3  0  0  0  0
 13 14  1  0  0  0  0
 13 16  2  0  0  0  0
 13 15  1  0  0  0  0
 14 19  1  0  0  0  0
 17 13  2  0  0  0  0
 18 14  1  0  0  0  0
 20 14  1  0  0  0  0
 21  6  1  0  0  0  0
M  END
