Coordinates from ORCA-job Ph-N2-OTf-B3LYPG-6-31G_dp-MTMO-d009-169-n800
 OpenBabel09051908113D

 21 20  0  0  0  0  0  0  0  0999 V2000
   -1.8316   -2.5550   -4.5823 C   0  0  0  0  0  0  0  0  0  0  0  0
   -0.6022   -1.8970   -4.5240 C   0  0  0  0  0  0  0  0  0  0  0  0
   -0.5621   -0.5350   -4.8036 C   0  0  0  0  0  0  0  0  0  0  0  0
   -1.7026    0.1880   -5.1381 C   0  0  0  0  0  0  0  0  0  0  0  0
   -2.9239   -0.4841   -5.1962 C   0  0  0  0  0  0  0  0  0  0  0  0
   -2.9902   -1.8513   -4.9187 C   0  0  0  0  0  0  0  0  0  0  0  0
   -1.8815   -3.6168   -4.3623 H   0  0  0  0  0  0  0  0  0  0  0  0
    0.3114   -2.4178   -4.2587 H   0  0  0  0  0  0  0  0  0  0  0  0
   -1.6280    1.2486   -5.3475 H   0  0  0  0  0  0  0  0  0  0  0  0
   -3.8236    0.0641   -5.4576 H   0  0  0  0  0  0  0  0  0  0  0  0
    5.3421    6.2705   -8.8368 N   0  0  0  0  0  0  0  0  0  0  0  0
    6.1860    6.8239   -9.2877 N   0  0  0  0  0  0  0  0  0  0  0  0
    1.6048    0.4471   -5.9729 S   0  0  0  0  0  0  0  0  0  0  0  0
    1.5712    2.3109   -5.8492 C   0  0  0  0  0  0  0  0  0  0  0  0
    0.6732    0.1348   -4.6511 O   0  0  0  0  0  0  0  0  0  0  0  0
    2.9591    0.0274   -5.6651 O   0  0  0  0  0  0  0  0  0  0  0  0
    0.9121    0.0664   -7.1925 O   0  0  0  0  0  0  0  0  0  0  0  0
    0.3188    2.7507   -6.0033 F   0  0  0  0  0  0  0  0  0  0  0  0
    2.0365    2.6950   -4.6655 F   0  0  0  0  0  0  0  0  0  0  0  0
    2.3361    2.8044   -6.8203 F   0  0  0  0  0  0  0  0  0  0  0  0
   -3.9442   -2.3678   -4.9641 H   0  0  0  0  0  0  0  0  0  0  0  0
  1  2  1  0  0  0  0
  1  7  1  0  0  0  0
  2  8  1  0  0  0  0
  3 15  1  0  0  0  0
  3  2  2  0  0  0  0
  4  3  1  0  0  0  0
  5  4  2  0  0  0  0
  5  6  1  0  0  0  0
  6  1  2  0  0  0  0
  9  4  1  0  0  0  0
 10  5  1  0  0  0  0
 12 11  3  0  0  0  0
 13 14  1  0  0  0  0
 13 16  2  0  0  0  0
 13 15  1  0  0  0  0
 14 19  1  0  0  0  0
 17 13  2  0  0  0  0
 18 14  1  0  0  0  0
 20 14  1  0  0  0  0
 21  6  1  0  0  0  0
M  END
