Coordinates from ORCA-job Ph-N2-OTf-B3LYPG-6-31G_dp-MTMO-d009-169-n800
 OpenBabel09051908113D

 21 20  0  0  0  0  0  0  0  0999 V2000
   -2.2010   -3.0072   -4.3949 C   0  0  0  0  0  0  0  0  0  0  0  0
   -0.9788   -2.3364   -4.3324 C   0  0  0  0  0  0  0  0  0  0  0  0
   -0.9600   -0.9645   -4.5617 C   0  0  0  0  0  0  0  0  0  0  0  0
   -2.1146   -0.2441   -4.8500 C   0  0  0  0  0  0  0  0  0  0  0  0
   -3.3287   -0.9289   -4.9127 C   0  0  0  0  0  0  0  0  0  0  0  0
   -3.3737   -2.3062   -4.6854 C   0  0  0  0  0  0  0  0  0  0  0  0
   -2.2345   -4.0771   -4.2140 H   0  0  0  0  0  0  0  0  0  0  0  0
   -0.0548   -2.8552   -4.1018 H   0  0  0  0  0  0  0  0  0  0  0  0
   -2.0560    0.8244   -5.0213 H   0  0  0  0  0  0  0  0  0  0  0  0
   -4.2393   -0.3828   -5.1383 H   0  0  0  0  0  0  0  0  0  0  0  0
    9.1786   10.2521  -11.3157 N   0  0  0  0  0  0  0  0  0  0  0  0
   10.1403   10.7520  -11.5323 N   0  0  0  0  0  0  0  0  0  0  0  0
    1.1826    0.0729   -5.7279 S   0  0  0  0  0  0  0  0  0  0  0  0
    1.1165    1.9330   -5.5666 C   0  0  0  0  0  0  0  0  0  0  0  0
    0.2689   -0.2840   -4.4048 O   0  0  0  0  0  0  0  0  0  0  0  0
    2.5470   -0.3277   -5.4396 O   0  0  0  0  0  0  0  0  0  0  0  0
    0.4862   -0.2957   -6.9490 O   0  0  0  0  0  0  0  0  0  0  0  0
   -0.1444    2.3533   -5.7027 F   0  0  0  0  0  0  0  0  0  0  0  0
    1.5842    2.3021   -4.3791 F   0  0  0  0  0  0  0  0  0  0  0  0
    1.8650    2.4597   -6.5334 F   0  0  0  0  0  0  0  0  0  0  0  0
   -4.3220   -2.8328   -4.7340 H   0  0  0  0  0  0  0  0  0  0  0  0
  1  2  1  0  0  0  0
  1  7  1  0  0  0  0
  2  8  1  0  0  0  0
  3 15  1  0  0  0  0
  3  2  2  0  0  0  0
  4  3  1  0  0  0  0
  5  4  2  0  0  0  0
  5  6  1  0  0  0  0
  6  1  2  0  0  0  0
  9  4  1  0  0  0  0
 10  5  1  0  0  0  0
 12 11  3  0  0  0  0
 13 14  1  0  0  0  0
 13 16  2  0  0  0  0
 13 15  1  0  0  0  0
 14 19  1  0  0  0  0
 17 13  2  0  0  0  0
 18 14  1  0  0  0  0
 20 14  1  0  0  0  0
 21  6  1  0  0  0  0
M  END
