Coordinates from ORCA-job Ph-N2-OTf-B3LYPG-6-31G_dp-MTMO-d009-169-n800
 OpenBabel09051908113D

 21 20  0  0  0  0  0  0  0  0999 V2000
   -1.8960   -1.7292   -5.0585 C   0  0  0  0  0  0  0  0  0  0  0  0
   -0.5698   -1.4096   -4.7641 C   0  0  0  0  0  0  0  0  0  0  0  0
   -0.1636   -0.0844   -4.8913 C   0  0  0  0  0  0  0  0  0  0  0  0
   -1.0357    0.9249   -5.2890 C   0  0  0  0  0  0  0  0  0  0  0  0
   -2.3610    0.5899   -5.5698 C   0  0  0  0  0  0  0  0  0  0  0  0
   -2.7910   -0.7344   -5.4584 C   0  0  0  0  0  0  0  0  0  0  0  0
   -2.2288   -2.7586   -4.9683 H   0  0  0  0  0  0  0  0  0  0  0  0
    0.1374   -2.1666   -4.4471 H   0  0  0  0  0  0  0  0  0  0  0  0
   -0.6775    1.9449   -5.3711 H   0  0  0  0  0  0  0  0  0  0  0  0
   -3.0551    1.3659   -5.8772 H   0  0  0  0  0  0  0  0  0  0  0  0
    0.4902    4.4462   -6.5389 N   0  0  0  0  0  0  0  0  0  0  0  0
    0.7251    5.4694   -6.8840 N   0  0  0  0  0  0  0  0  0  0  0  0
    2.4427   -0.1427   -5.4265 S   0  0  0  0  0  0  0  0  0  0  0  0
    2.5553    1.3559   -6.5388 C   0  0  0  0  0  0  0  0  0  0  0  0
    1.1460    0.2947   -4.5175 O   0  0  0  0  0  0  0  0  0  0  0  0
    3.5824   -0.0989   -4.5324 O   0  0  0  0  0  0  0  0  0  0  0  0
    2.1285   -1.2844   -6.2692 O   0  0  0  0  0  0  0  0  0  0  0  0
    1.4370    1.4650   -7.2584 F   0  0  0  0  0  0  0  0  0  0  0  0
    2.7203    2.4516   -5.8021 F   0  0  0  0  0  0  0  0  0  0  0  0
    3.5970    1.1982   -7.3525 F   0  0  0  0  0  0  0  0  0  0  0  0
   -3.8217   -0.9910   -5.6825 H   0  0  0  0  0  0  0  0  0  0  0  0
  1  7  1  0  0  0  0
  1  2  2  0  0  0  0
  2  8  1  0  0  0  0
  3  2  1  0  0  0  0
  3 15  1  0  0  0  0
  4  3  2  0  0  0  0
  5  6  2  0  0  0  0
  5  4  1  0  0  0  0
  6  1  1  0  0  0  0
  9  4  1  0  0  0  0
 10  5  1  0  0  0  0
 12 11  3  0  0  0  0
 13 16  2  0  0  0  0
 13 15  1  0  0  0  0
 14 19  1  0  0  0  0
 14 13  1  0  0  0  0
 17 13  2  0  0  0  0
 18 14  1  0  0  0  0
 20 14  1  0  0  0  0
 21  6  1  0  0  0  0
M  END
