Coordinates from ORCA-job Ph-N2-OTf-B3LYPG-6-31G_dp-MTMO-d009-169-n800
 OpenBabel09051908113D

 21 20  0  0  0  0  0  0  0  0999 V2000
   -1.8878   -2.6360   -4.5592 C   0  0  0  0  0  0  0  0  0  0  0  0
   -0.6614   -1.9728   -4.4976 C   0  0  0  0  0  0  0  0  0  0  0  0
   -0.6287   -0.6077   -4.7630 C   0  0  0  0  0  0  0  0  0  0  0  0
   -1.7737    0.1132   -5.0864 C   0  0  0  0  0  0  0  0  0  0  0  0
   -2.9919   -0.5641   -5.1480 C   0  0  0  0  0  0  0  0  0  0  0  0
   -3.0508   -1.9345   -4.8847 C   0  0  0  0  0  0  0  0  0  0  0  0
   -1.9320   -3.7004   -4.3502 H   0  0  0  0  0  0  0  0  0  0  0  0
    0.2554   -2.4920   -4.2406 H   0  0  0  0  0  0  0  0  0  0  0  0
   -1.7048    1.1763   -5.2850 H   0  0  0  0  0  0  0  0  0  0  0  0
   -3.8951   -0.0175   -5.4009 H   0  0  0  0  0  0  0  0  0  0  0  0
    5.9962    6.9150   -9.2749 N   0  0  0  0  0  0  0  0  0  0  0  0
    6.8648    7.4688   -9.6752 N   0  0  0  0  0  0  0  0  0  0  0  0
    1.5307    0.3956   -5.9281 S   0  0  0  0  0  0  0  0  0  0  0  0
    1.4857    2.2581   -5.7894 C   0  0  0  0  0  0  0  0  0  0  0  0
    0.6038    0.0665   -4.6071 O   0  0  0  0  0  0  0  0  0  0  0  0
    2.8883   -0.0180   -5.6261 O   0  0  0  0  0  0  0  0  0  0  0  0
    0.8381    0.0204   -7.1494 O   0  0  0  0  0  0  0  0  0  0  0  0
    0.2306    2.6914   -5.9383 F   0  0  0  0  0  0  0  0  0  0  0  0
    1.9504    2.6357   -4.6033 F   0  0  0  0  0  0  0  0  0  0  0  0
    2.2463    2.7641   -6.7576 F   0  0  0  0  0  0  0  0  0  0  0  0
   -4.0025   -2.4551   -4.9327 H   0  0  0  0  0  0  0  0  0  0  0  0
  1  2  1  0  0  0  0
  1  7  1  0  0  0  0
  2  8  1  0  0  0  0
  3 15  1  0  0  0  0
  3  2  2  0  0  0  0
  4  3  1  0  0  0  0
  5  4  2  0  0  0  0
  5  6  1  0  0  0  0
  6  1  2  0  0  0  0
  9  4  1  0  0  0  0
 10  5  1  0  0  0  0
 12 11  3  0  0  0  0
 13 14  1  0  0  0  0
 13 16  2  0  0  0  0
 13 15  1  0  0  0  0
 14 19  1  0  0  0  0
 17 13  2  0  0  0  0
 18 14  1  0  0  0  0
 20 14  1  0  0  0  0
 21  6  1  0  0  0  0
M  END
