Coordinates from ORCA-job Ph-N2-OTf-B3LYPG-6-31G_dp-MTMO-d009-169-n800
 OpenBabel09051908113D

 21 20  0  0  0  0  0  0  0  0999 V2000
   -1.8516   -1.4634   -4.6995 C   0  0  0  0  0  0  0  0  0  0  0  0
   -0.5725   -0.9472   -4.4883 C   0  0  0  0  0  0  0  0  0  0  0  0
   -0.2243    0.2420   -5.1219 C   0  0  0  0  0  0  0  0  0  0  0  0
   -1.1107    0.9326   -5.9432 C   0  0  0  0  0  0  0  0  0  0  0  0
   -2.3892    0.4080   -6.1358 C   0  0  0  0  0  0  0  0  0  0  0  0
   -2.7592   -0.7891   -5.5192 C   0  0  0  0  0  0  0  0  0  0  0  0
   -2.1374   -2.3936   -4.2187 H   0  0  0  0  0  0  0  0  0  0  0  0
    0.1437   -1.4540   -3.8521 H   0  0  0  0  0  0  0  0  0  0  0  0
   -0.7998    1.8613   -6.4066 H   0  0  0  0  0  0  0  0  0  0  0  0
   -3.0943    0.9370   -6.7697 H   0  0  0  0  0  0  0  0  0  0  0  0
    0.6335    4.0490   -5.2227 N   0  0  0  0  0  0  0  0  0  0  0  0
    0.9018    4.5968   -4.3012 N   0  0  0  0  0  0  0  0  0  0  0  0
    2.4173    0.1739   -5.4431 S   0  0  0  0  0  0  0  0  0  0  0  0
    2.5301    1.0615   -7.0850 C   0  0  0  0  0  0  0  0  0  0  0  0
    1.0306    0.8399   -4.8651 O   0  0  0  0  0  0  0  0  0  0  0  0
    3.4781    0.6919   -4.6023 O   0  0  0  0  0  0  0  0  0  0  0  0
    2.2378   -1.2397   -5.7283 O   0  0  0  0  0  0  0  0  0  0  0  0
    1.4607    0.7684   -7.8272 F   0  0  0  0  0  0  0  0  0  0  0  0
    2.5880    2.3756   -6.8849 F   0  0  0  0  0  0  0  0  0  0  0  0
    3.6330    0.6506   -7.7066 F   0  0  0  0  0  0  0  0  0  0  0  0
   -3.7538   -1.1948   -5.6759 H   0  0  0  0  0  0  0  0  0  0  0  0
  1  2  1  0  0  0  0
  1  7  1  0  0  0  0
  2  8  1  0  0  0  0
  3 15  1  0  0  0  0
  3  2  2  0  0  0  0
  4  3  1  0  0  0  0
  5  4  2  0  0  0  0
  5  6  1  0  0  0  0
  6  1  2  0  0  0  0
  9  4  1  0  0  0  0
 10  5  1  0  0  0  0
 11 12  3  0  0  0  0
 13 15  1  0  0  0  0
 13 16  2  0  0  0  0
 14 19  1  0  0  0  0
 14 13  1  0  0  0  0
 17 13  2  0  0  0  0
 18 14  1  0  0  0  0
 20 14  1  0  0  0  0
 21  6  1  0  0  0  0
M  END
