Coordinates from ORCA-job Ph-N2-OTf-B3LYPG-6-31G_dp-MTMO-d009-169-n800
 OpenBabel09051908113D

 21 20  0  0  0  0  0  0  0  0999 V2000
   -1.7394   -2.2655   -4.3661 C   0  0  0  0  0  0  0  0  0  0  0  0
   -0.4913   -1.6451   -4.4376 C   0  0  0  0  0  0  0  0  0  0  0  0
   -0.4234   -0.3405   -4.9155 C   0  0  0  0  0  0  0  0  0  0  0  0
   -1.5532    0.3617   -5.3220 C   0  0  0  0  0  0  0  0  0  0  0  0
   -2.7940   -0.2720   -5.2459 C   0  0  0  0  0  0  0  0  0  0  0  0
   -2.8885   -1.5816   -4.7696 C   0  0  0  0  0  0  0  0  0  0  0  0
   -1.8111   -3.2824   -3.9938 H   0  0  0  0  0  0  0  0  0  0  0  0
    0.4156   -2.1503   -4.1238 H   0  0  0  0  0  0  0  0  0  0  0  0
   -1.4545    1.3770   -5.6872 H   0  0  0  0  0  0  0  0  0  0  0  0
   -3.6865    0.2603   -5.5596 H   0  0  0  0  0  0  0  0  0  0  0  0
    3.9702    5.2817   -7.2526 N   0  0  0  0  0  0  0  0  0  0  0  0
    4.6339    6.1353   -7.4809 N   0  0  0  0  0  0  0  0  0  0  0  0
    1.7578    0.3228   -6.2651 S   0  0  0  0  0  0  0  0  0  0  0  0
    1.8211    2.1775   -6.4965 C   0  0  0  0  0  0  0  0  0  0  0  0
    0.8318    0.3103   -4.9023 O   0  0  0  0  0  0  0  0  0  0  0  0
    3.0946   -0.1032   -5.8943 O   0  0  0  0  0  0  0  0  0  0  0  0
    1.0267   -0.2429   -7.3867 O   0  0  0  0  0  0  0  0  0  0  0  0
    0.5844    2.6522   -6.6714 F   0  0  0  0  0  0  0  0  0  0  0  0
    2.3741    2.7498   -5.4335 F   0  0  0  0  0  0  0  0  0  0  0  0
    2.5506    2.4306   -7.5808 F   0  0  0  0  0  0  0  0  0  0  0  0
   -3.8571   -2.0687   -4.7124 H   0  0  0  0  0  0  0  0  0  0  0  0
  1  7  1  0  0  0  0
  2  1  1  0  0  0  0
  2  8  1  0  0  0  0
  3 15  1  0  0  0  0
  3  2  2  0  0  0  0
  4  5  2  0  0  0  0
  4  3  1  0  0  0  0
  5  6  1  0  0  0  0
  6 21  1  0  0  0  0
  6  1  2  0  0  0  0
  9  4  1  0  0  0  0
 10  5  1  0  0  0  0
 12 11  3  0  0  0  0
 13 16  2  0  0  0  0
 13 15  1  0  0  0  0
 14 13  1  0  0  0  0
 14 19  1  0  0  0  0
 17 13  2  0  0  0  0
 18 14  1  0  0  0  0
 20 14  1  0  0  0  0
M  END
