Coordinates from ORCA-job Ph-N2-OTf-B3LYPG-6-31G_dp-MTMO-d009-169-n800
 OpenBabel09051908113D

 21 20  0  0  0  0  0  0  0  0999 V2000
   -2.0562   -2.8540   -4.4736 C   0  0  0  0  0  0  0  0  0  0  0  0
   -0.8350   -2.1813   -4.4111 C   0  0  0  0  0  0  0  0  0  0  0  0
   -0.8170   -0.8108   -4.6487 C   0  0  0  0  0  0  0  0  0  0  0  0
   -1.9715   -0.0936   -4.9453 C   0  0  0  0  0  0  0  0  0  0  0  0
   -3.1845   -0.7802   -5.0079 C   0  0  0  0  0  0  0  0  0  0  0  0
   -3.2287   -2.1562   -4.7723 C   0  0  0  0  0  0  0  0  0  0  0  0
   -2.0889   -3.9228   -4.2862 H   0  0  0  0  0  0  0  0  0  0  0  0
    0.0889   -2.6976   -4.1743 H   0  0  0  0  0  0  0  0  0  0  0  0
   -1.9136    0.9739   -5.1229 H   0  0  0  0  0  0  0  0  0  0  0  0
   -4.0950   -0.2366   -5.2400 H   0  0  0  0  0  0  0  0  0  0  0  0
    7.8110    8.8073  -10.4818 N   0  0  0  0  0  0  0  0  0  0  0  0
    8.7724    9.3060  -10.7022 N   0  0  0  0  0  0  0  0  0  0  0  0
    1.3262    0.2256   -5.8145 S   0  0  0  0  0  0  0  0  0  0  0  0
    1.2605    2.0859   -5.6564 C   0  0  0  0  0  0  0  0  0  0  0  0
    0.4107   -0.1280   -4.4919 O   0  0  0  0  0  0  0  0  0  0  0  0
    2.6901   -0.1754   -5.5245 O   0  0  0  0  0  0  0  0  0  0  0  0
    0.6310   -0.1449   -7.0359 O   0  0  0  0  0  0  0  0  0  0  0  0
   -0.0002    2.5062   -5.7942 F   0  0  0  0  0  0  0  0  0  0  0  0
    1.7275    2.4569   -4.4692 F   0  0  0  0  0  0  0  0  0  0  0  0
    2.0099    2.6107   -6.6235 F   0  0  0  0  0  0  0  0  0  0  0  0
   -4.1762   -2.6842   -4.8210 H   0  0  0  0  0  0  0  0  0  0  0  0
  1  2  1  0  0  0  0
  1  7  1  0  0  0  0
  2  8  1  0  0  0  0
  3 15  1  0  0  0  0
  3  2  2  0  0  0  0
  4  3  1  0  0  0  0
  5  4  2  0  0  0  0
  5  6  1  0  0  0  0
  6  1  2  0  0  0  0
  9  4  1  0  0  0  0
 10  5  1  0  0  0  0
 12 11  3  0  0  0  0
 13 14  1  0  0  0  0
 13 16  2  0  0  0  0
 13 15  1  0  0  0  0
 14 19  1  0  0  0  0
 17 13  2  0  0  0  0
 18 14  1  0  0  0  0
 20 14  1  0  0  0  0
 21  6  1  0  0  0  0
M  END
