Coordinates from ORCA-job Ph-N2-OTf-B3LYPG-6-31G_dp-MTMO-d009-169-n800
 OpenBabel09051908113D

 21 20  0  0  0  0  0  0  0  0999 V2000
   -1.8164   -2.5307   -4.5859 C   0  0  0  0  0  0  0  0  0  0  0  0
   -0.5858   -1.8747   -4.5298 C   0  0  0  0  0  0  0  0  0  0  0  0
   -0.5431   -0.5140   -4.8153 C   0  0  0  0  0  0  0  0  0  0  0  0
   -1.6821    0.2096   -5.1534 C   0  0  0  0  0  0  0  0  0  0  0  0
   -2.9046   -0.4605   -5.2093 C   0  0  0  0  0  0  0  0  0  0  0  0
   -2.9735   -1.8264   -4.9260 C   0  0  0  0  0  0  0  0  0  0  0  0
   -1.8683   -3.5915   -4.3614 H   0  0  0  0  0  0  0  0  0  0  0  0
    0.3267   -2.3960   -4.2618 H   0  0  0  0  0  0  0  0  0  0  0  0
   -1.6056    1.2692   -5.3675 H   0  0  0  0  0  0  0  0  0  0  0  0
   -3.8032    0.0881   -5.4736 H   0  0  0  0  0  0  0  0  0  0  0  0
    5.1578    6.0871   -8.7066 N   0  0  0  0  0  0  0  0  0  0  0  0
    5.9885    6.6505   -9.1696 N   0  0  0  0  0  0  0  0  0  0  0  0
    1.6261    0.4592   -5.9877 S   0  0  0  0  0  0  0  0  0  0  0  0
    1.5968    2.3235   -5.8711 C   0  0  0  0  0  0  0  0  0  0  0  0
    0.6934    0.1541   -4.6650 O   0  0  0  0  0  0  0  0  0  0  0  0
    2.9793    0.0373   -5.6780 O   0  0  0  0  0  0  0  0  0  0  0  0
    0.9328    0.0754   -7.2061 O   0  0  0  0  0  0  0  0  0  0  0  0
    0.3455    2.7656   -6.0270 F   0  0  0  0  0  0  0  0  0  0  0  0
    2.0629    2.7108   -4.6887 F   0  0  0  0  0  0  0  0  0  0  0  0
    2.3629    2.8115   -6.8439 F   0  0  0  0  0  0  0  0  0  0  0  0
   -3.9284   -2.3414   -4.9697 H   0  0  0  0  0  0  0  0  0  0  0  0
  1  2  1  0  0  0  0
  1  7  1  0  0  0  0
  2  8  1  0  0  0  0
  3 15  1  0  0  0  0
  3  2  2  0  0  0  0
  4  3  1  0  0  0  0
  5  4  2  0  0  0  0
  5  6  1  0  0  0  0
  6  1  2  0  0  0  0
  9  4  1  0  0  0  0
 10  5  1  0  0  0  0
 12 11  3  0  0  0  0
 13 14  1  0  0  0  0
 13 16  2  0  0  0  0
 13 15  1  0  0  0  0
 14 19  1  0  0  0  0
 17 13  2  0  0  0  0
 18 14  1  0  0  0  0
 20 14  1  0  0  0  0
 21  6  1  0  0  0  0
M  END
