Coordinates from ORCA-job Ph-N2-OTf-B3LYPG-6-31G_dp-MTMO-d009-169-n800
 OpenBabel09051908113D

 21 20  0  0  0  0  0  0  0  0999 V2000
   -1.8968   -1.7438   -5.0552 C   0  0  0  0  0  0  0  0  0  0  0  0
   -0.5711   -1.4209   -4.7624 C   0  0  0  0  0  0  0  0  0  0  0  0
   -0.1687   -0.0943   -4.8883 C   0  0  0  0  0  0  0  0  0  0  0  0
   -1.0443    0.9129   -5.2835 C   0  0  0  0  0  0  0  0  0  0  0  0
   -2.3690    0.5747   -5.5629 C   0  0  0  0  0  0  0  0  0  0  0  0
   -2.7951   -0.7510   -5.4526 C   0  0  0  0  0  0  0  0  0  0  0  0
   -2.2266   -2.7742   -4.9660 H   0  0  0  0  0  0  0  0  0  0  0  0
    0.1387   -2.1764   -4.4473 H   0  0  0  0  0  0  0  0  0  0  0  0
   -0.6888    1.9340   -5.3651 H   0  0  0  0  0  0  0  0  0  0  0  0
   -3.0657    1.3492   -5.8684 H   0  0  0  0  0  0  0  0  0  0  0  0
    0.5386    4.4989   -6.5781 N   0  0  0  0  0  0  0  0  0  0  0  0
    0.7940    5.5191   -6.9175 N   0  0  0  0  0  0  0  0  0  0  0  0
    2.4361   -0.1412   -5.4304 S   0  0  0  0  0  0  0  0  0  0  0  0
    2.5452    1.3670   -6.5302 C   0  0  0  0  0  0  0  0  0  0  0  0
    1.1403    0.2875   -4.5157 O   0  0  0  0  0  0  0  0  0  0  0  0
    3.5773   -0.1036   -4.5379 O   0  0  0  0  0  0  0  0  0  0  0  0
    2.1215   -1.2761   -6.2819 O   0  0  0  0  0  0  0  0  0  0  0  0
    1.4251    1.4817   -7.2462 F   0  0  0  0  0  0  0  0  0  0  0  0
    2.7113    2.4565   -5.7846 F   0  0  0  0  0  0  0  0  0  0  0  0
    3.5851    1.2168   -7.3477 F   0  0  0  0  0  0  0  0  0  0  0  0
   -3.8254   -1.0101   -5.6755 H   0  0  0  0  0  0  0  0  0  0  0  0
  1  7  1  0  0  0  0
  1  2  2  0  0  0  0
  2  8  1  0  0  0  0
  3  2  1  0  0  0  0
  3 15  1  0  0  0  0
  4  3  2  0  0  0  0
  5  6  2  0  0  0  0
  5  4  1  0  0  0  0
  6  1  1  0  0  0  0
  9  4  1  0  0  0  0
 10  5  1  0  0  0  0
 12 11  3  0  0  0  0
 13 16  2  0  0  0  0
 13 15  1  0  0  0  0
 14 19  1  0  0  0  0
 14 13  1  0  0  0  0
 17 13  2  0  0  0  0
 18 14  1  0  0  0  0
 20 14  1  0  0  0  0
 21  6  1  0  0  0  0
M  END
