Coordinates from ORCA-job Ph-N2-OTf-B3LYPG-6-31G_dp-MTMO-d009-169-n800
 OpenBabel09051908113D

 21 20  0  0  0  0  0  0  0  0999 V2000
   -1.8863   -1.8123   -5.3754 C   0  0  0  0  0  0  0  0  0  0  0  0
   -0.5478   -1.5801   -5.0558 C   0  0  0  0  0  0  0  0  0  0  0  0
   -0.1558   -0.2786   -4.7563 C   0  0  0  0  0  0  0  0  0  0  0  0
   -1.0534    0.7852   -4.7530 C   0  0  0  0  0  0  0  0  0  0  0  0
   -2.3898    0.5345   -5.0652 C   0  0  0  0  0  0  0  0  0  0  0  0
   -2.8060   -0.7613   -5.3794 C   0  0  0  0  0  0  0  0  0  0  0  0
   -2.2092   -2.8200   -5.6178 H   0  0  0  0  0  0  0  0  0  0  0  0
    0.1797   -2.3828   -5.0432 H   0  0  0  0  0  0  0  0  0  0  0  0
   -0.7017    1.7806   -4.5045 H   0  0  0  0  0  0  0  0  0  0  0  0
   -3.1028    1.3531   -5.0631 H   0  0  0  0  0  0  0  0  0  0  0  0
    1.5917    4.4989   -7.6775 N   0  0  0  0  0  0  0  0  0  0  0  0
    1.2263    5.3941   -8.2123 N   0  0  0  0  0  0  0  0  0  0  0  0
    2.4126   -0.0743   -5.4162 S   0  0  0  0  0  0  0  0  0  0  0  0
    2.2072    1.5933   -6.2458 C   0  0  0  0  0  0  0  0  0  0  0  0
    1.1690   -0.0075   -4.3460 O   0  0  0  0  0  0  0  0  0  0  0  0
    3.6131   -0.0156   -4.6071 O   0  0  0  0  0  0  0  0  0  0  0  0
    2.1796   -1.0908   -6.4288 O   0  0  0  0  0  0  0  0  0  0  0  0
    1.1115    1.5767   -7.0051 F   0  0  0  0  0  0  0  0  0  0  0  0
    2.0931    2.5418   -5.3178 F   0  0  0  0  0  0  0  0  0  0  0  0
    3.2766    1.8240   -7.0011 F   0  0  0  0  0  0  0  0  0  0  0  0
   -3.8458   -0.9521   -5.6262 H   0  0  0  0  0  0  0  0  0  0  0  0
  1  2  1  0  0  0  0
  2  8  1  0  0  0  0
  2  3  2  0  0  0  0
  3  4  1  0  0  0  0
  3 15  1  0  0  0  0
  4  9  1  0  0  0  0
  5 10  1  0  0  0  0
  5  4  2  0  0  0  0
  6  1  2  0  0  0  0
  6  5  1  0  0  0  0
  7  1  1  0  0  0  0
 12 11  3  0  0  0  0
 13 16  2  0  0  0  0
 13 15  1  0  0  0  0
 14 13  1  0  0  0  0
 14 19  1  0  0  0  0
 17 13  2  0  0  0  0
 18 14  1  0  0  0  0
 20 14  1  0  0  0  0
 21  6  1  0  0  0  0
M  END
