Coordinates from ORCA-job Ph-N2-OTf-B3LYPG-6-31G_dp-MTMO-d009-169-n800
 OpenBabel09051908113D

 21 20  0  0  0  0  0  0  0  0999 V2000
   -2.1937   -2.9995   -4.3990 C   0  0  0  0  0  0  0  0  0  0  0  0
   -0.9716   -2.3286   -4.3364 C   0  0  0  0  0  0  0  0  0  0  0  0
   -0.9528   -0.9568   -4.5661 C   0  0  0  0  0  0  0  0  0  0  0  0
   -2.1074   -0.2365   -4.8548 C   0  0  0  0  0  0  0  0  0  0  0  0
   -3.3214   -0.9214   -4.9175 C   0  0  0  0  0  0  0  0  0  0  0  0
   -3.3664   -2.2987   -4.6898 C   0  0  0  0  0  0  0  0  0  0  0  0
   -2.2271   -4.0693   -4.2177 H   0  0  0  0  0  0  0  0  0  0  0  0
   -0.0475   -2.8473   -4.1055 H   0  0  0  0  0  0  0  0  0  0  0  0
   -2.0488    0.8319   -5.0264 H   0  0  0  0  0  0  0  0  0  0  0  0
   -4.2320   -0.3754   -5.1434 H   0  0  0  0  0  0  0  0  0  0  0  0
    9.1095   10.1793  -11.2738 N   0  0  0  0  0  0  0  0  0  0  0  0
   10.0713   10.6788  -11.4904 N   0  0  0  0  0  0  0  0  0  0  0  0
    1.1899    0.0807   -5.7321 S   0  0  0  0  0  0  0  0  0  0  0  0
    1.1237    1.9408   -5.5710 C   0  0  0  0  0  0  0  0  0  0  0  0
    0.2761   -0.2762   -4.4092 O   0  0  0  0  0  0  0  0  0  0  0  0
    2.5543   -0.3199   -5.4438 O   0  0  0  0  0  0  0  0  0  0  0  0
    0.4936   -0.2881   -6.9534 O   0  0  0  0  0  0  0  0  0  0  0  0
   -0.1372    2.3610   -5.7073 F   0  0  0  0  0  0  0  0  0  0  0  0
    1.5914    2.3099   -4.3835 F   0  0  0  0  0  0  0  0  0  0  0  0
    1.8723    2.4674   -6.5378 F   0  0  0  0  0  0  0  0  0  0  0  0
   -4.3146   -2.8253   -4.7385 H   0  0  0  0  0  0  0  0  0  0  0  0
  1  2  1  0  0  0  0
  1  7  1  0  0  0  0
  2  8  1  0  0  0  0
  3 15  1  0  0  0  0
  3  2  2  0  0  0  0
  4  3  1  0  0  0  0
  5  4  2  0  0  0  0
  5  6  1  0  0  0  0
  6  1  2  0  0  0  0
  9  4  1  0  0  0  0
 10  5  1  0  0  0  0
 12 11  3  0  0  0  0
 13 14  1  0  0  0  0
 13 16  2  0  0  0  0
 13 15  1  0  0  0  0
 14 19  1  0  0  0  0
 17 13  2  0  0  0  0
 18 14  1  0  0  0  0
 20 14  1  0  0  0  0
 21  6  1  0  0  0  0
M  END
