Coordinates from ORCA-job Ph-N2-OTf-B3LYPG-6-31G_dp-MTMO-d009-169-n800
 OpenBabel09051908113D

 21 19  0  0  0  0  0  0  0  0999 V2000
   -1.6560   -1.2555   -5.4933 C   0  0  0  0  0  0  0  0  0  0  0  0
   -0.7051   -0.2349   -5.2526 C   0  0  0  0  0  0  0  0  0  0  0  0
   -1.1790    0.9354   -5.2898 C   0  0  0  0  0  0  0  0  0  0  0  0
   -2.3671    1.5679   -5.4964 C   0  0  0  0  0  0  0  0  0  0  0  0
   -3.3176    0.5449   -5.7390 C   0  0  0  0  0  0  0  0  0  0  0  0
   -2.9693   -0.8173   -5.7360 C   0  0  0  0  0  0  0  0  0  0  0  0
   -1.4019   -2.3113   -5.4936 H   0  0  0  0  0  0  0  0  0  0  0  0
    1.0524   -0.5154   -4.9314 H   0  0  0  0  0  0  0  0  0  0  0  0
   -2.5895    2.6259   -5.4870 H   0  0  0  0  0  0  0  0  0  0  0  0
   -4.3450    0.8418   -5.9326 H   0  0  0  0  0  0  0  0  0  0  0  0
    0.0413    3.9306   -4.6195 N   0  0  0  0  0  0  0  0  0  0  0  0
    0.8367    4.5937   -4.2345 N   0  0  0  0  0  0  0  0  0  0  0  0
    2.9696    0.4781   -5.1900 S   0  0  0  0  0  0  0  0  0  0  0  0
    3.2642    0.0639   -6.9821 C   0  0  0  0  0  0  0  0  0  0  0  0
    2.2169    1.7276   -5.1725 O   0  0  0  0  0  0  0  0  0  0  0  0
    4.2355    0.3197   -4.5008 O   0  0  0  0  0  0  0  0  0  0  0  0
    2.0262   -0.7484   -4.7821 O   0  0  0  0  0  0  0  0  0  0  0  0
    2.0901   -0.0094   -7.6181 F   0  0  0  0  0  0  0  0  0  0  0  0
    4.0054    1.0263   -7.5307 F   0  0  0  0  0  0  0  0  0  0  0  0
    3.8975   -1.1022   -7.0867 F   0  0  0  0  0  0  0  0  0  0  0  0
   -3.7436   -1.5547   -5.9287 H   0  0  0  0  0  0  0  0  0  0  0  0
  1  2  2  0  0  0  0
  3  2  1  0  0  0  0
  4  9  1  0  0  0  0
  4  3  2  0  0  0  0
  5  6  2  0  0  0  0
  5  4  1  0  0  0  0
  6  1  1  0  0  0  0
  7  1  1  0  0  0  0
  8 17  1  0  0  0  0
 10  5  1  0  0  0  0
 11 12  3  0  0  0  0
 13 15  2  0  0  0  0
 13 17  1  0  0  0  0
 13 16  2  0  0  0  0
 14 13  1  0  0  0  0
 18 14  1  0  0  0  0
 19 14  1  0  0  0  0
 20 14  1  0  0  0  0
 21  6  1  0  0  0  0
M  RAD  2   2   2   3   2
M  END
