Coordinates from ORCA-job Ph-N2-OTf-B3LYPG-6-31G_dp-MTMO-d009-169-n800
 OpenBabel09051908113D

 21 19  0  0  0  0  0  0  0  0999 V2000
   -1.6331   -1.2215   -5.4865 C   0  0  0  0  0  0  0  0  0  0  0  0
   -0.7040   -0.1816   -5.2417 C   0  0  0  0  0  0  0  0  0  0  0  0
   -1.2010    0.9790   -5.2842 C   0  0  0  0  0  0  0  0  0  0  0  0
   -2.4002    1.5864   -5.5016 C   0  0  0  0  0  0  0  0  0  0  0  0
   -3.3287    0.5445   -5.7482 C   0  0  0  0  0  0  0  0  0  0  0  0
   -2.9532   -0.8105   -5.7394 C   0  0  0  0  0  0  0  0  0  0  0  0
   -1.3576   -2.2718   -5.4830 H   0  0  0  0  0  0  0  0  0  0  0  0
    1.0501   -0.4653   -4.9217 H   0  0  0  0  0  0  0  0  0  0  0  0
   -2.6439    2.6396   -5.4959 H   0  0  0  0  0  0  0  0  0  0  0  0
   -4.3604    0.8206   -5.9495 H   0  0  0  0  0  0  0  0  0  0  0  0
    0.0130    3.8558   -4.5711 N   0  0  0  0  0  0  0  0  0  0  0  0
    0.8124    4.5160   -4.1896 N   0  0  0  0  0  0  0  0  0  0  0  0
    2.9843    0.4880   -5.2058 S   0  0  0  0  0  0  0  0  0  0  0  0
    3.2699    0.0349   -6.9898 C   0  0  0  0  0  0  0  0  0  0  0  0
    2.2522    1.7497   -5.2109 O   0  0  0  0  0  0  0  0  0  0  0  0
    4.2483    0.3214   -4.5149 O   0  0  0  0  0  0  0  0  0  0  0  0
    2.0204   -0.7144   -4.7742 O   0  0  0  0  0  0  0  0  0  0  0  0
    2.0940   -0.0325   -7.6232 F   0  0  0  0  0  0  0  0  0  0  0  0
    4.0251    0.9751   -7.5577 F   0  0  0  0  0  0  0  0  0  0  0  0
    3.8850   -1.1426   -7.0727 F   0  0  0  0  0  0  0  0  0  0  0  0
   -3.7109   -1.5640   -5.9358 H   0  0  0  0  0  0  0  0  0  0  0  0
  1  7  1  0  0  0  0
  1  2  2  0  0  0  0
  3  2  1  0  0  0  0
  4  9  1  0  0  0  0
  4  3  2  0  0  0  0
  5  6  2  0  0  0  0
  5  4  1  0  0  0  0
  6  1  1  0  0  0  0
  8 17  1  0  0  0  0
 10  5  1  0  0  0  0
 11 12  3  0  0  0  0
 13 17  1  0  0  0  0
 13 16  2  0  0  0  0
 14 13  1  0  0  0  0
 15 13  2  0  0  0  0
 18 14  1  0  0  0  0
 19 14  1  0  0  0  0
 20 14  1  0  0  0  0
 21  6  1  0  0  0  0
M  RAD  2   2   2   3   2
M  END
