Coordinates from ORCA-job Ph-N2-OTf-B3LYPG-6-31G_dp-MTMO-d009-169-n800
 OpenBabel09051908113D

 21 20  0  0  0  0  0  0  0  0999 V2000
   -2.1718   -2.9763   -4.4111 C   0  0  0  0  0  0  0  0  0  0  0  0
   -0.9498   -2.3052   -4.3484 C   0  0  0  0  0  0  0  0  0  0  0  0
   -0.9311   -0.9336   -4.5792 C   0  0  0  0  0  0  0  0  0  0  0  0
   -2.0857   -0.2138   -4.8692 C   0  0  0  0  0  0  0  0  0  0  0  0
   -3.2995   -0.8989   -4.9320 C   0  0  0  0  0  0  0  0  0  0  0  0
   -3.3444   -2.2760   -4.7032 C   0  0  0  0  0  0  0  0  0  0  0  0
   -2.2051   -4.0461   -4.2291 H   0  0  0  0  0  0  0  0  0  0  0  0
   -0.0258   -2.8236   -4.1167 H   0  0  0  0  0  0  0  0  0  0  0  0
   -2.0272    0.8546   -5.0416 H   0  0  0  0  0  0  0  0  0  0  0  0
   -4.2101   -0.3532   -5.1589 H   0  0  0  0  0  0  0  0  0  0  0  0
    8.9022    9.9609  -11.1481 N   0  0  0  0  0  0  0  0  0  0  0  0
    9.8646   10.4593  -11.3649 N   0  0  0  0  0  0  0  0  0  0  0  0
    1.2117    0.1039   -5.7450 S   0  0  0  0  0  0  0  0  0  0  0  0
    1.1454    1.9640   -5.5844 C   0  0  0  0  0  0  0  0  0  0  0  0
    0.2976   -0.2526   -4.4222 O   0  0  0  0  0  0  0  0  0  0  0  0
    2.5760   -0.2966   -5.4562 O   0  0  0  0  0  0  0  0  0  0  0  0
    0.5157   -0.2652   -6.9663 O   0  0  0  0  0  0  0  0  0  0  0  0
   -0.1155    2.3842   -5.7210 F   0  0  0  0  0  0  0  0  0  0  0  0
    1.6128    2.3335   -4.3968 F   0  0  0  0  0  0  0  0  0  0  0  0
    1.8942    2.4904   -6.5511 F   0  0  0  0  0  0  0  0  0  0  0  0
   -4.2925   -2.8028   -4.7520 H   0  0  0  0  0  0  0  0  0  0  0  0
  1  2  1  0  0  0  0
  1  7  1  0  0  0  0
  2  8  1  0  0  0  0
  3 15  1  0  0  0  0
  3  2  2  0  0  0  0
  4  3  1  0  0  0  0
  5  4  2  0  0  0  0
  5  6  1  0  0  0  0
  6  1  2  0  0  0  0
  9  4  1  0  0  0  0
 10  5  1  0  0  0  0
 12 11  3  0  0  0  0
 13 14  1  0  0  0  0
 13 16  2  0  0  0  0
 13 15  1  0  0  0  0
 14 19  1  0  0  0  0
 17 13  2  0  0  0  0
 18 14  1  0  0  0  0
 20 14  1  0  0  0  0
 21  6  1  0  0  0  0
M  END
