Coordinates from ORCA-job Ph-N2-OTf-B3LYPG-6-31G_dp-MTMO-d009-169-n800
 OpenBabel09051908113D

 21 19  0  0  0  0  0  0  0  0999 V2000
   -1.4172   -0.9786   -5.5907 C   0  0  0  0  0  0  0  0  0  0  0  0
   -0.6613    0.1375   -5.1483 C   0  0  0  0  0  0  0  0  0  0  0  0
   -1.3330    1.2104   -5.1107 C   0  0  0  0  0  0  0  0  0  0  0  0
   -2.5897    1.6647   -5.3680 C   0  0  0  0  0  0  0  0  0  0  0  0
   -3.3352    0.5443   -5.8095 C   0  0  0  0  0  0  0  0  0  0  0  0
   -2.7615   -0.7347   -5.9151 C   0  0  0  0  0  0  0  0  0  0  0  0
   -0.9869   -1.9716   -5.6800 H   0  0  0  0  0  0  0  0  0  0  0  0
    1.0571   -0.0775   -4.7680 H   0  0  0  0  0  0  0  0  0  0  0  0
   -2.9849    2.6663   -5.2702 H   0  0  0  0  0  0  0  0  0  0  0  0
   -4.3785    0.6972   -6.0715 H   0  0  0  0  0  0  0  0  0  0  0  0
   -0.1441    3.4337   -4.2558 N   0  0  0  0  0  0  0  0  0  0  0  0
    0.7414    3.9745   -3.8763 N   0  0  0  0  0  0  0  0  0  0  0  0
    3.0227    0.6556   -5.3630 S   0  0  0  0  0  0  0  0  0  0  0  0
    3.1781   -0.2740   -6.9695 C   0  0  0  0  0  0  0  0  0  0  0  0
    2.3570    1.9145   -5.6782 O   0  0  0  0  0  0  0  0  0  0  0  0
    4.3162    0.5990   -4.7092 O   0  0  0  0  0  0  0  0  0  0  0  0
    2.0277   -0.3216   -4.5816 O   0  0  0  0  0  0  0  0  0  0  0  0
    1.9610   -0.4546   -7.4959 F   0  0  0  0  0  0  0  0  0  0  0  0
    3.9232    0.4398   -7.8131 F   0  0  0  0  0  0  0  0  0  0  0  0
    3.7489   -1.4591   -6.7629 F   0  0  0  0  0  0  0  0  0  0  0  0
   -3.3793   -1.5590   -6.2602 H   0  0  0  0  0  0  0  0  0  0  0  0
  1  2  2  0  0  0  0
  2  3  1  0  0  0  0
  4  9  1  0  0  0  0
  4  3  2  0  0  0  0
  5  4  1  0  0  0  0
  6  5  2  0  0  0  0
  6  1  1  0  0  0  0
  7  1  1  0  0  0  0
  8 17  1  0  0  0  0
 10  5  1  0  0  0  0
 11 12  3  0  0  0  0
 13 16  2  0  0  0  0
 13 17  1  0  0  0  0
 14 20  1  0  0  0  0
 14 13  1  0  0  0  0
 15 13  2  0  0  0  0
 18 14  1  0  0  0  0
 19 14  1  0  0  0  0
 21  6  1  0  0  0  0
M  RAD  2   2   2   3   2
M  END
