Coordinates from ORCA-job Ph-N2-OTf-B3LYPG-6-31G_dp-MTMO-d009-169-n800
 OpenBabel09051908113D

 21 20  0  0  0  0  0  0  0  0999 V2000
   -1.9295   -2.6959   -4.5382 C   0  0  0  0  0  0  0  0  0  0  0  0
   -0.7053   -2.0287   -4.4765 C   0  0  0  0  0  0  0  0  0  0  0  0
   -0.6784   -0.6617   -4.7329 C   0  0  0  0  0  0  0  0  0  0  0  0
   -1.8272    0.0573   -5.0473 C   0  0  0  0  0  0  0  0  0  0  0  0
   -3.0432   -0.6240   -5.1090 C   0  0  0  0  0  0  0  0  0  0  0  0
   -3.0962   -1.9964   -4.8547 C   0  0  0  0  0  0  0  0  0  0  0  0
   -1.9691   -3.7617   -4.3362 H   0  0  0  0  0  0  0  0  0  0  0  0
    0.2144   -2.5463   -4.2263 H   0  0  0  0  0  0  0  0  0  0  0  0
   -1.7627    1.1219   -5.2391 H   0  0  0  0  0  0  0  0  0  0  0  0
   -3.9493   -0.0790   -5.3549 H   0  0  0  0  0  0  0  0  0  0  0  0
    6.4876    7.3988   -9.6024 N   0  0  0  0  0  0  0  0  0  0  0  0
    7.3760    7.9603   -9.9447 N   0  0  0  0  0  0  0  0  0  0  0  0
    1.4743    0.3549   -5.8987 S   0  0  0  0  0  0  0  0  0  0  0  0
    1.4212    2.2167   -5.7524 C   0  0  0  0  0  0  0  0  0  0  0  0
    0.5520    0.0162   -4.5769 O   0  0  0  0  0  0  0  0  0  0  0  0
    2.8344   -0.0537   -5.6016 O   0  0  0  0  0  0  0  0  0  0  0  0
    0.7805   -0.0184   -7.1200 O   0  0  0  0  0  0  0  0  0  0  0  0
    0.1639    2.6450   -5.8972 F   0  0  0  0  0  0  0  0  0  0  0  0
    1.8865    2.5916   -4.5658 F   0  0  0  0  0  0  0  0  0  0  0  0
    2.1777    2.7300   -6.7200 F   0  0  0  0  0  0  0  0  0  0  0  0
   -4.0461   -2.5201   -4.9027 H   0  0  0  0  0  0  0  0  0  0  0  0
  1  2  1  0  0  0  0
  1  7  1  0  0  0  0
  2  8  1  0  0  0  0
  3 15  1  0  0  0  0
  3  2  2  0  0  0  0
  4  3  1  0  0  0  0
  5  4  2  0  0  0  0
  5  6  1  0  0  0  0
  6  1  2  0  0  0  0
  9  4  1  0  0  0  0
 10  5  1  0  0  0  0
 12 11  3  0  0  0  0
 13 14  1  0  0  0  0
 13 16  2  0  0  0  0
 13 15  1  0  0  0  0
 14 19  1  0  0  0  0
 17 13  2  0  0  0  0
 18 14  1  0  0  0  0
 20 14  1  0  0  0  0
 21  6  1  0  0  0  0
M  END
