Coordinates from ORCA-job Ph-N2-OTf-B3LYPG-6-31G_dp-MTMO-d009-169-n800
 OpenBabel09051908113D

 21 20  0  0  0  0  0  0  0  0999 V2000
   -1.7658   -2.4434   -4.5684 C   0  0  0  0  0  0  0  0  0  0  0  0
   -0.5318   -1.7923   -4.5332 C   0  0  0  0  0  0  0  0  0  0  0  0
   -0.4829   -0.4410   -4.8594 C   0  0  0  0  0  0  0  0  0  0  0  0
   -1.6185    0.2780   -5.2182 C   0  0  0  0  0  0  0  0  0  0  0  0
   -2.8444   -0.3872   -5.2526 C   0  0  0  0  0  0  0  0  0  0  0  0
   -2.9198   -1.7437   -4.9282 C   0  0  0  0  0  0  0  0  0  0  0  0
   -1.8229   -3.4966   -4.3123 H   0  0  0  0  0  0  0  0  0  0  0  0
    0.3785   -2.3099   -4.2509 H   0  0  0  0  0  0  0  0  0  0  0  0
   -1.5363    1.3302   -5.4641 H   0  0  0  0  0  0  0  0  0  0  0  0
   -3.7406    0.1576   -5.5325 H   0  0  0  0  0  0  0  0  0  0  0  0
    4.5553    5.4767   -8.2251 N   0  0  0  0  0  0  0  0  0  0  0  0
    5.3146    6.1259   -8.6979 N   0  0  0  0  0  0  0  0  0  0  0  0
    1.6878    0.4902   -6.0649 S   0  0  0  0  0  0  0  0  0  0  0  0
    1.6972    2.3570   -5.9768 C   0  0  0  0  0  0  0  0  0  0  0  0
    0.7569    0.2259   -4.7316 O   0  0  0  0  0  0  0  0  0  0  0  0
    3.0345    0.0451   -5.7580 O   0  0  0  0  0  0  0  0  0  0  0  0
    0.9787    0.1015   -7.2726 O   0  0  0  0  0  0  0  0  0  0  0  0
    0.4544    2.8204   -6.1378 F   0  0  0  0  0  0  0  0  0  0  0  0
    2.1722    2.7520   -4.8005 F   0  0  0  0  0  0  0  0  0  0  0  0
    2.4720    2.8153   -6.9572 F   0  0  0  0  0  0  0  0  0  0  0  0
   -3.8773   -2.2549   -4.9554 H   0  0  0  0  0  0  0  0  0  0  0  0
  1  2  1  0  0  0  0
  1  7  1  0  0  0  0
  2  8  1  0  0  0  0
  3 15  1  0  0  0  0
  3  2  2  0  0  0  0
  4  3  1  0  0  0  0
  5  4  2  0  0  0  0
  5  6  1  0  0  0  0
  6  1  2  0  0  0  0
  9  4  1  0  0  0  0
 10  5  1  0  0  0  0
 12 11  3  0  0  0  0
 13 14  1  0  0  0  0
 13 16  2  0  0  0  0
 13 15  1  0  0  0  0
 14 19  1  0  0  0  0
 17 13  2  0  0  0  0
 18 14  1  0  0  0  0
 20 14  1  0  0  0  0
 21  6  1  0  0  0  0
M  END
