Coordinates from ORCA-job Ph-N2-OTf-B3LYPG-6-31G_dp-MTMO-d009-169-n800
 OpenBabel09051908113D

 21 20  0  0  0  0  0  0  0  0999 V2000
   -1.9087   -1.6680   -4.8737 C   0  0  0  0  0  0  0  0  0  0  0  0
   -0.5887   -1.2951   -4.6167 C   0  0  0  0  0  0  0  0  0  0  0  0
   -0.1802   -0.0122   -4.9698 C   0  0  0  0  0  0  0  0  0  0  0  0
   -1.0439    0.9055   -5.5604 C   0  0  0  0  0  0  0  0  0  0  0  0
   -2.3632    0.5200   -5.8028 C   0  0  0  0  0  0  0  0  0  0  0  0
   -2.7955   -0.7640   -5.4630 C   0  0  0  0  0  0  0  0  0  0  0  0
   -2.2428   -2.6656   -4.6072 H   0  0  0  0  0  0  0  0  0  0  0  0
    0.1125   -1.9800   -4.1542 H   0  0  0  0  0  0  0  0  0  0  0  0
   -0.6833    1.8934   -5.8208 H   0  0  0  0  0  0  0  0  0  0  0  0
   -3.0512    1.2253   -6.2587 H   0  0  0  0  0  0  0  0  0  0  0  0
    0.5068    4.3805   -6.2423 N   0  0  0  0  0  0  0  0  0  0  0  0
    0.5954    5.4553   -6.0016 N   0  0  0  0  0  0  0  0  0  0  0  0
    2.4273   -0.1182   -5.4778 S   0  0  0  0  0  0  0  0  0  0  0  0
    2.6230    1.3071   -6.6712 C   0  0  0  0  0  0  0  0  0  0  0  0
    1.1224    0.4251   -4.6377 O   0  0  0  0  0  0  0  0  0  0  0  0
    3.5476   -0.0608   -4.5597 O   0  0  0  0  0  0  0  0  0  0  0  0
    2.0890   -1.2975   -6.2567 O   0  0  0  0  0  0  0  0  0  0  0  0
    1.5168    1.4317   -7.4066 F   0  0  0  0  0  0  0  0  0  0  0  0
    2.8394    2.4324   -5.9946 F   0  0  0  0  0  0  0  0  0  0  0  0
    3.6607    1.0517   -7.4648 F   0  0  0  0  0  0  0  0  0  0  0  0
   -3.8217   -1.0598   -5.6573 H   0  0  0  0  0  0  0  0  0  0  0  0
  1  2  1  0  0  0  0
  1  7  1  0  0  0  0
  2  8  1  0  0  0  0
  3 15  1  0  0  0  0
  3  2  2  0  0  0  0
  4  3  1  0  0  0  0
  5  4  2  0  0  0  0
  5  6  1  0  0  0  0
  6  1  2  0  0  0  0
  9  4  1  0  0  0  0
 10  5  1  0  0  0  0
 11 12  3  0  0  0  0
 13 15  1  0  0  0  0
 13 16  2  0  0  0  0
 14 19  1  0  0  0  0
 14 13  1  0  0  0  0
 17 13  2  0  0  0  0
 18 14  1  0  0  0  0
 20 14  1  0  0  0  0
 21  6  1  0  0  0  0
M  END
