Coordinates from ORCA-job Ph-N2-OTf-B3LYPG-6-31G_dp-MTMO-d009-169-n800
 OpenBabel09051908113D

 21 20  0  0  0  0  0  0  0  0999 V2000
   -1.9493   -2.7272   -4.5254 C   0  0  0  0  0  0  0  0  0  0  0  0
   -0.7266   -2.0572   -4.4655 C   0  0  0  0  0  0  0  0  0  0  0  0
   -0.7040   -0.6893   -4.7175 C   0  0  0  0  0  0  0  0  0  0  0  0
   -1.8555    0.0278   -5.0260 C   0  0  0  0  0  0  0  0  0  0  0  0
   -3.0700   -0.6563   -5.0859 C   0  0  0  0  0  0  0  0  0  0  0  0
   -3.1188   -2.0296   -4.8359 C   0  0  0  0  0  0  0  0  0  0  0  0
   -1.9856   -3.7939   -4.3267 H   0  0  0  0  0  0  0  0  0  0  0  0
    0.1951   -2.5733   -4.2198 H   0  0  0  0  0  0  0  0  0  0  0  0
   -1.7943    1.0932   -5.2145 H   0  0  0  0  0  0  0  0  0  0  0  0
   -3.9782   -0.1129   -5.3272 H   0  0  0  0  0  0  0  0  0  0  0  0
    6.7410    7.6581   -9.7721 N   0  0  0  0  0  0  0  0  0  0  0  0
    7.6527    8.2056  -10.0732 N   0  0  0  0  0  0  0  0  0  0  0  0
    1.4434    0.3347   -5.8868 S   0  0  0  0  0  0  0  0  0  0  0  0
    1.3850    2.1961   -5.7378 C   0  0  0  0  0  0  0  0  0  0  0  0
    0.5252   -0.0087   -4.5633 O   0  0  0  0  0  0  0  0  0  0  0  0
    2.8054   -0.0702   -5.5933 O   0  0  0  0  0  0  0  0  0  0  0  0
    0.7479   -0.0390   -7.1069 O   0  0  0  0  0  0  0  0  0  0  0  0
    0.1262    2.6209   -5.8795 F   0  0  0  0  0  0  0  0  0  0  0  0
    1.8515    2.5708   -4.5515 F   0  0  0  0  0  0  0  0  0  0  0  0
    2.1381    2.7130   -6.7062 F   0  0  0  0  0  0  0  0  0  0  0  0
   -4.0676   -2.5556   -4.8825 H   0  0  0  0  0  0  0  0  0  0  0  0
  1  2  1  0  0  0  0
  1  7  1  0  0  0  0
  2  8  1  0  0  0  0
  3 15  1  0  0  0  0
  3  2  2  0  0  0  0
  4  3  1  0  0  0  0
  5  4  2  0  0  0  0
  5  6  1  0  0  0  0
  6  1  2  0  0  0  0
  9  4  1  0  0  0  0
 10  5  1  0  0  0  0
 12 11  3  0  0  0  0
 13 14  1  0  0  0  0
 13 16  2  0  0  0  0
 13 15  1  0  0  0  0
 14 19  1  0  0  0  0
 17 13  2  0  0  0  0
 18 14  1  0  0  0  0
 20 14  1  0  0  0  0
 21  6  1  0  0  0  0
M  END
