Coordinates from ORCA-job Ph-N2-OTf-B3LYPG-6-31G_dp-MTMO-d009-169-n800
 OpenBabel09051908113D

 21 19  0  0  0  0  0  0  0  0999 V2000
   -1.4150   -0.9748   -5.5909 C   0  0  0  0  0  0  0  0  0  0  0  0
   -0.6590    0.1405   -5.1461 C   0  0  0  0  0  0  0  0  0  0  0  0
   -1.3322    1.2129   -5.1080 C   0  0  0  0  0  0  0  0  0  0  0  0
   -2.5889    1.6668   -5.3657 C   0  0  0  0  0  0  0  0  0  0  0  0
   -3.3337    0.5470   -5.8094 C   0  0  0  0  0  0  0  0  0  0  0  0
   -2.7592   -0.7316   -5.9162 C   0  0  0  0  0  0  0  0  0  0  0  0
   -0.9843   -1.9675   -5.6812 H   0  0  0  0  0  0  0  0  0  0  0  0
    1.0573   -0.0743   -4.7667 H   0  0  0  0  0  0  0  0  0  0  0  0
   -2.9840    2.6683   -5.2666 H   0  0  0  0  0  0  0  0  0  0  0  0
   -4.3768    0.6997   -6.0721 H   0  0  0  0  0  0  0  0  0  0  0  0
   -0.1523    3.4181   -4.2560 N   0  0  0  0  0  0  0  0  0  0  0  0
    0.7330    3.9603   -3.8779 N   0  0  0  0  0  0  0  0  0  0  0  0
    3.0224    0.6578   -5.3652 S   0  0  0  0  0  0  0  0  0  0  0  0
    3.1778   -0.2768   -6.9687 C   0  0  0  0  0  0  0  0  0  0  0  0
    2.3555    1.9152   -5.6843 O   0  0  0  0  0  0  0  0  0  0  0  0
    4.3164    0.6046   -4.7121 O   0  0  0  0  0  0  0  0  0  0  0  0
    2.0286   -0.3173   -4.5800 O   0  0  0  0  0  0  0  0  0  0  0  0
    1.9605   -0.4608   -7.4937 F   0  0  0  0  0  0  0  0  0  0  0  0
    3.9213    0.4350   -7.8153 F   0  0  0  0  0  0  0  0  0  0  0  0
    3.7502   -1.4606   -6.7586 F   0  0  0  0  0  0  0  0  0  0  0  0
   -3.3760   -1.5558   -6.2629 H   0  0  0  0  0  0  0  0  0  0  0  0
  1  2  2  0  0  0  0
  2  3  1  0  0  0  0
  4  9  1  0  0  0  0
  4  3  2  0  0  0  0
  5  4  1  0  0  0  0
  6  5  2  0  0  0  0
  6  1  1  0  0  0  0
  7  1  1  0  0  0  0
  8 17  1  0  0  0  0
 10  5  1  0  0  0  0
 11 12  3  0  0  0  0
 13 16  2  0  0  0  0
 13 17  1  0  0  0  0
 14 20  1  0  0  0  0
 14 13  1  0  0  0  0
 15 13  2  0  0  0  0
 18 14  1  0  0  0  0
 19 14  1  0  0  0  0
 21  6  1  0  0  0  0
M  RAD  2   2   2   3   2
M  END
