Coordinates from ORCA-job Ph-N2-OTf-B3LYPG-6-31G_dp-MTMO-d009-169-n800
 OpenBabel09051908113D

 21 20  0  0  0  0  0  0  0  0999 V2000
   -2.1158   -2.9172   -4.4419 C   0  0  0  0  0  0  0  0  0  0  0  0
   -0.8941   -2.2453   -4.3791 C   0  0  0  0  0  0  0  0  0  0  0  0
   -0.8758   -0.8742   -4.6129 C   0  0  0  0  0  0  0  0  0  0  0  0
   -2.0303   -0.1555   -4.9059 C   0  0  0  0  0  0  0  0  0  0  0  0
   -3.2437   -0.8414   -4.9687 C   0  0  0  0  0  0  0  0  0  0  0  0
   -3.2883   -2.2180   -4.7370 C   0  0  0  0  0  0  0  0  0  0  0  0
   -2.1488   -3.9865   -4.2576 H   0  0  0  0  0  0  0  0  0  0  0  0
    0.0298   -2.7628   -4.1451 H   0  0  0  0  0  0  0  0  0  0  0  0
   -1.9721    0.9124   -5.0804 H   0  0  0  0  0  0  0  0  0  0  0  0
   -4.1543   -0.2966   -5.1980 H   0  0  0  0  0  0  0  0  0  0  0  0
    8.3731    9.4026  -10.8262 N   0  0  0  0  0  0  0  0  0  0  0  0
    9.3362    9.8992  -11.0440 N   0  0  0  0  0  0  0  0  0  0  0  0
    1.2674    0.1630   -5.7783 S   0  0  0  0  0  0  0  0  0  0  0  0
    1.2009    2.0233   -5.6189 C   0  0  0  0  0  0  0  0  0  0  0  0
    0.3524   -0.1925   -4.4557 O   0  0  0  0  0  0  0  0  0  0  0  0
    2.6315   -0.2372   -5.4884 O   0  0  0  0  0  0  0  0  0  0  0  0
    0.5721   -0.2070   -6.9997 O   0  0  0  0  0  0  0  0  0  0  0  0
   -0.0601    2.4432   -5.7565 F   0  0  0  0  0  0  0  0  0  0  0  0
    1.6676    2.3936   -4.4314 F   0  0  0  0  0  0  0  0  0  0  0  0
    1.9500    2.5491   -6.5857 F   0  0  0  0  0  0  0  0  0  0  0  0
   -4.2361   -2.7453   -4.7859 H   0  0  0  0  0  0  0  0  0  0  0  0
  1  2  1  0  0  0  0
  1  7  1  0  0  0  0
  2  8  1  0  0  0  0
  3 15  1  0  0  0  0
  3  2  2  0  0  0  0
  4  3  1  0  0  0  0
  5  4  2  0  0  0  0
  5  6  1  0  0  0  0
  6  1  2  0  0  0  0
  9  4  1  0  0  0  0
 10  5  1  0  0  0  0
 12 11  3  0  0  0  0
 13 14  1  0  0  0  0
 13 16  2  0  0  0  0
 13 15  1  0  0  0  0
 14 19  1  0  0  0  0
 17 13  2  0  0  0  0
 18 14  1  0  0  0  0
 20 14  1  0  0  0  0
 21  6  1  0  0  0  0
M  END
