Coordinates from ORCA-job Ph-N2-OTf-B3LYPG-6-31G_dp-MTMO-d009-169-n800
 OpenBabel09051908113D

 21 20  0  0  0  0  0  0  0  0999 V2000
   -1.9200   -2.6815   -4.5431 C   0  0  0  0  0  0  0  0  0  0  0  0
   -0.6952   -2.0154   -4.4813 C   0  0  0  0  0  0  0  0  0  0  0  0
   -0.6667   -0.6489   -4.7400 C   0  0  0  0  0  0  0  0  0  0  0  0
   -1.8143    0.0707   -5.0569 C   0  0  0  0  0  0  0  0  0  0  0  0
   -3.0310   -0.6095   -5.1187 C   0  0  0  0  0  0  0  0  0  0  0  0
   -3.0857   -1.9813   -4.8620 C   0  0  0  0  0  0  0  0  0  0  0  0
   -1.9609   -3.7469   -4.3392 H   0  0  0  0  0  0  0  0  0  0  0  0
    0.2237   -2.5335   -4.2292 H   0  0  0  0  0  0  0  0  0  0  0  0
   -1.7487    1.1349   -5.2504 H   0  0  0  0  0  0  0  0  0  0  0  0
   -3.9362   -0.0641   -5.3665 H   0  0  0  0  0  0  0  0  0  0  0  0
    6.3709    7.2822   -9.5260 N   0  0  0  0  0  0  0  0  0  0  0  0
    7.2528    7.8466   -9.8801 N   0  0  0  0  0  0  0  0  0  0  0  0
    1.4880    0.3642   -5.9054 S   0  0  0  0  0  0  0  0  0  0  0  0
    1.4371    2.2261   -5.7609 C   0  0  0  0  0  0  0  0  0  0  0  0
    0.5644    0.0279   -4.5839 O   0  0  0  0  0  0  0  0  0  0  0  0
    2.8474   -0.0459   -5.6069 O   0  0  0  0  0  0  0  0  0  0  0  0
    0.7946   -0.0094   -7.1268 O   0  0  0  0  0  0  0  0  0  0  0  0
    0.1805    2.6559   -5.9068 F   0  0  0  0  0  0  0  0  0  0  0  0
    1.9022    2.6016   -4.5744 F   0  0  0  0  0  0  0  0  0  0  0  0
    2.1948    2.7375   -6.7287 F   0  0  0  0  0  0  0  0  0  0  0  0
   -4.0361   -2.5042   -4.9102 H   0  0  0  0  0  0  0  0  0  0  0  0
  1  2  1  0  0  0  0
  1  7  1  0  0  0  0
  2  8  1  0  0  0  0
  3 15  1  0  0  0  0
  3  2  2  0  0  0  0
  4  3  1  0  0  0  0
  5  4  2  0  0  0  0
  5  6  1  0  0  0  0
  6  1  2  0  0  0  0
  9  4  1  0  0  0  0
 10  5  1  0  0  0  0
 12 11  3  0  0  0  0
 13 14  1  0  0  0  0
 13 16  2  0  0  0  0
 13 15  1  0  0  0  0
 14 19  1  0  0  0  0
 17 13  2  0  0  0  0
 18 14  1  0  0  0  0
 20 14  1  0  0  0  0
 21  6  1  0  0  0  0
M  END
