Coordinates from ORCA-job Ph-N2-OTf-B3LYPG-6-31G_dp-MTMO-d009-169-n800
 OpenBabel09051908113D

 21 20  0  0  0  0  0  0  0  0999 V2000
   -1.9415   -2.7144   -4.5310 C   0  0  0  0  0  0  0  0  0  0  0  0
   -0.7181   -2.0456   -4.4701 C   0  0  0  0  0  0  0  0  0  0  0  0
   -0.6936   -0.6781   -4.7237 C   0  0  0  0  0  0  0  0  0  0  0  0
   -1.8439    0.0398   -5.0348 C   0  0  0  0  0  0  0  0  0  0  0  0
   -3.0591   -0.6430   -5.0957 C   0  0  0  0  0  0  0  0  0  0  0  0
   -3.1097   -2.0160   -4.8441 C   0  0  0  0  0  0  0  0  0  0  0  0
   -1.9792   -3.7808   -4.3311 H   0  0  0  0  0  0  0  0  0  0  0  0
    0.2027   -2.5624   -4.2224 H   0  0  0  0  0  0  0  0  0  0  0  0
   -1.7812    1.1049   -5.2245 H   0  0  0  0  0  0  0  0  0  0  0  0
   -3.9663   -0.0988   -5.3390 H   0  0  0  0  0  0  0  0  0  0  0  0
    6.6380    7.5517   -9.7018 N   0  0  0  0  0  0  0  0  0  0  0  0
    7.5383    8.1061  -10.0239 N   0  0  0  0  0  0  0  0  0  0  0  0
    1.4562    0.3429   -5.8911 S   0  0  0  0  0  0  0  0  0  0  0  0
    1.4001    2.2044   -5.7429 C   0  0  0  0  0  0  0  0  0  0  0  0
    0.5361    0.0013   -4.5685 O   0  0  0  0  0  0  0  0  0  0  0  0
    2.8174   -0.0636   -5.5959 O   0  0  0  0  0  0  0  0  0  0  0  0
    0.7616   -0.0304   -7.1119 O   0  0  0  0  0  0  0  0  0  0  0  0
    0.1419    2.6308   -5.8861 F   0  0  0  0  0  0  0  0  0  0  0  0
    1.8659    2.5790   -4.5564 F   0  0  0  0  0  0  0  0  0  0  0  0
    2.1548    2.7200   -6.7108 F   0  0  0  0  0  0  0  0  0  0  0  0
   -4.0589   -2.5409   -4.8916 H   0  0  0  0  0  0  0  0  0  0  0  0
  1  2  1  0  0  0  0
  1  7  1  0  0  0  0
  2  8  1  0  0  0  0
  3 15  1  0  0  0  0
  3  2  2  0  0  0  0
  4  3  1  0  0  0  0
  5  4  2  0  0  0  0
  5  6  1  0  0  0  0
  6  1  2  0  0  0  0
  9  4  1  0  0  0  0
 10  5  1  0  0  0  0
 12 11  3  0  0  0  0
 13 14  1  0  0  0  0
 13 16  2  0  0  0  0
 13 15  1  0  0  0  0
 14 19  1  0  0  0  0
 17 13  2  0  0  0  0
 18 14  1  0  0  0  0
 20 14  1  0  0  0  0
 21  6  1  0  0  0  0
M  END
