Coordinates from ORCA-job Ph-N2-OTf-B3LYPG-6-31G_dp-MTMO-d009-169-n800
 OpenBabel09051908113D

 21 20  0  0  0  0  0  0  0  0999 V2000
   -1.4947   -0.8578   -5.9845 C   0  0  0  0  0  0  0  0  0  0  0  0
   -0.5837   -0.0420   -5.3099 C   0  0  0  0  0  0  0  0  0  0  0  0
   -1.0989    1.1653   -4.8699 C   0  0  0  0  0  0  0  0  0  0  0  0
   -2.3918    1.6380   -5.0193 C   0  0  0  0  0  0  0  0  0  0  0  0
   -3.2668    0.7917   -5.7007 C   0  0  0  0  0  0  0  0  0  0  0  0
   -2.8169   -0.4449   -6.1774 C   0  0  0  0  0  0  0  0  0  0  0  0
   -1.1552   -1.8145   -6.3660 H   0  0  0  0  0  0  0  0  0  0  0  0
    0.4519   -0.3077   -5.1398 H   0  0  0  0  0  0  0  0  0  0  0  0
   -2.6939    2.6049   -4.6372 H   0  0  0  0  0  0  0  0  0  0  0  0
   -4.2941    1.1009   -5.8596 H   0  0  0  0  0  0  0  0  0  0  0  0
   -0.0880    2.1108   -4.1063 N   0  0  0  0  0  0  0  0  0  0  0  0
    0.9407    2.3809   -3.7443 N   0  0  0  0  0  0  0  0  0  0  0  0
    2.8790    1.2384   -5.7055 S   0  0  0  0  0  0  0  0  0  0  0  0
    3.2326   -0.4084   -6.5040 C   0  0  0  0  0  0  0  0  0  0  0  0
    1.8002    1.8285   -6.5247 O   0  0  0  0  0  0  0  0  0  0  0  0
    4.1726    1.9207   -5.6635 O   0  0  0  0  0  0  0  0  0  0  0  0
    2.3502    0.7811   -4.3517 O   0  0  0  0  0  0  0  0  0  0  0  0
    2.1109   -1.1693   -6.5353 F   0  0  0  0  0  0  0  0  0  0  0  0
    3.6461   -0.2355   -7.7626 F   0  0  0  0  0  0  0  0  0  0  0  0
    4.1679   -1.0802   -5.8277 F   0  0  0  0  0  0  0  0  0  0  0  0
   -3.5066   -1.0939   -6.7077 H   0  0  0  0  0  0  0  0  0  0  0  0
  1  2  1  0  0  0  0
  2  8  1  0  0  0  0
  2  3  2  0  0  0  0
  3 11  1  0  0  0  0
  4  3  1  0  0  0  0
  4  9  1  0  0  0  0
  5  4  2  0  0  0  0
  6  1  2  0  0  0  0
  6  5  1  0  0  0  0
  7  1  1  0  0  0  0
 10  5  1  0  0  0  0
 11 12  2  0  0  0  0
 13 16  2  0  0  0  0
 13 17  1  0  0  0  0
 14 20  1  0  0  0  0
 14 13  1  0  0  0  0
 15 13  2  0  0  0  0
 18 14  1  0  0  0  0
 19 14  1  0  0  0  0
 21  6  1  0  0  0  0
M  RAD  2  12   2  17   2
M  END
