Coordinates from ORCA-job Ph-N2-OTf-B3LYPG-6-31G_dp-MTMO-d009-169-n800
 OpenBabel09051908113D

 21 20  0  0  0  0  0  0  0  0999 V2000
   -1.8419   -2.5715   -4.5792 C   0  0  0  0  0  0  0  0  0  0  0  0
   -0.6133   -1.9120   -4.5197 C   0  0  0  0  0  0  0  0  0  0  0  0
   -0.5753   -0.5492   -4.7957 C   0  0  0  0  0  0  0  0  0  0  0  0
   -1.7169    0.1731   -5.1277 C   0  0  0  0  0  0  0  0  0  0  0  0
   -2.9373   -0.5005   -5.1871 C   0  0  0  0  0  0  0  0  0  0  0  0
   -3.0016   -1.8686   -4.9131 C   0  0  0  0  0  0  0  0  0  0  0  0
   -1.8902   -3.6340   -4.3619 H   0  0  0  0  0  0  0  0  0  0  0  0
    0.3011   -2.4323   -4.2562 H   0  0  0  0  0  0  0  0  0  0  0  0
   -1.6439    1.2343   -5.3344 H   0  0  0  0  0  0  0  0  0  0  0  0
   -3.8380    0.0471   -5.4466 H   0  0  0  0  0  0  0  0  0  0  0  0
    5.4702    6.3963   -8.9249 N   0  0  0  0  0  0  0  0  0  0  0  0
    6.3216    6.9446   -9.3678 N   0  0  0  0  0  0  0  0  0  0  0  0
    1.5898    0.4387   -5.9633 S   0  0  0  0  0  0  0  0  0  0  0  0
    1.5538    2.3021   -5.8348 C   0  0  0  0  0  0  0  0  0  0  0  0
    0.6591    0.1220   -4.6420 O   0  0  0  0  0  0  0  0  0  0  0  0
    2.9448    0.0197   -5.6574 O   0  0  0  0  0  0  0  0  0  0  0  0
    0.8971    0.0602   -7.1837 O   0  0  0  0  0  0  0  0  0  0  0  0
    0.3008    2.7405   -5.9873 F   0  0  0  0  0  0  0  0  0  0  0  0
    2.0191    2.6838   -4.6503 F   0  0  0  0  0  0  0  0  0  0  0  0
    2.3177    2.7991   -6.8049 F   0  0  0  0  0  0  0  0  0  0  0  0
   -3.9549   -2.3863   -4.9595 H   0  0  0  0  0  0  0  0  0  0  0  0
  1  2  1  0  0  0  0
  1  7  1  0  0  0  0
  2  8  1  0  0  0  0
  3 15  1  0  0  0  0
  3  2  2  0  0  0  0
  4  3  1  0  0  0  0
  5  4  2  0  0  0  0
  5  6  1  0  0  0  0
  6  1  2  0  0  0  0
  9  4  1  0  0  0  0
 10  5  1  0  0  0  0
 12 11  3  0  0  0  0
 13 14  1  0  0  0  0
 13 16  2  0  0  0  0
 13 15  1  0  0  0  0
 14 19  1  0  0  0  0
 17 13  2  0  0  0  0
 18 14  1  0  0  0  0
 20 14  1  0  0  0  0
 21  6  1  0  0  0  0
M  END
