Coordinates from ORCA-job Ph-N2-OTf-B3LYPG-6-31G_dp-MTMO-d009-169-n800
 OpenBabel09051908113D

 21 20  0  0  0  0  0  0  0  0999 V2000
   -1.7351   -2.2888   -4.3851 C   0  0  0  0  0  0  0  0  0  0  0  0
   -0.4921   -1.6570   -4.4458 C   0  0  0  0  0  0  0  0  0  0  0  0
   -0.4339   -0.3466   -4.9087 C   0  0  0  0  0  0  0  0  0  0  0  0
   -1.5684    0.3506   -5.3106 C   0  0  0  0  0  0  0  0  0  0  0  0
   -2.8040   -0.2944   -5.2456 C   0  0  0  0  0  0  0  0  0  0  0  0
   -2.8887   -1.6102   -4.7845 C   0  0  0  0  0  0  0  0  0  0  0  0
   -1.7993   -3.3104   -4.0245 H   0  0  0  0  0  0  0  0  0  0  0  0
    0.4181   -2.1582   -4.1349 H   0  0  0  0  0  0  0  0  0  0  0  0
   -1.4771    1.3707   -5.6642 H   0  0  0  0  0  0  0  0  0  0  0  0
   -3.7001    0.2337   -5.5561 H   0  0  0  0  0  0  0  0  0  0  0  0
    4.0728    5.2764   -7.3498 N   0  0  0  0  0  0  0  0  0  0  0  0
    4.7500    6.1154   -7.5922 N   0  0  0  0  0  0  0  0  0  0  0  0
    1.7445    0.3513   -6.2450 S   0  0  0  0  0  0  0  0  0  0  0  0
    1.7935    2.2093   -6.4500 C   0  0  0  0  0  0  0  0  0  0  0  0
    0.8157    0.3146   -4.8843 O   0  0  0  0  0  0  0  0  0  0  0  0
    3.0838   -0.0701   -5.8775 O   0  0  0  0  0  0  0  0  0  0  0  0
    1.0197   -0.2046   -7.3755 O   0  0  0  0  0  0  0  0  0  0  0  0
    0.5535    2.6754   -6.6249 F   0  0  0  0  0  0  0  0  0  0  0  0
    2.3355    2.7711   -5.3757 F   0  0  0  0  0  0  0  0  0  0  0  0
    2.5265    2.4848   -7.5265 F   0  0  0  0  0  0  0  0  0  0  0  0
   -3.8534   -2.1061   -4.7359 H   0  0  0  0  0  0  0  0  0  0  0  0
  1  7  1  0  0  0  0
  2  1  1  0  0  0  0
  2  8  1  0  0  0  0
  3 15  1  0  0  0  0
  3  2  2  0  0  0  0
  4  5  2  0  0  0  0
  4  3  1  0  0  0  0
  5  6  1  0  0  0  0
  6 21  1  0  0  0  0
  6  1  2  0  0  0  0
  9  4  1  0  0  0  0
 10  5  1  0  0  0  0
 12 11  3  0  0  0  0
 13 16  2  0  0  0  0
 13 15  1  0  0  0  0
 14 13  1  0  0  0  0
 14 19  1  0  0  0  0
 17 13  2  0  0  0  0
 18 14  1  0  0  0  0
 20 14  1  0  0  0  0
M  END
