Coordinates from ORCA-job Ph-N2-OTf-B3LYPG-6-31G_dp-MTMO-d009-169-n800
 OpenBabel09051908113D

 21 20  0  0  0  0  0  0  0  0999 V2000
   -2.1742   -2.9789   -4.4098 C   0  0  0  0  0  0  0  0  0  0  0  0
   -0.9522   -2.3078   -4.3471 C   0  0  0  0  0  0  0  0  0  0  0  0
   -0.9335   -0.9361   -4.5778 C   0  0  0  0  0  0  0  0  0  0  0  0
   -2.0882   -0.2163   -4.8676 C   0  0  0  0  0  0  0  0  0  0  0  0
   -3.3020   -0.9014   -4.9303 C   0  0  0  0  0  0  0  0  0  0  0  0
   -3.3468   -2.2786   -4.7017 C   0  0  0  0  0  0  0  0  0  0  0  0
   -2.2074   -4.0486   -4.2278 H   0  0  0  0  0  0  0  0  0  0  0  0
   -0.0281   -2.8261   -4.1155 H   0  0  0  0  0  0  0  0  0  0  0  0
   -2.0297    0.8520   -5.0398 H   0  0  0  0  0  0  0  0  0  0  0  0
   -4.2127   -0.3558   -5.1570 H   0  0  0  0  0  0  0  0  0  0  0  0
    8.9254    9.9851  -11.1620 N   0  0  0  0  0  0  0  0  0  0  0  0
    9.8877   10.4837  -11.3788 N   0  0  0  0  0  0  0  0  0  0  0  0
    1.2092    0.1013   -5.7437 S   0  0  0  0  0  0  0  0  0  0  0  0
    1.1430    1.9615   -5.5830 C   0  0  0  0  0  0  0  0  0  0  0  0
    0.2951   -0.2551   -4.4208 O   0  0  0  0  0  0  0  0  0  0  0  0
    2.5735   -0.2992   -5.4549 O   0  0  0  0  0  0  0  0  0  0  0  0
    0.5132   -0.2677   -6.9650 O   0  0  0  0  0  0  0  0  0  0  0  0
   -0.1179    2.3816   -5.7196 F   0  0  0  0  0  0  0  0  0  0  0  0
    1.6104    2.3309   -4.3954 F   0  0  0  0  0  0  0  0  0  0  0  0
    1.8918    2.4879   -6.5497 F   0  0  0  0  0  0  0  0  0  0  0  0
   -4.2949   -2.8054   -4.7504 H   0  0  0  0  0  0  0  0  0  0  0  0
  1  2  1  0  0  0  0
  1  7  1  0  0  0  0
  2  8  1  0  0  0  0
  3 15  1  0  0  0  0
  3  2  2  0  0  0  0
  4  3  1  0  0  0  0
  5  4  2  0  0  0  0
  5  6  1  0  0  0  0
  6  1  2  0  0  0  0
  9  4  1  0  0  0  0
 10  5  1  0  0  0  0
 12 11  3  0  0  0  0
 13 14  1  0  0  0  0
 13 16  2  0  0  0  0
 13 15  1  0  0  0  0
 14 19  1  0  0  0  0
 17 13  2  0  0  0  0
 18 14  1  0  0  0  0
 20 14  1  0  0  0  0
 21  6  1  0  0  0  0
M  END
