Coordinates from ORCA-job Ph-N2-OTf-B3LYPG-6-31G_dp-MTMO-d009-169-n800
 OpenBabel09051908113D

 21 20  0  0  0  0  0  0  0  0999 V2000
   -2.0044   -2.7960   -4.4987 C   0  0  0  0  0  0  0  0  0  0  0  0
   -0.7829   -2.1238   -4.4379 C   0  0  0  0  0  0  0  0  0  0  0  0
   -0.7640   -0.7543   -4.6808 C   0  0  0  0  0  0  0  0  0  0  0  0
   -1.9179   -0.0376   -4.9811 C   0  0  0  0  0  0  0  0  0  0  0  0
   -3.1312   -0.7238   -5.0420 C   0  0  0  0  0  0  0  0  0  0  0  0
   -3.1763   -2.0988   -4.8011 C   0  0  0  0  0  0  0  0  0  0  0  0
   -2.0379   -3.8641   -4.3071 H   0  0  0  0  0  0  0  0  0  0  0  0
    0.1406   -2.6396   -4.1983 H   0  0  0  0  0  0  0  0  0  0  0  0
   -1.8593    1.0292   -5.1627 H   0  0  0  0  0  0  0  0  0  0  0  0
   -4.0412   -0.1806   -5.2769 H   0  0  0  0  0  0  0  0  0  0  0  0
    7.3098    8.2732  -10.1662 N   0  0  0  0  0  0  0  0  0  0  0  0
    8.2627    8.7850  -10.3932 N   0  0  0  0  0  0  0  0  0  0  0  0
    1.3798    0.2787   -5.8490 S   0  0  0  0  0  0  0  0  0  0  0  0
    1.3149    2.1395   -5.6952 C   0  0  0  0  0  0  0  0  0  0  0  0
    0.4641   -0.0718   -4.5256 O   0  0  0  0  0  0  0  0  0  0  0  0
    2.7435   -0.1220   -5.5576 O   0  0  0  0  0  0  0  0  0  0  0  0
    0.6845   -0.0943   -7.0695 O   0  0  0  0  0  0  0  0  0  0  0  0
    0.0544    2.5601   -5.8344 F   0  0  0  0  0  0  0  0  0  0  0  0
    1.7816    2.5128   -4.5086 F   0  0  0  0  0  0  0  0  0  0  0  0
    2.0649    2.6616   -6.6632 F   0  0  0  0  0  0  0  0  0  0  0  0
   -4.1240   -2.6265   -4.8485 H   0  0  0  0  0  0  0  0  0  0  0  0
  1  2  1  0  0  0  0
  1  7  1  0  0  0  0
  2  8  1  0  0  0  0
  3 15  1  0  0  0  0
  3  2  2  0  0  0  0
  4  3  1  0  0  0  0
  5  4  2  0  0  0  0
  5  6  1  0  0  0  0
  6  1  2  0  0  0  0
  9  4  1  0  0  0  0
 10  5  1  0  0  0  0
 12 11  3  0  0  0  0
 13 14  1  0  0  0  0
 13 16  2  0  0  0  0
 13 15  1  0  0  0  0
 14 19  1  0  0  0  0
 17 13  2  0  0  0  0
 18 14  1  0  0  0  0
 20 14  1  0  0  0  0
 21  6  1  0  0  0  0
M  END
