Coordinates from ORCA-job Ph-N2-OTf-B3LYPG-6-31G_dp-MTMO-d009-169-n800
 OpenBabel09051908113D

 21 20  0  0  0  0  0  0  0  0999 V2000
   -1.7422   -2.2542   -4.3614 C   0  0  0  0  0  0  0  0  0  0  0  0
   -0.4908   -1.6408   -4.4359 C   0  0  0  0  0  0  0  0  0  0  0  0
   -0.4162   -0.3382   -4.9182 C   0  0  0  0  0  0  0  0  0  0  0  0
   -1.5425    0.3687   -5.3262 C   0  0  0  0  0  0  0  0  0  0  0  0
   -2.7867   -0.2580   -5.2471 C   0  0  0  0  0  0  0  0  0  0  0  0
   -2.8879   -1.5655   -4.7663 C   0  0  0  0  0  0  0  0  0  0  0  0
   -1.8192   -3.2694   -3.9857 H   0  0  0  0  0  0  0  0  0  0  0  0
    0.4136   -2.1499   -4.1211 H   0  0  0  0  0  0  0  0  0  0  0  0
   -1.4385    1.3822   -5.6949 H   0  0  0  0  0  0  0  0  0  0  0  0
   -3.6765    0.2780   -5.5619 H   0  0  0  0  0  0  0  0  0  0  0  0
    3.9118    5.2696   -7.2193 N   0  0  0  0  0  0  0  0  0  0  0  0
    4.5614    6.1357   -7.4412 N   0  0  0  0  0  0  0  0  0  0  0  0
    1.7668    0.3104   -6.2721 S   0  0  0  0  0  0  0  0  0  0  0  0
    1.8352    2.1641   -6.5098 C   0  0  0  0  0  0  0  0  0  0  0  0
    0.8424    0.3058   -4.9079 O   0  0  0  0  0  0  0  0  0  0  0  0
    3.1027   -0.1185   -5.9015 O   0  0  0  0  0  0  0  0  0  0  0  0
    1.0325   -0.2572   -7.3906 O   0  0  0  0  0  0  0  0  0  0  0  0
    0.5999    2.6411   -6.6881 F   0  0  0  0  0  0  0  0  0  0  0  0
    2.3879    2.7386   -5.4477 F   0  0  0  0  0  0  0  0  0  0  0  0
    2.5669    2.4115   -7.5938 F   0  0  0  0  0  0  0  0  0  0  0  0
   -3.8591   -2.0472   -4.7067 H   0  0  0  0  0  0  0  0  0  0  0  0
  1  7  1  0  0  0  0
  2  1  1  0  0  0  0
  2  8  1  0  0  0  0
  3 15  1  0  0  0  0
  3  2  2  0  0  0  0
  4  5  2  0  0  0  0
  4  3  1  0  0  0  0
  5  6  1  0  0  0  0
  6 21  1  0  0  0  0
  6  1  2  0  0  0  0
  9  4  1  0  0  0  0
 10  5  1  0  0  0  0
 12 11  3  0  0  0  0
 13 16  2  0  0  0  0
 13 15  1  0  0  0  0
 14 13  1  0  0  0  0
 14 19  1  0  0  0  0
 17 13  2  0  0  0  0
 18 14  1  0  0  0  0
 20 14  1  0  0  0  0
M  END
