Coordinates from ORCA-job Ph-N2-OTf-B3LYPG-6-31G_dp-MTMO-d009-169-n800
 OpenBabel09051908113D

 21 20  0  0  0  0  0  0  0  0999 V2000
   -1.8009   -2.5064   -4.5890 C   0  0  0  0  0  0  0  0  0  0  0  0
   -0.5692   -1.8523   -4.5355 C   0  0  0  0  0  0  0  0  0  0  0  0
   -0.5242   -0.4929   -4.8271 C   0  0  0  0  0  0  0  0  0  0  0  0
   -1.6619    0.2311   -5.1688 C   0  0  0  0  0  0  0  0  0  0  0  0
   -2.8855   -0.4373   -5.2220 C   0  0  0  0  0  0  0  0  0  0  0  0
   -2.9568   -1.8018   -4.9325 C   0  0  0  0  0  0  0  0  0  0  0  0
   -1.8547   -3.5661   -4.3597 H   0  0  0  0  0  0  0  0  0  0  0  0
    0.3423   -2.3739   -4.2649 H   0  0  0  0  0  0  0  0  0  0  0  0
   -1.5835    1.2895   -5.3876 H   0  0  0  0  0  0  0  0  0  0  0  0
   -3.7831    0.1117   -5.4890 H   0  0  0  0  0  0  0  0  0  0  0  0
    4.9757    5.9018   -8.5765 N   0  0  0  0  0  0  0  0  0  0  0  0
    5.7915    6.4793   -9.0485 N   0  0  0  0  0  0  0  0  0  0  0  0
    1.6468    0.4714   -6.0034 S   0  0  0  0  0  0  0  0  0  0  0  0
    1.6222    2.3362   -5.8940 C   0  0  0  0  0  0  0  0  0  0  0  0
    0.7133    0.1738   -4.6796 O   0  0  0  0  0  0  0  0  0  0  0  0
    2.9990    0.0473   -5.6921 O   0  0  0  0  0  0  0  0  0  0  0  0
    0.9526    0.0846   -7.2203 O   0  0  0  0  0  0  0  0  0  0  0  0
    0.3719    2.7806   -6.0515 F   0  0  0  0  0  0  0  0  0  0  0  0
    2.0891    2.7268   -4.7130 F   0  0  0  0  0  0  0  0  0  0  0  0
    2.3895    2.8187   -6.8685 F   0  0  0  0  0  0  0  0  0  0  0  0
   -3.9125   -2.3153   -4.9741 H   0  0  0  0  0  0  0  0  0  0  0  0
  1  2  1  0  0  0  0
  1  7  1  0  0  0  0
  2  8  1  0  0  0  0
  3 15  1  0  0  0  0
  3  2  2  0  0  0  0
  4  3  1  0  0  0  0
  5  4  2  0  0  0  0
  5  6  1  0  0  0  0
  6  1  2  0  0  0  0
  9  4  1  0  0  0  0
 10  5  1  0  0  0  0
 12 11  3  0  0  0  0
 13 14  1  0  0  0  0
 13 16  2  0  0  0  0
 13 15  1  0  0  0  0
 14 19  1  0  0  0  0
 17 13  2  0  0  0  0
 18 14  1  0  0  0  0
 20 14  1  0  0  0  0
 21  6  1  0  0  0  0
M  END
