Coordinates from ORCA-job Ph-N2-OTf-B3LYPG-6-31G_dp-MTMO-d009-169-n800
 OpenBabel09051908113D

 21 20  0  0  0  0  0  0  0  0999 V2000
   -1.8598   -1.5822   -4.8053 C   0  0  0  0  0  0  0  0  0  0  0  0
   -0.5707   -1.1071   -4.5602 C   0  0  0  0  0  0  0  0  0  0  0  0
   -0.2193    0.1434   -5.0604 C   0  0  0  0  0  0  0  0  0  0  0  0
   -1.1112    0.9334   -5.7799 C   0  0  0  0  0  0  0  0  0  0  0  0
   -2.3994    0.4476   -6.0072 C   0  0  0  0  0  0  0  0  0  0  0  0
   -2.7732   -0.8088   -5.5251 C   0  0  0  0  0  0  0  0  0  0  0  0
   -2.1489   -2.5577   -4.4278 H   0  0  0  0  0  0  0  0  0  0  0  0
    0.1499   -1.6912   -4.0003 H   0  0  0  0  0  0  0  0  0  0  0  0
   -0.7963    1.9060   -6.1392 H   0  0  0  0  0  0  0  0  0  0  0  0
   -3.1093    1.0534   -6.5619 H   0  0  0  0  0  0  0  0  0  0  0  0
    0.5788    4.3241   -5.5501 N   0  0  0  0  0  0  0  0  0  0  0  0
    0.9844    5.1328   -4.9157 N   0  0  0  0  0  0  0  0  0  0  0  0
    2.4195    0.0715   -5.4059 S   0  0  0  0  0  0  0  0  0  0  0  0
    2.5352    1.1053   -6.9594 C   0  0  0  0  0  0  0  0  0  0  0  0
    1.0456    0.7005   -4.7619 O   0  0  0  0  0  0  0  0  0  0  0  0
    3.4921    0.4947   -4.5278 O   0  0  0  0  0  0  0  0  0  0  0  0
    2.2197   -1.3071   -5.8200 O   0  0  0  0  0  0  0  0  0  0  0  0
    1.4487    0.9117   -7.7083 F   0  0  0  0  0  0  0  0  0  0  0  0
    2.6328    2.3931   -6.6377 F   0  0  0  0  0  0  0  0  0  0  0  0
    3.6182    0.7272   -7.6347 F   0  0  0  0  0  0  0  0  0  0  0  0
   -3.7754   -1.1836   -5.7084 H   0  0  0  0  0  0  0  0  0  0  0  0
  1  2  1  0  0  0  0
  1  7  1  0  0  0  0
  2  8  1  0  0  0  0
  3 15  1  0  0  0  0
  3  2  2  0  0  0  0
  4  3  1  0  0  0  0
  5  4  2  0  0  0  0
  5  6  1  0  0  0  0
  6  1  2  0  0  0  0
  9  4  1  0  0  0  0
 10  5  1  0  0  0  0
 11 12  3  0  0  0  0
 13 15  1  0  0  0  0
 13 16  2  0  0  0  0
 14 19  1  0  0  0  0
 14 13  1  0  0  0  0
 17 13  2  0  0  0  0
 18 14  1  0  0  0  0
 20 14  1  0  0  0  0
 21  6  1  0  0  0  0
M  END
