Coordinates from ORCA-job Ph-N2-OTf-B3LYPG-6-31G_dp-MTMO-d009-169-n800
 OpenBabel09051908113D

 21 20  0  0  0  0  0  0  0  0999 V2000
   -2.1215   -2.9237   -4.4385 C   0  0  0  0  0  0  0  0  0  0  0  0
   -0.9001   -2.2516   -4.3757 C   0  0  0  0  0  0  0  0  0  0  0  0
   -0.8820   -0.8805   -4.6093 C   0  0  0  0  0  0  0  0  0  0  0  0
   -2.0367   -0.1621   -4.9022 C   0  0  0  0  0  0  0  0  0  0  0  0
   -3.2500   -0.8481   -4.9651 C   0  0  0  0  0  0  0  0  0  0  0  0
   -3.2942   -2.2248   -4.7335 C   0  0  0  0  0  0  0  0  0  0  0  0
   -2.1544   -3.9931   -4.2543 H   0  0  0  0  0  0  0  0  0  0  0  0
    0.0240   -2.7689   -4.1417 H   0  0  0  0  0  0  0  0  0  0  0  0
   -1.9787    0.9060   -5.0766 H   0  0  0  0  0  0  0  0  0  0  0  0
   -4.1606   -0.3035   -5.1942 H   0  0  0  0  0  0  0  0  0  0  0  0
    8.4308    9.4631  -10.8614 N   0  0  0  0  0  0  0  0  0  0  0  0
    9.3939    9.9596  -11.0793 N   0  0  0  0  0  0  0  0  0  0  0  0
    1.2609    0.1569   -5.7748 S   0  0  0  0  0  0  0  0  0  0  0  0
    1.1951    2.0171   -5.6146 C   0  0  0  0  0  0  0  0  0  0  0  0
    0.3460   -0.1983   -4.4522 O   0  0  0  0  0  0  0  0  0  0  0  0
    2.6250   -0.2442   -5.4859 O   0  0  0  0  0  0  0  0  0  0  0  0
    0.5651   -0.2121   -6.9963 O   0  0  0  0  0  0  0  0  0  0  0  0
   -0.0657    2.4375   -5.7513 F   0  0  0  0  0  0  0  0  0  0  0  0
    1.6625    2.3868   -4.4271 F   0  0  0  0  0  0  0  0  0  0  0  0
    1.9440    2.5431   -6.5814 F   0  0  0  0  0  0  0  0  0  0  0  0
   -4.2420   -2.7523   -4.7824 H   0  0  0  0  0  0  0  0  0  0  0  0
  1  2  1  0  0  0  0
  1  7  1  0  0  0  0
  2  8  1  0  0  0  0
  3 15  1  0  0  0  0
  3  2  2  0  0  0  0
  4  3  1  0  0  0  0
  5  4  2  0  0  0  0
  5  6  1  0  0  0  0
  6  1  2  0  0  0  0
  9  4  1  0  0  0  0
 10  5  1  0  0  0  0
 12 11  3  0  0  0  0
 13 14  1  0  0  0  0
 13 16  2  0  0  0  0
 13 15  1  0  0  0  0
 14 19  1  0  0  0  0
 17 13  2  0  0  0  0
 18 14  1  0  0  0  0
 20 14  1  0  0  0  0
 21  6  1  0  0  0  0
M  END
