Coordinates from ORCA-job Ph-N2-OTf-B3LYPG-6-31G_dp-MTMO-d009-169-n800
 OpenBabel09051908113D

 21 20  0  0  0  0  0  0  0  0999 V2000
   -1.8864   -1.8004   -5.3821 C   0  0  0  0  0  0  0  0  0  0  0  0
   -0.5479   -1.5746   -5.0580 C   0  0  0  0  0  0  0  0  0  0  0  0
   -0.1507   -0.2750   -4.7572 C   0  0  0  0  0  0  0  0  0  0  0  0
   -1.0432    0.7931   -4.7570 C   0  0  0  0  0  0  0  0  0  0  0  0
   -2.3797    0.5488   -5.0737 C   0  0  0  0  0  0  0  0  0  0  0  0
   -2.8011   -0.7450   -5.3892 C   0  0  0  0  0  0  0  0  0  0  0  0
   -2.2134   -2.8066   -5.6254 H   0  0  0  0  0  0  0  0  0  0  0  0
    0.1757   -2.3807   -5.0428 H   0  0  0  0  0  0  0  0  0  0  0  0
   -0.6876    1.7869   -4.5074 H   0  0  0  0  0  0  0  0  0  0  0  0
   -3.0888    1.3708   -5.0742 H   0  0  0  0  0  0  0  0  0  0  0  0
    1.5438    4.4821   -7.6628 N   0  0  0  0  0  0  0  0  0  0  0  0
    1.1450    5.3673   -8.1905 N   0  0  0  0  0  0  0  0  0  0  0  0
    2.4206   -0.0825   -5.4086 S   0  0  0  0  0  0  0  0  0  0  0  0
    2.2181    1.5818   -6.2455 C   0  0  0  0  0  0  0  0  0  0  0  0
    1.1740   -0.0104   -4.3423 O   0  0  0  0  0  0  0  0  0  0  0  0
    3.6187   -0.0212   -4.5961 O   0  0  0  0  0  0  0  0  0  0  0  0
    2.1899   -1.1029   -6.4178 O   0  0  0  0  0  0  0  0  0  0  0  0
    1.1262    1.5612   -7.0099 F   0  0  0  0  0  0  0  0  0  0  0  0
    2.0986    2.5333   -5.3210 F   0  0  0  0  0  0  0  0  0  0  0  0
    3.2907    1.8115   -6.9965 F   0  0  0  0  0  0  0  0  0  0  0  0
   -3.8410   -0.9308   -5.6396 H   0  0  0  0  0  0  0  0  0  0  0  0
  1  2  1  0  0  0  0
  2  8  1  0  0  0  0
  2  3  2  0  0  0  0
  3  4  1  0  0  0  0
  3 15  1  0  0  0  0
  4  9  1  0  0  0  0
  5  4  2  0  0  0  0
  6  1  2  0  0  0  0
  6  5  1  0  0  0  0
  7  1  1  0  0  0  0
 10  5  1  0  0  0  0
 12 11  3  0  0  0  0
 13 16  2  0  0  0  0
 13 15  1  0  0  0  0
 14 13  1  0  0  0  0
 14 19  1  0  0  0  0
 17 13  2  0  0  0  0
 18 14  1  0  0  0  0
 20 14  1  0  0  0  0
 21  6  1  0  0  0  0
M  END
