Coordinates from ORCA-job Ph-N2-OTf-B3LYPG-6-31G_dp-MTMO-d009-169-n800
 OpenBabel09051908113D

 21 20  0  0  0  0  0  0  0  0999 V2000
   -2.0626   -2.8603   -4.4706 C   0  0  0  0  0  0  0  0  0  0  0  0
   -0.8411   -2.1881   -4.4080 C   0  0  0  0  0  0  0  0  0  0  0  0
   -0.8228   -0.8175   -4.6450 C   0  0  0  0  0  0  0  0  0  0  0  0
   -1.9771   -0.0998   -4.9410 C   0  0  0  0  0  0  0  0  0  0  0  0
   -3.1903   -0.7860   -5.0037 C   0  0  0  0  0  0  0  0  0  0  0  0
   -3.2349   -2.1621   -4.7688 C   0  0  0  0  0  0  0  0  0  0  0  0
   -2.0956   -3.9292   -4.2837 H   0  0  0  0  0  0  0  0  0  0  0  0
    0.0827   -2.7048   -4.1716 H   0  0  0  0  0  0  0  0  0  0  0  0
   -1.9190    0.9678   -5.1181 H   0  0  0  0  0  0  0  0  0  0  0  0
   -4.1007   -0.2421   -5.2354 H   0  0  0  0  0  0  0  0  0  0  0  0
    7.8679    8.8683  -10.5171 N   0  0  0  0  0  0  0  0  0  0  0  0
    8.8297    9.3666  -10.7369 N   0  0  0  0  0  0  0  0  0  0  0  0
    1.3207    0.2189   -5.8106 S   0  0  0  0  0  0  0  0  0  0  0  0
    1.2541    2.0794   -5.6530 C   0  0  0  0  0  0  0  0  0  0  0  0
    0.4052   -0.1353   -4.4880 O   0  0  0  0  0  0  0  0  0  0  0  0
    2.6847   -0.1810   -5.5198 O   0  0  0  0  0  0  0  0  0  0  0  0
    0.6259   -0.1521   -7.0320 O   0  0  0  0  0  0  0  0  0  0  0  0
   -0.0067    2.4992   -5.7913 F   0  0  0  0  0  0  0  0  0  0  0  0
    1.7205    2.4507   -4.4656 F   0  0  0  0  0  0  0  0  0  0  0  0
    2.0037    2.6042   -6.6199 F   0  0  0  0  0  0  0  0  0  0  0  0
   -4.1826   -2.6898   -4.8175 H   0  0  0  0  0  0  0  0  0  0  0  0
  1  2  1  0  0  0  0
  1  7  1  0  0  0  0
  2  8  1  0  0  0  0
  3 15  1  0  0  0  0
  3  2  2  0  0  0  0
  4  3  1  0  0  0  0
  5  4  2  0  0  0  0
  5  6  1  0  0  0  0
  6  1  2  0  0  0  0
  9  4  1  0  0  0  0
 10  5  1  0  0  0  0
 12 11  3  0  0  0  0
 13 14  1  0  0  0  0
 13 16  2  0  0  0  0
 13 15  1  0  0  0  0
 14 19  1  0  0  0  0
 17 13  2  0  0  0  0
 18 14  1  0  0  0  0
 20 14  1  0  0  0  0
 21  6  1  0  0  0  0
M  END
