Coordinates from ORCA-job Ph-N2-OTf-B3LYPG-6-31G_dp-MTMO-d009-169-n800
 OpenBabel09051908113D

 21 20  0  0  0  0  0  0  0  0999 V2000
   -1.8618   -1.4129   -4.6467 C   0  0  0  0  0  0  0  0  0  0  0  0
   -0.5814   -0.8950   -4.4487 C   0  0  0  0  0  0  0  0  0  0  0  0
   -0.2190    0.2611   -5.1338 C   0  0  0  0  0  0  0  0  0  0  0  0
   -1.0927    0.9167   -5.9962 C   0  0  0  0  0  0  0  0  0  0  0  0
   -2.3729    0.3912   -6.1758 C   0  0  0  0  0  0  0  0  0  0  0  0
   -2.7570   -0.7726   -5.5064 C   0  0  0  0  0  0  0  0  0  0  0  0
   -2.1581   -2.3175   -4.1252 H   0  0  0  0  0  0  0  0  0  0  0  0
    0.1257   -1.3748   -3.7819 H   0  0  0  0  0  0  0  0  0  0  0  0
   -0.7726    1.8203   -6.5006 H   0  0  0  0  0  0  0  0  0  0  0  0
   -3.0681    0.8934   -6.8415 H   0  0  0  0  0  0  0  0  0  0  0  0
    0.5168    3.9111   -5.1215 N   0  0  0  0  0  0  0  0  0  0  0  0
    0.9169    4.4247   -4.2286 N   0  0  0  0  0  0  0  0  0  0  0  0
    2.4179    0.1747   -5.4754 S   0  0  0  0  0  0  0  0  0  0  0  0
    2.5442    1.0871   -7.1023 C   0  0  0  0  0  0  0  0  0  0  0  0
    1.0405    0.8541   -4.8903 O   0  0  0  0  0  0  0  0  0  0  0  0
    3.4867    0.6645   -4.6277 O   0  0  0  0  0  0  0  0  0  0  0  0
    2.2164   -1.2315   -5.7811 O   0  0  0  0  0  0  0  0  0  0  0  0
    1.4878    0.7952   -7.8635 F   0  0  0  0  0  0  0  0  0  0  0  0
    2.5857    2.3989   -6.8817 F   0  0  0  0  0  0  0  0  0  0  0  0
    3.6592    0.6971   -7.7153 F   0  0  0  0  0  0  0  0  0  0  0  0
   -3.7527   -1.1791   -5.6532 H   0  0  0  0  0  0  0  0  0  0  0  0
  1  2  1  0  0  0  0
  1  7  1  0  0  0  0
  2  8  1  0  0  0  0
  3 15  1  0  0  0  0
  3  2  2  0  0  0  0
  4  3  1  0  0  0  0
  5  4  2  0  0  0  0
  5  6  1  0  0  0  0
  6  1  2  0  0  0  0
  9  4  1  0  0  0  0
 10  5  1  0  0  0  0
 11 12  3  0  0  0  0
 13 15  1  0  0  0  0
 13 16  2  0  0  0  0
 14 19  1  0  0  0  0
 14 13  1  0  0  0  0
 17 13  2  0  0  0  0
 18 14  1  0  0  0  0
 20 14  1  0  0  0  0
 21  6  1  0  0  0  0
M  END
