Coordinates from ORCA-job Ph-N2-OTf-B3LYPG-6-31G_dp-MTMO-d009-169-n800
 OpenBabel09051908113D

 21 20  0  0  0  0  0  0  0  0999 V2000
   -1.7978   -2.5018   -4.5889 C   0  0  0  0  0  0  0  0  0  0  0  0
   -0.5661   -1.8478   -4.5362 C   0  0  0  0  0  0  0  0  0  0  0  0
   -0.5208   -0.4888   -4.8294 C   0  0  0  0  0  0  0  0  0  0  0  0
   -1.6584    0.2349   -5.1721 C   0  0  0  0  0  0  0  0  0  0  0  0
   -2.8821   -0.4333   -5.2245 C   0  0  0  0  0  0  0  0  0  0  0  0
   -2.9536   -1.7974   -4.9334 C   0  0  0  0  0  0  0  0  0  0  0  0
   -1.8517   -3.5612   -4.3583 H   0  0  0  0  0  0  0  0  0  0  0  0
    0.3454   -2.3692   -4.2649 H   0  0  0  0  0  0  0  0  0  0  0  0
   -1.5799    1.2931   -5.3922 H   0  0  0  0  0  0  0  0  0  0  0  0
   -3.7797    0.1154   -5.4922 H   0  0  0  0  0  0  0  0  0  0  0  0
    4.9422    5.8669   -8.5517 N   0  0  0  0  0  0  0  0  0  0  0  0
    5.7550    6.4477   -9.0246 N   0  0  0  0  0  0  0  0  0  0  0  0
    1.6503    0.4738   -6.0070 S   0  0  0  0  0  0  0  0  0  0  0  0
    1.6273    2.3387   -5.8984 C   0  0  0  0  0  0  0  0  0  0  0  0
    0.7167    0.1781   -4.6828 O   0  0  0  0  0  0  0  0  0  0  0  0
    3.0022    0.0484   -5.6961 O   0  0  0  0  0  0  0  0  0  0  0  0
    0.9554    0.0870   -7.2235 O   0  0  0  0  0  0  0  0  0  0  0  0
    0.3772    2.7839   -6.0557 F   0  0  0  0  0  0  0  0  0  0  0  0
    2.0948    2.7294   -4.7177 F   0  0  0  0  0  0  0  0  0  0  0  0
    2.3946    2.8201   -6.8733 F   0  0  0  0  0  0  0  0  0  0  0  0
   -3.9094   -2.3109   -4.9744 H   0  0  0  0  0  0  0  0  0  0  0  0
  1  2  1  0  0  0  0
  1  7  1  0  0  0  0
  2  8  1  0  0  0  0
  3 15  1  0  0  0  0
  3  2  2  0  0  0  0
  4  3  1  0  0  0  0
  5  4  2  0  0  0  0
  5  6  1  0  0  0  0
  6  1  2  0  0  0  0
  9  4  1  0  0  0  0
 10  5  1  0  0  0  0
 12 11  3  0  0  0  0
 13 14  1  0  0  0  0
 13 16  2  0  0  0  0
 13 15  1  0  0  0  0
 14 19  1  0  0  0  0
 17 13  2  0  0  0  0
 18 14  1  0  0  0  0
 20 14  1  0  0  0  0
 21  6  1  0  0  0  0
M  END
