Coordinates from ORCA-job Ph-N2-OTf-B3LYPG-6-31G_dp-MTMO-d009-169-n800
 OpenBabel09051908113D

 21 19  0  0  0  0  0  0  0  0999 V2000
   -1.3467   -0.8886   -5.6144 C   0  0  0  0  0  0  0  0  0  0  0  0
   -0.6224    0.2302   -5.1208 C   0  0  0  0  0  0  0  0  0  0  0  0
   -1.3441    1.2760   -5.0597 C   0  0  0  0  0  0  0  0  0  0  0  0
   -2.6148    1.6889   -5.3197 C   0  0  0  0  0  0  0  0  0  0  0  0
   -3.3171    0.5629   -5.8085 C   0  0  0  0  0  0  0  0  0  0  0  0
   -2.6942   -0.6890   -5.9496 C   0  0  0  0  0  0  0  0  0  0  0  0
   -0.8787   -1.8616   -5.7330 H   0  0  0  0  0  0  0  0  0  0  0  0
    1.0474    0.0150   -4.7465 H   0  0  0  0  0  0  0  0  0  0  0  0
   -3.0433    2.6735   -5.1928 H   0  0  0  0  0  0  0  0  0  0  0  0
   -4.3617    0.6880   -6.0793 H   0  0  0  0  0  0  0  0  0  0  0  0
   -0.2506    3.2336   -4.2563 N   0  0  0  0  0  0  0  0  0  0  0  0
    0.6711    3.7169   -3.8844 N   0  0  0  0  0  0  0  0  0  0  0  0
    3.0219    0.6890   -5.3977 S   0  0  0  0  0  0  0  0  0  0  0  0
    3.1436   -0.3379   -6.9465 C   0  0  0  0  0  0  0  0  0  0  0  0
    2.3686    1.9357   -5.7831 O   0  0  0  0  0  0  0  0  0  0  0  0
    4.3259    0.6596   -4.7621 O   0  0  0  0  0  0  0  0  0  0  0  0
    2.0276   -0.2221   -4.5469 O   0  0  0  0  0  0  0  0  0  0  0  0
    1.9154   -0.5466   -7.4375 F   0  0  0  0  0  0  0  0  0  0  0  0
    3.8735    0.3188   -7.8481 F   0  0  0  0  0  0  0  0  0  0  0  0
    3.7147   -1.5110   -6.6794 F   0  0  0  0  0  0  0  0  0  0  0  0
   -3.2745   -1.5242   -6.3312 H   0  0  0  0  0  0  0  0  0  0  0  0
  1  2  2  0  0  0  0
  2  3  1  0  0  0  0
  4  9  1  0  0  0  0
  4  3  2  0  0  0  0
  5  4  1  0  0  0  0
  6  5  2  0  0  0  0
  6  1  1  0  0  0  0
  7  1  1  0  0  0  0
  8 17  1  0  0  0  0
 10  5  1  0  0  0  0
 11 12  3  0  0  0  0
 13 16  2  0  0  0  0
 13 17  1  0  0  0  0
 14 20  1  0  0  0  0
 14 13  1  0  0  0  0
 15 13  2  0  0  0  0
 18 14  1  0  0  0  0
 19 14  1  0  0  0  0
 21  6  1  0  0  0  0
M  RAD  2   2   2   3   2
M  END
