Coordinates from ORCA-job Ph-N2-OTf-B3LYPG-6-31G_dp-MTMO-d009-169-n800
 OpenBabel09051908113D

 21 20  0  0  0  0  0  0  0  0999 V2000
   -2.1134   -2.9146   -4.4433 C   0  0  0  0  0  0  0  0  0  0  0  0
   -0.8918   -2.2428   -4.3804 C   0  0  0  0  0  0  0  0  0  0  0  0
   -0.8733   -0.8717   -4.6143 C   0  0  0  0  0  0  0  0  0  0  0  0
   -2.0278   -0.1530   -4.9075 C   0  0  0  0  0  0  0  0  0  0  0  0
   -3.2413   -0.8388   -4.9704 C   0  0  0  0  0  0  0  0  0  0  0  0
   -3.2859   -2.2154   -4.7386 C   0  0  0  0  0  0  0  0  0  0  0  0
   -2.1465   -3.9839   -4.2588 H   0  0  0  0  0  0  0  0  0  0  0  0
    0.0322   -2.7602   -4.1462 H   0  0  0  0  0  0  0  0  0  0  0  0
   -1.9696    0.9149   -5.0821 H   0  0  0  0  0  0  0  0  0  0  0  0
   -4.1518   -0.2941   -5.1998 H   0  0  0  0  0  0  0  0  0  0  0  0
    8.3500    9.3784  -10.8123 N   0  0  0  0  0  0  0  0  0  0  0  0
    9.3131    9.8749  -11.0301 N   0  0  0  0  0  0  0  0  0  0  0  0
    1.2698    0.1656   -5.7797 S   0  0  0  0  0  0  0  0  0  0  0  0
    1.2033    2.0258   -5.6204 C   0  0  0  0  0  0  0  0  0  0  0  0
    0.3549   -0.1900   -4.4571 O   0  0  0  0  0  0  0  0  0  0  0  0
    2.6340   -0.2346   -5.4898 O   0  0  0  0  0  0  0  0  0  0  0  0
    0.5746   -0.2045   -7.0011 O   0  0  0  0  0  0  0  0  0  0  0  0
   -0.0577    2.4457   -5.7580 F   0  0  0  0  0  0  0  0  0  0  0  0
    1.6700    2.3962   -4.4329 F   0  0  0  0  0  0  0  0  0  0  0  0
    1.9524    2.5516   -6.5872 F   0  0  0  0  0  0  0  0  0  0  0  0
   -4.2337   -2.7427   -4.7875 H   0  0  0  0  0  0  0  0  0  0  0  0
  1  2  1  0  0  0  0
  1  7  1  0  0  0  0
  2  8  1  0  0  0  0
  3 15  1  0  0  0  0
  3  2  2  0  0  0  0
  4  3  1  0  0  0  0
  5  4  2  0  0  0  0
  5  6  1  0  0  0  0
  6  1  2  0  0  0  0
  9  4  1  0  0  0  0
 10  5  1  0  0  0  0
 12 11  3  0  0  0  0
 13 14  1  0  0  0  0
 13 16  2  0  0  0  0
 13 15  1  0  0  0  0
 14 19  1  0  0  0  0
 17 13  2  0  0  0  0
 18 14  1  0  0  0  0
 20 14  1  0  0  0  0
 21  6  1  0  0  0  0
M  END
