Coordinates from ORCA-job Ph-N2-OTf-B3LYPG-6-31G_dp-MTMO-d009-169-n800
 OpenBabel09051908113D

 21 20  0  0  0  0  0  0  0  0999 V2000
   -1.8557   -2.5922   -4.5748 C   0  0  0  0  0  0  0  0  0  0  0  0
   -0.6280   -1.9314   -4.5139 C   0  0  0  0  0  0  0  0  0  0  0  0
   -0.5918   -0.5676   -4.7854 C   0  0  0  0  0  0  0  0  0  0  0  0
   -1.7346    0.1544   -5.1142 C   0  0  0  0  0  0  0  0  0  0  0  0
   -2.9542   -0.5205   -5.1750 C   0  0  0  0  0  0  0  0  0  0  0  0
   -3.0166   -1.8896   -4.9056 C   0  0  0  0  0  0  0  0  0  0  0  0
   -1.9026   -3.6555   -4.3611 H   0  0  0  0  0  0  0  0  0  0  0  0
    0.2873   -2.4514   -4.2529 H   0  0  0  0  0  0  0  0  0  0  0  0
   -1.6630    1.2164   -5.3174 H   0  0  0  0  0  0  0  0  0  0  0  0
   -3.8557    0.0268   -5.4321 H   0  0  0  0  0  0  0  0  0  0  0  0
    5.6333    6.5572   -9.0352 N   0  0  0  0  0  0  0  0  0  0  0  0
    6.4919    7.1020   -9.4683 N   0  0  0  0  0  0  0  0  0  0  0  0
    1.5715    0.4267   -5.9511 S   0  0  0  0  0  0  0  0  0  0  0  0
    1.5316    2.2897   -5.8184 C   0  0  0  0  0  0  0  0  0  0  0  0
    0.6419    0.1045   -4.6303 O   0  0  0  0  0  0  0  0  0  0  0  0
    2.9275    0.0101   -5.6461 O   0  0  0  0  0  0  0  0  0  0  0  0
    0.8793    0.0495   -7.1722 O   0  0  0  0  0  0  0  0  0  0  0  0
    0.2778    2.7260   -5.9699 F   0  0  0  0  0  0  0  0  0  0  0  0
    1.9962    2.6697   -4.6330 F   0  0  0  0  0  0  0  0  0  0  0  0
    2.2945    2.7905   -6.7874 F   0  0  0  0  0  0  0  0  0  0  0  0
   -3.9692   -2.4083   -4.9531 H   0  0  0  0  0  0  0  0  0  0  0  0
  1  2  1  0  0  0  0
  1  7  1  0  0  0  0
  2  8  1  0  0  0  0
  3 15  1  0  0  0  0
  3  2  2  0  0  0  0
  4  3  1  0  0  0  0
  5  4  2  0  0  0  0
  5  6  1  0  0  0  0
  6  1  2  0  0  0  0
  9  4  1  0  0  0  0
 10  5  1  0  0  0  0
 12 11  3  0  0  0  0
 13 14  1  0  0  0  0
 13 16  2  0  0  0  0
 13 15  1  0  0  0  0
 14 19  1  0  0  0  0
 17 13  2  0  0  0  0
 18 14  1  0  0  0  0
 20 14  1  0  0  0  0
 21  6  1  0  0  0  0
M  END
