Coordinates from ORCA-job Ph-N2-OTf-B3LYPG-6-31G_dp-MTMO-d009-169-n800
 OpenBabel09051908113D

 21 20  0  0  0  0  0  0  0  0999 V2000
   -2.1462   -2.9493   -4.4253 C   0  0  0  0  0  0  0  0  0  0  0  0
   -0.9244   -2.2779   -4.3625 C   0  0  0  0  0  0  0  0  0  0  0  0
   -0.9058   -0.9065   -4.5946 C   0  0  0  0  0  0  0  0  0  0  0  0
   -2.0604   -0.1872   -4.8859 C   0  0  0  0  0  0  0  0  0  0  0  0
   -3.2740   -0.8726   -4.9488 C   0  0  0  0  0  0  0  0  0  0  0  0
   -3.3188   -2.2495   -4.7187 C   0  0  0  0  0  0  0  0  0  0  0  0
   -2.1794   -4.0189   -4.2422 H   0  0  0  0  0  0  0  0  0  0  0  0
   -0.0004   -2.7959   -4.1296 H   0  0  0  0  0  0  0  0  0  0  0  0
   -2.0020    0.8810   -5.0593 H   0  0  0  0  0  0  0  0  0  0  0  0
   -4.1846   -0.3274   -5.1768 H   0  0  0  0  0  0  0  0  0  0  0  0
    8.6605    9.7061  -11.0013 N   0  0  0  0  0  0  0  0  0  0  0  0
    9.6234   10.2034  -11.2185 N   0  0  0  0  0  0  0  0  0  0  0  0
    1.2372    0.1309   -5.7601 S   0  0  0  0  0  0  0  0  0  0  0  0
    1.1707    1.9911   -5.6001 C   0  0  0  0  0  0  0  0  0  0  0  0
    0.3227   -0.2252   -4.4374 O   0  0  0  0  0  0  0  0  0  0  0  0
    2.6014   -0.2694   -5.4708 O   0  0  0  0  0  0  0  0  0  0  0  0
    0.5416   -0.2386   -6.9815 O   0  0  0  0  0  0  0  0  0  0  0  0
   -0.0902    2.4111   -5.7371 F   0  0  0  0  0  0  0  0  0  0  0  0
    1.6377    2.3609   -4.4125 F   0  0  0  0  0  0  0  0  0  0  0  0
    1.9197    2.5173   -6.5668 F   0  0  0  0  0  0  0  0  0  0  0  0
   -4.2668   -2.7765   -4.7676 H   0  0  0  0  0  0  0  0  0  0  0  0
  1  2  1  0  0  0  0
  1  7  1  0  0  0  0
  2  8  1  0  0  0  0
  3 15  1  0  0  0  0
  3  2  2  0  0  0  0
  4  3  1  0  0  0  0
  5  4  2  0  0  0  0
  5  6  1  0  0  0  0
  6  1  2  0  0  0  0
  9  4  1  0  0  0  0
 10  5  1  0  0  0  0
 12 11  3  0  0  0  0
 13 14  1  0  0  0  0
 13 16  2  0  0  0  0
 13 15  1  0  0  0  0
 14 19  1  0  0  0  0
 17 13  2  0  0  0  0
 18 14  1  0  0  0  0
 20 14  1  0  0  0  0
 21  6  1  0  0  0  0
M  END
