Coordinates from ORCA-job Ph-N2-OTf-B3LYPG-6-31G_dp-MTMO-d009-169-n800
 OpenBabel09051908113D

 21 19  0  0  0  0  0  0  0  0999 V2000
   -1.5435   -0.9624   -5.4935 C   0  0  0  0  0  0  0  0  0  0  0  0
   -0.6007    0.0369   -5.1148 C   0  0  0  0  0  0  0  0  0  0  0  0
   -1.2302    1.1975   -5.1080 C   0  0  0  0  0  0  0  0  0  0  0  0
   -2.4555    1.7263   -5.3407 C   0  0  0  0  0  0  0  0  0  0  0  0
   -3.3286    0.6802   -5.7124 C   0  0  0  0  0  0  0  0  0  0  0  0
   -2.8710   -0.6408   -5.7828 C   0  0  0  0  0  0  0  0  0  0  0  0
   -1.1805   -1.9840   -5.5598 H   0  0  0  0  0  0  0  0  0  0  0  0
    0.5108   -0.1993   -4.9173 H   0  0  0  0  0  0  0  0  0  0  0  0
   -2.7459    2.7644   -5.2662 H   0  0  0  0  0  0  0  0  0  0  0  0
   -4.3593    0.9335   -5.9404 H   0  0  0  0  0  0  0  0  0  0  0  0
    0.0154    2.8512   -4.4202 N   0  0  0  0  0  0  0  0  0  0  0  0
    0.5933    3.6986   -4.0128 N   0  0  0  0  0  0  0  0  0  0  0  0
    2.8211    0.6153   -5.4138 S   0  0  0  0  0  0  0  0  0  0  0  0
    3.4648   -0.1929   -6.9566 C   0  0  0  0  0  0  0  0  0  0  0  0
    1.9383    1.6948   -5.9146 O   0  0  0  0  0  0  0  0  0  0  0  0
    4.0086    1.0061   -4.6529 O   0  0  0  0  0  0  0  0  0  0  0  0
    2.0207   -0.5050   -4.7777 O   0  0  0  0  0  0  0  0  0  0  0  0
    2.4417   -0.6344   -7.7095 F   0  0  0  0  0  0  0  0  0  0  0  0
    4.1736    0.6836   -7.6784 F   0  0  0  0  0  0  0  0  0  0  0  0
    4.2482   -1.2350   -6.6544 F   0  0  0  0  0  0  0  0  0  0  0  0
   -3.5599   -1.4278   -6.0707 H   0  0  0  0  0  0  0  0  0  0  0  0
  1  2  2  0  0  0  0
  2  3  1  0  0  0  0
  2  8  1  0  0  0  0
  4  9  1  0  0  0  0
  4  3  2  0  0  0  0
  5  4  1  0  0  0  0
  6  5  2  0  0  0  0
  6  1  1  0  0  0  0
  7  1  1  0  0  0  0
 10  5  1  0  0  0  0
 11 12  3  0  0  0  0
 13 17  2  0  0  0  0
 13 16  1  0  0  0  0
 14 20  1  0  0  0  0
 14 13  1  0  0  0  0
 15 13  2  0  0  0  0
 18 14  1  0  0  0  0
 19 14  1  0  0  0  0
 21  6  1  0  0  0  0
M  RAD  2   3   2  16   2
M  END
