Coordinates from ORCA-job Ph-N2-OTf-B3LYPG-6-31G_dp-MTMO-d009-169-n800
 OpenBabel09051908113D

 21 20  0  0  0  0  0  0  0  0999 V2000
   -1.7493   -2.2326   -4.3535 C   0  0  0  0  0  0  0  0  0  0  0  0
   -0.4912   -1.6335   -4.4335 C   0  0  0  0  0  0  0  0  0  0  0  0
   -0.4033   -0.3343   -4.9226 C   0  0  0  0  0  0  0  0  0  0  0  0
   -1.5225    0.3831   -5.3318 C   0  0  0  0  0  0  0  0  0  0  0  0
   -2.7734   -0.2294   -5.2471 C   0  0  0  0  0  0  0  0  0  0  0  0
   -2.8880   -1.5333   -4.7595 C   0  0  0  0  0  0  0  0  0  0  0  0
   -1.8367   -3.2450   -3.9726 H   0  0  0  0  0  0  0  0  0  0  0  0
    0.4081   -2.1510   -4.1179 H   0  0  0  0  0  0  0  0  0  0  0  0
   -1.4079    1.3935   -5.7057 H   0  0  0  0  0  0  0  0  0  0  0  0
   -3.6579    0.3149   -5.5627 H   0  0  0  0  0  0  0  0  0  0  0  0
    3.8007    5.2609   -7.1618 N   0  0  0  0  0  0  0  0  0  0  0  0
    4.4221    6.1541   -7.3551 N   0  0  0  0  0  0  0  0  0  0  0  0
    1.7850    0.2822   -6.2830 S   0  0  0  0  0  0  0  0  0  0  0  0
    1.8640    2.1330   -6.5400 C   0  0  0  0  0  0  0  0  0  0  0  0
    0.8624    0.2958   -4.9176 O   0  0  0  0  0  0  0  0  0  0  0  0
    3.1190   -0.1500   -5.9091 O   0  0  0  0  0  0  0  0  0  0  0  0
    1.0463   -0.2928   -7.3948 O   0  0  0  0  0  0  0  0  0  0  0  0
    0.6316    2.6149   -6.7257 F   0  0  0  0  0  0  0  0  0  0  0  0
    2.4178    2.7154   -5.4828 F   0  0  0  0  0  0  0  0  0  0  0  0
    2.5990    2.3647   -7.6250 F   0  0  0  0  0  0  0  0  0  0  0  0
   -3.8643   -2.0038   -4.6955 H   0  0  0  0  0  0  0  0  0  0  0  0
  1  7  1  0  0  0  0
  2  1  1  0  0  0  0
  2  8  1  0  0  0  0
  3 15  1  0  0  0  0
  3  2  2  0  0  0  0
  4  5  2  0  0  0  0
  4  3  1  0  0  0  0
  5  6  1  0  0  0  0
  6 21  1  0  0  0  0
  6  1  2  0  0  0  0
  9  4  1  0  0  0  0
 10  5  1  0  0  0  0
 12 11  3  0  0  0  0
 13 16  2  0  0  0  0
 13 15  1  0  0  0  0
 14 13  1  0  0  0  0
 14 19  1  0  0  0  0
 17 13  2  0  0  0  0
 18 14  1  0  0  0  0
 20 14  1  0  0  0  0
M  END
