Coordinates from ORCA-job Ph-N2-OTf-B3LYPG-6-31G_dp-MTMO-d009-169-n800
 OpenBabel09051908113D

 21 20  0  0  0  0  0  0  0  0999 V2000
   -1.8744   -1.6283   -4.8646 C   0  0  0  0  0  0  0  0  0  0  0  0
   -0.5702   -1.2053   -4.6038 C   0  0  0  0  0  0  0  0  0  0  0  0
   -0.1935    0.0711   -5.0119 C   0  0  0  0  0  0  0  0  0  0  0  0
   -1.0738    0.9353   -5.6564 C   0  0  0  0  0  0  0  0  0  0  0  0
   -2.3772    0.5002   -5.9003 C   0  0  0  0  0  0  0  0  0  0  0  0
   -2.7771   -0.7796   -5.5090 C   0  0  0  0  0  0  0  0  0  0  0  0
   -2.1836   -2.6221   -4.5571 H   0  0  0  0  0  0  0  0  0  0  0  0
    0.1427   -1.8481   -4.1011 H   0  0  0  0  0  0  0  0  0  0  0  0
   -0.7391    1.9235   -5.9490 H   0  0  0  0  0  0  0  0  0  0  0  0
   -3.0783    1.1639   -6.3969 H   0  0  0  0  0  0  0  0  0  0  0  0
    0.4833    4.4276   -5.8325 N   0  0  0  0  0  0  0  0  0  0  0  0
    0.8075    5.3912   -5.3996 N   0  0  0  0  0  0  0  0  0  0  0  0
    2.4367   -0.0285   -5.4100 S   0  0  0  0  0  0  0  0  0  0  0  0
    2.5594    1.1509   -6.8552 C   0  0  0  0  0  0  0  0  0  0  0  0
    1.0888    0.5714   -4.6882 O   0  0  0  0  0  0  0  0  0  0  0  0
    3.5323    0.2785   -4.5122 O   0  0  0  0  0  0  0  0  0  0  0  0
    2.1931   -1.3543   -5.9531 O   0  0  0  0  0  0  0  0  0  0  0  0
    1.4707    1.0401   -7.6175 F   0  0  0  0  0  0  0  0  0  0  0  0
    2.6664    2.4002   -6.4080 F   0  0  0  0  0  0  0  0  0  0  0  0
    3.6390    0.8337   -7.5665 F   0  0  0  0  0  0  0  0  0  0  0  0
   -3.7910   -1.1143   -5.7047 H   0  0  0  0  0  0  0  0  0  0  0  0
  1  2  1  0  0  0  0
  1  7  1  0  0  0  0
  2  8  1  0  0  0  0
  3 15  1  0  0  0  0
  3  2  2  0  0  0  0
  4  3  1  0  0  0  0
  5  4  2  0  0  0  0
  5  6  1  0  0  0  0
  6  1  2  0  0  0  0
  9  4  1  0  0  0  0
 10  5  1  0  0  0  0
 11 12  3  0  0  0  0
 13 15  1  0  0  0  0
 13 16  2  0  0  0  0
 14 19  1  0  0  0  0
 14 13  1  0  0  0  0
 17 13  2  0  0  0  0
 18 14  1  0  0  0  0
 20 14  1  0  0  0  0
 21  6  1  0  0  0  0
M  END
