Coordinates from ORCA-job Ph-N2-OTf-B3LYPG-6-31G_dp-MTMO-d009-169-n800
 OpenBabel09051908113D

 21 20  0  0  0  0  0  0  0  0999 V2000
   -2.1836   -2.9893   -4.4043 C   0  0  0  0  0  0  0  0  0  0  0  0
   -0.9617   -2.3179   -4.3416 C   0  0  0  0  0  0  0  0  0  0  0  0
   -0.9433   -0.9462   -4.5720 C   0  0  0  0  0  0  0  0  0  0  0  0
   -2.0982   -0.2266   -4.8615 C   0  0  0  0  0  0  0  0  0  0  0  0
   -3.3119   -0.9119   -4.9242 C   0  0  0  0  0  0  0  0  0  0  0  0
   -3.3564   -2.2891   -4.6959 C   0  0  0  0  0  0  0  0  0  0  0  0
   -2.2167   -4.0591   -4.2225 H   0  0  0  0  0  0  0  0  0  0  0  0
   -0.0375   -2.8362   -4.1102 H   0  0  0  0  0  0  0  0  0  0  0  0
   -2.0399    0.8418   -5.0335 H   0  0  0  0  0  0  0  0  0  0  0  0
   -4.2226   -0.3664   -5.1507 H   0  0  0  0  0  0  0  0  0  0  0  0
    9.0177   10.0819  -11.2180 N   0  0  0  0  0  0  0  0  0  0  0  0
    9.9798   10.5809  -11.4350 N   0  0  0  0  0  0  0  0  0  0  0  0
    1.1991    0.0913   -5.7381 S   0  0  0  0  0  0  0  0  0  0  0  0
    1.1337    1.9514   -5.5764 C   0  0  0  0  0  0  0  0  0  0  0  0
    0.2851   -0.2649   -4.4151 O   0  0  0  0  0  0  0  0  0  0  0  0
    2.5633   -0.3102   -5.4503 O   0  0  0  0  0  0  0  0  0  0  0  0
    0.5025   -0.2767   -6.9593 O   0  0  0  0  0  0  0  0  0  0  0  0
   -0.1272    2.3720   -5.7121 F   0  0  0  0  0  0  0  0  0  0  0  0
    1.6018    2.3201   -4.3889 F   0  0  0  0  0  0  0  0  0  0  0  0
    1.8821    2.4781   -6.5433 F   0  0  0  0  0  0  0  0  0  0  0  0
   -4.3045   -2.8161   -4.7446 H   0  0  0  0  0  0  0  0  0  0  0  0
  1  2  1  0  0  0  0
  1  7  1  0  0  0  0
  2  8  1  0  0  0  0
  3 15  1  0  0  0  0
  3  2  2  0  0  0  0
  4  3  1  0  0  0  0
  5  4  2  0  0  0  0
  5  6  1  0  0  0  0
  6  1  2  0  0  0  0
  9  4  1  0  0  0  0
 10  5  1  0  0  0  0
 12 11  3  0  0  0  0
 13 14  1  0  0  0  0
 13 16  2  0  0  0  0
 13 15  1  0  0  0  0
 14 19  1  0  0  0  0
 17 13  2  0  0  0  0
 18 14  1  0  0  0  0
 20 14  1  0  0  0  0
 21  6  1  0  0  0  0
M  END
