Coordinates from ORCA-job Ph-N2-OTf-B3LYPG-6-31G_dp-MTMO-d009-169-n800
 OpenBabel09051908113D

 21 20  0  0  0  0  0  0  0  0999 V2000
   -2.1544   -2.9585   -4.4205 C   0  0  0  0  0  0  0  0  0  0  0  0
   -0.9327   -2.2867   -4.3577 C   0  0  0  0  0  0  0  0  0  0  0  0
   -0.9145   -0.9153   -4.5895 C   0  0  0  0  0  0  0  0  0  0  0  0
   -2.0692   -0.1962   -4.8806 C   0  0  0  0  0  0  0  0  0  0  0  0
   -3.2827   -0.8819   -4.9435 C   0  0  0  0  0  0  0  0  0  0  0  0
   -3.3271   -2.2588   -4.7137 C   0  0  0  0  0  0  0  0  0  0  0  0
   -2.1873   -4.0280   -4.2375 H   0  0  0  0  0  0  0  0  0  0  0  0
   -0.0086   -2.8045   -4.1250 H   0  0  0  0  0  0  0  0  0  0  0  0
   -2.0111    0.8720   -5.0538 H   0  0  0  0  0  0  0  0  0  0  0  0
   -4.1935   -0.3368   -5.1712 H   0  0  0  0  0  0  0  0  0  0  0  0
    8.7415    9.7907  -11.0503 N   0  0  0  0  0  0  0  0  0  0  0  0
    9.7041   10.2883  -11.2677 N   0  0  0  0  0  0  0  0  0  0  0  0
    1.2282    0.1222   -5.7553 S   0  0  0  0  0  0  0  0  0  0  0  0
    1.1626    1.9824   -5.5942 C   0  0  0  0  0  0  0  0  0  0  0  0
    0.3138   -0.2336   -4.4325 O   0  0  0  0  0  0  0  0  0  0  0  0
    2.5923   -0.2791   -5.4670 O   0  0  0  0  0  0  0  0  0  0  0  0
    0.5320   -0.2463   -6.9767 O   0  0  0  0  0  0  0  0  0  0  0  0
   -0.0983    2.4029   -5.7304 F   0  0  0  0  0  0  0  0  0  0  0  0
    1.6303    2.3515   -4.4068 F   0  0  0  0  0  0  0  0  0  0  0  0
    1.9112    2.5088   -6.5611 F   0  0  0  0  0  0  0  0  0  0  0  0
   -4.2750   -2.7861   -4.7625 H   0  0  0  0  0  0  0  0  0  0  0  0
  1  2  1  0  0  0  0
  1  7  1  0  0  0  0
  2  8  1  0  0  0  0
  3 15  1  0  0  0  0
  3  2  2  0  0  0  0
  4  3  1  0  0  0  0
  5  4  2  0  0  0  0
  5  6  1  0  0  0  0
  6  1  2  0  0  0  0
  9  4  1  0  0  0  0
 10  5  1  0  0  0  0
 12 11  3  0  0  0  0
 13 14  1  0  0  0  0
 13 16  2  0  0  0  0
 13 15  1  0  0  0  0
 14 19  1  0  0  0  0
 17 13  2  0  0  0  0
 18 14  1  0  0  0  0
 20 14  1  0  0  0  0
 21  6  1  0  0  0  0
M  END
