Coordinates from ORCA-job Ph-N2-OTf-B3LYPG-6-31G_dp-MTMO-d009-169-n800
 OpenBabel09051908113D

 21 20  0  0  0  0  0  0  0  0999 V2000
   -1.9034   -2.6570   -4.5507 C   0  0  0  0  0  0  0  0  0  0  0  0
   -0.6775   -1.9926   -4.4893 C   0  0  0  0  0  0  0  0  0  0  0  0
   -0.6465   -0.6270   -4.7522 C   0  0  0  0  0  0  0  0  0  0  0  0
   -1.7926    0.0934   -5.0730 C   0  0  0  0  0  0  0  0  0  0  0  0
   -3.0103   -0.5851   -5.1343 C   0  0  0  0  0  0  0  0  0  0  0  0
   -3.0675   -1.9560   -4.8735 C   0  0  0  0  0  0  0  0  0  0  0  0
   -1.9462   -3.7217   -4.3436 H   0  0  0  0  0  0  0  0  0  0  0  0
    0.2401   -2.5114   -4.2342 H   0  0  0  0  0  0  0  0  0  0  0  0
   -1.7250    1.1569   -5.2697 H   0  0  0  0  0  0  0  0  0  0  0  0
   -3.9143   -0.0390   -5.3852 H   0  0  0  0  0  0  0  0  0  0  0  0
    6.1718    7.0867   -9.3932 N   0  0  0  0  0  0  0  0  0  0  0  0
    7.0458    7.6499   -9.7684 N   0  0  0  0  0  0  0  0  0  0  0  0
    1.5108    0.3800   -5.9179 S   0  0  0  0  0  0  0  0  0  0  0  0
    1.4635    2.2423   -5.7771 C   0  0  0  0  0  0  0  0  0  0  0  0
    0.5854    0.0482   -4.5965 O   0  0  0  0  0  0  0  0  0  0  0  0
    2.8692   -0.0322   -5.6175 O   0  0  0  0  0  0  0  0  0  0  0  0
    0.8177    0.0054   -7.1391 O   0  0  0  0  0  0  0  0  0  0  0  0
    0.2078    2.6742   -5.9247 F   0  0  0  0  0  0  0  0  0  0  0  0
    1.9286    2.6192   -4.5909 F   0  0  0  0  0  0  0  0  0  0  0  0
    2.2229    2.7503   -6.7453 F   0  0  0  0  0  0  0  0  0  0  0  0
   -4.0186   -2.4775   -4.9213 H   0  0  0  0  0  0  0  0  0  0  0  0
  1  2  1  0  0  0  0
  1  7  1  0  0  0  0
  2  8  1  0  0  0  0
  3 15  1  0  0  0  0
  3  2  2  0  0  0  0
  4  3  1  0  0  0  0
  5  4  2  0  0  0  0
  5  6  1  0  0  0  0
  6  1  2  0  0  0  0
  9  4  1  0  0  0  0
 10  5  1  0  0  0  0
 12 11  3  0  0  0  0
 13 14  1  0  0  0  0
 13 16  2  0  0  0  0
 13 15  1  0  0  0  0
 14 19  1  0  0  0  0
 17 13  2  0  0  0  0
 18 14  1  0  0  0  0
 20 14  1  0  0  0  0
 21  6  1  0  0  0  0
M  END
