Coordinates from ORCA-job Ph-N2-OTf-B3LYPG-6-31G_dp-MTMO-d009-169-n800
 OpenBabel09051908113D

 21 20  0  0  0  0  0  0  0  0999 V2000
   -2.1982   -3.0047   -4.3962 C   0  0  0  0  0  0  0  0  0  0  0  0
   -0.9763   -2.3335   -4.3336 C   0  0  0  0  0  0  0  0  0  0  0  0
   -0.9578   -0.9617   -4.5632 C   0  0  0  0  0  0  0  0  0  0  0  0
   -2.1126   -0.2418   -4.8519 C   0  0  0  0  0  0  0  0  0  0  0  0
   -3.3264   -0.9269   -4.9145 C   0  0  0  0  0  0  0  0  0  0  0  0
   -3.3711   -2.3042   -4.6869 C   0  0  0  0  0  0  0  0  0  0  0  0
   -2.2313   -4.0746   -4.2150 H   0  0  0  0  0  0  0  0  0  0  0  0
   -0.0520   -2.8520   -4.1028 H   0  0  0  0  0  0  0  0  0  0  0  0
   -2.0543    0.8267   -5.0234 H   0  0  0  0  0  0  0  0  0  0  0  0
   -4.2372   -0.3811   -5.1404 H   0  0  0  0  0  0  0  0  0  0  0  0
    9.1559   10.2276  -11.3018 N   0  0  0  0  0  0  0  0  0  0  0  0
   10.1176   10.7272  -11.5187 N   0  0  0  0  0  0  0  0  0  0  0  0
    1.1846    0.0758   -5.7295 S   0  0  0  0  0  0  0  0  0  0  0  0
    1.1192    1.9359   -5.5675 C   0  0  0  0  0  0  0  0  0  0  0  0
    0.2708   -0.2806   -4.4064 O   0  0  0  0  0  0  0  0  0  0  0  0
    2.5488   -0.3257   -5.4420 O   0  0  0  0  0  0  0  0  0  0  0  0
    0.4877   -0.2920   -6.9507 O   0  0  0  0  0  0  0  0  0  0  0  0
   -0.1417    2.3566   -5.7029 F   0  0  0  0  0  0  0  0  0  0  0  0
    1.5876    2.3044   -4.3800 F   0  0  0  0  0  0  0  0  0  0  0  0
    1.8675    2.4627   -6.5344 F   0  0  0  0  0  0  0  0  0  0  0  0
   -4.3192   -2.8311   -4.7356 H   0  0  0  0  0  0  0  0  0  0  0  0
  1  2  1  0  0  0  0
  1  7  1  0  0  0  0
  2  8  1  0  0  0  0
  3 15  1  0  0  0  0
  3  2  2  0  0  0  0
  4  3  1  0  0  0  0
  5  4  2  0  0  0  0
  5  6  1  0  0  0  0
  6  1  2  0  0  0  0
  9  4  1  0  0  0  0
 10  5  1  0  0  0  0
 12 11  3  0  0  0  0
 13 14  1  0  0  0  0
 13 16  2  0  0  0  0
 13 15  1  0  0  0  0
 14 19  1  0  0  0  0
 17 13  2  0  0  0  0
 18 14  1  0  0  0  0
 20 14  1  0  0  0  0
 21  6  1  0  0  0  0
M  END
