Coordinates from ORCA-job Ph-N2-OTf-B3LYPG-6-31G_dp-MTMO-d009-169-n800
 OpenBabel09051908113D

 21 20  0  0  0  0  0  0  0  0999 V2000
   -1.4375   -0.8579   -5.9416 C   0  0  0  0  0  0  0  0  0  0  0  0
   -0.5596   -0.0190   -5.2416 C   0  0  0  0  0  0  0  0  0  0  0  0
   -1.1356    1.1662   -4.8629 C   0  0  0  0  0  0  0  0  0  0  0  0
   -2.4084    1.6477   -5.0514 C   0  0  0  0  0  0  0  0  0  0  0  0
   -3.2424    0.7702   -5.7545 C   0  0  0  0  0  0  0  0  0  0  0  0
   -2.7563   -0.4668   -6.1919 C   0  0  0  0  0  0  0  0  0  0  0  0
   -1.0653   -1.8131   -6.2959 H   0  0  0  0  0  0  0  0  0  0  0  0
    0.4766   -0.2544   -5.0243 H   0  0  0  0  0  0  0  0  0  0  0  0
   -2.7323    2.6171   -4.6970 H   0  0  0  0  0  0  0  0  0  0  0  0
   -4.2665    1.0640   -5.9579 H   0  0  0  0  0  0  0  0  0  0  0  0
   -0.0669    2.2117   -4.0105 N   0  0  0  0  0  0  0  0  0  0  0  0
    0.9776    2.4249   -3.6694 N   0  0  0  0  0  0  0  0  0  0  0  0
    2.8645    1.2120   -5.6937 S   0  0  0  0  0  0  0  0  0  0  0  0
    3.1579   -0.4140   -6.5570 C   0  0  0  0  0  0  0  0  0  0  0  0
    1.7948    1.8627   -6.4785 O   0  0  0  0  0  0  0  0  0  0  0  0
    4.1796    1.8526   -5.6488 O   0  0  0  0  0  0  0  0  0  0  0  0
    2.3429    0.7261   -4.3502 O   0  0  0  0  0  0  0  0  0  0  0  0
    2.0168   -1.1471   -6.5854 F   0  0  0  0  0  0  0  0  0  0  0  0
    3.5452   -0.2105   -7.8195 F   0  0  0  0  0  0  0  0  0  0  0  0
    4.0918   -1.1318   -5.9270 F   0  0  0  0  0  0  0  0  0  0  0  0
   -3.4153   -1.1337   -6.7384 H   0  0  0  0  0  0  0  0  0  0  0  0
  1  2  1  0  0  0  0
  2  8  1  0  0  0  0
  2  3  2  0  0  0  0
  3 11  1  0  0  0  0
  4  3  1  0  0  0  0
  4  9  1  0  0  0  0
  5  4  2  0  0  0  0
  6  1  2  0  0  0  0
  6  5  1  0  0  0  0
  7  1  1  0  0  0  0
 10  5  1  0  0  0  0
 11 12  2  0  0  0  0
 13 16  2  0  0  0  0
 13 17  1  0  0  0  0
 14 20  1  0  0  0  0
 14 13  1  0  0  0  0
 15 13  2  0  0  0  0
 18 14  1  0  0  0  0
 19 14  1  0  0  0  0
 21  6  1  0  0  0  0
M  RAD  2  12   2  17   2
M  END
