Coordinates from ORCA-job Ph-N2-OTf-B3LYPG-6-31G_dp-MTMO-d009-169-n800
 OpenBabel09051908113D

 21 20  0  0  0  0  0  0  0  0999 V2000
   -1.7422   -2.3076   -4.4118 C   0  0  0  0  0  0  0  0  0  0  0  0
   -0.4993   -1.6743   -4.4584 C   0  0  0  0  0  0  0  0  0  0  0  0
   -0.4403   -0.3566   -4.9003 C   0  0  0  0  0  0  0  0  0  0  0  0
   -1.5740    0.3463   -5.2946 C   0  0  0  0  0  0  0  0  0  0  0  0
   -2.8095   -0.3003   -5.2437 C   0  0  0  0  0  0  0  0  0  0  0  0
   -2.8949   -1.6233   -4.8039 C   0  0  0  0  0  0  0  0  0  0  0  0
   -1.8069   -3.3347   -4.0674 H   0  0  0  0  0  0  0  0  0  0  0  0
    0.4101   -2.1799   -4.1526 H   0  0  0  0  0  0  0  0  0  0  0  0
   -1.4824    1.3719   -5.6319 H   0  0  0  0  0  0  0  0  0  0  0  0
   -3.7048    0.2323   -5.5486 H   0  0  0  0  0  0  0  0  0  0  0  0
    4.1227    5.3044   -7.4600 N   0  0  0  0  0  0  0  0  0  0  0  0
    4.7999    6.1387   -7.7183 N   0  0  0  0  0  0  0  0  0  0  0  0
    1.7437    0.3606   -6.2170 S   0  0  0  0  0  0  0  0  0  0  0  0
    1.7874    2.2209   -6.3992 C   0  0  0  0  0  0  0  0  0  0  0  0
    0.8087    0.3047   -4.8615 O   0  0  0  0  0  0  0  0  0  0  0  0
    3.0824   -0.0603   -5.8473 O   0  0  0  0  0  0  0  0  0  0  0  0
    1.0265   -0.1845   -7.3575 O   0  0  0  0  0  0  0  0  0  0  0  0
    0.5477    2.6843   -6.5833 F   0  0  0  0  0  0  0  0  0  0  0  0
    2.3138    2.7712   -5.3112 F   0  0  0  0  0  0  0  0  0  0  0  0
    2.5325    2.5133   -7.4629 F   0  0  0  0  0  0  0  0  0  0  0  0
   -3.8594   -2.1204   -4.7662 H   0  0  0  0  0  0  0  0  0  0  0  0
  1  7  1  0  0  0  0
  2  1  1  0  0  0  0
  2  8  1  0  0  0  0
  3 15  1  0  0  0  0
  3  2  2  0  0  0  0
  4  5  2  0  0  0  0
  4  3  1  0  0  0  0
  5  6  1  0  0  0  0
  6 21  1  0  0  0  0
  6  1  2  0  0  0  0
  9  4  1  0  0  0  0
 10  5  1  0  0  0  0
 12 11  3  0  0  0  0
 13 16  2  0  0  0  0
 13 15  1  0  0  0  0
 14 13  1  0  0  0  0
 14 19  1  0  0  0  0
 17 13  2  0  0  0  0
 18 14  1  0  0  0  0
 20 14  1  0  0  0  0
M  END
