Coordinates from ORCA-job Ph-N2-OTf-B3LYPG-6-31G_dp-MTMO-d009-169-n800
 OpenBabel09051908113D

 21 20  0  0  0  0  0  0  0  0999 V2000
   -1.9029   -1.7603   -5.0832 C   0  0  0  0  0  0  0  0  0  0  0  0
   -0.5745   -1.4556   -4.7830 C   0  0  0  0  0  0  0  0  0  0  0  0
   -0.1635   -0.1286   -4.8678 C   0  0  0  0  0  0  0  0  0  0  0  0
   -1.0334    0.8959   -5.2296 C   0  0  0  0  0  0  0  0  0  0  0  0
   -2.3608    0.5760   -5.5171 C   0  0  0  0  0  0  0  0  0  0  0  0
   -2.7953   -0.7497   -5.4474 C   0  0  0  0  0  0  0  0  0  0  0  0
   -2.2394   -2.7909   -5.0260 H   0  0  0  0  0  0  0  0  0  0  0  0
    0.1310   -2.2250   -4.4931 H   0  0  0  0  0  0  0  0  0  0  0  0
   -0.6700    1.9163   -5.2801 H   0  0  0  0  0  0  0  0  0  0  0  0
   -3.0527    1.3642   -5.7972 H   0  0  0  0  0  0  0  0  0  0  0  0
    0.7140    4.5831   -6.8472 N   0  0  0  0  0  0  0  0  0  0  0  0
    0.6644    5.6758   -7.0051 N   0  0  0  0  0  0  0  0  0  0  0  0
    2.4384   -0.1655   -5.4229 S   0  0  0  0  0  0  0  0  0  0  0  0
    2.5267    1.3714   -6.4850 C   0  0  0  0  0  0  0  0  0  0  0  0
    1.1481    0.2331   -4.4863 O   0  0  0  0  0  0  0  0  0  0  0  0
    3.5864   -0.1430   -4.5387 O   0  0  0  0  0  0  0  0  0  0  0  0
    2.1227   -1.2818   -6.2983 O   0  0  0  0  0  0  0  0  0  0  0  0
    1.4099    1.4800   -7.2064 F   0  0  0  0  0  0  0  0  0  0  0  0
    2.6644    2.4434   -5.7095 F   0  0  0  0  0  0  0  0  0  0  0  0
    3.5758    1.2631   -7.2973 F   0  0  0  0  0  0  0  0  0  0  0  0
   -3.8277   -0.9950   -5.6762 H   0  0  0  0  0  0  0  0  0  0  0  0
  1  7  1  0  0  0  0
  1  2  2  0  0  0  0
  2  8  1  0  0  0  0
  3  2  1  0  0  0  0
  3 15  1  0  0  0  0
  4  3  2  0  0  0  0
  5  6  2  0  0  0  0
  5  4  1  0  0  0  0
  6  1  1  0  0  0  0
  9  4  1  0  0  0  0
 10  5  1  0  0  0  0
 12 11  3  0  0  0  0
 13 16  2  0  0  0  0
 13 15  1  0  0  0  0
 14 19  1  0  0  0  0
 14 13  1  0  0  0  0
 17 13  2  0  0  0  0
 18 14  1  0  0  0  0
 20 14  1  0  0  0  0
 21  6  1  0  0  0  0
M  END
