Coordinates from ORCA-job Ph-N2-OTf-B3LYPG-6-31G_dp-MTMO-d009-169-n800
 OpenBabel09051908113D

 21 20  0  0  0  0  0  0  0  0999 V2000
   -1.8720   -2.6152   -4.5677 C   0  0  0  0  0  0  0  0  0  0  0  0
   -0.6450   -1.9530   -4.5061 C   0  0  0  0  0  0  0  0  0  0  0  0
   -0.6108   -0.5884   -4.7738 C   0  0  0  0  0  0  0  0  0  0  0  0
   -1.7548    0.1331   -5.0996 C   0  0  0  0  0  0  0  0  0  0  0  0
   -2.9736   -0.5433   -5.1611 C   0  0  0  0  0  0  0  0  0  0  0  0
   -3.0340   -1.9131   -4.8955 C   0  0  0  0  0  0  0  0  0  0  0  0
   -1.9173   -3.6791   -4.3569 H   0  0  0  0  0  0  0  0  0  0  0  0
    0.2711   -2.4725   -4.2473 H   0  0  0  0  0  0  0  0  0  0  0  0
   -1.6848    1.1957   -5.2999 H   0  0  0  0  0  0  0  0  0  0  0  0
   -3.8761    0.0037   -5.4159 H   0  0  0  0  0  0  0  0  0  0  0  0
    5.8208    6.7418   -9.1587 N   0  0  0  0  0  0  0  0  0  0  0  0
    6.6851    7.2881   -9.5784 N   0  0  0  0  0  0  0  0  0  0  0  0
    1.5504    0.4114   -5.9387 S   0  0  0  0  0  0  0  0  0  0  0  0
    1.5074    2.2741   -5.8022 C   0  0  0  0  0  0  0  0  0  0  0  0
    0.6221    0.0850   -4.6180 O   0  0  0  0  0  0  0  0  0  0  0  0
    2.9072   -0.0034   -5.6353 O   0  0  0  0  0  0  0  0  0  0  0  0
    0.8582    0.0356   -7.1601 O   0  0  0  0  0  0  0  0  0  0  0  0
    0.2528    2.7087   -5.9522 F   0  0  0  0  0  0  0  0  0  0  0  0
    1.9719    2.6525   -4.6163 F   0  0  0  0  0  0  0  0  0  0  0  0
    2.2691    2.7781   -6.7706 F   0  0  0  0  0  0  0  0  0  0  0  0
   -3.9861   -2.4330   -4.9435 H   0  0  0  0  0  0  0  0  0  0  0  0
  1  2  1  0  0  0  0
  1  7  1  0  0  0  0
  2  8  1  0  0  0  0
  3 15  1  0  0  0  0
  3  2  2  0  0  0  0
  4  3  1  0  0  0  0
  5  4  2  0  0  0  0
  5  6  1  0  0  0  0
  6  1  2  0  0  0  0
  9  4  1  0  0  0  0
 10  5  1  0  0  0  0
 12 11  3  0  0  0  0
 13 14  1  0  0  0  0
 13 16  2  0  0  0  0
 13 15  1  0  0  0  0
 14 19  1  0  0  0  0
 17 13  2  0  0  0  0
 18 14  1  0  0  0  0
 20 14  1  0  0  0  0
 21  6  1  0  0  0  0
M  END
