Coordinates from ORCA-job Ph-N2-OTf-B3LYPG-6-31G_dp-MTMO-d009-169-n800
 OpenBabel09051908113D

 21 20  0  0  0  0  0  0  0  0999 V2000
   -2.1682   -2.9725   -4.4132 C   0  0  0  0  0  0  0  0  0  0  0  0
   -0.9462   -2.3013   -4.3504 C   0  0  0  0  0  0  0  0  0  0  0  0
   -0.9275   -0.9297   -4.5814 C   0  0  0  0  0  0  0  0  0  0  0  0
   -2.0821   -0.2100   -4.8716 C   0  0  0  0  0  0  0  0  0  0  0  0
   -3.2959   -0.8951   -4.9344 C   0  0  0  0  0  0  0  0  0  0  0  0
   -3.3407   -2.2722   -4.7054 C   0  0  0  0  0  0  0  0  0  0  0  0
   -2.2014   -4.0422   -4.2309 H   0  0  0  0  0  0  0  0  0  0  0  0
   -0.0221   -2.8196   -4.1185 H   0  0  0  0  0  0  0  0  0  0  0  0
   -2.0236    0.8583   -5.0441 H   0  0  0  0  0  0  0  0  0  0  0  0
   -4.2065   -0.3496   -5.1614 H   0  0  0  0  0  0  0  0  0  0  0  0
    8.8677    9.9245  -11.1271 N   0  0  0  0  0  0  0  0  0  0  0  0
    9.8302   10.4227  -11.3440 N   0  0  0  0  0  0  0  0  0  0  0  0
    1.2154    0.1077   -5.7472 S   0  0  0  0  0  0  0  0  0  0  0  0
    1.1490    1.9679   -5.5866 C   0  0  0  0  0  0  0  0  0  0  0  0
    0.3012   -0.2487   -4.4244 O   0  0  0  0  0  0  0  0  0  0  0  0
    2.5796   -0.2927   -5.4583 O   0  0  0  0  0  0  0  0  0  0  0  0
    0.5194   -0.2614   -6.9685 O   0  0  0  0  0  0  0  0  0  0  0  0
   -0.1119    2.3880   -5.7233 F   0  0  0  0  0  0  0  0  0  0  0  0
    1.6163    2.3374   -4.3991 F   0  0  0  0  0  0  0  0  0  0  0  0
    1.8978    2.4943   -6.5534 F   0  0  0  0  0  0  0  0  0  0  0  0
   -4.2889   -2.7991   -4.7542 H   0  0  0  0  0  0  0  0  0  0  0  0
  1  2  1  0  0  0  0
  1  7  1  0  0  0  0
  2  8  1  0  0  0  0
  3 15  1  0  0  0  0
  3  2  2  0  0  0  0
  4  3  1  0  0  0  0
  5  4  2  0  0  0  0
  5  6  1  0  0  0  0
  6  1  2  0  0  0  0
  9  4  1  0  0  0  0
 10  5  1  0  0  0  0
 12 11  3  0  0  0  0
 13 14  1  0  0  0  0
 13 16  2  0  0  0  0
 13 15  1  0  0  0  0
 14 19  1  0  0  0  0
 17 13  2  0  0  0  0
 18 14  1  0  0  0  0
 20 14  1  0  0  0  0
 21  6  1  0  0  0  0
M  END
