Coordinates from ORCA-job Ph-N2-OTf-B3LYPG-6-31G_dp-MTMO-d009-169-n800
 OpenBabel09051908113D

 21 20  0  0  0  0  0  0  0  0999 V2000
   -1.8171   -2.5322   -4.5854 C   0  0  0  0  0  0  0  0  0  0  0  0
   -0.5867   -1.8759   -4.5292 C   0  0  0  0  0  0  0  0  0  0  0  0
   -0.5444   -0.5151   -4.8147 C   0  0  0  0  0  0  0  0  0  0  0  0
   -1.6836    0.2082   -5.1528 C   0  0  0  0  0  0  0  0  0  0  0  0
   -2.9060   -0.4623   -5.2087 C   0  0  0  0  0  0  0  0  0  0  0  0
   -2.9745   -1.8282   -4.9253 C   0  0  0  0  0  0  0  0  0  0  0  0
   -1.8688   -3.5930   -4.3608 H   0  0  0  0  0  0  0  0  0  0  0  0
    0.3259   -2.3970   -4.2613 H   0  0  0  0  0  0  0  0  0  0  0  0
   -1.6074    1.2677   -5.3668 H   0  0  0  0  0  0  0  0  0  0  0  0
   -3.8047    0.0861   -5.4729 H   0  0  0  0  0  0  0  0  0  0  0  0
    5.1696    6.0986   -8.7145 N   0  0  0  0  0  0  0  0  0  0  0  0
    6.0013    6.6611   -9.1767 N   0  0  0  0  0  0  0  0  0  0  0  0
    1.6244    0.4586   -5.9872 S   0  0  0  0  0  0  0  0  0  0  0  0
    1.5954    2.3229   -5.8696 C   0  0  0  0  0  0  0  0  0  0  0  0
    0.6918    0.1534   -4.6644 O   0  0  0  0  0  0  0  0  0  0  0  0
    2.9777    0.0361   -5.6781 O   0  0  0  0  0  0  0  0  0  0  0  0
    0.9308    0.0755   -7.2056 O   0  0  0  0  0  0  0  0  0  0  0  0
    0.3441    2.7650   -6.0249 F   0  0  0  0  0  0  0  0  0  0  0  0
    2.0618    2.7096   -4.6872 F   0  0  0  0  0  0  0  0  0  0  0  0
    2.3613    2.8113   -6.8424 F   0  0  0  0  0  0  0  0  0  0  0  0
   -3.9292   -2.3435   -4.9690 H   0  0  0  0  0  0  0  0  0  0  0  0
  1  2  1  0  0  0  0
  1  7  1  0  0  0  0
  2  8  1  0  0  0  0
  3 15  1  0  0  0  0
  3  2  2  0  0  0  0
  4  3  1  0  0  0  0
  5  4  2  0  0  0  0
  5  6  1  0  0  0  0
  6  1  2  0  0  0  0
  9  4  1  0  0  0  0
 10  5  1  0  0  0  0
 12 11  3  0  0  0  0
 13 14  1  0  0  0  0
 13 16  2  0  0  0  0
 13 15  1  0  0  0  0
 14 19  1  0  0  0  0
 17 13  2  0  0  0  0
 18 14  1  0  0  0  0
 20 14  1  0  0  0  0
 21  6  1  0  0  0  0
M  END
