Coordinates from ORCA-job Ph-N2-OTf-B3LYPG-6-31G_dp-MTMO-d009-169-n800
 OpenBabel09051908113D

 21 20  0  0  0  0  0  0  0  0999 V2000
   -1.8842   -1.8821   -5.3228 C   0  0  0  0  0  0  0  0  0  0  0  0
   -0.5478   -1.6065   -5.0299 C   0  0  0  0  0  0  0  0  0  0  0  0
   -0.1891   -0.2900   -4.7556 C   0  0  0  0  0  0  0  0  0  0  0  0
   -1.1175    0.7470   -4.7518 C   0  0  0  0  0  0  0  0  0  0  0  0
   -2.4511    0.4531   -5.0367 C   0  0  0  0  0  0  0  0  0  0  0  0
   -2.8343   -0.8586   -5.3255 C   0  0  0  0  0  0  0  0  0  0  0  0
   -2.1813   -2.9022   -5.5458 H   0  0  0  0  0  0  0  0  0  0  0  0
    0.2027   -2.3877   -5.0190 H   0  0  0  0  0  0  0  0  0  0  0  0
   -0.7912    1.7559   -4.5232 H   0  0  0  0  0  0  0  0  0  0  0  0
   -3.1877    1.2505   -5.0337 H   0  0  0  0  0  0  0  0  0  0  0  0
    1.8332    4.6129   -7.7417 N   0  0  0  0  0  0  0  0  0  0  0  0
    1.6574    5.5674   -8.2699 N   0  0  0  0  0  0  0  0  0  0  0  0
    2.3648   -0.0339   -5.4593 S   0  0  0  0  0  0  0  0  0  0  0  0
    2.1679    1.6487   -6.2596 C   0  0  0  0  0  0  0  0  0  0  0  0
    1.1338    0.0268   -4.3733 O   0  0  0  0  0  0  0  0  0  0  0  0
    3.5761    0.0022   -4.6648 O   0  0  0  0  0  0  0  0  0  0  0  0
    2.1098   -1.0316   -6.4851 O   0  0  0  0  0  0  0  0  0  0  0  0
    1.0379    1.6742   -6.9667 F   0  0  0  0  0  0  0  0  0  0  0  0
    2.1268    2.5896   -5.3188 F   0  0  0  0  0  0  0  0  0  0  0  0
    3.2075    1.8544   -7.0627 F   0  0  0  0  0  0  0  0  0  0  0  0
   -3.8721   -1.0833   -5.5517 H   0  0  0  0  0  0  0  0  0  0  0  0
  1  2  1  0  0  0  0
  2  8  1  0  0  0  0
  2  3  2  0  0  0  0
  3  4  1  0  0  0  0
  3 15  1  0  0  0  0
  4  9  1  0  0  0  0
  5 10  1  0  0  0  0
  5  4  2  0  0  0  0
  6  1  2  0  0  0  0
  6  5  1  0  0  0  0
  7  1  1  0  0  0  0
 12 11  3  0  0  0  0
 13 16  2  0  0  0  0
 13 15  1  0  0  0  0
 14 13  1  0  0  0  0
 14 19  1  0  0  0  0
 17 13  2  0  0  0  0
 18 14  1  0  0  0  0
 20 14  1  0  0  0  0
 21  6  1  0  0  0  0
M  END
