Coordinates from ORCA-job Ph-N2-OTf-B3LYPG-6-31G_dp-MTMO-d009-169-n800
 OpenBabel09051908113D

 21 20  0  0  0  0  0  0  0  0999 V2000
   -2.1098   -2.9107   -4.4453 C   0  0  0  0  0  0  0  0  0  0  0  0
   -0.8881   -2.2389   -4.3824 C   0  0  0  0  0  0  0  0  0  0  0  0
   -0.8697   -0.8678   -4.6165 C   0  0  0  0  0  0  0  0  0  0  0  0
   -2.0242   -0.1492   -4.9099 C   0  0  0  0  0  0  0  0  0  0  0  0
   -3.2376   -0.8350   -4.9728 C   0  0  0  0  0  0  0  0  0  0  0  0
   -3.2822   -2.2116   -4.7407 C   0  0  0  0  0  0  0  0  0  0  0  0
   -2.1428   -3.9800   -4.2606 H   0  0  0  0  0  0  0  0  0  0  0  0
    0.0358   -2.7563   -4.1481 H   0  0  0  0  0  0  0  0  0  0  0  0
   -1.9660    0.9187   -5.0847 H   0  0  0  0  0  0  0  0  0  0  0  0
   -4.1481   -0.2904   -5.2023 H   0  0  0  0  0  0  0  0  0  0  0  0
    8.3155    9.3420  -10.7913 N   0  0  0  0  0  0  0  0  0  0  0  0
    9.2786    9.8384  -11.0092 N   0  0  0  0  0  0  0  0  0  0  0  0
    1.2735    0.1694   -5.7819 S   0  0  0  0  0  0  0  0  0  0  0  0
    1.2069    2.0297   -5.6227 C   0  0  0  0  0  0  0  0  0  0  0  0
    0.3585   -0.1861   -4.4593 O   0  0  0  0  0  0  0  0  0  0  0  0
    2.6376   -0.2307   -5.4919 O   0  0  0  0  0  0  0  0  0  0  0  0
    0.5783   -0.2007   -7.0033 O   0  0  0  0  0  0  0  0  0  0  0  0
   -0.0540    2.4496   -5.7603 F   0  0  0  0  0  0  0  0  0  0  0  0
    1.6735    2.4001   -4.4352 F   0  0  0  0  0  0  0  0  0  0  0  0
    1.9561    2.5554   -6.5895 F   0  0  0  0  0  0  0  0  0  0  0  0
   -4.2301   -2.7390   -4.7897 H   0  0  0  0  0  0  0  0  0  0  0  0
  1  2  1  0  0  0  0
  1  7  1  0  0  0  0
  2  8  1  0  0  0  0
  3 15  1  0  0  0  0
  3  2  2  0  0  0  0
  4  3  1  0  0  0  0
  5  4  2  0  0  0  0
  5  6  1  0  0  0  0
  6  1  2  0  0  0  0
  9  4  1  0  0  0  0
 10  5  1  0  0  0  0
 12 11  3  0  0  0  0
 13 14  1  0  0  0  0
 13 16  2  0  0  0  0
 13 15  1  0  0  0  0
 14 19  1  0  0  0  0
 17 13  2  0  0  0  0
 18 14  1  0  0  0  0
 20 14  1  0  0  0  0
 21  6  1  0  0  0  0
M  END
