Coordinates from ORCA-job Ph-N2-OTf-B3LYPG-6-31G_dp-MTMO-d009-169-n800
 OpenBabel09051908113D

 21 20  0  0  0  0  0  0  0  0999 V2000
   -2.0888   -2.8889   -4.4563 C   0  0  0  0  0  0  0  0  0  0  0  0
   -0.8675   -2.2165   -4.3935 C   0  0  0  0  0  0  0  0  0  0  0  0
   -0.8495   -0.8457   -4.6290 C   0  0  0  0  0  0  0  0  0  0  0  0
   -2.0041   -0.1279   -4.9237 C   0  0  0  0  0  0  0  0  0  0  0  0
   -3.2172   -0.8142   -4.9865 C   0  0  0  0  0  0  0  0  0  0  0  0
   -3.2614   -2.1906   -4.7531 C   0  0  0  0  0  0  0  0  0  0  0  0
   -2.1215   -3.9580   -4.2706 H   0  0  0  0  0  0  0  0  0  0  0  0
    0.0566   -2.7333   -4.1582 H   0  0  0  0  0  0  0  0  0  0  0  0
   -1.9462    0.9399   -5.0996 H   0  0  0  0  0  0  0  0  0  0  0  0
   -4.1278   -0.2701   -5.2171 H   0  0  0  0  0  0  0  0  0  0  0  0
    8.1206    9.1353  -10.6720 N   0  0  0  0  0  0  0  0  0  0  0  0
    9.0834    9.6319  -10.8909 N   0  0  0  0  0  0  0  0  0  0  0  0
    1.2936    0.1914   -5.7945 S   0  0  0  0  0  0  0  0  0  0  0  0
    1.2277    2.0517   -5.6352 C   0  0  0  0  0  0  0  0  0  0  0  0
    0.3783   -0.1632   -4.4719 O   0  0  0  0  0  0  0  0  0  0  0  0
    2.6576   -0.2096   -5.5050 O   0  0  0  0  0  0  0  0  0  0  0  0
    0.5982   -0.1783   -7.0160 O   0  0  0  0  0  0  0  0  0  0  0  0
   -0.0331    2.4720   -5.7725 F   0  0  0  0  0  0  0  0  0  0  0  0
    1.6948    2.4220   -4.4478 F   0  0  0  0  0  0  0  0  0  0  0  0
    1.9768    2.5772   -6.6021 F   0  0  0  0  0  0  0  0  0  0  0  0
   -4.2090   -2.7183   -4.8020 H   0  0  0  0  0  0  0  0  0  0  0  0
  1  2  1  0  0  0  0
  1  7  1  0  0  0  0
  2  8  1  0  0  0  0
  3 15  1  0  0  0  0
  3  2  2  0  0  0  0
  4  3  1  0  0  0  0
  5  4  2  0  0  0  0
  5  6  1  0  0  0  0
  6  1  2  0  0  0  0
  9  4  1  0  0  0  0
 10  5  1  0  0  0  0
 12 11  3  0  0  0  0
 13 14  1  0  0  0  0
 13 16  2  0  0  0  0
 13 15  1  0  0  0  0
 14 19  1  0  0  0  0
 17 13  2  0  0  0  0
 18 14  1  0  0  0  0
 20 14  1  0  0  0  0
 21  6  1  0  0  0  0
M  END
