Coordinates from ORCA-job Ph-N2-OTf-B3LYPG-6-31G_dp-MTMO-d009-169-n800
 OpenBabel09051908113D

 21 20  0  0  0  0  0  0  0  0999 V2000
   -1.8790   -1.6472   -4.8959 C   0  0  0  0  0  0  0  0  0  0  0  0
   -0.5700   -1.2446   -4.6271 C   0  0  0  0  0  0  0  0  0  0  0  0
   -0.1850    0.0429   -4.9902 C   0  0  0  0  0  0  0  0  0  0  0  0
   -1.0614    0.9371   -5.5982 C   0  0  0  0  0  0  0  0  0  0  0  0
   -2.3697    0.5218   -5.8506 C   0  0  0  0  0  0  0  0  0  0  0  0
   -2.7781   -0.7682   -5.5038 C   0  0  0  0  0  0  0  0  0  0  0  0
   -2.1950   -2.6489   -4.6229 H   0  0  0  0  0  0  0  0  0  0  0  0
    0.1402   -1.9110   -4.1521 H   0  0  0  0  0  0  0  0  0  0  0  0
   -0.7193    1.9320   -5.8578 H   0  0  0  0  0  0  0  0  0  0  0  0
   -3.0677    1.2087   -6.3191 H   0  0  0  0  0  0  0  0  0  0  0  0
    0.4475    4.4425   -5.9368 N   0  0  0  0  0  0  0  0  0  0  0  0
    0.7754    5.4543   -5.6371 N   0  0  0  0  0  0  0  0  0  0  0  0
    2.4419   -0.0583   -5.4092 S   0  0  0  0  0  0  0  0  0  0  0  0
    2.5618    1.1762   -6.8080 C   0  0  0  0  0  0  0  0  0  0  0  0
    1.1028    0.5206   -4.6546 O   0  0  0  0  0  0  0  0  0  0  0  0
    3.5455    0.2073   -4.5081 O   0  0  0  0  0  0  0  0  0  0  0  0
    2.1867   -1.3605   -6.0017 O   0  0  0  0  0  0  0  0  0  0  0  0
    1.4729    1.0931   -7.5737 F   0  0  0  0  0  0  0  0  0  0  0  0
    2.6664    2.4076   -6.3129 F   0  0  0  0  0  0  0  0  0  0  0  0
    3.6416    0.8889   -7.5315 F   0  0  0  0  0  0  0  0  0  0  0  0
   -3.7957   -1.0875   -5.7060 H   0  0  0  0  0  0  0  0  0  0  0  0
  1  2  1  0  0  0  0
  1  7  1  0  0  0  0
  2  8  1  0  0  0  0
  3 15  1  0  0  0  0
  3  2  2  0  0  0  0
  4  3  1  0  0  0  0
  5  4  2  0  0  0  0
  5  6  1  0  0  0  0
  6  1  2  0  0  0  0
  9  4  1  0  0  0  0
 10  5  1  0  0  0  0
 11 12  3  0  0  0  0
 13 15  1  0  0  0  0
 13 16  2  0  0  0  0
 14 19  1  0  0  0  0
 14 13  1  0  0  0  0
 17 13  2  0  0  0  0
 18 14  1  0  0  0  0
 20 14  1  0  0  0  0
 21  6  1  0  0  0  0
M  END
