Coordinates from ORCA-job Ph-N2-OTf-B3LYPG-6-31G_dp-MTMO-d009-169-n800
 OpenBabel09051908113D

 21 20  0  0  0  0  0  0  0  0999 V2000
   -2.1303   -2.9326   -4.4340 C   0  0  0  0  0  0  0  0  0  0  0  0
   -0.9086   -2.2610   -4.3711 C   0  0  0  0  0  0  0  0  0  0  0  0
   -0.8902   -0.8897   -4.6041 C   0  0  0  0  0  0  0  0  0  0  0  0
   -2.0448   -0.1707   -4.8963 C   0  0  0  0  0  0  0  0  0  0  0  0
   -3.2583   -0.8564   -4.9592 C   0  0  0  0  0  0  0  0  0  0  0  0
   -3.3029   -2.2332   -4.7282 C   0  0  0  0  0  0  0  0  0  0  0  0
   -2.1634   -4.0021   -4.2502 H   0  0  0  0  0  0  0  0  0  0  0  0
    0.0154   -2.7786   -4.1377 H   0  0  0  0  0  0  0  0  0  0  0  0
   -1.9865    0.8973   -5.0703 H   0  0  0  0  0  0  0  0  0  0  0  0
   -4.1689   -0.3115   -5.1878 H   0  0  0  0  0  0  0  0  0  0  0  0
    8.5111    9.5482  -10.9103 N   0  0  0  0  0  0  0  0  0  0  0  0
    9.4741   10.0451  -11.1277 N   0  0  0  0  0  0  0  0  0  0  0  0
    1.2528    0.1476   -5.7696 S   0  0  0  0  0  0  0  0  0  0  0  0
    1.1864    2.0079   -5.6099 C   0  0  0  0  0  0  0  0  0  0  0  0
    0.3381   -0.2081   -4.4470 O   0  0  0  0  0  0  0  0  0  0  0  0
    2.6170   -0.2527   -5.4800 O   0  0  0  0  0  0  0  0  0  0  0  0
    0.5574   -0.2221   -6.9910 O   0  0  0  0  0  0  0  0  0  0  0  0
   -0.0745    2.4278   -5.7472 F   0  0  0  0  0  0  0  0  0  0  0  0
    1.6533    2.3779   -4.4223 F   0  0  0  0  0  0  0  0  0  0  0  0
    1.9355    2.5339   -6.5766 F   0  0  0  0  0  0  0  0  0  0  0  0
   -4.2508   -2.7604   -4.7771 H   0  0  0  0  0  0  0  0  0  0  0  0
  1  2  1  0  0  0  0
  1  7  1  0  0  0  0
  2  8  1  0  0  0  0
  3 15  1  0  0  0  0
  3  2  2  0  0  0  0
  4  3  1  0  0  0  0
  5  4  2  0  0  0  0
  5  6  1  0  0  0  0
  6  1  2  0  0  0  0
  9  4  1  0  0  0  0
 10  5  1  0  0  0  0
 12 11  3  0  0  0  0
 13 14  1  0  0  0  0
 13 16  2  0  0  0  0
 13 15  1  0  0  0  0
 14 19  1  0  0  0  0
 17 13  2  0  0  0  0
 18 14  1  0  0  0  0
 20 14  1  0  0  0  0
 21  6  1  0  0  0  0
M  END
