Coordinates from ORCA-job Ph-N2-OTf-B3LYPG-6-31G_dp-MTMO-d009-169-n800
 OpenBabel09051908113D

 21 20  0  0  0  0  0  0  0  0999 V2000
   -1.8527   -2.5878   -4.5760 C   0  0  0  0  0  0  0  0  0  0  0  0
   -0.6248   -1.9273   -4.5153 C   0  0  0  0  0  0  0  0  0  0  0  0
   -0.5882   -0.5637   -4.7876 C   0  0  0  0  0  0  0  0  0  0  0  0
   -1.7307    0.1584   -5.1170 C   0  0  0  0  0  0  0  0  0  0  0  0
   -2.9505   -0.5162   -5.1776 C   0  0  0  0  0  0  0  0  0  0  0  0
   -3.0133   -1.8851   -4.9074 C   0  0  0  0  0  0  0  0  0  0  0  0
   -1.8999   -3.6509   -4.3616 H   0  0  0  0  0  0  0  0  0  0  0  0
    0.2903   -2.4474   -4.2538 H   0  0  0  0  0  0  0  0  0  0  0  0
   -1.6589    1.2203   -5.3208 H   0  0  0  0  0  0  0  0  0  0  0  0
   -3.8518    0.0312   -5.4351 H   0  0  0  0  0  0  0  0  0  0  0  0
    5.5983    6.5226   -9.0118 N   0  0  0  0  0  0  0  0  0  0  0  0
    6.4556    7.0678   -9.4471 N   0  0  0  0  0  0  0  0  0  0  0  0
    1.5755    0.4293   -5.9536 S   0  0  0  0  0  0  0  0  0  0  0  0
    1.5362    2.2925   -5.8218 C   0  0  0  0  0  0  0  0  0  0  0  0
    0.6456    0.1082   -4.6327 O   0  0  0  0  0  0  0  0  0  0  0  0
    2.9313    0.0124   -5.6483 O   0  0  0  0  0  0  0  0  0  0  0  0
    0.8833    0.0519   -7.1745 O   0  0  0  0  0  0  0  0  0  0  0  0
    0.2826    2.7291   -5.9735 F   0  0  0  0  0  0  0  0  0  0  0  0
    2.0008    2.6728   -4.6365 F   0  0  0  0  0  0  0  0  0  0  0  0
    2.2994    2.7925   -6.7910 F   0  0  0  0  0  0  0  0  0  0  0  0
   -3.9661   -2.4036   -4.9546 H   0  0  0  0  0  0  0  0  0  0  0  0
  1  2  1  0  0  0  0
  1  7  1  0  0  0  0
  2  8  1  0  0  0  0
  3 15  1  0  0  0  0
  3  2  2  0  0  0  0
  4  3  1  0  0  0  0
  5  4  2  0  0  0  0
  5  6  1  0  0  0  0
  6  1  2  0  0  0  0
  9  4  1  0  0  0  0
 10  5  1  0  0  0  0
 12 11  3  0  0  0  0
 13 14  1  0  0  0  0
 13 16  2  0  0  0  0
 13 15  1  0  0  0  0
 14 19  1  0  0  0  0
 17 13  2  0  0  0  0
 18 14  1  0  0  0  0
 20 14  1  0  0  0  0
 21  6  1  0  0  0  0
M  END
