Coordinates from ORCA-job Ph-N2-OTf-B3LYPG-6-31G_dp-MTMO-d009-169-n800
 OpenBabel09051908113D

 21 20  0  0  0  0  0  0  0  0999 V2000
   -1.5108   -0.8577   -5.9971 C   0  0  0  0  0  0  0  0  0  0  0  0
   -0.5893   -0.0521   -5.3305 C   0  0  0  0  0  0  0  0  0  0  0  0
   -1.0752    1.1679   -4.8683 C   0  0  0  0  0  0  0  0  0  0  0  0
   -2.3770    1.6375   -5.0113 C   0  0  0  0  0  0  0  0  0  0  0  0
   -3.2663    0.8050   -5.6859 C   0  0  0  0  0  0  0  0  0  0  0  0
   -2.8320   -0.4332   -6.1737 C   0  0  0  0  0  0  0  0  0  0  0  0
   -1.1848   -1.8159   -6.3863 H   0  0  0  0  0  0  0  0  0  0  0  0
    0.4448   -0.3309   -5.1744 H   0  0  0  0  0  0  0  0  0  0  0  0
   -2.6707    2.6047   -4.6222 H   0  0  0  0  0  0  0  0  0  0  0  0
   -4.2928    1.1225   -5.8324 H   0  0  0  0  0  0  0  0  0  0  0  0
   -0.1007    2.0541   -4.1490 N   0  0  0  0  0  0  0  0  0  0  0  0
    0.9075    2.3666   -3.7620 N   0  0  0  0  0  0  0  0  0  0  0  0
    2.8755    1.2445   -5.7061 S   0  0  0  0  0  0  0  0  0  0  0  0
    3.2552   -0.4051   -6.4857 C   0  0  0  0  0  0  0  0  0  0  0  0
    1.7804    1.8021   -6.5279 O   0  0  0  0  0  0  0  0  0  0  0  0
    4.1554    1.9532   -5.6841 O   0  0  0  0  0  0  0  0  0  0  0  0
    2.3630    0.7970   -4.3443 O   0  0  0  0  0  0  0  0  0  0  0  0
    2.1457   -1.1844   -6.5075 F   0  0  0  0  0  0  0  0  0  0  0  0
    3.6650   -0.2406   -7.7468 F   0  0  0  0  0  0  0  0  0  0  0  0
    4.2014   -1.0543   -5.8025 F   0  0  0  0  0  0  0  0  0  0  0  0
   -3.5329   -1.0740   -6.6995 H   0  0  0  0  0  0  0  0  0  0  0  0
  1  2  1  0  0  0  0
  2  8  1  0  0  0  0
  2  3  2  0  0  0  0
  3 11  1  0  0  0  0
  4  3  1  0  0  0  0
  4  9  1  0  0  0  0
  5  4  2  0  0  0  0
  6  1  2  0  0  0  0
  6  5  1  0  0  0  0
  7  1  1  0  0  0  0
 10  5  1  0  0  0  0
 11 12  1  0  0  0  0
 13 16  2  0  0  0  0
 13 17  1  0  0  0  0
 14 20  1  0  0  0  0
 14 13  1  0  0  0  0
 15 13  2  0  0  0  0
 18 14  1  0  0  0  0
 19 14  1  0  0  0  0
 21  6  1  0  0  0  0
M  RAD  3  11   2  12   3  17   2
M  END
