Coordinates from ORCA-job Ph-N2-OTf-B3LYPG-6-31G_dp-MTMO-d009-169-n800
 OpenBabel09051908113D

 21 19  0  0  0  0  0  0  0  0999 V2000
   -1.7084   -1.3289   -5.5004 C   0  0  0  0  0  0  0  0  0  0  0  0
   -0.7004   -0.3632   -5.2671 C   0  0  0  0  0  0  0  0  0  0  0  0
   -1.1090    0.8320   -5.2945 C   0  0  0  0  0  0  0  0  0  0  0  0
   -2.2614    1.5318   -5.4848 C   0  0  0  0  0  0  0  0  0  0  0  0
   -3.2697    0.5631   -5.7194 C   0  0  0  0  0  0  0  0  0  0  0  0
   -2.9979   -0.8163   -5.7259 C   0  0  0  0  0  0  0  0  0  0  0  0
   -1.5143   -2.3973   -5.5078 H   0  0  0  0  0  0  0  0  0  0  0  0
    1.0618   -0.6464   -4.9457 H   0  0  0  0  0  0  0  0  0  0  0  0
   -2.4239    2.6005   -5.4676 H   0  0  0  0  0  0  0  0  0  0  0  0
   -4.2813    0.9174   -5.8992 H   0  0  0  0  0  0  0  0  0  0  0  0
    0.0317    4.0470   -4.6978 N   0  0  0  0  0  0  0  0  0  0  0  0
    0.9236    4.6471   -4.4425 N   0  0  0  0  0  0  0  0  0  0  0  0
    2.9201    0.4612   -5.1506 S   0  0  0  0  0  0  0  0  0  0  0  0
    3.2384    0.1488   -6.9592 C   0  0  0  0  0  0  0  0  0  0  0  0
    2.0977    1.6647   -5.0777 O   0  0  0  0  0  0  0  0  0  0  0  0
    4.1921    0.3439   -4.4650 O   0  0  0  0  0  0  0  0  0  0  0  0
    2.0465   -0.8334   -4.8028 O   0  0  0  0  0  0  0  0  0  0  0  0
    2.0704    0.0407   -7.6014 F   0  0  0  0  0  0  0  0  0  0  0  0
    3.9249    1.1760   -7.4595 F   0  0  0  0  0  0  0  0  0  0  0  0
    3.9354   -0.9739   -7.1165 F   0  0  0  0  0  0  0  0  0  0  0  0
   -3.8148   -1.5081   -5.9121 H   0  0  0  0  0  0  0  0  0  0  0  0
  1  2  2  0  0  0  0
  3  2  1  0  0  0  0
  4  9  1  0  0  0  0
  4  3  2  0  0  0  0
  5  4  1  0  0  0  0
  6  5  2  0  0  0  0
  6  1  1  0  0  0  0
  7  1  1  0  0  0  0
  8 17  1  0  0  0  0
 10  5  1  0  0  0  0
 11 12  3  0  0  0  0
 13 15  2  0  0  0  0
 13 17  1  0  0  0  0
 13 16  2  0  0  0  0
 14 13  1  0  0  0  0
 18 14  1  0  0  0  0
 19 14  1  0  0  0  0
 20 14  1  0  0  0  0
 21  6  1  0  0  0  0
M  RAD  2   2   2   3   2
M  END
