Coordinates from ORCA-job Ph-N2-OTf-B3LYPG-6-31G_dp-MTMO-d009-169-n800
 OpenBabel09051908113D

 21 20  0  0  0  0  0  0  0  0999 V2000
   -1.7755   -2.2354   -4.8238 C   0  0  0  0  0  0  0  0  0  0  0  0
   -0.4999   -1.6759   -4.7415 C   0  0  0  0  0  0  0  0  0  0  0  0
   -0.3757   -0.2917   -4.8128 C   0  0  0  0  0  0  0  0  0  0  0  0
   -1.4782    0.5450   -4.9561 C   0  0  0  0  0  0  0  0  0  0  0  0
   -2.7481   -0.0289   -5.0291 C   0  0  0  0  0  0  0  0  0  0  0  0
   -2.8975   -1.4159   -4.9655 C   0  0  0  0  0  0  0  0  0  0  0  0
   -1.8903   -3.3139   -4.7719 H   0  0  0  0  0  0  0  0  0  0  0  0
    0.3822   -2.2948   -4.6226 H   0  0  0  0  0  0  0  0  0  0  0  0
   -1.3351    1.6185   -5.0066 H   0  0  0  0  0  0  0  0  0  0  0  0
   -3.6189    0.6102   -5.1372 H   0  0  0  0  0  0  0  0  0  0  0  0
    3.5642    5.1735   -7.5391 N   0  0  0  0  0  0  0  0  0  0  0  0
    4.1694    6.0555   -7.8167 N   0  0  0  0  0  0  0  0  0  0  0  0
    2.0099    0.2556   -5.8500 S   0  0  0  0  0  0  0  0  0  0  0  0
    1.7731    1.9777   -6.5422 C   0  0  0  0  0  0  0  0  0  0  0  0
    0.8929    0.3072   -4.6412 O   0  0  0  0  0  0  0  0  0  0  0  0
    3.3069    0.2349   -5.2025 O   0  0  0  0  0  0  0  0  0  0  0  0
    1.6131   -0.6906   -6.8790 O   0  0  0  0  0  0  0  0  0  0  0  0
    0.5123    2.1228   -6.9585 F   0  0  0  0  0  0  0  0  0  0  0  0
    2.0404    2.8810   -5.6053 F   0  0  0  0  0  0  0  0  0  0  0  0
    2.6036    2.1300   -7.5705 F   0  0  0  0  0  0  0  0  0  0  0  0
   -3.8873   -1.8579   -5.0253 H   0  0  0  0  0  0  0  0  0  0  0  0
  1  7  1  0  0  0  0
  1  2  2  0  0  0  0
  2  8  1  0  0  0  0
  3  2  1  0  0  0  0
  3 15  1  0  0  0  0
  4  3  2  0  0  0  0
  5  6  2  0  0  0  0
  5  4  1  0  0  0  0
  6  1  1  0  0  0  0
  9  4  1  0  0  0  0
 10  5  1  0  0  0  0
 12 11  3  0  0  0  0
 13 16  2  0  0  0  0
 13 15  1  0  0  0  0
 14 13  1  0  0  0  0
 14 19  1  0  0  0  0
 17 13  2  0  0  0  0
 18 14  1  0  0  0  0
 20 14  1  0  0  0  0
 21  6  1  0  0  0  0
M  END
