Coordinates from ORCA-job Ph-N2-OTf-B3LYPG-6-31G_dp-MTMO-d009-169-n800
 OpenBabel09051908113D

 21 19  0  0  0  0  0  0  0  0999 V2000
   -1.7101   -1.3363   -5.4992 C   0  0  0  0  0  0  0  0  0  0  0  0
   -0.6996   -0.3726   -5.2693 C   0  0  0  0  0  0  0  0  0  0  0  0
   -1.1045    0.8235   -5.3011 C   0  0  0  0  0  0  0  0  0  0  0  0
   -2.2548    1.5261   -5.4941 C   0  0  0  0  0  0  0  0  0  0  0  0
   -3.2660    0.5597   -5.7254 C   0  0  0  0  0  0  0  0  0  0  0  0
   -2.9981   -0.8208   -5.7268 C   0  0  0  0  0  0  0  0  0  0  0  0
   -1.5191   -2.4053   -5.5025 H   0  0  0  0  0  0  0  0  0  0  0  0
    1.0634   -0.6500   -4.9420 H   0  0  0  0  0  0  0  0  0  0  0  0
   -2.4139    2.5955   -5.4808 H   0  0  0  0  0  0  0  0  0  0  0  0
   -4.2765    0.9163   -5.9067 H   0  0  0  0  0  0  0  0  0  0  0  0
    0.0412    4.0767   -4.6875 N   0  0  0  0  0  0  0  0  0  0  0  0
    0.9347    4.6721   -4.4272 N   0  0  0  0  0  0  0  0  0  0  0  0
    2.9196    0.4613   -5.1487 S   0  0  0  0  0  0  0  0  0  0  0  0
    3.2280    0.1499   -6.9592 C   0  0  0  0  0  0  0  0  0  0  0  0
    2.0984    1.6654   -5.0709 O   0  0  0  0  0  0  0  0  0  0  0  0
    4.1953    0.3433   -4.4701 O   0  0  0  0  0  0  0  0  0  0  0  0
    2.0483   -0.8336   -4.7963 O   0  0  0  0  0  0  0  0  0  0  0  0
    2.0564    0.0414   -7.5950 F   0  0  0  0  0  0  0  0  0  0  0  0
    3.9109    1.1778   -7.4629 F   0  0  0  0  0  0  0  0  0  0  0  0
    3.9248   -0.9722   -7.1210 F   0  0  0  0  0  0  0  0  0  0  0  0
   -3.8167   -1.5110   -5.9106 H   0  0  0  0  0  0  0  0  0  0  0  0
  1  2  2  0  0  0  0
  3  2  1  0  0  0  0
  4  9  1  0  0  0  0
  4  3  2  0  0  0  0
  5  4  1  0  0  0  0
  6  5  2  0  0  0  0
  6  1  1  0  0  0  0
  7  1  1  0  0  0  0
  8 17  1  0  0  0  0
 10  5  1  0  0  0  0
 11 12  3  0  0  0  0
 13 15  2  0  0  0  0
 13 17  1  0  0  0  0
 13 16  2  0  0  0  0
 14 13  1  0  0  0  0
 18 14  1  0  0  0  0
 19 14  1  0  0  0  0
 20 14  1  0  0  0  0
 21  6  1  0  0  0  0
M  RAD  2   2   2   3   2
M  END
