Coordinates from ORCA-job Ph-N2-OTf-B3LYPG-6-31G_dp-MTMO-d009-169-n800
 OpenBabel09051908113D

 21 20  0  0  0  0  0  0  0  0999 V2000
   -1.9995   -2.7908   -4.5005 C   0  0  0  0  0  0  0  0  0  0  0  0
   -0.7781   -2.1183   -4.4399 C   0  0  0  0  0  0  0  0  0  0  0  0
   -0.7594   -0.7489   -4.6838 C   0  0  0  0  0  0  0  0  0  0  0  0
   -1.9133   -0.0326   -4.9848 C   0  0  0  0  0  0  0  0  0  0  0  0
   -3.1265   -0.7191   -5.0454 C   0  0  0  0  0  0  0  0  0  0  0  0
   -3.1715   -2.0940   -4.8035 C   0  0  0  0  0  0  0  0  0  0  0  0
   -2.0329   -3.8587   -4.3082 H   0  0  0  0  0  0  0  0  0  0  0  0
    0.1454   -2.6338   -4.1999 H   0  0  0  0  0  0  0  0  0  0  0  0
   -1.8549    1.0340   -5.1671 H   0  0  0  0  0  0  0  0  0  0  0  0
   -4.0366   -0.1762   -5.2809 H   0  0  0  0  0  0  0  0  0  0  0  0
    7.2649    8.2245  -10.1369 N   0  0  0  0  0  0  0  0  0  0  0  0
    8.2164    8.7382  -10.3655 N   0  0  0  0  0  0  0  0  0  0  0  0
    1.3842    0.2836   -5.8525 S   0  0  0  0  0  0  0  0  0  0  0  0
    1.3203    2.1444   -5.6985 C   0  0  0  0  0  0  0  0  0  0  0  0
    0.4685   -0.0661   -4.5289 O   0  0  0  0  0  0  0  0  0  0  0  0
    2.7477   -0.1181   -5.5619 O   0  0  0  0  0  0  0  0  0  0  0  0
    0.6883   -0.0888   -7.0729 O   0  0  0  0  0  0  0  0  0  0  0  0
    0.0600    2.5656   -5.8370 F   0  0  0  0  0  0  0  0  0  0  0  0
    1.7877    2.5174   -4.5120 F   0  0  0  0  0  0  0  0  0  0  0  0
    2.0701    2.6663   -6.6668 F   0  0  0  0  0  0  0  0  0  0  0  0
   -4.1191   -2.6218   -4.8507 H   0  0  0  0  0  0  0  0  0  0  0  0
  1  2  1  0  0  0  0
  1  7  1  0  0  0  0
  2  8  1  0  0  0  0
  3 15  1  0  0  0  0
  3  2  2  0  0  0  0
  4  3  1  0  0  0  0
  5  4  2  0  0  0  0
  5  6  1  0  0  0  0
  6  1  2  0  0  0  0
  9  4  1  0  0  0  0
 10  5  1  0  0  0  0
 12 11  3  0  0  0  0
 13 14  1  0  0  0  0
 13 16  2  0  0  0  0
 13 15  1  0  0  0  0
 14 19  1  0  0  0  0
 17 13  2  0  0  0  0
 18 14  1  0  0  0  0
 20 14  1  0  0  0  0
 21  6  1  0  0  0  0
M  END
