Coordinates from ORCA-job Ph-N2-OTf-B3LYPG-6-31G_dp-MTMO-d009-169-n800
 OpenBabel09051908113D

 21 20  0  0  0  0  0  0  0  0999 V2000
   -1.8649   -2.0543   -5.1194 C   0  0  0  0  0  0  0  0  0  0  0  0
   -0.5447   -1.6525   -4.9123 C   0  0  0  0  0  0  0  0  0  0  0  0
   -0.2785   -0.2928   -4.7796 C   0  0  0  0  0  0  0  0  0  0  0  0
   -1.2836    0.6682   -4.8359 C   0  0  0  0  0  0  0  0  0  0  0  0
   -2.6000    0.2495   -5.0329 C   0  0  0  0  0  0  0  0  0  0  0  0
   -2.8908   -1.1087   -5.1782 C   0  0  0  0  0  0  0  0  0  0  0  0
   -2.0896   -3.1107   -5.2315 H   0  0  0  0  0  0  0  0  0  0  0  0
    0.2633   -2.3725   -4.8576 H   0  0  0  0  0  0  0  0  0  0  0  0
   -1.0305    1.7164   -4.7207 H   0  0  0  0  0  0  0  0  0  0  0  0
   -3.3959    0.9866   -5.0743 H   0  0  0  0  0  0  0  0  0  0  0  0
    2.4439    4.9389   -7.7134 N   0  0  0  0  0  0  0  0  0  0  0  0
    2.6898    5.8921   -8.2154 N   0  0  0  0  0  0  0  0  0  0  0  0
    2.2250    0.0635   -5.6109 S   0  0  0  0  0  0  0  0  0  0  0  0
    2.0858    1.7835   -6.3360 C   0  0  0  0  0  0  0  0  0  0  0  0
    1.0302    0.1498   -4.4837 O   0  0  0  0  0  0  0  0  0  0  0  0
    3.4667    0.0130   -4.8650 O   0  0  0  0  0  0  0  0  0  0  0  0
    1.8827   -0.8812   -6.6609 O   0  0  0  0  0  0  0  0  0  0  0  0
    0.8793    1.9415   -6.8833 F   0  0  0  0  0  0  0  0  0  0  0  0
    2.2647    2.6897   -5.3799 F   0  0  0  0  0  0  0  0  0  0  0  0
    3.0243    1.9173   -7.2702 F   0  0  0  0  0  0  0  0  0  0  0  0
   -3.9157   -1.4302   -5.3364 H   0  0  0  0  0  0  0  0  0  0  0  0
  1  2  1  0  0  0  0
  2  8  1  0  0  0  0
  2  3  2  0  0  0  0
  3 15  1  0  0  0  0
  4  3  1  0  0  0  0
  4  9  1  0  0  0  0
  5  4  2  0  0  0  0
  6  1  2  0  0  0  0
  6  5  1  0  0  0  0
  7  1  1  0  0  0  0
 10  5  1  0  0  0  0
 12 11  3  0  0  0  0
 13 16  2  0  0  0  0
 13 15  1  0  0  0  0
 14 13  1  0  0  0  0
 14 19  1  0  0  0  0
 17 13  2  0  0  0  0
 18 14  1  0  0  0  0
 20 14  1  0  0  0  0
 21  6  1  0  0  0  0
M  END
