Coordinates from ORCA-job Ph-N2-OTf-B3LYPG-6-31G_dp-MTMO-d009-169-n800
 OpenBabel09051908113D

 21 20  0  0  0  0  0  0  0  0999 V2000
   -1.9708   -2.7555   -4.5125 C   0  0  0  0  0  0  0  0  0  0  0  0
   -0.7487   -2.0842   -4.4537 C   0  0  0  0  0  0  0  0  0  0  0  0
   -0.7283   -0.7157   -4.7026 C   0  0  0  0  0  0  0  0  0  0  0  0
   -1.8813    0.0007   -5.0069 C   0  0  0  0  0  0  0  0  0  0  0  0
   -3.0952   -0.6847   -5.0657 C   0  0  0  0  0  0  0  0  0  0  0  0
   -3.1418   -2.0586   -4.8188 C   0  0  0  0  0  0  0  0  0  0  0  0
   -2.0054   -3.8227   -4.3162 H   0  0  0  0  0  0  0  0  0  0  0  0
    0.1741   -2.5998   -4.2113 H   0  0  0  0  0  0  0  0  0  0  0  0
   -1.8217    1.0666   -5.1932 H   0  0  0  0  0  0  0  0  0  0  0  0
   -4.0046   -0.1417   -5.3038 H   0  0  0  0  0  0  0  0  0  0  0  0
    6.9743    7.9099   -9.9394 N   0  0  0  0  0  0  0  0  0  0  0  0
    7.9096    8.4429  -10.1898 N   0  0  0  0  0  0  0  0  0  0  0  0
    1.4162    0.3121   -5.8739 S   0  0  0  0  0  0  0  0  0  0  0  0
    1.3543    2.1733   -5.7241 C   0  0  0  0  0  0  0  0  0  0  0  0
    0.5003   -0.0339   -4.5495 O   0  0  0  0  0  0  0  0  0  0  0  0
    2.7794   -0.0900   -5.5821 O   0  0  0  0  0  0  0  0  0  0  0  0
    0.7200   -0.0625   -7.0934 O   0  0  0  0  0  0  0  0  0  0  0  0
    0.0945    2.5957   -5.8644 F   0  0  0  0  0  0  0  0  0  0  0  0
    1.8214    2.5484   -4.5383 F   0  0  0  0  0  0  0  0  0  0  0  0
    2.1053    2.6922   -6.6931 F   0  0  0  0  0  0  0  0  0  0  0  0
   -4.0900   -2.5855   -4.8646 H   0  0  0  0  0  0  0  0  0  0  0  0
  1  2  1  0  0  0  0
  1  7  1  0  0  0  0
  2  8  1  0  0  0  0
  3 15  1  0  0  0  0
  3  2  2  0  0  0  0
  4  3  1  0  0  0  0
  5  4  2  0  0  0  0
  5  6  1  0  0  0  0
  6  1  2  0  0  0  0
  9  4  1  0  0  0  0
 10  5  1  0  0  0  0
 12 11  3  0  0  0  0
 13 14  1  0  0  0  0
 13 16  2  0  0  0  0
 13 15  1  0  0  0  0
 14 19  1  0  0  0  0
 17 13  2  0  0  0  0
 18 14  1  0  0  0  0
 20 14  1  0  0  0  0
 21  6  1  0  0  0  0
M  END
