Coordinates from ORCA-job Ph-N2-OTf-B3LYPG-6-31G_dp-MTMO-d009-169-n800
 OpenBabel09051908113D

 21 20  0  0  0  0  0  0  0  0999 V2000
   -1.8635   -2.6038   -4.5712 C   0  0  0  0  0  0  0  0  0  0  0  0
   -0.6363   -1.9420   -4.5100 C   0  0  0  0  0  0  0  0  0  0  0  0
   -0.6015   -0.5778   -4.7797 C   0  0  0  0  0  0  0  0  0  0  0  0
   -1.7450    0.1436   -5.1071 C   0  0  0  0  0  0  0  0  0  0  0  0
   -2.9641   -0.5323   -5.1682 C   0  0  0  0  0  0  0  0  0  0  0  0
   -3.0252   -1.9018   -4.9006 C   0  0  0  0  0  0  0  0  0  0  0  0
   -1.9094   -3.6674   -4.3588 H   0  0  0  0  0  0  0  0  0  0  0  0
    0.2795   -2.4616   -4.2500 H   0  0  0  0  0  0  0  0  0  0  0  0
   -1.6744    1.2059   -5.3090 H   0  0  0  0  0  0  0  0  0  0  0  0
   -3.8661    0.0146   -5.4242 H   0  0  0  0  0  0  0  0  0  0  0  0
    5.7273    6.6494   -9.0968 N   0  0  0  0  0  0  0  0  0  0  0  0
    6.5891    7.1940   -9.5239 N   0  0  0  0  0  0  0  0  0  0  0  0
    1.5606    0.4194   -5.9451 S   0  0  0  0  0  0  0  0  0  0  0  0
    1.5196    2.2822   -5.8098 C   0  0  0  0  0  0  0  0  0  0  0  0
    0.6317    0.0953   -4.6243 O   0  0  0  0  0  0  0  0  0  0  0  0
    2.9170    0.0030   -5.6415 O   0  0  0  0  0  0  0  0  0  0  0  0
    0.8681    0.0436   -7.1663 O   0  0  0  0  0  0  0  0  0  0  0  0
    0.2655    2.7179   -5.9601 F   0  0  0  0  0  0  0  0  0  0  0  0
    1.9845    2.6609   -4.6241 F   0  0  0  0  0  0  0  0  0  0  0  0
    2.2818    2.7849   -6.7785 F   0  0  0  0  0  0  0  0  0  0  0  0
   -3.9774   -2.4212   -4.9483 H   0  0  0  0  0  0  0  0  0  0  0  0
  1  2  1  0  0  0  0
  1  7  1  0  0  0  0
  2  8  1  0  0  0  0
  3 15  1  0  0  0  0
  3  2  2  0  0  0  0
  4  3  1  0  0  0  0
  5  4  2  0  0  0  0
  5  6  1  0  0  0  0
  6  1  2  0  0  0  0
  9  4  1  0  0  0  0
 10  5  1  0  0  0  0
 12 11  3  0  0  0  0
 13 14  1  0  0  0  0
 13 16  2  0  0  0  0
 13 15  1  0  0  0  0
 14 19  1  0  0  0  0
 17 13  2  0  0  0  0
 18 14  1  0  0  0  0
 20 14  1  0  0  0  0
 21  6  1  0  0  0  0
M  END
