Coordinates from ORCA-job Ph-N2-OTf-B3LYPG-6-31G_dp-MTMO-d009-169-n800
 OpenBabel09051908113D

 21 20  0  0  0  0  0  0  0  0999 V2000
   -2.2193   -3.0264   -4.3847 C   0  0  0  0  0  0  0  0  0  0  0  0
   -0.9970   -2.3559   -4.3223 C   0  0  0  0  0  0  0  0  0  0  0  0
   -0.9780   -0.9838   -4.5507 C   0  0  0  0  0  0  0  0  0  0  0  0
   -2.1327   -0.2631   -4.8381 C   0  0  0  0  0  0  0  0  0  0  0  0
   -3.3469   -0.9476   -4.9006 C   0  0  0  0  0  0  0  0  0  0  0  0
   -3.3920   -2.3251   -4.6742 C   0  0  0  0  0  0  0  0  0  0  0  0
   -2.2528   -4.0965   -4.2045 H   0  0  0  0  0  0  0  0  0  0  0  0
   -0.0729   -2.8750   -4.0925 H   0  0  0  0  0  0  0  0  0  0  0  0
   -2.0740    0.8055   -5.0086 H   0  0  0  0  0  0  0  0  0  0  0  0
   -4.2575   -0.4012   -5.1254 H   0  0  0  0  0  0  0  0  0  0  0  0
    9.3513   10.4342  -11.4203 N   0  0  0  0  0  0  0  0  0  0  0  0
   10.3125   10.9349  -11.6368 N   0  0  0  0  0  0  0  0  0  0  0  0
    1.1645    0.0535   -5.7172 S   0  0  0  0  0  0  0  0  0  0  0  0
    1.0985    1.9136   -5.5555 C   0  0  0  0  0  0  0  0  0  0  0  0
    0.2510   -0.3036   -4.3940 O   0  0  0  0  0  0  0  0  0  0  0  0
    2.5289   -0.3472   -5.4293 O   0  0  0  0  0  0  0  0  0  0  0  0
    0.4678   -0.3148   -6.9382 O   0  0  0  0  0  0  0  0  0  0  0  0
   -0.1625    2.3340   -5.6913 F   0  0  0  0  0  0  0  0  0  0  0  0
    1.5664    2.2824   -4.3680 F   0  0  0  0  0  0  0  0  0  0  0  0
    1.8468    2.4404   -6.5224 F   0  0  0  0  0  0  0  0  0  0  0  0
   -4.3404   -2.8515   -4.7227 H   0  0  0  0  0  0  0  0  0  0  0  0
  1  2  1  0  0  0  0
  1  7  1  0  0  0  0
  2  8  1  0  0  0  0
  3 15  1  0  0  0  0
  3  2  2  0  0  0  0
  4  3  1  0  0  0  0
  5  4  2  0  0  0  0
  5  6  1  0  0  0  0
  6  1  2  0  0  0  0
  9  4  1  0  0  0  0
 10  5  1  0  0  0  0
 12 11  3  0  0  0  0
 13 14  1  0  0  0  0
 13 16  2  0  0  0  0
 13 15  1  0  0  0  0
 14 19  1  0  0  0  0
 17 13  2  0  0  0  0
 18 14  1  0  0  0  0
 20 14  1  0  0  0  0
 21  6  1  0  0  0  0
M  END
