Coordinates from ORCA-job Ph-N2-OTf-B3LYPG-6-31G_dp-MTMO-d009-169-n800
 OpenBabel09051908113D

 21 20  0  0  0  0  0  0  0  0999 V2000
   -1.8228   -2.5413   -4.5841 C   0  0  0  0  0  0  0  0  0  0  0  0
   -0.5929   -1.8843   -4.5271 C   0  0  0  0  0  0  0  0  0  0  0  0
   -0.5515   -0.5230   -4.8103 C   0  0  0  0  0  0  0  0  0  0  0  0
   -1.6913    0.2001   -5.1470 C   0  0  0  0  0  0  0  0  0  0  0  0
   -2.9132   -0.4711   -5.2038 C   0  0  0  0  0  0  0  0  0  0  0  0
   -2.9808   -1.8376   -4.9227 C   0  0  0  0  0  0  0  0  0  0  0  0
   -1.8738   -3.6025   -4.3613 H   0  0  0  0  0  0  0  0  0  0  0  0
    0.3202   -2.4052   -4.2602 H   0  0  0  0  0  0  0  0  0  0  0  0
   -1.6158    1.2600   -5.3592 H   0  0  0  0  0  0  0  0  0  0  0  0
   -3.8124    0.0772   -5.4669 H   0  0  0  0  0  0  0  0  0  0  0  0
    5.2385    6.1675   -8.7635 N   0  0  0  0  0  0  0  0  0  0  0  0
    6.0753    6.7259   -9.2213 N   0  0  0  0  0  0  0  0  0  0  0  0
    1.6165    0.4541   -5.9815 S   0  0  0  0  0  0  0  0  0  0  0  0
    1.5858    2.3181   -5.8613 C   0  0  0  0  0  0  0  0  0  0  0  0
    0.6843    0.1461   -4.6591 O   0  0  0  0  0  0  0  0  0  0  0  0
    2.9701    0.0324   -5.6731 O   0  0  0  0  0  0  0  0  0  0  0  0
    0.9232    0.0721   -7.2004 O   0  0  0  0  0  0  0  0  0  0  0  0
    0.3341    2.7594   -6.0159 F   0  0  0  0  0  0  0  0  0  0  0  0
    2.0519    2.7036   -4.6783 F   0  0  0  0  0  0  0  0  0  0  0  0
    2.3513    2.8087   -6.8334 F   0  0  0  0  0  0  0  0  0  0  0  0
   -3.9352   -2.3534   -4.9671 H   0  0  0  0  0  0  0  0  0  0  0  0
  1  2  1  0  0  0  0
  1  7  1  0  0  0  0
  2  8  1  0  0  0  0
  3 15  1  0  0  0  0
  3  2  2  0  0  0  0
  4  3  1  0  0  0  0
  5  4  2  0  0  0  0
  5  6  1  0  0  0  0
  6  1  2  0  0  0  0
  9  4  1  0  0  0  0
 10  5  1  0  0  0  0
 12 11  3  0  0  0  0
 13 14  1  0  0  0  0
 13 16  2  0  0  0  0
 13 15  1  0  0  0  0
 14 19  1  0  0  0  0
 17 13  2  0  0  0  0
 18 14  1  0  0  0  0
 20 14  1  0  0  0  0
 21  6  1  0  0  0  0
M  END
