Coordinates from ORCA-job Ph-N2-OTf-B3LYPG-6-31G_dp-MTMO-d009-169-n800
 OpenBabel09051908113D

 21 19  0  0  0  0  0  0  0  0999 V2000
   -1.7782   -1.4200   -5.4759 C   0  0  0  0  0  0  0  0  0  0  0  0
   -0.6781   -0.5521   -5.2741 C   0  0  0  0  0  0  0  0  0  0  0  0
   -0.9793    0.6755   -5.3267 C   0  0  0  0  0  0  0  0  0  0  0  0
   -2.0594    1.4795   -5.5226 C   0  0  0  0  0  0  0  0  0  0  0  0
   -3.1570    0.6048   -5.7255 C   0  0  0  0  0  0  0  0  0  0  0  0
   -3.0164   -0.7941   -5.7022 C   0  0  0  0  0  0  0  0  0  0  0  0
   -1.6872   -2.5022   -5.4594 H   0  0  0  0  0  0  0  0  0  0  0  0
    1.0809   -0.8184   -4.9585 H   0  0  0  0  0  0  0  0  0  0  0  0
   -2.1173    2.5590   -5.5267 H   0  0  0  0  0  0  0  0  0  0  0  0
   -4.1328    1.0490   -5.9036 H   0  0  0  0  0  0  0  0  0  0  0  0
    0.0382    4.1286   -4.7653 N   0  0  0  0  0  0  0  0  0  0  0  0
    0.9488    4.6851   -4.4795 N   0  0  0  0  0  0  0  0  0  0  0  0
    2.8173    0.4741   -5.1324 S   0  0  0  0  0  0  0  0  0  0  0  0
    3.1728    0.2347   -6.9453 C   0  0  0  0  0  0  0  0  0  0  0  0
    1.8751    1.5877   -5.0424 O   0  0  0  0  0  0  0  0  0  0  0  0
    4.0911    0.4816   -4.4413 O   0  0  0  0  0  0  0  0  0  0  0  0
    2.0820   -0.9077   -4.8145 O   0  0  0  0  0  0  0  0  0  0  0  0
    2.0264    0.0021   -7.5933 F   0  0  0  0  0  0  0  0  0  0  0  0
    3.7347    1.3443   -7.4246 F   0  0  0  0  0  0  0  0  0  0  0  0
    3.9969   -0.7953   -7.1193 F   0  0  0  0  0  0  0  0  0  0  0  0
   -3.8971   -1.4092   -5.8646 H   0  0  0  0  0  0  0  0  0  0  0  0
  1  7  1  0  0  0  0
  1  2  2  0  0  0  0
  3  2  1  0  0  0  0
  4  3  2  0  0  0  0
  5  6  2  0  0  0  0
  5  4  1  0  0  0  0
  6  1  1  0  0  0  0
  8 17  1  0  0  0  0
  9  4  1  0  0  0  0
 10  5  1  0  0  0  0
 11 12  3  0  0  0  0
 13 15  2  0  0  0  0
 13 17  1  0  0  0  0
 13 16  2  0  0  0  0
 14 13  1  0  0  0  0
 18 14  1  0  0  0  0
 19 14  1  0  0  0  0
 20 14  1  0  0  0  0
 21  6  1  0  0  0  0
M  RAD  2   2   2   3   2
M  END
