Coordinates from ORCA-job Ph-N2-OTf-B3LYPG-6-31G_dp-MTMO-d009-169-n800
 OpenBabel09051908113D

 21 20  0  0  0  0  0  0  0  0999 V2000
   -1.3881   -0.8511   -5.9076 C   0  0  0  0  0  0  0  0  0  0  0  0
   -0.5378    0.0126   -5.1969 C   0  0  0  0  0  0  0  0  0  0  0  0
   -1.1590    1.1787   -4.8633 C   0  0  0  0  0  0  0  0  0  0  0  0
   -2.4226    1.6569   -5.0781 C   0  0  0  0  0  0  0  0  0  0  0  0
   -3.2235    0.7498   -5.7881 C   0  0  0  0  0  0  0  0  0  0  0  0
   -2.7064   -0.4854   -6.1941 C   0  0  0  0  0  0  0  0  0  0  0  0
   -0.9877   -1.8028   -6.2403 H   0  0  0  0  0  0  0  0  0  0  0  0
    0.5020   -0.1913   -4.9497 H   0  0  0  0  0  0  0  0  0  0  0  0
   -2.7670    2.6270   -4.7470 H   0  0  0  0  0  0  0  0  0  0  0  0
   -4.2469    1.0251   -6.0196 H   0  0  0  0  0  0  0  0  0  0  0  0
   -0.0596    2.2875   -3.9656 N   0  0  0  0  0  0  0  0  0  0  0  0
    0.9840    2.4789   -3.6215 N   0  0  0  0  0  0  0  0  0  0  0  0
    2.8536    1.1759   -5.6709 S   0  0  0  0  0  0  0  0  0  0  0  0
    3.1014   -0.4193   -6.6025 C   0  0  0  0  0  0  0  0  0  0  0  0
    1.7958    1.8814   -6.4259 O   0  0  0  0  0  0  0  0  0  0  0  0
    4.1844    1.7836   -5.6157 O   0  0  0  0  0  0  0  0  0  0  0  0
    2.3317    0.6570   -4.3445 O   0  0  0  0  0  0  0  0  0  0  0  0
    1.9456   -1.1303   -6.6388 F   0  0  0  0  0  0  0  0  0  0  0  0
    3.4715   -0.1767   -7.8636 F   0  0  0  0  0  0  0  0  0  0  0  0
    4.0312   -1.1798   -6.0173 F   0  0  0  0  0  0  0  0  0  0  0  0
   -3.3411   -1.1707   -6.7464 H   0  0  0  0  0  0  0  0  0  0  0  0
  1  2  1  0  0  0  0
  2  8  1  0  0  0  0
  2  3  2  0  0  0  0
  3 11  1  0  0  0  0
  4  3  1  0  0  0  0
  4  9  1  0  0  0  0
  5  4  2  0  0  0  0
  6  1  2  0  0  0  0
  6  5  1  0  0  0  0
  7  1  1  0  0  0  0
 10  5  1  0  0  0  0
 11 12  2  0  0  0  0
 13 16  2  0  0  0  0
 13 17  1  0  0  0  0
 14 20  1  0  0  0  0
 14 13  1  0  0  0  0
 15 13  2  0  0  0  0
 18 14  1  0  0  0  0
 19 14  1  0  0  0  0
 21  6  1  0  0  0  0
M  RAD  2  12   2  17   2
M  END
