Coordinates from ORCA-job 4-MeO-Ph-N2-HSO4-B3LYPG-6-31G_dp-MTMO-d009-169-n800
 OpenBabel09051907533D

 23 22  0  0  0  0  0  0  0  0999 V2000
    0.0381   -0.1962    0.3182 C   0  0  0  0  0  0  0  0  0  0  0  0
    1.4148    0.0552    0.2875 C   0  0  0  0  0  0  0  0  0  0  0  0
    1.8825    1.3089    0.6577 C   0  0  0  0  0  0  0  0  0  0  0  0
    1.0053    2.3059    1.0904 C   0  0  0  0  0  0  0  0  0  0  0  0
   -0.3570    2.0500    1.1290 C   0  0  0  0  0  0  0  0  0  0  0  0
   -0.8536    0.7957    0.7386 C   0  0  0  0  0  0  0  0  0  0  0  0
   -0.3165   -1.1730    0.0138 H   0  0  0  0  0  0  0  0  0  0  0  0
    2.0899   -0.7242   -0.0400 H   0  0  0  0  0  0  0  0  0  0  0  0
    1.4028    3.2710    1.3842 H   0  0  0  0  0  0  0  0  0  0  0  0
   -1.0589    2.8093    1.4559 H   0  0  0  0  0  0  0  0  0  0  0  0
    1.8604    2.5144   -1.8942 N   0  0  0  0  0  0  0  0  0  0  0  0
    1.0956    2.3562   -2.6767 N   0  0  0  0  0  0  0  0  0  0  0  0
   -2.2072    0.6480    0.8081 O   0  0  0  0  0  0  0  0  0  0  0  0
   -2.7669   -0.6000    0.4277 C   0  0  0  0  0  0  0  0  0  0  0  0
   -3.8451   -0.4996    0.5628 H   0  0  0  0  0  0  0  0  0  0  0  0
   -2.3994   -1.4181    1.0604 H   0  0  0  0  0  0  0  0  0  0  0  0
   -2.5546   -0.8349   -0.6230 H   0  0  0  0  0  0  0  0  0  0  0  0
    4.4384    0.8757   -0.0368 S   0  0  0  0  0  0  0  0  0  0  0  0
    3.2440    1.6760    0.7254 O   0  0  0  0  0  0  0  0  0  0  0  0
    4.0102    0.3866   -1.3270 O   0  0  0  0  0  0  0  0  0  0  0  0
    5.6019    1.7118    0.1659 O   0  0  0  0  0  0  0  0  0  0  0  0
    4.5766   -0.4511    0.8999 O   0  0  0  0  0  0  0  0  0  0  0  0
    5.0835   -0.2069    1.6933 H   0  0  0  0  0  0  0  0  0  0  0  0
  1  6  1  0  0  0  0
  2  1  2  0  0  0  0
  2  3  1  0  0  0  0
  3 19  1  0  0  0  0
  3  4  2  0  0  0  0
  4  5  1  0  0  0  0
  4  9  1  0  0  0  0
  5 10  1  0  0  0  0
  6 13  1  0  0  0  0
  6  5  2  0  0  0  0
  7  1  1  0  0  0  0
  8  2  1  0  0  0  0
 12 11  3  0  0  0  0
 14 15  1  0  0  0  0
 14 13  1  0  0  0  0
 14 16  1  0  0  0  0
 17 14  1  0  0  0  0
 18 21  2  0  0  0  0
 18 19  1  0  0  0  0
 18 22  1  0  0  0  0
 20 18  2  0  0  0  0
 22 23  1  0  0  0  0
M  END
