Coordinates from ORCA-job 4-MeO-Ph-N2-HSO4-B3LYPG-6-31G_dp-MTMO-d009-169-n800
 OpenBabel09051907533D

 23 22  0  0  0  0  0  0  0  0999 V2000
   -0.1910   -0.5626    0.7072 C   0  0  0  0  0  0  0  0  0  0  0  0
    1.0828    0.0101    0.6636 C   0  0  0  0  0  0  0  0  0  0  0  0
    1.2487    1.3408    1.0205 C   0  0  0  0  0  0  0  0  0  0  0  0
    0.1672    2.1256    1.4208 C   0  0  0  0  0  0  0  0  0  0  0  0
   -1.0989    1.5591    1.4640 C   0  0  0  0  0  0  0  0  0  0  0  0
   -1.2867    0.2131    1.1080 C   0  0  0  0  0  0  0  0  0  0  0  0
   -0.3129   -1.6020    0.4294 H   0  0  0  0  0  0  0  0  0  0  0  0
    1.9421   -0.5754    0.3562 H   0  0  0  0  0  0  0  0  0  0  0  0
    0.3259    3.1632    1.6909 H   0  0  0  0  0  0  0  0  0  0  0  0
   -1.9625    2.1390    1.7708 H   0  0  0  0  0  0  0  0  0  0  0  0
    8.3432    1.2083   -3.1471 N   0  0  0  0  0  0  0  0  0  0  0  0
    7.3781    1.1526   -2.6112 N   0  0  0  0  0  0  0  0  0  0  0  0
   -2.5679   -0.2418    1.1885 O   0  0  0  0  0  0  0  0  0  0  0  0
   -2.8287   -1.5915    0.8318 C   0  0  0  0  0  0  0  0  0  0  0  0
   -3.9017   -1.7356    0.9661 H   0  0  0  0  0  0  0  0  0  0  0  0
   -2.2874   -2.2927    1.4792 H   0  0  0  0  0  0  0  0  0  0  0  0
   -2.5651   -1.7907   -0.2146 H   0  0  0  0  0  0  0  0  0  0  0  0
    3.0967    2.7062   -0.2541 S   0  0  0  0  0  0  0  0  0  0  0  0
    2.5513    1.8854    1.0557 O   0  0  0  0  0  0  0  0  0  0  0  0
    2.0078    3.4252   -0.8761 O   0  0  0  0  0  0  0  0  0  0  0  0
    4.3282    3.3286    0.1895 O   0  0  0  0  0  0  0  0  0  0  0  0
    3.4834    1.4884   -1.2680 O   0  0  0  0  0  0  0  0  0  0  0  0
    4.4322    1.3075   -1.1502 H   0  0  0  0  0  0  0  0  0  0  0  0
  1  6  1  0  0  0  0
  2  1  2  0  0  0  0
  2  3  1  0  0  0  0
  3 19  1  0  0  0  0
  3  4  2  0  0  0  0
  4  5  1  0  0  0  0
  4  9  1  0  0  0  0
  5 10  1  0  0  0  0
  6 13  1  0  0  0  0
  6  5  2  0  0  0  0
  7  1  1  0  0  0  0
  8  2  1  0  0  0  0
 11 12  3  0  0  0  0
 14 15  1  0  0  0  0
 14 13  1  0  0  0  0
 14 16  1  0  0  0  0
 17 14  1  0  0  0  0
 18 21  2  0  0  0  0
 18 19  1  0  0  0  0
 20 18  2  0  0  0  0
 22 23  1  0  0  0  0
 22 18  1  0  0  0  0
M  END
