Coordinates from ORCA-job 4-MeO-Ph-N2-HSO4-B3LYPG-6-31G_dp-MTMO-d009-169-n800
 OpenBabel09051907533D

 23 22  0  0  0  0  0  0  0  0999 V2000
   -0.0216   -0.3996    0.7295 C   0  0  0  0  0  0  0  0  0  0  0  0
    1.3537   -0.1719    0.8252 C   0  0  0  0  0  0  0  0  0  0  0  0
    1.8291    1.1322    0.8637 C   0  0  0  0  0  0  0  0  0  0  0  0
    0.9590    2.2209    0.8295 C   0  0  0  0  0  0  0  0  0  0  0  0
   -0.4086    1.9948    0.7501 C   0  0  0  0  0  0  0  0  0  0  0  0
   -0.9084    0.6840    0.6932 C   0  0  0  0  0  0  0  0  0  0  0  0
   -0.3828   -1.4198    0.6897 H   0  0  0  0  0  0  0  0  0  0  0  0
    2.0444   -1.0065    0.8638 H   0  0  0  0  0  0  0  0  0  0  0  0
    1.3612    3.2267    0.8675 H   0  0  0  0  0  0  0  0  0  0  0  0
   -1.1121    2.8197    0.7241 H   0  0  0  0  0  0  0  0  0  0  0  0
    2.3220    3.5843   -1.8947 N   0  0  0  0  0  0  0  0  0  0  0  0
    1.9904    3.5625   -2.9486 N   0  0  0  0  0  0  0  0  0  0  0  0
   -2.2637    0.5738    0.6066 O   0  0  0  0  0  0  0  0  0  0  0  0
   -2.8302   -0.7251    0.5243 C   0  0  0  0  0  0  0  0  0  0  0  0
   -3.9087   -0.5788    0.4494 H   0  0  0  0  0  0  0  0  0  0  0  0
   -2.6084   -1.3214    1.4194 H   0  0  0  0  0  0  0  0  0  0  0  0
   -2.4762   -1.2642   -0.3639 H   0  0  0  0  0  0  0  0  0  0  0  0
    4.2847    0.9388   -0.0920 S   0  0  0  0  0  0  0  0  0  0  0  0
    3.2020    1.4139    1.0389 O   0  0  0  0  0  0  0  0  0  0  0  0
    3.6604    0.8381   -1.3910 O   0  0  0  0  0  0  0  0  0  0  0  0
    5.4701    1.7242    0.1848 O   0  0  0  0  0  0  0  0  0  0  0  0
    4.5782   -0.5989    0.3745 O   0  0  0  0  0  0  0  0  0  0  0  0
    5.2501   -0.5670    1.0771 H   0  0  0  0  0  0  0  0  0  0  0  0
  1  2  1  0  0  0  0
  2  3  2  0  0  0  0
  2  8  1  0  0  0  0
  3 19  1  0  0  0  0
  4  3  1  0  0  0  0
  4  9  1  0  0  0  0
  5  4  2  0  0  0  0
  6  1  2  0  0  0  0
  6  5  1  0  0  0  0
  7  1  1  0  0  0  0
 10  5  1  0  0  0  0
 12 11  3  0  0  0  0
 13  6  1  0  0  0  0
 14 13  1  0  0  0  0
 14 16  1  0  0  0  0
 15 14  1  0  0  0  0
 17 14  1  0  0  0  0
 18 21  2  0  0  0  0
 18 22  1  0  0  0  0
 18 19  1  0  0  0  0
 20 18  2  0  0  0  0
 22 23  1  0  0  0  0
M  END
