Coordinates from ORCA-job 4-MeO-Ph-N2-HSO4-B3LYPG-6-31G_dp-MTMO-d009-169-n800
 OpenBabel09051907533D

 23 22  0  0  0  0  0  0  0  0999 V2000
   -0.2409   -0.5508    0.7005 C   0  0  0  0  0  0  0  0  0  0  0  0
    1.0173    0.0535    0.6384 C   0  0  0  0  0  0  0  0  0  0  0  0
    1.1658    1.3722    1.0445 C   0  0  0  0  0  0  0  0  0  0  0  0
    0.0811    2.1136    1.5136 C   0  0  0  0  0  0  0  0  0  0  0  0
   -1.1699    1.5160    1.5740 C   0  0  0  0  0  0  0  0  0  0  0  0
   -1.3397    0.1818    1.1683 C   0  0  0  0  0  0  0  0  0  0  0  0
   -0.3484   -1.5810    0.3850 H   0  0  0  0  0  0  0  0  0  0  0  0
    1.8784   -0.4994    0.2801 H   0  0  0  0  0  0  0  0  0  0  0  0
    0.2250    3.1428    1.8211 H   0  0  0  0  0  0  0  0  0  0  0  0
   -2.0354    2.0623    1.9326 H   0  0  0  0  0  0  0  0  0  0  0  0
    9.3997    0.8753   -3.3588 N   0  0  0  0  0  0  0  0  0  0  0  0
    8.3626    0.8076   -2.9827 N   0  0  0  0  0  0  0  0  0  0  0  0
   -2.6071   -0.3060    1.2705 O   0  0  0  0  0  0  0  0  0  0  0  0
   -2.8505   -1.6439    0.8606 C   0  0  0  0  0  0  0  0  0  0  0  0
   -3.9156   -1.8175    1.0200 H   0  0  0  0  0  0  0  0  0  0  0  0
   -2.2753   -2.3613    1.4590 H   0  0  0  0  0  0  0  0  0  0  0  0
   -2.6149   -1.7897   -0.2013 H   0  0  0  0  0  0  0  0  0  0  0  0
    2.9164    2.8675   -0.2158 S   0  0  0  0  0  0  0  0  0  0  0  0
    2.4570    1.9431    1.0578 O   0  0  0  0  0  0  0  0  0  0  0  0
    1.8044    3.6644   -0.6815 O   0  0  0  0  0  0  0  0  0  0  0  0
    4.1973    3.4176    0.1794 O   0  0  0  0  0  0  0  0  0  0  0  0
    3.1758    1.7387   -1.3638 O   0  0  0  0  0  0  0  0  0  0  0  0
    4.1019    1.4537   -1.2806 H   0  0  0  0  0  0  0  0  0  0  0  0
  1  6  1  0  0  0  0
  2  1  2  0  0  0  0
  2  3  1  0  0  0  0
  3 19  1  0  0  0  0
  3  4  2  0  0  0  0
  4  5  1  0  0  0  0
  4  9  1  0  0  0  0
  5 10  1  0  0  0  0
  6 13  1  0  0  0  0
  6  5  2  0  0  0  0
  7  1  1  0  0  0  0
  8  2  1  0  0  0  0
 11 12  3  0  0  0  0
 14 15  1  0  0  0  0
 14 13  1  0  0  0  0
 14 16  1  0  0  0  0
 17 14  1  0  0  0  0
 18 21  2  0  0  0  0
 18 19  1  0  0  0  0
 20 18  2  0  0  0  0
 22 23  1  0  0  0  0
 22 18  1  0  0  0  0
M  END
