Coordinates from ORCA-job 4-MeO-Ph-N2-HSO4-B3LYPG-6-31G_dp-MTMO-d009-169-n800
 OpenBabel09051907533D

 23 22  0  0  0  0  0  0  0  0999 V2000
   -0.1697   -0.5983    1.0861 C   0  0  0  0  0  0  0  0  0  0  0  0
    1.1961   -0.3345    1.2178 C   0  0  0  0  0  0  0  0  0  0  0  0
    1.6755    0.9432    0.9660 C   0  0  0  0  0  0  0  0  0  0  0  0
    0.8212    1.9764    0.5791 C   0  0  0  0  0  0  0  0  0  0  0  0
   -0.5349    1.7152    0.4438 C   0  0  0  0  0  0  0  0  0  0  0  0
   -1.0395    0.4281    0.6955 C   0  0  0  0  0  0  0  0  0  0  0  0
   -0.5366   -1.5962    1.2907 H   0  0  0  0  0  0  0  0  0  0  0  0
    1.8833   -1.1168    1.5197 H   0  0  0  0  0  0  0  0  0  0  0  0
    1.2227    2.9640    0.3833 H   0  0  0  0  0  0  0  0  0  0  0  0
   -1.2282    2.4931    0.1437 H   0  0  0  0  0  0  0  0  0  0  0  0
    3.6168    4.9819   -2.1985 N   0  0  0  0  0  0  0  0  0  0  0  0
    4.2934    4.6084   -2.9883 N   0  0  0  0  0  0  0  0  0  0  0  0
   -2.3840    0.2833    0.5346 O   0  0  0  0  0  0  0  0  0  0  0  0
   -2.9578   -0.9952    0.7626 C   0  0  0  0  0  0  0  0  0  0  0  0
   -4.0252   -0.8847    0.5659 H   0  0  0  0  0  0  0  0  0  0  0  0
   -2.8138   -1.3233    1.8000 H   0  0  0  0  0  0  0  0  0  0  0  0
   -2.5426   -1.7518    0.0847 H   0  0  0  0  0  0  0  0  0  0  0  0
    4.0578    1.2278   -0.0978 S   0  0  0  0  0  0  0  0  0  0  0  0
    3.0438    1.2135    1.1881 O   0  0  0  0  0  0  0  0  0  0  0  0
    3.4151    1.8450   -1.2363 O   0  0  0  0  0  0  0  0  0  0  0  0
    5.3280    1.6641    0.4462 O   0  0  0  0  0  0  0  0  0  0  0  0
    4.1669   -0.3609   -0.4490 O   0  0  0  0  0  0  0  0  0  0  0  0
    4.8966   -0.7215    0.0832 H   0  0  0  0  0  0  0  0  0  0  0  0
  1  2  1  0  0  0  0
  1  7  1  0  0  0  0
  2  8  1  0  0  0  0
  3 19  1  0  0  0  0
  3  2  2  0  0  0  0
  4  3  1  0  0  0  0
  5  4  2  0  0  0  0
  5  6  1  0  0  0  0
  6  1  2  0  0  0  0
  9  4  1  0  0  0  0
 10  5  1  0  0  0  0
 12 11  3  0  0  0  0
 13  6  1  0  0  0  0
 13 14  1  0  0  0  0
 14 16  1  0  0  0  0
 15 14  1  0  0  0  0
 17 14  1  0  0  0  0
 18 21  2  0  0  0  0
 18 19  1  0  0  0  0
 20 18  2  0  0  0  0
 22 18  1  0  0  0  0
 22 23  1  0  0  0  0
M  END
