Coordinates from ORCA-job 4-MeO-Ph-N2-HSO4-B3LYPG-6-31G_dp-MTMO-d009-169-n800
 OpenBabel09051907533D

 23 22  0  0  0  0  0  0  0  0999 V2000
   -0.3473   -0.5419    0.7400 C   0  0  0  0  0  0  0  0  0  0  0  0
    0.9018    0.0809    0.6785 C   0  0  0  0  0  0  0  0  0  0  0  0
    1.0348    1.3953    1.1035 C   0  0  0  0  0  0  0  0  0  0  0  0
   -0.0567    2.1140    1.5918 C   0  0  0  0  0  0  0  0  0  0  0  0
   -1.2987    1.4979    1.6519 C   0  0  0  0  0  0  0  0  0  0  0  0
   -1.4529    0.1679    1.2264 C   0  0  0  0  0  0  0  0  0  0  0  0
   -0.4424   -1.5685    0.4094 H   0  0  0  0  0  0  0  0  0  0  0  0
    1.7679   -0.4543    0.3058 H   0  0  0  0  0  0  0  0  0  0  0  0
    0.0750    3.1403    1.9141 H   0  0  0  0  0  0  0  0  0  0  0  0
   -2.1692    2.0264    2.0249 H   0  0  0  0  0  0  0  0  0  0  0  0
   10.7225    0.7370   -3.9201 N   0  0  0  0  0  0  0  0  0  0  0  0
    9.6815    0.6421   -3.5611 N   0  0  0  0  0  0  0  0  0  0  0  0
   -2.7126   -0.3391    1.3292 O   0  0  0  0  0  0  0  0  0  0  0  0
   -2.9409   -1.6725    0.8971 C   0  0  0  0  0  0  0  0  0  0  0  0
   -4.0028   -1.8628    1.0589 H   0  0  0  0  0  0  0  0  0  0  0  0
   -2.3533   -2.3929    1.4798 H   0  0  0  0  0  0  0  0  0  0  0  0
   -2.7092   -1.7965   -0.1685 H   0  0  0  0  0  0  0  0  0  0  0  0
    2.7547    2.9316   -0.1487 S   0  0  0  0  0  0  0  0  0  0  0  0
    2.3178    1.9845    1.1159 O   0  0  0  0  0  0  0  0  0  0  0  0
    1.6308    3.7251   -0.5911 O   0  0  0  0  0  0  0  0  0  0  0  0
    4.0350    3.4871    0.2406 O   0  0  0  0  0  0  0  0  0  0  0  0
    3.0109    1.8217   -1.3159 O   0  0  0  0  0  0  0  0  0  0  0  0
    3.9380    1.5376   -1.2414 H   0  0  0  0  0  0  0  0  0  0  0  0
  1  6  1  0  0  0  0
  2  1  2  0  0  0  0
  2  3  1  0  0  0  0
  3 19  1  0  0  0  0
  3  4  2  0  0  0  0
  4  5  1  0  0  0  0
  4  9  1  0  0  0  0
  5 10  1  0  0  0  0
  6 13  1  0  0  0  0
  6  5  2  0  0  0  0
  7  1  1  0  0  0  0
  8  2  1  0  0  0  0
 11 12  3  0  0  0  0
 14 15  1  0  0  0  0
 14 13  1  0  0  0  0
 14 16  1  0  0  0  0
 17 14  1  0  0  0  0
 18 21  2  0  0  0  0
 18 19  1  0  0  0  0
 20 18  2  0  0  0  0
 22 23  1  0  0  0  0
 22 18  1  0  0  0  0
M  END
