Coordinates from ORCA-job 4-MeO-Ph-N2-HSO4-B3LYPG-6-31G_dp-MTMO-d009-169-n800
 OpenBabel09051907533D

 23 22  0  0  0  0  0  0  0  0999 V2000
   -0.0884   -0.5570    0.5816 C   0  0  0  0  0  0  0  0  0  0  0  0
    1.1829    0.0081    0.4500 C   0  0  0  0  0  0  0  0  0  0  0  0
    1.3953    1.3207    0.8478 C   0  0  0  0  0  0  0  0  0  0  0  0
    0.3611    2.0946    1.3753 C   0  0  0  0  0  0  0  0  0  0  0  0
   -0.9028    1.5363    1.5046 C   0  0  0  0  0  0  0  0  0  0  0  0
   -1.1360    0.2085    1.1097 C   0  0  0  0  0  0  0  0  0  0  0  0
   -0.2457   -1.5829    0.2729 H   0  0  0  0  0  0  0  0  0  0  0  0
    2.0055   -0.5702    0.0444 H   0  0  0  0  0  0  0  0  0  0  0  0
    0.5538    3.1184    1.6739 H   0  0  0  0  0  0  0  0  0  0  0  0
   -1.7299    2.1090    1.9099 H   0  0  0  0  0  0  0  0  0  0  0  0
    7.4355    1.0268   -1.7127 N   0  0  0  0  0  0  0  0  0  0  0  0
    6.3314    1.0350   -1.7113 N   0  0  0  0  0  0  0  0  0  0  0  0
   -2.4105   -0.2404    1.2838 O   0  0  0  0  0  0  0  0  0  0  0  0
   -2.7163   -1.5713    0.8942 C   0  0  0  0  0  0  0  0  0  0  0  0
   -3.7744   -1.7140    1.1182 H   0  0  0  0  0  0  0  0  0  0  0  0
   -2.1270   -2.3040    1.4594 H   0  0  0  0  0  0  0  0  0  0  0  0
   -2.5496   -1.7263   -0.1796 H   0  0  0  0  0  0  0  0  0  0  0  0
    3.1227    2.7624   -0.5059 S   0  0  0  0  0  0  0  0  0  0  0  0
    2.7017    1.8506    0.7924 O   0  0  0  0  0  0  0  0  0  0  0  0
    2.0092    3.5911   -0.9107 O   0  0  0  0  0  0  0  0  0  0  0  0
    4.4328    3.2851   -0.1688 O   0  0  0  0  0  0  0  0  0  0  0  0
    3.3001    1.6327   -1.6577 O   0  0  0  0  0  0  0  0  0  0  0  0
    4.2333    1.3472   -1.6502 H   0  0  0  0  0  0  0  0  0  0  0  0
  1  6  1  0  0  0  0
  2  1  2  0  0  0  0
  2  3  1  0  0  0  0
  3  4  2  0  0  0  0
  4  5  1  0  0  0  0
  4  9  1  0  0  0  0
  5 10  1  0  0  0  0
  6 13  1  0  0  0  0
  6  5  2  0  0  0  0
  7  1  1  0  0  0  0
  8  2  1  0  0  0  0
 11 12  3  0  0  0  0
 14 15  1  0  0  0  0
 14 13  1  0  0  0  0
 14 16  1  0  0  0  0
 17 14  1  0  0  0  0
 18 21  2  0  0  0  0
 18 19  1  0  0  0  0
 19  3  1  0  0  0  0
 20 18  2  0  0  0  0
 22 23  1  0  0  0  0
 22 18  1  0  0  0  0
M  END
