Coordinates from ORCA-job 4-MeO-Ph-N2-HSO4-B3LYPG-6-31G_dp-MTMO-d009-169-n800
 OpenBabel09051907533D

 23 22  0  0  0  0  0  0  0  0999 V2000
   -0.1443   -0.5324    1.1136 C   0  0  0  0  0  0  0  0  0  0  0  0
    1.2253   -0.2954    1.2565 C   0  0  0  0  0  0  0  0  0  0  0  0
    1.7491    0.9386    0.8979 C   0  0  0  0  0  0  0  0  0  0  0  0
    0.9368    1.9543    0.3919 C   0  0  0  0  0  0  0  0  0  0  0  0
   -0.4229    1.7186    0.2454 C   0  0  0  0  0  0  0  0  0  0  0  0
   -0.9725    0.4761    0.6040 C   0  0  0  0  0  0  0  0  0  0  0  0
   -0.5463   -1.4957    1.4015 H   0  0  0  0  0  0  0  0  0  0  0  0
    1.8807   -1.0643    1.6500 H   0  0  0  0  0  0  0  0  0  0  0  0
    1.3717    2.9074    0.1137 H   0  0  0  0  0  0  0  0  0  0  0  0
   -1.0850    2.4836   -0.1450 H   0  0  0  0  0  0  0  0  0  0  0  0
    2.9244    4.7893   -1.7610 N   0  0  0  0  0  0  0  0  0  0  0  0
    3.5967    4.9145   -2.6290 N   0  0  0  0  0  0  0  0  0  0  0  0
   -2.3165    0.3541    0.4209 O   0  0  0  0  0  0  0  0  0  0  0  0
   -2.9339   -0.8807    0.7530 C   0  0  0  0  0  0  0  0  0  0  0  0
   -3.9922   -0.7603    0.5164 H   0  0  0  0  0  0  0  0  0  0  0  0
   -2.8260   -1.1122    1.8202 H   0  0  0  0  0  0  0  0  0  0  0  0
   -2.5244   -1.7095    0.1619 H   0  0  0  0  0  0  0  0  0  0  0  0
    4.1655    1.0733   -0.1214 S   0  0  0  0  0  0  0  0  0  0  0  0
    3.1192    1.1892    1.1327 O   0  0  0  0  0  0  0  0  0  0  0  0
    3.5718    1.6140   -1.3236 O   0  0  0  0  0  0  0  0  0  0  0  0
    5.4332    1.5176    0.4223 O   0  0  0  0  0  0  0  0  0  0  0  0
    4.2375   -0.5407   -0.3430 O   0  0  0  0  0  0  0  0  0  0  0  0
    4.9368   -0.8787    0.2422 H   0  0  0  0  0  0  0  0  0  0  0  0
  1  2  1  0  0  0  0
  1  7  1  0  0  0  0
  2  8  1  0  0  0  0
  3 19  1  0  0  0  0
  3  2  2  0  0  0  0
  4  3  1  0  0  0  0
  5  4  2  0  0  0  0
  5  6  1  0  0  0  0
  6  1  2  0  0  0  0
  9  4  1  0  0  0  0
 10  5  1  0  0  0  0
 12 11  3  0  0  0  0
 13  6  1  0  0  0  0
 13 14  1  0  0  0  0
 14 16  1  0  0  0  0
 15 14  1  0  0  0  0
 17 14  1  0  0  0  0
 18 21  2  0  0  0  0
 18 19  1  0  0  0  0
 20 18  2  0  0  0  0
 22 18  1  0  0  0  0
 22 23  1  0  0  0  0
M  END
