Coordinates from ORCA-job 4-MeO-Ph-N2-HSO4-B3LYPG-6-31G_dp-MTMO-d009-169-n800
 OpenBabel09051907533D

 23 22  0  0  0  0  0  0  0  0999 V2000
    0.0452   -0.1701    0.2437 C   0  0  0  0  0  0  0  0  0  0  0  0
    1.4169    0.0917    0.1689 C   0  0  0  0  0  0  0  0  0  0  0  0
    1.8866    1.3535    0.5153 C   0  0  0  0  0  0  0  0  0  0  0  0
    1.0235    2.3149    1.0513 C   0  0  0  0  0  0  0  0  0  0  0  0
   -0.3338    2.0504    1.1305 C   0  0  0  0  0  0  0  0  0  0  0  0
   -0.8387    0.8068    0.7144 C   0  0  0  0  0  0  0  0  0  0  0  0
   -0.3130   -1.1446   -0.0638 H   0  0  0  0  0  0  0  0  0  0  0  0
    2.0845   -0.6725   -0.2055 H   0  0  0  0  0  0  0  0  0  0  0  0
    1.4274    3.2703    1.3674 H   0  0  0  0  0  0  0  0  0  0  0  0
   -1.0261    2.7907    1.5161 H   0  0  0  0  0  0  0  0  0  0  0  0
    1.8106    2.2472   -1.6479 N   0  0  0  0  0  0  0  0  0  0  0  0
    0.9363    2.3064   -2.3259 N   0  0  0  0  0  0  0  0  0  0  0  0
   -2.1876    0.6504    0.8231 O   0  0  0  0  0  0  0  0  0  0  0  0
   -2.7559   -0.5858    0.4159 C   0  0  0  0  0  0  0  0  0  0  0  0
   -3.8303   -0.4916    0.5821 H   0  0  0  0  0  0  0  0  0  0  0  0
   -2.3715   -1.4236    1.0113 H   0  0  0  0  0  0  0  0  0  0  0  0
   -2.5698   -0.7844   -0.6471 H   0  0  0  0  0  0  0  0  0  0  0  0
    4.4636    0.8469   -0.0484 S   0  0  0  0  0  0  0  0  0  0  0  0
    3.2460    1.7250    0.5776 O   0  0  0  0  0  0  0  0  0  0  0  0
    4.0917    0.2395   -1.3056 O   0  0  0  0  0  0  0  0  0  0  0  0
    5.6245    1.6926    0.1261 O   0  0  0  0  0  0  0  0  0  0  0  0
    4.5442   -0.3850    1.0144 O   0  0  0  0  0  0  0  0  0  0  0  0
    5.0105   -0.0679    1.8068 H   0  0  0  0  0  0  0  0  0  0  0  0
  1  6  1  0  0  0  0
  2  1  2  0  0  0  0
  2  3  1  0  0  0  0
  3 19  1  0  0  0  0
  3  4  2  0  0  0  0
  4  5  1  0  0  0  0
  4  9  1  0  0  0  0
  5 10  1  0  0  0  0
  6 13  1  0  0  0  0
  6  5  2  0  0  0  0
  7  1  1  0  0  0  0
  8  2  1  0  0  0  0
 12 11  3  0  0  0  0
 14 15  1  0  0  0  0
 14 13  1  0  0  0  0
 14 16  1  0  0  0  0
 17 14  1  0  0  0  0
 18 21  2  0  0  0  0
 18 19  1  0  0  0  0
 18 22  1  0  0  0  0
 20 18  2  0  0  0  0
 22 23  1  0  0  0  0
M  END
