Coordinates from ORCA-job 4-MeO-Ph-N2-HSO4-B3LYPG-6-31G_dp-MTMO-d009-169-n800
 OpenBabel09051907533D

 23 22  0  0  0  0  0  0  0  0999 V2000
    0.0455   -0.1697    0.2426 C   0  0  0  0  0  0  0  0  0  0  0  0
    1.4169    0.0922    0.1670 C   0  0  0  0  0  0  0  0  0  0  0  0
    1.8858    1.3570    0.5052 C   0  0  0  0  0  0  0  0  0  0  0  0
    1.0236    2.3161    1.0477 C   0  0  0  0  0  0  0  0  0  0  0  0
   -0.3334    2.0514    1.1281 C   0  0  0  0  0  0  0  0  0  0  0  0
   -0.8386    0.8080    0.7117 C   0  0  0  0  0  0  0  0  0  0  0  0
   -0.3126   -1.1452   -0.0621 H   0  0  0  0  0  0  0  0  0  0  0  0
    2.0848   -0.6725   -0.2059 H   0  0  0  0  0  0  0  0  0  0  0  0
    1.4278    3.2713    1.3641 H   0  0  0  0  0  0  0  0  0  0  0  0
   -1.0254    2.7911    1.5157 H   0  0  0  0  0  0  0  0  0  0  0  0
    1.8102    2.2317   -1.6225 N   0  0  0  0  0  0  0  0  0  0  0  0
    0.9334    2.2966   -2.2975 N   0  0  0  0  0  0  0  0  0  0  0  0
   -2.1873    0.6518    0.8203 O   0  0  0  0  0  0  0  0  0  0  0  0
   -2.7560   -0.5844    0.4133 C   0  0  0  0  0  0  0  0  0  0  0  0
   -3.8305   -0.4893    0.5782 H   0  0  0  0  0  0  0  0  0  0  0  0
   -2.3729   -1.4220    1.0099 H   0  0  0  0  0  0  0  0  0  0  0  0
   -2.5687   -0.7838   -0.6493 H   0  0  0  0  0  0  0  0  0  0  0  0
    4.4638    0.8481   -0.0515 S   0  0  0  0  0  0  0  0  0  0  0  0
    3.2458    1.7258    0.5743 O   0  0  0  0  0  0  0  0  0  0  0  0
    4.0920    0.2389   -1.3079 O   0  0  0  0  0  0  0  0  0  0  0  0
    5.6243    1.6946    0.1221 O   0  0  0  0  0  0  0  0  0  0  0  0
    4.5455   -0.3827    1.0126 O   0  0  0  0  0  0  0  0  0  0  0  0
    5.0107   -0.0643    1.8050 H   0  0  0  0  0  0  0  0  0  0  0  0
  1  6  1  0  0  0  0
  2  1  2  0  0  0  0
  2  3  1  0  0  0  0
  3 19  1  0  0  0  0
  3  4  2  0  0  0  0
  4  5  1  0  0  0  0
  4  9  1  0  0  0  0
  5 10  1  0  0  0  0
  6 13  1  0  0  0  0
  6  5  2  0  0  0  0
  7  1  1  0  0  0  0
  8  2  1  0  0  0  0
 12 11  3  0  0  0  0
 14 15  1  0  0  0  0
 14 13  1  0  0  0  0
 14 16  1  0  0  0  0
 17 14  1  0  0  0  0
 18 21  2  0  0  0  0
 18 19  1  0  0  0  0
 18 22  1  0  0  0  0
 20 18  2  0  0  0  0
 22 23  1  0  0  0  0
M  END
