Coordinates from ORCA-job 4-MeO-Ph-N2-HSO4-B3LYPG-6-31G_dp-MTMO-d009-169-n800
 OpenBabel09051907533D

 23 22  0  0  0  0  0  0  0  0999 V2000
   -0.3897   -0.5392    0.7587 C   0  0  0  0  0  0  0  0  0  0  0  0
    0.8565    0.0898    0.6996 C   0  0  0  0  0  0  0  0  0  0  0  0
    0.9830    1.4035    1.1285 C   0  0  0  0  0  0  0  0  0  0  0  0
   -0.1121    2.1155    1.6186 C   0  0  0  0  0  0  0  0  0  0  0  0
   -1.3512    1.4934    1.6762 C   0  0  0  0  0  0  0  0  0  0  0  0
   -1.4989    0.1639    1.2468 C   0  0  0  0  0  0  0  0  0  0  0  0
   -0.4797   -1.5653    0.4250 H   0  0  0  0  0  0  0  0  0  0  0  0
    1.7252   -0.4402    0.3258 H   0  0  0  0  0  0  0  0  0  0  0  0
    0.0145    3.1415    1.9439 H   0  0  0  0  0  0  0  0  0  0  0  0
   -2.2244    2.0165    2.0505 H   0  0  0  0  0  0  0  0  0  0  0  0
   11.2342    0.6906   -4.1521 N   0  0  0  0  0  0  0  0  0  0  0  0
   10.1929    0.5912   -3.7948 N   0  0  0  0  0  0  0  0  0  0  0  0
   -2.7563   -0.3493    1.3472 O   0  0  0  0  0  0  0  0  0  0  0  0
   -2.9781   -1.6823    0.9104 C   0  0  0  0  0  0  0  0  0  0  0  0
   -4.0393   -1.8780    1.0704 H   0  0  0  0  0  0  0  0  0  0  0  0
   -2.3878   -2.4020    1.4911 H   0  0  0  0  0  0  0  0  0  0  0  0
   -2.7448   -1.8016   -0.1555 H   0  0  0  0  0  0  0  0  0  0  0  0
    2.6959    2.9513   -0.1190 S   0  0  0  0  0  0  0  0  0  0  0  0
    2.2631    1.9988    1.1430 O   0  0  0  0  0  0  0  0  0  0  0  0
    1.5689    3.7422   -0.5583 O   0  0  0  0  0  0  0  0  0  0  0  0
    3.9745    3.5102    0.2711 O   0  0  0  0  0  0  0  0  0  0  0  0
    2.9551    1.8458   -1.2898 O   0  0  0  0  0  0  0  0  0  0  0  0
    3.8831    1.5644   -1.2163 H   0  0  0  0  0  0  0  0  0  0  0  0
  1  6  1  0  0  0  0
  2  1  2  0  0  0  0
  2  3  1  0  0  0  0
  3 19  1  0  0  0  0
  3  4  2  0  0  0  0
  4  5  1  0  0  0  0
  4  9  1  0  0  0  0
  5 10  1  0  0  0  0
  6 13  1  0  0  0  0
  6  5  2  0  0  0  0
  7  1  1  0  0  0  0
  8  2  1  0  0  0  0
 11 12  3  0  0  0  0
 14 15  1  0  0  0  0
 14 13  1  0  0  0  0
 14 16  1  0  0  0  0
 17 14  1  0  0  0  0
 18 21  2  0  0  0  0
 18 19  1  0  0  0  0
 20 18  2  0  0  0  0
 22 23  1  0  0  0  0
 22 18  1  0  0  0  0
M  END
