Coordinates from ORCA-job 4-MeO-Ph-N2-HSO4-B3LYPG-6-31G_dp-MTMO-d009-169-n800
 OpenBabel09051907533D

 23 22  0  0  0  0  0  0  0  0999 V2000
   -0.1840   -0.5729    0.6939 C   0  0  0  0  0  0  0  0  0  0  0  0
    1.0993   -0.0230    0.6371 C   0  0  0  0  0  0  0  0  0  0  0  0
    1.2906    1.3070    0.9841 C   0  0  0  0  0  0  0  0  0  0  0  0
    0.2263    2.1134    1.3866 C   0  0  0  0  0  0  0  0  0  0  0  0
   -1.0491    1.5694    1.4432 C   0  0  0  0  0  0  0  0  0  0  0  0
   -1.2629    0.2244    1.0978 C   0  0  0  0  0  0  0  0  0  0  0  0
   -0.3265   -1.6117    0.4237 H   0  0  0  0  0  0  0  0  0  0  0  0
    1.9464   -0.6246    0.3271 H   0  0  0  0  0  0  0  0  0  0  0  0
    0.4052    3.1499    1.6487 H   0  0  0  0  0  0  0  0  0  0  0  0
   -1.9002    2.1663    1.7522 H   0  0  0  0  0  0  0  0  0  0  0  0
    7.9480    1.4109   -2.9004 N   0  0  0  0  0  0  0  0  0  0  0  0
    6.9814    1.3221   -2.3718 N   0  0  0  0  0  0  0  0  0  0  0  0
   -2.5513   -0.2077    1.1916 O   0  0  0  0  0  0  0  0  0  0  0  0
   -2.8376   -1.5560    0.8501 C   0  0  0  0  0  0  0  0  0  0  0  0
   -3.9115   -1.6813    0.9965 H   0  0  0  0  0  0  0  0  0  0  0  0
   -2.3012   -2.2601    1.4985 H   0  0  0  0  0  0  0  0  0  0  0  0
   -2.5881   -1.7693   -0.1971 H   0  0  0  0  0  0  0  0  0  0  0  0
    3.1660    2.6198   -0.3138 S   0  0  0  0  0  0  0  0  0  0  0  0
    2.6032    1.8288    1.0070 O   0  0  0  0  0  0  0  0  0  0  0  0
    2.0768    3.2998   -0.9790 O   0  0  0  0  0  0  0  0  0  0  0  0
    4.3746    3.2830    0.1359 O   0  0  0  0  0  0  0  0  0  0  0  0
    3.6056    1.3790   -1.2757 O   0  0  0  0  0  0  0  0  0  0  0  0
    4.5739    1.2934   -1.2150 H   0  0  0  0  0  0  0  0  0  0  0  0
  1  6  1  0  0  0  0
  2  1  2  0  0  0  0
  2  3  1  0  0  0  0
  3 19  1  0  0  0  0
  3  4  2  0  0  0  0
  4  5  1  0  0  0  0
  4  9  1  0  0  0  0
  5 10  1  0  0  0  0
  6 13  1  0  0  0  0
  6  5  2  0  0  0  0
  7  1  1  0  0  0  0
  8  2  1  0  0  0  0
 11 12  3  0  0  0  0
 14 15  1  0  0  0  0
 14 13  1  0  0  0  0
 14 16  1  0  0  0  0
 17 14  1  0  0  0  0
 18 21  2  0  0  0  0
 18 19  1  0  0  0  0
 20 18  2  0  0  0  0
 22 23  1  0  0  0  0
 22 18  1  0  0  0  0
M  END
