Coordinates from ORCA-job 4-MeO-Ph-N2-HSO4-B3LYPG-6-31G_dp-MTMO-d009-169-n800
 OpenBabel09051907533D

 23 22  0  0  0  0  0  0  0  0999 V2000
   -0.3747   -0.5401    0.7519 C   0  0  0  0  0  0  0  0  0  0  0  0
    0.8725    0.0867    0.6918 C   0  0  0  0  0  0  0  0  0  0  0  0
    1.0014    1.4006    1.1196 C   0  0  0  0  0  0  0  0  0  0  0  0
   -0.0924    2.1149    1.6093 C   0  0  0  0  0  0  0  0  0  0  0  0
   -1.3325    1.4948    1.6679 C   0  0  0  0  0  0  0  0  0  0  0  0
   -1.4825    0.1653    1.2397 C   0  0  0  0  0  0  0  0  0  0  0  0
   -0.4665   -1.5663    0.4192 H   0  0  0  0  0  0  0  0  0  0  0  0
    1.7403   -0.4451    0.3182 H   0  0  0  0  0  0  0  0  0  0  0  0
    0.0361    3.1409    1.9336 H   0  0  0  0  0  0  0  0  0  0  0  0
   -2.2047    2.0198    2.0419 H   0  0  0  0  0  0  0  0  0  0  0  0
   11.0529    0.7068   -4.0692 N   0  0  0  0  0  0  0  0  0  0  0  0
   10.0118    0.6086   -3.7115 N   0  0  0  0  0  0  0  0  0  0  0  0
   -2.7407   -0.3458    1.3411 O   0  0  0  0  0  0  0  0  0  0  0  0
   -2.9648   -1.6789    0.9057 C   0  0  0  0  0  0  0  0  0  0  0  0
   -4.0262   -1.8727    1.0666 H   0  0  0  0  0  0  0  0  0  0  0  0
   -2.3754   -2.3989    1.4870 H   0  0  0  0  0  0  0  0  0  0  0  0
   -2.7322   -1.7997   -0.1601 H   0  0  0  0  0  0  0  0  0  0  0  0
    2.7165    2.9445   -0.1297 S   0  0  0  0  0  0  0  0  0  0  0  0
    2.2825    1.9938    1.1332 O   0  0  0  0  0  0  0  0  0  0  0  0
    1.5906    3.7364   -0.5698 O   0  0  0  0  0  0  0  0  0  0  0  0
    3.9958    3.5022    0.2600 O   0  0  0  0  0  0  0  0  0  0  0  0
    2.9745    1.8376   -1.2994 O   0  0  0  0  0  0  0  0  0  0  0  0
    3.9022    1.5552   -1.2257 H   0  0  0  0  0  0  0  0  0  0  0  0
  1  6  1  0  0  0  0
  2  1  2  0  0  0  0
  2  3  1  0  0  0  0
  3 19  1  0  0  0  0
  3  4  2  0  0  0  0
  4  5  1  0  0  0  0
  4  9  1  0  0  0  0
  5 10  1  0  0  0  0
  6 13  1  0  0  0  0
  6  5  2  0  0  0  0
  7  1  1  0  0  0  0
  8  2  1  0  0  0  0
 11 12  3  0  0  0  0
 14 15  1  0  0  0  0
 14 13  1  0  0  0  0
 14 16  1  0  0  0  0
 17 14  1  0  0  0  0
 18 21  2  0  0  0  0
 18 19  1  0  0  0  0
 20 18  2  0  0  0  0
 22 23  1  0  0  0  0
 22 18  1  0  0  0  0
M  END
