Coordinates from ORCA-job 4-MeO-Ph-N2-HSO4-B3LYPG-6-31G_dp-MTMO-d009-169-n800
 OpenBabel09051907533D

 23 22  0  0  0  0  0  0  0  0999 V2000
   -0.1632   -0.5799    1.1051 C   0  0  0  0  0  0  0  0  0  0  0  0
    1.2046   -0.3326    1.2475 C   0  0  0  0  0  0  0  0  0  0  0  0
    1.7083    0.9267    0.9542 C   0  0  0  0  0  0  0  0  0  0  0  0
    0.8770    1.9575    0.5142 C   0  0  0  0  0  0  0  0  0  0  0  0
   -0.4809    1.7120    0.3675 C   0  0  0  0  0  0  0  0  0  0  0  0
   -1.0102    0.4439    0.6610 C   0  0  0  0  0  0  0  0  0  0  0  0
   -0.5495   -1.5632    1.3426 H   0  0  0  0  0  0  0  0  0  0  0  0
    1.8745   -1.1131    1.5905 H   0  0  0  0  0  0  0  0  0  0  0  0
    1.2970    2.9303    0.2861 H   0  0  0  0  0  0  0  0  0  0  0  0
   -1.1566    2.4886    0.0265 H   0  0  0  0  0  0  0  0  0  0  0  0
    3.2894    4.9406   -2.0995 N   0  0  0  0  0  0  0  0  0  0  0  0
    4.0298    4.8072   -2.9090 N   0  0  0  0  0  0  0  0  0  0  0  0
   -2.3541    0.3137    0.4841 O   0  0  0  0  0  0  0  0  0  0  0  0
   -2.9520   -0.9459    0.7524 C   0  0  0  0  0  0  0  0  0  0  0  0
   -4.0140   -0.8270    0.5328 H   0  0  0  0  0  0  0  0  0  0  0  0
   -2.8305   -1.2348    1.8041 H   0  0  0  0  0  0  0  0  0  0  0  0
   -2.5376   -1.7350    0.1121 H   0  0  0  0  0  0  0  0  0  0  0  0
    4.1083    1.1627   -0.0842 S   0  0  0  0  0  0  0  0  0  0  0  0
    3.0775    1.1819    1.1881 O   0  0  0  0  0  0  0  0  0  0  0  0
    3.4944    1.7812   -1.2379 O   0  0  0  0  0  0  0  0  0  0  0  0
    5.3794    1.5792    0.4731 O   0  0  0  0  0  0  0  0  0  0  0  0
    4.1897   -0.4313   -0.4185 O   0  0  0  0  0  0  0  0  0  0  0  0
    4.9035   -0.8017    0.1283 H   0  0  0  0  0  0  0  0  0  0  0  0
  1  2  1  0  0  0  0
  1  7  1  0  0  0  0
  2  8  1  0  0  0  0
  3 19  1  0  0  0  0
  3  2  2  0  0  0  0
  4  3  1  0  0  0  0
  5  4  2  0  0  0  0
  5  6  1  0  0  0  0
  6  1  2  0  0  0  0
  9  4  1  0  0  0  0
 10  5  1  0  0  0  0
 12 11  3  0  0  0  0
 13  6  1  0  0  0  0
 13 14  1  0  0  0  0
 14 16  1  0  0  0  0
 15 14  1  0  0  0  0
 17 14  1  0  0  0  0
 18 21  2  0  0  0  0
 18 19  1  0  0  0  0
 20 18  2  0  0  0  0
 22 18  1  0  0  0  0
 22 23  1  0  0  0  0
M  END
