Coordinates from ORCA-job 4-MeO-Ph-N2-HSO4-B3LYPG-6-31G_dp-MTMO-d009-169-n800
 OpenBabel09051907533D

 23 22  0  0  0  0  0  0  0  0999 V2000
   -0.4390   -0.5363    0.7819 C   0  0  0  0  0  0  0  0  0  0  0  0
    0.8039    0.0994    0.7266 C   0  0  0  0  0  0  0  0  0  0  0  0
    0.9227    1.4129    1.1584 C   0  0  0  0  0  0  0  0  0  0  0  0
   -0.1771    2.1181    1.6478 C   0  0  0  0  0  0  0  0  0  0  0  0
   -1.4130    1.4892    1.7018 C   0  0  0  0  0  0  0  0  0  0  0  0
   -1.5529    0.1599    1.2692 C   0  0  0  0  0  0  0  0  0  0  0  0
   -0.5228   -1.5621    0.4459 H   0  0  0  0  0  0  0  0  0  0  0  0
    1.6762   -0.4252    0.3533 H   0  0  0  0  0  0  0  0  0  0  0  0
   -0.0567    3.1440    1.9755 H   0  0  0  0  0  0  0  0  0  0  0  0
   -2.2897    2.0069    2.0754 H   0  0  0  0  0  0  0  0  0  0  0  0
   11.8255    0.6387   -4.4260 N   0  0  0  0  0  0  0  0  0  0  0  0
   10.7843    0.5380   -4.0691 N   0  0  0  0  0  0  0  0  0  0  0  0
   -2.8078   -0.3601    1.3658 O   0  0  0  0  0  0  0  0  0  0  0  0
   -3.0218   -1.6931    0.9251 C   0  0  0  0  0  0  0  0  0  0  0  0
   -4.0823   -1.8945    1.0820 H   0  0  0  0  0  0  0  0  0  0  0  0
   -2.4294   -2.4113    1.5056 H   0  0  0  0  0  0  0  0  0  0  0  0
   -2.7852   -1.8085   -0.1404 H   0  0  0  0  0  0  0  0  0  0  0  0
    2.6294    2.9722   -0.0830 S   0  0  0  0  0  0  0  0  0  0  0  0
    2.1996    2.0149    1.1763 O   0  0  0  0  0  0  0  0  0  0  0  0
    1.4997    3.7599   -0.5210 O   0  0  0  0  0  0  0  0  0  0  0  0
    3.9057    3.5349    0.3092 O   0  0  0  0  0  0  0  0  0  0  0  0
    2.8934    1.8706   -1.2564 O   0  0  0  0  0  0  0  0  0  0  0  0
    3.8222    1.5923   -1.1829 H   0  0  0  0  0  0  0  0  0  0  0  0
  1  6  1  0  0  0  0
  2  1  2  0  0  0  0
  2  3  1  0  0  0  0
  3 19  1  0  0  0  0
  3  4  2  0  0  0  0
  4  5  1  0  0  0  0
  4  9  1  0  0  0  0
  5 10  1  0  0  0  0
  6 13  1  0  0  0  0
  6  5  2  0  0  0  0
  7  1  1  0  0  0  0
  8  2  1  0  0  0  0
 11 12  3  0  0  0  0
 14 15  1  0  0  0  0
 14 13  1  0  0  0  0
 14 16  1  0  0  0  0
 17 14  1  0  0  0  0
 18 21  2  0  0  0  0
 18 19  1  0  0  0  0
 20 18  2  0  0  0  0
 22 23  1  0  0  0  0
 22 18  1  0  0  0  0
M  END
