Coordinates from ORCA-job 4-MeO-Ph-N2-HSO4-B3LYPG-6-31G_dp-MTMO-d009-169-n800
 OpenBabel09051907533D

 23 22  0  0  0  0  0  0  0  0999 V2000
   -0.3009   -0.5453    0.7214 C   0  0  0  0  0  0  0  0  0  0  0  0
    0.9518    0.0703    0.6587 C   0  0  0  0  0  0  0  0  0  0  0  0
    1.0914    1.3860    1.0773 C   0  0  0  0  0  0  0  0  0  0  0  0
    0.0031    2.1133    1.5601 C   0  0  0  0  0  0  0  0  0  0  0  0
   -1.2425    1.5045    1.6212 C   0  0  0  0  0  0  0  0  0  0  0  0
   -1.4033    0.1732    1.2025 C   0  0  0  0  0  0  0  0  0  0  0  0
   -0.4012   -1.5730    0.3959 H   0  0  0  0  0  0  0  0  0  0  0  0
    1.8155   -0.4716    0.2902 H   0  0  0  0  0  0  0  0  0  0  0  0
    0.1399    3.1405    1.8773 H   0  0  0  0  0  0  0  0  0  0  0  0
   -2.1106    2.0397    1.9901 H   0  0  0  0  0  0  0  0  0  0  0  0
   10.1564    0.7909   -3.6733 N   0  0  0  0  0  0  0  0  0  0  0  0
    9.1164    0.7055   -3.3090 N   0  0  0  0  0  0  0  0  0  0  0  0
   -2.6659   -0.3264    1.3061 O   0  0  0  0  0  0  0  0  0  0  0  0
   -2.9007   -1.6612    0.8816 C   0  0  0  0  0  0  0  0  0  0  0  0
   -3.9637   -1.8450    1.0435 H   0  0  0  0  0  0  0  0  0  0  0  0
   -2.3173   -2.3811    1.4691 H   0  0  0  0  0  0  0  0  0  0  0  0
   -2.6687   -1.7927   -0.1830 H   0  0  0  0  0  0  0  0  0  0  0  0
    2.8219    2.9073   -0.1789 S   0  0  0  0  0  0  0  0  0  0  0  0
    2.3776    1.9681    1.0891 O   0  0  0  0  0  0  0  0  0  0  0  0
    1.7024    3.7030   -0.6283 O   0  0  0  0  0  0  0  0  0  0  0  0
    4.1032    3.4598    0.2114 O   0  0  0  0  0  0  0  0  0  0  0  0
    3.0772    1.7908   -1.3400 O   0  0  0  0  0  0  0  0  0  0  0  0
    4.0032    1.5041   -1.2620 H   0  0  0  0  0  0  0  0  0  0  0  0
  1  6  1  0  0  0  0
  2  1  2  0  0  0  0
  2  3  1  0  0  0  0
  3 19  1  0  0  0  0
  3  4  2  0  0  0  0
  4  5  1  0  0  0  0
  4  9  1  0  0  0  0
  5 10  1  0  0  0  0
  6 13  1  0  0  0  0
  6  5  2  0  0  0  0
  7  1  1  0  0  0  0
  8  2  1  0  0  0  0
 11 12  3  0  0  0  0
 14 15  1  0  0  0  0
 14 13  1  0  0  0  0
 14 16  1  0  0  0  0
 17 14  1  0  0  0  0
 18 21  2  0  0  0  0
 18 19  1  0  0  0  0
 20 18  2  0  0  0  0
 22 23  1  0  0  0  0
 22 18  1  0  0  0  0
M  END
