Coordinates from ORCA-job 4-MeO-Ph-N2-HSO4-B3LYPG-6-31G_dp-MTMO-d009-169-n800
 OpenBabel09051907533D

 23 22  0  0  0  0  0  0  0  0999 V2000
   -0.2201   -0.5538    0.7073 C   0  0  0  0  0  0  0  0  0  0  0  0
    1.0407    0.0462    0.6568 C   0  0  0  0  0  0  0  0  0  0  0  0
    1.1864    1.3703    1.0456 C   0  0  0  0  0  0  0  0  0  0  0  0
    0.0963    2.1217    1.4855 C   0  0  0  0  0  0  0  0  0  0  0  0
   -1.1572    1.5285    1.5342 C   0  0  0  0  0  0  0  0  0  0  0  0
   -1.3242    0.1887    1.1460 C   0  0  0  0  0  0  0  0  0  0  0  0
   -0.3254   -1.5883    0.4053 H   0  0  0  0  0  0  0  0  0  0  0  0
    1.9059   -0.5143    0.3209 H   0  0  0  0  0  0  0  0  0  0  0  0
    0.2382    3.1550    1.7799 H   0  0  0  0  0  0  0  0  0  0  0  0
   -2.0269    2.0824    1.8703 H   0  0  0  0  0  0  0  0  0  0  0  0
    9.1137    0.9199   -3.3390 N   0  0  0  0  0  0  0  0  0  0  0  0
    8.0957    0.8647   -2.9120 N   0  0  0  0  0  0  0  0  0  0  0  0
   -2.5945   -0.2942    1.2349 O   0  0  0  0  0  0  0  0  0  0  0  0
   -2.8348   -1.6381    0.8433 C   0  0  0  0  0  0  0  0  0  0  0  0
   -3.9027   -1.8067    0.9885 H   0  0  0  0  0  0  0  0  0  0  0  0
   -2.2709   -2.3468    1.4626 H   0  0  0  0  0  0  0  0  0  0  0  0
   -2.5827   -1.8020   -0.2121 H   0  0  0  0  0  0  0  0  0  0  0  0
    2.9621    2.8433   -0.2065 S   0  0  0  0  0  0  0  0  0  0  0  0
    2.4791    1.9375    1.0717 O   0  0  0  0  0  0  0  0  0  0  0  0
    1.8589    3.6328   -0.7045 O   0  0  0  0  0  0  0  0  0  0  0  0
    4.2354    3.3998    0.2045 O   0  0  0  0  0  0  0  0  0  0  0  0
    3.2434    1.6981   -1.3328 O   0  0  0  0  0  0  0  0  0  0  0  0
    4.1685    1.4161   -1.2293 H   0  0  0  0  0  0  0  0  0  0  0  0
  1  6  1  0  0  0  0
  2  1  2  0  0  0  0
  2  3  1  0  0  0  0
  3 19  1  0  0  0  0
  3  4  2  0  0  0  0
  4  5  1  0  0  0  0
  4  9  1  0  0  0  0
  5 10  1  0  0  0  0
  6 13  1  0  0  0  0
  6  5  2  0  0  0  0
  7  1  1  0  0  0  0
  8  2  1  0  0  0  0
 11 12  3  0  0  0  0
 14 15  1  0  0  0  0
 14 13  1  0  0  0  0
 14 16  1  0  0  0  0
 17 14  1  0  0  0  0
 18 21  2  0  0  0  0
 18 19  1  0  0  0  0
 20 18  2  0  0  0  0
 22 23  1  0  0  0  0
 22 18  1  0  0  0  0
M  END
