Coordinates from ORCA-job 4-MeO-Ph-N2-HSO4-B3LYPG-6-31G_dp-MTMO-d009-169-n800
 OpenBabel09051907533D

 23 22  0  0  0  0  0  0  0  0999 V2000
   -0.3283   -0.5432    0.7320 C   0  0  0  0  0  0  0  0  0  0  0  0
    0.9223    0.0767    0.6698 C   0  0  0  0  0  0  0  0  0  0  0  0
    1.0582    1.3915    1.0925 C   0  0  0  0  0  0  0  0  0  0  0  0
   -0.0319    2.1135    1.5791 C   0  0  0  0  0  0  0  0  0  0  0  0
   -1.2753    1.5004    1.6399 C   0  0  0  0  0  0  0  0  0  0  0  0
   -1.4324    0.1700    1.2169 C   0  0  0  0  0  0  0  0  0  0  0  0
   -0.4256   -1.5702    0.4032 H   0  0  0  0  0  0  0  0  0  0  0  0
    1.7873   -0.4612    0.2983 H   0  0  0  0  0  0  0  0  0  0  0  0
    0.1020    3.1401    1.8996 H   0  0  0  0  0  0  0  0  0  0  0  0
   -2.1447    2.0315    2.0117 H   0  0  0  0  0  0  0  0  0  0  0  0
   10.4903    0.7589   -3.8171 N   0  0  0  0  0  0  0  0  0  0  0  0
    9.4495    0.6672   -3.4566 N   0  0  0  0  0  0  0  0  0  0  0  0
   -2.6932   -0.3340    1.3202 O   0  0  0  0  0  0  0  0  0  0  0  0
   -2.9243   -1.6679    0.8910 C   0  0  0  0  0  0  0  0  0  0  0  0
   -3.9866   -1.8557    1.0531 H   0  0  0  0  0  0  0  0  0  0  0  0
   -2.3382   -2.3883    1.4752 H   0  0  0  0  0  0  0  0  0  0  0  0
   -2.6928   -1.7946   -0.1744 H   0  0  0  0  0  0  0  0  0  0  0  0
    2.7820    2.9220   -0.1616 S   0  0  0  0  0  0  0  0  0  0  0  0
    2.3425    1.9778    1.1044 O   0  0  0  0  0  0  0  0  0  0  0  0
    1.6597    3.7165   -0.6063 O   0  0  0  0  0  0  0  0  0  0  0  0
    4.0629    3.4761    0.2278 O   0  0  0  0  0  0  0  0  0  0  0  0
    3.0374    1.8096   -1.3266 O   0  0  0  0  0  0  0  0  0  0  0  0
    3.9640    1.5244   -1.2510 H   0  0  0  0  0  0  0  0  0  0  0  0
  1  6  1  0  0  0  0
  2  1  2  0  0  0  0
  2  3  1  0  0  0  0
  3 19  1  0  0  0  0
  3  4  2  0  0  0  0
  4  5  1  0  0  0  0
  4  9  1  0  0  0  0
  5 10  1  0  0  0  0
  6 13  1  0  0  0  0
  6  5  2  0  0  0  0
  7  1  1  0  0  0  0
  8  2  1  0  0  0  0
 11 12  3  0  0  0  0
 14 15  1  0  0  0  0
 14 13  1  0  0  0  0
 14 16  1  0  0  0  0
 17 14  1  0  0  0  0
 18 21  2  0  0  0  0
 18 19  1  0  0  0  0
 20 18  2  0  0  0  0
 22 23  1  0  0  0  0
 22 18  1  0  0  0  0
M  END
