Coordinates from ORCA-job 4-MeO-Ph-N2-HSO4-B3LYPG-6-31G_dp-MTMO-d009-169-n800
 OpenBabel09051907533D

 23 22  0  0  0  0  0  0  0  0999 V2000
   -0.1957   -0.5596    0.7144 C   0  0  0  0  0  0  0  0  0  0  0  0
    1.0734    0.0237    0.6763 C   0  0  0  0  0  0  0  0  0  0  0  0
    1.2274    1.3548    1.0371 C   0  0  0  0  0  0  0  0  0  0  0  0
    0.1381    2.1295    1.4361 C   0  0  0  0  0  0  0  0  0  0  0  0
   -1.1234    1.5526    1.4733 C   0  0  0  0  0  0  0  0  0  0  0  0
   -1.2991    0.2060    1.1132 C   0  0  0  0  0  0  0  0  0  0  0  0
   -0.3080   -1.5994    0.4338 H   0  0  0  0  0  0  0  0  0  0  0  0
    1.9382   -0.5543    0.3706 H   0  0  0  0  0  0  0  0  0  0  0  0
    0.2871    3.1677    1.7094 H   0  0  0  0  0  0  0  0  0  0  0  0
   -1.9928    2.1246    1.7787 H   0  0  0  0  0  0  0  0  0  0  0  0
    8.5674    1.1015   -3.2607 N   0  0  0  0  0  0  0  0  0  0  0  0
    7.5965    1.0541   -2.7345 N   0  0  0  0  0  0  0  0  0  0  0  0
   -2.5768   -0.2595    1.1880 O   0  0  0  0  0  0  0  0  0  0  0  0
   -2.8254   -1.6101    0.8262 C   0  0  0  0  0  0  0  0  0  0  0  0
   -3.8978   -1.7630    0.9551 H   0  0  0  0  0  0  0  0  0  0  0  0
   -2.2814   -2.3090    1.4739 H   0  0  0  0  0  0  0  0  0  0  0  0
   -2.5556   -1.8040   -0.2197 H   0  0  0  0  0  0  0  0  0  0  0  0
    3.0582    2.7552   -0.2214 S   0  0  0  0  0  0  0  0  0  0  0  0
    2.5257    1.9087    1.0775 O   0  0  0  0  0  0  0  0  0  0  0  0
    1.9691    3.5023   -0.8082 O   0  0  0  0  0  0  0  0  0  0  0  0
    4.3045    3.3506    0.2176 O   0  0  0  0  0  0  0  0  0  0  0  0
    3.4093    1.5587   -1.2725 O   0  0  0  0  0  0  0  0  0  0  0  0
    4.3458    1.3296   -1.1431 H   0  0  0  0  0  0  0  0  0  0  0  0
  1  6  1  0  0  0  0
  2  1  2  0  0  0  0
  2  3  1  0  0  0  0
  3 19  1  0  0  0  0
  3  4  2  0  0  0  0
  4  5  1  0  0  0  0
  4  9  1  0  0  0  0
  5 10  1  0  0  0  0
  6 13  1  0  0  0  0
  6  5  2  0  0  0  0
  7  1  1  0  0  0  0
  8  2  1  0  0  0  0
 11 12  3  0  0  0  0
 14 15  1  0  0  0  0
 14 13  1  0  0  0  0
 14 16  1  0  0  0  0
 17 14  1  0  0  0  0
 18 21  2  0  0  0  0
 18 19  1  0  0  0  0
 20 18  2  0  0  0  0
 22 23  1  0  0  0  0
 22 18  1  0  0  0  0
M  END
