Coordinates from ORCA-job 4-MeO-Ph-N2-HSO4-B3LYPG-6-31G_dp-MTMO-d009-169-n800
 OpenBabel09051907533D

 23 22  0  0  0  0  0  0  0  0999 V2000
   -0.3132   -0.5443    0.7260 C   0  0  0  0  0  0  0  0  0  0  0  0
    0.9385    0.0733    0.6634 C   0  0  0  0  0  0  0  0  0  0  0  0
    1.0764    1.3885    1.0841 C   0  0  0  0  0  0  0  0  0  0  0  0
   -0.0126    2.1133    1.5689 C   0  0  0  0  0  0  0  0  0  0  0  0
   -1.2571    1.5025    1.6299 C   0  0  0  0  0  0  0  0  0  0  0  0
   -1.4163    0.1717    1.2091 C   0  0  0  0  0  0  0  0  0  0  0  0
   -0.4122   -1.5717    0.3989 H   0  0  0  0  0  0  0  0  0  0  0  0
    1.8027   -0.4668    0.2934 H   0  0  0  0  0  0  0  0  0  0  0  0
    0.1230    3.1402    1.8876 H   0  0  0  0  0  0  0  0  0  0  0  0
   -2.1258    2.0358    2.0003 H   0  0  0  0  0  0  0  0  0  0  0  0
   10.3070    0.7762   -3.7373 N   0  0  0  0  0  0  0  0  0  0  0  0
    9.2666    0.6877   -3.3751 N   0  0  0  0  0  0  0  0  0  0  0  0
   -2.6781   -0.3299    1.3127 O   0  0  0  0  0  0  0  0  0  0  0  0
   -2.9113   -1.6643    0.8859 C   0  0  0  0  0  0  0  0  0  0  0  0
   -3.9739   -1.8499    1.0480 H   0  0  0  0  0  0  0  0  0  0  0  0
   -2.3266   -2.3844    1.4717 H   0  0  0  0  0  0  0  0  0  0  0  0
   -2.6796   -1.7934   -0.1791 H   0  0  0  0  0  0  0  0  0  0  0  0
    2.8037    2.9141   -0.1713 S   0  0  0  0  0  0  0  0  0  0  0  0
    2.3618    1.9725    1.0958 O   0  0  0  0  0  0  0  0  0  0  0  0
    1.6829    3.7094   -0.6183 O   0  0  0  0  0  0  0  0  0  0  0  0
    4.0849    3.4673    0.2185 O   0  0  0  0  0  0  0  0  0  0  0  0
    3.0588    1.7996   -1.3343 O   0  0  0  0  0  0  0  0  0  0  0  0
    3.9851    1.5135   -1.2576 H   0  0  0  0  0  0  0  0  0  0  0  0
  1  6  1  0  0  0  0
  2  1  2  0  0  0  0
  2  3  1  0  0  0  0
  3 19  1  0  0  0  0
  3  4  2  0  0  0  0
  4  5  1  0  0  0  0
  4  9  1  0  0  0  0
  5 10  1  0  0  0  0
  6 13  1  0  0  0  0
  6  5  2  0  0  0  0
  7  1  1  0  0  0  0
  8  2  1  0  0  0  0
 11 12  3  0  0  0  0
 14 15  1  0  0  0  0
 14 13  1  0  0  0  0
 14 16  1  0  0  0  0
 17 14  1  0  0  0  0
 18 21  2  0  0  0  0
 18 19  1  0  0  0  0
 20 18  2  0  0  0  0
 22 23  1  0  0  0  0
 22 18  1  0  0  0  0
M  END
