Coordinates from ORCA-job 4-MeO-Ph-N2-HSO4-B3LYPG-6-31G_dp-MTMO-d009-169-n800
 OpenBabel09051907533D

 23 22  0  0  0  0  0  0  0  0999 V2000
   -0.7919   -0.5289    0.9353 C   0  0  0  0  0  0  0  0  0  0  0  0
    0.4487    0.1114    0.8815 C   0  0  0  0  0  0  0  0  0  0  0  0
    0.5630    1.4238    1.3178 C   0  0  0  0  0  0  0  0  0  0  0  0
   -0.5390    2.1233    1.8104 C   0  0  0  0  0  0  0  0  0  0  0  0
   -1.7726    1.4899    1.8628 C   0  0  0  0  0  0  0  0  0  0  0  0
   -1.9080    0.1616    1.4256 C   0  0  0  0  0  0  0  0  0  0  0  0
   -0.8722   -1.5538    0.5957 H   0  0  0  0  0  0  0  0  0  0  0  0
    1.3227   -0.4088    0.5059 H   0  0  0  0  0  0  0  0  0  0  0  0
   -0.4220    3.1485    2.1416 H   0  0  0  0  0  0  0  0  0  0  0  0
   -2.6509    2.0031    2.2388 H   0  0  0  0  0  0  0  0  0  0  0  0
   15.5780    0.5453   -6.0760 N   0  0  0  0  0  0  0  0  0  0  0  0
   14.5354    0.4473   -5.7226 N   0  0  0  0  0  0  0  0  0  0  0  0
   -3.1609   -0.3632    1.5210 O   0  0  0  0  0  0  0  0  0  0  0  0
   -3.3705   -1.6952    1.0754 C   0  0  0  0  0  0  0  0  0  0  0  0
   -4.4304   -1.9008    1.2318 H   0  0  0  0  0  0  0  0  0  0  0  0
   -2.7756   -2.4136    1.6530 H   0  0  0  0  0  0  0  0  0  0  0  0
   -3.1339   -1.8058    0.0094 H   0  0  0  0  0  0  0  0  0  0  0  0
    2.2638    2.9925    0.0802 S   0  0  0  0  0  0  0  0  0  0  0  0
    1.8378    2.0304    1.3371 O   0  0  0  0  0  0  0  0  0  0  0  0
    1.1313    3.7777   -0.3550 O   0  0  0  0  0  0  0  0  0  0  0  0
    3.5385    3.5582    0.4731 O   0  0  0  0  0  0  0  0  0  0  0  0
    2.5312    1.8947   -1.0962 O   0  0  0  0  0  0  0  0  0  0  0  0
    3.4623    1.6232   -1.0257 H   0  0  0  0  0  0  0  0  0  0  0  0
  1  6  1  0  0  0  0
  2  1  2  0  0  0  0
  2  3  1  0  0  0  0
  3 19  1  0  0  0  0
  3  4  2  0  0  0  0
  4  5  1  0  0  0  0
  4  9  1  0  0  0  0
  5 10  1  0  0  0  0
  6 13  1  0  0  0  0
  6  5  2  0  0  0  0
  7  1  1  0  0  0  0
  8  2  1  0  0  0  0
 11 12  3  0  0  0  0
 14 15  1  0  0  0  0
 14 13  1  0  0  0  0
 14 16  1  0  0  0  0
 17 14  1  0  0  0  0
 18 21  2  0  0  0  0
 18 19  1  0  0  0  0
 20 18  2  0  0  0  0
 22 23  1  0  0  0  0
 22 18  1  0  0  0  0
M  END
