Coordinates from ORCA-job 4-MeO-Ph-N2-HSO4-B3LYPG-6-31G_dp-MTMO-d009-169-n800
 OpenBabel09051907533D

 23 22  0  0  0  0  0  0  0  0999 V2000
   -0.1875   -0.6292    1.0682 C   0  0  0  0  0  0  0  0  0  0  0  0
    1.1727   -0.3263    1.1712 C   0  0  0  0  0  0  0  0  0  0  0  0
    1.6025    0.9777    0.9689 C   0  0  0  0  0  0  0  0  0  0  0  0
    0.7033    1.9987    0.6603 C   0  0  0  0  0  0  0  0  0  0  0  0
   -0.6476    1.6993    0.5544 C   0  0  0  0  0  0  0  0  0  0  0  0
   -1.1022    0.3852    0.7571 C   0  0  0  0  0  0  0  0  0  0  0  0
   -0.5152   -1.6478    1.2336 H   0  0  0  0  0  0  0  0  0  0  0  0
    1.8938   -1.0990    1.4130 H   0  0  0  0  0  0  0  0  0  0  0  0
    1.0664    3.0078    0.5030 H   0  0  0  0  0  0  0  0  0  0  0  0
   -1.3748    2.4673    0.3153 H   0  0  0  0  0  0  0  0  0  0  0  0
    4.2858    4.9735   -2.3845 N   0  0  0  0  0  0  0  0  0  0  0  0
    4.9620    4.3503   -2.9974 N   0  0  0  0  0  0  0  0  0  0  0  0
   -2.4459    0.2033    0.6318 O   0  0  0  0  0  0  0  0  0  0  0  0
   -2.9707   -1.1032    0.8137 C   0  0  0  0  0  0  0  0  0  0  0  0
   -4.0476   -1.0184    0.6605 H   0  0  0  0  0  0  0  0  0  0  0  0
   -2.7787   -1.4783    1.8272 H   0  0  0  0  0  0  0  0  0  0  0  0
   -2.5571   -1.8104    0.0834 H   0  0  0  0  0  0  0  0  0  0  0  0
    3.9452    1.3671   -0.1487 S   0  0  0  0  0  0  0  0  0  0  0  0
    2.9674    1.2850    1.1626 O   0  0  0  0  0  0  0  0  0  0  0  0
    3.2530    1.9956   -1.2513 O   0  0  0  0  0  0  0  0  0  0  0  0
    5.2159    1.8276    0.3742 O   0  0  0  0  0  0  0  0  0  0  0  0
    4.0942   -0.2069   -0.5483 O   0  0  0  0  0  0  0  0  0  0  0  0
    4.8499   -0.5582   -0.0472 H   0  0  0  0  0  0  0  0  0  0  0  0
  1  2  1  0  0  0  0
  1  7  1  0  0  0  0
  2  8  1  0  0  0  0
  3 19  1  0  0  0  0
  3  2  2  0  0  0  0
  4  3  1  0  0  0  0
  5  4  2  0  0  0  0
  5  6  1  0  0  0  0
  6  1  2  0  0  0  0
  9  4  1  0  0  0  0
 10  5  1  0  0  0  0
 12 11  3  0  0  0  0
 13  6  1  0  0  0  0
 13 14  1  0  0  0  0
 14 16  1  0  0  0  0
 15 14  1  0  0  0  0
 17 14  1  0  0  0  0
 18 21  2  0  0  0  0
 18 19  1  0  0  0  0
 20 18  2  0  0  0  0
 22 18  1  0  0  0  0
 22 23  1  0  0  0  0
M  END
