Coordinates from ORCA-job 4-MeO-Ph-N2-HSO4-B3LYPG-6-31G_dp-MTMO-d009-169-n800
 OpenBabel09051907533D

 23 22  0  0  0  0  0  0  0  0999 V2000
   -0.5719   -0.5319    0.8394 C   0  0  0  0  0  0  0  0  0  0  0  0
    0.6676    0.1107    0.7863 C   0  0  0  0  0  0  0  0  0  0  0  0
    0.7794    1.4231    1.2235 C   0  0  0  0  0  0  0  0  0  0  0  0
   -0.3240    2.1202    1.7163 C   0  0  0  0  0  0  0  0  0  0  0  0
   -1.5564    1.4844    1.7680 C   0  0  0  0  0  0  0  0  0  0  0  0
   -1.6893    0.1563    1.3298 C   0  0  0  0  0  0  0  0  0  0  0  0
   -0.6502   -1.5567    0.4990 H   0  0  0  0  0  0  0  0  0  0  0  0
    1.5426   -0.4076    0.4105 H   0  0  0  0  0  0  0  0  0  0  0  0
   -0.2089    3.1454    2.0482 H   0  0  0  0  0  0  0  0  0  0  0  0
   -2.4358    1.9958    2.1441 H   0  0  0  0  0  0  0  0  0  0  0  0
   13.2938    0.5726   -5.0763 N   0  0  0  0  0  0  0  0  0  0  0  0
   12.2521    0.4656   -4.7228 N   0  0  0  0  0  0  0  0  0  0  0  0
   -2.9413   -0.3709    1.4245 O   0  0  0  0  0  0  0  0  0  0  0  0
   -3.1484   -1.7028    0.9777 C   0  0  0  0  0  0  0  0  0  0  0  0
   -4.2080   -1.9104    1.1334 H   0  0  0  0  0  0  0  0  0  0  0  0
   -2.5525   -2.4207    1.5549 H   0  0  0  0  0  0  0  0  0  0  0  0
   -2.9111   -1.8122   -0.0883 H   0  0  0  0  0  0  0  0  0  0  0  0
    2.4773    2.9959   -0.0127 S   0  0  0  0  0  0  0  0  0  0  0  0
    2.0531    2.0320    1.2434 O   0  0  0  0  0  0  0  0  0  0  0  0
    1.3437    3.7805   -0.4461 O   0  0  0  0  0  0  0  0  0  0  0  0
    3.7517    3.5624    0.3801 O   0  0  0  0  0  0  0  0  0  0  0  0
    2.7449    1.8999   -1.1906 O   0  0  0  0  0  0  0  0  0  0  0  0
    3.6762    1.6290   -1.1213 H   0  0  0  0  0  0  0  0  0  0  0  0
  1  6  1  0  0  0  0
  2  1  2  0  0  0  0
  2  3  1  0  0  0  0
  3 19  1  0  0  0  0
  3  4  2  0  0  0  0
  4  5  1  0  0  0  0
  4  9  1  0  0  0  0
  5 10  1  0  0  0  0
  6 13  1  0  0  0  0
  6  5  2  0  0  0  0
  7  1  1  0  0  0  0
  8  2  1  0  0  0  0
 11 12  3  0  0  0  0
 14 15  1  0  0  0  0
 14 13  1  0  0  0  0
 14 16  1  0  0  0  0
 17 14  1  0  0  0  0
 18 21  2  0  0  0  0
 18 19  1  0  0  0  0
 20 18  2  0  0  0  0
 22 23  1  0  0  0  0
 22 18  1  0  0  0  0
M  END
