Coordinates from ORCA-job 4-MeO-Ph-N2-HSO4-B3LYPG-6-31G_dp-MTMO-d009-169-n800
 OpenBabel09051907533D

 23 22  0  0  0  0  0  0  0  0999 V2000
   -0.5960   -0.5317    0.8501 C   0  0  0  0  0  0  0  0  0  0  0  0
    0.6429    0.1119    0.7973 C   0  0  0  0  0  0  0  0  0  0  0  0
    0.7538    1.4242    1.2350 C   0  0  0  0  0  0  0  0  0  0  0  0
   -0.3501    2.1204    1.7279 C   0  0  0  0  0  0  0  0  0  0  0  0
   -1.5821    1.4837    1.7793 C   0  0  0  0  0  0  0  0  0  0  0  0
   -1.7140    0.1556    1.3407 C   0  0  0  0  0  0  0  0  0  0  0  0
   -0.6735   -1.5564    0.5094 H   0  0  0  0  0  0  0  0  0  0  0  0
    1.5183   -0.4056    0.4214 H   0  0  0  0  0  0  0  0  0  0  0  0
   -0.2359    3.1456    2.0601 H   0  0  0  0  0  0  0  0  0  0  0  0
   -2.4618    1.9943    2.1555 H   0  0  0  0  0  0  0  0  0  0  0  0
   13.5618    0.5612   -5.1937 N   0  0  0  0  0  0  0  0  0  0  0  0
   12.5197    0.4545   -4.8414 N   0  0  0  0  0  0  0  0  0  0  0  0
   -2.9657   -0.3725    1.4351 O   0  0  0  0  0  0  0  0  0  0  0  0
   -3.1718   -1.7045    0.9877 C   0  0  0  0  0  0  0  0  0  0  0  0
   -4.2312   -1.9128    1.1433 H   0  0  0  0  0  0  0  0  0  0  0  0
   -2.5754   -2.4221    1.5647 H   0  0  0  0  0  0  0  0  0  0  0  0
   -2.9343   -1.8132   -0.0783 H   0  0  0  0  0  0  0  0  0  0  0  0
    2.4498    3.0006    0.0005 S   0  0  0  0  0  0  0  0  0  0  0  0
    2.0271    2.0338    1.2549 O   0  0  0  0  0  0  0  0  0  0  0  0
    1.3156    3.7858   -0.4302 O   0  0  0  0  0  0  0  0  0  0  0  0
    3.7243    3.5670    0.3934 O   0  0  0  0  0  0  0  0  0  0  0  0
    2.7164    1.9073   -1.1802 O   0  0  0  0  0  0  0  0  0  0  0  0
    3.6469    1.6336   -1.1112 H   0  0  0  0  0  0  0  0  0  0  0  0
  1  6  1  0  0  0  0
  2  1  2  0  0  0  0
  2  3  1  0  0  0  0
  3 19  1  0  0  0  0
  3  4  2  0  0  0  0
  4  5  1  0  0  0  0
  4  9  1  0  0  0  0
  5 10  1  0  0  0  0
  6 13  1  0  0  0  0
  6  5  2  0  0  0  0
  7  1  1  0  0  0  0
  8  2  1  0  0  0  0
 11 12  3  0  0  0  0
 14 15  1  0  0  0  0
 14 13  1  0  0  0  0
 14 16  1  0  0  0  0
 17 14  1  0  0  0  0
 18 21  2  0  0  0  0
 18 19  1  0  0  0  0
 20 18  2  0  0  0  0
 22 23  1  0  0  0  0
 22 18  1  0  0  0  0
M  END
