Coordinates from ORCA-job 4-MeO-Ph-N2-HSO4-B3LYPG-6-31G_dp-MTMO-d009-169-n800
 OpenBabel09051907533D

 23 22  0  0  0  0  0  0  0  0999 V2000
   -0.0287   -0.0207    0.1967 C   0  0  0  0  0  0  0  0  0  0  0  0
    1.1765    0.4973   -0.2733 C   0  0  0  0  0  0  0  0  0  0  0  0
    1.2495    1.8689   -0.4155 C   0  0  0  0  0  0  0  0  0  0  0  0
    0.2244    2.7706   -0.1263 C   0  0  0  0  0  0  0  0  0  0  0  0
   -0.9615    2.2332    0.3414 C   0  0  0  0  0  0  0  0  0  0  0  0
   -1.0969    0.8382    0.5075 C   0  0  0  0  0  0  0  0  0  0  0  0
   -0.1148   -1.0915    0.3288 H   0  0  0  0  0  0  0  0  0  0  0  0
    2.0330   -0.1222   -0.5070 H   0  0  0  0  0  0  0  0  0  0  0  0
    0.3515    3.8388   -0.2544 H   0  0  0  0  0  0  0  0  0  0  0  0
   -1.8010    2.8712    0.5936 H   0  0  0  0  0  0  0  0  0  0  0  0
    2.5549    2.5280   -0.9611 N   0  0  0  0  0  0  0  0  0  0  0  0
    3.0808    3.4380   -1.3416 N   0  0  0  0  0  0  0  0  0  0  0  0
   -2.2943    0.4308    0.9728 O   0  0  0  0  0  0  0  0  0  0  0  0
   -2.5150   -0.9625    1.1927 C   0  0  0  0  0  0  0  0  0  0  0  0
   -3.5338   -1.0426    1.5710 H   0  0  0  0  0  0  0  0  0  0  0  0
   -1.8159   -1.3619    1.9358 H   0  0  0  0  0  0  0  0  0  0  0  0
   -2.4258   -1.5302    0.2597 H   0  0  0  0  0  0  0  0  0  0  0  0
    4.5854    0.6785    0.3706 S   0  0  0  0  0  0  0  0  0  0  0  0
    4.0532    1.6909    1.2918 O   0  0  0  0  0  0  0  0  0  0  0  0
    3.9400    0.8007   -1.0026 O   0  0  0  0  0  0  0  0  0  0  0  0
    6.0330    0.4624    0.3020 O   0  0  0  0  0  0  0  0  0  0  0  0
    3.9701   -0.7708    0.9382 O   0  0  0  0  0  0  0  0  0  0  0  0
    4.7200   -1.3844    0.9002 H   0  0  0  0  0  0  0  0  0  0  0  0
  1  7  1  0  0  0  0
  1  6  2  0  0  0  0
  2  1  1  0  0  0  0
  3  2  2  0  0  0  0
  3  4  1  0  0  0  0
  4  5  2  0  0  0  0
  5  6  1  0  0  0  0
  5 10  1  0  0  0  0
  6 13  1  0  0  0  0
  8  2  1  0  0  0  0
  9  4  1  0  0  0  0
 11  3  1  0  0  0  0
 12 11  2  0  0  0  0
 13 14  1  0  0  0  0
 14 15  1  0  0  0  0
 14 16  1  0  0  0  0
 17 14  1  0  0  0  0
 18 22  1  0  0  0  0
 18 19  1  0  0  0  0
 20 18  2  0  0  0  0
 21 18  2  0  0  0  0
 23 22  1  0  0  0  0
M  RAD  2  12   2  19   2
M  END
