Coordinates from ORCA-job 4-MeO-Ph-N2-HSO4-B3LYPG-6-31G_dp-MTMO-d009-169-n800
 OpenBabel09051907533D

 23 22  0  0  0  0  0  0  0  0999 V2000
   -0.6330   -0.5311    0.8662 C   0  0  0  0  0  0  0  0  0  0  0  0
    0.6060    0.1123    0.8133 C   0  0  0  0  0  0  0  0  0  0  0  0
    0.7171    1.4245    1.2510 C   0  0  0  0  0  0  0  0  0  0  0  0
   -0.3867    2.1209    1.7440 C   0  0  0  0  0  0  0  0  0  0  0  0
   -1.6188    1.4843    1.7955 C   0  0  0  0  0  0  0  0  0  0  0  0
   -1.7509    0.1563    1.3569 C   0  0  0  0  0  0  0  0  0  0  0  0
   -0.7107   -1.5559    0.5255 H   0  0  0  0  0  0  0  0  0  0  0  0
    1.4813   -0.4054    0.4373 H   0  0  0  0  0  0  0  0  0  0  0  0
   -0.2723    3.1460    2.0762 H   0  0  0  0  0  0  0  0  0  0  0  0
   -2.4984    1.9951    2.1718 H   0  0  0  0  0  0  0  0  0  0  0  0
   13.9482    0.5563   -5.3628 N   0  0  0  0  0  0  0  0  0  0  0  0
   12.9060    0.4497   -5.0105 N   0  0  0  0  0  0  0  0  0  0  0  0
   -3.0026   -0.3717    1.4513 O   0  0  0  0  0  0  0  0  0  0  0  0
   -3.2090   -1.7036    1.0040 C   0  0  0  0  0  0  0  0  0  0  0  0
   -4.2684   -1.9118    1.1596 H   0  0  0  0  0  0  0  0  0  0  0  0
   -2.6126   -2.4213    1.5810 H   0  0  0  0  0  0  0  0  0  0  0  0
   -2.9716   -1.8123   -0.0621 H   0  0  0  0  0  0  0  0  0  0  0  0
    2.4133    3.0007    0.0164 S   0  0  0  0  0  0  0  0  0  0  0  0
    1.9906    2.0339    1.2708 O   0  0  0  0  0  0  0  0  0  0  0  0
    1.2792    3.7860   -0.4143 O   0  0  0  0  0  0  0  0  0  0  0  0
    3.6878    3.5670    0.4093 O   0  0  0  0  0  0  0  0  0  0  0  0
    2.6798    1.9073   -1.1642 O   0  0  0  0  0  0  0  0  0  0  0  0
    3.6103    1.6335   -1.0952 H   0  0  0  0  0  0  0  0  0  0  0  0
  1  6  1  0  0  0  0
  2  1  2  0  0  0  0
  2  3  1  0  0  0  0
  3 19  1  0  0  0  0
  3  4  2  0  0  0  0
  4  5  1  0  0  0  0
  4  9  1  0  0  0  0
  5 10  1  0  0  0  0
  6 13  1  0  0  0  0
  6  5  2  0  0  0  0
  7  1  1  0  0  0  0
  8  2  1  0  0  0  0
 11 12  3  0  0  0  0
 14 15  1  0  0  0  0
 14 13  1  0  0  0  0
 14 16  1  0  0  0  0
 17 14  1  0  0  0  0
 18 21  2  0  0  0  0
 18 19  1  0  0  0  0
 20 18  2  0  0  0  0
 22 23  1  0  0  0  0
 22 18  1  0  0  0  0
M  END
