Coordinates from ORCA-job 4-MeO-Ph-N2-HSO4-B3LYPG-6-31G_dp-MTMO-d009-169-n800
 OpenBabel09051907533D

 23 22  0  0  0  0  0  0  0  0999 V2000
   -0.3146   -0.5442    0.7265 C   0  0  0  0  0  0  0  0  0  0  0  0
    0.9370    0.0736    0.6640 C   0  0  0  0  0  0  0  0  0  0  0  0
    1.0748    1.3888    1.0848 C   0  0  0  0  0  0  0  0  0  0  0  0
   -0.0143    2.1133    1.5698 C   0  0  0  0  0  0  0  0  0  0  0  0
   -1.2588    1.5023    1.6308 C   0  0  0  0  0  0  0  0  0  0  0  0
   -1.4178    0.1715    1.2098 C   0  0  0  0  0  0  0  0  0  0  0  0
   -0.4134   -1.5716    0.3993 H   0  0  0  0  0  0  0  0  0  0  0  0
    1.8013   -0.4663    0.2938 H   0  0  0  0  0  0  0  0  0  0  0  0
    0.1211    3.1402    1.8887 H   0  0  0  0  0  0  0  0  0  0  0  0
   -2.1275    2.0354    2.0014 H   0  0  0  0  0  0  0  0  0  0  0  0
   10.3237    0.7746   -3.7445 N   0  0  0  0  0  0  0  0  0  0  0  0
    9.2832    0.6858   -3.3825 N   0  0  0  0  0  0  0  0  0  0  0  0
   -2.6795   -0.3303    1.3134 O   0  0  0  0  0  0  0  0  0  0  0  0
   -2.9125   -1.6646    0.8864 C   0  0  0  0  0  0  0  0  0  0  0  0
   -3.9751   -1.8504    1.0485 H   0  0  0  0  0  0  0  0  0  0  0  0
   -2.3276   -2.3848    1.4720 H   0  0  0  0  0  0  0  0  0  0  0  0
   -2.6808   -1.7935   -0.1787 H   0  0  0  0  0  0  0  0  0  0  0  0
    2.8017    2.9148   -0.1704 S   0  0  0  0  0  0  0  0  0  0  0  0
    2.3601    1.9730    1.0965 O   0  0  0  0  0  0  0  0  0  0  0  0
    1.6808    3.7100   -0.6172 O   0  0  0  0  0  0  0  0  0  0  0  0
    4.0829    3.4681    0.2193 O   0  0  0  0  0  0  0  0  0  0  0  0
    3.0569    1.8005   -1.3337 O   0  0  0  0  0  0  0  0  0  0  0  0
    3.9832    1.5145   -1.2570 H   0  0  0  0  0  0  0  0  0  0  0  0
  1  6  1  0  0  0  0
  2  1  2  0  0  0  0
  2  3  1  0  0  0  0
  3 19  1  0  0  0  0
  3  4  2  0  0  0  0
  4  5  1  0  0  0  0
  4  9  1  0  0  0  0
  5 10  1  0  0  0  0
  6 13  1  0  0  0  0
  6  5  2  0  0  0  0
  7  1  1  0  0  0  0
  8  2  1  0  0  0  0
 11 12  3  0  0  0  0
 14 15  1  0  0  0  0
 14 13  1  0  0  0  0
 14 16  1  0  0  0  0
 17 14  1  0  0  0  0
 18 21  2  0  0  0  0
 18 19  1  0  0  0  0
 20 18  2  0  0  0  0
 22 23  1  0  0  0  0
 22 18  1  0  0  0  0
M  END
