Coordinates from ORCA-job 4-MeO-Ph-N2-HSO4-B3LYPG-6-31G_dp-MTMO-d009-169-n800
 OpenBabel09051907533D

 23 22  0  0  0  0  0  0  0  0999 V2000
   -0.1809   -0.5740    0.6917 C   0  0  0  0  0  0  0  0  0  0  0  0
    1.1034   -0.0266    0.6331 C   0  0  0  0  0  0  0  0  0  0  0  0
    1.2976    1.3033    0.9789 C   0  0  0  0  0  0  0  0  0  0  0  0
    0.2352    2.1120    1.3820 C   0  0  0  0  0  0  0  0  0  0  0  0
   -1.0412    1.5703    1.4403 C   0  0  0  0  0  0  0  0  0  0  0  0
   -1.2578    0.2256    1.0962 C   0  0  0  0  0  0  0  0  0  0  0  0
   -0.3256   -1.6128    0.4224 H   0  0  0  0  0  0  0  0  0  0  0  0
    1.9491   -0.6299    0.3226 H   0  0  0  0  0  0  0  0  0  0  0  0
    0.4163    3.1484    1.6430 H   0  0  0  0  0  0  0  0  0  0  0  0
   -1.8908    2.1691    1.7498 H   0  0  0  0  0  0  0  0  0  0  0  0
    7.8904    1.4296   -2.8567 N   0  0  0  0  0  0  0  0  0  0  0  0
    6.9213    1.3347   -2.3339 N   0  0  0  0  0  0  0  0  0  0  0  0
   -2.5469   -0.2041    1.1917 O   0  0  0  0  0  0  0  0  0  0  0  0
   -2.8360   -1.5523    0.8517 C   0  0  0  0  0  0  0  0  0  0  0  0
   -3.9099   -1.6755    0.9995 H   0  0  0  0  0  0  0  0  0  0  0  0
   -2.3000   -2.2567    1.5000 H   0  0  0  0  0  0  0  0  0  0  0  0
   -2.5882   -1.7669   -0.1956 H   0  0  0  0  0  0  0  0  0  0  0  0
    3.1741    2.6124   -0.3217 S   0  0  0  0  0  0  0  0  0  0  0  0
    2.6113    1.8226    0.9999 O   0  0  0  0  0  0  0  0  0  0  0  0
    2.0847    3.2927   -0.9864 O   0  0  0  0  0  0  0  0  0  0  0  0
    4.3830    3.2758    0.1267 O   0  0  0  0  0  0  0  0  0  0  0  0
    3.6130    1.3706   -1.2821 O   0  0  0  0  0  0  0  0  0  0  0  0
    4.5827    1.2925   -1.2321 H   0  0  0  0  0  0  0  0  0  0  0  0
  1  6  1  0  0  0  0
  2  1  2  0  0  0  0
  2  3  1  0  0  0  0
  3 19  1  0  0  0  0
  3  4  2  0  0  0  0
  4  5  1  0  0  0  0
  4  9  1  0  0  0  0
  5 10  1  0  0  0  0
  6 13  1  0  0  0  0
  6  5  2  0  0  0  0
  7  1  1  0  0  0  0
  8  2  1  0  0  0  0
 11 12  3  0  0  0  0
 14 15  1  0  0  0  0
 14 13  1  0  0  0  0
 14 16  1  0  0  0  0
 17 14  1  0  0  0  0
 18 21  2  0  0  0  0
 18 19  1  0  0  0  0
 20 18  2  0  0  0  0
 22 23  1  0  0  0  0
 22 18  1  0  0  0  0
M  END
