Coordinates from ORCA-job 4-MeO-Ph-N2-HSO4-B3LYPG-6-31G_dp-MTMO-d009-169-n800
 OpenBabel09051907533D

 23 22  0  0  0  0  0  0  0  0999 V2000
   -0.3678   -0.5406    0.7489 C   0  0  0  0  0  0  0  0  0  0  0  0
    0.8799    0.0853    0.6884 C   0  0  0  0  0  0  0  0  0  0  0  0
    1.0098    1.3993    1.1155 C   0  0  0  0  0  0  0  0  0  0  0  0
   -0.0834    2.1146    1.6050 C   0  0  0  0  0  0  0  0  0  0  0  0
   -1.3240    1.4956    1.6640 C   0  0  0  0  0  0  0  0  0  0  0  0
   -1.4751    0.1659    1.2364 C   0  0  0  0  0  0  0  0  0  0  0  0
   -0.4604   -1.5669    0.4166 H   0  0  0  0  0  0  0  0  0  0  0  0
    1.7472   -0.4473    0.3149 H   0  0  0  0  0  0  0  0  0  0  0  0
    0.0458    3.1407    1.9289 H   0  0  0  0  0  0  0  0  0  0  0  0
   -2.1958    2.0214    2.0378 H   0  0  0  0  0  0  0  0  0  0  0  0
   10.9704    0.7143   -4.0317 N   0  0  0  0  0  0  0  0  0  0  0  0
    9.9293    0.6168   -3.6738 N   0  0  0  0  0  0  0  0  0  0  0  0
   -2.7336   -0.3442    1.3382 O   0  0  0  0  0  0  0  0  0  0  0  0
   -2.9588   -1.6773    0.9036 C   0  0  0  0  0  0  0  0  0  0  0  0
   -4.0203   -1.8703    1.0647 H   0  0  0  0  0  0  0  0  0  0  0  0
   -2.3698   -2.3974    1.4851 H   0  0  0  0  0  0  0  0  0  0  0  0
   -2.7265   -1.7989   -0.1622 H   0  0  0  0  0  0  0  0  0  0  0  0
    2.7260    2.9414   -0.1345 S   0  0  0  0  0  0  0  0  0  0  0  0
    2.2914    1.9915    1.1288 O   0  0  0  0  0  0  0  0  0  0  0  0
    1.6006    3.7336   -0.5751 O   0  0  0  0  0  0  0  0  0  0  0  0
    4.0056    3.4985    0.2550 O   0  0  0  0  0  0  0  0  0  0  0  0
    2.9835    1.8337   -1.3036 O   0  0  0  0  0  0  0  0  0  0  0  0
    3.9110    1.5509   -1.2298 H   0  0  0  0  0  0  0  0  0  0  0  0
  1  6  1  0  0  0  0
  2  1  2  0  0  0  0
  2  3  1  0  0  0  0
  3 19  1  0  0  0  0
  3  4  2  0  0  0  0
  4  5  1  0  0  0  0
  4  9  1  0  0  0  0
  5 10  1  0  0  0  0
  6 13  1  0  0  0  0
  6  5  2  0  0  0  0
  7  1  1  0  0  0  0
  8  2  1  0  0  0  0
 11 12  3  0  0  0  0
 14 15  1  0  0  0  0
 14 13  1  0  0  0  0
 14 16  1  0  0  0  0
 17 14  1  0  0  0  0
 18 21  2  0  0  0  0
 18 19  1  0  0  0  0
 20 18  2  0  0  0  0
 22 23  1  0  0  0  0
 22 18  1  0  0  0  0
M  END
