Coordinates from ORCA-job 4-MeO-Ph-N2-HSO4-B3LYPG-6-31G_dp-MTMO-d009-169-n800
 OpenBabel09051907533D

 23 22  0  0  0  0  0  0  0  0999 V2000
   -0.3118   -0.5444    0.7255 C   0  0  0  0  0  0  0  0  0  0  0  0
    0.9400    0.0730    0.6629 C   0  0  0  0  0  0  0  0  0  0  0  0
    1.0781    1.3882    1.0833 C   0  0  0  0  0  0  0  0  0  0  0  0
   -0.0108    2.1133    1.5679 C   0  0  0  0  0  0  0  0  0  0  0  0
   -1.2555    1.5027    1.6290 C   0  0  0  0  0  0  0  0  0  0  0  0
   -1.4149    0.1718    1.2084 C   0  0  0  0  0  0  0  0  0  0  0  0
   -0.4110   -1.5718    0.3986 H   0  0  0  0  0  0  0  0  0  0  0  0
    1.8041   -0.4673    0.2930 H   0  0  0  0  0  0  0  0  0  0  0  0
    0.1249    3.1402    1.8865 H   0  0  0  0  0  0  0  0  0  0  0  0
   -2.1241    2.0362    1.9992 H   0  0  0  0  0  0  0  0  0  0  0  0
   10.2903    0.7778   -3.7302 N   0  0  0  0  0  0  0  0  0  0  0  0
    9.2499    0.6896   -3.3678 N   0  0  0  0  0  0  0  0  0  0  0  0
   -2.6768   -0.3296    1.3120 O   0  0  0  0  0  0  0  0  0  0  0  0
   -2.9101   -1.6639    0.8854 C   0  0  0  0  0  0  0  0  0  0  0  0
   -3.9728   -1.8494    1.0476 H   0  0  0  0  0  0  0  0  0  0  0  0
   -2.3255   -2.3841    1.4714 H   0  0  0  0  0  0  0  0  0  0  0  0
   -2.6784   -1.7933   -0.1795 H   0  0  0  0  0  0  0  0  0  0  0  0
    2.8057    2.9134   -0.1722 S   0  0  0  0  0  0  0  0  0  0  0  0
    2.3636    1.9720    1.0950 O   0  0  0  0  0  0  0  0  0  0  0  0
    1.6850    3.7087   -0.6194 O   0  0  0  0  0  0  0  0  0  0  0  0
    4.0869    3.4665    0.2177 O   0  0  0  0  0  0  0  0  0  0  0  0
    3.0608    1.7987   -1.3350 O   0  0  0  0  0  0  0  0  0  0  0  0
    3.9871    1.5125   -1.2581 H   0  0  0  0  0  0  0  0  0  0  0  0
  1  6  1  0  0  0  0
  2  1  2  0  0  0  0
  2  3  1  0  0  0  0
  3 19  1  0  0  0  0
  3  4  2  0  0  0  0
  4  5  1  0  0  0  0
  4  9  1  0  0  0  0
  5 10  1  0  0  0  0
  6 13  1  0  0  0  0
  6  5  2  0  0  0  0
  7  1  1  0  0  0  0
  8  2  1  0  0  0  0
 11 12  3  0  0  0  0
 14 15  1  0  0  0  0
 14 13  1  0  0  0  0
 14 16  1  0  0  0  0
 17 14  1  0  0  0  0
 18 21  2  0  0  0  0
 18 19  1  0  0  0  0
 20 18  2  0  0  0  0
 22 23  1  0  0  0  0
 22 18  1  0  0  0  0
M  END
