Coordinates from ORCA-job 4-MeO-Ph-N2-HSO4-B3LYPG-6-31G_dp-MTMO-d009-169-n800
 OpenBabel09051907533D

 23 22  0  0  0  0  0  0  0  0999 V2000
   -0.1547   -0.5533    1.1194 C   0  0  0  0  0  0  0  0  0  0  0  0
    1.2143   -0.3127    1.2629 C   0  0  0  0  0  0  0  0  0  0  0  0
    1.7323    0.9283    0.9207 C   0  0  0  0  0  0  0  0  0  0  0  0
    0.9147    1.9474    0.4301 C   0  0  0  0  0  0  0  0  0  0  0  0
   -0.4442    1.7080    0.2823 C   0  0  0  0  0  0  0  0  0  0  0  0
   -0.9880    0.4584    0.6249 C   0  0  0  0  0  0  0  0  0  0  0  0
   -0.5522   -1.5221    1.3950 H   0  0  0  0  0  0  0  0  0  0  0  0
    1.8737   -1.0840    1.6448 H   0  0  0  0  0  0  0  0  0  0  0  0
    1.3454    2.9056    0.1637 H   0  0  0  0  0  0  0  0  0  0  0  0
   -1.1099    2.4754   -0.0969 H   0  0  0  0  0  0  0  0  0  0  0  0
    3.0634    4.8895   -1.9061 N   0  0  0  0  0  0  0  0  0  0  0  0
    3.8036    4.8899   -2.7266 N   0  0  0  0  0  0  0  0  0  0  0  0
   -2.3316    0.3333    0.4422 O   0  0  0  0  0  0  0  0  0  0  0  0
   -2.9435   -0.9085    0.7583 C   0  0  0  0  0  0  0  0  0  0  0  0
   -4.0026   -0.7893    0.5248 H   0  0  0  0  0  0  0  0  0  0  0  0
   -2.8333   -1.1538    1.8222 H   0  0  0  0  0  0  0  0  0  0  0  0
   -2.5314   -1.7275    0.1556 H   0  0  0  0  0  0  0  0  0  0  0  0
    4.1425    1.1110   -0.1060 S   0  0  0  0  0  0  0  0  0  0  0  0
    3.1020    1.1796    1.1565 O   0  0  0  0  0  0  0  0  0  0  0  0
    3.5436    1.6975   -1.2839 O   0  0  0  0  0  0  0  0  0  0  0  0
    5.4126    1.5345    0.4483 O   0  0  0  0  0  0  0  0  0  0  0  0
    4.2124   -0.4933   -0.3889 O   0  0  0  0  0  0  0  0  0  0  0  0
    4.9157   -0.8533    0.1780 H   0  0  0  0  0  0  0  0  0  0  0  0
  1  2  1  0  0  0  0
  1  7  1  0  0  0  0
  2  8  1  0  0  0  0
  3 19  1  0  0  0  0
  3  2  2  0  0  0  0
  4  3  1  0  0  0  0
  5  4  2  0  0  0  0
  5  6  1  0  0  0  0
  6  1  2  0  0  0  0
  9  4  1  0  0  0  0
 10  5  1  0  0  0  0
 12 11  3  0  0  0  0
 13  6  1  0  0  0  0
 13 14  1  0  0  0  0
 14 16  1  0  0  0  0
 15 14  1  0  0  0  0
 17 14  1  0  0  0  0
 18 21  2  0  0  0  0
 18 19  1  0  0  0  0
 20 18  2  0  0  0  0
 22 18  1  0  0  0  0
 22 23  1  0  0  0  0
M  END
