Coordinates from ORCA-job 4-MeO-Ph-N2-HSO4-B3LYPG-6-31G_dp-MTMO-d009-169-n800
 OpenBabel09051907533D

 23 22  0  0  0  0  0  0  0  0999 V2000
   -0.0923   -0.5585    0.5834 C   0  0  0  0  0  0  0  0  0  0  0  0
    1.1798    0.0047    0.4520 C   0  0  0  0  0  0  0  0  0  0  0  0
    1.3939    1.3173    0.8487 C   0  0  0  0  0  0  0  0  0  0  0  0
    0.3606    2.0931    1.3751 C   0  0  0  0  0  0  0  0  0  0  0  0
   -0.9042    1.5368    1.5042 C   0  0  0  0  0  0  0  0  0  0  0  0
   -1.1391    0.2089    1.1103 C   0  0  0  0  0  0  0  0  0  0  0  0
   -0.2508   -1.5844    0.2755 H   0  0  0  0  0  0  0  0  0  0  0  0
    2.0018   -0.5752    0.0472 H   0  0  0  0  0  0  0  0  0  0  0  0
    0.5546    3.1169    1.6729 H   0  0  0  0  0  0  0  0  0  0  0  0
   -1.7307    2.1110    1.9085 H   0  0  0  0  0  0  0  0  0  0  0  0
    7.4507    1.0535   -1.7272 N   0  0  0  0  0  0  0  0  0  0  0  0
    6.3467    1.0520   -1.7162 N   0  0  0  0  0  0  0  0  0  0  0  0
   -2.4142   -0.2380    1.2842 O   0  0  0  0  0  0  0  0  0  0  0  0
   -2.7218   -1.5688    0.8955 C   0  0  0  0  0  0  0  0  0  0  0  0
   -3.7802   -1.7098    1.1189 H   0  0  0  0  0  0  0  0  0  0  0  0
   -2.1338   -2.3019    1.4617 H   0  0  0  0  0  0  0  0  0  0  0  0
   -2.5547   -1.7250   -0.1780 H   0  0  0  0  0  0  0  0  0  0  0  0
    3.1246    2.7549   -0.5053 S   0  0  0  0  0  0  0  0  0  0  0  0
    2.7012    1.8452    0.7934 O   0  0  0  0  0  0  0  0  0  0  0  0
    2.0114    3.5817   -0.9145 O   0  0  0  0  0  0  0  0  0  0  0  0
    4.4334    3.2794   -0.1664 O   0  0  0  0  0  0  0  0  0  0  0  0
    3.3064    1.6229   -1.6544 O   0  0  0  0  0  0  0  0  0  0  0  0
    4.2415    1.3440   -1.6484 H   0  0  0  0  0  0  0  0  0  0  0  0
  1  6  1  0  0  0  0
  2  1  2  0  0  0  0
  2  3  1  0  0  0  0
  3  4  2  0  0  0  0
  4  5  1  0  0  0  0
  4  9  1  0  0  0  0
  5 10  1  0  0  0  0
  6 13  1  0  0  0  0
  6  5  2  0  0  0  0
  7  1  1  0  0  0  0
  8  2  1  0  0  0  0
 11 12  3  0  0  0  0
 14 15  1  0  0  0  0
 14 13  1  0  0  0  0
 14 16  1  0  0  0  0
 17 14  1  0  0  0  0
 18 21  2  0  0  0  0
 18 19  1  0  0  0  0
 19  3  1  0  0  0  0
 20 18  2  0  0  0  0
 22 23  1  0  0  0  0
 22 18  1  0  0  0  0
M  END
