Coordinates from ORCA-job 4-MeO-Ph-N2-HSO4-B3LYPG-6-31G_dp-MTMO-d009-169-n800
 OpenBabel09051907533D

 23 22  0  0  0  0  0  0  0  0999 V2000
   -0.5306   -0.5327    0.8214 C   0  0  0  0  0  0  0  0  0  0  0  0
    0.7090    0.1097    0.7683 C   0  0  0  0  0  0  0  0  0  0  0  0
    0.8211    1.4221    1.2051 C   0  0  0  0  0  0  0  0  0  0  0  0
   -0.2822    2.1197    1.6976 C   0  0  0  0  0  0  0  0  0  0  0  0
   -1.5148    1.4842    1.7494 C   0  0  0  0  0  0  0  0  0  0  0  0
   -1.6479    0.1559    1.3116 C   0  0  0  0  0  0  0  0  0  0  0  0
   -0.6091   -1.5575    0.4813 H   0  0  0  0  0  0  0  0  0  0  0  0
    1.5839   -0.4089    0.3927 H   0  0  0  0  0  0  0  0  0  0  0  0
   -0.1669    3.1449    2.0293 H   0  0  0  0  0  0  0  0  0  0  0  0
   -2.3940    1.9958    2.1253 H   0  0  0  0  0  0  0  0  0  0  0  0
   12.8578    0.5799   -4.8847 N   0  0  0  0  0  0  0  0  0  0  0  0
   11.8155    0.4762   -4.5316 N   0  0  0  0  0  0  0  0  0  0  0  0
   -2.9001   -0.3710    1.4064 O   0  0  0  0  0  0  0  0  0  0  0  0
   -3.1074   -1.7030    0.9599 C   0  0  0  0  0  0  0  0  0  0  0  0
   -4.1670   -1.9103    1.1157 H   0  0  0  0  0  0  0  0  0  0  0  0
   -2.5116   -2.4208    1.5374 H   0  0  0  0  0  0  0  0  0  0  0  0
   -2.8701   -1.8127   -0.1061 H   0  0  0  0  0  0  0  0  0  0  0  0
    2.5194    2.9944   -0.0313 S   0  0  0  0  0  0  0  0  0  0  0  0
    2.0949    2.0307    1.2249 O   0  0  0  0  0  0  0  0  0  0  0  0
    1.3860    3.7790   -0.4651 O   0  0  0  0  0  0  0  0  0  0  0  0
    3.7938    3.5609    0.3615 O   0  0  0  0  0  0  0  0  0  0  0  0
    2.7870    1.8981   -1.2090 O   0  0  0  0  0  0  0  0  0  0  0  0
    3.7180    1.6262   -1.1390 H   0  0  0  0  0  0  0  0  0  0  0  0
  1  6  1  0  0  0  0
  2  1  2  0  0  0  0
  2  3  1  0  0  0  0
  3 19  1  0  0  0  0
  3  4  2  0  0  0  0
  4  5  1  0  0  0  0
  4  9  1  0  0  0  0
  5 10  1  0  0  0  0
  6 13  1  0  0  0  0
  6  5  2  0  0  0  0
  7  1  1  0  0  0  0
  8  2  1  0  0  0  0
 11 12  3  0  0  0  0
 14 15  1  0  0  0  0
 14 13  1  0  0  0  0
 14 16  1  0  0  0  0
 17 14  1  0  0  0  0
 18 21  2  0  0  0  0
 18 19  1  0  0  0  0
 20 18  2  0  0  0  0
 22 23  1  0  0  0  0
 22 18  1  0  0  0  0
M  END
