Coordinates from ORCA-job 4-MeO-Ph-N2-HSO4-B3LYPG-6-31G_dp-MTMO-d009-169-n800
 OpenBabel09051907533D

 23 22  0  0  0  0  0  0  0  0999 V2000
   -0.1736   -0.6095    1.0753 C   0  0  0  0  0  0  0  0  0  0  0  0
    1.1911   -0.3387    1.2039 C   0  0  0  0  0  0  0  0  0  0  0  0
    1.6594    0.9481    0.9787 C   0  0  0  0  0  0  0  0  0  0  0  0
    0.7949    1.9834    0.6217 C   0  0  0  0  0  0  0  0  0  0  0  0
   -0.5602    1.7155    0.4898 C   0  0  0  0  0  0  0  0  0  0  0  0
   -1.0537    0.4192    0.7150 C   0  0  0  0  0  0  0  0  0  0  0  0
   -0.5318   -1.6146    1.2590 H   0  0  0  0  0  0  0  0  0  0  0  0
    1.8861   -1.1226    1.4829 H   0  0  0  0  0  0  0  0  0  0  0  0
    1.1877    2.9784    0.4469 H   0  0  0  0  0  0  0  0  0  0  0  0
   -1.2612    2.4951    0.2127 H   0  0  0  0  0  0  0  0  0  0  0  0
    3.7691    4.9813   -2.2937 N   0  0  0  0  0  0  0  0  0  0  0  0
    4.4362    4.5231   -3.0462 N   0  0  0  0  0  0  0  0  0  0  0  0
   -2.3982    0.2682    0.5603 O   0  0  0  0  0  0  0  0  0  0  0  0
   -2.9612   -1.0193    0.7634 C   0  0  0  0  0  0  0  0  0  0  0  0
   -4.0310   -0.9119    0.5782 H   0  0  0  0  0  0  0  0  0  0  0  0
   -2.8062   -1.3703    1.7918 H   0  0  0  0  0  0  0  0  0  0  0  0
   -2.5465   -1.7569    0.0646 H   0  0  0  0  0  0  0  0  0  0  0  0
    4.0337    1.2658   -0.0933 S   0  0  0  0  0  0  0  0  0  0  0  0
    3.0270    1.2239    1.1978 O   0  0  0  0  0  0  0  0  0  0  0  0
    3.3804    1.8974   -1.2177 O   0  0  0  0  0  0  0  0  0  0  0  0
    5.3042    1.7014    0.4508 O   0  0  0  0  0  0  0  0  0  0  0  0
    4.1513   -0.3163   -0.4710 O   0  0  0  0  0  0  0  0  0  0  0  0
    4.8872   -0.6801    0.0502 H   0  0  0  0  0  0  0  0  0  0  0  0
  1  2  1  0  0  0  0
  1  7  1  0  0  0  0
  2  8  1  0  0  0  0
  3 19  1  0  0  0  0
  3  2  2  0  0  0  0
  4  3  1  0  0  0  0
  5  4  2  0  0  0  0
  5  6  1  0  0  0  0
  6  1  2  0  0  0  0
  9  4  1  0  0  0  0
 10  5  1  0  0  0  0
 12 11  3  0  0  0  0
 13  6  1  0  0  0  0
 13 14  1  0  0  0  0
 14 16  1  0  0  0  0
 15 14  1  0  0  0  0
 17 14  1  0  0  0  0
 18 21  2  0  0  0  0
 18 19  1  0  0  0  0
 20 18  2  0  0  0  0
 22 18  1  0  0  0  0
 22 23  1  0  0  0  0
M  END
