Coordinates from ORCA-job 4-MeO-Ph-N2-HSO4-B3LYPG-6-31G_dp-MTMO-d009-169-n800
 OpenBabel09051907533D

 23 22  0  0  0  0  0  0  0  0999 V2000
   -0.1126   -0.5700    0.6153 C   0  0  0  0  0  0  0  0  0  0  0  0
    1.1659   -0.0175    0.5026 C   0  0  0  0  0  0  0  0  0  0  0  0
    1.3792    1.3015    0.8781 C   0  0  0  0  0  0  0  0  0  0  0  0
    0.3392    2.0944    1.3642 C   0  0  0  0  0  0  0  0  0  0  0  0
   -0.9319    1.5486    1.4742 C   0  0  0  0  0  0  0  0  0  0  0  0
   -1.1664    0.2144    1.1018 C   0  0  0  0  0  0  0  0  0  0  0  0
   -0.2709   -1.6008    0.3240 H   0  0  0  0  0  0  0  0  0  0  0  0
    1.9935   -0.6101    0.1289 H   0  0  0  0  0  0  0  0  0  0  0  0
    0.5331    3.1228    1.6459 H   0  0  0  0  0  0  0  0  0  0  0  0
   -1.7639    2.1360    1.8473 H   0  0  0  0  0  0  0  0  0  0  0  0
    7.5355    1.2156   -1.9787 N   0  0  0  0  0  0  0  0  0  0  0  0
    6.4426    1.1553   -1.8332 N   0  0  0  0  0  0  0  0  0  0  0  0
   -2.4482   -0.2210    1.2545 O   0  0  0  0  0  0  0  0  0  0  0  0
   -2.7548   -1.5583    0.8884 C   0  0  0  0  0  0  0  0  0  0  0  0
   -3.8190   -1.6884    1.0904 H   0  0  0  0  0  0  0  0  0  0  0  0
   -2.1842   -2.2817    1.4840 H   0  0  0  0  0  0  0  0  0  0  0  0
   -2.5641   -1.7394   -0.1772 H   0  0  0  0  0  0  0  0  0  0  0  0
    3.1505    2.7069   -0.4585 S   0  0  0  0  0  0  0  0  0  0  0  0
    2.6919    1.8188    0.8425 O   0  0  0  0  0  0  0  0  0  0  0  0
    2.0485    3.5280   -0.9082 O   0  0  0  0  0  0  0  0  0  0  0  0
    4.4511    3.2365   -0.0966 O   0  0  0  0  0  0  0  0  0  0  0  0
    3.3623    1.5556   -1.5841 O   0  0  0  0  0  0  0  0  0  0  0  0
    4.3075    1.3134   -1.5843 H   0  0  0  0  0  0  0  0  0  0  0  0
  1  6  1  0  0  0  0
  2  1  2  0  0  0  0
  2  3  1  0  0  0  0
  3  4  2  0  0  0  0
  4  5  1  0  0  0  0
  4  9  1  0  0  0  0
  5 10  1  0  0  0  0
  6 13  1  0  0  0  0
  6  5  2  0  0  0  0
  7  1  1  0  0  0  0
  8  2  1  0  0  0  0
 11 12  3  0  0  0  0
 14 15  1  0  0  0  0
 14 13  1  0  0  0  0
 14 16  1  0  0  0  0
 17 14  1  0  0  0  0
 18 21  2  0  0  0  0
 18 19  1  0  0  0  0
 19  3  1  0  0  0  0
 20 18  2  0  0  0  0
 22 18  1  0  0  0  0
 23 22  1  0  0  0  0
M  END
