Coordinates from ORCA-job 4-MeO-Ph-N2-HSO4-B3LYPG-6-31G_dp-MTMO-d009-169-n800
 OpenBabel09051907533D

 23 22  0  0  0  0  0  0  0  0999 V2000
   -0.5211   -0.5329    0.8176 C   0  0  0  0  0  0  0  0  0  0  0  0
    0.7186    0.1093    0.7647 C   0  0  0  0  0  0  0  0  0  0  0  0
    0.8307    1.4219    1.2011 C   0  0  0  0  0  0  0  0  0  0  0  0
   -0.2727    2.1198    1.6929 C   0  0  0  0  0  0  0  0  0  0  0  0
   -1.5054    1.4844    1.7445 C   0  0  0  0  0  0  0  0  0  0  0  0
   -1.6385    0.1560    1.3071 C   0  0  0  0  0  0  0  0  0  0  0  0
   -0.5996   -1.5579    0.4779 H   0  0  0  0  0  0  0  0  0  0  0  0
    1.5936   -0.4095    0.3897 H   0  0  0  0  0  0  0  0  0  0  0  0
   -0.1575    3.1451    2.0241 H   0  0  0  0  0  0  0  0  0  0  0  0
   -2.3848    1.9963    2.1198 H   0  0  0  0  0  0  0  0  0  0  0  0
   12.7565    0.5822   -4.8415 N   0  0  0  0  0  0  0  0  0  0  0  0
   11.7143    0.4795   -4.4881 N   0  0  0  0  0  0  0  0  0  0  0  0
   -2.8908   -0.3707    1.4016 O   0  0  0  0  0  0  0  0  0  0  0  0
   -3.0981   -1.7029    0.9556 C   0  0  0  0  0  0  0  0  0  0  0  0
   -4.1578   -1.9100    1.1111 H   0  0  0  0  0  0  0  0  0  0  0  0
   -2.5026   -2.4205    1.5336 H   0  0  0  0  0  0  0  0  0  0  0  0
   -2.8604   -1.8130   -0.1102 H   0  0  0  0  0  0  0  0  0  0  0  0
    2.5296    2.9935   -0.0353 S   0  0  0  0  0  0  0  0  0  0  0  0
    2.1045    2.0304    1.2211 O   0  0  0  0  0  0  0  0  0  0  0  0
    1.3964    3.7781   -0.4698 O   0  0  0  0  0  0  0  0  0  0  0  0
    3.8039    3.5600    0.3579 O   0  0  0  0  0  0  0  0  0  0  0  0
    2.7975    1.8968   -1.2124 O   0  0  0  0  0  0  0  0  0  0  0  0
    3.7285    1.6247   -1.1419 H   0  0  0  0  0  0  0  0  0  0  0  0
  1  6  1  0  0  0  0
  2  1  2  0  0  0  0
  2  3  1  0  0  0  0
  3 19  1  0  0  0  0
  3  4  2  0  0  0  0
  4  5  1  0  0  0  0
  4  9  1  0  0  0  0
  5 10  1  0  0  0  0
  6 13  1  0  0  0  0
  6  5  2  0  0  0  0
  7  1  1  0  0  0  0
  8  2  1  0  0  0  0
 11 12  3  0  0  0  0
 14 15  1  0  0  0  0
 14 13  1  0  0  0  0
 14 16  1  0  0  0  0
 17 14  1  0  0  0  0
 18 21  2  0  0  0  0
 18 19  1  0  0  0  0
 20 18  2  0  0  0  0
 22 23  1  0  0  0  0
 22 18  1  0  0  0  0
M  END
