Coordinates from ORCA-job 4-MeO-Ph-N2-HSO4-B3LYPG-6-31G_dp-MTMO-d009-169-n800
 OpenBabel09051907533D

 23 22  0  0  0  0  0  0  0  0999 V2000
    0.3762    0.2439   -0.3236 C   0  0  0  0  0  0  0  0  0  0  0  0
    1.3125    0.9252   -1.0747 C   0  0  0  0  0  0  0  0  0  0  0  0
    1.1343    2.3088   -1.2080 C   0  0  0  0  0  0  0  0  0  0  0  0
    0.0889    3.0523   -0.6299 C   0  0  0  0  0  0  0  0  0  0  0  0
   -0.8186    2.3496    0.1262 C   0  0  0  0  0  0  0  0  0  0  0  0
   -0.6445    0.9540    0.3393 C   0  0  0  0  0  0  0  0  0  0  0  0
    0.5330   -0.8114   -0.1551 H   0  0  0  0  0  0  0  0  0  0  0  0
    2.1658    0.4107   -1.4927 H   0  0  0  0  0  0  0  0  0  0  0  0
    0.0183    4.1258   -0.7591 H   0  0  0  0  0  0  0  0  0  0  0  0
   -1.6398    2.8498    0.6258 H   0  0  0  0  0  0  0  0  0  0  0  0
    2.2476    3.0579   -1.8341 N   0  0  0  0  0  0  0  0  0  0  0  0
    3.1026    3.6026   -2.3037 N   0  0  0  0  0  0  0  0  0  0  0  0
   -1.4952    0.3999    1.1969 O   0  0  0  0  0  0  0  0  0  0  0  0
   -1.2020   -0.9201    1.7101 C   0  0  0  0  0  0  0  0  0  0  0  0
   -1.9019   -1.0640    2.5321 H   0  0  0  0  0  0  0  0  0  0  0  0
   -0.1672   -0.9539    2.0642 H   0  0  0  0  0  0  0  0  0  0  0  0
   -1.3835   -1.6763    0.9390 H   0  0  0  0  0  0  0  0  0  0  0  0
    3.2110    0.0260    1.4224 S   0  0  0  0  0  0  0  0  0  0  0  0
    1.9257   -0.0101    2.1592 O   0  0  0  0  0  0  0  0  0  0  0  0
    3.3754    1.2411    0.5814 O   0  0  0  0  0  0  0  0  0  0  0  0
    4.4019   -0.4072    2.1677 O   0  0  0  0  0  0  0  0  0  0  0  0
    3.0268   -1.2037    0.2505 O   0  0  0  0  0  0  0  0  0  0  0  0
    3.7175   -1.8403    0.4869 H   0  0  0  0  0  0  0  0  0  0  0  0
  1  7  1  0  0  0  0
  1  6  2  0  0  0  0
  2  1  1  0  0  0  0
  3  2  2  0  0  0  0
  3  4  1  0  0  0  0
  4  5  2  0  0  0  0
  5  6  1  0  0  0  0
  5 10  1  0  0  0  0
  6 13  1  0  0  0  0
  8  2  1  0  0  0  0
  9  4  1  0  0  0  0
 11  3  1  0  0  0  0
 12 11  1  0  0  0  0
 13 14  1  0  0  0  0
 14 16  1  0  0  0  0
 14 15  1  0  0  0  0
 17 14  1  0  0  0  0
 18 19  2  0  0  0  0
 18 21  1  0  0  0  0
 20 18  2  0  0  0  0
 22 23  1  0  0  0  0
 22 18  1  0  0  0  0
M  RAD  3  11   2  12   3  21   2
M  END
