Coordinates from ORCA-job 4-MeO-Ph-N2-HSO4-B3LYPG-6-31G_dp-MTMO-d009-169-n800
 OpenBabel09051907533D

 23 22  0  0  0  0  0  0  0  0999 V2000
   -0.7359   -0.5295    0.9113 C   0  0  0  0  0  0  0  0  0  0  0  0
    0.5041    0.1122    0.8584 C   0  0  0  0  0  0  0  0  0  0  0  0
    0.6166    1.4247    1.2950 C   0  0  0  0  0  0  0  0  0  0  0  0
   -0.4865    2.1229    1.7869 C   0  0  0  0  0  0  0  0  0  0  0  0
   -1.7194    1.4880    1.8385 C   0  0  0  0  0  0  0  0  0  0  0  0
   -1.8530    0.1597    1.4010 C   0  0  0  0  0  0  0  0  0  0  0  0
   -0.8148   -1.5545    0.5715 H   0  0  0  0  0  0  0  0  0  0  0  0
    1.3788   -0.4069    0.4833 H   0  0  0  0  0  0  0  0  0  0  0  0
   -0.3709    3.1482    2.1184 H   0  0  0  0  0  0  0  0  0  0  0  0
   -2.5986    2.0002    2.2140 H   0  0  0  0  0  0  0  0  0  0  0  0
   15.0052    0.5487   -5.8278 N   0  0  0  0  0  0  0  0  0  0  0  0
   13.9630    0.4469   -5.4741 N   0  0  0  0  0  0  0  0  0  0  0  0
   -3.1055   -0.3665    1.4955 O   0  0  0  0  0  0  0  0  0  0  0  0
   -3.3133   -1.6987    1.0494 C   0  0  0  0  0  0  0  0  0  0  0  0
   -4.3730   -1.9054    1.2050 H   0  0  0  0  0  0  0  0  0  0  0  0
   -2.7180   -2.4165    1.6273 H   0  0  0  0  0  0  0  0  0  0  0  0
   -3.0757   -1.8088   -0.0164 H   0  0  0  0  0  0  0  0  0  0  0  0
    2.3163    2.9955    0.0587 S   0  0  0  0  0  0  0  0  0  0  0  0
    1.8907    2.0328    1.3151 O   0  0  0  0  0  0  0  0  0  0  0  0
    1.1833    3.7800   -0.3766 O   0  0  0  0  0  0  0  0  0  0  0  0
    3.5905    3.5621    0.4521 O   0  0  0  0  0  0  0  0  0  0  0  0
    2.5848    1.8983   -1.1180 O   0  0  0  0  0  0  0  0  0  0  0  0
    3.5161    1.6274   -1.0474 H   0  0  0  0  0  0  0  0  0  0  0  0
  1  6  1  0  0  0  0
  2  1  2  0  0  0  0
  2  3  1  0  0  0  0
  3 19  1  0  0  0  0
  3  4  2  0  0  0  0
  4  5  1  0  0  0  0
  4  9  1  0  0  0  0
  5 10  1  0  0  0  0
  6 13  1  0  0  0  0
  6  5  2  0  0  0  0
  7  1  1  0  0  0  0
  8  2  1  0  0  0  0
 11 12  3  0  0  0  0
 14 15  1  0  0  0  0
 14 13  1  0  0  0  0
 14 16  1  0  0  0  0
 17 14  1  0  0  0  0
 18 21  2  0  0  0  0
 18 19  1  0  0  0  0
 20 18  2  0  0  0  0
 22 23  1  0  0  0  0
 22 18  1  0  0  0  0
M  END
