Coordinates from ORCA-job 4-MeO-Ph-N2-HSO4-B3LYPG-6-31G_dp-MTMO-d009-169-n800
 OpenBabel09051907533D

 23 22  0  0  0  0  0  0  0  0999 V2000
    0.0287   -0.2535    0.4283 C   0  0  0  0  0  0  0  0  0  0  0  0
    1.4072   -0.0166    0.4498 C   0  0  0  0  0  0  0  0  0  0  0  0
    1.8726    1.2579    0.7451 C   0  0  0  0  0  0  0  0  0  0  0  0
    0.9899    2.2957    1.0473 C   0  0  0  0  0  0  0  0  0  0  0  0
   -0.3763    2.0547    1.0405 C   0  0  0  0  0  0  0  0  0  0  0  0
   -0.8688    0.7782    0.7249 C   0  0  0  0  0  0  0  0  0  0  0  0
   -0.3241   -1.2476    0.1838 H   0  0  0  0  0  0  0  0  0  0  0  0
    2.0926   -0.8255    0.2302 H   0  0  0  0  0  0  0  0  0  0  0  0
    1.3853    3.2776    1.2821 H   0  0  0  0  0  0  0  0  0  0  0  0
   -1.0843    2.8433    1.2709 H   0  0  0  0  0  0  0  0  0  0  0  0
    1.9406    2.7857   -1.9085 N   0  0  0  0  0  0  0  0  0  0  0  0
    1.2796    2.5827   -2.7708 N   0  0  0  0  0  0  0  0  0  0  0  0
   -2.2258    0.6491    0.7364 O   0  0  0  0  0  0  0  0  0  0  0  0
   -2.7829   -0.6205    0.4321 C   0  0  0  0  0  0  0  0  0  0  0  0
   -3.8653   -0.4969    0.4951 H   0  0  0  0  0  0  0  0  0  0  0  0
   -2.4651   -1.3852    1.1529 H   0  0  0  0  0  0  0  0  0  0  0  0
   -2.5156   -0.9474   -0.5809 H   0  0  0  0  0  0  0  0  0  0  0  0
    4.3987    0.9027   -0.0541 S   0  0  0  0  0  0  0  0  0  0  0  0
    3.2397    1.5896    0.8637 O   0  0  0  0  0  0  0  0  0  0  0  0
    3.8913    0.5311   -1.3544 O   0  0  0  0  0  0  0  0  0  0  0  0
    5.5595    1.7410    0.1575 O   0  0  0  0  0  0  0  0  0  0  0  0
    4.6280   -0.5074    0.7339 O   0  0  0  0  0  0  0  0  0  0  0  0
    5.1792   -0.3280    1.5150 H   0  0  0  0  0  0  0  0  0  0  0  0
  1  2  2  0  0  0  0
  1  6  1  0  0  0  0
  2  3  1  0  0  0  0
  3 19  1  0  0  0  0
  3  4  2  0  0  0  0
  4  9  1  0  0  0  0
  5  4  1  0  0  0  0
  5 10  1  0  0  0  0
  6 13  1  0  0  0  0
  6  5  2  0  0  0  0
  7  1  1  0  0  0  0
  8  2  1  0  0  0  0
 12 11  3  0  0  0  0
 14 15  1  0  0  0  0
 14 13  1  0  0  0  0
 14 16  1  0  0  0  0
 17 14  1  0  0  0  0
 18 21  2  0  0  0  0
 18 22  1  0  0  0  0
 18 19  1  0  0  0  0
 20 18  2  0  0  0  0
 22 23  1  0  0  0  0
M  END
