Coordinates from ORCA-job 4-MeO-Ph-N2-HSO4-B3LYPG-6-31G_dp-MTMO-d009-169-n800
 OpenBabel09051907533D

 23 22  0  0  0  0  0  0  0  0999 V2000
   -0.4156   -0.5377    0.7710 C   0  0  0  0  0  0  0  0  0  0  0  0
    0.8288    0.0950    0.7139 C   0  0  0  0  0  0  0  0  0  0  0  0
    0.9511    1.4086    1.1444 C   0  0  0  0  0  0  0  0  0  0  0  0
   -0.1465    2.1169    1.6341 C   0  0  0  0  0  0  0  0  0  0  0  0
   -1.3839    1.4911    1.6897 C   0  0  0  0  0  0  0  0  0  0  0  0
   -1.5273    0.1618    1.2586 C   0  0  0  0  0  0  0  0  0  0  0  0
   -0.5022   -1.5636    0.4360 H   0  0  0  0  0  0  0  0  0  0  0  0
    1.6995   -0.4321    0.3404 H   0  0  0  0  0  0  0  0  0  0  0  0
   -0.0232    3.1428    1.9606 H   0  0  0  0  0  0  0  0  0  0  0  0
   -2.2590    2.0113    2.0636 H   0  0  0  0  0  0  0  0  0  0  0  0
   11.5461    0.6627   -4.2967 N   0  0  0  0  0  0  0  0  0  0  0  0
   10.5049    0.5622   -3.9397 N   0  0  0  0  0  0  0  0  0  0  0  0
   -2.7833   -0.3552    1.3569 O   0  0  0  0  0  0  0  0  0  0  0  0
   -3.0009   -1.6882    0.9180 C   0  0  0  0  0  0  0  0  0  0  0  0
   -4.0618   -1.8869    1.0763 H   0  0  0  0  0  0  0  0  0  0  0  0
   -2.4095   -2.4071    1.4986 H   0  0  0  0  0  0  0  0  0  0  0  0
   -2.7658   -1.8054   -0.1477 H   0  0  0  0  0  0  0  0  0  0  0  0
    2.6606    2.9627   -0.0999 S   0  0  0  0  0  0  0  0  0  0  0  0
    2.2296    2.0076    1.1607 O   0  0  0  0  0  0  0  0  0  0  0  0
    1.5323    3.7520   -0.5382 O   0  0  0  0  0  0  0  0  0  0  0  0
    3.9381    3.5234    0.2913 O   0  0  0  0  0  0  0  0  0  0  0  0
    2.9222    1.8593   -1.2721 O   0  0  0  0  0  0  0  0  0  0  0  0
    3.8506    1.5795   -1.1988 H   0  0  0  0  0  0  0  0  0  0  0  0
  1  6  1  0  0  0  0
  2  1  2  0  0  0  0
  2  3  1  0  0  0  0
  3 19  1  0  0  0  0
  3  4  2  0  0  0  0
  4  5  1  0  0  0  0
  4  9  1  0  0  0  0
  5 10  1  0  0  0  0
  6 13  1  0  0  0  0
  6  5  2  0  0  0  0
  7  1  1  0  0  0  0
  8  2  1  0  0  0  0
 11 12  3  0  0  0  0
 14 15  1  0  0  0  0
 14 13  1  0  0  0  0
 14 16  1  0  0  0  0
 17 14  1  0  0  0  0
 18 21  2  0  0  0  0
 18 19  1  0  0  0  0
 20 18  2  0  0  0  0
 22 23  1  0  0  0  0
 22 18  1  0  0  0  0
M  END
