Coordinates from ORCA-job 4-MeO-Ph-N2-HSO4-B3LYPG-6-31G_dp-MTMO-d009-169-n800
 OpenBabel09051907533D

 23 22  0  0  0  0  0  0  0  0999 V2000
   -0.6970   -0.5301    0.8946 C   0  0  0  0  0  0  0  0  0  0  0  0
    0.5428    0.1121    0.8420 C   0  0  0  0  0  0  0  0  0  0  0  0
    0.6547    1.4247    1.2785 C   0  0  0  0  0  0  0  0  0  0  0  0
   -0.4487    2.1225    1.7701 C   0  0  0  0  0  0  0  0  0  0  0  0
   -1.6815    1.4872    1.8214 C   0  0  0  0  0  0  0  0  0  0  0  0
   -1.8145    0.1588    1.3839 C   0  0  0  0  0  0  0  0  0  0  0  0
   -0.7754   -1.5550    0.5547 H   0  0  0  0  0  0  0  0  0  0  0  0
    1.4178   -0.4067    0.4671 H   0  0  0  0  0  0  0  0  0  0  0  0
   -0.3336    3.1478    2.1016 H   0  0  0  0  0  0  0  0  0  0  0  0
   -2.5609    1.9990    2.1966 H   0  0  0  0  0  0  0  0  0  0  0  0
   14.6018    0.5539   -5.6520 N   0  0  0  0  0  0  0  0  0  0  0  0
   13.5599    0.4493   -5.2980 N   0  0  0  0  0  0  0  0  0  0  0  0
   -3.0668   -0.3679    1.4780 O   0  0  0  0  0  0  0  0  0  0  0  0
   -3.2740   -1.7001    1.0320 C   0  0  0  0  0  0  0  0  0  0  0  0
   -4.3337   -1.9072    1.1872 H   0  0  0  0  0  0  0  0  0  0  0  0
   -2.6786   -2.4177    1.6101 H   0  0  0  0  0  0  0  0  0  0  0  0
   -3.0361   -1.8102   -0.0338 H   0  0  0  0  0  0  0  0  0  0  0  0
    2.3540    2.9962    0.0426 S   0  0  0  0  0  0  0  0  0  0  0  0
    1.9286    2.0332    1.2989 O   0  0  0  0  0  0  0  0  0  0  0  0
    1.2210    3.7806   -0.3925 O   0  0  0  0  0  0  0  0  0  0  0  0
    3.6282    3.5628    0.4361 O   0  0  0  0  0  0  0  0  0  0  0  0
    2.6227    1.8992   -1.1343 O   0  0  0  0  0  0  0  0  0  0  0  0
    3.5540    1.6285   -1.0639 H   0  0  0  0  0  0  0  0  0  0  0  0
  1  6  1  0  0  0  0
  2  1  2  0  0  0  0
  2  3  1  0  0  0  0
  3 19  1  0  0  0  0
  3  4  2  0  0  0  0
  4  5  1  0  0  0  0
  4  9  1  0  0  0  0
  5 10  1  0  0  0  0
  6 13  1  0  0  0  0
  6  5  2  0  0  0  0
  7  1  1  0  0  0  0
  8  2  1  0  0  0  0
 11 12  3  0  0  0  0
 14 15  1  0  0  0  0
 14 13  1  0  0  0  0
 14 16  1  0  0  0  0
 17 14  1  0  0  0  0
 18 21  2  0  0  0  0
 18 19  1  0  0  0  0
 20 18  2  0  0  0  0
 22 23  1  0  0  0  0
 22 18  1  0  0  0  0
M  END
