Coordinates from ORCA-job 4-MeO-Ph-N2-HSO4-B3LYPG-6-31G_dp-MTMO-d009-169-n800
 OpenBabel09051907533D

 23 22  0  0  0  0  0  0  0  0999 V2000
   -0.2548   -0.5493    0.7059 C   0  0  0  0  0  0  0  0  0  0  0  0
    1.0019    0.0583    0.6442 C   0  0  0  0  0  0  0  0  0  0  0  0
    1.1475    1.3763    1.0531 C   0  0  0  0  0  0  0  0  0  0  0  0
    0.0614    2.1140    1.5248 C   0  0  0  0  0  0  0  0  0  0  0  0
   -1.1881    1.5133    1.5848 C   0  0  0  0  0  0  0  0  0  0  0  0
   -1.3550    0.1796    1.1761 C   0  0  0  0  0  0  0  0  0  0  0  0
   -0.3600   -1.5790    0.3881 H   0  0  0  0  0  0  0  0  0  0  0  0
    1.8640   -0.4918    0.2840 H   0  0  0  0  0  0  0  0  0  0  0  0
    0.2030    3.1429    1.8345 H   0  0  0  0  0  0  0  0  0  0  0  0
   -2.0547    2.0567    1.9453 H   0  0  0  0  0  0  0  0  0  0  0  0
    9.5823    0.8514   -3.4391 N   0  0  0  0  0  0  0  0  0  0  0  0
    8.5454    0.7798   -3.0632 N   0  0  0  0  0  0  0  0  0  0  0  0
   -2.6211   -0.3115    1.2780 O   0  0  0  0  0  0  0  0  0  0  0  0
   -2.8617   -1.6488    0.8648 C   0  0  0  0  0  0  0  0  0  0  0  0
   -3.9264   -1.8253    1.0241 H   0  0  0  0  0  0  0  0  0  0  0  0
   -2.2847   -2.3666    1.4610 H   0  0  0  0  0  0  0  0  0  0  0  0
   -2.6263   -1.7913   -0.1977 H   0  0  0  0  0  0  0  0  0  0  0  0
    2.8932    2.8786   -0.2055 S   0  0  0  0  0  0  0  0  0  0  0  0
    2.4373    1.9504    1.0666 O   0  0  0  0  0  0  0  0  0  0  0  0
    1.7795    3.6754   -0.6673 O   0  0  0  0  0  0  0  0  0  0  0  0
    4.1742    3.4290    0.1887 O   0  0  0  0  0  0  0  0  0  0  0  0
    3.1514    1.7529   -1.3568 O   0  0  0  0  0  0  0  0  0  0  0  0
    4.0768    1.4657   -1.2735 H   0  0  0  0  0  0  0  0  0  0  0  0
  1  6  1  0  0  0  0
  2  1  2  0  0  0  0
  2  3  1  0  0  0  0
  3 19  1  0  0  0  0
  3  4  2  0  0  0  0
  4  5  1  0  0  0  0
  4  9  1  0  0  0  0
  5 10  1  0  0  0  0
  6 13  1  0  0  0  0
  6  5  2  0  0  0  0
  7  1  1  0  0  0  0
  8  2  1  0  0  0  0
 11 12  3  0  0  0  0
 14 15  1  0  0  0  0
 14 13  1  0  0  0  0
 14 16  1  0  0  0  0
 17 14  1  0  0  0  0
 18 21  2  0  0  0  0
 18 19  1  0  0  0  0
 20 18  2  0  0  0  0
 22 23  1  0  0  0  0
 22 18  1  0  0  0  0
M  END
