Coordinates from ORCA-job 4-MeO-Ph-N2-HSO4-B3LYPG-6-31G_dp-MTMO-d009-169-n800
 OpenBabel09051907533D

 23 22  0  0  0  0  0  0  0  0999 V2000
   -0.1894   -0.5647    0.7030 C   0  0  0  0  0  0  0  0  0  0  0  0
    1.0870    0.0020    0.6555 C   0  0  0  0  0  0  0  0  0  0  0  0
    1.2596    1.3323    1.0107 C   0  0  0  0  0  0  0  0  0  0  0  0
    0.1829    2.1225    1.4128 C   0  0  0  0  0  0  0  0  0  0  0  0
   -1.0857    1.5618    1.4599 C   0  0  0  0  0  0  0  0  0  0  0  0
   -1.2805    0.2163    1.1058 C   0  0  0  0  0  0  0  0  0  0  0  0
   -0.3169   -1.6039    0.4264 H   0  0  0  0  0  0  0  0  0  0  0  0
    1.9428   -0.5875    0.3464 H   0  0  0  0  0  0  0  0  0  0  0  0
    0.3470    3.1597    1.6814 H   0  0  0  0  0  0  0  0  0  0  0  0
   -1.9458    2.1460    1.7682 H   0  0  0  0  0  0  0  0  0  0  0  0
    8.2365    1.2632   -3.0820 N   0  0  0  0  0  0  0  0  0  0  0  0
    7.2718    1.2014   -2.5460 N   0  0  0  0  0  0  0  0  0  0  0  0
   -2.5635   -0.2327    1.1903 O   0  0  0  0  0  0  0  0  0  0  0  0
   -2.8313   -1.5818    0.8366 C   0  0  0  0  0  0  0  0  0  0  0  0
   -3.9045   -1.7211    0.9747 H   0  0  0  0  0  0  0  0  0  0  0  0
   -2.2908   -2.2844    1.4833 H   0  0  0  0  0  0  0  0  0  0  0  0
   -2.5721   -1.7838   -0.2104 H   0  0  0  0  0  0  0  0  0  0  0  0
    3.1152    2.6818   -0.2717 S   0  0  0  0  0  0  0  0  0  0  0  0
    2.5648    1.8713    1.0424 O   0  0  0  0  0  0  0  0  0  0  0  0
    2.0261    3.3879   -0.9081 O   0  0  0  0  0  0  0  0  0  0  0  0
    4.3398    3.3171    0.1736 O   0  0  0  0  0  0  0  0  0  0  0  0
    3.5186    1.4560   -1.2692 O   0  0  0  0  0  0  0  0  0  0  0  0
    4.4734    1.3010   -1.1625 H   0  0  0  0  0  0  0  0  0  0  0  0
  1  6  1  0  0  0  0
  2  1  2  0  0  0  0
  2  3  1  0  0  0  0
  3 19  1  0  0  0  0
  3  4  2  0  0  0  0
  4  5  1  0  0  0  0
  4  9  1  0  0  0  0
  5 10  1  0  0  0  0
  6 13  1  0  0  0  0
  6  5  2  0  0  0  0
  7  1  1  0  0  0  0
  8  2  1  0  0  0  0
 11 12  3  0  0  0  0
 14 15  1  0  0  0  0
 14 13  1  0  0  0  0
 14 16  1  0  0  0  0
 17 14  1  0  0  0  0
 18 21  2  0  0  0  0
 18 19  1  0  0  0  0
 20 18  2  0  0  0  0
 22 23  1  0  0  0  0
 22 18  1  0  0  0  0
M  END
