Coordinates from ORCA-job 4-MeO-Ph-N2-HSO4-B3LYPG-6-31G_dp-MTMO-d009-169-n800
 OpenBabel09051907533D

 23 22  0  0  0  0  0  0  0  0999 V2000
   -0.2749   -0.5474    0.7125 C   0  0  0  0  0  0  0  0  0  0  0  0
    0.9799    0.0639    0.6503 C   0  0  0  0  0  0  0  0  0  0  0  0
    1.1228    1.3809    1.0638 C   0  0  0  0  0  0  0  0  0  0  0  0
    0.0356    2.1137    1.5407 C   0  0  0  0  0  0  0  0  0  0  0  0
   -1.2120    1.5092    1.6013 C   0  0  0  0  0  0  0  0  0  0  0  0
   -1.3761    0.1766    1.1879 C   0  0  0  0  0  0  0  0  0  0  0  0
   -0.3778   -1.5762    0.3910 H   0  0  0  0  0  0  0  0  0  0  0  0
    1.8428   -0.4823    0.2861 H   0  0  0  0  0  0  0  0  0  0  0  0
    0.1751    3.1417    1.8540 H   0  0  0  0  0  0  0  0  0  0  0  0
   -2.0793    2.0487    1.9658 H   0  0  0  0  0  0  0  0  0  0  0  0
    9.8359    0.8228   -3.5416 N   0  0  0  0  0  0  0  0  0  0  0  0
    8.7975    0.7449   -3.1713 N   0  0  0  0  0  0  0  0  0  0  0  0
   -2.6406   -0.3185    1.2906 O   0  0  0  0  0  0  0  0  0  0  0  0
   -2.8785   -1.6546    0.8721 C   0  0  0  0  0  0  0  0  0  0  0  0
   -3.9424   -1.8345    1.0327 H   0  0  0  0  0  0  0  0  0  0  0  0
   -2.2984   -2.3734    1.4641 H   0  0  0  0  0  0  0  0  0  0  0  0
   -2.6447   -1.7918   -0.1915 H   0  0  0  0  0  0  0  0  0  0  0  0
    2.8612    2.8922   -0.1938 S   0  0  0  0  0  0  0  0  0  0  0  0
    2.4109    1.9587    1.0764 O   0  0  0  0  0  0  0  0  0  0  0  0
    1.7448    3.6888   -0.6494 O   0  0  0  0  0  0  0  0  0  0  0  0
    4.1426    3.4433    0.1984 O   0  0  0  0  0  0  0  0  0  0  0  0
    3.1175    1.7709   -1.3500 O   0  0  0  0  0  0  0  0  0  0  0  0
    4.0429    1.4832   -1.2690 H   0  0  0  0  0  0  0  0  0  0  0  0
  1  6  1  0  0  0  0
  2  1  2  0  0  0  0
  2  3  1  0  0  0  0
  3 19  1  0  0  0  0
  3  4  2  0  0  0  0
  4  5  1  0  0  0  0
  4  9  1  0  0  0  0
  5 10  1  0  0  0  0
  6 13  1  0  0  0  0
  6  5  2  0  0  0  0
  7  1  1  0  0  0  0
  8  2  1  0  0  0  0
 11 12  3  0  0  0  0
 14 15  1  0  0  0  0
 14 13  1  0  0  0  0
 14 16  1  0  0  0  0
 17 14  1  0  0  0  0
 18 21  2  0  0  0  0
 18 19  1  0  0  0  0
 20 18  2  0  0  0  0
 22 23  1  0  0  0  0
 22 18  1  0  0  0  0
M  END
