Coordinates from ORCA-job 4-MeO-Ph-N2-HSO4-B3LYPG-6-31G_dp-MTMO-d009-169-n800
 OpenBabel09051907533D

 23 22  0  0  0  0  0  0  0  0999 V2000
   -0.1388   -0.4907    1.1173 C   0  0  0  0  0  0  0  0  0  0  0  0
    1.2286   -0.2241    1.2254 C   0  0  0  0  0  0  0  0  0  0  0  0
    1.7256    0.9966    0.7906 C   0  0  0  0  0  0  0  0  0  0  0  0
    0.8888    1.9695    0.2430 C   0  0  0  0  0  0  0  0  0  0  0  0
   -0.4692    1.7050    0.1336 C   0  0  0  0  0  0  0  0  0  0  0  0
   -0.9919    0.4753    0.5680 C   0  0  0  0  0  0  0  0  0  0  0  0
   -0.5201   -1.4436    1.4623 H   0  0  0  0  0  0  0  0  0  0  0  0
    1.9027   -0.9601    1.6486 H   0  0  0  0  0  0  0  0  0  0  0  0
    1.3044    2.9125   -0.0923 H   0  0  0  0  0  0  0  0  0  0  0  0
   -1.1504    2.4371   -0.2860 H   0  0  0  0  0  0  0  0  0  0  0  0
    3.0115    4.6310   -1.4209 N   0  0  0  0  0  0  0  0  0  0  0  0
    3.7903    4.9793   -2.1230 N   0  0  0  0  0  0  0  0  0  0  0  0
   -2.3365    0.3220    0.4144 O   0  0  0  0  0  0  0  0  0  0  0  0
   -2.9273   -0.9031    0.8225 C   0  0  0  0  0  0  0  0  0  0  0  0
   -3.9913   -0.8127    0.5982 H   0  0  0  0  0  0  0  0  0  0  0  0
   -2.7978   -1.0756    1.8985 H   0  0  0  0  0  0  0  0  0  0  0  0
   -2.5135   -1.7554    0.2692 H   0  0  0  0  0  0  0  0  0  0  0  0
    4.1350    1.0379   -0.2510 S   0  0  0  0  0  0  0  0  0  0  0  0
    3.0939    1.2875    0.9873 O   0  0  0  0  0  0  0  0  0  0  0  0
    3.5162    1.3925   -1.5082 O   0  0  0  0  0  0  0  0  0  0  0  0
    5.3918    1.5900    0.2140 O   0  0  0  0  0  0  0  0  0  0  0  0
    4.2594   -0.5885   -0.2539 O   0  0  0  0  0  0  0  0  0  0  0  0
    4.9736   -0.8214    0.3635 H   0  0  0  0  0  0  0  0  0  0  0  0
  1  2  1  0  0  0  0
  1  7  1  0  0  0  0
  2  8  1  0  0  0  0
  3 19  1  0  0  0  0
  3  2  2  0  0  0  0
  4  3  1  0  0  0  0
  5  4  2  0  0  0  0
  5  6  1  0  0  0  0
  6  1  2  0  0  0  0
  9  4  1  0  0  0  0
 10  5  1  0  0  0  0
 12 11  3  0  0  0  0
 13  6  1  0  0  0  0
 13 14  1  0  0  0  0
 14 16  1  0  0  0  0
 15 14  1  0  0  0  0
 17 14  1  0  0  0  0
 18 21  2  0  0  0  0
 18 19  1  0  0  0  0
 20 18  2  0  0  0  0
 22 18  1  0  0  0  0
 22 23  1  0  0  0  0
M  END
