Coordinates from ORCA-job 4-MeO-Ph-N2-HSO4-B3LYPG-6-31G_dp-MTMO-d009-169-n800
 OpenBabel09051907533D

 23 22  0  0  0  0  0  0  0  0999 V2000
   -0.7473   -0.5294    0.9162 C   0  0  0  0  0  0  0  0  0  0  0  0
    0.4927    0.1121    0.8632 C   0  0  0  0  0  0  0  0  0  0  0  0
    0.6055    1.4246    1.2997 C   0  0  0  0  0  0  0  0  0  0  0  0
   -0.4974    2.1230    1.7918 C   0  0  0  0  0  0  0  0  0  0  0  0
   -1.7304    1.4883    1.8435 C   0  0  0  0  0  0  0  0  0  0  0  0
   -1.8643    0.1600    1.4060 C   0  0  0  0  0  0  0  0  0  0  0  0
   -0.8265   -1.5543    0.5764 H   0  0  0  0  0  0  0  0  0  0  0  0
    1.3674   -0.4071    0.4879 H   0  0  0  0  0  0  0  0  0  0  0  0
   -0.3816    3.1482    2.1232 H   0  0  0  0  0  0  0  0  0  0  0  0
   -2.6094    2.0006    2.2191 H   0  0  0  0  0  0  0  0  0  0  0  0
   15.1230    0.5475   -5.8790 N   0  0  0  0  0  0  0  0  0  0  0  0
   14.0807    0.4466   -5.5253 N   0  0  0  0  0  0  0  0  0  0  0  0
   -3.1168   -0.3660    1.5007 O   0  0  0  0  0  0  0  0  0  0  0  0
   -3.3249   -1.6981    1.0547 C   0  0  0  0  0  0  0  0  0  0  0  0
   -4.3847   -1.9047    1.2104 H   0  0  0  0  0  0  0  0  0  0  0  0
   -2.7296   -2.4160    1.6325 H   0  0  0  0  0  0  0  0  0  0  0  0
   -3.0875   -1.8083   -0.0112 H   0  0  0  0  0  0  0  0  0  0  0  0
    2.3053    2.9951    0.0632 S   0  0  0  0  0  0  0  0  0  0  0  0
    1.8797    2.0324    1.3197 O   0  0  0  0  0  0  0  0  0  0  0  0
    1.1725    3.7797   -0.3720 O   0  0  0  0  0  0  0  0  0  0  0  0
    3.5797    3.5615    0.4566 O   0  0  0  0  0  0  0  0  0  0  0  0
    2.5737    1.8978   -1.1134 O   0  0  0  0  0  0  0  0  0  0  0  0
    3.5050    1.6269   -1.0429 H   0  0  0  0  0  0  0  0  0  0  0  0
  1  6  1  0  0  0  0
  2  1  2  0  0  0  0
  2  3  1  0  0  0  0
  3 19  1  0  0  0  0
  3  4  2  0  0  0  0
  4  5  1  0  0  0  0
  4  9  1  0  0  0  0
  5 10  1  0  0  0  0
  6 13  1  0  0  0  0
  6  5  2  0  0  0  0
  7  1  1  0  0  0  0
  8  2  1  0  0  0  0
 11 12  3  0  0  0  0
 14 15  1  0  0  0  0
 14 13  1  0  0  0  0
 14 16  1  0  0  0  0
 17 14  1  0  0  0  0
 18 21  2  0  0  0  0
 18 19  1  0  0  0  0
 20 18  2  0  0  0  0
 22 23  1  0  0  0  0
 22 18  1  0  0  0  0
M  END
