Coordinates from ORCA-job 4-MeO-Ph-N2-HSO4-B3LYPG-6-31G_dp-MTMO-d009-169-n800
 OpenBabel09051907533D

 23 22  0  0  0  0  0  0  0  0999 V2000
   -0.3105   -0.5445    0.7250 C   0  0  0  0  0  0  0  0  0  0  0  0
    0.9415    0.0726    0.6623 C   0  0  0  0  0  0  0  0  0  0  0  0
    1.0798    1.3880    1.0826 C   0  0  0  0  0  0  0  0  0  0  0  0
   -0.0091    2.1133    1.5669 C   0  0  0  0  0  0  0  0  0  0  0  0
   -1.2539    1.5029    1.6280 C   0  0  0  0  0  0  0  0  0  0  0  0
   -1.4134    0.1720    1.2076 C   0  0  0  0  0  0  0  0  0  0  0  0
   -0.4098   -1.5720    0.3982 H   0  0  0  0  0  0  0  0  0  0  0  0
    1.8056   -0.4678    0.2926 H   0  0  0  0  0  0  0  0  0  0  0  0
    0.1268    3.1402    1.8854 H   0  0  0  0  0  0  0  0  0  0  0  0
   -2.1224    2.0366    1.9981 H   0  0  0  0  0  0  0  0  0  0  0  0
   10.2736    0.7793   -3.7230 N   0  0  0  0  0  0  0  0  0  0  0  0
    9.2332    0.6915   -3.3604 N   0  0  0  0  0  0  0  0  0  0  0  0
   -2.6754   -0.3292    1.3113 O   0  0  0  0  0  0  0  0  0  0  0  0
   -2.9089   -1.6636    0.8850 C   0  0  0  0  0  0  0  0  0  0  0  0
   -3.9716   -1.8489    1.0471 H   0  0  0  0  0  0  0  0  0  0  0  0
   -2.3245   -2.3837    1.4711 H   0  0  0  0  0  0  0  0  0  0  0  0
   -2.6772   -1.7932   -0.1800 H   0  0  0  0  0  0  0  0  0  0  0  0
    2.8077    2.9127   -0.1730 S   0  0  0  0  0  0  0  0  0  0  0  0
    2.3653    1.9715    1.0942 O   0  0  0  0  0  0  0  0  0  0  0  0
    1.6872    3.7080   -0.6205 O   0  0  0  0  0  0  0  0  0  0  0  0
    4.0890    3.4657    0.2169 O   0  0  0  0  0  0  0  0  0  0  0  0
    3.0628    1.7977   -1.3356 O   0  0  0  0  0  0  0  0  0  0  0  0
    3.9890    1.5115   -1.2587 H   0  0  0  0  0  0  0  0  0  0  0  0
  1  6  1  0  0  0  0
  2  1  2  0  0  0  0
  2  3  1  0  0  0  0
  3 19  1  0  0  0  0
  3  4  2  0  0  0  0
  4  5  1  0  0  0  0
  4  9  1  0  0  0  0
  5 10  1  0  0  0  0
  6 13  1  0  0  0  0
  6  5  2  0  0  0  0
  7  1  1  0  0  0  0
  8  2  1  0  0  0  0
 11 12  3  0  0  0  0
 14 15  1  0  0  0  0
 14 13  1  0  0  0  0
 14 16  1  0  0  0  0
 17 14  1  0  0  0  0
 18 21  2  0  0  0  0
 18 19  1  0  0  0  0
 20 18  2  0  0  0  0
 22 23  1  0  0  0  0
 22 18  1  0  0  0  0
M  END
