Coordinates from ORCA-job 4-MeO-Ph-N2-HSO4-B3LYPG-6-31G_dp-MTMO-d009-169-n800
 OpenBabel09051907533D

 23 22  0  0  0  0  0  0  0  0999 V2000
   -0.1262   -0.3463    1.1782 C   0  0  0  0  0  0  0  0  0  0  0  0
    1.2297   -0.0088    1.1601 C   0  0  0  0  0  0  0  0  0  0  0  0
    1.6518    1.0918    0.4279 C   0  0  0  0  0  0  0  0  0  0  0  0
    0.7506    1.8727   -0.2958 C   0  0  0  0  0  0  0  0  0  0  0  0
   -0.5963    1.5391   -0.2783 C   0  0  0  0  0  0  0  0  0  0  0  0
   -1.0436    0.4285    0.4568 C   0  0  0  0  0  0  0  0  0  0  0  0
   -0.4488   -1.2063    1.7522 H   0  0  0  0  0  0  0  0  0  0  0  0
    1.9525   -0.5980    1.7132 H   0  0  0  0  0  0  0  0  0  0  0  0
    1.1110    2.7276   -0.8562 H   0  0  0  0  0  0  0  0  0  0  0  0
   -1.3257    2.1242   -0.8276 H   0  0  0  0  0  0  0  0  0  0  0  0
    3.4504    4.5442   -0.5908 N   0  0  0  0  0  0  0  0  0  0  0  0
    4.2731    5.1386   -0.1541 N   0  0  0  0  0  0  0  0  0  0  0  0
   -2.3839    0.1922    0.4060 O   0  0  0  0  0  0  0  0  0  0  0  0
   -2.9018   -0.9172    1.1244 C   0  0  0  0  0  0  0  0  0  0  0  0
   -3.9781   -0.9153    0.9453 H   0  0  0  0  0  0  0  0  0  0  0  0
   -2.7144   -0.8242    2.2023 H   0  0  0  0  0  0  0  0  0  0  0  0
   -2.4787   -1.8641    0.7663 H   0  0  0  0  0  0  0  0  0  0  0  0
    4.0270    0.9146   -0.6741 S   0  0  0  0  0  0  0  0  0  0  0  0
    3.0092    1.4768    0.4806 O   0  0  0  0  0  0  0  0  0  0  0  0
    3.3372    0.7895   -1.9373 O   0  0  0  0  0  0  0  0  0  0  0  0
    5.2438    1.6800   -0.4865 O   0  0  0  0  0  0  0  0  0  0  0  0
    4.2983   -0.6085   -0.1551 O   0  0  0  0  0  0  0  0  0  0  0  0
    5.0475   -0.5702    0.4636 H   0  0  0  0  0  0  0  0  0  0  0  0
  1  7  1  0  0  0  0
  2  1  1  0  0  0  0
  2  8  1  0  0  0  0
  3 19  1  0  0  0  0
  3  2  2  0  0  0  0
  4  5  2  0  0  0  0
  4  3  1  0  0  0  0
  5  6  1  0  0  0  0
  6  1  2  0  0  0  0
  9  4  1  0  0  0  0
 10  5  1  0  0  0  0
 11 12  3  0  0  0  0
 13  6  1  0  0  0  0
 13 14  1  0  0  0  0
 14 16  1  0  0  0  0
 15 14  1  0  0  0  0
 17 14  1  0  0  0  0
 18 21  2  0  0  0  0
 18 22  1  0  0  0  0
 18 19  1  0  0  0  0
 20 18  2  0  0  0  0
 22 23  1  0  0  0  0
M  END
