Coordinates from ORCA-job 4-MeO-Ph-N2-HSO4-B3LYPG-6-31G_dp-MTMO-d009-169-n800
 OpenBabel09051907533D

 23 22  0  0  0  0  0  0  0  0999 V2000
   -0.2776   -0.5472    0.7134 C   0  0  0  0  0  0  0  0  0  0  0  0
    0.9770    0.0646    0.6511 C   0  0  0  0  0  0  0  0  0  0  0  0
    1.1195    1.3815    1.0652 C   0  0  0  0  0  0  0  0  0  0  0  0
    0.0322    2.1137    1.5428 C   0  0  0  0  0  0  0  0  0  0  0  0
   -1.2152    1.5087    1.6035 C   0  0  0  0  0  0  0  0  0  0  0  0
   -1.3790    0.1762    1.1894 C   0  0  0  0  0  0  0  0  0  0  0  0
   -0.3802   -1.5759    0.3915 H   0  0  0  0  0  0  0  0  0  0  0  0
    1.8399   -0.4812    0.2865 H   0  0  0  0  0  0  0  0  0  0  0  0
    0.1714    3.1416    1.8565 H   0  0  0  0  0  0  0  0  0  0  0  0
   -2.0826    2.0477    1.9684 H   0  0  0  0  0  0  0  0  0  0  0  0
    9.8697    0.8194   -3.5554 N   0  0  0  0  0  0  0  0  0  0  0  0
    8.8311    0.7406   -3.1857 N   0  0  0  0  0  0  0  0  0  0  0  0
   -2.6432   -0.3194    1.2923 O   0  0  0  0  0  0  0  0  0  0  0  0
   -2.8808   -1.6553    0.8731 C   0  0  0  0  0  0  0  0  0  0  0  0
   -3.9446   -1.8357    1.0338 H   0  0  0  0  0  0  0  0  0  0  0  0
   -2.3004   -2.3742    1.4646 H   0  0  0  0  0  0  0  0  0  0  0  0
   -2.6472   -1.7919   -0.1906 H   0  0  0  0  0  0  0  0  0  0  0  0
    2.8570    2.8938   -0.1923 S   0  0  0  0  0  0  0  0  0  0  0  0
    2.4074    1.9597    1.0777 O   0  0  0  0  0  0  0  0  0  0  0  0
    1.7403    3.6904   -0.6471 O   0  0  0  0  0  0  0  0  0  0  0  0
    4.1384    3.4450    0.1997 O   0  0  0  0  0  0  0  0  0  0  0  0
    3.1131    1.7731   -1.3490 O   0  0  0  0  0  0  0  0  0  0  0  0
    4.0386    1.4854   -1.2683 H   0  0  0  0  0  0  0  0  0  0  0  0
  1  6  1  0  0  0  0
  2  1  2  0  0  0  0
  2  3  1  0  0  0  0
  3 19  1  0  0  0  0
  3  4  2  0  0  0  0
  4  5  1  0  0  0  0
  4  9  1  0  0  0  0
  5 10  1  0  0  0  0
  6 13  1  0  0  0  0
  6  5  2  0  0  0  0
  7  1  1  0  0  0  0
  8  2  1  0  0  0  0
 11 12  3  0  0  0  0
 14 15  1  0  0  0  0
 14 13  1  0  0  0  0
 14 16  1  0  0  0  0
 17 14  1  0  0  0  0
 18 21  2  0  0  0  0
 18 19  1  0  0  0  0
 20 18  2  0  0  0  0
 22 23  1  0  0  0  0
 22 18  1  0  0  0  0
M  END
