Coordinates from ORCA-job 4-MeO-Ph-N2-HSO4-B3LYPG-6-31G_dp-MTMO-d009-169-n800
 OpenBabel09051907533D

 23 22  0  0  0  0  0  0  0  0999 V2000
   -0.6873   -0.5302    0.8903 C   0  0  0  0  0  0  0  0  0  0  0  0
    0.5524    0.1120    0.8377 C   0  0  0  0  0  0  0  0  0  0  0  0
    0.6643    1.4245    1.2743 C   0  0  0  0  0  0  0  0  0  0  0  0
   -0.4392    2.1223    1.7660 C   0  0  0  0  0  0  0  0  0  0  0  0
   -1.6719    1.4870    1.8173 C   0  0  0  0  0  0  0  0  0  0  0  0
   -1.8049    0.1586    1.3797 C   0  0  0  0  0  0  0  0  0  0  0  0
   -0.7658   -1.5552    0.5504 H   0  0  0  0  0  0  0  0  0  0  0  0
    1.4274   -0.4068    0.4627 H   0  0  0  0  0  0  0  0  0  0  0  0
   -0.3240    3.1476    2.0975 H   0  0  0  0  0  0  0  0  0  0  0  0
   -2.5513    1.9988    2.1926 H   0  0  0  0  0  0  0  0  0  0  0  0
   14.5012    0.5555   -5.6077 N   0  0  0  0  0  0  0  0  0  0  0  0
   13.4594    0.4503   -5.2537 N   0  0  0  0  0  0  0  0  0  0  0  0
   -3.0571   -0.3681    1.4739 O   0  0  0  0  0  0  0  0  0  0  0  0
   -3.2644   -1.7003    1.0278 C   0  0  0  0  0  0  0  0  0  0  0  0
   -4.3241   -1.9075    1.1831 H   0  0  0  0  0  0  0  0  0  0  0  0
   -2.6689   -2.4180    1.6058 H   0  0  0  0  0  0  0  0  0  0  0  0
   -3.0265   -1.8103   -0.0380 H   0  0  0  0  0  0  0  0  0  0  0  0
    2.3635    2.9961    0.0384 S   0  0  0  0  0  0  0  0  0  0  0  0
    1.9382    2.0331    1.2947 O   0  0  0  0  0  0  0  0  0  0  0  0
    1.2304    3.7806   -0.3966 O   0  0  0  0  0  0  0  0  0  0  0  0
    3.6377    3.5628    0.4318 O   0  0  0  0  0  0  0  0  0  0  0  0
    2.6321    1.8992   -1.1386 O   0  0  0  0  0  0  0  0  0  0  0  0
    3.5634    1.6286   -1.0683 H   0  0  0  0  0  0  0  0  0  0  0  0
  1  6  1  0  0  0  0
  2  1  2  0  0  0  0
  2  3  1  0  0  0  0
  3 19  1  0  0  0  0
  3  4  2  0  0  0  0
  4  5  1  0  0  0  0
  4  9  1  0  0  0  0
  5 10  1  0  0  0  0
  6 13  1  0  0  0  0
  6  5  2  0  0  0  0
  7  1  1  0  0  0  0
  8  2  1  0  0  0  0
 11 12  3  0  0  0  0
 14 15  1  0  0  0  0
 14 13  1  0  0  0  0
 14 16  1  0  0  0  0
 17 14  1  0  0  0  0
 18 21  2  0  0  0  0
 18 19  1  0  0  0  0
 20 18  2  0  0  0  0
 22 23  1  0  0  0  0
 22 18  1  0  0  0  0
M  END
