Coordinates from ORCA-job 4-MeO-Ph-N2-HSO4-B3LYPG-6-31G_dp-MTMO-d009-169-n800
 OpenBabel09051907533D

 23 22  0  0  0  0  0  0  0  0999 V2000
   -0.3665   -0.5407    0.7483 C   0  0  0  0  0  0  0  0  0  0  0  0
    0.8813    0.0850    0.6877 C   0  0  0  0  0  0  0  0  0  0  0  0
    1.0115    1.3990    1.1147 C   0  0  0  0  0  0  0  0  0  0  0  0
   -0.0816    2.1146    1.6041 C   0  0  0  0  0  0  0  0  0  0  0  0
   -1.3223    1.4957    1.6632 C   0  0  0  0  0  0  0  0  0  0  0  0
   -1.4736    0.1661    1.2358 C   0  0  0  0  0  0  0  0  0  0  0  0
   -0.4592   -1.5670    0.4161 H   0  0  0  0  0  0  0  0  0  0  0  0
    1.7486   -0.4478    0.3143 H   0  0  0  0  0  0  0  0  0  0  0  0
    0.0478    3.1407    1.9279 H   0  0  0  0  0  0  0  0  0  0  0  0
   -2.1940    2.0217    2.0370 H   0  0  0  0  0  0  0  0  0  0  0  0
   10.9539    0.7158   -4.0243 N   0  0  0  0  0  0  0  0  0  0  0  0
    9.9128    0.6184   -3.6663 N   0  0  0  0  0  0  0  0  0  0  0  0
   -2.7322   -0.3438    1.3376 O   0  0  0  0  0  0  0  0  0  0  0  0
   -2.9576   -1.6770    0.9032 C   0  0  0  0  0  0  0  0  0  0  0  0
   -4.0192   -1.8698    1.0643 H   0  0  0  0  0  0  0  0  0  0  0  0
   -2.3687   -2.3972    1.4848 H   0  0  0  0  0  0  0  0  0  0  0  0
   -2.7254   -1.7987   -0.1626 H   0  0  0  0  0  0  0  0  0  0  0  0
    2.7279    2.9407   -0.1355 S   0  0  0  0  0  0  0  0  0  0  0  0
    2.2931    1.9910    1.1279 O   0  0  0  0  0  0  0  0  0  0  0  0
    1.6026    3.7331   -0.5762 O   0  0  0  0  0  0  0  0  0  0  0  0
    4.0075    3.4978    0.2541 O   0  0  0  0  0  0  0  0  0  0  0  0
    2.9853    1.8329   -1.3045 O   0  0  0  0  0  0  0  0  0  0  0  0
    3.9128    1.5501   -1.2306 H   0  0  0  0  0  0  0  0  0  0  0  0
  1  6  1  0  0  0  0
  2  1  2  0  0  0  0
  2  3  1  0  0  0  0
  3 19  1  0  0  0  0
  3  4  2  0  0  0  0
  4  5  1  0  0  0  0
  4  9  1  0  0  0  0
  5 10  1  0  0  0  0
  6 13  1  0  0  0  0
  6  5  2  0  0  0  0
  7  1  1  0  0  0  0
  8  2  1  0  0  0  0
 11 12  3  0  0  0  0
 14 15  1  0  0  0  0
 14 13  1  0  0  0  0
 14 16  1  0  0  0  0
 17 14  1  0  0  0  0
 18 21  2  0  0  0  0
 18 19  1  0  0  0  0
 20 18  2  0  0  0  0
 22 23  1  0  0  0  0
 22 18  1  0  0  0  0
M  END
