Coordinates from ORCA-job 4-MeO-Ph-N2-HSO4-B3LYPG-6-31G_dp-MTMO-d009-169-n800
 OpenBabel09051907533D

 23 23  0  0  1  0  0  0  0  0999 V2000
    0.2261    0.1552    0.4076 C   0  0  0  0  0  0  0  0  0  0  0  0
    1.5060    0.5654   -0.2099 C   0  0  1  0  0  0  0  0  0  0  0  0
    1.4977    1.9623   -0.8933 C   0  0  0  0  0  0  0  0  0  0  0  0
    0.3591    2.8563   -0.5600 C   0  0  0  0  0  0  0  0  0  0  0  0
   -0.6987    2.4178    0.1402 C   0  0  0  0  0  0  0  0  0  0  0  0
   -0.7829    1.0359    0.6011 C   0  0  0  0  0  0  0  0  0  0  0  0
    0.1727   -0.8765    0.7302 H   0  0  0  0  0  0  0  0  0  0  0  0
    1.8749   -0.1755   -0.9232 H   0  0  0  0  0  0  0  0  0  0  0  0
    0.4337    3.8777   -0.9197 H   0  0  0  0  0  0  0  0  0  0  0  0
   -1.5302    3.0729    0.3759 H   0  0  0  0  0  0  0  0  0  0  0  0
    2.2818    2.2276   -1.4546 N   0  0  0  0  0  0  0  0  0  0  0  0
    3.2202    2.5112   -2.0947 N   0  0  0  0  0  0  0  0  0  0  0  0
   -1.9697    0.7664    1.1941 O   0  0  0  0  0  0  0  0  0  0  0  0
   -2.1745   -0.5467    1.7063 C   0  0  0  0  0  0  0  0  0  0  0  0
   -3.1673   -0.5424    2.1566 H   0  0  0  0  0  0  0  0  0  0  0  0
   -1.4240   -0.7947    2.4655 H   0  0  0  0  0  0  0  0  0  0  0  0
   -2.1380   -1.2930    0.9036 H   0  0  0  0  0  0  0  0  0  0  0  0
    3.7804   -0.3806    0.8329 S   0  0  0  0  0  0  0  0  0  0  0  0
    3.2625   -1.7174    0.6222 O   0  0  0  0  0  0  0  0  0  0  0  0
    2.5664    0.6918    0.8544 O   0  0  0  0  0  0  0  0  0  0  0  0
    4.6297   -0.0181    1.9482 O   0  0  0  0  0  0  0  0  0  0  0  0
    4.5217   -0.0061   -0.5715 O   0  0  0  0  0  0  0  0  0  0  0  0
    4.9369    0.8710   -0.4908 H   0  0  0  0  0  0  0  0  0  0  0  0
  1  6  1  0  0  0  0
  1  7  1  0  0  0  0
  2  8  1  6  0  0  0
  2  1  1  0  0  0  0
  2 20  1  0  0  0  0
  3  4  2  0  0  0  0
  3  2  1  0  0  0  0
  4  5  1  0  0  0  0
  5 10  1  0  0  0  0
  5  6  2  0  0  0  0
  6 13  1  0  0  0  0
  9  4  1  0  0  0  0
 11  3  1  0  0  0  0
 12 11  1  0  0  0  0
 13 14  1  0  0  0  0
 14 15  1  0  0  0  0
 14 16  1  0  0  0  0
 17 14  1  0  0  0  0
 18 20  1  0  0  0  0
 18 21  2  0  0  0  0
 19 18  2  0  0  0  0
 22 23  1  0  0  0  0
 22 18  1  0  0  0  0
M  RAD  3   1   2  11   2  12   3
M  END
