Coordinates from ORCA-job 4-MeO-Ph-N2-HSO4-B3LYPG-6-31G_dp-MTMO-d009-169-n800
 OpenBabel09051907533D

 23 22  0  0  0  0  0  0  0  0999 V2000
   -0.6587   -0.5307    0.8774 C   0  0  0  0  0  0  0  0  0  0  0  0
    0.5810    0.1115    0.8244 C   0  0  0  0  0  0  0  0  0  0  0  0
    0.6933    1.4239    1.2613 C   0  0  0  0  0  0  0  0  0  0  0  0
   -0.4099    2.1216    1.7538 C   0  0  0  0  0  0  0  0  0  0  0  0
   -1.6427    1.4863    1.8055 C   0  0  0  0  0  0  0  0  0  0  0  0
   -1.7759    0.1581    1.3676 C   0  0  0  0  0  0  0  0  0  0  0  0
   -0.7374   -1.5555    0.5372 H   0  0  0  0  0  0  0  0  0  0  0  0
    1.4558   -0.4072    0.4488 H   0  0  0  0  0  0  0  0  0  0  0  0
   -0.2946    3.1468    2.0856 H   0  0  0  0  0  0  0  0  0  0  0  0
   -2.5218    1.9980    2.1814 H   0  0  0  0  0  0  0  0  0  0  0  0
   14.2002    0.5611   -5.4740 N   0  0  0  0  0  0  0  0  0  0  0  0
   13.1585    0.4538   -5.1203 N   0  0  0  0  0  0  0  0  0  0  0  0
   -3.0282   -0.3686    1.4622 O   0  0  0  0  0  0  0  0  0  0  0  0
   -3.2357   -1.7006    1.0157 C   0  0  0  0  0  0  0  0  0  0  0  0
   -4.2954   -1.9078    1.1715 H   0  0  0  0  0  0  0  0  0  0  0  0
   -2.6400   -2.4185    1.5932 H   0  0  0  0  0  0  0  0  0  0  0  0
   -2.9984   -1.8103   -0.0502 H   0  0  0  0  0  0  0  0  0  0  0  0
    2.3919    2.9958    0.0250 S   0  0  0  0  0  0  0  0  0  0  0  0
    1.9671    2.0324    1.2812 O   0  0  0  0  0  0  0  0  0  0  0  0
    1.2586    3.7805   -0.4090 O   0  0  0  0  0  0  0  0  0  0  0  0
    3.6663    3.5623    0.4180 O   0  0  0  0  0  0  0  0  0  0  0  0
    2.6597    1.8993   -1.1524 O   0  0  0  0  0  0  0  0  0  0  0  0
    3.5911    1.6286   -1.0828 H   0  0  0  0  0  0  0  0  0  0  0  0
  1  6  1  0  0  0  0
  2  1  2  0  0  0  0
  2  3  1  0  0  0  0
  3 19  1  0  0  0  0
  3  4  2  0  0  0  0
  4  5  1  0  0  0  0
  4  9  1  0  0  0  0
  5 10  1  0  0  0  0
  6 13  1  0  0  0  0
  6  5  2  0  0  0  0
  7  1  1  0  0  0  0
  8  2  1  0  0  0  0
 11 12  3  0  0  0  0
 14 15  1  0  0  0  0
 14 13  1  0  0  0  0
 14 16  1  0  0  0  0
 17 14  1  0  0  0  0
 18 21  2  0  0  0  0
 18 19  1  0  0  0  0
 20 18  2  0  0  0  0
 22 23  1  0  0  0  0
 22 18  1  0  0  0  0
M  END
