Coordinates from ORCA-job 4-MeO-Ph-N2-HSO4-B3LYPG-6-31G_dp-MTMO-d009-169-n800
 OpenBabel09051907533D

 23 23  0  0  1  0  0  0  0  0999 V2000
    0.2663    0.2046    0.2988 C   0  0  0  0  0  0  0  0  0  0  0  0
    1.4928    0.6882   -0.3584 C   0  0  1  0  0  0  0  0  0  0  0  0
    1.3391    2.0443   -0.9590 C   0  0  0  0  0  0  0  0  0  0  0  0
    0.2612    2.9258   -0.5747 C   0  0  0  0  0  0  0  0  0  0  0  0
   -0.7424    2.4501    0.1955 C   0  0  0  0  0  0  0  0  0  0  0  0
   -0.7505    1.0554    0.6032 C   0  0  0  0  0  0  0  0  0  0  0  0
    0.2598   -0.8380    0.5844 H   0  0  0  0  0  0  0  0  0  0  0  0
    1.9211   -0.0342   -1.0540 H   0  0  0  0  0  0  0  0  0  0  0  0
    0.2767    3.9524   -0.9246 H   0  0  0  0  0  0  0  0  0  0  0  0
   -1.5722    3.0743    0.5050 H   0  0  0  0  0  0  0  0  0  0  0  0
    2.2465    2.4457   -1.7685 N   0  0  0  0  0  0  0  0  0  0  0  0
    3.0615    2.7909   -2.4899 N   0  0  0  0  0  0  0  0  0  0  0  0
   -1.8823    0.7175    1.2672 O   0  0  0  0  0  0  0  0  0  0  0  0
   -2.0073   -0.6211    1.7359 C   0  0  0  0  0  0  0  0  0  0  0  0
   -2.9632   -0.6682    2.2586 H   0  0  0  0  0  0  0  0  0  0  0  0
   -1.1947   -0.8758    2.4263 H   0  0  0  0  0  0  0  0  0  0  0  0
   -2.0094   -1.3336    0.9024 H   0  0  0  0  0  0  0  0  0  0  0  0
    3.5958   -0.3951    0.9660 S   0  0  0  0  0  0  0  0  0  0  0  0
    2.8636   -1.6383    0.8016 O   0  0  0  0  0  0  0  0  0  0  0  0
    2.6335    0.8561    0.7287 O   0  0  0  0  0  0  0  0  0  0  0  0
    4.3943   -0.0980    2.1415 O   0  0  0  0  0  0  0  0  0  0  0  0
    4.5808   -0.3194   -0.3455 O   0  0  0  0  0  0  0  0  0  0  0  0
    5.3138    0.2772   -0.1194 H   0  0  0  0  0  0  0  0  0  0  0  0
  1  7  1  0  0  0  0
  1  6  1  0  0  0  0
  2  8  1  6  0  0  0
  2  1  1  0  0  0  0
  2 20  1  0  0  0  0
  3  4  2  0  0  0  0
  3  2  1  0  0  0  0
  4  5  1  0  0  0  0
  5 10  1  0  0  0  0
  5  6  2  0  0  0  0
  6 13  1  0  0  0  0
  9  4  1  0  0  0  0
 11  3  1  0  0  0  0
 12 11  1  0  0  0  0
 13 14  1  0  0  0  0
 14 15  1  0  0  0  0
 14 16  1  0  0  0  0
 17 14  1  0  0  0  0
 18 21  2  0  0  0  0
 19 18  2  0  0  0  0
 20 18  1  0  0  0  0
 22 23  1  0  0  0  0
 22 18  1  0  0  0  0
M  RAD  3   1   2  11   2  12   3
M  END
