Coordinates from ORCA-job 4-MeO-Ph-N2-HSO4-B3LYPG-6-31G_dp-MTMO-d009-169-n800
 OpenBabel09051907533D

 23 22  0  0  0  0  0  0  0  0999 V2000
   -0.5846   -0.5317    0.8451 C   0  0  0  0  0  0  0  0  0  0  0  0
    0.6549    0.1109    0.7922 C   0  0  0  0  0  0  0  0  0  0  0  0
    0.7666    1.4233    1.2293 C   0  0  0  0  0  0  0  0  0  0  0  0
   -0.3369    2.1205    1.7218 C   0  0  0  0  0  0  0  0  0  0  0  0
   -1.5694    1.4847    1.7734 C   0  0  0  0  0  0  0  0  0  0  0  0
   -1.7021    0.1565    1.3353 C   0  0  0  0  0  0  0  0  0  0  0  0
   -0.6628   -1.5566    0.5048 H   0  0  0  0  0  0  0  0  0  0  0  0
    1.5299   -0.4074    0.4166 H   0  0  0  0  0  0  0  0  0  0  0  0
   -0.2220    3.1457    2.0536 H   0  0  0  0  0  0  0  0  0  0  0  0
   -2.4488    1.9961    2.1492 H   0  0  0  0  0  0  0  0  0  0  0  0
   13.4277    0.5707   -5.1357 N   0  0  0  0  0  0  0  0  0  0  0  0
   12.3861    0.4632   -4.7820 N   0  0  0  0  0  0  0  0  0  0  0  0
   -2.9542   -0.3707    1.4298 O   0  0  0  0  0  0  0  0  0  0  0  0
   -3.1612   -1.7027    0.9831 C   0  0  0  0  0  0  0  0  0  0  0  0
   -4.2208   -1.9102    1.1387 H   0  0  0  0  0  0  0  0  0  0  0  0
   -2.5653   -2.4204    1.5605 H   0  0  0  0  0  0  0  0  0  0  0  0
   -2.9237   -1.8121   -0.0829 H   0  0  0  0  0  0  0  0  0  0  0  0
    2.4646    2.9961   -0.0068 S   0  0  0  0  0  0  0  0  0  0  0  0
    2.0402    2.0323    1.2493 O   0  0  0  0  0  0  0  0  0  0  0  0
    1.3311    3.7806   -0.4405 O   0  0  0  0  0  0  0  0  0  0  0  0
    3.7390    3.5627    0.3861 O   0  0  0  0  0  0  0  0  0  0  0  0
    2.7324    1.8999   -1.1845 O   0  0  0  0  0  0  0  0  0  0  0  0
    3.6639    1.6293   -1.1152 H   0  0  0  0  0  0  0  0  0  0  0  0
  1  6  1  0  0  0  0
  2  1  2  0  0  0  0
  2  3  1  0  0  0  0
  3 19  1  0  0  0  0
  3  4  2  0  0  0  0
  4  5  1  0  0  0  0
  4  9  1  0  0  0  0
  5 10  1  0  0  0  0
  6 13  1  0  0  0  0
  6  5  2  0  0  0  0
  7  1  1  0  0  0  0
  8  2  1  0  0  0  0
 11 12  3  0  0  0  0
 14 15  1  0  0  0  0
 14 13  1  0  0  0  0
 14 16  1  0  0  0  0
 17 14  1  0  0  0  0
 18 21  2  0  0  0  0
 18 19  1  0  0  0  0
 20 18  2  0  0  0  0
 22 23  1  0  0  0  0
 22 18  1  0  0  0  0
M  END
