Coordinates from ORCA-job 4-MeO-Ph-N2-HSO4-B3LYPG-6-31G_dp-MTMO-d009-169-n800
 OpenBabel09051907533D

 23 22  0  0  0  0  0  0  0  0999 V2000
   -0.0342   -0.4251    0.7943 C   0  0  0  0  0  0  0  0  0  0  0  0
    1.3400   -0.1989    0.9059 C   0  0  0  0  0  0  0  0  0  0  0  0
    1.8221    1.1031    0.8889 C   0  0  0  0  0  0  0  0  0  0  0  0
    0.9603    2.1933    0.7799 C   0  0  0  0  0  0  0  0  0  0  0  0
   -0.4064    1.9699    0.6819 C   0  0  0  0  0  0  0  0  0  0  0  0
   -0.9129    0.6602    0.6832 C   0  0  0  0  0  0  0  0  0  0  0  0
   -0.4013   -1.4439    0.8006 H   0  0  0  0  0  0  0  0  0  0  0  0
    2.0271   -1.0323    0.9987 H   0  0  0  0  0  0  0  0  0  0  0  0
    1.3673    3.1977    0.7729 H   0  0  0  0  0  0  0  0  0  0  0  0
   -1.1047    2.7954    0.5974 H   0  0  0  0  0  0  0  0  0  0  0  0
    2.3275    3.7661   -1.8925 N   0  0  0  0  0  0  0  0  0  0  0  0
    2.1996    3.6994   -2.9881 N   0  0  0  0  0  0  0  0  0  0  0  0
   -2.2666    0.5530    0.5746 O   0  0  0  0  0  0  0  0  0  0  0  0
   -2.8405   -0.7450    0.5496 C   0  0  0  0  0  0  0  0  0  0  0  0
   -3.9163   -0.5962    0.4456 H   0  0  0  0  0  0  0  0  0  0  0  0
   -2.6408   -1.2945    1.4792 H   0  0  0  0  0  0  0  0  0  0  0  0
   -2.4733   -1.3327   -0.3017 H   0  0  0  0  0  0  0  0  0  0  0  0
    4.2670    0.9670   -0.0877 S   0  0  0  0  0  0  0  0  0  0  0  0
    3.1953    1.3738    1.0804 O   0  0  0  0  0  0  0  0  0  0  0  0
    3.6339    0.9751   -1.3864 O   0  0  0  0  0  0  0  0  0  0  0  0
    5.4657    1.7126    0.2390 O   0  0  0  0  0  0  0  0  0  0  0  0
    4.5415   -0.6049    0.2618 O   0  0  0  0  0  0  0  0  0  0  0  0
    5.2347   -0.6324    0.9435 H   0  0  0  0  0  0  0  0  0  0  0  0
  1  7  1  0  0  0  0
  1  2  2  0  0  0  0
  2  8  1  0  0  0  0
  3  2  1  0  0  0  0
  3 19  1  0  0  0  0
  4  3  2  0  0  0  0
  5  6  2  0  0  0  0
  5  4  1  0  0  0  0
  6  1  1  0  0  0  0
  9  4  1  0  0  0  0
 10  5  1  0  0  0  0
 12 11  3  0  0  0  0
 13  6  1  0  0  0  0
 14 13  1  0  0  0  0
 14 16  1  0  0  0  0
 15 14  1  0  0  0  0
 17 14  1  0  0  0  0
 18 21  2  0  0  0  0
 18 22  1  0  0  0  0
 18 19  1  0  0  0  0
 20 18  2  0  0  0  0
 22 23  1  0  0  0  0
M  END
