Coordinates from ORCA-job 4-MeO-Ph-N2-HSO4-B3LYPG-6-31G_dp-MTMO-d009-169-n800
 OpenBabel09051907533D

 23 22  0  0  0  0  0  0  0  0999 V2000
   -0.7654   -0.5292    0.9240 C   0  0  0  0  0  0  0  0  0  0  0  0
    0.4748    0.1119    0.8707 C   0  0  0  0  0  0  0  0  0  0  0  0
    0.5882    1.4244    1.3072 C   0  0  0  0  0  0  0  0  0  0  0  0
   -0.5144    2.1231    1.7994 C   0  0  0  0  0  0  0  0  0  0  0  0
   -1.7477    1.4889    1.8514 C   0  0  0  0  0  0  0  0  0  0  0  0
   -1.8821    0.1606    1.4140 C   0  0  0  0  0  0  0  0  0  0  0  0
   -0.8450   -1.5541    0.5842 H   0  0  0  0  0  0  0  0  0  0  0  0
    1.3492   -0.4076    0.4953 H   0  0  0  0  0  0  0  0  0  0  0  0
   -0.3982    3.1484    2.1308 H   0  0  0  0  0  0  0  0  0  0  0  0
   -2.6264    2.0015    2.2271 H   0  0  0  0  0  0  0  0  0  0  0  0
   15.3083    0.5462   -5.9593 N   0  0  0  0  0  0  0  0  0  0  0  0
   14.2658    0.4465   -5.6058 N   0  0  0  0  0  0  0  0  0  0  0  0
   -3.1347   -0.3650    1.5089 O   0  0  0  0  0  0  0  0  0  0  0  0
   -3.3434   -1.6970    1.0630 C   0  0  0  0  0  0  0  0  0  0  0  0
   -4.4032   -1.9033    1.2190 H   0  0  0  0  0  0  0  0  0  0  0  0
   -2.7482   -2.4152    1.6407 H   0  0  0  0  0  0  0  0  0  0  0  0
   -3.1062   -1.8074   -0.0029 H   0  0  0  0  0  0  0  0  0  0  0  0
    2.2883    2.9942    0.0703 S   0  0  0  0  0  0  0  0  0  0  0  0
    1.8626    2.0318    1.3269 O   0  0  0  0  0  0  0  0  0  0  0  0
    1.1556    3.7790   -0.3649 O   0  0  0  0  0  0  0  0  0  0  0  0
    3.5628    3.5604    0.4635 O   0  0  0  0  0  0  0  0  0  0  0  0
    2.5563    1.8968   -1.1063 O   0  0  0  0  0  0  0  0  0  0  0  0
    3.4875    1.6257   -1.0358 H   0  0  0  0  0  0  0  0  0  0  0  0
  1  6  1  0  0  0  0
  2  1  2  0  0  0  0
  2  3  1  0  0  0  0
  3 19  1  0  0  0  0
  3  4  2  0  0  0  0
  4  5  1  0  0  0  0
  4  9  1  0  0  0  0
  5 10  1  0  0  0  0
  6 13  1  0  0  0  0
  6  5  2  0  0  0  0
  7  1  1  0  0  0  0
  8  2  1  0  0  0  0
 11 12  3  0  0  0  0
 14 15  1  0  0  0  0
 14 13  1  0  0  0  0
 14 16  1  0  0  0  0
 17 14  1  0  0  0  0
 18 21  2  0  0  0  0
 18 19  1  0  0  0  0
 20 18  2  0  0  0  0
 22 23  1  0  0  0  0
 22 18  1  0  0  0  0
M  END
