Coordinates from ORCA-job 4-MeO-Ph-N2-HSO4-B3LYPG-6-31G_dp-MTMO-d009-169-n800
 OpenBabel09051907533D

 23 22  0  0  0  0  0  0  0  0999 V2000
   -0.3569   -0.5413    0.7441 C   0  0  0  0  0  0  0  0  0  0  0  0
    0.8916    0.0830    0.6830 C   0  0  0  0  0  0  0  0  0  0  0  0
    1.0231    1.3971    1.1091 C   0  0  0  0  0  0  0  0  0  0  0  0
   -0.0691    2.1143    1.5980 C   0  0  0  0  0  0  0  0  0  0  0  0
   -1.3105    1.4968    1.6576 C   0  0  0  0  0  0  0  0  0  0  0  0
   -1.4632    0.1670    1.2311 C   0  0  0  0  0  0  0  0  0  0  0  0
   -0.4508   -1.5677    0.4127 H   0  0  0  0  0  0  0  0  0  0  0  0
    1.7582   -0.4510    0.3099 H   0  0  0  0  0  0  0  0  0  0  0  0
    0.0614    3.1404    1.9211 H   0  0  0  0  0  0  0  0  0  0  0  0
   -2.1816    2.0240    2.0311 H   0  0  0  0  0  0  0  0  0  0  0  0
   10.8383    0.7264   -3.9720 N   0  0  0  0  0  0  0  0  0  0  0  0
    9.7972    0.6301   -3.6136 N   0  0  0  0  0  0  0  0  0  0  0  0
   -2.7224   -0.3415    1.3334 O   0  0  0  0  0  0  0  0  0  0  0  0
   -2.9492   -1.6748    0.9002 C   0  0  0  0  0  0  0  0  0  0  0  0
   -4.0110   -1.8664    1.0617 H   0  0  0  0  0  0  0  0  0  0  0  0
   -2.3609   -2.3950    1.4823 H   0  0  0  0  0  0  0  0  0  0  0  0
   -2.7173   -1.7976   -0.1655 H   0  0  0  0  0  0  0  0  0  0  0  0
    2.7413    2.9362   -0.1422 S   0  0  0  0  0  0  0  0  0  0  0  0
    2.3055    1.9878    1.1219 O   0  0  0  0  0  0  0  0  0  0  0  0
    1.6166    3.7292   -0.5836 O   0  0  0  0  0  0  0  0  0  0  0  0
    4.0212    3.4925    0.2473 O   0  0  0  0  0  0  0  0  0  0  0  0
    2.9980    1.8274   -1.3103 O   0  0  0  0  0  0  0  0  0  0  0  0
    3.9253    1.5439   -1.2361 H   0  0  0  0  0  0  0  0  0  0  0  0
  1  6  1  0  0  0  0
  2  1  2  0  0  0  0
  2  3  1  0  0  0  0
  3 19  1  0  0  0  0
  3  4  2  0  0  0  0
  4  5  1  0  0  0  0
  4  9  1  0  0  0  0
  5 10  1  0  0  0  0
  6 13  1  0  0  0  0
  6  5  2  0  0  0  0
  7  1  1  0  0  0  0
  8  2  1  0  0  0  0
 11 12  3  0  0  0  0
 14 15  1  0  0  0  0
 14 13  1  0  0  0  0
 14 16  1  0  0  0  0
 17 14  1  0  0  0  0
 18 21  2  0  0  0  0
 18 19  1  0  0  0  0
 20 18  2  0  0  0  0
 22 23  1  0  0  0  0
 22 18  1  0  0  0  0
M  END
