Coordinates from ORCA-job 4-MeO-Ph-N2-HSO4-B3LYPG-6-31G_dp-MTMO-d009-169-n800
 OpenBabel09051907533D

 23 22  0  0  0  0  0  0  0  0999 V2000
   -0.6986   -0.5301    0.8953 C   0  0  0  0  0  0  0  0  0  0  0  0
    0.5412    0.1121    0.8427 C   0  0  0  0  0  0  0  0  0  0  0  0
    0.6531    1.4247    1.2792 C   0  0  0  0  0  0  0  0  0  0  0  0
   -0.4503    2.1225    1.7708 C   0  0  0  0  0  0  0  0  0  0  0  0
   -1.6831    1.4872    1.8221 C   0  0  0  0  0  0  0  0  0  0  0  0
   -1.8161    0.1588    1.3846 C   0  0  0  0  0  0  0  0  0  0  0  0
   -0.7770   -1.5550    0.5554 H   0  0  0  0  0  0  0  0  0  0  0  0
    1.4162   -0.4067    0.4678 H   0  0  0  0  0  0  0  0  0  0  0  0
   -0.3352    3.1478    2.1023 H   0  0  0  0  0  0  0  0  0  0  0  0
   -2.5625    1.9991    2.1973 H   0  0  0  0  0  0  0  0  0  0  0  0
   14.6185    0.5536   -5.6593 N   0  0  0  0  0  0  0  0  0  0  0  0
   13.5767    0.4492   -5.3053 N   0  0  0  0  0  0  0  0  0  0  0  0
   -3.0684   -0.3679    1.4787 O   0  0  0  0  0  0  0  0  0  0  0  0
   -3.2756   -1.7001    1.0327 C   0  0  0  0  0  0  0  0  0  0  0  0
   -4.3353   -1.9072    1.1879 H   0  0  0  0  0  0  0  0  0  0  0  0
   -2.6802   -2.4177    1.6108 H   0  0  0  0  0  0  0  0  0  0  0  0
   -3.0377   -1.8102   -0.0331 H   0  0  0  0  0  0  0  0  0  0  0  0
    2.3525    2.9962    0.0433 S   0  0  0  0  0  0  0  0  0  0  0  0
    1.9270    2.0332    1.2996 O   0  0  0  0  0  0  0  0  0  0  0  0
    1.2194    3.7806   -0.3918 O   0  0  0  0  0  0  0  0  0  0  0  0
    3.6266    3.5628    0.4368 O   0  0  0  0  0  0  0  0  0  0  0  0
    2.6211    1.8992   -1.1336 O   0  0  0  0  0  0  0  0  0  0  0  0
    3.5524    1.6285   -1.0631 H   0  0  0  0  0  0  0  0  0  0  0  0
  1  6  1  0  0  0  0
  2  1  2  0  0  0  0
  2  3  1  0  0  0  0
  3 19  1  0  0  0  0
  3  4  2  0  0  0  0
  4  5  1  0  0  0  0
  4  9  1  0  0  0  0
  5 10  1  0  0  0  0
  6 13  1  0  0  0  0
  6  5  2  0  0  0  0
  7  1  1  0  0  0  0
  8  2  1  0  0  0  0
 11 12  3  0  0  0  0
 14 15  1  0  0  0  0
 14 13  1  0  0  0  0
 14 16  1  0  0  0  0
 17 14  1  0  0  0  0
 18 21  2  0  0  0  0
 18 19  1  0  0  0  0
 20 18  2  0  0  0  0
 22 23  1  0  0  0  0
 22 18  1  0  0  0  0
M  END
