Coordinates from ORCA-job 4-MeO-Ph-N2-HSO4-B3LYPG-6-31G_dp-MTMO-d009-169-n800
 OpenBabel09051907533D

 23 22  0  0  0  0  0  0  0  0999 V2000
   -0.1898   -0.5641    0.7043 C   0  0  0  0  0  0  0  0  0  0  0  0
    1.0858    0.0044    0.6580 C   0  0  0  0  0  0  0  0  0  0  0  0
    1.2565    1.3349    1.0136 C   0  0  0  0  0  0  0  0  0  0  0  0
    0.1783    2.1235    1.4150 C   0  0  0  0  0  0  0  0  0  0  0  0
   -1.0895    1.5611    1.4610 C   0  0  0  0  0  0  0  0  0  0  0  0
   -1.2822    0.2154    1.1064 C   0  0  0  0  0  0  0  0  0  0  0  0
   -0.3156   -1.6033    0.4274 H   0  0  0  0  0  0  0  0  0  0  0  0
    1.9427   -0.5839    0.3496 H   0  0  0  0  0  0  0  0  0  0  0  0
    0.3408    3.1608    1.6840 H   0  0  0  0  0  0  0  0  0  0  0  0
   -1.9507    2.1441    1.7687 H   0  0  0  0  0  0  0  0  0  0  0  0
    8.2665    1.2474   -3.1013 N   0  0  0  0  0  0  0  0  0  0  0  0
    7.3019    1.1876   -2.5650 N   0  0  0  0  0  0  0  0  0  0  0  0
   -2.5648   -0.2353    1.1896 O   0  0  0  0  0  0  0  0  0  0  0  0
   -2.8305   -1.5846    0.8351 C   0  0  0  0  0  0  0  0  0  0  0  0
   -3.9037   -1.7253    0.9719 H   0  0  0  0  0  0  0  0  0  0  0  0
   -2.2898   -2.2867    1.4821 H   0  0  0  0  0  0  0  0  0  0  0  0
   -2.5699   -1.7859   -0.2117 H   0  0  0  0  0  0  0  0  0  0  0  0
    3.1100    2.6887   -0.2665 S   0  0  0  0  0  0  0  0  0  0  0  0
    2.5609    1.8755    1.0465 O   0  0  0  0  0  0  0  0  0  0  0  0
    2.0211    3.3986   -0.8989 O   0  0  0  0  0  0  0  0  0  0  0  0
    4.3366    3.3203    0.1783 O   0  0  0  0  0  0  0  0  0  0  0  0
    3.5085    1.4650   -1.2685 O   0  0  0  0  0  0  0  0  0  0  0  0
    4.4616    1.3026   -1.1585 H   0  0  0  0  0  0  0  0  0  0  0  0
  1  6  1  0  0  0  0
  2  1  2  0  0  0  0
  2  3  1  0  0  0  0
  3 19  1  0  0  0  0
  3  4  2  0  0  0  0
  4  5  1  0  0  0  0
  4  9  1  0  0  0  0
  5 10  1  0  0  0  0
  6 13  1  0  0  0  0
  6  5  2  0  0  0  0
  7  1  1  0  0  0  0
  8  2  1  0  0  0  0
 11 12  3  0  0  0  0
 14 15  1  0  0  0  0
 14 13  1  0  0  0  0
 14 16  1  0  0  0  0
 17 14  1  0  0  0  0
 18 21  2  0  0  0  0
 18 19  1  0  0  0  0
 20 18  2  0  0  0  0
 22 23  1  0  0  0  0
 22 18  1  0  0  0  0
M  END
