Coordinates from ORCA-job 4-MeO-Ph-N2-HSO4-B3LYPG-6-31G_dp-MTMO-d009-169-n800
 OpenBabel09051907533D

 23 22  0  0  0  0  0  0  0  0999 V2000
   -0.3815   -0.5397    0.7550 C   0  0  0  0  0  0  0  0  0  0  0  0
    0.8652    0.0881    0.6954 C   0  0  0  0  0  0  0  0  0  0  0  0
    0.9931    1.4019    1.1237 C   0  0  0  0  0  0  0  0  0  0  0  0
   -0.1013    2.1152    1.6135 C   0  0  0  0  0  0  0  0  0  0  0  0
   -1.3410    1.4942    1.6717 C   0  0  0  0  0  0  0  0  0  0  0  0
   -1.4899    0.1647    1.2429 C   0  0  0  0  0  0  0  0  0  0  0  0
   -0.4724   -1.5659    0.4218 H   0  0  0  0  0  0  0  0  0  0  0  0
    1.7335   -0.4429    0.3217 H   0  0  0  0  0  0  0  0  0  0  0  0
    0.0262    3.1412    1.9383 H   0  0  0  0  0  0  0  0  0  0  0  0
   -2.2136    2.0183    2.0458 H   0  0  0  0  0  0  0  0  0  0  0  0
   11.1353    0.6994   -4.1069 N   0  0  0  0  0  0  0  0  0  0  0  0
   10.0941    0.6006   -3.7494 N   0  0  0  0  0  0  0  0  0  0  0  0
   -2.7478   -0.3474    1.3438 O   0  0  0  0  0  0  0  0  0  0  0  0
   -2.9708   -1.6805    0.9078 C   0  0  0  0  0  0  0  0  0  0  0  0
   -4.0321   -1.8751    1.0683 H   0  0  0  0  0  0  0  0  0  0  0  0
   -2.3810   -2.4003    1.4889 H   0  0  0  0  0  0  0  0  0  0  0  0
   -2.7379   -1.8006   -0.1580 H   0  0  0  0  0  0  0  0  0  0  0  0
    2.7071    2.9477   -0.1248 S   0  0  0  0  0  0  0  0  0  0  0  0
    2.2737    1.9961    1.1377 O   0  0  0  0  0  0  0  0  0  0  0  0
    1.5808    3.7391   -0.5645 O   0  0  0  0  0  0  0  0  0  0  0  0
    3.9861    3.5058    0.2651 O   0  0  0  0  0  0  0  0  0  0  0  0
    2.9657    1.8414   -1.2950 O   0  0  0  0  0  0  0  0  0  0  0  0
    3.8935    1.5595   -1.2214 H   0  0  0  0  0  0  0  0  0  0  0  0
  1  6  1  0  0  0  0
  2  1  2  0  0  0  0
  2  3  1  0  0  0  0
  3 19  1  0  0  0  0
  3  4  2  0  0  0  0
  4  5  1  0  0  0  0
  4  9  1  0  0  0  0
  5 10  1  0  0  0  0
  6 13  1  0  0  0  0
  6  5  2  0  0  0  0
  7  1  1  0  0  0  0
  8  2  1  0  0  0  0
 11 12  3  0  0  0  0
 14 15  1  0  0  0  0
 14 13  1  0  0  0  0
 14 16  1  0  0  0  0
 17 14  1  0  0  0  0
 18 21  2  0  0  0  0
 18 19  1  0  0  0  0
 20 18  2  0  0  0  0
 22 23  1  0  0  0  0
 22 18  1  0  0  0  0
M  END
