Coordinates from ORCA-job 4-MeO-Ph-N2-HSO4-B3LYPG-6-31G_dp-MTMO-d009-169-n800
 OpenBabel09051907533D

 23 22  0  0  0  0  0  0  0  0999 V2000
   -0.5354   -0.5326    0.8239 C   0  0  0  0  0  0  0  0  0  0  0  0
    0.7043    0.1097    0.7712 C   0  0  0  0  0  0  0  0  0  0  0  0
    0.8162    1.4223    1.2076 C   0  0  0  0  0  0  0  0  0  0  0  0
   -0.2873    2.1200    1.6993 C   0  0  0  0  0  0  0  0  0  0  0  0
   -1.5200    1.4846    1.7507 C   0  0  0  0  0  0  0  0  0  0  0  0
   -1.6529    0.1562    1.3134 C   0  0  0  0  0  0  0  0  0  0  0  0
   -0.6137   -1.5576    0.4842 H   0  0  0  0  0  0  0  0  0  0  0  0
    1.5794   -0.4091    0.3962 H   0  0  0  0  0  0  0  0  0  0  0  0
   -0.1722    3.1454    2.0306 H   0  0  0  0  0  0  0  0  0  0  0  0
   -2.3994    1.9964    2.1260 H   0  0  0  0  0  0  0  0  0  0  0  0
   12.9072    0.5799   -4.9081 N   0  0  0  0  0  0  0  0  0  0  0  0
   11.8652    0.4757   -4.5544 N   0  0  0  0  0  0  0  0  0  0  0  0
   -2.9051   -0.3707    1.4077 O   0  0  0  0  0  0  0  0  0  0  0  0
   -3.1123   -1.7029    0.9617 C   0  0  0  0  0  0  0  0  0  0  0  0
   -4.1720   -1.9101    1.1170 H   0  0  0  0  0  0  0  0  0  0  0  0
   -2.5168   -2.4204    1.5398 H   0  0  0  0  0  0  0  0  0  0  0  0
   -2.8744   -1.8130   -0.1041 H   0  0  0  0  0  0  0  0  0  0  0  0
    2.5151    2.9939   -0.0287 S   0  0  0  0  0  0  0  0  0  0  0  0
    2.0900    2.0309    1.2277 O   0  0  0  0  0  0  0  0  0  0  0  0
    1.3820    3.7786   -0.4631 O   0  0  0  0  0  0  0  0  0  0  0  0
    3.7895    3.5604    0.3644 O   0  0  0  0  0  0  0  0  0  0  0  0
    2.7830    1.8971   -1.2058 O   0  0  0  0  0  0  0  0  0  0  0  0
    3.7143    1.6261   -1.1359 H   0  0  0  0  0  0  0  0  0  0  0  0
  1  6  1  0  0  0  0
  2  1  2  0  0  0  0
  2  3  1  0  0  0  0
  3 19  1  0  0  0  0
  3  4  2  0  0  0  0
  4  5  1  0  0  0  0
  4  9  1  0  0  0  0
  5 10  1  0  0  0  0
  6 13  1  0  0  0  0
  6  5  2  0  0  0  0
  7  1  1  0  0  0  0
  8  2  1  0  0  0  0
 11 12  3  0  0  0  0
 14 15  1  0  0  0  0
 14 13  1  0  0  0  0
 14 16  1  0  0  0  0
 17 14  1  0  0  0  0
 18 21  2  0  0  0  0
 18 19  1  0  0  0  0
 20 18  2  0  0  0  0
 22 23  1  0  0  0  0
 22 18  1  0  0  0  0
M  END
