Coordinates from ORCA-job 4-MeO-Ph-N2-HSO4-B3LYPG-6-31G_dp-MTMO-d009-169-n800
 OpenBabel09051907533D

 23 22  0  0  0  0  0  0  0  0999 V2000
   -0.7704   -0.5291    0.9261 C   0  0  0  0  0  0  0  0  0  0  0  0
    0.4699    0.1118    0.8727 C   0  0  0  0  0  0  0  0  0  0  0  0
    0.5835    1.4243    1.3092 C   0  0  0  0  0  0  0  0  0  0  0  0
   -0.5190    2.1232    1.8015 C   0  0  0  0  0  0  0  0  0  0  0  0
   -1.7523    1.4890    1.8535 C   0  0  0  0  0  0  0  0  0  0  0  0
   -1.8869    0.1608    1.4162 C   0  0  0  0  0  0  0  0  0  0  0  0
   -0.8500   -1.5540    0.5863 H   0  0  0  0  0  0  0  0  0  0  0  0
    1.3443   -0.4078    0.4973 H   0  0  0  0  0  0  0  0  0  0  0  0
   -0.4027    3.1484    2.1328 H   0  0  0  0  0  0  0  0  0  0  0  0
   -2.6310    2.0018    2.2293 H   0  0  0  0  0  0  0  0  0  0  0  0
   15.3589    0.5459   -5.9812 N   0  0  0  0  0  0  0  0  0  0  0  0
   14.3164    0.4466   -5.6277 N   0  0  0  0  0  0  0  0  0  0  0  0
   -3.1396   -0.3647    1.5111 O   0  0  0  0  0  0  0  0  0  0  0  0
   -3.3484   -1.6967    1.0653 C   0  0  0  0  0  0  0  0  0  0  0  0
   -4.4082   -1.9029    1.2213 H   0  0  0  0  0  0  0  0  0  0  0  0
   -2.7533   -2.4149    1.6430 H   0  0  0  0  0  0  0  0  0  0  0  0
   -3.1114   -1.8071   -0.0007 H   0  0  0  0  0  0  0  0  0  0  0  0
    2.2837    2.9939    0.0721 S   0  0  0  0  0  0  0  0  0  0  0  0
    1.8579    2.0316    1.3288 O   0  0  0  0  0  0  0  0  0  0  0  0
    1.1510    3.7788   -0.3630 O   0  0  0  0  0  0  0  0  0  0  0  0
    3.5582    3.5600    0.4653 O   0  0  0  0  0  0  0  0  0  0  0  0
    2.5516    1.8964   -1.1044 O   0  0  0  0  0  0  0  0  0  0  0  0
    3.4828    1.6253   -1.0339 H   0  0  0  0  0  0  0  0  0  0  0  0
  1  6  1  0  0  0  0
  2  1  2  0  0  0  0
  2  3  1  0  0  0  0
  3 19  1  0  0  0  0
  3  4  2  0  0  0  0
  4  5  1  0  0  0  0
  4  9  1  0  0  0  0
  5 10  1  0  0  0  0
  6 13  1  0  0  0  0
  6  5  2  0  0  0  0
  7  1  1  0  0  0  0
  8  2  1  0  0  0  0
 11 12  3  0  0  0  0
 14 15  1  0  0  0  0
 14 13  1  0  0  0  0
 14 16  1  0  0  0  0
 17 14  1  0  0  0  0
 18 21  2  0  0  0  0
 18 19  1  0  0  0  0
 20 18  2  0  0  0  0
 22 23  1  0  0  0  0
 22 18  1  0  0  0  0
M  END
