Coordinates from ORCA-job 4-MeO-Ph-N2-HSO4-B3LYPG-6-31G_dp-MTMO-d009-169-n800
 OpenBabel09051907533D

 23 22  0  0  0  0  0  0  0  0999 V2000
   -0.7293   -0.5296    0.9087 C   0  0  0  0  0  0  0  0  0  0  0  0
    0.5106    0.1122    0.8560 C   0  0  0  0  0  0  0  0  0  0  0  0
    0.6229    1.4248    1.2924 C   0  0  0  0  0  0  0  0  0  0  0  0
   -0.4804    2.1229    1.7840 C   0  0  0  0  0  0  0  0  0  0  0  0
   -1.7132    1.4879    1.8354 C   0  0  0  0  0  0  0  0  0  0  0  0
   -1.8466    0.1596    1.3980 C   0  0  0  0  0  0  0  0  0  0  0  0
   -0.8080   -1.5546    0.5689 H   0  0  0  0  0  0  0  0  0  0  0  0
    1.3855   -0.4068    0.4811 H   0  0  0  0  0  0  0  0  0  0  0  0
   -0.3649    3.1483    2.1153 H   0  0  0  0  0  0  0  0  0  0  0  0
   -2.5925    2.0001    2.2105 H   0  0  0  0  0  0  0  0  0  0  0  0
   14.9376    0.5493   -5.7989 N   0  0  0  0  0  0  0  0  0  0  0  0
   13.8955    0.4471   -5.4450 N   0  0  0  0  0  0  0  0  0  0  0  0
   -3.0990   -0.3668    1.4922 O   0  0  0  0  0  0  0  0  0  0  0  0
   -3.3066   -1.6990    1.0463 C   0  0  0  0  0  0  0  0  0  0  0  0
   -4.3664   -1.9058    1.2016 H   0  0  0  0  0  0  0  0  0  0  0  0
   -2.7114   -2.4167    1.6245 H   0  0  0  0  0  0  0  0  0  0  0  0
   -3.0688   -1.8093   -0.0195 H   0  0  0  0  0  0  0  0  0  0  0  0
    2.3226    2.9957    0.0563 S   0  0  0  0  0  0  0  0  0  0  0  0
    1.8969    2.0330    1.3127 O   0  0  0  0  0  0  0  0  0  0  0  0
    1.1897    3.7802   -0.3790 O   0  0  0  0  0  0  0  0  0  0  0  0
    3.5968    3.5622    0.4498 O   0  0  0  0  0  0  0  0  0  0  0  0
    2.5912    1.8985   -1.1204 O   0  0  0  0  0  0  0  0  0  0  0  0
    3.5225    1.6277   -1.0498 H   0  0  0  0  0  0  0  0  0  0  0  0
  1  6  1  0  0  0  0
  2  1  2  0  0  0  0
  2  3  1  0  0  0  0
  3 19  1  0  0  0  0
  3  4  2  0  0  0  0
  4  5  1  0  0  0  0
  4  9  1  0  0  0  0
  5 10  1  0  0  0  0
  6 13  1  0  0  0  0
  6  5  2  0  0  0  0
  7  1  1  0  0  0  0
  8  2  1  0  0  0  0
 11 12  3  0  0  0  0
 14 15  1  0  0  0  0
 14 13  1  0  0  0  0
 14 16  1  0  0  0  0
 17 14  1  0  0  0  0
 18 21  2  0  0  0  0
 18 19  1  0  0  0  0
 20 18  2  0  0  0  0
 22 23  1  0  0  0  0
 22 18  1  0  0  0  0
M  END
