Coordinates from ORCA-job 4-MeO-Ph-N2-HSO4-B3LYPG-6-31G_dp-MTMO-d009-169-n800
 OpenBabel09051907533D

 23 22  0  0  0  0  0  0  0  0999 V2000
   -0.4266   -0.5370    0.7761 C   0  0  0  0  0  0  0  0  0  0  0  0
    0.8171    0.0971    0.7199 C   0  0  0  0  0  0  0  0  0  0  0  0
    0.9377    1.4106    1.1510 C   0  0  0  0  0  0  0  0  0  0  0  0
   -0.1609    2.1175    1.6405 C   0  0  0  0  0  0  0  0  0  0  0  0
   -1.3976    1.4902    1.6954 C   0  0  0  0  0  0  0  0  0  0  0  0
   -1.5393    0.1609    1.2635 C   0  0  0  0  0  0  0  0  0  0  0  0
   -0.5119   -1.5629    0.4406 H   0  0  0  0  0  0  0  0  0  0  0  0
    1.6886   -0.4288    0.3465 H   0  0  0  0  0  0  0  0  0  0  0  0
   -0.0390    3.1434    1.9676 H   0  0  0  0  0  0  0  0  0  0  0  0
   -2.2735    2.0092    2.0691 H   0  0  0  0  0  0  0  0  0  0  0  0
   11.6775    0.6513   -4.3576 N   0  0  0  0  0  0  0  0  0  0  0  0
   10.6364    0.5506   -4.0006 N   0  0  0  0  0  0  0  0  0  0  0  0
   -2.7948   -0.3576    1.3611 O   0  0  0  0  0  0  0  0  0  0  0  0
   -3.0107   -1.6905    0.9213 C   0  0  0  0  0  0  0  0  0  0  0  0
   -4.0714   -1.8905    1.0790 H   0  0  0  0  0  0  0  0  0  0  0  0
   -2.4188   -2.4091    1.5019 H   0  0  0  0  0  0  0  0  0  0  0  0
   -2.7749   -1.8069   -0.1443 H   0  0  0  0  0  0  0  0  0  0  0  0
    2.6459    2.9672   -0.0919 S   0  0  0  0  0  0  0  0  0  0  0  0
    2.2155    2.0111    1.1681 O   0  0  0  0  0  0  0  0  0  0  0  0
    1.5169    3.7558   -0.5300 O   0  0  0  0  0  0  0  0  0  0  0  0
    3.9229    3.5289    0.2998 O   0  0  0  0  0  0  0  0  0  0  0  0
    2.9086    1.8647   -1.2647 O   0  0  0  0  0  0  0  0  0  0  0  0
    3.8372    1.5856   -1.1913 H   0  0  0  0  0  0  0  0  0  0  0  0
  1  6  1  0  0  0  0
  2  1  2  0  0  0  0
  2  3  1  0  0  0  0
  3 19  1  0  0  0  0
  3  4  2  0  0  0  0
  4  5  1  0  0  0  0
  4  9  1  0  0  0  0
  5 10  1  0  0  0  0
  6 13  1  0  0  0  0
  6  5  2  0  0  0  0
  7  1  1  0  0  0  0
  8  2  1  0  0  0  0
 11 12  3  0  0  0  0
 14 15  1  0  0  0  0
 14 13  1  0  0  0  0
 14 16  1  0  0  0  0
 17 14  1  0  0  0  0
 18 21  2  0  0  0  0
 18 19  1  0  0  0  0
 20 18  2  0  0  0  0
 22 23  1  0  0  0  0
 22 18  1  0  0  0  0
M  END
