Coordinates from ORCA-job 4-MeO-Ph-N2-HSO4-B3LYPG-6-31G_dp-MTMO-d009-169-n800
 OpenBabel09051907533D

 23 22  0  0  0  0  0  0  0  0999 V2000
   -0.0112   -0.3746    0.6687 C   0  0  0  0  0  0  0  0  0  0  0  0
    1.3648   -0.1435    0.7470 C   0  0  0  0  0  0  0  0  0  0  0  0
    1.8340    1.1605    0.8354 C   0  0  0  0  0  0  0  0  0  0  0  0
    0.9567    2.2435    0.8708 C   0  0  0  0  0  0  0  0  0  0  0  0
   -0.4110    2.0128    0.8103 C   0  0  0  0  0  0  0  0  0  0  0  0
   -0.9049    0.7030    0.7019 C   0  0  0  0  0  0  0  0  0  0  0  0
   -0.3670   -1.3942    0.5880 H   0  0  0  0  0  0  0  0  0  0  0  0
    2.0581   -0.9767    0.7355 H   0  0  0  0  0  0  0  0  0  0  0  0
    1.3541    3.2490    0.9480 H   0  0  0  0  0  0  0  0  0  0  0  0
   -1.1190    2.8338    0.8386 H   0  0  0  0  0  0  0  0  0  0  0  0
    2.2663    3.4324   -1.8755 N   0  0  0  0  0  0  0  0  0  0  0  0
    1.8928    3.3933   -2.9148 N   0  0  0  0  0  0  0  0  0  0  0  0
   -2.2612    0.5881    0.6381 O   0  0  0  0  0  0  0  0  0  0  0  0
   -2.8216   -0.7097    0.5094 C   0  0  0  0  0  0  0  0  0  0  0  0
   -3.9024   -0.5678    0.4644 H   0  0  0  0  0  0  0  0  0  0  0  0
   -2.5765   -1.3443    1.3714 H   0  0  0  0  0  0  0  0  0  0  0  0
   -2.4837   -1.2056   -0.4097 H   0  0  0  0  0  0  0  0  0  0  0  0
    4.3017    0.9243   -0.0961 S   0  0  0  0  0  0  0  0  0  0  0  0
    3.2061    1.4542    0.9962 O   0  0  0  0  0  0  0  0  0  0  0  0
    3.6937    0.7477   -1.3946 O   0  0  0  0  0  0  0  0  0  0  0  0
    5.4795    1.7305    0.1507 O   0  0  0  0  0  0  0  0  0  0  0  0
    4.5951   -0.5843    0.4566 O   0  0  0  0  0  0  0  0  0  0  0  0
    5.2404   -0.5116    1.1808 H   0  0  0  0  0  0  0  0  0  0  0  0
  1  6  2  0  0  0  0
  1  2  1  0  0  0  0
  2  3  2  0  0  0  0
  3  4  1  0  0  0  0
  3 19  1  0  0  0  0
  4  9  1  0  0  0  0
  5 10  1  0  0  0  0
  5  4  2  0  0  0  0
  6  5  1  0  0  0  0
  7  1  1  0  0  0  0
  8  2  1  0  0  0  0
 12 11  3  0  0  0  0
 13  6  1  0  0  0  0
 14 13  1  0  0  0  0
 14 16  1  0  0  0  0
 15 14  1  0  0  0  0
 17 14  1  0  0  0  0
 18 21  2  0  0  0  0
 18 22  1  0  0  0  0
 18 19  1  0  0  0  0
 20 18  2  0  0  0  0
 22 23  1  0  0  0  0
M  END
