Coordinates from ORCA-job 4-MeO-Ph-N2-HSO4-B3LYPG-6-31G_dp-MTMO-d009-169-n800
 OpenBabel09051907533D

 23 22  0  0  0  0  0  0  0  0999 V2000
   -0.1373   -0.3626    1.1769 C   0  0  0  0  0  0  0  0  0  0  0  0
    1.2168   -0.0181    1.1622 C   0  0  0  0  0  0  0  0  0  0  0  0
    1.6329    1.0920    0.4410 C   0  0  0  0  0  0  0  0  0  0  0  0
    0.7272    1.8759   -0.2739 C   0  0  0  0  0  0  0  0  0  0  0  0
   -0.6180    1.5356   -0.2596 C   0  0  0  0  0  0  0  0  0  0  0  0
   -1.0591    0.4150    0.4639 C   0  0  0  0  0  0  0  0  0  0  0  0
   -0.4554   -1.2302    1.7419 H   0  0  0  0  0  0  0  0  0  0  0  0
    1.9426   -0.6095    1.7088 H   0  0  0  0  0  0  0  0  0  0  0  0
    1.0838    2.7381   -0.8257 H   0  0  0  0  0  0  0  0  0  0  0  0
   -1.3509    2.1227   -0.8021 H   0  0  0  0  0  0  0  0  0  0  0  0
    3.6037    4.6154   -0.6584 N   0  0  0  0  0  0  0  0  0  0  0  0
    4.4397    5.2056   -0.2417 N   0  0  0  0  0  0  0  0  0  0  0  0
   -2.3981    0.1722    0.4110 O   0  0  0  0  0  0  0  0  0  0  0  0
   -2.9100   -0.9476    1.1177 C   0  0  0  0  0  0  0  0  0  0  0  0
   -3.9864   -0.9493    0.9388 H   0  0  0  0  0  0  0  0  0  0  0  0
   -2.7228   -0.8651    2.1964 H   0  0  0  0  0  0  0  0  0  0  0  0
   -2.4821   -1.8883    0.7493 H   0  0  0  0  0  0  0  0  0  0  0  0
    4.0096    0.9289   -0.6584 S   0  0  0  0  0  0  0  0  0  0  0  0
    2.9881    1.4856    0.4953 O   0  0  0  0  0  0  0  0  0  0  0  0
    3.3237    0.8102   -1.9242 O   0  0  0  0  0  0  0  0  0  0  0  0
    5.2266    1.6924   -0.4635 O   0  0  0  0  0  0  0  0  0  0  0  0
    4.2794   -0.5967   -0.1456 O   0  0  0  0  0  0  0  0  0  0  0  0
    5.0306   -0.5614    0.4711 H   0  0  0  0  0  0  0  0  0  0  0  0
  1  7  1  0  0  0  0
  2  1  1  0  0  0  0
  2  8  1  0  0  0  0
  3 19  1  0  0  0  0
  3  2  2  0  0  0  0
  4  5  2  0  0  0  0
  4  3  1  0  0  0  0
  5  6  1  0  0  0  0
  6  1  2  0  0  0  0
  9  4  1  0  0  0  0
 10  5  1  0  0  0  0
 11 12  3  0  0  0  0
 13  6  1  0  0  0  0
 13 14  1  0  0  0  0
 14 16  1  0  0  0  0
 15 14  1  0  0  0  0
 17 14  1  0  0  0  0
 18 21  2  0  0  0  0
 18 22  1  0  0  0  0
 18 19  1  0  0  0  0
 20 18  2  0  0  0  0
 22 23  1  0  0  0  0
M  END
