Coordinates from ORCA-job 4-MeO-Ph-N2-HSO4-B3LYPG-6-31G_dp-MTMO-d009-169-n800
 OpenBabel09051907533D

 23 22  0  0  0  0  0  0  0  0999 V2000
    0.0243   -0.2813    0.4848 C   0  0  0  0  0  0  0  0  0  0  0  0
    1.4027   -0.0502    0.5297 C   0  0  0  0  0  0  0  0  0  0  0  0
    1.8694    1.2333    0.7808 C   0  0  0  0  0  0  0  0  0  0  0  0
    0.9875    2.2884    1.0163 C   0  0  0  0  0  0  0  0  0  0  0  0
   -0.3800    2.0540    0.9884 C   0  0  0  0  0  0  0  0  0  0  0  0
   -0.8728    0.7679    0.7157 C   0  0  0  0  0  0  0  0  0  0  0  0
   -0.3294   -1.2830    0.2749 H   0  0  0  0  0  0  0  0  0  0  0  0
    2.0911   -0.8703    0.3658 H   0  0  0  0  0  0  0  0  0  0  0  0
    1.3835    3.2773    1.2183 H   0  0  0  0  0  0  0  0  0  0  0  0
   -1.0886    2.8550    1.1687 H   0  0  0  0  0  0  0  0  0  0  0  0
    1.9719    2.9115   -1.8982 N   0  0  0  0  0  0  0  0  0  0  0  0
    1.3542    2.7077   -2.7918 N   0  0  0  0  0  0  0  0  0  0  0  0
   -2.2304    0.6468    0.7002 O   0  0  0  0  0  0  0  0  0  0  0  0
   -2.7888   -0.6307    0.4336 C   0  0  0  0  0  0  0  0  0  0  0  0
   -3.8714   -0.4980    0.4638 H   0  0  0  0  0  0  0  0  0  0  0  0
   -2.4945   -1.3674    1.1927 H   0  0  0  0  0  0  0  0  0  0  0  0
   -2.4981   -1.0001   -0.5581 H   0  0  0  0  0  0  0  0  0  0  0  0
    4.3796    0.9145   -0.0605 S   0  0  0  0  0  0  0  0  0  0  0  0
    3.2386    1.5482    0.9197 O   0  0  0  0  0  0  0  0  0  0  0  0
    3.8393    0.6014   -1.3628 O   0  0  0  0  0  0  0  0  0  0  0  0
    5.5422    1.7483    0.1610 O   0  0  0  0  0  0  0  0  0  0  0  0
    4.6383   -0.5296    0.6548 O   0  0  0  0  0  0  0  0  0  0  0  0
    5.2163   -0.3830    1.4233 H   0  0  0  0  0  0  0  0  0  0  0  0
  1  2  2  0  0  0  0
  1  6  1  0  0  0  0
  2  3  1  0  0  0  0
  3 19  1  0  0  0  0
  3  4  2  0  0  0  0
  4  9  1  0  0  0  0
  5  4  1  0  0  0  0
  5 10  1  0  0  0  0
  6  5  2  0  0  0  0
  7  1  1  0  0  0  0
  8  2  1  0  0  0  0
 12 11  3  0  0  0  0
 13  6  1  0  0  0  0
 14 15  1  0  0  0  0
 14 13  1  0  0  0  0
 14 16  1  0  0  0  0
 17 14  1  0  0  0  0
 18 21  2  0  0  0  0
 18 22  1  0  0  0  0
 18 19  1  0  0  0  0
 20 18  2  0  0  0  0
 22 23  1  0  0  0  0
M  END
