Coordinates from ORCA-job 4-MeO-Ph-N2-HSO4-B3LYPG-6-31G_dp-MTMO-d009-169-n800
 OpenBabel09051907533D

 23 22  0  0  0  0  0  0  0  0999 V2000
   -0.6826   -0.5303    0.8882 C   0  0  0  0  0  0  0  0  0  0  0  0
    0.5572    0.1119    0.8356 C   0  0  0  0  0  0  0  0  0  0  0  0
    0.6691    1.4245    1.2722 C   0  0  0  0  0  0  0  0  0  0  0  0
   -0.4343    2.1222    1.7639 C   0  0  0  0  0  0  0  0  0  0  0  0
   -1.6670    1.4869    1.8153 C   0  0  0  0  0  0  0  0  0  0  0  0
   -1.8000    0.1585    1.3777 C   0  0  0  0  0  0  0  0  0  0  0  0
   -0.7610   -1.5552    0.5483 H   0  0  0  0  0  0  0  0  0  0  0  0
    1.4322   -0.4068    0.4605 H   0  0  0  0  0  0  0  0  0  0  0  0
   -0.3192    3.1475    2.0954 H   0  0  0  0  0  0  0  0  0  0  0  0
   -2.5464    1.9987    2.1906 H   0  0  0  0  0  0  0  0  0  0  0  0
   14.4509    0.5564   -5.5856 N   0  0  0  0  0  0  0  0  0  0  0  0
   13.4092    0.4508   -5.2316 N   0  0  0  0  0  0  0  0  0  0  0  0
   -3.0523   -0.3682    1.4719 O   0  0  0  0  0  0  0  0  0  0  0  0
   -3.2596   -1.7004    1.0257 C   0  0  0  0  0  0  0  0  0  0  0  0
   -4.3193   -1.9075    1.1810 H   0  0  0  0  0  0  0  0  0  0  0  0
   -2.6641   -2.4181    1.6037 H   0  0  0  0  0  0  0  0  0  0  0  0
   -3.0217   -1.8104   -0.0401 H   0  0  0  0  0  0  0  0  0  0  0  0
    2.3683    2.9961    0.0362 S   0  0  0  0  0  0  0  0  0  0  0  0
    1.9430    2.0330    1.2925 O   0  0  0  0  0  0  0  0  0  0  0  0
    1.2352    3.7806   -0.3987 O   0  0  0  0  0  0  0  0  0  0  0  0
    3.6425    3.5627    0.4296 O   0  0  0  0  0  0  0  0  0  0  0  0
    2.6367    1.8992   -1.1408 O   0  0  0  0  0  0  0  0  0  0  0  0
    3.5681    1.6286   -1.0706 H   0  0  0  0  0  0  0  0  0  0  0  0
  1  6  1  0  0  0  0
  2  1  2  0  0  0  0
  2  3  1  0  0  0  0
  3 19  1  0  0  0  0
  3  4  2  0  0  0  0
  4  5  1  0  0  0  0
  4  9  1  0  0  0  0
  5 10  1  0  0  0  0
  6 13  1  0  0  0  0
  6  5  2  0  0  0  0
  7  1  1  0  0  0  0
  8  2  1  0  0  0  0
 11 12  3  0  0  0  0
 14 15  1  0  0  0  0
 14 13  1  0  0  0  0
 14 16  1  0  0  0  0
 17 14  1  0  0  0  0
 18 21  2  0  0  0  0
 18 19  1  0  0  0  0
 20 18  2  0  0  0  0
 22 23  1  0  0  0  0
 22 18  1  0  0  0  0
M  END
