Coordinates from ORCA-job 4-MeO-Ph-N2-HSO4-B3LYPG-6-31G_dp-MTMO-d009-169-n800
 OpenBabel09051907533D

 23 22  0  0  0  0  0  0  0  0999 V2000
   -0.2078   -0.5568    0.7063 C   0  0  0  0  0  0  0  0  0  0  0  0
    1.0559    0.0372    0.6578 C   0  0  0  0  0  0  0  0  0  0  0  0
    1.2056    1.3634    1.0383 C   0  0  0  0  0  0  0  0  0  0  0  0
    0.1168    2.1227    1.4674 C   0  0  0  0  0  0  0  0  0  0  0  0
   -1.1396    1.5353    1.5141 C   0  0  0  0  0  0  0  0  0  0  0  0
   -1.3107    0.1936    1.1344 C   0  0  0  0  0  0  0  0  0  0  0  0
   -0.3163   -1.5928    0.4107 H   0  0  0  0  0  0  0  0  0  0  0  0
    1.9203   -0.5292    0.3299 H   0  0  0  0  0  0  0  0  0  0  0  0
    0.2619    3.1574    1.7554 H   0  0  0  0  0  0  0  0  0  0  0  0
   -2.0084    2.0954    1.8421 H   0  0  0  0  0  0  0  0  0  0  0  0
    8.9013    0.9781   -3.2739 N   0  0  0  0  0  0  0  0  0  0  0  0
    7.8918    0.9178   -2.8280 N   0  0  0  0  0  0  0  0  0  0  0  0
   -2.5835   -0.2831    1.2207 O   0  0  0  0  0  0  0  0  0  0  0  0
   -2.8276   -1.6290    0.8388 C   0  0  0  0  0  0  0  0  0  0  0  0
   -3.8969   -1.7921    0.9807 H   0  0  0  0  0  0  0  0  0  0  0  0
   -2.2693   -2.3351    1.4660 H   0  0  0  0  0  0  0  0  0  0  0  0
   -2.5718   -1.8024   -0.2142 H   0  0  0  0  0  0  0  0  0  0  0  0
    2.9956    2.8185   -0.2152 S   0  0  0  0  0  0  0  0  0  0  0  0
    2.5008    1.9249    1.0671 O   0  0  0  0  0  0  0  0  0  0  0  0
    1.8965    3.6026   -0.7304 O   0  0  0  0  0  0  0  0  0  0  0  0
    4.2649    3.3796    0.2019 O   0  0  0  0  0  0  0  0  0  0  0  0
    3.2886    1.6628   -1.3277 O   0  0  0  0  0  0  0  0  0  0  0  0
    4.2166    1.3918   -1.2212 H   0  0  0  0  0  0  0  0  0  0  0  0
  1  6  1  0  0  0  0
  2  1  2  0  0  0  0
  2  3  1  0  0  0  0
  3 19  1  0  0  0  0
  3  4  2  0  0  0  0
  4  5  1  0  0  0  0
  4  9  1  0  0  0  0
  5 10  1  0  0  0  0
  6 13  1  0  0  0  0
  6  5  2  0  0  0  0
  7  1  1  0  0  0  0
  8  2  1  0  0  0  0
 11 12  3  0  0  0  0
 14 15  1  0  0  0  0
 14 13  1  0  0  0  0
 14 16  1  0  0  0  0
 17 14  1  0  0  0  0
 18 21  2  0  0  0  0
 18 19  1  0  0  0  0
 20 18  2  0  0  0  0
 22 23  1  0  0  0  0
 22 18  1  0  0  0  0
M  END
