Coordinates from ORCA-job 4-MeO-Ph-N2-HSO4-B3LYPG-6-31G_dp-MTMO-d009-169-n800
 OpenBabel09051907533D

 23 22  0  0  0  0  0  0  0  0999 V2000
   -0.0299   -0.0203    0.2116 C   0  0  0  0  0  0  0  0  0  0  0  0
    1.1783    0.4976   -0.2547 C   0  0  0  0  0  0  0  0  0  0  0  0
    1.2386    1.8654   -0.4040 C   0  0  0  0  0  0  0  0  0  0  0  0
    0.2170    2.7712   -0.1329 C   0  0  0  0  0  0  0  0  0  0  0  0
   -0.9714    2.2317    0.3307 C   0  0  0  0  0  0  0  0  0  0  0  0
   -1.1030    0.8378    0.5069 C   0  0  0  0  0  0  0  0  0  0  0  0
   -0.1132   -1.0903    0.3520 H   0  0  0  0  0  0  0  0  0  0  0  0
    2.0387   -0.1206   -0.4784 H   0  0  0  0  0  0  0  0  0  0  0  0
    0.3429    3.8383   -0.2694 H   0  0  0  0  0  0  0  0  0  0  0  0
   -1.8149    2.8688    0.5712 H   0  0  0  0  0  0  0  0  0  0  0  0
    2.5816    2.5367   -0.9594 N   0  0  0  0  0  0  0  0  0  0  0  0
    3.0922    3.4566   -1.3353 N   0  0  0  0  0  0  0  0  0  0  0  0
   -2.3033    0.4299    0.9666 O   0  0  0  0  0  0  0  0  0  0  0  0
   -2.5206   -0.9623    1.1942 C   0  0  0  0  0  0  0  0  0  0  0  0
   -3.5421   -1.0439    1.5648 H   0  0  0  0  0  0  0  0  0  0  0  0
   -1.8263   -1.3543    1.9459 H   0  0  0  0  0  0  0  0  0  0  0  0
   -2.4217   -1.5363    0.2660 H   0  0  0  0  0  0  0  0  0  0  0  0
    4.5931    0.6771    0.3699 S   0  0  0  0  0  0  0  0  0  0  0  0
    4.0556    1.6772    1.3007 O   0  0  0  0  0  0  0  0  0  0  0  0
    3.9513    0.8126   -1.0047 O   0  0  0  0  0  0  0  0  0  0  0  0
    6.0409    0.4641    0.3013 O   0  0  0  0  0  0  0  0  0  0  0  0
    3.9781   -0.7792    0.9199 O   0  0  0  0  0  0  0  0  0  0  0  0
    4.7229   -1.3973    0.8583 H   0  0  0  0  0  0  0  0  0  0  0  0
  1  7  1  0  0  0  0
  1  6  2  0  0  0  0
  2  1  1  0  0  0  0
  3  2  2  0  0  0  0
  3  4  1  0  0  0  0
  4  5  2  0  0  0  0
  5  6  1  0  0  0  0
  5 10  1  0  0  0  0
  6 13  1  0  0  0  0
  8  2  1  0  0  0  0
  9  4  1  0  0  0  0
 11  3  1  0  0  0  0
 12 11  2  0  0  0  0
 13 14  1  0  0  0  0
 14 15  1  0  0  0  0
 14 16  1  0  0  0  0
 17 14  1  0  0  0  0
 18 22  1  0  0  0  0
 18 19  1  0  0  0  0
 20 18  2  0  0  0  0
 21 18  2  0  0  0  0
 23 22  1  0  0  0  0
M  RAD  2  12   2  19   2
M  END
