Coordinates from ORCA-job 4-MeO-Ph-N2-HSO4-B3LYPG-6-31G_dp-MTMO-d009-169-n800
 OpenBabel09051907533D

 23 22  0  0  0  0  0  0  0  0999 V2000
   -0.0287   -0.0182    0.2019 C   0  0  0  0  0  0  0  0  0  0  0  0
    1.1776    0.5043   -0.2811 C   0  0  0  0  0  0  0  0  0  0  0  0
    1.1875    1.8618   -0.4030 C   0  0  0  0  0  0  0  0  0  0  0  0
    0.2082    2.7888   -0.1235 C   0  0  0  0  0  0  0  0  0  0  0  0
   -0.9741    2.2325    0.3554 C   0  0  0  0  0  0  0  0  0  0  0  0
   -1.0979    0.8372    0.5200 C   0  0  0  0  0  0  0  0  0  0  0  0
   -0.1049   -1.0895    0.3365 H   0  0  0  0  0  0  0  0  0  0  0  0
    2.0454   -0.0992   -0.5213 H   0  0  0  0  0  0  0  0  0  0  0  0
    0.3376    3.8553   -0.2539 H   0  0  0  0  0  0  0  0  0  0  0  0
   -1.8148    2.8663    0.6146 H   0  0  0  0  0  0  0  0  0  0  0  0
    2.6785    2.5837   -1.0573 N   0  0  0  0  0  0  0  0  0  0  0  0
    3.1673    3.4967   -1.4655 N   0  0  0  0  0  0  0  0  0  0  0  0
   -2.2924    0.4216    0.9945 O   0  0  0  0  0  0  0  0  0  0  0  0
   -2.4993   -0.9727    1.2133 C   0  0  0  0  0  0  0  0  0  0  0  0
   -3.5149   -1.0632    1.5982 H   0  0  0  0  0  0  0  0  0  0  0  0
   -1.7923   -1.3684    1.9514 H   0  0  0  0  0  0  0  0  0  0  0  0
   -2.4117   -1.5392    0.2791 H   0  0  0  0  0  0  0  0  0  0  0  0
    4.5542    0.6675    0.4060 S   0  0  0  0  0  0  0  0  0  0  0  0
    3.9125    1.6336    1.3073 O   0  0  0  0  0  0  0  0  0  0  0  0
    4.0239    0.8059   -1.0122 O   0  0  0  0  0  0  0  0  0  0  0  0
    6.0083    0.4959    0.4577 O   0  0  0  0  0  0  0  0  0  0  0  0
    3.9347   -0.8121    0.8899 O   0  0  0  0  0  0  0  0  0  0  0  0
    4.6800   -1.4278    0.8132 H   0  0  0  0  0  0  0  0  0  0  0  0
  1  7  1  0  0  0  0
  1  6  2  0  0  0  0
  2  1  1  0  0  0  0
  3  2  2  0  0  0  0
  3  4  1  0  0  0  0
  4  5  2  0  0  0  0
  5  6  1  0  0  0  0
  5 10  1  0  0  0  0
  6 13  1  0  0  0  0
  8  2  1  0  0  0  0
  9  4  1  0  0  0  0
 11  3  1  0  0  0  0
 12 11  2  0  0  0  0
 13 14  1  0  0  0  0
 14 15  1  0  0  0  0
 14 16  1  0  0  0  0
 17 14  1  0  0  0  0
 18 21  2  0  0  0  0
 18 22  1  0  0  0  0
 18 19  1  0  0  0  0
 20 18  2  0  0  0  0
 23 22  1  0  0  0  0
M  RAD  2  12   2  19   2
M  END
