Coordinates from ORCA-job 4-MeO-Ph-N2-HSO4-B3LYPG-6-31G_dp-MTMO-d009-169-n800
 OpenBabel09051907533D

 23 22  0  0  0  0  0  0  0  0999 V2000
   -0.4349   -0.5366    0.7800 C   0  0  0  0  0  0  0  0  0  0  0  0
    0.8083    0.0986    0.7244 C   0  0  0  0  0  0  0  0  0  0  0  0
    0.9277    1.4121    1.1560 C   0  0  0  0  0  0  0  0  0  0  0  0
   -0.1717    2.1179    1.6454 C   0  0  0  0  0  0  0  0  0  0  0  0
   -1.4079    1.4895    1.6996 C   0  0  0  0  0  0  0  0  0  0  0  0
   -1.5484    0.1603    1.2673 C   0  0  0  0  0  0  0  0  0  0  0  0
   -0.5192   -1.5624    0.4441 H   0  0  0  0  0  0  0  0  0  0  0  0
    1.6803   -0.4264    0.3510 H   0  0  0  0  0  0  0  0  0  0  0  0
   -0.0508    3.1438    1.9729 H   0  0  0  0  0  0  0  0  0  0  0  0
   -2.2843    2.0077    2.0733 H   0  0  0  0  0  0  0  0  0  0  0  0
   11.7762    0.6429   -4.4032 N   0  0  0  0  0  0  0  0  0  0  0  0
   10.7350    0.5422   -4.0463 N   0  0  0  0  0  0  0  0  0  0  0  0
   -2.8034   -0.3593    1.3642 O   0  0  0  0  0  0  0  0  0  0  0  0
   -3.0181   -1.6922    0.9239 C   0  0  0  0  0  0  0  0  0  0  0  0
   -4.0787   -1.8932    1.0810 H   0  0  0  0  0  0  0  0  0  0  0  0
   -2.4258   -2.4105    1.5044 H   0  0  0  0  0  0  0  0  0  0  0  0
   -2.7817   -1.8080   -0.1417 H   0  0  0  0  0  0  0  0  0  0  0  0
    2.6349    2.9706   -0.0860 S   0  0  0  0  0  0  0  0  0  0  0  0
    2.2049    2.0137    1.1736 O   0  0  0  0  0  0  0  0  0  0  0  0
    1.5054    3.7586   -0.5240 O   0  0  0  0  0  0  0  0  0  0  0  0
    3.9114    3.5329    0.3061 O   0  0  0  0  0  0  0  0  0  0  0  0
    2.8984    1.8686   -1.2592 O   0  0  0  0  0  0  0  0  0  0  0  0
    3.8272    1.5900   -1.1857 H   0  0  0  0  0  0  0  0  0  0  0  0
  1  6  1  0  0  0  0
  2  1  2  0  0  0  0
  2  3  1  0  0  0  0
  3 19  1  0  0  0  0
  3  4  2  0  0  0  0
  4  5  1  0  0  0  0
  4  9  1  0  0  0  0
  5 10  1  0  0  0  0
  6 13  1  0  0  0  0
  6  5  2  0  0  0  0
  7  1  1  0  0  0  0
  8  2  1  0  0  0  0
 11 12  3  0  0  0  0
 14 15  1  0  0  0  0
 14 13  1  0  0  0  0
 14 16  1  0  0  0  0
 17 14  1  0  0  0  0
 18 21  2  0  0  0  0
 18 19  1  0  0  0  0
 20 18  2  0  0  0  0
 22 23  1  0  0  0  0
 22 18  1  0  0  0  0
M  END
