Coordinates from ORCA-job 4-MeO-Ph-N2-HSO4-B3LYPG-6-31G_dp-MTMO-d009-169-n800
 OpenBabel09051907533D

 23 22  0  0  0  0  0  0  0  0999 V2000
   -0.6263   -0.5311    0.8629 C   0  0  0  0  0  0  0  0  0  0  0  0
    0.6132    0.1115    0.8097 C   0  0  0  0  0  0  0  0  0  0  0  0
    0.7252    1.4237    1.2472 C   0  0  0  0  0  0  0  0  0  0  0  0
   -0.3780    2.1208    1.7404 C   0  0  0  0  0  0  0  0  0  0  0  0
   -1.6105    1.4852    1.7923 C   0  0  0  0  0  0  0  0  0  0  0  0
   -1.7436    0.1571    1.3539 C   0  0  0  0  0  0  0  0  0  0  0  0
   -0.7048   -1.5558    0.5223 H   0  0  0  0  0  0  0  0  0  0  0  0
    1.4880   -0.4067    0.4336 H   0  0  0  0  0  0  0  0  0  0  0  0
   -0.2628    3.1459    2.0726 H   0  0  0  0  0  0  0  0  0  0  0  0
   -2.4897    1.9965    2.1688 H   0  0  0  0  0  0  0  0  0  0  0  0
   13.8650    0.5642   -5.3259 N   0  0  0  0  0  0  0  0  0  0  0  0
   12.8232    0.4562   -4.9727 N   0  0  0  0  0  0  0  0  0  0  0  0
   -2.9956   -0.3700    1.4487 O   0  0  0  0  0  0  0  0  0  0  0  0
   -3.2030   -1.7018    1.0016 C   0  0  0  0  0  0  0  0  0  0  0  0
   -4.2625   -1.9093    1.1576 H   0  0  0  0  0  0  0  0  0  0  0  0
   -2.6069   -2.4199    1.5785 H   0  0  0  0  0  0  0  0  0  0  0  0
   -2.9659   -1.8109   -0.0645 H   0  0  0  0  0  0  0  0  0  0  0  0
    2.4228    2.9968    0.0109 S   0  0  0  0  0  0  0  0  0  0  0  0
    1.9989    2.0325    1.2669 O   0  0  0  0  0  0  0  0  0  0  0  0
    1.2891    3.7814   -0.4221 O   0  0  0  0  0  0  0  0  0  0  0  0
    3.6973    3.5633    0.4036 O   0  0  0  0  0  0  0  0  0  0  0  0
    2.6903    1.9010   -1.1673 O   0  0  0  0  0  0  0  0  0  0  0  0
    3.6216    1.6299   -1.0980 H   0  0  0  0  0  0  0  0  0  0  0  0
  1  6  1  0  0  0  0
  2  1  2  0  0  0  0
  2  3  1  0  0  0  0
  3 19  1  0  0  0  0
  3  4  2  0  0  0  0
  4  5  1  0  0  0  0
  4  9  1  0  0  0  0
  5 10  1  0  0  0  0
  6 13  1  0  0  0  0
  6  5  2  0  0  0  0
  7  1  1  0  0  0  0
  8  2  1  0  0  0  0
 11 12  3  0  0  0  0
 14 15  1  0  0  0  0
 14 13  1  0  0  0  0
 14 16  1  0  0  0  0
 17 14  1  0  0  0  0
 18 21  2  0  0  0  0
 18 19  1  0  0  0  0
 20 18  2  0  0  0  0
 22 23  1  0  0  0  0
 22 18  1  0  0  0  0
M  END
