Coordinates from ORCA-job 4-MeO-Ph-N2-HSO4-B3LYPG-6-31G_dp-MTMO-d009-169-n800
 OpenBabel09051907533D

 23 22  0  0  0  0  0  0  0  0999 V2000
   -0.2007   -0.5581    0.7173 C   0  0  0  0  0  0  0  0  0  0  0  0
    1.0656    0.0313    0.6804 C   0  0  0  0  0  0  0  0  0  0  0  0
    1.2138    1.3619    1.0453 C   0  0  0  0  0  0  0  0  0  0  0  0
    0.1210    2.1303    1.4473 C   0  0  0  0  0  0  0  0  0  0  0  0
   -1.1378    1.5476    1.4829 C   0  0  0  0  0  0  0  0  0  0  0  0
   -1.3075    0.2013    1.1187 C   0  0  0  0  0  0  0  0  0  0  0  0
   -0.3082   -1.5975    0.4337 H   0  0  0  0  0  0  0  0  0  0  0  0
    1.9329   -0.5420    0.3729 H   0  0  0  0  0  0  0  0  0  0  0  0
    0.2653    3.1684    1.7236 H   0  0  0  0  0  0  0  0  0  0  0  0
   -2.0097    2.1147    1.7902 H   0  0  0  0  0  0  0  0  0  0  0  0
    8.7202    1.0395   -3.3206 N   0  0  0  0  0  0  0  0  0  0  0  0
    7.7427    0.9940   -2.8067 N   0  0  0  0  0  0  0  0  0  0  0  0
   -2.5830   -0.2703    1.1922 O   0  0  0  0  0  0  0  0  0  0  0  0
   -2.8256   -1.6207    0.8257 C   0  0  0  0  0  0  0  0  0  0  0  0
   -3.8974   -1.7787    0.9538 H   0  0  0  0  0  0  0  0  0  0  0  0
   -2.2788   -2.3194    1.4712 H   0  0  0  0  0  0  0  0  0  0  0  0
   -2.5546   -1.8098   -0.2207 H   0  0  0  0  0  0  0  0  0  0  0  0
    3.0325    2.7843   -0.2052 S   0  0  0  0  0  0  0  0  0  0  0  0
    2.5099    1.9207    1.0866 O   0  0  0  0  0  0  0  0  0  0  0  0
    1.9419    3.5468   -0.7687 O   0  0  0  0  0  0  0  0  0  0  0  0
    4.2870    3.3650    0.2295 O   0  0  0  0  0  0  0  0  0  0  0  0
    3.3627    1.6022   -1.2790 O   0  0  0  0  0  0  0  0  0  0  0  0
    4.2929    1.3492   -1.1491 H   0  0  0  0  0  0  0  0  0  0  0  0
  1  6  1  0  0  0  0
  2  1  2  0  0  0  0
  2  3  1  0  0  0  0
  3 19  1  0  0  0  0
  3  4  2  0  0  0  0
  4  5  1  0  0  0  0
  4  9  1  0  0  0  0
  5 10  1  0  0  0  0
  6 13  1  0  0  0  0
  6  5  2  0  0  0  0
  7  1  1  0  0  0  0
  8  2  1  0  0  0  0
 11 12  3  0  0  0  0
 14 15  1  0  0  0  0
 14 13  1  0  0  0  0
 14 16  1  0  0  0  0
 17 14  1  0  0  0  0
 18 21  2  0  0  0  0
 18 19  1  0  0  0  0
 20 18  2  0  0  0  0
 22 23  1  0  0  0  0
 22 18  1  0  0  0  0
M  END
