Coordinates from ORCA-job 4-MeO-Ph-N2-HSO4-B3LYPG-6-31G_dp-MTMO-d009-169-n800
 OpenBabel09051907533D

 23 22  0  0  0  0  0  0  0  0999 V2000
    0.0363   -0.2146    0.3544 C   0  0  0  0  0  0  0  0  0  0  0  0
    1.4140    0.0313    0.3425 C   0  0  0  0  0  0  0  0  0  0  0  0
    1.8805    1.2915    0.6918 C   0  0  0  0  0  0  0  0  0  0  0  0
    1.0003    2.3031    1.0812 C   0  0  0  0  0  0  0  0  0  0  0  0
   -0.3636    2.0527    1.1033 C   0  0  0  0  0  0  0  0  0  0  0  0
   -0.8582    0.7909    0.7353 C   0  0  0  0  0  0  0  0  0  0  0  0
   -0.3173   -1.1970    0.0675 H   0  0  0  0  0  0  0  0  0  0  0  0
    2.0931   -0.7589    0.0500 H   0  0  0  0  0  0  0  0  0  0  0  0
    1.3967    3.2738    1.3574 H   0  0  0  0  0  0  0  0  0  0  0  0
   -1.0682    2.8222    1.3990 H   0  0  0  0  0  0  0  0  0  0  0  0
    1.8823    2.5957   -1.9236 N   0  0  0  0  0  0  0  0  0  0  0  0
    1.1353    2.4364   -2.7228 N   0  0  0  0  0  0  0  0  0  0  0  0
   -2.2134    0.6500    0.7848 O   0  0  0  0  0  0  0  0  0  0  0  0
   -2.7716   -0.6055    0.4276 C   0  0  0  0  0  0  0  0  0  0  0  0
   -3.8517   -0.4969    0.5387 H   0  0  0  0  0  0  0  0  0  0  0  0
   -2.4204   -1.4076    1.0897 H   0  0  0  0  0  0  0  0  0  0  0  0
   -2.5402   -0.8701   -0.6119 H   0  0  0  0  0  0  0  0  0  0  0  0
    4.4278    0.8845   -0.0394 S   0  0  0  0  0  0  0  0  0  0  0  0
    3.2440    1.6470    0.7780 O   0  0  0  0  0  0  0  0  0  0  0  0
    3.9734    0.4367   -1.3355 O   0  0  0  0  0  0  0  0  0  0  0  0
    5.5900    1.7215    0.1679 O   0  0  0  0  0  0  0  0  0  0  0  0
    4.5978   -0.4736    0.8467 O   0  0  0  0  0  0  0  0  0  0  0  0
    5.1178   -0.2523    1.6383 H   0  0  0  0  0  0  0  0  0  0  0  0
  1  6  1  0  0  0  0
  2  1  2  0  0  0  0
  2  3  1  0  0  0  0
  3 19  1  0  0  0  0
  3  4  2  0  0  0  0
  4  5  1  0  0  0  0
  4  9  1  0  0  0  0
  5 10  1  0  0  0  0
  6 13  1  0  0  0  0
  6  5  2  0  0  0  0
  7  1  1  0  0  0  0
  8  2  1  0  0  0  0
 12 11  3  0  0  0  0
 14 15  1  0  0  0  0
 14 13  1  0  0  0  0
 14 16  1  0  0  0  0
 17 14  1  0  0  0  0
 18 21  2  0  0  0  0
 18 19  1  0  0  0  0
 18 22  1  0  0  0  0
 20 18  2  0  0  0  0
 22 23  1  0  0  0  0
M  END
