Coordinates from ORCA-job 4-MeO-Ph-N2-HSO4-B3LYPG-6-31G_dp-MTMO-d009-169-n800
 OpenBabel09051907533D

 23 22  0  0  0  0  0  0  0  0999 V2000
   -0.1863   -0.5697    0.6978 C   0  0  0  0  0  0  0  0  0  0  0  0
    1.0945   -0.0138    0.6452 C   0  0  0  0  0  0  0  0  0  0  0  0
    1.2788    1.3165    0.9947 C   0  0  0  0  0  0  0  0  0  0  0  0
    0.2097    2.1172    1.3959 C   0  0  0  0  0  0  0  0  0  0  0  0
   -1.0633    1.5672    1.4483 C   0  0  0  0  0  0  0  0  0  0  0  0
   -1.2699    0.2219    1.1002 C   0  0  0  0  0  0  0  0  0  0  0  0
   -0.3232   -1.6088    0.4256 H   0  0  0  0  0  0  0  0  0  0  0  0
    1.9451   -0.6111    0.3364 H   0  0  0  0  0  0  0  0  0  0  0  0
    0.3831    3.1541    1.6601 H   0  0  0  0  0  0  0  0  0  0  0  0
   -1.9180    2.1596    1.7562 H   0  0  0  0  0  0  0  0  0  0  0  0
    8.0489    1.3595   -2.9759 N   0  0  0  0  0  0  0  0  0  0  0  0
    7.0855    1.2825   -2.4396 N   0  0  0  0  0  0  0  0  0  0  0  0
   -2.5565   -0.2164    1.1899 O   0  0  0  0  0  0  0  0  0  0  0  0
   -2.8358   -1.5652    0.8444 C   0  0  0  0  0  0  0  0  0  0  0  0
   -3.9096   -1.6955    0.9871 H   0  0  0  0  0  0  0  0  0  0  0  0
   -2.2984   -2.2684    1.4929 H   0  0  0  0  0  0  0  0  0  0  0  0
   -2.5820   -1.7749   -0.2024 H   0  0  0  0  0  0  0  0  0  0  0  0
    3.1490    2.6406   -0.2972 S   0  0  0  0  0  0  0  0  0  0  0  0
    2.5887    1.8447    1.0217 O   0  0  0  0  0  0  0  0  0  0  0  0
    2.0603    3.3273   -0.9560 O   0  0  0  0  0  0  0  0  0  0  0  0
    4.3616    3.2960    0.1523 O   0  0  0  0  0  0  0  0  0  0  0  0
    3.5792    1.4037   -1.2689 O   0  0  0  0  0  0  0  0  0  0  0  0
    4.5432    1.2938   -1.1872 H   0  0  0  0  0  0  0  0  0  0  0  0
  1  6  1  0  0  0  0
  2  1  2  0  0  0  0
  2  3  1  0  0  0  0
  3 19  1  0  0  0  0
  3  4  2  0  0  0  0
  4  5  1  0  0  0  0
  4  9  1  0  0  0  0
  5 10  1  0  0  0  0
  6 13  1  0  0  0  0
  6  5  2  0  0  0  0
  7  1  1  0  0  0  0
  8  2  1  0  0  0  0
 11 12  3  0  0  0  0
 14 15  1  0  0  0  0
 14 13  1  0  0  0  0
 14 16  1  0  0  0  0
 17 14  1  0  0  0  0
 18 21  2  0  0  0  0
 18 19  1  0  0  0  0
 20 18  2  0  0  0  0
 22 23  1  0  0  0  0
 22 18  1  0  0  0  0
M  END
