Coordinates from ORCA-job 4-MeO-Ph-N2-HSO4-B3LYPG-6-31G_dp-MTMO-d009-169-n800
 OpenBabel09051907533D

 23 22  0  0  0  0  0  0  0  0999 V2000
   -0.2352   -0.5515    0.6974 C   0  0  0  0  0  0  0  0  0  0  0  0
    1.0238    0.0512    0.6343 C   0  0  0  0  0  0  0  0  0  0  0  0
    1.1742    1.3698    1.0398 C   0  0  0  0  0  0  0  0  0  0  0  0
    0.0908    2.1128    1.5092 C   0  0  0  0  0  0  0  0  0  0  0  0
   -1.1609    1.5169    1.5705 C   0  0  0  0  0  0  0  0  0  0  0  0
   -1.3327    0.1827    1.1655 C   0  0  0  0  0  0  0  0  0  0  0  0
   -0.3442   -1.5817    0.3823 H   0  0  0  0  0  0  0  0  0  0  0  0
    1.8839   -0.5030    0.2757 H   0  0  0  0  0  0  0  0  0  0  0  0
    0.2362    3.1419    1.8161 H   0  0  0  0  0  0  0  0  0  0  0  0
   -2.0256    2.0645    1.9294 H   0  0  0  0  0  0  0  0  0  0  0  0
    9.3201    0.8875   -3.3171 N   0  0  0  0  0  0  0  0  0  0  0  0
    8.2816    0.8212   -2.9448 N   0  0  0  0  0  0  0  0  0  0  0  0
   -2.6006   -0.3035    1.2687 O   0  0  0  0  0  0  0  0  0  0  0  0
   -2.8461   -1.6412    0.8598 C   0  0  0  0  0  0  0  0  0  0  0  0
   -3.9113   -1.8134    1.0200 H   0  0  0  0  0  0  0  0  0  0  0  0
   -2.2713   -2.3590    1.4581 H   0  0  0  0  0  0  0  0  0  0  0  0
   -2.6114   -1.7879   -0.2023 H   0  0  0  0  0  0  0  0  0  0  0  0
    2.9263    2.8621   -0.2221 S   0  0  0  0  0  0  0  0  0  0  0  0
    2.4662    1.9389    1.0522 O   0  0  0  0  0  0  0  0  0  0  0  0
    1.8146    3.6588   -0.6888 O   0  0  0  0  0  0  0  0  0  0  0  0
    4.2073    3.4123    0.1730 O   0  0  0  0  0  0  0  0  0  0  0  0
    3.1861    1.7322   -1.3689 O   0  0  0  0  0  0  0  0  0  0  0  0
    4.1129    1.4492   -1.2869 H   0  0  0  0  0  0  0  0  0  0  0  0
  1  6  1  0  0  0  0
  2  1  2  0  0  0  0
  2  3  1  0  0  0  0
  3 19  1  0  0  0  0
  3  4  2  0  0  0  0
  4  5  1  0  0  0  0
  4  9  1  0  0  0  0
  5 10  1  0  0  0  0
  6 13  1  0  0  0  0
  6  5  2  0  0  0  0
  7  1  1  0  0  0  0
  8  2  1  0  0  0  0
 11 12  3  0  0  0  0
 14 15  1  0  0  0  0
 14 13  1  0  0  0  0
 14 16  1  0  0  0  0
 17 14  1  0  0  0  0
 18 21  2  0  0  0  0
 18 19  1  0  0  0  0
 20 18  2  0  0  0  0
 22 23  1  0  0  0  0
 22 18  1  0  0  0  0
M  END
