Coordinates from ORCA-job 4-MeO-Ph-N2-HSO4-B3LYPG-6-31G_dp-MTMO-d009-169-n800
 OpenBabel09051907533D

 23 22  0  0  0  0  0  0  0  0999 V2000
   -0.0301   -0.0187    0.2107 C   0  0  0  0  0  0  0  0  0  0  0  0
    1.1783    0.5019   -0.2657 C   0  0  0  0  0  0  0  0  0  0  0  0
    1.1980    1.8612   -0.3997 C   0  0  0  0  0  0  0  0  0  0  0  0
    0.2071    2.7836   -0.1302 C   0  0  0  0  0  0  0  0  0  0  0  0
   -0.9780    2.2316    0.3426 C   0  0  0  0  0  0  0  0  0  0  0  0
   -1.1025    0.8373    0.5154 C   0  0  0  0  0  0  0  0  0  0  0  0
   -0.1076   -1.0893    0.3508 H   0  0  0  0  0  0  0  0  0  0  0  0
    2.0455   -0.1054   -0.4965 H   0  0  0  0  0  0  0  0  0  0  0  0
    0.3348    3.8497   -0.2663 H   0  0  0  0  0  0  0  0  0  0  0  0
   -1.8214    2.8660    0.5912 H   0  0  0  0  0  0  0  0  0  0  0  0
    2.6591    2.5724   -1.0248 N   0  0  0  0  0  0  0  0  0  0  0  0
    3.1473    3.4921   -1.4215 N   0  0  0  0  0  0  0  0  0  0  0  0
   -2.3000    0.4238    0.9833 O   0  0  0  0  0  0  0  0  0  0  0  0
   -2.5086   -0.9692    1.2084 C   0  0  0  0  0  0  0  0  0  0  0  0
   -3.5272   -1.0576    1.5859 H   0  0  0  0  0  0  0  0  0  0  0  0
   -1.8074   -1.3608    1.9541 H   0  0  0  0  0  0  0  0  0  0  0  0
   -2.4137   -1.5410    0.2780 H   0  0  0  0  0  0  0  0  0  0  0  0
    4.5717    0.6700    0.3952 S   0  0  0  0  0  0  0  0  0  0  0  0
    3.9631    1.6419    1.3121 O   0  0  0  0  0  0  0  0  0  0  0  0
    4.0060    0.8153   -1.0100 O   0  0  0  0  0  0  0  0  0  0  0  0
    6.0248    0.4840    0.4069 O   0  0  0  0  0  0  0  0  0  0  0  0
    3.9517   -0.8048    0.8913 O   0  0  0  0  0  0  0  0  0  0  0  0
    4.6940   -1.4234    0.8097 H   0  0  0  0  0  0  0  0  0  0  0  0
  1  7  1  0  0  0  0
  1  6  2  0  0  0  0
  2  1  1  0  0  0  0
  3  2  2  0  0  0  0
  3  4  1  0  0  0  0
  4  5  2  0  0  0  0
  5  6  1  0  0  0  0
  5 10  1  0  0  0  0
  6 13  1  0  0  0  0
  8  2  1  0  0  0  0
  9  4  1  0  0  0  0
 11  3  1  0  0  0  0
 12 11  2  0  0  0  0
 13 14  1  0  0  0  0
 14 15  1  0  0  0  0
 14 16  1  0  0  0  0
 17 14  1  0  0  0  0
 18 21  2  0  0  0  0
 18 22  1  0  0  0  0
 18 19  1  0  0  0  0
 20 18  2  0  0  0  0
 23 22  1  0  0  0  0
M  RAD  2  12   2  19   2
M  END
