Coordinates from ORCA-job 4-MeO-Ph-N2-HSO4-B3LYPG-6-31G_dp-MTMO-d009-169-n800
 OpenBabel09051907533D

 23 22  0  0  0  0  0  0  0  0999 V2000
   -0.2146   -0.5550    0.7069 C   0  0  0  0  0  0  0  0  0  0  0  0
    1.0474    0.0428    0.6575 C   0  0  0  0  0  0  0  0  0  0  0  0
    1.1944    1.3679    1.0428 C   0  0  0  0  0  0  0  0  0  0  0  0
    0.1046    2.1223    1.4780 C   0  0  0  0  0  0  0  0  0  0  0  0
   -1.1500    1.5313    1.5256 C   0  0  0  0  0  0  0  0  0  0  0  0
   -1.3184    0.1906    1.1409 C   0  0  0  0  0  0  0  0  0  0  0  0
   -0.3209   -1.5901    0.4076 H   0  0  0  0  0  0  0  0  0  0  0  0
    1.9124   -0.5199    0.3251 H   0  0  0  0  0  0  0  0  0  0  0  0
    0.2475    3.1562    1.7697 H   0  0  0  0  0  0  0  0  0  0  0  0
   -2.0195    2.0876    1.8582 H   0  0  0  0  0  0  0  0  0  0  0  0
    9.0243    0.9412   -3.3130 N   0  0  0  0  0  0  0  0  0  0  0  0
    8.0100    0.8851   -2.8774 N   0  0  0  0  0  0  0  0  0  0  0  0
   -2.5896   -0.2900    1.2286 O   0  0  0  0  0  0  0  0  0  0  0  0
   -2.8312   -1.6347    0.8409 C   0  0  0  0  0  0  0  0  0  0  0  0
   -3.8997   -1.8012    0.9845 H   0  0  0  0  0  0  0  0  0  0  0  0
   -2.2696   -2.3423    1.4636 H   0  0  0  0  0  0  0  0  0  0  0  0
   -2.5772   -1.8025   -0.2135 H   0  0  0  0  0  0  0  0  0  0  0  0
    2.9759    2.8340   -0.2095 S   0  0  0  0  0  0  0  0  0  0  0  0
    2.4880    1.9329    1.0703 O   0  0  0  0  0  0  0  0  0  0  0  0
    1.8743    3.6215   -0.7143 O   0  0  0  0  0  0  0  0  0  0  0  0
    4.2475    3.3921    0.2041 O   0  0  0  0  0  0  0  0  0  0  0  0
    3.2616    1.6847   -1.3305 O   0  0  0  0  0  0  0  0  0  0  0  0
    4.1875    1.4061   -1.2250 H   0  0  0  0  0  0  0  0  0  0  0  0
  1  6  1  0  0  0  0
  2  1  2  0  0  0  0
  2  3  1  0  0  0  0
  3 19  1  0  0  0  0
  3  4  2  0  0  0  0
  4  5  1  0  0  0  0
  4  9  1  0  0  0  0
  5 10  1  0  0  0  0
  6 13  1  0  0  0  0
  6  5  2  0  0  0  0
  7  1  1  0  0  0  0
  8  2  1  0  0  0  0
 11 12  3  0  0  0  0
 14 15  1  0  0  0  0
 14 13  1  0  0  0  0
 14 16  1  0  0  0  0
 17 14  1  0  0  0  0
 18 21  2  0  0  0  0
 18 19  1  0  0  0  0
 20 18  2  0  0  0  0
 22 23  1  0  0  0  0
 22 18  1  0  0  0  0
M  END
