Coordinates from ORCA-job 4-MeO-Ph-N2-HSO4-B3LYPG-6-31G_dp-MTMO-d009-169-n800
 OpenBabel09051907533D

 23 22  0  0  0  0  0  0  0  0999 V2000
   -0.1887   -0.5658    0.7014 C   0  0  0  0  0  0  0  0  0  0  0  0
    1.0888   -0.0017    0.6526 C   0  0  0  0  0  0  0  0  0  0  0  0
    1.2643    1.3286    1.0066 C   0  0  0  0  0  0  0  0  0  0  0  0
    0.1895    2.1213    1.4088 C   0  0  0  0  0  0  0  0  0  0  0  0
   -1.0801    1.5632    1.4574 C   0  0  0  0  0  0  0  0  0  0  0  0
   -1.2779    0.2177    1.1046 C   0  0  0  0  0  0  0  0  0  0  0  0
   -0.3185   -1.6049    0.4258 H   0  0  0  0  0  0  0  0  0  0  0  0
    1.9433   -0.5930    0.3433 H   0  0  0  0  0  0  0  0  0  0  0  0
    0.3559    3.1584    1.6766 H   0  0  0  0  0  0  0  0  0  0  0  0
   -1.9389    2.1493    1.7660 H   0  0  0  0  0  0  0  0  0  0  0  0
    8.1898    1.2873   -3.0553 N   0  0  0  0  0  0  0  0  0  0  0  0
    7.2254    1.2222   -2.5191 N   0  0  0  0  0  0  0  0  0  0  0  0
   -2.5618   -0.2287    1.1905 O   0  0  0  0  0  0  0  0  0  0  0  0
   -2.8324   -1.5777    0.8386 C   0  0  0  0  0  0  0  0  0  0  0  0
   -3.9057   -1.7148    0.9780 H   0  0  0  0  0  0  0  0  0  0  0  0
   -2.2925   -2.2805    1.4855 H   0  0  0  0  0  0  0  0  0  0  0  0
   -2.5748   -1.7814   -0.2085 H   0  0  0  0  0  0  0  0  0  0  0  0
    3.1236    2.6713   -0.2785 S   0  0  0  0  0  0  0  0  0  0  0  0
    2.5706    1.8650    1.0371 O   0  0  0  0  0  0  0  0  0  0  0  0
    2.0346    3.3722   -0.9210 O   0  0  0  0  0  0  0  0  0  0  0  0
    4.3452    3.3118    0.1678 O   0  0  0  0  0  0  0  0  0  0  0  0
    3.5339    1.4423   -1.2691 O   0  0  0  0  0  0  0  0  0  0  0  0
    4.4912    1.2987   -1.1680 H   0  0  0  0  0  0  0  0  0  0  0  0
  1  6  1  0  0  0  0
  2  1  2  0  0  0  0
  2  3  1  0  0  0  0
  3 19  1  0  0  0  0
  3  4  2  0  0  0  0
  4  5  1  0  0  0  0
  4  9  1  0  0  0  0
  5 10  1  0  0  0  0
  6 13  1  0  0  0  0
  6  5  2  0  0  0  0
  7  1  1  0  0  0  0
  8  2  1  0  0  0  0
 11 12  3  0  0  0  0
 14 15  1  0  0  0  0
 14 13  1  0  0  0  0
 14 16  1  0  0  0  0
 17 14  1  0  0  0  0
 18 21  2  0  0  0  0
 18 19  1  0  0  0  0
 20 18  2  0  0  0  0
 22 23  1  0  0  0  0
 22 18  1  0  0  0  0
M  END
