Coordinates from ORCA-job 4-MeO-Ph-N2-HSO4-B3LYPG-6-31G_dp-MTMO-d009-169-n800
 OpenBabel09051907533D

 23 22  0  0  0  0  0  0  0  0999 V2000
   -0.2093   -0.5562    0.7063 C   0  0  0  0  0  0  0  0  0  0  0  0
    1.0538    0.0393    0.6578 C   0  0  0  0  0  0  0  0  0  0  0  0
    1.2024    1.3651    1.0397 C   0  0  0  0  0  0  0  0  0  0  0  0
    0.1131    2.1227    1.4706 C   0  0  0  0  0  0  0  0  0  0  0  0
   -1.1427    1.5340    1.5174 C   0  0  0  0  0  0  0  0  0  0  0  0
   -1.3127    0.1926    1.1362 C   0  0  0  0  0  0  0  0  0  0  0  0
   -0.3169   -1.5919    0.4096 H   0  0  0  0  0  0  0  0  0  0  0  0
    1.9185   -0.5259    0.3286 H   0  0  0  0  0  0  0  0  0  0  0  0
    0.2573    3.1572    1.7597 H   0  0  0  0  0  0  0  0  0  0  0  0
   -2.0118    2.0929    1.8467 H   0  0  0  0  0  0  0  0  0  0  0  0
    8.9360    0.9645   -3.2854 N   0  0  0  0  0  0  0  0  0  0  0  0
    7.9251    0.9064   -2.8423 N   0  0  0  0  0  0  0  0  0  0  0  0
   -2.5849   -0.2855    1.2227 O   0  0  0  0  0  0  0  0  0  0  0  0
   -2.8280   -1.6311    0.8390 C   0  0  0  0  0  0  0  0  0  0  0  0
   -3.8970   -1.7954    0.9813 H   0  0  0  0  0  0  0  0  0  0  0  0
   -2.2686   -2.3375    1.4649 H   0  0  0  0  0  0  0  0  0  0  0  0
   -2.5726   -1.8027   -0.2144 H   0  0  0  0  0  0  0  0  0  0  0  0
    2.9896    2.8240   -0.2131 S   0  0  0  0  0  0  0  0  0  0  0  0
    2.4970    1.9279    1.0683 O   0  0  0  0  0  0  0  0  0  0  0  0
    1.8898    3.6096   -0.7248 O   0  0  0  0  0  0  0  0  0  0  0  0
    4.2597    3.3839    0.2029 O   0  0  0  0  0  0  0  0  0  0  0  0
    3.2799    1.6705   -1.3286 O   0  0  0  0  0  0  0  0  0  0  0  0
    4.2069    1.3962   -1.2220 H   0  0  0  0  0  0  0  0  0  0  0  0
  1  6  1  0  0  0  0
  2  1  2  0  0  0  0
  2  3  1  0  0  0  0
  3 19  1  0  0  0  0
  3  4  2  0  0  0  0
  4  5  1  0  0  0  0
  4  9  1  0  0  0  0
  5 10  1  0  0  0  0
  6 13  1  0  0  0  0
  6  5  2  0  0  0  0
  7  1  1  0  0  0  0
  8  2  1  0  0  0  0
 11 12  3  0  0  0  0
 14 15  1  0  0  0  0
 14 13  1  0  0  0  0
 14 16  1  0  0  0  0
 17 14  1  0  0  0  0
 18 21  2  0  0  0  0
 18 19  1  0  0  0  0
 20 18  2  0  0  0  0
 22 23  1  0  0  0  0
 22 18  1  0  0  0  0
M  END
