Coordinates from ORCA-job 4-MeO-Ph-N2-HSO4-B3LYPG-6-31G_dp-MTMO-d009-169-n800
 OpenBabel09051907533D

 23 22  0  0  0  0  0  0  0  0999 V2000
   -0.4294   -0.5369    0.7774 C   0  0  0  0  0  0  0  0  0  0  0  0
    0.8142    0.0976    0.7214 C   0  0  0  0  0  0  0  0  0  0  0  0
    0.9344    1.4111    1.1527 C   0  0  0  0  0  0  0  0  0  0  0  0
   -0.1645    2.1176    1.6422 C   0  0  0  0  0  0  0  0  0  0  0  0
   -1.4010    1.4900    1.6968 C   0  0  0  0  0  0  0  0  0  0  0  0
   -1.5424    0.1607    1.2648 C   0  0  0  0  0  0  0  0  0  0  0  0
   -0.5143   -1.5627    0.4418 H   0  0  0  0  0  0  0  0  0  0  0  0
    1.6858   -0.4280    0.3480 H   0  0  0  0  0  0  0  0  0  0  0  0
   -0.0429    3.1435    1.9694 H   0  0  0  0  0  0  0  0  0  0  0  0
   -2.2771    2.0087    2.0705 H   0  0  0  0  0  0  0  0  0  0  0  0
   11.7104    0.6485   -4.3728 N   0  0  0  0  0  0  0  0  0  0  0  0
   10.6692    0.5478   -4.0158 N   0  0  0  0  0  0  0  0  0  0  0  0
   -2.7977   -0.3581    1.3621 O   0  0  0  0  0  0  0  0  0  0  0  0
   -3.0131   -1.6911    0.9222 C   0  0  0  0  0  0  0  0  0  0  0  0
   -4.0738   -1.8914    1.0796 H   0  0  0  0  0  0  0  0  0  0  0  0
   -2.4211   -2.4096    1.5027 H   0  0  0  0  0  0  0  0  0  0  0  0
   -2.7772   -1.8073   -0.1434 H   0  0  0  0  0  0  0  0  0  0  0  0
    2.6422    2.9683   -0.0899 S   0  0  0  0  0  0  0  0  0  0  0  0
    2.2119    2.0119    1.1699 O   0  0  0  0  0  0  0  0  0  0  0  0
    1.5131    3.7567   -0.5280 O   0  0  0  0  0  0  0  0  0  0  0  0
    3.9190    3.5302    0.3019 O   0  0  0  0  0  0  0  0  0  0  0  0
    2.9052    1.8660   -1.2629 O   0  0  0  0  0  0  0  0  0  0  0  0
    3.8339    1.5871   -1.1894 H   0  0  0  0  0  0  0  0  0  0  0  0
  1  6  1  0  0  0  0
  2  1  2  0  0  0  0
  2  3  1  0  0  0  0
  3 19  1  0  0  0  0
  3  4  2  0  0  0  0
  4  5  1  0  0  0  0
  4  9  1  0  0  0  0
  5 10  1  0  0  0  0
  6 13  1  0  0  0  0
  6  5  2  0  0  0  0
  7  1  1  0  0  0  0
  8  2  1  0  0  0  0
 11 12  3  0  0  0  0
 14 15  1  0  0  0  0
 14 13  1  0  0  0  0
 14 16  1  0  0  0  0
 17 14  1  0  0  0  0
 18 21  2  0  0  0  0
 18 19  1  0  0  0  0
 20 18  2  0  0  0  0
 22 23  1  0  0  0  0
 22 18  1  0  0  0  0
M  END
