Coordinates from ORCA-job 4-MeO-Ph-N2-HSO4-B3LYPG-6-31G_dp-MTMO-d009-169-n800
 OpenBabel09051907533D

 23 22  0  0  0  0  0  0  0  0999 V2000
   -0.7115   -0.5299    0.9009 C   0  0  0  0  0  0  0  0  0  0  0  0
    0.5283    0.1122    0.8483 C   0  0  0  0  0  0  0  0  0  0  0  0
    0.6404    1.4248    1.2848 C   0  0  0  0  0  0  0  0  0  0  0  0
   -0.4630    2.1227    1.7764 C   0  0  0  0  0  0  0  0  0  0  0  0
   -1.6958    1.4875    1.8277 C   0  0  0  0  0  0  0  0  0  0  0  0
   -1.8289    0.1591    1.3902 C   0  0  0  0  0  0  0  0  0  0  0  0
   -0.7900   -1.5549    0.5611 H   0  0  0  0  0  0  0  0  0  0  0  0
    1.4033   -0.4067    0.4735 H   0  0  0  0  0  0  0  0  0  0  0  0
   -0.3478    3.1480    2.1078 H   0  0  0  0  0  0  0  0  0  0  0  0
   -2.5752    1.9994    2.2028 H   0  0  0  0  0  0  0  0  0  0  0  0
   14.7528    0.5516   -5.7182 N   0  0  0  0  0  0  0  0  0  0  0  0
   13.7109    0.4481   -5.3642 N   0  0  0  0  0  0  0  0  0  0  0  0
   -3.0813   -0.3675    1.4843 O   0  0  0  0  0  0  0  0  0  0  0  0
   -3.2886   -1.6997    1.0383 C   0  0  0  0  0  0  0  0  0  0  0  0
   -4.3483   -1.9067    1.1936 H   0  0  0  0  0  0  0  0  0  0  0  0
   -2.6933   -2.4173    1.6165 H   0  0  0  0  0  0  0  0  0  0  0  0
   -3.0507   -1.8099   -0.0274 H   0  0  0  0  0  0  0  0  0  0  0  0
    2.3398    2.9961    0.0488 S   0  0  0  0  0  0  0  0  0  0  0  0
    1.9143    2.0332    1.3052 O   0  0  0  0  0  0  0  0  0  0  0  0
    1.2069    3.7805   -0.3864 O   0  0  0  0  0  0  0  0  0  0  0  0
    3.6140    3.5627    0.4424 O   0  0  0  0  0  0  0  0  0  0  0  0
    2.6085    1.8990   -1.1280 O   0  0  0  0  0  0  0  0  0  0  0  0
    3.5398    1.6283   -1.0574 H   0  0  0  0  0  0  0  0  0  0  0  0
  1  6  1  0  0  0  0
  2  1  2  0  0  0  0
  2  3  1  0  0  0  0
  3 19  1  0  0  0  0
  3  4  2  0  0  0  0
  4  5  1  0  0  0  0
  4  9  1  0  0  0  0
  5 10  1  0  0  0  0
  6 13  1  0  0  0  0
  6  5  2  0  0  0  0
  7  1  1  0  0  0  0
  8  2  1  0  0  0  0
 11 12  3  0  0  0  0
 14 15  1  0  0  0  0
 14 13  1  0  0  0  0
 14 16  1  0  0  0  0
 17 14  1  0  0  0  0
 18 21  2  0  0  0  0
 18 19  1  0  0  0  0
 20 18  2  0  0  0  0
 22 23  1  0  0  0  0
 22 18  1  0  0  0  0
M  END
