Coordinates from ORCA-job 4-MeO-Ph-N2-HSO4-B3LYPG-6-31G_dp-MTMO-d009-169-n800
 OpenBabel09051907533D

 23 22  0  0  0  0  0  0  0  0999 V2000
   -0.3487   -0.5418    0.7406 C   0  0  0  0  0  0  0  0  0  0  0  0
    0.9004    0.0812    0.6791 C   0  0  0  0  0  0  0  0  0  0  0  0
    1.0332    1.3955    1.1043 C   0  0  0  0  0  0  0  0  0  0  0  0
   -0.0584    2.1140    1.5927 C   0  0  0  0  0  0  0  0  0  0  0  0
   -1.3004    1.4978    1.6527 C   0  0  0  0  0  0  0  0  0  0  0  0
   -1.4544    0.1678    1.2271 C   0  0  0  0  0  0  0  0  0  0  0  0
   -0.4436   -1.5684    0.4098 H   0  0  0  0  0  0  0  0  0  0  0  0
    1.7665   -0.4539    0.3064 H   0  0  0  0  0  0  0  0  0  0  0  0
    0.0731    3.1403    1.9151 H   0  0  0  0  0  0  0  0  0  0  0  0
   -2.1710    2.0260    2.0258 H   0  0  0  0  0  0  0  0  0  0  0  0
   10.7390    0.7355   -3.9275 N   0  0  0  0  0  0  0  0  0  0  0  0
    9.6980    0.6404   -3.5686 N   0  0  0  0  0  0  0  0  0  0  0  0
   -2.7140   -0.3394    1.3298 O   0  0  0  0  0  0  0  0  0  0  0  0
   -2.9421   -1.6728    0.8976 C   0  0  0  0  0  0  0  0  0  0  0  0
   -4.0039   -1.8634    1.0593 H   0  0  0  0  0  0  0  0  0  0  0  0
   -2.3544   -2.3932    1.4802 H   0  0  0  0  0  0  0  0  0  0  0  0
   -2.7103   -1.7967   -0.1681 H   0  0  0  0  0  0  0  0  0  0  0  0
    2.7528    2.9323   -0.1478 S   0  0  0  0  0  0  0  0  0  0  0  0
    2.3160    1.9849    1.1168 O   0  0  0  0  0  0  0  0  0  0  0  0
    1.6288    3.7257   -0.5900 O   0  0  0  0  0  0  0  0  0  0  0  0
    4.0331    3.4879    0.2415 O   0  0  0  0  0  0  0  0  0  0  0  0
    3.0091    1.8225   -1.3151 O   0  0  0  0  0  0  0  0  0  0  0  0
    3.9361    1.5385   -1.2406 H   0  0  0  0  0  0  0  0  0  0  0  0
  1  6  1  0  0  0  0
  2  1  2  0  0  0  0
  2  3  1  0  0  0  0
  3 19  1  0  0  0  0
  3  4  2  0  0  0  0
  4  5  1  0  0  0  0
  4  9  1  0  0  0  0
  5 10  1  0  0  0  0
  6 13  1  0  0  0  0
  6  5  2  0  0  0  0
  7  1  1  0  0  0  0
  8  2  1  0  0  0  0
 11 12  3  0  0  0  0
 14 15  1  0  0  0  0
 14 13  1  0  0  0  0
 14 16  1  0  0  0  0
 17 14  1  0  0  0  0
 18 21  2  0  0  0  0
 18 19  1  0  0  0  0
 20 18  2  0  0  0  0
 22 23  1  0  0  0  0
 22 18  1  0  0  0  0
M  END
