Coordinates from ORCA-job 4-MeO-Ph-N2-HSO4-B3LYPG-6-31G_dp-MTMO-d009-169-n800
 OpenBabel09051907533D

 23 22  0  0  0  0  0  0  0  0999 V2000
   -0.1326   -0.3548    1.1780 C   0  0  0  0  0  0  0  0  0  0  0  0
    1.2223   -0.0132    1.1619 C   0  0  0  0  0  0  0  0  0  0  0  0
    1.6410    1.0925    0.4354 C   0  0  0  0  0  0  0  0  0  0  0  0
    0.7374    1.8746   -0.2841 C   0  0  0  0  0  0  0  0  0  0  0  0
   -0.6085    1.5369   -0.2685 C   0  0  0  0  0  0  0  0  0  0  0  0
   -1.0524    0.4210    0.4606 C   0  0  0  0  0  0  0  0  0  0  0  0
   -0.4526   -1.2189    1.7473 H   0  0  0  0  0  0  0  0  0  0  0  0
    1.9468   -0.6031    1.7117 H   0  0  0  0  0  0  0  0  0  0  0  0
    1.0953    2.7333   -0.8403 H   0  0  0  0  0  0  0  0  0  0  0  0
   -1.3398    2.1226   -0.8147 H   0  0  0  0  0  0  0  0  0  0  0  0
    3.5363    4.5744   -0.6260 N   0  0  0  0  0  0  0  0  0  0  0  0
    4.3681    5.1650   -0.2015 N   0  0  0  0  0  0  0  0  0  0  0  0
   -2.3919    0.1808    0.4085 O   0  0  0  0  0  0  0  0  0  0  0  0
   -2.9064   -0.9342    1.1207 C   0  0  0  0  0  0  0  0  0  0  0  0
   -3.9828   -0.9347    0.9415 H   0  0  0  0  0  0  0  0  0  0  0  0
   -2.7194   -0.8465    2.1991 H   0  0  0  0  0  0  0  0  0  0  0  0
   -2.4803   -1.8778    0.7574 H   0  0  0  0  0  0  0  0  0  0  0  0
    4.0168    0.9254   -0.6659 S   0  0  0  0  0  0  0  0  0  0  0  0
    2.9970    1.4824    0.4894 O   0  0  0  0  0  0  0  0  0  0  0  0
    3.3285    0.8034   -1.9302 O   0  0  0  0  0  0  0  0  0  0  0  0
    5.2325    1.6918   -0.4748 O   0  0  0  0  0  0  0  0  0  0  0  0
    4.2901   -0.5989   -0.1516 O   0  0  0  0  0  0  0  0  0  0  0  0
    5.0393   -0.5614    0.4672 H   0  0  0  0  0  0  0  0  0  0  0  0
  1  7  1  0  0  0  0
  2  1  1  0  0  0  0
  2  8  1  0  0  0  0
  3 19  1  0  0  0  0
  3  2  2  0  0  0  0
  4  5  2  0  0  0  0
  4  3  1  0  0  0  0
  5  6  1  0  0  0  0
  6  1  2  0  0  0  0
  9  4  1  0  0  0  0
 10  5  1  0  0  0  0
 11 12  3  0  0  0  0
 13  6  1  0  0  0  0
 13 14  1  0  0  0  0
 14 16  1  0  0  0  0
 15 14  1  0  0  0  0
 17 14  1  0  0  0  0
 18 21  2  0  0  0  0
 18 22  1  0  0  0  0
 18 19  1  0  0  0  0
 20 18  2  0  0  0  0
 22 23  1  0  0  0  0
M  END
