Coordinates from ORCA-job 4-MeO-Ph-N2-HSO4-B3LYPG-6-31G_dp-MTMO-d009-169-n800
 OpenBabel09051907533D

 23 22  0  0  0  0  0  0  0  0999 V2000
    0.0439   -0.1725    0.2507 C   0  0  0  0  0  0  0  0  0  0  0  0
    1.4167    0.0886    0.1794 C   0  0  0  0  0  0  0  0  0  0  0  0
    1.8881    1.3422    0.5484 C   0  0  0  0  0  0  0  0  0  0  0  0
    1.0222    2.3108    1.0639 C   0  0  0  0  0  0  0  0  0  0  0  0
   -0.3362    2.0469    1.1384 C   0  0  0  0  0  0  0  0  0  0  0  0
   -0.8400    0.8028    0.7240 C   0  0  0  0  0  0  0  0  0  0  0  0
   -0.3145   -1.1445   -0.0643 H   0  0  0  0  0  0  0  0  0  0  0  0
    2.0839   -0.6747   -0.1975 H   0  0  0  0  0  0  0  0  0  0  0  0
    1.4250    3.2671    1.3788 H   0  0  0  0  0  0  0  0  0  0  0  0
   -1.0298    2.7897    1.5170 H   0  0  0  0  0  0  0  0  0  0  0  0
    1.8166    2.3048   -1.7382 N   0  0  0  0  0  0  0  0  0  0  0  0
    0.9533    2.3415   -2.4301 N   0  0  0  0  0  0  0  0  0  0  0  0
   -2.1894    0.6458    0.8315 O   0  0  0  0  0  0  0  0  0  0  0  0
   -2.7563   -0.5910    0.4248 C   0  0  0  0  0  0  0  0  0  0  0  0
   -3.8304   -0.4991    0.5935 H   0  0  0  0  0  0  0  0  0  0  0  0
   -2.3689   -1.4286    1.0187 H   0  0  0  0  0  0  0  0  0  0  0  0
   -2.5724   -0.7889   -0.6388 H   0  0  0  0  0  0  0  0  0  0  0  0
    4.4618    0.8448   -0.0382 S   0  0  0  0  0  0  0  0  0  0  0  0
    3.2463    1.7206    0.5939 O   0  0  0  0  0  0  0  0  0  0  0  0
    4.0875    0.2480   -1.2997 O   0  0  0  0  0  0  0  0  0  0  0  0
    5.6241    1.6875    0.1414 O   0  0  0  0  0  0  0  0  0  0  0  0
    4.5415   -0.3953    1.0152 O   0  0  0  0  0  0  0  0  0  0  0  0
    5.0118   -0.0857    1.8082 H   0  0  0  0  0  0  0  0  0  0  0  0
  1  6  1  0  0  0  0
  2  1  2  0  0  0  0
  2  3  1  0  0  0  0
  3 19  1  0  0  0  0
  3  4  2  0  0  0  0
  4  5  1  0  0  0  0
  4  9  1  0  0  0  0
  5 10  1  0  0  0  0
  6 13  1  0  0  0  0
  6  5  2  0  0  0  0
  7  1  1  0  0  0  0
  8  2  1  0  0  0  0
 12 11  3  0  0  0  0
 14 15  1  0  0  0  0
 14 13  1  0  0  0  0
 14 16  1  0  0  0  0
 17 14  1  0  0  0  0
 18 21  2  0  0  0  0
 18 19  1  0  0  0  0
 18 22  1  0  0  0  0
 20 18  2  0  0  0  0
 22 23  1  0  0  0  0
M  END
