Coordinates from ORCA-job 4-MeO-Ph-N2-HSO4-B3LYPG-6-31G_dp-MTMO-d009-169-n800
 OpenBabel09051907533D

 23 22  0  0  0  0  0  0  0  0999 V2000
   -0.1798   -0.5742    0.6910 C   0  0  0  0  0  0  0  0  0  0  0  0
    1.1046   -0.0271    0.6321 C   0  0  0  0  0  0  0  0  0  0  0  0
    1.2994    1.3027    0.9777 C   0  0  0  0  0  0  0  0  0  0  0  0
    0.2374    2.1118    1.3810 C   0  0  0  0  0  0  0  0  0  0  0  0
   -1.0392    1.5705    1.4397 C   0  0  0  0  0  0  0  0  0  0  0  0
   -1.2564    0.2258    1.0958 C   0  0  0  0  0  0  0  0  0  0  0  0
   -0.3249   -1.6130    0.4219 H   0  0  0  0  0  0  0  0  0  0  0  0
    1.9501   -0.6308    0.3214 H   0  0  0  0  0  0  0  0  0  0  0  0
    0.4188    3.1481    1.6419 H   0  0  0  0  0  0  0  0  0  0  0  0
   -1.8886    2.1696    1.7494 H   0  0  0  0  0  0  0  0  0  0  0  0
    7.8762    1.4323   -2.8455 N   0  0  0  0  0  0  0  0  0  0  0  0
    6.9062    1.3363   -2.3244 N   0  0  0  0  0  0  0  0  0  0  0  0
   -2.5456   -0.2035    1.1917 O   0  0  0  0  0  0  0  0  0  0  0  0
   -2.8353   -1.5515    0.8519 C   0  0  0  0  0  0  0  0  0  0  0  0
   -3.9091   -1.6744    1.0000 H   0  0  0  0  0  0  0  0  0  0  0  0
   -2.2993   -2.2561    1.5001 H   0  0  0  0  0  0  0  0  0  0  0  0
   -2.5877   -1.7664   -0.1954 H   0  0  0  0  0  0  0  0  0  0  0  0
    3.1758    2.6112   -0.3236 S   0  0  0  0  0  0  0  0  0  0  0  0
    2.6132    1.8215    0.9982 O   0  0  0  0  0  0  0  0  0  0  0  0
    2.0863    3.2922   -0.9875 O   0  0  0  0  0  0  0  0  0  0  0  0
    4.3852    3.2742    0.1243 O   0  0  0  0  0  0  0  0  0  0  0  0
    3.6137    1.3693   -1.2841 O   0  0  0  0  0  0  0  0  0  0  0  0
    4.5838    1.2923   -1.2364 H   0  0  0  0  0  0  0  0  0  0  0  0
  1  6  1  0  0  0  0
  2  1  2  0  0  0  0
  2  3  1  0  0  0  0
  3 19  1  0  0  0  0
  3  4  2  0  0  0  0
  4  5  1  0  0  0  0
  4  9  1  0  0  0  0
  5 10  1  0  0  0  0
  6 13  1  0  0  0  0
  6  5  2  0  0  0  0
  7  1  1  0  0  0  0
  8  2  1  0  0  0  0
 11 12  3  0  0  0  0
 14 15  1  0  0  0  0
 14 13  1  0  0  0  0
 14 16  1  0  0  0  0
 17 14  1  0  0  0  0
 18 21  2  0  0  0  0
 18 19  1  0  0  0  0
 20 18  2  0  0  0  0
 22 23  1  0  0  0  0
 22 18  1  0  0  0  0
M  END
