Coordinates from ORCA-job 4-MeO-Ph-N2-HSO4-B3LYPG-6-31G_dp-MTMO-d009-169-n800
 OpenBabel09051907533D

 23 22  0  0  0  0  0  0  0  0999 V2000
   -0.1230   -0.3418    1.1787 C   0  0  0  0  0  0  0  0  0  0  0  0
    1.2332   -0.0059    1.1596 C   0  0  0  0  0  0  0  0  0  0  0  0
    1.6569    1.0920    0.4243 C   0  0  0  0  0  0  0  0  0  0  0  0
    0.7566    1.8719   -0.3019 C   0  0  0  0  0  0  0  0  0  0  0  0
   -0.5907    1.5398   -0.2835 C   0  0  0  0  0  0  0  0  0  0  0  0
   -1.0395    0.4320    0.4548 C   0  0  0  0  0  0  0  0  0  0  0  0
   -0.4467   -1.1997    1.7552 H   0  0  0  0  0  0  0  0  0  0  0  0
    1.9552   -0.5943    1.7145 H   0  0  0  0  0  0  0  0  0  0  0  0
    1.1182    2.7247   -0.8646 H   0  0  0  0  0  0  0  0  0  0  0  0
   -1.3195    2.1241   -0.8345 H   0  0  0  0  0  0  0  0  0  0  0  0
    3.4100    4.5281   -0.5712 N   0  0  0  0  0  0  0  0  0  0  0  0
    4.2290    5.1259   -0.1322 N   0  0  0  0  0  0  0  0  0  0  0  0
   -2.3800    0.1972    0.4045 O   0  0  0  0  0  0  0  0  0  0  0  0
   -2.8993   -0.9095    1.1262 C   0  0  0  0  0  0  0  0  0  0  0  0
   -3.9757   -0.9068    0.9470 H   0  0  0  0  0  0  0  0  0  0  0  0
   -2.7119   -0.8134    2.2038 H   0  0  0  0  0  0  0  0  0  0  0  0
   -2.4773   -1.8580    0.7711 H   0  0  0  0  0  0  0  0  0  0  0  0
    4.0316    0.9097   -0.6780 S   0  0  0  0  0  0  0  0  0  0  0  0
    3.0149    1.4747    0.4761 O   0  0  0  0  0  0  0  0  0  0  0  0
    3.3414    0.7842   -1.9409 O   0  0  0  0  0  0  0  0  0  0  0  0
    5.2495    1.6738   -0.4915 O   0  0  0  0  0  0  0  0  0  0  0  0
    4.3009   -0.6130   -0.1572 O   0  0  0  0  0  0  0  0  0  0  0  0
    5.0508   -0.5750    0.4608 H   0  0  0  0  0  0  0  0  0  0  0  0
  1  7  1  0  0  0  0
  2  1  1  0  0  0  0
  2  8  1  0  0  0  0
  3 19  1  0  0  0  0
  3  2  2  0  0  0  0
  4  5  2  0  0  0  0
  4  3  1  0  0  0  0
  5  6  1  0  0  0  0
  6  1  2  0  0  0  0
  9  4  1  0  0  0  0
 10  5  1  0  0  0  0
 11 12  3  0  0  0  0
 13  6  1  0  0  0  0
 13 14  1  0  0  0  0
 14 16  1  0  0  0  0
 15 14  1  0  0  0  0
 17 14  1  0  0  0  0
 18 21  2  0  0  0  0
 18 22  1  0  0  0  0
 18 19  1  0  0  0  0
 20 18  2  0  0  0  0
 22 23  1  0  0  0  0
M  END
