Coordinates from ORCA-job 4-MeO-Ph-N2-HSO4-B3LYPG-6-31G_dp-MTMO-d009-169-n800
 OpenBabel09051907533D

 23 22  0  0  0  0  0  0  0  0999 V2000
   -0.6938   -0.5301    0.8932 C   0  0  0  0  0  0  0  0  0  0  0  0
    0.5460    0.1121    0.8406 C   0  0  0  0  0  0  0  0  0  0  0  0
    0.6579    1.4246    1.2771 C   0  0  0  0  0  0  0  0  0  0  0  0
   -0.4456    2.1224    1.7688 C   0  0  0  0  0  0  0  0  0  0  0  0
   -1.6783    1.4871    1.8200 C   0  0  0  0  0  0  0  0  0  0  0  0
   -1.8113    0.1587    1.3825 C   0  0  0  0  0  0  0  0  0  0  0  0
   -0.7722   -1.5551    0.5533 H   0  0  0  0  0  0  0  0  0  0  0  0
    1.4210   -0.4067    0.4656 H   0  0  0  0  0  0  0  0  0  0  0  0
   -0.3304    3.1478    2.1002 H   0  0  0  0  0  0  0  0  0  0  0  0
   -2.5577    1.9989    2.1952 H   0  0  0  0  0  0  0  0  0  0  0  0
   14.5682    0.5544   -5.6372 N   0  0  0  0  0  0  0  0  0  0  0  0
   13.5264    0.4496   -5.2832 N   0  0  0  0  0  0  0  0  0  0  0  0
   -3.0636   -0.3680    1.4767 O   0  0  0  0  0  0  0  0  0  0  0  0
   -3.2708   -1.7002    1.0306 C   0  0  0  0  0  0  0  0  0  0  0  0
   -4.3305   -1.9073    1.1858 H   0  0  0  0  0  0  0  0  0  0  0  0
   -2.6754   -2.4178    1.6087 H   0  0  0  0  0  0  0  0  0  0  0  0
   -3.0329   -1.8102   -0.0352 H   0  0  0  0  0  0  0  0  0  0  0  0
    2.3572    2.9962    0.0412 S   0  0  0  0  0  0  0  0  0  0  0  0
    1.9318    2.0331    1.2975 O   0  0  0  0  0  0  0  0  0  0  0  0
    1.2241    3.7806   -0.3938 O   0  0  0  0  0  0  0  0  0  0  0  0
    3.6314    3.5628    0.4347 O   0  0  0  0  0  0  0  0  0  0  0  0
    2.6258    1.8992   -1.1357 O   0  0  0  0  0  0  0  0  0  0  0  0
    3.5571    1.6285   -1.0653 H   0  0  0  0  0  0  0  0  0  0  0  0
  1  6  1  0  0  0  0
  2  1  2  0  0  0  0
  2  3  1  0  0  0  0
  3 19  1  0  0  0  0
  3  4  2  0  0  0  0
  4  5  1  0  0  0  0
  4  9  1  0  0  0  0
  5 10  1  0  0  0  0
  6 13  1  0  0  0  0
  6  5  2  0  0  0  0
  7  1  1  0  0  0  0
  8  2  1  0  0  0  0
 11 12  3  0  0  0  0
 14 15  1  0  0  0  0
 14 13  1  0  0  0  0
 14 16  1  0  0  0  0
 17 14  1  0  0  0  0
 18 21  2  0  0  0  0
 18 19  1  0  0  0  0
 20 18  2  0  0  0  0
 22 23  1  0  0  0  0
 22 18  1  0  0  0  0
M  END
