Coordinates from ORCA-job 4-MeO-Ph-N2-HSO4-B3LYPG-6-31G_dp-MTMO-d009-169-n800
 OpenBabel09051907533D

 23 22  0  0  0  0  0  0  0  0999 V2000
   -0.1994   -0.6502    1.0434 C   0  0  0  0  0  0  0  0  0  0  0  0
    1.1522   -0.2975    1.0825 C   0  0  0  0  0  0  0  0  0  0  0  0
    1.5197    1.0307    0.9187 C   0  0  0  0  0  0  0  0  0  0  0  0
    0.5660    2.0275    0.7115 C   0  0  0  0  0  0  0  0  0  0  0  0
   -0.7766    1.6788    0.6692 C   0  0  0  0  0  0  0  0  0  0  0  0
   -1.1684    0.3396    0.8347 C   0  0  0  0  0  0  0  0  0  0  0  0
   -0.4787   -1.6875    1.1787 H   0  0  0  0  0  0  0  0  0  0  0  0
    1.9150   -1.0507    1.2456 H   0  0  0  0  0  0  0  0  0  0  0  0
    0.8808    3.0566    0.5813 H   0  0  0  0  0  0  0  0  0  0  0  0
   -1.5451    2.4269    0.5088 H   0  0  0  0  0  0  0  0  0  0  0  0
    5.2105    4.7923   -2.3221 N   0  0  0  0  0  0  0  0  0  0  0  0
    5.6880    3.8389   -2.6123 N   0  0  0  0  0  0  0  0  0  0  0  0
   -2.5096    0.1094    0.7793 O   0  0  0  0  0  0  0  0  0  0  0  0
   -2.9725   -1.2247    0.9242 C   0  0  0  0  0  0  0  0  0  0  0  0
   -4.0594   -1.1763    0.8431 H   0  0  0  0  0  0  0  0  0  0  0  0
   -2.7017   -1.6424    1.9026 H   0  0  0  0  0  0  0  0  0  0  0  0
   -2.5802   -1.8768    0.1330 H   0  0  0  0  0  0  0  0  0  0  0  0
    3.7723    1.5719   -0.3130 S   0  0  0  0  0  0  0  0  0  0  0  0
    2.8810    1.3831    1.0481 O   0  0  0  0  0  0  0  0  0  0  0  0
    2.9836    2.2093   -1.3428 O   0  0  0  0  0  0  0  0  0  0  0  0
    5.0473    2.0771    0.1557 O   0  0  0  0  0  0  0  0  0  0  0  0
    3.9770    0.0266   -0.7912 O   0  0  0  0  0  0  0  0  0  0  0  0
    4.7830   -0.3018   -0.3577 H   0  0  0  0  0  0  0  0  0  0  0  0
  1  2  1  0  0  0  0
  1  7  1  0  0  0  0
  2  8  1  0  0  0  0
  3 19  1  0  0  0  0
  3  2  2  0  0  0  0
  4  3  1  0  0  0  0
  5  4  2  0  0  0  0
  5  6  1  0  0  0  0
  6  1  2  0  0  0  0
  9  4  1  0  0  0  0
 10  5  1  0  0  0  0
 12 11  3  0  0  0  0
 13  6  1  0  0  0  0
 13 14  1  0  0  0  0
 14 16  1  0  0  0  0
 15 14  1  0  0  0  0
 17 14  1  0  0  0  0
 18 21  2  0  0  0  0
 18 19  1  0  0  0  0
 20 18  2  0  0  0  0
 22 23  1  0  0  0  0
 22 18  1  0  0  0  0
M  END
