Coordinates from ORCA-job 4-MeO-Ph-N2-HSO4-B3LYPG-6-31G_dp-MTMO-d009-169-n800
 OpenBabel09051907533D

 23 22  0  0  0  0  0  0  0  0999 V2000
   -0.5227   -0.5329    0.8186 C   0  0  0  0  0  0  0  0  0  0  0  0
    0.7171    0.1093    0.7659 C   0  0  0  0  0  0  0  0  0  0  0  0
    0.8290    1.4220    1.2020 C   0  0  0  0  0  0  0  0  0  0  0  0
   -0.2745    2.1199    1.6933 C   0  0  0  0  0  0  0  0  0  0  0  0
   -1.5072    1.4846    1.7447 C   0  0  0  0  0  0  0  0  0  0  0  0
   -1.6402    0.1561    1.3076 C   0  0  0  0  0  0  0  0  0  0  0  0
   -0.6011   -1.5580    0.4790 H   0  0  0  0  0  0  0  0  0  0  0  0
    1.5921   -0.4096    0.3911 H   0  0  0  0  0  0  0  0  0  0  0  0
   -0.1594    3.1454    2.0245 H   0  0  0  0  0  0  0  0  0  0  0  0
   -2.3866    1.9966    2.1197 H   0  0  0  0  0  0  0  0  0  0  0  0
   12.7728    0.5823   -4.8495 N   0  0  0  0  0  0  0  0  0  0  0  0
   11.7307    0.4794   -4.4958 N   0  0  0  0  0  0  0  0  0  0  0  0
   -2.8925   -0.3706    1.4019 O   0  0  0  0  0  0  0  0  0  0  0  0
   -3.0997   -1.7029    0.9561 C   0  0  0  0  0  0  0  0  0  0  0  0
   -4.1594   -1.9099    1.1114 H   0  0  0  0  0  0  0  0  0  0  0  0
   -2.5043   -2.4204    1.5345 H   0  0  0  0  0  0  0  0  0  0  0  0
   -2.8617   -1.8132   -0.1096 H   0  0  0  0  0  0  0  0  0  0  0  0
    2.5282    2.9933   -0.0343 S   0  0  0  0  0  0  0  0  0  0  0  0
    2.1029    2.0305    1.2222 O   0  0  0  0  0  0  0  0  0  0  0  0
    1.3952    3.7780   -0.4691 O   0  0  0  0  0  0  0  0  0  0  0  0
    3.8026    3.5597    0.3589 O   0  0  0  0  0  0  0  0  0  0  0  0
    2.7962    1.8963   -1.2112 O   0  0  0  0  0  0  0  0  0  0  0  0
    3.7272    1.6246   -1.1408 H   0  0  0  0  0  0  0  0  0  0  0  0
  1  6  1  0  0  0  0
  2  1  2  0  0  0  0
  2  3  1  0  0  0  0
  3 19  1  0  0  0  0
  3  4  2  0  0  0  0
  4  5  1  0  0  0  0
  4  9  1  0  0  0  0
  5 10  1  0  0  0  0
  6 13  1  0  0  0  0
  6  5  2  0  0  0  0
  7  1  1  0  0  0  0
  8  2  1  0  0  0  0
 11 12  3  0  0  0  0
 14 15  1  0  0  0  0
 14 13  1  0  0  0  0
 14 16  1  0  0  0  0
 17 14  1  0  0  0  0
 18 21  2  0  0  0  0
 18 19  1  0  0  0  0
 20 18  2  0  0  0  0
 22 23  1  0  0  0  0
 22 18  1  0  0  0  0
M  END
