Coordinates from ORCA-job 4-MeO-Ph-N2-HSO4-B3LYPG-6-31G_dp-MTMO-d009-169-n800
 OpenBabel09051907533D

 23 22  0  0  0  0  0  0  0  0999 V2000
   -0.3856   -0.5395    0.7569 C   0  0  0  0  0  0  0  0  0  0  0  0
    0.8609    0.0890    0.6975 C   0  0  0  0  0  0  0  0  0  0  0  0
    0.9880    1.4027    1.1261 C   0  0  0  0  0  0  0  0  0  0  0  0
   -0.1067    2.1154    1.6160 C   0  0  0  0  0  0  0  0  0  0  0  0
   -1.3461    1.4938    1.6740 C   0  0  0  0  0  0  0  0  0  0  0  0
   -1.4944    0.1643    1.2448 C   0  0  0  0  0  0  0  0  0  0  0  0
   -0.4760   -1.5656    0.4234 H   0  0  0  0  0  0  0  0  0  0  0  0
    1.7294   -0.4415    0.3237 H   0  0  0  0  0  0  0  0  0  0  0  0
    0.0204    3.1413    1.9411 H   0  0  0  0  0  0  0  0  0  0  0  0
   -2.2190    2.0174    2.0481 H   0  0  0  0  0  0  0  0  0  0  0  0
   11.1847    0.6950   -4.1295 N   0  0  0  0  0  0  0  0  0  0  0  0
   10.1435    0.5959   -3.7721 N   0  0  0  0  0  0  0  0  0  0  0  0
   -2.7520   -0.3484    1.3455 O   0  0  0  0  0  0  0  0  0  0  0  0
   -2.9744   -1.6814    0.9091 C   0  0  0  0  0  0  0  0  0  0  0  0
   -4.0357   -1.8766    1.0694 H   0  0  0  0  0  0  0  0  0  0  0  0
   -2.3844   -2.4012    1.4900 H   0  0  0  0  0  0  0  0  0  0  0  0
   -2.7413   -1.8011   -0.1567 H   0  0  0  0  0  0  0  0  0  0  0  0
    2.7015    2.9495   -0.1219 S   0  0  0  0  0  0  0  0  0  0  0  0
    2.2684    1.9975    1.1403 O   0  0  0  0  0  0  0  0  0  0  0  0
    1.5748    3.7407   -0.5614 O   0  0  0  0  0  0  0  0  0  0  0  0
    3.9803    3.5080    0.2681 O   0  0  0  0  0  0  0  0  0  0  0  0
    2.9604    1.8436   -1.2924 O   0  0  0  0  0  0  0  0  0  0  0  0
    3.8883    1.5620   -1.2189 H   0  0  0  0  0  0  0  0  0  0  0  0
  1  6  1  0  0  0  0
  2  1  2  0  0  0  0
  2  3  1  0  0  0  0
  3 19  1  0  0  0  0
  3  4  2  0  0  0  0
  4  5  1  0  0  0  0
  4  9  1  0  0  0  0
  5 10  1  0  0  0  0
  6 13  1  0  0  0  0
  6  5  2  0  0  0  0
  7  1  1  0  0  0  0
  8  2  1  0  0  0  0
 11 12  3  0  0  0  0
 14 15  1  0  0  0  0
 14 13  1  0  0  0  0
 14 16  1  0  0  0  0
 17 14  1  0  0  0  0
 18 21  2  0  0  0  0
 18 19  1  0  0  0  0
 20 18  2  0  0  0  0
 22 23  1  0  0  0  0
 22 18  1  0  0  0  0
M  END
