Coordinates from ORCA-job 4-MeO-Ph-N2-HSO4-B3LYPG-6-31G_dp-MTMO-d009-169-n800
 OpenBabel09051907533D

 23 22  0  0  0  0  0  0  0  0999 V2000
   -0.3364   -0.5427    0.7354 C   0  0  0  0  0  0  0  0  0  0  0  0
    0.9135    0.0785    0.6734 C   0  0  0  0  0  0  0  0  0  0  0  0
    1.0482    1.3931    1.0972 C   0  0  0  0  0  0  0  0  0  0  0  0
   -0.0425    2.1137    1.5846 C   0  0  0  0  0  0  0  0  0  0  0  0
   -1.2853    1.4993    1.6451 C   0  0  0  0  0  0  0  0  0  0  0  0
   -1.4411    0.1691    1.2210 C   0  0  0  0  0  0  0  0  0  0  0  0
   -0.4328   -1.5695    0.4058 H   0  0  0  0  0  0  0  0  0  0  0  0
    1.7790   -0.4582    0.3014 H   0  0  0  0  0  0  0  0  0  0  0  0
    0.0905    3.1401    1.9059 H   0  0  0  0  0  0  0  0  0  0  0  0
   -2.1552    2.0292    2.0175 H   0  0  0  0  0  0  0  0  0  0  0  0
   10.5899    0.7494   -3.8610 N   0  0  0  0  0  0  0  0  0  0  0  0
    9.5490    0.6563   -3.5013 N   0  0  0  0  0  0  0  0  0  0  0  0
   -2.7015   -0.3362    1.3241 O   0  0  0  0  0  0  0  0  0  0  0  0
   -2.9314   -1.6699    0.8936 C   0  0  0  0  0  0  0  0  0  0  0  0
   -3.9935   -1.8588    1.0556 H   0  0  0  0  0  0  0  0  0  0  0  0
   -2.3446   -2.3903    1.4771 H   0  0  0  0  0  0  0  0  0  0  0  0
   -2.6998   -1.7954   -0.1719 H   0  0  0  0  0  0  0  0  0  0  0  0
    2.7702    2.9261   -0.1561 S   0  0  0  0  0  0  0  0  0  0  0  0
    2.3319    1.9806    1.1093 O   0  0  0  0  0  0  0  0  0  0  0  0
    1.6473    3.7202   -0.5997 O   0  0  0  0  0  0  0  0  0  0  0  0
    4.0509    3.4809    0.2332 O   0  0  0  0  0  0  0  0  0  0  0  0
    3.0259    1.8149   -1.3221 O   0  0  0  0  0  0  0  0  0  0  0  0
    3.9527    1.5301   -1.2470 H   0  0  0  0  0  0  0  0  0  0  0  0
  1  6  1  0  0  0  0
  2  1  2  0  0  0  0
  2  3  1  0  0  0  0
  3 19  1  0  0  0  0
  3  4  2  0  0  0  0
  4  5  1  0  0  0  0
  4  9  1  0  0  0  0
  5 10  1  0  0  0  0
  6 13  1  0  0  0  0
  6  5  2  0  0  0  0
  7  1  1  0  0  0  0
  8  2  1  0  0  0  0
 11 12  3  0  0  0  0
 14 15  1  0  0  0  0
 14 13  1  0  0  0  0
 14 16  1  0  0  0  0
 17 14  1  0  0  0  0
 18 21  2  0  0  0  0
 18 19  1  0  0  0  0
 20 18  2  0  0  0  0
 22 23  1  0  0  0  0
 22 18  1  0  0  0  0
M  END
