Coordinates from ORCA-job 4-MeO-Ph-N2-HSO4-B3LYPG-6-31G_dp-MTMO-d009-169-n800
 OpenBabel09051907533D

 23 22  0  0  0  0  0  0  0  0999 V2000
   -0.2397   -0.5509    0.7000 C   0  0  0  0  0  0  0  0  0  0  0  0
    1.0186    0.0531    0.6377 C   0  0  0  0  0  0  0  0  0  0  0  0
    1.1675    1.3718    1.0436 C   0  0  0  0  0  0  0  0  0  0  0  0
    0.0830    2.1135    1.5127 C   0  0  0  0  0  0  0  0  0  0  0  0
   -1.1682    1.5162    1.5732 C   0  0  0  0  0  0  0  0  0  0  0  0
   -1.3383    0.1820    1.1676 C   0  0  0  0  0  0  0  0  0  0  0  0
   -0.3474   -1.5811    0.3845 H   0  0  0  0  0  0  0  0  0  0  0  0
    1.8796   -0.5000    0.2795 H   0  0  0  0  0  0  0  0  0  0  0  0
    0.2272    3.1427    1.8200 H   0  0  0  0  0  0  0  0  0  0  0  0
   -2.0336    2.0628    1.9317 H   0  0  0  0  0  0  0  0  0  0  0  0
    9.3835    0.8775   -3.3508 N   0  0  0  0  0  0  0  0  0  0  0  0
    8.3462    0.8102   -2.9752 N   0  0  0  0  0  0  0  0  0  0  0  0
   -2.6058   -0.3056    1.2700 O   0  0  0  0  0  0  0  0  0  0  0  0
   -2.8495   -1.6434    0.8604 C   0  0  0  0  0  0  0  0  0  0  0  0
   -3.9147   -1.8168    1.0198 H   0  0  0  0  0  0  0  0  0  0  0  0
   -2.2744   -2.3609    1.4588 H   0  0  0  0  0  0  0  0  0  0  0  0
   -2.6140   -1.7895   -0.2016 H   0  0  0  0  0  0  0  0  0  0  0  0
    2.9184    2.8665   -0.2169 S   0  0  0  0  0  0  0  0  0  0  0  0
    2.4588    1.9423    1.0568 O   0  0  0  0  0  0  0  0  0  0  0  0
    1.8065    3.6634   -0.6828 O   0  0  0  0  0  0  0  0  0  0  0  0
    4.1993    3.4166    0.1783 O   0  0  0  0  0  0  0  0  0  0  0  0
    3.1778    1.7375   -1.3646 O   0  0  0  0  0  0  0  0  0  0  0  0
    4.1041    1.4528   -1.2816 H   0  0  0  0  0  0  0  0  0  0  0  0
  1  6  1  0  0  0  0
  2  1  2  0  0  0  0
  2  3  1  0  0  0  0
  3 19  1  0  0  0  0
  3  4  2  0  0  0  0
  4  5  1  0  0  0  0
  4  9  1  0  0  0  0
  5 10  1  0  0  0  0
  6 13  1  0  0  0  0
  6  5  2  0  0  0  0
  7  1  1  0  0  0  0
  8  2  1  0  0  0  0
 11 12  3  0  0  0  0
 14 15  1  0  0  0  0
 14 13  1  0  0  0  0
 14 16  1  0  0  0  0
 17 14  1  0  0  0  0
 18 21  2  0  0  0  0
 18 19  1  0  0  0  0
 20 18  2  0  0  0  0
 22 23  1  0  0  0  0
 22 18  1  0  0  0  0
M  END
