Coordinates from ORCA-job 4-MeO-Ph-N2-HSO4-B3LYPG-6-31G_dp-MTMO-d009-169-n800
 OpenBabel09051907533D

 23 22  0  0  0  0  0  0  0  0999 V2000
   -0.1368   -0.5029    1.1129 C   0  0  0  0  0  0  0  0  0  0  0  0
    1.2323   -0.2532    1.2382 C   0  0  0  0  0  0  0  0  0  0  0  0
    1.7456    0.9714    0.8350 C   0  0  0  0  0  0  0  0  0  0  0  0
    0.9238    1.9649    0.3015 C   0  0  0  0  0  0  0  0  0  0  0  0
   -0.4356    1.7169    0.1741 C   0  0  0  0  0  0  0  0  0  0  0  0
   -0.9750    0.4837    0.5773 C   0  0  0  0  0  0  0  0  0  0  0  0
   -0.5310   -1.4588    1.4345 H   0  0  0  0  0  0  0  0  0  0  0  0
    1.8950   -1.0053    1.6515 H   0  0  0  0  0  0  0  0  0  0  0  0
    1.3522    2.9103   -0.0100 H   0  0  0  0  0  0  0  0  0  0  0  0
   -1.1054    2.4650   -0.2357 H   0  0  0  0  0  0  0  0  0  0  0  0
    2.8794    4.6764   -1.5399 N   0  0  0  0  0  0  0  0  0  0  0  0
    3.6212    4.9305   -2.3183 N   0  0  0  0  0  0  0  0  0  0  0  0
   -2.3196    0.3480    0.4089 O   0  0  0  0  0  0  0  0  0  0  0  0
   -2.9270   -0.8789    0.7857 C   0  0  0  0  0  0  0  0  0  0  0  0
   -3.9879   -0.7722    0.5542 H   0  0  0  0  0  0  0  0  0  0  0  0
   -2.8090   -1.0753    1.8590 H   0  0  0  0  0  0  0  0  0  0  0  0
   -2.5174   -1.7239    0.2183 H   0  0  0  0  0  0  0  0  0  0  0  0
    4.1611    1.0425   -0.1931 S   0  0  0  0  0  0  0  0  0  0  0  0
    3.1152    1.2420    1.0506 O   0  0  0  0  0  0  0  0  0  0  0  0
    3.5565    1.4749   -1.4330 O   0  0  0  0  0  0  0  0  0  0  0  0
    5.4228    1.5486    0.3093 O   0  0  0  0  0  0  0  0  0  0  0  0
    4.2593   -0.5830   -0.2842 O   0  0  0  0  0  0  0  0  0  0  0  0
    4.9651   -0.8609    0.3243 H   0  0  0  0  0  0  0  0  0  0  0  0
  1  2  1  0  0  0  0
  1  7  1  0  0  0  0
  2  8  1  0  0  0  0
  3 19  1  0  0  0  0
  3  2  2  0  0  0  0
  4  3  1  0  0  0  0
  5  4  2  0  0  0  0
  5  6  1  0  0  0  0
  6  1  2  0  0  0  0
  9  4  1  0  0  0  0
 10  5  1  0  0  0  0
 12 11  3  0  0  0  0
 13  6  1  0  0  0  0
 13 14  1  0  0  0  0
 14 16  1  0  0  0  0
 15 14  1  0  0  0  0
 17 14  1  0  0  0  0
 18 21  2  0  0  0  0
 18 19  1  0  0  0  0
 20 18  2  0  0  0  0
 22 18  1  0  0  0  0
 22 23  1  0  0  0  0
M  END
