Coordinates from ORCA-job 4-MeO-Ph-N2-HSO4-B3LYPG-6-31G_dp-MTMO-d009-169-n800
 OpenBabel09051907533D

 23 22  0  0  0  0  0  0  0  0999 V2000
   -0.6479   -0.5310    0.8728 C   0  0  0  0  0  0  0  0  0  0  0  0
    0.5913    0.1120    0.8199 C   0  0  0  0  0  0  0  0  0  0  0  0
    0.7028    1.4243    1.2572 C   0  0  0  0  0  0  0  0  0  0  0  0
   -0.4009    2.1212    1.7498 C   0  0  0  0  0  0  0  0  0  0  0  0
   -1.6332    1.4851    1.8014 C   0  0  0  0  0  0  0  0  0  0  0  0
   -1.7656    0.1569    1.3632 C   0  0  0  0  0  0  0  0  0  0  0  0
   -0.7259   -1.5558    0.5324 H   0  0  0  0  0  0  0  0  0  0  0  0
    1.4665   -0.4060    0.4442 H   0  0  0  0  0  0  0  0  0  0  0  0
   -0.2863    3.1464    2.0818 H   0  0  0  0  0  0  0  0  0  0  0  0
   -2.5127    1.9962    2.1774 H   0  0  0  0  0  0  0  0  0  0  0  0
   14.0992    0.5565   -5.4294 N   0  0  0  0  0  0  0  0  0  0  0  0
   13.0571    0.4499   -5.0768 N   0  0  0  0  0  0  0  0  0  0  0  0
   -3.0175   -0.3707    1.4576 O   0  0  0  0  0  0  0  0  0  0  0  0
   -3.2242   -1.7026    1.0107 C   0  0  0  0  0  0  0  0  0  0  0  0
   -4.2837   -1.9105    1.1663 H   0  0  0  0  0  0  0  0  0  0  0  0
   -2.6281   -2.4204    1.5880 H   0  0  0  0  0  0  0  0  0  0  0  0
   -2.9867   -1.8118   -0.0553 H   0  0  0  0  0  0  0  0  0  0  0  0
    2.3998    2.9995    0.0224 S   0  0  0  0  0  0  0  0  0  0  0  0
    1.9764    2.0335    1.2771 O   0  0  0  0  0  0  0  0  0  0  0  0
    1.2662    3.7848   -0.4093 O   0  0  0  0  0  0  0  0  0  0  0  0
    3.6743    3.5658    0.4156 O   0  0  0  0  0  0  0  0  0  0  0  0
    2.6667    1.9054   -1.1575 O   0  0  0  0  0  0  0  0  0  0  0  0
    3.5974    1.6323   -1.0883 H   0  0  0  0  0  0  0  0  0  0  0  0
  1  6  1  0  0  0  0
  2  1  2  0  0  0  0
  2  3  1  0  0  0  0
  3 19  1  0  0  0  0
  3  4  2  0  0  0  0
  4  5  1  0  0  0  0
  4  9  1  0  0  0  0
  5 10  1  0  0  0  0
  6 13  1  0  0  0  0
  6  5  2  0  0  0  0
  7  1  1  0  0  0  0
  8  2  1  0  0  0  0
 11 12  3  0  0  0  0
 14 15  1  0  0  0  0
 14 13  1  0  0  0  0
 14 16  1  0  0  0  0
 17 14  1  0  0  0  0
 18 21  2  0  0  0  0
 18 19  1  0  0  0  0
 20 18  2  0  0  0  0
 22 23  1  0  0  0  0
 22 18  1  0  0  0  0
M  END
