Coordinates from ORCA-job 4-MeO-Ph-N2-HSO4-B3LYPG-6-31G_dp-MTMO-d009-169-n800
 OpenBabel09051907533D

 23 22  0  0  0  0  0  0  0  0999 V2000
    0.3565    0.2342   -0.3205 C   0  0  0  0  0  0  0  0  0  0  0  0
    1.3005    0.9102   -1.0690 C   0  0  0  0  0  0  0  0  0  0  0  0
    1.1193    2.2886   -1.1998 C   0  0  0  0  0  0  0  0  0  0  0  0
    0.0830    3.0440   -0.6322 C   0  0  0  0  0  0  0  0  0  0  0  0
   -0.8355    2.3431    0.1166 C   0  0  0  0  0  0  0  0  0  0  0  0
   -0.6667    0.9488    0.3336 C   0  0  0  0  0  0  0  0  0  0  0  0
    0.5102   -0.8210   -0.1481 H   0  0  0  0  0  0  0  0  0  0  0  0
    2.1584    0.3939   -1.4751 H   0  0  0  0  0  0  0  0  0  0  0  0
    0.0212    4.1180   -0.7600 H   0  0  0  0  0  0  0  0  0  0  0  0
   -1.6580    2.8476    0.6096 H   0  0  0  0  0  0  0  0  0  0  0  0
    2.2875    3.0518   -1.8043 N   0  0  0  0  0  0  0  0  0  0  0  0
    3.1623    3.5860   -2.2430 N   0  0  0  0  0  0  0  0  0  0  0  0
   -1.5221    0.3972    1.1905 O   0  0  0  0  0  0  0  0  0  0  0  0
   -1.2201   -0.9142    1.7191 C   0  0  0  0  0  0  0  0  0  0  0  0
   -1.9178   -1.0532    2.5439 H   0  0  0  0  0  0  0  0  0  0  0  0
   -0.1848   -0.9390    2.0726 H   0  0  0  0  0  0  0  0  0  0  0  0
   -1.3974   -1.6815    0.9579 H   0  0  0  0  0  0  0  0  0  0  0  0
    3.2318    0.0414    1.4025 S   0  0  0  0  0  0  0  0  0  0  0  0
    1.9497   -0.0050    2.1434 O   0  0  0  0  0  0  0  0  0  0  0  0
    3.3894    1.2619    0.5678 O   0  0  0  0  0  0  0  0  0  0  0  0
    4.4275   -0.3926    2.1398 O   0  0  0  0  0  0  0  0  0  0  0  0
    3.0484   -1.1819    0.2224 O   0  0  0  0  0  0  0  0  0  0  0  0
    3.7417   -1.8176    0.4533 H   0  0  0  0  0  0  0  0  0  0  0  0
  1  7  1  0  0  0  0
  1  6  2  0  0  0  0
  2  1  1  0  0  0  0
  3  2  2  0  0  0  0
  3  4  1  0  0  0  0
  4  5  2  0  0  0  0
  5  6  1  0  0  0  0
  5 10  1  0  0  0  0
  6 13  1  0  0  0  0
  8  2  1  0  0  0  0
  9  4  1  0  0  0  0
 11  3  1  0  0  0  0
 12 11  1  0  0  0  0
 13 14  1  0  0  0  0
 14 16  1  0  0  0  0
 14 15  1  0  0  0  0
 17 14  1  0  0  0  0
 18 21  2  0  0  0  0
 18 19  1  0  0  0  0
 20 18  2  0  0  0  0
 22 23  1  0  0  0  0
 22 18  1  0  0  0  0
M  RAD  3  11   2  12   3  19   2
M  END
