Coordinates from ORCA-job 4-MeO-Ph-N2-HSO4-B3LYPG-6-31G_dp-MTMO-d009-169-n800
 OpenBabel09051907533D

 23 22  0  0  0  0  0  0  0  0999 V2000
   -0.1187   -0.5734    0.6218 C   0  0  0  0  0  0  0  0  0  0  0  0
    1.1617   -0.0247    0.5122 C   0  0  0  0  0  0  0  0  0  0  0  0
    1.3767    1.2954    0.8829 C   0  0  0  0  0  0  0  0  0  0  0  0
    0.3367    2.0931    1.3611 C   0  0  0  0  0  0  0  0  0  0  0  0
   -0.9363    1.5510    1.4680 C   0  0  0  0  0  0  0  0  0  0  0  0
   -1.1726    0.2158    1.1004 C   0  0  0  0  0  0  0  0  0  0  0  0
   -0.2784   -1.6051    0.3343 H   0  0  0  0  0  0  0  0  0  0  0  0
    1.9894   -0.6208    0.1446 H   0  0  0  0  0  0  0  0  0  0  0  0
    0.5320    3.1222    1.6391 H   0  0  0  0  0  0  0  0  0  0  0  0
   -1.7683    2.1421    1.8349 H   0  0  0  0  0  0  0  0  0  0  0  0
    7.5544    1.2688   -2.0237 N   0  0  0  0  0  0  0  0  0  0  0  0
    6.4661    1.1880   -1.8549 N   0  0  0  0  0  0  0  0  0  0  0  0
   -2.4562   -0.2156    1.2495 O   0  0  0  0  0  0  0  0  0  0  0  0
   -2.7645   -1.5541    0.8889 C   0  0  0  0  0  0  0  0  0  0  0  0
   -3.8297   -1.6807    1.0872 H   0  0  0  0  0  0  0  0  0  0  0  0
   -2.1980   -2.2758    1.4904 H   0  0  0  0  0  0  0  0  0  0  0  0
   -2.5699   -1.7410   -0.1750 H   0  0  0  0  0  0  0  0  0  0  0  0
    3.1573    2.6920   -0.4510 S   0  0  0  0  0  0  0  0  0  0  0  0
    2.6910    1.8089    0.8506 O   0  0  0  0  0  0  0  0  0  0  0  0
    2.0579    3.5118   -0.9094 O   0  0  0  0  0  0  0  0  0  0  0  0
    4.4562    3.2227   -0.0845 O   0  0  0  0  0  0  0  0  0  0  0  0
    3.3752    1.5360   -1.5708 O   0  0  0  0  0  0  0  0  0  0  0  0
    4.3229    1.3041   -1.5754 H   0  0  0  0  0  0  0  0  0  0  0  0
  1  6  1  0  0  0  0
  2  1  2  0  0  0  0
  2  3  1  0  0  0  0
  3  4  2  0  0  0  0
  4  5  1  0  0  0  0
  4  9  1  0  0  0  0
  5 10  1  0  0  0  0
  6 13  1  0  0  0  0
  6  5  2  0  0  0  0
  7  1  1  0  0  0  0
  8  2  1  0  0  0  0
 11 12  3  0  0  0  0
 14 15  1  0  0  0  0
 14 13  1  0  0  0  0
 14 16  1  0  0  0  0
 17 14  1  0  0  0  0
 18 21  2  0  0  0  0
 18 19  1  0  0  0  0
 19  3  1  0  0  0  0
 20 18  2  0  0  0  0
 22 18  1  0  0  0  0
 23 22  1  0  0  0  0
M  END
