Coordinates from ORCA-job 4-MeO-Ph-N2-HSO4-B3LYPG-6-31G_dp-MTMO-d009-169-n800
 OpenBabel09051907533D

 23 22  0  0  0  0  0  0  0  0999 V2000
   -0.4048   -0.5383    0.7656 C   0  0  0  0  0  0  0  0  0  0  0  0
    0.8403    0.0928    0.7075 C   0  0  0  0  0  0  0  0  0  0  0  0
    0.9646    1.4064    1.1375 C   0  0  0  0  0  0  0  0  0  0  0  0
   -0.1318    2.1162    1.6277 C   0  0  0  0  0  0  0  0  0  0  0  0
   -1.3699    1.4919    1.6844 C   0  0  0  0  0  0  0  0  0  0  0  0
   -1.5153    0.1626    1.2538 C   0  0  0  0  0  0  0  0  0  0  0  0
   -0.4930   -1.5642    0.4310 H   0  0  0  0  0  0  0  0  0  0  0  0
    1.7101   -0.4355    0.3335 H   0  0  0  0  0  0  0  0  0  0  0  0
   -0.0070    3.1421    1.9539 H   0  0  0  0  0  0  0  0  0  0  0  0
   -2.2441    2.0133    2.0588 H   0  0  0  0  0  0  0  0  0  0  0  0
   11.4153    0.6747   -4.2351 N   0  0  0  0  0  0  0  0  0  0  0  0
   10.3740    0.5744   -3.8782 N   0  0  0  0  0  0  0  0  0  0  0  0
   -2.7719   -0.3527    1.3532 O   0  0  0  0  0  0  0  0  0  0  0  0
   -2.9914   -1.6856    0.9150 C   0  0  0  0  0  0  0  0  0  0  0  0
   -4.0524   -1.8831    1.0743 H   0  0  0  0  0  0  0  0  0  0  0  0
   -2.4004   -2.4050    1.4954 H   0  0  0  0  0  0  0  0  0  0  0  0
   -2.7574   -1.8035   -0.1508 H   0  0  0  0  0  0  0  0  0  0  0  0
    2.6753    2.9579   -0.1083 S   0  0  0  0  0  0  0  0  0  0  0  0
    2.2438    2.0037    1.1529 O   0  0  0  0  0  0  0  0  0  0  0  0
    1.5475    3.7478   -0.5469 O   0  0  0  0  0  0  0  0  0  0  0  0
    3.9533    3.5179    0.2824 O   0  0  0  0  0  0  0  0  0  0  0  0
    2.9359    1.8537   -1.2800 O   0  0  0  0  0  0  0  0  0  0  0  0
    3.8642    1.5733   -1.2067 H   0  0  0  0  0  0  0  0  0  0  0  0
  1  6  1  0  0  0  0
  2  1  2  0  0  0  0
  2  3  1  0  0  0  0
  3 19  1  0  0  0  0
  3  4  2  0  0  0  0
  4  5  1  0  0  0  0
  4  9  1  0  0  0  0
  5 10  1  0  0  0  0
  6 13  1  0  0  0  0
  6  5  2  0  0  0  0
  7  1  1  0  0  0  0
  8  2  1  0  0  0  0
 11 12  3  0  0  0  0
 14 15  1  0  0  0  0
 14 13  1  0  0  0  0
 14 16  1  0  0  0  0
 17 14  1  0  0  0  0
 18 21  2  0  0  0  0
 18 19  1  0  0  0  0
 20 18  2  0  0  0  0
 22 23  1  0  0  0  0
 22 18  1  0  0  0  0
M  END
