Coordinates from ORCA-job 4-MeO-Ph-N2-HSO4-B3LYPG-6-31G_dp-MTMO-d009-169-n800
 OpenBabel09051907533D

 23 22  0  0  0  0  0  0  0  0999 V2000
   -0.1977   -0.6646    1.0056 C   0  0  0  0  0  0  0  0  0  0  0  0
    1.1482   -0.2937    1.0632 C   0  0  0  0  0  0  0  0  0  0  0  0
    1.4948    1.0477    0.9806 C   0  0  0  0  0  0  0  0  0  0  0  0
    0.5248    2.0402    0.8371 C   0  0  0  0  0  0  0  0  0  0  0  0
   -0.8123    1.6734    0.7756 C   0  0  0  0  0  0  0  0  0  0  0  0
   -1.1827    0.3206    0.8598 C   0  0  0  0  0  0  0  0  0  0  0  0
   -0.4603   -1.7127    1.0770 H   0  0  0  0  0  0  0  0  0  0  0  0
    1.9233   -1.0431    1.1791 H   0  0  0  0  0  0  0  0  0  0  0  0
    0.8230    3.0802    0.7704 H   0  0  0  0  0  0  0  0  0  0  0  0
   -1.5929    2.4178    0.6629 H   0  0  0  0  0  0  0  0  0  0  0  0
    5.5159    4.5262   -2.7008 N   0  0  0  0  0  0  0  0  0  0  0  0
    5.7524    3.4482   -2.7572 N   0  0  0  0  0  0  0  0  0  0  0  0
   -2.5203    0.0730    0.7932 O   0  0  0  0  0  0  0  0  0  0  0  0
   -2.9618   -1.2741    0.8647 C   0  0  0  0  0  0  0  0  0  0  0  0
   -4.0497   -1.2386    0.7914 H   0  0  0  0  0  0  0  0  0  0  0  0
   -2.6790   -1.7420    1.8168 H   0  0  0  0  0  0  0  0  0  0  0  0
   -2.5635   -1.8744    0.0363 H   0  0  0  0  0  0  0  0  0  0  0  0
    3.7324    1.7247   -0.2140 S   0  0  0  0  0  0  0  0  0  0  0  0
    2.8512    1.4106    1.1308 O   0  0  0  0  0  0  0  0  0  0  0  0
    2.9336    2.4464   -1.1784 O   0  0  0  0  0  0  0  0  0  0  0  0
    5.0072    2.1946    0.2901 O   0  0  0  0  0  0  0  0  0  0  0  0
    3.9417    0.2289   -0.8276 O   0  0  0  0  0  0  0  0  0  0  0  0
    4.7566   -0.1285   -0.4356 H   0  0  0  0  0  0  0  0  0  0  0  0
  1  2  1  0  0  0  0
  1  7  1  0  0  0  0
  2  8  1  0  0  0  0
  3  2  2  0  0  0  0
  3 19  1  0  0  0  0
  4  3  1  0  0  0  0
  5  4  2  0  0  0  0
  5  6  1  0  0  0  0
  6  1  2  0  0  0  0
  9  4  1  0  0  0  0
 10  5  1  0  0  0  0
 12 11  3  0  0  0  0
 13  6  1  0  0  0  0
 13 14  1  0  0  0  0
 14 16  1  0  0  0  0
 15 14  1  0  0  0  0
 17 14  1  0  0  0  0
 18 21  2  0  0  0  0
 18 19  1  0  0  0  0
 20 18  2  0  0  0  0
 22 23  1  0  0  0  0
 22 18  1  0  0  0  0
M  END
