Coordinates from ORCA-job 4-MeO-Ph-N2-HSO4-B3LYPG-6-31G_dp-MTMO-d009-169-n800
 OpenBabel09051907533D

 23 22  0  0  0  0  0  0  0  0999 V2000
    0.0286   -0.2515    0.4236 C   0  0  0  0  0  0  0  0  0  0  0  0
    1.4072   -0.0143    0.4435 C   0  0  0  0  0  0  0  0  0  0  0  0
    1.8728    1.2596    0.7408 C   0  0  0  0  0  0  0  0  0  0  0  0
    0.9901    2.2963    1.0474 C   0  0  0  0  0  0  0  0  0  0  0  0
   -0.3760    2.0551    1.0420 C   0  0  0  0  0  0  0  0  0  0  0  0
   -0.8686    0.7792    0.7241 C   0  0  0  0  0  0  0  0  0  0  0  0
   -0.3241   -1.2451    0.1772 H   0  0  0  0  0  0  0  0  0  0  0  0
    2.0922   -0.8225    0.2202 H   0  0  0  0  0  0  0  0  0  0  0  0
    1.3858    3.2778    1.2836 H   0  0  0  0  0  0  0  0  0  0  0  0
   -1.0837    2.8429    1.2757 H   0  0  0  0  0  0  0  0  0  0  0  0
    1.9376    2.7764   -1.8960 N   0  0  0  0  0  0  0  0  0  0  0  0
    1.2748    2.5712   -2.7565 N   0  0  0  0  0  0  0  0  0  0  0  0
   -2.2256    0.6497    0.7374 O   0  0  0  0  0  0  0  0  0  0  0  0
   -2.7829   -0.6194    0.4312 C   0  0  0  0  0  0  0  0  0  0  0  0
   -3.8652   -0.4964    0.4966 H   0  0  0  0  0  0  0  0  0  0  0  0
   -2.4633   -1.3856    1.1496 H   0  0  0  0  0  0  0  0  0  0  0  0
   -2.5174   -0.9439   -0.5830 H   0  0  0  0  0  0  0  0  0  0  0  0
    4.3995    0.9006   -0.0553 S   0  0  0  0  0  0  0  0  0  0  0  0
    3.2397    1.5925    0.8579 O   0  0  0  0  0  0  0  0  0  0  0  0
    3.8929    0.5207   -1.3534 O   0  0  0  0  0  0  0  0  0  0  0  0
    5.5597    1.7410    0.1514 O   0  0  0  0  0  0  0  0  0  0  0  0
    4.6293   -0.5042    0.7419 O   0  0  0  0  0  0  0  0  0  0  0  0
    5.1814   -0.3194    1.5211 H   0  0  0  0  0  0  0  0  0  0  0  0
  1  2  2  0  0  0  0
  1  6  1  0  0  0  0
  2  3  1  0  0  0  0
  3 19  1  0  0  0  0
  3  4  2  0  0  0  0
  4  9  1  0  0  0  0
  5  4  1  0  0  0  0
  5 10  1  0  0  0  0
  6 13  1  0  0  0  0
  6  5  2  0  0  0  0
  7  1  1  0  0  0  0
  8  2  1  0  0  0  0
 12 11  3  0  0  0  0
 14 15  1  0  0  0  0
 14 13  1  0  0  0  0
 14 16  1  0  0  0  0
 17 14  1  0  0  0  0
 18 21  2  0  0  0  0
 18 22  1  0  0  0  0
 18 19  1  0  0  0  0
 20 18  2  0  0  0  0
 22 23  1  0  0  0  0
M  END
