Coordinates from ORCA-job 4-MeO-Ph-N2-HSO4-B3LYPG-6-31G_dp-MTMO-d009-169-n800
 OpenBabel09051907533D

 23 22  0  0  0  0  0  0  0  0999 V2000
   -0.0290   -0.0198    0.2084 C   0  0  0  0  0  0  0  0  0  0  0  0
    1.1782    0.4983   -0.2581 C   0  0  0  0  0  0  0  0  0  0  0  0
    1.2439    1.8676   -0.4072 C   0  0  0  0  0  0  0  0  0  0  0  0
    0.2189    2.7710   -0.1319 C   0  0  0  0  0  0  0  0  0  0  0  0
   -0.9689    2.2325    0.3321 C   0  0  0  0  0  0  0  0  0  0  0  0
   -1.1014    0.8383    0.5066 C   0  0  0  0  0  0  0  0  0  0  0  0
   -0.1128   -1.0900    0.3472 H   0  0  0  0  0  0  0  0  0  0  0  0
    2.0375   -0.1206   -0.4837 H   0  0  0  0  0  0  0  0  0  0  0  0
    0.3446    3.8384   -0.2667 H   0  0  0  0  0  0  0  0  0  0  0  0
   -1.8118    2.8698    0.5745 H   0  0  0  0  0  0  0  0  0  0  0  0
    2.5688    2.5333   -0.9556 N   0  0  0  0  0  0  0  0  0  0  0  0
    3.0866    3.4493   -1.3320 N   0  0  0  0  0  0  0  0  0  0  0  0
   -2.3010    0.4306    0.9670 O   0  0  0  0  0  0  0  0  0  0  0  0
   -2.5193   -0.9619    1.1932 C   0  0  0  0  0  0  0  0  0  0  0  0
   -3.5404   -1.0430    1.5649 H   0  0  0  0  0  0  0  0  0  0  0  0
   -1.8243   -1.3553    1.9434 H   0  0  0  0  0  0  0  0  0  0  0  0
   -2.4220   -1.5347    0.2641 H   0  0  0  0  0  0  0  0  0  0  0  0
    4.5914    0.6768    0.3688 S   0  0  0  0  0  0  0  0  0  0  0  0
    4.0571    1.6799    1.2983 O   0  0  0  0  0  0  0  0  0  0  0  0
    3.9451    0.8083   -1.0038 O   0  0  0  0  0  0  0  0  0  0  0  0
    6.0392    0.4639    0.2967 O   0  0  0  0  0  0  0  0  0  0  0  0
    3.9788   -0.7780    0.9251 O   0  0  0  0  0  0  0  0  0  0  0  0
    4.7257   -1.3940    0.8695 H   0  0  0  0  0  0  0  0  0  0  0  0
  1  7  1  0  0  0  0
  1  6  2  0  0  0  0
  2  1  1  0  0  0  0
  3  2  2  0  0  0  0
  3  4  1  0  0  0  0
  4  5  2  0  0  0  0
  5  6  1  0  0  0  0
  5 10  1  0  0  0  0
  6 13  1  0  0  0  0
  8  2  1  0  0  0  0
  9  4  1  0  0  0  0
 11  3  1  0  0  0  0
 12 11  2  0  0  0  0
 13 14  1  0  0  0  0
 14 15  1  0  0  0  0
 14 16  1  0  0  0  0
 17 14  1  0  0  0  0
 18 22  1  0  0  0  0
 18 19  1  0  0  0  0
 20 18  2  0  0  0  0
 21 18  2  0  0  0  0
 23 22  1  0  0  0  0
M  RAD  2  12   2  19   2
M  END
