Coordinates from ORCA-job 4-MeO-Ph-N2-HSO4-B3LYPG-6-31G_dp-MTMO-d009-169-n800
 OpenBabel09051907533D

 23 22  0  0  0  0  0  0  0  0999 V2000
   -0.3432   -0.5422    0.7382 C   0  0  0  0  0  0  0  0  0  0  0  0
    0.9062    0.0800    0.6766 C   0  0  0  0  0  0  0  0  0  0  0  0
    1.0398    1.3945    1.1011 C   0  0  0  0  0  0  0  0  0  0  0  0
   -0.0513    2.1139    1.5891 C   0  0  0  0  0  0  0  0  0  0  0  0
   -1.2937    1.4984    1.6493 C   0  0  0  0  0  0  0  0  0  0  0  0
   -1.4485    0.1684    1.2244 C   0  0  0  0  0  0  0  0  0  0  0  0
   -0.4388   -1.5689    0.4080 H   0  0  0  0  0  0  0  0  0  0  0  0
    1.7720   -0.4558    0.3041 H   0  0  0  0  0  0  0  0  0  0  0  0
    0.0808    3.1402    1.9110 H   0  0  0  0  0  0  0  0  0  0  0  0
   -2.1639    2.0274    2.0222 H   0  0  0  0  0  0  0  0  0  0  0  0
   10.6728    0.7417   -3.8979 N   0  0  0  0  0  0  0  0  0  0  0  0
    9.6318    0.6474   -3.5386 N   0  0  0  0  0  0  0  0  0  0  0  0
   -2.7085   -0.3380    1.3273 O   0  0  0  0  0  0  0  0  0  0  0  0
   -2.9373   -1.6715    0.8958 C   0  0  0  0  0  0  0  0  0  0  0  0
   -3.9993   -1.8613    1.0577 H   0  0  0  0  0  0  0  0  0  0  0  0
   -2.3500   -2.3919    1.4788 H   0  0  0  0  0  0  0  0  0  0  0  0
   -2.7057   -1.7961   -0.1697 H   0  0  0  0  0  0  0  0  0  0  0  0
    2.7605    2.9296   -0.1515 S   0  0  0  0  0  0  0  0  0  0  0  0
    2.3231    1.9830    1.1134 O   0  0  0  0  0  0  0  0  0  0  0  0
    1.6370    3.7233   -0.5943 O   0  0  0  0  0  0  0  0  0  0  0  0
    4.0410    3.4848    0.2378 O   0  0  0  0  0  0  0  0  0  0  0  0
    3.0165    1.8191   -1.3183 O   0  0  0  0  0  0  0  0  0  0  0  0
    3.9435    1.5348   -1.2435 H   0  0  0  0  0  0  0  0  0  0  0  0
  1  6  1  0  0  0  0
  2  1  2  0  0  0  0
  2  3  1  0  0  0  0
  3 19  1  0  0  0  0
  3  4  2  0  0  0  0
  4  5  1  0  0  0  0
  4  9  1  0  0  0  0
  5 10  1  0  0  0  0
  6 13  1  0  0  0  0
  6  5  2  0  0  0  0
  7  1  1  0  0  0  0
  8  2  1  0  0  0  0
 11 12  3  0  0  0  0
 14 15  1  0  0  0  0
 14 13  1  0  0  0  0
 14 16  1  0  0  0  0
 17 14  1  0  0  0  0
 18 21  2  0  0  0  0
 18 19  1  0  0  0  0
 20 18  2  0  0  0  0
 22 23  1  0  0  0  0
 22 18  1  0  0  0  0
M  END
