Coordinates from ORCA-job 4-MeO-Ph-N2-HSO4-B3LYPG-6-31G_dp-MTMO-d009-169-n800
 OpenBabel09051907533D

 23 22  0  0  0  0  0  0  0  0999 V2000
   -0.2681   -0.5480    0.7102 C   0  0  0  0  0  0  0  0  0  0  0  0
    0.9873    0.0622    0.6482 C   0  0  0  0  0  0  0  0  0  0  0  0
    1.1310    1.3795    1.0602 C   0  0  0  0  0  0  0  0  0  0  0  0
    0.0442    2.1138    1.5355 C   0  0  0  0  0  0  0  0  0  0  0  0
   -1.2040    1.5105    1.5959 C   0  0  0  0  0  0  0  0  0  0  0  0
   -1.3690    0.1775    1.1840 C   0  0  0  0  0  0  0  0  0  0  0  0
   -0.3717   -1.5771    0.3900 H   0  0  0  0  0  0  0  0  0  0  0  0
    1.8499   -0.4853    0.2853 H   0  0  0  0  0  0  0  0  0  0  0  0
    0.1843    3.1421    1.8476 H   0  0  0  0  0  0  0  0  0  0  0  0
   -2.0712    2.0512    1.9591 H   0  0  0  0  0  0  0  0  0  0  0  0
    9.7513    0.8317   -3.5075 N   0  0  0  0  0  0  0  0  0  0  0  0
    8.7134    0.7559   -3.1352 N   0  0  0  0  0  0  0  0  0  0  0  0
   -2.6340   -0.3163    1.2864 O   0  0  0  0  0  0  0  0  0  0  0  0
   -2.8727   -1.6528    0.8695 C   0  0  0  0  0  0  0  0  0  0  0  0
   -3.9369   -1.8316    1.0297 H   0  0  0  0  0  0  0  0  0  0  0  0
   -2.2936   -2.3712    1.4629 H   0  0  0  0  0  0  0  0  0  0  0  0
   -2.6384   -1.7917   -0.1936 H   0  0  0  0  0  0  0  0  0  0  0  0
    2.8717    2.8879   -0.1977 S   0  0  0  0  0  0  0  0  0  0  0  0
    2.4197    1.9561    1.0731 O   0  0  0  0  0  0  0  0  0  0  0  0
    1.7562    3.6847   -0.6552 O   0  0  0  0  0  0  0  0  0  0  0  0
    4.1530    3.4387    0.1952 O   0  0  0  0  0  0  0  0  0  0  0  0
    3.1285    1.7653   -1.3523 O   0  0  0  0  0  0  0  0  0  0  0  0
    4.0539    1.4774   -1.2704 H   0  0  0  0  0  0  0  0  0  0  0  0
  1  6  1  0  0  0  0
  2  1  2  0  0  0  0
  2  3  1  0  0  0  0
  3 19  1  0  0  0  0
  3  4  2  0  0  0  0
  4  5  1  0  0  0  0
  4  9  1  0  0  0  0
  5 10  1  0  0  0  0
  6 13  1  0  0  0  0
  6  5  2  0  0  0  0
  7  1  1  0  0  0  0
  8  2  1  0  0  0  0
 11 12  3  0  0  0  0
 14 15  1  0  0  0  0
 14 13  1  0  0  0  0
 14 16  1  0  0  0  0
 17 14  1  0  0  0  0
 18 21  2  0  0  0  0
 18 19  1  0  0  0  0
 20 18  2  0  0  0  0
 22 23  1  0  0  0  0
 22 18  1  0  0  0  0
M  END
