Coordinates from ORCA-job 4-MeO-Ph-N2-HSO4-B3LYPG-6-31G_dp-MTMO-d009-169-n800
 OpenBabel09051907533D

 23 22  0  0  0  0  0  0  0  0999 V2000
   -0.7082   -0.5299    0.8995 C   0  0  0  0  0  0  0  0  0  0  0  0
    0.5315    0.1122    0.8469 C   0  0  0  0  0  0  0  0  0  0  0  0
    0.6436    1.4247    1.2834 C   0  0  0  0  0  0  0  0  0  0  0  0
   -0.4599    2.1227    1.7750 C   0  0  0  0  0  0  0  0  0  0  0  0
   -1.6926    1.4874    1.8263 C   0  0  0  0  0  0  0  0  0  0  0  0
   -1.8257    0.1590    1.3888 C   0  0  0  0  0  0  0  0  0  0  0  0
   -0.7867   -1.5549    0.5597 H   0  0  0  0  0  0  0  0  0  0  0  0
    1.4066   -0.4067    0.4720 H   0  0  0  0  0  0  0  0  0  0  0  0
   -0.3447    3.1480    2.1064 H   0  0  0  0  0  0  0  0  0  0  0  0
   -2.5720    1.9993    2.2014 H   0  0  0  0  0  0  0  0  0  0  0  0
   14.7192    0.5521   -5.7035 N   0  0  0  0  0  0  0  0  0  0  0  0
   13.6773    0.4483   -5.3495 N   0  0  0  0  0  0  0  0  0  0  0  0
   -3.0780   -0.3676    1.4829 O   0  0  0  0  0  0  0  0  0  0  0  0
   -3.2853   -1.6998    1.0369 C   0  0  0  0  0  0  0  0  0  0  0  0
   -4.3451   -1.9068    1.1922 H   0  0  0  0  0  0  0  0  0  0  0  0
   -2.6900   -2.4174    1.6151 H   0  0  0  0  0  0  0  0  0  0  0  0
   -3.0474   -1.8099   -0.0289 H   0  0  0  0  0  0  0  0  0  0  0  0
    2.3430    2.9961    0.0475 S   0  0  0  0  0  0  0  0  0  0  0  0
    1.9175    2.0332    1.3038 O   0  0  0  0  0  0  0  0  0  0  0  0
    1.2100    3.7805   -0.3877 O   0  0  0  0  0  0  0  0  0  0  0  0
    3.6172    3.5627    0.4410 O   0  0  0  0  0  0  0  0  0  0  0  0
    2.6117    1.8991   -1.1293 O   0  0  0  0  0  0  0  0  0  0  0  0
    3.5430    1.6283   -1.0588 H   0  0  0  0  0  0  0  0  0  0  0  0
  1  6  1  0  0  0  0
  2  1  2  0  0  0  0
  2  3  1  0  0  0  0
  3 19  1  0  0  0  0
  3  4  2  0  0  0  0
  4  5  1  0  0  0  0
  4  9  1  0  0  0  0
  5 10  1  0  0  0  0
  6 13  1  0  0  0  0
  6  5  2  0  0  0  0
  7  1  1  0  0  0  0
  8  2  1  0  0  0  0
 11 12  3  0  0  0  0
 14 15  1  0  0  0  0
 14 13  1  0  0  0  0
 14 16  1  0  0  0  0
 17 14  1  0  0  0  0
 18 21  2  0  0  0  0
 18 19  1  0  0  0  0
 20 18  2  0  0  0  0
 22 23  1  0  0  0  0
 22 18  1  0  0  0  0
M  END
