Coordinates from ORCA-job 4-MeO-Ph-N2-HSO4-B3LYPG-6-31G_dp-MTMO-d009-169-n800
 OpenBabel09051907533D

 23 22  0  0  0  0  0  0  0  0999 V2000
   -0.3064   -0.5448    0.7234 C   0  0  0  0  0  0  0  0  0  0  0  0
    0.9459    0.0717    0.6608 C   0  0  0  0  0  0  0  0  0  0  0  0
    1.0847    1.3872    1.0803 C   0  0  0  0  0  0  0  0  0  0  0  0
   -0.0039    2.1133    1.5640 C   0  0  0  0  0  0  0  0  0  0  0  0
   -1.2490    1.5036    1.6251 C   0  0  0  0  0  0  0  0  0  0  0  0
   -1.4091    0.1725    1.2054 C   0  0  0  0  0  0  0  0  0  0  0  0
   -0.4061   -1.5724    0.3972 H   0  0  0  0  0  0  0  0  0  0  0  0
    1.8098   -0.4694    0.2915 H   0  0  0  0  0  0  0  0  0  0  0  0
    0.1324    3.1403    1.8820 H   0  0  0  0  0  0  0  0  0  0  0  0
   -2.1174    2.0379    1.9947 H   0  0  0  0  0  0  0  0  0  0  0  0
   10.2234    0.7842   -3.7016 N   0  0  0  0  0  0  0  0  0  0  0  0
    9.1832    0.6974   -3.3384 N   0  0  0  0  0  0  0  0  0  0  0  0
   -2.6713   -0.3280    1.3091 O   0  0  0  0  0  0  0  0  0  0  0  0
   -2.9054   -1.6626    0.8835 C   0  0  0  0  0  0  0  0  0  0  0  0
   -3.9682   -1.8472    1.0456 H   0  0  0  0  0  0  0  0  0  0  0  0
   -2.3214   -2.3826    1.4702 H   0  0  0  0  0  0  0  0  0  0  0  0
   -2.6735   -1.7930   -0.1813 H   0  0  0  0  0  0  0  0  0  0  0  0
    2.8138    2.9104   -0.1756 S   0  0  0  0  0  0  0  0  0  0  0  0
    2.3706    1.9700    1.0920 O   0  0  0  0  0  0  0  0  0  0  0  0
    1.6937    3.7059   -0.6238 O   0  0  0  0  0  0  0  0  0  0  0  0
    4.0951    3.4632    0.2145 O   0  0  0  0  0  0  0  0  0  0  0  0
    3.0689    1.7948   -1.3375 O   0  0  0  0  0  0  0  0  0  0  0  0
    3.9950    1.5083   -1.2601 H   0  0  0  0  0  0  0  0  0  0  0  0
  1  6  1  0  0  0  0
  2  1  2  0  0  0  0
  2  3  1  0  0  0  0
  3 19  1  0  0  0  0
  3  4  2  0  0  0  0
  4  5  1  0  0  0  0
  4  9  1  0  0  0  0
  5 10  1  0  0  0  0
  6 13  1  0  0  0  0
  6  5  2  0  0  0  0
  7  1  1  0  0  0  0
  8  2  1  0  0  0  0
 11 12  3  0  0  0  0
 14 15  1  0  0  0  0
 14 13  1  0  0  0  0
 14 16  1  0  0  0  0
 17 14  1  0  0  0  0
 18 21  2  0  0  0  0
 18 19  1  0  0  0  0
 20 18  2  0  0  0  0
 22 23  1  0  0  0  0
 22 18  1  0  0  0  0
M  END
