Coordinates from ORCA-job 4-MeO-Ph-N2-HSO4-B3LYPG-6-31G_dp-MTMO-d009-169-n800
 OpenBabel09051907533D

 23 22  0  0  0  0  0  0  0  0999 V2000
   -0.4335   -0.5366    0.7794 C   0  0  0  0  0  0  0  0  0  0  0  0
    0.8098    0.0984    0.7236 C   0  0  0  0  0  0  0  0  0  0  0  0
    0.9294    1.4119    1.1551 C   0  0  0  0  0  0  0  0  0  0  0  0
   -0.1699    2.1178    1.6446 C   0  0  0  0  0  0  0  0  0  0  0  0
   -1.4062    1.4896    1.6989 C   0  0  0  0  0  0  0  0  0  0  0  0
   -1.5469    0.1604    1.2667 C   0  0  0  0  0  0  0  0  0  0  0  0
   -0.5180   -1.5625    0.4435 H   0  0  0  0  0  0  0  0  0  0  0  0
    1.6817   -0.4268    0.3503 H   0  0  0  0  0  0  0  0  0  0  0  0
   -0.0488    3.1437    1.9720 H   0  0  0  0  0  0  0  0  0  0  0  0
   -2.2825    2.0079    2.0726 H   0  0  0  0  0  0  0  0  0  0  0  0
   11.7597    0.6443   -4.3956 N   0  0  0  0  0  0  0  0  0  0  0  0
   10.7185    0.5436   -4.0387 N   0  0  0  0  0  0  0  0  0  0  0  0
   -2.8020   -0.3590    1.3637 O   0  0  0  0  0  0  0  0  0  0  0  0
   -3.0168   -1.6919    0.9234 C   0  0  0  0  0  0  0  0  0  0  0  0
   -4.0775   -1.8927    1.0807 H   0  0  0  0  0  0  0  0  0  0  0  0
   -2.4247   -2.4103    1.5040 H   0  0  0  0  0  0  0  0  0  0  0  0
   -2.7806   -1.8078   -0.1421 H   0  0  0  0  0  0  0  0  0  0  0  0
    2.6367    2.9700   -0.0870 S   0  0  0  0  0  0  0  0  0  0  0  0
    2.2067    2.0132    1.1727 O   0  0  0  0  0  0  0  0  0  0  0  0
    1.5074    3.7581   -0.5250 O   0  0  0  0  0  0  0  0  0  0  0  0
    3.9133    3.5322    0.3050 O   0  0  0  0  0  0  0  0  0  0  0  0
    2.9001    1.8680   -1.2601 O   0  0  0  0  0  0  0  0  0  0  0  0
    3.8289    1.5893   -1.1866 H   0  0  0  0  0  0  0  0  0  0  0  0
  1  6  1  0  0  0  0
  2  1  2  0  0  0  0
  2  3  1  0  0  0  0
  3 19  1  0  0  0  0
  3  4  2  0  0  0  0
  4  5  1  0  0  0  0
  4  9  1  0  0  0  0
  5 10  1  0  0  0  0
  6 13  1  0  0  0  0
  6  5  2  0  0  0  0
  7  1  1  0  0  0  0
  8  2  1  0  0  0  0
 11 12  3  0  0  0  0
 14 15  1  0  0  0  0
 14 13  1  0  0  0  0
 14 16  1  0  0  0  0
 17 14  1  0  0  0  0
 18 21  2  0  0  0  0
 18 19  1  0  0  0  0
 20 18  2  0  0  0  0
 22 23  1  0  0  0  0
 22 18  1  0  0  0  0
M  END
