Coordinates from ORCA-job 4-MeO-Ph-N2-HSO4-B3LYPG-6-31G_dp-MTMO-d009-169-n800
 OpenBabel09051907533D

 23 22  0  0  0  0  0  0  0  0999 V2000
   -0.0235   -0.4045    0.7422 C   0  0  0  0  0  0  0  0  0  0  0  0
    1.3516   -0.1778    0.8426 C   0  0  0  0  0  0  0  0  0  0  0  0
    1.8286    1.1258    0.8735 C   0  0  0  0  0  0  0  0  0  0  0  0
    0.9606    2.2156    0.8260 C   0  0  0  0  0  0  0  0  0  0  0  0
   -0.4068    1.9908    0.7413 C   0  0  0  0  0  0  0  0  0  0  0  0
   -0.9083    0.6802    0.6929 C   0  0  0  0  0  0  0  0  0  0  0  0
   -0.3863   -1.4244    0.7089 H   0  0  0  0  0  0  0  0  0  0  0  0
    2.0415   -1.0126    0.8903 H   0  0  0  0  0  0  0  0  0  0  0  0
    1.3641    3.2211    0.8569 H   0  0  0  0  0  0  0  0  0  0  0  0
   -1.1089    2.8165    0.7048 H   0  0  0  0  0  0  0  0  0  0  0  0
    2.2946    3.6289   -1.8982 N   0  0  0  0  0  0  0  0  0  0  0  0
    2.0455    3.5521   -2.9720 N   0  0  0  0  0  0  0  0  0  0  0  0
   -2.2633    0.5716    0.6008 O   0  0  0  0  0  0  0  0  0  0  0  0
   -2.8317   -0.7270    0.5265 C   0  0  0  0  0  0  0  0  0  0  0  0
   -3.9096   -0.5794    0.4454 H   0  0  0  0  0  0  0  0  0  0  0  0
   -2.6152   -1.3164    1.4274 H   0  0  0  0  0  0  0  0  0  0  0  0
   -2.4747   -1.2740   -0.3557 H   0  0  0  0  0  0  0  0  0  0  0  0
    4.2818    0.9497   -0.0878 S   0  0  0  0  0  0  0  0  0  0  0  0
    3.2017    1.4038    1.0542 O   0  0  0  0  0  0  0  0  0  0  0  0
    3.6556    0.8829   -1.3880 O   0  0  0  0  0  0  0  0  0  0  0  0
    5.4710    1.7235    0.2058 O   0  0  0  0  0  0  0  0  0  0  0  0
    4.5696   -0.5995    0.3425 O   0  0  0  0  0  0  0  0  0  0  0  0
    5.2468   -0.5863    1.0406 H   0  0  0  0  0  0  0  0  0  0  0  0
  1  2  2  0  0  0  0
  2  3  1  0  0  0  0
  2  8  1  0  0  0  0
  3 19  1  0  0  0  0
  4  9  1  0  0  0  0
  4  3  2  0  0  0  0
  5  4  1  0  0  0  0
  6  5  2  0  0  0  0
  6  1  1  0  0  0  0
  7  1  1  0  0  0  0
 10  5  1  0  0  0  0
 12 11  3  0  0  0  0
 13  6  1  0  0  0  0
 14 13  1  0  0  0  0
 14 16  1  0  0  0  0
 15 14  1  0  0  0  0
 17 14  1  0  0  0  0
 18 21  2  0  0  0  0
 18 22  1  0  0  0  0
 18 19  1  0  0  0  0
 20 18  2  0  0  0  0
 22 23  1  0  0  0  0
M  END
