Coordinates from ORCA-job 4-MeO-Ph-N2-HSO4-B3LYPG-6-31G_dp-MTMO-d009-169-n800
 OpenBabel09051907533D

 23 22  0  0  0  0  0  0  0  0999 V2000
   -0.1902   -0.6438    1.0435 C   0  0  0  0  0  0  0  0  0  0  0  0
    1.1677   -0.3304    1.1461 C   0  0  0  0  0  0  0  0  0  0  0  0
    1.5813    0.9860    0.9976 C   0  0  0  0  0  0  0  0  0  0  0  0
    0.6677    2.0094    0.7438 C   0  0  0  0  0  0  0  0  0  0  0  0
   -0.6809    1.6997    0.6383 C   0  0  0  0  0  0  0  0  0  0  0  0
   -1.1191    0.3729    0.7871 C   0  0  0  0  0  0  0  0  0  0  0  0
   -0.5051   -1.6724    1.1667 H   0  0  0  0  0  0  0  0  0  0  0  0
    1.8997   -1.1048    1.3464 H   0  0  0  0  0  0  0  0  0  0  0  0
    1.0182    3.0286    0.6277 H   0  0  0  0  0  0  0  0  0  0  0  0
   -1.4188    2.4693    0.4405 H   0  0  0  0  0  0  0  0  0  0  0  0
    4.5216    4.8998   -2.5856 N   0  0  0  0  0  0  0  0  0  0  0  0
    5.1187    4.0844   -3.0326 N   0  0  0  0  0  0  0  0  0  0  0  0
   -2.4620    0.1816    0.6675 O   0  0  0  0  0  0  0  0  0  0  0  0
   -2.9707   -1.1372    0.7978 C   0  0  0  0  0  0  0  0  0  0  0  0
   -4.0502   -1.0579    0.6613 H   0  0  0  0  0  0  0  0  0  0  0  0
   -2.7623   -1.5544    1.7917 H   0  0  0  0  0  0  0  0  0  0  0  0
   -2.5584   -1.8072    0.0323 H   0  0  0  0  0  0  0  0  0  0  0  0
    3.9057    1.4561   -0.1262 S   0  0  0  0  0  0  0  0  0  0  0  0
    2.9448    1.2991    1.1908 O   0  0  0  0  0  0  0  0  0  0  0  0
    3.1909    2.1253   -1.1897 O   0  0  0  0  0  0  0  0  0  0  0  0
    5.1760    1.9100    0.4031 O   0  0  0  0  0  0  0  0  0  0  0  0
    4.0715   -0.0951   -0.6008 O   0  0  0  0  0  0  0  0  0  0  0  0
    4.8387   -0.4583   -0.1264 H   0  0  0  0  0  0  0  0  0  0  0  0
  1  2  1  0  0  0  0
  1  7  1  0  0  0  0
  2  8  1  0  0  0  0
  3  2  2  0  0  0  0
  3 19  1  0  0  0  0
  4  3  1  0  0  0  0
  5  4  2  0  0  0  0
  5  6  1  0  0  0  0
  6  1  2  0  0  0  0
  9  4  1  0  0  0  0
 10  5  1  0  0  0  0
 12 11  3  0  0  0  0
 13  6  1  0  0  0  0
 13 14  1  0  0  0  0
 14 16  1  0  0  0  0
 15 14  1  0  0  0  0
 17 14  1  0  0  0  0
 18 21  2  0  0  0  0
 18 19  1  0  0  0  0
 20 18  2  0  0  0  0
 22 23  1  0  0  0  0
 22 18  1  0  0  0  0
M  END
