Coordinates from ORCA-job 4-MeO-Ph-N2-HSO4-B3LYPG-6-31G_dp-MTMO-d009-169-n800
 OpenBabel09051907533D

 23 22  0  0  0  0  0  0  0  0999 V2000
   -0.5986   -0.5314    0.8506 C   0  0  0  0  0  0  0  0  0  0  0  0
    0.6407    0.1116    0.7973 C   0  0  0  0  0  0  0  0  0  0  0  0
    0.7523    1.4237    1.2352 C   0  0  0  0  0  0  0  0  0  0  0  0
   -0.3510    2.1203    1.7290 C   0  0  0  0  0  0  0  0  0  0  0  0
   -1.5833    1.4841    1.7810 C   0  0  0  0  0  0  0  0  0  0  0  0
   -1.7160    0.1562    1.3421 C   0  0  0  0  0  0  0  0  0  0  0  0
   -0.6768   -1.5561    0.5097 H   0  0  0  0  0  0  0  0  0  0  0  0
    1.5156   -0.4062    0.4208 H   0  0  0  0  0  0  0  0  0  0  0  0
   -0.2361    3.1453    2.0615 H   0  0  0  0  0  0  0  0  0  0  0  0
   -2.4625    1.9950    2.1578 H   0  0  0  0  0  0  0  0  0  0  0  0
   13.5798    0.5652   -5.2001 N   0  0  0  0  0  0  0  0  0  0  0  0
   12.5378    0.4578   -4.8475 N   0  0  0  0  0  0  0  0  0  0  0  0
   -2.9678   -0.3714    1.4370 O   0  0  0  0  0  0  0  0  0  0  0  0
   -3.1748   -1.7031    0.9894 C   0  0  0  0  0  0  0  0  0  0  0  0
   -4.2342   -1.9111    1.1455 H   0  0  0  0  0  0  0  0  0  0  0  0
   -2.5784   -2.4212    1.5659 H   0  0  0  0  0  0  0  0  0  0  0  0
   -2.9379   -1.8117   -0.0768 H   0  0  0  0  0  0  0  0  0  0  0  0
    2.4489    2.9983   -0.0007 S   0  0  0  0  0  0  0  0  0  0  0  0
    2.0259    2.0329    1.2547 O   0  0  0  0  0  0  0  0  0  0  0  0
    1.3148    3.7829   -0.4326 O   0  0  0  0  0  0  0  0  0  0  0  0
    3.7234    3.5649    0.3919 O   0  0  0  0  0  0  0  0  0  0  0  0
    2.7160    1.9035   -1.1799 O   0  0  0  0  0  0  0  0  0  0  0  0
    3.6470    1.6314   -1.1106 H   0  0  0  0  0  0  0  0  0  0  0  0
  1  6  1  0  0  0  0
  2  1  2  0  0  0  0
  2  3  1  0  0  0  0
  3 19  1  0  0  0  0
  3  4  2  0  0  0  0
  4  5  1  0  0  0  0
  4  9  1  0  0  0  0
  5 10  1  0  0  0  0
  6 13  1  0  0  0  0
  6  5  2  0  0  0  0
  7  1  1  0  0  0  0
  8  2  1  0  0  0  0
 11 12  3  0  0  0  0
 14 15  1  0  0  0  0
 14 13  1  0  0  0  0
 14 16  1  0  0  0  0
 17 14  1  0  0  0  0
 18 21  2  0  0  0  0
 18 19  1  0  0  0  0
 20 18  2  0  0  0  0
 22 23  1  0  0  0  0
 22 18  1  0  0  0  0
M  END
