Coordinates from ORCA-job 4-MeO-Ph-N2-HSO4-B3LYPG-6-31G_dp-MTMO-d009-169-n800
 OpenBabel09051907533D

 23 22  0  0  0  0  0  0  0  0999 V2000
   -0.5021   -0.5335    0.8113 C   0  0  0  0  0  0  0  0  0  0  0  0
    0.7379    0.1082    0.7598 C   0  0  0  0  0  0  0  0  0  0  0  0
    0.8495    1.4216    1.1938 C   0  0  0  0  0  0  0  0  0  0  0  0
   -0.2547    2.1208    1.6818 C   0  0  0  0  0  0  0  0  0  0  0  0
   -1.4877    1.4860    1.7321 C   0  0  0  0  0  0  0  0  0  0  0  0
   -1.6204    0.1568    1.2971 C   0  0  0  0  0  0  0  0  0  0  0  0
   -0.5802   -1.5591    0.4734 H   0  0  0  0  0  0  0  0  0  0  0  0
    1.6135   -0.4116    0.3876 H   0  0  0  0  0  0  0  0  0  0  0  0
   -0.1399    3.1468    2.0114 H   0  0  0  0  0  0  0  0  0  0  0  0
   -2.3677    1.9989    2.1045 H   0  0  0  0  0  0  0  0  0  0  0  0
   12.5513    0.5894   -4.7592 N   0  0  0  0  0  0  0  0  0  0  0  0
   11.5098    0.4887   -4.4029 N   0  0  0  0  0  0  0  0  0  0  0  0
   -2.8730   -0.3693    1.3899 O   0  0  0  0  0  0  0  0  0  0  0  0
   -3.0798   -1.7024    0.9463 C   0  0  0  0  0  0  0  0  0  0  0  0
   -4.1398   -1.9089    1.1000 H   0  0  0  0  0  0  0  0  0  0  0  0
   -2.4856   -2.4190    1.5271 H   0  0  0  0  0  0  0  0  0  0  0  0
   -2.8399   -1.8149   -0.1188 H   0  0  0  0  0  0  0  0  0  0  0  0
    2.5516    2.9903   -0.0419 S   0  0  0  0  0  0  0  0  0  0  0  0
    2.1235    2.0297    1.2154 O   0  0  0  0  0  0  0  0  0  0  0  0
    1.4197    3.7748   -0.4801 O   0  0  0  0  0  0  0  0  0  0  0  0
    3.8254    3.5569    0.3528 O   0  0  0  0  0  0  0  0  0  0  0  0
    2.8213    1.8913   -1.2165 O   0  0  0  0  0  0  0  0  0  0  0  0
    3.7520    1.6191   -1.1437 H   0  0  0  0  0  0  0  0  0  0  0  0
  1  6  1  0  0  0  0
  2  1  2  0  0  0  0
  2  3  1  0  0  0  0
  3 19  1  0  0  0  0
  3  4  2  0  0  0  0
  4  5  1  0  0  0  0
  4  9  1  0  0  0  0
  5 10  1  0  0  0  0
  6 13  1  0  0  0  0
  6  5  2  0  0  0  0
  7  1  1  0  0  0  0
  8  2  1  0  0  0  0
 11 12  3  0  0  0  0
 14 15  1  0  0  0  0
 14 13  1  0  0  0  0
 14 16  1  0  0  0  0
 17 14  1  0  0  0  0
 18 21  2  0  0  0  0
 18 19  1  0  0  0  0
 20 18  2  0  0  0  0
 22 23  1  0  0  0  0
 22 18  1  0  0  0  0
M  END
