Coordinates from ORCA-job 4-MeO-Ph-N2-HSO4-B3LYPG-6-31G_dp-MTMO-d009-169-n800
 OpenBabel09051907533D

 23 22  0  0  0  0  0  0  0  0999 V2000
   -0.1570   -0.5572    1.1213 C   0  0  0  0  0  0  0  0  0  0  0  0
    1.2119   -0.3165    1.2653 C   0  0  0  0  0  0  0  0  0  0  0  0
    1.7295    0.9252    0.9250 C   0  0  0  0  0  0  0  0  0  0  0  0
    0.9116    1.9448    0.4359 C   0  0  0  0  0  0  0  0  0  0  0  0
   -0.4471    1.7052    0.2874 C   0  0  0  0  0  0  0  0  0  0  0  0
   -0.9905    0.4550    0.6282 C   0  0  0  0  0  0  0  0  0  0  0  0
   -0.5542   -1.5265    1.3955 H   0  0  0  0  0  0  0  0  0  0  0  0
    1.8716   -1.0881    1.6460 H   0  0  0  0  0  0  0  0  0  0  0  0
    1.3425    2.9033    0.1707 H   0  0  0  0  0  0  0  0  0  0  0  0
   -1.1130    2.4729   -0.0908 H   0  0  0  0  0  0  0  0  0  0  0  0
    3.0912    4.9074   -1.9294 N   0  0  0  0  0  0  0  0  0  0  0  0
    3.8343    4.8920   -2.7472 N   0  0  0  0  0  0  0  0  0  0  0  0
   -2.3341    0.3297    0.4451 O   0  0  0  0  0  0  0  0  0  0  0  0
   -2.9457   -0.9127    0.7593 C   0  0  0  0  0  0  0  0  0  0  0  0
   -4.0047   -0.7936    0.5258 H   0  0  0  0  0  0  0  0  0  0  0  0
   -2.8355   -1.1596    1.8228 H   0  0  0  0  0  0  0  0  0  0  0  0
   -2.5332   -1.7307    0.1554 H   0  0  0  0  0  0  0  0  0  0  0  0
    4.1387    1.1175   -0.1026 S   0  0  0  0  0  0  0  0  0  0  0  0
    3.0993    1.1762    1.1613 O   0  0  0  0  0  0  0  0  0  0  0  0
    3.5386    1.7128   -1.2755 O   0  0  0  0  0  0  0  0  0  0  0  0
    5.4092    1.5371    0.4538 O   0  0  0  0  0  0  0  0  0  0  0  0
    4.2087   -0.4846   -0.3978 O   0  0  0  0  0  0  0  0  0  0  0  0
    4.9128   -0.8487    0.1656 H   0  0  0  0  0  0  0  0  0  0  0  0
  1  2  1  0  0  0  0
  1  7  1  0  0  0  0
  2  8  1  0  0  0  0
  3 19  1  0  0  0  0
  3  2  2  0  0  0  0
  4  3  1  0  0  0  0
  5  4  2  0  0  0  0
  5  6  1  0  0  0  0
  6  1  2  0  0  0  0
  9  4  1  0  0  0  0
 10  5  1  0  0  0  0
 12 11  3  0  0  0  0
 13  6  1  0  0  0  0
 13 14  1  0  0  0  0
 14 16  1  0  0  0  0
 15 14  1  0  0  0  0
 17 14  1  0  0  0  0
 18 21  2  0  0  0  0
 18 19  1  0  0  0  0
 20 18  2  0  0  0  0
 22 18  1  0  0  0  0
 22 23  1  0  0  0  0
M  END
