Coordinates from ORCA-job 4-MeO-Ph-N2-HSO4-B3LYPG-6-31G_dp-MTMO-d009-169-n800
 OpenBabel09051907533D

 23 22  0  0  0  0  0  0  0  0999 V2000
   -0.4935   -0.5334    0.8073 C   0  0  0  0  0  0  0  0  0  0  0  0
    0.7463    0.1087    0.7558 C   0  0  0  0  0  0  0  0  0  0  0  0
    0.8575    1.4220    1.1903 C   0  0  0  0  0  0  0  0  0  0  0  0
   -0.2469    2.1206    1.6788 C   0  0  0  0  0  0  0  0  0  0  0  0
   -1.4796    1.4853    1.7290 C   0  0  0  0  0  0  0  0  0  0  0  0
   -1.6119    0.1562    1.2936 C   0  0  0  0  0  0  0  0  0  0  0  0
   -0.5713   -1.5590    0.4691 H   0  0  0  0  0  0  0  0  0  0  0  0
    1.6220   -0.4107    0.3832 H   0  0  0  0  0  0  0  0  0  0  0  0
   -0.1323    3.1465    2.0087 H   0  0  0  0  0  0  0  0  0  0  0  0
   -2.3597    1.9978    2.1019 H   0  0  0  0  0  0  0  0  0  0  0  0
   12.4671    0.5866   -4.7221 N   0  0  0  0  0  0  0  0  0  0  0  0
   11.4256    0.4874   -4.3659 N   0  0  0  0  0  0  0  0  0  0  0  0
   -2.8643   -0.3704    1.3864 O   0  0  0  0  0  0  0  0  0  0  0  0
   -3.0707   -1.7033    0.9423 C   0  0  0  0  0  0  0  0  0  0  0  0
   -4.1307   -1.9103    1.0961 H   0  0  0  0  0  0  0  0  0  0  0  0
   -2.4763   -2.4199    1.5227 H   0  0  0  0  0  0  0  0  0  0  0  0
   -2.8309   -1.8153   -0.1229 H   0  0  0  0  0  0  0  0  0  0  0  0
    2.5586    2.9923   -0.0451 S   0  0  0  0  0  0  0  0  0  0  0  0
    2.1313    2.0305    1.2117 O   0  0  0  0  0  0  0  0  0  0  0  0
    1.4262    3.7764   -0.4825 O   0  0  0  0  0  0  0  0  0  0  0  0
    3.8322    3.5591    0.3497 O   0  0  0  0  0  0  0  0  0  0  0  0
    2.8281    1.8942   -1.2206 O   0  0  0  0  0  0  0  0  0  0  0  0
    3.7579    1.6192   -1.1464 H   0  0  0  0  0  0  0  0  0  0  0  0
  1  6  1  0  0  0  0
  2  1  2  0  0  0  0
  2  3  1  0  0  0  0
  3 19  1  0  0  0  0
  3  4  2  0  0  0  0
  4  5  1  0  0  0  0
  4  9  1  0  0  0  0
  5 10  1  0  0  0  0
  6 13  1  0  0  0  0
  6  5  2  0  0  0  0
  7  1  1  0  0  0  0
  8  2  1  0  0  0  0
 11 12  3  0  0  0  0
 14 15  1  0  0  0  0
 14 13  1  0  0  0  0
 14 16  1  0  0  0  0
 17 14  1  0  0  0  0
 18 21  2  0  0  0  0
 18 19  1  0  0  0  0
 20 18  2  0  0  0  0
 22 23  1  0  0  0  0
 22 18  1  0  0  0  0
M  END
