Coordinates from ORCA-job 4-MeO-Ph-N2-HSO4-B3LYPG-6-31G_dp-MTMO-d009-169-n800
 OpenBabel09051907533D

 23 22  0  0  0  0  0  0  0  0999 V2000
   -0.3760   -0.5400    0.7525 C   0  0  0  0  0  0  0  0  0  0  0  0
    0.8711    0.0870    0.6925 C   0  0  0  0  0  0  0  0  0  0  0  0
    0.9997    1.4009    1.1204 C   0  0  0  0  0  0  0  0  0  0  0  0
   -0.0941    2.1149    1.6101 C   0  0  0  0  0  0  0  0  0  0  0  0
   -1.3342    1.4947    1.6687 C   0  0  0  0  0  0  0  0  0  0  0  0
   -1.4840    0.1652    1.2403 C   0  0  0  0  0  0  0  0  0  0  0  0
   -0.4677   -1.5662    0.4197 H   0  0  0  0  0  0  0  0  0  0  0  0
    1.7389   -0.4446    0.3188 H   0  0  0  0  0  0  0  0  0  0  0  0
    0.0341    3.1410    1.9346 H   0  0  0  0  0  0  0  0  0  0  0  0
   -2.2064    2.0195    2.0427 H   0  0  0  0  0  0  0  0  0  0  0  0
   11.0694    0.7054   -4.0767 N   0  0  0  0  0  0  0  0  0  0  0  0
   10.0282    0.6070   -3.7191 N   0  0  0  0  0  0  0  0  0  0  0  0
   -2.7421   -0.3461    1.3416 O   0  0  0  0  0  0  0  0  0  0  0  0
   -2.9660   -1.6792    0.9062 C   0  0  0  0  0  0  0  0  0  0  0  0
   -4.0274   -1.8732    1.0669 H   0  0  0  0  0  0  0  0  0  0  0  0
   -2.3765   -2.3992    1.4873 H   0  0  0  0  0  0  0  0  0  0  0  0
   -2.7334   -1.7998   -0.1596 H   0  0  0  0  0  0  0  0  0  0  0  0
    2.7146    2.9452   -0.1288 S   0  0  0  0  0  0  0  0  0  0  0  0
    2.2808    1.9943    1.1341 O   0  0  0  0  0  0  0  0  0  0  0  0
    1.5886    3.7369   -0.5688 O   0  0  0  0  0  0  0  0  0  0  0  0
    3.9939    3.5029    0.2610 O   0  0  0  0  0  0  0  0  0  0  0  0
    2.9728    1.8383   -1.2985 O   0  0  0  0  0  0  0  0  0  0  0  0
    3.9004    1.5561   -1.2249 H   0  0  0  0  0  0  0  0  0  0  0  0
  1  6  1  0  0  0  0
  2  1  2  0  0  0  0
  2  3  1  0  0  0  0
  3 19  1  0  0  0  0
  3  4  2  0  0  0  0
  4  5  1  0  0  0  0
  4  9  1  0  0  0  0
  5 10  1  0  0  0  0
  6 13  1  0  0  0  0
  6  5  2  0  0  0  0
  7  1  1  0  0  0  0
  8  2  1  0  0  0  0
 11 12  3  0  0  0  0
 14 15  1  0  0  0  0
 14 13  1  0  0  0  0
 14 16  1  0  0  0  0
 17 14  1  0  0  0  0
 18 21  2  0  0  0  0
 18 19  1  0  0  0  0
 20 18  2  0  0  0  0
 22 23  1  0  0  0  0
 22 18  1  0  0  0  0
M  END
