Coordinates from ORCA-job 4-MeO-Ph-N2-HSO4-B3LYPG-6-31G_dp-MTMO-d009-169-n800
 OpenBabel09051907533D

 23 22  0  0  0  0  0  0  0  0999 V2000
   -0.1926   -0.5610    0.7101 C   0  0  0  0  0  0  0  0  0  0  0  0
    1.0791    0.0166    0.6689 C   0  0  0  0  0  0  0  0  0  0  0  0
    1.2394    1.3475    1.0279 C   0  0  0  0  0  0  0  0  0  0  0  0
    0.1544    2.1275    1.4278 C   0  0  0  0  0  0  0  0  0  0  0  0
   -1.1096    1.5562    1.4684 C   0  0  0  0  0  0  0  0  0  0  0  0
   -1.2918    0.2100    1.1102 C   0  0  0  0  0  0  0  0  0  0  0  0
   -0.3101   -1.6005    0.4308 H   0  0  0  0  0  0  0  0  0  0  0  0
    1.9409   -0.5653    0.3621 H   0  0  0  0  0  0  0  0  0  0  0  0
    0.3086    3.1654    1.6995 H   0  0  0  0  0  0  0  0  0  0  0  0
   -1.9758    2.1324    1.7747 H   0  0  0  0  0  0  0  0  0  0  0  0
    8.4385    1.1595   -3.1969 N   0  0  0  0  0  0  0  0  0  0  0  0
    7.4713    1.1087   -2.6643 N   0  0  0  0  0  0  0  0  0  0  0  0
   -2.5714   -0.2499    1.1882 O   0  0  0  0  0  0  0  0  0  0  0  0
   -2.8266   -1.5999    0.8288 C   0  0  0  0  0  0  0  0  0  0  0  0
   -3.8994   -1.7481    0.9608 H   0  0  0  0  0  0  0  0  0  0  0  0
   -2.2840   -2.3002    1.4761 H   0  0  0  0  0  0  0  0  0  0  0  0
   -2.5603   -1.7964   -0.2174 H   0  0  0  0  0  0  0  0  0  0  0  0
    3.0798    2.7281   -0.2399 S   0  0  0  0  0  0  0  0  0  0  0  0
    2.5400    1.8965    1.0655 O   0  0  0  0  0  0  0  0  0  0  0  0
    1.9909    3.4593   -0.8470 O   0  0  0  0  0  0  0  0  0  0  0  0
    4.3178    3.3389    0.2018 O   0  0  0  0  0  0  0  0  0  0  0  0
    3.4511    1.5192   -1.2699 O   0  0  0  0  0  0  0  0  0  0  0  0
    4.3944    1.3161   -1.1451 H   0  0  0  0  0  0  0  0  0  0  0  0
  1  6  1  0  0  0  0
  2  1  2  0  0  0  0
  2  3  1  0  0  0  0
  3 19  1  0  0  0  0
  3  4  2  0  0  0  0
  4  5  1  0  0  0  0
  4  9  1  0  0  0  0
  5 10  1  0  0  0  0
  6 13  1  0  0  0  0
  6  5  2  0  0  0  0
  7  1  1  0  0  0  0
  8  2  1  0  0  0  0
 11 12  3  0  0  0  0
 14 15  1  0  0  0  0
 14 13  1  0  0  0  0
 14 16  1  0  0  0  0
 17 14  1  0  0  0  0
 18 21  2  0  0  0  0
 18 19  1  0  0  0  0
 20 18  2  0  0  0  0
 22 23  1  0  0  0  0
 22 18  1  0  0  0  0
M  END
