Coordinates from ORCA-job 4-MeO-Ph-N2-HSO4-B3LYPG-6-31G_dp-MTMO-d009-169-n800
 OpenBabel09051907533D

 23 22  0  0  0  0  0  0  0  0999 V2000
   -0.1818   -0.5738    0.6923 C   0  0  0  0  0  0  0  0  0  0  0  0
    1.1023   -0.0258    0.6341 C   0  0  0  0  0  0  0  0  0  0  0  0
    1.2958    1.3040    0.9801 C   0  0  0  0  0  0  0  0  0  0  0  0
    0.2331    2.1123    1.3830 C   0  0  0  0  0  0  0  0  0  0  0  0
   -1.0431    1.5701    1.4409 C   0  0  0  0  0  0  0  0  0  0  0  0
   -1.2592    0.2253    1.0966 C   0  0  0  0  0  0  0  0  0  0  0  0
   -0.3261   -1.6126    0.4228 H   0  0  0  0  0  0  0  0  0  0  0  0
    1.9483   -0.6288    0.3238 H   0  0  0  0  0  0  0  0  0  0  0  0
    0.4136    3.1487    1.6443 H   0  0  0  0  0  0  0  0  0  0  0  0
   -1.8931    2.1685    1.7503 H   0  0  0  0  0  0  0  0  0  0  0  0
    7.9047    1.4260   -2.8677 N   0  0  0  0  0  0  0  0  0  0  0  0
    6.9364    1.3325   -2.3434 N   0  0  0  0  0  0  0  0  0  0  0  0
   -2.5481   -0.2049    1.1917 O   0  0  0  0  0  0  0  0  0  0  0  0
   -2.8367   -1.5531    0.8515 C   0  0  0  0  0  0  0  0  0  0  0  0
   -3.9106   -1.6767    0.9989 H   0  0  0  0  0  0  0  0  0  0  0  0
   -2.3006   -2.2574    1.4998 H   0  0  0  0  0  0  0  0  0  0  0  0
   -2.5884   -1.7675   -0.1958 H   0  0  0  0  0  0  0  0  0  0  0  0
    3.1723    2.6138   -0.3198 S   0  0  0  0  0  0  0  0  0  0  0  0
    2.6093    1.8238    1.0016 O   0  0  0  0  0  0  0  0  0  0  0  0
    2.0829    3.2937   -0.9850 O   0  0  0  0  0  0  0  0  0  0  0  0
    4.3809    3.2775    0.1290 O   0  0  0  0  0  0  0  0  0  0  0  0
    3.6118    1.3722   -1.2802 O   0  0  0  0  0  0  0  0  0  0  0  0
    4.5813    1.2928   -1.2277 H   0  0  0  0  0  0  0  0  0  0  0  0
  1  6  1  0  0  0  0
  2  1  2  0  0  0  0
  2  3  1  0  0  0  0
  3 19  1  0  0  0  0
  3  4  2  0  0  0  0
  4  5  1  0  0  0  0
  4  9  1  0  0  0  0
  5 10  1  0  0  0  0
  6 13  1  0  0  0  0
  6  5  2  0  0  0  0
  7  1  1  0  0  0  0
  8  2  1  0  0  0  0
 11 12  3  0  0  0  0
 14 15  1  0  0  0  0
 14 13  1  0  0  0  0
 14 16  1  0  0  0  0
 17 14  1  0  0  0  0
 18 21  2  0  0  0  0
 18 19  1  0  0  0  0
 20 18  2  0  0  0  0
 22 23  1  0  0  0  0
 22 18  1  0  0  0  0
M  END
