Coordinates from ORCA-job 4-MeO-Ph-N2-HSO4-B3LYPG-6-31G_dp-MTMO-d009-169-n800
 OpenBabel09051907533D

 23 22  0  0  0  0  0  0  0  0999 V2000
   -0.6393   -0.5309    0.8685 C   0  0  0  0  0  0  0  0  0  0  0  0
    0.6003    0.1115    0.8153 C   0  0  0  0  0  0  0  0  0  0  0  0
    0.7125    1.4237    1.2527 C   0  0  0  0  0  0  0  0  0  0  0  0
   -0.3906    2.1210    1.7460 C   0  0  0  0  0  0  0  0  0  0  0  0
   -1.6232    1.4855    1.7980 C   0  0  0  0  0  0  0  0  0  0  0  0
   -1.7564    0.1574    1.3595 C   0  0  0  0  0  0  0  0  0  0  0  0
   -0.7179   -1.5556    0.5280 H   0  0  0  0  0  0  0  0  0  0  0  0
    1.4750   -0.4068    0.4391 H   0  0  0  0  0  0  0  0  0  0  0  0
   -0.2753    3.1461    2.0781 H   0  0  0  0  0  0  0  0  0  0  0  0
   -2.5023    1.9969    2.1745 H   0  0  0  0  0  0  0  0  0  0  0  0
   13.9995    0.5628   -5.3846 N   0  0  0  0  0  0  0  0  0  0  0  0
   12.9577    0.4550   -5.0315 N   0  0  0  0  0  0  0  0  0  0  0  0
   -3.0086   -0.3695    1.4545 O   0  0  0  0  0  0  0  0  0  0  0  0
   -3.2161   -1.7014    1.0074 C   0  0  0  0  0  0  0  0  0  0  0  0
   -4.2756   -1.9087    1.1634 H   0  0  0  0  0  0  0  0  0  0  0  0
   -2.6200   -2.4194    1.5843 H   0  0  0  0  0  0  0  0  0  0  0  0
   -2.9791   -1.8105   -0.0587 H   0  0  0  0  0  0  0  0  0  0  0  0
    2.4102    2.9966    0.0163 S   0  0  0  0  0  0  0  0  0  0  0  0
    1.9863    2.0324    1.2723 O   0  0  0  0  0  0  0  0  0  0  0  0
    1.2766    3.7813   -0.4167 O   0  0  0  0  0  0  0  0  0  0  0  0
    3.6848    3.5630    0.4089 O   0  0  0  0  0  0  0  0  0  0  0  0
    2.6776    1.9007   -1.1618 O   0  0  0  0  0  0  0  0  0  0  0  0
    3.6089    1.6296   -1.0925 H   0  0  0  0  0  0  0  0  0  0  0  0
  1  6  1  0  0  0  0
  2  1  2  0  0  0  0
  2  3  1  0  0  0  0
  3 19  1  0  0  0  0
  3  4  2  0  0  0  0
  4  5  1  0  0  0  0
  4  9  1  0  0  0  0
  5 10  1  0  0  0  0
  6 13  1  0  0  0  0
  6  5  2  0  0  0  0
  7  1  1  0  0  0  0
  8  2  1  0  0  0  0
 11 12  3  0  0  0  0
 14 15  1  0  0  0  0
 14 13  1  0  0  0  0
 14 16  1  0  0  0  0
 17 14  1  0  0  0  0
 18 21  2  0  0  0  0
 18 19  1  0  0  0  0
 20 18  2  0  0  0  0
 22 23  1  0  0  0  0
 22 18  1  0  0  0  0
M  END
