Coordinates from ORCA-job 4-MeO-Ph-N2-HSO4-B3LYPG-6-31G_dp-MTMO-d009-169-n800
 OpenBabel09051907533D

 23 22  0  0  0  0  0  0  0  0999 V2000
   -0.4035   -0.5384    0.7650 C   0  0  0  0  0  0  0  0  0  0  0  0
    0.8418    0.0925    0.7068 C   0  0  0  0  0  0  0  0  0  0  0  0
    0.9663    1.4061    1.1367 C   0  0  0  0  0  0  0  0  0  0  0  0
   -0.1300    2.1161    1.6269 C   0  0  0  0  0  0  0  0  0  0  0  0
   -1.3682    1.4921    1.6837 C   0  0  0  0  0  0  0  0  0  0  0  0
   -1.5138    0.1628    1.2532 C   0  0  0  0  0  0  0  0  0  0  0  0
   -0.4918   -1.5643    0.4304 H   0  0  0  0  0  0  0  0  0  0  0  0
    1.7115   -0.4359    0.3328 H   0  0  0  0  0  0  0  0  0  0  0  0
   -0.0051    3.1420    1.9530 H   0  0  0  0  0  0  0  0  0  0  0  0
   -2.2423    2.0136    2.0580 H   0  0  0  0  0  0  0  0  0  0  0  0
   11.3988    0.6761   -4.2275 N   0  0  0  0  0  0  0  0  0  0  0  0
   10.3576    0.5759   -3.8706 N   0  0  0  0  0  0  0  0  0  0  0  0
   -2.7705   -0.3524    1.3527 O   0  0  0  0  0  0  0  0  0  0  0  0
   -2.9902   -1.6853    0.9146 C   0  0  0  0  0  0  0  0  0  0  0  0
   -4.0512   -1.8826    1.0740 H   0  0  0  0  0  0  0  0  0  0  0  0
   -2.3992   -2.4047    1.4950 H   0  0  0  0  0  0  0  0  0  0  0  0
   -2.7562   -1.8033   -0.1512 H   0  0  0  0  0  0  0  0  0  0  0  0
    2.6772    2.9573   -0.1093 S   0  0  0  0  0  0  0  0  0  0  0  0
    2.2455    2.0033    1.1520 O   0  0  0  0  0  0  0  0  0  0  0  0
    1.5494    3.7473   -0.5479 O   0  0  0  0  0  0  0  0  0  0  0  0
    3.9552    3.5172    0.2813 O   0  0  0  0  0  0  0  0  0  0  0  0
    2.9377    1.8530   -1.2809 O   0  0  0  0  0  0  0  0  0  0  0  0
    3.8659    1.5725   -1.2076 H   0  0  0  0  0  0  0  0  0  0  0  0
  1  6  1  0  0  0  0
  2  1  2  0  0  0  0
  2  3  1  0  0  0  0
  3 19  1  0  0  0  0
  3  4  2  0  0  0  0
  4  5  1  0  0  0  0
  4  9  1  0  0  0  0
  5 10  1  0  0  0  0
  6 13  1  0  0  0  0
  6  5  2  0  0  0  0
  7  1  1  0  0  0  0
  8  2  1  0  0  0  0
 11 12  3  0  0  0  0
 14 15  1  0  0  0  0
 14 13  1  0  0  0  0
 14 16  1  0  0  0  0
 17 14  1  0  0  0  0
 18 21  2  0  0  0  0
 18 19  1  0  0  0  0
 20 18  2  0  0  0  0
 22 23  1  0  0  0  0
 22 18  1  0  0  0  0
M  END
