Coordinates from ORCA-job 4-MeO-Ph-N2-HSO4-B3LYPG-6-31G_dp-MTMO-d009-169-n800
 OpenBabel09051907533D

 23 22  0  0  0  0  0  0  0  0999 V2000
   -0.1410   -0.3666    1.1780 C   0  0  0  0  0  0  0  0  0  0  0  0
    1.2127   -0.0200    1.1646 C   0  0  0  0  0  0  0  0  0  0  0  0
    1.6274    1.0918    0.4453 C   0  0  0  0  0  0  0  0  0  0  0  0
    0.7209    1.8753   -0.2690 C   0  0  0  0  0  0  0  0  0  0  0  0
   -0.6238    1.5329   -0.2562 C   0  0  0  0  0  0  0  0  0  0  0  0
   -1.0635    0.4105    0.4655 C   0  0  0  0  0  0  0  0  0  0  0  0
   -0.4580   -1.2355    1.7416 H   0  0  0  0  0  0  0  0  0  0  0  0
    1.9391   -0.6110    1.7108 H   0  0  0  0  0  0  0  0  0  0  0  0
    1.0765    2.7388   -0.8196 H   0  0  0  0  0  0  0  0  0  0  0  0
   -1.3572    2.1195   -0.7984 H   0  0  0  0  0  0  0  0  0  0  0  0
    3.6483    4.6288   -0.6724 N   0  0  0  0  0  0  0  0  0  0  0  0
    4.4896    5.2183   -0.2655 N   0  0  0  0  0  0  0  0  0  0  0  0
   -2.4021    0.1657    0.4114 O   0  0  0  0  0  0  0  0  0  0  0  0
   -2.9127   -0.9559    1.1161 C   0  0  0  0  0  0  0  0  0  0  0  0
   -3.9890   -0.9591    0.9366 H   0  0  0  0  0  0  0  0  0  0  0  0
   -2.7263   -0.8747    2.1951 H   0  0  0  0  0  0  0  0  0  0  0  0
   -2.4831   -1.8955    0.7466 H   0  0  0  0  0  0  0  0  0  0  0  0
    4.0042    0.9363   -0.6545 S   0  0  0  0  0  0  0  0  0  0  0  0
    2.9819    1.4876    0.5010 O   0  0  0  0  0  0  0  0  0  0  0  0
    3.3186    0.8216   -1.9210 O   0  0  0  0  0  0  0  0  0  0  0  0
    5.2204    1.7002   -0.4568 O   0  0  0  0  0  0  0  0  0  0  0  0
    4.2755   -0.5910   -0.1475 O   0  0  0  0  0  0  0  0  0  0  0  0
    5.0266   -0.5572    0.4693 H   0  0  0  0  0  0  0  0  0  0  0  0
  1  7  1  0  0  0  0
  2  1  1  0  0  0  0
  2  8  1  0  0  0  0
  3 19  1  0  0  0  0
  3  2  2  0  0  0  0
  4  5  2  0  0  0  0
  4  3  1  0  0  0  0
  5  6  1  0  0  0  0
  6  1  2  0  0  0  0
  9  4  1  0  0  0  0
 10  5  1  0  0  0  0
 11 12  3  0  0  0  0
 13  6  1  0  0  0  0
 13 14  1  0  0  0  0
 14 16  1  0  0  0  0
 15 14  1  0  0  0  0
 17 14  1  0  0  0  0
 18 21  2  0  0  0  0
 18 22  1  0  0  0  0
 18 19  1  0  0  0  0
 20 18  2  0  0  0  0
 22 23  1  0  0  0  0
M  END
