Coordinates from ORCA-job 4-MeO-Ph-N2-HSO4-B3LYPG-6-31G_dp-MTMO-d009-169-n800
 OpenBabel09051907533D

 23 22  0  0  0  0  0  0  0  0999 V2000
   -0.1574   -0.5583    1.1226 C   0  0  0  0  0  0  0  0  0  0  0  0
    1.2114   -0.3171    1.2667 C   0  0  0  0  0  0  0  0  0  0  0  0
    1.7287    0.9246    0.9259 C   0  0  0  0  0  0  0  0  0  0  0  0
    0.9106    1.9437    0.4363 C   0  0  0  0  0  0  0  0  0  0  0  0
   -0.4480    1.7036    0.2876 C   0  0  0  0  0  0  0  0  0  0  0  0
   -0.9912    0.4534    0.6289 C   0  0  0  0  0  0  0  0  0  0  0  0
   -0.5544   -1.5275    1.3972 H   0  0  0  0  0  0  0  0  0  0  0  0
    1.8712   -1.0884    1.6480 H   0  0  0  0  0  0  0  0  0  0  0  0
    1.3413    2.9022    0.1707 H   0  0  0  0  0  0  0  0  0  0  0  0
   -1.1142    2.4710   -0.0910 H   0  0  0  0  0  0  0  0  0  0  0  0
    3.0999    4.9221   -1.9383 N   0  0  0  0  0  0  0  0  0  0  0  0
    3.8443    4.9035   -2.7547 N   0  0  0  0  0  0  0  0  0  0  0  0
   -2.3347    0.3277    0.4456 O   0  0  0  0  0  0  0  0  0  0  0  0
   -2.9460   -0.9148    0.7603 C   0  0  0  0  0  0  0  0  0  0  0  0
   -4.0050   -0.7960    0.5265 H   0  0  0  0  0  0  0  0  0  0  0  0
   -2.8359   -1.1611    1.8239 H   0  0  0  0  0  0  0  0  0  0  0  0
   -2.5331   -1.7329    0.1568 H   0  0  0  0  0  0  0  0  0  0  0  0
    4.1380    1.1170   -0.1014 S   0  0  0  0  0  0  0  0  0  0  0  0
    3.0984    1.1761    1.1622 O   0  0  0  0  0  0  0  0  0  0  0  0
    3.5400    1.7154   -1.2738 O   0  0  0  0  0  0  0  0  0  0  0  0
    5.4092    1.5329    0.4560 O   0  0  0  0  0  0  0  0  0  0  0  0
    4.2044   -0.4848   -0.3990 O   0  0  0  0  0  0  0  0  0  0  0  0
    4.9074   -0.8515    0.1641 H   0  0  0  0  0  0  0  0  0  0  0  0
  1  2  1  0  0  0  0
  1  7  1  0  0  0  0
  2  8  1  0  0  0  0
  3 19  1  0  0  0  0
  3  2  2  0  0  0  0
  4  3  1  0  0  0  0
  5  4  2  0  0  0  0
  5  6  1  0  0  0  0
  6  1  2  0  0  0  0
  9  4  1  0  0  0  0
 10  5  1  0  0  0  0
 12 11  3  0  0  0  0
 13  6  1  0  0  0  0
 13 14  1  0  0  0  0
 14 16  1  0  0  0  0
 15 14  1  0  0  0  0
 17 14  1  0  0  0  0
 18 21  2  0  0  0  0
 18 19  1  0  0  0  0
 20 18  2  0  0  0  0
 22 18  1  0  0  0  0
 22 23  1  0  0  0  0
M  END
