Coordinates from ORCA-job 4-MeO-Ph-N2-HSO4-B3LYPG-6-31G_dp-MTMO-d009-169-n800
 OpenBabel09051907533D

 23 22  0  0  0  0  0  0  0  0999 V2000
   -0.1885   -0.6617    0.9789 C   0  0  0  0  0  0  0  0  0  0  0  0
    1.1550   -0.2839    1.0468 C   0  0  0  0  0  0  0  0  0  0  0  0
    1.4924    1.0618    1.0086 C   0  0  0  0  0  0  0  0  0  0  0  0
    0.5155    2.0519    0.9004 C   0  0  0  0  0  0  0  0  0  0  0  0
   -0.8192    1.6786    0.8293 C   0  0  0  0  0  0  0  0  0  0  0  0
   -1.1804    0.3212    0.8683 C   0  0  0  0  0  0  0  0  0  0  0  0
   -0.4439   -1.7135    1.0144 H   0  0  0  0  0  0  0  0  0  0  0  0
    1.9352   -1.0317    1.1357 H   0  0  0  0  0  0  0  0  0  0  0  0
    0.8068    3.0956    0.8686 H   0  0  0  0  0  0  0  0  0  0  0  0
   -1.6050    2.4211    0.7432 H   0  0  0  0  0  0  0  0  0  0  0  0
    5.5462    4.3526   -2.8409 N   0  0  0  0  0  0  0  0  0  0  0  0
    5.6774    3.2558   -2.8131 N   0  0  0  0  0  0  0  0  0  0  0  0
   -2.5164    0.0669    0.7958 O   0  0  0  0  0  0  0  0  0  0  0  0
   -2.9486   -1.2848    0.8223 C   0  0  0  0  0  0  0  0  0  0  0  0
   -4.0369   -1.2543    0.7522 H   0  0  0  0  0  0  0  0  0  0  0  0
   -2.6608   -1.7830    1.7575 H   0  0  0  0  0  0  0  0  0  0  0  0
   -2.5477   -1.8538   -0.0266 H   0  0  0  0  0  0  0  0  0  0  0  0
    3.7246    1.7805   -0.1697 S   0  0  0  0  0  0  0  0  0  0  0  0
    2.8461    1.4299    1.1680 O   0  0  0  0  0  0  0  0  0  0  0  0
    2.9172    2.5127   -1.1191 O   0  0  0  0  0  0  0  0  0  0  0  0
    4.9944    2.2537    0.3440 O   0  0  0  0  0  0  0  0  0  0  0  0
    3.9501    0.2997   -0.8127 O   0  0  0  0  0  0  0  0  0  0  0  0
    4.7713   -0.0547   -0.4311 H   0  0  0  0  0  0  0  0  0  0  0  0
  1  7  1  0  0  0  0
  1  2  2  0  0  0  0
  2  8  1  0  0  0  0
  3  2  1  0  0  0  0
  3 19  1  0  0  0  0
  4  3  2  0  0  0  0
  5  6  2  0  0  0  0
  5  4  1  0  0  0  0
  6  1  1  0  0  0  0
  9  4  1  0  0  0  0
 10  5  1  0  0  0  0
 11 12  3  0  0  0  0
 13 14  1  0  0  0  0
 13  6  1  0  0  0  0
 14 16  1  0  0  0  0
 15 14  1  0  0  0  0
 17 14  1  0  0  0  0
 18 21  2  0  0  0  0
 18 19  1  0  0  0  0
 20 18  2  0  0  0  0
 22 23  1  0  0  0  0
 22 18  1  0  0  0  0
M  END
