Coordinates from ORCA-job 4-MeO-Ph-N2-HSO4-B3LYPG-6-31G_dp-MTMO-d009-169-n800
 OpenBabel09051907533D

 23 22  0  0  0  0  0  0  0  0999 V2000
    0.0425   -0.1790    0.2716 C   0  0  0  0  0  0  0  0  0  0  0  0
    1.4168    0.0795    0.2120 C   0  0  0  0  0  0  0  0  0  0  0  0
    1.8878    1.3293    0.5924 C   0  0  0  0  0  0  0  0  0  0  0  0
    1.0176    2.3077    1.0794 C   0  0  0  0  0  0  0  0  0  0  0  0
   -0.3423    2.0459    1.1429 C   0  0  0  0  0  0  0  0  0  0  0  0
   -0.8436    0.7992    0.7338 C   0  0  0  0  0  0  0  0  0  0  0  0
   -0.3148   -1.1509   -0.0449 H   0  0  0  0  0  0  0  0  0  0  0  0
    2.0860   -0.6871   -0.1548 H   0  0  0  0  0  0  0  0  0  0  0  0
    1.4183    3.2665    1.3893 H   0  0  0  0  0  0  0  0  0  0  0  0
   -1.0388    2.7936    1.5063 H   0  0  0  0  0  0  0  0  0  0  0  0
    1.8297    2.3823   -1.8302 N   0  0  0  0  0  0  0  0  0  0  0  0
    0.9880    2.3574   -2.5475 N   0  0  0  0  0  0  0  0  0  0  0  0
   -2.1944    0.6442    0.8311 O   0  0  0  0  0  0  0  0  0  0  0  0
   -2.7587   -0.5948    0.4283 C   0  0  0  0  0  0  0  0  0  0  0  0
   -3.8340   -0.5019    0.5895 H   0  0  0  0  0  0  0  0  0  0  0  0
   -2.3753   -1.4289    1.0299 H   0  0  0  0  0  0  0  0  0  0  0  0
   -2.5682   -0.7996   -0.6328 H   0  0  0  0  0  0  0  0  0  0  0  0
    4.4561    0.8515   -0.0326 S   0  0  0  0  0  0  0  0  0  0  0  0
    3.2462    1.7090    0.6350 O   0  0  0  0  0  0  0  0  0  0  0  0
    4.0681    0.2868   -1.3046 O   0  0  0  0  0  0  0  0  0  0  0  0
    5.6196    1.6905    0.1561 O   0  0  0  0  0  0  0  0  0  0  0  0
    4.5484   -0.4150    0.9884 O   0  0  0  0  0  0  0  0  0  0  0  0
    5.0296   -0.1257    1.7825 H   0  0  0  0  0  0  0  0  0  0  0  0
  1  6  1  0  0  0  0
  2  1  2  0  0  0  0
  2  3  1  0  0  0  0
  3 19  1  0  0  0  0
  3  4  2  0  0  0  0
  4  5  1  0  0  0  0
  4  9  1  0  0  0  0
  5 10  1  0  0  0  0
  6 13  1  0  0  0  0
  6  5  2  0  0  0  0
  7  1  1  0  0  0  0
  8  2  1  0  0  0  0
 12 11  3  0  0  0  0
 14 15  1  0  0  0  0
 14 13  1  0  0  0  0
 14 16  1  0  0  0  0
 17 14  1  0  0  0  0
 18 21  2  0  0  0  0
 18 19  1  0  0  0  0
 18 22  1  0  0  0  0
 20 18  2  0  0  0  0
 22 23  1  0  0  0  0
M  END
