Coordinates from ORCA-job 4-MeO-Ph-N2-HSO4-B3LYPG-6-31G_dp-MTMO-d009-169-n800
 OpenBabel09051907533D

 23 22  0  0  0  0  0  0  0  0999 V2000
   -0.6055   -0.5314    0.8541 C   0  0  0  0  0  0  0  0  0  0  0  0
    0.6340    0.1113    0.8011 C   0  0  0  0  0  0  0  0  0  0  0  0
    0.7459    1.4236    1.2383 C   0  0  0  0  0  0  0  0  0  0  0  0
   -0.3575    2.1207    1.7311 C   0  0  0  0  0  0  0  0  0  0  0  0
   -1.5900    1.4850    1.7827 C   0  0  0  0  0  0  0  0  0  0  0  0
   -1.7229    0.1568    1.3445 C   0  0  0  0  0  0  0  0  0  0  0  0
   -0.6838   -1.5562    0.5137 H   0  0  0  0  0  0  0  0  0  0  0  0
    1.5090   -0.4070    0.4253 H   0  0  0  0  0  0  0  0  0  0  0  0
   -0.2425    3.1459    2.0630 H   0  0  0  0  0  0  0  0  0  0  0  0
   -2.4694    1.9963    2.1588 H   0  0  0  0  0  0  0  0  0  0  0  0
   13.6462    0.5675   -5.2310 N   0  0  0  0  0  0  0  0  0  0  0  0
   12.6045    0.4595   -4.8775 N   0  0  0  0  0  0  0  0  0  0  0  0
   -2.9749   -0.3703    1.4391 O   0  0  0  0  0  0  0  0  0  0  0  0
   -3.1820   -1.7023    0.9923 C   0  0  0  0  0  0  0  0  0  0  0  0
   -4.2416   -1.9098    1.1480 H   0  0  0  0  0  0  0  0  0  0  0  0
   -2.5861   -2.4201    1.5695 H   0  0  0  0  0  0  0  0  0  0  0  0
   -2.9447   -1.8116   -0.0737 H   0  0  0  0  0  0  0  0  0  0  0  0
    2.4438    2.9964    0.0022 S   0  0  0  0  0  0  0  0  0  0  0  0
    2.0195    2.0325    1.2582 O   0  0  0  0  0  0  0  0  0  0  0  0
    1.3102    3.7810   -0.4313 O   0  0  0  0  0  0  0  0  0  0  0  0
    3.7182    3.5630    0.3950 O   0  0  0  0  0  0  0  0  0  0  0  0
    2.7115    1.9003   -1.1757 O   0  0  0  0  0  0  0  0  0  0  0  0
    3.6429    1.6297   -1.1064 H   0  0  0  0  0  0  0  0  0  0  0  0
  1  6  1  0  0  0  0
  2  1  2  0  0  0  0
  2  3  1  0  0  0  0
  3 19  1  0  0  0  0
  3  4  2  0  0  0  0
  4  5  1  0  0  0  0
  4  9  1  0  0  0  0
  5 10  1  0  0  0  0
  6 13  1  0  0  0  0
  6  5  2  0  0  0  0
  7  1  1  0  0  0  0
  8  2  1  0  0  0  0
 11 12  3  0  0  0  0
 14 15  1  0  0  0  0
 14 13  1  0  0  0  0
 14 16  1  0  0  0  0
 17 14  1  0  0  0  0
 18 21  2  0  0  0  0
 18 19  1  0  0  0  0
 20 18  2  0  0  0  0
 22 23  1  0  0  0  0
 22 18  1  0  0  0  0
M  END
