Coordinates from ORCA-job 4-MeO-Ph-N2-HSO4-B3LYPG-6-31G_dp-MTMO-d009-169-n800
 OpenBabel09051907533D

 23 22  0  0  0  0  0  0  0  0999 V2000
   -0.3337   -0.5429    0.7342 C   0  0  0  0  0  0  0  0  0  0  0  0
    0.9165    0.0779    0.6722 C   0  0  0  0  0  0  0  0  0  0  0  0
    1.0515    1.3926    1.0956 C   0  0  0  0  0  0  0  0  0  0  0  0
   -0.0389    2.1136    1.5828 C   0  0  0  0  0  0  0  0  0  0  0  0
   -1.2820    1.4997    1.6434 C   0  0  0  0  0  0  0  0  0  0  0  0
   -1.4382    0.1694    1.2196 C   0  0  0  0  0  0  0  0  0  0  0  0
   -0.4304   -1.5697    0.4049 H   0  0  0  0  0  0  0  0  0  0  0  0
    1.7818   -0.4592    0.3004 H   0  0  0  0  0  0  0  0  0  0  0  0
    0.0943    3.1401    1.9038 H   0  0  0  0  0  0  0  0  0  0  0  0
   -2.1517    2.0300    2.0156 H   0  0  0  0  0  0  0  0  0  0  0  0
   10.5567    0.7526   -3.8464 N   0  0  0  0  0  0  0  0  0  0  0  0
    9.5158    0.6599   -3.4864 N   0  0  0  0  0  0  0  0  0  0  0  0
   -2.6988   -0.3355    1.3228 O   0  0  0  0  0  0  0  0  0  0  0  0
   -2.9290   -1.6692    0.8927 C   0  0  0  0  0  0  0  0  0  0  0  0
   -3.9912   -1.8577    1.0548 H   0  0  0  0  0  0  0  0  0  0  0  0
   -2.3425   -2.3896    1.4765 H   0  0  0  0  0  0  0  0  0  0  0  0
   -2.6975   -1.7952   -0.1727 H   0  0  0  0  0  0  0  0  0  0  0  0
    2.7741    2.9248   -0.1580 S   0  0  0  0  0  0  0  0  0  0  0  0
    2.3354    1.9797    1.1076 O   0  0  0  0  0  0  0  0  0  0  0  0
    1.6514    3.7190   -0.6019 O   0  0  0  0  0  0  0  0  0  0  0  0
    4.0549    3.4793    0.2314 O   0  0  0  0  0  0  0  0  0  0  0  0
    3.0297    1.8131   -1.3237 O   0  0  0  0  0  0  0  0  0  0  0  0
    3.9565    1.5282   -1.2484 H   0  0  0  0  0  0  0  0  0  0  0  0
  1  6  1  0  0  0  0
  2  1  2  0  0  0  0
  2  3  1  0  0  0  0
  3 19  1  0  0  0  0
  3  4  2  0  0  0  0
  4  5  1  0  0  0  0
  4  9  1  0  0  0  0
  5 10  1  0  0  0  0
  6 13  1  0  0  0  0
  6  5  2  0  0  0  0
  7  1  1  0  0  0  0
  8  2  1  0  0  0  0
 11 12  3  0  0  0  0
 14 15  1  0  0  0  0
 14 13  1  0  0  0  0
 14 16  1  0  0  0  0
 17 14  1  0  0  0  0
 18 21  2  0  0  0  0
 18 19  1  0  0  0  0
 20 18  2  0  0  0  0
 22 23  1  0  0  0  0
 22 18  1  0  0  0  0
M  END
