Coordinates from ORCA-job 4-MeO-Ph-N2-HSO4-B3LYPG-6-31G_dp-MTMO-d009-169-n800
 OpenBabel09051907533D

 23 22  0  0  0  0  0  0  0  0999 V2000
   -0.2422   -0.5507    0.7011 C   0  0  0  0  0  0  0  0  0  0  0  0
    1.0159    0.0540    0.6391 C   0  0  0  0  0  0  0  0  0  0  0  0
    1.1641    1.3726    1.0454 C   0  0  0  0  0  0  0  0  0  0  0  0
    0.0792    2.1137    1.5146 C   0  0  0  0  0  0  0  0  0  0  0  0
   -1.1716    1.5158    1.5748 C   0  0  0  0  0  0  0  0  0  0  0  0
   -1.3411    0.1816    1.1689 C   0  0  0  0  0  0  0  0  0  0  0  0
   -0.3493   -1.5808    0.3854 H   0  0  0  0  0  0  0  0  0  0  0  0
    1.8771   -0.4987    0.2807 H   0  0  0  0  0  0  0  0  0  0  0  0
    0.2229    3.1429    1.8222 H   0  0  0  0  0  0  0  0  0  0  0  0
   -2.0373    2.0619    1.9335 H   0  0  0  0  0  0  0  0  0  0  0  0
    9.4160    0.8731   -3.3665 N   0  0  0  0  0  0  0  0  0  0  0  0
    8.3790    0.8051   -2.9901 N   0  0  0  0  0  0  0  0  0  0  0  0
   -2.6084   -0.3065    1.2710 O   0  0  0  0  0  0  0  0  0  0  0  0
   -2.8515   -1.6443    0.8609 C   0  0  0  0  0  0  0  0  0  0  0  0
   -3.9166   -1.8182    1.0202 H   0  0  0  0  0  0  0  0  0  0  0  0
   -2.2762   -2.3618    1.4592 H   0  0  0  0  0  0  0  0  0  0  0  0
   -2.6158   -1.7899   -0.2010 H   0  0  0  0  0  0  0  0  0  0  0  0
    2.9143    2.8685   -0.2147 S   0  0  0  0  0  0  0  0  0  0  0  0
    2.4552    1.9438    1.0588 O   0  0  0  0  0  0  0  0  0  0  0  0
    1.8022    3.6654   -0.6801 O   0  0  0  0  0  0  0  0  0  0  0  0
    4.1953    3.4187    0.1805 O   0  0  0  0  0  0  0  0  0  0  0  0
    3.1737    1.7400   -1.3630 O   0  0  0  0  0  0  0  0  0  0  0  0
    4.0997    1.4547   -1.2796 H   0  0  0  0  0  0  0  0  0  0  0  0
  1  6  1  0  0  0  0
  2  1  2  0  0  0  0
  2  3  1  0  0  0  0
  3 19  1  0  0  0  0
  3  4  2  0  0  0  0
  4  5  1  0  0  0  0
  4  9  1  0  0  0  0
  5 10  1  0  0  0  0
  6 13  1  0  0  0  0
  6  5  2  0  0  0  0
  7  1  1  0  0  0  0
  8  2  1  0  0  0  0
 11 12  3  0  0  0  0
 14 15  1  0  0  0  0
 14 13  1  0  0  0  0
 14 16  1  0  0  0  0
 17 14  1  0  0  0  0
 18 21  2  0  0  0  0
 18 19  1  0  0  0  0
 20 18  2  0  0  0  0
 22 23  1  0  0  0  0
 22 18  1  0  0  0  0
M  END
