Coordinates from ORCA-job 4-MeO-Ph-N2-HSO4-B3LYPG-6-31G_dp-MTMO-d009-169-n800
 OpenBabel09051907533D

 23 22  0  0  0  0  0  0  0  0999 V2000
   -0.1705   -0.5992    1.0882 C   0  0  0  0  0  0  0  0  0  0  0  0
    1.1953   -0.3353    1.2200 C   0  0  0  0  0  0  0  0  0  0  0  0
    1.6746    0.9422    0.9667 C   0  0  0  0  0  0  0  0  0  0  0  0
    0.8205    1.9747    0.5780 C   0  0  0  0  0  0  0  0  0  0  0  0
   -0.5356    1.7133    0.4425 C   0  0  0  0  0  0  0  0  0  0  0  0
   -1.0402    0.4265    0.6959 C   0  0  0  0  0  0  0  0  0  0  0  0
   -0.5374   -1.5969    1.2941 H   0  0  0  0  0  0  0  0  0  0  0  0
    1.8824   -1.1171    1.5233 H   0  0  0  0  0  0  0  0  0  0  0  0
    1.2222    2.9620    0.3812 H   0  0  0  0  0  0  0  0  0  0  0  0
   -1.2288    2.4907    0.1411 H   0  0  0  0  0  0  0  0  0  0  0  0
    3.6260    4.9968   -2.2059 N   0  0  0  0  0  0  0  0  0  0  0  0
    4.3038    4.6211   -2.9938 N   0  0  0  0  0  0  0  0  0  0  0  0
   -2.3846    0.2814    0.5345 O   0  0  0  0  0  0  0  0  0  0  0  0
   -2.9584   -0.9969    0.7642 C   0  0  0  0  0  0  0  0  0  0  0  0
   -4.0258   -0.8867    0.5667 H   0  0  0  0  0  0  0  0  0  0  0  0
   -2.8149   -1.3235    1.8021 H   0  0  0  0  0  0  0  0  0  0  0  0
   -2.5428   -1.7543    0.0874 H   0  0  0  0  0  0  0  0  0  0  0  0
    4.0572    1.2272   -0.0971 S   0  0  0  0  0  0  0  0  0  0  0  0
    3.0429    1.2128    1.1887 O   0  0  0  0  0  0  0  0  0  0  0  0
    3.4164    1.8477   -1.2348 O   0  0  0  0  0  0  0  0  0  0  0  0
    5.3282    1.6597    0.4481 O   0  0  0  0  0  0  0  0  0  0  0  0
    4.1628   -0.3612   -0.4509 O   0  0  0  0  0  0  0  0  0  0  0  0
    4.8915   -0.7244    0.0808 H   0  0  0  0  0  0  0  0  0  0  0  0
  1  2  1  0  0  0  0
  1  7  1  0  0  0  0
  2  8  1  0  0  0  0
  3 19  1  0  0  0  0
  3  2  2  0  0  0  0
  4  3  1  0  0  0  0
  5  4  2  0  0  0  0
  5  6  1  0  0  0  0
  6  1  2  0  0  0  0
  9  4  1  0  0  0  0
 10  5  1  0  0  0  0
 12 11  3  0  0  0  0
 13  6  1  0  0  0  0
 13 14  1  0  0  0  0
 14 16  1  0  0  0  0
 15 14  1  0  0  0  0
 17 14  1  0  0  0  0
 18 21  2  0  0  0  0
 18 19  1  0  0  0  0
 20 18  2  0  0  0  0
 22 18  1  0  0  0  0
 22 23  1  0  0  0  0
M  END
