Coordinates from ORCA-job 4-MeO-Ph-N2-HSO4-B3LYPG-6-31G_dp-MTMO-d009-169-n800
 OpenBabel09051907533D

 23 22  0  0  0  0  0  0  0  0999 V2000
   -0.3323   -0.5430    0.7337 C   0  0  0  0  0  0  0  0  0  0  0  0
    0.9179    0.0776    0.6716 C   0  0  0  0  0  0  0  0  0  0  0  0
    1.0532    1.3923    1.0949 C   0  0  0  0  0  0  0  0  0  0  0  0
   -0.0372    2.1136    1.5819 C   0  0  0  0  0  0  0  0  0  0  0  0
   -1.2803    1.4998    1.6425 C   0  0  0  0  0  0  0  0  0  0  0  0
   -1.4367    0.1695    1.2189 C   0  0  0  0  0  0  0  0  0  0  0  0
   -0.4292   -1.5699    0.4045 H   0  0  0  0  0  0  0  0  0  0  0  0
    1.7831   -0.4597    0.2998 H   0  0  0  0  0  0  0  0  0  0  0  0
    0.0963    3.1401    1.9027 H   0  0  0  0  0  0  0  0  0  0  0  0
   -2.1500    2.0303    2.0146 H   0  0  0  0  0  0  0  0  0  0  0  0
   10.5401    0.7541   -3.8390 N   0  0  0  0  0  0  0  0  0  0  0  0
    9.4993    0.6617   -3.4789 N   0  0  0  0  0  0  0  0  0  0  0  0
   -2.6974   -0.3351    1.3222 O   0  0  0  0  0  0  0  0  0  0  0  0
   -2.9278   -1.6689    0.8923 C   0  0  0  0  0  0  0  0  0  0  0  0
   -3.9901   -1.8572    1.0544 H   0  0  0  0  0  0  0  0  0  0  0  0
   -2.3414   -2.3893    1.4761 H   0  0  0  0  0  0  0  0  0  0  0  0
   -2.6963   -1.7950   -0.1731 H   0  0  0  0  0  0  0  0  0  0  0  0
    2.7761    2.9241   -0.1589 S   0  0  0  0  0  0  0  0  0  0  0  0
    2.3372    1.9792    1.1068 O   0  0  0  0  0  0  0  0  0  0  0  0
    1.6535    3.7184   -0.6030 O   0  0  0  0  0  0  0  0  0  0  0  0
    4.0569    3.4785    0.2305 O   0  0  0  0  0  0  0  0  0  0  0  0
    3.0316    1.8122   -1.3244 O   0  0  0  0  0  0  0  0  0  0  0  0
    3.9583    1.5273   -1.2491 H   0  0  0  0  0  0  0  0  0  0  0  0
  1  6  1  0  0  0  0
  2  1  2  0  0  0  0
  2  3  1  0  0  0  0
  3 19  1  0  0  0  0
  3  4  2  0  0  0  0
  4  5  1  0  0  0  0
  4  9  1  0  0  0  0
  5 10  1  0  0  0  0
  6 13  1  0  0  0  0
  6  5  2  0  0  0  0
  7  1  1  0  0  0  0
  8  2  1  0  0  0  0
 11 12  3  0  0  0  0
 14 15  1  0  0  0  0
 14 13  1  0  0  0  0
 14 16  1  0  0  0  0
 17 14  1  0  0  0  0
 18 21  2  0  0  0  0
 18 19  1  0  0  0  0
 20 18  2  0  0  0  0
 22 23  1  0  0  0  0
 22 18  1  0  0  0  0
M  END
