Coordinates from ORCA-job 4-MeO-Ph-N2-HSO4-B3LYPG-6-31G_dp-MTMO-d009-169-n800
 OpenBabel09051907533D

 23 22  0  0  0  0  0  0  0  0999 V2000
   -0.1639   -0.5810    1.1073 C   0  0  0  0  0  0  0  0  0  0  0  0
    1.2038   -0.3335    1.2500 C   0  0  0  0  0  0  0  0  0  0  0  0
    1.7076    0.9254    0.9549 C   0  0  0  0  0  0  0  0  0  0  0  0
    0.8765    1.9556    0.5131 C   0  0  0  0  0  0  0  0  0  0  0  0
   -0.4813    1.7099    0.3660 C   0  0  0  0  0  0  0  0  0  0  0  0
   -1.0107    0.4421    0.6612 C   0  0  0  0  0  0  0  0  0  0  0  0
   -0.5502   -1.5639    1.3462 H   0  0  0  0  0  0  0  0  0  0  0  0
    1.8735   -1.1134    1.5945 H   0  0  0  0  0  0  0  0  0  0  0  0
    1.2968    2.9279    0.2834 H   0  0  0  0  0  0  0  0  0  0  0  0
   -1.1571    2.4857    0.0236 H   0  0  0  0  0  0  0  0  0  0  0  0
    3.2980    4.9564   -2.1061 N   0  0  0  0  0  0  0  0  0  0  0  0
    4.0396    4.8207   -2.9142 N   0  0  0  0  0  0  0  0  0  0  0  0
   -2.3545    0.3117    0.4839 O   0  0  0  0  0  0  0  0  0  0  0  0
   -2.9525   -0.9475    0.7538 C   0  0  0  0  0  0  0  0  0  0  0  0
   -4.0145   -0.8290    0.5336 H   0  0  0  0  0  0  0  0  0  0  0  0
   -2.8315   -1.2348    1.8060 H   0  0  0  0  0  0  0  0  0  0  0  0
   -2.5378   -1.7375    0.1150 H   0  0  0  0  0  0  0  0  0  0  0  0
    4.1075    1.1620   -0.0836 S   0  0  0  0  0  0  0  0  0  0  0  0
    3.0769    1.1809    1.1889 O   0  0  0  0  0  0  0  0  0  0  0  0
    3.4949    1.7834   -1.2363 O   0  0  0  0  0  0  0  0  0  0  0  0
    5.3794    1.5754    0.4742 O   0  0  0  0  0  0  0  0  0  0  0  0
    4.1859   -0.4316   -0.4203 O   0  0  0  0  0  0  0  0  0  0  0  0
    4.8986   -0.8044    0.1262 H   0  0  0  0  0  0  0  0  0  0  0  0
  1  2  1  0  0  0  0
  1  7  1  0  0  0  0
  2  8  1  0  0  0  0
  3 19  1  0  0  0  0
  3  2  2  0  0  0  0
  4  3  1  0  0  0  0
  5  4  2  0  0  0  0
  5  6  1  0  0  0  0
  6  1  2  0  0  0  0
  9  4  1  0  0  0  0
 10  5  1  0  0  0  0
 12 11  3  0  0  0  0
 13  6  1  0  0  0  0
 13 14  1  0  0  0  0
 14 16  1  0  0  0  0
 15 14  1  0  0  0  0
 17 14  1  0  0  0  0
 18 21  2  0  0  0  0
 18 19  1  0  0  0  0
 20 18  2  0  0  0  0
 22 18  1  0  0  0  0
 22 23  1  0  0  0  0
M  END
