Coordinates from ORCA-job 4-MeO-Ph-N2-HSO4-B3LYPG-6-31G_dp-MTMO-d009-169-n800
 OpenBabel09051907533D

 23 22  0  0  0  0  0  0  0  0999 V2000
   -0.1916   -0.5620    0.7083 C   0  0  0  0  0  0  0  0  0  0  0  0
    1.0815    0.0123    0.6656 C   0  0  0  0  0  0  0  0  0  0  0  0
    1.2455    1.3431    1.0231 C   0  0  0  0  0  0  0  0  0  0  0  0
    0.1628    2.1263    1.4231 C   0  0  0  0  0  0  0  0  0  0  0  0
   -1.1025    1.5582    1.4654 C   0  0  0  0  0  0  0  0  0  0  0  0
   -1.2885    0.2121    1.1087 C   0  0  0  0  0  0  0  0  0  0  0  0
   -0.3120   -1.6015    0.4300 H   0  0  0  0  0  0  0  0  0  0  0  0
    1.9417   -0.5720    0.3585 H   0  0  0  0  0  0  0  0  0  0  0  0
    0.3200    3.1641    1.6937 H   0  0  0  0  0  0  0  0  0  0  0  0
   -1.9670    2.1369    1.7718 H   0  0  0  0  0  0  0  0  0  0  0  0
    8.3743    1.1928   -3.1646 N   0  0  0  0  0  0  0  0  0  0  0  0
    7.4088    1.1387   -2.6293 N   0  0  0  0  0  0  0  0  0  0  0  0
   -2.5691   -0.2444    1.1882 O   0  0  0  0  0  0  0  0  0  0  0  0
   -2.8281   -1.5942    0.8307 C   0  0  0  0  0  0  0  0  0  0  0  0
   -3.9010   -1.7396    0.9641 H   0  0  0  0  0  0  0  0  0  0  0  0
   -2.2864   -2.2951    1.4782 H   0  0  0  0  0  0  0  0  0  0  0  0
   -2.5635   -1.7926   -0.2157 H   0  0  0  0  0  0  0  0  0  0  0  0
    3.0913    2.7131   -0.2493 S   0  0  0  0  0  0  0  0  0  0  0  0
    2.5474    1.8892    1.0592 O   0  0  0  0  0  0  0  0  0  0  0  0
    2.0025    3.4357   -0.8670 O   0  0  0  0  0  0  0  0  0  0  0  0
    4.3248    3.3319    0.1938 O   0  0  0  0  0  0  0  0  0  0  0  0
    3.4733    1.4978   -1.2679 O   0  0  0  0  0  0  0  0  0  0  0  0
    4.4204    1.3099   -1.1476 H   0  0  0  0  0  0  0  0  0  0  0  0
  1  6  1  0  0  0  0
  2  1  2  0  0  0  0
  2  3  1  0  0  0  0
  3 19  1  0  0  0  0
  3  4  2  0  0  0  0
  4  5  1  0  0  0  0
  4  9  1  0  0  0  0
  5 10  1  0  0  0  0
  6 13  1  0  0  0  0
  6  5  2  0  0  0  0
  7  1  1  0  0  0  0
  8  2  1  0  0  0  0
 11 12  3  0  0  0  0
 14 15  1  0  0  0  0
 14 13  1  0  0  0  0
 14 16  1  0  0  0  0
 17 14  1  0  0  0  0
 18 21  2  0  0  0  0
 18 19  1  0  0  0  0
 20 18  2  0  0  0  0
 22 23  1  0  0  0  0
 22 18  1  0  0  0  0
M  END
