Coordinates from ORCA-job 4-MeO-Ph-N2-HSO4-B3LYPG-6-31G_dp-MTMO-d009-169-n800
 OpenBabel09051907533D

 23 22  0  0  0  0  0  0  0  0999 V2000
   -0.5814   -0.5318    0.8435 C   0  0  0  0  0  0  0  0  0  0  0  0
    0.6580    0.1109    0.7905 C   0  0  0  0  0  0  0  0  0  0  0  0
    0.7699    1.4232    1.2277 C   0  0  0  0  0  0  0  0  0  0  0  0
   -0.3335    2.1203    1.7206 C   0  0  0  0  0  0  0  0  0  0  0  0
   -1.5660    1.4845    1.7723 C   0  0  0  0  0  0  0  0  0  0  0  0
   -1.6989    0.1564    1.3341 C   0  0  0  0  0  0  0  0  0  0  0  0
   -0.6598   -1.5565    0.5031 H   0  0  0  0  0  0  0  0  0  0  0  0
    1.5330   -0.4074    0.4146 H   0  0  0  0  0  0  0  0  0  0  0  0
   -0.2185    3.1455    2.0526 H   0  0  0  0  0  0  0  0  0  0  0  0
   -2.4453    1.9959    2.1485 H   0  0  0  0  0  0  0  0  0  0  0  0
   13.3946    0.5711   -5.1204 N   0  0  0  0  0  0  0  0  0  0  0  0
   12.3529    0.4636   -4.7669 N   0  0  0  0  0  0  0  0  0  0  0  0
   -2.9509   -0.3708    1.4288 O   0  0  0  0  0  0  0  0  0  0  0  0
   -3.1580   -1.7027    0.9819 C   0  0  0  0  0  0  0  0  0  0  0  0
   -4.2176   -1.9103    1.1377 H   0  0  0  0  0  0  0  0  0  0  0  0
   -2.5620   -2.4206    1.5591 H   0  0  0  0  0  0  0  0  0  0  0  0
   -2.9207   -1.8120   -0.0842 H   0  0  0  0  0  0  0  0  0  0  0  0
    2.4676    2.9961   -0.0085 S   0  0  0  0  0  0  0  0  0  0  0  0
    2.0435    2.0321    1.2475 O   0  0  0  0  0  0  0  0  0  0  0  0
    1.3340    3.7807   -0.4418 O   0  0  0  0  0  0  0  0  0  0  0  0
    3.7421    3.5627    0.3842 O   0  0  0  0  0  0  0  0  0  0  0  0
    2.7352    1.9001   -1.1865 O   0  0  0  0  0  0  0  0  0  0  0  0
    3.6666    1.6293   -1.1172 H   0  0  0  0  0  0  0  0  0  0  0  0
  1  6  1  0  0  0  0
  2  1  2  0  0  0  0
  2  3  1  0  0  0  0
  3 19  1  0  0  0  0
  3  4  2  0  0  0  0
  4  5  1  0  0  0  0
  4  9  1  0  0  0  0
  5 10  1  0  0  0  0
  6 13  1  0  0  0  0
  6  5  2  0  0  0  0
  7  1  1  0  0  0  0
  8  2  1  0  0  0  0
 11 12  3  0  0  0  0
 14 15  1  0  0  0  0
 14 13  1  0  0  0  0
 14 16  1  0  0  0  0
 17 14  1  0  0  0  0
 18 21  2  0  0  0  0
 18 19  1  0  0  0  0
 20 18  2  0  0  0  0
 22 23  1  0  0  0  0
 22 18  1  0  0  0  0
M  END
