Coordinates from ORCA-job 4-MeO-Ph-N2-HSO4-B3LYPG-6-31G_dp-MTMO-d009-169-n800
 OpenBabel09051907533D

 23 22  0  0  0  0  0  0  0  0999 V2000
   -0.6312   -0.5310    0.8653 C   0  0  0  0  0  0  0  0  0  0  0  0
    0.6083    0.1114    0.8124 C   0  0  0  0  0  0  0  0  0  0  0  0
    0.7203    1.4238    1.2495 C   0  0  0  0  0  0  0  0  0  0  0  0
   -0.3830    2.1211    1.7421 C   0  0  0  0  0  0  0  0  0  0  0  0
   -1.6156    1.4856    1.7938 C   0  0  0  0  0  0  0  0  0  0  0  0
   -1.7486    0.1574    1.3557 C   0  0  0  0  0  0  0  0  0  0  0  0
   -0.7097   -1.5558    0.5250 H   0  0  0  0  0  0  0  0  0  0  0  0
    1.4833   -0.4070    0.4366 H   0  0  0  0  0  0  0  0  0  0  0  0
   -0.2678    3.1463    2.0740 H   0  0  0  0  0  0  0  0  0  0  0  0
   -2.4948    1.9971    2.1698 H   0  0  0  0  0  0  0  0  0  0  0  0
   13.9148    0.5643   -5.3488 N   0  0  0  0  0  0  0  0  0  0  0  0
   12.8731    0.4564   -4.9953 N   0  0  0  0  0  0  0  0  0  0  0  0
   -3.0007   -0.3696    1.4503 O   0  0  0  0  0  0  0  0  0  0  0  0
   -3.2080   -1.7016    1.0036 C   0  0  0  0  0  0  0  0  0  0  0  0
   -4.2676   -1.9089    1.1593 H   0  0  0  0  0  0  0  0  0  0  0  0
   -2.6122   -2.4194    1.5810 H   0  0  0  0  0  0  0  0  0  0  0  0
   -2.9706   -1.8110   -0.0624 H   0  0  0  0  0  0  0  0  0  0  0  0
    2.4185    2.9962    0.0133 S   0  0  0  0  0  0  0  0  0  0  0  0
    1.9941    2.0325    1.2694 O   0  0  0  0  0  0  0  0  0  0  0  0
    1.2851    3.7809   -0.4204 O   0  0  0  0  0  0  0  0  0  0  0  0
    3.6930    3.5628    0.4062 O   0  0  0  0  0  0  0  0  0  0  0  0
    2.6863    1.9000   -1.1644 O   0  0  0  0  0  0  0  0  0  0  0  0
    3.6178    1.6294   -1.0950 H   0  0  0  0  0  0  0  0  0  0  0  0
  1  6  1  0  0  0  0
  2  1  2  0  0  0  0
  2  3  1  0  0  0  0
  3 19  1  0  0  0  0
  3  4  2  0  0  0  0
  4  5  1  0  0  0  0
  4  9  1  0  0  0  0
  5 10  1  0  0  0  0
  6 13  1  0  0  0  0
  6  5  2  0  0  0  0
  7  1  1  0  0  0  0
  8  2  1  0  0  0  0
 11 12  3  0  0  0  0
 14 15  1  0  0  0  0
 14 13  1  0  0  0  0
 14 16  1  0  0  0  0
 17 14  1  0  0  0  0
 18 21  2  0  0  0  0
 18 19  1  0  0  0  0
 20 18  2  0  0  0  0
 22 23  1  0  0  0  0
 22 18  1  0  0  0  0
M  END
