Coordinates from ORCA-job 4-MeO-Ph-N2-HSO4-B3LYPG-6-31G_dp-MTMO-d009-169-n800
 OpenBabel09051907533D

 23 22  0  0  0  0  0  0  0  0999 V2000
   -0.1880   -0.5671    0.7005 C   0  0  0  0  0  0  0  0  0  0  0  0
    1.0907   -0.0058    0.6507 C   0  0  0  0  0  0  0  0  0  0  0  0
    1.2691    1.3246    1.0029 C   0  0  0  0  0  0  0  0  0  0  0  0
    0.1961    2.1201    1.4043 C   0  0  0  0  0  0  0  0  0  0  0  0
   -1.0747    1.5647    1.4540 C   0  0  0  0  0  0  0  0  0  0  0  0
   -1.2754    0.2192    1.1029 C   0  0  0  0  0  0  0  0  0  0  0  0
   -0.3201   -1.6063    0.4262 H   0  0  0  0  0  0  0  0  0  0  0  0
    1.9439   -0.5992    0.3418 H   0  0  0  0  0  0  0  0  0  0  0  0
    0.3648    3.1572    1.6707 H   0  0  0  0  0  0  0  0  0  0  0  0
   -1.9322    2.1530    1.7619 H   0  0  0  0  0  0  0  0  0  0  0  0
    8.1415    1.3130   -3.0309 N   0  0  0  0  0  0  0  0  0  0  0  0
    7.1780    1.2438   -2.4937 N   0  0  0  0  0  0  0  0  0  0  0  0
   -2.5602   -0.2244    1.1898 O   0  0  0  0  0  0  0  0  0  0  0  0
   -2.8338   -1.5734    0.8404 C   0  0  0  0  0  0  0  0  0  0  0  0
   -3.9072   -1.7082    0.9806 H   0  0  0  0  0  0  0  0  0  0  0  0
   -2.2948   -2.2762    1.4881 H   0  0  0  0  0  0  0  0  0  0  0  0
   -2.5771   -1.7794   -0.2065 H   0  0  0  0  0  0  0  0  0  0  0  0
    3.1326    2.6603   -0.2844 S   0  0  0  0  0  0  0  0  0  0  0  0
    2.5766    1.8582    1.0325 O   0  0  0  0  0  0  0  0  0  0  0  0
    2.0440    3.3561   -0.9332 O   0  0  0  0  0  0  0  0  0  0  0  0
    4.3510    3.3060    0.1633 O   0  0  0  0  0  0  0  0  0  0  0  0
    3.5502    1.4281   -1.2678 O   0  0  0  0  0  0  0  0  0  0  0  0
    4.5099    1.2964   -1.1729 H   0  0  0  0  0  0  0  0  0  0  0  0
  1  6  1  0  0  0  0
  2  1  2  0  0  0  0
  2  3  1  0  0  0  0
  3 19  1  0  0  0  0
  3  4  2  0  0  0  0
  4  5  1  0  0  0  0
  4  9  1  0  0  0  0
  5 10  1  0  0  0  0
  6 13  1  0  0  0  0
  6  5  2  0  0  0  0
  7  1  1  0  0  0  0
  8  2  1  0  0  0  0
 11 12  3  0  0  0  0
 14 15  1  0  0  0  0
 14 13  1  0  0  0  0
 14 16  1  0  0  0  0
 17 14  1  0  0  0  0
 18 21  2  0  0  0  0
 18 19  1  0  0  0  0
 20 18  2  0  0  0  0
 22 23  1  0  0  0  0
 22 18  1  0  0  0  0
M  END
