Coordinates from ORCA-job 4-MeO-Ph-N2-HSO4-B3LYPG-6-31G_dp-MTMO-d009-169-n800
 OpenBabel09051907533D

 23 22  0  0  0  0  0  0  0  0999 V2000
   -0.6328   -0.5310    0.8661 C   0  0  0  0  0  0  0  0  0  0  0  0
    0.6068    0.1115    0.8132 C   0  0  0  0  0  0  0  0  0  0  0  0
    0.7187    1.4238    1.2502 C   0  0  0  0  0  0  0  0  0  0  0  0
   -0.3847    2.1212    1.7428 C   0  0  0  0  0  0  0  0  0  0  0  0
   -1.6172    1.4856    1.7944 C   0  0  0  0  0  0  0  0  0  0  0  0
   -1.7502    0.1574    1.3563 C   0  0  0  0  0  0  0  0  0  0  0  0
   -0.7112   -1.5558    0.5258 H   0  0  0  0  0  0  0  0  0  0  0  0
    1.4817   -0.4070    0.4376 H   0  0  0  0  0  0  0  0  0  0  0  0
   -0.2695    3.1464    2.0746 H   0  0  0  0  0  0  0  0  0  0  0  0
   -2.4965    1.9971    2.1703 H   0  0  0  0  0  0  0  0  0  0  0  0
   13.9314    0.5640   -5.3564 N   0  0  0  0  0  0  0  0  0  0  0  0
   12.8898    0.4561   -5.0027 N   0  0  0  0  0  0  0  0  0  0  0  0
   -3.0023   -0.3696    1.4509 O   0  0  0  0  0  0  0  0  0  0  0  0
   -3.2096   -1.7016    1.0042 C   0  0  0  0  0  0  0  0  0  0  0  0
   -4.2692   -1.9089    1.1599 H   0  0  0  0  0  0  0  0  0  0  0  0
   -2.6138   -2.4194    1.5817 H   0  0  0  0  0  0  0  0  0  0  0  0
   -2.9721   -1.8111   -0.0617 H   0  0  0  0  0  0  0  0  0  0  0  0
    2.4170    2.9962    0.0141 S   0  0  0  0  0  0  0  0  0  0  0  0
    1.9925    2.0326    1.2702 O   0  0  0  0  0  0  0  0  0  0  0  0
    1.2836    3.7808   -0.4198 O   0  0  0  0  0  0  0  0  0  0  0  0
    3.6914    3.5628    0.4071 O   0  0  0  0  0  0  0  0  0  0  0  0
    2.6849    1.8999   -1.1635 O   0  0  0  0  0  0  0  0  0  0  0  0
    3.6163    1.6294   -1.0941 H   0  0  0  0  0  0  0  0  0  0  0  0
  1  6  1  0  0  0  0
  2  1  2  0  0  0  0
  2  3  1  0  0  0  0
  3 19  1  0  0  0  0
  3  4  2  0  0  0  0
  4  5  1  0  0  0  0
  4  9  1  0  0  0  0
  5 10  1  0  0  0  0
  6 13  1  0  0  0  0
  6  5  2  0  0  0  0
  7  1  1  0  0  0  0
  8  2  1  0  0  0  0
 11 12  3  0  0  0  0
 14 15  1  0  0  0  0
 14 13  1  0  0  0  0
 14 16  1  0  0  0  0
 17 14  1  0  0  0  0
 18 21  2  0  0  0  0
 18 19  1  0  0  0  0
 20 18  2  0  0  0  0
 22 23  1  0  0  0  0
 22 18  1  0  0  0  0
M  END
