Coordinates from ORCA-job 4-MeO-Ph-N2-HSO4-B3LYPG-6-31G_dp-MTMO-d009-169-n800
 OpenBabel09051907533D

 23 22  0  0  0  0  0  0  0  0999 V2000
   -0.1906   -0.5628    0.7067 C   0  0  0  0  0  0  0  0  0  0  0  0
    1.0836    0.0090    0.6627 C   0  0  0  0  0  0  0  0  0  0  0  0
    1.2502    1.3398    1.0193 C   0  0  0  0  0  0  0  0  0  0  0  0
    0.1693    2.1253    1.4197 C   0  0  0  0  0  0  0  0  0  0  0  0
   -1.0970    1.5595    1.4633 C   0  0  0  0  0  0  0  0  0  0  0  0
   -1.2857    0.2135    1.1076 C   0  0  0  0  0  0  0  0  0  0  0  0
   -0.3132   -1.6022    0.4291 H   0  0  0  0  0  0  0  0  0  0  0  0
    1.9424   -0.5769    0.3552 H   0  0  0  0  0  0  0  0  0  0  0  0
    0.3287    3.1629    1.6895 H   0  0  0  0  0  0  0  0  0  0  0  0
   -1.9602    2.1400    1.7701 H   0  0  0  0  0  0  0  0  0  0  0  0
    8.3275    1.2153   -3.1384 N   0  0  0  0  0  0  0  0  0  0  0  0
    7.3626    1.1590   -2.6023 N   0  0  0  0  0  0  0  0  0  0  0  0
   -2.5672   -0.2406    1.1885 O   0  0  0  0  0  0  0  0  0  0  0  0
   -2.8288   -1.5903    0.8323 C   0  0  0  0  0  0  0  0  0  0  0  0
   -3.9019   -1.7337    0.9669 H   0  0  0  0  0  0  0  0  0  0  0  0
   -2.2877   -2.2916    1.4797 H   0  0  0  0  0  0  0  0  0  0  0  0
   -2.5657   -1.7899   -0.2142 H   0  0  0  0  0  0  0  0  0  0  0  0
    3.0993    2.7030   -0.2563 S   0  0  0  0  0  0  0  0  0  0  0  0
    2.5532    1.8836    1.0542 O   0  0  0  0  0  0  0  0  0  0  0  0
    2.0105    3.4204   -0.8802 O   0  0  0  0  0  0  0  0  0  0  0  0
    4.3300    3.3270    0.1875 O   0  0  0  0  0  0  0  0  0  0  0  0
    3.4880    1.4840   -1.2680 O   0  0  0  0  0  0  0  0  0  0  0  0
    4.4376    1.3064   -1.1517 H   0  0  0  0  0  0  0  0  0  0  0  0
  1  6  1  0  0  0  0
  2  1  2  0  0  0  0
  2  3  1  0  0  0  0
  3 19  1  0  0  0  0
  3  4  2  0  0  0  0
  4  5  1  0  0  0  0
  4  9  1  0  0  0  0
  5 10  1  0  0  0  0
  6 13  1  0  0  0  0
  6  5  2  0  0  0  0
  7  1  1  0  0  0  0
  8  2  1  0  0  0  0
 11 12  3  0  0  0  0
 14 15  1  0  0  0  0
 14 13  1  0  0  0  0
 14 16  1  0  0  0  0
 17 14  1  0  0  0  0
 18 21  2  0  0  0  0
 18 19  1  0  0  0  0
 20 18  2  0  0  0  0
 22 23  1  0  0  0  0
 22 18  1  0  0  0  0
M  END
