Coordinates from ORCA-job 4-MeO-Ph-N2-HSO4-B3LYPG-6-31G_dp-MTMO-d009-169-n800
 OpenBabel09051907533D

 23 22  0  0  0  0  0  0  0  0999 V2000
   -0.3610   -0.5410    0.7459 C   0  0  0  0  0  0  0  0  0  0  0  0
    0.8872    0.0839    0.6850 C   0  0  0  0  0  0  0  0  0  0  0  0
    1.0181    1.3980    1.1115 C   0  0  0  0  0  0  0  0  0  0  0  0
   -0.0745    2.1144    1.6006 C   0  0  0  0  0  0  0  0  0  0  0  0
   -1.3155    1.4963    1.6600 C   0  0  0  0  0  0  0  0  0  0  0  0
   -1.4677    0.1666    1.2331 C   0  0  0  0  0  0  0  0  0  0  0  0
   -0.4544   -1.5674    0.4141 H   0  0  0  0  0  0  0  0  0  0  0  0
    1.7541   -0.4496    0.3118 H   0  0  0  0  0  0  0  0  0  0  0  0
    0.0556    3.1405    1.9240 H   0  0  0  0  0  0  0  0  0  0  0  0
   -2.1869    2.0230    2.0336 H   0  0  0  0  0  0  0  0  0  0  0  0
   10.8879    0.7218   -3.9944 N   0  0  0  0  0  0  0  0  0  0  0  0
    9.8467    0.6251   -3.6362 N   0  0  0  0  0  0  0  0  0  0  0  0
   -2.7266   -0.3425    1.3352 O   0  0  0  0  0  0  0  0  0  0  0  0
   -2.9528   -1.6757    0.9015 C   0  0  0  0  0  0  0  0  0  0  0  0
   -4.0145   -1.8678    1.0628 H   0  0  0  0  0  0  0  0  0  0  0  0
   -2.3642   -2.3960    1.4833 H   0  0  0  0  0  0  0  0  0  0  0  0
   -2.7207   -1.7981   -0.1643 H   0  0  0  0  0  0  0  0  0  0  0  0
    2.7355    2.9382   -0.1393 S   0  0  0  0  0  0  0  0  0  0  0  0
    2.3002    1.9892    1.1245 O   0  0  0  0  0  0  0  0  0  0  0  0
    1.6106    3.7309   -0.5804 O   0  0  0  0  0  0  0  0  0  0  0  0
    4.0154    3.4948    0.2502 O   0  0  0  0  0  0  0  0  0  0  0  0
    2.9926    1.8298   -1.3078 O   0  0  0  0  0  0  0  0  0  0  0  0
    3.9199    1.5466   -1.2338 H   0  0  0  0  0  0  0  0  0  0  0  0
  1  6  1  0  0  0  0
  2  1  2  0  0  0  0
  2  3  1  0  0  0  0
  3 19  1  0  0  0  0
  3  4  2  0  0  0  0
  4  5  1  0  0  0  0
  4  9  1  0  0  0  0
  5 10  1  0  0  0  0
  6 13  1  0  0  0  0
  6  5  2  0  0  0  0
  7  1  1  0  0  0  0
  8  2  1  0  0  0  0
 11 12  3  0  0  0  0
 14 15  1  0  0  0  0
 14 13  1  0  0  0  0
 14 16  1  0  0  0  0
 17 14  1  0  0  0  0
 18 21  2  0  0  0  0
 18 19  1  0  0  0  0
 20 18  2  0  0  0  0
 22 23  1  0  0  0  0
 22 18  1  0  0  0  0
M  END
