Coordinates from ORCA-job 4-MeO-Ph-N2-HSO4-B3LYPG-6-31G_dp-MTMO-d009-169-n800
 OpenBabel09051907533D

 23 22  0  0  0  0  0  0  0  0999 V2000
   -0.4007   -0.5385    0.7637 C   0  0  0  0  0  0  0  0  0  0  0  0
    0.8447    0.0920    0.7053 C   0  0  0  0  0  0  0  0  0  0  0  0
    0.9696    1.4056    1.1351 C   0  0  0  0  0  0  0  0  0  0  0  0
   -0.1265    2.1160    1.6252 C   0  0  0  0  0  0  0  0  0  0  0  0
   -1.3648    1.4923    1.6822 C   0  0  0  0  0  0  0  0  0  0  0  0
   -1.5108    0.1630    1.2519 C   0  0  0  0  0  0  0  0  0  0  0  0
   -0.4893   -1.5645    0.4294 H   0  0  0  0  0  0  0  0  0  0  0  0
    1.7142   -0.4368    0.3314 H   0  0  0  0  0  0  0  0  0  0  0  0
   -0.0012    3.1419    1.9512 H   0  0  0  0  0  0  0  0  0  0  0  0
   -2.2387    2.0142    2.0565 H   0  0  0  0  0  0  0  0  0  0  0  0
   11.3659    0.6790   -4.2124 N   0  0  0  0  0  0  0  0  0  0  0  0
   10.3247    0.5789   -3.8555 N   0  0  0  0  0  0  0  0  0  0  0  0
   -2.7676   -0.3518    1.3516 O   0  0  0  0  0  0  0  0  0  0  0  0
   -2.9878   -1.6847    0.9138 C   0  0  0  0  0  0  0  0  0  0  0  0
   -4.0488   -1.8817    1.0733 H   0  0  0  0  0  0  0  0  0  0  0  0
   -2.3969   -2.4042    1.4942 H   0  0  0  0  0  0  0  0  0  0  0  0
   -2.7539   -1.8030   -0.1521 H   0  0  0  0  0  0  0  0  0  0  0  0
    2.6809    2.9561   -0.1112 S   0  0  0  0  0  0  0  0  0  0  0  0
    2.2491    2.0024    1.1502 O   0  0  0  0  0  0  0  0  0  0  0  0
    1.5533    3.7463   -0.5500 O   0  0  0  0  0  0  0  0  0  0  0  0
    3.9591    3.5158    0.2793 O   0  0  0  0  0  0  0  0  0  0  0  0
    2.9411    1.8516   -1.2827 O   0  0  0  0  0  0  0  0  0  0  0  0
    3.8693    1.5709   -1.2093 H   0  0  0  0  0  0  0  0  0  0  0  0
  1  6  1  0  0  0  0
  2  1  2  0  0  0  0
  2  3  1  0  0  0  0
  3 19  1  0  0  0  0
  3  4  2  0  0  0  0
  4  5  1  0  0  0  0
  4  9  1  0  0  0  0
  5 10  1  0  0  0  0
  6 13  1  0  0  0  0
  6  5  2  0  0  0  0
  7  1  1  0  0  0  0
  8  2  1  0  0  0  0
 11 12  3  0  0  0  0
 14 15  1  0  0  0  0
 14 13  1  0  0  0  0
 14 16  1  0  0  0  0
 17 14  1  0  0  0  0
 18 21  2  0  0  0  0
 18 19  1  0  0  0  0
 20 18  2  0  0  0  0
 22 23  1  0  0  0  0
 22 18  1  0  0  0  0
M  END
