Coordinates from ORCA-job 4-MeO-Ph-N2-HSO4-B3LYPG-6-31G_dp-MTMO-d009-169-n800
 OpenBabel09051907533D

 23 22  0  0  0  0  0  0  0  0999 V2000
   -0.1912   -0.6449    1.0456 C   0  0  0  0  0  0  0  0  0  0  0  0
    1.1665   -0.3309    1.1478 C   0  0  0  0  0  0  0  0  0  0  0  0
    1.5797    0.9854    0.9977 C   0  0  0  0  0  0  0  0  0  0  0  0
    0.6659    2.0082    0.7426 C   0  0  0  0  0  0  0  0  0  0  0  0
   -0.6826    1.6979    0.6373 C   0  0  0  0  0  0  0  0  0  0  0  0
   -1.1204    0.3712    0.7877 C   0  0  0  0  0  0  0  0  0  0  0  0
   -0.5058   -1.6734    1.1701 H   0  0  0  0  0  0  0  0  0  0  0  0
    1.8987   -1.1048    1.3491 H   0  0  0  0  0  0  0  0  0  0  0  0
    1.0160    3.0274    0.6253 H   0  0  0  0  0  0  0  0  0  0  0  0
   -1.4208    2.4670    0.4385 H   0  0  0  0  0  0  0  0  0  0  0  0
    4.5405    4.9104   -2.5903 N   0  0  0  0  0  0  0  0  0  0  0  0
    5.1337    4.0916   -3.0364 N   0  0  0  0  0  0  0  0  0  0  0  0
   -2.4633    0.1793    0.6683 O   0  0  0  0  0  0  0  0  0  0  0  0
   -2.9716   -1.1396    0.8003 C   0  0  0  0  0  0  0  0  0  0  0  0
   -4.0511   -1.0608    0.6635 H   0  0  0  0  0  0  0  0  0  0  0  0
   -2.7632   -1.5553    1.7948 H   0  0  0  0  0  0  0  0  0  0  0  0
   -2.5589   -1.8104    0.0358 H   0  0  0  0  0  0  0  0  0  0  0  0
    3.9040    1.4573   -0.1263 S   0  0  0  0  0  0  0  0  0  0  0  0
    2.9432    1.2990    1.1907 O   0  0  0  0  0  0  0  0  0  0  0  0
    3.1905    2.1308   -1.1880 O   0  0  0  0  0  0  0  0  0  0  0  0
    5.1754    1.9072    0.4038 O   0  0  0  0  0  0  0  0  0  0  0  0
    4.0663   -0.0930   -0.6048 O   0  0  0  0  0  0  0  0  0  0  0  0
    4.8332   -0.4589   -0.1319 H   0  0  0  0  0  0  0  0  0  0  0  0
  1  2  1  0  0  0  0
  1  7  1  0  0  0  0
  2  8  1  0  0  0  0
  3  2  2  0  0  0  0
  3 19  1  0  0  0  0
  4  3  1  0  0  0  0
  5  4  2  0  0  0  0
  5  6  1  0  0  0  0
  6  1  2  0  0  0  0
  9  4  1  0  0  0  0
 10  5  1  0  0  0  0
 12 11  3  0  0  0  0
 13  6  1  0  0  0  0
 13 14  1  0  0  0  0
 14 16  1  0  0  0  0
 15 14  1  0  0  0  0
 17 14  1  0  0  0  0
 18 21  2  0  0  0  0
 18 19  1  0  0  0  0
 20 18  2  0  0  0  0
 22 23  1  0  0  0  0
 22 18  1  0  0  0  0
M  END
