Coordinates from ORCA-job 4-MeO-Ph-N2-HSO4-B3LYPG-6-31G_dp-MTMO-d009-169-n800
 OpenBabel09051907533D

 23 22  0  0  0  0  0  0  0  0999 V2000
   -0.2844   -0.5466    0.7158 C   0  0  0  0  0  0  0  0  0  0  0  0
    0.9696    0.0664    0.6534 C   0  0  0  0  0  0  0  0  0  0  0  0
    1.1112    1.3828    1.0688 C   0  0  0  0  0  0  0  0  0  0  0  0
    0.0236    2.1136    1.5479 C   0  0  0  0  0  0  0  0  0  0  0  0
   -1.2232    1.5074    1.6087 C   0  0  0  0  0  0  0  0  0  0  0  0
   -1.3861    0.1753    1.1933 C   0  0  0  0  0  0  0  0  0  0  0  0
   -0.3863   -1.5750    0.3928 H   0  0  0  0  0  0  0  0  0  0  0  0
    1.8328   -0.4783    0.2876 H   0  0  0  0  0  0  0  0  0  0  0  0
    0.1621    3.1413    1.8626 H   0  0  0  0  0  0  0  0  0  0  0  0
   -2.0909    2.0453    1.9748 H   0  0  0  0  0  0  0  0  0  0  0  0
    9.9540    0.8108   -3.5900 N   0  0  0  0  0  0  0  0  0  0  0  0
    8.9150    0.7299   -3.2220 N   0  0  0  0  0  0  0  0  0  0  0  0
   -2.6499   -0.3215    1.2963 O   0  0  0  0  0  0  0  0  0  0  0  0
   -2.8866   -1.6571    0.8755 C   0  0  0  0  0  0  0  0  0  0  0  0
   -3.9501   -1.8385    1.0366 H   0  0  0  0  0  0  0  0  0  0  0  0
   -2.3053   -2.3763    1.4659 H   0  0  0  0  0  0  0  0  0  0  0  0
   -2.6534   -1.7922   -0.1884 H   0  0  0  0  0  0  0  0  0  0  0  0
    2.8466    2.8979   -0.1883 S   0  0  0  0  0  0  0  0  0  0  0  0
    2.3986    1.9622    1.0811 O   0  0  0  0  0  0  0  0  0  0  0  0
    1.7291    3.6943   -0.6414 O   0  0  0  0  0  0  0  0  0  0  0  0
    4.1281    3.4494    0.2031 O   0  0  0  0  0  0  0  0  0  0  0  0
    3.1024    1.7785   -1.3464 O   0  0  0  0  0  0  0  0  0  0  0  0
    4.0280    1.4910   -1.2666 H   0  0  0  0  0  0  0  0  0  0  0  0
  1  6  1  0  0  0  0
  2  1  2  0  0  0  0
  2  3  1  0  0  0  0
  3 19  1  0  0  0  0
  3  4  2  0  0  0  0
  4  5  1  0  0  0  0
  4  9  1  0  0  0  0
  5 10  1  0  0  0  0
  6 13  1  0  0  0  0
  6  5  2  0  0  0  0
  7  1  1  0  0  0  0
  8  2  1  0  0  0  0
 11 12  3  0  0  0  0
 14 15  1  0  0  0  0
 14 13  1  0  0  0  0
 14 16  1  0  0  0  0
 17 14  1  0  0  0  0
 18 21  2  0  0  0  0
 18 19  1  0  0  0  0
 20 18  2  0  0  0  0
 22 23  1  0  0  0  0
 22 18  1  0  0  0  0
M  END
