Coordinates from ORCA-job 4-MeO-Ph-N2-HSO4-B3LYPG-6-31G_dp-MTMO-d009-169-n800
 OpenBabel09051907533D

 23 22  0  0  0  0  0  0  0  0999 V2000
   -0.4129   -0.5378    0.7697 C   0  0  0  0  0  0  0  0  0  0  0  0
    0.8318    0.0945    0.7124 C   0  0  0  0  0  0  0  0  0  0  0  0
    0.9545    1.4081    1.1428 C   0  0  0  0  0  0  0  0  0  0  0  0
   -0.1429    2.1168    1.6324 C   0  0  0  0  0  0  0  0  0  0  0  0
   -1.3805    1.4913    1.6883 C   0  0  0  0  0  0  0  0  0  0  0  0
   -1.5243    0.1620    1.2573 C   0  0  0  0  0  0  0  0  0  0  0  0
   -0.4998   -1.5638    0.4348 H   0  0  0  0  0  0  0  0  0  0  0  0
    1.7022   -0.4329    0.3389 H   0  0  0  0  0  0  0  0  0  0  0  0
   -0.0193    3.1427    1.9589 H   0  0  0  0  0  0  0  0  0  0  0  0
   -2.2553    2.0118    2.0622 H   0  0  0  0  0  0  0  0  0  0  0  0
   11.5133    0.6655   -4.2815 N   0  0  0  0  0  0  0  0  0  0  0  0
   10.4721    0.5651   -3.9244 N   0  0  0  0  0  0  0  0  0  0  0  0
   -2.7805   -0.3546    1.3559 O   0  0  0  0  0  0  0  0  0  0  0  0
   -2.9985   -1.6876    0.9172 C   0  0  0  0  0  0  0  0  0  0  0  0
   -4.0594   -1.8860    1.0757 H   0  0  0  0  0  0  0  0  0  0  0  0
   -2.4072   -2.4066    1.4978 H   0  0  0  0  0  0  0  0  0  0  0  0
   -2.7636   -1.8050   -0.1485 H   0  0  0  0  0  0  0  0  0  0  0  0
    2.6643    2.9615   -0.1019 S   0  0  0  0  0  0  0  0  0  0  0  0
    2.2331    2.0067    1.1589 O   0  0  0  0  0  0  0  0  0  0  0  0
    1.5361    3.7511   -0.5402 O   0  0  0  0  0  0  0  0  0  0  0  0
    3.9420    3.5220    0.2892 O   0  0  0  0  0  0  0  0  0  0  0  0
    2.9256    1.8580   -1.2740 O   0  0  0  0  0  0  0  0  0  0  0  0
    3.8540    1.5780   -1.2007 H   0  0  0  0  0  0  0  0  0  0  0  0
  1  6  1  0  0  0  0
  2  1  2  0  0  0  0
  2  3  1  0  0  0  0
  3 19  1  0  0  0  0
  3  4  2  0  0  0  0
  4  5  1  0  0  0  0
  4  9  1  0  0  0  0
  5 10  1  0  0  0  0
  6 13  1  0  0  0  0
  6  5  2  0  0  0  0
  7  1  1  0  0  0  0
  8  2  1  0  0  0  0
 11 12  3  0  0  0  0
 14 15  1  0  0  0  0
 14 13  1  0  0  0  0
 14 16  1  0  0  0  0
 17 14  1  0  0  0  0
 18 21  2  0  0  0  0
 18 19  1  0  0  0  0
 20 18  2  0  0  0  0
 22 23  1  0  0  0  0
 22 18  1  0  0  0  0
M  END
