Coordinates from ORCA-job 4-MeO-Ph-N2-HSO4-B3LYPG-6-31G_dp-MTMO-d009-169-n800
 OpenBabel09051907533D

 23 22  0  0  0  0  0  0  0  0999 V2000
    0.0344   -0.2388    0.4015 C   0  0  0  0  0  0  0  0  0  0  0  0
    1.4128    0.0004    0.4127 C   0  0  0  0  0  0  0  0  0  0  0  0
    1.8785    1.2699    0.7287 C   0  0  0  0  0  0  0  0  0  0  0  0
    0.9963    2.2991    1.0612 C   0  0  0  0  0  0  0  0  0  0  0  0
   -0.3693    2.0555    1.0632 C   0  0  0  0  0  0  0  0  0  0  0  0
   -0.8624    0.7842    0.7277 C   0  0  0  0  0  0  0  0  0  0  0  0
   -0.3186   -1.2288    0.1409 H   0  0  0  0  0  0  0  0  0  0  0  0
    2.0962   -0.8026    0.1675 H   0  0  0  0  0  0  0  0  0  0  0  0
    1.3919    3.2770    1.3117 H   0  0  0  0  0  0  0  0  0  0  0  0
   -1.0764    2.8378    1.3163 H   0  0  0  0  0  0  0  0  0  0  0  0
    1.9070    2.6972   -1.9356 N   0  0  0  0  0  0  0  0  0  0  0  0
    1.1803    2.5474   -2.7550 N   0  0  0  0  0  0  0  0  0  0  0  0
   -2.2190    0.6516    0.7512 O   0  0  0  0  0  0  0  0  0  0  0  0
   -2.7763   -0.6132    0.4275 C   0  0  0  0  0  0  0  0  0  0  0  0
   -3.8582   -0.4941    0.5062 H   0  0  0  0  0  0  0  0  0  0  0  0
   -2.4477   -1.3916    1.1285 H   0  0  0  0  0  0  0  0  0  0  0  0
   -2.5204   -0.9185   -0.5951 H   0  0  0  0  0  0  0  0  0  0  0  0
    4.4136    0.8949   -0.0439 S   0  0  0  0  0  0  0  0  0  0  0  0
    3.2443    1.6100    0.8372 O   0  0  0  0  0  0  0  0  0  0  0  0
    3.9284    0.4993   -1.3455 O   0  0  0  0  0  0  0  0  0  0  0  0
    5.5756    1.7307    0.1712 O   0  0  0  0  0  0  0  0  0  0  0  0
    4.6181   -0.4994    0.7778 O   0  0  0  0  0  0  0  0  0  0  0  0
    5.1557   -0.3073    1.5652 H   0  0  0  0  0  0  0  0  0  0  0  0
  1  2  2  0  0  0  0
  1  6  1  0  0  0  0
  2  3  1  0  0  0  0
  3 19  1  0  0  0  0
  3  4  2  0  0  0  0
  4  5  1  0  0  0  0
  4  9  1  0  0  0  0
  5 10  1  0  0  0  0
  6 13  1  0  0  0  0
  6  5  2  0  0  0  0
  7  1  1  0  0  0  0
  8  2  1  0  0  0  0
 12 11  3  0  0  0  0
 14 15  1  0  0  0  0
 14 13  1  0  0  0  0
 14 16  1  0  0  0  0
 17 14  1  0  0  0  0
 18 21  2  0  0  0  0
 18 22  1  0  0  0  0
 18 19  1  0  0  0  0
 20 18  2  0  0  0  0
 22 23  1  0  0  0  0
M  END
