Coordinates from ORCA-job 4-MeO-Ph-N2-HSO4-B3LYPG-6-31G_dp-MTMO-d009-169-n800
 OpenBabel09051907533D

 23 22  0  0  0  0  0  0  0  0999 V2000
    0.0155   -0.3107    0.5379 C   0  0  0  0  0  0  0  0  0  0  0  0
    1.3931   -0.0789    0.5912 C   0  0  0  0  0  0  0  0  0  0  0  0
    1.8591    1.2138    0.7923 C   0  0  0  0  0  0  0  0  0  0  0  0
    0.9767    2.2796    0.9683 C   0  0  0  0  0  0  0  0  0  0  0  0
   -0.3909    2.0456    0.9331 C   0  0  0  0  0  0  0  0  0  0  0  0
   -0.8824    0.7494    0.7106 C   0  0  0  0  0  0  0  0  0  0  0  0
   -0.3374   -1.3201    0.3672 H   0  0  0  0  0  0  0  0  0  0  0  0
    2.0842   -0.9052    0.4741 H   0  0  0  0  0  0  0  0  0  0  0  0
    1.3719    3.2757    1.1321 H   0  0  0  0  0  0  0  0  0  0  0  0
   -1.1005    2.8544    1.0686 H   0  0  0  0  0  0  0  0  0  0  0  0
    2.0656    3.0729   -1.8813 N   0  0  0  0  0  0  0  0  0  0  0  0
    1.5044    2.9210   -2.8211 N   0  0  0  0  0  0  0  0  0  0  0  0
   -2.2398    0.6297    0.6826 O   0  0  0  0  0  0  0  0  0  0  0  0
   -2.7972   -0.6562    0.4581 C   0  0  0  0  0  0  0  0  0  0  0  0
   -3.8799   -0.5206    0.4670 H   0  0  0  0  0  0  0  0  0  0  0  0
   -2.5157   -1.3633    1.2495 H   0  0  0  0  0  0  0  0  0  0  0  0
   -2.4926   -1.0644   -0.5141 H   0  0  0  0  0  0  0  0  0  0  0  0
    4.3578    0.9137   -0.0733 S   0  0  0  0  0  0  0  0  0  0  0  0
    3.2291    1.5233    0.9373 O   0  0  0  0  0  0  0  0  0  0  0  0
    3.7999    0.6376   -1.3766 O   0  0  0  0  0  0  0  0  0  0  0  0
    5.5260    1.7378    0.1561 O   0  0  0  0  0  0  0  0  0  0  0  0
    4.6228   -0.5500    0.6000 O   0  0  0  0  0  0  0  0  0  0  0  0
    5.2150   -0.4245    1.3614 H   0  0  0  0  0  0  0  0  0  0  0  0
  1  2  2  0  0  0  0
  1  6  1  0  0  0  0
  2  3  1  0  0  0  0
  3 19  1  0  0  0  0
  3  4  2  0  0  0  0
  4  9  1  0  0  0  0
  5  4  1  0  0  0  0
  5 10  1  0  0  0  0
  6  5  2  0  0  0  0
  7  1  1  0  0  0  0
  8  2  1  0  0  0  0
 12 11  3  0  0  0  0
 13  6  1  0  0  0  0
 14 15  1  0  0  0  0
 14 13  1  0  0  0  0
 14 16  1  0  0  0  0
 17 14  1  0  0  0  0
 18 21  2  0  0  0  0
 18 22  1  0  0  0  0
 18 19  1  0  0  0  0
 20 18  2  0  0  0  0
 22 23  1  0  0  0  0
M  END
