Coordinates from ORCA-job 4-MeO-Ph-N2-HSO4-B3LYPG-6-31G_dp-MTMO-d009-169-n800
 OpenBabel09051907533D

 23 22  0  0  0  0  0  0  0  0999 V2000
    0.0436   -0.1737    0.2541 C   0  0  0  0  0  0  0  0  0  0  0  0
    1.4166    0.0871    0.1843 C   0  0  0  0  0  0  0  0  0  0  0  0
    1.8883    1.3390    0.5582 C   0  0  0  0  0  0  0  0  0  0  0  0
    1.0216    2.3097    1.0679 C   0  0  0  0  0  0  0  0  0  0  0  0
   -0.3371    2.0461    1.1406 C   0  0  0  0  0  0  0  0  0  0  0  0
   -0.8405    0.8016    0.7268 C   0  0  0  0  0  0  0  0  0  0  0  0
   -0.3148   -1.1453   -0.0623 H   0  0  0  0  0  0  0  0  0  0  0  0
    2.0839   -0.6764   -0.1922 H   0  0  0  0  0  0  0  0  0  0  0  0
    1.4240    3.2663    1.3822 H   0  0  0  0  0  0  0  0  0  0  0  0
   -1.0312    2.7896    1.5168 H   0  0  0  0  0  0  0  0  0  0  0  0
    1.8189    2.3209   -1.7638 N   0  0  0  0  0  0  0  0  0  0  0  0
    0.9594    2.3514   -2.4603 N   0  0  0  0  0  0  0  0  0  0  0  0
   -2.1901    0.6447    0.8332 O   0  0  0  0  0  0  0  0  0  0  0  0
   -2.7566   -0.5922    0.4266 C   0  0  0  0  0  0  0  0  0  0  0  0
   -3.8309   -0.5006    0.5950 H   0  0  0  0  0  0  0  0  0  0  0  0
   -2.3692   -1.4296    1.0207 H   0  0  0  0  0  0  0  0  0  0  0  0
   -2.5725   -0.7904   -0.6369 H   0  0  0  0  0  0  0  0  0  0  0  0
    4.4610    0.8448   -0.0359 S   0  0  0  0  0  0  0  0  0  0  0  0
    3.2463    1.7188    0.6003 O   0  0  0  0  0  0  0  0  0  0  0  0
    4.0852    0.2523   -1.2990 O   0  0  0  0  0  0  0  0  0  0  0  0
    5.6237    1.6869    0.1449 O   0  0  0  0  0  0  0  0  0  0  0  0
    4.5417   -0.3987    1.0134 O   0  0  0  0  0  0  0  0  0  0  0  0
    5.0134   -0.0918    1.8067 H   0  0  0  0  0  0  0  0  0  0  0  0
  1  6  1  0  0  0  0
  2  1  2  0  0  0  0
  2  3  1  0  0  0  0
  3 19  1  0  0  0  0
  3  4  2  0  0  0  0
  4  5  1  0  0  0  0
  4  9  1  0  0  0  0
  5 10  1  0  0  0  0
  6 13  1  0  0  0  0
  6  5  2  0  0  0  0
  7  1  1  0  0  0  0
  8  2  1  0  0  0  0
 12 11  3  0  0  0  0
 14 15  1  0  0  0  0
 14 13  1  0  0  0  0
 14 16  1  0  0  0  0
 17 14  1  0  0  0  0
 18 21  2  0  0  0  0
 18 19  1  0  0  0  0
 18 22  1  0  0  0  0
 20 18  2  0  0  0  0
 22 23  1  0  0  0  0
M  END
