Coordinates from ORCA-job 4-MeO-Ph-N2-HSO4-B3LYPG-6-31G_dp-MTMO-d009-169-n800
 OpenBabel09051907533D

 23 23  0  0  1  0  0  0  0  0999 V2000
    0.2185    0.1444    0.4295 C   0  0  0  0  0  0  0  0  0  0  0  0
    1.5078    0.5358   -0.1823 C   0  0  1  0  0  0  0  0  0  0  0  0
    1.5309    1.9487   -0.8716 C   0  0  0  0  0  0  0  0  0  0  0  0
    0.3786    2.8432   -0.5561 C   0  0  0  0  0  0  0  0  0  0  0  0
   -0.6907    2.4088    0.1260 C   0  0  0  0  0  0  0  0  0  0  0  0
   -0.7885    1.0308    0.5987 C   0  0  0  0  0  0  0  0  0  0  0  0
    0.1546   -0.8841    0.7612 H   0  0  0  0  0  0  0  0  0  0  0  0
    1.8626   -0.2035   -0.9051 H   0  0  0  0  0  0  0  0  0  0  0  0
    0.4645    3.8630   -0.9178 H   0  0  0  0  0  0  0  0  0  0  0  0
   -1.5247    3.0676    0.3427 H   0  0  0  0  0  0  0  0  0  0  0  0
    2.3066    2.1960   -1.3803 N   0  0  0  0  0  0  0  0  0  0  0  0
    3.2829    2.4628   -1.9829 N   0  0  0  0  0  0  0  0  0  0  0  0
   -1.9850    0.7746    1.1770 O   0  0  0  0  0  0  0  0  0  0  0  0
   -2.2052   -0.5321    1.6998 C   0  0  0  0  0  0  0  0  0  0  0  0
   -3.2044   -0.5173    2.1352 H   0  0  0  0  0  0  0  0  0  0  0  0
   -1.4673   -0.7760    2.4725 H   0  0  0  0  0  0  0  0  0  0  0  0
   -2.1611   -1.2867    0.9054 H   0  0  0  0  0  0  0  0  0  0  0  0
    3.8234   -0.3712    0.8050 S   0  0  0  0  0  0  0  0  0  0  0  0
    3.3559   -1.7278    0.6050 O   0  0  0  0  0  0  0  0  0  0  0  0
    2.5596    0.6510    0.8730 O   0  0  0  0  0  0  0  0  0  0  0  0
    4.6804    0.0243    1.9022 O   0  0  0  0  0  0  0  0  0  0  0  0
    4.4986    0.0384   -0.6183 O   0  0  0  0  0  0  0  0  0  0  0  0
    4.7867    0.9703   -0.5976 H   0  0  0  0  0  0  0  0  0  0  0  0
  1  6  1  0  0  0  0
  1  7  1  0  0  0  0
  2  8  1  6  0  0  0
  2  1  1  0  0  0  0
  2 20  1  0  0  0  0
  3  4  2  0  0  0  0
  3  2  1  0  0  0  0
  4  5  1  0  0  0  0
  5 10  1  0  0  0  0
  5  6  2  0  0  0  0
  6 13  1  0  0  0  0
  9  4  1  0  0  0  0
 11  3  1  0  0  0  0
 12 11  1  0  0  0  0
 13 14  1  0  0  0  0
 14 15  1  0  0  0  0
 14 16  1  0  0  0  0
 17 14  1  0  0  0  0
 18 20  1  0  0  0  0
 18 21  2  0  0  0  0
 19 18  2  0  0  0  0
 22 23  1  0  0  0  0
 22 18  1  0  0  0  0
M  RAD  3   1   2  11   2  12   3
M  END
