Coordinates from ORCA-job 4-MeO-Ph-N2-HSO4-B3LYPG-6-31G_dp-MTMO-d009-169-n800
 OpenBabel09051907533D

 23 22  0  0  0  0  0  0  0  0999 V2000
   -0.6474   -0.5308    0.8725 C   0  0  0  0  0  0  0  0  0  0  0  0
    0.5923    0.1115    0.8195 C   0  0  0  0  0  0  0  0  0  0  0  0
    0.7044    1.4239    1.2565 C   0  0  0  0  0  0  0  0  0  0  0  0
   -0.3989    2.1214    1.7490 C   0  0  0  0  0  0  0  0  0  0  0  0
   -1.6315    1.4860    1.8006 C   0  0  0  0  0  0  0  0  0  0  0  0
   -1.7647    0.1578    1.3627 C   0  0  0  0  0  0  0  0  0  0  0  0
   -0.7259   -1.5556    0.5323 H   0  0  0  0  0  0  0  0  0  0  0  0
    1.4672   -0.4071    0.4439 H   0  0  0  0  0  0  0  0  0  0  0  0
   -0.2836    3.1466    2.0807 H   0  0  0  0  0  0  0  0  0  0  0  0
   -2.5108    1.9977    2.1765 H   0  0  0  0  0  0  0  0  0  0  0  0
   14.0826    0.5624   -5.4226 N   0  0  0  0  0  0  0  0  0  0  0  0
   13.0409    0.4548   -5.0689 N   0  0  0  0  0  0  0  0  0  0  0  0
   -3.0169   -0.3690    1.4572 O   0  0  0  0  0  0  0  0  0  0  0  0
   -3.2243   -1.7010    1.0107 C   0  0  0  0  0  0  0  0  0  0  0  0
   -4.2839   -1.9083    1.1664 H   0  0  0  0  0  0  0  0  0  0  0  0
   -2.6286   -2.4189    1.5882 H   0  0  0  0  0  0  0  0  0  0  0  0
   -2.9869   -1.8106   -0.0553 H   0  0  0  0  0  0  0  0  0  0  0  0
    2.4029    2.9960    0.0203 S   0  0  0  0  0  0  0  0  0  0  0  0
    1.9782    2.0324    1.2764 O   0  0  0  0  0  0  0  0  0  0  0  0
    1.2696    3.7806   -0.4137 O   0  0  0  0  0  0  0  0  0  0  0  0
    3.6773    3.5625    0.4132 O   0  0  0  0  0  0  0  0  0  0  0  0
    2.6708    1.8995   -1.1572 O   0  0  0  0  0  0  0  0  0  0  0  0
    3.6022    1.6289   -1.0877 H   0  0  0  0  0  0  0  0  0  0  0  0
  1  6  1  0  0  0  0
  2  1  2  0  0  0  0
  2  3  1  0  0  0  0
  3 19  1  0  0  0  0
  3  4  2  0  0  0  0
  4  5  1  0  0  0  0
  4  9  1  0  0  0  0
  5 10  1  0  0  0  0
  6 13  1  0  0  0  0
  6  5  2  0  0  0  0
  7  1  1  0  0  0  0
  8  2  1  0  0  0  0
 11 12  3  0  0  0  0
 14 15  1  0  0  0  0
 14 13  1  0  0  0  0
 14 16  1  0  0  0  0
 17 14  1  0  0  0  0
 18 21  2  0  0  0  0
 18 19  1  0  0  0  0
 20 18  2  0  0  0  0
 22 23  1  0  0  0  0
 22 18  1  0  0  0  0
M  END
