Coordinates from ORCA-job 4-MeO-Ph-N2-HSO4-B3LYPG-6-31G_dp-MTMO-d009-169-n800
 OpenBabel09051907533D

 23 22  0  0  0  0  0  0  0  0999 V2000
   -0.5910   -0.5316    0.8475 C   0  0  0  0  0  0  0  0  0  0  0  0
    0.6485    0.1112    0.7944 C   0  0  0  0  0  0  0  0  0  0  0  0
    0.7603    1.4234    1.2319 C   0  0  0  0  0  0  0  0  0  0  0  0
   -0.3430    2.1204    1.7250 C   0  0  0  0  0  0  0  0  0  0  0  0
   -1.5755    1.4845    1.7769 C   0  0  0  0  0  0  0  0  0  0  0  0
   -1.7083    0.1565    1.3384 C   0  0  0  0  0  0  0  0  0  0  0  0
   -0.6693   -1.5563    0.5069 H   0  0  0  0  0  0  0  0  0  0  0  0
    1.5234   -0.4070    0.4183 H   0  0  0  0  0  0  0  0  0  0  0  0
   -0.2280    3.1455    2.0572 H   0  0  0  0  0  0  0  0  0  0  0  0
   -2.4547    1.9957    2.1532 H   0  0  0  0  0  0  0  0  0  0  0  0
   13.4955    0.5690   -5.1642 N   0  0  0  0  0  0  0  0  0  0  0  0
   12.4537    0.4613   -4.8109 N   0  0  0  0  0  0  0  0  0  0  0  0
   -2.9603   -0.3708    1.4332 O   0  0  0  0  0  0  0  0  0  0  0  0
   -3.1675   -1.7027    0.9861 C   0  0  0  0  0  0  0  0  0  0  0  0
   -4.2270   -1.9103    1.1420 H   0  0  0  0  0  0  0  0  0  0  0  0
   -2.5714   -2.4206    1.5630 H   0  0  0  0  0  0  0  0  0  0  0  0
   -2.9303   -1.8117   -0.0800 H   0  0  0  0  0  0  0  0  0  0  0  0
    2.4578    2.9966   -0.0043 S   0  0  0  0  0  0  0  0  0  0  0  0
    2.0339    2.0324    1.2516 O   0  0  0  0  0  0  0  0  0  0  0  0
    1.3240    3.7812   -0.4374 O   0  0  0  0  0  0  0  0  0  0  0  0
    3.7322    3.5632    0.3883 O   0  0  0  0  0  0  0  0  0  0  0  0
    2.7252    1.9009   -1.1826 O   0  0  0  0  0  0  0  0  0  0  0  0
    3.6566    1.6299   -1.1133 H   0  0  0  0  0  0  0  0  0  0  0  0
  1  6  1  0  0  0  0
  2  1  2  0  0  0  0
  2  3  1  0  0  0  0
  3 19  1  0  0  0  0
  3  4  2  0  0  0  0
  4  5  1  0  0  0  0
  4  9  1  0  0  0  0
  5 10  1  0  0  0  0
  6 13  1  0  0  0  0
  6  5  2  0  0  0  0
  7  1  1  0  0  0  0
  8  2  1  0  0  0  0
 11 12  3  0  0  0  0
 14 15  1  0  0  0  0
 14 13  1  0  0  0  0
 14 16  1  0  0  0  0
 17 14  1  0  0  0  0
 18 21  2  0  0  0  0
 18 19  1  0  0  0  0
 20 18  2  0  0  0  0
 22 23  1  0  0  0  0
 22 18  1  0  0  0  0
M  END
