Coordinates from ORCA-job 4-MeO-Ph-N2-HSO4-B3LYPG-6-31G_dp-MTMO-d009-169-n800
 OpenBabel09051907533D

 23 22  0  0  0  0  0  0  0  0999 V2000
   -0.5259   -0.5328    0.8201 C   0  0  0  0  0  0  0  0  0  0  0  0
    0.7139    0.1093    0.7675 C   0  0  0  0  0  0  0  0  0  0  0  0
    0.8258    1.4221    1.2035 C   0  0  0  0  0  0  0  0  0  0  0  0
   -0.2778    2.1201    1.6946 C   0  0  0  0  0  0  0  0  0  0  0  0
   -1.5106    1.4848    1.7459 C   0  0  0  0  0  0  0  0  0  0  0  0
   -1.6435    0.1562    1.3089 C   0  0  0  0  0  0  0  0  0  0  0  0
   -0.6042   -1.5580    0.4807 H   0  0  0  0  0  0  0  0  0  0  0  0
    1.5890   -0.4096    0.3930 H   0  0  0  0  0  0  0  0  0  0  0  0
   -0.1628    3.1456    2.0256 H   0  0  0  0  0  0  0  0  0  0  0  0
   -2.3901    1.9968    2.1206 H   0  0  0  0  0  0  0  0  0  0  0  0
   12.8060    0.5822   -4.8647 N   0  0  0  0  0  0  0  0  0  0  0  0
   11.7640    0.4790   -4.5108 N   0  0  0  0  0  0  0  0  0  0  0  0
   -2.8958   -0.3704    1.4030 O   0  0  0  0  0  0  0  0  0  0  0  0
   -3.1029   -1.7028    0.9574 C   0  0  0  0  0  0  0  0  0  0  0  0
   -4.1627   -1.9099    1.1125 H   0  0  0  0  0  0  0  0  0  0  0  0
   -2.5077   -2.4202    1.5360 H   0  0  0  0  0  0  0  0  0  0  0  0
   -2.8648   -1.8133   -0.1083 H   0  0  0  0  0  0  0  0  0  0  0  0
    2.5252    2.9932   -0.0327 S   0  0  0  0  0  0  0  0  0  0  0  0
    2.0996    2.0305    1.2239 O   0  0  0  0  0  0  0  0  0  0  0  0
    1.3923    3.7778   -0.4678 O   0  0  0  0  0  0  0  0  0  0  0  0
    3.7996    3.5596    0.3606 O   0  0  0  0  0  0  0  0  0  0  0  0
    2.7934    1.8959   -1.2094 O   0  0  0  0  0  0  0  0  0  0  0  0
    3.7246    1.6247   -1.1391 H   0  0  0  0  0  0  0  0  0  0  0  0
  1  6  1  0  0  0  0
  2  1  2  0  0  0  0
  2  3  1  0  0  0  0
  3 19  1  0  0  0  0
  3  4  2  0  0  0  0
  4  5  1  0  0  0  0
  4  9  1  0  0  0  0
  5 10  1  0  0  0  0
  6 13  1  0  0  0  0
  6  5  2  0  0  0  0
  7  1  1  0  0  0  0
  8  2  1  0  0  0  0
 11 12  3  0  0  0  0
 14 15  1  0  0  0  0
 14 13  1  0  0  0  0
 14 16  1  0  0  0  0
 17 14  1  0  0  0  0
 18 21  2  0  0  0  0
 18 19  1  0  0  0  0
 20 18  2  0  0  0  0
 22 23  1  0  0  0  0
 22 18  1  0  0  0  0
M  END
