Coordinates from ORCA-job 4-MeO-Ph-N2-HSO4-B3LYPG-6-31G_dp-MTMO-d009-169-n800
 OpenBabel09051907533D

 23 22  0  0  0  0  0  0  0  0999 V2000
   -0.4239   -0.5372    0.7748 C   0  0  0  0  0  0  0  0  0  0  0  0
    0.8200    0.0966    0.7184 C   0  0  0  0  0  0  0  0  0  0  0  0
    0.9411    1.4101    1.1494 C   0  0  0  0  0  0  0  0  0  0  0  0
   -0.1573    2.1173    1.6389 C   0  0  0  0  0  0  0  0  0  0  0  0
   -1.3942    1.4904    1.6940 C   0  0  0  0  0  0  0  0  0  0  0  0
   -1.5363    0.1611    1.2623 C   0  0  0  0  0  0  0  0  0  0  0  0
   -0.5094   -1.5631    0.4395 H   0  0  0  0  0  0  0  0  0  0  0  0
    1.6913   -0.4297    0.3450 H   0  0  0  0  0  0  0  0  0  0  0  0
   -0.0351    3.1433    1.9659 H   0  0  0  0  0  0  0  0  0  0  0  0
   -2.2698    2.0097    2.0677 H   0  0  0  0  0  0  0  0  0  0  0  0
   11.6447    0.6542   -4.3424 N   0  0  0  0  0  0  0  0  0  0  0  0
   10.6035    0.5535   -3.9854 N   0  0  0  0  0  0  0  0  0  0  0  0
   -2.7919   -0.3570    1.3600 O   0  0  0  0  0  0  0  0  0  0  0  0
   -3.0082   -1.6899    0.9205 C   0  0  0  0  0  0  0  0  0  0  0  0
   -4.0690   -1.8896    1.0783 H   0  0  0  0  0  0  0  0  0  0  0  0
   -2.4165   -2.4086    1.5011 H   0  0  0  0  0  0  0  0  0  0  0  0
   -2.7726   -1.8065   -0.1451 H   0  0  0  0  0  0  0  0  0  0  0  0
    2.6496    2.9661   -0.0939 S   0  0  0  0  0  0  0  0  0  0  0  0
    2.2190    2.0102    1.1663 O   0  0  0  0  0  0  0  0  0  0  0  0
    1.5207    3.7548   -0.5321 O   0  0  0  0  0  0  0  0  0  0  0  0
    3.9267    3.5275    0.2977 O   0  0  0  0  0  0  0  0  0  0  0  0
    2.9120    1.8634   -1.2666 O   0  0  0  0  0  0  0  0  0  0  0  0
    3.8406    1.5841   -1.1932 H   0  0  0  0  0  0  0  0  0  0  0  0
  1  6  1  0  0  0  0
  2  1  2  0  0  0  0
  2  3  1  0  0  0  0
  3 19  1  0  0  0  0
  3  4  2  0  0  0  0
  4  5  1  0  0  0  0
  4  9  1  0  0  0  0
  5 10  1  0  0  0  0
  6 13  1  0  0  0  0
  6  5  2  0  0  0  0
  7  1  1  0  0  0  0
  8  2  1  0  0  0  0
 11 12  3  0  0  0  0
 14 15  1  0  0  0  0
 14 13  1  0  0  0  0
 14 16  1  0  0  0  0
 17 14  1  0  0  0  0
 18 21  2  0  0  0  0
 18 19  1  0  0  0  0
 20 18  2  0  0  0  0
 22 23  1  0  0  0  0
 22 18  1  0  0  0  0
M  END
