Coordinates from ORCA-job 4-MeO-Ph-N2-HSO4-B3LYPG-6-31G_dp-MTMO-d009-169-n800
 OpenBabel09051907533D

 23 22  0  0  0  0  0  0  0  0999 V2000
   -0.5546   -0.5324    0.8321 C   0  0  0  0  0  0  0  0  0  0  0  0
    0.6844    0.1111    0.7793 C   0  0  0  0  0  0  0  0  0  0  0  0
    0.7954    1.4234    1.2167 C   0  0  0  0  0  0  0  0  0  0  0  0
   -0.3085    2.1199    1.7093 C   0  0  0  0  0  0  0  0  0  0  0  0
   -1.5406    1.4833    1.7608 C   0  0  0  0  0  0  0  0  0  0  0  0
   -1.6726    0.1551    1.3225 C   0  0  0  0  0  0  0  0  0  0  0  0
   -0.6322   -1.5572    0.4917 H   0  0  0  0  0  0  0  0  0  0  0  0
    1.5598   -0.4067    0.4036 H   0  0  0  0  0  0  0  0  0  0  0  0
   -0.1942    3.1451    2.0413 H   0  0  0  0  0  0  0  0  0  0  0  0
   -2.4203    1.9942    2.1367 H   0  0  0  0  0  0  0  0  0  0  0  0
   13.1255    0.5683   -5.0024 N   0  0  0  0  0  0  0  0  0  0  0  0
   12.0832    0.4634   -4.6501 N   0  0  0  0  0  0  0  0  0  0  0  0
   -2.9243   -0.3728    1.4168 O   0  0  0  0  0  0  0  0  0  0  0  0
   -3.1306   -1.7048    0.9698 C   0  0  0  0  0  0  0  0  0  0  0  0
   -4.1900   -1.9130    1.1253 H   0  0  0  0  0  0  0  0  0  0  0  0
   -2.5343   -2.4224    1.5470 H   0  0  0  0  0  0  0  0  0  0  0  0
   -2.8930   -1.8138   -0.0962 H   0  0  0  0  0  0  0  0  0  0  0  0
    2.4918    2.9993   -0.0180 S   0  0  0  0  0  0  0  0  0  0  0  0
    2.0688    2.0329    1.2366 O   0  0  0  0  0  0  0  0  0  0  0  0
    1.3578    3.7846   -0.4490 O   0  0  0  0  0  0  0  0  0  0  0  0
    3.7663    3.5656    0.3749 O   0  0  0  0  0  0  0  0  0  0  0  0
    2.7582    1.9057   -1.1984 O   0  0  0  0  0  0  0  0  0  0  0  0
    3.6887    1.6319   -1.1293 H   0  0  0  0  0  0  0  0  0  0  0  0
  1  6  1  0  0  0  0
  2  1  2  0  0  0  0
  2  3  1  0  0  0  0
  3 19  1  0  0  0  0
  3  4  2  0  0  0  0
  4  5  1  0  0  0  0
  4  9  1  0  0  0  0
  5 10  1  0  0  0  0
  6 13  1  0  0  0  0
  6  5  2  0  0  0  0
  7  1  1  0  0  0  0
  8  2  1  0  0  0  0
 11 12  3  0  0  0  0
 14 15  1  0  0  0  0
 14 13  1  0  0  0  0
 14 16  1  0  0  0  0
 17 14  1  0  0  0  0
 18 21  2  0  0  0  0
 18 19  1  0  0  0  0
 20 18  2  0  0  0  0
 22 23  1  0  0  0  0
 22 18  1  0  0  0  0
M  END
