Coordinates from ORCA-job 4-MeO-Ph-N2-HSO4-B3LYPG-6-31G_dp-MTMO-d009-169-n800
 OpenBabel09051907533D

 23 22  0  0  0  0  0  0  0  0999 V2000
   -0.5262   -0.5329    0.8202 C   0  0  0  0  0  0  0  0  0  0  0  0
    0.7131    0.1101    0.7676 C   0  0  0  0  0  0  0  0  0  0  0  0
    0.8242    1.4227    1.2042 C   0  0  0  0  0  0  0  0  0  0  0  0
   -0.2797    2.1198    1.6958 C   0  0  0  0  0  0  0  0  0  0  0  0
   -1.5120    1.4836    1.7471 C   0  0  0  0  0  0  0  0  0  0  0  0
   -1.6442    0.1552    1.3095 C   0  0  0  0  0  0  0  0  0  0  0  0
   -0.6039   -1.5579    0.4803 H   0  0  0  0  0  0  0  0  0  0  0  0
    1.5885   -0.4081    0.3926 H   0  0  0  0  0  0  0  0  0  0  0  0
   -0.1654    3.1452    2.0273 H   0  0  0  0  0  0  0  0  0  0  0  0
   -2.3918    1.9949    2.1223 H   0  0  0  0  0  0  0  0  0  0  0  0
   12.8229    0.5744   -4.8709 N   0  0  0  0  0  0  0  0  0  0  0  0
   11.7804    0.4721   -4.5184 N   0  0  0  0  0  0  0  0  0  0  0  0
   -2.8961   -0.3724    1.4036 O   0  0  0  0  0  0  0  0  0  0  0  0
   -3.1025   -1.7046    0.9573 C   0  0  0  0  0  0  0  0  0  0  0  0
   -4.1621   -1.9125    1.1125 H   0  0  0  0  0  0  0  0  0  0  0  0
   -2.5066   -2.4220    1.5353 H   0  0  0  0  0  0  0  0  0  0  0  0
   -2.8644   -1.8144   -0.1085 H   0  0  0  0  0  0  0  0  0  0  0  0
    2.5216    2.9974   -0.0306 S   0  0  0  0  0  0  0  0  0  0  0  0
    2.0978    2.0318    1.2243 O   0  0  0  0  0  0  0  0  0  0  0  0
    1.3880    3.7828   -0.4626 O   0  0  0  0  0  0  0  0  0  0  0  0
    3.7961    3.5636    0.3626 O   0  0  0  0  0  0  0  0  0  0  0  0
    2.7884    1.9031   -1.2102 O   0  0  0  0  0  0  0  0  0  0  0  0
    3.7187    1.6288   -1.1404 H   0  0  0  0  0  0  0  0  0  0  0  0
  1  6  1  0  0  0  0
  2  1  2  0  0  0  0
  2  3  1  0  0  0  0
  3 19  1  0  0  0  0
  3  4  2  0  0  0  0
  4  5  1  0  0  0  0
  4  9  1  0  0  0  0
  5 10  1  0  0  0  0
  6 13  1  0  0  0  0
  6  5  2  0  0  0  0
  7  1  1  0  0  0  0
  8  2  1  0  0  0  0
 11 12  3  0  0  0  0
 14 15  1  0  0  0  0
 14 13  1  0  0  0  0
 14 16  1  0  0  0  0
 17 14  1  0  0  0  0
 18 21  2  0  0  0  0
 18 19  1  0  0  0  0
 20 18  2  0  0  0  0
 22 23  1  0  0  0  0
 22 18  1  0  0  0  0
M  END
