Coordinates from ORCA-job 4-MeO-Ph-N2-HSO4-B3LYPG-6-31G_dp-MTMO-d009-169-n800
 OpenBabel09051907533D

 23 22  0  0  0  0  0  0  0  0999 V2000
   -0.1861   -0.5702    0.6972 C   0  0  0  0  0  0  0  0  0  0  0  0
    1.0951   -0.0152    0.6440 C   0  0  0  0  0  0  0  0  0  0  0  0
    1.2805    1.3151    0.9931 C   0  0  0  0  0  0  0  0  0  0  0  0
    0.2121    2.1167    1.3946 C   0  0  0  0  0  0  0  0  0  0  0  0
   -1.0613    1.5675    1.4476 C   0  0  0  0  0  0  0  0  0  0  0  0
   -1.2690    0.2222    1.0999 C   0  0  0  0  0  0  0  0  0  0  0  0
   -0.3238   -1.6093    0.4253 H   0  0  0  0  0  0  0  0  0  0  0  0
    1.9452   -0.6132    0.3349 H   0  0  0  0  0  0  0  0  0  0  0  0
    0.3863    3.1535    1.6585 H   0  0  0  0  0  0  0  0  0  0  0  0
   -1.9154    2.1606    1.7557 H   0  0  0  0  0  0  0  0  0  0  0  0
    8.0345    1.3671   -2.9653 N   0  0  0  0  0  0  0  0  0  0  0  0
    7.0708    1.2889   -2.4297 N   0  0  0  0  0  0  0  0  0  0  0  0
   -2.5558   -0.2151    1.1902 O   0  0  0  0  0  0  0  0  0  0  0  0
   -2.8362   -1.5638    0.8453 C   0  0  0  0  0  0  0  0  0  0  0  0
   -3.9100   -1.6934    0.9886 H   0  0  0  0  0  0  0  0  0  0  0  0
   -2.2989   -2.2672    1.4937 H   0  0  0  0  0  0  0  0  0  0  0  0
   -2.5831   -1.7741   -0.2016 H   0  0  0  0  0  0  0  0  0  0  0  0
    3.1515    2.6374   -0.2997 S   0  0  0  0  0  0  0  0  0  0  0  0
    2.5908    1.8423    1.0195 O   0  0  0  0  0  0  0  0  0  0  0  0
    2.0627    3.3228   -0.9597 O   0  0  0  0  0  0  0  0  0  0  0  0
    4.3633    3.2942    0.1499 O   0  0  0  0  0  0  0  0  0  0  0  0
    3.5835    1.3999   -1.2698 O   0  0  0  0  0  0  0  0  0  0  0  0
    4.5482    1.2938   -1.1910 H   0  0  0  0  0  0  0  0  0  0  0  0
  1  6  1  0  0  0  0
  2  1  2  0  0  0  0
  2  3  1  0  0  0  0
  3 19  1  0  0  0  0
  3  4  2  0  0  0  0
  4  5  1  0  0  0  0
  4  9  1  0  0  0  0
  5 10  1  0  0  0  0
  6 13  1  0  0  0  0
  6  5  2  0  0  0  0
  7  1  1  0  0  0  0
  8  2  1  0  0  0  0
 11 12  3  0  0  0  0
 14 15  1  0  0  0  0
 14 13  1  0  0  0  0
 14 16  1  0  0  0  0
 17 14  1  0  0  0  0
 18 21  2  0  0  0  0
 18 19  1  0  0  0  0
 20 18  2  0  0  0  0
 22 23  1  0  0  0  0
 22 18  1  0  0  0  0
M  END
