Coordinates from ORCA-job 4-MeO-Ph-N2-HSO4-B3LYPG-6-31G_dp-MTMO-d009-169-n800
 OpenBabel09051907533D

 23 22  0  0  0  0  0  0  0  0999 V2000
   -0.2123   -0.5554    0.7066 C   0  0  0  0  0  0  0  0  0  0  0  0
    1.0500    0.0415    0.6576 C   0  0  0  0  0  0  0  0  0  0  0  0
    1.1976    1.3669    1.0416 C   0  0  0  0  0  0  0  0  0  0  0  0
    0.1079    2.1225    1.4751 C   0  0  0  0  0  0  0  0  0  0  0  0
   -1.1471    1.5323    1.5224 C   0  0  0  0  0  0  0  0  0  0  0  0
   -1.3160    0.1913    1.1390 C   0  0  0  0  0  0  0  0  0  0  0  0
   -0.3191   -1.5908    0.4083 H   0  0  0  0  0  0  0  0  0  0  0  0
    1.9150   -0.5221    0.3264 H   0  0  0  0  0  0  0  0  0  0  0  0
    0.2513    3.1566    1.7659 H   0  0  0  0  0  0  0  0  0  0  0  0
   -2.0165    2.0896    1.8537 H   0  0  0  0  0  0  0  0  0  0  0  0
    8.9889    0.9494   -3.3020 N   0  0  0  0  0  0  0  0  0  0  0  0
    7.9760    0.8929   -2.8634 N   0  0  0  0  0  0  0  0  0  0  0  0
   -2.5876   -0.2883    1.2262 O   0  0  0  0  0  0  0  0  0  0  0  0
   -2.8297   -1.6334    0.8400 C   0  0  0  0  0  0  0  0  0  0  0  0
   -3.8984   -1.7991    0.9831 H   0  0  0  0  0  0  0  0  0  0  0  0
   -2.2689   -2.3405    1.4640 H   0  0  0  0  0  0  0  0  0  0  0  0
   -2.5751   -1.8026   -0.2140 H   0  0  0  0  0  0  0  0  0  0  0  0
    2.9812    2.8304   -0.2108 S   0  0  0  0  0  0  0  0  0  0  0  0
    2.4916    1.9311    1.0695 O   0  0  0  0  0  0  0  0  0  0  0  0
    1.8803    3.6173   -0.7182 O   0  0  0  0  0  0  0  0  0  0  0  0
    4.2523    3.3891    0.2037 O   0  0  0  0  0  0  0  0  0  0  0  0
    3.2686    1.6796   -1.3298 O   0  0  0  0  0  0  0  0  0  0  0  0
    4.1948    1.4023   -1.2237 H   0  0  0  0  0  0  0  0  0  0  0  0
  1  6  1  0  0  0  0
  2  1  2  0  0  0  0
  2  3  1  0  0  0  0
  3 19  1  0  0  0  0
  3  4  2  0  0  0  0
  4  5  1  0  0  0  0
  4  9  1  0  0  0  0
  5 10  1  0  0  0  0
  6 13  1  0  0  0  0
  6  5  2  0  0  0  0
  7  1  1  0  0  0  0
  8  2  1  0  0  0  0
 11 12  3  0  0  0  0
 14 15  1  0  0  0  0
 14 13  1  0  0  0  0
 14 16  1  0  0  0  0
 17 14  1  0  0  0  0
 18 21  2  0  0  0  0
 18 19  1  0  0  0  0
 20 18  2  0  0  0  0
 22 23  1  0  0  0  0
 22 18  1  0  0  0  0
M  END
