Coordinates from ORCA-job 4-MeO-Ph-N2-HSO4-B3LYPG-6-31G_dp-MTMO-d009-169-n800
 OpenBabel09051907533D

 23 22  0  0  0  0  0  0  0  0999 V2000
   -0.0264   -0.4106    0.7573 C   0  0  0  0  0  0  0  0  0  0  0  0
    1.3486   -0.1851    0.8622 C   0  0  0  0  0  0  0  0  0  0  0  0
    1.8278    1.1180    0.8806 C   0  0  0  0  0  0  0  0  0  0  0  0
    0.9623    2.2088    0.8151 C   0  0  0  0  0  0  0  0  0  0  0  0
   -0.4050    1.9854    0.7252 C   0  0  0  0  0  0  0  0  0  0  0  0
   -0.9087    0.6752    0.6899 C   0  0  0  0  0  0  0  0  0  0  0  0
   -0.3910   -1.4300    0.7345 H   0  0  0  0  0  0  0  0  0  0  0  0
    2.0373   -1.0201    0.9230 H   0  0  0  0  0  0  0  0  0  0  0  0
    1.3673    3.2138    0.8364 H   0  0  0  0  0  0  0  0  0  0  0  0
   -1.1055    2.8118    0.6747 H   0  0  0  0  0  0  0  0  0  0  0  0
    2.3096    3.6642   -1.9036 N   0  0  0  0  0  0  0  0  0  0  0  0
    2.0628    3.5973   -2.9786 N   0  0  0  0  0  0  0  0  0  0  0  0
   -2.2634    0.5680    0.5917 O   0  0  0  0  0  0  0  0  0  0  0  0
   -2.8340   -0.7302    0.5301 C   0  0  0  0  0  0  0  0  0  0  0  0
   -3.9112   -0.5814    0.4414 H   0  0  0  0  0  0  0  0  0  0  0  0
   -2.6237   -1.3090    1.4393 H   0  0  0  0  0  0  0  0  0  0  0  0
   -2.4734   -1.2886   -0.3434 H   0  0  0  0  0  0  0  0  0  0  0  0
    4.2780    0.9532   -0.0860 S   0  0  0  0  0  0  0  0  0  0  0  0
    3.2010    1.3928    1.0649 O   0  0  0  0  0  0  0  0  0  0  0  0
    3.6481    0.9052   -1.3853 O   0  0  0  0  0  0  0  0  0  0  0  0
    5.4689    1.7219    0.2146 O   0  0  0  0  0  0  0  0  0  0  0  0
    4.5658   -0.6018    0.3227 O   0  0  0  0  0  0  0  0  0  0  0  0
    5.2496   -0.5982    1.0145 H   0  0  0  0  0  0  0  0  0  0  0  0
  1  2  2  0  0  0  0
  2  3  1  0  0  0  0
  2  8  1  0  0  0  0
  3 19  1  0  0  0  0
  4  9  1  0  0  0  0
  4  3  2  0  0  0  0
  5  4  1  0  0  0  0
  6  5  2  0  0  0  0
  6  1  1  0  0  0  0
  7  1  1  0  0  0  0
 10  5  1  0  0  0  0
 12 11  3  0  0  0  0
 13  6  1  0  0  0  0
 14 13  1  0  0  0  0
 14 16  1  0  0  0  0
 15 14  1  0  0  0  0
 17 14  1  0  0  0  0
 18 21  2  0  0  0  0
 18 22  1  0  0  0  0
 18 19  1  0  0  0  0
 20 18  2  0  0  0  0
 22 23  1  0  0  0  0
M  END
