Coordinates from ORCA-job 4-MeO-Ph-N2-HSO4-B3LYPG-6-31G_dp-MTMO-d009-169-n800
 OpenBabel09051907533D

 23 22  0  0  0  0  0  0  0  0999 V2000
   -0.1348   -0.4864    1.1057 C   0  0  0  0  0  0  0  0  0  0  0  0
    1.2321   -0.2158    1.2092 C   0  0  0  0  0  0  0  0  0  0  0  0
    1.7224    1.0107    0.7832 C   0  0  0  0  0  0  0  0  0  0  0  0
    0.8791    1.9858    0.2500 C   0  0  0  0  0  0  0  0  0  0  0  0
   -0.4787    1.7177    0.1460 C   0  0  0  0  0  0  0  0  0  0  0  0
   -0.9945    0.4818    0.5707 C   0  0  0  0  0  0  0  0  0  0  0  0
   -0.5108   -1.4440    1.4435 H   0  0  0  0  0  0  0  0  0  0  0  0
    1.9111   -0.9537    1.6212 H   0  0  0  0  0  0  0  0  0  0  0  0
    1.2895    2.9338   -0.0772 H   0  0  0  0  0  0  0  0  0  0  0  0
   -1.1648    2.4516   -0.2624 H   0  0  0  0  0  0  0  0  0  0  0  0
    3.0214    4.5845   -1.3994 N   0  0  0  0  0  0  0  0  0  0  0  0
    3.7977    4.9279   -2.1066 N   0  0  0  0  0  0  0  0  0  0  0  0
   -2.3394    0.3250    0.4228 O   0  0  0  0  0  0  0  0  0  0  0  0
   -2.9232   -0.9069    0.8204 C   0  0  0  0  0  0  0  0  0  0  0  0
   -3.9885   -0.8186    0.6017 H   0  0  0  0  0  0  0  0  0  0  0  0
   -2.7884   -1.0903    1.8940 H   0  0  0  0  0  0  0  0  0  0  0  0
   -2.5082   -1.7516    0.2564 H   0  0  0  0  0  0  0  0  0  0  0  0
    4.1304    1.0350   -0.2613 S   0  0  0  0  0  0  0  0  0  0  0  0
    3.0907    1.3066    0.9734 O   0  0  0  0  0  0  0  0  0  0  0  0
    3.5061    1.3558   -1.5248 O   0  0  0  0  0  0  0  0  0  0  0  0
    5.3850    1.6055    0.1874 O   0  0  0  0  0  0  0  0  0  0  0  0
    4.2661   -0.5904   -0.2263 O   0  0  0  0  0  0  0  0  0  0  0  0
    4.9846   -0.8033    0.3935 H   0  0  0  0  0  0  0  0  0  0  0  0
  1  2  1  0  0  0  0
  1  7  1  0  0  0  0
  2  8  1  0  0  0  0
  3 19  1  0  0  0  0
  3  2  2  0  0  0  0
  4  3  1  0  0  0  0
  5  4  2  0  0  0  0
  5  6  1  0  0  0  0
  6  1  2  0  0  0  0
  9  4  1  0  0  0  0
 10  5  1  0  0  0  0
 12 11  3  0  0  0  0
 13  6  1  0  0  0  0
 13 14  1  0  0  0  0
 14 16  1  0  0  0  0
 15 14  1  0  0  0  0
 17 14  1  0  0  0  0
 18 22  1  0  0  0  0
 18 21  2  0  0  0  0
 18 19  1  0  0  0  0
 20 18  2  0  0  0  0
 22 23  1  0  0  0  0
M  END
