Coordinates from ORCA-job 4-MeO-Ph-N2-HSO4-B3LYPG-6-31G_dp-MTMO-d009-169-n800
 OpenBabel09051907533D

 23 22  0  0  0  0  0  0  0  0999 V2000
   -0.4893   -0.5337    0.8054 C   0  0  0  0  0  0  0  0  0  0  0  0
    0.7507    0.1081    0.7535 C   0  0  0  0  0  0  0  0  0  0  0  0
    0.8625    1.4213    1.1878 C   0  0  0  0  0  0  0  0  0  0  0  0
   -0.2415    2.1204    1.6764 C   0  0  0  0  0  0  0  0  0  0  0  0
   -1.4745    1.4856    1.7269 C   0  0  0  0  0  0  0  0  0  0  0  0
   -1.6073    0.1565    1.2917 C   0  0  0  0  0  0  0  0  0  0  0  0
   -0.5675   -1.5592    0.4673 H   0  0  0  0  0  0  0  0  0  0  0  0
    1.6262   -0.4118    0.3809 H   0  0  0  0  0  0  0  0  0  0  0  0
   -0.1266    3.1463    2.0062 H   0  0  0  0  0  0  0  0  0  0  0  0
   -2.3543    1.9985    2.0998 H   0  0  0  0  0  0  0  0  0  0  0  0
   12.4178    0.5905   -4.6994 N   0  0  0  0  0  0  0  0  0  0  0  0
   11.3762    0.4911   -4.3431 N   0  0  0  0  0  0  0  0  0  0  0  0
   -2.8599   -0.3696    1.3848 O   0  0  0  0  0  0  0  0  0  0  0  0
   -3.0669   -1.7026    0.9409 C   0  0  0  0  0  0  0  0  0  0  0  0
   -4.1269   -1.9091    1.0949 H   0  0  0  0  0  0  0  0  0  0  0  0
   -2.4726   -2.4193    1.5213 H   0  0  0  0  0  0  0  0  0  0  0  0
   -2.8273   -1.8148   -0.1243 H   0  0  0  0  0  0  0  0  0  0  0  0
    2.5640    2.9908   -0.0480 S   0  0  0  0  0  0  0  0  0  0  0  0
    2.1366    2.0294    1.2090 O   0  0  0  0  0  0  0  0  0  0  0  0
    1.4318    3.7752   -0.4854 O   0  0  0  0  0  0  0  0  0  0  0  0
    3.8378    3.5574    0.3466 O   0  0  0  0  0  0  0  0  0  0  0  0
    2.8331    1.8925   -1.2233 O   0  0  0  0  0  0  0  0  0  0  0  0
    3.7628    1.6173   -1.1492 H   0  0  0  0  0  0  0  0  0  0  0  0
  1  6  1  0  0  0  0
  2  1  2  0  0  0  0
  2  3  1  0  0  0  0
  3 19  1  0  0  0  0
  3  4  2  0  0  0  0
  4  5  1  0  0  0  0
  4  9  1  0  0  0  0
  5 10  1  0  0  0  0
  6 13  1  0  0  0  0
  6  5  2  0  0  0  0
  7  1  1  0  0  0  0
  8  2  1  0  0  0  0
 11 12  3  0  0  0  0
 14 15  1  0  0  0  0
 14 13  1  0  0  0  0
 14 16  1  0  0  0  0
 17 14  1  0  0  0  0
 18 21  2  0  0  0  0
 18 19  1  0  0  0  0
 20 18  2  0  0  0  0
 22 23  1  0  0  0  0
 22 18  1  0  0  0  0
M  END
