Coordinates from ORCA-job 4-MeO-Ph-N2-HSO4-B3LYPG-6-31G_dp-MTMO-d009-169-n800
 OpenBabel09051907533D

 23 22  0  0  0  0  0  0  0  0999 V2000
   -0.1677   -0.5917    1.0925 C   0  0  0  0  0  0  0  0  0  0  0  0
    1.1987   -0.3307    1.2248 C   0  0  0  0  0  0  0  0  0  0  0  0
    1.6829    0.9420    0.9570 C   0  0  0  0  0  0  0  0  0  0  0  0
    0.8333    1.9725    0.5533 C   0  0  0  0  0  0  0  0  0  0  0  0
   -0.5232    1.7140    0.4174 C   0  0  0  0  0  0  0  0  0  0  0  0
   -1.0328    0.4321    0.6851 C   0  0  0  0  0  0  0  0  0  0  0  0
   -0.5385   -1.5855    1.3097 H   0  0  0  0  0  0  0  0  0  0  0  0
    1.8823   -1.1110    1.5395 H   0  0  0  0  0  0  0  0  0  0  0  0
    1.2389    2.9560    0.3454 H   0  0  0  0  0  0  0  0  0  0  0  0
   -1.2130    2.4900    0.1046 H   0  0  0  0  0  0  0  0  0  0  0  0
    3.5446    4.9866   -2.1434 N   0  0  0  0  0  0  0  0  0  0  0  0
    4.2285    4.6560   -2.9460 N   0  0  0  0  0  0  0  0  0  0  0  0
   -2.3772    0.2894    0.5217 O   0  0  0  0  0  0  0  0  0  0  0  0
   -2.9559   -0.9842    0.7649 C   0  0  0  0  0  0  0  0  0  0  0  0
   -4.0222   -0.8731    0.5626 H   0  0  0  0  0  0  0  0  0  0  0  0
   -2.8169   -1.2986    1.8072 H   0  0  0  0  0  0  0  0  0  0  0  0
   -2.5405   -1.7511    0.0989 H   0  0  0  0  0  0  0  0  0  0  0  0
    4.0688    1.2073   -0.1043 S   0  0  0  0  0  0  0  0  0  0  0  0
    3.0515    1.2108    1.1792 O   0  0  0  0  0  0  0  0  0  0  0  0
    3.4315    1.8136   -1.2516 O   0  0  0  0  0  0  0  0  0  0  0  0
    5.3391    1.6454    0.4382 O   0  0  0  0  0  0  0  0  0  0  0  0
    4.1732   -0.3857   -0.4372 O   0  0  0  0  0  0  0  0  0  0  0  0
    4.8994   -0.7431    0.1017 H   0  0  0  0  0  0  0  0  0  0  0  0
  1  2  1  0  0  0  0
  1  7  1  0  0  0  0
  2  8  1  0  0  0  0
  3 19  1  0  0  0  0
  3  2  2  0  0  0  0
  4  3  1  0  0  0  0
  5  4  2  0  0  0  0
  5  6  1  0  0  0  0
  6  1  2  0  0  0  0
  9  4  1  0  0  0  0
 10  5  1  0  0  0  0
 12 11  3  0  0  0  0
 13  6  1  0  0  0  0
 13 14  1  0  0  0  0
 14 16  1  0  0  0  0
 15 14  1  0  0  0  0
 17 14  1  0  0  0  0
 18 21  2  0  0  0  0
 18 19  1  0  0  0  0
 20 18  2  0  0  0  0
 22 18  1  0  0  0  0
 22 23  1  0  0  0  0
M  END
