Coordinates from ORCA-job 4-MeO-Ph-N2-HSO4-B3LYPG-6-31G_dp-MTMO-d009-169-n800
 OpenBabel09051907533D

 23 22  0  0  0  0  0  0  0  0999 V2000
   -0.4418   -0.5362    0.7832 C   0  0  0  0  0  0  0  0  0  0  0  0
    0.8010    0.0999    0.7281 C   0  0  0  0  0  0  0  0  0  0  0  0
    0.9193    1.4134    1.1601 C   0  0  0  0  0  0  0  0  0  0  0  0
   -0.1807    2.1182    1.6494 C   0  0  0  0  0  0  0  0  0  0  0  0
   -1.4165    1.4890    1.7032 C   0  0  0  0  0  0  0  0  0  0  0  0
   -1.5559    0.1597    1.2704 C   0  0  0  0  0  0  0  0  0  0  0  0
   -0.5253   -1.5620    0.4470 H   0  0  0  0  0  0  0  0  0  0  0  0
    1.6734   -0.4244    0.3549 H   0  0  0  0  0  0  0  0  0  0  0  0
   -0.0606    3.1441    1.9772 H   0  0  0  0  0  0  0  0  0  0  0  0
   -2.2933    2.0064    2.0767 H   0  0  0  0  0  0  0  0  0  0  0  0
   11.8584    0.6359   -4.4412 N   0  0  0  0  0  0  0  0  0  0  0  0
   10.8171    0.5352   -4.0844 N   0  0  0  0  0  0  0  0  0  0  0  0
   -2.8106   -0.3607    1.3669 O   0  0  0  0  0  0  0  0  0  0  0  0
   -3.0242   -1.6936    0.9260 C   0  0  0  0  0  0  0  0  0  0  0  0
   -4.0848   -1.8953    1.0827 H   0  0  0  0  0  0  0  0  0  0  0  0
   -2.4317   -2.4117    1.5065 H   0  0  0  0  0  0  0  0  0  0  0  0
   -2.7875   -1.8089   -0.1395 H   0  0  0  0  0  0  0  0  0  0  0  0
    2.6257    2.9733   -0.0811 S   0  0  0  0  0  0  0  0  0  0  0  0
    2.1961    2.0158    1.1782 O   0  0  0  0  0  0  0  0  0  0  0  0
    1.4959    3.7608   -0.5189 O   0  0  0  0  0  0  0  0  0  0  0  0
    3.9019    3.5362    0.3113 O   0  0  0  0  0  0  0  0  0  0  0  0
    2.8900    1.8719   -1.2546 O   0  0  0  0  0  0  0  0  0  0  0  0
    3.8189    1.5937   -1.1810 H   0  0  0  0  0  0  0  0  0  0  0  0
  1  6  1  0  0  0  0
  2  1  2  0  0  0  0
  2  3  1  0  0  0  0
  3 19  1  0  0  0  0
  3  4  2  0  0  0  0
  4  5  1  0  0  0  0
  4  9  1  0  0  0  0
  5 10  1  0  0  0  0
  6 13  1  0  0  0  0
  6  5  2  0  0  0  0
  7  1  1  0  0  0  0
  8  2  1  0  0  0  0
 11 12  3  0  0  0  0
 14 15  1  0  0  0  0
 14 13  1  0  0  0  0
 14 16  1  0  0  0  0
 17 14  1  0  0  0  0
 18 21  2  0  0  0  0
 18 19  1  0  0  0  0
 20 18  2  0  0  0  0
 22 23  1  0  0  0  0
 22 18  1  0  0  0  0
M  END
