Coordinates from ORCA-job 4-MeO-Ph-N2-HSO4-B3LYPG-6-31G_dp-MTMO-d009-169-n800
 OpenBabel09051907533D

 23 22  0  0  0  0  0  0  0  0999 V2000
   -0.0141   -0.3828    0.6871 C   0  0  0  0  0  0  0  0  0  0  0  0
    1.3617   -0.1524    0.7699 C   0  0  0  0  0  0  0  0  0  0  0  0
    1.8322    1.1521    0.8435 C   0  0  0  0  0  0  0  0  0  0  0  0
    0.9564    2.2368    0.8586 C   0  0  0  0  0  0  0  0  0  0  0  0
   -0.4113    2.0071    0.7934 C   0  0  0  0  0  0  0  0  0  0  0  0
   -0.9063    0.6966    0.7004 C   0  0  0  0  0  0  0  0  0  0  0  0
   -0.3710   -1.4029    0.6185 H   0  0  0  0  0  0  0  0  0  0  0  0
    2.0544   -0.9861    0.7726 H   0  0  0  0  0  0  0  0  0  0  0  0
    1.3550    3.2426    0.9244 H   0  0  0  0  0  0  0  0  0  0  0  0
   -1.1184    2.8293    0.8062 H   0  0  0  0  0  0  0  0  0  0  0  0
    2.2913    3.4841   -1.8915 N   0  0  0  0  0  0  0  0  0  0  0  0
    1.9218    3.4598   -2.9327 N   0  0  0  0  0  0  0  0  0  0  0  0
   -2.2624    0.5826    0.6306 O   0  0  0  0  0  0  0  0  0  0  0  0
   -2.8240   -0.7158    0.5154 C   0  0  0  0  0  0  0  0  0  0  0  0
   -3.9043   -0.5730    0.4622 H   0  0  0  0  0  0  0  0  0  0  0  0
   -2.5851   -1.3396    1.3870 H   0  0  0  0  0  0  0  0  0  0  0  0
   -2.4815   -1.2242   -0.3952 H   0  0  0  0  0  0  0  0  0  0  0  0
    4.2968    0.9266   -0.0947 S   0  0  0  0  0  0  0  0  0  0  0  0
    3.2044    1.4433    1.0074 O   0  0  0  0  0  0  0  0  0  0  0  0
    3.6856    0.7711   -1.3945 O   0  0  0  0  0  0  0  0  0  0  0  0
    5.4772    1.7261    0.1615 O   0  0  0  0  0  0  0  0  0  0  0  0
    4.5880   -0.5907    0.4351 O   0  0  0  0  0  0  0  0  0  0  0  0
    5.2382   -0.5298    1.1559 H   0  0  0  0  0  0  0  0  0  0  0  0
  1  6  2  0  0  0  0
  1  2  1  0  0  0  0
  2  8  1  0  0  0  0
  2  3  2  0  0  0  0
  3  4  1  0  0  0  0
  3 19  1  0  0  0  0
  4  9  1  0  0  0  0
  5 10  1  0  0  0  0
  5  4  2  0  0  0  0
  6  5  1  0  0  0  0
  7  1  1  0  0  0  0
 12 11  3  0  0  0  0
 13  6  1  0  0  0  0
 14 13  1  0  0  0  0
 14 16  1  0  0  0  0
 15 14  1  0  0  0  0
 17 14  1  0  0  0  0
 18 21  2  0  0  0  0
 18 22  1  0  0  0  0
 18 19  1  0  0  0  0
 20 18  2  0  0  0  0
 22 23  1  0  0  0  0
M  END
