Coordinates from ORCA-job 4-MeO-Ph-N2-HSO4-B3LYPG-6-31G_dp-MTMO-d009-169-n800
 OpenBabel09051907533D

 23 22  0  0  0  0  0  0  0  0999 V2000
   -0.3514   -0.5416    0.7417 C   0  0  0  0  0  0  0  0  0  0  0  0
    0.8974    0.0818    0.6804 C   0  0  0  0  0  0  0  0  0  0  0  0
    1.0298    1.3961    1.1059 C   0  0  0  0  0  0  0  0  0  0  0  0
   -0.0620    2.1141    1.5945 C   0  0  0  0  0  0  0  0  0  0  0  0
   -1.3037    1.4974    1.6543 C   0  0  0  0  0  0  0  0  0  0  0  0
   -1.4573    0.1675    1.2285 C   0  0  0  0  0  0  0  0  0  0  0  0
   -0.4460   -1.5682    0.4108 H   0  0  0  0  0  0  0  0  0  0  0  0
    1.7637   -0.4529    0.3075 H   0  0  0  0  0  0  0  0  0  0  0  0
    0.0692    3.1403    1.9171 H   0  0  0  0  0  0  0  0  0  0  0  0
   -2.1745    2.0253    2.0276 H   0  0  0  0  0  0  0  0  0  0  0  0
   10.7721    0.7325   -3.9423 N   0  0  0  0  0  0  0  0  0  0  0  0
    9.7311    0.6369   -3.5836 N   0  0  0  0  0  0  0  0  0  0  0  0
   -2.7168   -0.3401    1.3310 O   0  0  0  0  0  0  0  0  0  0  0  0
   -2.9445   -1.6735    0.8984 C   0  0  0  0  0  0  0  0  0  0  0  0
   -4.0063   -1.8644    1.0601 H   0  0  0  0  0  0  0  0  0  0  0  0
   -2.3565   -2.3938    1.4809 H   0  0  0  0  0  0  0  0  0  0  0  0
   -2.7126   -1.7970   -0.1672 H   0  0  0  0  0  0  0  0  0  0  0  0
    2.7489    2.9336   -0.1459 S   0  0  0  0  0  0  0  0  0  0  0  0
    2.3125    1.9859    1.1185 O   0  0  0  0  0  0  0  0  0  0  0  0
    1.6247    3.7268   -0.5879 O   0  0  0  0  0  0  0  0  0  0  0  0
    4.0291    3.4894    0.2434 O   0  0  0  0  0  0  0  0  0  0  0  0
    3.0054    1.8241   -1.3135 O   0  0  0  0  0  0  0  0  0  0  0  0
    3.9325    1.5403   -1.2391 H   0  0  0  0  0  0  0  0  0  0  0  0
  1  6  1  0  0  0  0
  2  1  2  0  0  0  0
  2  3  1  0  0  0  0
  3 19  1  0  0  0  0
  3  4  2  0  0  0  0
  4  5  1  0  0  0  0
  4  9  1  0  0  0  0
  5 10  1  0  0  0  0
  6 13  1  0  0  0  0
  6  5  2  0  0  0  0
  7  1  1  0  0  0  0
  8  2  1  0  0  0  0
 11 12  3  0  0  0  0
 14 15  1  0  0  0  0
 14 13  1  0  0  0  0
 14 16  1  0  0  0  0
 17 14  1  0  0  0  0
 18 21  2  0  0  0  0
 18 19  1  0  0  0  0
 20 18  2  0  0  0  0
 22 23  1  0  0  0  0
 22 18  1  0  0  0  0
M  END
