Coordinates from ORCA-job 4-MeO-Ph-N2-HSO4-B3LYPG-6-31G_dp-MTMO-d009-169-n800
 OpenBabel09051907533D

 23 22  0  0  0  0  0  0  0  0999 V2000
   -0.3392   -0.5425    0.7365 C   0  0  0  0  0  0  0  0  0  0  0  0
    0.9106    0.0791    0.6747 C   0  0  0  0  0  0  0  0  0  0  0  0
    1.0448    1.3936    1.0988 C   0  0  0  0  0  0  0  0  0  0  0  0
   -0.0460    2.1138    1.5864 C   0  0  0  0  0  0  0  0  0  0  0  0
   -1.2887    1.4990    1.6468 C   0  0  0  0  0  0  0  0  0  0  0  0
   -1.4441    0.1688    1.2224 C   0  0  0  0  0  0  0  0  0  0  0  0
   -0.4352   -1.5692    0.4067 H   0  0  0  0  0  0  0  0  0  0  0  0
    1.7762   -0.4572    0.3025 H   0  0  0  0  0  0  0  0  0  0  0  0
    0.0866    3.1401    1.9079 H   0  0  0  0  0  0  0  0  0  0  0  0
   -2.1587    2.0285    2.0194 H   0  0  0  0  0  0  0  0  0  0  0  0
   10.6231    0.7463   -3.8758 N   0  0  0  0  0  0  0  0  0  0  0  0
    9.5821    0.6527   -3.5162 N   0  0  0  0  0  0  0  0  0  0  0  0
   -2.7043   -0.3369    1.3254 O   0  0  0  0  0  0  0  0  0  0  0  0
   -2.9338   -1.6706    0.8945 C   0  0  0  0  0  0  0  0  0  0  0  0
   -3.9958   -1.8598    1.0565 H   0  0  0  0  0  0  0  0  0  0  0  0
   -2.3468   -2.3909    1.4778 H   0  0  0  0  0  0  0  0  0  0  0  0
   -2.7022   -1.7957   -0.1710 H   0  0  0  0  0  0  0  0  0  0  0  0
    2.7663    2.9275   -0.1543 S   0  0  0  0  0  0  0  0  0  0  0  0
    2.3284    1.9816    1.1109 O   0  0  0  0  0  0  0  0  0  0  0  0
    1.6431    3.7215   -0.5975 O   0  0  0  0  0  0  0  0  0  0  0  0
    4.0469    3.4825    0.2350 O   0  0  0  0  0  0  0  0  0  0  0  0
    3.0221    1.8166   -1.3206 O   0  0  0  0  0  0  0  0  0  0  0  0
    3.9490    1.5320   -1.2457 H   0  0  0  0  0  0  0  0  0  0  0  0
  1  6  1  0  0  0  0
  2  1  2  0  0  0  0
  2  3  1  0  0  0  0
  3 19  1  0  0  0  0
  3  4  2  0  0  0  0
  4  5  1  0  0  0  0
  4  9  1  0  0  0  0
  5 10  1  0  0  0  0
  6 13  1  0  0  0  0
  6  5  2  0  0  0  0
  7  1  1  0  0  0  0
  8  2  1  0  0  0  0
 11 12  3  0  0  0  0
 14 15  1  0  0  0  0
 14 13  1  0  0  0  0
 14 16  1  0  0  0  0
 17 14  1  0  0  0  0
 18 21  2  0  0  0  0
 18 19  1  0  0  0  0
 20 18  2  0  0  0  0
 22 23  1  0  0  0  0
 22 18  1  0  0  0  0
M  END
