Coordinates from ORCA-job 4-MeO-Ph-N2-HSO4-B3LYPG-6-31G_dp-MTMO-d009-169-n800
 OpenBabel09051907533D

 23 22  0  0  0  0  0  0  0  0999 V2000
   -0.0160   -0.3871    0.6987 C   0  0  0  0  0  0  0  0  0  0  0  0
    1.3596   -0.1579    0.7858 C   0  0  0  0  0  0  0  0  0  0  0  0
    1.8318    1.1464    0.8499 C   0  0  0  0  0  0  0  0  0  0  0  0
    0.9579    2.2327    0.8510 C   0  0  0  0  0  0  0  0  0  0  0  0
   -0.4098    2.0045    0.7810 C   0  0  0  0  0  0  0  0  0  0  0  0
   -0.9065    0.6939    0.6977 C   0  0  0  0  0  0  0  0  0  0  0  0
   -0.3745   -1.4072    0.6379 H   0  0  0  0  0  0  0  0  0  0  0  0
    2.0517   -0.9921    0.7990 H   0  0  0  0  0  0  0  0  0  0  0  0
    1.3578    3.2384    0.9093 H   0  0  0  0  0  0  0  0  0  0  0  0
   -1.1158    2.8277    0.7827 H   0  0  0  0  0  0  0  0  0  0  0  0
    2.2974    3.5041   -1.8886 N   0  0  0  0  0  0  0  0  0  0  0  0
    1.9317    3.4842   -2.9312 N   0  0  0  0  0  0  0  0  0  0  0  0
   -2.2624    0.5815    0.6225 O   0  0  0  0  0  0  0  0  0  0  0  0
   -2.8256   -0.7170    0.5159 C   0  0  0  0  0  0  0  0  0  0  0  0
   -3.9054   -0.5727    0.4561 H   0  0  0  0  0  0  0  0  0  0  0  0
   -2.5922   -1.3334    1.3942 H   0  0  0  0  0  0  0  0  0  0  0  0
   -2.4795   -1.2339   -0.3885 H   0  0  0  0  0  0  0  0  0  0  0  0
    4.2933    0.9298   -0.0942 S   0  0  0  0  0  0  0  0  0  0  0  0
    3.2043    1.4342    1.0173 O   0  0  0  0  0  0  0  0  0  0  0  0
    3.6769    0.7872   -1.3930 O   0  0  0  0  0  0  0  0  0  0  0  0
    5.4743    1.7276    0.1651 O   0  0  0  0  0  0  0  0  0  0  0  0
    4.5886   -0.5924    0.4193 O   0  0  0  0  0  0  0  0  0  0  0  0
    5.2470   -0.5379    1.1331 H   0  0  0  0  0  0  0  0  0  0  0  0
  1  2  1  0  0  0  0
  2  8  1  0  0  0  0
  2  3  2  0  0  0  0
  3  4  1  0  0  0  0
  3 19  1  0  0  0  0
  4  9  1  0  0  0  0
  5 10  1  0  0  0  0
  5  4  2  0  0  0  0
  6  1  2  0  0  0  0
  6  5  1  0  0  0  0
  7  1  1  0  0  0  0
 12 11  3  0  0  0  0
 13  6  1  0  0  0  0
 14 13  1  0  0  0  0
 14 16  1  0  0  0  0
 15 14  1  0  0  0  0
 17 14  1  0  0  0  0
 18 21  2  0  0  0  0
 18 22  1  0  0  0  0
 18 19  1  0  0  0  0
 20 18  2  0  0  0  0
 22 23  1  0  0  0  0
M  END
