Coordinates from ORCA-job 4-MeO-Ph-N2-HSO4-B3LYPG-6-31G_dp-MTMO-d009-169-n800
 OpenBabel09051907533D

 23 22  0  0  0  0  0  0  0  0999 V2000
   -0.4308   -0.5368    0.7781 C   0  0  0  0  0  0  0  0  0  0  0  0
    0.8127    0.0979    0.7221 C   0  0  0  0  0  0  0  0  0  0  0  0
    0.9327    1.4114    1.1535 C   0  0  0  0  0  0  0  0  0  0  0  0
   -0.1663    2.1177    1.6430 C   0  0  0  0  0  0  0  0  0  0  0  0
   -1.4028    1.4899    1.6975 C   0  0  0  0  0  0  0  0  0  0  0  0
   -1.5439    0.1606    1.2654 C   0  0  0  0  0  0  0  0  0  0  0  0
   -0.5155   -1.5626    0.4424 H   0  0  0  0  0  0  0  0  0  0  0  0
    1.6844   -0.4276    0.3488 H   0  0  0  0  0  0  0  0  0  0  0  0
   -0.0449    3.1436    1.9703 H   0  0  0  0  0  0  0  0  0  0  0  0
   -2.2789    2.0084    2.0712 H   0  0  0  0  0  0  0  0  0  0  0  0
   11.7269    0.6471   -4.3804 N   0  0  0  0  0  0  0  0  0  0  0  0
   10.6857    0.5464   -4.0235 N   0  0  0  0  0  0  0  0  0  0  0  0
   -2.7991   -0.3584    1.3626 O   0  0  0  0  0  0  0  0  0  0  0  0
   -3.0144   -1.6914    0.9226 C   0  0  0  0  0  0  0  0  0  0  0  0
   -4.0751   -1.8919    1.0800 H   0  0  0  0  0  0  0  0  0  0  0  0
   -2.4223   -2.4098    1.5031 H   0  0  0  0  0  0  0  0  0  0  0  0
   -2.7783   -1.8074   -0.1430 H   0  0  0  0  0  0  0  0  0  0  0  0
    2.6404    2.9689   -0.0890 S   0  0  0  0  0  0  0  0  0  0  0  0
    2.2102    2.0124    1.1709 O   0  0  0  0  0  0  0  0  0  0  0  0
    1.5112    3.7572   -0.5270 O   0  0  0  0  0  0  0  0  0  0  0  0
    3.9171    3.5309    0.3029 O   0  0  0  0  0  0  0  0  0  0  0  0
    2.9035    1.8667   -1.2620 O   0  0  0  0  0  0  0  0  0  0  0  0
    3.8322    1.5878   -1.1885 H   0  0  0  0  0  0  0  0  0  0  0  0
  1  6  1  0  0  0  0
  2  1  2  0  0  0  0
  2  3  1  0  0  0  0
  3 19  1  0  0  0  0
  3  4  2  0  0  0  0
  4  5  1  0  0  0  0
  4  9  1  0  0  0  0
  5 10  1  0  0  0  0
  6 13  1  0  0  0  0
  6  5  2  0  0  0  0
  7  1  1  0  0  0  0
  8  2  1  0  0  0  0
 11 12  3  0  0  0  0
 14 15  1  0  0  0  0
 14 13  1  0  0  0  0
 14 16  1  0  0  0  0
 17 14  1  0  0  0  0
 18 21  2  0  0  0  0
 18 19  1  0  0  0  0
 20 18  2  0  0  0  0
 22 23  1  0  0  0  0
 22 18  1  0  0  0  0
M  END
