Coordinates from ORCA-job 4-MeO-Ph-N2-HSO4-B3LYPG-6-31G_dp-MTMO-d009-169-n800
 OpenBabel09051907533D

 23 22  0  0  0  0  0  0  0  0999 V2000
   -0.4197   -0.5374    0.7729 C   0  0  0  0  0  0  0  0  0  0  0  0
    0.8244    0.0958    0.7162 C   0  0  0  0  0  0  0  0  0  0  0  0
    0.9461    1.4094    1.1469 C   0  0  0  0  0  0  0  0  0  0  0  0
   -0.1519    2.1171    1.6365 C   0  0  0  0  0  0  0  0  0  0  0  0
   -1.3890    1.4908    1.6918 C   0  0  0  0  0  0  0  0  0  0  0  0
   -1.5318    0.1614    1.2604 C   0  0  0  0  0  0  0  0  0  0  0  0
   -0.5058   -1.5633    0.4377 H   0  0  0  0  0  0  0  0  0  0  0  0
    1.6954   -0.4309    0.3427 H   0  0  0  0  0  0  0  0  0  0  0  0
   -0.0292    3.1431    1.9633 H   0  0  0  0  0  0  0  0  0  0  0  0
   -2.2644    2.0105    2.0657 H   0  0  0  0  0  0  0  0  0  0  0  0
   11.5954    0.6584   -4.3195 N   0  0  0  0  0  0  0  0  0  0  0  0
   10.5542    0.5578   -3.9625 N   0  0  0  0  0  0  0  0  0  0  0  0
   -2.7876   -0.3561    1.3585 O   0  0  0  0  0  0  0  0  0  0  0  0
   -3.0046   -1.6891    0.9192 C   0  0  0  0  0  0  0  0  0  0  0  0
   -4.0654   -1.8883    1.0773 H   0  0  0  0  0  0  0  0  0  0  0  0
   -2.4130   -2.4078    1.4998 H   0  0  0  0  0  0  0  0  0  0  0  0
   -2.7692   -1.8060   -0.1464 H   0  0  0  0  0  0  0  0  0  0  0  0
    2.6551    2.9644   -0.0969 S   0  0  0  0  0  0  0  0  0  0  0  0
    2.2243    2.0089    1.1635 O   0  0  0  0  0  0  0  0  0  0  0  0
    1.5265    3.7534   -0.5351 O   0  0  0  0  0  0  0  0  0  0  0  0
    3.9324    3.5255    0.2945 O   0  0  0  0  0  0  0  0  0  0  0  0
    2.9171    1.8613   -1.2694 O   0  0  0  0  0  0  0  0  0  0  0  0
    3.8456    1.5818   -1.1960 H   0  0  0  0  0  0  0  0  0  0  0  0
  1  6  1  0  0  0  0
  2  1  2  0  0  0  0
  2  3  1  0  0  0  0
  3 19  1  0  0  0  0
  3  4  2  0  0  0  0
  4  5  1  0  0  0  0
  4  9  1  0  0  0  0
  5 10  1  0  0  0  0
  6 13  1  0  0  0  0
  6  5  2  0  0  0  0
  7  1  1  0  0  0  0
  8  2  1  0  0  0  0
 11 12  3  0  0  0  0
 14 15  1  0  0  0  0
 14 13  1  0  0  0  0
 14 16  1  0  0  0  0
 17 14  1  0  0  0  0
 18 21  2  0  0  0  0
 18 19  1  0  0  0  0
 20 18  2  0  0  0  0
 22 23  1  0  0  0  0
 22 18  1  0  0  0  0
M  END
