Coordinates from ORCA-job 4-MeO-Ph-N2-HSO4-B3LYPG-6-31G_dp-MTMO-d009-169-n800
 OpenBabel09051907533D

 23 22  0  0  0  0  0  0  0  0999 V2000
   -0.1834   -0.5732    0.6933 C   0  0  0  0  0  0  0  0  0  0  0  0
    1.1002   -0.0241    0.6361 C   0  0  0  0  0  0  0  0  0  0  0  0
    1.2923    1.3059    0.9827 C   0  0  0  0  0  0  0  0  0  0  0  0
    0.2286    2.1130    1.3854 C   0  0  0  0  0  0  0  0  0  0  0  0
   -1.0471    1.5697    1.4424 C   0  0  0  0  0  0  0  0  0  0  0  0
   -1.2617    0.2248    1.0974 C   0  0  0  0  0  0  0  0  0  0  0  0
   -0.3266   -1.6121    0.4234 H   0  0  0  0  0  0  0  0  0  0  0  0
    1.9469   -0.6262    0.3260 H   0  0  0  0  0  0  0  0  0  0  0  0
    0.4081    3.1495    1.6472 H   0  0  0  0  0  0  0  0  0  0  0  0
   -1.8978    2.1671    1.7515 H   0  0  0  0  0  0  0  0  0  0  0  0
    7.9336    1.4167   -2.8896 N   0  0  0  0  0  0  0  0  0  0  0  0
    6.9664    1.3262   -2.3623 N   0  0  0  0  0  0  0  0  0  0  0  0
   -2.5503   -0.2066    1.1917 O   0  0  0  0  0  0  0  0  0  0  0  0
   -2.8375   -1.5549    0.8507 C   0  0  0  0  0  0  0  0  0  0  0  0
   -3.9113   -1.6796    0.9974 H   0  0  0  0  0  0  0  0  0  0  0  0
   -2.3012   -2.2591    1.4990 H   0  0  0  0  0  0  0  0  0  0  0  0
   -2.5884   -1.7687   -0.1965 H   0  0  0  0  0  0  0  0  0  0  0  0
    3.1682    2.6175   -0.3159 S   0  0  0  0  0  0  0  0  0  0  0  0
    2.6053    1.8269    1.0051 O   0  0  0  0  0  0  0  0  0  0  0  0
    2.0790    3.2972   -0.9813 O   0  0  0  0  0  0  0  0  0  0  0  0
    4.3766    3.2811    0.1336 O   0  0  0  0  0  0  0  0  0  0  0  0
    3.6081    1.3764   -1.2771 O   0  0  0  0  0  0  0  0  0  0  0  0
    4.5769    1.2932   -1.2192 H   0  0  0  0  0  0  0  0  0  0  0  0
  1  6  1  0  0  0  0
  2  1  2  0  0  0  0
  2  3  1  0  0  0  0
  3 19  1  0  0  0  0
  3  4  2  0  0  0  0
  4  5  1  0  0  0  0
  4  9  1  0  0  0  0
  5 10  1  0  0  0  0
  6 13  1  0  0  0  0
  6  5  2  0  0  0  0
  7  1  1  0  0  0  0
  8  2  1  0  0  0  0
 11 12  3  0  0  0  0
 14 15  1  0  0  0  0
 14 13  1  0  0  0  0
 14 16  1  0  0  0  0
 17 14  1  0  0  0  0
 18 21  2  0  0  0  0
 18 19  1  0  0  0  0
 20 18  2  0  0  0  0
 22 23  1  0  0  0  0
 22 18  1  0  0  0  0
M  END
