Coordinates from ORCA-job 4-MeO-Ph-N2-HSO4-B3LYPG-6-31G_dp-MTMO-d009-169-n800
 OpenBabel09051907533D

 23 22  0  0  0  0  0  0  0  0999 V2000
    0.0135   -0.3165    0.5492 C   0  0  0  0  0  0  0  0  0  0  0  0
    1.3912   -0.0861    0.6065 C   0  0  0  0  0  0  0  0  0  0  0  0
    1.8582    1.2077    0.7983 C   0  0  0  0  0  0  0  0  0  0  0  0
    0.9769    2.2764    0.9613 C   0  0  0  0  0  0  0  0  0  0  0  0
   -0.3909    2.0438    0.9222 C   0  0  0  0  0  0  0  0  0  0  0  0
   -0.8834    0.7465    0.7089 C   0  0  0  0  0  0  0  0  0  0  0  0
   -0.3403   -1.3268    0.3858 H   0  0  0  0  0  0  0  0  0  0  0  0
    2.0823   -0.9137    0.4995 H   0  0  0  0  0  0  0  0  0  0  0  0
    1.3727    3.2734    1.1185 H   0  0  0  0  0  0  0  0  0  0  0  0
   -1.0999    2.8548    1.0477 H   0  0  0  0  0  0  0  0  0  0  0  0
    2.0768    3.0972   -1.8775 N   0  0  0  0  0  0  0  0  0  0  0  0
    1.5224    2.9549   -2.8229 N   0  0  0  0  0  0  0  0  0  0  0  0
   -2.2408    0.6285    0.6760 O   0  0  0  0  0  0  0  0  0  0  0  0
   -2.7993   -0.6582    0.4588 C   0  0  0  0  0  0  0  0  0  0  0  0
   -3.8817   -0.5209    0.4619 H   0  0  0  0  0  0  0  0  0  0  0  0
   -2.5223   -1.3598    1.2567 H   0  0  0  0  0  0  0  0  0  0  0  0
   -2.4910   -1.0741   -0.5090 H   0  0  0  0  0  0  0  0  0  0  0  0
    4.3532    0.9147   -0.0757 S   0  0  0  0  0  0  0  0  0  0  0  0
    3.2286    1.5137    0.9466 O   0  0  0  0  0  0  0  0  0  0  0  0
    3.7868    0.6435   -1.3765 O   0  0  0  0  0  0  0  0  0  0  0  0
    5.5200    1.7417    0.1500 O   0  0  0  0  0  0  0  0  0  0  0  0
    4.6282   -0.5517    0.5876 O   0  0  0  0  0  0  0  0  0  0  0  0
    5.2234   -0.4283    1.3469 H   0  0  0  0  0  0  0  0  0  0  0  0
  1  2  2  0  0  0  0
  1  6  1  0  0  0  0
  2  3  1  0  0  0  0
  3 19  1  0  0  0  0
  3  4  2  0  0  0  0
  4  9  1  0  0  0  0
  5  4  1  0  0  0  0
  5 10  1  0  0  0  0
  6  5  2  0  0  0  0
  7  1  1  0  0  0  0
  8  2  1  0  0  0  0
 12 11  3  0  0  0  0
 13  6  1  0  0  0  0
 14 15  1  0  0  0  0
 14 13  1  0  0  0  0
 14 16  1  0  0  0  0
 17 14  1  0  0  0  0
 18 21  2  0  0  0  0
 18 22  1  0  0  0  0
 18 19  1  0  0  0  0
 20 18  2  0  0  0  0
 22 23  1  0  0  0  0
M  END
