Coordinates from ORCA-job 4-MeO-Ph-N2-HSO4-B3LYPG-6-31G_dp-MTMO-d009-169-n800
 OpenBabel09051907533D

 23 22  0  0  0  0  0  0  0  0999 V2000
   -0.5958   -0.5315    0.8500 C   0  0  0  0  0  0  0  0  0  0  0  0
    0.6437    0.1111    0.7971 C   0  0  0  0  0  0  0  0  0  0  0  0
    0.7554    1.4235    1.2342 C   0  0  0  0  0  0  0  0  0  0  0  0
   -0.3481    2.1207    1.7267 C   0  0  0  0  0  0  0  0  0  0  0  0
   -1.5806    1.4849    1.7783 C   0  0  0  0  0  0  0  0  0  0  0  0
   -1.7133    0.1567    1.3402 C   0  0  0  0  0  0  0  0  0  0  0  0
   -0.6740   -1.5564    0.5096 H   0  0  0  0  0  0  0  0  0  0  0  0
    1.5187   -0.4072    0.4214 H   0  0  0  0  0  0  0  0  0  0  0  0
   -0.2332    3.1459    2.0586 H   0  0  0  0  0  0  0  0  0  0  0  0
   -2.4600    1.9962    2.1542 H   0  0  0  0  0  0  0  0  0  0  0  0
   13.5452    0.5689   -5.1872 N   0  0  0  0  0  0  0  0  0  0  0  0
   12.5036    0.4611   -4.8335 N   0  0  0  0  0  0  0  0  0  0  0  0
   -2.9654   -0.3705    1.4347 O   0  0  0  0  0  0  0  0  0  0  0  0
   -3.1724   -1.7025    0.9879 C   0  0  0  0  0  0  0  0  0  0  0  0
   -4.2319   -1.9101    1.1436 H   0  0  0  0  0  0  0  0  0  0  0  0
   -2.5765   -2.4203    1.5654 H   0  0  0  0  0  0  0  0  0  0  0  0
   -2.9349   -1.8119   -0.0780 H   0  0  0  0  0  0  0  0  0  0  0  0
    2.4534    2.9963   -0.0019 S   0  0  0  0  0  0  0  0  0  0  0  0
    2.0291    2.0324    1.2542 O   0  0  0  0  0  0  0  0  0  0  0  0
    1.3199    3.7808   -0.4355 O   0  0  0  0  0  0  0  0  0  0  0  0
    3.7278    3.5629    0.3910 O   0  0  0  0  0  0  0  0  0  0  0  0
    2.7213    1.9001   -1.1796 O   0  0  0  0  0  0  0  0  0  0  0  0
    3.6527    1.6296   -1.1103 H   0  0  0  0  0  0  0  0  0  0  0  0
  1  6  1  0  0  0  0
  2  1  2  0  0  0  0
  2  3  1  0  0  0  0
  3 19  1  0  0  0  0
  3  4  2  0  0  0  0
  4  5  1  0  0  0  0
  4  9  1  0  0  0  0
  5 10  1  0  0  0  0
  6 13  1  0  0  0  0
  6  5  2  0  0  0  0
  7  1  1  0  0  0  0
  8  2  1  0  0  0  0
 11 12  3  0  0  0  0
 14 15  1  0  0  0  0
 14 13  1  0  0  0  0
 14 16  1  0  0  0  0
 17 14  1  0  0  0  0
 18 21  2  0  0  0  0
 18 19  1  0  0  0  0
 20 18  2  0  0  0  0
 22 23  1  0  0  0  0
 22 18  1  0  0  0  0
M  END
