Coordinates from ORCA-job 4-MeO-Ph-N2-HSO4-B3LYPG-6-31G_dp-MTMO-d009-169-n800
 OpenBabel09051907533D

 23 22  0  0  0  0  0  0  0  0999 V2000
   -0.1918   -0.5617    0.7088 C   0  0  0  0  0  0  0  0  0  0  0  0
    1.0809    0.0134    0.6665 C   0  0  0  0  0  0  0  0  0  0  0  0
    1.2440    1.3443    1.0244 C   0  0  0  0  0  0  0  0  0  0  0  0
    0.1607    2.1267    1.4243 C   0  0  0  0  0  0  0  0  0  0  0  0
   -1.1043    1.5578    1.4661 C   0  0  0  0  0  0  0  0  0  0  0  0
   -1.2893    0.2116    1.1090 C   0  0  0  0  0  0  0  0  0  0  0  0
   -0.3114   -1.6012    0.4302 H   0  0  0  0  0  0  0  0  0  0  0  0
    1.9415   -0.5703    0.3595 H   0  0  0  0  0  0  0  0  0  0  0  0
    0.3171    3.1645    1.6952 H   0  0  0  0  0  0  0  0  0  0  0  0
   -1.9693    2.1358    1.7725 H   0  0  0  0  0  0  0  0  0  0  0  0
    8.3901    1.1844   -3.1730 N   0  0  0  0  0  0  0  0  0  0  0  0
    7.4243    1.1311   -2.6382 N   0  0  0  0  0  0  0  0  0  0  0  0
   -2.5697   -0.2458    1.1882 O   0  0  0  0  0  0  0  0  0  0  0  0
   -2.8277   -1.5957    0.8302 C   0  0  0  0  0  0  0  0  0  0  0  0
   -3.9006   -1.7418    0.9631 H   0  0  0  0  0  0  0  0  0  0  0  0
   -2.2857   -2.2964    1.4776 H   0  0  0  0  0  0  0  0  0  0  0  0
   -2.5626   -1.7935   -0.2162 H   0  0  0  0  0  0  0  0  0  0  0  0
    3.0885    2.7168   -0.2469 S   0  0  0  0  0  0  0  0  0  0  0  0
    2.5455    1.8911    1.0609 O   0  0  0  0  0  0  0  0  0  0  0  0
    1.9997    3.4416   -0.8621 O   0  0  0  0  0  0  0  0  0  0  0  0
    4.3231    3.3337    0.1959 O   0  0  0  0  0  0  0  0  0  0  0  0
    3.4678    1.5030   -1.2682 O   0  0  0  0  0  0  0  0  0  0  0  0
    4.4139    1.3113   -1.1467 H   0  0  0  0  0  0  0  0  0  0  0  0
  1  6  1  0  0  0  0
  2  1  2  0  0  0  0
  2  3  1  0  0  0  0
  3 19  1  0  0  0  0
  3  4  2  0  0  0  0
  4  5  1  0  0  0  0
  4  9  1  0  0  0  0
  5 10  1  0  0  0  0
  6 13  1  0  0  0  0
  6  5  2  0  0  0  0
  7  1  1  0  0  0  0
  8  2  1  0  0  0  0
 11 12  3  0  0  0  0
 14 15  1  0  0  0  0
 14 13  1  0  0  0  0
 14 16  1  0  0  0  0
 17 14  1  0  0  0  0
 18 21  2  0  0  0  0
 18 19  1  0  0  0  0
 20 18  2  0  0  0  0
 22 23  1  0  0  0  0
 22 18  1  0  0  0  0
M  END
