Coordinates from ORCA-job 4-MeO-Ph-N2-HSO4-B3LYPG-6-31G_dp-MTMO-d009-169-n800
 OpenBabel09051907533D

 23 22  0  0  0  0  0  0  0  0999 V2000
   -0.7969   -0.5289    0.9374 C   0  0  0  0  0  0  0  0  0  0  0  0
    0.4438    0.1113    0.8836 C   0  0  0  0  0  0  0  0  0  0  0  0
    0.5583    1.4237    1.3198 C   0  0  0  0  0  0  0  0  0  0  0  0
   -0.5436    2.1234    1.8124 C   0  0  0  0  0  0  0  0  0  0  0  0
   -1.7773    1.4901    1.8650 C   0  0  0  0  0  0  0  0  0  0  0  0
   -1.9128    0.1619    1.4278 C   0  0  0  0  0  0  0  0  0  0  0  0
   -0.8774   -1.5538    0.5978 H   0  0  0  0  0  0  0  0  0  0  0  0
    1.3177   -0.4090    0.5079 H   0  0  0  0  0  0  0  0  0  0  0  0
   -0.4264    3.1485    2.1436 H   0  0  0  0  0  0  0  0  0  0  0  0
   -2.6555    2.0034    2.2410 H   0  0  0  0  0  0  0  0  0  0  0  0
   15.6287    0.5452   -6.0979 N   0  0  0  0  0  0  0  0  0  0  0  0
   14.5860    0.4475   -5.7444 N   0  0  0  0  0  0  0  0  0  0  0  0
   -3.1659   -0.3628    1.5233 O   0  0  0  0  0  0  0  0  0  0  0  0
   -3.3757   -1.6948    1.0777 C   0  0  0  0  0  0  0  0  0  0  0  0
   -4.4356   -1.9002    1.2342 H   0  0  0  0  0  0  0  0  0  0  0  0
   -2.7808   -2.4132    1.6553 H   0  0  0  0  0  0  0  0  0  0  0  0
   -3.1391   -1.8055    0.0117 H   0  0  0  0  0  0  0  0  0  0  0  0
    2.2592    2.9921    0.0821 S   0  0  0  0  0  0  0  0  0  0  0  0
    1.8332    2.0301    1.3390 O   0  0  0  0  0  0  0  0  0  0  0  0
    1.1268    3.7774   -0.3531 O   0  0  0  0  0  0  0  0  0  0  0  0
    3.5340    3.5576    0.4749 O   0  0  0  0  0  0  0  0  0  0  0  0
    2.5265    1.8942   -1.0943 O   0  0  0  0  0  0  0  0  0  0  0  0
    3.4576    1.6227   -1.0239 H   0  0  0  0  0  0  0  0  0  0  0  0
  1  6  1  0  0  0  0
  2  1  2  0  0  0  0
  2  3  1  0  0  0  0
  3 19  1  0  0  0  0
  3  4  2  0  0  0  0
  4  5  1  0  0  0  0
  4  9  1  0  0  0  0
  5 10  1  0  0  0  0
  6 13  1  0  0  0  0
  6  5  2  0  0  0  0
  7  1  1  0  0  0  0
  8  2  1  0  0  0  0
 11 12  3  0  0  0  0
 14 15  1  0  0  0  0
 14 13  1  0  0  0  0
 14 16  1  0  0  0  0
 17 14  1  0  0  0  0
 18 21  2  0  0  0  0
 18 19  1  0  0  0  0
 20 18  2  0  0  0  0
 22 23  1  0  0  0  0
 22 18  1  0  0  0  0
M  END
