Coordinates from ORCA-job 4-MeO-Ph-N2-HSO4-B3LYPG-6-31G_dp-MTMO-d009-169-n800
 OpenBabel09051907533D

 23 22  0  0  0  0  0  0  0  0999 V2000
   -0.1850   -0.5720    0.6949 C   0  0  0  0  0  0  0  0  0  0  0  0
    1.0977   -0.0205    0.6392 C   0  0  0  0  0  0  0  0  0  0  0  0
    1.2872    1.3095    0.9870 C   0  0  0  0  0  0  0  0  0  0  0  0
    0.2216    2.1144    1.3893 C   0  0  0  0  0  0  0  0  0  0  0  0
   -1.0532    1.5688    1.4447 C   0  0  0  0  0  0  0  0  0  0  0  0
   -1.2651    0.2237    1.0986 C   0  0  0  0  0  0  0  0  0  0  0  0
   -0.3260   -1.6109    0.4241 H   0  0  0  0  0  0  0  0  0  0  0  0
    1.9457   -0.6210    0.3294 H   0  0  0  0  0  0  0  0  0  0  0  0
    0.3990    3.1510    1.6520 H   0  0  0  0  0  0  0  0  0  0  0  0
   -1.9052    2.1645    1.7536 H   0  0  0  0  0  0  0  0  0  0  0  0
    7.9769    1.3971   -2.9221 N   0  0  0  0  0  0  0  0  0  0  0  0
    7.0114    1.3123   -2.3908 N   0  0  0  0  0  0  0  0  0  0  0  0
   -2.5530   -0.2100    1.1913 O   0  0  0  0  0  0  0  0  0  0  0  0
   -2.8375   -1.5585    0.8487 C   0  0  0  0  0  0  0  0  0  0  0  0
   -3.9113   -1.6851    0.9942 H   0  0  0  0  0  0  0  0  0  0  0  0
   -2.3007   -2.2624    1.4970 H   0  0  0  0  0  0  0  0  0  0  0  0
   -2.5869   -1.7708   -0.1984 H   0  0  0  0  0  0  0  0  0  0  0  0
    3.1613    2.6252   -0.3094 S   0  0  0  0  0  0  0  0  0  0  0  0
    2.5991    1.8330    1.0110 O   0  0  0  0  0  0  0  0  0  0  0  0
    2.0722    3.3064   -0.9734 O   0  0  0  0  0  0  0  0  0  0  0  0
    4.3706    3.2868    0.1404 O   0  0  0  0  0  0  0  0  0  0  0  0
    3.5992    1.3853   -1.2735 O   0  0  0  0  0  0  0  0  0  0  0  0
    4.5664    1.2937   -1.2068 H   0  0  0  0  0  0  0  0  0  0  0  0
  1  6  1  0  0  0  0
  2  1  2  0  0  0  0
  2  3  1  0  0  0  0
  3 19  1  0  0  0  0
  3  4  2  0  0  0  0
  4  5  1  0  0  0  0
  4  9  1  0  0  0  0
  5 10  1  0  0  0  0
  6 13  1  0  0  0  0
  6  5  2  0  0  0  0
  7  1  1  0  0  0  0
  8  2  1  0  0  0  0
 11 12  3  0  0  0  0
 14 15  1  0  0  0  0
 14 13  1  0  0  0  0
 14 16  1  0  0  0  0
 17 14  1  0  0  0  0
 18 21  2  0  0  0  0
 18 19  1  0  0  0  0
 20 18  2  0  0  0  0
 22 23  1  0  0  0  0
 22 18  1  0  0  0  0
M  END
