Coordinates from ORCA-job 4-MeO-Ph-N2-HSO4-B3LYPG-6-31G_dp-MTMO-d009-169-n800
 OpenBabel09051907533D

 23 22  0  0  0  0  0  0  0  0999 V2000
   -0.1786   -0.5743    0.6904 C   0  0  0  0  0  0  0  0  0  0  0  0
    1.1060   -0.0276    0.6310 C   0  0  0  0  0  0  0  0  0  0  0  0
    1.3011    1.3022    0.9765 C   0  0  0  0  0  0  0  0  0  0  0  0
    0.2394    2.1116    1.3801 C   0  0  0  0  0  0  0  0  0  0  0  0
   -1.0372    1.5707    1.4392 C   0  0  0  0  0  0  0  0  0  0  0  0
   -1.2549    0.2260    1.0954 C   0  0  0  0  0  0  0  0  0  0  0  0
   -0.3241   -1.6131    0.4213 H   0  0  0  0  0  0  0  0  0  0  0  0
    1.9511   -0.6314    0.3200 H   0  0  0  0  0  0  0  0  0  0  0  0
    0.4212    3.1479    1.6409 H   0  0  0  0  0  0  0  0  0  0  0  0
   -1.8864    2.1699    1.7491 H   0  0  0  0  0  0  0  0  0  0  0  0
    7.8620    1.4342   -2.8341 N   0  0  0  0  0  0  0  0  0  0  0  0
    6.8912    1.3372   -2.3149 N   0  0  0  0  0  0  0  0  0  0  0  0
   -2.5442   -0.2030    1.1917 O   0  0  0  0  0  0  0  0  0  0  0  0
   -2.8343   -1.5509    0.8520 C   0  0  0  0  0  0  0  0  0  0  0  0
   -3.9082   -1.6736    1.0004 H   0  0  0  0  0  0  0  0  0  0  0  0
   -2.2983   -2.2557    1.5000 H   0  0  0  0  0  0  0  0  0  0  0  0
   -2.5871   -1.7658   -0.1954 H   0  0  0  0  0  0  0  0  0  0  0  0
    3.1774    2.6103   -0.3254 S   0  0  0  0  0  0  0  0  0  0  0  0
    2.6151    1.8207    0.9965 O   0  0  0  0  0  0  0  0  0  0  0  0
    2.0878    3.2921   -0.9885 O   0  0  0  0  0  0  0  0  0  0  0  0
    4.3873    3.2727    0.1219 O   0  0  0  0  0  0  0  0  0  0  0  0
    3.6141    1.3685   -1.2863 O   0  0  0  0  0  0  0  0  0  0  0  0
    4.5843    1.2920   -1.2408 H   0  0  0  0  0  0  0  0  0  0  0  0
  1  6  1  0  0  0  0
  2  1  2  0  0  0  0
  2  3  1  0  0  0  0
  3 19  1  0  0  0  0
  3  4  2  0  0  0  0
  4  5  1  0  0  0  0
  4  9  1  0  0  0  0
  5 10  1  0  0  0  0
  6 13  1  0  0  0  0
  6  5  2  0  0  0  0
  7  1  1  0  0  0  0
  8  2  1  0  0  0  0
 11 12  3  0  0  0  0
 14 15  1  0  0  0  0
 14 13  1  0  0  0  0
 14 16  1  0  0  0  0
 17 14  1  0  0  0  0
 18 21  2  0  0  0  0
 18 19  1  0  0  0  0
 20 18  2  0  0  0  0
 22 23  1  0  0  0  0
 22 18  1  0  0  0  0
M  END
