Coordinates from ORCA-job 4-MeO-Ph-N2-HSO4-B3LYPG-6-31G_dp-MTMO-d009-169-n800
 OpenBabel09051907533D

 23 22  0  0  0  0  0  0  0  0999 V2000
   -0.1578   -0.4430    1.1532 C   0  0  0  0  0  0  0  0  0  0  0  0
    1.2011   -0.1198    1.1919 C   0  0  0  0  0  0  0  0  0  0  0  0
    1.6411    1.0609    0.6104 C   0  0  0  0  0  0  0  0  0  0  0  0
    0.7549    1.9375   -0.0161 C   0  0  0  0  0  0  0  0  0  0  0  0
   -0.5949    1.6182   -0.0550 C   0  0  0  0  0  0  0  0  0  0  0  0
   -1.0600    0.4268    0.5267 C   0  0  0  0  0  0  0  0  0  0  0  0
   -0.4949   -1.3656    1.6091 H   0  0  0  0  0  0  0  0  0  0  0  0
    1.9127   -0.7820    1.6720 H   0  0  0  0  0  0  0  0  0  0  0  0
    1.1298    2.8519   -0.4615 H   0  0  0  0  0  0  0  0  0  0  0  0
   -1.3132    2.2757   -0.5322 H   0  0  0  0  0  0  0  0  0  0  0  0
    3.5977    4.5833   -1.0138 N   0  0  0  0  0  0  0  0  0  0  0  0
    4.4799    5.2236   -1.1941 N   0  0  0  0  0  0  0  0  0  0  0  0
   -2.4014    0.2114    0.4300 O   0  0  0  0  0  0  0  0  0  0  0  0
   -2.9353   -0.9813    0.9856 C   0  0  0  0  0  0  0  0  0  0  0  0
   -4.0079   -0.9509    0.7875 H   0  0  0  0  0  0  0  0  0  0  0  0
   -2.7690   -1.0323    2.0695 H   0  0  0  0  0  0  0  0  0  0  0  0
   -2.5067   -1.8741    0.5136 H   0  0  0  0  0  0  0  0  0  0  0  0
    4.0222    1.0088   -0.4880 S   0  0  0  0  0  0  0  0  0  0  0  0
    3.0015    1.4227    0.7238 O   0  0  0  0  0  0  0  0  0  0  0  0
    3.3420    1.0636   -1.7614 O   0  0  0  0  0  0  0  0  0  0  0  0
    5.2470    1.7264   -0.1929 O   0  0  0  0  0  0  0  0  0  0  0  0
    4.2729   -0.5736   -0.1770 O   0  0  0  0  0  0  0  0  0  0  0  0
    5.0230   -0.6273    0.4397 H   0  0  0  0  0  0  0  0  0  0  0  0
  1  2  1  0  0  0  0
  1  7  1  0  0  0  0
  2  8  1  0  0  0  0
  3 19  1  0  0  0  0
  3  2  2  0  0  0  0
  4  3  1  0  0  0  0
  5  4  2  0  0  0  0
  5  6  1  0  0  0  0
  6  1  2  0  0  0  0
  9  4  1  0  0  0  0
 10  5  1  0  0  0  0
 12 11  3  0  0  0  0
 13  6  1  0  0  0  0
 13 14  1  0  0  0  0
 14 16  1  0  0  0  0
 15 14  1  0  0  0  0
 17 14  1  0  0  0  0
 18 21  2  0  0  0  0
 18 22  1  0  0  0  0
 18 19  1  0  0  0  0
 20 18  2  0  0  0  0
 22 23  1  0  0  0  0
M  END
