Coordinates from ORCA-job 4-MeO-Ph-N2-HSO4-B3LYPG-6-31G_dp-MTMO-d009-169-n800
 OpenBabel09051907533D

 23 22  0  0  0  0  0  0  0  0999 V2000
   -0.6227   -0.5311    0.8611 C   0  0  0  0  0  0  0  0  0  0  0  0
    0.6166    0.1119    0.8077 C   0  0  0  0  0  0  0  0  0  0  0  0
    0.7284    1.4239    1.2457 C   0  0  0  0  0  0  0  0  0  0  0  0
   -0.3748    2.1206    1.7395 C   0  0  0  0  0  0  0  0  0  0  0  0
   -1.6071    1.4845    1.7916 C   0  0  0  0  0  0  0  0  0  0  0  0
   -1.7400    0.1566    1.3526 C   0  0  0  0  0  0  0  0  0  0  0  0
   -0.7010   -1.5557    0.5201 H   0  0  0  0  0  0  0  0  0  0  0  0
    1.4915   -0.4060    0.4311 H   0  0  0  0  0  0  0  0  0  0  0  0
   -0.2598    3.1456    2.0720 H   0  0  0  0  0  0  0  0  0  0  0  0
   -2.4863    1.9955    2.1685 H   0  0  0  0  0  0  0  0  0  0  0  0
   13.8317    0.5620   -5.3104 N   0  0  0  0  0  0  0  0  0  0  0  0
   12.7897    0.4544   -4.9578 N   0  0  0  0  0  0  0  0  0  0  0  0
   -2.9919   -0.3709    1.4477 O   0  0  0  0  0  0  0  0  0  0  0  0
   -3.1990   -1.7026    1.0000 C   0  0  0  0  0  0  0  0  0  0  0  0
   -4.2584   -1.9104    1.1562 H   0  0  0  0  0  0  0  0  0  0  0  0
   -2.6026   -2.4207    1.5765 H   0  0  0  0  0  0  0  0  0  0  0  0
   -2.9623   -1.8111   -0.0662 H   0  0  0  0  0  0  0  0  0  0  0  0
    2.4251    2.9983    0.0097 S   0  0  0  0  0  0  0  0  0  0  0  0
    2.0020    2.0330    1.2651 O   0  0  0  0  0  0  0  0  0  0  0  0
    1.2909    3.7829   -0.4222 O   0  0  0  0  0  0  0  0  0  0  0  0
    3.6996    3.5649    0.4022 O   0  0  0  0  0  0  0  0  0  0  0  0
    2.6922    1.9036   -1.1695 O   0  0  0  0  0  0  0  0  0  0  0  0
    3.6231    1.6314   -1.1002 H   0  0  0  0  0  0  0  0  0  0  0  0
  1  6  1  0  0  0  0
  2  1  2  0  0  0  0
  2  3  1  0  0  0  0
  3 19  1  0  0  0  0
  3  4  2  0  0  0  0
  4  5  1  0  0  0  0
  4  9  1  0  0  0  0
  5 10  1  0  0  0  0
  6 13  1  0  0  0  0
  6  5  2  0  0  0  0
  7  1  1  0  0  0  0
  8  2  1  0  0  0  0
 11 12  3  0  0  0  0
 14 15  1  0  0  0  0
 14 13  1  0  0  0  0
 14 16  1  0  0  0  0
 17 14  1  0  0  0  0
 18 21  2  0  0  0  0
 18 19  1  0  0  0  0
 20 18  2  0  0  0  0
 22 23  1  0  0  0  0
 22 18  1  0  0  0  0
M  END
