Coordinates from ORCA-job 4-MeO-Ph-N2-HSO4-B3LYPG-6-31G_dp-MTMO-d009-169-n800
 OpenBabel09051907533D

 23 22  0  0  0  0  0  0  0  0999 V2000
   -0.2642   -0.5484    0.7090 C   0  0  0  0  0  0  0  0  0  0  0  0
    0.9917    0.0610    0.6471 C   0  0  0  0  0  0  0  0  0  0  0  0
    1.1359    1.3785    1.0581 C   0  0  0  0  0  0  0  0  0  0  0  0
    0.0493    2.1139    1.5323 C   0  0  0  0  0  0  0  0  0  0  0  0
   -1.1993    1.5114    1.5925 C   0  0  0  0  0  0  0  0  0  0  0  0
   -1.3648    0.1782    1.1816 C   0  0  0  0  0  0  0  0  0  0  0  0
   -0.3682   -1.5777    0.3895 H   0  0  0  0  0  0  0  0  0  0  0  0
    1.8541   -0.4873    0.2850 H   0  0  0  0  0  0  0  0  0  0  0  0
    0.1899    3.1424    1.8436 H   0  0  0  0  0  0  0  0  0  0  0  0
   -2.0662    2.0529    1.9549 H   0  0  0  0  0  0  0  0  0  0  0  0
    9.7005    0.8378   -3.4871 N   0  0  0  0  0  0  0  0  0  0  0  0
    8.6630    0.7633   -3.1136 N   0  0  0  0  0  0  0  0  0  0  0  0
   -2.6302   -0.3148    1.2839 O   0  0  0  0  0  0  0  0  0  0  0  0
   -2.8695   -1.6515    0.8681 C   0  0  0  0  0  0  0  0  0  0  0  0
   -3.9338   -1.8297    1.0280 H   0  0  0  0  0  0  0  0  0  0  0  0
   -2.2910   -2.3698    1.4624 H   0  0  0  0  0  0  0  0  0  0  0  0
   -2.6348   -1.7916   -0.1949 H   0  0  0  0  0  0  0  0  0  0  0  0
    2.8782    2.8851   -0.2000 S   0  0  0  0  0  0  0  0  0  0  0  0
    2.4250    1.9544    1.0712 O   0  0  0  0  0  0  0  0  0  0  0  0
    1.7633    3.6818   -0.6589 O   0  0  0  0  0  0  0  0  0  0  0  0
    4.1594    3.4358    0.1933 O   0  0  0  0  0  0  0  0  0  0  0  0
    3.1355    1.7614   -1.3536 O   0  0  0  0  0  0  0  0  0  0  0  0
    4.0609    1.4738   -1.2711 H   0  0  0  0  0  0  0  0  0  0  0  0
  1  6  1  0  0  0  0
  2  1  2  0  0  0  0
  2  3  1  0  0  0  0
  3 19  1  0  0  0  0
  3  4  2  0  0  0  0
  4  5  1  0  0  0  0
  4  9  1  0  0  0  0
  5 10  1  0  0  0  0
  6 13  1  0  0  0  0
  6  5  2  0  0  0  0
  7  1  1  0  0  0  0
  8  2  1  0  0  0  0
 11 12  3  0  0  0  0
 14 15  1  0  0  0  0
 14 13  1  0  0  0  0
 14 16  1  0  0  0  0
 17 14  1  0  0  0  0
 18 21  2  0  0  0  0
 18 19  1  0  0  0  0
 20 18  2  0  0  0  0
 22 23  1  0  0  0  0
 22 18  1  0  0  0  0
M  END
