Coordinates from ORCA-job 4-MeO-Ph-N2-HSO4-B3LYPG-6-31G_dp-MTMO-d009-169-n800
 OpenBabel09051907533D

 23 22  0  0  0  0  0  0  0  0999 V2000
   -0.6442   -0.5308    0.8710 C   0  0  0  0  0  0  0  0  0  0  0  0
    0.5954    0.1114    0.8179 C   0  0  0  0  0  0  0  0  0  0  0  0
    0.7076    1.4238    1.2550 C   0  0  0  0  0  0  0  0  0  0  0  0
   -0.3956    2.1213    1.7477 C   0  0  0  0  0  0  0  0  0  0  0  0
   -1.6282    1.4859    1.7995 C   0  0  0  0  0  0  0  0  0  0  0  0
   -1.7615    0.1577    1.3614 C   0  0  0  0  0  0  0  0  0  0  0  0
   -0.7228   -1.5557    0.5307 H   0  0  0  0  0  0  0  0  0  0  0  0
    1.4703   -0.4071    0.4421 H   0  0  0  0  0  0  0  0  0  0  0  0
   -0.2803    3.1465    2.0796 H   0  0  0  0  0  0  0  0  0  0  0  0
   -2.5074    1.9975    2.1755 H   0  0  0  0  0  0  0  0  0  0  0  0
   14.0493    0.5630   -5.4075 N   0  0  0  0  0  0  0  0  0  0  0  0
   13.0076    0.4552   -5.0540 N   0  0  0  0  0  0  0  0  0  0  0  0
   -3.0136   -0.3691    1.4561 O   0  0  0  0  0  0  0  0  0  0  0  0
   -3.2211   -1.7011    1.0094 C   0  0  0  0  0  0  0  0  0  0  0  0
   -4.2807   -1.9083    1.1652 H   0  0  0  0  0  0  0  0  0  0  0  0
   -2.6253   -2.4190    1.5867 H   0  0  0  0  0  0  0  0  0  0  0  0
   -2.9839   -1.8106   -0.0566 H   0  0  0  0  0  0  0  0  0  0  0  0
    2.4060    2.9960    0.0187 S   0  0  0  0  0  0  0  0  0  0  0  0
    1.9815    2.0323    1.2748 O   0  0  0  0  0  0  0  0  0  0  0  0
    1.2726    3.7807   -0.4151 O   0  0  0  0  0  0  0  0  0  0  0  0
    3.6804    3.5624    0.4115 O   0  0  0  0  0  0  0  0  0  0  0  0
    2.6737    1.8997   -1.1590 O   0  0  0  0  0  0  0  0  0  0  0  0
    3.6051    1.6290   -1.0896 H   0  0  0  0  0  0  0  0  0  0  0  0
  1  6  1  0  0  0  0
  2  1  2  0  0  0  0
  2  3  1  0  0  0  0
  3 19  1  0  0  0  0
  3  4  2  0  0  0  0
  4  5  1  0  0  0  0
  4  9  1  0  0  0  0
  5 10  1  0  0  0  0
  6 13  1  0  0  0  0
  6  5  2  0  0  0  0
  7  1  1  0  0  0  0
  8  2  1  0  0  0  0
 11 12  3  0  0  0  0
 14 15  1  0  0  0  0
 14 13  1  0  0  0  0
 14 16  1  0  0  0  0
 17 14  1  0  0  0  0
 18 21  2  0  0  0  0
 18 19  1  0  0  0  0
 20 18  2  0  0  0  0
 22 23  1  0  0  0  0
 22 18  1  0  0  0  0
M  END
