Coordinates from ORCA-job 4-MeO-Ph-N2-HSO4-B3LYPG-6-31G_dp-MTMO-d009-169-n800
 OpenBabel09051907533D

 23 22  0  0  0  0  0  0  0  0999 V2000
   -0.1494   -0.5410    1.1204 C   0  0  0  0  0  0  0  0  0  0  0  0
    1.2200   -0.3035    1.2647 C   0  0  0  0  0  0  0  0  0  0  0  0
    1.7436    0.9309    0.9074 C   0  0  0  0  0  0  0  0  0  0  0  0
    0.9314    1.9464    0.4009 C   0  0  0  0  0  0  0  0  0  0  0  0
   -0.4280    1.7100    0.2524 C   0  0  0  0  0  0  0  0  0  0  0  0
   -0.9774    0.4672    0.6101 C   0  0  0  0  0  0  0  0  0  0  0  0
   -0.5513   -1.5045    1.4076 H   0  0  0  0  0  0  0  0  0  0  0  0
    1.8754   -1.0722    1.6588 H   0  0  0  0  0  0  0  0  0  0  0  0
    1.3665    2.8994    0.1229 H   0  0  0  0  0  0  0  0  0  0  0  0
   -1.0899    2.4749   -0.1386 H   0  0  0  0  0  0  0  0  0  0  0  0
    2.9799    4.8463   -1.8124 N   0  0  0  0  0  0  0  0  0  0  0  0
    3.6646    4.9346   -2.6752 N   0  0  0  0  0  0  0  0  0  0  0  0
   -2.3211    0.3447    0.4253 O   0  0  0  0  0  0  0  0  0  0  0  0
   -2.9385   -0.8905    0.7563 C   0  0  0  0  0  0  0  0  0  0  0  0
   -3.9965   -0.7705    0.5186 H   0  0  0  0  0  0  0  0  0  0  0  0
   -2.8317   -1.1222    1.8236 H   0  0  0  0  0  0  0  0  0  0  0  0
   -2.5279   -1.7189    0.1655 H   0  0  0  0  0  0  0  0  0  0  0  0
    4.1585    1.0848   -0.1131 S   0  0  0  0  0  0  0  0  0  0  0  0
    3.1136    1.1808    1.1439 O   0  0  0  0  0  0  0  0  0  0  0  0
    3.5659    1.6496   -1.3046 O   0  0  0  0  0  0  0  0  0  0  0  0
    5.4279    1.5153    0.4376 O   0  0  0  0  0  0  0  0  0  0  0  0
    4.2249   -0.5250   -0.3645 O   0  0  0  0  0  0  0  0  0  0  0  0
    4.9240   -0.8760    0.2133 H   0  0  0  0  0  0  0  0  0  0  0  0
  1  2  1  0  0  0  0
  1  7  1  0  0  0  0
  2  8  1  0  0  0  0
  3 19  1  0  0  0  0
  3  2  2  0  0  0  0
  4  3  1  0  0  0  0
  5  4  2  0  0  0  0
  5  6  1  0  0  0  0
  6  1  2  0  0  0  0
  9  4  1  0  0  0  0
 10  5  1  0  0  0  0
 12 11  3  0  0  0  0
 13  6  1  0  0  0  0
 13 14  1  0  0  0  0
 14 16  1  0  0  0  0
 15 14  1  0  0  0  0
 17 14  1  0  0  0  0
 18 21  2  0  0  0  0
 18 19  1  0  0  0  0
 20 18  2  0  0  0  0
 22 18  1  0  0  0  0
 22 23  1  0  0  0  0
M  END
