Coordinates from ORCA-job 4-MeO-Ph-N2-HSO4-B3LYPG-6-31G_dp-MTMO-d009-169-n800
 OpenBabel09051907533D

 23 22  0  0  0  0  0  0  0  0999 V2000
   -0.1920   -0.5614    0.7092 C   0  0  0  0  0  0  0  0  0  0  0  0
    1.0804    0.0146    0.6673 C   0  0  0  0  0  0  0  0  0  0  0  0
    1.2424    1.3454    1.0256 C   0  0  0  0  0  0  0  0  0  0  0  0
    0.1585    2.1270    1.4255 C   0  0  0  0  0  0  0  0  0  0  0  0
   -1.1061    1.5572    1.4669 C   0  0  0  0  0  0  0  0  0  0  0  0
   -1.2901    0.2111    1.1094 C   0  0  0  0  0  0  0  0  0  0  0  0
   -0.3109   -1.6009    0.4304 H   0  0  0  0  0  0  0  0  0  0  0  0
    1.9414   -0.5685    0.3604 H   0  0  0  0  0  0  0  0  0  0  0  0
    0.3142    3.1648    1.6967 H   0  0  0  0  0  0  0  0  0  0  0  0
   -1.9715    2.1347    1.7732 H   0  0  0  0  0  0  0  0  0  0  0  0
    8.4061    1.1758   -3.1812 N   0  0  0  0  0  0  0  0  0  0  0  0
    7.4399    1.1234   -2.6470 N   0  0  0  0  0  0  0  0  0  0  0  0
   -2.5702   -0.2472    1.1881 O   0  0  0  0  0  0  0  0  0  0  0  0
   -2.8272   -1.5971    0.8296 C   0  0  0  0  0  0  0  0  0  0  0  0
   -3.9001   -1.7440    0.9622 H   0  0  0  0  0  0  0  0  0  0  0  0
   -2.2851   -2.2977    1.4770 H   0  0  0  0  0  0  0  0  0  0  0  0
   -2.5617   -1.7945   -0.2167 H   0  0  0  0  0  0  0  0  0  0  0  0
    3.0856    2.7207   -0.2445 S   0  0  0  0  0  0  0  0  0  0  0  0
    2.5437    1.8930    1.0625 O   0  0  0  0  0  0  0  0  0  0  0  0
    1.9968    3.4476   -0.8570 O   0  0  0  0  0  0  0  0  0  0  0  0
    4.3214    3.3354    0.1979 O   0  0  0  0  0  0  0  0  0  0  0  0
    3.4622    1.5085   -1.2687 O   0  0  0  0  0  0  0  0  0  0  0  0
    4.4073    1.3128   -1.1460 H   0  0  0  0  0  0  0  0  0  0  0  0
  1  6  1  0  0  0  0
  2  1  2  0  0  0  0
  2  3  1  0  0  0  0
  3 19  1  0  0  0  0
  3  4  2  0  0  0  0
  4  5  1  0  0  0  0
  4  9  1  0  0  0  0
  5 10  1  0  0  0  0
  6 13  1  0  0  0  0
  6  5  2  0  0  0  0
  7  1  1  0  0  0  0
  8  2  1  0  0  0  0
 11 12  3  0  0  0  0
 14 15  1  0  0  0  0
 14 13  1  0  0  0  0
 14 16  1  0  0  0  0
 17 14  1  0  0  0  0
 18 21  2  0  0  0  0
 18 19  1  0  0  0  0
 20 18  2  0  0  0  0
 22 23  1  0  0  0  0
 22 18  1  0  0  0  0
M  END
