Coordinates from ORCA-job 4-MeO-Ph-N2-HSO4-B3LYPG-6-31G_dp-MTMO-d009-169-n800
 OpenBabel09051907533D

 23 22  0  0  0  0  0  0  0  0999 V2000
   -0.3842   -0.5395    0.7563 C   0  0  0  0  0  0  0  0  0  0  0  0
    0.8623    0.0887    0.6968 C   0  0  0  0  0  0  0  0  0  0  0  0
    0.9897    1.4025    1.1253 C   0  0  0  0  0  0  0  0  0  0  0  0
   -0.1049    2.1153    1.6152 C   0  0  0  0  0  0  0  0  0  0  0  0
   -1.3444    1.4939    1.6732 C   0  0  0  0  0  0  0  0  0  0  0  0
   -1.4929    0.1644    1.2442 C   0  0  0  0  0  0  0  0  0  0  0  0
   -0.4748   -1.5657    0.4229 H   0  0  0  0  0  0  0  0  0  0  0  0
    1.7307   -0.4420    0.3230 H   0  0  0  0  0  0  0  0  0  0  0  0
    0.0223    3.1413    1.9401 H   0  0  0  0  0  0  0  0  0  0  0  0
   -2.2172    2.0177    2.0473 H   0  0  0  0  0  0  0  0  0  0  0  0
   11.1682    0.6965   -4.1220 N   0  0  0  0  0  0  0  0  0  0  0  0
   10.1270    0.5975   -3.7646 N   0  0  0  0  0  0  0  0  0  0  0  0
   -2.7506   -0.3481    1.3449 O   0  0  0  0  0  0  0  0  0  0  0  0
   -2.9732   -1.6811    0.9087 C   0  0  0  0  0  0  0  0  0  0  0  0
   -4.0345   -1.8761    1.0690 H   0  0  0  0  0  0  0  0  0  0  0  0
   -2.3833   -2.4009    1.4896 H   0  0  0  0  0  0  0  0  0  0  0  0
   -2.7402   -1.8009   -0.1571 H   0  0  0  0  0  0  0  0  0  0  0  0
    2.7034    2.9489   -0.1229 S   0  0  0  0  0  0  0  0  0  0  0  0
    2.2702    1.9970    1.1395 O   0  0  0  0  0  0  0  0  0  0  0  0
    1.5768    3.7401   -0.5624 O   0  0  0  0  0  0  0  0  0  0  0  0
    3.9823    3.5073    0.2671 O   0  0  0  0  0  0  0  0  0  0  0  0
    2.9622    1.8429   -1.2933 O   0  0  0  0  0  0  0  0  0  0  0  0
    3.8900    1.5611   -1.2197 H   0  0  0  0  0  0  0  0  0  0  0  0
  1  6  1  0  0  0  0
  2  1  2  0  0  0  0
  2  3  1  0  0  0  0
  3 19  1  0  0  0  0
  3  4  2  0  0  0  0
  4  5  1  0  0  0  0
  4  9  1  0  0  0  0
  5 10  1  0  0  0  0
  6 13  1  0  0  0  0
  6  5  2  0  0  0  0
  7  1  1  0  0  0  0
  8  2  1  0  0  0  0
 11 12  3  0  0  0  0
 14 15  1  0  0  0  0
 14 13  1  0  0  0  0
 14 16  1  0  0  0  0
 17 14  1  0  0  0  0
 18 21  2  0  0  0  0
 18 19  1  0  0  0  0
 20 18  2  0  0  0  0
 22 23  1  0  0  0  0
 22 18  1  0  0  0  0
M  END
