Coordinates from ORCA-job 4-MeO-Ph-N2-HSO4-B3LYPG-6-31G_dp-MTMO-d009-169-n800
 OpenBabel09051907533D

 23 22  0  0  0  0  0  0  0  0999 V2000
   -0.1867   -0.5688    0.6989 C   0  0  0  0  0  0  0  0  0  0  0  0
    1.0934   -0.0110    0.6475 C   0  0  0  0  0  0  0  0  0  0  0  0
    1.2755    1.3194    0.9978 C   0  0  0  0  0  0  0  0  0  0  0  0
    0.2049    2.1184    1.3986 C   0  0  0  0  0  0  0  0  0  0  0  0
   -1.0673    1.5665    1.4498 C   0  0  0  0  0  0  0  0  0  0  0  0
   -1.2718    0.2210    1.1009 C   0  0  0  0  0  0  0  0  0  0  0  0
   -0.3219   -1.6080    0.4261 H   0  0  0  0  0  0  0  0  0  0  0  0
    1.9449   -0.6070    0.3389 H   0  0  0  0  0  0  0  0  0  0  0  0
    0.3766    3.1554    1.6634 H   0  0  0  0  0  0  0  0  0  0  0  0
   -1.9230    2.1576    1.7574 H   0  0  0  0  0  0  0  0  0  0  0  0
    8.0783    1.3439   -2.9965 N   0  0  0  0  0  0  0  0  0  0  0  0
    7.1154    1.2694   -2.4589 N   0  0  0  0  0  0  0  0  0  0  0  0
   -2.5578   -0.2190    1.1893 O   0  0  0  0  0  0  0  0  0  0  0  0
   -2.8350   -1.5680    0.8427 C   0  0  0  0  0  0  0  0  0  0  0  0
   -3.9087   -1.6998    0.9842 H   0  0  0  0  0  0  0  0  0  0  0  0
   -2.2972   -2.2709    1.4912 H   0  0  0  0  0  0  0  0  0  0  0  0
   -2.5799   -1.7766   -0.2041 H   0  0  0  0  0  0  0  0  0  0  0  0
    3.1438    2.6472   -0.2924 S   0  0  0  0  0  0  0  0  0  0  0  0
    2.5846    1.8495    1.0258 O   0  0  0  0  0  0  0  0  0  0  0  0
    2.0553    3.3366   -0.9484 O   0  0  0  0  0  0  0  0  0  0  0  0
    4.3582    3.2996    0.1569 O   0  0  0  0  0  0  0  0  0  0  0  0
    3.5703    1.4117   -1.2677 O   0  0  0  0  0  0  0  0  0  0  0  0
    4.5327    1.2938   -1.1802 H   0  0  0  0  0  0  0  0  0  0  0  0
  1  6  1  0  0  0  0
  2  1  2  0  0  0  0
  2  3  1  0  0  0  0
  3 19  1  0  0  0  0
  3  4  2  0  0  0  0
  4  5  1  0  0  0  0
  4  9  1  0  0  0  0
  5 10  1  0  0  0  0
  6 13  1  0  0  0  0
  6  5  2  0  0  0  0
  7  1  1  0  0  0  0
  8  2  1  0  0  0  0
 11 12  3  0  0  0  0
 14 15  1  0  0  0  0
 14 13  1  0  0  0  0
 14 16  1  0  0  0  0
 17 14  1  0  0  0  0
 18 21  2  0  0  0  0
 18 19  1  0  0  0  0
 20 18  2  0  0  0  0
 22 23  1  0  0  0  0
 22 18  1  0  0  0  0
M  END
