Coordinates from ORCA-job 4-MeO-Ph-N2-HSO4-B3LYPG-6-31G_dp-MTMO-d009-169-n800
 OpenBabel09051907533D

 23 22  0  0  0  0  0  0  0  0999 V2000
   -0.7424   -0.5294    0.9141 C   0  0  0  0  0  0  0  0  0  0  0  0
    0.4976    0.1122    0.8612 C   0  0  0  0  0  0  0  0  0  0  0  0
    0.6103    1.4247    1.2977 C   0  0  0  0  0  0  0  0  0  0  0  0
   -0.4927    2.1230    1.7897 C   0  0  0  0  0  0  0  0  0  0  0  0
   -1.7257    1.4882    1.8414 C   0  0  0  0  0  0  0  0  0  0  0  0
   -1.8595    0.1599    1.4039 C   0  0  0  0  0  0  0  0  0  0  0  0
   -0.8214   -1.5544    0.5743 H   0  0  0  0  0  0  0  0  0  0  0  0
    1.3723   -0.4070    0.4859 H   0  0  0  0  0  0  0  0  0  0  0  0
   -0.3770    3.1482    2.1212 H   0  0  0  0  0  0  0  0  0  0  0  0
   -2.6048    2.0004    2.2169 H   0  0  0  0  0  0  0  0  0  0  0  0
   15.0725    0.5480   -5.8571 N   0  0  0  0  0  0  0  0  0  0  0  0
   14.0303    0.4467   -5.5034 N   0  0  0  0  0  0  0  0  0  0  0  0
   -3.1119   -0.3663    1.4984 O   0  0  0  0  0  0  0  0  0  0  0  0
   -3.3199   -1.6984    1.0524 C   0  0  0  0  0  0  0  0  0  0  0  0
   -4.3797   -1.9050    1.2081 H   0  0  0  0  0  0  0  0  0  0  0  0
   -2.7246   -2.4163    1.6303 H   0  0  0  0  0  0  0  0  0  0  0  0
   -3.0825   -1.8085   -0.0135 H   0  0  0  0  0  0  0  0  0  0  0  0
    2.3100    2.9953    0.0613 S   0  0  0  0  0  0  0  0  0  0  0  0
    1.8844    2.0326    1.3178 O   0  0  0  0  0  0  0  0  0  0  0  0
    1.1771    3.7798   -0.3740 O   0  0  0  0  0  0  0  0  0  0  0  0
    3.5843    3.5618    0.4547 O   0  0  0  0  0  0  0  0  0  0  0  0
    2.5785    1.8981   -1.1154 O   0  0  0  0  0  0  0  0  0  0  0  0
    3.5097    1.6272   -1.0448 H   0  0  0  0  0  0  0  0  0  0  0  0
  1  6  1  0  0  0  0
  2  1  2  0  0  0  0
  2  3  1  0  0  0  0
  3 19  1  0  0  0  0
  3  4  2  0  0  0  0
  4  5  1  0  0  0  0
  4  9  1  0  0  0  0
  5 10  1  0  0  0  0
  6 13  1  0  0  0  0
  6  5  2  0  0  0  0
  7  1  1  0  0  0  0
  8  2  1  0  0  0  0
 11 12  3  0  0  0  0
 14 15  1  0  0  0  0
 14 13  1  0  0  0  0
 14 16  1  0  0  0  0
 17 14  1  0  0  0  0
 18 21  2  0  0  0  0
 18 19  1  0  0  0  0
 20 18  2  0  0  0  0
 22 23  1  0  0  0  0
 22 18  1  0  0  0  0
M  END
