Coordinates from ORCA-job 4-MeO-Ph-N2-HSO4-B3LYPG-6-31G_dp-MTMO-d009-169-n800
 OpenBabel09051907533D

 23 22  0  0  0  0  0  0  0  0999 V2000
   -0.3255   -0.5434    0.7309 C   0  0  0  0  0  0  0  0  0  0  0  0
    0.9253    0.0761    0.6686 C   0  0  0  0  0  0  0  0  0  0  0  0
    1.0615    1.3909    1.0910 C   0  0  0  0  0  0  0  0  0  0  0  0
   -0.0284    2.1135    1.5773 C   0  0  0  0  0  0  0  0  0  0  0  0
   -1.2720    1.5008    1.6381 C   0  0  0  0  0  0  0  0  0  0  0  0
   -1.4294    0.1703    1.2155 C   0  0  0  0  0  0  0  0  0  0  0  0
   -0.4231   -1.5705    0.4024 H   0  0  0  0  0  0  0  0  0  0  0  0
    1.7901   -0.4622    0.2974 H   0  0  0  0  0  0  0  0  0  0  0  0
    0.1059    3.1401    1.8974 H   0  0  0  0  0  0  0  0  0  0  0  0
   -2.1413    2.0322    2.0097 H   0  0  0  0  0  0  0  0  0  0  0  0
   10.4570    0.7620   -3.8025 N   0  0  0  0  0  0  0  0  0  0  0  0
    9.4163    0.6709   -3.4417 N   0  0  0  0  0  0  0  0  0  0  0  0
   -2.6905   -0.3333    1.3189 O   0  0  0  0  0  0  0  0  0  0  0  0
   -2.9219   -1.6672    0.8901 C   0  0  0  0  0  0  0  0  0  0  0  0
   -3.9843   -1.8546    1.0522 H   0  0  0  0  0  0  0  0  0  0  0  0
   -2.3361   -2.3876    1.4745 H   0  0  0  0  0  0  0  0  0  0  0  0
   -2.6904   -1.7944   -0.1752 H   0  0  0  0  0  0  0  0  0  0  0  0
    2.7859    2.9205   -0.1634 S   0  0  0  0  0  0  0  0  0  0  0  0
    2.3460    1.9768    1.1028 O   0  0  0  0  0  0  0  0  0  0  0  0
    1.6639    3.7152   -0.6084 O   0  0  0  0  0  0  0  0  0  0  0  0
    4.0669    3.4746    0.2261 O   0  0  0  0  0  0  0  0  0  0  0  0
    3.0412    1.8078   -1.3281 O   0  0  0  0  0  0  0  0  0  0  0  0
    3.9678    1.5224   -1.2523 H   0  0  0  0  0  0  0  0  0  0  0  0
  1  6  1  0  0  0  0
  2  1  2  0  0  0  0
  2  3  1  0  0  0  0
  3 19  1  0  0  0  0
  3  4  2  0  0  0  0
  4  5  1  0  0  0  0
  4  9  1  0  0  0  0
  5 10  1  0  0  0  0
  6 13  1  0  0  0  0
  6  5  2  0  0  0  0
  7  1  1  0  0  0  0
  8  2  1  0  0  0  0
 11 12  3  0  0  0  0
 14 15  1  0  0  0  0
 14 13  1  0  0  0  0
 14 16  1  0  0  0  0
 17 14  1  0  0  0  0
 18 21  2  0  0  0  0
 18 19  1  0  0  0  0
 20 18  2  0  0  0  0
 22 23  1  0  0  0  0
 22 18  1  0  0  0  0
M  END
