Coordinates from ORCA-job 4-MeO-Ph-N2-HSO4-B3LYPG-6-31G_dp-MTMO-d009-169-n800
 OpenBabel09051907533D

 23 22  0  0  0  0  0  0  0  0999 V2000
   -0.1711   -0.6020    1.0833 C   0  0  0  0  0  0  0  0  0  0  0  0
    1.1944   -0.3364    1.2144 C   0  0  0  0  0  0  0  0  0  0  0  0
    1.6708    0.9440    0.9704 C   0  0  0  0  0  0  0  0  0  0  0  0
    0.8137    1.9780    0.5920 C   0  0  0  0  0  0  0  0  0  0  0  0
   -0.5421    1.7150    0.4575 C   0  0  0  0  0  0  0  0  0  0  0  0
   -1.0437    0.4253    0.7013 C   0  0  0  0  0  0  0  0  0  0  0  0
   -0.5356   -1.6020    1.2818 H   0  0  0  0  0  0  0  0  0  0  0  0
    1.8837   -1.1193    1.5098 H   0  0  0  0  0  0  0  0  0  0  0  0
    1.2129    2.9677    0.4026 H   0  0  0  0  0  0  0  0  0  0  0  0
   -1.2374    2.4936    0.1639 H   0  0  0  0  0  0  0  0  0  0  0  0
    3.6617    4.9851   -2.2296 N   0  0  0  0  0  0  0  0  0  0  0  0
    4.3355    4.5876   -3.0101 N   0  0  0  0  0  0  0  0  0  0  0  0
   -2.3882    0.2788    0.5419 O   0  0  0  0  0  0  0  0  0  0  0  0
   -2.9591   -1.0023    0.7626 C   0  0  0  0  0  0  0  0  0  0  0  0
   -4.0271   -0.8925    0.5689 H   0  0  0  0  0  0  0  0  0  0  0  0
   -2.8123   -1.3370    1.7975 H   0  0  0  0  0  0  0  0  0  0  0  0
   -2.5439   -1.7535    0.0787 H   0  0  0  0  0  0  0  0  0  0  0  0
    4.0510    1.2385   -0.0954 S   0  0  0  0  0  0  0  0  0  0  0  0
    3.0389    1.2156    1.1919 O   0  0  0  0  0  0  0  0  0  0  0  0
    3.4058    1.8612   -1.2295 O   0  0  0  0  0  0  0  0  0  0  0  0
    5.3214    1.6735    0.4494 O   0  0  0  0  0  0  0  0  0  0  0  0
    4.1620   -0.3480   -0.4556 O   0  0  0  0  0  0  0  0  0  0  0  0
    4.8933   -0.7103    0.0732 H   0  0  0  0  0  0  0  0  0  0  0  0
  1  2  1  0  0  0  0
  1  7  1  0  0  0  0
  2  8  1  0  0  0  0
  3 19  1  0  0  0  0
  3  2  2  0  0  0  0
  4  3  1  0  0  0  0
  5  4  2  0  0  0  0
  5  6  1  0  0  0  0
  6  1  2  0  0  0  0
  9  4  1  0  0  0  0
 10  5  1  0  0  0  0
 12 11  3  0  0  0  0
 13  6  1  0  0  0  0
 13 14  1  0  0  0  0
 14 16  1  0  0  0  0
 15 14  1  0  0  0  0
 17 14  1  0  0  0  0
 18 21  2  0  0  0  0
 18 19  1  0  0  0  0
 20 18  2  0  0  0  0
 22 18  1  0  0  0  0
 22 23  1  0  0  0  0
M  END
