Coordinates from ORCA-job 4-MeO-Ph-N2-HSO4-B3LYPG-6-31G_dp-MTMO-d009-169-n800
 OpenBabel09051907533D

 23 22  0  0  0  0  0  0  0  0999 V2000
   -0.4404   -0.5363    0.7826 C   0  0  0  0  0  0  0  0  0  0  0  0
    0.8024    0.0996    0.7274 C   0  0  0  0  0  0  0  0  0  0  0  0
    0.9210    1.4131    1.1592 C   0  0  0  0  0  0  0  0  0  0  0  0
   -0.1789    2.1181    1.6486 C   0  0  0  0  0  0  0  0  0  0  0  0
   -1.4148    1.4891    1.7025 C   0  0  0  0  0  0  0  0  0  0  0  0
   -1.5544    0.1598    1.2698 C   0  0  0  0  0  0  0  0  0  0  0  0
   -0.5241   -1.5621    0.4465 H   0  0  0  0  0  0  0  0  0  0  0  0
    1.6748   -0.4248    0.3541 H   0  0  0  0  0  0  0  0  0  0  0  0
   -0.0586    3.1441    1.9763 H   0  0  0  0  0  0  0  0  0  0  0  0
   -2.2915    2.0067    2.0760 H   0  0  0  0  0  0  0  0  0  0  0  0
   11.8419    0.6373   -4.4336 N   0  0  0  0  0  0  0  0  0  0  0  0
   10.8007    0.5366   -4.0768 N   0  0  0  0  0  0  0  0  0  0  0  0
   -2.8092   -0.3604    1.3663 O   0  0  0  0  0  0  0  0  0  0  0  0
   -3.0230   -1.6934    0.9256 C   0  0  0  0  0  0  0  0  0  0  0  0
   -4.0836   -1.8949    1.0824 H   0  0  0  0  0  0  0  0  0  0  0  0
   -2.4305   -2.4115    1.5060 H   0  0  0  0  0  0  0  0  0  0  0  0
   -2.7863   -1.8087   -0.1399 H   0  0  0  0  0  0  0  0  0  0  0  0
    2.6276    2.9728   -0.0821 S   0  0  0  0  0  0  0  0  0  0  0  0
    2.1979    2.0154    1.1773 O   0  0  0  0  0  0  0  0  0  0  0  0
    1.4978    3.7604   -0.5199 O   0  0  0  0  0  0  0  0  0  0  0  0
    3.9038    3.5355    0.3103 O   0  0  0  0  0  0  0  0  0  0  0  0
    2.8917    1.8712   -1.2555 O   0  0  0  0  0  0  0  0  0  0  0  0
    3.8206    1.5930   -1.1820 H   0  0  0  0  0  0  0  0  0  0  0  0
  1  6  1  0  0  0  0
  2  1  2  0  0  0  0
  2  3  1  0  0  0  0
  3 19  1  0  0  0  0
  3  4  2  0  0  0  0
  4  5  1  0  0  0  0
  4  9  1  0  0  0  0
  5 10  1  0  0  0  0
  6 13  1  0  0  0  0
  6  5  2  0  0  0  0
  7  1  1  0  0  0  0
  8  2  1  0  0  0  0
 11 12  3  0  0  0  0
 14 15  1  0  0  0  0
 14 13  1  0  0  0  0
 14 16  1  0  0  0  0
 17 14  1  0  0  0  0
 18 21  2  0  0  0  0
 18 19  1  0  0  0  0
 20 18  2  0  0  0  0
 22 23  1  0  0  0  0
 22 18  1  0  0  0  0
M  END
