Coordinates from ORCA-job 4-MeO-Ph-N2-HSO4-B3LYPG-6-31G_dp-MTMO-d009-169-n800
 OpenBabel09051907533D

 23 22  0  0  0  0  0  0  0  0999 V2000
   -0.6619   -0.5306    0.8789 C   0  0  0  0  0  0  0  0  0  0  0  0
    0.5778    0.1116    0.8259 C   0  0  0  0  0  0  0  0  0  0  0  0
    0.6900    1.4240    1.2628 C   0  0  0  0  0  0  0  0  0  0  0  0
   -0.4132    2.1217    1.7551 C   0  0  0  0  0  0  0  0  0  0  0  0
   -1.6459    1.4864    1.8068 C   0  0  0  0  0  0  0  0  0  0  0  0
   -1.7792    0.1582    1.3689 C   0  0  0  0  0  0  0  0  0  0  0  0
   -0.7405   -1.5555    0.5388 H   0  0  0  0  0  0  0  0  0  0  0  0
    1.4527   -0.4071    0.4505 H   0  0  0  0  0  0  0  0  0  0  0  0
   -0.2979    3.1469    2.0868 H   0  0  0  0  0  0  0  0  0  0  0  0
   -2.5252    1.9982    2.1825 H   0  0  0  0  0  0  0  0  0  0  0  0
   14.2336    0.5605   -5.4890 N   0  0  0  0  0  0  0  0  0  0  0  0
   13.1919    0.4535   -5.1352 N   0  0  0  0  0  0  0  0  0  0  0  0
   -3.0314   -0.3686    1.4634 O   0  0  0  0  0  0  0  0  0  0  0  0
   -3.2389   -1.7006    1.0170 C   0  0  0  0  0  0  0  0  0  0  0  0
   -4.2986   -1.9077    1.1727 H   0  0  0  0  0  0  0  0  0  0  0  0
   -2.6433   -2.4184    1.5947 H   0  0  0  0  0  0  0  0  0  0  0  0
   -3.0014   -1.8104   -0.0489 H   0  0  0  0  0  0  0  0  0  0  0  0
    2.3888    2.9958    0.0266 S   0  0  0  0  0  0  0  0  0  0  0  0
    1.9639    2.0324    1.2828 O   0  0  0  0  0  0  0  0  0  0  0  0
    1.2555    3.7805   -0.4077 O   0  0  0  0  0  0  0  0  0  0  0  0
    3.6632    3.5623    0.4196 O   0  0  0  0  0  0  0  0  0  0  0  0
    2.6567    1.8992   -1.1508 O   0  0  0  0  0  0  0  0  0  0  0  0
    3.5881    1.6285   -1.0811 H   0  0  0  0  0  0  0  0  0  0  0  0
  1  6  1  0  0  0  0
  2  1  2  0  0  0  0
  2  3  1  0  0  0  0
  3 19  1  0  0  0  0
  3  4  2  0  0  0  0
  4  5  1  0  0  0  0
  4  9  1  0  0  0  0
  5 10  1  0  0  0  0
  6 13  1  0  0  0  0
  6  5  2  0  0  0  0
  7  1  1  0  0  0  0
  8  2  1  0  0  0  0
 11 12  3  0  0  0  0
 14 15  1  0  0  0  0
 14 13  1  0  0  0  0
 14 16  1  0  0  0  0
 17 14  1  0  0  0  0
 18 21  2  0  0  0  0
 18 19  1  0  0  0  0
 20 18  2  0  0  0  0
 22 23  1  0  0  0  0
 22 18  1  0  0  0  0
M  END
