Coordinates from ORCA-job 4-MeO-Ph-N2-HSO4-B3LYPG-6-31G_dp-MTMO-d009-169-n800
 OpenBabel09051907533D

 23 22  0  0  0  0  0  0  0  0999 V2000
   -0.2695   -0.5479    0.7107 C   0  0  0  0  0  0  0  0  0  0  0  0
    0.9858    0.0625    0.6486 C   0  0  0  0  0  0  0  0  0  0  0  0
    1.1293    1.3798    1.0609 C   0  0  0  0  0  0  0  0  0  0  0  0
    0.0425    2.1138    1.5366 C   0  0  0  0  0  0  0  0  0  0  0  0
   -1.2056    1.5102    1.5970 C   0  0  0  0  0  0  0  0  0  0  0  0
   -1.3704    0.1773    1.1848 C   0  0  0  0  0  0  0  0  0  0  0  0
   -0.3729   -1.5769    0.3901 H   0  0  0  0  0  0  0  0  0  0  0  0
    1.8485   -0.4847    0.2854 H   0  0  0  0  0  0  0  0  0  0  0  0
    0.1824    3.1421    1.8489 H   0  0  0  0  0  0  0  0  0  0  0  0
   -2.0728    2.0507    1.9605 H   0  0  0  0  0  0  0  0  0  0  0  0
    9.7683    0.8298   -3.5143 N   0  0  0  0  0  0  0  0  0  0  0  0
    8.7302    0.7537   -3.1424 N   0  0  0  0  0  0  0  0  0  0  0  0
   -2.6353   -0.3168    1.2873 O   0  0  0  0  0  0  0  0  0  0  0  0
   -2.8739   -1.6531    0.8700 C   0  0  0  0  0  0  0  0  0  0  0  0
   -3.9380   -1.8322    1.0303 H   0  0  0  0  0  0  0  0  0  0  0  0
   -2.2946   -2.3717    1.4631 H   0  0  0  0  0  0  0  0  0  0  0  0
   -2.6396   -1.7917   -0.1932 H   0  0  0  0  0  0  0  0  0  0  0  0
    2.8696    2.8888   -0.1969 S   0  0  0  0  0  0  0  0  0  0  0  0
    2.4179    1.9566    1.0738 O   0  0  0  0  0  0  0  0  0  0  0  0
    1.7539    3.6856   -0.6540 O   0  0  0  0  0  0  0  0  0  0  0  0
    4.1509    3.4397    0.1958 O   0  0  0  0  0  0  0  0  0  0  0  0
    3.1263    1.7664   -1.3519 O   0  0  0  0  0  0  0  0  0  0  0  0
    4.0516    1.4786   -1.2701 H   0  0  0  0  0  0  0  0  0  0  0  0
  1  6  1  0  0  0  0
  2  1  2  0  0  0  0
  2  3  1  0  0  0  0
  3 19  1  0  0  0  0
  3  4  2  0  0  0  0
  4  5  1  0  0  0  0
  4  9  1  0  0  0  0
  5 10  1  0  0  0  0
  6 13  1  0  0  0  0
  6  5  2  0  0  0  0
  7  1  1  0  0  0  0
  8  2  1  0  0  0  0
 11 12  3  0  0  0  0
 14 15  1  0  0  0  0
 14 13  1  0  0  0  0
 14 16  1  0  0  0  0
 17 14  1  0  0  0  0
 18 21  2  0  0  0  0
 18 19  1  0  0  0  0
 20 18  2  0  0  0  0
 22 23  1  0  0  0  0
 22 18  1  0  0  0  0
M  END
