Coordinates from ORCA-job 4-MeO-Ph-N2-HSO4-B3LYPG-6-31G_dp-MTMO-d009-169-n800
 OpenBabel09051907533D

 23 22  0  0  0  0  0  0  0  0999 V2000
   -0.1903   -0.5631    0.7061 C   0  0  0  0  0  0  0  0  0  0  0  0
    1.0842    0.0080    0.6616 C   0  0  0  0  0  0  0  0  0  0  0  0
    1.2518    1.3386    1.0179 C   0  0  0  0  0  0  0  0  0  0  0  0
    0.1715    2.1249    1.4185 C   0  0  0  0  0  0  0  0  0  0  0  0
   -1.0952    1.5599    1.4627 C   0  0  0  0  0  0  0  0  0  0  0  0
   -1.2848    0.2140    1.1072 C   0  0  0  0  0  0  0  0  0  0  0  0
   -0.3136   -1.6025    0.4287 H   0  0  0  0  0  0  0  0  0  0  0  0
    1.9426   -0.5786    0.3539 H   0  0  0  0  0  0  0  0  0  0  0  0
    0.3316    3.1624    1.6881 H   0  0  0  0  0  0  0  0  0  0  0  0
   -1.9579    2.1410    1.7697 H   0  0  0  0  0  0  0  0  0  0  0  0
    8.3121    1.2229   -3.1293 N   0  0  0  0  0  0  0  0  0  0  0  0
    7.3473    1.1658   -2.5931 N   0  0  0  0  0  0  0  0  0  0  0  0
   -2.5665   -0.2394    1.1887 O   0  0  0  0  0  0  0  0  0  0  0  0
   -2.8291   -1.5889    0.8329 C   0  0  0  0  0  0  0  0  0  0  0  0
   -3.9022   -1.7317    0.9680 H   0  0  0  0  0  0  0  0  0  0  0  0
   -2.2881   -2.2904    1.4802 H   0  0  0  0  0  0  0  0  0  0  0  0
   -2.5666   -1.7889   -0.2137 H   0  0  0  0  0  0  0  0  0  0  0  0
    3.1019    2.6996   -0.2587 S   0  0  0  0  0  0  0  0  0  0  0  0
    2.5551    1.8817    1.0524 O   0  0  0  0  0  0  0  0  0  0  0  0
    2.0132    3.4153   -0.8846 O   0  0  0  0  0  0  0  0  0  0  0  0
    4.3318    3.3253    0.1853 O   0  0  0  0  0  0  0  0  0  0  0  0
    3.4929    1.4795   -1.2681 O   0  0  0  0  0  0  0  0  0  0  0  0
    4.4433    1.3054   -1.1533 H   0  0  0  0  0  0  0  0  0  0  0  0
  1  6  1  0  0  0  0
  2  1  2  0  0  0  0
  2  3  1  0  0  0  0
  3 19  1  0  0  0  0
  3  4  2  0  0  0  0
  4  5  1  0  0  0  0
  4  9  1  0  0  0  0
  5 10  1  0  0  0  0
  6 13  1  0  0  0  0
  6  5  2  0  0  0  0
  7  1  1  0  0  0  0
  8  2  1  0  0  0  0
 11 12  3  0  0  0  0
 14 15  1  0  0  0  0
 14 13  1  0  0  0  0
 14 16  1  0  0  0  0
 17 14  1  0  0  0  0
 18 21  2  0  0  0  0
 18 19  1  0  0  0  0
 20 18  2  0  0  0  0
 22 23  1  0  0  0  0
 22 18  1  0  0  0  0
M  END
