Coordinates from ORCA-job 4-MeO-Ph-N2-HSO4-B3LYPG-6-31G_dp-MTMO-d009-169-n800
 OpenBabel09051907533D

 23 22  0  0  0  0  0  0  0  0999 V2000
   -0.1846   -0.6212    1.0764 C   0  0  0  0  0  0  0  0  0  0  0  0
    1.1767   -0.3236    1.1800 C   0  0  0  0  0  0  0  0  0  0  0  0
    1.6141    0.9744    0.9565 C   0  0  0  0  0  0  0  0  0  0  0  0
    0.7216    1.9945    0.6258 C   0  0  0  0  0  0  0  0  0  0  0  0
   -0.6304    1.7001    0.5193 C   0  0  0  0  0  0  0  0  0  0  0  0
   -1.0926    0.3922    0.7431 C   0  0  0  0  0  0  0  0  0  0  0  0
   -0.5184   -1.6350    1.2585 H   0  0  0  0  0  0  0  0  0  0  0  0
    1.8927   -1.0955    1.4383 H   0  0  0  0  0  0  0  0  0  0  0  0
    1.0907    2.9987    0.4522 H   0  0  0  0  0  0  0  0  0  0  0  0
   -1.3525    2.4675    0.2634 H   0  0  0  0  0  0  0  0  0  0  0  0
    4.1746    4.9871   -2.2977 N   0  0  0  0  0  0  0  0  0  0  0  0
    4.8614    4.4244   -2.9556 N   0  0  0  0  0  0  0  0  0  0  0  0
   -2.4367    0.2150    0.6151 O   0  0  0  0  0  0  0  0  0  0  0  0
   -2.9691   -1.0855    0.8172 C   0  0  0  0  0  0  0  0  0  0  0  0
   -4.0447   -0.9981    0.6567 H   0  0  0  0  0  0  0  0  0  0  0  0
   -2.7843   -1.4435    1.8382 H   0  0  0  0  0  0  0  0  0  0  0  0
   -2.5552   -1.8076    0.1018 H   0  0  0  0  0  0  0  0  0  0  0  0
    3.9629    1.3339   -0.1581 S   0  0  0  0  0  0  0  0  0  0  0  0
    2.9796    1.2781    1.1505 O   0  0  0  0  0  0  0  0  0  0  0  0
    3.2770    1.9448   -1.2745 O   0  0  0  0  0  0  0  0  0  0  0  0
    5.2330    1.7995    0.3615 O   0  0  0  0  0  0  0  0  0  0  0  0
    4.1082   -0.2475   -0.5288 O   0  0  0  0  0  0  0  0  0  0  0  0
    4.8609   -0.5921   -0.0185 H   0  0  0  0  0  0  0  0  0  0  0  0
  1  2  1  0  0  0  0
  1  7  1  0  0  0  0
  2  8  1  0  0  0  0
  3 19  1  0  0  0  0
  3  2  2  0  0  0  0
  4  3  1  0  0  0  0
  5  4  2  0  0  0  0
  5  6  1  0  0  0  0
  6  1  2  0  0  0  0
  9  4  1  0  0  0  0
 10  5  1  0  0  0  0
 12 11  3  0  0  0  0
 13  6  1  0  0  0  0
 13 14  1  0  0  0  0
 14 16  1  0  0  0  0
 15 14  1  0  0  0  0
 17 14  1  0  0  0  0
 18 21  2  0  0  0  0
 18 19  1  0  0  0  0
 20 18  2  0  0  0  0
 22 18  1  0  0  0  0
 22 23  1  0  0  0  0
M  END
