Coordinates from ORCA-job 4-MeO-Ph-N2-HSO4-B3LYPG-6-31G_dp-MTMO-d009-169-n800
 OpenBabel09051907533D

 23 22  0  0  0  0  0  0  0  0999 V2000
   -0.6099   -0.5313    0.8554 C   0  0  0  0  0  0  0  0  0  0  0  0
    0.6294    0.1117    0.8021 C   0  0  0  0  0  0  0  0  0  0  0  0
    0.7412    1.4238    1.2401 C   0  0  0  0  0  0  0  0  0  0  0  0
   -0.3621    2.1204    1.7339 C   0  0  0  0  0  0  0  0  0  0  0  0
   -1.5944    1.4843    1.7860 C   0  0  0  0  0  0  0  0  0  0  0  0
   -1.7272    0.1564    1.3470 C   0  0  0  0  0  0  0  0  0  0  0  0
   -0.6881   -1.5559    0.5145 H   0  0  0  0  0  0  0  0  0  0  0  0
    1.5043   -0.4061    0.4255 H   0  0  0  0  0  0  0  0  0  0  0  0
   -0.2472    3.1454    2.0665 H   0  0  0  0  0  0  0  0  0  0  0  0
   -2.4736    1.9952    2.1629 H   0  0  0  0  0  0  0  0  0  0  0  0
   13.6974    0.5637   -5.2515 N   0  0  0  0  0  0  0  0  0  0  0  0
   12.6554    0.4562   -4.8989 N   0  0  0  0  0  0  0  0  0  0  0  0
   -2.9790   -0.3712    1.4420 O   0  0  0  0  0  0  0  0  0  0  0  0
   -3.1861   -1.7029    0.9944 C   0  0  0  0  0  0  0  0  0  0  0  0
   -4.2455   -1.9108    1.1506 H   0  0  0  0  0  0  0  0  0  0  0  0
   -2.5896   -2.4210    1.5708 H   0  0  0  0  0  0  0  0  0  0  0  0
   -2.9493   -1.8114   -0.0718 H   0  0  0  0  0  0  0  0  0  0  0  0
    2.4377    2.9983    0.0041 S   0  0  0  0  0  0  0  0  0  0  0  0
    2.0148    2.0329    1.2595 O   0  0  0  0  0  0  0  0  0  0  0  0
    1.3036    3.7829   -0.4278 O   0  0  0  0  0  0  0  0  0  0  0  0
    3.7122    3.5649    0.3966 O   0  0  0  0  0  0  0  0  0  0  0  0
    2.7048    1.9036   -1.1751 O   0  0  0  0  0  0  0  0  0  0  0  0
    3.6358    1.6314   -1.1058 H   0  0  0  0  0  0  0  0  0  0  0  0
  1  6  1  0  0  0  0
  2  1  2  0  0  0  0
  2  3  1  0  0  0  0
  3 19  1  0  0  0  0
  3  4  2  0  0  0  0
  4  5  1  0  0  0  0
  4  9  1  0  0  0  0
  5 10  1  0  0  0  0
  6 13  1  0  0  0  0
  6  5  2  0  0  0  0
  7  1  1  0  0  0  0
  8  2  1  0  0  0  0
 11 12  3  0  0  0  0
 14 15  1  0  0  0  0
 14 13  1  0  0  0  0
 14 16  1  0  0  0  0
 17 14  1  0  0  0  0
 18 21  2  0  0  0  0
 18 19  1  0  0  0  0
 20 18  2  0  0  0  0
 22 23  1  0  0  0  0
 22 18  1  0  0  0  0
M  END
