Coordinates from ORCA-job 4-MeO-Ph-N2-HSO4-B3LYPG-6-31G_dp-MTMO-d009-169-n800
 OpenBabel09051907533D

 23 22  0  0  0  0  0  0  0  0999 V2000
   -0.3378   -0.5426    0.7359 C   0  0  0  0  0  0  0  0  0  0  0  0
    0.9121    0.0788    0.6740 C   0  0  0  0  0  0  0  0  0  0  0  0
    1.0465    1.3934    1.0980 C   0  0  0  0  0  0  0  0  0  0  0  0
   -0.0442    2.1137    1.5855 C   0  0  0  0  0  0  0  0  0  0  0  0
   -1.2870    1.4991    1.6460 C   0  0  0  0  0  0  0  0  0  0  0  0
   -1.4426    0.1689    1.2217 C   0  0  0  0  0  0  0  0  0  0  0  0
   -0.4340   -1.5694    0.4062 H   0  0  0  0  0  0  0  0  0  0  0  0
    1.7776   -0.4577    0.3019 H   0  0  0  0  0  0  0  0  0  0  0  0
    0.0885    3.1401    1.9069 H   0  0  0  0  0  0  0  0  0  0  0  0
   -2.1569    2.0289    2.0184 H   0  0  0  0  0  0  0  0  0  0  0  0
   10.6065    0.7479   -3.8684 N   0  0  0  0  0  0  0  0  0  0  0  0
    9.5656    0.6545   -3.5087 N   0  0  0  0  0  0  0  0  0  0  0  0
   -2.7029   -0.3366    1.3248 O   0  0  0  0  0  0  0  0  0  0  0  0
   -2.9326   -1.6702    0.8941 C   0  0  0  0  0  0  0  0  0  0  0  0
   -3.9947   -1.8593    1.0561 H   0  0  0  0  0  0  0  0  0  0  0  0
   -2.3457   -2.3906    1.4775 H   0  0  0  0  0  0  0  0  0  0  0  0
   -2.7010   -1.7956   -0.1714 H   0  0  0  0  0  0  0  0  0  0  0  0
    2.7683    2.9268   -0.1552 S   0  0  0  0  0  0  0  0  0  0  0  0
    2.3301    1.9811    1.1101 O   0  0  0  0  0  0  0  0  0  0  0  0
    1.6452    3.7209   -0.5986 O   0  0  0  0  0  0  0  0  0  0  0  0
    4.0489    3.4817    0.2341 O   0  0  0  0  0  0  0  0  0  0  0  0
    3.0240    1.8157   -1.3214 O   0  0  0  0  0  0  0  0  0  0  0  0
    3.9509    1.5311   -1.2463 H   0  0  0  0  0  0  0  0  0  0  0  0
  1  6  1  0  0  0  0
  2  1  2  0  0  0  0
  2  3  1  0  0  0  0
  3 19  1  0  0  0  0
  3  4  2  0  0  0  0
  4  5  1  0  0  0  0
  4  9  1  0  0  0  0
  5 10  1  0  0  0  0
  6 13  1  0  0  0  0
  6  5  2  0  0  0  0
  7  1  1  0  0  0  0
  8  2  1  0  0  0  0
 11 12  3  0  0  0  0
 14 15  1  0  0  0  0
 14 13  1  0  0  0  0
 14 16  1  0  0  0  0
 17 14  1  0  0  0  0
 18 21  2  0  0  0  0
 18 19  1  0  0  0  0
 20 18  2  0  0  0  0
 22 23  1  0  0  0  0
 22 18  1  0  0  0  0
M  END
