Coordinates from ORCA-job 4-MeO-Ph-N2-HSO4-B3LYPG-6-31G_dp-MTMO-d009-169-n800
 OpenBabel09051907533D

 23 22  0  0  0  0  0  0  0  0999 V2000
    0.0456   -0.1696    0.2421 C   0  0  0  0  0  0  0  0  0  0  0  0
    1.4168    0.0925    0.1661 C   0  0  0  0  0  0  0  0  0  0  0  0
    1.8854    1.3589    0.4999 C   0  0  0  0  0  0  0  0  0  0  0  0
    1.0235    2.3168    1.0459 C   0  0  0  0  0  0  0  0  0  0  0  0
   -0.3333    2.0520    1.1269 C   0  0  0  0  0  0  0  0  0  0  0  0
   -0.8386    0.8086    0.7103 C   0  0  0  0  0  0  0  0  0  0  0  0
   -0.3123   -1.1456   -0.0611 H   0  0  0  0  0  0  0  0  0  0  0  0
    2.0849   -0.6725   -0.2058 H   0  0  0  0  0  0  0  0  0  0  0  0
    1.4279    3.2718    1.3624 H   0  0  0  0  0  0  0  0  0  0  0  0
   -1.0251    2.7912    1.5155 H   0  0  0  0  0  0  0  0  0  0  0  0
    1.8103    2.2242   -1.6100 N   0  0  0  0  0  0  0  0  0  0  0  0
    0.9325    2.2917   -2.2837 N   0  0  0  0  0  0  0  0  0  0  0  0
   -2.1872    0.6524    0.8189 O   0  0  0  0  0  0  0  0  0  0  0  0
   -2.7561   -0.5837    0.4121 C   0  0  0  0  0  0  0  0  0  0  0  0
   -3.8306   -0.4882    0.5762 H   0  0  0  0  0  0  0  0  0  0  0  0
   -2.3737   -1.4212    1.0092 H   0  0  0  0  0  0  0  0  0  0  0  0
   -2.5681   -0.7836   -0.6503 H   0  0  0  0  0  0  0  0  0  0  0  0
    4.4639    0.8488   -0.0530 S   0  0  0  0  0  0  0  0  0  0  0  0
    3.2457    1.7261    0.5729 O   0  0  0  0  0  0  0  0  0  0  0  0
    4.0921    0.2390   -1.3091 O   0  0  0  0  0  0  0  0  0  0  0  0
    5.6242    1.6956    0.1202 O   0  0  0  0  0  0  0  0  0  0  0  0
    4.5461   -0.3817    1.0114 O   0  0  0  0  0  0  0  0  0  0  0  0
    5.0109   -0.0628    1.8039 H   0  0  0  0  0  0  0  0  0  0  0  0
  1  6  1  0  0  0  0
  2  1  2  0  0  0  0
  2  3  1  0  0  0  0
  3 19  1  0  0  0  0
  3  4  2  0  0  0  0
  4  5  1  0  0  0  0
  4  9  1  0  0  0  0
  5 10  1  0  0  0  0
  6 13  1  0  0  0  0
  6  5  2  0  0  0  0
  7  1  1  0  0  0  0
  8  2  1  0  0  0  0
 12 11  3  0  0  0  0
 14 15  1  0  0  0  0
 14 13  1  0  0  0  0
 14 16  1  0  0  0  0
 17 14  1  0  0  0  0
 18 21  2  0  0  0  0
 18 19  1  0  0  0  0
 18 22  1  0  0  0  0
 20 18  2  0  0  0  0
 22 23  1  0  0  0  0
M  END
