Coordinates from ORCA-job 4-MeO-Ph-N2-HSO4-B3LYPG-6-31G_dp-MTMO-d009-169-n800
 OpenBabel09051907533D

 23 22  0  0  0  0  0  0  0  0999 V2000
   -0.5147   -0.5331    0.8157 C   0  0  0  0  0  0  0  0  0  0  0  0
    0.7251    0.1089    0.7635 C   0  0  0  0  0  0  0  0  0  0  0  0
    0.8369    1.4219    1.1988 C   0  0  0  0  0  0  0  0  0  0  0  0
   -0.2669    2.1203    1.6890 C   0  0  0  0  0  0  0  0  0  0  0  0
   -1.4997    1.4851    1.7399 C   0  0  0  0  0  0  0  0  0  0  0  0
   -1.6325    0.1563    1.3036 C   0  0  0  0  0  0  0  0  0  0  0  0
   -0.5930   -1.5584    0.4768 H   0  0  0  0  0  0  0  0  0  0  0  0
    1.6004   -0.4103    0.3897 H   0  0  0  0  0  0  0  0  0  0  0  0
   -0.1519    3.1459    2.0195 H   0  0  0  0  0  0  0  0  0  0  0  0
   -2.3794    1.9974    2.1140 H   0  0  0  0  0  0  0  0  0  0  0  0
   12.6876    0.5847   -4.8146 N   0  0  0  0  0  0  0  0  0  0  0  0
   11.6457    0.4828   -4.4601 N   0  0  0  0  0  0  0  0  0  0  0  0
   -2.8849   -0.3702    1.3973 O   0  0  0  0  0  0  0  0  0  0  0  0
   -3.0920   -1.7028    0.9523 C   0  0  0  0  0  0  0  0  0  0  0  0
   -4.1518   -1.9097    1.1070 H   0  0  0  0  0  0  0  0  0  0  0  0
   -2.4970   -2.4199    1.5316 H   0  0  0  0  0  0  0  0  0  0  0  0
   -2.8532   -1.8139   -0.1132 H   0  0  0  0  0  0  0  0  0  0  0  0
    2.5371    2.9923   -0.0372 S   0  0  0  0  0  0  0  0  0  0  0  0
    2.1108    2.0302    1.2196 O   0  0  0  0  0  0  0  0  0  0  0  0
    1.4046    3.7769   -0.4732 O   0  0  0  0  0  0  0  0  0  0  0  0
    3.8113    3.5587    0.3566 O   0  0  0  0  0  0  0  0  0  0  0  0
    2.8057    1.8946   -1.2133 O   0  0  0  0  0  0  0  0  0  0  0  0
    3.7367    1.6228   -1.1421 H   0  0  0  0  0  0  0  0  0  0  0  0
  1  6  1  0  0  0  0
  2  1  2  0  0  0  0
  2  3  1  0  0  0  0
  3 19  1  0  0  0  0
  3  4  2  0  0  0  0
  4  5  1  0  0  0  0
  4  9  1  0  0  0  0
  5 10  1  0  0  0  0
  6 13  1  0  0  0  0
  6  5  2  0  0  0  0
  7  1  1  0  0  0  0
  8  2  1  0  0  0  0
 11 12  3  0  0  0  0
 14 15  1  0  0  0  0
 14 13  1  0  0  0  0
 14 16  1  0  0  0  0
 17 14  1  0  0  0  0
 18 21  2  0  0  0  0
 18 19  1  0  0  0  0
 20 18  2  0  0  0  0
 22 23  1  0  0  0  0
 22 18  1  0  0  0  0
M  END
