Coordinates from ORCA-job 4-MeO-Ph-N2-HSO4-B3LYPG-6-31G_dp-MTMO-d009-169-n800
 OpenBabel09051907533D

 23 22  0  0  0  0  0  0  0  0999 V2000
   -0.7018   -0.5300    0.8967 C   0  0  0  0  0  0  0  0  0  0  0  0
    0.5380    0.1122    0.8441 C   0  0  0  0  0  0  0  0  0  0  0  0
    0.6500    1.4247    1.2806 C   0  0  0  0  0  0  0  0  0  0  0  0
   -0.4535    2.1226    1.7722 C   0  0  0  0  0  0  0  0  0  0  0  0
   -1.6863    1.4873    1.8235 C   0  0  0  0  0  0  0  0  0  0  0  0
   -1.8193    0.1589    1.3860 C   0  0  0  0  0  0  0  0  0  0  0  0
   -0.7802   -1.5550    0.5569 H   0  0  0  0  0  0  0  0  0  0  0  0
    1.4130   -0.4067    0.4692 H   0  0  0  0  0  0  0  0  0  0  0  0
   -0.3384    3.1479    2.1036 H   0  0  0  0  0  0  0  0  0  0  0  0
   -2.5657    1.9992    2.1987 H   0  0  0  0  0  0  0  0  0  0  0  0
   14.6521    0.5531   -5.6741 N   0  0  0  0  0  0  0  0  0  0  0  0
   13.6102    0.4489   -5.3201 N   0  0  0  0  0  0  0  0  0  0  0  0
   -3.0716   -0.3678    1.4801 O   0  0  0  0  0  0  0  0  0  0  0  0
   -3.2789   -1.7000    1.0341 C   0  0  0  0  0  0  0  0  0  0  0  0
   -4.3386   -1.9071    1.1893 H   0  0  0  0  0  0  0  0  0  0  0  0
   -2.6835   -2.4176    1.6122 H   0  0  0  0  0  0  0  0  0  0  0  0
   -3.0409   -1.8101   -0.0317 H   0  0  0  0  0  0  0  0  0  0  0  0
    2.3493    2.9961    0.0447 S   0  0  0  0  0  0  0  0  0  0  0  0
    1.9238    2.0332    1.3010 O   0  0  0  0  0  0  0  0  0  0  0  0
    1.2163    3.7806   -0.3904 O   0  0  0  0  0  0  0  0  0  0  0  0
    3.6235    3.5628    0.4382 O   0  0  0  0  0  0  0  0  0  0  0  0
    2.6180    1.8992   -1.1321 O   0  0  0  0  0  0  0  0  0  0  0  0
    3.5493    1.6285   -1.0617 H   0  0  0  0  0  0  0  0  0  0  0  0
  1  6  1  0  0  0  0
  2  1  2  0  0  0  0
  2  3  1  0  0  0  0
  3 19  1  0  0  0  0
  3  4  2  0  0  0  0
  4  5  1  0  0  0  0
  4  9  1  0  0  0  0
  5 10  1  0  0  0  0
  6 13  1  0  0  0  0
  6  5  2  0  0  0  0
  7  1  1  0  0  0  0
  8  2  1  0  0  0  0
 11 12  3  0  0  0  0
 14 15  1  0  0  0  0
 14 13  1  0  0  0  0
 14 16  1  0  0  0  0
 17 14  1  0  0  0  0
 18 21  2  0  0  0  0
 18 19  1  0  0  0  0
 20 18  2  0  0  0  0
 22 23  1  0  0  0  0
 22 18  1  0  0  0  0
M  END
