Coordinates from ORCA-job 4-MeO-Ph-N2-HSO4-B3LYPG-6-31G_dp-MTMO-d009-169-n800
 OpenBabel09051907533D

 23 22  0  0  0  0  0  0  0  0999 V2000
   -0.7490   -0.5294    0.9169 C   0  0  0  0  0  0  0  0  0  0  0  0
    0.4911    0.1121    0.8639 C   0  0  0  0  0  0  0  0  0  0  0  0
    0.6040    1.4246    1.3004 C   0  0  0  0  0  0  0  0  0  0  0  0
   -0.4989    2.1230    1.7925 C   0  0  0  0  0  0  0  0  0  0  0  0
   -1.7320    1.4884    1.8443 C   0  0  0  0  0  0  0  0  0  0  0  0
   -1.8659    0.1601    1.4068 C   0  0  0  0  0  0  0  0  0  0  0  0
   -0.8281   -1.5543    0.5771 H   0  0  0  0  0  0  0  0  0  0  0  0
    1.3657   -0.4071    0.4886 H   0  0  0  0  0  0  0  0  0  0  0  0
   -0.3831    3.1483    2.1239 H   0  0  0  0  0  0  0  0  0  0  0  0
   -2.6110    2.0007    2.2198 H   0  0  0  0  0  0  0  0  0  0  0  0
   15.1399    0.5474   -5.8863 N   0  0  0  0  0  0  0  0  0  0  0  0
   14.0976    0.4466   -5.5326 N   0  0  0  0  0  0  0  0  0  0  0  0
   -3.1184   -0.3659    1.5014 O   0  0  0  0  0  0  0  0  0  0  0  0
   -3.3266   -1.6980    1.0554 C   0  0  0  0  0  0  0  0  0  0  0  0
   -4.3864   -1.9046    1.2112 H   0  0  0  0  0  0  0  0  0  0  0  0
   -2.7313   -2.4160    1.6332 H   0  0  0  0  0  0  0  0  0  0  0  0
   -3.0892   -1.8082   -0.0105 H   0  0  0  0  0  0  0  0  0  0  0  0
    2.3038    2.9950    0.0639 S   0  0  0  0  0  0  0  0  0  0  0  0
    1.8782    2.0324    1.3204 O   0  0  0  0  0  0  0  0  0  0  0  0
    1.1709    3.7797   -0.3713 O   0  0  0  0  0  0  0  0  0  0  0  0
    3.5781    3.5615    0.4572 O   0  0  0  0  0  0  0  0  0  0  0  0
    2.5721    1.8978   -1.1128 O   0  0  0  0  0  0  0  0  0  0  0  0
    3.5034    1.6268   -1.0422 H   0  0  0  0  0  0  0  0  0  0  0  0
  1  6  1  0  0  0  0
  2  1  2  0  0  0  0
  2  3  1  0  0  0  0
  3 19  1  0  0  0  0
  3  4  2  0  0  0  0
  4  5  1  0  0  0  0
  4  9  1  0  0  0  0
  5 10  1  0  0  0  0
  6 13  1  0  0  0  0
  6  5  2  0  0  0  0
  7  1  1  0  0  0  0
  8  2  1  0  0  0  0
 11 12  3  0  0  0  0
 14 15  1  0  0  0  0
 14 13  1  0  0  0  0
 14 16  1  0  0  0  0
 17 14  1  0  0  0  0
 18 21  2  0  0  0  0
 18 19  1  0  0  0  0
 20 18  2  0  0  0  0
 22 23  1  0  0  0  0
 22 18  1  0  0  0  0
M  END
