Coordinates from ORCA-job 4-MeO-Ph-N2-HSO4-B3LYPG-6-31G_dp-MTMO-d009-169-n800
 OpenBabel09051907533D

 23 22  0  0  0  0  0  0  0  0999 V2000
   -0.1670   -0.5733    0.6834 C   0  0  0  0  0  0  0  0  0  0  0  0
    1.1173   -0.0263    0.6210 C   0  0  0  0  0  0  0  0  0  0  0  0
    1.3137    1.3029    0.9683 C   0  0  0  0  0  0  0  0  0  0  0  0
    0.2531    2.1113    1.3768 C   0  0  0  0  0  0  0  0  0  0  0  0
   -1.0234    1.5702    1.4389 C   0  0  0  0  0  0  0  0  0  0  0  0
   -1.2420    0.2262    1.0932 C   0  0  0  0  0  0  0  0  0  0  0  0
   -0.3132   -1.6116    0.4130 H   0  0  0  0  0  0  0  0  0  0  0  0
    1.9615   -0.6295    0.3062 H   0  0  0  0  0  0  0  0  0  0  0  0
    0.4356    3.1472    1.6388 H   0  0  0  0  0  0  0  0  0  0  0  0
   -1.8716    2.1689    1.7525 H   0  0  0  0  0  0  0  0  0  0  0  0
    7.7676    1.4163   -2.7478 N   0  0  0  0  0  0  0  0  0  0  0  0
    6.7867    1.3220   -2.2479 N   0  0  0  0  0  0  0  0  0  0  0  0
   -2.5311   -0.2030    1.1926 O   0  0  0  0  0  0  0  0  0  0  0  0
   -2.8222   -1.5501    0.8504 C   0  0  0  0  0  0  0  0  0  0  0  0
   -3.8957   -1.6730    1.0015 H   0  0  0  0  0  0  0  0  0  0  0  0
   -2.2845   -2.2565    1.4952 H   0  0  0  0  0  0  0  0  0  0  0  0
   -2.5781   -1.7624   -0.1983 H   0  0  0  0  0  0  0  0  0  0  0  0
    3.1827    2.6155   -0.3382 S   0  0  0  0  0  0  0  0  0  0  0  0
    2.6275    1.8215    0.9846 O   0  0  0  0  0  0  0  0  0  0  0  0
    2.0914    3.3076   -0.9875 O   0  0  0  0  0  0  0  0  0  0  0  0
    4.3997    3.2690    0.1030 O   0  0  0  0  0  0  0  0  0  0  0  0
    3.6033    1.3775   -1.3097 O   0  0  0  0  0  0  0  0  0  0  0  0
    4.5732    1.2903   -1.2688 H   0  0  0  0  0  0  0  0  0  0  0  0
  1  6  1  0  0  0  0
  2  1  2  0  0  0  0
  2  3  1  0  0  0  0
  3 19  1  0  0  0  0
  3  4  2  0  0  0  0
  4  5  1  0  0  0  0
  4  9  1  0  0  0  0
  5 10  1  0  0  0  0
  6 13  1  0  0  0  0
  6  5  2  0  0  0  0
  7  1  1  0  0  0  0
  8  2  1  0  0  0  0
 11 12  3  0  0  0  0
 14 15  1  0  0  0  0
 14 13  1  0  0  0  0
 14 16  1  0  0  0  0
 17 14  1  0  0  0  0
 18 21  2  0  0  0  0
 18 19  1  0  0  0  0
 20 18  2  0  0  0  0
 22 23  1  0  0  0  0
 22 18  1  0  0  0  0
M  END
