Coordinates from ORCA-job 4-MeO-Ph-N2-HSO4-B3LYPG-6-31G_dp-MTMO-d009-169-n800
 OpenBabel09051907533D

 23 22  0  0  0  0  0  0  0  0999 V2000
   -0.1518   -0.5762    0.6714 C   0  0  0  0  0  0  0  0  0  0  0  0
    1.1329   -0.0313    0.5985 C   0  0  0  0  0  0  0  0  0  0  0  0
    1.3349    1.2969    0.9462 C   0  0  0  0  0  0  0  0  0  0  0  0
    0.2791    2.1067    1.3649 C   0  0  0  0  0  0  0  0  0  0  0  0
   -0.9978    1.5679    1.4364 C   0  0  0  0  0  0  0  0  0  0  0  0
   -1.2219    0.2247    1.0911 C   0  0  0  0  0  0  0  0  0  0  0  0
   -0.3022   -1.6140    0.4011 H   0  0  0  0  0  0  0  0  0  0  0  0
    1.9732   -0.6358    0.2760 H   0  0  0  0  0  0  0  0  0  0  0  0
    0.4655    3.1419    1.6264 H   0  0  0  0  0  0  0  0  0  0  0  0
   -1.8423    2.1679    1.7577 H   0  0  0  0  0  0  0  0  0  0  0  0
    7.6808    1.4057   -2.5539 N   0  0  0  0  0  0  0  0  0  0  0  0
    6.6675    1.2983   -2.1271 N   0  0  0  0  0  0  0  0  0  0  0  0
   -2.5109   -0.2022    1.2009 O   0  0  0  0  0  0  0  0  0  0  0  0
   -2.8072   -1.5487    0.8610 C   0  0  0  0  0  0  0  0  0  0  0  0
   -3.8795   -1.6700    1.0216 H   0  0  0  0  0  0  0  0  0  0  0  0
   -2.2649   -2.2562    1.5008 H   0  0  0  0  0  0  0  0  0  0  0  0
   -2.5727   -1.7613   -0.1899 H   0  0  0  0  0  0  0  0  0  0  0  0
    3.1842    2.6297   -0.3647 S   0  0  0  0  0  0  0  0  0  0  0  0
    2.6503    1.8110    0.9519 O   0  0  0  0  0  0  0  0  0  0  0  0
    2.0920    3.3695   -0.9574 O   0  0  0  0  0  0  0  0  0  0  0  0
    4.4308    3.2387    0.0576 O   0  0  0  0  0  0  0  0  0  0  0  0
    3.5392    1.4124   -1.3846 O   0  0  0  0  0  0  0  0  0  0  0  0
    4.5057    1.2852   -1.3647 H   0  0  0  0  0  0  0  0  0  0  0  0
  1  6  1  0  0  0  0
  2  1  2  0  0  0  0
  2  3  1  0  0  0  0
  3 19  1  0  0  0  0
  3  4  2  0  0  0  0
  4  5  1  0  0  0  0
  4  9  1  0  0  0  0
  5 10  1  0  0  0  0
  6 13  1  0  0  0  0
  6  5  2  0  0  0  0
  7  1  1  0  0  0  0
  8  2  1  0  0  0  0
 11 12  3  0  0  0  0
 14 15  1  0  0  0  0
 14 13  1  0  0  0  0
 14 16  1  0  0  0  0
 17 14  1  0  0  0  0
 18 21  2  0  0  0  0
 18 19  1  0  0  0  0
 20 18  2  0  0  0  0
 22 23  1  0  0  0  0
 22 18  1  0  0  0  0
M  END
