Coordinates from ORCA-job 4-MeO-Ph-N2-HSO4-B3LYPG-6-31G_dp-MTMO-d009-169-n800
 OpenBabel09051907533D

 23 22  0  0  0  0  0  0  0  0999 V2000
   -0.1913   -0.5623    0.7078 C   0  0  0  0  0  0  0  0  0  0  0  0
    1.0822    0.0111    0.6646 C   0  0  0  0  0  0  0  0  0  0  0  0
    1.2471    1.3419    1.0218 C   0  0  0  0  0  0  0  0  0  0  0  0
    0.1650    2.1259    1.4220 C   0  0  0  0  0  0  0  0  0  0  0  0
   -1.1007    1.5587    1.4647 C   0  0  0  0  0  0  0  0  0  0  0  0
   -1.2876    0.2126    1.1083 C   0  0  0  0  0  0  0  0  0  0  0  0
   -0.3125   -1.6018    0.4297 H   0  0  0  0  0  0  0  0  0  0  0  0
    1.9418   -0.5738    0.3574 H   0  0  0  0  0  0  0  0  0  0  0  0
    0.3229    3.1637    1.6923 H   0  0  0  0  0  0  0  0  0  0  0  0
   -1.9648    2.1380    1.7713 H   0  0  0  0  0  0  0  0  0  0  0  0
    8.3587    1.2008   -3.1560 N   0  0  0  0  0  0  0  0  0  0  0  0
    7.3934    1.1459   -2.6203 N   0  0  0  0  0  0  0  0  0  0  0  0
   -2.5685   -0.2431    1.1884 O   0  0  0  0  0  0  0  0  0  0  0  0
   -2.8284   -1.5928    0.8313 C   0  0  0  0  0  0  0  0  0  0  0  0
   -3.9014   -1.7375    0.9651 H   0  0  0  0  0  0  0  0  0  0  0  0
   -2.2869   -2.2939    1.4787 H   0  0  0  0  0  0  0  0  0  0  0  0
   -2.5644   -1.7916   -0.2151 H   0  0  0  0  0  0  0  0  0  0  0  0
    3.0940    2.7095   -0.2517 S   0  0  0  0  0  0  0  0  0  0  0  0
    2.5494    1.8872    1.0575 O   0  0  0  0  0  0  0  0  0  0  0  0
    2.0052    3.4303   -0.8717 O   0  0  0  0  0  0  0  0  0  0  0  0
    4.3265    3.3302    0.1917 O   0  0  0  0  0  0  0  0  0  0  0  0
    3.4785    1.4930   -1.2679 O   0  0  0  0  0  0  0  0  0  0  0  0
    4.4265    1.3086   -1.1488 H   0  0  0  0  0  0  0  0  0  0  0  0
  1  6  1  0  0  0  0
  2  1  2  0  0  0  0
  2  3  1  0  0  0  0
  3 19  1  0  0  0  0
  3  4  2  0  0  0  0
  4  5  1  0  0  0  0
  4  9  1  0  0  0  0
  5 10  1  0  0  0  0
  6 13  1  0  0  0  0
  6  5  2  0  0  0  0
  7  1  1  0  0  0  0
  8  2  1  0  0  0  0
 11 12  3  0  0  0  0
 14 15  1  0  0  0  0
 14 13  1  0  0  0  0
 14 16  1  0  0  0  0
 17 14  1  0  0  0  0
 18 21  2  0  0  0  0
 18 19  1  0  0  0  0
 20 18  2  0  0  0  0
 22 23  1  0  0  0  0
 22 18  1  0  0  0  0
M  END
