Coordinates from ORCA-job 4-MeO-Ph-N2-HSO4-B3LYPG-6-31G_dp-MTMO-d009-169-n800
 OpenBabel09051907533D

 23 22  0  0  0  0  0  0  0  0999 V2000
   -0.1942   -0.5603    0.7123 C   0  0  0  0  0  0  0  0  0  0  0  0
    1.0762    0.0201    0.6725 C   0  0  0  0  0  0  0  0  0  0  0  0
    1.2334    1.3511    1.0324 C   0  0  0  0  0  0  0  0  0  0  0  0
    0.1463    2.1285    1.4320 C   0  0  0  0  0  0  0  0  0  0  0  0
   -1.1165    1.5544    1.4709 C   0  0  0  0  0  0  0  0  0  0  0  0
   -1.2955    0.2080    1.1118 C   0  0  0  0  0  0  0  0  0  0  0  0
   -0.3091   -1.6000    0.4323 H   0  0  0  0  0  0  0  0  0  0  0  0
    1.9395   -0.5599    0.3663 H   0  0  0  0  0  0  0  0  0  0  0  0
    0.2980    3.1665    1.7044 H   0  0  0  0  0  0  0  0  0  0  0  0
   -1.9842    2.1286    1.7767 H   0  0  0  0  0  0  0  0  0  0  0  0
    8.5030    1.1309   -3.2290 N   0  0  0  0  0  0  0  0  0  0  0  0
    7.5341    1.0818   -2.6993 N   0  0  0  0  0  0  0  0  0  0  0  0
   -2.5741   -0.2546    1.1882 O   0  0  0  0  0  0  0  0  0  0  0  0
   -2.8261   -1.6049    0.8276 C   0  0  0  0  0  0  0  0  0  0  0  0
   -3.8987   -1.7554    0.9581 H   0  0  0  0  0  0  0  0  0  0  0  0
   -2.2829   -2.3046    1.4751 H   0  0  0  0  0  0  0  0  0  0  0  0
   -2.5581   -1.8001   -0.2185 H   0  0  0  0  0  0  0  0  0  0  0  0
    3.0690    2.7415   -0.2308 S   0  0  0  0  0  0  0  0  0  0  0  0
    2.5329    1.9025    1.0714 O   0  0  0  0  0  0  0  0  0  0  0  0
    1.9799    3.4805   -0.8279 O   0  0  0  0  0  0  0  0  0  0  0  0
    4.3111    3.3448    0.2097 O   0  0  0  0  0  0  0  0  0  0  0  0
    3.4305    1.5388   -1.2713 O   0  0  0  0  0  0  0  0  0  0  0  0
    4.3704    1.3226   -1.1437 H   0  0  0  0  0  0  0  0  0  0  0  0
  1  6  1  0  0  0  0
  2  1  2  0  0  0  0
  2  3  1  0  0  0  0
  3 19  1  0  0  0  0
  3  4  2  0  0  0  0
  4  5  1  0  0  0  0
  4  9  1  0  0  0  0
  5 10  1  0  0  0  0
  6 13  1  0  0  0  0
  6  5  2  0  0  0  0
  7  1  1  0  0  0  0
  8  2  1  0  0  0  0
 11 12  3  0  0  0  0
 14 15  1  0  0  0  0
 14 13  1  0  0  0  0
 14 16  1  0  0  0  0
 17 14  1  0  0  0  0
 18 21  2  0  0  0  0
 18 19  1  0  0  0  0
 20 18  2  0  0  0  0
 22 23  1  0  0  0  0
 22 18  1  0  0  0  0
M  END
