Coordinates from ORCA-job 4-MeO-Ph-N2-HSO4-B3LYPG-6-31G_dp-MTMO-d009-169-n800
 OpenBabel09051907533D

 23 22  0  0  0  0  0  0  0  0999 V2000
   -0.7179   -0.5298    0.9037 C   0  0  0  0  0  0  0  0  0  0  0  0
    0.5219    0.1122    0.8511 C   0  0  0  0  0  0  0  0  0  0  0  0
    0.6340    1.4248    1.2876 C   0  0  0  0  0  0  0  0  0  0  0  0
   -0.4694    2.1228    1.7791 C   0  0  0  0  0  0  0  0  0  0  0  0
   -1.7022    1.4876    1.8304 C   0  0  0  0  0  0  0  0  0  0  0  0
   -1.8354    0.1593    1.3930 C   0  0  0  0  0  0  0  0  0  0  0  0
   -0.7965   -1.5548    0.5640 H   0  0  0  0  0  0  0  0  0  0  0  0
    1.3969   -0.4067    0.4762 H   0  0  0  0  0  0  0  0  0  0  0  0
   -0.3541    3.1481    2.1105 H   0  0  0  0  0  0  0  0  0  0  0  0
   -2.5815    1.9996    2.2056 H   0  0  0  0  0  0  0  0  0  0  0  0
   14.8200    0.5507   -5.7475 N   0  0  0  0  0  0  0  0  0  0  0  0
   13.7780    0.4477   -5.3936 N   0  0  0  0  0  0  0  0  0  0  0  0
   -3.0877   -0.3673    1.4872 O   0  0  0  0  0  0  0  0  0  0  0  0
   -3.2951   -1.6995    1.0412 C   0  0  0  0  0  0  0  0  0  0  0  0
   -4.3549   -1.9064    1.1965 H   0  0  0  0  0  0  0  0  0  0  0  0
   -2.6998   -2.4171    1.6194 H   0  0  0  0  0  0  0  0  0  0  0  0
   -3.0572   -1.8097   -0.0246 H   0  0  0  0  0  0  0  0  0  0  0  0
    2.3336    2.9960    0.0516 S   0  0  0  0  0  0  0  0  0  0  0  0
    1.9080    2.0331    1.3080 O   0  0  0  0  0  0  0  0  0  0  0  0
    1.2006    3.7804   -0.3837 O   0  0  0  0  0  0  0  0  0  0  0  0
    3.6078    3.5626    0.4451 O   0  0  0  0  0  0  0  0  0  0  0  0
    2.6022    1.8989   -1.1252 O   0  0  0  0  0  0  0  0  0  0  0  0
    3.5335    1.6281   -1.0546 H   0  0  0  0  0  0  0  0  0  0  0  0
  1  6  1  0  0  0  0
  2  1  2  0  0  0  0
  2  3  1  0  0  0  0
  3 19  1  0  0  0  0
  3  4  2  0  0  0  0
  4  5  1  0  0  0  0
  4  9  1  0  0  0  0
  5 10  1  0  0  0  0
  6 13  1  0  0  0  0
  6  5  2  0  0  0  0
  7  1  1  0  0  0  0
  8  2  1  0  0  0  0
 11 12  3  0  0  0  0
 14 15  1  0  0  0  0
 14 13  1  0  0  0  0
 14 16  1  0  0  0  0
 17 14  1  0  0  0  0
 18 21  2  0  0  0  0
 18 19  1  0  0  0  0
 20 18  2  0  0  0  0
 22 23  1  0  0  0  0
 22 18  1  0  0  0  0
M  END
