Coordinates from ORCA-job 4-MeO-Ph-N2-HSO4-B3LYPG-6-31G_dp-MTMO-d009-169-n800
 OpenBabel09051907533D

 23 22  0  0  0  0  0  0  0  0999 V2000
    0.0424   -0.1800    0.2741 C   0  0  0  0  0  0  0  0  0  0  0  0
    1.4168    0.0781    0.2157 C   0  0  0  0  0  0  0  0  0  0  0  0
    1.8878    1.3277    0.5968 C   0  0  0  0  0  0  0  0  0  0  0  0
    1.0171    2.3072    1.0807 C   0  0  0  0  0  0  0  0  0  0  0  0
   -0.3429    2.0457    1.1430 C   0  0  0  0  0  0  0  0  0  0  0  0
   -0.8439    0.7987    0.7347 C   0  0  0  0  0  0  0  0  0  0  0  0
   -0.3149   -1.1521   -0.0423 H   0  0  0  0  0  0  0  0  0  0  0  0
    2.0862   -0.6889   -0.1497 H   0  0  0  0  0  0  0  0  0  0  0  0
    1.4176    3.2663    1.3899 H   0  0  0  0  0  0  0  0  0  0  0  0
   -1.0397    2.7939    1.5046 H   0  0  0  0  0  0  0  0  0  0  0  0
    1.8320    2.3910   -1.8431 N   0  0  0  0  0  0  0  0  0  0  0  0
    0.9904    2.3647   -2.5603 N   0  0  0  0  0  0  0  0  0  0  0  0
   -2.1949    0.6439    0.8309 O   0  0  0  0  0  0  0  0  0  0  0  0
   -2.7590   -0.5955    0.4290 C   0  0  0  0  0  0  0  0  0  0  0  0
   -3.8344   -0.5024    0.5893 H   0  0  0  0  0  0  0  0  0  0  0  0
   -2.3760   -1.4290    1.0316 H   0  0  0  0  0  0  0  0  0  0  0  0
   -2.5677   -0.8014   -0.6318 H   0  0  0  0  0  0  0  0  0  0  0  0
    4.4555    0.8517   -0.0316 S   0  0  0  0  0  0  0  0  0  0  0  0
    3.2462    1.7073    0.6396 O   0  0  0  0  0  0  0  0  0  0  0  0
    4.0660    0.2901   -1.3045 O   0  0  0  0  0  0  0  0  0  0  0  0
    5.6192    1.6905    0.1578 O   0  0  0  0  0  0  0  0  0  0  0  0
    4.5493   -0.4172    0.9862 O   0  0  0  0  0  0  0  0  0  0  0  0
    5.0316   -0.1298    1.7803 H   0  0  0  0  0  0  0  0  0  0  0  0
  1  6  1  0  0  0  0
  2  1  2  0  0  0  0
  2  3  1  0  0  0  0
  3 19  1  0  0  0  0
  3  4  2  0  0  0  0
  4  5  1  0  0  0  0
  4  9  1  0  0  0  0
  5 10  1  0  0  0  0
  6 13  1  0  0  0  0
  6  5  2  0  0  0  0
  7  1  1  0  0  0  0
  8  2  1  0  0  0  0
 12 11  3  0  0  0  0
 14 15  1  0  0  0  0
 14 13  1  0  0  0  0
 14 16  1  0  0  0  0
 17 14  1  0  0  0  0
 18 21  2  0  0  0  0
 18 19  1  0  0  0  0
 18 22  1  0  0  0  0
 20 18  2  0  0  0  0
 22 23  1  0  0  0  0
M  END
