Coordinates from ORCA-job 4-MeO-Ph-N2-HSO4-B3LYPG-6-31G_dp-MTMO-d009-169-n800
 OpenBabel09051907533D

 23 22  0  0  0  0  0  0  0  0999 V2000
   -0.4321   -0.5367    0.7787 C   0  0  0  0  0  0  0  0  0  0  0  0
    0.8112    0.0981    0.7229 C   0  0  0  0  0  0  0  0  0  0  0  0
    0.9310    1.4116    1.1543 C   0  0  0  0  0  0  0  0  0  0  0  0
   -0.1681    2.1177    1.6438 C   0  0  0  0  0  0  0  0  0  0  0  0
   -1.4045    1.4898    1.6982 C   0  0  0  0  0  0  0  0  0  0  0  0
   -1.5454    0.1605    1.2660 C   0  0  0  0  0  0  0  0  0  0  0  0
   -0.5167   -1.5626    0.4430 H   0  0  0  0  0  0  0  0  0  0  0  0
    1.6831   -0.4272    0.3495 H   0  0  0  0  0  0  0  0  0  0  0  0
   -0.0469    3.1437    1.9711 H   0  0  0  0  0  0  0  0  0  0  0  0
   -2.2807    2.0082    2.0719 H   0  0  0  0  0  0  0  0  0  0  0  0
   11.7433    0.6457   -4.3880 N   0  0  0  0  0  0  0  0  0  0  0  0
   10.7021    0.5450   -4.0311 N   0  0  0  0  0  0  0  0  0  0  0  0
   -2.8006   -0.3587    1.3632 O   0  0  0  0  0  0  0  0  0  0  0  0
   -3.0156   -1.6917    0.9230 C   0  0  0  0  0  0  0  0  0  0  0  0
   -4.0763   -1.8923    1.0803 H   0  0  0  0  0  0  0  0  0  0  0  0
   -2.4235   -2.4101    1.5035 H   0  0  0  0  0  0  0  0  0  0  0  0
   -2.7795   -1.8076   -0.1425 H   0  0  0  0  0  0  0  0  0  0  0  0
    2.6386    2.9695   -0.0880 S   0  0  0  0  0  0  0  0  0  0  0  0
    2.2084    2.0128    1.1718 O   0  0  0  0  0  0  0  0  0  0  0  0
    1.5093    3.7576   -0.5260 O   0  0  0  0  0  0  0  0  0  0  0  0
    3.9152    3.5316    0.3040 O   0  0  0  0  0  0  0  0  0  0  0  0
    2.9018    1.8673   -1.2610 O   0  0  0  0  0  0  0  0  0  0  0  0
    3.8306    1.5886   -1.1876 H   0  0  0  0  0  0  0  0  0  0  0  0
  1  6  1  0  0  0  0
  2  1  2  0  0  0  0
  2  3  1  0  0  0  0
  3 19  1  0  0  0  0
  3  4  2  0  0  0  0
  4  5  1  0  0  0  0
  4  9  1  0  0  0  0
  5 10  1  0  0  0  0
  6 13  1  0  0  0  0
  6  5  2  0  0  0  0
  7  1  1  0  0  0  0
  8  2  1  0  0  0  0
 11 12  3  0  0  0  0
 14 15  1  0  0  0  0
 14 13  1  0  0  0  0
 14 16  1  0  0  0  0
 17 14  1  0  0  0  0
 18 21  2  0  0  0  0
 18 19  1  0  0  0  0
 20 18  2  0  0  0  0
 22 23  1  0  0  0  0
 22 18  1  0  0  0  0
M  END
