Coordinates from ORCA-job 4-MeO-Ph-N2-HSO4-B3LYPG-6-31G_dp-MTMO-d009-169-n800
 OpenBabel09051907533D

 23 22  0  0  0  0  0  0  0  0999 V2000
   -0.4836   -0.5339    0.8027 C   0  0  0  0  0  0  0  0  0  0  0  0
    0.7567    0.1071    0.7505 C   0  0  0  0  0  0  0  0  0  0  0  0
    0.8692    1.4204    1.1846 C   0  0  0  0  0  0  0  0  0  0  0  0
   -0.2344    2.1202    1.6733 C   0  0  0  0  0  0  0  0  0  0  0  0
   -1.4677    1.4860    1.7242 C   0  0  0  0  0  0  0  0  0  0  0  0
   -1.6012    0.1568    1.2892 C   0  0  0  0  0  0  0  0  0  0  0  0
   -0.5625   -1.5595    0.4648 H   0  0  0  0  0  0  0  0  0  0  0  0
    1.6318   -0.4132    0.3778 H   0  0  0  0  0  0  0  0  0  0  0  0
   -0.1188    3.1461    2.0028 H   0  0  0  0  0  0  0  0  0  0  0  0
   -2.3472    1.9993    2.0972 H   0  0  0  0  0  0  0  0  0  0  0  0
   12.3519    0.5957   -4.6690 N   0  0  0  0  0  0  0  0  0  0  0  0
   11.3104    0.4960   -4.3127 N   0  0  0  0  0  0  0  0  0  0  0  0
   -2.8541   -0.3686    1.3827 O   0  0  0  0  0  0  0  0  0  0  0  0
   -3.0618   -1.7016    0.9391 C   0  0  0  0  0  0  0  0  0  0  0  0
   -4.1219   -1.9076    1.0935 H   0  0  0  0  0  0  0  0  0  0  0  0
   -2.4677   -2.4185    1.5195 H   0  0  0  0  0  0  0  0  0  0  0  0
   -2.8226   -1.8141   -0.1261 H   0  0  0  0  0  0  0  0  0  0  0  0
    2.5712    2.9889   -0.0518 S   0  0  0  0  0  0  0  0  0  0  0  0
    2.1436    2.0279    1.2054 O   0  0  0  0  0  0  0  0  0  0  0  0
    1.4393    3.7736   -0.4893 O   0  0  0  0  0  0  0  0  0  0  0  0
    3.8453    3.5550    0.3425 O   0  0  0  0  0  0  0  0  0  0  0  0
    2.8397    1.8902   -1.2270 O   0  0  0  0  0  0  0  0  0  0  0  0
    3.7694    1.6146   -1.1530 H   0  0  0  0  0  0  0  0  0  0  0  0
  1  6  1  0  0  0  0
  2  1  2  0  0  0  0
  2  3  1  0  0  0  0
  3 19  1  0  0  0  0
  3  4  2  0  0  0  0
  4  5  1  0  0  0  0
  4  9  1  0  0  0  0
  5 10  1  0  0  0  0
  6 13  1  0  0  0  0
  6  5  2  0  0  0  0
  7  1  1  0  0  0  0
  8  2  1  0  0  0  0
 11 12  3  0  0  0  0
 14 15  1  0  0  0  0
 14 13  1  0  0  0  0
 14 16  1  0  0  0  0
 17 14  1  0  0  0  0
 18 21  2  0  0  0  0
 18 19  1  0  0  0  0
 20 18  2  0  0  0  0
 22 23  1  0  0  0  0
 22 18  1  0  0  0  0
M  END
