Coordinates from ORCA-job 4-MeO-Ph-N2-HSO4-B3LYPG-6-31G_dp-MTMO-d009-169-n800
 OpenBabel09051907533D

 23 22  0  0  0  0  0  0  0  0999 V2000
   -0.4571   -0.5353    0.7904 C   0  0  0  0  0  0  0  0  0  0  0  0
    0.7848    0.1026    0.7363 C   0  0  0  0  0  0  0  0  0  0  0  0
    0.9009    1.4160    1.1691 C   0  0  0  0  0  0  0  0  0  0  0  0
   -0.2005    2.1189    1.6582 C   0  0  0  0  0  0  0  0  0  0  0  0
   -1.4353    1.4878    1.7109 C   0  0  0  0  0  0  0  0  0  0  0  0
   -1.5725    0.1586    1.2773 C   0  0  0  0  0  0  0  0  0  0  0  0
   -0.5388   -1.5611    0.4535 H   0  0  0  0  0  0  0  0  0  0  0  0
    1.6582   -0.4202    0.3632 H   0  0  0  0  0  0  0  0  0  0  0  0
   -0.0820    3.1448    1.9867 H   0  0  0  0  0  0  0  0  0  0  0  0
   -2.3131    2.0037    2.0843 H   0  0  0  0  0  0  0  0  0  0  0  0
   12.0393    0.6209   -4.5247 N   0  0  0  0  0  0  0  0  0  0  0  0
   10.9979    0.5204   -4.1681 N   0  0  0  0  0  0  0  0  0  0  0  0
   -2.8265   -0.3637    1.3726 O   0  0  0  0  0  0  0  0  0  0  0  0
   -3.0379   -1.6967    0.9307 C   0  0  0  0  0  0  0  0  0  0  0  0
   -4.0983   -1.9000    1.0866 H   0  0  0  0  0  0  0  0  0  0  0  0
   -2.4448   -2.4143    1.5112 H   0  0  0  0  0  0  0  0  0  0  0  0
   -2.8002   -1.8109   -0.1347 H   0  0  0  0  0  0  0  0  0  0  0  0
    2.6056    2.9792   -0.0703 S   0  0  0  0  0  0  0  0  0  0  0  0
    2.1768    2.0203    1.1882 O   0  0  0  0  0  0  0  0  0  0  0  0
    1.4750    3.7657   -0.5080 O   0  0  0  0  0  0  0  0  0  0  0  0
    3.8811    3.5433    0.3228 O   0  0  0  0  0  0  0  0  0  0  0  0
    2.8715    1.8788   -1.2445 O   0  0  0  0  0  0  0  0  0  0  0  0
    3.8007    1.6016   -1.1707 H   0  0  0  0  0  0  0  0  0  0  0  0
  1  6  1  0  0  0  0
  2  1  2  0  0  0  0
  2  3  1  0  0  0  0
  3 19  1  0  0  0  0
  3  4  2  0  0  0  0
  4  5  1  0  0  0  0
  4  9  1  0  0  0  0
  5 10  1  0  0  0  0
  6 13  1  0  0  0  0
  6  5  2  0  0  0  0
  7  1  1  0  0  0  0
  8  2  1  0  0  0  0
 11 12  3  0  0  0  0
 14 15  1  0  0  0  0
 14 13  1  0  0  0  0
 14 16  1  0  0  0  0
 17 14  1  0  0  0  0
 18 21  2  0  0  0  0
 18 19  1  0  0  0  0
 20 18  2  0  0  0  0
 22 23  1  0  0  0  0
 22 18  1  0  0  0  0
M  END
