Coordinates from ORCA-job 4-MeO-Ph-N2-HSO4-B3LYPG-6-31G_dp-MTMO-d009-169-n800
 OpenBabel09051907533D

 23 22  0  0  0  0  0  0  0  0999 V2000
   -0.4363   -0.5365    0.7806 C   0  0  0  0  0  0  0  0  0  0  0  0
    0.8068    0.0989    0.7251 C   0  0  0  0  0  0  0  0  0  0  0  0
    0.9260    1.4124    1.1568 C   0  0  0  0  0  0  0  0  0  0  0  0
   -0.1735    2.1179    1.6462 C   0  0  0  0  0  0  0  0  0  0  0  0
   -1.4096    1.4894    1.7003 C   0  0  0  0  0  0  0  0  0  0  0  0
   -1.5499    0.1601    1.2679 C   0  0  0  0  0  0  0  0  0  0  0  0
   -0.5204   -1.5623    0.4447 H   0  0  0  0  0  0  0  0  0  0  0  0
    1.6789   -0.4260    0.3518 H   0  0  0  0  0  0  0  0  0  0  0  0
   -0.0527    3.1439    1.9737 H   0  0  0  0  0  0  0  0  0  0  0  0
   -2.2861    2.0074    2.0740 H   0  0  0  0  0  0  0  0  0  0  0  0
   11.7926    0.6415   -4.4108 N   0  0  0  0  0  0  0  0  0  0  0  0
   10.7514    0.5408   -4.0539 N   0  0  0  0  0  0  0  0  0  0  0  0
   -2.8049   -0.3596    1.3647 O   0  0  0  0  0  0  0  0  0  0  0  0
   -3.0193   -1.6925    0.9243 C   0  0  0  0  0  0  0  0  0  0  0  0
   -4.0799   -1.8936    1.0813 H   0  0  0  0  0  0  0  0  0  0  0  0
   -2.4270   -2.4108    1.5048 H   0  0  0  0  0  0  0  0  0  0  0  0
   -2.7829   -1.8082   -0.1412 H   0  0  0  0  0  0  0  0  0  0  0  0
    2.6331    2.9711   -0.0850 S   0  0  0  0  0  0  0  0  0  0  0  0
    2.2031    2.0141    1.1745 O   0  0  0  0  0  0  0  0  0  0  0  0
    1.5035    3.7590   -0.5230 O   0  0  0  0  0  0  0  0  0  0  0  0
    3.9095    3.5336    0.3071 O   0  0  0  0  0  0  0  0  0  0  0  0
    2.8968    1.8693   -1.2583 O   0  0  0  0  0  0  0  0  0  0  0  0
    3.8256    1.5908   -1.1848 H   0  0  0  0  0  0  0  0  0  0  0  0
  1  6  1  0  0  0  0
  2  1  2  0  0  0  0
  2  3  1  0  0  0  0
  3 19  1  0  0  0  0
  3  4  2  0  0  0  0
  4  5  1  0  0  0  0
  4  9  1  0  0  0  0
  5 10  1  0  0  0  0
  6 13  1  0  0  0  0
  6  5  2  0  0  0  0
  7  1  1  0  0  0  0
  8  2  1  0  0  0  0
 11 12  3  0  0  0  0
 14 15  1  0  0  0  0
 14 13  1  0  0  0  0
 14 16  1  0  0  0  0
 17 14  1  0  0  0  0
 18 21  2  0  0  0  0
 18 19  1  0  0  0  0
 20 18  2  0  0  0  0
 22 23  1  0  0  0  0
 22 18  1  0  0  0  0
M  END
