Coordinates from ORCA-job 4-MeO-Ph-N2-HSO4-B3LYPG-6-31G_dp-MTMO-d009-169-n800
 OpenBabel09051907533D

 23 22  0  0  0  0  0  0  0  0999 V2000
   -0.4766   -0.5343    0.7995 C   0  0  0  0  0  0  0  0  0  0  0  0
    0.7641    0.1060    0.7468 C   0  0  0  0  0  0  0  0  0  0  0  0
    0.8775    1.4193    1.1805 C   0  0  0  0  0  0  0  0  0  0  0  0
   -0.2255    2.1198    1.6693 C   0  0  0  0  0  0  0  0  0  0  0  0
   -1.4592    1.4864    1.7207 C   0  0  0  0  0  0  0  0  0  0  0  0
   -1.5937    0.1573    1.2861 C   0  0  0  0  0  0  0  0  0  0  0  0
   -0.5562   -1.5599    0.4618 H   0  0  0  0  0  0  0  0  0  0  0  0
    1.6388   -0.4150    0.3740 H   0  0  0  0  0  0  0  0  0  0  0  0
   -0.1092    3.1457    1.9986 H   0  0  0  0  0  0  0  0  0  0  0  0
   -2.3382    2.0005    2.0938 H   0  0  0  0  0  0  0  0  0  0  0  0
   12.2696    0.6022   -4.6310 N   0  0  0  0  0  0  0  0  0  0  0  0
   11.2282    0.5023   -4.2746 N   0  0  0  0  0  0  0  0  0  0  0  0
   -2.8468   -0.3674    1.3801 O   0  0  0  0  0  0  0  0  0  0  0  0
   -3.0555   -1.7003    0.9369 C   0  0  0  0  0  0  0  0  0  0  0  0
   -4.1156   -1.9056    1.0916 H   0  0  0  0  0  0  0  0  0  0  0  0
   -2.4616   -2.4174    1.5173 H   0  0  0  0  0  0  0  0  0  0  0  0
   -2.8167   -1.8133   -0.1284 H   0  0  0  0  0  0  0  0  0  0  0  0
    2.5802    2.9864   -0.0567 S   0  0  0  0  0  0  0  0  0  0  0  0
    2.1523    2.0259    1.2009 O   0  0  0  0  0  0  0  0  0  0  0  0
    1.4486    3.7716   -0.4942 O   0  0  0  0  0  0  0  0  0  0  0  0
    3.8547    3.5520    0.3374 O   0  0  0  0  0  0  0  0  0  0  0  0
    2.8481    1.8873   -1.2316 O   0  0  0  0  0  0  0  0  0  0  0  0
    3.7776    1.6113   -1.1577 H   0  0  0  0  0  0  0  0  0  0  0  0
  1  6  1  0  0  0  0
  2  1  2  0  0  0  0
  2  3  1  0  0  0  0
  3 19  1  0  0  0  0
  3  4  2  0  0  0  0
  4  5  1  0  0  0  0
  4  9  1  0  0  0  0
  5 10  1  0  0  0  0
  6 13  1  0  0  0  0
  6  5  2  0  0  0  0
  7  1  1  0  0  0  0
  8  2  1  0  0  0  0
 11 12  3  0  0  0  0
 14 15  1  0  0  0  0
 14 13  1  0  0  0  0
 14 16  1  0  0  0  0
 17 14  1  0  0  0  0
 18 21  2  0  0  0  0
 18 19  1  0  0  0  0
 20 18  2  0  0  0  0
 22 23  1  0  0  0  0
 22 18  1  0  0  0  0
M  END
