Coordinates from ORCA-job 4-MeO-Ph-N2-HSO4-B3LYPG-6-31G_dp-MTMO-d009-169-n800
 OpenBabel09051907533D

 23 22  0  0  0  0  0  0  0  0999 V2000
   -0.7002   -0.5300    0.8960 C   0  0  0  0  0  0  0  0  0  0  0  0
    0.5396    0.1121    0.8434 C   0  0  0  0  0  0  0  0  0  0  0  0
    0.6516    1.4247    1.2799 C   0  0  0  0  0  0  0  0  0  0  0  0
   -0.4519    2.1225    1.7715 C   0  0  0  0  0  0  0  0  0  0  0  0
   -1.6847    1.4872    1.8228 C   0  0  0  0  0  0  0  0  0  0  0  0
   -1.8177    0.1589    1.3853 C   0  0  0  0  0  0  0  0  0  0  0  0
   -0.7786   -1.5550    0.5562 H   0  0  0  0  0  0  0  0  0  0  0  0
    1.4146   -0.4067    0.4685 H   0  0  0  0  0  0  0  0  0  0  0  0
   -0.3368    3.1479    2.1029 H   0  0  0  0  0  0  0  0  0  0  0  0
   -2.5641    1.9991    2.1980 H   0  0  0  0  0  0  0  0  0  0  0  0
   14.6353    0.5533   -5.6667 N   0  0  0  0  0  0  0  0  0  0  0  0
   13.5934    0.4490   -5.3127 N   0  0  0  0  0  0  0  0  0  0  0  0
   -3.0700   -0.3678    1.4794 O   0  0  0  0  0  0  0  0  0  0  0  0
   -3.2772   -1.7000    1.0334 C   0  0  0  0  0  0  0  0  0  0  0  0
   -4.3370   -1.9071    1.1886 H   0  0  0  0  0  0  0  0  0  0  0  0
   -2.6819   -2.4177    1.6115 H   0  0  0  0  0  0  0  0  0  0  0  0
   -3.0393   -1.8101   -0.0324 H   0  0  0  0  0  0  0  0  0  0  0  0
    2.3509    2.9962    0.0440 S   0  0  0  0  0  0  0  0  0  0  0  0
    1.9254    2.0332    1.3003 O   0  0  0  0  0  0  0  0  0  0  0  0
    1.2178    3.7806   -0.3911 O   0  0  0  0  0  0  0  0  0  0  0  0
    3.6251    3.5628    0.4375 O   0  0  0  0  0  0  0  0  0  0  0  0
    2.6195    1.8992   -1.1329 O   0  0  0  0  0  0  0  0  0  0  0  0
    3.5509    1.6285   -1.0624 H   0  0  0  0  0  0  0  0  0  0  0  0
  1  6  1  0  0  0  0
  2  1  2  0  0  0  0
  2  3  1  0  0  0  0
  3 19  1  0  0  0  0
  3  4  2  0  0  0  0
  4  5  1  0  0  0  0
  4  9  1  0  0  0  0
  5 10  1  0  0  0  0
  6 13  1  0  0  0  0
  6  5  2  0  0  0  0
  7  1  1  0  0  0  0
  8  2  1  0  0  0  0
 11 12  3  0  0  0  0
 14 15  1  0  0  0  0
 14 13  1  0  0  0  0
 14 16  1  0  0  0  0
 17 14  1  0  0  0  0
 18 21  2  0  0  0  0
 18 19  1  0  0  0  0
 20 18  2  0  0  0  0
 22 23  1  0  0  0  0
 22 18  1  0  0  0  0
M  END
