Coordinates from ORCA-job 4-MeO-Ph-N2-HSO4-B3LYPG-6-31G_dp-MTMO-d009-169-n800
 OpenBabel09051907533D

 23 22  0  0  0  0  0  0  0  0999 V2000
   -0.1882   -0.5667    0.7008 C   0  0  0  0  0  0  0  0  0  0  0  0
    1.0900   -0.0044    0.6513 C   0  0  0  0  0  0  0  0  0  0  0  0
    1.2675    1.3259    1.0041 C   0  0  0  0  0  0  0  0  0  0  0  0
    0.1939    2.1205    1.4058 C   0  0  0  0  0  0  0  0  0  0  0  0
   -1.0765    1.5642    1.4552 C   0  0  0  0  0  0  0  0  0  0  0  0
   -1.2762    0.2187    1.1035 C   0  0  0  0  0  0  0  0  0  0  0  0
   -0.3196   -1.6058    0.4260 H   0  0  0  0  0  0  0  0  0  0  0  0
    1.9437   -0.5971    0.3422 H   0  0  0  0  0  0  0  0  0  0  0  0
    0.3619    3.1575    1.6727 H   0  0  0  0  0  0  0  0  0  0  0  0
   -1.9344    2.1518    1.7633 H   0  0  0  0  0  0  0  0  0  0  0  0
    8.1577    1.3045   -3.0389 N   0  0  0  0  0  0  0  0  0  0  0  0
    7.1939    1.2367   -2.5021 N   0  0  0  0  0  0  0  0  0  0  0  0
   -2.5608   -0.2258    1.1901 O   0  0  0  0  0  0  0  0  0  0  0  0
   -2.8333   -1.5748    0.8398 C   0  0  0  0  0  0  0  0  0  0  0  0
   -3.9068   -1.7104    0.9798 H   0  0  0  0  0  0  0  0  0  0  0  0
   -2.2941   -2.2776    1.4872 H   0  0  0  0  0  0  0  0  0  0  0  0
   -2.5764   -1.7800   -0.2072 H   0  0  0  0  0  0  0  0  0  0  0  0
    3.1296    2.6640   -0.2825 S   0  0  0  0  0  0  0  0  0  0  0  0
    2.5746    1.8605    1.0340 O   0  0  0  0  0  0  0  0  0  0  0  0
    2.0409    3.3614   -0.9292 O   0  0  0  0  0  0  0  0  0  0  0  0
    4.3491    3.3079    0.1647 O   0  0  0  0  0  0  0  0  0  0  0  0
    3.5448    1.4327   -1.2683 O   0  0  0  0  0  0  0  0  0  0  0  0
    4.5037    1.2971   -1.1713 H   0  0  0  0  0  0  0  0  0  0  0  0
  1  6  1  0  0  0  0
  2  1  2  0  0  0  0
  2  3  1  0  0  0  0
  3 19  1  0  0  0  0
  3  4  2  0  0  0  0
  4  5  1  0  0  0  0
  4  9  1  0  0  0  0
  5 10  1  0  0  0  0
  6 13  1  0  0  0  0
  6  5  2  0  0  0  0
  7  1  1  0  0  0  0
  8  2  1  0  0  0  0
 11 12  3  0  0  0  0
 14 15  1  0  0  0  0
 14 13  1  0  0  0  0
 14 16  1  0  0  0  0
 17 14  1  0  0  0  0
 18 21  2  0  0  0  0
 18 19  1  0  0  0  0
 20 18  2  0  0  0  0
 22 23  1  0  0  0  0
 22 18  1  0  0  0  0
M  END
