Coordinates from ORCA-job 4-MeO-Ph-N2-HSO4-B3LYPG-6-31G_dp-MTMO-d009-169-n800
 OpenBabel09051907533D

 23 22  0  0  0  0  0  0  0  0999 V2000
   -0.1375   -0.4895    1.1113 C   0  0  0  0  0  0  0  0  0  0  0  0
    1.2295   -0.2202    1.2165 C   0  0  0  0  0  0  0  0  0  0  0  0
    1.7222    1.0042    0.7870 C   0  0  0  0  0  0  0  0  0  0  0  0
    0.8812    1.9781    0.2480 C   0  0  0  0  0  0  0  0  0  0  0  0
   -0.4766    1.7112    0.1419 C   0  0  0  0  0  0  0  0  0  0  0  0
   -0.9949    0.4776    0.5706 C   0  0  0  0  0  0  0  0  0  0  0  0
   -0.5153   -1.4454    1.4520 H   0  0  0  0  0  0  0  0  0  0  0  0
    1.9068   -0.9572    1.6330 H   0  0  0  0  0  0  0  0  0  0  0  0
    1.2932    2.9244   -0.0826 H   0  0  0  0  0  0  0  0  0  0  0  0
   -1.1610    2.4441   -0.2710 H   0  0  0  0  0  0  0  0  0  0  0  0
    3.0304    4.6117   -1.4152 N   0  0  0  0  0  0  0  0  0  0  0  0
    3.8107    4.9559   -2.1177 N   0  0  0  0  0  0  0  0  0  0  0  0
   -2.3396    0.3218    0.4205 O   0  0  0  0  0  0  0  0  0  0  0  0
   -2.9258   -0.9075    0.8222 C   0  0  0  0  0  0  0  0  0  0  0  0
   -3.9906   -0.8187    0.6013 H   0  0  0  0  0  0  0  0  0  0  0  0
   -2.7931   -1.0866    1.8968 H   0  0  0  0  0  0  0  0  0  0  0  0
   -2.5111   -1.7551    0.2625 H   0  0  0  0  0  0  0  0  0  0  0  0
    4.1304    1.0375   -0.2570 S   0  0  0  0  0  0  0  0  0  0  0  0
    3.0904    1.2985    0.9797 O   0  0  0  0  0  0  0  0  0  0  0  0
    3.5078    1.3729   -1.5176 O   0  0  0  0  0  0  0  0  0  0  0  0
    5.3858    1.6008    0.1986 O   0  0  0  0  0  0  0  0  0  0  0  0
    4.2624   -0.5884   -0.2390 O   0  0  0  0  0  0  0  0  0  0  0  0
    4.9798   -0.8095    0.3793 H   0  0  0  0  0  0  0  0  0  0  0  0
  1  2  1  0  0  0  0
  1  7  1  0  0  0  0
  2  8  1  0  0  0  0
  3 19  1  0  0  0  0
  3  2  2  0  0  0  0
  4  3  1  0  0  0  0
  5  4  2  0  0  0  0
  5  6  1  0  0  0  0
  6  1  2  0  0  0  0
  9  4  1  0  0  0  0
 10  5  1  0  0  0  0
 12 11  3  0  0  0  0
 13  6  1  0  0  0  0
 13 14  1  0  0  0  0
 14 16  1  0  0  0  0
 15 14  1  0  0  0  0
 17 14  1  0  0  0  0
 18 22  1  0  0  0  0
 18 21  2  0  0  0  0
 18 19  1  0  0  0  0
 20 18  2  0  0  0  0
 22 23  1  0  0  0  0
M  END
