Coordinates from ORCA-job 4-MeO-Ph-N2-HSO4-B3LYPG-6-31G_dp-MTMO-d009-169-n800
 OpenBabel09051907533D

 23 22  0  0  0  0  0  0  0  0999 V2000
   -0.1877   -0.5676    0.7002 C   0  0  0  0  0  0  0  0  0  0  0  0
    1.0913   -0.0071    0.6500 C   0  0  0  0  0  0  0  0  0  0  0  0
    1.2707    1.3232    1.0017 C   0  0  0  0  0  0  0  0  0  0  0  0
    0.1982    2.1197    1.4028 C   0  0  0  0  0  0  0  0  0  0  0  0
   -1.0729    1.5652    1.4528 C   0  0  0  0  0  0  0  0  0  0  0  0
   -1.2746    0.2197    1.1023 C   0  0  0  0  0  0  0  0  0  0  0  0
   -0.3206   -1.6067    0.4263 H   0  0  0  0  0  0  0  0  0  0  0  0
    1.9442   -0.6013    0.3414 H   0  0  0  0  0  0  0  0  0  0  0  0
    0.3677    3.1568    1.6687 H   0  0  0  0  0  0  0  0  0  0  0  0
   -1.9300    2.1543    1.7605 H   0  0  0  0  0  0  0  0  0  0  0  0
    8.1254    1.3213   -3.0228 N   0  0  0  0  0  0  0  0  0  0  0  0
    7.1621    1.2507   -2.4853 N   0  0  0  0  0  0  0  0  0  0  0  0
   -2.5597   -0.2230    1.1896 O   0  0  0  0  0  0  0  0  0  0  0  0
   -2.8341   -1.5720    0.8409 C   0  0  0  0  0  0  0  0  0  0  0  0
   -3.9077   -1.7060    0.9814 H   0  0  0  0  0  0  0  0  0  0  0  0
   -2.2956   -2.2748    1.4889 H   0  0  0  0  0  0  0  0  0  0  0  0
   -2.5778   -1.7788   -0.2059 H   0  0  0  0  0  0  0  0  0  0  0  0
    3.1356    2.6568   -0.2863 S   0  0  0  0  0  0  0  0  0  0  0  0
    2.5786    1.8560    1.0310 O   0  0  0  0  0  0  0  0  0  0  0  0
    2.0471    3.3509   -0.9371 O   0  0  0  0  0  0  0  0  0  0  0  0
    4.3530    3.3041    0.1618 O   0  0  0  0  0  0  0  0  0  0  0  0
    3.5555    1.4235   -1.2675 O   0  0  0  0  0  0  0  0  0  0  0  0
    4.5160    1.2956   -1.1746 H   0  0  0  0  0  0  0  0  0  0  0  0
  1  6  1  0  0  0  0
  2  1  2  0  0  0  0
  2  3  1  0  0  0  0
  3 19  1  0  0  0  0
  3  4  2  0  0  0  0
  4  5  1  0  0  0  0
  4  9  1  0  0  0  0
  5 10  1  0  0  0  0
  6 13  1  0  0  0  0
  6  5  2  0  0  0  0
  7  1  1  0  0  0  0
  8  2  1  0  0  0  0
 11 12  3  0  0  0  0
 14 15  1  0  0  0  0
 14 13  1  0  0  0  0
 14 16  1  0  0  0  0
 17 14  1  0  0  0  0
 18 21  2  0  0  0  0
 18 19  1  0  0  0  0
 20 18  2  0  0  0  0
 22 23  1  0  0  0  0
 22 18  1  0  0  0  0
M  END
