Coordinates from ORCA-job 4-MeO-Ph-N2-HSO4-B3LYPG-6-31G_dp-MTMO-d009-169-n800
 OpenBabel09051907533D

 23 22  0  0  0  0  0  0  0  0999 V2000
   -0.1387   -0.5178    1.1133 C   0  0  0  0  0  0  0  0  0  0  0  0
    1.2312   -0.2815    1.2539 C   0  0  0  0  0  0  0  0  0  0  0  0
    1.7576    0.9460    0.8772 C   0  0  0  0  0  0  0  0  0  0  0  0
    0.9479    1.9556    0.3552 C   0  0  0  0  0  0  0  0  0  0  0  0
   -0.4122    1.7204    0.2115 C   0  0  0  0  0  0  0  0  0  0  0  0
   -0.9646    0.4846    0.5882 C   0  0  0  0  0  0  0  0  0  0  0  0
   -0.5430   -1.4760    1.4151 H   0  0  0  0  0  0  0  0  0  0  0  0
    1.8847   -1.0458    1.6594 H   0  0  0  0  0  0  0  0  0  0  0  0
    1.3852    2.9034    0.0632 H   0  0  0  0  0  0  0  0  0  0  0  0
   -1.0724    2.4810   -0.1908 H   0  0  0  0  0  0  0  0  0  0  0  0
    2.8389    4.7328   -1.6601 N   0  0  0  0  0  0  0  0  0  0  0  0
    3.5025    4.9270   -2.5219 N   0  0  0  0  0  0  0  0  0  0  0  0
   -2.3087    0.3626    0.4061 O   0  0  0  0  0  0  0  0  0  0  0  0
   -2.9290   -0.8656    0.7568 C   0  0  0  0  0  0  0  0  0  0  0  0
   -3.9870   -0.7464    0.5184 H   0  0  0  0  0  0  0  0  0  0  0  0
   -2.8217   -1.0811    1.8275 H   0  0  0  0  0  0  0  0  0  0  0  0
   -2.5213   -1.7041    0.1785 H   0  0  0  0  0  0  0  0  0  0  0  0
    4.1769    1.0517   -0.1388 S   0  0  0  0  0  0  0  0  0  0  0  0
    3.1279    1.1984    1.1095 O   0  0  0  0  0  0  0  0  0  0  0  0
    3.5850    1.5600   -1.3559 O   0  0  0  0  0  0  0  0  0  0  0  0
    5.4429    1.5119    0.3957 O   0  0  0  0  0  0  0  0  0  0  0  0
    4.2521   -0.5675   -0.3183 O   0  0  0  0  0  0  0  0  0  0  0  0
    4.9503   -0.8888    0.2775 H   0  0  0  0  0  0  0  0  0  0  0  0
  1  2  1  0  0  0  0
  1  7  1  0  0  0  0
  2  8  1  0  0  0  0
  3 19  1  0  0  0  0
  3  2  2  0  0  0  0
  4  3  1  0  0  0  0
  5  4  2  0  0  0  0
  5  6  1  0  0  0  0
  6  1  2  0  0  0  0
  9  4  1  0  0  0  0
 10  5  1  0  0  0  0
 12 11  3  0  0  0  0
 13  6  1  0  0  0  0
 13 14  1  0  0  0  0
 14 16  1  0  0  0  0
 15 14  1  0  0  0  0
 17 14  1  0  0  0  0
 18 21  2  0  0  0  0
 18 19  1  0  0  0  0
 20 18  2  0  0  0  0
 22 18  1  0  0  0  0
 22 23  1  0  0  0  0
M  END
