Coordinates from ORCA-job 4-MeO-Ph-N2-HSO4-B3LYPG-6-31G_dp-MTMO-d009-169-n800
 OpenBabel09051907533D

 23 22  0  0  0  0  0  0  0  0999 V2000
   -0.1322   -0.5803    0.6515 C   0  0  0  0  0  0  0  0  0  0  0  0
    1.1520   -0.0367    0.5624 C   0  0  0  0  0  0  0  0  0  0  0  0
    1.3615    1.2896    0.9135 C   0  0  0  0  0  0  0  0  0  0  0  0
    0.3128    2.0988    1.3512 C   0  0  0  0  0  0  0  0  0  0  0  0
   -0.9640    1.5618    1.4373 C   0  0  0  0  0  0  0  0  0  0  0  0
   -1.1950    0.2203    1.0895 C   0  0  0  0  0  0  0  0  0  0  0  0
   -0.2878   -1.6168    0.3793 H   0  0  0  0  0  0  0  0  0  0  0  0
    1.9868   -0.6412    0.2259 H   0  0  0  0  0  0  0  0  0  0  0  0
    0.5041    3.1326    1.6145 H   0  0  0  0  0  0  0  0  0  0  0  0
   -1.8029    2.1616    1.7728 H   0  0  0  0  0  0  0  0  0  0  0  0
    7.5991    1.3580   -2.2795 N   0  0  0  0  0  0  0  0  0  0  0  0
    6.5412    1.2494   -1.9815 N   0  0  0  0  0  0  0  0  0  0  0  0
   -2.4830   -0.2052    1.2157 O   0  0  0  0  0  0  0  0  0  0  0  0
   -2.7857   -1.5505    0.8766 C   0  0  0  0  0  0  0  0  0  0  0  0
   -3.8556   -1.6711    1.0525 H   0  0  0  0  0  0  0  0  0  0  0  0
   -2.2350   -2.2601    1.5066 H   0  0  0  0  0  0  0  0  0  0  0  0
   -2.5667   -1.7606   -0.1781 H   0  0  0  0  0  0  0  0  0  0  0  0
    3.1783    2.6619   -0.3988 S   0  0  0  0  0  0  0  0  0  0  0  0
    2.6785    1.7982    0.9028 O   0  0  0  0  0  0  0  0  0  0  0  0
    2.0882    3.4683   -0.9013 O   0  0  0  0  0  0  0  0  0  0  0  0
    4.4643    3.2053   -0.0065 O   0  0  0  0  0  0  0  0  0  0  0  0
    3.4354    1.4876   -1.4925 O   0  0  0  0  0  0  0  0  0  0  0  0
    4.3905    1.2899   -1.4932 H   0  0  0  0  0  0  0  0  0  0  0  0
  1  6  1  0  0  0  0
  2  1  2  0  0  0  0
  2  3  1  0  0  0  0
  3  4  2  0  0  0  0
  4  5  1  0  0  0  0
  4  9  1  0  0  0  0
  5 10  1  0  0  0  0
  6 13  1  0  0  0  0
  6  5  2  0  0  0  0
  7  1  1  0  0  0  0
  8  2  1  0  0  0  0
 11 12  3  0  0  0  0
 14 15  1  0  0  0  0
 14 13  1  0  0  0  0
 14 16  1  0  0  0  0
 17 14  1  0  0  0  0
 18 21  2  0  0  0  0
 18 19  1  0  0  0  0
 19  3  1  0  0  0  0
 20 18  2  0  0  0  0
 22 18  1  0  0  0  0
 23 22  1  0  0  0  0
M  END
