Coordinates from ORCA-job 4-MeO-Ph-N2-HSO4-B3LYPG-6-31G_dp-MTMO-d009-169-n800
 OpenBabel09051907533D

 23 22  0  0  0  0  0  0  0  0999 V2000
   -0.2588   -0.5489    0.7073 C   0  0  0  0  0  0  0  0  0  0  0  0
    0.9975    0.0594    0.6455 C   0  0  0  0  0  0  0  0  0  0  0  0
    1.1425    1.3773    1.0553 C   0  0  0  0  0  0  0  0  0  0  0  0
    0.0562    2.1140    1.5280 C   0  0  0  0  0  0  0  0  0  0  0  0
   -1.1929    1.5125    1.5880 C   0  0  0  0  0  0  0  0  0  0  0  0
   -1.3592    0.1790    1.1784 C   0  0  0  0  0  0  0  0  0  0  0  0
   -0.3634   -1.5784    0.3888 H   0  0  0  0  0  0  0  0  0  0  0  0
    1.8598   -0.4899    0.2846 H   0  0  0  0  0  0  0  0  0  0  0  0
    0.1973    3.1427    1.8383 H   0  0  0  0  0  0  0  0  0  0  0  0
   -2.0597    2.0551    1.9493 H   0  0  0  0  0  0  0  0  0  0  0  0
    9.6328    0.8455   -3.4599 N   0  0  0  0  0  0  0  0  0  0  0  0
    8.5956    0.7727   -3.0849 N   0  0  0  0  0  0  0  0  0  0  0  0
   -2.6250   -0.3129    1.2804 O   0  0  0  0  0  0  0  0  0  0  0  0
   -2.8650   -1.6500    0.8661 C   0  0  0  0  0  0  0  0  0  0  0  0
   -3.9296   -1.8272    1.0257 H   0  0  0  0  0  0  0  0  0  0  0  0
   -2.2874   -2.3679    1.4616 H   0  0  0  0  0  0  0  0  0  0  0  0
   -2.6298   -1.7914   -0.1965 H   0  0  0  0  0  0  0  0  0  0  0  0
    2.8868    2.8814   -0.2031 S   0  0  0  0  0  0  0  0  0  0  0  0
    2.4320    1.9521    1.0687 O   0  0  0  0  0  0  0  0  0  0  0  0
    1.7726    3.6782   -0.6636 O   0  0  0  0  0  0  0  0  0  0  0  0
    4.1679    3.4319    0.1908 O   0  0  0  0  0  0  0  0  0  0  0  0
    3.1446    1.7565   -1.3553 O   0  0  0  0  0  0  0  0  0  0  0  0
    4.0700    1.4691   -1.2723 H   0  0  0  0  0  0  0  0  0  0  0  0
  1  6  1  0  0  0  0
  2  1  2  0  0  0  0
  2  3  1  0  0  0  0
  3 19  1  0  0  0  0
  3  4  2  0  0  0  0
  4  5  1  0  0  0  0
  4  9  1  0  0  0  0
  5 10  1  0  0  0  0
  6 13  1  0  0  0  0
  6  5  2  0  0  0  0
  7  1  1  0  0  0  0
  8  2  1  0  0  0  0
 11 12  3  0  0  0  0
 14 15  1  0  0  0  0
 14 13  1  0  0  0  0
 14 16  1  0  0  0  0
 17 14  1  0  0  0  0
 18 21  2  0  0  0  0
 18 19  1  0  0  0  0
 20 18  2  0  0  0  0
 22 23  1  0  0  0  0
 22 18  1  0  0  0  0
M  END
