Coordinates from ORCA-job 4-MeO-Ph-N2-HSO4-B3LYPG-6-31G_dp-MTMO-d009-169-n800
 OpenBabel09051907533D

 23 22  0  0  0  0  0  0  0  0999 V2000
   -0.1987   -0.5586    0.7166 C   0  0  0  0  0  0  0  0  0  0  0  0
    1.0685    0.0289    0.6796 C   0  0  0  0  0  0  0  0  0  0  0  0
    1.2183    1.3598    1.0429 C   0  0  0  0  0  0  0  0  0  0  0  0
    0.1265    2.1303    1.4433 C   0  0  0  0  0  0  0  0  0  0  0  0
   -1.1332    1.5493    1.4791 C   0  0  0  0  0  0  0  0  0  0  0  0
   -1.3046    0.2029    1.1165 C   0  0  0  0  0  0  0  0  0  0  0  0
   -0.3076   -1.5983    0.4342 H   0  0  0  0  0  0  0  0  0  0  0  0
    1.9352   -0.5460    0.3732 H   0  0  0  0  0  0  0  0  0  0  0  0
    0.2721    3.1685    1.7184 H   0  0  0  0  0  0  0  0  0  0  0  0
   -2.0044    2.1181    1.7853 H   0  0  0  0  0  0  0  0  0  0  0  0
    8.6682    1.0588   -3.3021 N   0  0  0  0  0  0  0  0  0  0  0  0
    7.6931    1.0130   -2.7837 N   0  0  0  0  0  0  0  0  0  0  0  0
   -2.5808   -0.2668    1.1901 O   0  0  0  0  0  0  0  0  0  0  0  0
   -2.8251   -1.6175    0.8254 C   0  0  0  0  0  0  0  0  0  0  0  0
   -3.8972   -1.7738    0.9535 H   0  0  0  0  0  0  0  0  0  0  0  0
   -2.2795   -2.3160    1.4721 H   0  0  0  0  0  0  0  0  0  0  0  0
   -2.5541   -1.8084   -0.2207 H   0  0  0  0  0  0  0  0  0  0  0  0
    3.0412    2.7752   -0.2097 S   0  0  0  0  0  0  0  0  0  0  0  0
    2.5151    1.9170    1.0842 O   0  0  0  0  0  0  0  0  0  0  0  0
    1.9513    3.5333   -0.7806 O   0  0  0  0  0  0  0  0  0  0  0  0
    4.2932    3.3602    0.2266 O   0  0  0  0  0  0  0  0  0  0  0  0
    3.3777    1.5886   -1.2766 O   0  0  0  0  0  0  0  0  0  0  0  0
    4.3097    1.3424   -1.1463 H   0  0  0  0  0  0  0  0  0  0  0  0
  1  6  1  0  0  0  0
  2  1  2  0  0  0  0
  2  3  1  0  0  0  0
  3 19  1  0  0  0  0
  3  4  2  0  0  0  0
  4  5  1  0  0  0  0
  4  9  1  0  0  0  0
  5 10  1  0  0  0  0
  6 13  1  0  0  0  0
  6  5  2  0  0  0  0
  7  1  1  0  0  0  0
  8  2  1  0  0  0  0
 11 12  3  0  0  0  0
 14 15  1  0  0  0  0
 14 13  1  0  0  0  0
 14 16  1  0  0  0  0
 17 14  1  0  0  0  0
 18 21  2  0  0  0  0
 18 19  1  0  0  0  0
 20 18  2  0  0  0  0
 22 23  1  0  0  0  0
 22 18  1  0  0  0  0
M  END
