Coordinates from ORCA-job 4-MeO-Ph-N2-HSO4-B3LYPG-6-31G_dp-MTMO-d009-169-n800
 OpenBabel09051907533D

 23 22  0  0  0  0  0  0  0  0999 V2000
   -0.7457   -0.5294    0.9155 C   0  0  0  0  0  0  0  0  0  0  0  0
    0.4943    0.1122    0.8625 C   0  0  0  0  0  0  0  0  0  0  0  0
    0.6071    1.4246    1.2991 C   0  0  0  0  0  0  0  0  0  0  0  0
   -0.4958    2.1230    1.7911 C   0  0  0  0  0  0  0  0  0  0  0  0
   -1.7289    1.4883    1.8428 C   0  0  0  0  0  0  0  0  0  0  0  0
   -1.8627    0.1600    1.4053 C   0  0  0  0  0  0  0  0  0  0  0  0
   -0.8248   -1.5543    0.5757 H   0  0  0  0  0  0  0  0  0  0  0  0
    1.3690   -0.4071    0.4873 H   0  0  0  0  0  0  0  0  0  0  0  0
   -0.3800    3.1482    2.1225 H   0  0  0  0  0  0  0  0  0  0  0  0
   -2.6079    2.0006    2.2184 H   0  0  0  0  0  0  0  0  0  0  0  0
   15.1062    0.5477   -5.8717 N   0  0  0  0  0  0  0  0  0  0  0  0
   14.0639    0.4466   -5.5180 N   0  0  0  0  0  0  0  0  0  0  0  0
   -3.1152   -0.3661    1.4999 O   0  0  0  0  0  0  0  0  0  0  0  0
   -3.3233   -1.6982    1.0539 C   0  0  0  0  0  0  0  0  0  0  0  0
   -4.3830   -1.9048    1.2096 H   0  0  0  0  0  0  0  0  0  0  0  0
   -2.7280   -2.4161    1.6318 H   0  0  0  0  0  0  0  0  0  0  0  0
   -3.0858   -1.8084   -0.0120 H   0  0  0  0  0  0  0  0  0  0  0  0
    2.3069    2.9952    0.0626 S   0  0  0  0  0  0  0  0  0  0  0  0
    1.8813    2.0325    1.3191 O   0  0  0  0  0  0  0  0  0  0  0  0
    1.1740    3.7798   -0.3726 O   0  0  0  0  0  0  0  0  0  0  0  0
    3.5812    3.5616    0.4560 O   0  0  0  0  0  0  0  0  0  0  0  0
    2.5753    1.8979   -1.1141 O   0  0  0  0  0  0  0  0  0  0  0  0
    3.5066    1.6270   -1.0435 H   0  0  0  0  0  0  0  0  0  0  0  0
  1  6  1  0  0  0  0
  2  1  2  0  0  0  0
  2  3  1  0  0  0  0
  3 19  1  0  0  0  0
  3  4  2  0  0  0  0
  4  5  1  0  0  0  0
  4  9  1  0  0  0  0
  5 10  1  0  0  0  0
  6 13  1  0  0  0  0
  6  5  2  0  0  0  0
  7  1  1  0  0  0  0
  8  2  1  0  0  0  0
 11 12  3  0  0  0  0
 14 15  1  0  0  0  0
 14 13  1  0  0  0  0
 14 16  1  0  0  0  0
 17 14  1  0  0  0  0
 18 21  2  0  0  0  0
 18 19  1  0  0  0  0
 20 18  2  0  0  0  0
 22 23  1  0  0  0  0
 22 18  1  0  0  0  0
M  END
