Coordinates from ORCA-job 4-MeO-Ph-N2-HSO4-B3LYPG-6-31G_dp-MTMO-d009-169-n800
 OpenBabel09051907533D

 23 22  0  0  0  0  0  0  0  0999 V2000
   -0.1553   -0.5544    1.1211 C   0  0  0  0  0  0  0  0  0  0  0  0
    1.2136   -0.3135    1.2648 C   0  0  0  0  0  0  0  0  0  0  0  0
    1.7316    0.9272    0.9215 C   0  0  0  0  0  0  0  0  0  0  0  0
    0.9140    1.9457    0.4298 C   0  0  0  0  0  0  0  0  0  0  0  0
   -0.4448    1.7060    0.2817 C   0  0  0  0  0  0  0  0  0  0  0  0
   -0.9886    0.4568    0.6254 C   0  0  0  0  0  0  0  0  0  0  0  0
   -0.5527   -1.5229    1.3975 H   0  0  0  0  0  0  0  0  0  0  0  0
    1.8730   -1.0844    1.6476 H   0  0  0  0  0  0  0  0  0  0  0  0
    1.3448    2.9037    0.1626 H   0  0  0  0  0  0  0  0  0  0  0  0
   -1.1106    2.4730   -0.0983 H   0  0  0  0  0  0  0  0  0  0  0  0
    3.0714    4.9047   -1.9140 N   0  0  0  0  0  0  0  0  0  0  0  0
    3.8131    4.9023   -2.7332 N   0  0  0  0  0  0  0  0  0  0  0  0
   -2.3322    0.3313    0.4423 O   0  0  0  0  0  0  0  0  0  0  0  0
   -2.9440   -0.9102    0.7594 C   0  0  0  0  0  0  0  0  0  0  0  0
   -4.0030   -0.7915    0.5255 H   0  0  0  0  0  0  0  0  0  0  0  0
   -2.8340   -1.1546    1.8236 H   0  0  0  0  0  0  0  0  0  0  0  0
   -2.5315   -1.7298    0.1576 H   0  0  0  0  0  0  0  0  0  0  0  0
    4.1419    1.1106   -0.1049 S   0  0  0  0  0  0  0  0  0  0  0  0
    3.1012    1.1789    1.1575 O   0  0  0  0  0  0  0  0  0  0  0  0
    3.5447    1.7003   -1.2820 O   0  0  0  0  0  0  0  0  0  0  0  0
    5.4127    1.5306    0.4505 O   0  0  0  0  0  0  0  0  0  0  0  0
    4.2085   -0.4934   -0.3907 O   0  0  0  0  0  0  0  0  0  0  0  0
    4.9110   -0.8558    0.1758 H   0  0  0  0  0  0  0  0  0  0  0  0
  1  2  1  0  0  0  0
  1  7  1  0  0  0  0
  2  8  1  0  0  0  0
  3 19  1  0  0  0  0
  3  2  2  0  0  0  0
  4  3  1  0  0  0  0
  5  4  2  0  0  0  0
  5  6  1  0  0  0  0
  6  1  2  0  0  0  0
  9  4  1  0  0  0  0
 10  5  1  0  0  0  0
 12 11  3  0  0  0  0
 13  6  1  0  0  0  0
 13 14  1  0  0  0  0
 14 16  1  0  0  0  0
 15 14  1  0  0  0  0
 17 14  1  0  0  0  0
 18 21  2  0  0  0  0
 18 19  1  0  0  0  0
 20 18  2  0  0  0  0
 22 18  1  0  0  0  0
 22 23  1  0  0  0  0
M  END
