Coordinates from ORCA-job 4-MeO-Ph-N2-HSO4-B3LYPG-6-31G_dp-MTMO-d009-169-n800
 OpenBabel09051907533D

 23 22  0  0  0  0  0  0  0  0999 V2000
   -0.4460   -0.5360    0.7852 C   0  0  0  0  0  0  0  0  0  0  0  0
    0.7965    0.1007    0.7303 C   0  0  0  0  0  0  0  0  0  0  0  0
    0.9143    1.4141    1.1625 C   0  0  0  0  0  0  0  0  0  0  0  0
   -0.1861    2.1184    1.6518 C   0  0  0  0  0  0  0  0  0  0  0  0
   -1.4216    1.4887    1.7053 C   0  0  0  0  0  0  0  0  0  0  0  0
   -1.5604    0.1594    1.2723 C   0  0  0  0  0  0  0  0  0  0  0  0
   -0.5290   -1.5617    0.4488 H   0  0  0  0  0  0  0  0  0  0  0  0
    1.6693   -0.4233    0.3571 H   0  0  0  0  0  0  0  0  0  0  0  0
   -0.0664    3.1443    1.9798 H   0  0  0  0  0  0  0  0  0  0  0  0
   -2.2987    2.0057    2.0788 H   0  0  0  0  0  0  0  0  0  0  0  0
   11.9077    0.6318   -4.4640 N   0  0  0  0  0  0  0  0  0  0  0  0
   10.8664    0.5311   -4.1072 N   0  0  0  0  0  0  0  0  0  0  0  0
   -2.8150   -0.3615    1.3684 O   0  0  0  0  0  0  0  0  0  0  0  0
   -3.0280   -1.6945    0.9273 C   0  0  0  0  0  0  0  0  0  0  0  0
   -4.0885   -1.8966    1.0838 H   0  0  0  0  0  0  0  0  0  0  0  0
   -2.4353   -2.4125    1.5077 H   0  0  0  0  0  0  0  0  0  0  0  0
   -2.7910   -1.8094   -0.1382 H   0  0  0  0  0  0  0  0  0  0  0  0
    2.6202    2.9749   -0.0781 S   0  0  0  0  0  0  0  0  0  0  0  0
    2.1908    2.0170    1.1809 O   0  0  0  0  0  0  0  0  0  0  0  0
    1.4902    3.7622   -0.5159 O   0  0  0  0  0  0  0  0  0  0  0  0
    3.8962    3.5381    0.3144 O   0  0  0  0  0  0  0  0  0  0  0  0
    2.8849    1.8738   -1.2518 O   0  0  0  0  0  0  0  0  0  0  0  0
    3.8139    1.5959   -1.1782 H   0  0  0  0  0  0  0  0  0  0  0  0
  1  6  1  0  0  0  0
  2  1  2  0  0  0  0
  2  3  1  0  0  0  0
  3 19  1  0  0  0  0
  3  4  2  0  0  0  0
  4  5  1  0  0  0  0
  4  9  1  0  0  0  0
  5 10  1  0  0  0  0
  6 13  1  0  0  0  0
  6  5  2  0  0  0  0
  7  1  1  0  0  0  0
  8  2  1  0  0  0  0
 11 12  3  0  0  0  0
 14 15  1  0  0  0  0
 14 13  1  0  0  0  0
 14 16  1  0  0  0  0
 17 14  1  0  0  0  0
 18 21  2  0  0  0  0
 18 19  1  0  0  0  0
 20 18  2  0  0  0  0
 22 23  1  0  0  0  0
 22 18  1  0  0  0  0
M  END
