Coordinates from ORCA-job 4-MeO-Ph-N2-HSO4-B3LYPG-6-31G_dp-MTMO-d009-169-n800
 OpenBabel09051907533D

 23 22  0  0  0  0  0  0  0  0999 V2000
    0.0441   -0.1720    0.2493 C   0  0  0  0  0  0  0  0  0  0  0  0
    1.4167    0.0892    0.1774 C   0  0  0  0  0  0  0  0  0  0  0  0
    1.8880    1.3437    0.5439 C   0  0  0  0  0  0  0  0  0  0  0  0
    1.0225    2.3114    1.0621 C   0  0  0  0  0  0  0  0  0  0  0  0
   -0.3358    2.0474    1.1373 C   0  0  0  0  0  0  0  0  0  0  0  0
   -0.8397    0.8034    0.7226 C   0  0  0  0  0  0  0  0  0  0  0  0
   -0.3144   -1.1443   -0.0648 H   0  0  0  0  0  0  0  0  0  0  0  0
    2.0839   -0.6741   -0.1995 H   0  0  0  0  0  0  0  0  0  0  0  0
    1.4255    3.2675    1.3773 H   0  0  0  0  0  0  0  0  0  0  0  0
   -1.0292    2.7898    1.5170 H   0  0  0  0  0  0  0  0  0  0  0  0
    1.8155    2.2960   -1.7253 N   0  0  0  0  0  0  0  0  0  0  0  0
    0.9504    2.3366   -2.4149 N   0  0  0  0  0  0  0  0  0  0  0  0
   -2.1891    0.6464    0.8305 O   0  0  0  0  0  0  0  0  0  0  0  0
   -2.7562   -0.5903    0.4236 C   0  0  0  0  0  0  0  0  0  0  0  0
   -3.8303   -0.4982    0.5922 H   0  0  0  0  0  0  0  0  0  0  0  0
   -2.3690   -1.4280    1.0176 H   0  0  0  0  0  0  0  0  0  0  0  0
   -2.5722   -0.7882   -0.6399 H   0  0  0  0  0  0  0  0  0  0  0  0
    4.4622    0.8449   -0.0395 S   0  0  0  0  0  0  0  0  0  0  0  0
    3.2462    1.7214    0.5911 O   0  0  0  0  0  0  0  0  0  0  0  0
    4.0884    0.2463   -1.3003 O   0  0  0  0  0  0  0  0  0  0  0  0
    5.6243    1.6881    0.1393 O   0  0  0  0  0  0  0  0  0  0  0  0
    4.5417   -0.3937    1.0156 O   0  0  0  0  0  0  0  0  0  0  0  0
    5.0113   -0.0828    1.8085 H   0  0  0  0  0  0  0  0  0  0  0  0
  1  6  1  0  0  0  0
  2  1  2  0  0  0  0
  2  3  1  0  0  0  0
  3 19  1  0  0  0  0
  3  4  2  0  0  0  0
  4  5  1  0  0  0  0
  4  9  1  0  0  0  0
  5 10  1  0  0  0  0
  6 13  1  0  0  0  0
  6  5  2  0  0  0  0
  7  1  1  0  0  0  0
  8  2  1  0  0  0  0
 12 11  3  0  0  0  0
 14 15  1  0  0  0  0
 14 13  1  0  0  0  0
 14 16  1  0  0  0  0
 17 14  1  0  0  0  0
 18 21  2  0  0  0  0
 18 19  1  0  0  0  0
 18 22  1  0  0  0  0
 20 18  2  0  0  0  0
 22 23  1  0  0  0  0
M  END
