Coordinates from ORCA-job 4-MeO-Ph-N2-HSO4-B3LYPG-6-31G_dp-MTMO-d009-169-n800
 OpenBabel09051907533D

 23 22  0  0  0  0  0  0  0  0999 V2000
   -0.5163   -0.5331    0.8165 C   0  0  0  0  0  0  0  0  0  0  0  0
    0.7235    0.1090    0.7642 C   0  0  0  0  0  0  0  0  0  0  0  0
    0.8353    1.4219    1.1996 C   0  0  0  0  0  0  0  0  0  0  0  0
   -0.2686    2.1203    1.6896 C   0  0  0  0  0  0  0  0  0  0  0  0
   -1.5014    1.4851    1.7406 C   0  0  0  0  0  0  0  0  0  0  0  0
   -1.6342    0.1564    1.3043 C   0  0  0  0  0  0  0  0  0  0  0  0
   -0.5946   -1.5584    0.4775 H   0  0  0  0  0  0  0  0  0  0  0  0
    1.5988   -0.4103    0.3905 H   0  0  0  0  0  0  0  0  0  0  0  0
   -0.1536    3.1459    2.0202 H   0  0  0  0  0  0  0  0  0  0  0  0
   -2.3810    1.9975    2.1146 H   0  0  0  0  0  0  0  0  0  0  0  0
   12.7043    0.5846   -4.8221 N   0  0  0  0  0  0  0  0  0  0  0  0
   11.6625    0.4825   -4.4675 N   0  0  0  0  0  0  0  0  0  0  0  0
   -2.8866   -0.3701    1.3979 O   0  0  0  0  0  0  0  0  0  0  0  0
   -3.0936   -1.7027    0.9530 C   0  0  0  0  0  0  0  0  0  0  0  0
   -4.1534   -1.9096    1.1076 H   0  0  0  0  0  0  0  0  0  0  0  0
   -2.4987   -2.4199    1.5323 H   0  0  0  0  0  0  0  0  0  0  0  0
   -2.8548   -1.8139   -0.1125 H   0  0  0  0  0  0  0  0  0  0  0  0
    2.5356    2.9923   -0.0364 S   0  0  0  0  0  0  0  0  0  0  0  0
    2.1092    2.0303    1.2204 O   0  0  0  0  0  0  0  0  0  0  0  0
    1.4030    3.7769   -0.4725 O   0  0  0  0  0  0  0  0  0  0  0  0
    3.8098    3.5587    0.3573 O   0  0  0  0  0  0  0  0  0  0  0  0
    2.8042    1.8945   -1.2125 O   0  0  0  0  0  0  0  0  0  0  0  0
    3.7353    1.6229   -1.1413 H   0  0  0  0  0  0  0  0  0  0  0  0
  1  6  1  0  0  0  0
  2  1  2  0  0  0  0
  2  3  1  0  0  0  0
  3 19  1  0  0  0  0
  3  4  2  0  0  0  0
  4  5  1  0  0  0  0
  4  9  1  0  0  0  0
  5 10  1  0  0  0  0
  6 13  1  0  0  0  0
  6  5  2  0  0  0  0
  7  1  1  0  0  0  0
  8  2  1  0  0  0  0
 11 12  3  0  0  0  0
 14 15  1  0  0  0  0
 14 13  1  0  0  0  0
 14 16  1  0  0  0  0
 17 14  1  0  0  0  0
 18 21  2  0  0  0  0
 18 19  1  0  0  0  0
 20 18  2  0  0  0  0
 22 23  1  0  0  0  0
 22 18  1  0  0  0  0
M  END
