Coordinates from ORCA-job 4-MeO-Ph-N2-HSO4-B3LYPG-6-31G_dp-MTMO-d009-169-n800
 OpenBabel09051907533D

 23 22  0  0  0  0  0  0  0  0999 V2000
   -0.7836   -0.5290    0.9318 C   0  0  0  0  0  0  0  0  0  0  0  0
    0.4569    0.1116    0.8782 C   0  0  0  0  0  0  0  0  0  0  0  0
    0.5709    1.4240    1.3145 C   0  0  0  0  0  0  0  0  0  0  0  0
   -0.5313    2.1233    1.8070 C   0  0  0  0  0  0  0  0  0  0  0  0
   -1.7648    1.4895    1.8593 C   0  0  0  0  0  0  0  0  0  0  0  0
   -1.8999    0.1613    1.4220 C   0  0  0  0  0  0  0  0  0  0  0  0
   -0.8637   -1.5539    0.5921 H   0  0  0  0  0  0  0  0  0  0  0  0
    1.3310   -0.4084    0.5026 H   0  0  0  0  0  0  0  0  0  0  0  0
   -0.4146    3.1485    2.1382 H   0  0  0  0  0  0  0  0  0  0  0  0
   -2.6433    2.0025    2.2351 H   0  0  0  0  0  0  0  0  0  0  0  0
   15.4937    0.5454   -6.0396 N   0  0  0  0  0  0  0  0  0  0  0  0
   14.4511    0.4469   -5.6861 N   0  0  0  0  0  0  0  0  0  0  0  0
   -3.1527   -0.3638    1.5172 O   0  0  0  0  0  0  0  0  0  0  0  0
   -3.3620   -1.6958    1.0715 C   0  0  0  0  0  0  0  0  0  0  0  0
   -4.4218   -1.9016    1.2277 H   0  0  0  0  0  0  0  0  0  0  0  0
   -2.7670   -2.4141    1.6491 H   0  0  0  0  0  0  0  0  0  0  0  0
   -3.1252   -1.8063    0.0055 H   0  0  0  0  0  0  0  0  0  0  0  0
    2.2714    2.9931    0.0771 S   0  0  0  0  0  0  0  0  0  0  0  0
    1.8455    2.0309    1.3340 O   0  0  0  0  0  0  0  0  0  0  0  0
    1.1388    3.7782   -0.3580 O   0  0  0  0  0  0  0  0  0  0  0  0
    3.5461    3.5589    0.4702 O   0  0  0  0  0  0  0  0  0  0  0  0
    2.5390    1.8954   -1.0993 O   0  0  0  0  0  0  0  0  0  0  0  0
    3.4702    1.6241   -1.0289 H   0  0  0  0  0  0  0  0  0  0  0  0
  1  6  1  0  0  0  0
  2  1  2  0  0  0  0
  2  3  1  0  0  0  0
  3 19  1  0  0  0  0
  3  4  2  0  0  0  0
  4  5  1  0  0  0  0
  4  9  1  0  0  0  0
  5 10  1  0  0  0  0
  6 13  1  0  0  0  0
  6  5  2  0  0  0  0
  7  1  1  0  0  0  0
  8  2  1  0  0  0  0
 11 12  3  0  0  0  0
 14 15  1  0  0  0  0
 14 13  1  0  0  0  0
 14 16  1  0  0  0  0
 17 14  1  0  0  0  0
 18 21  2  0  0  0  0
 18 19  1  0  0  0  0
 20 18  2  0  0  0  0
 22 23  1  0  0  0  0
 22 18  1  0  0  0  0
M  END
