Coordinates from ORCA-job 4-MeO-Ph-N2-HSO4-B3LYPG-6-31G_dp-MTMO-d009-169-n800
 OpenBabel09051907533D

 23 22  0  0  0  0  0  0  0  0999 V2000
   -0.5512   -0.5323    0.8303 C   0  0  0  0  0  0  0  0  0  0  0  0
    0.6884    0.1103    0.7773 C   0  0  0  0  0  0  0  0  0  0  0  0
    0.8003    1.4226    1.2144 C   0  0  0  0  0  0  0  0  0  0  0  0
   -0.3031    2.1199    1.7070 C   0  0  0  0  0  0  0  0  0  0  0  0
   -1.5356    1.4842    1.7588 C   0  0  0  0  0  0  0  0  0  0  0  0
   -1.6685    0.1561    1.3208 C   0  0  0  0  0  0  0  0  0  0  0  0
   -0.6295   -1.5571    0.4901 H   0  0  0  0  0  0  0  0  0  0  0  0
    1.5633   -0.4081    0.4015 H   0  0  0  0  0  0  0  0  0  0  0  0
   -0.1880    3.1451    2.0389 H   0  0  0  0  0  0  0  0  0  0  0  0
   -2.4149    1.9957    2.1348 H   0  0  0  0  0  0  0  0  0  0  0  0
   13.0758    0.5760   -4.9804 N   0  0  0  0  0  0  0  0  0  0  0  0
   12.0338    0.4703   -4.6271 N   0  0  0  0  0  0  0  0  0  0  0  0
   -2.9206   -0.3710    1.4154 O   0  0  0  0  0  0  0  0  0  0  0  0
   -3.1278   -1.7030    0.9687 C   0  0  0  0  0  0  0  0  0  0  0  0
   -4.1874   -1.9105    1.1245 H   0  0  0  0  0  0  0  0  0  0  0  0
   -2.5319   -2.4209    1.5461 H   0  0  0  0  0  0  0  0  0  0  0  0
   -2.8905   -1.8124   -0.0973 H   0  0  0  0  0  0  0  0  0  0  0  0
    2.4982    2.9953   -0.0220 S   0  0  0  0  0  0  0  0  0  0  0  0
    2.0740    2.0314    1.2341 O   0  0  0  0  0  0  0  0  0  0  0  0
    1.3647    3.7800   -0.4554 O   0  0  0  0  0  0  0  0  0  0  0  0
    3.7727    3.5618    0.3707 O   0  0  0  0  0  0  0  0  0  0  0  0
    2.7657    1.8992   -1.1999 O   0  0  0  0  0  0  0  0  0  0  0  0
    3.6969    1.6280   -1.1305 H   0  0  0  0  0  0  0  0  0  0  0  0
  1  6  1  0  0  0  0
  2  1  2  0  0  0  0
  2  3  1  0  0  0  0
  3 19  1  0  0  0  0
  3  4  2  0  0  0  0
  4  5  1  0  0  0  0
  4  9  1  0  0  0  0
  5 10  1  0  0  0  0
  6 13  1  0  0  0  0
  6  5  2  0  0  0  0
  7  1  1  0  0  0  0
  8  2  1  0  0  0  0
 11 12  3  0  0  0  0
 14 15  1  0  0  0  0
 14 13  1  0  0  0  0
 14 16  1  0  0  0  0
 17 14  1  0  0  0  0
 18 21  2  0  0  0  0
 18 19  1  0  0  0  0
 20 18  2  0  0  0  0
 22 23  1  0  0  0  0
 22 18  1  0  0  0  0
M  END
