Coordinates from ORCA-job 4-MeO-Ph-N2-HSO4-B3LYPG-6-31G_dp-MTMO-d009-169-n800
 OpenBabel09051907533D

 23 22  0  0  0  0  0  0  0  0999 V2000
   -0.2134   -0.5552    0.7068 C   0  0  0  0  0  0  0  0  0  0  0  0
    1.0487    0.0422    0.6575 C   0  0  0  0  0  0  0  0  0  0  0  0
    1.1960    1.3674    1.0422 C   0  0  0  0  0  0  0  0  0  0  0  0
    0.1063    2.1224    1.4766 C   0  0  0  0  0  0  0  0  0  0  0  0
   -1.1486    1.5318    1.5240 C   0  0  0  0  0  0  0  0  0  0  0  0
   -1.3172    0.1910    1.1400 C   0  0  0  0  0  0  0  0  0  0  0  0
   -0.3200   -1.5904    0.4079 H   0  0  0  0  0  0  0  0  0  0  0  0
    1.9137   -0.5210    0.3257 H   0  0  0  0  0  0  0  0  0  0  0  0
    0.2494    3.1564    1.7678 H   0  0  0  0  0  0  0  0  0  0  0  0
   -2.0180    2.0886    1.8559 H   0  0  0  0  0  0  0  0  0  0  0  0
    9.0066    0.9453   -3.3075 N   0  0  0  0  0  0  0  0  0  0  0  0
    7.9930    0.8890   -2.8704 N   0  0  0  0  0  0  0  0  0  0  0  0
   -2.5886   -0.2892    1.2274 O   0  0  0  0  0  0  0  0  0  0  0  0
   -2.8304   -1.6341    0.8405 C   0  0  0  0  0  0  0  0  0  0  0  0
   -3.8990   -1.8002    0.9838 H   0  0  0  0  0  0  0  0  0  0  0  0
   -2.2693   -2.3414    1.4638 H   0  0  0  0  0  0  0  0  0  0  0  0
   -2.5762   -1.8026   -0.2137 H   0  0  0  0  0  0  0  0  0  0  0  0
    2.9785    2.8322   -0.2102 S   0  0  0  0  0  0  0  0  0  0  0  0
    2.4898    1.9320    1.0699 O   0  0  0  0  0  0  0  0  0  0  0  0
    1.8773    3.6194   -0.7163 O   0  0  0  0  0  0  0  0  0  0  0  0
    4.2499    3.3906    0.2039 O   0  0  0  0  0  0  0  0  0  0  0  0
    3.2651    1.6822   -1.3302 O   0  0  0  0  0  0  0  0  0  0  0  0
    4.1912    1.4042   -1.2243 H   0  0  0  0  0  0  0  0  0  0  0  0
  1  6  1  0  0  0  0
  2  1  2  0  0  0  0
  2  3  1  0  0  0  0
  3 19  1  0  0  0  0
  3  4  2  0  0  0  0
  4  5  1  0  0  0  0
  4  9  1  0  0  0  0
  5 10  1  0  0  0  0
  6 13  1  0  0  0  0
  6  5  2  0  0  0  0
  7  1  1  0  0  0  0
  8  2  1  0  0  0  0
 11 12  3  0  0  0  0
 14 15  1  0  0  0  0
 14 13  1  0  0  0  0
 14 16  1  0  0  0  0
 17 14  1  0  0  0  0
 18 21  2  0  0  0  0
 18 19  1  0  0  0  0
 20 18  2  0  0  0  0
 22 23  1  0  0  0  0
 22 18  1  0  0  0  0
M  END
