Coordinates from ORCA-job 4-MeO-Ph-N2-HSO4-B3LYPG-6-31G_dp-MTMO-d009-169-n800
 OpenBabel09051907533D

 23 22  0  0  0  0  0  0  0  0999 V2000
   -0.4446   -0.5360    0.7845 C   0  0  0  0  0  0  0  0  0  0  0  0
    0.7980    0.1004    0.7296 C   0  0  0  0  0  0  0  0  0  0  0  0
    0.9160    1.4139    1.1617 C   0  0  0  0  0  0  0  0  0  0  0  0
   -0.1843    2.1183    1.6510 C   0  0  0  0  0  0  0  0  0  0  0  0
   -1.4199    1.4888    1.7046 C   0  0  0  0  0  0  0  0  0  0  0  0
   -1.5589    0.1595    1.2717 C   0  0  0  0  0  0  0  0  0  0  0  0
   -0.5277   -1.5618    0.4482 H   0  0  0  0  0  0  0  0  0  0  0  0
    1.6707   -0.4237    0.3564 H   0  0  0  0  0  0  0  0  0  0  0  0
   -0.0645    3.1443    1.9789 H   0  0  0  0  0  0  0  0  0  0  0  0
   -2.2969    2.0059    2.0781 H   0  0  0  0  0  0  0  0  0  0  0  0
   11.8913    0.6332   -4.4564 N   0  0  0  0  0  0  0  0  0  0  0  0
   10.8500    0.5325   -4.0996 N   0  0  0  0  0  0  0  0  0  0  0  0
   -2.8135   -0.3612    1.3679 O   0  0  0  0  0  0  0  0  0  0  0  0
   -3.0267   -1.6942    0.9269 C   0  0  0  0  0  0  0  0  0  0  0  0
   -4.0872   -1.8962    1.0834 H   0  0  0  0  0  0  0  0  0  0  0  0
   -2.4341   -2.4122    1.5073 H   0  0  0  0  0  0  0  0  0  0  0  0
   -2.7898   -1.8093   -0.1386 H   0  0  0  0  0  0  0  0  0  0  0  0
    2.6221    2.9744   -0.0791 S   0  0  0  0  0  0  0  0  0  0  0  0
    2.1926    2.0166    1.1800 O   0  0  0  0  0  0  0  0  0  0  0  0
    1.4921    3.7617   -0.5169 O   0  0  0  0  0  0  0  0  0  0  0  0
    3.8981    3.5375    0.3134 O   0  0  0  0  0  0  0  0  0  0  0  0
    2.8866    1.8732   -1.2527 O   0  0  0  0  0  0  0  0  0  0  0  0
    3.8156    1.5952   -1.1792 H   0  0  0  0  0  0  0  0  0  0  0  0
  1  6  1  0  0  0  0
  2  1  2  0  0  0  0
  2  3  1  0  0  0  0
  3 19  1  0  0  0  0
  3  4  2  0  0  0  0
  4  5  1  0  0  0  0
  4  9  1  0  0  0  0
  5 10  1  0  0  0  0
  6 13  1  0  0  0  0
  6  5  2  0  0  0  0
  7  1  1  0  0  0  0
  8  2  1  0  0  0  0
 11 12  3  0  0  0  0
 14 15  1  0  0  0  0
 14 13  1  0  0  0  0
 14 16  1  0  0  0  0
 17 14  1  0  0  0  0
 18 21  2  0  0  0  0
 18 19  1  0  0  0  0
 20 18  2  0  0  0  0
 22 23  1  0  0  0  0
 22 18  1  0  0  0  0
M  END
