Coordinates from ORCA-job 4-MeO-Ph-N2-HSO4-B3LYPG-6-31G_dp-MTMO-d009-169-n800
 OpenBabel09051907533D

 23 22  0  0  0  0  0  0  0  0999 V2000
   -0.1874   -0.5680    0.6998 C   0  0  0  0  0  0  0  0  0  0  0  0
    1.0920   -0.0085    0.6493 C   0  0  0  0  0  0  0  0  0  0  0  0
    1.2723    1.3219    1.0005 C   0  0  0  0  0  0  0  0  0  0  0  0
    0.2004    2.1193    1.4013 C   0  0  0  0  0  0  0  0  0  0  0  0
   -1.0711    1.5657    1.4516 C   0  0  0  0  0  0  0  0  0  0  0  0
   -1.2737    0.2202    1.1018 C   0  0  0  0  0  0  0  0  0  0  0  0
   -0.3210   -1.6072    0.4264 H   0  0  0  0  0  0  0  0  0  0  0  0
    1.9444   -0.6033    0.3409 H   0  0  0  0  0  0  0  0  0  0  0  0
    0.3706    3.1564    1.6668 H   0  0  0  0  0  0  0  0  0  0  0  0
   -1.9277    2.1555    1.7592 H   0  0  0  0  0  0  0  0  0  0  0  0
    8.1093    1.3293   -3.0145 N   0  0  0  0  0  0  0  0  0  0  0  0
    7.1463    1.2573   -2.4768 N   0  0  0  0  0  0  0  0  0  0  0  0
   -2.5591   -0.2216    1.1893 O   0  0  0  0  0  0  0  0  0  0  0  0
   -2.8345   -1.5707    0.8415 C   0  0  0  0  0  0  0  0  0  0  0  0
   -3.9081   -1.7039    0.9822 H   0  0  0  0  0  0  0  0  0  0  0  0
   -2.2962   -2.2734    1.4898 H   0  0  0  0  0  0  0  0  0  0  0  0
   -2.5785   -1.7781   -0.2053 H   0  0  0  0  0  0  0  0  0  0  0  0
    3.1385    2.6534   -0.2881 S   0  0  0  0  0  0  0  0  0  0  0  0
    2.5806    1.8538    1.0294 O   0  0  0  0  0  0  0  0  0  0  0  0
    2.0501    3.3460   -0.9409 O   0  0  0  0  0  0  0  0  0  0  0  0
    4.3549    3.3023    0.1604 O   0  0  0  0  0  0  0  0  0  0  0  0
    3.5607    1.4192   -1.2672 O   0  0  0  0  0  0  0  0  0  0  0  0
    4.5219    1.2950   -1.1763 H   0  0  0  0  0  0  0  0  0  0  0  0
  1  6  1  0  0  0  0
  2  1  2  0  0  0  0
  2  3  1  0  0  0  0
  3 19  1  0  0  0  0
  3  4  2  0  0  0  0
  4  5  1  0  0  0  0
  4  9  1  0  0  0  0
  5 10  1  0  0  0  0
  6 13  1  0  0  0  0
  6  5  2  0  0  0  0
  7  1  1  0  0  0  0
  8  2  1  0  0  0  0
 11 12  3  0  0  0  0
 14 15  1  0  0  0  0
 14 13  1  0  0  0  0
 14 16  1  0  0  0  0
 17 14  1  0  0  0  0
 18 21  2  0  0  0  0
 18 19  1  0  0  0  0
 20 18  2  0  0  0  0
 22 23  1  0  0  0  0
 22 18  1  0  0  0  0
M  END
