Coordinates from ORCA-job 4-MeO-Ph-N2-HSO4-B3LYPG-6-31G_dp-MTMO-d009-169-n800
 OpenBabel09051907533D

 23 22  0  0  0  0  0  0  0  0999 V2000
   -0.7441   -0.5294    0.9148 C   0  0  0  0  0  0  0  0  0  0  0  0
    0.4960    0.1122    0.8618 C   0  0  0  0  0  0  0  0  0  0  0  0
    0.6087    1.4246    1.2984 C   0  0  0  0  0  0  0  0  0  0  0  0
   -0.4943    2.1230    1.7904 C   0  0  0  0  0  0  0  0  0  0  0  0
   -1.7273    1.4882    1.8421 C   0  0  0  0  0  0  0  0  0  0  0  0
   -1.8611    0.1600    1.4046 C   0  0  0  0  0  0  0  0  0  0  0  0
   -0.8231   -1.5544    0.5750 H   0  0  0  0  0  0  0  0  0  0  0  0
    1.3706   -0.4070    0.4866 H   0  0  0  0  0  0  0  0  0  0  0  0
   -0.3785    3.1482    2.1219 H   0  0  0  0  0  0  0  0  0  0  0  0
   -2.6063    2.0005    2.2176 H   0  0  0  0  0  0  0  0  0  0  0  0
   15.0894    0.5478   -5.8644 N   0  0  0  0  0  0  0  0  0  0  0  0
   14.0471    0.4466   -5.5107 N   0  0  0  0  0  0  0  0  0  0  0  0
   -3.1136   -0.3662    1.4992 O   0  0  0  0  0  0  0  0  0  0  0  0
   -3.3216   -1.6983    1.0532 C   0  0  0  0  0  0  0  0  0  0  0  0
   -4.3813   -1.9049    1.2088 H   0  0  0  0  0  0  0  0  0  0  0  0
   -2.7263   -2.4162    1.6310 H   0  0  0  0  0  0  0  0  0  0  0  0
   -3.0841   -1.8084   -0.0127 H   0  0  0  0  0  0  0  0  0  0  0  0
    2.3085    2.9952    0.0619 S   0  0  0  0  0  0  0  0  0  0  0  0
    1.8829    2.0325    1.3184 O   0  0  0  0  0  0  0  0  0  0  0  0
    1.1756    3.7798   -0.3733 O   0  0  0  0  0  0  0  0  0  0  0  0
    3.5827    3.5617    0.4553 O   0  0  0  0  0  0  0  0  0  0  0  0
    2.5769    1.8980   -1.1147 O   0  0  0  0  0  0  0  0  0  0  0  0
    3.5081    1.6271   -1.0442 H   0  0  0  0  0  0  0  0  0  0  0  0
  1  6  1  0  0  0  0
  2  1  2  0  0  0  0
  2  3  1  0  0  0  0
  3 19  1  0  0  0  0
  3  4  2  0  0  0  0
  4  5  1  0  0  0  0
  4  9  1  0  0  0  0
  5 10  1  0  0  0  0
  6 13  1  0  0  0  0
  6  5  2  0  0  0  0
  7  1  1  0  0  0  0
  8  2  1  0  0  0  0
 11 12  3  0  0  0  0
 14 15  1  0  0  0  0
 14 13  1  0  0  0  0
 14 16  1  0  0  0  0
 17 14  1  0  0  0  0
 18 21  2  0  0  0  0
 18 19  1  0  0  0  0
 20 18  2  0  0  0  0
 22 23  1  0  0  0  0
 22 18  1  0  0  0  0
M  END
