Coordinates from ORCA-job 4-MeO-Ph-N2-HSO4-B3LYPG-6-31G_dp-MTMO-d009-169-n800
 OpenBabel09051907533D

 23 22  0  0  0  0  0  0  0  0999 V2000
   -0.7886   -0.5290    0.9339 C   0  0  0  0  0  0  0  0  0  0  0  0
    0.4520    0.1115    0.8802 C   0  0  0  0  0  0  0  0  0  0  0  0
    0.5662    1.4239    1.3165 C   0  0  0  0  0  0  0  0  0  0  0  0
   -0.5359    2.1233    1.8090 C   0  0  0  0  0  0  0  0  0  0  0  0
   -1.7695    1.4897    1.8614 C   0  0  0  0  0  0  0  0  0  0  0  0
   -1.9047    0.1615    1.4242 C   0  0  0  0  0  0  0  0  0  0  0  0
   -0.8688   -1.5539    0.5942 H   0  0  0  0  0  0  0  0  0  0  0  0
    1.3260   -0.4086    0.5046 H   0  0  0  0  0  0  0  0  0  0  0  0
   -0.4190    3.1485    2.1403 H   0  0  0  0  0  0  0  0  0  0  0  0
   -2.6478    2.0029    2.2373 H   0  0  0  0  0  0  0  0  0  0  0  0
   15.5443    0.5453   -6.0614 N   0  0  0  0  0  0  0  0  0  0  0  0
   14.5017    0.4471   -5.7080 N   0  0  0  0  0  0  0  0  0  0  0  0
   -3.1576   -0.3634    1.5195 O   0  0  0  0  0  0  0  0  0  0  0  0
   -3.3671   -1.6954    1.0738 C   0  0  0  0  0  0  0  0  0  0  0  0
   -4.4270   -1.9011    1.2302 H   0  0  0  0  0  0  0  0  0  0  0  0
   -2.7721   -2.4138    1.6514 H   0  0  0  0  0  0  0  0  0  0  0  0
   -3.1304   -1.8060    0.0078 H   0  0  0  0  0  0  0  0  0  0  0  0
    2.2668    2.9927    0.0790 S   0  0  0  0  0  0  0  0  0  0  0  0
    1.8409    2.0306    1.3359 O   0  0  0  0  0  0  0  0  0  0  0  0
    1.1343    3.7779   -0.3562 O   0  0  0  0  0  0  0  0  0  0  0  0
    3.5416    3.5585    0.4719 O   0  0  0  0  0  0  0  0  0  0  0  0
    2.5343    1.8950   -1.0974 O   0  0  0  0  0  0  0  0  0  0  0  0
    3.4654    1.6236   -1.0270 H   0  0  0  0  0  0  0  0  0  0  0  0
  1  6  1  0  0  0  0
  2  1  2  0  0  0  0
  2  3  1  0  0  0  0
  3 19  1  0  0  0  0
  3  4  2  0  0  0  0
  4  5  1  0  0  0  0
  4  9  1  0  0  0  0
  5 10  1  0  0  0  0
  6 13  1  0  0  0  0
  6  5  2  0  0  0  0
  7  1  1  0  0  0  0
  8  2  1  0  0  0  0
 11 12  3  0  0  0  0
 14 15  1  0  0  0  0
 14 13  1  0  0  0  0
 14 16  1  0  0  0  0
 17 14  1  0  0  0  0
 18 21  2  0  0  0  0
 18 19  1  0  0  0  0
 20 18  2  0  0  0  0
 22 23  1  0  0  0  0
 22 18  1  0  0  0  0
M  END
