Coordinates from ORCA-job 4-MeO-Ph-N2-HSO4-B3LYPG-6-31G_dp-MTMO-d009-169-n800
 OpenBabel09051907533D

 23 22  0  0  0  0  0  0  0  0999 V2000
   -0.1644   -0.5869    1.0943 C   0  0  0  0  0  0  0  0  0  0  0  0
    1.2028   -0.3351    1.2345 C   0  0  0  0  0  0  0  0  0  0  0  0
    1.6985    0.9323    0.9629 C   0  0  0  0  0  0  0  0  0  0  0  0
    0.8594    1.9669    0.5472 C   0  0  0  0  0  0  0  0  0  0  0  0
   -0.4981    1.7172    0.4033 C   0  0  0  0  0  0  0  0  0  0  0  0
   -1.0191    0.4408    0.6748 C   0  0  0  0  0  0  0  0  0  0  0  0
   -0.5440   -1.5767    1.3148 H   0  0  0  0  0  0  0  0  0  0  0  0
    1.8784   -1.1186    1.5587 H   0  0  0  0  0  0  0  0  0  0  0  0
    1.2730    2.9464    0.3365 H   0  0  0  0  0  0  0  0  0  0  0  0
   -1.1798    2.4965    0.0811 H   0  0  0  0  0  0  0  0  0  0  0  0
    3.3811    4.9371   -2.1525 N   0  0  0  0  0  0  0  0  0  0  0  0
    4.1099    4.7399   -2.9595 N   0  0  0  0  0  0  0  0  0  0  0  0
   -2.3633    0.3070    0.5027 O   0  0  0  0  0  0  0  0  0  0  0  0
   -2.9531   -0.9607    0.7498 C   0  0  0  0  0  0  0  0  0  0  0  0
   -4.0170   -0.8431    0.5387 H   0  0  0  0  0  0  0  0  0  0  0  0
   -2.8241   -1.2693    1.7951 H   0  0  0  0  0  0  0  0  0  0  0  0
   -2.5384   -1.7350    0.0919 H   0  0  0  0  0  0  0  0  0  0  0  0
    4.0934    1.1843   -0.0824 S   0  0  0  0  0  0  0  0  0  0  0  0
    3.0675    1.1912    1.1940 O   0  0  0  0  0  0  0  0  0  0  0  0
    3.4705    1.8034   -1.2308 O   0  0  0  0  0  0  0  0  0  0  0  0
    5.3641    1.6064    0.4717 O   0  0  0  0  0  0  0  0  0  0  0  0
    4.1843   -0.4077   -0.4238 O   0  0  0  0  0  0  0  0  0  0  0  0
    4.9031   -0.7755    0.1180 H   0  0  0  0  0  0  0  0  0  0  0  0
  1  2  1  0  0  0  0
  1  7  1  0  0  0  0
  2  8  1  0  0  0  0
  3 19  1  0  0  0  0
  3  2  2  0  0  0  0
  4  3  1  0  0  0  0
  5  4  2  0  0  0  0
  5  6  1  0  0  0  0
  6  1  2  0  0  0  0
  9  4  1  0  0  0  0
 10  5  1  0  0  0  0
 12 11  3  0  0  0  0
 13  6  1  0  0  0  0
 13 14  1  0  0  0  0
 14 16  1  0  0  0  0
 15 14  1  0  0  0  0
 17 14  1  0  0  0  0
 18 21  2  0  0  0  0
 18 19  1  0  0  0  0
 20 18  2  0  0  0  0
 22 18  1  0  0  0  0
 22 23  1  0  0  0  0
M  END
