Coordinates from ORCA-job 4-MeO-Ph-N2-HSO4-B3LYPG-6-31G_dp-MTMO-d009-169-n800
 OpenBabel09051907533D

 23 22  0  0  0  0  0  0  0  0999 V2000
   -0.1404   -0.3648    1.1789 C   0  0  0  0  0  0  0  0  0  0  0  0
    1.2134   -0.0184    1.1654 C   0  0  0  0  0  0  0  0  0  0  0  0
    1.6287    1.0921    0.4445 C   0  0  0  0  0  0  0  0  0  0  0  0
    0.7228    1.8747   -0.2716 C   0  0  0  0  0  0  0  0  0  0  0  0
   -0.6220    1.5324   -0.2587 C   0  0  0  0  0  0  0  0  0  0  0  0
   -1.0624    0.4114    0.4647 C   0  0  0  0  0  0  0  0  0  0  0  0
   -0.4578   -1.2327    1.7438 H   0  0  0  0  0  0  0  0  0  0  0  0
    1.9396   -0.6086    1.7128 H   0  0  0  0  0  0  0  0  0  0  0  0
    1.0784    2.7372   -0.8237 H   0  0  0  0  0  0  0  0  0  0  0  0
   -1.3549    2.1184   -0.8023 H   0  0  0  0  0  0  0  0  0  0  0  0
    3.6364    4.6157   -0.6636 N   0  0  0  0  0  0  0  0  0  0  0  0
    4.4779    5.2050   -0.2568 N   0  0  0  0  0  0  0  0  0  0  0  0
   -2.4010    0.1669    0.4104 O   0  0  0  0  0  0  0  0  0  0  0  0
   -2.9122   -0.9534    1.1168 C   0  0  0  0  0  0  0  0  0  0  0  0
   -3.9884   -0.9566    0.9369 H   0  0  0  0  0  0  0  0  0  0  0  0
   -2.7261   -0.8704    2.1957 H   0  0  0  0  0  0  0  0  0  0  0  0
   -2.4827   -1.8937    0.7491 H   0  0  0  0  0  0  0  0  0  0  0  0
    4.0051    0.9375   -0.6565 S   0  0  0  0  0  0  0  0  0  0  0  0
    2.9832    1.4873    0.5004 O   0  0  0  0  0  0  0  0  0  0  0  0
    3.3186    0.8227   -1.9223 O   0  0  0  0  0  0  0  0  0  0  0  0
    5.2206    1.7028   -0.4590 O   0  0  0  0  0  0  0  0  0  0  0  0
    4.2785   -0.5896   -0.1504 O   0  0  0  0  0  0  0  0  0  0  0  0
    5.0295   -0.5552    0.4665 H   0  0  0  0  0  0  0  0  0  0  0  0
  1  7  1  0  0  0  0
  2  1  1  0  0  0  0
  2  8  1  0  0  0  0
  3 19  1  0  0  0  0
  3  2  2  0  0  0  0
  4  5  2  0  0  0  0
  4  3  1  0  0  0  0
  5  6  1  0  0  0  0
  6  1  2  0  0  0  0
  9  4  1  0  0  0  0
 10  5  1  0  0  0  0
 11 12  3  0  0  0  0
 13  6  1  0  0  0  0
 13 14  1  0  0  0  0
 14 16  1  0  0  0  0
 15 14  1  0  0  0  0
 17 14  1  0  0  0  0
 18 21  2  0  0  0  0
 18 22  1  0  0  0  0
 18 19  1  0  0  0  0
 20 18  2  0  0  0  0
 22 23  1  0  0  0  0
M  END
