Coordinates from ORCA-job 4-MeO-Ph-N2-HSO4-B3LYPG-6-31G_dp-MTMO-d009-169-n800
 OpenBabel09051907533D

 23 22  0  0  0  0  0  0  0  0999 V2000
   -0.5433   -0.5325    0.8271 C   0  0  0  0  0  0  0  0  0  0  0  0
    0.6963    0.1100    0.7742 C   0  0  0  0  0  0  0  0  0  0  0  0
    0.8082    1.4224    1.2109 C   0  0  0  0  0  0  0  0  0  0  0  0
   -0.2952    2.1200    1.7032 C   0  0  0  0  0  0  0  0  0  0  0  0
   -1.5278    1.4844    1.7548 C   0  0  0  0  0  0  0  0  0  0  0  0
   -1.6607    0.1561    1.3171 C   0  0  0  0  0  0  0  0  0  0  0  0
   -0.6217   -1.5574    0.4871 H   0  0  0  0  0  0  0  0  0  0  0  0
    1.5713   -0.4086    0.3988 H   0  0  0  0  0  0  0  0  0  0  0  0
   -0.1801    3.1452    2.0348 H   0  0  0  0  0  0  0  0  0  0  0  0
   -2.4071    1.9960    2.1305 H   0  0  0  0  0  0  0  0  0  0  0  0
   12.9916    0.5780   -4.9442 N   0  0  0  0  0  0  0  0  0  0  0  0
   11.9496    0.4730   -4.5907 N   0  0  0  0  0  0  0  0  0  0  0  0
   -2.9129   -0.3708    1.4116 O   0  0  0  0  0  0  0  0  0  0  0  0
   -3.1201   -1.7029    0.9652 C   0  0  0  0  0  0  0  0  0  0  0  0
   -4.1797   -1.9103    1.1208 H   0  0  0  0  0  0  0  0  0  0  0  0
   -2.5243   -2.4206    1.5429 H   0  0  0  0  0  0  0  0  0  0  0  0
   -2.8825   -1.8127   -0.1007 H   0  0  0  0  0  0  0  0  0  0  0  0
    2.5067    2.9946   -0.0254 S   0  0  0  0  0  0  0  0  0  0  0  0
    2.0820    2.0311    1.2309 O   0  0  0  0  0  0  0  0  0  0  0  0
    1.3733    3.7793   -0.4593 O   0  0  0  0  0  0  0  0  0  0  0  0
    3.7811    3.5610    0.3675 O   0  0  0  0  0  0  0  0  0  0  0  0
    2.7743    1.8981   -1.2029 O   0  0  0  0  0  0  0  0  0  0  0  0
    3.7056    1.6271   -1.1333 H   0  0  0  0  0  0  0  0  0  0  0  0
  1  6  1  0  0  0  0
  2  1  2  0  0  0  0
  2  3  1  0  0  0  0
  3 19  1  0  0  0  0
  3  4  2  0  0  0  0
  4  5  1  0  0  0  0
  4  9  1  0  0  0  0
  5 10  1  0  0  0  0
  6 13  1  0  0  0  0
  6  5  2  0  0  0  0
  7  1  1  0  0  0  0
  8  2  1  0  0  0  0
 11 12  3  0  0  0  0
 14 15  1  0  0  0  0
 14 13  1  0  0  0  0
 14 16  1  0  0  0  0
 17 14  1  0  0  0  0
 18 21  2  0  0  0  0
 18 19  1  0  0  0  0
 20 18  2  0  0  0  0
 22 23  1  0  0  0  0
 22 18  1  0  0  0  0
M  END
