Coordinates from ORCA-job 4-MeO-Ph-N2-HSO4-B3LYPG-6-31G_dp-MTMO-d009-169-n800
 OpenBabel09051907533D

 23 22  0  0  0  0  0  0  0  0999 V2000
   -0.0309   -0.0205    0.2149 C   0  0  0  0  0  0  0  0  0  0  0  0
    1.1785    0.4976   -0.2543 C   0  0  0  0  0  0  0  0  0  0  0  0
    1.2220    1.8614   -0.4002 C   0  0  0  0  0  0  0  0  0  0  0  0
    0.2130    2.7746   -0.1338 C   0  0  0  0  0  0  0  0  0  0  0  0
   -0.9751    2.2311    0.3325 C   0  0  0  0  0  0  0  0  0  0  0  0
   -1.1042    0.8374    0.5100 C   0  0  0  0  0  0  0  0  0  0  0  0
   -0.1122   -1.0904    0.3571 H   0  0  0  0  0  0  0  0  0  0  0  0
    2.0416   -0.1172   -0.4779 H   0  0  0  0  0  0  0  0  0  0  0  0
    0.3400    3.8410   -0.2723 H   0  0  0  0  0  0  0  0  0  0  0  0
   -1.8190    2.8676    0.5732 H   0  0  0  0  0  0  0  0  0  0  0  0
    2.6170    2.5494   -0.9829 N   0  0  0  0  0  0  0  0  0  0  0  0
    3.1116    3.4733   -1.3667 N   0  0  0  0  0  0  0  0  0  0  0  0
   -2.3046    0.4283    0.9715 O   0  0  0  0  0  0  0  0  0  0  0  0
   -2.5188   -0.9638    1.1999 C   0  0  0  0  0  0  0  0  0  0  0  0
   -3.5400   -1.0476    1.5711 H   0  0  0  0  0  0  0  0  0  0  0  0
   -1.8234   -1.3545    1.9514 H   0  0  0  0  0  0  0  0  0  0  0  0
   -2.4194   -1.5386    0.2720 H   0  0  0  0  0  0  0  0  0  0  0  0
    4.5874    0.6758    0.3809 S   0  0  0  0  0  0  0  0  0  0  0  0
    4.0209    1.6600    1.3110 O   0  0  0  0  0  0  0  0  0  0  0  0
    3.9740    0.8200   -1.0061 O   0  0  0  0  0  0  0  0  0  0  0  0
    6.0380    0.4758    0.3403 O   0  0  0  0  0  0  0  0  0  0  0  0
    3.9726   -0.7908    0.9034 O   0  0  0  0  0  0  0  0  0  0  0  0
    4.7156   -1.4094    0.8262 H   0  0  0  0  0  0  0  0  0  0  0  0
  1  7  1  0  0  0  0
  1  6  2  0  0  0  0
  2  1  1  0  0  0  0
  3  2  2  0  0  0  0
  3  4  1  0  0  0  0
  4  5  2  0  0  0  0
  5  6  1  0  0  0  0
  5 10  1  0  0  0  0
  6 13  1  0  0  0  0
  8  2  1  0  0  0  0
  9  4  1  0  0  0  0
 11  3  1  0  0  0  0
 12 11  2  0  0  0  0
 13 14  1  0  0  0  0
 14 15  1  0  0  0  0
 14 16  1  0  0  0  0
 17 14  1  0  0  0  0
 18 22  1  0  0  0  0
 18 19  1  0  0  0  0
 20 18  2  0  0  0  0
 21 18  2  0  0  0  0
 23 22  1  0  0  0  0
M  RAD  2  12   2  19   2
M  END
