Coordinates from ORCA-job 4-MeO-Ph-N2-HSO4-B3LYPG-6-31G_dp-MTMO-d009-169-n800
 OpenBabel09051907533D

 23 22  0  0  0  0  0  0  0  0999 V2000
   -0.0464   -0.4399    0.8324 C   0  0  0  0  0  0  0  0  0  0  0  0
    1.3269   -0.2075    0.9427 C   0  0  0  0  0  0  0  0  0  0  0  0
    1.8076    1.0936    0.8804 C   0  0  0  0  0  0  0  0  0  0  0  0
    0.9453    2.1780    0.7257 C   0  0  0  0  0  0  0  0  0  0  0  0
   -0.4204    1.9489    0.6273 C   0  0  0  0  0  0  0  0  0  0  0  0
   -0.9254    0.6394    0.6753 C   0  0  0  0  0  0  0  0  0  0  0  0
   -0.4124   -1.4582    0.8757 H   0  0  0  0  0  0  0  0  0  0  0  0
    2.0153   -1.0353    1.0699 H   0  0  0  0  0  0  0  0  0  0  0  0
    1.3509    3.1820    0.6829 H   0  0  0  0  0  0  0  0  0  0  0  0
   -1.1191    2.7696    0.5076 H   0  0  0  0  0  0  0  0  0  0  0  0
    2.4239    3.8772   -1.8446 N   0  0  0  0  0  0  0  0  0  0  0  0
    2.4176    3.8549   -2.9494 N   0  0  0  0  0  0  0  0  0  0  0  0
   -2.2783    0.5265    0.5631 O   0  0  0  0  0  0  0  0  0  0  0  0
   -2.8512   -0.7720    0.5857 C   0  0  0  0  0  0  0  0  0  0  0  0
   -3.9265   -0.6282    0.4709 H   0  0  0  0  0  0  0  0  0  0  0  0
   -2.6557   -1.2848    1.5369 H   0  0  0  0  0  0  0  0  0  0  0  0
   -2.4798   -1.3922   -0.2405 H   0  0  0  0  0  0  0  0  0  0  0  0
    4.2457    0.9745   -0.1086 S   0  0  0  0  0  0  0  0  0  0  0  0
    3.1805    1.3677    1.0700 O   0  0  0  0  0  0  0  0  0  0  0  0
    3.6070    1.0095   -1.4042 O   0  0  0  0  0  0  0  0  0  0  0  0
    5.4498    1.7083    0.2256 O   0  0  0  0  0  0  0  0  0  0  0  0
    4.5135   -0.6045    0.2124 O   0  0  0  0  0  0  0  0  0  0  0  0
    5.2159   -0.6467    0.8839 H   0  0  0  0  0  0  0  0  0  0  0  0
  1  7  1  0  0  0  0
  1  2  2  0  0  0  0
  2  8  1  0  0  0  0
  3  2  1  0  0  0  0
  3 19  1  0  0  0  0
  4  3  2  0  0  0  0
  5  6  2  0  0  0  0
  5  4  1  0  0  0  0
  6  1  1  0  0  0  0
  9  4  1  0  0  0  0
 10  5  1  0  0  0  0
 12 11  3  0  0  0  0
 13 14  1  0  0  0  0
 13  6  1  0  0  0  0
 14 16  1  0  0  0  0
 15 14  1  0  0  0  0
 17 14  1  0  0  0  0
 18 22  1  0  0  0  0
 18 21  2  0  0  0  0
 18 19  1  0  0  0  0
 20 18  2  0  0  0  0
 22 23  1  0  0  0  0
M  END
