Coordinates from ORCA-job 4-MeO-Ph-N2-HSO4-B3LYPG-6-31G_dp-MTMO-d009-169-n800
 OpenBabel09051907533D

 23 22  0  0  0  0  0  0  0  0999 V2000
   -0.0308   -0.0207    0.2139 C   0  0  0  0  0  0  0  0  0  0  0  0
    1.1783    0.4972   -0.2544 C   0  0  0  0  0  0  0  0  0  0  0  0
    1.2277    1.8622   -0.4017 C   0  0  0  0  0  0  0  0  0  0  0  0
    0.2148    2.7733   -0.1338 C   0  0  0  0  0  0  0  0  0  0  0  0
   -0.9734    2.2313    0.3317 C   0  0  0  0  0  0  0  0  0  0  0  0
   -1.1038    0.8377    0.5090 C   0  0  0  0  0  0  0  0  0  0  0  0
   -0.1130   -1.0906    0.3556 H   0  0  0  0  0  0  0  0  0  0  0  0
    2.0405   -0.1187   -0.4780 H   0  0  0  0  0  0  0  0  0  0  0  0
    0.3419    3.8398   -0.2719 H   0  0  0  0  0  0  0  0  0  0  0  0
   -1.8171    2.8683    0.5724 H   0  0  0  0  0  0  0  0  0  0  0  0
    2.6054    2.5441   -0.9758 N   0  0  0  0  0  0  0  0  0  0  0  0
    3.1036    3.4670   -1.3586 N   0  0  0  0  0  0  0  0  0  0  0  0
   -2.3043    0.4293    0.9699 O   0  0  0  0  0  0  0  0  0  0  0  0
   -2.5198   -0.9627    1.1982 C   0  0  0  0  0  0  0  0  0  0  0  0
   -3.5411   -1.0456    1.5693 H   0  0  0  0  0  0  0  0  0  0  0  0
   -1.8248   -1.3539    1.9498 H   0  0  0  0  0  0  0  0  0  0  0  0
   -2.4207   -1.5373    0.2703 H   0  0  0  0  0  0  0  0  0  0  0  0
    4.5889    0.6766    0.3793 S   0  0  0  0  0  0  0  0  0  0  0  0
    4.0298    1.6633    1.3112 O   0  0  0  0  0  0  0  0  0  0  0  0
    3.9662    0.8194   -1.0040 O   0  0  0  0  0  0  0  0  0  0  0  0
    6.0391    0.4754    0.3285 O   0  0  0  0  0  0  0  0  0  0  0  0
    3.9769   -0.7884    0.9079 O   0  0  0  0  0  0  0  0  0  0  0  0
    4.7207   -1.4062    0.8323 H   0  0  0  0  0  0  0  0  0  0  0  0
  1  7  1  0  0  0  0
  1  6  2  0  0  0  0
  2  1  1  0  0  0  0
  3  2  2  0  0  0  0
  3  4  1  0  0  0  0
  4  5  2  0  0  0  0
  5  6  1  0  0  0  0
  5 10  1  0  0  0  0
  6 13  1  0  0  0  0
  8  2  1  0  0  0  0
  9  4  1  0  0  0  0
 11  3  1  0  0  0  0
 12 11  2  0  0  0  0
 13 14  1  0  0  0  0
 14 15  1  0  0  0  0
 14 16  1  0  0  0  0
 17 14  1  0  0  0  0
 18 22  1  0  0  0  0
 18 19  1  0  0  0  0
 20 18  2  0  0  0  0
 21 18  2  0  0  0  0
 23 22  1  0  0  0  0
M  RAD  2  12   2  19   2
M  END
