Coordinates from ORCA-job 4-MeO-Ph-N2-HSO4-B3LYPG-6-31G_dp-MTMO-d009-169-n800
 OpenBabel09051907533D

 23 22  0  0  0  0  0  0  0  0999 V2000
   -0.6167   -0.5312    0.8590 C   0  0  0  0  0  0  0  0  0  0  0  0
    0.6228    0.1113    0.8059 C   0  0  0  0  0  0  0  0  0  0  0  0
    0.7347    1.4236    1.2432 C   0  0  0  0  0  0  0  0  0  0  0  0
   -0.3686    2.1209    1.7360 C   0  0  0  0  0  0  0  0  0  0  0  0
   -1.6012    1.4852    1.7877 C   0  0  0  0  0  0  0  0  0  0  0  0
   -1.7341    0.1571    1.3495 C   0  0  0  0  0  0  0  0  0  0  0  0
   -0.6951   -1.5560    0.5186 H   0  0  0  0  0  0  0  0  0  0  0  0
    1.4977   -0.4070    0.4301 H   0  0  0  0  0  0  0  0  0  0  0  0
   -0.2535    3.1460    2.0679 H   0  0  0  0  0  0  0  0  0  0  0  0
   -2.4804    1.9966    2.1638 H   0  0  0  0  0  0  0  0  0  0  0  0
   13.7638    0.5661   -5.2824 N   0  0  0  0  0  0  0  0  0  0  0  0
   12.7221    0.4580   -4.9289 N   0  0  0  0  0  0  0  0  0  0  0  0
   -2.9862   -0.3700    1.4441 O   0  0  0  0  0  0  0  0  0  0  0  0
   -3.1934   -1.7020    0.9973 C   0  0  0  0  0  0  0  0  0  0  0  0
   -4.2530   -1.9094    1.1530 H   0  0  0  0  0  0  0  0  0  0  0  0
   -2.5975   -2.4199    1.5745 H   0  0  0  0  0  0  0  0  0  0  0  0
   -2.9561   -1.8113   -0.0688 H   0  0  0  0  0  0  0  0  0  0  0  0
    2.4327    2.9964    0.0070 S   0  0  0  0  0  0  0  0  0  0  0  0
    2.0084    2.0325    1.2630 O   0  0  0  0  0  0  0  0  0  0  0  0
    1.2991    3.7810   -0.4265 O   0  0  0  0  0  0  0  0  0  0  0  0
    3.7071    3.5629    0.3998 O   0  0  0  0  0  0  0  0  0  0  0  0
    2.7004    1.9003   -1.1709 O   0  0  0  0  0  0  0  0  0  0  0  0
    3.6318    1.6296   -1.1016 H   0  0  0  0  0  0  0  0  0  0  0  0
  1  6  1  0  0  0  0
  2  1  2  0  0  0  0
  2  3  1  0  0  0  0
  3 19  1  0  0  0  0
  3  4  2  0  0  0  0
  4  5  1  0  0  0  0
  4  9  1  0  0  0  0
  5 10  1  0  0  0  0
  6 13  1  0  0  0  0
  6  5  2  0  0  0  0
  7  1  1  0  0  0  0
  8  2  1  0  0  0  0
 11 12  3  0  0  0  0
 14 15  1  0  0  0  0
 14 13  1  0  0  0  0
 14 16  1  0  0  0  0
 17 14  1  0  0  0  0
 18 21  2  0  0  0  0
 18 19  1  0  0  0  0
 20 18  2  0  0  0  0
 22 23  1  0  0  0  0
 22 18  1  0  0  0  0
M  END
