Coordinates from ORCA-job 4-MeO-Ph-N2-HSO4-B3LYPG-6-31G_dp-MTMO-d009-169-n800
 OpenBabel09051907533D

 23 22  0  0  0  0  0  0  0  0999 V2000
   -0.0281   -0.0176    0.1968 C   0  0  0  0  0  0  0  0  0  0  0  0
    1.1770    0.5061   -0.2894 C   0  0  0  0  0  0  0  0  0  0  0  0
    1.1816    1.8628   -0.4046 C   0  0  0  0  0  0  0  0  0  0  0  0
    0.2083    2.7919   -0.1196 C   0  0  0  0  0  0  0  0  0  0  0  0
   -0.9725    2.2330    0.3623 C   0  0  0  0  0  0  0  0  0  0  0  0
   -1.0958    0.8371    0.5222 C   0  0  0  0  0  0  0  0  0  0  0  0
   -0.1036   -1.0894    0.3284 H   0  0  0  0  0  0  0  0  0  0  0  0
    2.0454   -0.0949   -0.5349 H   0  0  0  0  0  0  0  0  0  0  0  0
    0.3384    3.8587   -0.2467 H   0  0  0  0  0  0  0  0  0  0  0  0
   -1.8118    2.8662    0.6272 H   0  0  0  0  0  0  0  0  0  0  0  0
    2.6876    2.5897   -1.0736 N   0  0  0  0  0  0  0  0  0  0  0  0
    3.1785    3.4986   -1.4872 N   0  0  0  0  0  0  0  0  0  0  0  0
   -2.2886    0.4200    1.0000 O   0  0  0  0  0  0  0  0  0  0  0  0
   -2.4944   -0.9748    1.2154 C   0  0  0  0  0  0  0  0  0  0  0  0
   -3.5084   -1.0668    1.6042 H   0  0  0  0  0  0  0  0  0  0  0  0
   -1.7843   -1.3728    1.9493 H   0  0  0  0  0  0  0  0  0  0  0  0
   -2.4106   -1.5385    0.2790 H   0  0  0  0  0  0  0  0  0  0  0  0
    4.5458    0.6657    0.4105 S   0  0  0  0  0  0  0  0  0  0  0  0
    3.8904    1.6311    1.3031 O   0  0  0  0  0  0  0  0  0  0  0  0
    4.0313    0.7991   -1.0132 O   0  0  0  0  0  0  0  0  0  0  0  0
    5.9999    0.4997    0.4803 O   0  0  0  0  0  0  0  0  0  0  0  0
    3.9259   -0.8148    0.8916 O   0  0  0  0  0  0  0  0  0  0  0  0
    4.6726   -1.4293    0.8198 H   0  0  0  0  0  0  0  0  0  0  0  0
  1  7  1  0  0  0  0
  1  6  2  0  0  0  0
  2  1  1  0  0  0  0
  3  2  2  0  0  0  0
  3  4  1  0  0  0  0
  4  5  2  0  0  0  0
  5  6  1  0  0  0  0
  5 10  1  0  0  0  0
  6 13  1  0  0  0  0
  8  2  1  0  0  0  0
  9  4  1  0  0  0  0
 11  3  1  0  0  0  0
 12 11  2  0  0  0  0
 13 14  1  0  0  0  0
 14 15  1  0  0  0  0
 14 16  1  0  0  0  0
 17 14  1  0  0  0  0
 18 21  2  0  0  0  0
 18 22  1  0  0  0  0
 18 19  1  0  0  0  0
 20 18  2  0  0  0  0
 23 22  1  0  0  0  0
M  RAD  2  12   2  19   2
M  END
