Coordinates from ORCA-job 4-MeO-Ph-N2-HSO4-B3LYPG-6-31G_dp-MTMO-d009-169-n800
 OpenBabel09051907533D

 23 22  0  0  0  0  0  0  0  0999 V2000
   -0.1233   -0.5767    0.6296 C   0  0  0  0  0  0  0  0  0  0  0  0
    1.1589   -0.0313    0.5248 C   0  0  0  0  0  0  0  0  0  0  0  0
    1.3745    1.2903    0.8894 C   0  0  0  0  0  0  0  0  0  0  0  0
    0.3334    2.0931    1.3565 C   0  0  0  0  0  0  0  0  0  0  0  0
   -0.9415    1.5543    1.4584 C   0  0  0  0  0  0  0  0  0  0  0  0
   -1.1784    0.2175    1.0970 C   0  0  0  0  0  0  0  0  0  0  0  0
   -0.2835   -1.6097    0.3469 H   0  0  0  0  0  0  0  0  0  0  0  0
    1.9876   -0.6313    0.1658 H   0  0  0  0  0  0  0  0  0  0  0  0
    0.5291    3.1233    1.6299 H   0  0  0  0  0  0  0  0  0  0  0  0
   -1.7745    2.1493    1.8167 H   0  0  0  0  0  0  0  0  0  0  0  0
    7.5636    1.3215   -2.0865 N   0  0  0  0  0  0  0  0  0  0  0  0
    6.4838    1.2157   -1.8806 N   0  0  0  0  0  0  0  0  0  0  0  0
   -2.4638   -0.2103    1.2406 O   0  0  0  0  0  0  0  0  0  0  0  0
   -2.7726   -1.5505    0.8872 C   0  0  0  0  0  0  0  0  0  0  0  0
   -3.8392   -1.6739    1.0803 H   0  0  0  0  0  0  0  0  0  0  0  0
   -2.2109   -2.2692    1.4969 H   0  0  0  0  0  0  0  0  0  0  0  0
   -2.5723   -1.7451   -0.1742 H   0  0  0  0  0  0  0  0  0  0  0  0
    3.1657    2.6791   -0.4390 S   0  0  0  0  0  0  0  0  0  0  0  0
    2.6904    1.8004    0.8623 O   0  0  0  0  0  0  0  0  0  0  0  0
    2.0702    3.4990   -0.9066 O   0  0  0  0  0  0  0  0  0  0  0  0
    4.4631    3.2091   -0.0664 O   0  0  0  0  0  0  0  0  0  0  0  0
    3.3886    1.5197   -1.5546 O   0  0  0  0  0  0  0  0  0  0  0  0
    4.3359    1.2864   -1.5534 H   0  0  0  0  0  0  0  0  0  0  0  0
  1  6  1  0  0  0  0
  2  1  2  0  0  0  0
  2  3  1  0  0  0  0
  3  4  2  0  0  0  0
  4  5  1  0  0  0  0
  4  9  1  0  0  0  0
  5 10  1  0  0  0  0
  6 13  1  0  0  0  0
  6  5  2  0  0  0  0
  7  1  1  0  0  0  0
  8  2  1  0  0  0  0
 11 12  3  0  0  0  0
 14 15  1  0  0  0  0
 14 13  1  0  0  0  0
 14 16  1  0  0  0  0
 17 14  1  0  0  0  0
 18 21  2  0  0  0  0
 18 19  1  0  0  0  0
 19  3  1  0  0  0  0
 20 18  2  0  0  0  0
 22 23  1  0  0  0  0
 22 18  1  0  0  0  0
M  END
