Coordinates from ORCA-job 4-MeO-Ph-N2-HSO4-B3LYPG-6-31G_dp-MTMO-d009-169-n800
 OpenBabel09051907533D

 23 22  0  0  0  0  0  0  0  0999 V2000
   -0.7523   -0.5293    0.9183 C   0  0  0  0  0  0  0  0  0  0  0  0
    0.4878    0.1121    0.8652 C   0  0  0  0  0  0  0  0  0  0  0  0
    0.6008    1.4246    1.3018 C   0  0  0  0  0  0  0  0  0  0  0  0
   -0.5020    2.1230    1.7939 C   0  0  0  0  0  0  0  0  0  0  0  0
   -1.7351    1.4885    1.8457 C   0  0  0  0  0  0  0  0  0  0  0  0
   -1.8691    0.1602    1.4082 C   0  0  0  0  0  0  0  0  0  0  0  0
   -0.8315   -1.5542    0.5785 H   0  0  0  0  0  0  0  0  0  0  0  0
    1.3624   -0.4072    0.4899 H   0  0  0  0  0  0  0  0  0  0  0  0
   -0.3861    3.1483    2.1253 H   0  0  0  0  0  0  0  0  0  0  0  0
   -2.6141    2.0009    2.2213 H   0  0  0  0  0  0  0  0  0  0  0  0
   15.1736    0.5471   -5.9009 N   0  0  0  0  0  0  0  0  0  0  0  0
   14.1312    0.4465   -5.5473 N   0  0  0  0  0  0  0  0  0  0  0  0
   -3.1217   -0.3658    1.5029 O   0  0  0  0  0  0  0  0  0  0  0  0
   -3.3299   -1.6978    1.0569 C   0  0  0  0  0  0  0  0  0  0  0  0
   -4.3897   -1.9043    1.2127 H   0  0  0  0  0  0  0  0  0  0  0  0
   -2.7347   -2.4158    1.6347 H   0  0  0  0  0  0  0  0  0  0  0  0
   -3.0926   -1.8081   -0.0090 H   0  0  0  0  0  0  0  0  0  0  0  0
    2.3007    2.9949    0.0651 S   0  0  0  0  0  0  0  0  0  0  0  0
    1.8750    2.0323    1.3217 O   0  0  0  0  0  0  0  0  0  0  0  0
    1.1678    3.7796   -0.3701 O   0  0  0  0  0  0  0  0  0  0  0  0
    3.5750    3.5613    0.4585 O   0  0  0  0  0  0  0  0  0  0  0  0
    2.5690    1.8976   -1.1115 O   0  0  0  0  0  0  0  0  0  0  0  0
    3.5002    1.6266   -1.0409 H   0  0  0  0  0  0  0  0  0  0  0  0
  1  6  1  0  0  0  0
  2  1  2  0  0  0  0
  2  3  1  0  0  0  0
  3 19  1  0  0  0  0
  3  4  2  0  0  0  0
  4  5  1  0  0  0  0
  4  9  1  0  0  0  0
  5 10  1  0  0  0  0
  6 13  1  0  0  0  0
  6  5  2  0  0  0  0
  7  1  1  0  0  0  0
  8  2  1  0  0  0  0
 11 12  3  0  0  0  0
 14 15  1  0  0  0  0
 14 13  1  0  0  0  0
 14 16  1  0  0  0  0
 17 14  1  0  0  0  0
 18 21  2  0  0  0  0
 18 19  1  0  0  0  0
 20 18  2  0  0  0  0
 22 23  1  0  0  0  0
 22 18  1  0  0  0  0
M  END
