Coordinates from ORCA-job 4-MeO-Ph-N2-HSO4-B3LYPG-6-31G_dp-MTMO-d009-169-n800
 OpenBabel09051907533D

 23 22  0  0  0  0  0  0  0  0999 V2000
   -0.1688   -0.5755    0.6837 C   0  0  0  0  0  0  0  0  0  0  0  0
    1.1167   -0.0316    0.6191 C   0  0  0  0  0  0  0  0  0  0  0  0
    1.3164    1.2976    0.9642 C   0  0  0  0  0  0  0  0  0  0  0  0
    0.2582    2.1091    1.3727 C   0  0  0  0  0  0  0  0  0  0  0  0
   -1.0194    1.5711    1.4369 C   0  0  0  0  0  0  0  0  0  0  0  0
   -1.2416    0.2270    1.0935 C   0  0  0  0  0  0  0  0  0  0  0  0
   -0.3178   -1.6138    0.4150 H   0  0  0  0  0  0  0  0  0  0  0  0
    1.9592   -0.6372    0.3043 H   0  0  0  0  0  0  0  0  0  0  0  0
    0.4434    3.1450    1.6330 H   0  0  0  0  0  0  0  0  0  0  0  0
   -1.8659    2.1722    1.7506 H   0  0  0  0  0  0  0  0  0  0  0  0
    7.7653    1.4555   -2.7189 N   0  0  0  0  0  0  0  0  0  0  0  0
    6.7813    1.3421   -2.2291 N   0  0  0  0  0  0  0  0  0  0  0  0
   -2.5315   -0.1990    1.1950 O   0  0  0  0  0  0  0  0  0  0  0  0
   -2.8261   -1.5461    0.8557 C   0  0  0  0  0  0  0  0  0  0  0  0
   -3.8996   -1.6664    1.0086 H   0  0  0  0  0  0  0  0  0  0  0  0
   -2.2890   -2.2525    1.5010 H   0  0  0  0  0  0  0  0  0  0  0  0
   -2.5839   -1.7609   -0.1929 H   0  0  0  0  0  0  0  0  0  0  0  0
    3.1863    2.6058   -0.3450 S   0  0  0  0  0  0  0  0  0  0  0  0
    2.6316    1.8129    0.9784 O   0  0  0  0  0  0  0  0  0  0  0  0
    2.0960    3.3041   -0.9895 O   0  0  0  0  0  0  0  0  0  0  0  0
    4.4080    3.2531    0.0926 O   0  0  0  0  0  0  0  0  0  0  0  0
    3.5978    1.3666   -1.3184 O   0  0  0  0  0  0  0  0  0  0  0  0
    4.5684    1.2816   -1.2894 H   0  0  0  0  0  0  0  0  0  0  0  0
  1  6  1  0  0  0  0
  2  1  2  0  0  0  0
  2  3  1  0  0  0  0
  3 19  1  0  0  0  0
  3  4  2  0  0  0  0
  4  5  1  0  0  0  0
  4  9  1  0  0  0  0
  5 10  1  0  0  0  0
  6 13  1  0  0  0  0
  6  5  2  0  0  0  0
  7  1  1  0  0  0  0
  8  2  1  0  0  0  0
 11 12  3  0  0  0  0
 14 15  1  0  0  0  0
 14 13  1  0  0  0  0
 14 16  1  0  0  0  0
 17 14  1  0  0  0  0
 18 21  2  0  0  0  0
 18 19  1  0  0  0  0
 20 18  2  0  0  0  0
 22 23  1  0  0  0  0
 22 18  1  0  0  0  0
M  END
