Coordinates from ORCA-job 4-MeO-Ph-N2-HSO4-B3LYPG-6-31G_dp-MTMO-d009-169-n800
 OpenBabel09051907533D

 23 22  0  0  0  0  0  0  0  0999 V2000
   -0.3228   -0.5436    0.7298 C   0  0  0  0  0  0  0  0  0  0  0  0
    0.9282    0.0755    0.6674 C   0  0  0  0  0  0  0  0  0  0  0  0
    1.0648    1.3904    1.0894 C   0  0  0  0  0  0  0  0  0  0  0  0
   -0.0248    2.1134    1.5754 C   0  0  0  0  0  0  0  0  0  0  0  0
   -1.2687    1.5012    1.6363 C   0  0  0  0  0  0  0  0  0  0  0  0
   -1.4265    0.1706    1.2141 C   0  0  0  0  0  0  0  0  0  0  0  0
   -0.4207   -1.5708    0.4016 H   0  0  0  0  0  0  0  0  0  0  0  0
    1.7929   -0.4632    0.2964 H   0  0  0  0  0  0  0  0  0  0  0  0
    0.1097    3.1401    1.8953 H   0  0  0  0  0  0  0  0  0  0  0  0
   -2.1378    2.0330    2.0077 H   0  0  0  0  0  0  0  0  0  0  0  0
   10.4237    0.7652   -3.7879 N   0  0  0  0  0  0  0  0  0  0  0  0
    9.3830    0.6746   -3.4269 N   0  0  0  0  0  0  0  0  0  0  0  0
   -2.6877   -0.3326    1.3175 O   0  0  0  0  0  0  0  0  0  0  0  0
   -2.9196   -1.6666    0.8891 C   0  0  0  0  0  0  0  0  0  0  0  0
   -3.9820   -1.8536    1.0513 H   0  0  0  0  0  0  0  0  0  0  0  0
   -2.3340   -2.3869    1.4739 H   0  0  0  0  0  0  0  0  0  0  0  0
   -2.6880   -1.7942   -0.1761 H   0  0  0  0  0  0  0  0  0  0  0  0
    2.7898    2.9191   -0.1652 S   0  0  0  0  0  0  0  0  0  0  0  0
    2.3495    1.9758    1.1012 O   0  0  0  0  0  0  0  0  0  0  0  0
    1.6681    3.7139   -0.6106 O   0  0  0  0  0  0  0  0  0  0  0  0
    4.0709    3.4730    0.2243 O   0  0  0  0  0  0  0  0  0  0  0  0
    3.0451    1.8060   -1.3295 O   0  0  0  0  0  0  0  0  0  0  0  0
    3.9716    1.5205   -1.2535 H   0  0  0  0  0  0  0  0  0  0  0  0
  1  6  1  0  0  0  0
  2  1  2  0  0  0  0
  2  3  1  0  0  0  0
  3 19  1  0  0  0  0
  3  4  2  0  0  0  0
  4  5  1  0  0  0  0
  4  9  1  0  0  0  0
  5 10  1  0  0  0  0
  6 13  1  0  0  0  0
  6  5  2  0  0  0  0
  7  1  1  0  0  0  0
  8  2  1  0  0  0  0
 11 12  3  0  0  0  0
 14 15  1  0  0  0  0
 14 13  1  0  0  0  0
 14 16  1  0  0  0  0
 17 14  1  0  0  0  0
 18 21  2  0  0  0  0
 18 19  1  0  0  0  0
 20 18  2  0  0  0  0
 22 23  1  0  0  0  0
 22 18  1  0  0  0  0
M  END
