Coordinates from ORCA-job 4-MeO-Ph-N2-HSO4-B3LYPG-6-31G_dp-MTMO-d009-169-n800
 OpenBabel09051907533D

 23 22  0  0  0  0  0  0  0  0999 V2000
   -0.1438   -0.4978    1.1259 C   0  0  0  0  0  0  0  0  0  0  0  0
    1.2237   -0.2336    1.2378 C   0  0  0  0  0  0  0  0  0  0  0  0
    1.7248    0.9845    0.8005 C   0  0  0  0  0  0  0  0  0  0  0  0
    0.8921    1.9570    0.2458 C   0  0  0  0  0  0  0  0  0  0  0  0
   -0.4659    1.6946    0.1320 C   0  0  0  0  0  0  0  0  0  0  0  0
   -0.9929    0.4678    0.5696 C   0  0  0  0  0  0  0  0  0  0  0  0
   -0.5284   -1.4486    1.4732 H   0  0  0  0  0  0  0  0  0  0  0  0
    1.8949   -0.9692    1.6667 H   0  0  0  0  0  0  0  0  0  0  0  0
    1.3103    2.8978   -0.0927 H   0  0  0  0  0  0  0  0  0  0  0  0
   -1.1441    2.4262   -0.2933 H   0  0  0  0  0  0  0  0  0  0  0  0
    3.0323    4.6803   -1.4584 N   0  0  0  0  0  0  0  0  0  0  0  0
    3.8153    5.0157   -2.1621 N   0  0  0  0  0  0  0  0  0  0  0  0
   -2.3372    0.3168    0.4117 O   0  0  0  0  0  0  0  0  0  0  0  0
   -2.9323   -0.9050    0.8235 C   0  0  0  0  0  0  0  0  0  0  0  0
   -3.9953   -0.8129    0.5958 H   0  0  0  0  0  0  0  0  0  0  0  0
   -2.8063   -1.0731    1.9007 H   0  0  0  0  0  0  0  0  0  0  0  0
   -2.5190   -1.7608    0.2753 H   0  0  0  0  0  0  0  0  0  0  0  0
    4.1349    1.0459   -0.2394 S   0  0  0  0  0  0  0  0  0  0  0  0
    3.0930    1.2718    1.0028 O   0  0  0  0  0  0  0  0  0  0  0  0
    3.5195    1.4318   -1.4890 O   0  0  0  0  0  0  0  0  0  0  0  0
    5.3930    1.5825    0.2398 O   0  0  0  0  0  0  0  0  0  0  0  0
    4.2521   -0.5805   -0.2793 O   0  0  0  0  0  0  0  0  0  0  0  0
    4.9641   -0.8306    0.3339 H   0  0  0  0  0  0  0  0  0  0  0  0
  1  2  1  0  0  0  0
  1  7  1  0  0  0  0
  2  8  1  0  0  0  0
  3 19  1  0  0  0  0
  3  2  2  0  0  0  0
  4  3  1  0  0  0  0
  5  4  2  0  0  0  0
  5  6  1  0  0  0  0
  6  1  2  0  0  0  0
  9  4  1  0  0  0  0
 10  5  1  0  0  0  0
 12 11  3  0  0  0  0
 13  6  1  0  0  0  0
 13 14  1  0  0  0  0
 14 16  1  0  0  0  0
 15 14  1  0  0  0  0
 17 14  1  0  0  0  0
 18 21  2  0  0  0  0
 18 19  1  0  0  0  0
 20 18  2  0  0  0  0
 22 18  1  0  0  0  0
 22 23  1  0  0  0  0
M  END
