Coordinates from ORCA-job 4-MeO-Ph-N2-HSO4-B3LYPG-6-31G_dp-MTMO-d009-169-n800
 OpenBabel09051907533D

 23 22  0  0  0  0  0  0  0  0999 V2000
   -0.7163   -0.5298    0.9030 C   0  0  0  0  0  0  0  0  0  0  0  0
    0.5235    0.1122    0.8504 C   0  0  0  0  0  0  0  0  0  0  0  0
    0.6356    1.4248    1.2869 C   0  0  0  0  0  0  0  0  0  0  0  0
   -0.4678    2.1228    1.7784 C   0  0  0  0  0  0  0  0  0  0  0  0
   -1.7006    1.4876    1.8298 C   0  0  0  0  0  0  0  0  0  0  0  0
   -1.8337    0.1592    1.3923 C   0  0  0  0  0  0  0  0  0  0  0  0
   -0.7949   -1.5548    0.5632 H   0  0  0  0  0  0  0  0  0  0  0  0
    1.3985   -0.4067    0.4755 H   0  0  0  0  0  0  0  0  0  0  0  0
   -0.3525    3.1481    2.1098 H   0  0  0  0  0  0  0  0  0  0  0  0
   -2.5799    1.9996    2.2049 H   0  0  0  0  0  0  0  0  0  0  0  0
   14.8032    0.5509   -5.7402 N   0  0  0  0  0  0  0  0  0  0  0  0
   13.7612    0.4478   -5.3863 N   0  0  0  0  0  0  0  0  0  0  0  0
   -3.0861   -0.3673    1.4865 O   0  0  0  0  0  0  0  0  0  0  0  0
   -3.2935   -1.6995    1.0405 C   0  0  0  0  0  0  0  0  0  0  0  0
   -4.3532   -1.9065    1.1958 H   0  0  0  0  0  0  0  0  0  0  0  0
   -2.6982   -2.4172    1.6187 H   0  0  0  0  0  0  0  0  0  0  0  0
   -3.0556   -1.8097   -0.0253 H   0  0  0  0  0  0  0  0  0  0  0  0
    2.3351    2.9960    0.0509 S   0  0  0  0  0  0  0  0  0  0  0  0
    1.9096    2.0331    1.3073 O   0  0  0  0  0  0  0  0  0  0  0  0
    1.2022    3.7805   -0.3843 O   0  0  0  0  0  0  0  0  0  0  0  0
    3.6093    3.5626    0.4444 O   0  0  0  0  0  0  0  0  0  0  0  0
    2.6038    1.8989   -1.1259 O   0  0  0  0  0  0  0  0  0  0  0  0
    3.5351    1.6282   -1.0553 H   0  0  0  0  0  0  0  0  0  0  0  0
  1  6  1  0  0  0  0
  2  1  2  0  0  0  0
  2  3  1  0  0  0  0
  3 19  1  0  0  0  0
  3  4  2  0  0  0  0
  4  5  1  0  0  0  0
  4  9  1  0  0  0  0
  5 10  1  0  0  0  0
  6 13  1  0  0  0  0
  6  5  2  0  0  0  0
  7  1  1  0  0  0  0
  8  2  1  0  0  0  0
 11 12  3  0  0  0  0
 14 15  1  0  0  0  0
 14 13  1  0  0  0  0
 14 16  1  0  0  0  0
 17 14  1  0  0  0  0
 18 21  2  0  0  0  0
 18 19  1  0  0  0  0
 20 18  2  0  0  0  0
 22 23  1  0  0  0  0
 22 18  1  0  0  0  0
M  END
