Coordinates from ORCA-job 4-MeO-Ph-N2-HSO4-B3LYPG-6-31G_dp-MTMO-d009-169-n800
 OpenBabel09051907533D

 23 22  0  0  0  0  0  0  0  0999 V2000
   -0.4021   -0.5385    0.7643 C   0  0  0  0  0  0  0  0  0  0  0  0
    0.8433    0.0923    0.7061 C   0  0  0  0  0  0  0  0  0  0  0  0
    0.9680    1.4058    1.1359 C   0  0  0  0  0  0  0  0  0  0  0  0
   -0.1282    2.1161    1.6261 C   0  0  0  0  0  0  0  0  0  0  0  0
   -1.3665    1.4922    1.6830 C   0  0  0  0  0  0  0  0  0  0  0  0
   -1.5123    0.1629    1.2525 C   0  0  0  0  0  0  0  0  0  0  0  0
   -0.4905   -1.5644    0.4299 H   0  0  0  0  0  0  0  0  0  0  0  0
    1.7129   -0.4364    0.3321 H   0  0  0  0  0  0  0  0  0  0  0  0
   -0.0031    3.1419    1.9521 H   0  0  0  0  0  0  0  0  0  0  0  0
   -2.2405    2.0139    2.0573 H   0  0  0  0  0  0  0  0  0  0  0  0
   11.3824    0.6776   -4.2200 N   0  0  0  0  0  0  0  0  0  0  0  0
   10.3411    0.5774   -3.8630 N   0  0  0  0  0  0  0  0  0  0  0  0
   -2.7691   -0.3521    1.3522 O   0  0  0  0  0  0  0  0  0  0  0  0
   -2.9890   -1.6850    0.9142 C   0  0  0  0  0  0  0  0  0  0  0  0
   -4.0500   -1.8822    1.0736 H   0  0  0  0  0  0  0  0  0  0  0  0
   -2.3981   -2.4044    1.4946 H   0  0  0  0  0  0  0  0  0  0  0  0
   -2.7551   -1.8032   -0.1516 H   0  0  0  0  0  0  0  0  0  0  0  0
    2.6791    2.9567   -0.1103 S   0  0  0  0  0  0  0  0  0  0  0  0
    2.2473    2.0029    1.1511 O   0  0  0  0  0  0  0  0  0  0  0  0
    1.5513    3.7468   -0.5489 O   0  0  0  0  0  0  0  0  0  0  0  0
    3.9571    3.5165    0.2803 O   0  0  0  0  0  0  0  0  0  0  0  0
    2.9394    1.8523   -1.2818 O   0  0  0  0  0  0  0  0  0  0  0  0
    3.8676    1.5717   -1.2085 H   0  0  0  0  0  0  0  0  0  0  0  0
  1  6  1  0  0  0  0
  2  1  2  0  0  0  0
  2  3  1  0  0  0  0
  3 19  1  0  0  0  0
  3  4  2  0  0  0  0
  4  5  1  0  0  0  0
  4  9  1  0  0  0  0
  5 10  1  0  0  0  0
  6 13  1  0  0  0  0
  6  5  2  0  0  0  0
  7  1  1  0  0  0  0
  8  2  1  0  0  0  0
 11 12  3  0  0  0  0
 14 15  1  0  0  0  0
 14 13  1  0  0  0  0
 14 16  1  0  0  0  0
 17 14  1  0  0  0  0
 18 21  2  0  0  0  0
 18 19  1  0  0  0  0
 20 18  2  0  0  0  0
 22 23  1  0  0  0  0
 22 18  1  0  0  0  0
M  END
