Coordinates from ORCA-job 4-MeO-Ph-N2-HSO4-B3LYPG-6-31G_dp-MTMO-d009-169-n800
 OpenBabel09051907533D

 23 22  0  0  0  0  0  0  0  0999 V2000
   -0.2655   -0.5483    0.7094 C   0  0  0  0  0  0  0  0  0  0  0  0
    0.9902    0.0614    0.6474 C   0  0  0  0  0  0  0  0  0  0  0  0
    1.1343    1.3789    1.0588 C   0  0  0  0  0  0  0  0  0  0  0  0
    0.0476    2.1139    1.5333 C   0  0  0  0  0  0  0  0  0  0  0  0
   -1.2009    1.5111    1.5936 C   0  0  0  0  0  0  0  0  0  0  0  0
   -1.3662    0.1780    1.1824 C   0  0  0  0  0  0  0  0  0  0  0  0
   -0.3693   -1.5775    0.3896 H   0  0  0  0  0  0  0  0  0  0  0  0
    1.8528   -0.4866    0.2851 H   0  0  0  0  0  0  0  0  0  0  0  0
    0.1880    3.1423    1.8450 H   0  0  0  0  0  0  0  0  0  0  0  0
   -2.0679    2.0523    1.9563 H   0  0  0  0  0  0  0  0  0  0  0  0
    9.7174    0.8357   -3.4939 N   0  0  0  0  0  0  0  0  0  0  0  0
    8.6798    0.7608   -3.1208 N   0  0  0  0  0  0  0  0  0  0  0  0
   -2.6314   -0.3153    1.2847 O   0  0  0  0  0  0  0  0  0  0  0  0
   -2.8706   -1.6520    0.8686 C   0  0  0  0  0  0  0  0  0  0  0  0
   -3.9348   -1.8303    1.0286 H   0  0  0  0  0  0  0  0  0  0  0  0
   -2.2919   -2.3703    1.4625 H   0  0  0  0  0  0  0  0  0  0  0  0
   -2.6360   -1.7916   -0.1945 H   0  0  0  0  0  0  0  0  0  0  0  0
    2.8760    2.8861   -0.1992 S   0  0  0  0  0  0  0  0  0  0  0  0
    2.4232    1.9550    1.0719 O   0  0  0  0  0  0  0  0  0  0  0  0
    1.7609    3.6828   -0.6576 O   0  0  0  0  0  0  0  0  0  0  0  0
    4.1573    3.4368    0.1939 O   0  0  0  0  0  0  0  0  0  0  0  0
    3.1332    1.7627   -1.3531 O   0  0  0  0  0  0  0  0  0  0  0  0
    4.0585    1.4750   -1.2709 H   0  0  0  0  0  0  0  0  0  0  0  0
  1  6  1  0  0  0  0
  2  1  2  0  0  0  0
  2  3  1  0  0  0  0
  3 19  1  0  0  0  0
  3  4  2  0  0  0  0
  4  5  1  0  0  0  0
  4  9  1  0  0  0  0
  5 10  1  0  0  0  0
  6 13  1  0  0  0  0
  6  5  2  0  0  0  0
  7  1  1  0  0  0  0
  8  2  1  0  0  0  0
 11 12  3  0  0  0  0
 14 15  1  0  0  0  0
 14 13  1  0  0  0  0
 14 16  1  0  0  0  0
 17 14  1  0  0  0  0
 18 21  2  0  0  0  0
 18 19  1  0  0  0  0
 20 18  2  0  0  0  0
 22 23  1  0  0  0  0
 22 18  1  0  0  0  0
M  END
