Coordinates from ORCA-job 4-MeO-Ph-N2-HSO4-B3LYPG-6-31G_dp-MTMO-d009-169-n800
 OpenBabel09051907533D

 23 22  0  0  0  0  0  0  0  0999 V2000
   -0.6794   -0.5303    0.8868 C   0  0  0  0  0  0  0  0  0  0  0  0
    0.5603    0.1119    0.8341 C   0  0  0  0  0  0  0  0  0  0  0  0
    0.6723    1.4244    1.2707 C   0  0  0  0  0  0  0  0  0  0  0  0
   -0.4311    2.1221    1.7626 C   0  0  0  0  0  0  0  0  0  0  0  0
   -1.6638    1.4868    1.8139 C   0  0  0  0  0  0  0  0  0  0  0  0
   -1.7968    0.1585    1.3763 C   0  0  0  0  0  0  0  0  0  0  0  0
   -0.7578   -1.5553    0.5469 H   0  0  0  0  0  0  0  0  0  0  0  0
    1.4354   -0.4068    0.4591 H   0  0  0  0  0  0  0  0  0  0  0  0
   -0.3160    3.1474    2.0941 H   0  0  0  0  0  0  0  0  0  0  0  0
   -2.5432    1.9986    2.1893 H   0  0  0  0  0  0  0  0  0  0  0  0
   14.4174    0.5570   -5.5708 N   0  0  0  0  0  0  0  0  0  0  0  0
   13.3757    0.4512   -5.2168 N   0  0  0  0  0  0  0  0  0  0  0  0
   -3.0491   -0.3683    1.4705 O   0  0  0  0  0  0  0  0  0  0  0  0
   -3.2564   -1.7004    1.0244 C   0  0  0  0  0  0  0  0  0  0  0  0
   -4.3161   -1.9076    1.1797 H   0  0  0  0  0  0  0  0  0  0  0  0
   -2.6609   -2.4181    1.6023 H   0  0  0  0  0  0  0  0  0  0  0  0
   -3.0185   -1.8104   -0.0415 H   0  0  0  0  0  0  0  0  0  0  0  0
    2.3714    2.9961    0.0348 S   0  0  0  0  0  0  0  0  0  0  0  0
    1.9462    2.0329    1.2910 O   0  0  0  0  0  0  0  0  0  0  0  0
    1.2383    3.7806   -0.4000 O   0  0  0  0  0  0  0  0  0  0  0  0
    3.6457    3.5627    0.4281 O   0  0  0  0  0  0  0  0  0  0  0  0
    2.6399    1.8992   -1.1423 O   0  0  0  0  0  0  0  0  0  0  0  0
    3.5712    1.6286   -1.0721 H   0  0  0  0  0  0  0  0  0  0  0  0
  1  6  1  0  0  0  0
  2  1  2  0  0  0  0
  2  3  1  0  0  0  0
  3 19  1  0  0  0  0
  3  4  2  0  0  0  0
  4  5  1  0  0  0  0
  4  9  1  0  0  0  0
  5 10  1  0  0  0  0
  6 13  1  0  0  0  0
  6  5  2  0  0  0  0
  7  1  1  0  0  0  0
  8  2  1  0  0  0  0
 11 12  3  0  0  0  0
 14 15  1  0  0  0  0
 14 13  1  0  0  0  0
 14 16  1  0  0  0  0
 17 14  1  0  0  0  0
 18 21  2  0  0  0  0
 18 19  1  0  0  0  0
 20 18  2  0  0  0  0
 22 23  1  0  0  0  0
 22 18  1  0  0  0  0
M  END
