Coordinates from ORCA-job 4-MeO-Ph-N2-HSO4-B3LYPG-6-31G_dp-MTMO-d009-169-n800
 OpenBabel09051907533D

 23 22  0  0  0  0  0  0  0  0999 V2000
   -0.4074   -0.5381    0.7671 C   0  0  0  0  0  0  0  0  0  0  0  0
    0.8376    0.0934    0.7094 C   0  0  0  0  0  0  0  0  0  0  0  0
    0.9612    1.4070    1.1394 C   0  0  0  0  0  0  0  0  0  0  0  0
   -0.1357    2.1165    1.6292 C   0  0  0  0  0  0  0  0  0  0  0  0
   -1.3736    1.4918    1.6855 C   0  0  0  0  0  0  0  0  0  0  0  0
   -1.5183    0.1624    1.2549 C   0  0  0  0  0  0  0  0  0  0  0  0
   -0.4950   -1.5641    0.4325 H   0  0  0  0  0  0  0  0  0  0  0  0
    1.7077   -0.4346    0.3357 H   0  0  0  0  0  0  0  0  0  0  0  0
   -0.0114    3.1424    1.9555 H   0  0  0  0  0  0  0  0  0  0  0  0
   -2.2481    2.0128    2.0596 H   0  0  0  0  0  0  0  0  0  0  0  0
   11.4476    0.6712   -4.2509 N   0  0  0  0  0  0  0  0  0  0  0  0
   10.4064    0.5709   -3.8939 N   0  0  0  0  0  0  0  0  0  0  0  0
   -2.7747   -0.3535    1.3538 O   0  0  0  0  0  0  0  0  0  0  0  0
   -2.9936   -1.6864    0.9155 C   0  0  0  0  0  0  0  0  0  0  0  0
   -4.0546   -1.8842    1.0744 H   0  0  0  0  0  0  0  0  0  0  0  0
   -2.4025   -2.4056    1.4962 H   0  0  0  0  0  0  0  0  0  0  0  0
   -2.7591   -1.8042   -0.1502 H   0  0  0  0  0  0  0  0  0  0  0  0
    2.6717    2.9593   -0.1059 S   0  0  0  0  0  0  0  0  0  0  0  0
    2.2401    2.0049    1.1551 O   0  0  0  0  0  0  0  0  0  0  0  0
    1.5437    3.7492   -0.5443 O   0  0  0  0  0  0  0  0  0  0  0  0
    3.9496    3.5193    0.2849 O   0  0  0  0  0  0  0  0  0  0  0  0
    2.9323    1.8553   -1.2778 O   0  0  0  0  0  0  0  0  0  0  0  0
    3.8606    1.5750   -1.2046 H   0  0  0  0  0  0  0  0  0  0  0  0
  1  6  1  0  0  0  0
  2  1  2  0  0  0  0
  2  3  1  0  0  0  0
  3 19  1  0  0  0  0
  3  4  2  0  0  0  0
  4  5  1  0  0  0  0
  4  9  1  0  0  0  0
  5 10  1  0  0  0  0
  6 13  1  0  0  0  0
  6  5  2  0  0  0  0
  7  1  1  0  0  0  0
  8  2  1  0  0  0  0
 11 12  3  0  0  0  0
 14 15  1  0  0  0  0
 14 13  1  0  0  0  0
 14 16  1  0  0  0  0
 17 14  1  0  0  0  0
 18 21  2  0  0  0  0
 18 19  1  0  0  0  0
 20 18  2  0  0  0  0
 22 23  1  0  0  0  0
 22 18  1  0  0  0  0
M  END
