Coordinates from ORCA-job 4-MeO-Ph-N2-HSO4-B3LYPG-6-31G_dp-MTMO-d009-169-n800
 OpenBabel09051907533D

 23 22  0  0  0  0  0  0  0  0999 V2000
    0.2769    0.1904   -0.3432 C   0  0  0  0  0  0  0  0  0  0  0  0
    1.2465    0.8477   -1.0747 C   0  0  0  0  0  0  0  0  0  0  0  0
    1.1135    2.2306   -1.1689 C   0  0  0  0  0  0  0  0  0  0  0  0
    0.0988    3.0109   -0.6064 C   0  0  0  0  0  0  0  0  0  0  0  0
   -0.8588    2.3239    0.1113 C   0  0  0  0  0  0  0  0  0  0  0  0
   -0.7298    0.9264    0.3138 C   0  0  0  0  0  0  0  0  0  0  0  0
    0.3965   -0.8716   -0.1845 H   0  0  0  0  0  0  0  0  0  0  0  0
    2.1019    0.3157   -1.4660 H   0  0  0  0  0  0  0  0  0  0  0  0
    0.0802    4.0897   -0.7041 H   0  0  0  0  0  0  0  0  0  0  0  0
   -1.6704    2.8470    0.6031 H   0  0  0  0  0  0  0  0  0  0  0  0
    2.3734    2.9671   -1.6632 N   0  0  0  0  0  0  0  0  0  0  0  0
    3.3088    3.4667   -1.9975 N   0  0  0  0  0  0  0  0  0  0  0  0
   -1.5960    0.3855    1.1712 O   0  0  0  0  0  0  0  0  0  0  0  0
   -1.2810   -0.9083    1.7305 C   0  0  0  0  0  0  0  0  0  0  0  0
   -1.9681   -1.0314    2.5667 H   0  0  0  0  0  0  0  0  0  0  0  0
   -0.2424   -0.9187    2.0755 H   0  0  0  0  0  0  0  0  0  0  0  0
   -1.4582   -1.6992    0.9940 H   0  0  0  0  0  0  0  0  0  0  0  0
    3.2919    0.1406    1.3193 S   0  0  0  0  0  0  0  0  0  0  0  0
    2.0090    0.1332    2.0572 O   0  0  0  0  0  0  0  0  0  0  0  0
    3.4662    1.3297    0.4402 O   0  0  0  0  0  0  0  0  0  0  0  0
    4.4867   -0.2739    2.0699 O   0  0  0  0  0  0  0  0  0  0  0  0
    3.0975   -1.1272    0.1883 O   0  0  0  0  0  0  0  0  0  0  0  0
    3.8418   -1.7139    0.3888 H   0  0  0  0  0  0  0  0  0  0  0  0
  1  7  1  0  0  0  0
  1  6  2  0  0  0  0
  2  1  1  0  0  0  0
  3  2  2  0  0  0  0
  3  4  1  0  0  0  0
  4  5  2  0  0  0  0
  5  6  1  0  0  0  0
  5 10  1  0  0  0  0
  6 13  1  0  0  0  0
  8  2  1  0  0  0  0
  9  4  1  0  0  0  0
 11  3  1  0  0  0  0
 12 11  1  0  0  0  0
 13 14  1  0  0  0  0
 14 16  1  0  0  0  0
 14 15  1  0  0  0  0
 17 14  1  0  0  0  0
 18 19  2  0  0  0  0
 18 21  1  0  0  0  0
 20 18  2  0  0  0  0
 22 23  1  0  0  0  0
 22 18  1  0  0  0  0
M  RAD  3  11   2  12   3  21   2
M  END
