Coordinates from ORCA-job 4-MeO-Ph-N2-HSO4-B3LYPG-6-31G_dp-MTMO-d009-169-n800
 OpenBabel09051907533D

 23 22  0  0  0  0  0  0  0  0999 V2000
   -0.1347   -0.5765    0.6630 C   0  0  0  0  0  0  0  0  0  0  0  0
    1.1481   -0.0275    0.5865 C   0  0  0  0  0  0  0  0  0  0  0  0
    1.3476    1.3009    0.9350 C   0  0  0  0  0  0  0  0  0  0  0  0
    0.2906    2.1072    1.3577 C   0  0  0  0  0  0  0  0  0  0  0  0
   -0.9846    1.5647    1.4317 C   0  0  0  0  0  0  0  0  0  0  0  0
   -1.2058    0.2211    1.0861 C   0  0  0  0  0  0  0  0  0  0  0  0
   -0.2827   -1.6146    0.3926 H   0  0  0  0  0  0  0  0  0  0  0  0
    1.9893   -0.6295    0.2615 H   0  0  0  0  0  0  0  0  0  0  0  0
    0.4744    3.1427    1.6193 H   0  0  0  0  0  0  0  0  0  0  0  0
   -1.8299    2.1620    1.7557 H   0  0  0  0  0  0  0  0  0  0  0  0
    7.6222    1.3083   -2.4467 N   0  0  0  0  0  0  0  0  0  0  0  0
    6.5879    1.2301   -2.0670 N   0  0  0  0  0  0  0  0  0  0  0  0
   -2.4933   -0.2097    1.1993 O   0  0  0  0  0  0  0  0  0  0  0  0
   -2.7863   -1.5573    0.8611 C   0  0  0  0  0  0  0  0  0  0  0  0
   -3.8577   -1.6820    1.0248 H   0  0  0  0  0  0  0  0  0  0  0  0
   -2.2399   -2.2626    1.4998 H   0  0  0  0  0  0  0  0  0  0  0  0
   -2.5541   -1.7699   -0.1903 H   0  0  0  0  0  0  0  0  0  0  0  0
    3.1781    2.6666   -0.3666 S   0  0  0  0  0  0  0  0  0  0  0  0
    2.6624    1.8160    0.9372 O   0  0  0  0  0  0  0  0  0  0  0  0
    2.0864    3.4462   -0.9067 O   0  0  0  0  0  0  0  0  0  0  0  0
    4.4463    3.2372    0.0444 O   0  0  0  0  0  0  0  0  0  0  0  0
    3.4801    1.4788   -1.4351 O   0  0  0  0  0  0  0  0  0  0  0  0
    4.4403    1.3085   -1.4223 H   0  0  0  0  0  0  0  0  0  0  0  0
  1  6  1  0  0  0  0
  2  1  2  0  0  0  0
  2  3  1  0  0  0  0
  3 19  1  0  0  0  0
  3  4  2  0  0  0  0
  4  5  1  0  0  0  0
  4  9  1  0  0  0  0
  5 10  1  0  0  0  0
  6 13  1  0  0  0  0
  6  5  2  0  0  0  0
  7  1  1  0  0  0  0
  8  2  1  0  0  0  0
 11 12  3  0  0  0  0
 14 15  1  0  0  0  0
 14 13  1  0  0  0  0
 14 16  1  0  0  0  0
 17 14  1  0  0  0  0
 18 21  2  0  0  0  0
 18 19  1  0  0  0  0
 20 18  2  0  0  0  0
 22 23  1  0  0  0  0
 22 18  1  0  0  0  0
M  END
