Coordinates from ORCA-job 4-MeO-Ph-N2-HSO4-B3LYPG-6-31G_dp-MTMO-d009-169-n800
 OpenBabel09051907533D

 23 22  0  0  0  0  0  0  0  0999 V2000
   -0.2005   -0.6537    1.0399 C   0  0  0  0  0  0  0  0  0  0  0  0
    1.1494   -0.2947    1.0788 C   0  0  0  0  0  0  0  0  0  0  0  0
    1.5102    1.0367    0.9256 C   0  0  0  0  0  0  0  0  0  0  0  0
    0.5508    2.0305    0.7296 C   0  0  0  0  0  0  0  0  0  0  0  0
   -0.7901    1.6756    0.6873 C   0  0  0  0  0  0  0  0  0  0  0  0
   -1.1749    0.3330    0.8420 C   0  0  0  0  0  0  0  0  0  0  0  0
   -0.4744   -1.6935    1.1668 H   0  0  0  0  0  0  0  0  0  0  0  0
    1.9162   -1.0455    1.2337 H   0  0  0  0  0  0  0  0  0  0  0  0
    0.8605    3.0622    0.6077 H   0  0  0  0  0  0  0  0  0  0  0  0
   -1.5627    2.4213    0.5353 H   0  0  0  0  0  0  0  0  0  0  0  0
    5.3267    4.7568   -2.3709 N   0  0  0  0  0  0  0  0  0  0  0  0
    5.7412    3.7637   -2.6227 N   0  0  0  0  0  0  0  0  0  0  0  0
   -2.5150    0.0966    0.7876 O   0  0  0  0  0  0  0  0  0  0  0  0
   -2.9708   -1.2409    0.9224 C   0  0  0  0  0  0  0  0  0  0  0  0
   -4.0582   -1.1974    0.8444 H   0  0  0  0  0  0  0  0  0  0  0  0
   -2.6955   -1.6655    1.8967 H   0  0  0  0  0  0  0  0  0  0  0  0
   -2.5772   -1.8845    0.1250 H   0  0  0  0  0  0  0  0  0  0  0  0
    3.7553    1.6044   -0.3074 S   0  0  0  0  0  0  0  0  0  0  0  0
    2.8703    1.3942    1.0546 O   0  0  0  0  0  0  0  0  0  0  0  0
    2.9612    2.2554   -1.3244 O   0  0  0  0  0  0  0  0  0  0  0  0
    5.0313    2.1050    0.1636 O   0  0  0  0  0  0  0  0  0  0  0  0
    3.9604    0.0665   -0.8088 O   0  0  0  0  0  0  0  0  0  0  0  0
    4.7707   -0.2654   -0.3859 H   0  0  0  0  0  0  0  0  0  0  0  0
  1  2  1  0  0  0  0
  1  7  1  0  0  0  0
  2  8  1  0  0  0  0
  3 19  1  0  0  0  0
  3  2  2  0  0  0  0
  4  3  1  0  0  0  0
  5  4  2  0  0  0  0
  5  6  1  0  0  0  0
  6  1  2  0  0  0  0
  9  4  1  0  0  0  0
 10  5  1  0  0  0  0
 12 11  3  0  0  0  0
 13  6  1  0  0  0  0
 13 14  1  0  0  0  0
 14 16  1  0  0  0  0
 15 14  1  0  0  0  0
 17 14  1  0  0  0  0
 18 21  2  0  0  0  0
 18 19  1  0  0  0  0
 20 18  2  0  0  0  0
 22 23  1  0  0  0  0
 22 18  1  0  0  0  0
M  END
