Coordinates from ORCA-job 4-MeO-Ph-N2-HSO4-B3LYPG-6-31G_dp-MTMO-d009-169-n800
 OpenBabel09051907533D

 23 22  0  0  0  0  0  0  0  0999 V2000
   -0.7770   -0.5291    0.9289 C   0  0  0  0  0  0  0  0  0  0  0  0
    0.4634    0.1117    0.8754 C   0  0  0  0  0  0  0  0  0  0  0  0
    0.5772    1.4242    1.3119 C   0  0  0  0  0  0  0  0  0  0  0  0
   -0.5252    2.1232    1.8042 C   0  0  0  0  0  0  0  0  0  0  0  0
   -1.7586    1.4893    1.8564 C   0  0  0  0  0  0  0  0  0  0  0  0
   -1.8934    0.1611    1.4191 C   0  0  0  0  0  0  0  0  0  0  0  0
   -0.8568   -1.5540    0.5892 H   0  0  0  0  0  0  0  0  0  0  0  0
    1.3376   -0.4081    0.4999 H   0  0  0  0  0  0  0  0  0  0  0  0
   -0.4086    3.1484    2.1355 H   0  0  0  0  0  0  0  0  0  0  0  0
   -2.6371    2.0021    2.2322 H   0  0  0  0  0  0  0  0  0  0  0  0
   15.4263    0.5456   -6.0104 N   0  0  0  0  0  0  0  0  0  0  0  0
   14.3837    0.4467   -5.6569 N   0  0  0  0  0  0  0  0  0  0  0  0
   -3.1462   -0.3643    1.5142 O   0  0  0  0  0  0  0  0  0  0  0  0
   -3.3552   -1.6963    1.0684 C   0  0  0  0  0  0  0  0  0  0  0  0
   -4.4150   -1.9022    1.2245 H   0  0  0  0  0  0  0  0  0  0  0  0
   -2.7601   -2.4145    1.6461 H   0  0  0  0  0  0  0  0  0  0  0  0
   -3.1183   -1.8067    0.0024 H   0  0  0  0  0  0  0  0  0  0  0  0
    2.2775    2.9935    0.0747 S   0  0  0  0  0  0  0  0  0  0  0  0
    1.8517    2.0312    1.3314 O   0  0  0  0  0  0  0  0  0  0  0  0
    1.1449    3.7785   -0.3605 O   0  0  0  0  0  0  0  0  0  0  0  0
    3.5521    3.5595    0.4677 O   0  0  0  0  0  0  0  0  0  0  0  0
    2.5453    1.8959   -1.1018 O   0  0  0  0  0  0  0  0  0  0  0  0
    3.4765    1.6247   -1.0314 H   0  0  0  0  0  0  0  0  0  0  0  0
  1  6  1  0  0  0  0
  2  1  2  0  0  0  0
  2  3  1  0  0  0  0
  3 19  1  0  0  0  0
  3  4  2  0  0  0  0
  4  5  1  0  0  0  0
  4  9  1  0  0  0  0
  5 10  1  0  0  0  0
  6 13  1  0  0  0  0
  6  5  2  0  0  0  0
  7  1  1  0  0  0  0
  8  2  1  0  0  0  0
 11 12  3  0  0  0  0
 14 15  1  0  0  0  0
 14 13  1  0  0  0  0
 14 16  1  0  0  0  0
 17 14  1  0  0  0  0
 18 21  2  0  0  0  0
 18 19  1  0  0  0  0
 20 18  2  0  0  0  0
 22 23  1  0  0  0  0
 22 18  1  0  0  0  0
M  END
