Coordinates from ORCA-job 4-MeO-Ph-N2-HSO4-B3LYPG-6-31G_dp-MTMO-d009-169-n800
 OpenBabel09051907533D

 23 22  0  0  0  0  0  0  0  0999 V2000
   -0.1270   -0.3484    1.1772 C   0  0  0  0  0  0  0  0  0  0  0  0
    1.2288   -0.0106    1.1593 C   0  0  0  0  0  0  0  0  0  0  0  0
    1.6504    1.0915    0.4291 C   0  0  0  0  0  0  0  0  0  0  0  0
    0.7486    1.8739   -0.2924 C   0  0  0  0  0  0  0  0  0  0  0  0
   -0.5982    1.5401   -0.2751 C   0  0  0  0  0  0  0  0  0  0  0  0
   -1.0449    0.4277    0.4578 C   0  0  0  0  0  0  0  0  0  0  0  0
   -0.4491   -1.2098    1.7495 H   0  0  0  0  0  0  0  0  0  0  0  0
    1.9519   -0.6009    1.7107 H   0  0  0  0  0  0  0  0  0  0  0  0
    1.1091    2.7300   -0.8510 H   0  0  0  0  0  0  0  0  0  0  0  0
   -1.3283    2.1261   -0.8225 H   0  0  0  0  0  0  0  0  0  0  0  0
    3.4626    4.5569   -0.6008 N   0  0  0  0  0  0  0  0  0  0  0  0
    4.2852    5.1514   -0.1641 N   0  0  0  0  0  0  0  0  0  0  0  0
   -2.3851    0.1912    0.4071 O   0  0  0  0  0  0  0  0  0  0  0  0
   -2.9024   -0.9199    1.1233 C   0  0  0  0  0  0  0  0  0  0  0  0
   -3.9789   -0.9180    0.9446 H   0  0  0  0  0  0  0  0  0  0  0  0
   -2.7146   -0.8292    2.2013 H   0  0  0  0  0  0  0  0  0  0  0  0
   -2.4792   -1.8660    0.7630 H   0  0  0  0  0  0  0  0  0  0  0  0
    4.0259    0.9131   -0.6721 S   0  0  0  0  0  0  0  0  0  0  0  0
    3.0078    1.4772    0.4812 O   0  0  0  0  0  0  0  0  0  0  0  0
    3.3366    0.7870   -1.9354 O   0  0  0  0  0  0  0  0  0  0  0  0
    5.2432    1.6777   -0.4848 O   0  0  0  0  0  0  0  0  0  0  0  0
    4.2960   -0.6095   -0.1510 O   0  0  0  0  0  0  0  0  0  0  0  0
    5.0465   -0.5709    0.4663 H   0  0  0  0  0  0  0  0  0  0  0  0
  1  7  1  0  0  0  0
  2  1  1  0  0  0  0
  2  8  1  0  0  0  0
  3 19  1  0  0  0  0
  3  2  2  0  0  0  0
  4  5  2  0  0  0  0
  4  3  1  0  0  0  0
  5  6  1  0  0  0  0
  6  1  2  0  0  0  0
  9  4  1  0  0  0  0
 10  5  1  0  0  0  0
 11 12  3  0  0  0  0
 13  6  1  0  0  0  0
 13 14  1  0  0  0  0
 14 16  1  0  0  0  0
 15 14  1  0  0  0  0
 17 14  1  0  0  0  0
 18 21  2  0  0  0  0
 18 22  1  0  0  0  0
 18 19  1  0  0  0  0
 20 18  2  0  0  0  0
 22 23  1  0  0  0  0
M  END
