Coordinates from ORCA-job 4-MeO-Ph-N2-HSO4-B3LYPG-6-31G_dp-MTMO-d009-169-n800
 OpenBabel09051907533D

 23 23  0  0  1  0  0  0  0  0999 V2000
    0.2294    0.1600    0.3973 C   0  0  0  0  0  0  0  0  0  0  0  0
    1.5050    0.5784   -0.2229 C   0  0  1  0  0  0  0  0  0  0  0  0
    1.4819    1.9689   -0.9028 C   0  0  0  0  0  0  0  0  0  0  0  0
    0.3503    2.8629   -0.5609 C   0  0  0  0  0  0  0  0  0  0  0  0
   -0.7019    2.4220    0.1476 C   0  0  0  0  0  0  0  0  0  0  0  0
   -0.7801    1.0382    0.6024 C   0  0  0  0  0  0  0  0  0  0  0  0
    0.1805   -0.8732    0.7154 H   0  0  0  0  0  0  0  0  0  0  0  0
    1.8803   -0.1625   -0.9326 H   0  0  0  0  0  0  0  0  0  0  0  0
    0.4196    3.8850   -0.9194 H   0  0  0  0  0  0  0  0  0  0  0  0
   -1.5321    3.0753    0.3922 H   0  0  0  0  0  0  0  0  0  0  0  0
    2.2704    2.2423   -1.4896 N   0  0  0  0  0  0  0  0  0  0  0  0
    3.1915    2.5317   -2.1464 N   0  0  0  0  0  0  0  0  0  0  0  0
   -1.9622    0.7627    1.2021 O   0  0  0  0  0  0  0  0  0  0  0  0
   -2.1604   -0.5535    1.7089 C   0  0  0  0  0  0  0  0  0  0  0  0
   -3.1501   -0.5539    2.1660 H   0  0  0  0  0  0  0  0  0  0  0  0
   -1.4042   -0.8037    2.4617 H   0  0  0  0  0  0  0  0  0  0  0  0
   -2.1277   -1.2957    0.9022 H   0  0  0  0  0  0  0  0  0  0  0  0
    3.7615   -0.3829    0.8451 S   0  0  0  0  0  0  0  0  0  0  0  0
    3.2221   -1.7108    0.6306 O   0  0  0  0  0  0  0  0  0  0  0  0
    2.5695    0.7102    0.8450 O   0  0  0  0  0  0  0  0  0  0  0  0
    4.6056   -0.0339    1.9692 O   0  0  0  0  0  0  0  0  0  0  0  0
    4.5324   -0.0257   -0.5492 O   0  0  0  0  0  0  0  0  0  0  0  0
    5.0036    0.8190   -0.4408 H   0  0  0  0  0  0  0  0  0  0  0  0
  1  6  1  0  0  0  0
  1  7  1  0  0  0  0
  2  8  1  6  0  0  0
  2  1  1  0  0  0  0
  2 20  1  0  0  0  0
  3  4  2  0  0  0  0
  3  2  1  0  0  0  0
  4  5  1  0  0  0  0
  5 10  1  0  0  0  0
  5  6  2  0  0  0  0
  6 13  1  0  0  0  0
  9  4  1  0  0  0  0
 11  3  1  0  0  0  0
 12 11  1  0  0  0  0
 13 14  1  0  0  0  0
 14 15  1  0  0  0  0
 14 16  1  0  0  0  0
 17 14  1  0  0  0  0
 18 21  2  0  0  0  0
 19 18  2  0  0  0  0
 20 18  1  0  0  0  0
 22 23  1  0  0  0  0
 22 18  1  0  0  0  0
M  RAD  3   1   2  11   2  12   3
M  END
