Coordinates from ORCA-job 4-MeO-Ph-N2-HSO4-B3LYPG-6-31G_dp-MTMO-d009-169-n800
 OpenBabel09051907533D

 23 22  0  0  0  0  0  0  0  0999 V2000
   -0.1347   -0.5818    0.6582 C   0  0  0  0  0  0  0  0  0  0  0  0
    1.1504   -0.0393    0.5750 C   0  0  0  0  0  0  0  0  0  0  0  0
    1.3583    1.2885    0.9210 C   0  0  0  0  0  0  0  0  0  0  0  0
    0.3073    2.1006    1.3478 C   0  0  0  0  0  0  0  0  0  0  0  0
   -0.9703    1.5646    1.4281 C   0  0  0  0  0  0  0  0  0  0  0  0
   -1.1998    0.2217    1.0853 C   0  0  0  0  0  0  0  0  0  0  0  0
   -0.2892   -1.6194    0.3899 H   0  0  0  0  0  0  0  0  0  0  0  0
    1.9871   -0.6459    0.2469 H   0  0  0  0  0  0  0  0  0  0  0  0
    0.4975    3.1355    1.6073 H   0  0  0  0  0  0  0  0  0  0  0  0
   -1.8111    2.1666    1.7552 H   0  0  0  0  0  0  0  0  0  0  0  0
    7.6023    1.3806   -2.3461 N   0  0  0  0  0  0  0  0  0  0  0  0
    6.5550    1.2640   -2.0152 N   0  0  0  0  0  0  0  0  0  0  0  0
   -2.4889   -0.2025    1.2052 O   0  0  0  0  0  0  0  0  0  0  0  0
   -2.7899   -1.5498    0.8729 C   0  0  0  0  0  0  0  0  0  0  0  0
   -3.8608   -1.6691    1.0433 H   0  0  0  0  0  0  0  0  0  0  0  0
   -2.2429   -2.2555    1.5106 H   0  0  0  0  0  0  0  0  0  0  0  0
   -2.5648   -1.7668   -0.1791 H   0  0  0  0  0  0  0  0  0  0  0  0
    3.1847    2.6560   -0.3841 S   0  0  0  0  0  0  0  0  0  0  0  0
    2.6760    1.7958    0.9166 O   0  0  0  0  0  0  0  0  0  0  0  0
    2.0975    3.4601   -0.8966 O   0  0  0  0  0  0  0  0  0  0  0  0
    4.4677    3.2006    0.0159 O   0  0  0  0  0  0  0  0  0  0  0  0
    3.4496    1.4795   -1.4738 O   0  0  0  0  0  0  0  0  0  0  0  0
    4.4036    1.2769   -1.4631 H   0  0  0  0  0  0  0  0  0  0  0  0
  1  6  1  0  0  0  0
  2  1  2  0  0  0  0
  2  3  1  0  0  0  0
  3  4  2  0  0  0  0
  4  5  1  0  0  0  0
  4  9  1  0  0  0  0
  5 10  1  0  0  0  0
  6 13  1  0  0  0  0
  6  5  2  0  0  0  0
  7  1  1  0  0  0  0
  8  2  1  0  0  0  0
 11 12  3  0  0  0  0
 14 15  1  0  0  0  0
 14 13  1  0  0  0  0
 14 16  1  0  0  0  0
 17 14  1  0  0  0  0
 18 21  2  0  0  0  0
 18 19  1  0  0  0  0
 19  3  1  0  0  0  0
 20 18  2  0  0  0  0
 22 23  1  0  0  0  0
 22 18  1  0  0  0  0
M  END
