Coordinates from ORCA-job 4-MeO-Ph-N2-HSO4-B3LYPG-6-31G_dp-MTMO-d009-169-n800
 OpenBabel09051907533D

 23 22  0  0  0  0  0  0  0  0999 V2000
   -0.2831   -0.5467    0.7153 C   0  0  0  0  0  0  0  0  0  0  0  0
    0.9711    0.0660    0.6529 C   0  0  0  0  0  0  0  0  0  0  0  0
    1.1128    1.3826    1.0681 C   0  0  0  0  0  0  0  0  0  0  0  0
    0.0253    2.1136    1.5469 C   0  0  0  0  0  0  0  0  0  0  0  0
   -1.2216    1.5077    1.6077 C   0  0  0  0  0  0  0  0  0  0  0  0
   -1.3847    0.1755    1.1925 C   0  0  0  0  0  0  0  0  0  0  0  0
   -0.3851   -1.5752    0.3925 H   0  0  0  0  0  0  0  0  0  0  0  0
    1.8342   -0.4789    0.2874 H   0  0  0  0  0  0  0  0  0  0  0  0
    0.1639    3.1414    1.8614 H   0  0  0  0  0  0  0  0  0  0  0  0
   -2.0892    2.0458    1.9736 H   0  0  0  0  0  0  0  0  0  0  0  0
    9.9372    0.8125   -3.5831 N   0  0  0  0  0  0  0  0  0  0  0  0
    8.8982    0.7321   -3.2148 N   0  0  0  0  0  0  0  0  0  0  0  0
   -2.6485   -0.3210    1.2955 O   0  0  0  0  0  0  0  0  0  0  0  0
   -2.8854   -1.6567    0.8750 C   0  0  0  0  0  0  0  0  0  0  0  0
   -3.9490   -1.8379    1.0361 H   0  0  0  0  0  0  0  0  0  0  0  0
   -2.3043   -2.3759    1.4656 H   0  0  0  0  0  0  0  0  0  0  0  0
   -2.6522   -1.7921   -0.1888 H   0  0  0  0  0  0  0  0  0  0  0  0
    2.8487    2.8971   -0.1891 S   0  0  0  0  0  0  0  0  0  0  0  0
    2.4004    1.9617    1.0804 O   0  0  0  0  0  0  0  0  0  0  0  0
    1.7314    3.6935   -0.6426 O   0  0  0  0  0  0  0  0  0  0  0  0
    4.1302    3.4485    0.2024 O   0  0  0  0  0  0  0  0  0  0  0  0
    3.1045    1.7774   -1.3469 O   0  0  0  0  0  0  0  0  0  0  0  0
    4.0301    1.4899   -1.2669 H   0  0  0  0  0  0  0  0  0  0  0  0
  1  6  1  0  0  0  0
  2  1  2  0  0  0  0
  2  3  1  0  0  0  0
  3 19  1  0  0  0  0
  3  4  2  0  0  0  0
  4  5  1  0  0  0  0
  4  9  1  0  0  0  0
  5 10  1  0  0  0  0
  6 13  1  0  0  0  0
  6  5  2  0  0  0  0
  7  1  1  0  0  0  0
  8  2  1  0  0  0  0
 11 12  3  0  0  0  0
 14 15  1  0  0  0  0
 14 13  1  0  0  0  0
 14 16  1  0  0  0  0
 17 14  1  0  0  0  0
 18 21  2  0  0  0  0
 18 19  1  0  0  0  0
 20 18  2  0  0  0  0
 22 23  1  0  0  0  0
 22 18  1  0  0  0  0
M  END
