Coordinates from ORCA-job 4-MeO-Ph-N2-HSO4-B3LYPG-6-31G_dp-MTMO-d009-169-n800
 OpenBabel09051907533D

 23 22  0  0  0  0  0  0  0  0999 V2000
   -0.3938   -0.5390    0.7606 C   0  0  0  0  0  0  0  0  0  0  0  0
    0.8521    0.0906    0.7018 C   0  0  0  0  0  0  0  0  0  0  0  0
    0.9780    1.4043    1.1310 C   0  0  0  0  0  0  0  0  0  0  0  0
   -0.1175    2.1157    1.6211 C   0  0  0  0  0  0  0  0  0  0  0  0
   -1.3563    1.4930    1.6785 C   0  0  0  0  0  0  0  0  0  0  0  0
   -1.5034    0.1636    1.2487 C   0  0  0  0  0  0  0  0  0  0  0  0
   -0.4833   -1.5650    0.4266 H   0  0  0  0  0  0  0  0  0  0  0  0
    1.7211   -0.4389    0.3278 H   0  0  0  0  0  0  0  0  0  0  0  0
    0.0086    3.1416    1.9466 H   0  0  0  0  0  0  0  0  0  0  0  0
   -2.2298    2.0156    2.0528 H   0  0  0  0  0  0  0  0  0  0  0  0
   11.2836    0.6862   -4.1747 N   0  0  0  0  0  0  0  0  0  0  0  0
   10.2423    0.5866   -3.8176 N   0  0  0  0  0  0  0  0  0  0  0  0
   -2.7605   -0.3503    1.3488 O   0  0  0  0  0  0  0  0  0  0  0  0
   -2.9817   -1.6832    0.9116 C   0  0  0  0  0  0  0  0  0  0  0  0
   -4.0428   -1.8794    1.0715 H   0  0  0  0  0  0  0  0  0  0  0  0
   -2.3912   -2.4028    1.4923 H   0  0  0  0  0  0  0  0  0  0  0  0
   -2.7482   -1.8021   -0.1542 H   0  0  0  0  0  0  0  0  0  0  0  0
    2.6902    2.9531   -0.1161 S   0  0  0  0  0  0  0  0  0  0  0  0
    2.2579    2.0002    1.1457 O   0  0  0  0  0  0  0  0  0  0  0  0
    1.5631    3.7438   -0.5551 O   0  0  0  0  0  0  0  0  0  0  0  0
    3.9687    3.5123    0.2742 O   0  0  0  0  0  0  0  0  0  0  0  0
    2.9499    1.8480   -1.2871 O   0  0  0  0  0  0  0  0  0  0  0  0
    3.8779    1.5669   -1.2137 H   0  0  0  0  0  0  0  0  0  0  0  0
  1  6  1  0  0  0  0
  2  1  2  0  0  0  0
  2  3  1  0  0  0  0
  3 19  1  0  0  0  0
  3  4  2  0  0  0  0
  4  5  1  0  0  0  0
  4  9  1  0  0  0  0
  5 10  1  0  0  0  0
  6 13  1  0  0  0  0
  6  5  2  0  0  0  0
  7  1  1  0  0  0  0
  8  2  1  0  0  0  0
 11 12  3  0  0  0  0
 14 15  1  0  0  0  0
 14 13  1  0  0  0  0
 14 16  1  0  0  0  0
 17 14  1  0  0  0  0
 18 21  2  0  0  0  0
 18 19  1  0  0  0  0
 20 18  2  0  0  0  0
 22 23  1  0  0  0  0
 22 18  1  0  0  0  0
M  END
