Coordinates from ORCA-job 4-MeO-Ph-N2-HSO4-B3LYPG-6-31G_dp-MTMO-d009-169-n800
 OpenBabel09051907533D

 23 22  0  0  0  0  0  0  0  0999 V2000
   -0.7671   -0.5292    0.9247 C   0  0  0  0  0  0  0  0  0  0  0  0
    0.4732    0.1119    0.8714 C   0  0  0  0  0  0  0  0  0  0  0  0
    0.5866    1.4243    1.3078 C   0  0  0  0  0  0  0  0  0  0  0  0
   -0.5160    2.1231    1.8001 C   0  0  0  0  0  0  0  0  0  0  0  0
   -1.7492    1.4889    1.8521 C   0  0  0  0  0  0  0  0  0  0  0  0
   -1.8837    0.1607    1.4147 C   0  0  0  0  0  0  0  0  0  0  0  0
   -0.8466   -1.5541    0.5849 H   0  0  0  0  0  0  0  0  0  0  0  0
    1.3476   -0.4077    0.4959 H   0  0  0  0  0  0  0  0  0  0  0  0
   -0.3997    3.1484    2.1315 H   0  0  0  0  0  0  0  0  0  0  0  0
   -2.6279    2.0016    2.2278 H   0  0  0  0  0  0  0  0  0  0  0  0
   15.3252    0.5461   -5.9666 N   0  0  0  0  0  0  0  0  0  0  0  0
   14.2827    0.4465   -5.6131 N   0  0  0  0  0  0  0  0  0  0  0  0
   -3.1364   -0.3649    1.5096 O   0  0  0  0  0  0  0  0  0  0  0  0
   -3.3451   -1.6969    1.0638 C   0  0  0  0  0  0  0  0  0  0  0  0
   -4.4048   -1.9031    1.2198 H   0  0  0  0  0  0  0  0  0  0  0  0
   -2.7499   -2.4151    1.6415 H   0  0  0  0  0  0  0  0  0  0  0  0
   -3.1079   -1.8073   -0.0022 H   0  0  0  0  0  0  0  0  0  0  0  0
    2.2868    2.9941    0.0709 S   0  0  0  0  0  0  0  0  0  0  0  0
    1.8610    2.0317    1.3276 O   0  0  0  0  0  0  0  0  0  0  0  0
    1.1540    3.7790   -0.3643 O   0  0  0  0  0  0  0  0  0  0  0  0
    3.5613    3.5603    0.4641 O   0  0  0  0  0  0  0  0  0  0  0  0
    2.5548    1.8967   -1.1057 O   0  0  0  0  0  0  0  0  0  0  0  0
    3.4860    1.6256   -1.0352 H   0  0  0  0  0  0  0  0  0  0  0  0
  1  6  1  0  0  0  0
  2  1  2  0  0  0  0
  2  3  1  0  0  0  0
  3 19  1  0  0  0  0
  3  4  2  0  0  0  0
  4  5  1  0  0  0  0
  4  9  1  0  0  0  0
  5 10  1  0  0  0  0
  6 13  1  0  0  0  0
  6  5  2  0  0  0  0
  7  1  1  0  0  0  0
  8  2  1  0  0  0  0
 11 12  3  0  0  0  0
 14 15  1  0  0  0  0
 14 13  1  0  0  0  0
 14 16  1  0  0  0  0
 17 14  1  0  0  0  0
 18 21  2  0  0  0  0
 18 19  1  0  0  0  0
 20 18  2  0  0  0  0
 22 23  1  0  0  0  0
 22 18  1  0  0  0  0
M  END
