Coordinates from ORCA-job 4-MeO-Ph-N2-HSO4-B3LYPG-6-31G_dp-MTMO-d009-169-n800
 OpenBabel09051907533D

 23 22  0  0  0  0  0  0  0  0999 V2000
   -0.6280   -0.5310    0.8638 C   0  0  0  0  0  0  0  0  0  0  0  0
    0.6115    0.1114    0.8106 C   0  0  0  0  0  0  0  0  0  0  0  0
    0.7236    1.4237    1.2480 C   0  0  0  0  0  0  0  0  0  0  0  0
   -0.3797    2.1210    1.7410 C   0  0  0  0  0  0  0  0  0  0  0  0
   -1.6122    1.4853    1.7928 C   0  0  0  0  0  0  0  0  0  0  0  0
   -1.7453    0.1573    1.3545 C   0  0  0  0  0  0  0  0  0  0  0  0
   -0.7065   -1.5558    0.5233 H   0  0  0  0  0  0  0  0  0  0  0  0
    1.4864   -0.4069    0.4347 H   0  0  0  0  0  0  0  0  0  0  0  0
   -0.2645    3.1461    2.0730 H   0  0  0  0  0  0  0  0  0  0  0  0
   -2.4914    1.9968    2.1690 H   0  0  0  0  0  0  0  0  0  0  0  0
   13.8816    0.5645   -5.3336 N   0  0  0  0  0  0  0  0  0  0  0  0
   12.8399    0.4565   -4.9802 N   0  0  0  0  0  0  0  0  0  0  0  0
   -2.9974   -0.3698    1.4492 O   0  0  0  0  0  0  0  0  0  0  0  0
   -3.2047   -1.7017    1.0023 C   0  0  0  0  0  0  0  0  0  0  0  0
   -4.2643   -1.9091    1.1582 H   0  0  0  0  0  0  0  0  0  0  0  0
   -2.6088   -2.4196    1.5794 H   0  0  0  0  0  0  0  0  0  0  0  0
   -2.9676   -1.8109   -0.0638 H   0  0  0  0  0  0  0  0  0  0  0  0
    2.4215    2.9965    0.0117 S   0  0  0  0  0  0  0  0  0  0  0  0
    1.9973    2.0325    1.2677 O   0  0  0  0  0  0  0  0  0  0  0  0
    1.2879    3.7811   -0.4217 O   0  0  0  0  0  0  0  0  0  0  0  0
    3.6959    3.5630    0.4044 O   0  0  0  0  0  0  0  0  0  0  0  0
    2.6891    1.9004   -1.1663 O   0  0  0  0  0  0  0  0  0  0  0  0
    3.6204    1.6296   -1.0970 H   0  0  0  0  0  0  0  0  0  0  0  0
  1  6  1  0  0  0  0
  2  1  2  0  0  0  0
  2  3  1  0  0  0  0
  3 19  1  0  0  0  0
  3  4  2  0  0  0  0
  4  5  1  0  0  0  0
  4  9  1  0  0  0  0
  5 10  1  0  0  0  0
  6 13  1  0  0  0  0
  6  5  2  0  0  0  0
  7  1  1  0  0  0  0
  8  2  1  0  0  0  0
 11 12  3  0  0  0  0
 14 15  1  0  0  0  0
 14 13  1  0  0  0  0
 14 16  1  0  0  0  0
 17 14  1  0  0  0  0
 18 21  2  0  0  0  0
 18 19  1  0  0  0  0
 20 18  2  0  0  0  0
 22 23  1  0  0  0  0
 22 18  1  0  0  0  0
M  END
