Coordinates from ORCA-job 4-MeO-Ph-N2-HSO4-B3LYPG-6-31G_dp-MTMO-d009-169-n800
 OpenBabel09051907533D

 23 22  0  0  0  0  0  0  0  0999 V2000
   -0.1589   -0.5629    1.1208 C   0  0  0  0  0  0  0  0  0  0  0  0
    1.2097   -0.3208    1.2649 C   0  0  0  0  0  0  0  0  0  0  0  0
    1.7250    0.9238    0.9317 C   0  0  0  0  0  0  0  0  0  0  0  0
    0.9050    1.9450    0.4499 C   0  0  0  0  0  0  0  0  0  0  0  0
   -0.4535    1.7042    0.3011 C   0  0  0  0  0  0  0  0  0  0  0  0
   -0.9946    0.4510    0.6347 C   0  0  0  0  0  0  0  0  0  0  0  0
   -0.5543   -1.5344    1.3894 H   0  0  0  0  0  0  0  0  0  0  0  0
    1.8710   -1.0937    1.6403 H   0  0  0  0  0  0  0  0  0  0  0  0
    1.3341    2.9058    0.1902 H   0  0  0  0  0  0  0  0  0  0  0  0
   -1.1211    2.4731   -0.0717 H   0  0  0  0  0  0  0  0  0  0  0  0
    3.1349    4.9314   -1.9709 N   0  0  0  0  0  0  0  0  0  0  0  0
    3.8804    4.8900   -2.7856 N   0  0  0  0  0  0  0  0  0  0  0  0
   -2.3382    0.3247    0.4520 O   0  0  0  0  0  0  0  0  0  0  0  0
   -2.9475   -0.9206    0.7591 C   0  0  0  0  0  0  0  0  0  0  0  0
   -4.0069   -0.8017    0.5273 H   0  0  0  0  0  0  0  0  0  0  0  0
   -2.8360   -1.1738    1.8211 H   0  0  0  0  0  0  0  0  0  0  0  0
   -2.5342   -1.7342    0.1499 H   0  0  0  0  0  0  0  0  0  0  0  0
    4.1328    1.1257   -0.0971 S   0  0  0  0  0  0  0  0  0  0  0  0
    3.0946    1.1755    1.1682 O   0  0  0  0  0  0  0  0  0  0  0  0
    3.5328    1.7312   -1.2648 O   0  0  0  0  0  0  0  0  0  0  0  0
    5.4043    1.5393    0.4615 O   0  0  0  0  0  0  0  0  0  0  0  0
    4.2005   -0.4741   -0.4051 O   0  0  0  0  0  0  0  0  0  0  0  0
    4.9049   -0.8435    0.1543 H   0  0  0  0  0  0  0  0  0  0  0  0
  1  2  1  0  0  0  0
  1  7  1  0  0  0  0
  2  8  1  0  0  0  0
  3 19  1  0  0  0  0
  3  2  2  0  0  0  0
  4  3  1  0  0  0  0
  5  4  2  0  0  0  0
  5  6  1  0  0  0  0
  6  1  2  0  0  0  0
  9  4  1  0  0  0  0
 10  5  1  0  0  0  0
 12 11  3  0  0  0  0
 13  6  1  0  0  0  0
 13 14  1  0  0  0  0
 14 16  1  0  0  0  0
 15 14  1  0  0  0  0
 17 14  1  0  0  0  0
 18 21  2  0  0  0  0
 18 19  1  0  0  0  0
 20 18  2  0  0  0  0
 22 18  1  0  0  0  0
 22 23  1  0  0  0  0
M  END
