Coordinates from ORCA-job 4-MeO-Ph-N2-HSO4-B3LYPG-6-31G_dp-MTMO-d009-169-n800
 OpenBabel09051907533D

 23 22  0  0  0  0  0  0  0  0999 V2000
    0.0481   -0.1718    0.2490 C   0  0  0  0  0  0  0  0  0  0  0  0
    1.4163    0.0906    0.1723 C   0  0  0  0  0  0  0  0  0  0  0  0
    1.8773    1.3851    0.4259 C   0  0  0  0  0  0  0  0  0  0  0  0
    1.0221    2.3235    1.0299 C   0  0  0  0  0  0  0  0  0  0  0  0
   -0.3315    2.0586    1.1168 C   0  0  0  0  0  0  0  0  0  0  0  0
   -0.8392    0.8164    0.6942 C   0  0  0  0  0  0  0  0  0  0  0  0
   -0.3080   -1.1567   -0.0262 H   0  0  0  0  0  0  0  0  0  0  0  0
    2.0891   -0.6796   -0.1805 H   0  0  0  0  0  0  0  0  0  0  0  0
    1.4299    3.2766    1.3478 H   0  0  0  0  0  0  0  0  0  0  0  0
   -1.0211    2.7923    1.5197 H   0  0  0  0  0  0  0  0  0  0  0  0
    1.8067    2.1274   -1.4529 N   0  0  0  0  0  0  0  0  0  0  0  0
    0.9158    2.2100   -2.1156 N   0  0  0  0  0  0  0  0  0  0  0  0
   -2.1872    0.6646    0.7943 O   0  0  0  0  0  0  0  0  0  0  0  0
   -2.7591   -0.5701    0.3853 C   0  0  0  0  0  0  0  0  0  0  0  0
   -3.8356   -0.4637    0.5279 H   0  0  0  0  0  0  0  0  0  0  0  0
   -2.3958   -1.4060    0.9962 H   0  0  0  0  0  0  0  0  0  0  0  0
   -2.5516   -0.7783   -0.6717 H   0  0  0  0  0  0  0  0  0  0  0  0
    4.4641    0.8632   -0.0768 S   0  0  0  0  0  0  0  0  0  0  0  0
    3.2434    1.7259    0.5667 O   0  0  0  0  0  0  0  0  0  0  0  0
    4.0851    0.2516   -1.3300 O   0  0  0  0  0  0  0  0  0  0  0  0
    5.6201    1.7176    0.0891 O   0  0  0  0  0  0  0  0  0  0  0  0
    4.5668   -0.3694    0.9835 O   0  0  0  0  0  0  0  0  0  0  0  0
    5.0293   -0.0471    1.7760 H   0  0  0  0  0  0  0  0  0  0  0  0
  1  6  1  0  0  0  0
  2  1  2  0  0  0  0
  2  3  1  0  0  0  0
  3 19  1  0  0  0  0
  3  4  2  0  0  0  0
  4  5  1  0  0  0  0
  4  9  1  0  0  0  0
  5 10  1  0  0  0  0
  6 13  1  0  0  0  0
  6  5  2  0  0  0  0
  7  1  1  0  0  0  0
  8  2  1  0  0  0  0
 12 11  3  0  0  0  0
 14 15  1  0  0  0  0
 14 13  1  0  0  0  0
 14 16  1  0  0  0  0
 17 14  1  0  0  0  0
 18 21  2  0  0  0  0
 18 19  1  0  0  0  0
 18 22  1  0  0  0  0
 20 18  2  0  0  0  0
 22 23  1  0  0  0  0
M  END
