Coordinates from ORCA-job 4-MeO-Ph-N2-HSO4-B3LYPG-6-31G_dp-MTMO-d009-169-n800
 OpenBabel09051907533D

 23 22  0  0  0  0  0  0  0  0999 V2000
   -0.0166   -0.3892    0.7026 C   0  0  0  0  0  0  0  0  0  0  0  0
    1.3590   -0.1597    0.7898 C   0  0  0  0  0  0  0  0  0  0  0  0
    1.8311    1.1449    0.8504 C   0  0  0  0  0  0  0  0  0  0  0  0
    0.9571    2.2311    0.8475 C   0  0  0  0  0  0  0  0  0  0  0  0
   -0.4105    2.0026    0.7774 C   0  0  0  0  0  0  0  0  0  0  0  0
   -0.9071    0.6918    0.6979 C   0  0  0  0  0  0  0  0  0  0  0  0
   -0.3749   -1.4095    0.6447 H   0  0  0  0  0  0  0  0  0  0  0  0
    2.0512   -0.9938    0.8056 H   0  0  0  0  0  0  0  0  0  0  0  0
    1.3569    3.2370    0.9029 H   0  0  0  0  0  0  0  0  0  0  0  0
   -1.1166    2.8258    0.7761 H   0  0  0  0  0  0  0  0  0  0  0  0
    2.3066    3.5220   -1.8963 N   0  0  0  0  0  0  0  0  0  0  0  0
    1.9428    3.5066   -2.9397 N   0  0  0  0  0  0  0  0  0  0  0  0
   -2.2629    0.5791    0.6223 O   0  0  0  0  0  0  0  0  0  0  0  0
   -2.8261   -0.7198    0.5192 C   0  0  0  0  0  0  0  0  0  0  0  0
   -3.9058   -0.5757    0.4584 H   0  0  0  0  0  0  0  0  0  0  0  0
   -2.5931   -1.3336    1.3994 H   0  0  0  0  0  0  0  0  0  0  0  0
   -2.4794   -1.2393   -0.3835 H   0  0  0  0  0  0  0  0  0  0  0  0
    4.2927    0.9297   -0.0938 S   0  0  0  0  0  0  0  0  0  0  0  0
    3.2035    1.4331    1.0180 O   0  0  0  0  0  0  0  0  0  0  0  0
    3.6775    0.7927   -1.3937 O   0  0  0  0  0  0  0  0  0  0  0  0
    5.4750    1.7241    0.1697 O   0  0  0  0  0  0  0  0  0  0  0  0
    4.5839   -0.5949    0.4150 O   0  0  0  0  0  0  0  0  0  0  0  0
    5.2403   -0.5441    1.1310 H   0  0  0  0  0  0  0  0  0  0  0  0
  1  2  1  0  0  0  0
  2  8  1  0  0  0  0
  2  3  2  0  0  0  0
  3 19  1  0  0  0  0
  4  3  1  0  0  0  0
  4  9  1  0  0  0  0
  5  4  2  0  0  0  0
  6  1  2  0  0  0  0
  6  5  1  0  0  0  0
  7  1  1  0  0  0  0
 10  5  1  0  0  0  0
 12 11  3  0  0  0  0
 13  6  1  0  0  0  0
 14 13  1  0  0  0  0
 14 16  1  0  0  0  0
 15 14  1  0  0  0  0
 17 14  1  0  0  0  0
 18 21  2  0  0  0  0
 18 22  1  0  0  0  0
 18 19  1  0  0  0  0
 20 18  2  0  0  0  0
 22 23  1  0  0  0  0
M  END
