Coordinates from ORCA-job 4-MeO-Ph-N2-HSO4-B3LYPG-6-31G_dp-MTMO-d009-169-n800
 OpenBabel09051907533D

 23 22  0  0  0  0  0  0  0  0999 V2000
   -0.0954   -0.5599    0.5860 C   0  0  0  0  0  0  0  0  0  0  0  0
    1.1776    0.0016    0.4556 C   0  0  0  0  0  0  0  0  0  0  0  0
    1.3925    1.3146    0.8507 C   0  0  0  0  0  0  0  0  0  0  0  0
    0.3593    2.0923    1.3744 C   0  0  0  0  0  0  0  0  0  0  0  0
   -0.9063    1.5376    1.5024 C   0  0  0  0  0  0  0  0  0  0  0  0
   -1.1422    0.2094    1.1102 C   0  0  0  0  0  0  0  0  0  0  0  0
   -0.2547   -1.5861    0.2794 H   0  0  0  0  0  0  0  0  0  0  0  0
    1.9995   -0.5799    0.0530 H   0  0  0  0  0  0  0  0  0  0  0  0
    0.5541    3.1164    1.6709 H   0  0  0  0  0  0  0  0  0  0  0  0
   -1.7327    2.1134    1.9046 H   0  0  0  0  0  0  0  0  0  0  0  0
    7.4634    1.0771   -1.7459 N   0  0  0  0  0  0  0  0  0  0  0  0
    6.3595    1.0669   -1.7245 N   0  0  0  0  0  0  0  0  0  0  0  0
   -2.4180   -0.2358    1.2829 O   0  0  0  0  0  0  0  0  0  0  0  0
   -2.7265   -1.5669    0.8960 C   0  0  0  0  0  0  0  0  0  0  0  0
   -3.7854   -1.7063    1.1180 H   0  0  0  0  0  0  0  0  0  0  0  0
   -2.1401   -2.2996    1.4642 H   0  0  0  0  0  0  0  0  0  0  0  0
   -2.5579   -1.7251   -0.1771 H   0  0  0  0  0  0  0  0  0  0  0  0
    3.1272    2.7481   -0.5027 S   0  0  0  0  0  0  0  0  0  0  0  0
    2.7006    1.8407    0.7966 O   0  0  0  0  0  0  0  0  0  0  0  0
    2.0148    3.5742   -0.9157 O   0  0  0  0  0  0  0  0  0  0  0  0
    4.4352    3.2734   -0.1620 O   0  0  0  0  0  0  0  0  0  0  0  0
    3.3117    1.6139   -1.6493 O   0  0  0  0  0  0  0  0  0  0  0  0
    4.2486    1.3407   -1.6464 H   0  0  0  0  0  0  0  0  0  0  0  0
  1  6  1  0  0  0  0
  2  1  2  0  0  0  0
  2  3  1  0  0  0  0
  3  4  2  0  0  0  0
  4  5  1  0  0  0  0
  4  9  1  0  0  0  0
  5 10  1  0  0  0  0
  6 13  1  0  0  0  0
  6  5  2  0  0  0  0
  7  1  1  0  0  0  0
  8  2  1  0  0  0  0
 11 12  3  0  0  0  0
 14 15  1  0  0  0  0
 14 13  1  0  0  0  0
 14 16  1  0  0  0  0
 17 14  1  0  0  0  0
 18 21  2  0  0  0  0
 18 19  1  0  0  0  0
 19  3  1  0  0  0  0
 20 18  2  0  0  0  0
 22 23  1  0  0  0  0
 22 18  1  0  0  0  0
M  END
