Coordinates from ORCA-job 4-MeO-Ph-N2-HSO4-B3LYPG-6-31G_dp-MTMO-d009-169-n800
 OpenBabel09051907533D

 23 22  0  0  0  0  0  0  0  0999 V2000
   -0.1731   -0.6069    1.0809 C   0  0  0  0  0  0  0  0  0  0  0  0
    1.1920   -0.3387    1.2110 C   0  0  0  0  0  0  0  0  0  0  0  0
    1.6644    0.9448    0.9755 C   0  0  0  0  0  0  0  0  0  0  0  0
    0.8038    1.9792    0.6066 C   0  0  0  0  0  0  0  0  0  0  0  0
   -0.5516    1.7137    0.4730 C   0  0  0  0  0  0  0  0  0  0  0  0
   -1.0493    0.4208    0.7085 C   0  0  0  0  0  0  0  0  0  0  0  0
   -0.5345   -1.6093    1.2728 H   0  0  0  0  0  0  0  0  0  0  0  0
    1.8839   -1.1220    1.4992 H   0  0  0  0  0  0  0  0  0  0  0  0
    1.2002    2.9713    0.4238 H   0  0  0  0  0  0  0  0  0  0  0  0
   -1.2498    2.4925    0.1867 H   0  0  0  0  0  0  0  0  0  0  0  0
    3.7234    4.9978   -2.2702 N   0  0  0  0  0  0  0  0  0  0  0  0
    4.3943    4.5683   -3.0362 N   0  0  0  0  0  0  0  0  0  0  0  0
   -2.3937    0.2721    0.5511 O   0  0  0  0  0  0  0  0  0  0  0  0
   -2.9609   -1.0120    0.7641 C   0  0  0  0  0  0  0  0  0  0  0  0
   -4.0297   -0.9035    0.5742 H   0  0  0  0  0  0  0  0  0  0  0  0
   -2.8103   -1.3539    1.7961 H   0  0  0  0  0  0  0  0  0  0  0  0
   -2.5458   -1.7572    0.0736 H   0  0  0  0  0  0  0  0  0  0  0  0
    4.0421    1.2512   -0.0930 S   0  0  0  0  0  0  0  0  0  0  0  0
    3.0323    1.2187    1.1960 O   0  0  0  0  0  0  0  0  0  0  0  0
    3.3946    1.8812   -1.2217 O   0  0  0  0  0  0  0  0  0  0  0  0
    5.3131    1.6834    0.4525 O   0  0  0  0  0  0  0  0  0  0  0  0
    4.1535   -0.3328   -0.4642 O   0  0  0  0  0  0  0  0  0  0  0  0
    4.8860   -0.6982    0.0607 H   0  0  0  0  0  0  0  0  0  0  0  0
  1  2  1  0  0  0  0
  1  7  1  0  0  0  0
  2  8  1  0  0  0  0
  3 19  1  0  0  0  0
  3  2  2  0  0  0  0
  4  3  1  0  0  0  0
  5  4  2  0  0  0  0
  5  6  1  0  0  0  0
  6  1  2  0  0  0  0
  9  4  1  0  0  0  0
 10  5  1  0  0  0  0
 12 11  3  0  0  0  0
 13  6  1  0  0  0  0
 13 14  1  0  0  0  0
 14 16  1  0  0  0  0
 15 14  1  0  0  0  0
 17 14  1  0  0  0  0
 18 21  2  0  0  0  0
 18 19  1  0  0  0  0
 20 18  2  0  0  0  0
 22 18  1  0  0  0  0
 22 23  1  0  0  0  0
M  END
