Coordinates from ORCA-job 4-MeO-Ph-N2-HSO4-B3LYPG-6-31G_dp-MTMO-d009-169-n800
 OpenBabel09051907533D

 23 22  0  0  0  0  0  0  0  0999 V2000
    0.0001   -0.3464    0.6064 C   0  0  0  0  0  0  0  0  0  0  0  0
    1.3769   -0.1138    0.6703 C   0  0  0  0  0  0  0  0  0  0  0  0
    1.8432    1.1870    0.8082 C   0  0  0  0  0  0  0  0  0  0  0  0
    0.9619    2.2630    0.9096 C   0  0  0  0  0  0  0  0  0  0  0  0
   -0.4058    2.0295    0.8640 C   0  0  0  0  0  0  0  0  0  0  0  0
   -0.8971    0.7240    0.7049 C   0  0  0  0  0  0  0  0  0  0  0  0
   -0.3530   -1.3630    0.4858 H   0  0  0  0  0  0  0  0  0  0  0  0
    2.0700   -0.9448    0.6103 H   0  0  0  0  0  0  0  0  0  0  0  0
    1.3570    3.2656    1.0259 H   0  0  0  0  0  0  0  0  0  0  0  0
   -1.1157    2.8455    0.9431 H   0  0  0  0  0  0  0  0  0  0  0  0
    2.2013    3.2725   -1.8571 N   0  0  0  0  0  0  0  0  0  0  0  0
    1.7285    3.1896   -2.8525 N   0  0  0  0  0  0  0  0  0  0  0  0
   -2.2541    0.6058    0.6606 O   0  0  0  0  0  0  0  0  0  0  0  0
   -2.8116   -0.6883    0.4896 C   0  0  0  0  0  0  0  0  0  0  0  0
   -3.8937   -0.5499    0.4716 H   0  0  0  0  0  0  0  0  0  0  0  0
   -2.5470   -1.3564    1.3199 H   0  0  0  0  0  0  0  0  0  0  0  0
   -2.4901   -1.1446   -0.4555 H   0  0  0  0  0  0  0  0  0  0  0  0
    4.3248    0.9141   -0.0930 S   0  0  0  0  0  0  0  0  0  0  0  0
    3.2142    1.4898    0.9590 O   0  0  0  0  0  0  0  0  0  0  0  0
    3.7373    0.6749   -1.3907 O   0  0  0  0  0  0  0  0  0  0  0  0
    5.4964    1.7345    0.1342 O   0  0  0  0  0  0  0  0  0  0  0  0
    4.6109   -0.5672    0.5321 O   0  0  0  0  0  0  0  0  0  0  0  0
    5.2304   -0.4606    1.2744 H   0  0  0  0  0  0  0  0  0  0  0  0
  1  2  2  0  0  0  0
  1  6  1  0  0  0  0
  2  3  1  0  0  0  0
  3  4  2  0  0  0  0
  3 19  1  0  0  0  0
  4  9  1  0  0  0  0
  5  4  1  0  0  0  0
  5 10  1  0  0  0  0
  6  5  2  0  0  0  0
  7  1  1  0  0  0  0
  8  2  1  0  0  0  0
 12 11  3  0  0  0  0
 13  6  1  0  0  0  0
 14 13  1  0  0  0  0
 14 16  1  0  0  0  0
 15 14  1  0  0  0  0
 17 14  1  0  0  0  0
 18 21  2  0  0  0  0
 18 22  1  0  0  0  0
 18 19  1  0  0  0  0
 20 18  2  0  0  0  0
 22 23  1  0  0  0  0
M  END
