Coordinates from ORCA-job 4-MeO-Ph-N2-HSO4-B3LYPG-6-31G_dp-MTMO-d009-169-n800
 OpenBabel09051907533D

 23 22  0  0  0  0  0  0  0  0999 V2000
   -0.1455   -0.3731    1.1784 C   0  0  0  0  0  0  0  0  0  0  0  0
    1.2081   -0.0262    1.1667 C   0  0  0  0  0  0  0  0  0  0  0  0
    1.6227    1.0882    0.4512 C   0  0  0  0  0  0  0  0  0  0  0  0
    0.7163    1.8738   -0.2608 C   0  0  0  0  0  0  0  0  0  0  0  0
   -0.6283    1.5311   -0.2496 C   0  0  0  0  0  0  0  0  0  0  0  0
   -1.0680    0.4062    0.4682 C   0  0  0  0  0  0  0  0  0  0  0  0
   -0.4626   -1.2440    1.7389 H   0  0  0  0  0  0  0  0  0  0  0  0
    1.9345   -0.6188    1.7111 H   0  0  0  0  0  0  0  0  0  0  0  0
    1.0721    2.7392   -0.8085 H   0  0  0  0  0  0  0  0  0  0  0  0
   -1.3617    2.1193   -0.7901 H   0  0  0  0  0  0  0  0  0  0  0  0
    3.6920    4.6593   -0.6975 N   0  0  0  0  0  0  0  0  0  0  0  0
    4.5352    5.2490   -0.2947 N   0  0  0  0  0  0  0  0  0  0  0  0
   -2.4065    0.1612    0.4128 O   0  0  0  0  0  0  0  0  0  0  0  0
   -2.9170   -0.9631    1.1133 C   0  0  0  0  0  0  0  0  0  0  0  0
   -3.9932   -0.9661    0.9332 H   0  0  0  0  0  0  0  0  0  0  0  0
   -2.7311   -0.8856    2.1926 H   0  0  0  0  0  0  0  0  0  0  0  0
   -2.4868   -1.9012    0.7407 H   0  0  0  0  0  0  0  0  0  0  0  0
    3.9995    0.9392   -0.6495 S   0  0  0  0  0  0  0  0  0  0  0  0
    2.9770    1.4845    0.5086 O   0  0  0  0  0  0  0  0  0  0  0  0
    3.3130    0.8266   -1.9156 O   0  0  0  0  0  0  0  0  0  0  0  0
    5.2142    1.7053   -0.4506 O   0  0  0  0  0  0  0  0  0  0  0  0
    4.2748   -0.5890   -0.1472 O   0  0  0  0  0  0  0  0  0  0  0  0
    5.0260   -0.5553    0.4695 H   0  0  0  0  0  0  0  0  0  0  0  0
  1  7  1  0  0  0  0
  2  1  1  0  0  0  0
  2  8  1  0  0  0  0
  3 19  1  0  0  0  0
  3  2  2  0  0  0  0
  4  5  2  0  0  0  0
  4  3  1  0  0  0  0
  5  6  1  0  0  0  0
  6  1  2  0  0  0  0
  9  4  1  0  0  0  0
 10  5  1  0  0  0  0
 11 12  3  0  0  0  0
 13  6  1  0  0  0  0
 13 14  1  0  0  0  0
 14 16  1  0  0  0  0
 15 14  1  0  0  0  0
 17 14  1  0  0  0  0
 18 21  2  0  0  0  0
 18 22  1  0  0  0  0
 18 19  1  0  0  0  0
 20 18  2  0  0  0  0
 22 23  1  0  0  0  0
M  END
