Coordinates from ORCA-job 4-MeO-Ph-N2-HSO4-B3LYPG-6-31G_dp-MTMO-d009-169-n800
 OpenBabel09051907533D

 23 22  0  0  0  0  0  0  0  0999 V2000
   -0.5399   -0.5325    0.8255 C   0  0  0  0  0  0  0  0  0  0  0  0
    0.6996    0.1101    0.7724 C   0  0  0  0  0  0  0  0  0  0  0  0
    0.8115    1.4225    1.2095 C   0  0  0  0  0  0  0  0  0  0  0  0
   -0.2919    2.1198    1.7021 C   0  0  0  0  0  0  0  0  0  0  0  0
   -1.5244    1.4841    1.7538 C   0  0  0  0  0  0  0  0  0  0  0  0
   -1.6573    0.1559    1.3158 C   0  0  0  0  0  0  0  0  0  0  0  0
   -0.6182   -1.5573    0.4853 H   0  0  0  0  0  0  0  0  0  0  0  0
    1.5746   -0.4083    0.3967 H   0  0  0  0  0  0  0  0  0  0  0  0
   -0.1768    3.1450    2.0338 H   0  0  0  0  0  0  0  0  0  0  0  0
   -2.4037    1.9955    2.1298 H   0  0  0  0  0  0  0  0  0  0  0  0
   12.9583    0.5772   -4.9288 N   0  0  0  0  0  0  0  0  0  0  0  0
   11.9162    0.4726   -4.5758 N   0  0  0  0  0  0  0  0  0  0  0  0
   -2.9094   -0.3712    1.4105 O   0  0  0  0  0  0  0  0  0  0  0  0
   -3.1165   -1.7032    0.9638 C   0  0  0  0  0  0  0  0  0  0  0  0
   -4.1761   -1.9107    1.1195 H   0  0  0  0  0  0  0  0  0  0  0  0
   -2.5206   -2.4210    1.5412 H   0  0  0  0  0  0  0  0  0  0  0  0
   -2.8792   -1.8127   -0.1022 H   0  0  0  0  0  0  0  0  0  0  0  0
    2.5094    2.9953   -0.0268 S   0  0  0  0  0  0  0  0  0  0  0  0
    2.0852    2.0313    1.2292 O   0  0  0  0  0  0  0  0  0  0  0  0
    1.3758    3.7800   -0.4600 O   0  0  0  0  0  0  0  0  0  0  0  0
    3.7839    3.5617    0.3659 O   0  0  0  0  0  0  0  0  0  0  0  0
    2.7766    1.8993   -1.2049 O   0  0  0  0  0  0  0  0  0  0  0  0
    3.7077    1.6275   -1.1352 H   0  0  0  0  0  0  0  0  0  0  0  0
  1  6  1  0  0  0  0
  2  1  2  0  0  0  0
  2  3  1  0  0  0  0
  3 19  1  0  0  0  0
  3  4  2  0  0  0  0
  4  5  1  0  0  0  0
  4  9  1  0  0  0  0
  5 10  1  0  0  0  0
  6 13  1  0  0  0  0
  6  5  2  0  0  0  0
  7  1  1  0  0  0  0
  8  2  1  0  0  0  0
 11 12  3  0  0  0  0
 14 15  1  0  0  0  0
 14 13  1  0  0  0  0
 14 16  1  0  0  0  0
 17 14  1  0  0  0  0
 18 21  2  0  0  0  0
 18 19  1  0  0  0  0
 20 18  2  0  0  0  0
 22 23  1  0  0  0  0
 22 18  1  0  0  0  0
M  END
