Coordinates from ORCA-job 4-MeO-Ph-N2-HSO4-B3LYPG-6-31G_dp-MTMO-d009-169-n800
 OpenBabel09051907533D

 23 22  0  0  0  0  0  0  0  0999 V2000
   -0.1488   -0.5759    0.6694 C   0  0  0  0  0  0  0  0  0  0  0  0
    1.1354   -0.0301    0.5957 C   0  0  0  0  0  0  0  0  0  0  0  0
    1.3370    1.2980    0.9441 C   0  0  0  0  0  0  0  0  0  0  0  0
    0.2811    2.1068    1.3645 C   0  0  0  0  0  0  0  0  0  0  0  0
   -0.9954    1.5672    1.4368 C   0  0  0  0  0  0  0  0  0  0  0  0
   -1.2190    0.2240    1.0907 C   0  0  0  0  0  0  0  0  0  0  0  0
   -0.2988   -1.6136    0.3986 H   0  0  0  0  0  0  0  0  0  0  0  0
    1.9759   -0.6339    0.2720 H   0  0  0  0  0  0  0  0  0  0  0  0
    0.4671    3.1419    1.6265 H   0  0  0  0  0  0  0  0  0  0  0  0
   -1.8400    2.1663    1.7593 H   0  0  0  0  0  0  0  0  0  0  0  0
    7.6724    1.3875   -2.5340 N   0  0  0  0  0  0  0  0  0  0  0  0
    6.6548    1.2857   -2.1163 N   0  0  0  0  0  0  0  0  0  0  0  0
   -2.5076   -0.2038    1.2015 O   0  0  0  0  0  0  0  0  0  0  0  0
   -2.8034   -1.5502    0.8609 C   0  0  0  0  0  0  0  0  0  0  0  0
   -3.8754   -1.6723    1.0225 H   0  0  0  0  0  0  0  0  0  0  0  0
   -2.2601   -2.2578    1.4997 H   0  0  0  0  0  0  0  0  0  0  0  0
   -2.5697   -1.7620   -0.1903 H   0  0  0  0  0  0  0  0  0  0  0  0
    3.1823    2.6365   -0.3661 S   0  0  0  0  0  0  0  0  0  0  0  0
    2.6521    1.8126    0.9489 O   0  0  0  0  0  0  0  0  0  0  0  0
    2.0895    3.3817   -0.9505 O   0  0  0  0  0  0  0  0  0  0  0  0
    4.4322    3.2399    0.0544 O   0  0  0  0  0  0  0  0  0  0  0  0
    3.5290    1.4240   -1.3940 O   0  0  0  0  0  0  0  0  0  0  0  0
    4.4943    1.2881   -1.3732 H   0  0  0  0  0  0  0  0  0  0  0  0
  1  6  1  0  0  0  0
  2  1  2  0  0  0  0
  2  3  1  0  0  0  0
  3 19  1  0  0  0  0
  3  4  2  0  0  0  0
  4  5  1  0  0  0  0
  4  9  1  0  0  0  0
  5 10  1  0  0  0  0
  6 13  1  0  0  0  0
  6  5  2  0  0  0  0
  7  1  1  0  0  0  0
  8  2  1  0  0  0  0
 11 12  3  0  0  0  0
 14 15  1  0  0  0  0
 14 13  1  0  0  0  0
 14 16  1  0  0  0  0
 17 14  1  0  0  0  0
 18 21  2  0  0  0  0
 18 19  1  0  0  0  0
 20 18  2  0  0  0  0
 22 23  1  0  0  0  0
 22 18  1  0  0  0  0
M  END
