Coordinates from ORCA-job 4-MeO-Ph-N2-HSO4-B3LYPG-6-31G_dp-MTMO-d009-169-n800
 OpenBabel09051907533D

 23 22  0  0  0  0  0  0  0  0999 V2000
   -0.6857   -0.5302    0.8896 C   0  0  0  0  0  0  0  0  0  0  0  0
    0.5540    0.1120    0.8370 C   0  0  0  0  0  0  0  0  0  0  0  0
    0.6659    1.4245    1.2736 C   0  0  0  0  0  0  0  0  0  0  0  0
   -0.4376    2.1223    1.7653 C   0  0  0  0  0  0  0  0  0  0  0  0
   -1.6703    1.4869    1.8166 C   0  0  0  0  0  0  0  0  0  0  0  0
   -1.8033    0.1586    1.3791 C   0  0  0  0  0  0  0  0  0  0  0  0
   -0.7642   -1.5552    0.5497 H   0  0  0  0  0  0  0  0  0  0  0  0
    1.4290   -0.4068    0.4620 H   0  0  0  0  0  0  0  0  0  0  0  0
   -0.3224    3.1476    2.0968 H   0  0  0  0  0  0  0  0  0  0  0  0
   -2.5496    1.9988    2.1919 H   0  0  0  0  0  0  0  0  0  0  0  0
   14.4844    0.5558   -5.6003 N   0  0  0  0  0  0  0  0  0  0  0  0
   13.4427    0.4505   -5.2463 N   0  0  0  0  0  0  0  0  0  0  0  0
   -3.0555   -0.3682    1.4732 O   0  0  0  0  0  0  0  0  0  0  0  0
   -3.2628   -1.7003    1.0271 C   0  0  0  0  0  0  0  0  0  0  0  0
   -4.3225   -1.9075    1.1824 H   0  0  0  0  0  0  0  0  0  0  0  0
   -2.6673   -2.4180    1.6051 H   0  0  0  0  0  0  0  0  0  0  0  0
   -3.0249   -1.8104   -0.0387 H   0  0  0  0  0  0  0  0  0  0  0  0
    2.3651    2.9961    0.0376 S   0  0  0  0  0  0  0  0  0  0  0  0
    1.9398    2.0330    1.2939 O   0  0  0  0  0  0  0  0  0  0  0  0
    1.2320    3.7806   -0.3973 O   0  0  0  0  0  0  0  0  0  0  0  0
    3.6393    3.5628    0.4311 O   0  0  0  0  0  0  0  0  0  0  0  0
    2.6336    1.8992   -1.1393 O   0  0  0  0  0  0  0  0  0  0  0  0
    3.5650    1.6286   -1.0690 H   0  0  0  0  0  0  0  0  0  0  0  0
  1  6  1  0  0  0  0
  2  1  2  0  0  0  0
  2  3  1  0  0  0  0
  3 19  1  0  0  0  0
  3  4  2  0  0  0  0
  4  5  1  0  0  0  0
  4  9  1  0  0  0  0
  5 10  1  0  0  0  0
  6 13  1  0  0  0  0
  6  5  2  0  0  0  0
  7  1  1  0  0  0  0
  8  2  1  0  0  0  0
 11 12  3  0  0  0  0
 14 15  1  0  0  0  0
 14 13  1  0  0  0  0
 14 16  1  0  0  0  0
 17 14  1  0  0  0  0
 18 21  2  0  0  0  0
 18 19  1  0  0  0  0
 20 18  2  0  0  0  0
 22 23  1  0  0  0  0
 22 18  1  0  0  0  0
M  END
