Coordinates from ORCA-job 4-MeO-Ph-N2-HSO4-B3LYPG-6-31G_dp-MTMO-d009-169-n800
 OpenBabel09051907533D

 23 22  0  0  0  0  0  0  0  0999 V2000
    0.0380   -0.1977    0.3213 C   0  0  0  0  0  0  0  0  0  0  0  0
    1.4147    0.0537    0.2913 C   0  0  0  0  0  0  0  0  0  0  0  0
    1.8824    1.3076    0.6611 C   0  0  0  0  0  0  0  0  0  0  0  0
    1.0047    2.3054    1.0908 C   0  0  0  0  0  0  0  0  0  0  0  0
   -0.3576    2.0497    1.1287 C   0  0  0  0  0  0  0  0  0  0  0  0
   -0.8539    0.7948    0.7399 C   0  0  0  0  0  0  0  0  0  0  0  0
   -0.3164   -1.1748    0.0177 H   0  0  0  0  0  0  0  0  0  0  0  0
    2.0901   -0.7261   -0.0347 H   0  0  0  0  0  0  0  0  0  0  0  0
    1.4021    3.2709    1.3835 H   0  0  0  0  0  0  0  0  0  0  0  0
   -1.0598    2.8095    1.4539 H   0  0  0  0  0  0  0  0  0  0  0  0
    1.8638    2.5244   -1.9077 N   0  0  0  0  0  0  0  0  0  0  0  0
    1.1004    2.3670   -2.6917 N   0  0  0  0  0  0  0  0  0  0  0  0
   -2.2075    0.6472    0.8089 O   0  0  0  0  0  0  0  0  0  0  0  0
   -2.7671   -0.6012    0.4291 C   0  0  0  0  0  0  0  0  0  0  0  0
   -3.8454   -0.5005    0.5630 H   0  0  0  0  0  0  0  0  0  0  0  0
   -2.4003   -1.4187    1.0631 H   0  0  0  0  0  0  0  0  0  0  0  0
   -2.5537   -0.8372   -0.6211 H   0  0  0  0  0  0  0  0  0  0  0  0
    4.4378    0.8761   -0.0357 S   0  0  0  0  0  0  0  0  0  0  0  0
    3.2438    1.6744    0.7294 O   0  0  0  0  0  0  0  0  0  0  0  0
    4.0087    0.3912   -1.3271 O   0  0  0  0  0  0  0  0  0  0  0  0
    5.6016    1.7111    0.1695 O   0  0  0  0  0  0  0  0  0  0  0  0
    4.5760   -0.4538    0.8967 O   0  0  0  0  0  0  0  0  0  0  0  0
    5.0826   -0.2122    1.6910 H   0  0  0  0  0  0  0  0  0  0  0  0
  1  6  1  0  0  0  0
  2  1  2  0  0  0  0
  2  3  1  0  0  0  0
  3 19  1  0  0  0  0
  3  4  2  0  0  0  0
  4  5  1  0  0  0  0
  4  9  1  0  0  0  0
  5 10  1  0  0  0  0
  6 13  1  0  0  0  0
  6  5  2  0  0  0  0
  7  1  1  0  0  0  0
  8  2  1  0  0  0  0
 12 11  3  0  0  0  0
 14 15  1  0  0  0  0
 14 13  1  0  0  0  0
 14 16  1  0  0  0  0
 17 14  1  0  0  0  0
 18 21  2  0  0  0  0
 18 19  1  0  0  0  0
 18 22  1  0  0  0  0
 20 18  2  0  0  0  0
 22 23  1  0  0  0  0
M  END
