Coordinates from ORCA-job 4-MeO-Ph-N2-HSO4-B3LYPG-6-31G_dp-MTMO-d009-169-n800
 OpenBabel09051907533D

 23 22  0  0  0  0  0  0  0  0999 V2000
   -0.0065   -0.3667    0.6527 C   0  0  0  0  0  0  0  0  0  0  0  0
    1.3698   -0.1368    0.7300 C   0  0  0  0  0  0  0  0  0  0  0  0
    1.8394    1.1661    0.8315 C   0  0  0  0  0  0  0  0  0  0  0  0
    0.9620    2.2486    0.8816 C   0  0  0  0  0  0  0  0  0  0  0  0
   -0.4058    2.0188    0.8223 C   0  0  0  0  0  0  0  0  0  0  0  0
   -0.9001    0.7104    0.7004 C   0  0  0  0  0  0  0  0  0  0  0  0
   -0.3626   -1.3853    0.5614 H   0  0  0  0  0  0  0  0  0  0  0  0
    2.0624   -0.9703    0.7079 H   0  0  0  0  0  0  0  0  0  0  0  0
    1.3599    3.2530    0.9698 H   0  0  0  0  0  0  0  0  0  0  0  0
   -1.1136    2.8395    0.8620 H   0  0  0  0  0  0  0  0  0  0  0  0
    2.2449    3.3796   -1.8795 N   0  0  0  0  0  0  0  0  0  0  0  0
    1.7956    3.3397   -2.8883 N   0  0  0  0  0  0  0  0  0  0  0  0
   -2.2567    0.5962    0.6390 O   0  0  0  0  0  0  0  0  0  0  0  0
   -2.8174   -0.7002    0.4987 C   0  0  0  0  0  0  0  0  0  0  0  0
   -3.8984   -0.5579    0.4587 H   0  0  0  0  0  0  0  0  0  0  0  0
   -2.5695   -1.3436    1.3533 H   0  0  0  0  0  0  0  0  0  0  0  0
   -2.4825   -1.1865   -0.4266 H   0  0  0  0  0  0  0  0  0  0  0  0
    4.3109    0.9201   -0.0916 S   0  0  0  0  0  0  0  0  0  0  0  0
    3.2113    1.4602    0.9918 O   0  0  0  0  0  0  0  0  0  0  0  0
    3.7082    0.7279   -1.3903 O   0  0  0  0  0  0  0  0  0  0  0  0
    5.4866    1.7306    0.1506 O   0  0  0  0  0  0  0  0  0  0  0  0
    4.6035   -0.5821    0.4788 O   0  0  0  0  0  0  0  0  0  0  0  0
    5.2435   -0.5008    1.2068 H   0  0  0  0  0  0  0  0  0  0  0  0
  1  6  2  0  0  0  0
  1  2  1  0  0  0  0
  2  3  2  0  0  0  0
  3  4  1  0  0  0  0
  3 19  1  0  0  0  0
  4  9  1  0  0  0  0
  5 10  1  0  0  0  0
  5  4  2  0  0  0  0
  6  5  1  0  0  0  0
  7  1  1  0  0  0  0
  8  2  1  0  0  0  0
 12 11  3  0  0  0  0
 13  6  1  0  0  0  0
 14 13  1  0  0  0  0
 14 16  1  0  0  0  0
 15 14  1  0  0  0  0
 17 14  1  0  0  0  0
 18 21  2  0  0  0  0
 18 22  1  0  0  0  0
 18 19  1  0  0  0  0
 20 18  2  0  0  0  0
 22 23  1  0  0  0  0
M  END
