Coordinates from ORCA-job 4-MeO-Ph-N2-HSO4-B3LYPG-6-31G_dp-MTMO-d009-169-n800
 OpenBabel09051907533D

 23 22  0  0  0  0  0  0  0  0999 V2000
   -0.8003   -0.5289    0.9389 C   0  0  0  0  0  0  0  0  0  0  0  0
    0.4405    0.1112    0.8849 C   0  0  0  0  0  0  0  0  0  0  0  0
    0.5552    1.4236    1.3212 C   0  0  0  0  0  0  0  0  0  0  0  0
   -0.5466    2.1234    1.8138 C   0  0  0  0  0  0  0  0  0  0  0  0
   -1.7804    1.4902    1.8664 C   0  0  0  0  0  0  0  0  0  0  0  0
   -1.9161    0.1620    1.4293 C   0  0  0  0  0  0  0  0  0  0  0  0
   -0.8808   -1.5538    0.5993 H   0  0  0  0  0  0  0  0  0  0  0  0
    1.3143   -0.4092    0.5092 H   0  0  0  0  0  0  0  0  0  0  0  0
   -0.4293    3.1486    2.1449 H   0  0  0  0  0  0  0  0  0  0  0  0
   -2.6585    2.0036    2.2424 H   0  0  0  0  0  0  0  0  0  0  0  0
   15.6624    0.5452   -6.1124 N   0  0  0  0  0  0  0  0  0  0  0  0
   14.6197    0.4477   -5.7590 N   0  0  0  0  0  0  0  0  0  0  0  0
   -3.1692   -0.3626    1.5248 O   0  0  0  0  0  0  0  0  0  0  0  0
   -3.3791   -1.6945    1.0793 C   0  0  0  0  0  0  0  0  0  0  0  0
   -4.4390   -1.8998    1.2359 H   0  0  0  0  0  0  0  0  0  0  0  0
   -2.7842   -2.4130    1.6569 H   0  0  0  0  0  0  0  0  0  0  0  0
   -3.1426   -1.8053    0.0133 H   0  0  0  0  0  0  0  0  0  0  0  0
    2.2561    2.9918    0.0833 S   0  0  0  0  0  0  0  0  0  0  0  0
    1.8301    2.0299    1.3403 O   0  0  0  0  0  0  0  0  0  0  0  0
    1.1238    3.7771   -0.3519 O   0  0  0  0  0  0  0  0  0  0  0  0
    3.5310    3.5573    0.4761 O   0  0  0  0  0  0  0  0  0  0  0  0
    2.5233    1.8938   -1.0930 O   0  0  0  0  0  0  0  0  0  0  0  0
    3.4544    1.6223   -1.0226 H   0  0  0  0  0  0  0  0  0  0  0  0
  1  6  1  0  0  0  0
  2  1  2  0  0  0  0
  2  3  1  0  0  0  0
  3 19  1  0  0  0  0
  3  4  2  0  0  0  0
  4  5  1  0  0  0  0
  4  9  1  0  0  0  0
  5 10  1  0  0  0  0
  6 13  1  0  0  0  0
  6  5  2  0  0  0  0
  7  1  1  0  0  0  0
  8  2  1  0  0  0  0
 11 12  3  0  0  0  0
 14 15  1  0  0  0  0
 14 13  1  0  0  0  0
 14 16  1  0  0  0  0
 17 14  1  0  0  0  0
 18 21  2  0  0  0  0
 18 19  1  0  0  0  0
 20 18  2  0  0  0  0
 22 23  1  0  0  0  0
 22 18  1  0  0  0  0
M  END
