Coordinates from ORCA-job 4-MeO-Ph-N2-HSO4-B3LYPG-6-31G_dp-MTMO-d009-169-n800
 OpenBabel09051907533D

 23 22  0  0  0  0  0  0  0  0999 V2000
   -0.0183   -0.3945    0.7172 C   0  0  0  0  0  0  0  0  0  0  0  0
    1.3571   -0.1655    0.8085 C   0  0  0  0  0  0  0  0  0  0  0  0
    1.8308    1.1389    0.8548 C   0  0  0  0  0  0  0  0  0  0  0  0
    0.9588    2.2264    0.8333 C   0  0  0  0  0  0  0  0  0  0  0  0
   -0.4088    1.9988    0.7588 C   0  0  0  0  0  0  0  0  0  0  0  0
   -0.9071    0.6878    0.6939 C   0  0  0  0  0  0  0  0  0  0  0  0
   -0.3781   -1.4148    0.6708 H   0  0  0  0  0  0  0  0  0  0  0  0
    2.0486   -0.9997    0.8377 H   0  0  0  0  0  0  0  0  0  0  0  0
    1.3593    3.2326    0.8769 H   0  0  0  0  0  0  0  0  0  0  0  0
   -1.1133    2.8232    0.7430 H   0  0  0  0  0  0  0  0  0  0  0  0
    2.3059    3.5565   -1.8834 N   0  0  0  0  0  0  0  0  0  0  0  0
    1.9681    3.5323   -2.9353 N   0  0  0  0  0  0  0  0  0  0  0  0
   -2.2626    0.5762    0.6129 O   0  0  0  0  0  0  0  0  0  0  0  0
   -2.8274   -0.7229    0.5231 C   0  0  0  0  0  0  0  0  0  0  0  0
   -3.9065   -0.5778    0.4547 H   0  0  0  0  0  0  0  0  0  0  0  0
   -2.6002   -1.3261    1.4122 H   0  0  0  0  0  0  0  0  0  0  0  0
   -2.4769   -1.2544   -0.3712 H   0  0  0  0  0  0  0  0  0  0  0  0
    4.2901    0.9353   -0.0938 S   0  0  0  0  0  0  0  0  0  0  0  0
    3.2033    1.4242    1.0273 O   0  0  0  0  0  0  0  0  0  0  0  0
    3.6718    0.8217   -1.3945 O   0  0  0  0  0  0  0  0  0  0  0  0
    5.4753    1.7217    0.1808 O   0  0  0  0  0  0  0  0  0  0  0  0
    4.5780   -0.5981    0.3896 O   0  0  0  0  0  0  0  0  0  0  0  0
    5.2369   -0.5609    1.1040 H   0  0  0  0  0  0  0  0  0  0  0  0
  1  2  1  0  0  0  0
  2  8  1  0  0  0  0
  2  3  2  0  0  0  0
  3 19  1  0  0  0  0
  4  3  1  0  0  0  0
  4  9  1  0  0  0  0
  5  4  2  0  0  0  0
  6  1  2  0  0  0  0
  6  5  1  0  0  0  0
  7  1  1  0  0  0  0
 10  5  1  0  0  0  0
 12 11  3  0  0  0  0
 13  6  1  0  0  0  0
 14 13  1  0  0  0  0
 14 16  1  0  0  0  0
 15 14  1  0  0  0  0
 17 14  1  0  0  0  0
 18 21  2  0  0  0  0
 18 22  1  0  0  0  0
 18 19  1  0  0  0  0
 20 18  2  0  0  0  0
 22 23  1  0  0  0  0
M  END
