Coordinates from ORCA-job 4-MeO-Ph-N2-HSO4-B3LYPG-6-31G_dp-MTMO-d009-169-n800
 OpenBabel09051907533D

 23 22  0  0  0  0  0  0  0  0999 V2000
   -0.7803   -0.5290    0.9303 C   0  0  0  0  0  0  0  0  0  0  0  0
    0.4602    0.1117    0.8768 C   0  0  0  0  0  0  0  0  0  0  0  0
    0.5740    1.4241    1.3132 C   0  0  0  0  0  0  0  0  0  0  0  0
   -0.5283    2.1232    1.8056 C   0  0  0  0  0  0  0  0  0  0  0  0
   -1.7617    1.4894    1.8578 C   0  0  0  0  0  0  0  0  0  0  0  0
   -1.8966    0.1612    1.4205 C   0  0  0  0  0  0  0  0  0  0  0  0
   -0.8602   -1.5539    0.5906 H   0  0  0  0  0  0  0  0  0  0  0  0
    1.3343   -0.4082    0.5013 H   0  0  0  0  0  0  0  0  0  0  0  0
   -0.4116    3.1485    2.1369 H   0  0  0  0  0  0  0  0  0  0  0  0
   -2.6402    2.0023    2.2337 H   0  0  0  0  0  0  0  0  0  0  0  0
   15.4600    0.5455   -6.0250 N   0  0  0  0  0  0  0  0  0  0  0  0
   14.4174    0.4468   -5.6715 N   0  0  0  0  0  0  0  0  0  0  0  0
   -3.1494   -0.3640    1.5157 O   0  0  0  0  0  0  0  0  0  0  0  0
   -3.3586   -1.6960    1.0699 C   0  0  0  0  0  0  0  0  0  0  0  0
   -4.4184   -1.9019    1.2261 H   0  0  0  0  0  0  0  0  0  0  0  0
   -2.7635   -2.4143    1.6476 H   0  0  0  0  0  0  0  0  0  0  0  0
   -3.1217   -1.8065    0.0039 H   0  0  0  0  0  0  0  0  0  0  0  0
    2.2745    2.9933    0.0759 S   0  0  0  0  0  0  0  0  0  0  0  0
    1.8486    2.0311    1.3327 O   0  0  0  0  0  0  0  0  0  0  0  0
    1.1419    3.7783   -0.3593 O   0  0  0  0  0  0  0  0  0  0  0  0
    3.5491    3.5592    0.4690 O   0  0  0  0  0  0  0  0  0  0  0  0
    2.5422    1.8957   -1.1006 O   0  0  0  0  0  0  0  0  0  0  0  0
    3.4733    1.6244   -1.0301 H   0  0  0  0  0  0  0  0  0  0  0  0
  1  6  1  0  0  0  0
  2  1  2  0  0  0  0
  2  3  1  0  0  0  0
  3 19  1  0  0  0  0
  3  4  2  0  0  0  0
  4  5  1  0  0  0  0
  4  9  1  0  0  0  0
  5 10  1  0  0  0  0
  6 13  1  0  0  0  0
  6  5  2  0  0  0  0
  7  1  1  0  0  0  0
  8  2  1  0  0  0  0
 11 12  3  0  0  0  0
 14 15  1  0  0  0  0
 14 13  1  0  0  0  0
 14 16  1  0  0  0  0
 17 14  1  0  0  0  0
 18 21  2  0  0  0  0
 18 19  1  0  0  0  0
 20 18  2  0  0  0  0
 22 23  1  0  0  0  0
 22 18  1  0  0  0  0
M  END
