Coordinates from ORCA-job 4-MeO-Ph-N2-HSO4-B3LYPG-6-31G_dp-MTMO-d009-169-n800
 OpenBabel09051907533D

 23 22  0  0  0  0  0  0  0  0999 V2000
   -0.1439   -0.5288    1.1185 C   0  0  0  0  0  0  0  0  0  0  0  0
    1.2258   -0.2923    1.2614 C   0  0  0  0  0  0  0  0  0  0  0  0
    1.7517    0.9375    0.8918 C   0  0  0  0  0  0  0  0  0  0  0  0
    0.9416    1.9493    0.3746 C   0  0  0  0  0  0  0  0  0  0  0  0
   -0.4181    1.7139    0.2280 C   0  0  0  0  0  0  0  0  0  0  0  0
   -0.9699    0.4757    0.5978 C   0  0  0  0  0  0  0  0  0  0  0  0
   -0.5477   -1.4888    1.4150 H   0  0  0  0  0  0  0  0  0  0  0  0
    1.8795   -1.0582    1.6635 H   0  0  0  0  0  0  0  0  0  0  0  0
    1.3785    2.8989    0.0876 H   0  0  0  0  0  0  0  0  0  0  0  0
   -1.0785    2.4760   -0.1709 H   0  0  0  0  0  0  0  0  0  0  0  0
    2.9025    4.7943   -1.7326 N   0  0  0  0  0  0  0  0  0  0  0  0
    3.5733    4.9463   -2.5974 N   0  0  0  0  0  0  0  0  0  0  0  0
   -2.3138    0.3537    0.4136 O   0  0  0  0  0  0  0  0  0  0  0  0
   -2.9335   -0.8769    0.7569 C   0  0  0  0  0  0  0  0  0  0  0  0
   -3.9912   -0.7573    0.5178 H   0  0  0  0  0  0  0  0  0  0  0  0
   -2.8273   -1.0981    1.8265 H   0  0  0  0  0  0  0  0  0  0  0  0
   -2.5244   -1.7120    0.1745 H   0  0  0  0  0  0  0  0  0  0  0  0
    4.1695    1.0652   -0.1254 S   0  0  0  0  0  0  0  0  0  0  0  0
    3.1218    1.1883    1.1267 O   0  0  0  0  0  0  0  0  0  0  0  0
    3.5793    1.6033   -1.3305 O   0  0  0  0  0  0  0  0  0  0  0  0
    5.4376    1.5082    0.4184 O   0  0  0  0  0  0  0  0  0  0  0  0
    4.2373   -0.5498   -0.3412 O   0  0  0  0  0  0  0  0  0  0  0  0
    4.9345   -0.8876    0.2465 H   0  0  0  0  0  0  0  0  0  0  0  0
  1  2  1  0  0  0  0
  1  7  1  0  0  0  0
  2  8  1  0  0  0  0
  3 19  1  0  0  0  0
  3  2  2  0  0  0  0
  4  3  1  0  0  0  0
  5  4  2  0  0  0  0
  5  6  1  0  0  0  0
  6  1  2  0  0  0  0
  9  4  1  0  0  0  0
 10  5  1  0  0  0  0
 12 11  3  0  0  0  0
 13  6  1  0  0  0  0
 13 14  1  0  0  0  0
 14 16  1  0  0  0  0
 15 14  1  0  0  0  0
 17 14  1  0  0  0  0
 18 21  2  0  0  0  0
 18 19  1  0  0  0  0
 20 18  2  0  0  0  0
 22 18  1  0  0  0  0
 22 23  1  0  0  0  0
M  END
