Coordinates from ORCA-job 4-MeO-Ph-N2-HSO4-B3LYPG-6-31G_dp-MTMO-d009-169-n800
 OpenBabel09051907533D

 23 22  0  0  0  0  0  0  0  0999 V2000
   -0.6135   -0.5312    0.8573 C   0  0  0  0  0  0  0  0  0  0  0  0
    0.6260    0.1114    0.8041 C   0  0  0  0  0  0  0  0  0  0  0  0
    0.7380    1.4236    1.2416 C   0  0  0  0  0  0  0  0  0  0  0  0
   -0.3653    2.1207    1.7349 C   0  0  0  0  0  0  0  0  0  0  0  0
   -1.5978    1.4849    1.7867 C   0  0  0  0  0  0  0  0  0  0  0  0
   -1.7307    0.1569    1.3483 C   0  0  0  0  0  0  0  0  0  0  0  0
   -0.6919   -1.5560    0.5167 H   0  0  0  0  0  0  0  0  0  0  0  0
    1.5009   -0.4068    0.4280 H   0  0  0  0  0  0  0  0  0  0  0  0
   -0.2502    3.1458    2.0670 H   0  0  0  0  0  0  0  0  0  0  0  0
   -2.4770    1.9962    2.1632 H   0  0  0  0  0  0  0  0  0  0  0  0
   13.7306    0.5659   -5.2671 N   0  0  0  0  0  0  0  0  0  0  0  0
   12.6889    0.4579   -4.9139 N   0  0  0  0  0  0  0  0  0  0  0  0
   -2.9828   -0.3703    1.4431 O   0  0  0  0  0  0  0  0  0  0  0  0
   -3.1900   -1.7022    0.9959 C   0  0  0  0  0  0  0  0  0  0  0  0
   -4.2495   -1.9097    1.1519 H   0  0  0  0  0  0  0  0  0  0  0  0
   -2.5939   -2.4202    1.5729 H   0  0  0  0  0  0  0  0  0  0  0  0
   -2.9530   -1.8112   -0.0702 H   0  0  0  0  0  0  0  0  0  0  0  0
    2.4355    2.9968    0.0054 S   0  0  0  0  0  0  0  0  0  0  0  0
    2.0116    2.0325    1.2613 O   0  0  0  0  0  0  0  0  0  0  0  0
    1.3018    3.7814   -0.4276 O   0  0  0  0  0  0  0  0  0  0  0  0
    3.7100    3.5634    0.3980 O   0  0  0  0  0  0  0  0  0  0  0  0
    2.7029    1.9010   -1.1728 O   0  0  0  0  0  0  0  0  0  0  0  0
    3.6342    1.6300   -1.1036 H   0  0  0  0  0  0  0  0  0  0  0  0
  1  6  1  0  0  0  0
  2  1  2  0  0  0  0
  2  3  1  0  0  0  0
  3 19  1  0  0  0  0
  3  4  2  0  0  0  0
  4  5  1  0  0  0  0
  4  9  1  0  0  0  0
  5 10  1  0  0  0  0
  6 13  1  0  0  0  0
  6  5  2  0  0  0  0
  7  1  1  0  0  0  0
  8  2  1  0  0  0  0
 11 12  3  0  0  0  0
 14 15  1  0  0  0  0
 14 13  1  0  0  0  0
 14 16  1  0  0  0  0
 17 14  1  0  0  0  0
 18 21  2  0  0  0  0
 18 19  1  0  0  0  0
 20 18  2  0  0  0  0
 22 23  1  0  0  0  0
 22 18  1  0  0  0  0
M  END
