Coordinates from ORCA-job 4-MeO-Ph-N2-HSO4-B3LYPG-6-31G_dp-MTMO-d009-169-n800
 OpenBabel09051907533D

 23 22  0  0  0  0  0  0  0  0999 V2000
   -0.1759   -0.5744    0.6889 C   0  0  0  0  0  0  0  0  0  0  0  0
    1.1088   -0.0281    0.6287 C   0  0  0  0  0  0  0  0  0  0  0  0
    1.3047    1.3016    0.9742 C   0  0  0  0  0  0  0  0  0  0  0  0
    0.2435    2.1113    1.3785 C   0  0  0  0  0  0  0  0  0  0  0  0
   -1.0333    1.5709    1.4384 C   0  0  0  0  0  0  0  0  0  0  0  0
   -1.2516    0.2262    1.0946 C   0  0  0  0  0  0  0  0  0  0  0  0
   -0.3219   -1.6131    0.4199 H   0  0  0  0  0  0  0  0  0  0  0  0
    1.9536   -0.6322    0.3172 H   0  0  0  0  0  0  0  0  0  0  0  0
    0.4258    3.1476    1.6392 H   0  0  0  0  0  0  0  0  0  0  0  0
   -1.8821    2.1704    1.7488 H   0  0  0  0  0  0  0  0  0  0  0  0
    7.8340    1.4354   -2.8110 N   0  0  0  0  0  0  0  0  0  0  0  0
    6.8611    1.3370   -2.2961 N   0  0  0  0  0  0  0  0  0  0  0  0
   -2.5410   -0.2022    1.1917 O   0  0  0  0  0  0  0  0  0  0  0  0
   -2.8319   -1.5500    0.8519 C   0  0  0  0  0  0  0  0  0  0  0  0
   -3.9057   -1.6723    1.0010 H   0  0  0  0  0  0  0  0  0  0  0  0
   -2.2958   -2.2551    1.4996 H   0  0  0  0  0  0  0  0  0  0  0  0
   -2.5854   -1.7649   -0.1956 H   0  0  0  0  0  0  0  0  0  0  0  0
    3.1800    2.6096   -0.3289 S   0  0  0  0  0  0  0  0  0  0  0  0
    2.6188    1.8196    0.9933 O   0  0  0  0  0  0  0  0  0  0  0  0
    2.0902    3.2936   -0.9894 O   0  0  0  0  0  0  0  0  0  0  0  0
    4.3915    3.2701    0.1170 O   0  0  0  0  0  0  0  0  0  0  0  0
    3.6134    1.3682   -1.2914 O   0  0  0  0  0  0  0  0  0  0  0  0
    4.5839    1.2915   -1.2494 H   0  0  0  0  0  0  0  0  0  0  0  0
  1  6  1  0  0  0  0
  2  1  2  0  0  0  0
  2  3  1  0  0  0  0
  3 19  1  0  0  0  0
  3  4  2  0  0  0  0
  4  5  1  0  0  0  0
  4  9  1  0  0  0  0
  5 10  1  0  0  0  0
  6 13  1  0  0  0  0
  6  5  2  0  0  0  0
  7  1  1  0  0  0  0
  8  2  1  0  0  0  0
 11 12  3  0  0  0  0
 14 15  1  0  0  0  0
 14 13  1  0  0  0  0
 14 16  1  0  0  0  0
 17 14  1  0  0  0  0
 18 21  2  0  0  0  0
 18 19  1  0  0  0  0
 20 18  2  0  0  0  0
 22 23  1  0  0  0  0
 22 18  1  0  0  0  0
M  END
