Coordinates from ORCA-job 4-MeO-Ph-N2-HSO4-B3LYPG-6-31G_dp-MTMO-d009-169-n800
 OpenBabel09051907533D

 23 22  0  0  0  0  0  0  0  0999 V2000
   -0.1946   -0.6604    1.0083 C   0  0  0  0  0  0  0  0  0  0  0  0
    1.1529   -0.2955    1.0685 C   0  0  0  0  0  0  0  0  0  0  0  0
    1.5061    1.0435    0.9768 C   0  0  0  0  0  0  0  0  0  0  0  0
    0.5414    2.0394    0.8216 C   0  0  0  0  0  0  0  0  0  0  0  0
   -0.7971    1.6786    0.7576 C   0  0  0  0  0  0  0  0  0  0  0  0
   -1.1744    0.3283    0.8508 C   0  0  0  0  0  0  0  0  0  0  0  0
   -0.4624   -1.7067    1.0870 H   0  0  0  0  0  0  0  0  0  0  0  0
    1.9238   -1.0477    1.1932 H   0  0  0  0  0  0  0  0  0  0  0  0
    0.8449    3.0775    0.7479 H   0  0  0  0  0  0  0  0  0  0  0  0
   -1.5736    2.4258    0.6358 H   0  0  0  0  0  0  0  0  0  0  0  0
    5.3655    4.5444   -2.6469 N   0  0  0  0  0  0  0  0  0  0  0  0
    5.6918    3.4939   -2.7514 N   0  0  0  0  0  0  0  0  0  0  0  0
   -2.5128    0.0865    0.7806 O   0  0  0  0  0  0  0  0  0  0  0  0
   -2.9610   -1.2579    0.8605 C   0  0  0  0  0  0  0  0  0  0  0  0
   -4.0484   -1.2177    0.7819 H   0  0  0  0  0  0  0  0  0  0  0  0
   -2.6849   -1.7197    1.8176 H   0  0  0  0  0  0  0  0  0  0  0  0
   -2.5618   -1.8666    0.0388 H   0  0  0  0  0  0  0  0  0  0  0  0
    3.7503    1.6977   -0.2156 S   0  0  0  0  0  0  0  0  0  0  0  0
    2.8634    1.4015    1.1292 O   0  0  0  0  0  0  0  0  0  0  0  0
    2.9548    2.4056   -1.1929 O   0  0  0  0  0  0  0  0  0  0  0  0
    5.0229    2.1748    0.2874 O   0  0  0  0  0  0  0  0  0  0  0  0
    3.9629    0.1940   -0.8085 O   0  0  0  0  0  0  0  0  0  0  0  0
    4.7755   -0.1585   -0.4072 H   0  0  0  0  0  0  0  0  0  0  0  0
  1  2  1  0  0  0  0
  1  7  1  0  0  0  0
  2  8  1  0  0  0  0
  3  2  2  0  0  0  0
  3 19  1  0  0  0  0
  4  3  1  0  0  0  0
  5  4  2  0  0  0  0
  5  6  1  0  0  0  0
  6  1  2  0  0  0  0
  9  4  1  0  0  0  0
 10  5  1  0  0  0  0
 12 11  3  0  0  0  0
 13  6  1  0  0  0  0
 13 14  1  0  0  0  0
 14 16  1  0  0  0  0
 15 14  1  0  0  0  0
 17 14  1  0  0  0  0
 18 21  2  0  0  0  0
 18 19  1  0  0  0  0
 20 18  2  0  0  0  0
 22 23  1  0  0  0  0
 22 18  1  0  0  0  0
M  END
