Coordinates from ORCA-job 4-MeO-Ph-N2-HSO4-B3LYPG-6-31G_dp-MTMO-d009-169-n800
 OpenBabel09051907533D

 23 22  0  0  0  0  0  0  0  0999 V2000
   -0.1976   -0.6469    1.0423 C   0  0  0  0  0  0  0  0  0  0  0  0
    1.1550   -0.2983    1.0830 C   0  0  0  0  0  0  0  0  0  0  0  0
    1.5268    1.0285    0.9170 C   0  0  0  0  0  0  0  0  0  0  0  0
    0.5764    2.0277    0.7062 C   0  0  0  0  0  0  0  0  0  0  0  0
   -0.7672    1.6831    0.6626 C   0  0  0  0  0  0  0  0  0  0  0  0
   -1.1633    0.3454    0.8302 C   0  0  0  0  0  0  0  0  0  0  0  0
   -0.4802   -1.6831    1.1790 H   0  0  0  0  0  0  0  0  0  0  0  0
    1.9151   -1.0536    1.2486 H   0  0  0  0  0  0  0  0  0  0  0  0
    0.8948    3.0555    0.5745 H   0  0  0  0  0  0  0  0  0  0  0  0
   -1.5332    2.4332    0.4996 H   0  0  0  0  0  0  0  0  0  0  0  0
    5.1263    4.8057   -2.2940 N   0  0  0  0  0  0  0  0  0  0  0  0
    5.6341    3.8819   -2.6256 N   0  0  0  0  0  0  0  0  0  0  0  0
   -2.5050    0.1192    0.7733 O   0  0  0  0  0  0  0  0  0  0  0  0
   -2.9722   -1.2132    0.9198 C   0  0  0  0  0  0  0  0  0  0  0  0
   -4.0589   -1.1616    0.8370 H   0  0  0  0  0  0  0  0  0  0  0  0
   -2.7043   -1.6300    1.8994 H   0  0  0  0  0  0  0  0  0  0  0  0
   -2.5808   -1.8680    0.1304 H   0  0  0  0  0  0  0  0  0  0  0  0
    3.7850    1.5496   -0.3126 S   0  0  0  0  0  0  0  0  0  0  0  0
    2.8887    1.3781    1.0476 O   0  0  0  0  0  0  0  0  0  0  0  0
    2.9999    2.1734   -1.3534 O   0  0  0  0  0  0  0  0  0  0  0  0
    5.0583    2.0609    0.1540 O   0  0  0  0  0  0  0  0  0  0  0  0
    3.9917   -0.0019   -0.7699 O   0  0  0  0  0  0  0  0  0  0  0  0
    4.7955   -0.3247   -0.3280 H   0  0  0  0  0  0  0  0  0  0  0  0
  1  2  1  0  0  0  0
  1  7  1  0  0  0  0
  2  8  1  0  0  0  0
  3 19  1  0  0  0  0
  3  2  2  0  0  0  0
  4  3  1  0  0  0  0
  5  4  2  0  0  0  0
  5  6  1  0  0  0  0
  6  1  2  0  0  0  0
  9  4  1  0  0  0  0
 10  5  1  0  0  0  0
 12 11  3  0  0  0  0
 13  6  1  0  0  0  0
 13 14  1  0  0  0  0
 14 16  1  0  0  0  0
 15 14  1  0  0  0  0
 17 14  1  0  0  0  0
 18 21  2  0  0  0  0
 18 19  1  0  0  0  0
 20 18  2  0  0  0  0
 22 23  1  0  0  0  0
 22 18  1  0  0  0  0
M  END
