Coordinates from ORCA-job 4-MeO-Ph-N2-HSO4-B3LYPG-6-31G_dp-MTMO-d009-169-n800
 OpenBabel09051907533D

 23 22  0  0  0  0  0  0  0  0999 V2000
   -0.3296   -0.5431    0.7326 C   0  0  0  0  0  0  0  0  0  0  0  0
    0.9209    0.0770    0.6704 C   0  0  0  0  0  0  0  0  0  0  0  0
    1.0565    1.3917    1.0933 C   0  0  0  0  0  0  0  0  0  0  0  0
   -0.0336    2.1135    1.5801 C   0  0  0  0  0  0  0  0  0  0  0  0
   -1.2770    1.5002    1.6408 C   0  0  0  0  0  0  0  0  0  0  0  0
   -1.4338    0.1698    1.2176 C   0  0  0  0  0  0  0  0  0  0  0  0
   -0.4268   -1.5701    0.4037 H   0  0  0  0  0  0  0  0  0  0  0  0
    1.7859   -0.4607    0.2988 H   0  0  0  0  0  0  0  0  0  0  0  0
    0.1001    3.1401    1.9006 H   0  0  0  0  0  0  0  0  0  0  0  0
   -2.1465    2.0311    2.0127 H   0  0  0  0  0  0  0  0  0  0  0  0
   10.5069    0.7573   -3.8244 N   0  0  0  0  0  0  0  0  0  0  0  0
    9.4661    0.6653   -3.4640 N   0  0  0  0  0  0  0  0  0  0  0  0
   -2.6946   -0.3344    1.3209 O   0  0  0  0  0  0  0  0  0  0  0  0
   -2.9255   -1.6682    0.8914 C   0  0  0  0  0  0  0  0  0  0  0  0
   -3.9877   -1.8562    1.0535 H   0  0  0  0  0  0  0  0  0  0  0  0
   -2.3393   -2.3886    1.4755 H   0  0  0  0  0  0  0  0  0  0  0  0
   -2.6940   -1.7948   -0.1740 H   0  0  0  0  0  0  0  0  0  0  0  0
    2.7800    2.9227   -0.1607 S   0  0  0  0  0  0  0  0  0  0  0  0
    2.3407    1.9782    1.1052 O   0  0  0  0  0  0  0  0  0  0  0  0
    1.6577    3.7171   -0.6052 O   0  0  0  0  0  0  0  0  0  0  0  0
    4.0609    3.4769    0.2287 O   0  0  0  0  0  0  0  0  0  0  0  0
    3.0355    1.8105   -1.3259 O   0  0  0  0  0  0  0  0  0  0  0  0
    3.9621    1.5253   -1.2504 H   0  0  0  0  0  0  0  0  0  0  0  0
  1  6  1  0  0  0  0
  2  1  2  0  0  0  0
  2  3  1  0  0  0  0
  3 19  1  0  0  0  0
  3  4  2  0  0  0  0
  4  5  1  0  0  0  0
  4  9  1  0  0  0  0
  5 10  1  0  0  0  0
  6 13  1  0  0  0  0
  6  5  2  0  0  0  0
  7  1  1  0  0  0  0
  8  2  1  0  0  0  0
 11 12  3  0  0  0  0
 14 15  1  0  0  0  0
 14 13  1  0  0  0  0
 14 16  1  0  0  0  0
 17 14  1  0  0  0  0
 18 21  2  0  0  0  0
 18 19  1  0  0  0  0
 20 18  2  0  0  0  0
 22 23  1  0  0  0  0
 22 18  1  0  0  0  0
M  END
