Coordinates from ORCA-job 4-MeO-Ph-N2-HSO4-B3LYPG-6-31G_dp-MTMO-d009-169-n800
 OpenBabel09051907533D

 23 22  0  0  0  0  0  0  0  0999 V2000
   -0.0292   -0.4174    0.7751 C   0  0  0  0  0  0  0  0  0  0  0  0
    1.3454   -0.1920    0.8840 C   0  0  0  0  0  0  0  0  0  0  0  0
    1.8263    1.1106    0.8860 C   0  0  0  0  0  0  0  0  0  0  0  0
    0.9628    2.2016    0.7995 C   0  0  0  0  0  0  0  0  0  0  0  0
   -0.4042    1.9786    0.7050 C   0  0  0  0  0  0  0  0  0  0  0  0
   -0.9096    0.6687    0.6867 C   0  0  0  0  0  0  0  0  0  0  0  0
   -0.3953   -1.4365    0.7659 H   0  0  0  0  0  0  0  0  0  0  0  0
    2.0331   -1.0265    0.9603 H   0  0  0  0  0  0  0  0  0  0  0  0
    1.3690    3.2063    0.8074 H   0  0  0  0  0  0  0  0  0  0  0  0
   -1.1033    2.8049    0.6380 H   0  0  0  0  0  0  0  0  0  0  0  0
    2.3071    3.7111   -1.9033 N   0  0  0  0  0  0  0  0  0  0  0  0
    2.1169    3.6448   -2.9898 N   0  0  0  0  0  0  0  0  0  0  0  0
   -2.2638    0.5619    0.5829 O   0  0  0  0  0  0  0  0  0  0  0  0
   -2.8362   -0.7362    0.5380 C   0  0  0  0  0  0  0  0  0  0  0  0
   -3.9126   -0.5871    0.4413 H   0  0  0  0  0  0  0  0  0  0  0  0
   -2.6317   -1.3015    1.4570 H   0  0  0  0  0  0  0  0  0  0  0  0
   -2.4720   -1.3086   -0.3250 H   0  0  0  0  0  0  0  0  0  0  0  0
    4.2747    0.9604   -0.0839 S   0  0  0  0  0  0  0  0  0  0  0  0
    3.1995    1.3829    1.0751 O   0  0  0  0  0  0  0  0  0  0  0  0
    3.6453    0.9451   -1.3843 O   0  0  0  0  0  0  0  0  0  0  0  0
    5.4705    1.7144    0.2338 O   0  0  0  0  0  0  0  0  0  0  0  0
    4.5523   -0.6050    0.2917 O   0  0  0  0  0  0  0  0  0  0  0  0
    5.2398   -0.6199    0.9796 H   0  0  0  0  0  0  0  0  0  0  0  0
  1  2  2  0  0  0  0
  2  3  1  0  0  0  0
  2  8  1  0  0  0  0
  3 19  1  0  0  0  0
  4  9  1  0  0  0  0
  4  3  2  0  0  0  0
  5  4  1  0  0  0  0
  6  5  2  0  0  0  0
  6  1  1  0  0  0  0
  7  1  1  0  0  0  0
 10  5  1  0  0  0  0
 12 11  3  0  0  0  0
 13  6  1  0  0  0  0
 14 13  1  0  0  0  0
 14 16  1  0  0  0  0
 15 14  1  0  0  0  0
 17 14  1  0  0  0  0
 18 21  2  0  0  0  0
 18 22  1  0  0  0  0
 18 19  1  0  0  0  0
 20 18  2  0  0  0  0
 22 23  1  0  0  0  0
M  END
