Coordinates from ORCA-job 4-MeO-Ph-N2-HSO4-B3LYPG-6-31G_dp-MTMO-d009-169-n800
 OpenBabel09051907533D

 23 22  0  0  0  0  0  0  0  0999 V2000
   -0.1957   -0.6627    1.0033 C   0  0  0  0  0  0  0  0  0  0  0  0
    1.1504   -0.2923    1.0610 C   0  0  0  0  0  0  0  0  0  0  0  0
    1.4973    1.0491    0.9795 C   0  0  0  0  0  0  0  0  0  0  0  0
    0.5277    2.0420    0.8370 C   0  0  0  0  0  0  0  0  0  0  0  0
   -0.8096    1.6757    0.7755 C   0  0  0  0  0  0  0  0  0  0  0  0
   -1.1804    0.3230    0.8585 C   0  0  0  0  0  0  0  0  0  0  0  0
   -0.4586   -1.7108    1.0737 H   0  0  0  0  0  0  0  0  0  0  0  0
    1.9252   -1.0421    1.1759 H   0  0  0  0  0  0  0  0  0  0  0  0
    0.8262    3.0820    0.7711 H   0  0  0  0  0  0  0  0  0  0  0  0
   -1.5899    2.4205    0.6635 H   0  0  0  0  0  0  0  0  0  0  0  0
    5.4813    4.5119   -2.6867 N   0  0  0  0  0  0  0  0  0  0  0  0
    5.7304    3.4369   -2.7444 N   0  0  0  0  0  0  0  0  0  0  0  0
   -2.5181    0.0759    0.7920 O   0  0  0  0  0  0  0  0  0  0  0  0
   -2.9600   -1.2711    0.8622 C   0  0  0  0  0  0  0  0  0  0  0  0
   -4.0479   -1.2352    0.7892 H   0  0  0  0  0  0  0  0  0  0  0  0
   -2.6772   -1.7401    1.8139 H   0  0  0  0  0  0  0  0  0  0  0  0
   -2.5620   -1.8708    0.0333 H   0  0  0  0  0  0  0  0  0  0  0  0
    3.7347    1.7227   -0.2159 S   0  0  0  0  0  0  0  0  0  0  0  0
    2.8536    1.4117    1.1296 O   0  0  0  0  0  0  0  0  0  0  0  0
    2.9337    2.4379   -1.1835 O   0  0  0  0  0  0  0  0  0  0  0  0
    5.0080    2.1985    0.2866 O   0  0  0  0  0  0  0  0  0  0  0  0
    3.9490    0.2250   -0.8229 O   0  0  0  0  0  0  0  0  0  0  0  0
    4.7665   -0.1269   -0.4313 H   0  0  0  0  0  0  0  0  0  0  0  0
  1  2  1  0  0  0  0
  1  7  1  0  0  0  0
  2  8  1  0  0  0  0
  3  2  2  0  0  0  0
  3 19  1  0  0  0  0
  4  3  1  0  0  0  0
  5  4  2  0  0  0  0
  5  6  1  0  0  0  0
  6  1  2  0  0  0  0
  9  4  1  0  0  0  0
 10  5  1  0  0  0  0
 12 11  3  0  0  0  0
 13  6  1  0  0  0  0
 13 14  1  0  0  0  0
 14 16  1  0  0  0  0
 15 14  1  0  0  0  0
 17 14  1  0  0  0  0
 18 21  2  0  0  0  0
 18 19  1  0  0  0  0
 20 18  2  0  0  0  0
 22 23  1  0  0  0  0
 22 18  1  0  0  0  0
M  END
