Coordinates from ORCA-job 4-MeO-Ph-N2-HSO4-B3LYPG-6-31G_dp-MTMO-d009-169-n800
 OpenBabel09051907533D

 23 22  0  0  0  0  0  0  0  0999 V2000
   -0.0041   -0.3599    0.6370 C   0  0  0  0  0  0  0  0  0  0  0  0
    1.3724   -0.1292    0.7101 C   0  0  0  0  0  0  0  0  0  0  0  0
    1.8409    1.1731    0.8242 C   0  0  0  0  0  0  0  0  0  0  0  0
    0.9621    2.2536    0.8916 C   0  0  0  0  0  0  0  0  0  0  0  0
   -0.4057    2.0227    0.8367 C   0  0  0  0  0  0  0  0  0  0  0  0
   -0.8989    0.7152    0.7019 C   0  0  0  0  0  0  0  0  0  0  0  0
   -0.3592   -1.3779    0.5357 H   0  0  0  0  0  0  0  0  0  0  0  0
    2.0652   -0.9620    0.6753 H   0  0  0  0  0  0  0  0  0  0  0  0
    1.3591    3.2575    0.9895 H   0  0  0  0  0  0  0  0  0  0  0  0
   -1.1142    2.8421    0.8897 H   0  0  0  0  0  0  0  0  0  0  0  0
    2.2292    3.3423   -1.8733 N   0  0  0  0  0  0  0  0  0  0  0  0
    1.7697    3.2893   -2.8770 N   0  0  0  0  0  0  0  0  0  0  0  0
   -2.2557    0.5998    0.6462 O   0  0  0  0  0  0  0  0  0  0  0  0
   -2.8153   -0.6959    0.4951 C   0  0  0  0  0  0  0  0  0  0  0  0
   -3.8967   -0.5548    0.4625 H   0  0  0  0  0  0  0  0  0  0  0  0
   -2.5618   -1.3479    1.3415 H   0  0  0  0  0  0  0  0  0  0  0  0
   -2.4848   -1.1719   -0.4371 H   0  0  0  0  0  0  0  0  0  0  0  0
    4.3157    0.9179   -0.0918 S   0  0  0  0  0  0  0  0  0  0  0  0
    3.2125    1.4700    0.9814 O   0  0  0  0  0  0  0  0  0  0  0  0
    3.7180    0.7098   -1.3903 O   0  0  0  0  0  0  0  0  0  0  0  0
    5.4900    1.7319    0.1451 O   0  0  0  0  0  0  0  0  0  0  0  0
    4.6065   -0.5774    0.4971 O   0  0  0  0  0  0  0  0  0  0  0  0
    5.2397   -0.4876    1.2300 H   0  0  0  0  0  0  0  0  0  0  0  0
  1  6  2  0  0  0  0
  1  2  1  0  0  0  0
  2  3  2  0  0  0  0
  3  4  1  0  0  0  0
  3 19  1  0  0  0  0
  4  9  1  0  0  0  0
  5 10  1  0  0  0  0
  5  4  2  0  0  0  0
  6  5  1  0  0  0  0
  7  1  1  0  0  0  0
  8  2  1  0  0  0  0
 12 11  3  0  0  0  0
 13  6  1  0  0  0  0
 14 13  1  0  0  0  0
 14 16  1  0  0  0  0
 15 14  1  0  0  0  0
 17 14  1  0  0  0  0
 18 21  2  0  0  0  0
 18 22  1  0  0  0  0
 18 19  1  0  0  0  0
 20 18  2  0  0  0  0
 22 23  1  0  0  0  0
M  END
