Coordinates from ORCA-job 4-MeO-Ph-N2-HSO4-B3LYPG-6-31G_dp-MTMO-d009-169-n800
 OpenBabel09051907533D

 23 22  0  0  0  0  0  0  0  0999 V2000
   -0.6730   -0.5304    0.8839 C   0  0  0  0  0  0  0  0  0  0  0  0
    0.5667    0.1118    0.8312 C   0  0  0  0  0  0  0  0  0  0  0  0
    0.6788    1.4243    1.2679 C   0  0  0  0  0  0  0  0  0  0  0  0
   -0.4246    2.1220    1.7598 C   0  0  0  0  0  0  0  0  0  0  0  0
   -1.6573    1.4867    1.8113 C   0  0  0  0  0  0  0  0  0  0  0  0
   -1.7904    0.1584    1.3736 C   0  0  0  0  0  0  0  0  0  0  0  0
   -0.7515   -1.5554    0.5440 H   0  0  0  0  0  0  0  0  0  0  0  0
    1.4417   -0.4069    0.4560 H   0  0  0  0  0  0  0  0  0  0  0  0
   -0.3094    3.1473    2.0914 H   0  0  0  0  0  0  0  0  0  0  0  0
   -2.5367    1.9985    2.1867 H   0  0  0  0  0  0  0  0  0  0  0  0
   14.3505    0.5583   -5.5411 N   0  0  0  0  0  0  0  0  0  0  0  0
   13.3088    0.4520   -5.1872 N   0  0  0  0  0  0  0  0  0  0  0  0
   -3.0427   -0.3684    1.4679 O   0  0  0  0  0  0  0  0  0  0  0  0
   -3.2500   -1.7005    1.0217 C   0  0  0  0  0  0  0  0  0  0  0  0
   -4.3097   -1.9077    1.1771 H   0  0  0  0  0  0  0  0  0  0  0  0
   -2.6545   -2.4182    1.5995 H   0  0  0  0  0  0  0  0  0  0  0  0
   -3.0123   -1.8104   -0.0442 H   0  0  0  0  0  0  0  0  0  0  0  0
    2.3778    2.9960    0.0318 S   0  0  0  0  0  0  0  0  0  0  0  0
    1.9526    2.0328    1.2881 O   0  0  0  0  0  0  0  0  0  0  0  0
    1.2446    3.7805   -0.4028 O   0  0  0  0  0  0  0  0  0  0  0  0
    3.6520    3.5625    0.4251 O   0  0  0  0  0  0  0  0  0  0  0  0
    2.6461    1.8992   -1.1453 O   0  0  0  0  0  0  0  0  0  0  0  0
    3.5774    1.6285   -1.0752 H   0  0  0  0  0  0  0  0  0  0  0  0
  1  6  1  0  0  0  0
  2  1  2  0  0  0  0
  2  3  1  0  0  0  0
  3 19  1  0  0  0  0
  3  4  2  0  0  0  0
  4  5  1  0  0  0  0
  4  9  1  0  0  0  0
  5 10  1  0  0  0  0
  6 13  1  0  0  0  0
  6  5  2  0  0  0  0
  7  1  1  0  0  0  0
  8  2  1  0  0  0  0
 11 12  3  0  0  0  0
 14 15  1  0  0  0  0
 14 13  1  0  0  0  0
 14 16  1  0  0  0  0
 17 14  1  0  0  0  0
 18 21  2  0  0  0  0
 18 19  1  0  0  0  0
 20 18  2  0  0  0  0
 22 23  1  0  0  0  0
 22 18  1  0  0  0  0
M  END
