Coordinates from ORCA-job 4-MeO-Ph-N2-HSO4-B3LYPG-6-31G_dp-MTMO-d009-169-n800
 OpenBabel09051907533D

 23 22  0  0  0  0  0  0  0  0999 V2000
   -0.0019   -0.3530    0.6213 C   0  0  0  0  0  0  0  0  0  0  0  0
    1.3747   -0.1215    0.6899 C   0  0  0  0  0  0  0  0  0  0  0  0
    1.8421    1.1801    0.8166 C   0  0  0  0  0  0  0  0  0  0  0  0
    0.9621    2.2585    0.9014 C   0  0  0  0  0  0  0  0  0  0  0  0
   -0.4057    2.0263    0.8511 C   0  0  0  0  0  0  0  0  0  0  0  0
   -0.8980    0.7198    0.7035 C   0  0  0  0  0  0  0  0  0  0  0  0
   -0.3560   -1.3703    0.5098 H   0  0  0  0  0  0  0  0  0  0  0  0
    2.0677   -0.9534    0.6423 H   0  0  0  0  0  0  0  0  0  0  0  0
    1.3580    3.2617    1.0091 H   0  0  0  0  0  0  0  0  0  0  0  0
   -1.1149    2.8441    0.9176 H   0  0  0  0  0  0  0  0  0  0  0  0
    2.2146    3.3057   -1.8664 N   0  0  0  0  0  0  0  0  0  0  0  0
    1.7468    3.2379   -2.8653 N   0  0  0  0  0  0  0  0  0  0  0  0
   -2.2549    0.6031    0.6535 O   0  0  0  0  0  0  0  0  0  0  0  0
   -2.8134   -0.6917    0.4918 C   0  0  0  0  0  0  0  0  0  0  0  0
   -3.8952   -0.5520    0.4667 H   0  0  0  0  0  0  0  0  0  0  0  0
   -2.5543   -1.3522    1.3299 H   0  0  0  0  0  0  0  0  0  0  0  0
   -2.4874   -1.1575   -0.4471 H   0  0  0  0  0  0  0  0  0  0  0  0
    4.3203    0.9159   -0.0920 S   0  0  0  0  0  0  0  0  0  0  0  0
    3.2134    1.4799    0.9706 O   0  0  0  0  0  0  0  0  0  0  0  0
    3.7275    0.6916   -1.3901 O   0  0  0  0  0  0  0  0  0  0  0  0
    5.4931    1.7334    0.1395 O   0  0  0  0  0  0  0  0  0  0  0  0
    4.6093   -0.5722    0.5156 O   0  0  0  0  0  0  0  0  0  0  0  0
    5.2369   -0.4737    1.2521 H   0  0  0  0  0  0  0  0  0  0  0  0
  1  2  2  0  0  0  0
  1  6  1  0  0  0  0
  2  3  1  0  0  0  0
  3  4  2  0  0  0  0
  3 19  1  0  0  0  0
  4  9  1  0  0  0  0
  5  4  1  0  0  0  0
  5 10  1  0  0  0  0
  6  5  2  0  0  0  0
  7  1  1  0  0  0  0
  8  2  1  0  0  0  0
 12 11  3  0  0  0  0
 13  6  1  0  0  0  0
 14 13  1  0  0  0  0
 14 16  1  0  0  0  0
 15 14  1  0  0  0  0
 17 14  1  0  0  0  0
 18 21  2  0  0  0  0
 18 22  1  0  0  0  0
 18 19  1  0  0  0  0
 20 18  2  0  0  0  0
 22 23  1  0  0  0  0
M  END
