Coordinates from ORCA-job 4-MeO-Ph-N2-HSO4-B3LYPG-6-31G_dp-MTMO-d009-169-n800
 OpenBabel09051907533D

 23 22  0  0  0  0  0  0  0  0999 V2000
   -0.0985   -0.5615    0.5886 C   0  0  0  0  0  0  0  0  0  0  0  0
    1.1753   -0.0017    0.4593 C   0  0  0  0  0  0  0  0  0  0  0  0
    1.3911    1.3117    0.8527 C   0  0  0  0  0  0  0  0  0  0  0  0
    0.3581    2.0915    1.3735 C   0  0  0  0  0  0  0  0  0  0  0  0
   -0.9083    1.5385    1.5005 C   0  0  0  0  0  0  0  0  0  0  0  0
   -1.1452    0.2100    1.1100 C   0  0  0  0  0  0  0  0  0  0  0  0
   -0.2586   -1.5880    0.2834 H   0  0  0  0  0  0  0  0  0  0  0  0
    1.9971   -0.5846    0.0588 H   0  0  0  0  0  0  0  0  0  0  0  0
    0.5536    3.1158    1.6687 H   0  0  0  0  0  0  0  0  0  0  0  0
   -1.7348    2.1159    1.9005 H   0  0  0  0  0  0  0  0  0  0  0  0
    7.4759    1.1011   -1.7646 N   0  0  0  0  0  0  0  0  0  0  0  0
    6.3724    1.0822   -1.7331 N   0  0  0  0  0  0  0  0  0  0  0  0
   -2.4219   -0.2335    1.2815 O   0  0  0  0  0  0  0  0  0  0  0  0
   -2.7312   -1.5649    0.8965 C   0  0  0  0  0  0  0  0  0  0  0  0
   -3.7906   -1.7028    1.1172 H   0  0  0  0  0  0  0  0  0  0  0  0
   -2.1464   -2.2973    1.4668 H   0  0  0  0  0  0  0  0  0  0  0  0
   -2.5613   -1.7251   -0.1761 H   0  0  0  0  0  0  0  0  0  0  0  0
    3.1298    2.7412   -0.5000 S   0  0  0  0  0  0  0  0  0  0  0  0
    2.7000    1.8361    0.7997 O   0  0  0  0  0  0  0  0  0  0  0  0
    2.0183    3.5666   -0.9168 O   0  0  0  0  0  0  0  0  0  0  0  0
    4.4371    3.2672   -0.1574 O   0  0  0  0  0  0  0  0  0  0  0  0
    3.3172    1.6049   -1.6442 O   0  0  0  0  0  0  0  0  0  0  0  0
    4.2557    1.3375   -1.6444 H   0  0  0  0  0  0  0  0  0  0  0  0
  1  6  1  0  0  0  0
  2  1  2  0  0  0  0
  2  3  1  0  0  0  0
  3  4  2  0  0  0  0
  4  5  1  0  0  0  0
  4  9  1  0  0  0  0
  5 10  1  0  0  0  0
  6 13  1  0  0  0  0
  6  5  2  0  0  0  0
  7  1  1  0  0  0  0
  8  2  1  0  0  0  0
 11 12  3  0  0  0  0
 14 15  1  0  0  0  0
 14 13  1  0  0  0  0
 14 16  1  0  0  0  0
 17 14  1  0  0  0  0
 18 21  2  0  0  0  0
 18 19  1  0  0  0  0
 19  3  1  0  0  0  0
 20 18  2  0  0  0  0
 22 18  1  0  0  0  0
 23 22  1  0  0  0  0
M  END
