Coordinates from ORCA-job 4-MeO-Ph-N2-HSO4-B3LYPG-6-31G_dp-MTMO-d009-169-n800
 OpenBabel09051907533D

 23 22  0  0  0  0  0  0  0  0999 V2000
   -0.7753   -0.5291    0.9282 C   0  0  0  0  0  0  0  0  0  0  0  0
    0.4651    0.1118    0.8748 C   0  0  0  0  0  0  0  0  0  0  0  0
    0.5787    1.4242    1.3112 C   0  0  0  0  0  0  0  0  0  0  0  0
   -0.5237    2.1232    1.8035 C   0  0  0  0  0  0  0  0  0  0  0  0
   -1.7570    1.4892    1.8557 C   0  0  0  0  0  0  0  0  0  0  0  0
   -1.8918    0.1610    1.4183 C   0  0  0  0  0  0  0  0  0  0  0  0
   -0.8551   -1.5540    0.5885 H   0  0  0  0  0  0  0  0  0  0  0  0
    1.3393   -0.4080    0.4993 H   0  0  0  0  0  0  0  0  0  0  0  0
   -0.4072    3.1484    2.1349 H   0  0  0  0  0  0  0  0  0  0  0  0
   -2.6356    2.0021    2.2315 H   0  0  0  0  0  0  0  0  0  0  0  0
   15.4094    0.5457   -6.0031 N   0  0  0  0  0  0  0  0  0  0  0  0
   14.3669    0.4467   -5.6496 N   0  0  0  0  0  0  0  0  0  0  0  0
   -3.1445   -0.3644    1.5134 O   0  0  0  0  0  0  0  0  0  0  0  0
   -3.3535   -1.6964    1.0676 C   0  0  0  0  0  0  0  0  0  0  0  0
   -4.4133   -1.9024    1.2237 H   0  0  0  0  0  0  0  0  0  0  0  0
   -2.7584   -2.4146    1.6453 H   0  0  0  0  0  0  0  0  0  0  0  0
   -3.1165   -1.8068    0.0016 H   0  0  0  0  0  0  0  0  0  0  0  0
    2.2791    2.9936    0.0740 S   0  0  0  0  0  0  0  0  0  0  0  0
    1.8533    2.0313    1.3308 O   0  0  0  0  0  0  0  0  0  0  0  0
    1.1464    3.7786   -0.3611 O   0  0  0  0  0  0  0  0  0  0  0  0
    3.5536    3.5597    0.4671 O   0  0  0  0  0  0  0  0  0  0  0  0
    2.5469    1.8961   -1.1025 O   0  0  0  0  0  0  0  0  0  0  0  0
    3.4781    1.6249   -1.0320 H   0  0  0  0  0  0  0  0  0  0  0  0
  1  6  1  0  0  0  0
  2  1  2  0  0  0  0
  2  3  1  0  0  0  0
  3 19  1  0  0  0  0
  3  4  2  0  0  0  0
  4  5  1  0  0  0  0
  4  9  1  0  0  0  0
  5 10  1  0  0  0  0
  6 13  1  0  0  0  0
  6  5  2  0  0  0  0
  7  1  1  0  0  0  0
  8  2  1  0  0  0  0
 11 12  3  0  0  0  0
 14 15  1  0  0  0  0
 14 13  1  0  0  0  0
 14 16  1  0  0  0  0
 17 14  1  0  0  0  0
 18 21  2  0  0  0  0
 18 19  1  0  0  0  0
 20 18  2  0  0  0  0
 22 23  1  0  0  0  0
 22 18  1  0  0  0  0
M  END
