Coordinates from ORCA-job 4-MeO-Ph-N2-HSO4-B3LYPG-6-31G_dp-MTMO-d009-169-n800
 OpenBabel09051907533D

 23 22  0  0  0  0  0  0  0  0999 V2000
   -0.3583   -0.5412    0.7447 C   0  0  0  0  0  0  0  0  0  0  0  0
    0.8901    0.0833    0.6837 C   0  0  0  0  0  0  0  0  0  0  0  0
    1.0215    1.3974    1.1099 C   0  0  0  0  0  0  0  0  0  0  0  0
   -0.0709    2.1143    1.5989 C   0  0  0  0  0  0  0  0  0  0  0  0
   -1.3122    1.4966    1.6584 C   0  0  0  0  0  0  0  0  0  0  0  0
   -1.4647    0.1668    1.2318 C   0  0  0  0  0  0  0  0  0  0  0  0
   -0.4520   -1.5676    0.4132 H   0  0  0  0  0  0  0  0  0  0  0  0
    1.7568   -0.4506    0.3105 H   0  0  0  0  0  0  0  0  0  0  0  0
    0.0595    3.1405    1.9220 H   0  0  0  0  0  0  0  0  0  0  0  0
   -2.1833    2.0236    2.0319 H   0  0  0  0  0  0  0  0  0  0  0  0
   10.8548    0.7248   -3.9795 N   0  0  0  0  0  0  0  0  0  0  0  0
    9.8137    0.6284   -3.6211 N   0  0  0  0  0  0  0  0  0  0  0  0
   -2.7238   -0.3418    1.3340 O   0  0  0  0  0  0  0  0  0  0  0  0
   -2.9504   -1.6751    0.9006 C   0  0  0  0  0  0  0  0  0  0  0  0
   -4.0121   -1.8669    1.0621 H   0  0  0  0  0  0  0  0  0  0  0  0
   -2.3620   -2.3953    1.4826 H   0  0  0  0  0  0  0  0  0  0  0  0
   -2.7184   -1.7977   -0.1651 H   0  0  0  0  0  0  0  0  0  0  0  0
    2.7393    2.9369   -0.1412 S   0  0  0  0  0  0  0  0  0  0  0  0
    2.3037    1.9882    1.1227 O   0  0  0  0  0  0  0  0  0  0  0  0
    1.6146    3.7297   -0.5825 O   0  0  0  0  0  0  0  0  0  0  0  0
    4.0193    3.4933    0.2482 O   0  0  0  0  0  0  0  0  0  0  0  0
    2.9962    1.8282   -1.3095 O   0  0  0  0  0  0  0  0  0  0  0  0
    3.9235    1.5448   -1.2353 H   0  0  0  0  0  0  0  0  0  0  0  0
  1  6  1  0  0  0  0
  2  1  2  0  0  0  0
  2  3  1  0  0  0  0
  3 19  1  0  0  0  0
  3  4  2  0  0  0  0
  4  5  1  0  0  0  0
  4  9  1  0  0  0  0
  5 10  1  0  0  0  0
  6 13  1  0  0  0  0
  6  5  2  0  0  0  0
  7  1  1  0  0  0  0
  8  2  1  0  0  0  0
 11 12  3  0  0  0  0
 14 15  1  0  0  0  0
 14 13  1  0  0  0  0
 14 16  1  0  0  0  0
 17 14  1  0  0  0  0
 18 21  2  0  0  0  0
 18 19  1  0  0  0  0
 20 18  2  0  0  0  0
 22 23  1  0  0  0  0
 22 18  1  0  0  0  0
M  END
