Coordinates from ORCA-job 4-MeO-Ph-N2-HSO4-B3LYPG-6-31G_dp-MTMO-d009-169-n800
 OpenBabel09051907533D

 23 22  0  0  0  0  0  0  0  0999 V2000
   -0.1899   -0.5637    0.7049 C   0  0  0  0  0  0  0  0  0  0  0  0
    1.0853    0.0056    0.6593 C   0  0  0  0  0  0  0  0  0  0  0  0
    1.2549    1.3362    1.0151 C   0  0  0  0  0  0  0  0  0  0  0  0
    0.1760    2.1240    1.4162 C   0  0  0  0  0  0  0  0  0  0  0  0
   -1.0914    1.5607    1.4615 C   0  0  0  0  0  0  0  0  0  0  0  0
   -1.2831    0.2150    1.1066 C   0  0  0  0  0  0  0  0  0  0  0  0
   -0.3149   -1.6030    0.4279 H   0  0  0  0  0  0  0  0  0  0  0  0
    1.9427   -0.5821    0.3511 H   0  0  0  0  0  0  0  0  0  0  0  0
    0.3377    3.1614    1.6854 H   0  0  0  0  0  0  0  0  0  0  0  0
   -1.9532    2.1430    1.7690 H   0  0  0  0  0  0  0  0  0  0  0  0
    8.2816    1.2391   -3.1108 N   0  0  0  0  0  0  0  0  0  0  0  0
    7.3169    1.1802   -2.5745 N   0  0  0  0  0  0  0  0  0  0  0  0
   -2.5653   -0.2367    1.1892 O   0  0  0  0  0  0  0  0  0  0  0  0
   -2.8300   -1.5861    0.8343 C   0  0  0  0  0  0  0  0  0  0  0  0
   -3.9031   -1.7274    0.9706 H   0  0  0  0  0  0  0  0  0  0  0  0
   -2.2892   -2.2880    1.4814 H   0  0  0  0  0  0  0  0  0  0  0  0
   -2.5687   -1.7869   -0.2124 H   0  0  0  0  0  0  0  0  0  0  0  0
    3.1073    2.6924   -0.2638 S   0  0  0  0  0  0  0  0  0  0  0  0
    2.5589    1.8777    1.0485 O   0  0  0  0  0  0  0  0  0  0  0  0
    2.0184    3.4042   -0.8941 O   0  0  0  0  0  0  0  0  0  0  0  0
    4.3350    3.3219    0.1807 O   0  0  0  0  0  0  0  0  0  0  0  0
    3.5032    1.4699   -1.2683 O   0  0  0  0  0  0  0  0  0  0  0  0
    4.4554    1.3035   -1.1567 H   0  0  0  0  0  0  0  0  0  0  0  0
  1  6  1  0  0  0  0
  2  1  2  0  0  0  0
  2  3  1  0  0  0  0
  3 19  1  0  0  0  0
  3  4  2  0  0  0  0
  4  5  1  0  0  0  0
  4  9  1  0  0  0  0
  5 10  1  0  0  0  0
  6 13  1  0  0  0  0
  6  5  2  0  0  0  0
  7  1  1  0  0  0  0
  8  2  1  0  0  0  0
 11 12  3  0  0  0  0
 14 15  1  0  0  0  0
 14 13  1  0  0  0  0
 14 16  1  0  0  0  0
 17 14  1  0  0  0  0
 18 21  2  0  0  0  0
 18 19  1  0  0  0  0
 20 18  2  0  0  0  0
 22 23  1  0  0  0  0
 22 18  1  0  0  0  0
M  END
