Coordinates from ORCA-job 4-MeO-Ph-N2-HSO4-B3LYPG-6-31G_dp-MTMO-d009-169-n800
 OpenBabel09051907533D

 23 22  0  0  0  0  0  0  0  0999 V2000
   -0.5449   -0.5324    0.8279 C   0  0  0  0  0  0  0  0  0  0  0  0
    0.6947    0.1100    0.7751 C   0  0  0  0  0  0  0  0  0  0  0  0
    0.8066    1.4225    1.2117 C   0  0  0  0  0  0  0  0  0  0  0  0
   -0.2969    2.1200    1.7038 C   0  0  0  0  0  0  0  0  0  0  0  0
   -1.5295    1.4845    1.7553 C   0  0  0  0  0  0  0  0  0  0  0  0
   -1.6624    0.1562    1.3177 C   0  0  0  0  0  0  0  0  0  0  0  0
   -0.6232   -1.5574    0.4880 H   0  0  0  0  0  0  0  0  0  0  0  0
    1.5698   -0.4086    0.3998 H   0  0  0  0  0  0  0  0  0  0  0  0
   -0.1818    3.1454    2.0353 H   0  0  0  0  0  0  0  0  0  0  0  0
   -2.4088    1.9961    2.1309 H   0  0  0  0  0  0  0  0  0  0  0  0
   13.0081    0.5778   -4.9519 N   0  0  0  0  0  0  0  0  0  0  0  0
   11.9662    0.4727   -4.5983 N   0  0  0  0  0  0  0  0  0  0  0  0
   -2.9145   -0.3708    1.4121 O   0  0  0  0  0  0  0  0  0  0  0  0
   -3.1216   -1.7029    0.9658 C   0  0  0  0  0  0  0  0  0  0  0  0
   -4.1813   -1.9103    1.1213 H   0  0  0  0  0  0  0  0  0  0  0  0
   -2.5260   -2.4206    1.5437 H   0  0  0  0  0  0  0  0  0  0  0  0
   -2.8840   -1.8128   -0.1000 H   0  0  0  0  0  0  0  0  0  0  0  0
    2.5051    2.9946   -0.0245 S   0  0  0  0  0  0  0  0  0  0  0  0
    2.0804    2.0312    1.2318 O   0  0  0  0  0  0  0  0  0  0  0  0
    1.3719    3.7792   -0.4586 O   0  0  0  0  0  0  0  0  0  0  0  0
    3.7796    3.5610    0.3684 O   0  0  0  0  0  0  0  0  0  0  0  0
    2.7729    1.8980   -1.2019 O   0  0  0  0  0  0  0  0  0  0  0  0
    3.7043    1.6271   -1.1323 H   0  0  0  0  0  0  0  0  0  0  0  0
  1  6  1  0  0  0  0
  2  1  2  0  0  0  0
  2  3  1  0  0  0  0
  3 19  1  0  0  0  0
  3  4  2  0  0  0  0
  4  5  1  0  0  0  0
  4  9  1  0  0  0  0
  5 10  1  0  0  0  0
  6 13  1  0  0  0  0
  6  5  2  0  0  0  0
  7  1  1  0  0  0  0
  8  2  1  0  0  0  0
 11 12  3  0  0  0  0
 14 15  1  0  0  0  0
 14 13  1  0  0  0  0
 14 16  1  0  0  0  0
 17 14  1  0  0  0  0
 18 21  2  0  0  0  0
 18 19  1  0  0  0  0
 20 18  2  0  0  0  0
 22 23  1  0  0  0  0
 22 18  1  0  0  0  0
M  END
