Coordinates from ORCA-job 4-MeO-Ph-N2-HSO4-B3LYPG-6-31G_dp-MTMO-d009-169-n800
 OpenBabel09051907533D

 23 22  0  0  0  0  0  0  0  0999 V2000
   -0.1958   -0.6616    1.0101 C   0  0  0  0  0  0  0  0  0  0  0  0
    1.1516   -0.2964    1.0701 C   0  0  0  0  0  0  0  0  0  0  0  0
    1.5048    1.0426    0.9769 C   0  0  0  0  0  0  0  0  0  0  0  0
    0.5401    2.0382    0.8204 C   0  0  0  0  0  0  0  0  0  0  0  0
   -0.7984    1.6771    0.7565 C   0  0  0  0  0  0  0  0  0  0  0  0
   -1.1756    0.3269    0.8512 C   0  0  0  0  0  0  0  0  0  0  0  0
   -0.4635   -1.7077    1.0901 H   0  0  0  0  0  0  0  0  0  0  0  0
    1.9227   -1.0484    1.1959 H   0  0  0  0  0  0  0  0  0  0  0  0
    0.8434    3.0762    0.7455 H   0  0  0  0  0  0  0  0  0  0  0  0
   -1.5750    2.4241    0.6337 H   0  0  0  0  0  0  0  0  0  0  0  0
    5.3835    4.5537   -2.6514 N   0  0  0  0  0  0  0  0  0  0  0  0
    5.7039    3.5013   -2.7565 N   0  0  0  0  0  0  0  0  0  0  0  0
   -2.5140    0.0849    0.7811 O   0  0  0  0  0  0  0  0  0  0  0  0
   -2.9621   -1.2594    0.8625 C   0  0  0  0  0  0  0  0  0  0  0  0
   -4.0495   -1.2194    0.7837 H   0  0  0  0  0  0  0  0  0  0  0  0
   -2.6862   -1.7200    1.8202 H   0  0  0  0  0  0  0  0  0  0  0  0
   -2.5628   -1.8690    0.0416 H   0  0  0  0  0  0  0  0  0  0  0  0
    3.7492    1.6985   -0.2151 S   0  0  0  0  0  0  0  0  0  0  0  0
    2.8622    1.4004    1.1293 O   0  0  0  0  0  0  0  0  0  0  0  0
    2.9550    2.4107   -1.1904 O   0  0  0  0  0  0  0  0  0  0  0  0
    5.0229    2.1718    0.2887 O   0  0  0  0  0  0  0  0  0  0  0  0
    3.9585    0.1960   -0.8120 O   0  0  0  0  0  0  0  0  0  0  0  0
    4.7699   -0.1598   -0.4111 H   0  0  0  0  0  0  0  0  0  0  0  0
  1  2  1  0  0  0  0
  1  7  1  0  0  0  0
  2  8  1  0  0  0  0
  3  2  2  0  0  0  0
  3 19  1  0  0  0  0
  4  3  1  0  0  0  0
  5  4  2  0  0  0  0
  5  6  1  0  0  0  0
  6  1  2  0  0  0  0
  9  4  1  0  0  0  0
 10  5  1  0  0  0  0
 12 11  3  0  0  0  0
 13  6  1  0  0  0  0
 13 14  1  0  0  0  0
 14 16  1  0  0  0  0
 15 14  1  0  0  0  0
 17 14  1  0  0  0  0
 18 21  2  0  0  0  0
 18 19  1  0  0  0  0
 20 18  2  0  0  0  0
 22 23  1  0  0  0  0
 22 18  1  0  0  0  0
M  END
