Coordinates from ORCA-job 4-MeO-Ph-N2-HSO4-B3LYPG-6-31G_dp-MTMO-d009-169-n800
 OpenBabel09051907533D

 23 22  0  0  0  0  0  0  0  0999 V2000
   -0.3706   -0.5404    0.7501 C   0  0  0  0  0  0  0  0  0  0  0  0
    0.8769    0.0859    0.6898 C   0  0  0  0  0  0  0  0  0  0  0  0
    1.0064    1.3998    1.1171 C   0  0  0  0  0  0  0  0  0  0  0  0
   -0.0870    2.1147    1.6067 C   0  0  0  0  0  0  0  0  0  0  0  0
   -1.3274    1.4953    1.6656 C   0  0  0  0  0  0  0  0  0  0  0  0
   -1.4780    0.1657    1.2377 C   0  0  0  0  0  0  0  0  0  0  0  0
   -0.4629   -1.5667    0.4176 H   0  0  0  0  0  0  0  0  0  0  0  0
    1.7444   -0.4464    0.3162 H   0  0  0  0  0  0  0  0  0  0  0  0
    0.0419    3.1408    1.9308 H   0  0  0  0  0  0  0  0  0  0  0  0
   -2.1993    2.0207    2.0395 H   0  0  0  0  0  0  0  0  0  0  0  0
   11.0034    0.7113   -4.0467 N   0  0  0  0  0  0  0  0  0  0  0  0
    9.9623    0.6135   -3.6889 N   0  0  0  0  0  0  0  0  0  0  0  0
   -2.7364   -0.3448    1.3393 O   0  0  0  0  0  0  0  0  0  0  0  0
   -2.9612   -1.6780    0.9045 C   0  0  0  0  0  0  0  0  0  0  0  0
   -4.0227   -1.8713    1.0655 H   0  0  0  0  0  0  0  0  0  0  0  0
   -2.3720   -2.3980    1.4859 H   0  0  0  0  0  0  0  0  0  0  0  0
   -2.7288   -1.7992   -0.1613 H   0  0  0  0  0  0  0  0  0  0  0  0
    2.7222    2.9426   -0.1326 S   0  0  0  0  0  0  0  0  0  0  0  0
    2.2878    1.9924    1.1306 O   0  0  0  0  0  0  0  0  0  0  0  0
    1.5966    3.7347   -0.5730 O   0  0  0  0  0  0  0  0  0  0  0  0
    4.0017    3.5000    0.2570 O   0  0  0  0  0  0  0  0  0  0  0  0
    2.9799    1.8353   -1.3019 O   0  0  0  0  0  0  0  0  0  0  0  0
    3.9075    1.5527   -1.2282 H   0  0  0  0  0  0  0  0  0  0  0  0
  1  6  1  0  0  0  0
  2  1  2  0  0  0  0
  2  3  1  0  0  0  0
  3 19  1  0  0  0  0
  3  4  2  0  0  0  0
  4  5  1  0  0  0  0
  4  9  1  0  0  0  0
  5 10  1  0  0  0  0
  6 13  1  0  0  0  0
  6  5  2  0  0  0  0
  7  1  1  0  0  0  0
  8  2  1  0  0  0  0
 11 12  3  0  0  0  0
 14 15  1  0  0  0  0
 14 13  1  0  0  0  0
 14 16  1  0  0  0  0
 17 14  1  0  0  0  0
 18 21  2  0  0  0  0
 18 19  1  0  0  0  0
 20 18  2  0  0  0  0
 22 23  1  0  0  0  0
 22 18  1  0  0  0  0
M  END
