Coordinates from ORCA-job 4-MeO-Ph-N2-HSO4-B3LYPG-6-31G_dp-MTMO-d009-169-n800
 OpenBabel09051907533D

 23 22  0  0  0  0  0  0  0  0999 V2000
    0.0360   -0.2187    0.3628 C   0  0  0  0  0  0  0  0  0  0  0  0
    1.4138    0.0266    0.3540 C   0  0  0  0  0  0  0  0  0  0  0  0
    1.8798    1.2881    0.6997 C   0  0  0  0  0  0  0  0  0  0  0  0
    0.9990    2.3020    1.0807 C   0  0  0  0  0  0  0  0  0  0  0  0
   -0.3652    2.0523    1.1000 C   0  0  0  0  0  0  0  0  0  0  0  0
   -0.8591    0.7891    0.7365 C   0  0  0  0  0  0  0  0  0  0  0  0
   -0.3172   -1.2021    0.0792 H   0  0  0  0  0  0  0  0  0  0  0  0
    2.0936   -0.7652    0.0678 H   0  0  0  0  0  0  0  0  0  0  0  0
    1.3949    3.2739    1.3537 H   0  0  0  0  0  0  0  0  0  0  0  0
   -1.0705    2.8235    1.3897 H   0  0  0  0  0  0  0  0  0  0  0  0
    1.8903    2.6181   -1.9476 N   0  0  0  0  0  0  0  0  0  0  0  0
    1.1474    2.4642   -2.7515 N   0  0  0  0  0  0  0  0  0  0  0  0
   -2.2145    0.6488    0.7826 O   0  0  0  0  0  0  0  0  0  0  0  0
   -2.7721   -0.6084    0.4304 C   0  0  0  0  0  0  0  0  0  0  0  0
   -3.8525   -0.4986    0.5374 H   0  0  0  0  0  0  0  0  0  0  0  0
   -2.4234   -1.4070    1.0980 H   0  0  0  0  0  0  0  0  0  0  0  0
   -2.5376   -0.8787   -0.6070 H   0  0  0  0  0  0  0  0  0  0  0  0
    4.4255    0.8862   -0.0374 S   0  0  0  0  0  0  0  0  0  0  0  0
    3.2436    1.6419    0.7889 O   0  0  0  0  0  0  0  0  0  0  0  0
    3.9683    0.4507   -1.3366 O   0  0  0  0  0  0  0  0  0  0  0  0
    5.5887    1.7204    0.1757 O   0  0  0  0  0  0  0  0  0  0  0  0
    4.5968   -0.4801    0.8359 O   0  0  0  0  0  0  0  0  0  0  0  0
    5.1192   -0.2664    1.6281 H   0  0  0  0  0  0  0  0  0  0  0  0
  1  6  1  0  0  0  0
  2  1  2  0  0  0  0
  2  3  1  0  0  0  0
  3 19  1  0  0  0  0
  3  4  2  0  0  0  0
  4  5  1  0  0  0  0
  4  9  1  0  0  0  0
  5 10  1  0  0  0  0
  6 13  1  0  0  0  0
  6  5  2  0  0  0  0
  7  1  1  0  0  0  0
  8  2  1  0  0  0  0
 12 11  3  0  0  0  0
 14 15  1  0  0  0  0
 14 13  1  0  0  0  0
 14 16  1  0  0  0  0
 17 14  1  0  0  0  0
 18 21  2  0  0  0  0
 18 19  1  0  0  0  0
 18 22  1  0  0  0  0
 20 18  2  0  0  0  0
 22 23  1  0  0  0  0
M  END
