Coordinates from ORCA-job 4-MeO-Ph-N2-HSO4-B3LYPG-6-31G_dp-MTMO-d009-169-n800
 OpenBabel09051907533D

 23 22  0  0  0  0  0  0  0  0999 V2000
   -0.1605   -0.5673    1.1191 C   0  0  0  0  0  0  0  0  0  0  0  0
    1.2080   -0.3244    1.2632 C   0  0  0  0  0  0  0  0  0  0  0  0
    1.7214    0.9229    0.9372 C   0  0  0  0  0  0  0  0  0  0  0  0
    0.8995    1.9460    0.4626 C   0  0  0  0  0  0  0  0  0  0  0  0
   -0.4588    1.7044    0.3138 C   0  0  0  0  0  0  0  0  0  0  0  0
   -0.9980    0.4485    0.6402 C   0  0  0  0  0  0  0  0  0  0  0  0
   -0.5544   -1.5409    1.3823 H   0  0  0  0  0  0  0  0  0  0  0  0
    1.8707   -1.0988    1.6331 H   0  0  0  0  0  0  0  0  0  0  0  0
    1.3272    2.9089    0.2085 H   0  0  0  0  0  0  0  0  0  0  0  0
   -1.1278    2.4748   -0.0536 H   0  0  0  0  0  0  0  0  0  0  0  0
    3.1698    4.9417   -2.0020 N   0  0  0  0  0  0  0  0  0  0  0  0
    3.9158    4.8796   -2.8149 N   0  0  0  0  0  0  0  0  0  0  0  0
   -2.3416    0.3216    0.4582 O   0  0  0  0  0  0  0  0  0  0  0  0
   -2.9490   -0.9262    0.7583 C   0  0  0  0  0  0  0  0  0  0  0  0
   -4.0089   -0.8073    0.5283 H   0  0  0  0  0  0  0  0  0  0  0  0
   -2.8362   -1.1858    1.8186 H   0  0  0  0  0  0  0  0  0  0  0  0
   -2.5354   -1.7357    0.1437 H   0  0  0  0  0  0  0  0  0  0  0  0
    4.1276    1.1335   -0.0934 S   0  0  0  0  0  0  0  0  0  0  0  0
    3.0909    1.1750    1.1735 O   0  0  0  0  0  0  0  0  0  0  0  0
    3.5252    1.7446   -1.2569 O   0  0  0  0  0  0  0  0  0  0  0  0
    5.3992    1.5458    0.4659 O   0  0  0  0  0  0  0  0  0  0  0  0
    4.1970   -0.4644   -0.4103 O   0  0  0  0  0  0  0  0  0  0  0  0
    4.9030   -0.8358    0.1459 H   0  0  0  0  0  0  0  0  0  0  0  0
  1  2  1  0  0  0  0
  1  7  1  0  0  0  0
  2  8  1  0  0  0  0
  3 19  1  0  0  0  0
  3  2  2  0  0  0  0
  4  3  1  0  0  0  0
  5  4  2  0  0  0  0
  5  6  1  0  0  0  0
  6  1  2  0  0  0  0
  9  4  1  0  0  0  0
 10  5  1  0  0  0  0
 12 11  3  0  0  0  0
 13  6  1  0  0  0  0
 13 14  1  0  0  0  0
 14 16  1  0  0  0  0
 15 14  1  0  0  0  0
 17 14  1  0  0  0  0
 18 21  2  0  0  0  0
 18 19  1  0  0  0  0
 20 18  2  0  0  0  0
 22 18  1  0  0  0  0
 22 23  1  0  0  0  0
M  END
