Coordinates from ORCA-job 4-MeO-Ph-N2-HSO4-B3LYPG-6-31G_dp-MTMO-d009-169-n800
 OpenBabel09051907533D

 23 22  0  0  0  0  0  0  0  0999 V2000
    0.0448   -0.1706    0.2454 C   0  0  0  0  0  0  0  0  0  0  0  0
    1.4169    0.0910    0.1717 C   0  0  0  0  0  0  0  0  0  0  0  0
    1.8872    1.3501    0.5256 C   0  0  0  0  0  0  0  0  0  0  0  0
    1.0232    2.3138    1.0549 C   0  0  0  0  0  0  0  0  0  0  0  0
   -0.3345    2.0495    1.1326 C   0  0  0  0  0  0  0  0  0  0  0  0
   -0.8391    0.8057    0.7172 C   0  0  0  0  0  0  0  0  0  0  0  0
   -0.3135   -1.1443   -0.0645 H   0  0  0  0  0  0  0  0  0  0  0  0
    2.0843   -0.6730   -0.2037 H   0  0  0  0  0  0  0  0  0  0  0  0
    1.4267    3.2696    1.3706 H   0  0  0  0  0  0  0  0  0  0  0  0
   -1.0273    2.7906    1.5160 H   0  0  0  0  0  0  0  0  0  0  0  0
    1.8125    2.2624   -1.6734 N   0  0  0  0  0  0  0  0  0  0  0  0
    0.9411    2.3169   -2.3551 N   0  0  0  0  0  0  0  0  0  0  0  0
   -2.1881    0.6490    0.8257 O   0  0  0  0  0  0  0  0  0  0  0  0
   -2.7560   -0.5874    0.4186 C   0  0  0  0  0  0  0  0  0  0  0  0
   -3.8302   -0.4940    0.5856 H   0  0  0  0  0  0  0  0  0  0  0  0
   -2.3705   -1.4252    1.0134 H   0  0  0  0  0  0  0  0  0  0  0  0
   -2.5706   -0.7857   -0.6446 H   0  0  0  0  0  0  0  0  0  0  0  0
    4.4631    0.8463   -0.0455 S   0  0  0  0  0  0  0  0  0  0  0  0
    3.2461    1.7238    0.5821 O   0  0  0  0  0  0  0  0  0  0  0  0
    4.0905    0.2418   -1.3039 O   0  0  0  0  0  0  0  0  0  0  0  0
    5.6243    1.6912    0.1304 O   0  0  0  0  0  0  0  0  0  0  0  0
    4.5434   -0.3880    1.0147 O   0  0  0  0  0  0  0  0  0  0  0  0
    5.0106   -0.0729    1.8074 H   0  0  0  0  0  0  0  0  0  0  0  0
  1  6  1  0  0  0  0
  2  1  2  0  0  0  0
  2  3  1  0  0  0  0
  3 19  1  0  0  0  0
  3  4  2  0  0  0  0
  4  5  1  0  0  0  0
  4  9  1  0  0  0  0
  5 10  1  0  0  0  0
  6 13  1  0  0  0  0
  6  5  2  0  0  0  0
  7  1  1  0  0  0  0
  8  2  1  0  0  0  0
 12 11  3  0  0  0  0
 14 15  1  0  0  0  0
 14 13  1  0  0  0  0
 14 16  1  0  0  0  0
 17 14  1  0  0  0  0
 18 21  2  0  0  0  0
 18 19  1  0  0  0  0
 18 22  1  0  0  0  0
 20 18  2  0  0  0  0
 22 23  1  0  0  0  0
M  END
