Coordinates from ORCA-job 4-MeO-Ph-N2-HSO4-B3LYPG-6-31G_dp-MTMO-d009-169-n800
 OpenBabel09051907533D

 23 22  0  0  0  0  0  0  0  0999 V2000
   -0.1563   -0.4379    1.1473 C   0  0  0  0  0  0  0  0  0  0  0  0
    1.2027   -0.1141    1.1784 C   0  0  0  0  0  0  0  0  0  0  0  0
    1.6392    1.0644    0.5899 C   0  0  0  0  0  0  0  0  0  0  0  0
    0.7496    1.9384   -0.0354 C   0  0  0  0  0  0  0  0  0  0  0  0
   -0.6004    1.6187   -0.0662 C   0  0  0  0  0  0  0  0  0  0  0  0
   -1.0620    0.4293    0.5223 C   0  0  0  0  0  0  0  0  0  0  0  0
   -0.4908   -1.3590    1.6082 H   0  0  0  0  0  0  0  0  0  0  0  0
    1.9169   -0.7744    1.6571 H   0  0  0  0  0  0  0  0  0  0  0  0
    1.1222    2.8513   -0.4854 H   0  0  0  0  0  0  0  0  0  0  0  0
   -1.3215    2.2743   -0.5420 H   0  0  0  0  0  0  0  0  0  0  0  0
    3.6291    4.5567   -0.9499 N   0  0  0  0  0  0  0  0  0  0  0  0
    4.4497    5.2727   -1.1363 N   0  0  0  0  0  0  0  0  0  0  0  0
   -2.4039    0.2131    0.4334 O   0  0  0  0  0  0  0  0  0  0  0  0
   -2.9345   -0.9776    0.9964 C   0  0  0  0  0  0  0  0  0  0  0  0
   -4.0081   -0.9482    0.8039 H   0  0  0  0  0  0  0  0  0  0  0  0
   -2.7624   -1.0243    2.0795 H   0  0  0  0  0  0  0  0  0  0  0  0
   -2.5082   -1.8721    0.5255 H   0  0  0  0  0  0  0  0  0  0  0  0
    4.0206    0.9879   -0.5072 S   0  0  0  0  0  0  0  0  0  0  0  0
    2.9995    1.4290    0.6944 O   0  0  0  0  0  0  0  0  0  0  0  0
    3.3364    0.9944   -1.7796 O   0  0  0  0  0  0  0  0  0  0  0  0
    5.2392    1.7262   -0.2386 O   0  0  0  0  0  0  0  0  0  0  0  0
    4.2887   -0.5813   -0.1463 O   0  0  0  0  0  0  0  0  0  0  0  0
    5.0390   -0.6071    0.4718 H   0  0  0  0  0  0  0  0  0  0  0  0
  1  2  1  0  0  0  0
  1  7  1  0  0  0  0
  2  8  1  0  0  0  0
  3 19  1  0  0  0  0
  3  2  2  0  0  0  0
  4  3  1  0  0  0  0
  5  4  2  0  0  0  0
  5  6  1  0  0  0  0
  6  1  2  0  0  0  0
  9  4  1  0  0  0  0
 10  5  1  0  0  0  0
 12 11  3  0  0  0  0
 13  6  1  0  0  0  0
 13 14  1  0  0  0  0
 14 16  1  0  0  0  0
 15 14  1  0  0  0  0
 17 14  1  0  0  0  0
 18 21  2  0  0  0  0
 18 22  1  0  0  0  0
 18 19  1  0  0  0  0
 20 18  2  0  0  0  0
 22 23  1  0  0  0  0
M  END
