Coordinates from ORCA-job 4-MeO-Ph-N2-HSO4-B3LYPG-6-31G_dp-MTMO-d009-169-n800
 OpenBabel09051907533D

 23 22  0  0  0  0  0  0  0  0999 V2000
   -0.3201   -0.5438    0.7287 C   0  0  0  0  0  0  0  0  0  0  0  0
    0.9311    0.0748    0.6662 C   0  0  0  0  0  0  0  0  0  0  0  0
    1.0681    1.3898    1.0879 C   0  0  0  0  0  0  0  0  0  0  0  0
   -0.0213    2.1134    1.5736 C   0  0  0  0  0  0  0  0  0  0  0  0
   -1.2654    1.5015    1.6345 C   0  0  0  0  0  0  0  0  0  0  0  0
   -1.4236    0.1709    1.2127 C   0  0  0  0  0  0  0  0  0  0  0  0
   -0.4183   -1.5710    0.4008 H   0  0  0  0  0  0  0  0  0  0  0  0
    1.7957   -0.4642    0.2955 H   0  0  0  0  0  0  0  0  0  0  0  0
    0.1135    3.1401    1.8931 H   0  0  0  0  0  0  0  0  0  0  0  0
   -2.1344    2.0338    2.0056 H   0  0  0  0  0  0  0  0  0  0  0  0
   10.3904    0.7683   -3.7734 N   0  0  0  0  0  0  0  0  0  0  0  0
    9.3498    0.6783   -3.4121 N   0  0  0  0  0  0  0  0  0  0  0  0
   -2.6850   -0.3318    1.3162 O   0  0  0  0  0  0  0  0  0  0  0  0
   -2.9172   -1.6659    0.8882 C   0  0  0  0  0  0  0  0  0  0  0  0
   -3.9797   -1.8525    1.0504 H   0  0  0  0  0  0  0  0  0  0  0  0
   -2.3318   -2.3862    1.4732 H   0  0  0  0  0  0  0  0  0  0  0  0
   -2.6857   -1.7939   -0.1769 H   0  0  0  0  0  0  0  0  0  0  0  0
    2.7938    2.9177   -0.1670 S   0  0  0  0  0  0  0  0  0  0  0  0
    2.3530    1.9749    1.0996 O   0  0  0  0  0  0  0  0  0  0  0  0
    1.6723    3.7126   -0.6128 O   0  0  0  0  0  0  0  0  0  0  0  0
    4.0749    3.4713    0.2226 O   0  0  0  0  0  0  0  0  0  0  0  0
    3.0490    1.8042   -1.3309 O   0  0  0  0  0  0  0  0  0  0  0  0
    3.9754    1.5185   -1.2547 H   0  0  0  0  0  0  0  0  0  0  0  0
  1  6  1  0  0  0  0
  2  1  2  0  0  0  0
  2  3  1  0  0  0  0
  3 19  1  0  0  0  0
  3  4  2  0  0  0  0
  4  5  1  0  0  0  0
  4  9  1  0  0  0  0
  5 10  1  0  0  0  0
  6 13  1  0  0  0  0
  6  5  2  0  0  0  0
  7  1  1  0  0  0  0
  8  2  1  0  0  0  0
 11 12  3  0  0  0  0
 14 15  1  0  0  0  0
 14 13  1  0  0  0  0
 14 16  1  0  0  0  0
 17 14  1  0  0  0  0
 18 21  2  0  0  0  0
 18 19  1  0  0  0  0
 20 18  2  0  0  0  0
 22 23  1  0  0  0  0
 22 18  1  0  0  0  0
M  END
