Coordinates from ORCA-job 4-MeO-Ph-N2-HSO4-B3LYPG-6-31G_dp-MTMO-d009-169-n800
 OpenBabel09051907533D

 23 22  0  0  0  0  0  0  0  0999 V2000
   -0.1996   -0.6491    1.0481 C   0  0  0  0  0  0  0  0  0  0  0  0
    1.1527   -0.2995    1.0882 C   0  0  0  0  0  0  0  0  0  0  0  0
    1.5240    1.0267    0.9164 C   0  0  0  0  0  0  0  0  0  0  0  0
    0.5732    2.0244    0.7003 C   0  0  0  0  0  0  0  0  0  0  0  0
   -0.7702    1.6788    0.6570 C   0  0  0  0  0  0  0  0  0  0  0  0
   -1.1657    0.3417    0.8304 C   0  0  0  0  0  0  0  0  0  0  0  0
   -0.4818   -1.6848    1.1897 H   0  0  0  0  0  0  0  0  0  0  0  0
    1.9131   -1.0535    1.2583 H   0  0  0  0  0  0  0  0  0  0  0  0
    0.8911    3.0517    0.5641 H   0  0  0  0  0  0  0  0  0  0  0  0
   -1.5364    2.4278    0.4898 H   0  0  0  0  0  0  0  0  0  0  0  0
    5.1689    4.8264   -2.2935 N   0  0  0  0  0  0  0  0  0  0  0  0
    5.6621    3.8960   -2.6287 N   0  0  0  0  0  0  0  0  0  0  0  0
   -2.5073    0.1144    0.7733 O   0  0  0  0  0  0  0  0  0  0  0  0
   -2.9739   -1.2175    0.9257 C   0  0  0  0  0  0  0  0  0  0  0  0
   -4.0605   -1.1669    0.8413 H   0  0  0  0  0  0  0  0  0  0  0  0
   -2.7069   -1.6294    1.9076 H   0  0  0  0  0  0  0  0  0  0  0  0
   -2.5812   -1.8759    0.1400 H   0  0  0  0  0  0  0  0  0  0  0  0
    3.7815    1.5531   -0.3133 S   0  0  0  0  0  0  0  0  0  0  0  0
    2.8860    1.3767    1.0468 O   0  0  0  0  0  0  0  0  0  0  0  0
    2.9993    2.1900   -1.3482 O   0  0  0  0  0  0  0  0  0  0  0  0
    5.0585    2.0530    0.1557 O   0  0  0  0  0  0  0  0  0  0  0  0
    3.9778    0.0041   -0.7831 O   0  0  0  0  0  0  0  0  0  0  0  0
    4.7800   -0.3274   -0.3447 H   0  0  0  0  0  0  0  0  0  0  0  0
  1  2  1  0  0  0  0
  1  7  1  0  0  0  0
  2  8  1  0  0  0  0
  3 19  1  0  0  0  0
  3  2  2  0  0  0  0
  4  3  1  0  0  0  0
  5  4  2  0  0  0  0
  5  6  1  0  0  0  0
  6  1  2  0  0  0  0
  9  4  1  0  0  0  0
 10  5  1  0  0  0  0
 12 11  3  0  0  0  0
 13  6  1  0  0  0  0
 13 14  1  0  0  0  0
 14 16  1  0  0  0  0
 15 14  1  0  0  0  0
 17 14  1  0  0  0  0
 18 21  2  0  0  0  0
 18 19  1  0  0  0  0
 20 18  2  0  0  0  0
 22 23  1  0  0  0  0
 22 18  1  0  0  0  0
M  END
