Coordinates from ORCA-job 4-MeO-Ph-N2-HSO4-B3LYPG-6-31G_dp-MTMO-d009-169-n800
 OpenBabel09051907533D

 23 23  0  0  1  0  0  0  0  0999 V2000
    0.2605    0.2044    0.2927 C   0  0  0  0  0  0  0  0  0  0  0  0
    1.4826    0.6867   -0.3686 C   0  0  1  0  0  0  0  0  0  0  0  0
    1.3226    2.0384   -0.9590 C   0  0  0  0  0  0  0  0  0  0  0  0
    0.2545    2.9251   -0.5779 C   0  0  0  0  0  0  0  0  0  0  0  0
   -0.7484    2.4509    0.1969 C   0  0  0  0  0  0  0  0  0  0  0  0
   -0.7544    1.0574    0.6039 C   0  0  0  0  0  0  0  0  0  0  0  0
    0.2536   -0.8382    0.5779 H   0  0  0  0  0  0  0  0  0  0  0  0
    1.9180   -0.0366   -1.0577 H   0  0  0  0  0  0  0  0  0  0  0  0
    0.2704    3.9510   -0.9294 H   0  0  0  0  0  0  0  0  0  0  0  0
   -1.5766    3.0759    0.5088 H   0  0  0  0  0  0  0  0  0  0  0  0
    2.2605    2.4566   -1.7892 N   0  0  0  0  0  0  0  0  0  0  0  0
    3.0747    2.8037   -2.5061 N   0  0  0  0  0  0  0  0  0  0  0  0
   -1.8821    0.7183    1.2742 O   0  0  0  0  0  0  0  0  0  0  0  0
   -2.0043   -0.6203    1.7438 C   0  0  0  0  0  0  0  0  0  0  0  0
   -2.9568   -0.6671    2.2725 H   0  0  0  0  0  0  0  0  0  0  0  0
   -1.1874   -0.8751    2.4290 H   0  0  0  0  0  0  0  0  0  0  0  0
   -2.0119   -1.3329    0.9104 H   0  0  0  0  0  0  0  0  0  0  0  0
    3.5940   -0.3972    0.9634 S   0  0  0  0  0  0  0  0  0  0  0  0
    2.8644   -1.6393    0.7761 O   0  0  0  0  0  0  0  0  0  0  0  0
    2.6363    0.8537    0.7296 O   0  0  0  0  0  0  0  0  0  0  0  0
    4.3829   -0.1188    2.1507 O   0  0  0  0  0  0  0  0  0  0  0  0
    4.5965   -0.3075   -0.3356 O   0  0  0  0  0  0  0  0  0  0  0  0
    5.3354    0.2717   -0.0851 H   0  0  0  0  0  0  0  0  0  0  0  0
  1  7  1  0  0  0  0
  1  6  1  0  0  0  0
  2  8  1  6  0  0  0
  2  1  1  0  0  0  0
  2 20  1  0  0  0  0
  3  4  2  0  0  0  0
  3  2  1  0  0  0  0
  4  5  1  0  0  0  0
  5 10  1  0  0  0  0
  5  6  2  0  0  0  0
  6 13  1  0  0  0  0
  9  4  1  0  0  0  0
 11  3  1  0  0  0  0
 12 11  1  0  0  0  0
 13 14  1  0  0  0  0
 14 15  1  0  0  0  0
 14 16  1  0  0  0  0
 17 14  1  0  0  0  0
 18 21  2  0  0  0  0
 19 18  2  0  0  0  0
 20 18  1  0  0  0  0
 22 23  1  0  0  0  0
 22 18  1  0  0  0  0
M  RAD  3   1   2  11   2  12   3
M  END
