Coordinates from ORCA-job 4-MeO-Ph-N2-HSO4-B3LYPG-6-31G_dp-MTMO-d009-169-n800
 OpenBabel09051907533D

 23 22  0  0  0  0  0  0  0  0999 V2000
   -0.5451   -0.5325    0.8281 C   0  0  0  0  0  0  0  0  0  0  0  0
    0.6940    0.1108    0.7753 C   0  0  0  0  0  0  0  0  0  0  0  0
    0.8050    1.4232    1.2125 C   0  0  0  0  0  0  0  0  0  0  0  0
   -0.2989    2.1198    1.7049 C   0  0  0  0  0  0  0  0  0  0  0  0
   -1.5310    1.4834    1.7564 C   0  0  0  0  0  0  0  0  0  0  0  0
   -1.6631    0.1551    1.3182 C   0  0  0  0  0  0  0  0  0  0  0  0
   -0.6228   -1.5574    0.4877 H   0  0  0  0  0  0  0  0  0  0  0  0
    1.5693   -0.4071    0.3997 H   0  0  0  0  0  0  0  0  0  0  0  0
   -0.1845    3.1451    2.0368 H   0  0  0  0  0  0  0  0  0  0  0  0
   -2.4107    1.9943    2.1322 H   0  0  0  0  0  0  0  0  0  0  0  0
   13.0248    0.5702   -4.9584 N   0  0  0  0  0  0  0  0  0  0  0  0
   11.9823    0.4660   -4.6061 N   0  0  0  0  0  0  0  0  0  0  0  0
   -2.9149   -0.3727    1.4125 O   0  0  0  0  0  0  0  0  0  0  0  0
   -3.1212   -1.7048    0.9656 C   0  0  0  0  0  0  0  0  0  0  0  0
   -4.1807   -1.9129    1.1211 H   0  0  0  0  0  0  0  0  0  0  0  0
   -2.5250   -2.4223    1.5431 H   0  0  0  0  0  0  0  0  0  0  0  0
   -2.8835   -1.8140   -0.1003 H   0  0  0  0  0  0  0  0  0  0  0  0
    2.5016    2.9988   -0.0222 S   0  0  0  0  0  0  0  0  0  0  0  0
    2.0785    2.0325    1.2324 O   0  0  0  0  0  0  0  0  0  0  0  0
    1.3677    3.7841   -0.4534 O   0  0  0  0  0  0  0  0  0  0  0  0
    3.7762    3.5650    0.3707 O   0  0  0  0  0  0  0  0  0  0  0  0
    2.7681    1.9050   -1.2025 O   0  0  0  0  0  0  0  0  0  0  0  0
    3.6986    1.6311   -1.1332 H   0  0  0  0  0  0  0  0  0  0  0  0
  1  6  1  0  0  0  0
  2  1  2  0  0  0  0
  2  3  1  0  0  0  0
  3 19  1  0  0  0  0
  3  4  2  0  0  0  0
  4  5  1  0  0  0  0
  4  9  1  0  0  0  0
  5 10  1  0  0  0  0
  6 13  1  0  0  0  0
  6  5  2  0  0  0  0
  7  1  1  0  0  0  0
  8  2  1  0  0  0  0
 11 12  3  0  0  0  0
 14 15  1  0  0  0  0
 14 13  1  0  0  0  0
 14 16  1  0  0  0  0
 17 14  1  0  0  0  0
 18 21  2  0  0  0  0
 18 19  1  0  0  0  0
 20 18  2  0  0  0  0
 22 23  1  0  0  0  0
 22 18  1  0  0  0  0
M  END
