Coordinates from ORCA-job 4-MeO-Ph-N2-HSO4-B3LYPG-6-31G_dp-MTMO-d009-169-n800
 OpenBabel09051907533D

 23 22  0  0  0  0  0  0  0  0999 V2000
   -0.1408   -0.5216    1.1158 C   0  0  0  0  0  0  0  0  0  0  0  0
    1.2291   -0.2854    1.2574 C   0  0  0  0  0  0  0  0  0  0  0  0
    1.7558    0.9424    0.8822 C   0  0  0  0  0  0  0  0  0  0  0  0
    0.9464    1.9525    0.3607 C   0  0  0  0  0  0  0  0  0  0  0  0
   -0.4136    1.7174    0.2157 C   0  0  0  0  0  0  0  0  0  0  0  0
   -0.9662    0.4813    0.5911 C   0  0  0  0  0  0  0  0  0  0  0  0
   -0.5452   -1.4800    1.4165 H   0  0  0  0  0  0  0  0  0  0  0  0
    1.8824   -1.0500    1.6627 H   0  0  0  0  0  0  0  0  0  0  0  0
    1.3838    2.9005    0.0695 H   0  0  0  0  0  0  0  0  0  0  0  0
   -1.0735    2.4783   -0.1863 H   0  0  0  0  0  0  0  0  0  0  0  0
    2.8595    4.7533   -1.6834 N   0  0  0  0  0  0  0  0  0  0  0  0
    3.5256    4.9347   -2.5462 N   0  0  0  0  0  0  0  0  0  0  0  0
   -2.3102    0.3595    0.4079 O   0  0  0  0  0  0  0  0  0  0  0  0
   -2.9308   -0.8690    0.7571 C   0  0  0  0  0  0  0  0  0  0  0  0
   -3.9886   -0.7496    0.5181 H   0  0  0  0  0  0  0  0  0  0  0  0
   -2.8242   -1.0855    1.8276 H   0  0  0  0  0  0  0  0  0  0  0  0
   -2.5227   -1.7070    0.1783 H   0  0  0  0  0  0  0  0  0  0  0  0
    4.1747    1.0568   -0.1340 S   0  0  0  0  0  0  0  0  0  0  0  0
    3.1260    1.1939    1.1158 O   0  0  0  0  0  0  0  0  0  0  0  0
    3.5833    1.5768   -1.3464 O   0  0  0  0  0  0  0  0  0  0  0  0
    5.4413    1.5106    0.4043 O   0  0  0  0  0  0  0  0  0  0  0  0
    4.2474   -0.5608   -0.3279 O   0  0  0  0  0  0  0  0  0  0  0  0
    4.9452   -0.8885    0.2648 H   0  0  0  0  0  0  0  0  0  0  0  0
  1  2  1  0  0  0  0
  1  7  1  0  0  0  0
  2  8  1  0  0  0  0
  3 19  1  0  0  0  0
  3  2  2  0  0  0  0
  4  3  1  0  0  0  0
  5  4  2  0  0  0  0
  5  6  1  0  0  0  0
  6  1  2  0  0  0  0
  9  4  1  0  0  0  0
 10  5  1  0  0  0  0
 12 11  3  0  0  0  0
 13  6  1  0  0  0  0
 13 14  1  0  0  0  0
 14 16  1  0  0  0  0
 15 14  1  0  0  0  0
 17 14  1  0  0  0  0
 18 21  2  0  0  0  0
 18 19  1  0  0  0  0
 20 18  2  0  0  0  0
 22 18  1  0  0  0  0
 22 23  1  0  0  0  0
M  END
