Coordinates from ORCA-job 4-MeO-Ph-N2-HSO4-B3LYPG-6-31G_dp-MTMO-d009-169-n800
 OpenBabel09051907533D

 23 22  0  0  0  0  0  0  0  0999 V2000
   -0.7820   -0.5290    0.9310 C   0  0  0  0  0  0  0  0  0  0  0  0
    0.4585    0.1116    0.8775 C   0  0  0  0  0  0  0  0  0  0  0  0
    0.5725    1.4240    1.3139 C   0  0  0  0  0  0  0  0  0  0  0  0
   -0.5298    2.1233    1.8063 C   0  0  0  0  0  0  0  0  0  0  0  0
   -1.7633    1.4895    1.8586 C   0  0  0  0  0  0  0  0  0  0  0  0
   -1.8982    0.1612    1.4212 C   0  0  0  0  0  0  0  0  0  0  0  0
   -0.8619   -1.5539    0.5913 H   0  0  0  0  0  0  0  0  0  0  0  0
    1.3327   -0.4083    0.5019 H   0  0  0  0  0  0  0  0  0  0  0  0
   -0.4131    3.1485    2.1376 H   0  0  0  0  0  0  0  0  0  0  0  0
   -2.6417    2.0024    2.2344 H   0  0  0  0  0  0  0  0  0  0  0  0
   15.4769    0.5455   -6.0323 N   0  0  0  0  0  0  0  0  0  0  0  0
   14.4343    0.4469   -5.6788 N   0  0  0  0  0  0  0  0  0  0  0  0
   -3.1511   -0.3639    1.5164 O   0  0  0  0  0  0  0  0  0  0  0  0
   -3.3603   -1.6959    1.0707 C   0  0  0  0  0  0  0  0  0  0  0  0
   -4.4201   -1.9018    1.2269 H   0  0  0  0  0  0  0  0  0  0  0  0
   -2.7652   -2.4142    1.6484 H   0  0  0  0  0  0  0  0  0  0  0  0
   -3.1235   -1.8064    0.0047 H   0  0  0  0  0  0  0  0  0  0  0  0
    2.2729    2.9932    0.0765 S   0  0  0  0  0  0  0  0  0  0  0  0
    1.8471    2.0310    1.3333 O   0  0  0  0  0  0  0  0  0  0  0  0
    1.1404    3.7782   -0.3587 O   0  0  0  0  0  0  0  0  0  0  0  0
    3.5476    3.5591    0.4696 O   0  0  0  0  0  0  0  0  0  0  0  0
    2.5406    1.8955   -1.0999 O   0  0  0  0  0  0  0  0  0  0  0  0
    3.4717    1.6242   -1.0295 H   0  0  0  0  0  0  0  0  0  0  0  0
  1  6  1  0  0  0  0
  2  1  2  0  0  0  0
  2  3  1  0  0  0  0
  3 19  1  0  0  0  0
  3  4  2  0  0  0  0
  4  5  1  0  0  0  0
  4  9  1  0  0  0  0
  5 10  1  0  0  0  0
  6 13  1  0  0  0  0
  6  5  2  0  0  0  0
  7  1  1  0  0  0  0
  8  2  1  0  0  0  0
 11 12  3  0  0  0  0
 14 15  1  0  0  0  0
 14 13  1  0  0  0  0
 14 16  1  0  0  0  0
 17 14  1  0  0  0  0
 18 21  2  0  0  0  0
 18 19  1  0  0  0  0
 20 18  2  0  0  0  0
 22 23  1  0  0  0  0
 22 18  1  0  0  0  0
M  END
