Coordinates from ORCA-job 4-MeO-Ph-N2-HSO4-B3LYPG-6-31G_dp-MTMO-d009-169-n800
 OpenBabel09051907533D

 23 22  0  0  0  0  0  0  0  0999 V2000
   -0.3911   -0.5391    0.7593 C   0  0  0  0  0  0  0  0  0  0  0  0
    0.8550    0.0901    0.7003 C   0  0  0  0  0  0  0  0  0  0  0  0
    0.9813    1.4038    1.1294 C   0  0  0  0  0  0  0  0  0  0  0  0
   -0.1139    2.1156    1.6194 C   0  0  0  0  0  0  0  0  0  0  0  0
   -1.3529    1.4932    1.6770 C   0  0  0  0  0  0  0  0  0  0  0  0
   -1.5004    0.1638    1.2474 C   0  0  0  0  0  0  0  0  0  0  0  0
   -0.4809   -1.5652    0.4256 H   0  0  0  0  0  0  0  0  0  0  0  0
    1.7239   -0.4398    0.3264 H   0  0  0  0  0  0  0  0  0  0  0  0
    0.0125    3.1415    1.9448 H   0  0  0  0  0  0  0  0  0  0  0  0
   -2.2262    2.0162    2.0512 H   0  0  0  0  0  0  0  0  0  0  0  0
   11.2506    0.6891   -4.1596 N   0  0  0  0  0  0  0  0  0  0  0  0
   10.2094    0.5896   -3.8024 N   0  0  0  0  0  0  0  0  0  0  0  0
   -2.7577   -0.3497    1.3477 O   0  0  0  0  0  0  0  0  0  0  0  0
   -2.9793   -1.6826    0.9108 C   0  0  0  0  0  0  0  0  0  0  0  0
   -4.0404   -1.8784    1.0708 H   0  0  0  0  0  0  0  0  0  0  0  0
   -2.3889   -2.4023    1.4915 H   0  0  0  0  0  0  0  0  0  0  0  0
   -2.7459   -1.8018   -0.1550 H   0  0  0  0  0  0  0  0  0  0  0  0
    2.6940    2.9519   -0.1180 S   0  0  0  0  0  0  0  0  0  0  0  0
    2.2614    1.9993    1.1439 O   0  0  0  0  0  0  0  0  0  0  0  0
    1.5670    3.7427   -0.5572 O   0  0  0  0  0  0  0  0  0  0  0  0
    3.9726    3.5109    0.2722 O   0  0  0  0  0  0  0  0  0  0  0  0
    2.9534    1.8465   -1.2889 O   0  0  0  0  0  0  0  0  0  0  0  0
    3.8813    1.5652   -1.2155 H   0  0  0  0  0  0  0  0  0  0  0  0
  1  6  1  0  0  0  0
  2  1  2  0  0  0  0
  2  3  1  0  0  0  0
  3 19  1  0  0  0  0
  3  4  2  0  0  0  0
  4  5  1  0  0  0  0
  4  9  1  0  0  0  0
  5 10  1  0  0  0  0
  6 13  1  0  0  0  0
  6  5  2  0  0  0  0
  7  1  1  0  0  0  0
  8  2  1  0  0  0  0
 11 12  3  0  0  0  0
 14 15  1  0  0  0  0
 14 13  1  0  0  0  0
 14 16  1  0  0  0  0
 17 14  1  0  0  0  0
 18 21  2  0  0  0  0
 18 19  1  0  0  0  0
 20 18  2  0  0  0  0
 22 23  1  0  0  0  0
 22 18  1  0  0  0  0
M  END
