Coordinates from ORCA-job 4-MeO-Ph-N2-HSO4-B3LYPG-6-31G_dp-MTMO-d009-169-n800
 OpenBabel09051907533D

 23 22  0  0  0  0  0  0  0  0999 V2000
   -0.2017   -0.6551    1.0437 C   0  0  0  0  0  0  0  0  0  0  0  0
    1.1481   -0.2959    1.0823 C   0  0  0  0  0  0  0  0  0  0  0  0
    1.5090    1.0350    0.9251 C   0  0  0  0  0  0  0  0  0  0  0  0
    0.5499    2.0282    0.7251 C   0  0  0  0  0  0  0  0  0  0  0  0
   -0.7910    1.6729    0.6828 C   0  0  0  0  0  0  0  0  0  0  0  0
   -1.1760    0.3310    0.8417 C   0  0  0  0  0  0  0  0  0  0  0  0
   -0.4757   -1.6945    1.1740 H   0  0  0  0  0  0  0  0  0  0  0  0
    1.9149   -1.0461    1.2405 H   0  0  0  0  0  0  0  0  0  0  0  0
    0.8594    3.0594    0.6000 H   0  0  0  0  0  0  0  0  0  0  0  0
   -1.5635    2.4181    0.5276 H   0  0  0  0  0  0  0  0  0  0  0  0
    5.3489    4.7681   -2.3676 N   0  0  0  0  0  0  0  0  0  0  0  0
    5.7528    3.7724   -2.6258 N   0  0  0  0  0  0  0  0  0  0  0  0
   -2.5160    0.0943    0.7870 O   0  0  0  0  0  0  0  0  0  0  0  0
   -2.9720   -1.2427    0.9260 C   0  0  0  0  0  0  0  0  0  0  0  0
   -4.0592   -1.1995    0.8466 H   0  0  0  0  0  0  0  0  0  0  0  0
   -2.6977   -1.6639    1.9019 H   0  0  0  0  0  0  0  0  0  0  0  0
   -2.5775   -1.8890    0.1311 H   0  0  0  0  0  0  0  0  0  0  0  0
    3.7542    1.6065   -0.3071 S   0  0  0  0  0  0  0  0  0  0  0  0
    2.8692    1.3921    1.0544 O   0  0  0  0  0  0  0  0  0  0  0  0
    2.9621    2.2668   -1.3197 O   0  0  0  0  0  0  0  0  0  0  0  0
    5.0325    2.0992    0.1656 O   0  0  0  0  0  0  0  0  0  0  0  0
    3.9526    0.0708   -0.8176 O   0  0  0  0  0  0  0  0  0  0  0  0
    4.7612   -0.2674   -0.3966 H   0  0  0  0  0  0  0  0  0  0  0  0
  1  2  1  0  0  0  0
  1  7  1  0  0  0  0
  2  8  1  0  0  0  0
  3 19  1  0  0  0  0
  3  2  2  0  0  0  0
  4  3  1  0  0  0  0
  5  4  2  0  0  0  0
  5  6  1  0  0  0  0
  6  1  2  0  0  0  0
  9  4  1  0  0  0  0
 10  5  1  0  0  0  0
 12 11  3  0  0  0  0
 13  6  1  0  0  0  0
 13 14  1  0  0  0  0
 14 16  1  0  0  0  0
 15 14  1  0  0  0  0
 17 14  1  0  0  0  0
 18 21  2  0  0  0  0
 18 19  1  0  0  0  0
 20 18  2  0  0  0  0
 22 23  1  0  0  0  0
 22 18  1  0  0  0  0
M  END
