Coordinates from ORCA-job 4-MeO-Ph-N2-HSO4-B3LYPG-6-31G_dp-MTMO-d009-169-n800
 OpenBabel09051907533D

 23 22  0  0  0  0  0  0  0  0999 V2000
   -0.1919   -0.6644    0.9813 C   0  0  0  0  0  0  0  0  0  0  0  0
    1.1515   -0.2858    1.0488 C   0  0  0  0  0  0  0  0  0  0  0  0
    1.4883    1.0600    1.0100 C   0  0  0  0  0  0  0  0  0  0  0  0
    0.5108    2.0496    0.9016 C   0  0  0  0  0  0  0  0  0  0  0  0
   -0.8238    1.6755    0.8309 C   0  0  0  0  0  0  0  0  0  0  0  0
   -1.1843    0.3181    0.8706 C   0  0  0  0  0  0  0  0  0  0  0  0
   -0.4467   -1.7162    1.0172 H   0  0  0  0  0  0  0  0  0  0  0  0
    1.9321   -1.0331    1.1379 H   0  0  0  0  0  0  0  0  0  0  0  0
    0.8016    3.0935    0.8695 H   0  0  0  0  0  0  0  0  0  0  0  0
   -1.6099    2.4176    0.7448 H   0  0  0  0  0  0  0  0  0  0  0  0
    5.5968    4.3724   -2.8646 N   0  0  0  0  0  0  0  0  0  0  0  0
    5.7139    3.2741   -2.8311 N   0  0  0  0  0  0  0  0  0  0  0  0
   -2.5202    0.0630    0.7984 O   0  0  0  0  0  0  0  0  0  0  0  0
   -2.9517   -1.2888    0.8264 C   0  0  0  0  0  0  0  0  0  0  0  0
   -4.0401   -1.2589    0.7570 H   0  0  0  0  0  0  0  0  0  0  0  0
   -2.6630   -1.7861    1.7617 H   0  0  0  0  0  0  0  0  0  0  0  0
   -2.5512   -1.8584   -0.0224 H   0  0  0  0  0  0  0  0  0  0  0  0
    3.7207    1.7823   -0.1677 S   0  0  0  0  0  0  0  0  0  0  0  0
    2.8421    1.4286    1.1692 O   0  0  0  0  0  0  0  0  0  0  0  0
    2.9158    2.5208   -1.1141 O   0  0  0  0  0  0  0  0  0  0  0  0
    4.9919    2.2497    0.3476 O   0  0  0  0  0  0  0  0  0  0  0  0
    3.9415    0.3033   -0.8168 O   0  0  0  0  0  0  0  0  0  0  0  0
    4.7605   -0.0560   -0.4352 H   0  0  0  0  0  0  0  0  0  0  0  0
  1  7  1  0  0  0  0
  1  2  2  0  0  0  0
  2  8  1  0  0  0  0
  3  2  1  0  0  0  0
  3 19  1  0  0  0  0
  4  3  2  0  0  0  0
  5  6  2  0  0  0  0
  5  4  1  0  0  0  0
  6  1  1  0  0  0  0
  9  4  1  0  0  0  0
 10  5  1  0  0  0  0
 11 12  3  0  0  0  0
 13 14  1  0  0  0  0
 13  6  1  0  0  0  0
 14 16  1  0  0  0  0
 15 14  1  0  0  0  0
 17 14  1  0  0  0  0
 18 21  2  0  0  0  0
 18 19  1  0  0  0  0
 20 18  2  0  0  0  0
 22 23  1  0  0  0  0
 22 18  1  0  0  0  0
M  END
