Coordinates from ORCA-job 4-MeO-Ph-N2-HSO4-B3LYPG-6-31G_dp-MTMO-d009-169-n800
 OpenBabel09051907533D

 23 22  0  0  0  0  0  0  0  0999 V2000
   -0.6905   -0.5302    0.8917 C   0  0  0  0  0  0  0  0  0  0  0  0
    0.5492    0.1121    0.8392 C   0  0  0  0  0  0  0  0  0  0  0  0
    0.6611    1.4246    1.2757 C   0  0  0  0  0  0  0  0  0  0  0  0
   -0.4424    2.1224    1.7674 C   0  0  0  0  0  0  0  0  0  0  0  0
   -1.6751    1.4870    1.8187 C   0  0  0  0  0  0  0  0  0  0  0  0
   -1.8081    0.1587    1.3811 C   0  0  0  0  0  0  0  0  0  0  0  0
   -0.7690   -1.5551    0.5519 H   0  0  0  0  0  0  0  0  0  0  0  0
    1.4242   -0.4067    0.4642 H   0  0  0  0  0  0  0  0  0  0  0  0
   -0.3272    3.1477    2.0988 H   0  0  0  0  0  0  0  0  0  0  0  0
   -2.5545    1.9989    2.1939 H   0  0  0  0  0  0  0  0  0  0  0  0
   14.5347    0.5550   -5.6225 N   0  0  0  0  0  0  0  0  0  0  0  0
   13.4929    0.4499   -5.2685 N   0  0  0  0  0  0  0  0  0  0  0  0
   -3.0603   -0.3681    1.4753 O   0  0  0  0  0  0  0  0  0  0  0  0
   -3.2676   -1.7002    1.0292 C   0  0  0  0  0  0  0  0  0  0  0  0
   -4.3273   -1.9074    1.1844 H   0  0  0  0  0  0  0  0  0  0  0  0
   -2.6721   -2.4179    1.6072 H   0  0  0  0  0  0  0  0  0  0  0  0
   -3.0296   -1.8103   -0.0366 H   0  0  0  0  0  0  0  0  0  0  0  0
    2.3604    2.9962    0.0398 S   0  0  0  0  0  0  0  0  0  0  0  0
    1.9350    2.0331    1.2961 O   0  0  0  0  0  0  0  0  0  0  0  0
    1.2273    3.7806   -0.3952 O   0  0  0  0  0  0  0  0  0  0  0  0
    3.6345    3.5628    0.4333 O   0  0  0  0  0  0  0  0  0  0  0  0
    2.6289    1.8992   -1.1371 O   0  0  0  0  0  0  0  0  0  0  0  0
    3.5603    1.6286   -1.0668 H   0  0  0  0  0  0  0  0  0  0  0  0
  1  6  1  0  0  0  0
  2  1  2  0  0  0  0
  2  3  1  0  0  0  0
  3 19  1  0  0  0  0
  3  4  2  0  0  0  0
  4  5  1  0  0  0  0
  4  9  1  0  0  0  0
  5 10  1  0  0  0  0
  6 13  1  0  0  0  0
  6  5  2  0  0  0  0
  7  1  1  0  0  0  0
  8  2  1  0  0  0  0
 11 12  3  0  0  0  0
 14 15  1  0  0  0  0
 14 13  1  0  0  0  0
 14 16  1  0  0  0  0
 17 14  1  0  0  0  0
 18 21  2  0  0  0  0
 18 19  1  0  0  0  0
 20 18  2  0  0  0  0
 22 23  1  0  0  0  0
 22 18  1  0  0  0  0
M  END
