17
Coordinates from ORCA-job 4-NO2-Ph-N2-OH-B3LYPG-6-31G_dp-MTMO-d009-169-n900
  C   -0.84576150108279     -0.94700774782554     -1.03103795425186
  C   0.03781991824210      0.03747679935687     -0.54620319545408
  C   -0.56049312615104      0.97523256988664      0.22629567492971
  C   -1.85697010981541      1.13902591490408      0.62078624420033
  C   -2.72017735395637      0.14416031568427      0.12690261865777
  C   -2.19496231430832     -0.86635600005965     -0.68177690155122
  H   -0.49644223309224     -1.75603769221289     -1.66304793461069
  H   1.10404772990599      0.02037845725861     -0.78777545390343
  H   -2.21826287617614      1.94495095365373      1.25156652238375
  H   -3.77821790671133      0.15057938790410      0.36432164823377
  N   3.42716572686454      1.74942046152340     -0.21263567034289
  N   3.13091872520844      0.78622024113731     -0.68350442231005
  O   4.66000149529542     -0.52891265999768     -1.38168290347469
  H   4.02894060818291     -1.19638828398476     -1.70516726023022
  N   -3.11408404873857     -1.90162336891444     -1.19289270073416
  O   -4.29718500258195     -1.81607278060814     -0.87192361808390
  O   -2.63543773108529     -2.78054656770591     -1.90532469345815
