17
Coordinates from ORCA-job 4-NO2-Ph-N2-OH-B3LYPG-6-31G_dp-MTMO-d009-169-n900
  C   0.60595382301855      0.40154027996853     -0.38670154810505
  C   0.50424464668107      0.80632363895372      0.93563956898923
  C   -0.65572175974623      0.51138211575674      1.66969568370368
  C   -1.71148738906790     -0.19218731728899      1.06940710641665
  C   -1.61128516207069     -0.59854665104662     -0.25524700890894
  C   -0.45341503461397     -0.29753676845142     -0.97175733714068
  H   1.48810816261493      0.61558625660865     -0.97708245470572
  H   1.30715936877894      1.35003764690842      1.42097099770839
  H   -2.60771766475673     -0.42052050187551      1.64112631851727
  H   -2.41105291948791     -1.14228848121640     -0.74232526362763
  N   0.08184589012896     -2.29758100841401     -6.29936514157059
  N   0.33105321505295     -2.69126730614650     -5.29704005058850
  O   -0.69796270971706      0.93313151281883      2.95808739340017
  H   -1.53984690854507      0.67672788546824      3.35790560836470
  N   -0.34718942995757     -0.72256596989884     -2.36675005270595
  O   -1.29933303216649     -1.33474566160225     -2.85503235207710
  O   0.68754690385415     -0.44298967054259     -2.97463146766994
