21
Coordinates from ORCA-job 4-NO2-Ph-N2-HSO4-B3LYPG-6-31G_dp-MTMO-d009-169-n800
  C   0.56234202618561     -0.51044334761477      0.09029078092334
  C   1.70089277067657      0.04488729792168     -0.67548814615649
  C   1.47561738862279      1.47049418281760     -0.90714700907968
  C   0.56992925136869      2.31584148795441     -0.21658920138196
  C   -0.34329704792318      1.73166552877815      0.61091897424813
  C   -0.33043996259068      0.30336979301519      0.70585249500284
  H   0.47838985054660     -1.58471500302466      0.18894036244072
  H   1.94804877793621     -0.53323665407456     -1.56597212747485
  H   0.60973842339001      3.38972386223782     -0.35997640808068
  H   -1.06903792972282      2.30179605296230      1.17163335246982
  N   -1.40404764951088     -0.33616510653873      1.50647665251908
  O   -1.43348115949573     -1.56249604231549      1.55702984610981
  O   -2.20149232998524      0.41223931517441      2.06687884154470
  N   2.41873308720918      2.12536556737920     -1.87354735561037
  N   3.13423593902396      2.59859528204146     -2.59987990982002
  S   3.57626104158651      0.65829531820914      1.26473349669395
  O   4.72289712675980     -0.31832270063154      1.87299219731453
  H   5.54993717249699     -0.12202207127283      1.40206588660512
  O   4.23951219333414      1.82233071513840      0.68125376632721
  O   3.06962480231485     -0.30246723309257      0.08275434268448
  O   2.56323622777656      0.81066375493537      2.28897916272035
