Coordinates from ORCA-job Ph-N2-NO3-B3LYPG-aug-cc-pVDZ-scan-d09-49-n400
 OpenBabel10311713213D

 17 17  0  0  1  0  0  0  0  0999 V2000
   -0.7863   -0.3076   -0.2673 C   0  0  0  0  0  0  0  0  0  0  0  0
    0.2231    0.0327   -1.0903 C   0  0  0  0  0  0  0  0  0  0  0  0
    1.2744    1.0246   -0.7054 C   0  0  0  0  0  0  0  0  0  0  0  0
    1.2111    1.5595    0.7776 C   0  0  1  0  0  0  0  0  0  0  0  0
    0.0240    1.1047    1.5624 C   0  0  0  0  0  0  0  0  0  0  0  0
   -0.8977    0.2577    1.0689 C   0  0  0  0  0  0  0  0  0  0  0  0
   -1.5306   -1.0305   -0.5999 H   0  0  0  0  0  0  0  0  0  0  0  0
    0.3364   -0.3929   -2.0878 H   0  0  0  0  0  0  0  0  0  0  0  0
    1.9555    1.3534   -1.2969 N   0  0  0  0  0  0  0  0  0  0  0  0
    2.7969    1.7690   -2.0084 N   0  0  0  0  0  0  0  0  0  0  0  0
   -1.7543   -0.0220    1.6830 H   0  0  0  0  0  0  0  0  0  0  0  0
   -0.0668    1.5232    2.5655 H   0  0  0  0  0  0  0  0  0  0  0  0
    1.2457    2.6585    0.7161 H   0  0  0  0  0  0  0  0  0  0  0  0
    2.4825    1.3613    1.4813 O   0  0  0  0  0  0  0  0  0  0  0  0
    2.8550    0.0063    1.7597 N   0  0  0  0  0  0  0  0  0  0  0  0
    3.8056   -0.0620    2.4920 O   0  0  0  0  0  0  0  0  0  0  0  0
    2.2081   -0.8710    1.2366 O   0  0  0  0  0  0  0  0  0  0  0  0
  1  6  1  0  0  0  0
  2  3  2  0  0  0  0
  2  1  1  0  0  0  0
  3  4  1  0  0  0  0
  4 13  1  6  0  0  0
  4 14  1  0  0  0  0
  4  5  1  0  0  0  0
  5 12  1  0  0  0  0
  6  5  2  0  0  0  0
  6 11  1  0  0  0  0
  7  1  1  0  0  0  0
  8  2  1  0  0  0  0
  9  3  1  0  0  0  0
 10  9  1  0  0  0  0
 14 15  1  0  0  0  0
 15 16  2  0  0  0  0
 17 15  2  0  0  0  0
M  RAD  3   1   2   9   2  10   3
M  END
