Coordinates from ORCA-job Ph-N2-NO3-B3LYPG-aug-cc-pVDZ-scan-d09-49-n400
 OpenBabel10311713213D

 17 15  0  0  0  0  0  0  0  0999 V2000
   -1.7478    0.3098   -0.5141 C   0  0  0  0  0  0  0  0  0  0  0  0
   -0.5124    0.1296   -1.1894 C   0  0  0  0  0  0  0  0  0  0  0  0
    0.4767    0.3770   -0.2753 C   0  0  0  0  0  0  0  0  0  0  0  0
    0.5452    0.7050    0.9390 C   0  0  0  0  0  0  0  0  0  0  0  0
   -0.6699    0.8889    1.6328 C   0  0  0  0  0  0  0  0  0  0  0  0
   -1.8184    0.6751    0.8442 C   0  0  0  0  0  0  0  0  0  0  0  0
   -2.6685    0.1562   -1.0799 H   0  0  0  0  0  0  0  0  0  0  0  0
   -0.4240   -0.1511   -2.2347 H   0  0  0  0  0  0  0  0  0  0  0  0
    2.9649   -0.2762   -2.5079 N   0  0  0  0  0  0  0  0  0  0  0  0
    4.0161   -0.5463   -2.7108 N   0  0  0  0  0  0  0  0  0  0  0  0
   -2.8011    0.7975    1.3029 H   0  0  0  0  0  0  0  0  0  0  0  0
   -0.7394    1.1718    2.6826 H   0  0  0  0  0  0  0  0  0  0  0  0
    2.2970    0.9939    1.9128 H   0  0  0  0  0  0  0  0  0  0  0  0
    4.2583    0.9249    0.8942 O   0  0  0  0  0  0  0  0  0  0  0  0
    4.1951    1.1814    2.0822 N   0  0  0  0  0  0  0  0  0  0  0  0
    5.0856    1.4245    2.8567 O   0  0  0  0  0  0  0  0  0  0  0  0
    2.9251    1.2031    2.6521 O   0  0  0  0  0  0  0  0  0  0  0  0
  1  6  1  0  0  0  0
  2  1  2  0  0  0  0
  2  3  1  0  0  0  0
  3  4  2  0  0  0  0
  4  5  1  0  0  0  0
  5 12  1  0  0  0  0
  6 11  1  0  0  0  0
  6  5  2  0  0  0  0
  7  1  1  0  0  0  0
  8  2  1  0  0  0  0
 10  9  3  0  0  0  0
 13 17  1  0  0  0  0
 14 15  2  0  0  0  0
 15 17  1  0  0  0  0
 15 16  2  0  0  0  0
M  RAD  2   3   2   4   2
M  END
