Coordinates from ORCA-job Ph-N2-NO3-B3LYPG-aug-cc-pVDZ-scan-d09-49-n400
 OpenBabel10311713213D

 17 17  0  0  1  0  0  0  0  0999 V2000
   -0.7536   -0.4093   -0.1969 C   0  0  0  0  0  0  0  0  0  0  0  0
    0.2346    0.0083   -1.0499 C   0  0  0  0  0  0  0  0  0  0  0  0
    1.0887    1.0303   -0.5800 C   0  0  1  0  0  0  0  0  0  0  0  0
    1.1750    1.5935    0.7618 C   0  0  1  0  0  0  0  0  0  0  0  0
   -0.0331    1.1942    1.5259 C   0  0  0  0  0  0  0  0  0  0  0  0
   -0.8924    0.2347    1.0816 C   0  0  0  0  0  0  0  0  0  0  0  0
   -1.4382   -1.2013   -0.4926 H   0  0  0  0  0  0  0  0  0  0  0  0
    0.3667   -0.4141   -2.0440 H   0  0  0  0  0  0  0  0  0  0  0  0
    2.1010    1.6106   -1.6028 N   0  0  0  0  0  0  0  0  0  0  0  0
    2.8538    2.0313   -2.3229 N   0  0  0  0  0  0  0  0  0  0  0  0
   -1.7430   -0.0358    1.7091 H   0  0  0  0  0  0  0  0  0  0  0  0
   -0.1974    1.6968    2.4781 H   0  0  0  0  0  0  0  0  0  0  0  0
    1.3855    2.6680    0.8008 H   0  0  0  0  0  0  0  0  0  0  0  0
    2.5270    1.2394    1.5483 O   0  0  0  0  0  0  0  0  0  0  0  0
    2.8153   -0.0913    1.8167 N   0  0  0  0  0  0  0  0  0  0  0  0
    3.7960   -0.2410    2.5142 O   0  0  0  0  0  0  0  0  0  0  0  0
    2.0969   -0.9491    1.3399 O   0  0  0  0  0  0  0  0  0  0  0  0
  1  6  1  0  0  0  0
  2  3  1  0  0  0  0
  2  1  2  0  0  0  0
  3  9  1  1  0  0  0
  3  4  1  0  0  0  0
  4 13  1  6  0  0  0
  4  5  1  0  0  0  0
  4 14  1  0  0  0  0
  5 12  1  0  0  0  0
  6  5  2  0  0  0  0
  6 11  1  0  0  0  0
  7  1  1  0  0  0  0
  8  2  1  0  0  0  0
 10  9  1  0  0  0  0
 14 15  1  0  0  0  0
 15 16  2  0  0  0  0
 17 15  2  0  0  0  0
M  RAD  3   3   2   9   2  10   3
M  END
