Coordinates from ORCA-job Ph-N2-NO3-B3LYPG-aug-cc-pVDZ-scan-d09-49-n400
 OpenBabel10311713213D

 17 15  0  0  0  0  0  0  0  0999 V2000
   -1.6814    0.2971   -0.4853 C   0  0  0  0  0  0  0  0  0  0  0  0
   -0.3868    0.1647   -1.0517 C   0  0  0  0  0  0  0  0  0  0  0  0
    0.5146    0.4618   -0.0626 C   0  0  0  0  0  0  0  0  0  0  0  0
    0.4528    0.8026    1.1483 C   0  0  0  0  0  0  0  0  0  0  0  0
   -0.8187    0.9427    1.7388 C   0  0  0  0  0  0  0  0  0  0  0  0
   -1.8846    0.6714    0.8567 C   0  0  0  0  0  0  0  0  0  0  0  0
   -2.5433    0.0990   -1.1251 H   0  0  0  0  0  0  0  0  0  0  0  0
   -0.2010   -0.1218   -2.0826 H   0  0  0  0  0  0  0  0  0  0  0  0
    3.1143   -0.4534   -3.1224 N   0  0  0  0  0  0  0  0  0  0  0  0
    4.1389   -0.7238   -3.4323 N   0  0  0  0  0  0  0  0  0  0  0  0
   -2.9077    0.7549    1.2275 H   0  0  0  0  0  0  0  0  0  0  0  0
   -0.9894    1.2317    2.7750 H   0  0  0  0  0  0  0  0  0  0  0  0
    2.2501    1.1002    2.0965 H   0  0  0  0  0  0  0  0  0  0  0  0
    4.1371    0.8522    0.9861 O   0  0  0  0  0  0  0  0  0  0  0  0
    4.1585    1.1747    2.1589 N   0  0  0  0  0  0  0  0  0  0  0  0
    5.1041    1.3998    2.8706 O   0  0  0  0  0  0  0  0  0  0  0  0
    2.9251    1.3112    2.7910 O   0  0  0  0  0  0  0  0  0  0  0  0
  1  6  1  0  0  0  0
  2  1  2  0  0  0  0
  2  3  1  0  0  0  0
  3  4  2  0  0  0  0
  4  5  1  0  0  0  0
  5 12  1  0  0  0  0
  6 11  1  0  0  0  0
  6  5  2  0  0  0  0
  7  1  1  0  0  0  0
  8  2  1  0  0  0  0
 10  9  3  0  0  0  0
 13 17  1  0  0  0  0
 14 15  2  0  0  0  0
 15 17  1  0  0  0  0
 15 16  2  0  0  0  0
M  RAD  2   3   2   4   2
M  END
