Coordinates from ORCA-job Ph-N2-NO3-B3LYPG-aug-cc-pVDZ-scan-d09-49-n400
 OpenBabel10311713213D

 17 15  0  0  0  0  0  0  0  0999 V2000
   -1.6378    0.2958   -0.4826 C   0  0  0  0  0  0  0  0  0  0  0  0
   -0.3248    0.1820   -1.0096 C   0  0  0  0  0  0  0  0  0  0  0  0
    0.5408    0.4922    0.0081 C   0  0  0  0  0  0  0  0  0  0  0  0
    0.4339    0.8309    1.2155 C   0  0  0  0  0  0  0  0  0  0  0  0
   -0.8553    0.9531    1.7683 C   0  0  0  0  0  0  0  0  0  0  0  0
   -1.8887    0.6666    0.8526 C   0  0  0  0  0  0  0  0  0  0  0  0
   -2.4765    0.0855   -1.1489 H   0  0  0  0  0  0  0  0  0  0  0  0
   -0.1064   -0.1029   -2.0348 H   0  0  0  0  0  0  0  0  0  0  0  0
    3.0911   -0.5667   -3.4029 N   0  0  0  0  0  0  0  0  0  0  0  0
    4.1026   -0.8086   -3.7736 N   0  0  0  0  0  0  0  0  0  0  0  0
   -2.9240    0.7349    1.1911 H   0  0  0  0  0  0  0  0  0  0  0  0
   -1.0620    1.2389    2.7988 H   0  0  0  0  0  0  0  0  0  0  0  0
    2.2326    1.1386    2.1782 H   0  0  0  0  0  0  0  0  0  0  0  0
    4.1172    0.8535    1.0713 O   0  0  0  0  0  0  0  0  0  0  0  0
    4.1415    1.1964    2.2386 N   0  0  0  0  0  0  0  0  0  0  0  0
    5.0892    1.4211    2.9475 O   0  0  0  0  0  0  0  0  0  0  0  0
    2.9092    1.3537    2.8693 O   0  0  0  0  0  0  0  0  0  0  0  0
  1  6  1  0  0  0  0
  2  1  2  0  0  0  0
  2  3  1  0  0  0  0
  3  4  2  0  0  0  0
  4  5  1  0  0  0  0
  5 12  1  0  0  0  0
  6 11  1  0  0  0  0
  6  5  2  0  0  0  0
  7  1  1  0  0  0  0
  8  2  1  0  0  0  0
 10  9  3  0  0  0  0
 13 17  1  0  0  0  0
 14 15  2  0  0  0  0
 15 17  1  0  0  0  0
 15 16  2  0  0  0  0
M  RAD  2   3   2   4   2
M  END
