Coordinates from ORCA-job Ph-N2-NO3-B3LYPG-aug-cc-pVDZ-scan-d09-49-n400
 OpenBabel10311713213D

 17 15  0  0  0  0  0  0  0  0999 V2000
   -1.7496    0.3087   -0.5087 C   0  0  0  0  0  0  0  0  0  0  0  0
   -0.5122    0.1302   -1.1808 C   0  0  0  0  0  0  0  0  0  0  0  0
    0.4743    0.3817   -0.2648 C   0  0  0  0  0  0  0  0  0  0  0  0
    0.5382    0.7117    0.9491 C   0  0  0  0  0  0  0  0  0  0  0  0
   -0.6786    0.8941    1.6400 C   0  0  0  0  0  0  0  0  0  0  0  0
   -1.8245    0.6762    0.8487 C   0  0  0  0  0  0  0  0  0  0  0  0
   -2.6686    0.1520   -1.0765 H   0  0  0  0  0  0  0  0  0  0  0  0
   -0.4208   -0.1520   -2.2254 H   0  0  0  0  0  0  0  0  0  0  0  0
    2.9958   -0.2863   -2.5630 N   0  0  0  0  0  0  0  0  0  0  0  0
    4.0439   -0.5626   -2.7736 N   0  0  0  0  0  0  0  0  0  0  0  0
   -2.8087    0.7969    1.3047 H   0  0  0  0  0  0  0  0  0  0  0  0
   -0.7514    1.1785    2.6891 H   0  0  0  0  0  0  0  0  0  0  0  0
    2.2933    1.0028    1.9218 H   0  0  0  0  0  0  0  0  0  0  0  0
    4.2552    0.9161    0.9065 O   0  0  0  0  0  0  0  0  0  0  0  0
    4.1921    1.1805    2.0926 N   0  0  0  0  0  0  0  0  0  0  0  0
    5.0829    1.4231    2.8669 O   0  0  0  0  0  0  0  0  0  0  0  0
    2.9213    1.2136    2.6606 O   0  0  0  0  0  0  0  0  0  0  0  0
  1  6  1  0  0  0  0
  2  1  2  0  0  0  0
  2  3  1  0  0  0  0
  3  4  2  0  0  0  0
  4  5  1  0  0  0  0
  5 12  1  0  0  0  0
  6 11  1  0  0  0  0
  6  5  2  0  0  0  0
  7  1  1  0  0  0  0
  8  2  1  0  0  0  0
 10  9  3  0  0  0  0
 13 17  1  0  0  0  0
 14 15  2  0  0  0  0
 15 17  1  0  0  0  0
 15 16  2  0  0  0  0
M  RAD  2   3   2   4   2
M  END
