Coordinates from ORCA-job Ph-N2-NO3-B3LYPG-aug-cc-pVDZ-scan-d09-49-n400
 OpenBabel10311713213D

 17 17  0  0  1  0  0  0  0  0999 V2000
   -0.7574   -0.3420   -0.2445 C   0  0  0  0  0  0  0  0  0  0  0  0
    0.2487    0.0156   -1.0707 C   0  0  0  0  0  0  0  0  0  0  0  0
    1.2368    1.0378   -0.6796 C   0  0  0  0  0  0  0  0  0  0  0  0
    1.2161    1.5667    0.7692 C   0  0  1  0  0  0  0  0  0  0  0  0
    0.0144    1.1409    1.5484 C   0  0  0  0  0  0  0  0  0  0  0  0
   -0.8891    0.2620    1.0705 C   0  0  0  0  0  0  0  0  0  0  0  0
   -1.4794   -1.0931   -0.5618 H   0  0  0  0  0  0  0  0  0  0  0  0
    0.3715   -0.4254   -2.0600 H   0  0  0  0  0  0  0  0  0  0  0  0
    1.9660    1.4363   -1.3700 N   0  0  0  0  0  0  0  0  0  0  0  0
    2.7555    1.8767   -2.0974 N   0  0  0  0  0  0  0  0  0  0  0  0
   -1.7507   -0.0063    1.6830 H   0  0  0  0  0  0  0  0  0  0  0  0
   -0.0997    1.5935    2.5335 H   0  0  0  0  0  0  0  0  0  0  0  0
    1.2996    2.6636    0.7435 H   0  0  0  0  0  0  0  0  0  0  0  0
    2.4907    1.3163    1.4942 O   0  0  0  0  0  0  0  0  0  0  0  0
    2.8255   -0.0388    1.7715 N   0  0  0  0  0  0  0  0  0  0  0  0
    3.7800   -0.1344    2.4997 O   0  0  0  0  0  0  0  0  0  0  0  0
    2.1543   -0.9042    1.2575 O   0  0  0  0  0  0  0  0  0  0  0  0
  1  6  1  0  0  0  0
  2  3  2  0  0  0  0
  2  1  1  0  0  0  0
  3  4  1  0  0  0  0
  4 13  1  6  0  0  0
  4 14  1  0  0  0  0
  4  5  1  0  0  0  0
  5 12  1  0  0  0  0
  6  5  2  0  0  0  0
  6 11  1  0  0  0  0
  7  1  1  0  0  0  0
  8  2  1  0  0  0  0
  9  3  1  0  0  0  0
 10  9  1  0  0  0  0
 14 15  1  0  0  0  0
 15 16  2  0  0  0  0
 17 15  2  0  0  0  0
M  RAD  3   1   2   9   2  10   3
M  END
