Coordinates from ORCA-job Ph-N2-NO3-B3LYPG-aug-cc-pVDZ-scan-d09-49-n400
 OpenBabel10311713213D

 17 17  0  0  1  0  0  0  0  0999 V2000
   -0.7476   -0.3944   -0.2082 C   0  0  0  0  0  0  0  0  0  0  0  0
    0.2463    0.0066   -1.0519 C   0  0  0  0  0  0  0  0  0  0  0  0
    1.1380    1.0279   -0.6064 C   0  0  1  0  0  0  0  0  0  0  0  0
    1.1955    1.5809    0.7664 C   0  0  1  0  0  0  0  0  0  0  0  0
   -0.0166    1.1800    1.5348 C   0  0  0  0  0  0  0  0  0  0  0  0
   -0.8873    0.2435    1.0800 C   0  0  0  0  0  0  0  0  0  0  0  0
   -1.4454   -1.1731   -0.5092 H   0  0  0  0  0  0  0  0  0  0  0  0
    0.3711   -0.4213   -2.0454 H   0  0  0  0  0  0  0  0  0  0  0  0
    2.0676    1.5720   -1.5490 N   0  0  0  0  0  0  0  0  0  0  0  0
    2.8155    2.0079   -2.2778 N   0  0  0  0  0  0  0  0  0  0  0  0
   -1.7444   -0.0229    1.7003 H   0  0  0  0  0  0  0  0  0  0  0  0
   -0.1691    1.6711    2.4952 H   0  0  0  0  0  0  0  0  0  0  0  0
    1.3644    2.6653    0.7863 H   0  0  0  0  0  0  0  0  0  0  0  0
    2.5069    1.2586    1.5319 O   0  0  0  0  0  0  0  0  0  0  0  0
    2.8064   -0.0825    1.8061 N   0  0  0  0  0  0  0  0  0  0  0  0
    3.7845   -0.2124    2.5062 O   0  0  0  0  0  0  0  0  0  0  0  0
    2.0967   -0.9422    1.3278 O   0  0  0  0  0  0  0  0  0  0  0  0
  1  6  1  0  0  0  0
  2  3  1  0  0  0  0
  2  1  2  0  0  0  0
  3  9  1  1  0  0  0
  3  4  1  0  0  0  0
  4 13  1  6  0  0  0
  4 14  1  0  0  0  0
  4  5  1  0  0  0  0
  5 12  1  0  0  0  0
  6  5  2  0  0  0  0
  6 11  1  0  0  0  0
  7  1  1  0  0  0  0
  8  2  1  0  0  0  0
 10  9  1  0  0  0  0
 14 15  1  0  0  0  0
 15 16  2  0  0  0  0
 17 15  2  0  0  0  0
M  RAD  3   3   2   9   2  10   3
M  END
