Coordinates from ORCA-job Ph-N2-NO3-B3LYPG-aug-cc-pVDZ-scan-d09-49-n400
 OpenBabel10311713213D

 17 15  0  0  0  0  0  0  0  0999 V2000
   -1.6726    0.3671   -0.6018 C   0  0  0  0  0  0  0  0  0  0  0  0
   -0.4899    0.0844   -1.3216 C   0  0  0  0  0  0  0  0  0  0  0  0
    0.5663    0.2174   -0.4633 C   0  0  0  0  0  0  0  0  0  0  0  0
    0.7735    0.5162    0.7613 C   0  0  0  0  0  0  0  0  0  0  0  0
   -0.4255    0.8018    1.4703 C   0  0  0  0  0  0  0  0  0  0  0  0
   -1.6340    0.7166    0.7607 C   0  0  0  0  0  0  0  0  0  0  0  0
   -2.6264    0.3102   -1.1282 H   0  0  0  0  0  0  0  0  0  0  0  0
   -0.4661   -0.1883   -2.3731 H   0  0  0  0  0  0  0  0  0  0  0  0
    2.3441   -0.2183   -1.6346 N   0  0  0  0  0  0  0  0  0  0  0  0
    3.4390   -0.3308   -1.7255 N   0  0  0  0  0  0  0  0  0  0  0  0
   -2.5715    0.9290    1.2772 H   0  0  0  0  0  0  0  0  0  0  0  0
   -0.4162    1.0762    2.5258 H   0  0  0  0  0  0  0  0  0  0  0  0
    2.3209    0.6469    1.7546 H   0  0  0  0  0  0  0  0  0  0  0  0
    4.0948    1.5620    0.7718 O   0  0  0  0  0  0  0  0  0  0  0  0
    4.1231    1.2968    1.9633 N   0  0  0  0  0  0  0  0  0  0  0  0
    5.0143    1.4947    2.7544 O   0  0  0  0  0  0  0  0  0  0  0  0
    3.0089    0.6832    2.4958 O   0  0  0  0  0  0  0  0  0  0  0  0
  1  6  1  0  0  0  0
  2  1  2  0  0  0  0
  2  3  1  0  0  0  0
  3  4  2  0  0  0  0
  4  5  1  0  0  0  0
  5 12  1  0  0  0  0
  6 11  1  0  0  0  0
  6  5  2  0  0  0  0
  7  1  1  0  0  0  0
  8  2  1  0  0  0  0
 10  9  3  0  0  0  0
 13 17  1  0  0  0  0
 14 15  2  0  0  0  0
 15 17  1  0  0  0  0
 15 16  2  0  0  0  0
M  RAD  2   3   2   4   2
M  END
