Coordinates from ORCA-job Ph-N2-NO3-B3LYPG-aug-cc-pVDZ-scan-d09-49-n400
 OpenBabel10311713213D

 17 15  0  0  0  0  0  0  0  0999 V2000
   -1.7242    0.3241   -0.5539 C   0  0  0  0  0  0  0  0  0  0  0  0
   -0.5113    0.1185   -1.2611 C   0  0  0  0  0  0  0  0  0  0  0  0
    0.5057    0.3258   -0.3702 C   0  0  0  0  0  0  0  0  0  0  0  0
    0.6252    0.6383    0.8461 C   0  0  0  0  0  0  0  0  0  0  0  0
   -0.5730    0.8453    1.5666 C   0  0  0  0  0  0  0  0  0  0  0  0
   -1.7487    0.6743    0.8094 C   0  0  0  0  0  0  0  0  0  0  0  0
   -2.6624    0.2030   -1.0986 H   0  0  0  0  0  0  0  0  0  0  0  0
   -0.4562   -0.1516   -2.3113 H   0  0  0  0  0  0  0  0  0  0  0  0
    2.6844   -0.2293   -2.1620 N   0  0  0  0  0  0  0  0  0  0  0  0
    3.7549   -0.4561   -2.3077 N   0  0  0  0  0  0  0  0  0  0  0  0
   -2.7147    0.8191    1.2963 H   0  0  0  0  0  0  0  0  0  0  0  0
   -0.6074    1.1178    2.6211 H   0  0  0  0  0  0  0  0  0  0  0  0
    2.3192    0.9030    1.8583 H   0  0  0  0  0  0  0  0  0  0  0  0
    4.2823    1.0520    0.8465 O   0  0  0  0  0  0  0  0  0  0  0  0
    4.2008    1.2152    2.0501 N   0  0  0  0  0  0  0  0  0  0  0  0
    5.0723    1.4695    2.8429 O   0  0  0  0  0  0  0  0  0  0  0  0
    2.9359    1.0960    2.6147 O   0  0  0  0  0  0  0  0  0  0  0  0
  1  6  1  0  0  0  0
  2  1  2  0  0  0  0
  2  3  1  0  0  0  0
  3  4  2  0  0  0  0
  4  5  1  0  0  0  0
  5 12  1  0  0  0  0
  6 11  1  0  0  0  0
  6  5  2  0  0  0  0
  7  1  1  0  0  0  0
  8  2  1  0  0  0  0
 10  9  3  0  0  0  0
 13 17  1  0  0  0  0
 14 15  2  0  0  0  0
 15 17  1  0  0  0  0
 15 16  2  0  0  0  0
M  RAD  2   3   2   4   2
M  END
