Coordinates from ORCA-job Ph-N2-NO3-B3LYPG-aug-cc-pVDZ-scan-d09-49-n400
 OpenBabel10311713213D

 17 15  0  0  0  0  0  0  0  0999 V2000
   -1.6934    0.2983   -0.4887 C   0  0  0  0  0  0  0  0  0  0  0  0
   -0.4077    0.1559   -1.0734 C   0  0  0  0  0  0  0  0  0  0  0  0
    0.5067    0.4462   -0.0945 C   0  0  0  0  0  0  0  0  0  0  0  0
    0.4664    0.7866    1.1166 C   0  0  0  0  0  0  0  0  0  0  0  0
   -0.7957    0.9362    1.7245 C   0  0  0  0  0  0  0  0  0  0  0  0
   -1.8755    0.6736    0.8564 C   0  0  0  0  0  0  0  0  0  0  0  0
   -2.5655    0.1071   -1.1168 H   0  0  0  0  0  0  0  0  0  0  0  0
   -0.2379   -0.1315   -2.1068 H   0  0  0  0  0  0  0  0  0  0  0  0
    3.1004   -0.4187   -3.0522 N   0  0  0  0  0  0  0  0  0  0  0  0
    4.1207   -0.7135   -3.3541 N   0  0  0  0  0  0  0  0  0  0  0  0
   -2.8928    0.7649    1.2411 H   0  0  0  0  0  0  0  0  0  0  0  0
   -0.9500    1.2259    2.7631 H   0  0  0  0  0  0  0  0  0  0  0  0
    2.2576    1.0847    2.0685 H   0  0  0  0  0  0  0  0  0  0  0  0
    4.1661    0.8649    0.9833 O   0  0  0  0  0  0  0  0  0  0  0  0
    4.1651    1.1790    2.1590 N   0  0  0  0  0  0  0  0  0  0  0  0
    5.0972    1.4087    2.8869 O   0  0  0  0  0  0  0  0  0  0  0  0
    2.9208    1.2969    2.7741 O   0  0  0  0  0  0  0  0  0  0  0  0
  1  6  1  0  0  0  0
  2  1  2  0  0  0  0
  2  3  1  0  0  0  0
  3  4  2  0  0  0  0
  4  5  1  0  0  0  0
  5 12  1  0  0  0  0
  6 11  1  0  0  0  0
  6  5  2  0  0  0  0
  7  1  1  0  0  0  0
  8  2  1  0  0  0  0
 10  9  3  0  0  0  0
 13 17  1  0  0  0  0
 14 15  2  0  0  0  0
 15 17  1  0  0  0  0
 15 16  2  0  0  0  0
M  RAD  2   3   2   4   2
M  END
