Coordinates from ORCA-job Ph-N2-NO3-B3LYPG-aug-cc-pVDZ-scan-d09-49-n400
 OpenBabel10311713213D

 17 17  0  0  1  0  0  0  0  0999 V2000
   -0.7477   -0.3698   -0.2249 C   0  0  0  0  0  0  0  0  0  0  0  0
    0.2541    0.0078   -1.0574 C   0  0  0  0  0  0  0  0  0  0  0  0
    1.1911    1.0333   -0.6426 C   0  0  0  0  0  0  0  0  0  0  0  0
    1.2091    1.5727    0.7676 C   0  0  1  0  0  0  0  0  0  0  0  0
   -0.0009    1.1641    1.5414 C   0  0  0  0  0  0  0  0  0  0  0  0
   -0.8875    0.2562    1.0751 C   0  0  0  0  0  0  0  0  0  0  0  0
   -1.4571   -1.1358   -0.5329 H   0  0  0  0  0  0  0  0  0  0  0  0
    0.3779   -0.4312   -2.0469 H   0  0  0  0  0  0  0  0  0  0  0  0
    2.0131    1.5068   -1.4580 N   0  0  0  0  0  0  0  0  0  0  0  0
    2.7726    1.9509   -2.1893 N   0  0  0  0  0  0  0  0  0  0  0  0
   -1.7494   -0.0084    1.6894 H   0  0  0  0  0  0  0  0  0  0  0  0
   -0.1354    1.6387    2.5131 H   0  0  0  0  0  0  0  0  0  0  0  0
    1.3347    2.6648    0.7671 H   0  0  0  0  0  0  0  0  0  0  0  0
    2.4953    1.2849    1.5134 O   0  0  0  0  0  0  0  0  0  0  0  0
    2.8121   -0.0651    1.7855 N   0  0  0  0  0  0  0  0  0  0  0  0
    3.7758   -0.1783    2.5033 O   0  0  0  0  0  0  0  0  0  0  0  0
    2.1247   -0.9265    1.2833 O   0  0  0  0  0  0  0  0  0  0  0  0
  1  6  1  0  0  0  0
  2  3  2  0  0  0  0
  2  1  1  0  0  0  0
  3  4  1  0  0  0  0
  4 13  1  6  0  0  0
  4 14  1  0  0  0  0
  4  5  1  0  0  0  0
  5 12  1  0  0  0  0
  6  5  2  0  0  0  0
  6 11  1  0  0  0  0
  7  1  1  0  0  0  0
  8  2  1  0  0  0  0
  9  3  1  0  0  0  0
 10  9  1  0  0  0  0
 14 15  1  0  0  0  0
 15 16  2  0  0  0  0
 17 15  2  0  0  0  0
M  RAD  3   1   2   9   2  10   3
M  END
