Coordinates from ORCA-job Ph-N2-NO3-B3LYPG-aug-cc-pVDZ-scan-d09-49-n400
 OpenBabel10311713213D

 17 15  0  0  0  0  0  0  0  0999 V2000
   -1.5849    0.2949   -0.4896 C   0  0  0  0  0  0  0  0  0  0  0  0
   -0.2614    0.1861   -0.9903 C   0  0  0  0  0  0  0  0  0  0  0  0
    0.5841    0.5000    0.0440 C   0  0  0  0  0  0  0  0  0  0  0  0
    0.4477    0.8375    1.2485 C   0  0  0  0  0  0  0  0  0  0  0  0
   -0.8516    0.9548    1.7768 C   0  0  0  0  0  0  0  0  0  0  0  0
   -1.8648    0.6644    0.8402 C   0  0  0  0  0  0  0  0  0  0  0  0
   -2.4092    0.0813   -1.1727 H   0  0  0  0  0  0  0  0  0  0  0  0
   -0.0242   -0.0979   -2.0116 H   0  0  0  0  0  0  0  0  0  0  0  0
    2.9902   -0.6815   -3.7303 N   0  0  0  0  0  0  0  0  0  0  0  0
    3.9598   -0.9380   -4.1922 N   0  0  0  0  0  0  0  0  0  0  0  0
   -2.9072    0.7283    1.1574 H   0  0  0  0  0  0  0  0  0  0  0  0
   -1.0799    1.2395    2.8030 H   0  0  0  0  0  0  0  0  0  0  0  0
    2.2167    1.1634    2.2651 H   0  0  0  0  0  0  0  0  0  0  0  0
    4.1434    0.9155    1.2245 O   0  0  0  0  0  0  0  0  0  0  0  0
    4.1210    1.2458    2.3954 N   0  0  0  0  0  0  0  0  0  0  0  0
    5.0388    1.4869    3.1374 O   0  0  0  0  0  0  0  0  0  0  0  0
    2.8642    1.3841    2.9815 O   0  0  0  0  0  0  0  0  0  0  0  0
  1  6  1  0  0  0  0
  2  1  2  0  0  0  0
  2  3  1  0  0  0  0
  3  4  2  0  0  0  0
  4  5  1  0  0  0  0
  5 12  1  0  0  0  0
  6 11  1  0  0  0  0
  6  5  2  0  0  0  0
  7  1  1  0  0  0  0
  8  2  1  0  0  0  0
 10  9  3  0  0  0  0
 13 17  1  0  0  0  0
 14 15  2  0  0  0  0
 15 17  1  0  0  0  0
 15 16  2  0  0  0  0
M  RAD  2   3   2   4   2
M  END
