Coordinates from ORCA-job Ph-N2-NO3-B3LYPG-aug-cc-pVDZ-scan-d09-49-n400
 OpenBabel10311713213D

 17 15  0  0  0  0  0  0  0  0999 V2000
   -1.7294    0.3023   -0.4948 C   0  0  0  0  0  0  0  0  0  0  0  0
   -0.4691    0.1422   -1.1274 C   0  0  0  0  0  0  0  0  0  0  0  0
    0.4893    0.4138   -0.1854 C   0  0  0  0  0  0  0  0  0  0  0  0
    0.4985    0.7508    1.0278 C   0  0  0  0  0  0  0  0  0  0  0  0
   -0.7375    0.9172    1.6836 C   0  0  0  0  0  0  0  0  0  0  0  0
   -1.8538    0.6751    0.8571 C   0  0  0  0  0  0  0  0  0  0  0  0
   -2.6274    0.1270   -1.0900 H   0  0  0  0  0  0  0  0  0  0  0  0
   -0.3437   -0.1435   -2.1676 H   0  0  0  0  0  0  0  0  0  0  0  0
    3.0700   -0.3525   -2.8492 N   0  0  0  0  0  0  0  0  0  0  0  0
    4.0953   -0.6615   -3.1180 N   0  0  0  0  0  0  0  0  0  0  0  0
   -2.8539    0.7810    1.2811 H   0  0  0  0  0  0  0  0  0  0  0  0
   -0.8474    1.2057    2.7282 H   0  0  0  0  0  0  0  0  0  0  0  0
    2.2807    1.0487    1.9901 H   0  0  0  0  0  0  0  0  0  0  0  0
    4.2317    0.8890    0.9693 O   0  0  0  0  0  0  0  0  0  0  0  0
    4.1821    1.1839    2.1486 N   0  0  0  0  0  0  0  0  0  0  0  0
    5.0824    1.4225    2.9130 O   0  0  0  0  0  0  0  0  0  0  0  0
    2.9150    1.2634    2.7208 O   0  0  0  0  0  0  0  0  0  0  0  0
  1  6  1  0  0  0  0
  2  1  2  0  0  0  0
  2  3  1  0  0  0  0
  3  4  2  0  0  0  0
  4  5  1  0  0  0  0
  5 12  1  0  0  0  0
  6 11  1  0  0  0  0
  6  5  2  0  0  0  0
  7  1  1  0  0  0  0
  8  2  1  0  0  0  0
 10  9  3  0  0  0  0
 13 17  1  0  0  0  0
 14 15  2  0  0  0  0
 15 17  1  0  0  0  0
 15 16  2  0  0  0  0
M  RAD  2   3   2   4   2
M  END
