Coordinates from ORCA-job Ph-N2-NO3-B3LYPG-aug-cc-pVDZ-scan-d09-49-n400
 OpenBabel10311713213D

 17 15  0  0  0  0  0  0  0  0999 V2000
   -1.7201    0.3271   -0.5589 C   0  0  0  0  0  0  0  0  0  0  0  0
   -0.5112    0.1169   -1.2724 C   0  0  0  0  0  0  0  0  0  0  0  0
    0.5083    0.3177   -0.3843 C   0  0  0  0  0  0  0  0  0  0  0  0
    0.6405    0.6270    0.8319 C   0  0  0  0  0  0  0  0  0  0  0  0
   -0.5553    0.8379    1.5568 C   0  0  0  0  0  0  0  0  0  0  0  0
   -1.7360    0.6745    0.8054 C   0  0  0  0  0  0  0  0  0  0  0  0
   -2.6615    0.2118   -1.0992 H   0  0  0  0  0  0  0  0  0  0  0  0
   -0.4618   -0.1512   -2.3233 H   0  0  0  0  0  0  0  0  0  0  0  0
    2.6475   -0.2239   -2.1156 N   0  0  0  0  0  0  0  0  0  0  0  0
    3.7205   -0.4438   -2.2530 N   0  0  0  0  0  0  0  0  0  0  0  0
   -2.6988    0.8231    1.2971 H   0  0  0  0  0  0  0  0  0  0  0  0
   -0.5836    1.1085    2.6120 H   0  0  0  0  0  0  0  0  0  0  0  0
    2.3165    0.8916    1.8544 H   0  0  0  0  0  0  0  0  0  0  0  0
    4.2793    1.0667    0.8406 O   0  0  0  0  0  0  0  0  0  0  0  0
    4.1970    1.2201    2.0456 N   0  0  0  0  0  0  0  0  0  0  0  0
    5.0671    1.4772    2.8392 O   0  0  0  0  0  0  0  0  0  0  0  0
    2.9345    1.0840    2.6109 O   0  0  0  0  0  0  0  0  0  0  0  0
  1  6  1  0  0  0  0
  2  1  2  0  0  0  0
  2  3  1  0  0  0  0
  3  4  2  0  0  0  0
  4  5  1  0  0  0  0
  5 12  1  0  0  0  0
  6 11  1  0  0  0  0
  6  5  2  0  0  0  0
  7  1  1  0  0  0  0
  8  2  1  0  0  0  0
 10  9  3  0  0  0  0
 13 17  1  0  0  0  0
 14 15  2  0  0  0  0
 15 17  1  0  0  0  0
 15 16  2  0  0  0  0
M  RAD  2   3   2   4   2
M  END
