Coordinates from ORCA-job Ph-N2-NO3-B3LYPG-aug-cc-pVDZ-scan-d09-49-n400
 OpenBabel10311713213D

 17 15  0  0  0  0  0  0  0  0999 V2000
   -1.5147    0.2876   -0.5037 C   0  0  0  0  0  0  0  0  0  0  0  0
   -0.1786    0.1863   -0.9709 C   0  0  0  0  0  0  0  0  0  0  0  0
    0.6403    0.5084    0.0825 C   0  0  0  0  0  0  0  0  0  0  0  0
    0.4694    0.8482    1.2819 C   0  0  0  0  0  0  0  0  0  0  0  0
   -0.8426    0.9585    1.7785 C   0  0  0  0  0  0  0  0  0  0  0  0
   -1.8301    0.6588    0.8175 C   0  0  0  0  0  0  0  0  0  0  0  0
   -2.3203    0.0666   -1.2065 H   0  0  0  0  0  0  0  0  0  0  0  0
    0.0854   -0.0986   -1.9855 H   0  0  0  0  0  0  0  0  0  0  0  0
    2.8406   -0.7914   -4.0630 N   0  0  0  0  0  0  0  0  0  0  0  0
    3.7499   -1.0643   -4.6268 N   0  0  0  0  0  0  0  0  0  0  0  0
   -2.8805    0.7166    1.1086 H   0  0  0  0  0  0  0  0  0  0  0  0
   -1.0981    1.2446    2.7978 H   0  0  0  0  0  0  0  0  0  0  0  0
    2.2005    1.1972    2.3583 H   0  0  0  0  0  0  0  0  0  0  0  0
    4.1716    0.9638    1.4019 O   0  0  0  0  0  0  0  0  0  0  0  0
    4.0963    1.3031    2.5678 N   0  0  0  0  0  0  0  0  0  0  0  0
    4.9793    1.5517    3.3486 O   0  0  0  0  0  0  0  0  0  0  0  0
    2.8143    1.4281    3.1003 O   0  0  0  0  0  0  0  0  0  0  0  0
  1  6  1  0  0  0  0
  2  1  2  0  0  0  0
  2  3  1  0  0  0  0
  3  4  2  0  0  0  0
  4  5  1  0  0  0  0
  5 12  1  0  0  0  0
  6 11  1  0  0  0  0
  6  5  2  0  0  0  0
  7  1  1  0  0  0  0
  8  2  1  0  0  0  0
 10  9  3  0  0  0  0
 13 17  1  0  0  0  0
 14 15  2  0  0  0  0
 15 17  1  0  0  0  0
 15 16  2  0  0  0  0
M  RAD  2   3   2   4   2
M  END
