Coordinates from ORCA-job Ph-N2-NO3-B3LYPG-aug-cc-pVDZ-scan-d09-49-n400
 OpenBabel10311713213D

 17 15  0  0  0  0  0  0  0  0999 V2000
   -1.7353    0.3181   -0.5385 C   0  0  0  0  0  0  0  0  0  0  0  0
   -0.5142    0.1234   -1.2349 C   0  0  0  0  0  0  0  0  0  0  0  0
    0.4944    0.3460   -0.3364 C   0  0  0  0  0  0  0  0  0  0  0  0
    0.5918    0.6647    0.8797 C   0  0  0  0  0  0  0  0  0  0  0  0
   -0.6112    0.8620    1.5924 C   0  0  0  0  0  0  0  0  0  0  0  0
   -1.7769    0.6737    0.8232 C   0  0  0  0  0  0  0  0  0  0  0  0
   -2.6675    0.1841   -1.0905 H   0  0  0  0  0  0  0  0  0  0  0  0
   -0.4475   -0.1505   -2.2835 H   0  0  0  0  0  0  0  0  0  0  0  0
    2.7962   -0.2451   -2.2884 N   0  0  0  0  0  0  0  0  0  0  0  0
    3.8599   -0.4891   -2.4551 N   0  0  0  0  0  0  0  0  0  0  0  0
   -2.7493    0.8091    1.2999 H   0  0  0  0  0  0  0  0  0  0  0  0
   -0.6585    1.1383    2.6452 H   0  0  0  0  0  0  0  0  0  0  0  0
    2.3121    0.9408    1.8775 H   0  0  0  0  0  0  0  0  0  0  0  0
    4.2757    0.9995    0.8623 O   0  0  0  0  0  0  0  0  0  0  0  0
    4.2009    1.2007    2.0604 N   0  0  0  0  0  0  0  0  0  0  0  0
    5.0802    1.4493    2.8462 O   0  0  0  0  0  0  0  0  0  0  0  0
    2.9320    1.1401    2.6278 O   0  0  0  0  0  0  0  0  0  0  0  0
  1  6  1  0  0  0  0
  2  1  2  0  0  0  0
  2  3  1  0  0  0  0
  3  4  2  0  0  0  0
  4  5  1  0  0  0  0
  5 12  1  0  0  0  0
  6 11  1  0  0  0  0
  6  5  2  0  0  0  0
  7  1  1  0  0  0  0
  8  2  1  0  0  0  0
 10  9  3  0  0  0  0
 13 17  1  0  0  0  0
 14 15  2  0  0  0  0
 15 17  1  0  0  0  0
 15 16  2  0  0  0  0
M  RAD  2   3   2   4   2
M  END
