Coordinates from ORCA-job Ph-N2-NO3-B3LYPG-aug-cc-pVDZ-scan-d09-49-n400
 OpenBabel10311713213D

 17 16  0  0  0  0  0  0  0  0999 V2000
   -1.5145    0.0736   -0.6119 C   0  0  0  0  0  0  0  0  0  0  0  0
   -0.1732    0.0942   -1.0199 C   0  0  0  0  0  0  0  0  0  0  0  0
    0.7080    0.5433   -0.0593 C   0  0  0  0  0  0  0  0  0  0  0  0
    0.4565    0.9635    1.2243 C   0  0  0  0  0  0  0  0  0  0  0  0
   -0.8994    0.9290    1.5855 C   0  0  0  0  0  0  0  0  0  0  0  0
   -1.8690    0.4883    0.6777 C   0  0  0  0  0  0  0  0  0  0  0  0
   -2.2754   -0.2690   -1.3127 H   0  0  0  0  0  0  0  0  0  0  0  0
    0.1430   -0.2177   -2.0120 H   0  0  0  0  0  0  0  0  0  0  0  0
    2.3744    0.5835   -0.5657 N   0  0  0  0  0  0  0  0  0  0  0  0
    3.0450    0.5436   -1.4585 N   0  0  0  0  0  0  0  0  0  0  0  0
   -2.9162    0.4654    0.9784 H   0  0  0  0  0  0  0  0  0  0  0  0
   -1.1853    1.2471    2.5875 H   0  0  0  0  0  0  0  0  0  0  0  0
    1.2566    1.2806    1.8868 H   0  0  0  0  0  0  0  0  0  0  0  0
    5.1141    0.8441    0.2184 O   0  0  0  0  0  0  0  0  0  0  0  0
    4.5941    0.8138    1.3452 N   0  0  0  0  0  0  0  0  0  0  0  0
    5.2271    0.8762    2.3944 O   0  0  0  0  0  0  0  0  0  0  0  0
    3.2971    0.7055    1.4290 O   0  0  0  0  0  0  0  0  0  0  0  0
  1  6  1  0  0  0  0
  2  1  2  0  0  0  0
  2  3  1  0  0  0  0
  3  4  2  0  0  0  0
  4  5  1  0  0  0  0
  4 13  1  0  0  0  0
  5 12  1  0  0  0  0
  6 11  1  0  0  0  0
  6  5  2  0  0  0  0
  7  1  1  0  0  0  0
  8  2  1  0  0  0  0
  9  3  1  0  0  0  0
 10  9  2  0  0  0  0
 14 15  2  0  0  0  0
 15 17  2  0  0  0  0
 15 16  1  0  0  0  0
M  RAD  2  10   2  16   2
M  END
