Coordinates from ORCA-job Ph-N2-NO3-B3LYPG-aug-cc-pVDZ-scan-d09-49-n400
 OpenBabel10311713213D

 17 15  0  0  0  0  0  0  0  0999 V2000
   -1.7432    0.3128   -0.5243 C   0  0  0  0  0  0  0  0  0  0  0  0
   -0.5130    0.1278   -1.2076 C   0  0  0  0  0  0  0  0  0  0  0  0
    0.4844    0.3651   -0.2997 C   0  0  0  0  0  0  0  0  0  0  0  0
    0.5615    0.6896    0.9157 C   0  0  0  0  0  0  0  0  0  0  0  0
   -0.6485    0.8780    1.6172 C   0  0  0  0  0  0  0  0  0  0  0  0
   -1.8034    0.6738    0.8354 C   0  0  0  0  0  0  0  0  0  0  0  0
   -2.6682    0.1665   -1.0852 H   0  0  0  0  0  0  0  0  0  0  0  0
   -0.4333   -0.1499   -2.2543 H   0  0  0  0  0  0  0  0  0  0  0  0
    2.8989   -0.2603   -2.4081 N   0  0  0  0  0  0  0  0  0  0  0  0
    3.9555   -0.5187   -2.5962 N   0  0  0  0  0  0  0  0  0  0  0  0
   -2.7824    0.8007    1.3007 H   0  0  0  0  0  0  0  0  0  0  0  0
   -0.7098    1.1581    2.6682 H   0  0  0  0  0  0  0  0  0  0  0  0
    2.3037    0.9740    1.8969 H   0  0  0  0  0  0  0  0  0  0  0  0
    4.2647    0.9498    0.8760 O   0  0  0  0  0  0  0  0  0  0  0  0
    4.1991    1.1867    2.0680 N   0  0  0  0  0  0  0  0  0  0  0  0
    5.0869    1.4314    2.8451 O   0  0  0  0  0  0  0  0  0  0  0  0
    2.9299    1.1794    2.6394 O   0  0  0  0  0  0  0  0  0  0  0  0
  1  6  1  0  0  0  0
  2  1  2  0  0  0  0
  2  3  1  0  0  0  0
  3  4  2  0  0  0  0
  4  5  1  0  0  0  0
  5 12  1  0  0  0  0
  6 11  1  0  0  0  0
  6  5  2  0  0  0  0
  7  1  1  0  0  0  0
  8  2  1  0  0  0  0
 10  9  3  0  0  0  0
 13 17  1  0  0  0  0
 14 15  2  0  0  0  0
 15 17  1  0  0  0  0
 15 16  2  0  0  0  0
M  RAD  2   3   2   4   2
M  END
