Coordinates from ORCA-job Ph-N2-NO3-B3LYPG-aug-cc-pVDZ-scan-d09-49-n400
 OpenBabel10311713213D

 17 17  0  0  1  0  0  0  0  0999 V2000
   -0.7459   -0.3735   -0.2233 C   0  0  0  0  0  0  0  0  0  0  0  0
    0.2540    0.0080   -1.0578 C   0  0  0  0  0  0  0  0  0  0  0  0
    1.1851    1.0339   -0.6400 C   0  0  0  0  0  0  0  0  0  0  0  0
    1.2085    1.5739    0.7660 C   0  0  1  0  0  0  0  0  0  0  0  0
   -0.0011    1.1661    1.5399 C   0  0  0  0  0  0  0  0  0  0  0  0
   -0.8853    0.2540    1.0754 C   0  0  0  0  0  0  0  0  0  0  0  0
   -1.4537   -1.1414   -0.5299 H   0  0  0  0  0  0  0  0  0  0  0  0
    0.3770   -0.4294   -2.0480 H   0  0  0  0  0  0  0  0  0  0  0  0
    2.0173    1.5169   -1.4704 N   0  0  0  0  0  0  0  0  0  0  0  0
    2.7735    1.9613   -2.2025 N   0  0  0  0  0  0  0  0  0  0  0  0
   -1.7461   -0.0113    1.6909 H   0  0  0  0  0  0  0  0  0  0  0  0
   -0.1380    1.6426    2.5102 H   0  0  0  0  0  0  0  0  0  0  0  0
    1.3408    2.6649    0.7695 H   0  0  0  0  0  0  0  0  0  0  0  0
    2.4980    1.2803    1.5141 O   0  0  0  0  0  0  0  0  0  0  0  0
    2.8087   -0.0681    1.7911 N   0  0  0  0  0  0  0  0  0  0  0  0
    3.7761   -0.1838    2.5042 O   0  0  0  0  0  0  0  0  0  0  0  0
    2.1138   -0.9292    1.2979 O   0  0  0  0  0  0  0  0  0  0  0  0
  1  6  1  0  0  0  0
  2  3  2  0  0  0  0
  2  1  1  0  0  0  0
  3  4  1  0  0  0  0
  4 13  1  6  0  0  0
  4 14  1  0  0  0  0
  4  5  1  0  0  0  0
  5 12  1  0  0  0  0
  6  5  2  0  0  0  0
  6 11  1  0  0  0  0
  7  1  1  0  0  0  0
  8  2  1  0  0  0  0
  9  3  1  0  0  0  0
 10  9  1  0  0  0  0
 14 15  1  0  0  0  0
 15 16  2  0  0  0  0
 17 15  2  0  0  0  0
M  RAD  3   1   2   9   2  10   3
M  END
