Coordinates from ORCA-job Ph-N2-NO3-B3LYPG-aug-cc-pVDZ-scan-d09-49-n400
 OpenBabel10311713213D

 17 15  0  0  0  0  0  0  0  0999 V2000
   -1.6384    0.1314   -0.6084 C   0  0  0  0  0  0  0  0  0  0  0  0
   -0.3083    0.0942   -1.0811 C   0  0  0  0  0  0  0  0  0  0  0  0
    0.5702    0.4731   -0.1136 C   0  0  0  0  0  0  0  0  0  0  0  0
    0.4577    0.8658    1.1812 C   0  0  0  0  0  0  0  0  0  0  0  0
   -0.8940    0.8818    1.5908 C   0  0  0  0  0  0  0  0  0  0  0  0
   -1.9171    0.5197    0.7068 C   0  0  0  0  0  0  0  0  0  0  0  0
   -2.4400   -0.1487   -1.2925 H   0  0  0  0  0  0  0  0  0  0  0  0
   -0.0391   -0.1994   -2.0922 H   0  0  0  0  0  0  0  0  0  0  0  0
    2.5553    0.4579   -0.7106 N   0  0  0  0  0  0  0  0  0  0  0  0
    3.2339    0.3643   -1.5844 N   0  0  0  0  0  0  0  0  0  0  0  0
   -2.9514    0.5390    1.0488 H   0  0  0  0  0  0  0  0  0  0  0  0
   -1.1194    1.1801    2.6149 H   0  0  0  0  0  0  0  0  0  0  0  0
    1.3082    1.1237    1.8090 H   0  0  0  0  0  0  0  0  0  0  0  0
    5.2734    1.0007    0.3708 O   0  0  0  0  0  0  0  0  0  0  0  0
    4.6722    0.9266    1.4526 N   0  0  0  0  0  0  0  0  0  0  0  0
    5.2241    1.0444    2.5488 O   0  0  0  0  0  0  0  0  0  0  0  0
    3.3953    0.7107    1.4460 O   0  0  0  0  0  0  0  0  0  0  0  0
  1  6  1  0  0  0  0
  2  1  2  0  0  0  0
  2  3  1  0  0  0  0
  3  4  2  0  0  0  0
  4  5  1  0  0  0  0
  4 13  1  0  0  0  0
  5 12  1  0  0  0  0
  6 11  1  0  0  0  0
  6  5  2  0  0  0  0
  7  1  1  0  0  0  0
  8  2  1  0  0  0  0
 10  9  3  0  0  0  0
 14 15  2  0  0  0  0
 15 16  1  0  0  0  0
 17 15  2  0  0  0  0
M  RAD  2   3   2  16   2
M  END
