Coordinates from ORCA-job Ph-N2-NO3-B3LYPG-aug-cc-pVDZ-scan-d09-49-n400
 OpenBabel10311713213D

 17 15  0  0  0  0  0  0  0  0999 V2000
   -1.7348    0.3184   -0.5393 C   0  0  0  0  0  0  0  0  0  0  0  0
   -0.5141    0.1231   -1.2363 C   0  0  0  0  0  0  0  0  0  0  0  0
    0.4950    0.3450   -0.3382 C   0  0  0  0  0  0  0  0  0  0  0  0
    0.5934    0.6634    0.8779 C   0  0  0  0  0  0  0  0  0  0  0  0
   -0.6093    0.8612    1.5911 C   0  0  0  0  0  0  0  0  0  0  0  0
   -1.7755    0.6738    0.8225 C   0  0  0  0  0  0  0  0  0  0  0  0
   -2.6673    0.1850   -1.0909 H   0  0  0  0  0  0  0  0  0  0  0  0
   -0.4480   -0.1505   -2.2850 H   0  0  0  0  0  0  0  0  0  0  0  0
    2.7906   -0.2444   -2.2823 N   0  0  0  0  0  0  0  0  0  0  0  0
    3.8546   -0.4875   -2.4480 N   0  0  0  0  0  0  0  0  0  0  0  0
   -2.7476    0.8096    1.2997 H   0  0  0  0  0  0  0  0  0  0  0  0
   -0.6559    1.1373    2.6440 H   0  0  0  0  0  0  0  0  0  0  0  0
    2.3126    0.9389    1.8765 H   0  0  0  0  0  0  0  0  0  0  0  0
    4.2762    1.0022    0.8617 O   0  0  0  0  0  0  0  0  0  0  0  0
    4.2010    1.2014    2.0600 N   0  0  0  0  0  0  0  0  0  0  0  0
    5.0798    1.4503    2.8462 O   0  0  0  0  0  0  0  0  0  0  0  0
    2.9322    1.1379    2.6273 O   0  0  0  0  0  0  0  0  0  0  0  0
  1  6  1  0  0  0  0
  2  1  2  0  0  0  0
  2  3  1  0  0  0  0
  3  4  2  0  0  0  0
  4  5  1  0  0  0  0
  5 12  1  0  0  0  0
  6 11  1  0  0  0  0
  6  5  2  0  0  0  0
  7  1  1  0  0  0  0
  8  2  1  0  0  0  0
 10  9  3  0  0  0  0
 13 17  1  0  0  0  0
 14 15  2  0  0  0  0
 15 17  1  0  0  0  0
 15 16  2  0  0  0  0
M  RAD  2   3   2   4   2
M  END
