Coordinates from ORCA-job Ph-N2-NO3-B3LYPG-aug-cc-pVDZ-scan-d09-49-n400
 OpenBabel10311713213D

 17 15  0  0  0  0  0  0  0  0999 V2000
   -1.7436    0.3125   -0.5235 C   0  0  0  0  0  0  0  0  0  0  0  0
   -0.5129    0.1280   -1.2061 C   0  0  0  0  0  0  0  0  0  0  0  0
    0.4839    0.3661   -0.2978 C   0  0  0  0  0  0  0  0  0  0  0  0
    0.5600    0.6909    0.9176 C   0  0  0  0  0  0  0  0  0  0  0  0
   -0.6504    0.8789    1.6184 C   0  0  0  0  0  0  0  0  0  0  0  0
   -1.8047    0.6739    0.8360 C   0  0  0  0  0  0  0  0  0  0  0  0
   -2.6681    0.1656   -1.0849 H   0  0  0  0  0  0  0  0  0  0  0  0
   -0.4325   -0.1499   -2.2527 H   0  0  0  0  0  0  0  0  0  0  0  0
    2.9040   -0.2612   -2.4147 N   0  0  0  0  0  0  0  0  0  0  0  0
    3.9603   -0.5203   -2.6039 N   0  0  0  0  0  0  0  0  0  0  0  0
   -2.7840    0.8004    1.3008 H   0  0  0  0  0  0  0  0  0  0  0  0
   -0.7123    1.1592    2.6693 H   0  0  0  0  0  0  0  0  0  0  0  0
    2.3033    0.9756    1.8980 H   0  0  0  0  0  0  0  0  0  0  0  0
    4.2641    0.9475    0.8769 O   0  0  0  0  0  0  0  0  0  0  0  0
    4.1989    1.1860    2.0685 N   0  0  0  0  0  0  0  0  0  0  0  0
    5.0871    1.4306    2.8453 O   0  0  0  0  0  0  0  0  0  0  0  0
    2.9297    1.1813    2.6401 O   0  0  0  0  0  0  0  0  0  0  0  0
  1  6  1  0  0  0  0
  2  1  2  0  0  0  0
  2  3  1  0  0  0  0
  3  4  2  0  0  0  0
  4  5  1  0  0  0  0
  5 12  1  0  0  0  0
  6 11  1  0  0  0  0
  6  5  2  0  0  0  0
  7  1  1  0  0  0  0
  8  2  1  0  0  0  0
 10  9  3  0  0  0  0
 13 17  1  0  0  0  0
 14 15  2  0  0  0  0
 15 17  1  0  0  0  0
 15 16  2  0  0  0  0
M  RAD  2   3   2   4   2
M  END
