Coordinates from ORCA-job Ph-N2-NO3-B3LYPG-aug-cc-pVDZ-scan-d09-49-n400
 OpenBabel10311713213D

 17 15  0  0  0  0  0  0  0  0999 V2000
   -1.7132    0.3330   -0.5673 C   0  0  0  0  0  0  0  0  0  0  0  0
   -0.5162    0.1127   -1.2954 C   0  0  0  0  0  0  0  0  0  0  0  0
    0.5210    0.2988   -0.4231 C   0  0  0  0  0  0  0  0  0  0  0  0
    0.6777    0.6032    0.7938 C   0  0  0  0  0  0  0  0  0  0  0  0
   -0.5118    0.8232    1.5298 C   0  0  0  0  0  0  0  0  0  0  0  0
   -1.7055    0.6759    0.7975 C   0  0  0  0  0  0  0  0  0  0  0  0
   -2.6625    0.2295   -1.0959 H   0  0  0  0  0  0  0  0  0  0  0  0
   -0.4826   -0.1526   -2.3477 H   0  0  0  0  0  0  0  0  0  0  0  0
    2.5674   -0.2121   -2.0180 N   0  0  0  0  0  0  0  0  0  0  0  0
    3.6459   -0.4180   -2.1352 N   0  0  0  0  0  0  0  0  0  0  0  0
   -2.6589    0.8337    1.3044 H   0  0  0  0  0  0  0  0  0  0  0  0
   -0.5229    1.0909    2.5863 H   0  0  0  0  0  0  0  0  0  0  0  0
    2.3141    0.8634    1.8384 H   0  0  0  0  0  0  0  0  0  0  0  0
    4.2694    1.1054    0.8344 O   0  0  0  0  0  0  0  0  0  0  0  0
    4.1847    1.2312    2.0424 N   0  0  0  0  0  0  0  0  0  0  0  0
    5.0492    1.4944    2.8405 O   0  0  0  0  0  0  0  0  0  0  0  0
    2.9270    1.0526    2.6023 O   0  0  0  0  0  0  0  0  0  0  0  0
  1  6  1  0  0  0  0
  2  1  2  0  0  0  0
  2  3  1  0  0  0  0
  3  4  2  0  0  0  0
  4  5  1  0  0  0  0
  5 12  1  0  0  0  0
  6 11  1  0  0  0  0
  6  5  2  0  0  0  0
  7  1  1  0  0  0  0
  8  2  1  0  0  0  0
 10  9  3  0  0  0  0
 13 17  1  0  0  0  0
 14 15  2  0  0  0  0
 15 17  1  0  0  0  0
 15 16  2  0  0  0  0
M  RAD  2   3   2   4   2
M  END
