Coordinates from ORCA-job Ph-N2-NO3-B3LYPG-aug-cc-pVDZ-scan-d09-49-n400
 OpenBabel10311713213D

 17 15  0  0  0  0  0  0  0  0999 V2000
   -1.6987    0.3491   -0.5806 C   0  0  0  0  0  0  0  0  0  0  0  0
   -0.5095    0.1127   -1.3151 C   0  0  0  0  0  0  0  0  0  0  0  0
    0.5334    0.2740   -0.4479 C   0  0  0  0  0  0  0  0  0  0  0  0
    0.7165    0.5671    0.7709 C   0  0  0  0  0  0  0  0  0  0  0  0
   -0.4723    0.8017    1.5078 C   0  0  0  0  0  0  0  0  0  0  0  0
   -1.6748    0.6823    0.7865 C   0  0  0  0  0  0  0  0  0  0  0  0
   -2.6523    0.2664   -1.1047 H   0  0  0  0  0  0  0  0  0  0  0  0
   -0.4866   -0.1462   -2.3695 H   0  0  0  0  0  0  0  0  0  0  0  0
    2.4818   -0.2129   -1.8926 N   0  0  0  0  0  0  0  0  0  0  0  0
    3.5632   -0.4191   -1.9772 N   0  0  0  0  0  0  0  0  0  0  0  0
   -2.6209    0.8546    1.3023 H   0  0  0  0  0  0  0  0  0  0  0  0
   -0.4715    1.0625    2.5664 H   0  0  0  0  0  0  0  0  0  0  0  0
    2.3107    0.8040    1.8195 H   0  0  0  0  0  0  0  0  0  0  0  0
    4.2278    1.2451    0.8012 O   0  0  0  0  0  0  0  0  0  0  0  0
    4.1649    1.2605    2.0179 N   0  0  0  0  0  0  0  0  0  0  0  0
    5.0348    1.5037    2.8173 O   0  0  0  0  0  0  0  0  0  0  0  0
    2.9363    0.9596    2.5851 O   0  0  0  0  0  0  0  0  0  0  0  0
  1  6  1  0  0  0  0
  2  1  2  0  0  0  0
  2  3  1  0  0  0  0
  3  4  2  0  0  0  0
  4  5  1  0  0  0  0
  5 12  1  0  0  0  0
  6 11  1  0  0  0  0
  6  5  2  0  0  0  0
  7  1  1  0  0  0  0
  8  2  1  0  0  0  0
 10  9  3  0  0  0  0
 13 17  1  0  0  0  0
 14 15  2  0  0  0  0
 15 17  1  0  0  0  0
 15 16  2  0  0  0  0
M  RAD  2   3   2   4   2
M  END
