Coordinates from ORCA-job Ph-N2-NO3-B3LYPG-aug-cc-pVDZ-scan-d09-49-n400
 OpenBabel10311713213D

 17 15  0  0  0  0  0  0  0  0999 V2000
   -1.6526    0.1385   -0.6069 C   0  0  0  0  0  0  0  0  0  0  0  0
   -0.3253    0.0927   -1.0898 C   0  0  0  0  0  0  0  0  0  0  0  0
    0.5573    0.4626   -0.1245 C   0  0  0  0  0  0  0  0  0  0  0  0
    0.4623    0.8524    1.1712 C   0  0  0  0  0  0  0  0  0  0  0  0
   -0.8877    0.8764    1.5897 C   0  0  0  0  0  0  0  0  0  0  0  0
   -1.9192    0.5247    0.7114 C   0  0  0  0  0  0  0  0  0  0  0  0
   -2.4604   -0.1336   -1.2870 H   0  0  0  0  0  0  0  0  0  0  0  0
   -0.0648   -0.1996   -2.1036 H   0  0  0  0  0  0  0  0  0  0  0  0
    2.5707    0.4389   -0.7314 N   0  0  0  0  0  0  0  0  0  0  0  0
    3.2555    0.3482   -1.5997 N   0  0  0  0  0  0  0  0  0  0  0  0
   -2.9509    0.5506    1.0604 H   0  0  0  0  0  0  0  0  0  0  0  0
   -1.1032    1.1730    2.6165 H   0  0  0  0  0  0  0  0  0  0  0  0
    1.3192    1.1023    1.7935 H   0  0  0  0  0  0  0  0  0  0  0  0
    5.2841    1.0242    0.3930 O   0  0  0  0  0  0  0  0  0  0  0  0
    4.6752    0.9406    1.4699 N   0  0  0  0  0  0  0  0  0  0  0  0
    5.2193    1.0644    2.5704 O   0  0  0  0  0  0  0  0  0  0  0  0
    3.4032    0.7089    1.4540 O   0  0  0  0  0  0  0  0  0  0  0  0
  1  6  1  0  0  0  0
  2  1  2  0  0  0  0
  2  3  1  0  0  0  0
  3  4  2  0  0  0  0
  4  5  1  0  0  0  0
  4 13  1  0  0  0  0
  5 12  1  0  0  0  0
  6 11  1  0  0  0  0
  6  5  2  0  0  0  0
  7  1  1  0  0  0  0
  8  2  1  0  0  0  0
 10  9  3  0  0  0  0
 14 15  2  0  0  0  0
 15 16  1  0  0  0  0
 17 15  2  0  0  0  0
M  RAD  2   3   2  16   2
M  END
