Coordinates from ORCA-job Ph-N2-NO3-B3LYPG-aug-cc-pVDZ-scan-d09-49-n400
 OpenBabel10311713213D

 17 15  0  0  0  0  0  0  0  0999 V2000
   -1.6168    0.1202   -0.6099 C   0  0  0  0  0  0  0  0  0  0  0  0
   -0.2832    0.0947   -1.0689 C   0  0  0  0  0  0  0  0  0  0  0  0
    0.5910    0.4873   -0.0996 C   0  0  0  0  0  0  0  0  0  0  0  0
    0.4534    0.8858    1.1932 C   0  0  0  0  0  0  0  0  0  0  0  0
   -0.9003    0.8904    1.5914 C   0  0  0  0  0  0  0  0  0  0  0  0
   -1.9119    0.5129    0.7006 C   0  0  0  0  0  0  0  0  0  0  0  0
   -2.4097   -0.1722   -1.2987 H   0  0  0  0  0  0  0  0  0  0  0  0
   -0.0025   -0.2022   -2.0758 H   0  0  0  0  0  0  0  0  0  0  0  0
    2.5285    0.4815   -0.6807 N   0  0  0  0  0  0  0  0  0  0  0  0
    3.1995    0.4014   -1.5631 N   0  0  0  0  0  0  0  0  0  0  0  0
   -2.9493    0.5232    1.0332 H   0  0  0  0  0  0  0  0  0  0  0  0
   -1.1389    1.1920    2.6114 H   0  0  0  0  0  0  0  0  0  0  0  0
    1.2945    1.1558    1.8281 H   0  0  0  0  0  0  0  0  0  0  0  0
    5.2539    0.9622    0.3403 O   0  0  0  0  0  0  0  0  0  0  0  0
    4.6647    0.9036    1.4295 N   0  0  0  0  0  0  0  0  0  0  0  0
    5.2285    1.0165    2.5188 O   0  0  0  0  0  0  0  0  0  0  0  0
    3.3814    0.7120    1.4375 O   0  0  0  0  0  0  0  0  0  0  0  0
  1  6  1  0  0  0  0
  2  1  2  0  0  0  0
  2  3  1  0  0  0  0
  3  4  2  0  0  0  0
  4  5  1  0  0  0  0
  4 13  1  0  0  0  0
  5 12  1  0  0  0  0
  6 11  1  0  0  0  0
  6  5  2  0  0  0  0
  7  1  1  0  0  0  0
  8  2  1  0  0  0  0
 10  9  3  0  0  0  0
 14 15  2  0  0  0  0
 15 17  2  0  0  0  0
 15 16  1  0  0  0  0
M  RAD  2   3   2  16   2
M  END
