Coordinates from ORCA-job Ph-N2-NO3-B3LYPG-aug-cc-pVDZ-scan-d09-49-n400
 OpenBabel10311713213D

 17 15  0  0  0  0  0  0  0  0999 V2000
   -1.6682    0.2965   -0.4833 C   0  0  0  0  0  0  0  0  0  0  0  0
   -0.3651    0.1724   -1.0320 C   0  0  0  0  0  0  0  0  0  0  0  0
    0.5193    0.4762   -0.0293 C   0  0  0  0  0  0  0  0  0  0  0  0
    0.4375    0.8161    1.1798 C   0  0  0  0  0  0  0  0  0  0  0  0
   -0.8418    0.9484    1.7536 C   0  0  0  0  0  0  0  0  0  0  0  0
   -1.8930    0.6697    0.8559 C   0  0  0  0  0  0  0  0  0  0  0  0
   -2.5198    0.0927   -1.1351 H   0  0  0  0  0  0  0  0  0  0  0  0
   -0.1627   -0.1132   -2.0602 H   0  0  0  0  0  0  0  0  0  0  0  0
    3.1216   -0.4884   -3.1927 N   0  0  0  0  0  0  0  0  0  0  0  0
    4.1491   -0.7361   -3.5118 N   0  0  0  0  0  0  0  0  0  0  0  0
   -2.9218    0.7463    1.2121 H   0  0  0  0  0  0  0  0  0  0  0  0
   -1.0288    1.2362    2.7873 H   0  0  0  0  0  0  0  0  0  0  0  0
    2.2447    1.1130    2.1218 H   0  0  0  0  0  0  0  0  0  0  0  0
    4.1185    0.8448    0.9904 O   0  0  0  0  0  0  0  0  0  0  0  0
    4.1546    1.1741    2.1614 N   0  0  0  0  0  0  0  0  0  0  0  0
    5.1095    1.3942    2.8620 O   0  0  0  0  0  0  0  0  0  0  0  0
    2.9291    1.3221    2.8073 O   0  0  0  0  0  0  0  0  0  0  0  0
  1  6  1  0  0  0  0
  2  1  2  0  0  0  0
  2  3  1  0  0  0  0
  3  4  2  0  0  0  0
  4  5  1  0  0  0  0
  5 12  1  0  0  0  0
  6 11  1  0  0  0  0
  6  5  2  0  0  0  0
  7  1  1  0  0  0  0
  8  2  1  0  0  0  0
 10  9  3  0  0  0  0
 13 17  1  0  0  0  0
 14 15  2  0  0  0  0
 15 17  1  0  0  0  0
 15 16  2  0  0  0  0
M  RAD  2   3   2   4   2
M  END
