Coordinates from ORCA-job Ph-N2-NO3-B3LYPG-aug-cc-pVDZ-scan-d09-49-n400
 OpenBabel10311713213D

 17 15  0  0  0  0  0  0  0  0999 V2000
   -1.6129    0.2957   -0.4849 C   0  0  0  0  0  0  0  0  0  0  0  0
   -0.2944    0.1847   -0.9984 C   0  0  0  0  0  0  0  0  0  0  0  0
    0.5608    0.4969    0.0277 C   0  0  0  0  0  0  0  0  0  0  0  0
    0.4398    0.8350    1.2339 C   0  0  0  0  0  0  0  0  0  0  0  0
   -0.8548    0.9544    1.7740 C   0  0  0  0  0  0  0  0  0  0  0  0
   -1.8782    0.6658    0.8477 C   0  0  0  0  0  0  0  0  0  0  0  0
   -2.4443    0.0837   -1.1597 H   0  0  0  0  0  0  0  0  0  0  0  0
   -0.0652   -0.0993   -2.0215 H   0  0  0  0  0  0  0  0  0  0  0  0
    3.0477   -0.6273   -3.5742 N   0  0  0  0  0  0  0  0  0  0  0  0
    4.0392   -0.8762   -3.9914 N   0  0  0  0  0  0  0  0  0  0  0  0
   -2.9171    0.7318    1.1757 H   0  0  0  0  0  0  0  0  0  0  0  0
   -1.0726    1.2396    2.8023 H   0  0  0  0  0  0  0  0  0  0  0  0
    2.2238    1.1513    2.2230 H   0  0  0  0  0  0  0  0  0  0  0  0
    4.1291    0.8855    1.1474 O   0  0  0  0  0  0  0  0  0  0  0  0
    4.1309    1.2214    2.3169 N   0  0  0  0  0  0  0  0  0  0  0  0
    5.0644    1.4535    3.0421 O   0  0  0  0  0  0  0  0  0  0  0  0
    2.8865    1.3687    2.9265 O   0  0  0  0  0  0  0  0  0  0  0  0
  1  6  1  0  0  0  0
  2  1  2  0  0  0  0
  2  3  1  0  0  0  0
  3  4  2  0  0  0  0
  4  5  1  0  0  0  0
  5 12  1  0  0  0  0
  6 11  1  0  0  0  0
  6  5  2  0  0  0  0
  7  1  1  0  0  0  0
  8  2  1  0  0  0  0
 10  9  3  0  0  0  0
 13 17  1  0  0  0  0
 14 15  2  0  0  0  0
 15 17  1  0  0  0  0
 15 16  2  0  0  0  0
M  RAD  2   3   2   4   2
M  END
