Coordinates from ORCA-job Ph-N2-NO3-B3LYPG-aug-cc-pVDZ-scan-d09-49-n400
 OpenBabel10311713213D

 17 15  0  0  0  0  0  0  0  0999 V2000
   -1.7288    0.3210   -0.5476 C   0  0  0  0  0  0  0  0  0  0  0  0
   -0.5113    0.1205   -1.2485 C   0  0  0  0  0  0  0  0  0  0  0  0
    0.5015    0.3353   -0.3532 C   0  0  0  0  0  0  0  0  0  0  0  0
    0.6081    0.6511    0.8634 C   0  0  0  0  0  0  0  0  0  0  0  0
   -0.5928    0.8536    1.5792 C   0  0  0  0  0  0  0  0  0  0  0  0
   -1.7629    0.6740    0.8149 C   0  0  0  0  0  0  0  0  0  0  0  0
   -2.6636    0.1935   -1.0965 H   0  0  0  0  0  0  0  0  0  0  0  0
   -0.4495   -0.1515   -2.2978 H   0  0  0  0  0  0  0  0  0  0  0  0
    2.7319   -0.2368   -2.2214 N   0  0  0  0  0  0  0  0  0  0  0  0
    3.7991   -0.4718   -2.3777 N   0  0  0  0  0  0  0  0  0  0  0  0
   -2.7324    0.8144    1.2958 H   0  0  0  0  0  0  0  0  0  0  0  0
   -0.6346    1.1282    2.6328 H   0  0  0  0  0  0  0  0  0  0  0  0
    2.3189    0.9191    1.8671 H   0  0  0  0  0  0  0  0  0  0  0  0
    4.2819    1.0305    0.8540 O   0  0  0  0  0  0  0  0  0  0  0  0
    4.2032    1.2091    2.0555 N   0  0  0  0  0  0  0  0  0  0  0  0
    5.0779    1.4605    2.8456 O   0  0  0  0  0  0  0  0  0  0  0  0
    2.9361    1.1143    2.6213 O   0  0  0  0  0  0  0  0  0  0  0  0
  1  6  1  0  0  0  0
  2  1  2  0  0  0  0
  2  3  1  0  0  0  0
  3  4  2  0  0  0  0
  4  5  1  0  0  0  0
  5 12  1  0  0  0  0
  6 11  1  0  0  0  0
  6  5  2  0  0  0  0
  7  1  1  0  0  0  0
  8  2  1  0  0  0  0
 10  9  3  0  0  0  0
 13 17  1  0  0  0  0
 14 15  2  0  0  0  0
 15 17  1  0  0  0  0
 15 16  2  0  0  0  0
M  RAD  2   3   2   4   2
M  END
