Coordinates from ORCA-job Ph-N2-NO3-B3LYPG-aug-cc-pVDZ-scan-d09-49-n400
 OpenBabel10311713213D

 17 16  0  0  0  0  0  0  0  0999 V2000
   -1.5574    0.0930   -0.6118 C   0  0  0  0  0  0  0  0  0  0  0  0
   -0.2173    0.0940   -1.0392 C   0  0  0  0  0  0  0  0  0  0  0  0
    0.6528    0.5199   -0.0701 C   0  0  0  0  0  0  0  0  0  0  0  0
    0.4521    0.9324    1.2172 C   0  0  0  0  0  0  0  0  0  0  0  0
   -0.9048    0.9132    1.5899 C   0  0  0  0  0  0  0  0  0  0  0  0
   -1.8898    0.4985    0.6861 C   0  0  0  0  0  0  0  0  0  0  0  0
   -2.3303   -0.2287   -1.3098 H   0  0  0  0  0  0  0  0  0  0  0  0
    0.0875   -0.2112   -2.0365 H   0  0  0  0  0  0  0  0  0  0  0  0
    2.4453    0.5419   -0.6109 N   0  0  0  0  0  0  0  0  0  0  0  0
    3.1036    0.4813   -1.5082 N   0  0  0  0  0  0  0  0  0  0  0  0
   -2.9339    0.4893    0.9976 H   0  0  0  0  0  0  0  0  0  0  0  0
   -1.1734    1.2244    2.5992 H   0  0  0  0  0  0  0  0  0  0  0  0
    1.2692    1.2300    1.8686 H   0  0  0  0  0  0  0  0  0  0  0  0
    5.1835    0.8938    0.2680 O   0  0  0  0  0  0  0  0  0  0  0  0
    4.6302    0.8516    1.3768 N   0  0  0  0  0  0  0  0  0  0  0  0
    5.2290    0.9331    2.4471 O   0  0  0  0  0  0  0  0  0  0  0  0
    3.3366    0.7085    1.4232 O   0  0  0  0  0  0  0  0  0  0  0  0
  1  6  1  0  0  0  0
  2  1  2  0  0  0  0
  2  3  1  0  0  0  0
  3  4  2  0  0  0  0
  4  5  1  0  0  0  0
  4 13  1  0  0  0  0
  5 12  1  0  0  0  0
  6 11  1  0  0  0  0
  6  5  2  0  0  0  0
  7  1  1  0  0  0  0
  8  2  1  0  0  0  0
  9  3  1  0  0  0  0
 10  9  2  0  0  0  0
 14 15  2  0  0  0  0
 15 17  2  0  0  0  0
 15 16  1  0  0  0  0
M  RAD  2  10   2  16   2
M  END
