Coordinates from ORCA-job Ph-N2-NO3-B3LYPG-aug-cc-pVDZ-scan-d09-49-n400
 OpenBabel10311713213D

 17 15  0  0  0  0  0  0  0  0999 V2000
   -1.7164    0.3010   -0.4939 C   0  0  0  0  0  0  0  0  0  0  0  0
   -0.4476    0.1478   -1.1112 C   0  0  0  0  0  0  0  0  0  0  0  0
    0.4965    0.4252   -0.1567 C   0  0  0  0  0  0  0  0  0  0  0  0
    0.4887    0.7622    1.0560 C   0  0  0  0  0  0  0  0  0  0  0  0
   -0.7553    0.9222    1.6973 C   0  0  0  0  0  0  0  0  0  0  0  0
   -1.8598    0.6735    0.8566 C   0  0  0  0  0  0  0  0  0  0  0  0
   -2.6061    0.1206   -1.1000 H   0  0  0  0  0  0  0  0  0  0  0  0
   -0.3077   -0.1375   -2.1498 H   0  0  0  0  0  0  0  0  0  0  0  0
    3.0722   -0.3777   -2.9416 N   0  0  0  0  0  0  0  0  0  0  0  0
    4.0888   -0.6985   -3.2290 N   0  0  0  0  0  0  0  0  0  0  0  0
   -2.8658    0.7737    1.2680 H   0  0  0  0  0  0  0  0  0  0  0  0
   -0.8796    1.2102    2.7404 H   0  0  0  0  0  0  0  0  0  0  0  0
    2.2759    1.0624    2.0179 H   0  0  0  0  0  0  0  0  0  0  0  0
    4.2234    0.8879    0.9904 O   0  0  0  0  0  0  0  0  0  0  0  0
    4.1789    1.1885    2.1687 N   0  0  0  0  0  0  0  0  0  0  0  0
    5.0829    1.4261    2.9290 O   0  0  0  0  0  0  0  0  0  0  0  0
    2.9139    1.2775    2.7452 O   0  0  0  0  0  0  0  0  0  0  0  0
  1  6  1  0  0  0  0
  2  1  2  0  0  0  0
  2  3  1  0  0  0  0
  3  4  2  0  0  0  0
  4  5  1  0  0  0  0
  5 12  1  0  0  0  0
  6 11  1  0  0  0  0
  6  5  2  0  0  0  0
  7  1  1  0  0  0  0
  8  2  1  0  0  0  0
 10  9  3  0  0  0  0
 13 17  1  0  0  0  0
 14 15  2  0  0  0  0
 15 17  1  0  0  0  0
 15 16  2  0  0  0  0
M  RAD  2   3   2   4   2
M  END
