Coordinates from ORCA-job Ph-N2-NO3-B3LYPG-aug-cc-pVDZ-scan-d09-49-n400
 OpenBabel10311713213D

 17 15  0  0  0  0  0  0  0  0999 V2000
   -1.6854    0.2977   -0.4862 C   0  0  0  0  0  0  0  0  0  0  0  0
   -0.3938    0.1620   -1.0585 C   0  0  0  0  0  0  0  0  0  0  0  0
    0.5129    0.4566   -0.0734 C   0  0  0  0  0  0  0  0  0  0  0  0
    0.4577    0.7974    1.1378 C   0  0  0  0  0  0  0  0  0  0  0  0
   -0.8108    0.9405    1.7340 C   0  0  0  0  0  0  0  0  0  0  0  0
   -1.8814    0.6722    0.8567 C   0  0  0  0  0  0  0  0  0  0  0  0
   -2.5507    0.1019   -1.1223 H   0  0  0  0  0  0  0  0  0  0  0  0
   -0.2133   -0.1247   -2.0903 H   0  0  0  0  0  0  0  0  0  0  0  0
    3.1103   -0.4423   -3.0994 N   0  0  0  0  0  0  0  0  0  0  0  0
    4.1338   -0.7203   -3.4064 N   0  0  0  0  0  0  0  0  0  0  0  0
   -2.9026    0.7582    1.2323 H   0  0  0  0  0  0  0  0  0  0  0  0
   -0.9759    1.2297    2.7710 H   0  0  0  0  0  0  0  0  0  0  0  0
    2.2520    1.0951    2.0877 H   0  0  0  0  0  0  0  0  0  0  0  0
    4.1448    0.8557    0.9850 O   0  0  0  0  0  0  0  0  0  0  0  0
    4.1600    1.1755    2.1587 N   0  0  0  0  0  0  0  0  0  0  0  0
    5.1016    1.4034    2.8748 O   0  0  0  0  0  0  0  0  0  0  0  0
    2.9233    1.3064    2.7858 O   0  0  0  0  0  0  0  0  0  0  0  0
  1  6  1  0  0  0  0
  2  1  2  0  0  0  0
  2  3  1  0  0  0  0
  3  4  2  0  0  0  0
  4  5  1  0  0  0  0
  5 12  1  0  0  0  0
  6 11  1  0  0  0  0
  6  5  2  0  0  0  0
  7  1  1  0  0  0  0
  8  2  1  0  0  0  0
 10  9  3  0  0  0  0
 13 17  1  0  0  0  0
 14 15  2  0  0  0  0
 15 17  1  0  0  0  0
 15 16  2  0  0  0  0
M  RAD  2   3   2   4   2
M  END
