Coordinates from ORCA-job Ph-N2-NO3-B3LYPG-aug-cc-pVDZ-scan-d09-49-n400
 OpenBabel10311713213D

 17 15  0  0  0  0  0  0  0  0999 V2000
   -1.6755    0.2967   -0.4842 C   0  0  0  0  0  0  0  0  0  0  0  0
   -0.3771    0.1682   -1.0426 C   0  0  0  0  0  0  0  0  0  0  0  0
    0.5175    0.4685   -0.0480 C   0  0  0  0  0  0  0  0  0  0  0  0
    0.4460    0.8090    1.1622 C   0  0  0  0  0  0  0  0  0  0  0  0
   -0.8290    0.9455    1.7453 C   0  0  0  0  0  0  0  0  0  0  0  0
   -1.8884    0.6706    0.8564 C   0  0  0  0  0  0  0  0  0  0  0  0
   -2.5327    0.0957   -1.1295 H   0  0  0  0  0  0  0  0  0  0  0  0
   -0.1838   -0.1180   -2.0722 H   0  0  0  0  0  0  0  0  0  0  0  0
    3.1177   -0.4698   -3.1543 N   0  0  0  0  0  0  0  0  0  0  0  0
    4.1441   -0.7283   -3.4684 N   0  0  0  0  0  0  0  0  0  0  0  0
   -2.9141    0.7509    1.2207 H   0  0  0  0  0  0  0  0  0  0  0  0
   -1.0071    1.2340    2.7804 H   0  0  0  0  0  0  0  0  0  0  0  0
    2.2475    1.1065    2.1084 H   0  0  0  0  0  0  0  0  0  0  0  0
    4.1273    0.8479    0.9883 O   0  0  0  0  0  0  0  0  0  0  0  0
    4.1564    1.1737    2.1601 N   0  0  0  0  0  0  0  0  0  0  0  0
    5.1068    1.3970    2.8660 O   0  0  0  0  0  0  0  0  0  0  0  0
    2.9270    1.3169    2.7986 O   0  0  0  0  0  0  0  0  0  0  0  0
  1  6  1  0  0  0  0
  2  1  2  0  0  0  0
  2  3  1  0  0  0  0
  3  4  2  0  0  0  0
  4  5  1  0  0  0  0
  5 12  1  0  0  0  0
  6 11  1  0  0  0  0
  6  5  2  0  0  0  0
  7  1  1  0  0  0  0
  8  2  1  0  0  0  0
 10  9  3  0  0  0  0
 13 17  1  0  0  0  0
 14 15  2  0  0  0  0
 15 17  1  0  0  0  0
 15 16  2  0  0  0  0
M  RAD  2   3   2   4   2
M  END
