Coordinates from ORCA-job Ph-N2-NO3-B3LYPG-aug-cc-pVDZ-scan-d09-49-n400
 OpenBabel10311713213D

 17 15  0  0  0  0  0  0  0  0999 V2000
   -1.7506    0.3071   -0.5011 C   0  0  0  0  0  0  0  0  0  0  0  0
   -0.5095    0.1310   -1.1669 C   0  0  0  0  0  0  0  0  0  0  0  0
    0.4740    0.3876   -0.2482 C   0  0  0  0  0  0  0  0  0  0  0  0
    0.5266    0.7214    0.9654 C   0  0  0  0  0  0  0  0  0  0  0  0
   -0.6924    0.9019    1.6514 C   0  0  0  0  0  0  0  0  0  0  0  0
   -1.8336    0.6779    0.8548 C   0  0  0  0  0  0  0  0  0  0  0  0
   -2.6663    0.1457   -1.0729 H   0  0  0  0  0  0  0  0  0  0  0  0
   -0.4136   -0.1538   -2.2105 H   0  0  0  0  0  0  0  0  0  0  0  0
    3.0386   -0.3018   -2.6442 N   0  0  0  0  0  0  0  0  0  0  0  0
    4.0813   -0.5859   -2.8694 N   0  0  0  0  0  0  0  0  0  0  0  0
   -2.8205    0.7965    1.3056 H   0  0  0  0  0  0  0  0  0  0  0  0
   -0.7710    1.1889    2.6993 H   0  0  0  0  0  0  0  0  0  0  0  0
    2.2879    1.0159    1.9365 H   0  0  0  0  0  0  0  0  0  0  0  0
    4.2491    0.9036    0.9243 O   0  0  0  0  0  0  0  0  0  0  0  0
    4.1873    1.1793    2.1079 N   0  0  0  0  0  0  0  0  0  0  0  0
    5.0792    1.4212    2.8810 O   0  0  0  0  0  0  0  0  0  0  0  0
    2.9160    1.2286    2.6741 O   0  0  0  0  0  0  0  0  0  0  0  0
  1  6  1  0  0  0  0
  2  1  2  0  0  0  0
  2  3  1  0  0  0  0
  3  4  2  0  0  0  0
  4  5  1  0  0  0  0
  5 12  1  0  0  0  0
  6 11  1  0  0  0  0
  6  5  2  0  0  0  0
  7  1  1  0  0  0  0
  8  2  1  0  0  0  0
 10  9  3  0  0  0  0
 13 17  1  0  0  0  0
 14 15  2  0  0  0  0
 15 17  1  0  0  0  0
 15 16  2  0  0  0  0
M  RAD  2   3   2   4   2
M  END
