Coordinates from ORCA-job Ph-N2-NO3-B3LYPG-aug-cc-pVDZ-scan-d09-49-n400
 OpenBabel10311713213D

 17 15  0  0  0  0  0  0  0  0999 V2000
   -1.7505    0.3072   -0.5018 C   0  0  0  0  0  0  0  0  0  0  0  0
   -0.5098    0.1309   -1.1683 C   0  0  0  0  0  0  0  0  0  0  0  0
    0.4742    0.3870   -0.2500 C   0  0  0  0  0  0  0  0  0  0  0  0
    0.5277    0.7205    0.9637 C   0  0  0  0  0  0  0  0  0  0  0  0
   -0.6910    0.9011    1.6503 C   0  0  0  0  0  0  0  0  0  0  0  0
   -1.8327    0.6777    0.8542 C   0  0  0  0  0  0  0  0  0  0  0  0
   -2.6666    0.1463   -1.0732 H   0  0  0  0  0  0  0  0  0  0  0  0
   -0.4145   -0.1536   -2.2120 H   0  0  0  0  0  0  0  0  0  0  0  0
    3.0345   -0.3003   -2.6361 N   0  0  0  0  0  0  0  0  0  0  0  0
    4.0778   -0.5836   -2.8599 N   0  0  0  0  0  0  0  0  0  0  0  0
   -2.8192    0.7965    1.3056 H   0  0  0  0  0  0  0  0  0  0  0  0
   -0.7689    1.1879    2.6983 H   0  0  0  0  0  0  0  0  0  0  0  0
    2.2884    1.0147    1.9351 H   0  0  0  0  0  0  0  0  0  0  0  0
    4.2496    0.9047    0.9226 O   0  0  0  0  0  0  0  0  0  0  0  0
    4.1877    1.1794    2.1064 N   0  0  0  0  0  0  0  0  0  0  0  0
    5.0795    1.4214    2.8796 O   0  0  0  0  0  0  0  0  0  0  0  0
    2.9165    1.2271    2.6728 O   0  0  0  0  0  0  0  0  0  0  0  0
  1  6  1  0  0  0  0
  2  1  2  0  0  0  0
  2  3  1  0  0  0  0
  3  4  2  0  0  0  0
  4  5  1  0  0  0  0
  5 12  1  0  0  0  0
  6 11  1  0  0  0  0
  6  5  2  0  0  0  0
  7  1  1  0  0  0  0
  8  2  1  0  0  0  0
 10  9  3  0  0  0  0
 13 17  1  0  0  0  0
 14 15  2  0  0  0  0
 15 17  1  0  0  0  0
 15 16  2  0  0  0  0
M  RAD  2   3   2   4   2
M  END
