Coordinates from ORCA-job Ph-N2-NO3-B3LYPG-aug-cc-pVDZ-scan-d09-49-n400
 OpenBabel10311713213D

 17 15  0  0  0  0  0  0  0  0999 V2000
   -1.7295    0.3207   -0.5467 C   0  0  0  0  0  0  0  0  0  0  0  0
   -0.5119    0.1208   -1.2474 C   0  0  0  0  0  0  0  0  0  0  0  0
    0.5007    0.3362   -0.3521 C   0  0  0  0  0  0  0  0  0  0  0  0
    0.6067    0.6522    0.8644 C   0  0  0  0  0  0  0  0  0  0  0  0
   -0.5942    0.8543    1.5803 C   0  0  0  0  0  0  0  0  0  0  0  0
   -1.7640    0.6740    0.8158 C   0  0  0  0  0  0  0  0  0  0  0  0
   -2.6642    0.1927   -1.0957 H   0  0  0  0  0  0  0  0  0  0  0  0
   -0.4497   -0.1514   -2.2967 H   0  0  0  0  0  0  0  0  0  0  0  0
    2.7380   -0.2376   -2.2275 N   0  0  0  0  0  0  0  0  0  0  0  0
    3.8049   -0.4734   -2.3846 N   0  0  0  0  0  0  0  0  0  0  0  0
   -2.7337    0.8139    1.2965 H   0  0  0  0  0  0  0  0  0  0  0  0
   -0.6362    1.1291    2.6338 H   0  0  0  0  0  0  0  0  0  0  0  0
    2.3182    0.9212    1.8680 H   0  0  0  0  0  0  0  0  0  0  0  0
    4.2813    1.0276    0.8550 O   0  0  0  0  0  0  0  0  0  0  0  0
    4.2029    1.2084    2.0562 N   0  0  0  0  0  0  0  0  0  0  0  0
    5.0779    1.4595    2.8459 O   0  0  0  0  0  0  0  0  0  0  0  0
    2.9355    1.1168    2.6220 O   0  0  0  0  0  0  0  0  0  0  0  0
  1  6  1  0  0  0  0
  2  1  2  0  0  0  0
  2  3  1  0  0  0  0
  3  4  2  0  0  0  0
  4  5  1  0  0  0  0
  5 12  1  0  0  0  0
  6 11  1  0  0  0  0
  6  5  2  0  0  0  0
  7  1  1  0  0  0  0
  8  2  1  0  0  0  0
 10  9  3  0  0  0  0
 13 17  1  0  0  0  0
 14 15  2  0  0  0  0
 15 17  1  0  0  0  0
 15 16  2  0  0  0  0
M  RAD  2   3   2   4   2
M  END
