Coordinates from ORCA-job Ph-N2-NO3-B3LYPG-aug-cc-pVDZ-scan-d09-49-n400
 OpenBabel10311713213D

 17 15  0  0  0  0  0  0  0  0999 V2000
   -1.7391    0.3159   -0.5324 C   0  0  0  0  0  0  0  0  0  0  0  0
   -0.5143    0.1254   -1.2237 C   0  0  0  0  0  0  0  0  0  0  0  0
    0.4898    0.3542   -0.3215 C   0  0  0  0  0  0  0  0  0  0  0  0
    0.5788    0.6753    0.8944 C   0  0  0  0  0  0  0  0  0  0  0  0
   -0.6269    0.8686    1.6028 C   0  0  0  0  0  0  0  0  0  0  0  0
   -1.7882    0.6736    0.8285 C   0  0  0  0  0  0  0  0  0  0  0  0
   -2.6684    0.1766   -1.0880 H   0  0  0  0  0  0  0  0  0  0  0  0
   -0.4424   -0.1500   -2.2716 H   0  0  0  0  0  0  0  0  0  0  0  0
    2.8405   -0.2512   -2.3378 N   0  0  0  0  0  0  0  0  0  0  0  0
    3.9014   -0.5013   -2.5131 N   0  0  0  0  0  0  0  0  0  0  0  0
   -2.7633    0.8053    1.3006 H   0  0  0  0  0  0  0  0  0  0  0  0
   -0.6798    1.1465    2.6549 H   0  0  0  0  0  0  0  0  0  0  0  0
    2.3085    0.9554    1.8854 H   0  0  0  0  0  0  0  0  0  0  0  0
    4.2713    0.9777    0.8677 O   0  0  0  0  0  0  0  0  0  0  0  0
    4.2003    1.1945    2.0632 N   0  0  0  0  0  0  0  0  0  0  0  0
    5.0833    1.4413    2.8453 O   0  0  0  0  0  0  0  0  0  0  0  0
    2.9310    1.1573    2.6324 O   0  0  0  0  0  0  0  0  0  0  0  0
  1  6  1  0  0  0  0
  2  1  2  0  0  0  0
  2  3  1  0  0  0  0
  3  4  2  0  0  0  0
  4  5  1  0  0  0  0
  5 12  1  0  0  0  0
  6 11  1  0  0  0  0
  6  5  2  0  0  0  0
  7  1  1  0  0  0  0
  8  2  1  0  0  0  0
 10  9  3  0  0  0  0
 13 17  1  0  0  0  0
 14 15  2  0  0  0  0
 15 17  1  0  0  0  0
 15 16  2  0  0  0  0
M  RAD  2   3   2   4   2
M  END
