Coordinates from ORCA-job Ph-N2-NO3-B3LYPG-aug-cc-pVDZ-scan-d09-49-n400
 OpenBabel10311713213D

 17 17  0  0  1  0  0  0  0  0999 V2000
   -0.8004   -0.2931   -0.2760 C   0  0  0  0  0  0  0  0  0  0  0  0
    0.2101    0.0422   -1.0981 C   0  0  0  0  0  0  0  0  0  0  0  0
    1.2835    1.0184   -0.7120 C   0  0  0  0  0  0  0  0  0  0  0  0
    1.2055    1.5580    0.7817 C   0  0  1  0  0  0  0  0  0  0  0  0
    0.0259    1.0889    1.5692 C   0  0  0  0  0  0  0  0  0  0  0  0
   -0.9025    0.2543    1.0690 C   0  0  0  0  0  0  0  0  0  0  0  0
   -1.5539   -1.0038   -0.6152 H   0  0  0  0  0  0  0  0  0  0  0  0
    0.3186   -0.3749   -2.0999 H   0  0  0  0  0  0  0  0  0  0  0  0
    1.9613    1.3198   -1.2730 N   0  0  0  0  0  0  0  0  0  0  0  0
    2.8287    1.7162   -1.9734 N   0  0  0  0  0  0  0  0  0  0  0  0
   -1.7556   -0.0327    1.6844 H   0  0  0  0  0  0  0  0  0  0  0  0
   -0.0549    1.4904    2.5802 H   0  0  0  0  0  0  0  0  0  0  0  0
    1.2204    2.6567    0.7070 H   0  0  0  0  0  0  0  0  0  0  0  0
    2.4775    1.3812    1.4769 O   0  0  0  0  0  0  0  0  0  0  0  0
    2.8683    0.0277    1.7530 N   0  0  0  0  0  0  0  0  0  0  0  0
    3.8196   -0.0290    2.4843 O   0  0  0  0  0  0  0  0  0  0  0  0
    2.2305   -0.8552    1.2290 O   0  0  0  0  0  0  0  0  0  0  0  0
  1  6  1  0  0  0  0
  2  3  2  0  0  0  0
  2  1  1  0  0  0  0
  3  4  1  0  0  0  0
  4 13  1  6  0  0  0
  4 14  1  0  0  0  0
  4  5  1  0  0  0  0
  5 12  1  0  0  0  0
  6  5  2  0  0  0  0
  6 11  1  0  0  0  0
  7  1  1  0  0  0  0
  8  2  1  0  0  0  0
  9  3  1  0  0  0  0
 10  9  1  0  0  0  0
 14 15  1  0  0  0  0
 15 16  2  0  0  0  0
 17 15  2  0  0  0  0
M  RAD  3   1   2   9   2  10   3
M  END
