Coordinates from ORCA-job Ph-N2-NO3-B3LYPG-aug-cc-pVDZ-scan-d09-49-n400
 OpenBabel10311713213D

 17 15  0  0  0  0  0  0  0  0999 V2000
   -1.7012    0.2993   -0.4907 C   0  0  0  0  0  0  0  0  0  0  0  0
   -0.4208    0.1528   -1.0865 C   0  0  0  0  0  0  0  0  0  0  0  0
    0.5020    0.4391   -0.1149 C   0  0  0  0  0  0  0  0  0  0  0  0
    0.4744    0.7781    1.0969 C   0  0  0  0  0  0  0  0  0  0  0  0
   -0.7822    0.9314    1.7158 C   0  0  0  0  0  0  0  0  0  0  0  0
   -1.8703    0.6738    0.8564 C   0  0  0  0  0  0  0  0  0  0  0  0
   -2.5795    0.1118   -1.1112 H   0  0  0  0  0  0  0  0  0  0  0  0
   -0.2618   -0.1341   -2.1218 H   0  0  0  0  0  0  0  0  0  0  0  0
    3.0914   -0.4029   -3.0145 N   0  0  0  0  0  0  0  0  0  0  0  0
    4.1094   -0.7100   -3.3118 N   0  0  0  0  0  0  0  0  0  0  0  0
   -2.8840    0.7682    1.2497 H   0  0  0  0  0  0  0  0  0  0  0  0
   -0.9268    1.2204    2.7560 H   0  0  0  0  0  0  0  0  0  0  0  0
    2.2640    1.0765    2.0506 H   0  0  0  0  0  0  0  0  0  0  0  0
    4.1868    0.8732    0.9854 O   0  0  0  0  0  0  0  0  0  0  0  0
    4.1703    1.1825    2.1622 N   0  0  0  0  0  0  0  0  0  0  0  0
    5.0926    1.4151    2.9017 O   0  0  0  0  0  0  0  0  0  0  0  0
    2.9185    1.2898    2.7639 O   0  0  0  0  0  0  0  0  0  0  0  0
  1  6  1  0  0  0  0
  2  1  2  0  0  0  0
  2  3  1  0  0  0  0
  3  4  2  0  0  0  0
  4  5  1  0  0  0  0
  5 12  1  0  0  0  0
  6 11  1  0  0  0  0
  6  5  2  0  0  0  0
  7  1  1  0  0  0  0
  8  2  1  0  0  0  0
 10  9  3  0  0  0  0
 13 17  1  0  0  0  0
 14 15  2  0  0  0  0
 15 17  1  0  0  0  0
 15 16  2  0  0  0  0
M  RAD  2   3   2   4   2
M  END
