Coordinates from ORCA-job Ph-N2-NO3-B3LYPG-aug-cc-pVDZ-scan-d09-49-n400
 OpenBabel10311713213D

 17 15  0  0  0  0  0  0  0  0999 V2000
   -1.7284    0.3021   -0.4949 C   0  0  0  0  0  0  0  0  0  0  0  0
   -0.4671    0.1428   -1.1258 C   0  0  0  0  0  0  0  0  0  0  0  0
    0.4882    0.4151   -0.1814 C   0  0  0  0  0  0  0  0  0  0  0  0
    0.4963    0.7521    1.0314 C   0  0  0  0  0  0  0  0  0  0  0  0
   -0.7404    0.9180    1.6856 C   0  0  0  0  0  0  0  0  0  0  0  0
   -1.8553    0.6750    0.8571 C   0  0  0  0  0  0  0  0  0  0  0  0
   -2.6255    0.1263   -1.0914 H   0  0  0  0  0  0  0  0  0  0  0  0
   -0.3398   -0.1430   -2.1658 H   0  0  0  0  0  0  0  0  0  0  0  0
    3.0718   -0.3542   -2.8557 N   0  0  0  0  0  0  0  0  0  0  0  0
    4.0966   -0.6640   -3.1258 N   0  0  0  0  0  0  0  0  0  0  0  0
   -2.8561    0.7803    1.2795 H   0  0  0  0  0  0  0  0  0  0  0  0
   -0.8520    1.2063    2.7301 H   0  0  0  0  0  0  0  0  0  0  0  0
    2.2803    1.0496    1.9922 H   0  0  0  0  0  0  0  0  0  0  0  0
    4.2322    0.8885    0.9691 O   0  0  0  0  0  0  0  0  0  0  0  0
    4.1828    1.1838    2.1485 N   0  0  0  0  0  0  0  0  0  0  0  0
    5.0835    1.4222    2.9124 O   0  0  0  0  0  0  0  0  0  0  0  0
    2.9158    1.2642    2.7220 O   0  0  0  0  0  0  0  0  0  0  0  0
  1  6  1  0  0  0  0
  2  1  2  0  0  0  0
  2  3  1  0  0  0  0
  3  4  2  0  0  0  0
  4  5  1  0  0  0  0
  5 12  1  0  0  0  0
  6 11  1  0  0  0  0
  6  5  2  0  0  0  0
  7  1  1  0  0  0  0
  8  2  1  0  0  0  0
 10  9  3  0  0  0  0
 13 17  1  0  0  0  0
 14 15  2  0  0  0  0
 15 17  1  0  0  0  0
 15 16  2  0  0  0  0
M  RAD  2   3   2   4   2
M  END
