Coordinates from ORCA-job Ph-N2-NO3-B3LYPG-aug-cc-pVDZ-scan-d09-49-n400
 OpenBabel10311713213D

 17 17  0  0  1  0  0  0  0  0999 V2000
   -0.7739   -0.3201   -0.2590 C   0  0  0  0  0  0  0  0  0  0  0  0
    0.2341    0.0257   -1.0830 C   0  0  0  0  0  0  0  0  0  0  0  0
    1.2632    1.0326   -0.6989 C   0  0  0  0  0  0  0  0  0  0  0  0
    1.2139    1.5626    0.7743 C   0  0  1  0  0  0  0  0  0  0  0  0
    0.0212    1.1189    1.5570 C   0  0  0  0  0  0  0  0  0  0  0  0
   -0.8939    0.2605    1.0692 C   0  0  0  0  0  0  0  0  0  0  0  0
   -1.5093   -1.0547   -0.5856 H   0  0  0  0  0  0  0  0  0  0  0  0
    0.3522   -0.4073   -2.0767 H   0  0  0  0  0  0  0  0  0  0  0  0
    1.9530    1.3819   -1.3175 N   0  0  0  0  0  0  0  0  0  0  0  0
    2.7759    1.8076   -2.0359 N   0  0  0  0  0  0  0  0  0  0  0  0
   -1.7528   -0.0145    1.6823 H   0  0  0  0  0  0  0  0  0  0  0  0
   -0.0783    1.5508    2.5533 H   0  0  0  0  0  0  0  0  0  0  0  0
    1.2663    2.6612    0.7259 H   0  0  0  0  0  0  0  0  0  0  0  0
    2.4858    1.3447    1.4848 O   0  0  0  0  0  0  0  0  0  0  0  0
    2.8434   -0.0112    1.7622 N   0  0  0  0  0  0  0  0  0  0  0  0
    3.7939   -0.0905    2.4948 O   0  0  0  0  0  0  0  0  0  0  0  0
    2.1881   -0.8831    1.2401 O   0  0  0  0  0  0  0  0  0  0  0  0
  1  6  1  0  0  0  0
  2  3  2  0  0  0  0
  2  1  1  0  0  0  0
  3  4  1  0  0  0  0
  4 13  1  6  0  0  0
  4 14  1  0  0  0  0
  4  5  1  0  0  0  0
  5 12  1  0  0  0  0
  6  5  2  0  0  0  0
  6 11  1  0  0  0  0
  7  1  1  0  0  0  0
  8  2  1  0  0  0  0
  9  3  1  0  0  0  0
 10  9  1  0  0  0  0
 14 15  1  0  0  0  0
 15 16  2  0  0  0  0
 17 15  2  0  0  0  0
M  RAD  3   1   2   9   2  10   3
M  END
