Coordinates from ORCA-job Ph-N2-NO3-B3LYPG-aug-cc-pVDZ-scan-d09-49-n400
 OpenBabel10311713213D

 17 15  0  0  0  0  0  0  0  0999 V2000
   -1.7108    0.3005   -0.4930 C   0  0  0  0  0  0  0  0  0  0  0  0
   -0.4386    0.1496   -1.1042 C   0  0  0  0  0  0  0  0  0  0  0  0
    0.4993    0.4295   -0.1447 C   0  0  0  0  0  0  0  0  0  0  0  0
    0.4852    0.7669    1.0677 C   0  0  0  0  0  0  0  0  0  0  0  0
   -0.7622    0.9248    1.7029 C   0  0  0  0  0  0  0  0  0  0  0  0
   -1.8619    0.6734    0.8566 C   0  0  0  0  0  0  0  0  0  0  0  0
   -2.5973    0.1179   -1.1034 H   0  0  0  0  0  0  0  0  0  0  0  0
   -0.2932   -0.1361   -2.1419 H   0  0  0  0  0  0  0  0  0  0  0  0
    3.0757   -0.3858   -2.9672 N   0  0  0  0  0  0  0  0  0  0  0  0
    4.0916   -0.7050   -3.2588 N   0  0  0  0  0  0  0  0  0  0  0  0
   -2.8701    0.7717    1.2627 H   0  0  0  0  0  0  0  0  0  0  0  0
   -0.8924    1.2129    2.7453 H   0  0  0  0  0  0  0  0  0  0  0  0
    2.2720    1.0670    2.0283 H   0  0  0  0  0  0  0  0  0  0  0  0
    4.2121    0.8842    0.9914 O   0  0  0  0  0  0  0  0  0  0  0  0
    4.1754    1.1877    2.1692 N   0  0  0  0  0  0  0  0  0  0  0  0
    5.0843    1.4240    2.9239 O   0  0  0  0  0  0  0  0  0  0  0  0
    2.9137    1.2818    2.7524 O   0  0  0  0  0  0  0  0  0  0  0  0
  1  6  1  0  0  0  0
  2  1  2  0  0  0  0
  2  3  1  0  0  0  0
  3  4  2  0  0  0  0
  4  5  1  0  0  0  0
  5 12  1  0  0  0  0
  6 11  1  0  0  0  0
  6  5  2  0  0  0  0
  7  1  1  0  0  0  0
  8  2  1  0  0  0  0
 10  9  3  0  0  0  0
 13 17  1  0  0  0  0
 14 15  2  0  0  0  0
 15 17  1  0  0  0  0
 15 16  2  0  0  0  0
M  RAD  2   3   2   4   2
M  END
