Coordinates from ORCA-job Ph-N2-NO3-B3LYPG-aug-cc-pVDZ-scan-d09-49-n400
 OpenBabel10311713213D

 17 15  0  0  0  0  0  0  0  0999 V2000
   -1.7312    0.3024   -0.4952 C   0  0  0  0  0  0  0  0  0  0  0  0
   -0.4717    0.1415   -1.1295 C   0  0  0  0  0  0  0  0  0  0  0  0
    0.4864    0.4125   -0.1877 C   0  0  0  0  0  0  0  0  0  0  0  0
    0.4985    0.7495    1.0251 C   0  0  0  0  0  0  0  0  0  0  0  0
   -0.7364    0.9168    1.6826 C   0  0  0  0  0  0  0  0  0  0  0  0
   -1.8539    0.6754    0.8572 C   0  0  0  0  0  0  0  0  0  0  0  0
   -2.6301    0.1278   -1.0894 H   0  0  0  0  0  0  0  0  0  0  0  0
   -0.3476   -0.1444   -2.1699 H   0  0  0  0  0  0  0  0  0  0  0  0
    3.0709   -0.3487   -2.8349 N   0  0  0  0  0  0  0  0  0  0  0  0
    4.0975   -0.6557   -3.1007 N   0  0  0  0  0  0  0  0  0  0  0  0
   -2.8535    0.7819    1.2822 H   0  0  0  0  0  0  0  0  0  0  0  0
   -0.8448    1.2053    2.7274 H   0  0  0  0  0  0  0  0  0  0  0  0
    2.2812    1.0465    1.9863 H   0  0  0  0  0  0  0  0  0  0  0  0
    4.2342    0.8891    0.9643 O   0  0  0  0  0  0  0  0  0  0  0  0
    4.1836    1.1828    2.1440 N   0  0  0  0  0  0  0  0  0  0  0  0
    5.0835    1.4214    2.9088 O   0  0  0  0  0  0  0  0  0  0  0  0
    2.9162    1.2610    2.7167 O   0  0  0  0  0  0  0  0  0  0  0  0
  1  6  1  0  0  0  0
  2  1  2  0  0  0  0
  2  3  1  0  0  0  0
  3  4  2  0  0  0  0
  4  5  1  0  0  0  0
  5 12  1  0  0  0  0
  6 11  1  0  0  0  0
  6  5  2  0  0  0  0
  7  1  1  0  0  0  0
  8  2  1  0  0  0  0
 10  9  3  0  0  0  0
 13 17  1  0  0  0  0
 14 15  2  0  0  0  0
 15 17  1  0  0  0  0
 15 16  2  0  0  0  0
M  RAD  2   3   2   4   2
M  END
