Coordinates from ORCA-job Ph-N2-NO3-B3LYPG-aug-cc-pVDZ-scan-d09-49-n400
 OpenBabel10311713213D

 17 15  0  0  0  0  0  0  0  0999 V2000
   -1.7372    0.3170   -0.5354 C   0  0  0  0  0  0  0  0  0  0  0  0
   -0.5143    0.1244   -1.2294 C   0  0  0  0  0  0  0  0  0  0  0  0
    0.4921    0.3501   -0.3290 C   0  0  0  0  0  0  0  0  0  0  0  0
    0.5854    0.6700    0.8869 C   0  0  0  0  0  0  0  0  0  0  0  0
   -0.6189    0.8653    1.5976 C   0  0  0  0  0  0  0  0  0  0  0  0
   -1.7825    0.6737    0.8259 C   0  0  0  0  0  0  0  0  0  0  0  0
   -2.6680    0.1803   -1.0891 H   0  0  0  0  0  0  0  0  0  0  0  0
   -0.4451   -0.1502   -2.2776 H   0  0  0  0  0  0  0  0  0  0  0  0
    2.8186   -0.2481   -2.3130 N   0  0  0  0  0  0  0  0  0  0  0  0
    3.8809   -0.4952   -2.4839 N   0  0  0  0  0  0  0  0  0  0  0  0
   -2.7562    0.8072    1.3004 H   0  0  0  0  0  0  0  0  0  0  0  0
   -0.6689    1.1424    2.6501 H   0  0  0  0  0  0  0  0  0  0  0  0
    2.3102    0.9482    1.8814 H   0  0  0  0  0  0  0  0  0  0  0  0
    4.2734    0.9884    0.8649 O   0  0  0  0  0  0  0  0  0  0  0  0
    4.2005    1.1975    2.0617 N   0  0  0  0  0  0  0  0  0  0  0  0
    5.0816    1.4452    2.8457 O   0  0  0  0  0  0  0  0  0  0  0  0
    2.9313    1.1489    2.6300 O   0  0  0  0  0  0  0  0  0  0  0  0
  1  6  1  0  0  0  0
  2  1  2  0  0  0  0
  2  3  1  0  0  0  0
  3  4  2  0  0  0  0
  4  5  1  0  0  0  0
  5 12  1  0  0  0  0
  6 11  1  0  0  0  0
  6  5  2  0  0  0  0
  7  1  1  0  0  0  0
  8  2  1  0  0  0  0
 10  9  3  0  0  0  0
 13 17  1  0  0  0  0
 14 15  2  0  0  0  0
 15 17  1  0  0  0  0
 15 16  2  0  0  0  0
M  RAD  2   3   2   4   2
M  END
