Coordinates from ORCA-job Ph-N2-NO3-B3LYPG-aug-cc-pVDZ-scan-d09-49-n400
 OpenBabel10311713213D

 17 15  0  0  0  0  0  0  0  0999 V2000
   -1.7250    0.3236   -0.5532 C   0  0  0  0  0  0  0  0  0  0  0  0
   -0.5104    0.1189   -1.2587 C   0  0  0  0  0  0  0  0  0  0  0  0
    0.5029    0.3280   -0.3646 C   0  0  0  0  0  0  0  0  0  0  0  0
    0.6206    0.6410    0.8515 C   0  0  0  0  0  0  0  0  0  0  0  0
   -0.5787    0.8470    1.5702 C   0  0  0  0  0  0  0  0  0  0  0  0
   -1.7527    0.6743    0.8101 C   0  0  0  0  0  0  0  0  0  0  0  0
   -2.6622    0.2013   -1.0994 H   0  0  0  0  0  0  0  0  0  0  0  0
   -0.4530   -0.1515   -2.3086 H   0  0  0  0  0  0  0  0  0  0  0  0
    2.6934   -0.2310   -2.1729 N   0  0  0  0  0  0  0  0  0  0  0  0
    3.7633   -0.4591   -2.3206 N   0  0  0  0  0  0  0  0  0  0  0  0
   -2.7199    0.8181    1.2946 H   0  0  0  0  0  0  0  0  0  0  0  0
   -0.6156    1.1198    2.6245 H   0  0  0  0  0  0  0  0  0  0  0  0
    2.3196    0.9052    1.8601 H   0  0  0  0  0  0  0  0  0  0  0  0
    4.2847    1.0493    0.8465 O   0  0  0  0  0  0  0  0  0  0  0  0
    4.2030    1.2142    2.0499 N   0  0  0  0  0  0  0  0  0  0  0  0
    5.0748    1.4680    2.8426 O   0  0  0  0  0  0  0  0  0  0  0  0
    2.9378    1.0980    2.6151 O   0  0  0  0  0  0  0  0  0  0  0  0
  1  6  1  0  0  0  0
  2  1  2  0  0  0  0
  2  3  1  0  0  0  0
  3  4  2  0  0  0  0
  4  5  1  0  0  0  0
  5 12  1  0  0  0  0
  6 11  1  0  0  0  0
  6  5  2  0  0  0  0
  7  1  1  0  0  0  0
  8  2  1  0  0  0  0
 10  9  3  0  0  0  0
 13 17  1  0  0  0  0
 14 15  2  0  0  0  0
 15 17  1  0  0  0  0
 15 16  2  0  0  0  0
M  RAD  2   3   2   4   2
M  END
