Coordinates from ORCA-job Ph-N2-NO3-B3LYPG-aug-cc-pVDZ-scan-d09-49-n400
 OpenBabel10311713213D

 17 15  0  0  0  0  0  0  0  0999 V2000
   -1.7500    0.3084   -0.5069 C   0  0  0  0  0  0  0  0  0  0  0  0
   -0.5119    0.1304   -1.1781 C   0  0  0  0  0  0  0  0  0  0  0  0
    0.4748    0.3828   -0.2622 C   0  0  0  0  0  0  0  0  0  0  0  0
    0.5363    0.7137    0.9522 C   0  0  0  0  0  0  0  0  0  0  0  0
   -0.6809    0.8956    1.6421 C   0  0  0  0  0  0  0  0  0  0  0  0
   -1.8262    0.6765    0.8501 C   0  0  0  0  0  0  0  0  0  0  0  0
   -2.6685    0.1508   -1.0753 H   0  0  0  0  0  0  0  0  0  0  0  0
   -0.4202   -0.1523   -2.2225 H   0  0  0  0  0  0  0  0  0  0  0  0
    3.0051   -0.2895   -2.5797 N   0  0  0  0  0  0  0  0  0  0  0  0
    4.0519   -0.5675   -2.7930 N   0  0  0  0  0  0  0  0  0  0  0  0
   -2.8108    0.7969    1.3053 H   0  0  0  0  0  0  0  0  0  0  0  0
   -0.7547    1.1805    2.6910 H   0  0  0  0  0  0  0  0  0  0  0  0
    2.2919    1.0054    1.9246 H   0  0  0  0  0  0  0  0  0  0  0  0
    4.2538    0.9136    0.9103 O   0  0  0  0  0  0  0  0  0  0  0  0
    4.1907    1.1803    2.0959 N   0  0  0  0  0  0  0  0  0  0  0  0
    5.0816    1.4229    2.8701 O   0  0  0  0  0  0  0  0  0  0  0  0
    2.9198    1.2164    2.6633 O   0  0  0  0  0  0  0  0  0  0  0  0
  1  6  1  0  0  0  0
  2  1  2  0  0  0  0
  2  3  1  0  0  0  0
  3  4  2  0  0  0  0
  4  5  1  0  0  0  0
  5 12  1  0  0  0  0
  6 11  1  0  0  0  0
  6  5  2  0  0  0  0
  7  1  1  0  0  0  0
  8  2  1  0  0  0  0
 10  9  3  0  0  0  0
 13 17  1  0  0  0  0
 14 15  2  0  0  0  0
 15 17  1  0  0  0  0
 15 16  2  0  0  0  0
M  RAD  2   3   2   4   2
M  END
