Coordinates from ORCA-job Ph-N2-NO3-B3LYPG-aug-cc-pVDZ-scan-d09-49-n400
 OpenBabel10311713213D

 17 15  0  0  0  0  0  0  0  0999 V2000
   -1.6640    0.1418   -0.6052 C   0  0  0  0  0  0  0  0  0  0  0  0
   -0.3390    0.0919   -1.0951 C   0  0  0  0  0  0  0  0  0  0  0  0
    0.5468    0.4572   -0.1320 C   0  0  0  0  0  0  0  0  0  0  0  0
    0.4628    0.8452    1.1639 C   0  0  0  0  0  0  0  0  0  0  0  0
   -0.8855    0.8734    1.5890 C   0  0  0  0  0  0  0  0  0  0  0  0
   -1.9226    0.5269    0.7150 C   0  0  0  0  0  0  0  0  0  0  0  0
   -2.4760   -0.1261   -1.2820 H   0  0  0  0  0  0  0  0  0  0  0  0
   -0.0843   -0.1994   -2.1106 H   0  0  0  0  0  0  0  0  0  0  0  0
    2.5893    0.4324   -0.7464 N   0  0  0  0  0  0  0  0  0  0  0  0
    3.2803    0.3362   -1.6088 N   0  0  0  0  0  0  0  0  0  0  0  0
   -2.9524    0.5561    1.0692 H   0  0  0  0  0  0  0  0  0  0  0  0
   -1.0945    1.1692    2.6174 H   0  0  0  0  0  0  0  0  0  0  0  0
    1.3249    1.0907    1.7824 H   0  0  0  0  0  0  0  0  0  0  0  0
    5.2928    1.0372    0.4072 O   0  0  0  0  0  0  0  0  0  0  0  0
    4.6781    0.9504    1.4807 N   0  0  0  0  0  0  0  0  0  0  0  0
    5.2172    1.0729    2.5841 O   0  0  0  0  0  0  0  0  0  0  0  0
    3.4087    0.7090    1.4583 O   0  0  0  0  0  0  0  0  0  0  0  0
  1  6  1  0  0  0  0
  2  1  2  0  0  0  0
  2  3  1  0  0  0  0
  3  4  2  0  0  0  0
  4  5  1  0  0  0  0
  4 13  1  0  0  0  0
  5 12  1  0  0  0  0
  6 11  1  0  0  0  0
  6  5  2  0  0  0  0
  7  1  1  0  0  0  0
  8  2  1  0  0  0  0
 10  9  3  0  0  0  0
 14 15  2  0  0  0  0
 15 16  1  0  0  0  0
 17 15  2  0  0  0  0
M  RAD  2   3   2  16   2
M  END
