Coordinates from ORCA-job Ph-N2-NO3-B3LYPG-aug-cc-pVDZ-scan-d09-49-n400
 OpenBabel10311713213D

 17 17  0  0  1  0  0  0  0  0999 V2000
   -0.7601   -0.3377   -0.2477 C   0  0  0  0  0  0  0  0  0  0  0  0
    0.2462    0.0175   -1.0735 C   0  0  0  0  0  0  0  0  0  0  0  0
    1.2425    1.0374   -0.6844 C   0  0  0  0  0  0  0  0  0  0  0  0
    1.2165    1.5653    0.7696 C   0  0  1  0  0  0  0  0  0  0  0  0
    0.0164    1.1365    1.5496 C   0  0  0  0  0  0  0  0  0  0  0  0
   -0.8896    0.2618    1.0699 C   0  0  0  0  0  0  0  0  0  0  0  0
   -1.4847   -1.0858   -0.5667 H   0  0  0  0  0  0  0  0  0  0  0  0
    0.3680   -0.4223   -2.0636 H   0  0  0  0  0  0  0  0  0  0  0  0
    1.9615    1.4265   -1.3598 N   0  0  0  0  0  0  0  0  0  0  0  0
    2.7560    1.8655   -2.0863 N   0  0  0  0  0  0  0  0  0  0  0  0
   -1.7508   -0.0074    1.6825 H   0  0  0  0  0  0  0  0  0  0  0  0
   -0.0950    1.5856    2.5367 H   0  0  0  0  0  0  0  0  0  0  0  0
    1.2943    2.6627    0.7401 H   0  0  0  0  0  0  0  0  0  0  0  0
    2.4906    1.3209    1.4918 O   0  0  0  0  0  0  0  0  0  0  0  0
    2.8286   -0.0342    1.7714 N   0  0  0  0  0  0  0  0  0  0  0  0
    3.7827   -0.1261    2.5000 O   0  0  0  0  0  0  0  0  0  0  0  0
    2.1596   -0.9012    1.2575 O   0  0  0  0  0  0  0  0  0  0  0  0
  1  6  1  0  0  0  0
  2  3  2  0  0  0  0
  2  1  1  0  0  0  0
  3  4  1  0  0  0  0
  4 13  1  6  0  0  0
  4 14  1  0  0  0  0
  4  5  1  0  0  0  0
  5 12  1  0  0  0  0
  6  5  2  0  0  0  0
  6 11  1  0  0  0  0
  7  1  1  0  0  0  0
  8  2  1  0  0  0  0
  9  3  1  0  0  0  0
 10  9  1  0  0  0  0
 14 15  1  0  0  0  0
 15 16  2  0  0  0  0
 17 15  2  0  0  0  0
M  RAD  3   1   2   9   2  10   3
M  END
