Coordinates from ORCA-job Ph-N2-NO3-B3LYPG-aug-cc-pVDZ-scan-d09-49-n400
 OpenBabel10311713213D

 17 15  0  0  0  0  0  0  0  0999 V2000
   -1.6087    0.1162   -0.6103 C   0  0  0  0  0  0  0  0  0  0  0  0
   -0.2740    0.0945   -1.0650 C   0  0  0  0  0  0  0  0  0  0  0  0
    0.5985    0.4919   -0.0951 C   0  0  0  0  0  0  0  0  0  0  0  0
    0.4531    0.8926    1.1969 C   0  0  0  0  0  0  0  0  0  0  0  0
   -0.9013    0.8934    1.5914 C   0  0  0  0  0  0  0  0  0  0  0  0
   -1.9091    0.5106    0.6984 C   0  0  0  0  0  0  0  0  0  0  0  0
   -2.3987   -0.1805   -1.3006 H   0  0  0  0  0  0  0  0  0  0  0  0
    0.0104   -0.2035   -2.0706 H   0  0  0  0  0  0  0  0  0  0  0  0
    2.5168    0.4914   -0.6706 N   0  0  0  0  0  0  0  0  0  0  0  0
    3.1856    0.4138   -1.5554 N   0  0  0  0  0  0  0  0  0  0  0  0
   -2.9476    0.5181    1.0280 H   0  0  0  0  0  0  0  0  0  0  0  0
   -1.1442    1.1964    2.6099 H   0  0  0  0  0  0  0  0  0  0  0  0
    1.2911    1.1663    1.8339 H   0  0  0  0  0  0  0  0  0  0  0  0
    5.2452    0.9488    0.3301 O   0  0  0  0  0  0  0  0  0  0  0  0
    4.6605    0.8963    1.4220 N   0  0  0  0  0  0  0  0  0  0  0  0
    5.2295    1.0060    2.5087 O   0  0  0  0  0  0  0  0  0  0  0  0
    3.3756    0.7129    1.4355 O   0  0  0  0  0  0  0  0  0  0  0  0
  1  6  1  0  0  0  0
  2  1  2  0  0  0  0
  2  3  1  0  0  0  0
  3  4  2  0  0  0  0
  4  5  1  0  0  0  0
  4 13  1  0  0  0  0
  5 12  1  0  0  0  0
  6 11  1  0  0  0  0
  6  5  2  0  0  0  0
  7  1  1  0  0  0  0
  8  2  1  0  0  0  0
 10  9  3  0  0  0  0
 14 15  2  0  0  0  0
 15 17  2  0  0  0  0
 15 16  1  0  0  0  0
M  RAD  2   3   2  16   2
M  END
