Coordinates from ORCA-job Ph-N2-NO3-B3LYPG-aug-cc-pVDZ-scan-d09-49-n400
 OpenBabel10311713213D

 17 16  0  0  0  0  0  0  0  0999 V2000
   -1.5647    0.0950   -0.6114 C   0  0  0  0  0  0  0  0  0  0  0  0
   -0.2253    0.0936   -1.0418 C   0  0  0  0  0  0  0  0  0  0  0  0
    0.6454    0.5167   -0.0730 C   0  0  0  0  0  0  0  0  0  0  0  0
    0.4508    0.9283    1.2146 C   0  0  0  0  0  0  0  0  0  0  0  0
   -0.9057    0.9113    1.5901 C   0  0  0  0  0  0  0  0  0  0  0  0
   -1.8934    0.4997    0.6877 C   0  0  0  0  0  0  0  0  0  0  0  0
   -2.3396   -0.2243   -1.3082 H   0  0  0  0  0  0  0  0  0  0  0  0
    0.0773   -0.2110   -2.0401 H   0  0  0  0  0  0  0  0  0  0  0  0
    2.4575    0.5377   -0.6183 N   0  0  0  0  0  0  0  0  0  0  0  0
    3.1171    0.4757   -1.5142 N   0  0  0  0  0  0  0  0  0  0  0  0
   -2.9368    0.4923    1.0014 H   0  0  0  0  0  0  0  0  0  0  0  0
   -1.1714    1.2219    2.6003 H   0  0  0  0  0  0  0  0  0  0  0  0
    1.2705    1.2235    1.8644 H   0  0  0  0  0  0  0  0  0  0  0  0
    5.1936    0.8996    0.2755 O   0  0  0  0  0  0  0  0  0  0  0  0
    4.6355    0.8562    1.3817 N   0  0  0  0  0  0  0  0  0  0  0  0
    5.2298    0.9401    2.4545 O   0  0  0  0  0  0  0  0  0  0  0  0
    3.3422    0.7088    1.4238 O   0  0  0  0  0  0  0  0  0  0  0  0
  1  6  1  0  0  0  0
  2  1  2  0  0  0  0
  2  3  1  0  0  0  0
  3  4  2  0  0  0  0
  4  5  1  0  0  0  0
  4 13  1  0  0  0  0
  5 12  1  0  0  0  0
  6 11  1  0  0  0  0
  6  5  2  0  0  0  0
  7  1  1  0  0  0  0
  8  2  1  0  0  0  0
  9  3  1  0  0  0  0
 10  9  2  0  0  0  0
 14 15  2  0  0  0  0
 15 17  2  0  0  0  0
 15 16  1  0  0  0  0
M  RAD  2  10   2  16   2
M  END
