Coordinates from ORCA-job Ph-N2-NO3-B3LYPG-aug-cc-pVDZ-scan-d09-49-n400
 OpenBabel10311713213D

 17 15  0  0  0  0  0  0  0  0999 V2000
   -1.7113    0.3340   -0.5691 C   0  0  0  0  0  0  0  0  0  0  0  0
   -0.5161    0.1121   -1.2993 C   0  0  0  0  0  0  0  0  0  0  0  0
    0.5233    0.2954   -0.4293 C   0  0  0  0  0  0  0  0  0  0  0  0
    0.6847    0.5988    0.7876 C   0  0  0  0  0  0  0  0  0  0  0  0
   -0.5040    0.8205    1.5251 C   0  0  0  0  0  0  0  0  0  0  0  0
   -1.6998    0.6761    0.7960 C   0  0  0  0  0  0  0  0  0  0  0  0
   -2.6618    0.2327   -1.0959 H   0  0  0  0  0  0  0  0  0  0  0  0
   -0.4848   -0.1527   -2.3518 H   0  0  0  0  0  0  0  0  0  0  0  0
    2.5522   -0.2093   -1.9988 N   0  0  0  0  0  0  0  0  0  0  0  0
    3.6316   -0.4124   -2.1121 N   0  0  0  0  0  0  0  0  0  0  0  0
   -2.6516    0.8355    1.3054 H   0  0  0  0  0  0  0  0  0  0  0  0
   -0.5122    1.0875    2.5819 H   0  0  0  0  0  0  0  0  0  0  0  0
    2.3124    0.8583    1.8361 H   0  0  0  0  0  0  0  0  0  0  0  0
    4.2664    1.1112    0.8319 O   0  0  0  0  0  0  0  0  0  0  0  0
    4.1819    1.2328    2.0404 N   0  0  0  0  0  0  0  0  0  0  0  0
    5.0461    1.4970    2.8386 O   0  0  0  0  0  0  0  0  0  0  0  0
    2.9255    1.0475    2.6004 O   0  0  0  0  0  0  0  0  0  0  0  0
  1  6  1  0  0  0  0
  2  1  2  0  0  0  0
  2  3  1  0  0  0  0
  3  4  2  0  0  0  0
  4  5  1  0  0  0  0
  5 12  1  0  0  0  0
  6 11  1  0  0  0  0
  6  5  2  0  0  0  0
  7  1  1  0  0  0  0
  8  2  1  0  0  0  0
 10  9  3  0  0  0  0
 13 17  1  0  0  0  0
 14 15  2  0  0  0  0
 15 17  1  0  0  0  0
 15 16  2  0  0  0  0
M  RAD  2   3   2   4   2
M  END
