Coordinates from ORCA-job Ph-N2-NO3-B3LYPG-aug-cc-pVDZ-scan-d09-49-n400
 OpenBabel10311713213D

 17 15  0  0  0  0  0  0  0  0999 V2000
   -1.6918    0.3571   -0.5875 C   0  0  0  0  0  0  0  0  0  0  0  0
   -0.5060    0.1127   -1.3233 C   0  0  0  0  0  0  0  0  0  0  0  0
    0.5418    0.2618   -0.4596 C   0  0  0  0  0  0  0  0  0  0  0  0
    0.7341    0.5501    0.7611 C   0  0  0  0  0  0  0  0  0  0  0  0
   -0.4550    0.7922    1.4967 C   0  0  0  0  0  0  0  0  0  0  0  0
   -1.6610    0.6861    0.7804 C   0  0  0  0  0  0  0  0  0  0  0  0
   -2.6470    0.2842   -1.1100 H   0  0  0  0  0  0  0  0  0  0  0  0
   -0.4858   -0.1435   -2.3784 H   0  0  0  0  0  0  0  0  0  0  0  0
    2.4386   -0.2122   -1.8232 N   0  0  0  0  0  0  0  0  0  0  0  0
    3.5213   -0.4194   -1.8882 N   0  0  0  0  0  0  0  0  0  0  0  0
   -2.6038    0.8655    1.2998 H   0  0  0  0  0  0  0  0  0  0  0  0
   -0.4495    1.0500    2.5562 H   0  0  0  0  0  0  0  0  0  0  0  0
    2.3124    0.7704    1.8030 H   0  0  0  0  0  0  0  0  0  0  0  0
    4.2020    1.3279    0.7863 O   0  0  0  0  0  0  0  0  0  0  0  0
    4.1556    1.2750    2.0031 N   0  0  0  0  0  0  0  0  0  0  0  0
    5.0294    1.5045    2.8027 O   0  0  0  0  0  0  0  0  0  0  0  0
    2.9474    0.9026    2.5682 O   0  0  0  0  0  0  0  0  0  0  0  0
  1  6  1  0  0  0  0
  2  1  2  0  0  0  0
  2  3  1  0  0  0  0
  3  4  2  0  0  0  0
  4  5  1  0  0  0  0
  5 12  1  0  0  0  0
  6 11  1  0  0  0  0
  6  5  2  0  0  0  0
  7  1  1  0  0  0  0
  8  2  1  0  0  0  0
 10  9  3  0  0  0  0
 13 17  1  0  0  0  0
 14 15  2  0  0  0  0
 15 17  1  0  0  0  0
 15 16  2  0  0  0  0
M  RAD  2   3   2   4   2
M  END
