Coordinates from ORCA-job Ph-N2-NO3-B3LYPG-aug-cc-pVDZ-scan-d09-49-n400
 OpenBabel10311713213D

 17 15  0  0  0  0  0  0  0  0999 V2000
   -1.7491    0.3090   -0.5102 C   0  0  0  0  0  0  0  0  0  0  0  0
   -0.5123    0.1300   -1.1833 C   0  0  0  0  0  0  0  0  0  0  0  0
    0.4749    0.3804   -0.2678 C   0  0  0  0  0  0  0  0  0  0  0  0
    0.5402    0.7098    0.9462 C   0  0  0  0  0  0  0  0  0  0  0  0
   -0.6761    0.8926    1.6380 C   0  0  0  0  0  0  0  0  0  0  0  0
   -1.8228    0.6758    0.8474 C   0  0  0  0  0  0  0  0  0  0  0  0
   -2.6686    0.1532   -1.0775 H   0  0  0  0  0  0  0  0  0  0  0  0
   -0.4217   -0.1518   -2.2280 H   0  0  0  0  0  0  0  0  0  0  0  0
    2.9871   -0.2833   -2.5471 N   0  0  0  0  0  0  0  0  0  0  0  0
    4.0361   -0.5579   -2.7555 N   0  0  0  0  0  0  0  0  0  0  0  0
   -2.8066    0.7971    1.3042 H   0  0  0  0  0  0  0  0  0  0  0  0
   -0.7480    1.1766    2.6873 H   0  0  0  0  0  0  0  0  0  0  0  0
    2.2944    1.0003    1.9192 H   0  0  0  0  0  0  0  0  0  0  0  0
    4.2561    0.9185    0.9029 O   0  0  0  0  0  0  0  0  0  0  0  0
    4.1930    1.1807    2.0895 N   0  0  0  0  0  0  0  0  0  0  0  0
    5.0837    1.4234    2.8639 O   0  0  0  0  0  0  0  0  0  0  0  0
    2.9224    1.2107    2.6581 O   0  0  0  0  0  0  0  0  0  0  0  0
  1  6  1  0  0  0  0
  2  1  2  0  0  0  0
  2  3  1  0  0  0  0
  3  4  2  0  0  0  0
  4  5  1  0  0  0  0
  5 12  1  0  0  0  0
  6 11  1  0  0  0  0
  6  5  2  0  0  0  0
  7  1  1  0  0  0  0
  8  2  1  0  0  0  0
 10  9  3  0  0  0  0
 13 17  1  0  0  0  0
 14 15  2  0  0  0  0
 15 17  1  0  0  0  0
 15 16  2  0  0  0  0
M  RAD  2   3   2   4   2
M  END
