Coordinates from ORCA-job Ph-N2-NO3-B3LYPG-aug-cc-pVDZ-scan-d09-49-n400
 OpenBabel10311713213D

 17 15  0  0  0  0  0  0  0  0999 V2000
   -1.6841    0.2975   -0.4861 C   0  0  0  0  0  0  0  0  0  0  0  0
   -0.3915    0.1627   -1.0568 C   0  0  0  0  0  0  0  0  0  0  0  0
    0.5119    0.4583   -0.0690 C   0  0  0  0  0  0  0  0  0  0  0  0
    0.4553    0.7989    1.1415 C   0  0  0  0  0  0  0  0  0  0  0  0
   -0.8138    0.9413    1.7362 C   0  0  0  0  0  0  0  0  0  0  0  0
   -1.8827    0.6720    0.8568 C   0  0  0  0  0  0  0  0  0  0  0  0
   -2.5483    0.1010   -1.1234 H   0  0  0  0  0  0  0  0  0  0  0  0
   -0.2090   -0.1240   -2.0884 H   0  0  0  0  0  0  0  0  0  0  0  0
    3.1125   -0.4447   -3.1046 N   0  0  0  0  0  0  0  0  0  0  0  0
    4.1360   -0.7215   -3.4123 N   0  0  0  0  0  0  0  0  0  0  0  0
   -2.9045    0.7572    1.2307 H   0  0  0  0  0  0  0  0  0  0  0  0
   -0.9807    1.2305    2.7730 H   0  0  0  0  0  0  0  0  0  0  0  0
    2.2512    1.0964    2.0900 H   0  0  0  0  0  0  0  0  0  0  0  0
    4.1436    0.8554    0.9833 O   0  0  0  0  0  0  0  0  0  0  0  0
    4.1599    1.1765    2.1570 N   0  0  0  0  0  0  0  0  0  0  0  0
    5.1027    1.4004    2.8727 O   0  0  0  0  0  0  0  0  0  0  0  0
    2.9242    1.3071    2.7866 O   0  0  0  0  0  0  0  0  0  0  0  0
  1  6  1  0  0  0  0
  2  1  2  0  0  0  0
  2  3  1  0  0  0  0
  3  4  2  0  0  0  0
  4  5  1  0  0  0  0
  5 12  1  0  0  0  0
  6 11  1  0  0  0  0
  6  5  2  0  0  0  0
  7  1  1  0  0  0  0
  8  2  1  0  0  0  0
 10  9  3  0  0  0  0
 13 17  1  0  0  0  0
 14 15  2  0  0  0  0
 15 17  1  0  0  0  0
 15 16  2  0  0  0  0
M  RAD  2   3   2   4   2
M  END
