Coordinates from ORCA-job Ph-N2-NO3-B3LYPG-aug-cc-pVDZ-scan-d09-49-n400
 OpenBabel10311713213D

 17 15  0  0  0  0  0  0  0  0999 V2000
   -1.7222    0.3260   -0.5565 C   0  0  0  0  0  0  0  0  0  0  0  0
   -0.5129    0.1175   -1.2684 C   0  0  0  0  0  0  0  0  0  0  0  0
    0.5101    0.3198   -0.3824 C   0  0  0  0  0  0  0  0  0  0  0  0
    0.6373    0.6308    0.8345 C   0  0  0  0  0  0  0  0  0  0  0  0
   -0.5595    0.8403    1.5582 C   0  0  0  0  0  0  0  0  0  0  0  0
   -1.7394    0.6745    0.8069 C   0  0  0  0  0  0  0  0  0  0  0  0
   -2.6630    0.2087   -1.0975 H   0  0  0  0  0  0  0  0  0  0  0  0
   -0.4630   -0.1515   -2.3191 H   0  0  0  0  0  0  0  0  0  0  0  0
    2.6596   -0.2258   -2.1321 N   0  0  0  0  0  0  0  0  0  0  0  0
    3.7318   -0.4483   -2.2723 N   0  0  0  0  0  0  0  0  0  0  0  0
   -2.7025    0.8220    1.2984 H   0  0  0  0  0  0  0  0  0  0  0  0
   -0.5888    1.1117    2.6132 H   0  0  0  0  0  0  0  0  0  0  0  0
    2.3184    0.8956    1.8545 H   0  0  0  0  0  0  0  0  0  0  0  0
    4.2790    1.0617    0.8450 O   0  0  0  0  0  0  0  0  0  0  0  0
    4.1970    1.2188    2.0493 N   0  0  0  0  0  0  0  0  0  0  0  0
    5.0673    1.4750    2.8431 O   0  0  0  0  0  0  0  0  0  0  0  0
    2.9336    1.0884    2.6126 O   0  0  0  0  0  0  0  0  0  0  0  0
  1  6  1  0  0  0  0
  2  1  2  0  0  0  0
  2  3  1  0  0  0  0
  3  4  2  0  0  0  0
  4  5  1  0  0  0  0
  5 12  1  0  0  0  0
  6 11  1  0  0  0  0
  6  5  2  0  0  0  0
  7  1  1  0  0  0  0
  8  2  1  0  0  0  0
 10  9  3  0  0  0  0
 13 17  1  0  0  0  0
 14 15  2  0  0  0  0
 15 17  1  0  0  0  0
 15 16  2  0  0  0  0
M  RAD  2   3   2   4   2
M  END
