Coordinates from ORCA-job Ph-N2-NO3-B3LYPG-aug-cc-pVDZ-scan-d09-49-n400
 OpenBabel10311713213D

 17 15  0  0  0  0  0  0  0  0999 V2000
   -1.6546    0.2951   -0.4819 C   0  0  0  0  0  0  0  0  0  0  0  0
   -0.3458    0.1780   -1.0185 C   0  0  0  0  0  0  0  0  0  0  0  0
    0.5274    0.4870   -0.0071 C   0  0  0  0  0  0  0  0  0  0  0  0
    0.4310    0.8268    1.2008 C   0  0  0  0  0  0  0  0  0  0  0  0
   -0.8541    0.9523    1.7626 C   0  0  0  0  0  0  0  0  0  0  0  0
   -1.8948    0.6675    0.8549 C   0  0  0  0  0  0  0  0  0  0  0  0
   -2.4988    0.0864   -1.1419 H   0  0  0  0  0  0  0  0  0  0  0  0
   -0.1345   -0.1076   -2.0449 H   0  0  0  0  0  0  0  0  0  0  0  0
    3.1155   -0.5200   -3.2750 N   0  0  0  0  0  0  0  0  0  0  0  0
    4.1405   -0.7564   -3.6105 N   0  0  0  0  0  0  0  0  0  0  0  0
   -2.9275    0.7383    1.2009 H   0  0  0  0  0  0  0  0  0  0  0  0
   -1.0527    1.2394    2.7944 H   0  0  0  0  0  0  0  0  0  0  0  0
    2.2398    1.1285    2.1449 H   0  0  0  0  0  0  0  0  0  0  0  0
    4.1101    0.8308    1.0173 O   0  0  0  0  0  0  0  0  0  0  0  0
    4.1495    1.1780    2.1830 N   0  0  0  0  0  0  0  0  0  0  0  0
    5.1064    1.3988    2.8806 O   0  0  0  0  0  0  0  0  0  0  0  0
    2.9254    1.3422    2.8276 O   0  0  0  0  0  0  0  0  0  0  0  0
  1  6  1  0  0  0  0
  2  1  2  0  0  0  0
  2  3  1  0  0  0  0
  3  4  2  0  0  0  0
  4  5  1  0  0  0  0
  5 12  1  0  0  0  0
  6 11  1  0  0  0  0
  6  5  2  0  0  0  0
  7  1  1  0  0  0  0
  8  2  1  0  0  0  0
 10  9  3  0  0  0  0
 13 17  1  0  0  0  0
 14 15  2  0  0  0  0
 15 17  1  0  0  0  0
 15 16  2  0  0  0  0
M  RAD  2   3   2   4   2
M  END
