Coordinates from ORCA-job Ph-N2-NO3-B3LYPG-aug-cc-pVDZ-scan-d09-49-n400
 OpenBabel10311713213D

 17 15  0  0  0  0  0  0  0  0999 V2000
   -1.5250    0.2885   -0.5021 C   0  0  0  0  0  0  0  0  0  0  0  0
   -0.1904    0.1863   -0.9730 C   0  0  0  0  0  0  0  0  0  0  0  0
    0.6330    0.5071    0.0769 C   0  0  0  0  0  0  0  0  0  0  0  0
    0.4666    0.8466    1.2771 C   0  0  0  0  0  0  0  0  0  0  0  0
   -0.8435    0.9580    1.7780 C   0  0  0  0  0  0  0  0  0  0  0  0
   -1.8350    0.6596    0.8205 C   0  0  0  0  0  0  0  0  0  0  0  0
   -2.3331    0.0684   -1.2022 H   0  0  0  0  0  0  0  0  0  0  0  0
    0.0720   -0.0983   -1.9885 H   0  0  0  0  0  0  0  0  0  0  0  0
    2.8600   -0.7785   -4.0233 N   0  0  0  0  0  0  0  0  0  0  0  0
    3.7777   -1.0492   -4.5746 N   0  0  0  0  0  0  0  0  0  0  0  0
   -2.8841    0.7184    1.1157 H   0  0  0  0  0  0  0  0  0  0  0  0
   -1.0952    1.2439    2.7984 H   0  0  0  0  0  0  0  0  0  0  0  0
    2.2030    1.1930    2.3466 H   0  0  0  0  0  0  0  0  0  0  0  0
    4.1693    0.9583    1.3806 O   0  0  0  0  0  0  0  0  0  0  0  0
    4.0999    1.2967    2.5472 N   0  0  0  0  0  0  0  0  0  0  0  0
    4.9869    1.5438    3.3239 O   0  0  0  0  0  0  0  0  0  0  0  0
    2.8206    1.4226    3.0860 O   0  0  0  0  0  0  0  0  0  0  0  0
  1  6  1  0  0  0  0
  2  1  2  0  0  0  0
  2  3  1  0  0  0  0
  3  4  2  0  0  0  0
  4  5  1  0  0  0  0
  5 12  1  0  0  0  0
  6 11  1  0  0  0  0
  6  5  2  0  0  0  0
  7  1  1  0  0  0  0
  8  2  1  0  0  0  0
 10  9  3  0  0  0  0
 13 17  1  0  0  0  0
 14 15  2  0  0  0  0
 15 17  1  0  0  0  0
 15 16  2  0  0  0  0
M  RAD  2   3   2   4   2
M  END
