Coordinates from ORCA-job Ph-N2-NO3-B3LYPG-aug-cc-pVDZ-scan-d09-49-n400
 OpenBabel10311713213D

 17 17  0  0  1  0  0  0  0  0999 V2000
   -0.7537   -0.3491   -0.2395 C   0  0  0  0  0  0  0  0  0  0  0  0
    0.2515    0.0129   -1.0669 C   0  0  0  0  0  0  0  0  0  0  0  0
    1.2267    1.0376   -0.6715 C   0  0  0  0  0  0  0  0  0  0  0  0
    1.2152    1.5677    0.7684 C   0  0  1  0  0  0  0  0  0  0  0  0
    0.0111    1.1472    1.5464 C   0  0  0  0  0  0  0  0  0  0  0  0
   -0.8884    0.2613    1.0715 C   0  0  0  0  0  0  0  0  0  0  0  0
   -1.4720   -1.1046   -0.5541 H   0  0  0  0  0  0  0  0  0  0  0  0
    0.3750   -0.4291   -2.0555 H   0  0  0  0  0  0  0  0  0  0  0  0
    1.9761    1.4556   -1.3922 N   0  0  0  0  0  0  0  0  0  0  0  0
    2.7557    1.8991   -2.1215 N   0  0  0  0  0  0  0  0  0  0  0  0
   -1.7505   -0.0054    1.6841 H   0  0  0  0  0  0  0  0  0  0  0  0
   -0.1083    1.6060    2.5278 H   0  0  0  0  0  0  0  0  0  0  0  0
    1.3094    2.6636    0.7495 H   0  0  0  0  0  0  0  0  0  0  0  0
    2.4916    1.3072    1.4987 O   0  0  0  0  0  0  0  0  0  0  0  0
    2.8192   -0.0468    1.7779 N   0  0  0  0  0  0  0  0  0  0  0  0
    3.7793   -0.1470    2.4989 O   0  0  0  0  0  0  0  0  0  0  0  0
    2.1448   -0.9110    1.2653 O   0  0  0  0  0  0  0  0  0  0  0  0
  1  6  1  0  0  0  0
  2  3  2  0  0  0  0
  2  1  1  0  0  0  0
  3  4  1  0  0  0  0
  4 13  1  6  0  0  0
  4 14  1  0  0  0  0
  4  5  1  0  0  0  0
  5 12  1  0  0  0  0
  6  5  2  0  0  0  0
  6 11  1  0  0  0  0
  7  1  1  0  0  0  0
  8  2  1  0  0  0  0
  9  3  1  0  0  0  0
 10  9  1  0  0  0  0
 14 15  1  0  0  0  0
 15 16  2  0  0  0  0
 17 15  2  0  0  0  0
M  RAD  3   1   2   9   2  10   3
M  END
