Coordinates from ORCA-job Ph-N2-NO3-B3LYPG-aug-cc-pVDZ-scan-d09-49-n400
 OpenBabel10311713213D

 17 15  0  0  0  0  0  0  0  0999 V2000
   -1.6800    0.2971   -0.4851 C   0  0  0  0  0  0  0  0  0  0  0  0
   -0.3845    0.1655   -1.0500 C   0  0  0  0  0  0  0  0  0  0  0  0
    0.5137    0.4635   -0.0581 C   0  0  0  0  0  0  0  0  0  0  0  0
    0.4504    0.8041    1.1521 C   0  0  0  0  0  0  0  0  0  0  0  0
   -0.8216    0.9434    1.7411 C   0  0  0  0  0  0  0  0  0  0  0  0
   -1.8857    0.6713    0.8568 C   0  0  0  0  0  0  0  0  0  0  0  0
   -2.5408    0.0984   -1.1263 H   0  0  0  0  0  0  0  0  0  0  0  0
   -0.1965   -0.1209   -2.0806 H   0  0  0  0  0  0  0  0  0  0  0  0
    3.1164   -0.4558   -3.1275 N   0  0  0  0  0  0  0  0  0  0  0  0
    4.1412   -0.7251   -3.4381 N   0  0  0  0  0  0  0  0  0  0  0  0
   -2.9095    0.7540    1.2259 H   0  0  0  0  0  0  0  0  0  0  0  0
   -0.9941    1.2323    2.7770 H   0  0  0  0  0  0  0  0  0  0  0  0
    2.2491    1.1012    2.0987 H   0  0  0  0  0  0  0  0  0  0  0  0
    4.1358    0.8516    0.9843 O   0  0  0  0  0  0  0  0  0  0  0  0
    4.1582    1.1749    2.1572 N   0  0  0  0  0  0  0  0  0  0  0  0
    5.1049    1.3980    2.8681 O   0  0  0  0  0  0  0  0  0  0  0  0
    2.9257    1.3116    2.7918 O   0  0  0  0  0  0  0  0  0  0  0  0
  1  6  1  0  0  0  0
  2  1  2  0  0  0  0
  2  3  1  0  0  0  0
  3  4  2  0  0  0  0
  4  5  1  0  0  0  0
  5 12  1  0  0  0  0
  6 11  1  0  0  0  0
  6  5  2  0  0  0  0
  7  1  1  0  0  0  0
  8  2  1  0  0  0  0
 10  9  3  0  0  0  0
 13 17  1  0  0  0  0
 14 15  2  0  0  0  0
 15 17  1  0  0  0  0
 15 16  2  0  0  0  0
M  RAD  2   3   2   4   2
M  END
