Coordinates from ORCA-job Ph-N2-NO3-B3LYPG-aug-cc-pVDZ-scan-d09-49-n400
 OpenBabel10311713213D

 17 15  0  0  0  0  0  0  0  0999 V2000
   -1.6992    0.3477   -0.5798 C   0  0  0  0  0  0  0  0  0  0  0  0
   -0.5094    0.1125   -1.3141 C   0  0  0  0  0  0  0  0  0  0  0  0
    0.5324    0.2758   -0.4462 C   0  0  0  0  0  0  0  0  0  0  0  0
    0.7145    0.5697    0.7723 C   0  0  0  0  0  0  0  0  0  0  0  0
   -0.4744    0.8032    1.5091 C   0  0  0  0  0  0  0  0  0  0  0  0
   -1.6764    0.6817    0.7872 C   0  0  0  0  0  0  0  0  0  0  0  0
   -2.6526    0.2633   -1.1041 H   0  0  0  0  0  0  0  0  0  0  0  0
   -0.4862   -0.1469   -2.3683 H   0  0  0  0  0  0  0  0  0  0  0  0
    2.4864   -0.2119   -1.9002 N   0  0  0  0  0  0  0  0  0  0  0  0
    3.5677   -0.4175   -1.9874 N   0  0  0  0  0  0  0  0  0  0  0  0
   -2.6230    0.8528    1.3024 H   0  0  0  0  0  0  0  0  0  0  0  0
   -0.4744    1.0645    2.5675 H   0  0  0  0  0  0  0  0  0  0  0  0
    2.3099    0.8092    1.8213 H   0  0  0  0  0  0  0  0  0  0  0  0
    4.2310    1.2317    0.8030 O   0  0  0  0  0  0  0  0  0  0  0  0
    4.1652    1.2609    2.0193 N   0  0  0  0  0  0  0  0  0  0  0  0
    5.0362    1.5006    2.8185 O   0  0  0  0  0  0  0  0  0  0  0  0
    2.9348    0.9679    2.5867 O   0  0  0  0  0  0  0  0  0  0  0  0
  1  6  1  0  0  0  0
  2  1  2  0  0  0  0
  2  3  1  0  0  0  0
  3  4  2  0  0  0  0
  4  5  1  0  0  0  0
  5 12  1  0  0  0  0
  6 11  1  0  0  0  0
  6  5  2  0  0  0  0
  7  1  1  0  0  0  0
  8  2  1  0  0  0  0
 10  9  3  0  0  0  0
 13 17  1  0  0  0  0
 14 15  2  0  0  0  0
 15 17  1  0  0  0  0
 15 16  2  0  0  0  0
M  RAD  2   3   2   4   2
M  END
