Coordinates from ORCA-job Ph-N2-NO3-B3LYPG-aug-cc-pVDZ-scan-d09-49-n400
 OpenBabel10311713213D

 17 15  0  0  0  0  0  0  0  0999 V2000
   -1.5750    0.2937   -0.4913 C   0  0  0  0  0  0  0  0  0  0  0  0
   -0.2493    0.1866   -0.9867 C   0  0  0  0  0  0  0  0  0  0  0  0
    0.5925    0.5018    0.0498 C   0  0  0  0  0  0  0  0  0  0  0  0
    0.4506    0.8396    1.2537 C   0  0  0  0  0  0  0  0  0  0  0  0
   -0.8505    0.9554    1.7775 C   0  0  0  0  0  0  0  0  0  0  0  0
   -1.8601    0.6634    0.8372 C   0  0  0  0  0  0  0  0  0  0  0  0
   -2.3963    0.0787   -1.1775 H   0  0  0  0  0  0  0  0  0  0  0  0
   -0.0078   -0.0974   -2.0070 H   0  0  0  0  0  0  0  0  0  0  0  0
    2.9691   -0.6997   -3.7857 N   0  0  0  0  0  0  0  0  0  0  0  0
    3.9298   -0.9591   -4.2643 N   0  0  0  0  0  0  0  0  0  0  0  0
   -2.9036    0.7260    1.1507 H   0  0  0  0  0  0  0  0  0  0  0  0
   -1.0828    1.2402    2.8027 H   0  0  0  0  0  0  0  0  0  0  0  0
    2.2143    1.1699    2.2795 H   0  0  0  0  0  0  0  0  0  0  0  0
    4.1486    0.9210    1.2536 O   0  0  0  0  0  0  0  0  0  0  0  0
    4.1174    1.2570    2.4226 N   0  0  0  0  0  0  0  0  0  0  0  0
    5.0297    1.4953    3.1722 O   0  0  0  0  0  0  0  0  0  0  0  0
    2.8563    1.3926    3.0001 O   0  0  0  0  0  0  0  0  0  0  0  0
  1  6  1  0  0  0  0
  2  1  2  0  0  0  0
  2  3  1  0  0  0  0
  3  4  2  0  0  0  0
  4  5  1  0  0  0  0
  5 12  1  0  0  0  0
  6 11  1  0  0  0  0
  6  5  2  0  0  0  0
  7  1  1  0  0  0  0
  8  2  1  0  0  0  0
 10  9  3  0  0  0  0
 13 17  1  0  0  0  0
 14 15  2  0  0  0  0
 15 17  1  0  0  0  0
 15 16  2  0  0  0  0
M  RAD  2   3   2   4   2
M  END
