Coordinates from ORCA-job Ph-N2-NO3-B3LYPG-aug-cc-pVDZ-scan-d09-49-n400
 OpenBabel10311713213D

 17 15  0  0  0  0  0  0  0  0999 V2000
   -1.6320    0.2954   -0.4827 C   0  0  0  0  0  0  0  0  0  0  0  0
   -0.3178    0.1827   -1.0070 C   0  0  0  0  0  0  0  0  0  0  0  0
    0.5448    0.4941    0.0129 C   0  0  0  0  0  0  0  0  0  0  0  0
    0.4349    0.8328    1.2200 C   0  0  0  0  0  0  0  0  0  0  0  0
   -0.8556    0.9537    1.7699 C   0  0  0  0  0  0  0  0  0  0  0  0
   -1.8865    0.6661    0.8519 C   0  0  0  0  0  0  0  0  0  0  0  0
   -2.4691    0.0842   -1.1508 H   0  0  0  0  0  0  0  0  0  0  0  0
   -0.0974   -0.1020   -2.0318 H   0  0  0  0  0  0  0  0  0  0  0  0
    3.0827   -0.5797   -3.4413 N   0  0  0  0  0  0  0  0  0  0  0  0
    4.0898   -0.8232   -3.8228 N   0  0  0  0  0  0  0  0  0  0  0  0
   -2.9228    0.7333    1.1878 H   0  0  0  0  0  0  0  0  0  0  0  0
   -1.0650    1.2395    2.7999 H   0  0  0  0  0  0  0  0  0  0  0  0
    2.2304    1.1432    2.1878 H   0  0  0  0  0  0  0  0  0  0  0  0
    4.1193    0.8568    1.0887 O   0  0  0  0  0  0  0  0  0  0  0  0
    4.1389    1.2044    2.2547 N   0  0  0  0  0  0  0  0  0  0  0  0
    5.0839    1.4248    2.9686 O   0  0  0  0  0  0  0  0  0  0  0  0
    2.9042    1.3591    2.8813 O   0  0  0  0  0  0  0  0  0  0  0  0
  1  6  1  0  0  0  0
  2  1  2  0  0  0  0
  2  3  1  0  0  0  0
  3  4  2  0  0  0  0
  4  5  1  0  0  0  0
  5 12  1  0  0  0  0
  6 11  1  0  0  0  0
  6  5  2  0  0  0  0
  7  1  1  0  0  0  0
  8  2  1  0  0  0  0
 10  9  3  0  0  0  0
 13 17  1  0  0  0  0
 14 15  2  0  0  0  0
 15 17  1  0  0  0  0
 15 16  2  0  0  0  0
M  RAD  2   3   2   4   2
M  END
