Coordinates from ORCA-job Ph-N2-NO3-B3LYPG-aug-cc-pVDZ-scan-d09-49-n400
 OpenBabel10311713213D

 17 15  0  0  0  0  0  0  0  0999 V2000
   -1.7053    0.2998   -0.4917 C   0  0  0  0  0  0  0  0  0  0  0  0
   -0.4283    0.1514   -1.0942 C   0  0  0  0  0  0  0  0  0  0  0  0
    0.5006    0.4351   -0.1274 C   0  0  0  0  0  0  0  0  0  0  0  0
    0.4789    0.7734    1.0846 C   0  0  0  0  0  0  0  0  0  0  0  0
   -0.7738    0.9287    1.7105 C   0  0  0  0  0  0  0  0  0  0  0  0
   -1.8668    0.6737    0.8565 C   0  0  0  0  0  0  0  0  0  0  0  0
   -2.5871    0.1144   -1.1078 H   0  0  0  0  0  0  0  0  0  0  0  0
   -0.2752   -0.1350   -2.1305 H   0  0  0  0  0  0  0  0  0  0  0  0
    3.0851   -0.3953   -2.9934 N   0  0  0  0  0  0  0  0  0  0  0  0
    4.1023   -0.7075   -3.2882 N   0  0  0  0  0  0  0  0  0  0  0  0
   -2.8783    0.7696    1.2552 H   0  0  0  0  0  0  0  0  0  0  0  0
   -0.9123    1.2173    2.7516 H   0  0  0  0  0  0  0  0  0  0  0  0
    2.2673    1.0725    2.0411 H   0  0  0  0  0  0  0  0  0  0  0  0
    4.1972    0.8776    0.9873 O   0  0  0  0  0  0  0  0  0  0  0  0
    4.1725    1.1845    2.1646 N   0  0  0  0  0  0  0  0  0  0  0  0
    5.0893    1.4186    2.9103 O   0  0  0  0  0  0  0  0  0  0  0  0
    2.9165    1.2864    2.7588 O   0  0  0  0  0  0  0  0  0  0  0  0
  1  6  1  0  0  0  0
  2  1  2  0  0  0  0
  2  3  1  0  0  0  0
  3  4  2  0  0  0  0
  4  5  1  0  0  0  0
  5 12  1  0  0  0  0
  6 11  1  0  0  0  0
  6  5  2  0  0  0  0
  7  1  1  0  0  0  0
  8  2  1  0  0  0  0
 10  9  3  0  0  0  0
 13 17  1  0  0  0  0
 14 15  2  0  0  0  0
 15 17  1  0  0  0  0
 15 16  2  0  0  0  0
M  RAD  2   3   2   4   2
M  END
