Coordinates from ORCA-job Ph-N2-NO3-B3LYPG-aug-cc-pVDZ-scan-d09-49-n400
 OpenBabel10311713213D

 17 17  0  0  1  0  0  0  0  0999 V2000
   -0.7463   -0.3896   -0.2119 C   0  0  0  0  0  0  0  0  0  0  0  0
    0.2489    0.0068   -1.0533 C   0  0  0  0  0  0  0  0  0  0  0  0
    1.1501    1.0295   -0.6149 C   0  0  1  0  0  0  0  0  0  0  0  0
    1.1993    1.5792    0.7661 C   0  0  1  0  0  0  0  0  0  0  0  0
   -0.0123    1.1768    1.5361 C   0  0  0  0  0  0  0  0  0  0  0  0
   -0.8860    0.2461    1.0789 C   0  0  0  0  0  0  0  0  0  0  0  0
   -1.4467   -1.1656   -0.5141 H   0  0  0  0  0  0  0  0  0  0  0  0
    0.3726   -0.4233   -2.0461 H   0  0  0  0  0  0  0  0  0  0  0  0
    2.0546    1.5589   -1.5298 N   0  0  0  0  0  0  0  0  0  0  0  0
    2.8035    1.9973   -2.2599 N   0  0  0  0  0  0  0  0  0  0  0  0
   -1.7442   -0.0200    1.6979 H   0  0  0  0  0  0  0  0  0  0  0  0
   -0.1612    1.6643    2.4989 H   0  0  0  0  0  0  0  0  0  0  0  0
    1.3591    2.6653    0.7825 H   0  0  0  0  0  0  0  0  0  0  0  0
    2.5047    1.2637    1.5265 O   0  0  0  0  0  0  0  0  0  0  0  0
    2.8059   -0.0793    1.8026 N   0  0  0  0  0  0  0  0  0  0  0  0
    3.7812   -0.2057    2.5062 O   0  0  0  0  0  0  0  0  0  0  0  0
    2.0993   -0.9393    1.3213 O   0  0  0  0  0  0  0  0  0  0  0  0
  1  6  1  0  0  0  0
  2  3  1  0  0  0  0
  2  1  2  0  0  0  0
  3  9  1  1  0  0  0
  3  4  1  0  0  0  0
  4 13  1  6  0  0  0
  4 14  1  0  0  0  0
  4  5  1  0  0  0  0
  5 12  1  0  0  0  0
  6  5  2  0  0  0  0
  6 11  1  0  0  0  0
  7  1  1  0  0  0  0
  8  2  1  0  0  0  0
 10  9  1  0  0  0  0
 14 15  1  0  0  0  0
 15 16  2  0  0  0  0
 17 15  2  0  0  0  0
M  RAD  3   3   2   9   2  10   3
M  END
