Coordinates from ORCA-job Ph-N2-NO3-B3LYPG-aug-cc-pVDZ-scan-d09-49-n400
 OpenBabel10311713213D

 17 15  0  0  0  0  0  0  0  0999 V2000
   -1.6513    0.2956   -0.4821 C   0  0  0  0  0  0  0  0  0  0  0  0
   -0.3415    0.1791   -1.0166 C   0  0  0  0  0  0  0  0  0  0  0  0
    0.5300    0.4879   -0.0038 C   0  0  0  0  0  0  0  0  0  0  0  0
    0.4314    0.8273    1.2041 C   0  0  0  0  0  0  0  0  0  0  0  0
   -0.8545    0.9523    1.7640 C   0  0  0  0  0  0  0  0  0  0  0  0
   -1.8938    0.6674    0.8544 C   0  0  0  0  0  0  0  0  0  0  0  0
   -2.4943    0.0868   -1.1434 H   0  0  0  0  0  0  0  0  0  0  0  0
   -0.1292   -0.1064   -2.0429 H   0  0  0  0  0  0  0  0  0  0  0  0
    3.1112   -0.5298   -3.3000 N   0  0  0  0  0  0  0  0  0  0  0  0
    4.1337   -0.7673   -3.6424 N   0  0  0  0  0  0  0  0  0  0  0  0
   -2.9270    0.7379    1.1988 H   0  0  0  0  0  0  0  0  0  0  0  0
   -1.0548    1.2389    2.7955 H   0  0  0  0  0  0  0  0  0  0  0  0
    2.2383    1.1296    2.1519 H   0  0  0  0  0  0  0  0  0  0  0  0
    4.1112    0.8375    1.0269 O   0  0  0  0  0  0  0  0  0  0  0  0
    4.1479    1.1801    2.1940 N   0  0  0  0  0  0  0  0  0  0  0  0
    5.1031    1.4050    2.8926 O   0  0  0  0  0  0  0  0  0  0  0  0
    2.9223    1.3431    2.8361 O   0  0  0  0  0  0  0  0  0  0  0  0
  1  6  1  0  0  0  0
  2  1  2  0  0  0  0
  2  3  1  0  0  0  0
  3  4  2  0  0  0  0
  4  5  1  0  0  0  0
  5 12  1  0  0  0  0
  6 11  1  0  0  0  0
  6  5  2  0  0  0  0
  7  1  1  0  0  0  0
  8  2  1  0  0  0  0
 10  9  3  0  0  0  0
 13 17  1  0  0  0  0
 14 15  2  0  0  0  0
 15 17  1  0  0  0  0
 15 16  2  0  0  0  0
M  RAD  2   3   2   4   2
M  END
