Coordinates from ORCA-job Ph-N2-NO3-B3LYPG-aug-cc-pVDZ-scan-d09-49-n400
 OpenBabel10311713213D

 17 15  0  0  0  0  0  0  0  0999 V2000
   -1.7387    0.3161   -0.5332 C   0  0  0  0  0  0  0  0  0  0  0  0
   -0.5144    0.1251   -1.2251 C   0  0  0  0  0  0  0  0  0  0  0  0
    0.4904    0.3531   -0.3234 C   0  0  0  0  0  0  0  0  0  0  0  0
    0.5805    0.6739    0.8925 C   0  0  0  0  0  0  0  0  0  0  0  0
   -0.6249    0.8678    1.6015 C   0  0  0  0  0  0  0  0  0  0  0  0
   -1.7868    0.6736    0.8278 C   0  0  0  0  0  0  0  0  0  0  0  0
   -2.6683    0.1775   -1.0883 H   0  0  0  0  0  0  0  0  0  0  0  0
   -0.4432   -0.1500   -2.2731 H   0  0  0  0  0  0  0  0  0  0  0  0
    2.8351   -0.2504   -2.3316 N   0  0  0  0  0  0  0  0  0  0  0  0
    3.8963   -0.4998   -2.5058 N   0  0  0  0  0  0  0  0  0  0  0  0
   -2.7615    0.8058    1.3006 H   0  0  0  0  0  0  0  0  0  0  0  0
   -0.6771    1.1454    2.6537 H   0  0  0  0  0  0  0  0  0  0  0  0
    2.3090    0.9536    1.8844 H   0  0  0  0  0  0  0  0  0  0  0  0
    4.2719    0.9804    0.8670 O   0  0  0  0  0  0  0  0  0  0  0  0
    4.2004    1.1952    2.0629 N   0  0  0  0  0  0  0  0  0  0  0  0
    5.0829    1.4423    2.8455 O   0  0  0  0  0  0  0  0  0  0  0  0
    2.9311    1.1553    2.6319 O   0  0  0  0  0  0  0  0  0  0  0  0
  1  6  1  0  0  0  0
  2  1  2  0  0  0  0
  2  3  1  0  0  0  0
  3  4  2  0  0  0  0
  4  5  1  0  0  0  0
  5 12  1  0  0  0  0
  6 11  1  0  0  0  0
  6  5  2  0  0  0  0
  7  1  1  0  0  0  0
  8  2  1  0  0  0  0
 10  9  3  0  0  0  0
 13 17  1  0  0  0  0
 14 15  2  0  0  0  0
 15 17  1  0  0  0  0
 15 16  2  0  0  0  0
M  RAD  2   3   2   4   2
M  END
