Coordinates from ORCA-job Ph-N2-NO3-B3LYPG-aug-cc-pVDZ-scan-d09-49-n400
 OpenBabel10311713213D

 17 15  0  0  0  0  0  0  0  0999 V2000
   -1.6599    0.1410   -0.6059 C   0  0  0  0  0  0  0  0  0  0  0  0
   -0.3341    0.0922   -1.0931 C   0  0  0  0  0  0  0  0  0  0  0  0
    0.5506    0.4588   -0.1290 C   0  0  0  0  0  0  0  0  0  0  0  0
    0.4625    0.8474    1.1669 C   0  0  0  0  0  0  0  0  0  0  0  0
   -0.8864    0.8744    1.5894 C   0  0  0  0  0  0  0  0  0  0  0  0
   -1.9215    0.5264    0.7136 C   0  0  0  0  0  0  0  0  0  0  0  0
   -2.4704   -0.1282   -1.2841 H   0  0  0  0  0  0  0  0  0  0  0  0
   -0.0772   -0.1995   -2.1079 H   0  0  0  0  0  0  0  0  0  0  0  0
    2.5836    0.4340   -0.7400 N   0  0  0  0  0  0  0  0  0  0  0  0
    3.2729    0.3407   -1.6044 N   0  0  0  0  0  0  0  0  0  0  0  0
   -2.9521    0.5547    1.0658 H   0  0  0  0  0  0  0  0  0  0  0  0
   -1.0979    1.1704    2.6172 H   0  0  0  0  0  0  0  0  0  0  0  0
    1.3230    1.0941    1.7868 H   0  0  0  0  0  0  0  0  0  0  0  0
    5.2886    1.0340    0.4010 O   0  0  0  0  0  0  0  0  0  0  0  0
    4.6769    0.9453    1.4761 N   0  0  0  0  0  0  0  0  0  0  0  0
    5.2176    1.0717    2.5781 O   0  0  0  0  0  0  0  0  0  0  0  0
    3.4064    0.7077    1.4565 O   0  0  0  0  0  0  0  0  0  0  0  0
  1  6  1  0  0  0  0
  2  1  2  0  0  0  0
  2  3  1  0  0  0  0
  3  4  2  0  0  0  0
  4  5  1  0  0  0  0
  4 13  1  0  0  0  0
  5 12  1  0  0  0  0
  6 11  1  0  0  0  0
  6  5  2  0  0  0  0
  7  1  1  0  0  0  0
  8  2  1  0  0  0  0
 10  9  3  0  0  0  0
 14 15  2  0  0  0  0
 15 16  1  0  0  0  0
 17 15  2  0  0  0  0
M  RAD  2   3   2  16   2
M  END
