Coordinates from ORCA-job Ph-N2-NO3-B3LYPG-aug-cc-pVDZ-scan-d09-49-n400
 OpenBabel10311713213D

 17 16  0  0  0  0  0  0  0  0999 V2000
   -1.5176    0.0743   -0.6117 C   0  0  0  0  0  0  0  0  0  0  0  0
   -0.1764    0.0940   -1.0210 C   0  0  0  0  0  0  0  0  0  0  0  0
    0.7039    0.5422   -0.0600 C   0  0  0  0  0  0  0  0  0  0  0  0
    0.4557    0.9622    1.2236 C   0  0  0  0  0  0  0  0  0  0  0  0
   -0.9002    0.9284    1.5857 C   0  0  0  0  0  0  0  0  0  0  0  0
   -1.8707    0.4887    0.6783 C   0  0  0  0  0  0  0  0  0  0  0  0
   -2.2792   -0.2675   -1.3121 H   0  0  0  0  0  0  0  0  0  0  0  0
    0.1393   -0.2178   -2.0133 H   0  0  0  0  0  0  0  0  0  0  0  0
    2.3801    0.5819   -0.5688 N   0  0  0  0  0  0  0  0  0  0  0  0
    3.0499    0.5415   -1.4619 N   0  0  0  0  0  0  0  0  0  0  0  0
   -2.9177    0.4664    0.9798 H   0  0  0  0  0  0  0  0  0  0  0  0
   -1.1851    1.2462    2.5881 H   0  0  0  0  0  0  0  0  0  0  0  0
    1.2569    1.2785    1.8853 H   0  0  0  0  0  0  0  0  0  0  0  0
    5.1194    0.8467    0.2216 O   0  0  0  0  0  0  0  0  0  0  0  0
    4.5970    0.8155    1.3472 N   0  0  0  0  0  0  0  0  0  0  0  0
    5.2276    0.8784    2.3980 O   0  0  0  0  0  0  0  0  0  0  0  0
    3.3000    0.7055    1.4284 O   0  0  0  0  0  0  0  0  0  0  0  0
  1  6  1  0  0  0  0
  2  1  2  0  0  0  0
  2  3  1  0  0  0  0
  3  4  2  0  0  0  0
  4  5  1  0  0  0  0
  4 13  1  0  0  0  0
  5 12  1  0  0  0  0
  6 11  1  0  0  0  0
  6  5  2  0  0  0  0
  7  1  1  0  0  0  0
  8  2  1  0  0  0  0
  9  3  1  0  0  0  0
 10  9  2  0  0  0  0
 14 15  2  0  0  0  0
 15 17  2  0  0  0  0
 15 16  1  0  0  0  0
M  RAD  2  10   2  16   2
M  END
