Coordinates from ORCA-job Ph-N2-NO3-B3LYPG-aug-cc-pVDZ-scan-d09-49-n400
 OpenBabel10311713213D

 17 17  0  0  1  0  0  0  0  0999 V2000
   -0.7462   -0.3809   -0.2180 C   0  0  0  0  0  0  0  0  0  0  0  0
    0.2513    0.0075   -1.0556 C   0  0  0  0  0  0  0  0  0  0  0  0
    1.1692    1.0315   -0.6287 C   0  0  0  0  0  0  0  0  0  0  0  0
    1.2046    1.5754    0.7661 C   0  0  1  0  0  0  0  0  0  0  0  0
   -0.0058    1.1701    1.5388 C   0  0  0  0  0  0  0  0  0  0  0  0
   -0.8855    0.2499    1.0775 C   0  0  0  0  0  0  0  0  0  0  0  0
   -1.4510   -1.1522   -0.5227 H   0  0  0  0  0  0  0  0  0  0  0  0
    0.3741   -0.4263   -2.0472 H   0  0  0  0  0  0  0  0  0  0  0  0
    2.0371    1.5383   -1.5014 N   0  0  0  0  0  0  0  0  0  0  0  0
    2.7889    1.9807   -2.2330 N   0  0  0  0  0  0  0  0  0  0  0  0
   -1.7451   -0.0158    1.6946 H   0  0  0  0  0  0  0  0  0  0  0  0
   -0.1476    1.6513    2.5059 H   0  0  0  0  0  0  0  0  0  0  0  0
    1.3484    2.6644    0.7755 H   0  0  0  0  0  0  0  0  0  0  0  0
    2.5007    1.2724    1.5189 O   0  0  0  0  0  0  0  0  0  0  0  0
    2.8062   -0.0735    1.7982 N   0  0  0  0  0  0  0  0  0  0  0  0
    3.7784   -0.1930    2.5054 O   0  0  0  0  0  0  0  0  0  0  0  0
    2.1049   -0.9346    1.3130 O   0  0  0  0  0  0  0  0  0  0  0  0
  1  6  1  0  0  0  0
  2  3  2  0  0  0  0
  2  1  1  0  0  0  0
  3  4  1  0  0  0  0
  4 13  1  6  0  0  0
  4 14  1  0  0  0  0
  4  5  1  0  0  0  0
  5 12  1  0  0  0  0
  6  5  2  0  0  0  0
  6 11  1  0  0  0  0
  7  1  1  0  0  0  0
  8  2  1  0  0  0  0
  9  3  1  0  0  0  0
 10  9  1  0  0  0  0
 14 15  1  0  0  0  0
 15 16  2  0  0  0  0
 17 15  2  0  0  0  0
M  RAD  3   1   2   9   2  10   3
M  END
