Coordinates from ORCA-job Ph-N2-NO3-B3LYPG-aug-cc-pVDZ-scan-d09-49-n400
 OpenBabel10311713213D

 17 17  0  0  1  0  0  0  0  0999 V2000
   -0.7480   -0.3625   -0.2312 C   0  0  0  0  0  0  0  0  0  0  0  0
    0.2539    0.0104   -1.0625 C   0  0  0  0  0  0  0  0  0  0  0  0
    1.2047    1.0365   -0.6558 C   0  0  0  0  0  0  0  0  0  0  0  0
    1.2133    1.5705    0.7659 C   0  0  1  0  0  0  0  0  0  0  0  0
    0.0063    1.1571    1.5424 C   0  0  0  0  0  0  0  0  0  0  0  0
   -0.8851    0.2571    1.0734 C   0  0  0  0  0  0  0  0  0  0  0  0
   -1.4604   -1.1251   -0.5412 H   0  0  0  0  0  0  0  0  0  0  0  0
    0.3766   -0.4295   -2.0519 H   0  0  0  0  0  0  0  0  0  0  0  0
    1.9965    1.4908   -1.4359 N   0  0  0  0  0  0  0  0  0  0  0  0
    2.7607    1.9368   -2.1676 N   0  0  0  0  0  0  0  0  0  0  0  0
   -1.7464   -0.0089    1.6877 H   0  0  0  0  0  0  0  0  0  0  0  0
   -0.1218    1.6254    2.5181 H   0  0  0  0  0  0  0  0  0  0  0  0
    1.3275    2.6641    0.7600 H   0  0  0  0  0  0  0  0  0  0  0  0
    2.4959    1.2917    1.5051 O   0  0  0  0  0  0  0  0  0  0  0  0
    2.8117   -0.0595    1.7867 N   0  0  0  0  0  0  0  0  0  0  0  0
    3.7761   -0.1678    2.5029 O   0  0  0  0  0  0  0  0  0  0  0  0
    2.1213   -0.9219    1.2912 O   0  0  0  0  0  0  0  0  0  0  0  0
  1  6  1  0  0  0  0
  2  3  2  0  0  0  0
  2  1  1  0  0  0  0
  3  4  1  0  0  0  0
  4 13  1  6  0  0  0
  4 14  1  0  0  0  0
  4  5  1  0  0  0  0
  5 12  1  0  0  0  0
  6  5  2  0  0  0  0
  6 11  1  0  0  0  0
  7  1  1  0  0  0  0
  8  2  1  0  0  0  0
  9  3  1  0  0  0  0
 10  9  1  0  0  0  0
 14 15  1  0  0  0  0
 15 16  2  0  0  0  0
 17 15  2  0  0  0  0
M  RAD  3   1   2   9   2  10   3
M  END
