Coordinates from ORCA-job Ph-N2-NO3-B3LYPG-aug-cc-pVDZ-scan-d09-49-n400
 OpenBabel10311713213D

 17 15  0  0  0  0  0  0  0  0999 V2000
   -1.7442    0.3120   -0.5220 C   0  0  0  0  0  0  0  0  0  0  0  0
   -0.5127    0.1283   -1.2032 C   0  0  0  0  0  0  0  0  0  0  0  0
    0.4830    0.3680   -0.2939 C   0  0  0  0  0  0  0  0  0  0  0  0
    0.5571    0.6934    0.9213 C   0  0  0  0  0  0  0  0  0  0  0  0
   -0.6541    0.8806    1.6209 C   0  0  0  0  0  0  0  0  0  0  0  0
   -1.8072    0.6740    0.8372 C   0  0  0  0  0  0  0  0  0  0  0  0
   -2.6680    0.1639   -1.0844 H   0  0  0  0  0  0  0  0  0  0  0  0
   -0.4309   -0.1500   -2.2496 H   0  0  0  0  0  0  0  0  0  0  0  0
    2.9142   -0.2631   -2.4280 N   0  0  0  0  0  0  0  0  0  0  0  0
    3.9696   -0.5237   -2.6196 N   0  0  0  0  0  0  0  0  0  0  0  0
   -2.7872    0.7997    1.3008 H   0  0  0  0  0  0  0  0  0  0  0  0
   -0.7175    1.1613    2.6716 H   0  0  0  0  0  0  0  0  0  0  0  0
    2.3024    0.9788    1.9001 H   0  0  0  0  0  0  0  0  0  0  0  0
    4.2629    0.9429    0.8788 O   0  0  0  0  0  0  0  0  0  0  0  0
    4.1985    1.1848    2.0698 N   0  0  0  0  0  0  0  0  0  0  0  0
    5.0875    1.4291    2.8458 O   0  0  0  0  0  0  0  0  0  0  0  0
    2.9294    1.1851    2.6415 O   0  0  0  0  0  0  0  0  0  0  0  0
  1  6  1  0  0  0  0
  2  1  2  0  0  0  0
  2  3  1  0  0  0  0
  3  4  2  0  0  0  0
  4  5  1  0  0  0  0
  5 12  1  0  0  0  0
  6 11  1  0  0  0  0
  6  5  2  0  0  0  0
  7  1  1  0  0  0  0
  8  2  1  0  0  0  0
 10  9  3  0  0  0  0
 13 17  1  0  0  0  0
 14 15  2  0  0  0  0
 15 17  1  0  0  0  0
 15 16  2  0  0  0  0
M  RAD  2   3   2   4   2
M  END
