Coordinates from ORCA-job Ph-N2-NO3-B3LYPG-aug-cc-pVDZ-scan-d09-49-n400
 OpenBabel10311713213D

 17 15  0  0  0  0  0  0  0  0999 V2000
   -1.6152    0.2957   -0.4847 C   0  0  0  0  0  0  0  0  0  0  0  0
   -0.2971    0.1846   -0.9987 C   0  0  0  0  0  0  0  0  0  0  0  0
    0.5597    0.4964    0.0257 C   0  0  0  0  0  0  0  0  0  0  0  0
    0.4394    0.8346    1.2321 C   0  0  0  0  0  0  0  0  0  0  0  0
   -0.8548    0.9542    1.7732 C   0  0  0  0  0  0  0  0  0  0  0  0
   -1.8792    0.6658    0.8481 C   0  0  0  0  0  0  0  0  0  0  0  0
   -2.4471    0.0837   -1.1590 H   0  0  0  0  0  0  0  0  0  0  0  0
   -0.0680   -0.0994   -2.0218 H   0  0  0  0  0  0  0  0  0  0  0  0
    3.0509   -0.6230   -3.5620 N   0  0  0  0  0  0  0  0  0  0  0  0
    4.0440   -0.8712   -3.9758 N   0  0  0  0  0  0  0  0  0  0  0  0
   -2.9177    0.7320    1.1771 H   0  0  0  0  0  0  0  0  0  0  0  0
   -1.0715    1.2394    2.8018 H   0  0  0  0  0  0  0  0  0  0  0  0
    2.2246    1.1506    2.2196 H   0  0  0  0  0  0  0  0  0  0  0  0
    4.1286    0.8829    1.1422 O   0  0  0  0  0  0  0  0  0  0  0  0
    4.1317    1.2203    2.3113 N   0  0  0  0  0  0  0  0  0  0  0  0
    5.0662    1.4506    3.0358 O   0  0  0  0  0  0  0  0  0  0  0  0
    2.8882    1.3678    2.9223 O   0  0  0  0  0  0  0  0  0  0  0  0
  1  6  1  0  0  0  0
  2  1  2  0  0  0  0
  2  3  1  0  0  0  0
  3  4  2  0  0  0  0
  4  5  1  0  0  0  0
  5 12  1  0  0  0  0
  6 11  1  0  0  0  0
  6  5  2  0  0  0  0
  7  1  1  0  0  0  0
  8  2  1  0  0  0  0
 10  9  3  0  0  0  0
 13 17  1  0  0  0  0
 14 15  2  0  0  0  0
 15 17  1  0  0  0  0
 15 16  2  0  0  0  0
M  RAD  2   3   2   4   2
M  END
