Coordinates from ORCA-job Ph-N2-NO3-B3LYPG-aug-cc-pVDZ-scan-d09-49-n400
 OpenBabel10311713213D

 17 15  0  0  0  0  0  0  0  0999 V2000
   -1.6564    0.2954   -0.4820 C   0  0  0  0  0  0  0  0  0  0  0  0
   -0.3479    0.1777   -1.0191 C   0  0  0  0  0  0  0  0  0  0  0  0
    0.5267    0.4860   -0.0089 C   0  0  0  0  0  0  0  0  0  0  0  0
    0.4310    0.8257    1.1992 C   0  0  0  0  0  0  0  0  0  0  0  0
   -0.8536    0.9519    1.7619 C   0  0  0  0  0  0  0  0  0  0  0  0
   -1.8953    0.6678    0.8550 C   0  0  0  0  0  0  0  0  0  0  0  0
   -2.5010    0.0872   -1.1415 H   0  0  0  0  0  0  0  0  0  0  0  0
   -0.1367   -0.1078   -2.0455 H   0  0  0  0  0  0  0  0  0  0  0  0
    3.1174   -0.5162   -3.2630 N   0  0  0  0  0  0  0  0  0  0  0  0
    4.1435   -0.7522   -3.5952 N   0  0  0  0  0  0  0  0  0  0  0  0
   -2.9276    0.7393    1.2018 H   0  0  0  0  0  0  0  0  0  0  0  0
   -1.0512    1.2390    2.7938 H   0  0  0  0  0  0  0  0  0  0  0  0
    2.2405    1.1264    2.1420 H   0  0  0  0  0  0  0  0  0  0  0  0
    4.1092    0.8315    1.0118 O   0  0  0  0  0  0  0  0  0  0  0  0
    4.1499    1.1748    2.1785 N   0  0  0  0  0  0  0  0  0  0  0  0
    5.1074    1.3990    2.8741 O   0  0  0  0  0  0  0  0  0  0  0  0
    2.9266    1.3396    2.8242 O   0  0  0  0  0  0  0  0  0  0  0  0
  1  6  1  0  0  0  0
  2  1  2  0  0  0  0
  2  3  1  0  0  0  0
  3  4  2  0  0  0  0
  4  5  1  0  0  0  0
  5 12  1  0  0  0  0
  6 11  1  0  0  0  0
  6  5  2  0  0  0  0
  7  1  1  0  0  0  0
  8  2  1  0  0  0  0
 10  9  3  0  0  0  0
 13 17  1  0  0  0  0
 14 15  2  0  0  0  0
 15 17  1  0  0  0  0
 15 16  2  0  0  0  0
M  RAD  2   3   2   4   2
M  END
