Coordinates from ORCA-job Ph-N2-NO3-B3LYPG-aug-cc-pVDZ-scan-d09-49-n400
 OpenBabel10311713213D

 17 15  0  0  0  0  0  0  0  0999 V2000
   -1.7458    0.3109   -0.5186 C   0  0  0  0  0  0  0  0  0  0  0  0
   -0.5124    0.1290   -1.1969 C   0  0  0  0  0  0  0  0  0  0  0  0
    0.4794    0.3724   -0.2846 C   0  0  0  0  0  0  0  0  0  0  0  0
    0.5514    0.6989    0.9298 C   0  0  0  0  0  0  0  0  0  0  0  0
   -0.6618    0.8845    1.6266 C   0  0  0  0  0  0  0  0  0  0  0  0
   -1.8126    0.6744    0.8403 C   0  0  0  0  0  0  0  0  0  0  0  0
   -2.6682    0.1602   -1.0827 H   0  0  0  0  0  0  0  0  0  0  0  0
   -0.4269   -0.1504   -2.2427 H   0  0  0  0  0  0  0  0  0  0  0  0
    2.9374   -0.2684   -2.4627 N   0  0  0  0  0  0  0  0  0  0  0  0
    3.9911   -0.5333   -2.6593 N   0  0  0  0  0  0  0  0  0  0  0  0
   -2.7940    0.7984    1.3014 H   0  0  0  0  0  0  0  0  0  0  0  0
   -0.7284    1.1661    2.6769 H   0  0  0  0  0  0  0  0  0  0  0  0
    2.3001    0.9859    1.9055 H   0  0  0  0  0  0  0  0  0  0  0  0
    4.2609    0.9339    0.8848 O   0  0  0  0  0  0  0  0  0  0  0  0
    4.1974    1.1828    2.0744 N   0  0  0  0  0  0  0  0  0  0  0  0
    5.0873    1.4263    2.8495 O   0  0  0  0  0  0  0  0  0  0  0  0
    2.9279    1.1936    2.6456 O   0  0  0  0  0  0  0  0  0  0  0  0
  1  6  1  0  0  0  0
  2  1  2  0  0  0  0
  2  3  1  0  0  0  0
  3  4  2  0  0  0  0
  4  5  1  0  0  0  0
  5 12  1  0  0  0  0
  6 11  1  0  0  0  0
  6  5  2  0  0  0  0
  7  1  1  0  0  0  0
  8  2  1  0  0  0  0
 10  9  3  0  0  0  0
 13 17  1  0  0  0  0
 14 15  2  0  0  0  0
 15 17  1  0  0  0  0
 15 16  2  0  0  0  0
M  RAD  2   3   2   4   2
M  END
