Coordinates from ORCA-job Ph-N2-NO3-B3LYPG-aug-cc-pVDZ-scan-d09-49-n400
 OpenBabel10311713213D

 17 15  0  0  0  0  0  0  0  0999 V2000
   -1.6285    0.2961   -0.4831 C   0  0  0  0  0  0  0  0  0  0  0  0
   -0.3133    0.1835   -1.0051 C   0  0  0  0  0  0  0  0  0  0  0  0
    0.5477    0.4943    0.0162 C   0  0  0  0  0  0  0  0  0  0  0  0
    0.4358    0.8326    1.2233 C   0  0  0  0  0  0  0  0  0  0  0  0
   -0.8557    0.9535    1.7710 C   0  0  0  0  0  0  0  0  0  0  0  0
   -1.8851    0.6663    0.8511 C   0  0  0  0  0  0  0  0  0  0  0  0
   -2.4644    0.0853   -1.1528 H   0  0  0  0  0  0  0  0  0  0  0  0
   -0.0913   -0.1009   -2.0297 H   0  0  0  0  0  0  0  0  0  0  0  0
    3.0770   -0.5896   -3.4667 N   0  0  0  0  0  0  0  0  0  0  0  0
    4.0811   -0.8348   -3.8551 N   0  0  0  0  0  0  0  0  0  0  0  0
   -2.9219    0.7336    1.1854 H   0  0  0  0  0  0  0  0  0  0  0  0
   -1.0668    1.2388    2.8007 H   0  0  0  0  0  0  0  0  0  0  0  0
    2.2290    1.1429    2.1952 H   0  0  0  0  0  0  0  0  0  0  0  0
    4.1206    0.8664    1.0983 O   0  0  0  0  0  0  0  0  0  0  0  0
    4.1373    1.2049    2.2670 N   0  0  0  0  0  0  0  0  0  0  0  0
    5.0802    1.4336    2.9810 O   0  0  0  0  0  0  0  0  0  0  0  0
    2.9009    1.3585    2.8906 O   0  0  0  0  0  0  0  0  0  0  0  0
  1  6  1  0  0  0  0
  2  1  2  0  0  0  0
  2  3  1  0  0  0  0
  3  4  2  0  0  0  0
  4  5  1  0  0  0  0
  5 12  1  0  0  0  0
  6 11  1  0  0  0  0
  6  5  2  0  0  0  0
  7  1  1  0  0  0  0
  8  2  1  0  0  0  0
 10  9  3  0  0  0  0
 13 17  1  0  0  0  0
 14 15  2  0  0  0  0
 15 17  1  0  0  0  0
 15 16  2  0  0  0  0
M  RAD  2   3   2   4   2
M  END
