Coordinates from ORCA-job Ph-N2-NO3-B3LYPG-aug-cc-pVDZ-scan-d09-49-n400
 OpenBabel10311713213D

 17 15  0  0  0  0  0  0  0  0999 V2000
   -1.6985    0.3498   -0.5814 C   0  0  0  0  0  0  0  0  0  0  0  0
   -0.5097    0.1127   -1.3161 C   0  0  0  0  0  0  0  0  0  0  0  0
    0.5343    0.2727   -0.4496 C   0  0  0  0  0  0  0  0  0  0  0  0
    0.7182    0.5653    0.7694 C   0  0  0  0  0  0  0  0  0  0  0  0
   -0.4706    0.8007    1.5063 C   0  0  0  0  0  0  0  0  0  0  0  0
   -1.6736    0.6826    0.7858 C   0  0  0  0  0  0  0  0  0  0  0  0
   -2.6523    0.2680   -1.1052 H   0  0  0  0  0  0  0  0  0  0  0  0
   -0.4869   -0.1459   -2.3705 H   0  0  0  0  0  0  0  0  0  0  0  0
    2.4775   -0.2124   -1.8847 N   0  0  0  0  0  0  0  0  0  0  0  0
    3.5590   -0.4187   -1.9669 N   0  0  0  0  0  0  0  0  0  0  0  0
   -2.6193    0.8555    1.3021 H   0  0  0  0  0  0  0  0  0  0  0  0
   -0.4693    1.0611    2.5650 H   0  0  0  0  0  0  0  0  0  0  0  0
    2.3112    0.8008    1.8177 H   0  0  0  0  0  0  0  0  0  0  0  0
    4.2260    1.2531    0.7995 O   0  0  0  0  0  0  0  0  0  0  0  0
    4.1644    1.2621    2.0164 N   0  0  0  0  0  0  0  0  0  0  0  0
    5.0347    1.5034    2.8159 O   0  0  0  0  0  0  0  0  0  0  0  0
    2.9376    0.9542    2.5834 O   0  0  0  0  0  0  0  0  0  0  0  0
  1  6  1  0  0  0  0
  2  1  2  0  0  0  0
  2  3  1  0  0  0  0
  3  4  2  0  0  0  0
  4  5  1  0  0  0  0
  5 12  1  0  0  0  0
  6 11  1  0  0  0  0
  6  5  2  0  0  0  0
  7  1  1  0  0  0  0
  8  2  1  0  0  0  0
 10  9  3  0  0  0  0
 13 17  1  0  0  0  0
 14 15  2  0  0  0  0
 15 17  1  0  0  0  0
 15 16  2  0  0  0  0
M  RAD  2   3   2   4   2
M  END
