Coordinates from ORCA-job Ph-N2-NO3-B3LYPG-aug-cc-pVDZ-scan-d09-49-n400
 OpenBabel10311713213D

 17 15  0  0  0  0  0  0  0  0999 V2000
   -1.6780    0.3660   -0.5989 C   0  0  0  0  0  0  0  0  0  0  0  0
   -0.4958    0.1068   -1.3298 C   0  0  0  0  0  0  0  0  0  0  0  0
    0.5612    0.2431   -0.4731 C   0  0  0  0  0  0  0  0  0  0  0  0
    0.7680    0.5307    0.7517 C   0  0  0  0  0  0  0  0  0  0  0  0
   -0.4278    0.7869    1.4762 C   0  0  0  0  0  0  0  0  0  0  0  0
   -1.6383    0.6968    0.7684 C   0  0  0  0  0  0  0  0  0  0  0  0
   -2.6340    0.3045   -1.1209 H   0  0  0  0  0  0  0  0  0  0  0  0
   -0.4747   -0.1517   -2.3847 H   0  0  0  0  0  0  0  0  0  0  0  0
    2.3648   -0.2053   -1.6933 N   0  0  0  0  0  0  0  0  0  0  0  0
    3.4502   -0.4043   -1.7430 N   0  0  0  0  0  0  0  0  0  0  0  0
   -2.5761    0.8897    1.2917 H   0  0  0  0  0  0  0  0  0  0  0  0
   -0.4177    1.0457    2.5357 H   0  0  0  0  0  0  0  0  0  0  0  0
    2.3118    0.7019    1.7703 H   0  0  0  0  0  0  0  0  0  0  0  0
    4.1361    1.4852    0.7691 O   0  0  0  0  0  0  0  0  0  0  0  0
    4.1342    1.2945    1.9741 N   0  0  0  0  0  0  0  0  0  0  0  0
    5.0224    1.4920    2.7675 O   0  0  0  0  0  0  0  0  0  0  0  0
    2.9764    0.7827    2.5261 O   0  0  0  0  0  0  0  0  0  0  0  0
  1  6  1  0  0  0  0
  2  1  2  0  0  0  0
  2  3  1  0  0  0  0
  3  4  2  0  0  0  0
  4  5  1  0  0  0  0
  5 12  1  0  0  0  0
  6 11  1  0  0  0  0
  6  5  2  0  0  0  0
  7  1  1  0  0  0  0
  8  2  1  0  0  0  0
 10  9  3  0  0  0  0
 13 17  1  0  0  0  0
 14 15  2  0  0  0  0
 15 17  1  0  0  0  0
 15 16  2  0  0  0  0
M  RAD  2   3   2   4   2
M  END
