Coordinates from ORCA-job Ph-N2-NO3-B3LYPG-aug-cc-pVDZ-scan-d09-49-n400
 OpenBabel10311713213D

 17 15  0  0  0  0  0  0  0  0999 V2000
   -1.5799    0.1017   -0.6110 C   0  0  0  0  0  0  0  0  0  0  0  0
   -0.2418    0.0936   -1.0493 C   0  0  0  0  0  0  0  0  0  0  0  0
    0.6285    0.5084   -0.0796 C   0  0  0  0  0  0  0  0  0  0  0  0
    0.4506    0.9167    1.2094 C   0  0  0  0  0  0  0  0  0  0  0  0
   -0.9055    0.9056    1.5907 C   0  0  0  0  0  0  0  0  0  0  0  0
   -1.8996    0.5032    0.6912 C   0  0  0  0  0  0  0  0  0  0  0  0
   -2.3597   -0.2102   -1.3060 H   0  0  0  0  0  0  0  0  0  0  0  0
    0.0552   -0.2087   -2.0499 H   0  0  0  0  0  0  0  0  0  0  0  0
    2.4792    0.5235   -0.6358 N   0  0  0  0  0  0  0  0  0  0  0  0
    3.1408    0.4555   -1.5287 N   0  0  0  0  0  0  0  0  0  0  0  0
   -2.9415    0.5007    1.0098 H   0  0  0  0  0  0  0  0  0  0  0  0
   -1.1639    1.2138    2.6037 H   0  0  0  0  0  0  0  0  0  0  0  0
    1.2764    1.2049    1.8551 H   0  0  0  0  0  0  0  0  0  0  0  0
    5.2132    0.9152    0.2936 O   0  0  0  0  0  0  0  0  0  0  0  0
    4.6455    0.8694    1.3947 N   0  0  0  0  0  0  0  0  0  0  0  0
    5.2307    0.9615    2.4727 O   0  0  0  0  0  0  0  0  0  0  0  0
    3.3546    0.7104    1.4265 O   0  0  0  0  0  0  0  0  0  0  0  0
  1  6  1  0  0  0  0
  2  1  2  0  0  0  0
  2  3  1  0  0  0  0
  3  4  2  0  0  0  0
  4  5  1  0  0  0  0
  4 13  1  0  0  0  0
  5 12  1  0  0  0  0
  6 11  1  0  0  0  0
  6  5  2  0  0  0  0
  7  1  1  0  0  0  0
  8  2  1  0  0  0  0
 10  9  3  0  0  0  0
 14 15  2  0  0  0  0
 15 17  2  0  0  0  0
 15 16  1  0  0  0  0
M  RAD  2   3   2  16   2
M  END
