Coordinates from ORCA-job Ph-N2-NO3-B3LYPG-aug-cc-pVDZ-scan-d09-49-n400
 OpenBabel10311713213D

 17 15  0  0  0  0  0  0  0  0999 V2000
   -1.7259    0.3226   -0.5514 C   0  0  0  0  0  0  0  0  0  0  0  0
   -0.5104    0.1194   -1.2550 C   0  0  0  0  0  0  0  0  0  0  0  0
    0.5038    0.3303   -0.3613 C   0  0  0  0  0  0  0  0  0  0  0  0
    0.6167    0.6444    0.8549 C   0  0  0  0  0  0  0  0  0  0  0  0
   -0.5830    0.8492    1.5727 C   0  0  0  0  0  0  0  0  0  0  0  0
   -1.7557    0.6742    0.8116 C   0  0  0  0  0  0  0  0  0  0  0  0
   -2.6622    0.1985   -1.0987 H   0  0  0  0  0  0  0  0  0  0  0  0
   -0.4518   -0.1516   -2.3047 H   0  0  0  0  0  0  0  0  0  0  0  0
    2.7045   -0.2326   -2.1882 N   0  0  0  0  0  0  0  0  0  0  0  0
    3.7735   -0.4630   -2.3388 N   0  0  0  0  0  0  0  0  0  0  0  0
   -2.7237    0.8169    1.2951 H   0  0  0  0  0  0  0  0  0  0  0  0
   -0.6213    1.1227    2.6268 H   0  0  0  0  0  0  0  0  0  0  0  0
    2.3197    0.9095    1.8619 H   0  0  0  0  0  0  0  0  0  0  0  0
    4.2833    1.0434    0.8492 O   0  0  0  0  0  0  0  0  0  0  0  0
    4.2028    1.2126    2.0520 N   0  0  0  0  0  0  0  0  0  0  0  0
    5.0755    1.4655    2.8439 O   0  0  0  0  0  0  0  0  0  0  0  0
    2.9370    1.1030    2.6172 O   0  0  0  0  0  0  0  0  0  0  0  0
  1  6  1  0  0  0  0
  2  1  2  0  0  0  0
  2  3  1  0  0  0  0
  3  4  2  0  0  0  0
  4  5  1  0  0  0  0
  5 12  1  0  0  0  0
  6 11  1  0  0  0  0
  6  5  2  0  0  0  0
  7  1  1  0  0  0  0
  8  2  1  0  0  0  0
 10  9  3  0  0  0  0
 13 17  1  0  0  0  0
 14 15  2  0  0  0  0
 15 17  1  0  0  0  0
 15 16  2  0  0  0  0
M  RAD  2   3   2   4   2
M  END
