Coordinates from ORCA-job Ph-N2-NO3-B3LYPG-aug-cc-pVDZ-scan-d09-49-n400
 OpenBabel10311713213D

 17 15  0  0  0  0  0  0  0  0999 V2000
   -1.7197    0.3013   -0.4940 C   0  0  0  0  0  0  0  0  0  0  0  0
   -0.4528    0.1465   -1.1149 C   0  0  0  0  0  0  0  0  0  0  0  0
    0.4942    0.4227   -0.1631 C   0  0  0  0  0  0  0  0  0  0  0  0
    0.4906    0.7597    1.0496 C   0  0  0  0  0  0  0  0  0  0  0  0
   -0.7516    0.9212    1.6943 C   0  0  0  0  0  0  0  0  0  0  0  0
   -1.8588    0.6739    0.8569 C   0  0  0  0  0  0  0  0  0  0  0  0
   -2.6113    0.1220   -1.0976 H   0  0  0  0  0  0  0  0  0  0  0  0
   -0.3162   -0.1389   -2.1539 H   0  0  0  0  0  0  0  0  0  0  0  0
    3.0727   -0.3717   -2.9199 N   0  0  0  0  0  0  0  0  0  0  0  0
    4.0915   -0.6897   -3.2028 N   0  0  0  0  0  0  0  0  0  0  0  0
   -2.8634    0.7754    1.2712 H   0  0  0  0  0  0  0  0  0  0  0  0
   -0.8725    1.2093    2.7378 H   0  0  0  0  0  0  0  0  0  0  0  0
    2.2770    1.0591    2.0111 H   0  0  0  0  0  0  0  0  0  0  0  0
    4.2257    0.8879    0.9850 O   0  0  0  0  0  0  0  0  0  0  0  0
    4.1799    1.1873    2.1635 N   0  0  0  0  0  0  0  0  0  0  0  0
    5.0829    1.4251    2.9248 O   0  0  0  0  0  0  0  0  0  0  0  0
    2.9143    1.2741    2.7391 O   0  0  0  0  0  0  0  0  0  0  0  0
  1  6  1  0  0  0  0
  2  1  2  0  0  0  0
  2  3  1  0  0  0  0
  3  4  2  0  0  0  0
  4  5  1  0  0  0  0
  5 12  1  0  0  0  0
  6 11  1  0  0  0  0
  6  5  2  0  0  0  0
  7  1  1  0  0  0  0
  8  2  1  0  0  0  0
 10  9  3  0  0  0  0
 13 17  1  0  0  0  0
 14 15  2  0  0  0  0
 15 17  1  0  0  0  0
 15 16  2  0  0  0  0
M  RAD  2   3   2   4   2
M  END
