Coordinates from ORCA-job Ph-N2-NO3-B3LYPG-aug-cc-pVDZ-scan-d09-49-n400
 OpenBabel10311713213D

 17 17  0  0  1  0  0  0  0  0999 V2000
   -0.7509   -0.4052   -0.2007 C   0  0  0  0  0  0  0  0  0  0  0  0
    0.2380    0.0080   -1.0513 C   0  0  0  0  0  0  0  0  0  0  0  0
    1.1058    1.0281   -0.5891 C   0  0  1  0  0  0  0  0  0  0  0  0
    1.1843    1.5873    0.7635 C   0  0  1  0  0  0  0  0  0  0  0  0
   -0.0253    1.1874    1.5297 C   0  0  0  0  0  0  0  0  0  0  0  0
   -0.8887    0.2360    1.0818 C   0  0  0  0  0  0  0  0  0  0  0  0
   -1.4407   -1.1920   -0.4982 H   0  0  0  0  0  0  0  0  0  0  0  0
    0.3659   -0.4146   -2.0462 H   0  0  0  0  0  0  0  0  0  0  0  0
    2.0932    1.6035   -1.5935 N   0  0  0  0  0  0  0  0  0  0  0  0
    2.8414    2.0315   -2.3179 N   0  0  0  0  0  0  0  0  0  0  0  0
   -1.7414   -0.0331    1.7071 H   0  0  0  0  0  0  0  0  0  0  0  0
   -0.1852    1.6859    2.4848 H   0  0  0  0  0  0  0  0  0  0  0  0
    1.3791    2.6658    0.7955 H   0  0  0  0  0  0  0  0  0  0  0  0
    2.5203    1.2448    1.5400 O   0  0  0  0  0  0  0  0  0  0  0  0
    2.8090   -0.0894    1.8174 N   0  0  0  0  0  0  0  0  0  0  0  0
    3.7902   -0.2307    2.5140 O   0  0  0  0  0  0  0  0  0  0  0  0
    2.0876   -0.9481    1.3503 O   0  0  0  0  0  0  0  0  0  0  0  0
  1  6  1  0  0  0  0
  2  3  1  0  0  0  0
  2  1  2  0  0  0  0
  3  9  1  1  0  0  0
  3  4  1  0  0  0  0
  4 13  1  6  0  0  0
  4  5  1  0  0  0  0
  4 14  1  0  0  0  0
  5 12  1  0  0  0  0
  6  5  2  0  0  0  0
  6 11  1  0  0  0  0
  7  1  1  0  0  0  0
  8  2  1  0  0  0  0
 10  9  1  0  0  0  0
 14 15  1  0  0  0  0
 15 16  2  0  0  0  0
 17 15  2  0  0  0  0
M  RAD  3   3   2   9   2  10   3
M  END
