Coordinates from ORCA-job Ph-N2-NO3-B3LYPG-aug-cc-pVDZ-scan-d09-49-n400
 OpenBabel10311713213D

 17 15  0  0  0  0  0  0  0  0999 V2000
   -1.7503    0.3076   -0.5032 C   0  0  0  0  0  0  0  0  0  0  0  0
   -0.5104    0.1308   -1.1710 C   0  0  0  0  0  0  0  0  0  0  0  0
    0.4746    0.3858   -0.2536 C   0  0  0  0  0  0  0  0  0  0  0  0
    0.5300    0.7186    0.9603 C   0  0  0  0  0  0  0  0  0  0  0  0
   -0.6881    0.8996    1.6480 C   0  0  0  0  0  0  0  0  0  0  0  0
   -1.8308    0.6773    0.8531 C   0  0  0  0  0  0  0  0  0  0  0  0
   -2.6671    0.1476   -1.0738 H   0  0  0  0  0  0  0  0  0  0  0  0
   -0.4163   -0.1532   -2.2149 H   0  0  0  0  0  0  0  0  0  0  0  0
    3.0263   -0.2972   -2.6201 N   0  0  0  0  0  0  0  0  0  0  0  0
    4.0706   -0.5790   -2.8409 N   0  0  0  0  0  0  0  0  0  0  0  0
   -2.8168    0.7966    1.3056 H   0  0  0  0  0  0  0  0  0  0  0  0
   -0.7648    1.1858    2.6963 H   0  0  0  0  0  0  0  0  0  0  0  0
    2.2893    1.0121    1.9321 H   0  0  0  0  0  0  0  0  0  0  0  0
    4.2507    0.9071    0.9191 O   0  0  0  0  0  0  0  0  0  0  0  0
    4.1884    1.1796    2.1034 N   0  0  0  0  0  0  0  0  0  0  0  0
    5.0801    1.4218    2.8769 O   0  0  0  0  0  0  0  0  0  0  0  0
    2.9173    1.2242    2.6701 O   0  0  0  0  0  0  0  0  0  0  0  0
  1  6  1  0  0  0  0
  2  1  2  0  0  0  0
  2  3  1  0  0  0  0
  3  4  2  0  0  0  0
  4  5  1  0  0  0  0
  5 12  1  0  0  0  0
  6 11  1  0  0  0  0
  6  5  2  0  0  0  0
  7  1  1  0  0  0  0
  8  2  1  0  0  0  0
 10  9  3  0  0  0  0
 13 17  1  0  0  0  0
 14 15  2  0  0  0  0
 15 17  1  0  0  0  0
 15 16  2  0  0  0  0
M  RAD  2   3   2   4   2
M  END
