Coordinates from ORCA-job Ph-N2-NO3-B3LYPG-aug-cc-pVDZ-scan-d09-49-n400
 OpenBabel10311713213D

 17 15  0  0  0  0  0  0  0  0999 V2000
   -1.7390    0.3035   -0.4962 C   0  0  0  0  0  0  0  0  0  0  0  0
   -0.4855    0.1376   -1.1410 C   0  0  0  0  0  0  0  0  0  0  0  0
    0.4812    0.4043   -0.2069 C   0  0  0  0  0  0  0  0  0  0  0  0
    0.5058    0.7410    1.0059 C   0  0  0  0  0  0  0  0  0  0  0  0
   -0.7235    0.9131    1.6732 C   0  0  0  0  0  0  0  0  0  0  0  0
   -1.8488    0.6766    0.8572 C   0  0  0  0  0  0  0  0  0  0  0  0
   -2.6435    0.1327   -1.0830 H   0  0  0  0  0  0  0  0  0  0  0  0
   -0.3711   -0.1485   -2.1824 H   0  0  0  0  0  0  0  0  0  0  0  0
    3.0667   -0.3324   -2.7737 N   0  0  0  0  0  0  0  0  0  0  0  0
    4.0989   -0.6316   -3.0265 N   0  0  0  0  0  0  0  0  0  0  0  0
   -2.8443    0.7872    1.2907 H   0  0  0  0  0  0  0  0  0  0  0  0
   -0.8220    1.2018    2.7189 H   0  0  0  0  0  0  0  0  0  0  0  0
    2.2837    1.0368    1.9687 H   0  0  0  0  0  0  0  0  0  0  0  0
    4.2399    0.8918    0.9505 O   0  0  0  0  0  0  0  0  0  0  0  0
    4.1853    1.1805    2.1313 N   0  0  0  0  0  0  0  0  0  0  0  0
    5.0825    1.4200    2.8991 O   0  0  0  0  0  0  0  0  0  0  0  0
    2.9164    1.2506    2.7014 O   0  0  0  0  0  0  0  0  0  0  0  0
  1  6  1  0  0  0  0
  2  1  2  0  0  0  0
  2  3  1  0  0  0  0
  3  4  2  0  0  0  0
  4  5  1  0  0  0  0
  5 12  1  0  0  0  0
  6 11  1  0  0  0  0
  6  5  2  0  0  0  0
  7  1  1  0  0  0  0
  8  2  1  0  0  0  0
 10  9  3  0  0  0  0
 13 17  1  0  0  0  0
 14 15  2  0  0  0  0
 15 17  1  0  0  0  0
 15 16  2  0  0  0  0
M  RAD  2   3   2   4   2
M  END
