Coordinates from ORCA-job Ph-N2-NO3-B3LYPG-aug-cc-pVDZ-scan-d09-49-n400
 OpenBabel10311713213D

 17 15  0  0  0  0  0  0  0  0999 V2000
   -1.6841    0.3627   -0.5942 C   0  0  0  0  0  0  0  0  0  0  0  0
   -0.5007    0.1109   -1.3284 C   0  0  0  0  0  0  0  0  0  0  0  0
    0.5520    0.2514   -0.4684 C   0  0  0  0  0  0  0  0  0  0  0  0
    0.7527    0.5375    0.7545 C   0  0  0  0  0  0  0  0  0  0  0  0
   -0.4393    0.7866    1.4855 C   0  0  0  0  0  0  0  0  0  0  0  0
   -1.6480    0.6906    0.7739 C   0  0  0  0  0  0  0  0  0  0  0  0
   -2.6400    0.2971   -1.1161 H   0  0  0  0  0  0  0  0  0  0  0  0
   -0.4807   -0.1449   -2.3838 H   0  0  0  0  0  0  0  0  0  0  0  0
    2.3962   -0.2077   -1.7522 N   0  0  0  0  0  0  0  0  0  0  0  0
    3.4806   -0.4104   -1.8049 N   0  0  0  0  0  0  0  0  0  0  0  0
   -2.5880    0.8768    1.2960 H   0  0  0  0  0  0  0  0  0  0  0  0
   -0.4308    1.0436    2.5454 H   0  0  0  0  0  0  0  0  0  0  0  0
    2.3117    0.7361    1.7873 H   0  0  0  0  0  0  0  0  0  0  0  0
    4.1710    1.4017    0.7733 O   0  0  0  0  0  0  0  0  0  0  0  0
    4.1452    1.2845    1.9868 N   0  0  0  0  0  0  0  0  0  0  0  0
    5.0249    1.5027    2.7836 O   0  0  0  0  0  0  0  0  0  0  0  0
    2.9601    0.8458    2.5488 O   0  0  0  0  0  0  0  0  0  0  0  0
  1  6  1  0  0  0  0
  2  1  2  0  0  0  0
  2  3  1  0  0  0  0
  3  4  2  0  0  0  0
  4  5  1  0  0  0  0
  5 12  1  0  0  0  0
  6 11  1  0  0  0  0
  6  5  2  0  0  0  0
  7  1  1  0  0  0  0
  8  2  1  0  0  0  0
 10  9  3  0  0  0  0
 13 17  1  0  0  0  0
 14 15  2  0  0  0  0
 15 17  1  0  0  0  0
 15 16  2  0  0  0  0
M  RAD  2   3   2   4   2
M  END
