Coordinates from ORCA-job Ph-N2-NO3-B3LYPG-aug-cc-pVDZ-scan-d09-49-n400
 OpenBabel10311713213D

 17 15  0  0  0  0  0  0  0  0999 V2000
   -1.6886    0.3607   -0.5912 C   0  0  0  0  0  0  0  0  0  0  0  0
   -0.5048    0.1120   -1.3269 C   0  0  0  0  0  0  0  0  0  0  0  0
    0.5474    0.2551   -0.4662 C   0  0  0  0  0  0  0  0  0  0  0  0
    0.7441    0.5417    0.7556 C   0  0  0  0  0  0  0  0  0  0  0  0
   -0.4457    0.7881    1.4900 C   0  0  0  0  0  0  0  0  0  0  0  0
   -1.6537    0.6885    0.7769 C   0  0  0  0  0  0  0  0  0  0  0  0
   -2.6446    0.2927   -1.1128 H   0  0  0  0  0  0  0  0  0  0  0  0
   -0.4851   -0.1437   -2.3823 H   0  0  0  0  0  0  0  0  0  0  0  0
    2.4150   -0.2114   -1.7853 N   0  0  0  0  0  0  0  0  0  0  0  0
    3.4985   -0.4174   -1.8423 N   0  0  0  0  0  0  0  0  0  0  0  0
   -2.5945    0.8721    1.2985 H   0  0  0  0  0  0  0  0  0  0  0  0
   -0.4377    1.0451    2.5498 H   0  0  0  0  0  0  0  0  0  0  0  0
    2.3136    0.7515    1.7937 H   0  0  0  0  0  0  0  0  0  0  0  0
    4.1870    1.3727    0.7806 O   0  0  0  0  0  0  0  0  0  0  0  0
    4.1505    1.2825    1.9959 N   0  0  0  0  0  0  0  0  0  0  0  0
    5.0267    1.5038    2.7953 O   0  0  0  0  0  0  0  0  0  0  0  0
    2.9545    0.8710    2.5578 O   0  0  0  0  0  0  0  0  0  0  0  0
  1  6  1  0  0  0  0
  2  1  2  0  0  0  0
  2  3  1  0  0  0  0
  3  4  2  0  0  0  0
  4  5  1  0  0  0  0
  5 12  1  0  0  0  0
  6 11  1  0  0  0  0
  6  5  2  0  0  0  0
  7  1  1  0  0  0  0
  8  2  1  0  0  0  0
 10  9  3  0  0  0  0
 13 17  1  0  0  0  0
 14 15  2  0  0  0  0
 15 17  1  0  0  0  0
 15 16  2  0  0  0  0
M  RAD  2   3   2   4   2
M  END
