Coordinates from ORCA-job Ph-N2-NO3-B3LYPG-aug-cc-pVDZ-scan-d09-49-n400
 OpenBabel10311713213D

 17 15  0  0  0  0  0  0  0  0999 V2000
   -1.6250    0.2950   -0.4834 C   0  0  0  0  0  0  0  0  0  0  0  0
   -0.3090    0.1836   -1.0032 C   0  0  0  0  0  0  0  0  0  0  0  0
    0.5512    0.4958    0.0186 C   0  0  0  0  0  0  0  0  0  0  0  0
    0.4366    0.8344    1.2253 C   0  0  0  0  0  0  0  0  0  0  0  0
   -0.8555    0.9542    1.7714 C   0  0  0  0  0  0  0  0  0  0  0  0
   -1.8835    0.6657    0.8504 C   0  0  0  0  0  0  0  0  0  0  0  0
   -2.4598    0.0830   -1.1540 H   0  0  0  0  0  0  0  0  0  0  0  0
   -0.0845   -0.1009   -2.0272 H   0  0  0  0  0  0  0  0  0  0  0  0
    3.0697   -0.5982   -3.4945 N   0  0  0  0  0  0  0  0  0  0  0  0
    4.0709   -0.8434   -3.8903 N   0  0  0  0  0  0  0  0  0  0  0  0
   -2.9207    0.7321    1.1836 H   0  0  0  0  0  0  0  0  0  0  0  0
   -1.0680    1.2399    2.8008 H   0  0  0  0  0  0  0  0  0  0  0  0
    2.2278    1.1483    2.2014 H   0  0  0  0  0  0  0  0  0  0  0  0
    4.1231    0.8640    1.1130 O   0  0  0  0  0  0  0  0  0  0  0  0
    4.1358    1.2135    2.2785 N   0  0  0  0  0  0  0  0  0  0  0  0
    5.0764    1.4329    2.9983 O   0  0  0  0  0  0  0  0  0  0  0  0
    2.8973    1.3653    2.8986 O   0  0  0  0  0  0  0  0  0  0  0  0
  1  6  1  0  0  0  0
  2  1  2  0  0  0  0
  2  3  1  0  0  0  0
  3  4  2  0  0  0  0
  4  5  1  0  0  0  0
  5 12  1  0  0  0  0
  6 11  1  0  0  0  0
  6  5  2  0  0  0  0
  7  1  1  0  0  0  0
  8  2  1  0  0  0  0
 10  9  3  0  0  0  0
 13 17  1  0  0  0  0
 14 15  2  0  0  0  0
 15 17  1  0  0  0  0
 15 16  2  0  0  0  0
M  RAD  2   3   2   4   2
M  END
