Coordinates from ORCA-job Ph-N2-NO3-B3LYPG-aug-cc-pVDZ-scan-d09-49-n400
 OpenBabel10311713213D

 17 15  0  0  0  0  0  0  0  0999 V2000
   -1.5502    0.2925   -0.4960 C   0  0  0  0  0  0  0  0  0  0  0  0
   -0.2202    0.1872   -0.9800 C   0  0  0  0  0  0  0  0  0  0  0  0
    0.6120    0.5043    0.0643 C   0  0  0  0  0  0  0  0  0  0  0  0
    0.4579    0.8422    1.2665 C   0  0  0  0  0  0  0  0  0  0  0  0
   -0.8477    0.9562    1.7791 C   0  0  0  0  0  0  0  0  0  0  0  0
   -1.8481    0.6621    0.8298 C   0  0  0  0  0  0  0  0  0  0  0  0
   -2.3652    0.0759   -1.1893 H   0  0  0  0  0  0  0  0  0  0  0  0
    0.0298   -0.0968   -1.9983 H   0  0  0  0  0  0  0  0  0  0  0  0
    2.9183   -0.7416   -3.9084 N   0  0  0  0  0  0  0  0  0  0  0  0
    3.8580   -1.0077   -4.4236 N   0  0  0  0  0  0  0  0  0  0  0  0
   -2.8946    0.7231    1.1338 H   0  0  0  0  0  0  0  0  0  0  0  0
   -1.0897    1.2410    2.8021 H   0  0  0  0  0  0  0  0  0  0  0  0
    2.2084    1.1790    2.3142 H   0  0  0  0  0  0  0  0  0  0  0  0
    4.1586    0.9457    1.3155 O   0  0  0  0  0  0  0  0  0  0  0  0
    4.1087    1.2737    2.4861 N   0  0  0  0  0  0  0  0  0  0  0  0
    5.0083    1.5240    3.2471 O   0  0  0  0  0  0  0  0  0  0  0  0
    2.8383    1.4043    3.0444 O   0  0  0  0  0  0  0  0  0  0  0  0
  1  6  1  0  0  0  0
  2  1  2  0  0  0  0
  2  3  1  0  0  0  0
  3  4  2  0  0  0  0
  4  5  1  0  0  0  0
  5 12  1  0  0  0  0
  6 11  1  0  0  0  0
  6  5  2  0  0  0  0
  7  1  1  0  0  0  0
  8  2  1  0  0  0  0
 10  9  3  0  0  0  0
 13 17  1  0  0  0  0
 14 15  2  0  0  0  0
 15 17  1  0  0  0  0
 15 16  2  0  0  0  0
M  RAD  2   3   2   4   2
M  END
