Coordinates from ORCA-job Ph-N2-NO3-B3LYPG-aug-cc-pVDZ-scan-d09-49-n400
 OpenBabel10311713213D

 17 15  0  0  0  0  0  0  0  0999 V2000
   -1.7269    0.3215   -0.5494 C   0  0  0  0  0  0  0  0  0  0  0  0
   -0.5094    0.1201   -1.2502 C   0  0  0  0  0  0  0  0  0  0  0  0
    0.5027    0.3337   -0.3545 C   0  0  0  0  0  0  0  0  0  0  0  0
    0.6102    0.6490    0.8616 C   0  0  0  0  0  0  0  0  0  0  0  0
   -0.5904    0.8522    1.5774 C   0  0  0  0  0  0  0  0  0  0  0  0
   -1.7608    0.6741    0.8132 C   0  0  0  0  0  0  0  0  0  0  0  0
   -2.6616    0.1950   -1.0987 H   0  0  0  0  0  0  0  0  0  0  0  0
   -0.4481   -0.1516   -2.2996 H   0  0  0  0  0  0  0  0  0  0  0  0
    2.7194   -0.2350   -2.2083 N   0  0  0  0  0  0  0  0  0  0  0  0
    3.7873   -0.4682   -2.3630 N   0  0  0  0  0  0  0  0  0  0  0  0
   -2.7303    0.8152    1.2941 H   0  0  0  0  0  0  0  0  0  0  0  0
   -0.6317    1.1265    2.6312 H   0  0  0  0  0  0  0  0  0  0  0  0
    2.3197    0.9150    1.8652 H   0  0  0  0  0  0  0  0  0  0  0  0
    4.2831    1.0361    0.8513 O   0  0  0  0  0  0  0  0  0  0  0  0
    4.2039    1.2103    2.0534 N   0  0  0  0  0  0  0  0  0  0  0  0
    5.0780    1.4622    2.8441 O   0  0  0  0  0  0  0  0  0  0  0  0
    2.9376    1.1091    2.6195 O   0  0  0  0  0  0  0  0  0  0  0  0
  1  6  1  0  0  0  0
  2  1  2  0  0  0  0
  2  3  1  0  0  0  0
  3  4  2  0  0  0  0
  4  5  1  0  0  0  0
  5 12  1  0  0  0  0
  6 11  1  0  0  0  0
  6  5  2  0  0  0  0
  7  1  1  0  0  0  0
  8  2  1  0  0  0  0
 10  9  3  0  0  0  0
 13 17  1  0  0  0  0
 14 15  2  0  0  0  0
 15 17  1  0  0  0  0
 15 16  2  0  0  0  0
M  RAD  2   3   2   4   2
M  END
