Coordinates from ORCA-job Ph-N2-NO3-B3LYPG-aug-cc-pVDZ-scan-d09-49-n400
 OpenBabel10311713213D

 17 16  0  0  0  0  0  0  0  0999 V2000
   -1.5431    0.0845   -0.6112 C   0  0  0  0  0  0  0  0  0  0  0  0
   -0.2025    0.0933   -1.0316 C   0  0  0  0  0  0  0  0  0  0  0  0
    0.6708    0.5291   -0.0657 C   0  0  0  0  0  0  0  0  0  0  0  0
    0.4518    0.9454    1.2197 C   0  0  0  0  0  0  0  0  0  0  0  0
   -0.9047    0.9200    1.5884 C   0  0  0  0  0  0  0  0  0  0  0  0
   -1.8838    0.4942    0.6833 C   0  0  0  0  0  0  0  0  0  0  0  0
   -2.3115   -0.2460   -1.3099 H   0  0  0  0  0  0  0  0  0  0  0  0
    0.1070   -0.2149   -2.0267 H   0  0  0  0  0  0  0  0  0  0  0  0
    2.4248    0.5596   -0.5950 N   0  0  0  0  0  0  0  0  0  0  0  0
    3.0855    0.5081   -1.4922 N   0  0  0  0  0  0  0  0  0  0  0  0
   -2.9290    0.4795    0.9909 H   0  0  0  0  0  0  0  0  0  0  0  0
   -1.1799    1.2343    2.5947 H   0  0  0  0  0  0  0  0  0  0  0  0
    1.2629    1.2513    1.8749 H   0  0  0  0  0  0  0  0  0  0  0  0
    5.1628    0.8756    0.2507 O   0  0  0  0  0  0  0  0  0  0  0  0
    4.6195    0.8362    1.3649 N   0  0  0  0  0  0  0  0  0  0  0  0
    5.2285    0.9082    2.4291 O   0  0  0  0  0  0  0  0  0  0  0  0
    3.3236    0.7066    1.4230 O   0  0  0  0  0  0  0  0  0  0  0  0
  1  6  1  0  0  0  0
  2  1  2  0  0  0  0
  2  3  1  0  0  0  0
  3  4  2  0  0  0  0
  4  5  1  0  0  0  0
  4 13  1  0  0  0  0
  5 12  1  0  0  0  0
  6 11  1  0  0  0  0
  6  5  2  0  0  0  0
  7  1  1  0  0  0  0
  8  2  1  0  0  0  0
  9  3  1  0  0  0  0
 10  9  2  0  0  0  0
 14 15  2  0  0  0  0
 15 17  2  0  0  0  0
 15 16  1  0  0  0  0
M  RAD  2  10   2  16   2
M  END
