Coordinates from ORCA-job Ph-N2-NO3-B3LYPG-aug-cc-pVDZ-scan-d09-49-n400
 OpenBabel10311713213D

 17 15  0  0  0  0  0  0  0  0999 V2000
   -1.6340    0.2961   -0.4829 C   0  0  0  0  0  0  0  0  0  0  0  0
   -0.3201    0.1826   -1.0078 C   0  0  0  0  0  0  0  0  0  0  0  0
    0.5438    0.4928    0.0113 C   0  0  0  0  0  0  0  0  0  0  0  0
    0.4346    0.8312    1.2186 C   0  0  0  0  0  0  0  0  0  0  0  0
   -0.8554    0.9531    1.7694 C   0  0  0  0  0  0  0  0  0  0  0  0
   -1.8872    0.6666    0.8519 C   0  0  0  0  0  0  0  0  0  0  0  0
   -2.4716    0.0859   -1.1507 H   0  0  0  0  0  0  0  0  0  0  0  0
   -0.1001   -0.1019   -2.0327 H   0  0  0  0  0  0  0  0  0  0  0  0
    3.0849   -0.5765   -3.4291 N   0  0  0  0  0  0  0  0  0  0  0  0
    4.0934   -0.8198   -3.8071 N   0  0  0  0  0  0  0  0  0  0  0  0
   -2.9232    0.7346    1.1887 H   0  0  0  0  0  0  0  0  0  0  0  0
   -1.0639    1.2387    2.7995 H   0  0  0  0  0  0  0  0  0  0  0  0
    2.2313    1.1397    2.1854 H   0  0  0  0  0  0  0  0  0  0  0  0
    4.1189    0.8606    1.0821 O   0  0  0  0  0  0  0  0  0  0  0  0
    4.1399    1.1996    2.2507 N   0  0  0  0  0  0  0  0  0  0  0  0
    5.0855    1.4272    2.9614 O   0  0  0  0  0  0  0  0  0  0  0  0
    2.9058    1.3547    2.8785 O   0  0  0  0  0  0  0  0  0  0  0  0
  1  6  1  0  0  0  0
  2  1  2  0  0  0  0
  2  3  1  0  0  0  0
  3  4  2  0  0  0  0
  4  5  1  0  0  0  0
  5 12  1  0  0  0  0
  6 11  1  0  0  0  0
  6  5  2  0  0  0  0
  7  1  1  0  0  0  0
  8  2  1  0  0  0  0
 10  9  3  0  0  0  0
 13 17  1  0  0  0  0
 14 15  2  0  0  0  0
 15 17  1  0  0  0  0
 15 16  2  0  0  0  0
M  RAD  2   3   2   4   2
M  END
