Coordinates from ORCA-job Ph-N2-NO3-B3LYPG-aug-cc-pVDZ-scan-d09-49-n400
 OpenBabel10311713213D

 17 15  0  0  0  0  0  0  0  0999 V2000
   -1.6336    0.1282   -0.6087 C   0  0  0  0  0  0  0  0  0  0  0  0
   -0.3025    0.0938   -1.0777 C   0  0  0  0  0  0  0  0  0  0  0  0
    0.5749    0.4763   -0.1097 C   0  0  0  0  0  0  0  0  0  0  0  0
    0.4559    0.8709    1.1843 C   0  0  0  0  0  0  0  0  0  0  0  0
   -0.8964    0.8841    1.5910 C   0  0  0  0  0  0  0  0  0  0  0  0
   -1.9165    0.5180    0.7052 C   0  0  0  0  0  0  0  0  0  0  0  0
   -2.4329   -0.1551   -1.2940 H   0  0  0  0  0  0  0  0  0  0  0  0
   -0.0302   -0.2010   -2.0876 H   0  0  0  0  0  0  0  0  0  0  0  0
    2.5507    0.4626   -0.7026 N   0  0  0  0  0  0  0  0  0  0  0  0
    3.2275    0.3779   -1.5791 N   0  0  0  0  0  0  0  0  0  0  0  0
   -2.9517    0.5352    1.0447 H   0  0  0  0  0  0  0  0  0  0  0  0
   -1.1252    1.1836    2.6140 H   0  0  0  0  0  0  0  0  0  0  0  0
    1.3041    1.1322    1.8140 H   0  0  0  0  0  0  0  0  0  0  0  0
    5.2696    0.9883    0.3628 O   0  0  0  0  0  0  0  0  0  0  0  0
    4.6708    0.9220    1.4463 N   0  0  0  0  0  0  0  0  0  0  0  0
    5.2260    1.0363    2.5409 O   0  0  0  0  0  0  0  0  0  0  0  0
    3.3922    0.7118    1.4434 O   0  0  0  0  0  0  0  0  0  0  0  0
  1  6  1  0  0  0  0
  2  1  2  0  0  0  0
  2  3  1  0  0  0  0
  3  4  2  0  0  0  0
  4  5  1  0  0  0  0
  4 13  1  0  0  0  0
  5 12  1  0  0  0  0
  6 11  1  0  0  0  0
  6  5  2  0  0  0  0
  7  1  1  0  0  0  0
  8  2  1  0  0  0  0
 10  9  3  0  0  0  0
 14 15  2  0  0  0  0
 15 16  1  0  0  0  0
 17 15  2  0  0  0  0
M  RAD  2   3   2  16   2
M  END
