Coordinates from ORCA-job Ph-N2-NO3-B3LYPG-aug-cc-pVDZ-scan-d09-49-n400
 OpenBabel10311713213D

 17 15  0  0  0  0  0  0  0  0999 V2000
   -1.6695    0.2966   -0.4835 C   0  0  0  0  0  0  0  0  0  0  0  0
   -0.3674    0.1717   -1.0337 C   0  0  0  0  0  0  0  0  0  0  0  0
    0.5202    0.4746   -0.0335 C   0  0  0  0  0  0  0  0  0  0  0  0
    0.4397    0.8147    1.1761 C   0  0  0  0  0  0  0  0  0  0  0  0
   -0.8391    0.9477    1.7516 C   0  0  0  0  0  0  0  0  0  0  0  0
   -1.8920    0.6699    0.8559 C   0  0  0  0  0  0  0  0  0  0  0  0
   -2.5222    0.0933   -1.1341 H   0  0  0  0  0  0  0  0  0  0  0  0
   -0.1669   -0.1139   -2.0621 H   0  0  0  0  0  0  0  0  0  0  0  0
    3.1199   -0.4859   -3.1870 N   0  0  0  0  0  0  0  0  0  0  0  0
    4.1474   -0.7345   -3.5054 N   0  0  0  0  0  0  0  0  0  0  0  0
   -2.9202    0.7472    1.2137 H   0  0  0  0  0  0  0  0  0  0  0  0
   -1.0244    1.2357    2.7855 H   0  0  0  0  0  0  0  0  0  0  0  0
    2.2455    1.1120    2.1198 H   0  0  0  0  0  0  0  0  0  0  0  0
    4.1194    0.8450    0.9916 O   0  0  0  0  0  0  0  0  0  0  0  0
    4.1548    1.1734    2.1626 N   0  0  0  0  0  0  0  0  0  0  0  0
    5.1090    1.3962    2.8634 O   0  0  0  0  0  0  0  0  0  0  0  0
    2.9286    1.3216    2.8064 O   0  0  0  0  0  0  0  0  0  0  0  0
  1  6  1  0  0  0  0
  2  1  2  0  0  0  0
  2  3  1  0  0  0  0
  3  4  2  0  0  0  0
  4  5  1  0  0  0  0
  5 12  1  0  0  0  0
  6 11  1  0  0  0  0
  6  5  2  0  0  0  0
  7  1  1  0  0  0  0
  8  2  1  0  0  0  0
 10  9  3  0  0  0  0
 13 17  1  0  0  0  0
 14 15  2  0  0  0  0
 15 17  1  0  0  0  0
 15 16  2  0  0  0  0
M  RAD  2   3   2   4   2
M  END
