Coordinates from ORCA-job Ph-N2-NO3-B3LYPG-aug-cc-pVDZ-scan-d09-49-n400
 OpenBabel10311713213D

 17 17  0  0  1  0  0  0  0  0999 V2000
   -0.7462   -0.3865   -0.2140 C   0  0  0  0  0  0  0  0  0  0  0  0
    0.2497    0.0070   -1.0539 C   0  0  0  0  0  0  0  0  0  0  0  0
    1.1574    1.0302   -0.6202 C   0  0  2  0  0  0  0  0  0  0  0  0
    1.2012    1.5775    0.7661 C   0  0  1  0  0  0  0  0  0  0  0  0
   -0.0098    1.1740    1.5374 C   0  0  0  0  0  0  0  0  0  0  0  0
   -0.8858    0.2473    1.0787 C   0  0  0  0  0  0  0  0  0  0  0  0
   -1.4484   -1.1606   -0.5171 H   0  0  0  0  0  0  0  0  0  0  0  0
    0.3729   -0.4246   -2.0464 H   0  0  0  0  0  0  0  0  0  0  0  0
    2.0495    1.5524   -1.5211 N   0  0  0  0  0  0  0  0  0  0  0  0
    2.7990    1.9926   -2.2519 N   0  0  0  0  0  0  0  0  0  0  0  0
   -1.7444   -0.0187    1.6971 H   0  0  0  0  0  0  0  0  0  0  0  0
   -0.1559    1.6591    2.5019 H   0  0  0  0  0  0  0  0  0  0  0  0
    1.3550    2.6648    0.7799 H   0  0  0  0  0  0  0  0  0  0  0  0
    2.5029    1.2667    1.5236 O   0  0  0  0  0  0  0  0  0  0  0  0
    2.8054   -0.0773    1.8014 N   0  0  0  0  0  0  0  0  0  0  0  0
    3.7800   -0.2010    2.5059 O   0  0  0  0  0  0  0  0  0  0  0  0
    2.1002   -0.9377    1.3196 O   0  0  0  0  0  0  0  0  0  0  0  0
  1  6  1  0  0  0  0
  2  3  1  0  0  0  0
  2  1  2  0  0  0  0
  3  9  1  6  0  0  0
  3  4  1  0  0  0  0
  4 13  1  6  0  0  0
  4 14  1  0  0  0  0
  4  5  1  0  0  0  0
  5 12  1  0  0  0  0
  6  5  2  0  0  0  0
  6 11  1  0  0  0  0
  7  1  1  0  0  0  0
  8  2  1  0  0  0  0
 10  9  1  0  0  0  0
 14 15  1  0  0  0  0
 15 16  2  0  0  0  0
 17 15  2  0  0  0  0
M  RAD  3   3   2   9   2  10   3
M  END
