Coordinates from ORCA-job Ph-N2-NO3-B3LYPG-aug-cc-pVDZ-scan-d09-49-n400
 OpenBabel10311713213D

 17 17  0  0  1  0  0  0  0  0999 V2000
   -0.7450   -0.3786   -0.2212 C   0  0  0  0  0  0  0  0  0  0  0  0
    0.2518    0.0092   -1.0588 C   0  0  0  0  0  0  0  0  0  0  0  0
    1.1742    1.0334   -0.6348 C   0  0  0  0  0  0  0  0  0  0  0  0
    1.2077    1.5744    0.7642 C   0  0  1  0  0  0  0  0  0  0  0  0
   -0.0013    1.1671    1.5385 C   0  0  0  0  0  0  0  0  0  0  0  0
   -0.8826    0.2494    1.0764 C   0  0  0  0  0  0  0  0  0  0  0  0
   -1.4509   -1.1486   -0.5265 H   0  0  0  0  0  0  0  0  0  0  0  0
    0.3733   -0.4244   -2.0508 H   0  0  0  0  0  0  0  0  0  0  0  0
    2.0288    1.5336   -1.4940 N   0  0  0  0  0  0  0  0  0  0  0  0
    2.7807    1.9778   -2.2263 N   0  0  0  0  0  0  0  0  0  0  0  0
   -1.7416   -0.0173    1.6939 H   0  0  0  0  0  0  0  0  0  0  0  0
   -0.1403    1.6456    2.5074 H   0  0  0  0  0  0  0  0  0  0  0  0
    1.3473    2.6643    0.7724 H   0  0  0  0  0  0  0  0  0  0  0  0
    2.5020    1.2742    1.5140 O   0  0  0  0  0  0  0  0  0  0  0  0
    2.8038   -0.0720    1.8016 N   0  0  0  0  0  0  0  0  0  0  0  0
    3.7788   -0.1897    2.5047 O   0  0  0  0  0  0  0  0  0  0  0  0
    2.0960   -0.9331    1.3265 O   0  0  0  0  0  0  0  0  0  0  0  0
  1  6  1  0  0  0  0
  2  3  2  0  0  0  0
  2  1  1  0  0  0  0
  3  4  1  0  0  0  0
  4 13  1  6  0  0  0
  4 14  1  0  0  0  0
  4  5  1  0  0  0  0
  5 12  1  0  0  0  0
  6  5  2  0  0  0  0
  6 11  1  0  0  0  0
  7  1  1  0  0  0  0
  8  2  1  0  0  0  0
  9  3  1  0  0  0  0
 10  9  1  0  0  0  0
 14 15  1  0  0  0  0
 15 16  2  0  0  0  0
 17 15  2  0  0  0  0
M  RAD  3   1   2   9   2  10   3
M  END
