Coordinates from ORCA-job Ph-N2-NO3-B3LYPG-aug-cc-pVDZ-scan-d09-49-n400
 OpenBabel10311713213D

 17 15  0  0  0  0  0  0  0  0999 V2000
   -1.6734    0.3605   -0.6022 C   0  0  0  0  0  0  0  0  0  0  0  0
   -0.4878    0.0995   -1.3256 C   0  0  0  0  0  0  0  0  0  0  0  0
    0.5671    0.2424   -0.4667 C   0  0  0  0  0  0  0  0  0  0  0  0
    0.7707    0.5359    0.7591 C   0  0  0  0  0  0  0  0  0  0  0  0
   -0.4309    0.7930    1.4744 C   0  0  0  0  0  0  0  0  0  0  0  0
   -1.6391    0.6985    0.7635 C   0  0  0  0  0  0  0  0  0  0  0  0
   -2.6271    0.2952   -1.1277 H   0  0  0  0  0  0  0  0  0  0  0  0
   -0.4616   -0.1649   -2.3790 H   0  0  0  0  0  0  0  0  0  0  0  0
    2.3490   -0.1864   -1.6531 N   0  0  0  0  0  0  0  0  0  0  0  0
    3.4384   -0.3588   -1.7146 N   0  0  0  0  0  0  0  0  0  0  0  0
   -2.5790    0.8929    1.2826 H   0  0  0  0  0  0  0  0  0  0  0  0
   -0.4261    1.0563    2.5330 H   0  0  0  0  0  0  0  0  0  0  0  0
    2.3070    0.6972    1.7679 H   0  0  0  0  0  0  0  0  0  0  0  0
    4.1298    1.4714    0.7531 O   0  0  0  0  0  0  0  0  0  0  0  0
    4.1352    1.2815    1.9586 N   0  0  0  0  0  0  0  0  0  0  0  0
    5.0309    1.4748    2.7448 O   0  0  0  0  0  0  0  0  0  0  0  0
    2.9796    0.7761    2.5191 O   0  0  0  0  0  0  0  0  0  0  0  0
  1  6  1  0  0  0  0
  2  1  2  0  0  0  0
  2  3  1  0  0  0  0
  3  4  2  0  0  0  0
  4  5  1  0  0  0  0
  5 12  1  0  0  0  0
  6 11  1  0  0  0  0
  6  5  2  0  0  0  0
  7  1  1  0  0  0  0
  8  2  1  0  0  0  0
 10  9  3  0  0  0  0
 13 17  1  0  0  0  0
 14 15  2  0  0  0  0
 15 17  1  0  0  0  0
 15 16  2  0  0  0  0
M  RAD  2   3   2   4   2
M  END
