Coordinates from ORCA-job Ph-N2-NO3-B3LYPG-aug-cc-pVDZ-scan-d09-49-n400
 OpenBabel10311713213D

 17 15  0  0  0  0  0  0  0  0999 V2000
   -1.6946    0.2984   -0.4890 C   0  0  0  0  0  0  0  0  0  0  0  0
   -0.4098    0.1551   -1.0752 C   0  0  0  0  0  0  0  0  0  0  0  0
    0.5071    0.4446   -0.0984 C   0  0  0  0  0  0  0  0  0  0  0  0
    0.4685    0.7849    1.1130 C   0  0  0  0  0  0  0  0  0  0  0  0
   -0.7928    0.9354    1.7225 C   0  0  0  0  0  0  0  0  0  0  0  0
   -1.8742    0.6738    0.8563 C   0  0  0  0  0  0  0  0  0  0  0  0
   -2.5677    0.1078   -1.1159 H   0  0  0  0  0  0  0  0  0  0  0  0
   -0.2420   -0.1324   -2.1090 H   0  0  0  0  0  0  0  0  0  0  0  0
    3.0981   -0.4160   -3.0461 N   0  0  0  0  0  0  0  0  0  0  0  0
    4.1182   -0.7123   -3.3471 N   0  0  0  0  0  0  0  0  0  0  0  0
   -2.8907    0.7659    1.2428 H   0  0  0  0  0  0  0  0  0  0  0  0
   -0.9452    1.2252    2.7614 H   0  0  0  0  0  0  0  0  0  0  0  0
    2.2584    1.0834    2.0659 H   0  0  0  0  0  0  0  0  0  0  0  0
    4.1681    0.8663    0.9839 O   0  0  0  0  0  0  0  0  0  0  0  0
    4.1653    1.1798    2.1598 N   0  0  0  0  0  0  0  0  0  0  0  0
    5.0961    1.4094    2.8894 O   0  0  0  0  0  0  0  0  0  0  0  0
    2.9199    1.2958    2.7729 O   0  0  0  0  0  0  0  0  0  0  0  0
  1  6  1  0  0  0  0
  2  1  2  0  0  0  0
  2  3  1  0  0  0  0
  3  4  2  0  0  0  0
  4  5  1  0  0  0  0
  5 12  1  0  0  0  0
  6 11  1  0  0  0  0
  6  5  2  0  0  0  0
  7  1  1  0  0  0  0
  8  2  1  0  0  0  0
 10  9  3  0  0  0  0
 13 17  1  0  0  0  0
 14 15  2  0  0  0  0
 15 17  1  0  0  0  0
 15 16  2  0  0  0  0
M  RAD  2   3   2   4   2
M  END
