Coordinates from ORCA-job Ph-N2-NO3-B3LYPG-aug-cc-pVDZ-scan-d09-49-n400
 OpenBabel10311713213D

 17 16  0  0  0  0  0  0  0  0999 V2000
   -1.5083    0.0725   -0.6124 C   0  0  0  0  0  0  0  0  0  0  0  0
   -0.1667    0.0948   -1.0181 C   0  0  0  0  0  0  0  0  0  0  0  0
    0.7156    0.5457   -0.0577 C   0  0  0  0  0  0  0  0  0  0  0  0
    0.4583    0.9661    1.2258 C   0  0  0  0  0  0  0  0  0  0  0  0
   -0.8976    0.9303    1.5850 C   0  0  0  0  0  0  0  0  0  0  0  0
   -1.8654    0.4875    0.6763 C   0  0  0  0  0  0  0  0  0  0  0  0
   -2.2679   -0.2717   -1.3139 H   0  0  0  0  0  0  0  0  0  0  0  0
    0.1507   -0.2175   -2.0096 H   0  0  0  0  0  0  0  0  0  0  0  0
    2.3624    0.5862   -0.5595 N   0  0  0  0  0  0  0  0  0  0  0  0
    3.0344    0.5471   -1.4518 N   0  0  0  0  0  0  0  0  0  0  0  0
   -2.9130    0.4634    0.9755 H   0  0  0  0  0  0  0  0  0  0  0  0
   -1.1857    1.2486    2.5863 H   0  0  0  0  0  0  0  0  0  0  0  0
    1.2564    1.2848    1.8899 H   0  0  0  0  0  0  0  0  0  0  0  0
    5.1034    0.8389    0.2120 O   0  0  0  0  0  0  0  0  0  0  0  0
    4.5883    0.8106    1.3415 N   0  0  0  0  0  0  0  0  0  0  0  0
    5.2263    0.8722    2.3875 O   0  0  0  0  0  0  0  0  0  0  0  0
    3.2916    0.7057    1.4303 O   0  0  0  0  0  0  0  0  0  0  0  0
  1  6  1  0  0  0  0
  2  1  2  0  0  0  0
  2  3  1  0  0  0  0
  3  4  2  0  0  0  0
  4  5  1  0  0  0  0
  4 13  1  0  0  0  0
  5 12  1  0  0  0  0
  6 11  1  0  0  0  0
  6  5  2  0  0  0  0
  7  1  1  0  0  0  0
  8  2  1  0  0  0  0
  9  3  1  0  0  0  0
 10  9  2  0  0  0  0
 14 15  2  0  0  0  0
 15 17  2  0  0  0  0
 15 16  1  0  0  0  0
M  RAD  2  10   2  16   2
M  END
