Coordinates from ORCA-job Ph-N2-NO3-B3LYPG-aug-cc-pVDZ-scan-d09-49-n400
 OpenBabel10311713213D

 17 15  0  0  0  0  0  0  0  0999 V2000
   -1.5180    0.2879   -0.5032 C   0  0  0  0  0  0  0  0  0  0  0  0
   -0.1823    0.1863   -0.9714 C   0  0  0  0  0  0  0  0  0  0  0  0
    0.6381    0.5079    0.0806 C   0  0  0  0  0  0  0  0  0  0  0  0
    0.4686    0.8476    1.2802 C   0  0  0  0  0  0  0  0  0  0  0  0
   -0.8428    0.9584    1.7782 C   0  0  0  0  0  0  0  0  0  0  0  0
   -1.8317    0.6591    0.8184 C   0  0  0  0  0  0  0  0  0  0  0  0
   -2.3243    0.0671   -1.2053 H   0  0  0  0  0  0  0  0  0  0  0  0
    0.0814   -0.0985   -1.9862 H   0  0  0  0  0  0  0  0  0  0  0  0
    2.8465   -0.7873   -4.0503 N   0  0  0  0  0  0  0  0  0  0  0  0
    3.7584   -1.0594   -4.6102 N   0  0  0  0  0  0  0  0  0  0  0  0
   -2.8816    0.7172    1.1108 H   0  0  0  0  0  0  0  0  0  0  0  0
   -1.0970    1.2444    2.7979 H   0  0  0  0  0  0  0  0  0  0  0  0
    2.2013    1.1958    2.3545 H   0  0  0  0  0  0  0  0  0  0  0  0
    4.1709    0.9619    1.3952 O   0  0  0  0  0  0  0  0  0  0  0  0
    4.0974    1.3008    2.5614 N   0  0  0  0  0  0  0  0  0  0  0  0
    4.9816    1.5495    3.3408 O   0  0  0  0  0  0  0  0  0  0  0  0
    2.8162    1.4264    3.0957 O   0  0  0  0  0  0  0  0  0  0  0  0
  1  6  1  0  0  0  0
  2  1  2  0  0  0  0
  2  3  1  0  0  0  0
  3  4  2  0  0  0  0
  4  5  1  0  0  0  0
  5 12  1  0  0  0  0
  6 11  1  0  0  0  0
  6  5  2  0  0  0  0
  7  1  1  0  0  0  0
  8  2  1  0  0  0  0
 10  9  3  0  0  0  0
 13 17  1  0  0  0  0
 14 15  2  0  0  0  0
 15 17  1  0  0  0  0
 15 16  2  0  0  0  0
M  RAD  2   3   2   4   2
M  END
