Coordinates from ORCA-job Ph-N2-NO3-B3LYPG-aug-cc-pVDZ-scan-d09-49-n400
 OpenBabel10311713213D

 17 15  0  0  0  0  0  0  0  0999 V2000
   -1.7039    0.2997   -0.4913 C   0  0  0  0  0  0  0  0  0  0  0  0
   -0.4258    0.1519   -1.0916 C   0  0  0  0  0  0  0  0  0  0  0  0
    0.5010    0.4364   -0.1232 C   0  0  0  0  0  0  0  0  0  0  0  0
    0.4774    0.7750    1.0888 C   0  0  0  0  0  0  0  0  0  0  0  0
   -0.7766    0.9296    1.7123 C   0  0  0  0  0  0  0  0  0  0  0  0
   -1.8680    0.6737    0.8565 C   0  0  0  0  0  0  0  0  0  0  0  0
   -2.5846    0.1135   -1.1090 H   0  0  0  0  0  0  0  0  0  0  0  0
   -0.2707   -0.1347   -2.1276 H   0  0  0  0  0  0  0  0  0  0  0  0
    3.0873   -0.3978   -3.0003 N   0  0  0  0  0  0  0  0  0  0  0  0
    4.1048   -0.7082   -3.2959 N   0  0  0  0  0  0  0  0  0  0  0  0
   -2.8802    0.7691    1.2533 H   0  0  0  0  0  0  0  0  0  0  0  0
   -0.9172    1.2183    2.7531 H   0  0  0  0  0  0  0  0  0  0  0  0
    2.2662    1.0738    2.0443 H   0  0  0  0  0  0  0  0  0  0  0  0
    4.1936    0.8760    0.9865 O   0  0  0  0  0  0  0  0  0  0  0  0
    4.1718    1.1838    2.1637 N   0  0  0  0  0  0  0  0  0  0  0  0
    5.0905    1.4174    2.9072 O   0  0  0  0  0  0  0  0  0  0  0  0
    2.9172    1.2875    2.7604 O   0  0  0  0  0  0  0  0  0  0  0  0
  1  6  1  0  0  0  0
  2  1  2  0  0  0  0
  2  3  1  0  0  0  0
  3  4  2  0  0  0  0
  4  5  1  0  0  0  0
  5 12  1  0  0  0  0
  6 11  1  0  0  0  0
  6  5  2  0  0  0  0
  7  1  1  0  0  0  0
  8  2  1  0  0  0  0
 10  9  3  0  0  0  0
 13 17  1  0  0  0  0
 14 15  2  0  0  0  0
 15 17  1  0  0  0  0
 15 16  2  0  0  0  0
M  RAD  2   3   2   4   2
M  END
