Coordinates from ORCA-job Ph-N2-NO3-B3LYPG-aug-cc-pVDZ-scan-d09-49-n400
 OpenBabel10311713213D

 17 15  0  0  0  0  0  0  0  0999 V2000
   -1.7398    0.3037   -0.4962 C   0  0  0  0  0  0  0  0  0  0  0  0
   -0.4874    0.1371   -1.1425 C   0  0  0  0  0  0  0  0  0  0  0  0
    0.4823    0.4029   -0.2109 C   0  0  0  0  0  0  0  0  0  0  0  0
    0.5081    0.7397    1.0023 C   0  0  0  0  0  0  0  0  0  0  0  0
   -0.7205    0.9123    1.6710 C   0  0  0  0  0  0  0  0  0  0  0  0
   -1.8473    0.6767    0.8571 C   0  0  0  0  0  0  0  0  0  0  0  0
   -2.6453    0.1335   -1.0816 H   0  0  0  0  0  0  0  0  0  0  0  0
   -0.3749   -0.1490   -2.1841 H   0  0  0  0  0  0  0  0  0  0  0  0
    3.0646   -0.3308   -2.7674 N   0  0  0  0  0  0  0  0  0  0  0  0
    4.0973   -0.6293   -3.0190 N   0  0  0  0  0  0  0  0  0  0  0  0
   -2.8420    0.7880    1.2923 H   0  0  0  0  0  0  0  0  0  0  0  0
   -0.8173    1.2011    2.7169 H   0  0  0  0  0  0  0  0  0  0  0  0
    2.2841    1.0358    1.9668 H   0  0  0  0  0  0  0  0  0  0  0  0
    4.2393    0.8925    0.9508 O   0  0  0  0  0  0  0  0  0  0  0  0
    4.1846    1.1807    2.1315 N   0  0  0  0  0  0  0  0  0  0  0  0
    5.0813    1.4204    2.8997 O   0  0  0  0  0  0  0  0  0  0  0  0
    2.9155    1.2498    2.7005 O   0  0  0  0  0  0  0  0  0  0  0  0
  1  6  1  0  0  0  0
  2  1  2  0  0  0  0
  2  3  1  0  0  0  0
  3  4  2  0  0  0  0
  4  5  1  0  0  0  0
  5 12  1  0  0  0  0
  6 11  1  0  0  0  0
  6  5  2  0  0  0  0
  7  1  1  0  0  0  0
  8  2  1  0  0  0  0
 10  9  3  0  0  0  0
 13 17  1  0  0  0  0
 14 15  2  0  0  0  0
 15 17  1  0  0  0  0
 15 16  2  0  0  0  0
M  RAD  2   3   2   4   2
M  END
