Coordinates from ORCA-job Ph-N2-NO3-B3LYPG-aug-cc-pVDZ-scan-d09-49-n400
 OpenBabel10311713213D

 17 15  0  0  0  0  0  0  0  0999 V2000
   -1.6109    0.2954   -0.4853 C   0  0  0  0  0  0  0  0  0  0  0  0
   -0.2918    0.1848   -0.9971 C   0  0  0  0  0  0  0  0  0  0  0  0
    0.5632    0.4971    0.0286 C   0  0  0  0  0  0  0  0  0  0  0  0
    0.4407    0.8354    1.2347 C   0  0  0  0  0  0  0  0  0  0  0  0
   -0.8544    0.9545    1.7738 C   0  0  0  0  0  0  0  0  0  0  0  0
   -1.8772    0.6656    0.8470 C   0  0  0  0  0  0  0  0  0  0  0  0
   -2.4416    0.0830   -1.1608 H   0  0  0  0  0  0  0  0  0  0  0  0
   -0.0611   -0.0992   -2.0199 H   0  0  0  0  0  0  0  0  0  0  0  0
    3.0423   -0.6323   -3.5895 N   0  0  0  0  0  0  0  0  0  0  0  0
    4.0320   -0.8815   -4.0109 N   0  0  0  0  0  0  0  0  0  0  0  0
   -2.9163    0.7314    1.1744 H   0  0  0  0  0  0  0  0  0  0  0  0
   -1.0728    1.2398    2.8020 H   0  0  0  0  0  0  0  0  0  0  0  0
    2.2232    1.1531    2.2266 H   0  0  0  0  0  0  0  0  0  0  0  0
    4.1310    0.8867    1.1555 O   0  0  0  0  0  0  0  0  0  0  0  0
    4.1301    1.2243    2.3246 N   0  0  0  0  0  0  0  0  0  0  0  0
    5.0619    1.4559    3.0520 O   0  0  0  0  0  0  0  0  0  0  0  0
    2.8843    1.3711    2.9315 O   0  0  0  0  0  0  0  0  0  0  0  0
  1  6  1  0  0  0  0
  2  1  2  0  0  0  0
  2  3  1  0  0  0  0
  3  4  2  0  0  0  0
  4  5  1  0  0  0  0
  5 12  1  0  0  0  0
  6 11  1  0  0  0  0
  6  5  2  0  0  0  0
  7  1  1  0  0  0  0
  8  2  1  0  0  0  0
 10  9  3  0  0  0  0
 13 17  1  0  0  0  0
 14 15  2  0  0  0  0
 15 17  1  0  0  0  0
 15 16  2  0  0  0  0
M  RAD  2   3   2   4   2
M  END
