Coordinates from ORCA-job Ph-N2-NO3-B3LYPG-aug-cc-pVDZ-scan-d09-49-n400
 OpenBabel10311713213D

 17 15  0  0  0  0  0  0  0  0999 V2000
   -1.7399    0.3153   -0.5309 C   0  0  0  0  0  0  0  0  0  0  0  0
   -0.5141    0.1259   -1.2207 C   0  0  0  0  0  0  0  0  0  0  0  0
    0.4888    0.3562   -0.3175 C   0  0  0  0  0  0  0  0  0  0  0  0
    0.5757    0.6779    0.8983 C   0  0  0  0  0  0  0  0  0  0  0  0
   -0.6308    0.8704    1.6055 C   0  0  0  0  0  0  0  0  0  0  0  0
   -1.7910    0.6736    0.8298 C   0  0  0  0  0  0  0  0  0  0  0  0
   -2.6683    0.1747   -1.0874 H   0  0  0  0  0  0  0  0  0  0  0  0
   -0.4408   -0.1499   -2.2684 H   0  0  0  0  0  0  0  0  0  0  0  0
    2.8515   -0.2527   -2.3503 N   0  0  0  0  0  0  0  0  0  0  0  0
    3.9115   -0.5043   -2.5278 N   0  0  0  0  0  0  0  0  0  0  0  0
   -2.7668    0.8044    1.3007 H   0  0  0  0  0  0  0  0  0  0  0  0
   -0.6852    1.1486    2.6574 H   0  0  0  0  0  0  0  0  0  0  0  0
    2.3075    0.9588    1.8873 H   0  0  0  0  0  0  0  0  0  0  0  0
    4.2700    0.9724    0.8690 O   0  0  0  0  0  0  0  0  0  0  0  0
    4.2000    1.1929    2.0638 N   0  0  0  0  0  0  0  0  0  0  0  0
    5.0839    1.4394    2.8450 O   0  0  0  0  0  0  0  0  0  0  0  0
    2.9307    1.1615    2.6335 O   0  0  0  0  0  0  0  0  0  0  0  0
  1  6  1  0  0  0  0
  2  1  2  0  0  0  0
  2  3  1  0  0  0  0
  3  4  2  0  0  0  0
  4  5  1  0  0  0  0
  5 12  1  0  0  0  0
  6 11  1  0  0  0  0
  6  5  2  0  0  0  0
  7  1  1  0  0  0  0
  8  2  1  0  0  0  0
 10  9  3  0  0  0  0
 13 17  1  0  0  0  0
 14 15  2  0  0  0  0
 15 17  1  0  0  0  0
 15 16  2  0  0  0  0
M  RAD  2   3   2   4   2
M  END
