Coordinates from ORCA-job Ph-N2-NO3-B3LYPG-aug-cc-pVDZ-scan-d09-49-n400
 OpenBabel10311713213D

 17 15  0  0  0  0  0  0  0  0999 V2000
   -1.7172    0.3292   -0.5616 C   0  0  0  0  0  0  0  0  0  0  0  0
   -0.5131    0.1155   -1.2808 C   0  0  0  0  0  0  0  0  0  0  0  0
    0.5142    0.3106   -0.3999 C   0  0  0  0  0  0  0  0  0  0  0  0
    0.6544    0.6183    0.8165 C   0  0  0  0  0  0  0  0  0  0  0  0
   -0.5381    0.8325    1.5466 C   0  0  0  0  0  0  0  0  0  0  0  0
   -1.7239    0.6749    0.8029 C   0  0  0  0  0  0  0  0  0  0  0  0
   -2.6617    0.2181   -1.0973 H   0  0  0  0  0  0  0  0  0  0  0  0
   -0.4703   -0.1517   -2.3324 H   0  0  0  0  0  0  0  0  0  0  0  0
    2.6183   -0.2195   -2.0805 N   0  0  0  0  0  0  0  0  0  0  0  0
    3.6933   -0.4346   -2.2106 N   0  0  0  0  0  0  0  0  0  0  0  0
   -2.6830    0.8269    1.3009 H   0  0  0  0  0  0  0  0  0  0  0  0
   -0.5592    1.1021    2.6023 H   0  0  0  0  0  0  0  0  0  0  0  0
    2.3149    0.8824    1.8486 H   0  0  0  0  0  0  0  0  0  0  0  0
    4.2738    1.0795    0.8389 O   0  0  0  0  0  0  0  0  0  0  0  0
    4.1908    1.2249    2.0450 N   0  0  0  0  0  0  0  0  0  0  0  0
    5.0596    1.4824    2.8401 O   0  0  0  0  0  0  0  0  0  0  0  0
    2.9299    1.0738    2.6085 O   0  0  0  0  0  0  0  0  0  0  0  0
  1  6  1  0  0  0  0
  2  1  2  0  0  0  0
  2  3  1  0  0  0  0
  3  4  2  0  0  0  0
  4  5  1  0  0  0  0
  5 12  1  0  0  0  0
  6 11  1  0  0  0  0
  6  5  2  0  0  0  0
  7  1  1  0  0  0  0
  8  2  1  0  0  0  0
 10  9  3  0  0  0  0
 13 17  1  0  0  0  0
 14 15  2  0  0  0  0
 15 17  1  0  0  0  0
 15 16  2  0  0  0  0
M  RAD  2   3   2   4   2
M  END
