Coordinates from ORCA-job Ph-N2-NO3-B3LYPG-aug-cc-pVDZ-scan-d09-49-n400
 OpenBabel10311713213D

 17 15  0  0  0  0  0  0  0  0999 V2000
   -1.6621    0.2963   -0.4826 C   0  0  0  0  0  0  0  0  0  0  0  0
   -0.3553    0.1758   -1.0233 C   0  0  0  0  0  0  0  0  0  0  0  0
    0.5221    0.4819   -0.0151 C   0  0  0  0  0  0  0  0  0  0  0  0
    0.4316    0.8216    1.1934 C   0  0  0  0  0  0  0  0  0  0  0  0
   -0.8514    0.9505    1.7595 C   0  0  0  0  0  0  0  0  0  0  0  0
   -1.8962    0.6689    0.8552 C   0  0  0  0  0  0  0  0  0  0  0  0
   -2.5091    0.0903   -1.1396 H   0  0  0  0  0  0  0  0  0  0  0  0
   -0.1458   -0.1094   -2.0502 H   0  0  0  0  0  0  0  0  0  0  0  0
    3.1224   -0.5043   -3.2268 N   0  0  0  0  0  0  0  0  0  0  0  0
    4.1506   -0.7434   -3.5504 N   0  0  0  0  0  0  0  0  0  0  0  0
   -2.9275    0.7427    1.2050 H   0  0  0  0  0  0  0  0  0  0  0  0
   -1.0456    1.2377    2.7920 H   0  0  0  0  0  0  0  0  0  0  0  0
    2.2430    1.1185    2.1331 H   0  0  0  0  0  0  0  0  0  0  0  0
    4.1114    0.8428    0.9950 O   0  0  0  0  0  0  0  0  0  0  0  0
    4.1530    1.1745    2.1652 N   0  0  0  0  0  0  0  0  0  0  0  0
    5.1113    1.3935    2.8615 O   0  0  0  0  0  0  0  0  0  0  0  0
    2.9305    1.3272    2.8155 O   0  0  0  0  0  0  0  0  0  0  0  0
  1  6  1  0  0  0  0
  2  1  2  0  0  0  0
  2  3  1  0  0  0  0
  3  4  2  0  0  0  0
  4  5  1  0  0  0  0
  5 12  1  0  0  0  0
  6 11  1  0  0  0  0
  6  5  2  0  0  0  0
  7  1  1  0  0  0  0
  8  2  1  0  0  0  0
 10  9  3  0  0  0  0
 13 17  1  0  0  0  0
 14 15  2  0  0  0  0
 15 17  1  0  0  0  0
 15 16  2  0  0  0  0
M  RAD  2   3   2   4   2
M  END
