Coordinates from ORCA-job Ph-N2-NO3-B3LYPG-aug-cc-pVDZ-scan-d09-49-n400
 OpenBabel10311713213D

 17 17  0  0  1  0  0  0  0  0999 V2000
   -0.7902   -0.3034   -0.2696 C   0  0  0  0  0  0  0  0  0  0  0  0
    0.2194    0.0358   -1.0924 C   0  0  0  0  0  0  0  0  0  0  0  0
    1.2762    1.0246   -0.7078 C   0  0  0  0  0  0  0  0  0  0  0  0
    1.2089    1.5599    0.7789 C   0  0  1  0  0  0  0  0  0  0  0  0
    0.0243    1.1002    1.5647 C   0  0  0  0  0  0  0  0  0  0  0  0
   -0.8992    0.2568    1.0692 C   0  0  0  0  0  0  0  0  0  0  0  0
   -1.5367   -1.0234   -0.6040 H   0  0  0  0  0  0  0  0  0  0  0  0
    0.3318   -0.3878   -2.0909 H   0  0  0  0  0  0  0  0  0  0  0  0
    1.9574    1.3428   -1.2886 N   0  0  0  0  0  0  0  0  0  0  0  0
    2.8088    1.7504   -1.9957 N   0  0  0  0  0  0  0  0  0  0  0  0
   -1.7545   -0.0256    1.6838 H   0  0  0  0  0  0  0  0  0  0  0  0
   -0.0632    1.5133    2.5703 H   0  0  0  0  0  0  0  0  0  0  0  0
    1.2373    2.6589    0.7139 H   0  0  0  0  0  0  0  0  0  0  0  0
    2.4807    1.3678    1.4793 O   0  0  0  0  0  0  0  0  0  0  0  0
    2.8586    0.0129    1.7559 N   0  0  0  0  0  0  0  0  0  0  0  0
    3.8094   -0.0526    2.4877 O   0  0  0  0  0  0  0  0  0  0  0  0
    2.2137   -0.8656    1.2324 O   0  0  0  0  0  0  0  0  0  0  0  0
  1  6  1  0  0  0  0
  2  3  2  0  0  0  0
  2  1  1  0  0  0  0
  3  4  1  0  0  0  0
  4 13  1  6  0  0  0
  4 14  1  0  0  0  0
  4  5  1  0  0  0  0
  5 12  1  0  0  0  0
  6  5  2  0  0  0  0
  6 11  1  0  0  0  0
  7  1  1  0  0  0  0
  8  2  1  0  0  0  0
  9  3  1  0  0  0  0
 10  9  1  0  0  0  0
 14 15  1  0  0  0  0
 15 16  2  0  0  0  0
 17 15  2  0  0  0  0
M  RAD  3   1   2   9   2  10   3
M  END
