Coordinates from ORCA-job Ph-N2-NO3-B3LYPG-aug-cc-pVDZ-scan-d09-49-n400
 OpenBabel10311713213D

 17 15  0  0  0  0  0  0  0  0999 V2000
   -1.5876    0.2944   -0.4891 C   0  0  0  0  0  0  0  0  0  0  0  0
   -0.2645    0.1858   -0.9910 C   0  0  0  0  0  0  0  0  0  0  0  0
    0.5821    0.5000    0.0421 C   0  0  0  0  0  0  0  0  0  0  0  0
    0.4471    0.8378    1.2467 C   0  0  0  0  0  0  0  0  0  0  0  0
   -0.8517    0.9550    1.7763 C   0  0  0  0  0  0  0  0  0  0  0  0
   -1.8660    0.6643    0.8408 C   0  0  0  0  0  0  0  0  0  0  0  0
   -2.4125    0.0805   -1.1713 H   0  0  0  0  0  0  0  0  0  0  0  0
   -0.0276   -0.0984   -2.0123 H   0  0  0  0  0  0  0  0  0  0  0  0
    2.9948   -0.6764   -3.7173 N   0  0  0  0  0  0  0  0  0  0  0  0
    3.9665   -0.9318   -4.1752 N   0  0  0  0  0  0  0  0  0  0  0  0
   -2.9079    0.7281    1.1594 H   0  0  0  0  0  0  0  0  0  0  0  0
   -1.0789    1.2400    2.8026 H   0  0  0  0  0  0  0  0  0  0  0  0
    2.2174    1.1639    2.2610 H   0  0  0  0  0  0  0  0  0  0  0  0
    4.1426    0.9096    1.2192 O   0  0  0  0  0  0  0  0  0  0  0  0
    4.1219    1.2460    2.3884 N   0  0  0  0  0  0  0  0  0  0  0  0
    5.0410    1.4813    3.1306 O   0  0  0  0  0  0  0  0  0  0  0  0
    2.8660    1.3848    2.9763 O   0  0  0  0  0  0  0  0  0  0  0  0
  1  6  1  0  0  0  0
  2  1  2  0  0  0  0
  2  3  1  0  0  0  0
  3  4  2  0  0  0  0
  4  5  1  0  0  0  0
  5 12  1  0  0  0  0
  6 11  1  0  0  0  0
  6  5  2  0  0  0  0
  7  1  1  0  0  0  0
  8  2  1  0  0  0  0
 10  9  3  0  0  0  0
 13 17  1  0  0  0  0
 14 15  2  0  0  0  0
 15 17  1  0  0  0  0
 15 16  2  0  0  0  0
M  RAD  2   3   2   4   2
M  END
