Coordinates from ORCA-job Ph-N2-NO3-B3LYPG-aug-cc-pVDZ-scan-d09-49-n400
 OpenBabel10311713213D

 17 15  0  0  0  0  0  0  0  0999 V2000
   -1.7415    0.3039   -0.4966 C   0  0  0  0  0  0  0  0  0  0  0  0
   -0.4900    0.1363   -1.1448 C   0  0  0  0  0  0  0  0  0  0  0  0
    0.4795    0.4015   -0.2133 C   0  0  0  0  0  0  0  0  0  0  0  0
    0.5084    0.7381    0.9994 C   0  0  0  0  0  0  0  0  0  0  0  0
   -0.7190    0.9117    1.6699 C   0  0  0  0  0  0  0  0  0  0  0  0
   -1.8470    0.6770    0.8571 C   0  0  0  0  0  0  0  0  0  0  0  0
   -2.6478    0.1344   -1.0810 H   0  0  0  0  0  0  0  0  0  0  0  0
   -0.3788   -0.1498   -2.1865 H   0  0  0  0  0  0  0  0  0  0  0  0
    3.0648   -0.3271   -2.7537 N   0  0  0  0  0  0  0  0  0  0  0  0
    4.0987   -0.6238   -3.0022 N   0  0  0  0  0  0  0  0  0  0  0  0
   -2.8411    0.7890    1.2934 H   0  0  0  0  0  0  0  0  0  0  0  0
   -0.8142    1.2005    2.7159 H   0  0  0  0  0  0  0  0  0  0  0  0
    2.2845    1.0336    1.9633 H   0  0  0  0  0  0  0  0  0  0  0  0
    4.2418    0.8930    0.9462 O   0  0  0  0  0  0  0  0  0  0  0  0
    4.1859    1.1799    2.1274 N   0  0  0  0  0  0  0  0  0  0  0  0
    5.0821    1.4196    2.8961 O   0  0  0  0  0  0  0  0  0  0  0  0
    2.9165    1.2473    2.6967 O   0  0  0  0  0  0  0  0  0  0  0  0
  1  6  1  0  0  0  0
  2  1  2  0  0  0  0
  2  3  1  0  0  0  0
  3  4  2  0  0  0  0
  4  5  1  0  0  0  0
  5 12  1  0  0  0  0
  6 11  1  0  0  0  0
  6  5  2  0  0  0  0
  7  1  1  0  0  0  0
  8  2  1  0  0  0  0
 10  9  3  0  0  0  0
 13 17  1  0  0  0  0
 14 15  2  0  0  0  0
 15 17  1  0  0  0  0
 15 16  2  0  0  0  0
M  RAD  2   3   2   4   2
M  END
