Coordinates from ORCA-job Ph-N2-NO3-B3LYPG-aug-cc-pVDZ-scan-d09-49-n400
 OpenBabel10311713213D

 17 17  0  0  1  0  0  0  0  0999 V2000
   -0.8083   -0.2837   -0.2819 C   0  0  0  0  0  0  0  0  0  0  0  0
    0.2022    0.0472   -1.1042 C   0  0  0  0  0  0  0  0  0  0  0  0
    1.2949    1.0116   -0.7188 C   0  0  0  0  0  0  0  0  0  0  0  0
    1.2036    1.5555    0.7855 C   0  0  1  0  0  0  0  0  0  0  0  0
    0.0278    1.0794    1.5732 C   0  0  0  0  0  0  0  0  0  0  0  0
   -0.9045    0.2526    1.0685 C   0  0  0  0  0  0  0  0  0  0  0  0
   -1.5684   -0.9858   -0.6245 H   0  0  0  0  0  0  0  0  0  0  0  0
    0.3071   -0.3639   -2.1089 H   0  0  0  0  0  0  0  0  0  0  0  0
    1.9588    1.2970   -1.2552 N   0  0  0  0  0  0  0  0  0  0  0  0
    2.8381    1.6893   -1.9521 N   0  0  0  0  0  0  0  0  0  0  0  0
   -1.7567   -0.0371    1.6837 H   0  0  0  0  0  0  0  0  0  0  0  0
   -0.0496    1.4724    2.5880 H   0  0  0  0  0  0  0  0  0  0  0  0
    1.2084    2.6535    0.6988 H   0  0  0  0  0  0  0  0  0  0  0  0
    2.4757    1.3920    1.4754 O   0  0  0  0  0  0  0  0  0  0  0  0
    2.8776    0.0403    1.7515 N   0  0  0  0  0  0  0  0  0  0  0  0
    3.8272   -0.0089    2.4848 O   0  0  0  0  0  0  0  0  0  0  0  0
    2.2488   -0.8464    1.2232 O   0  0  0  0  0  0  0  0  0  0  0  0
  1  6  2  0  0  0  0
  2  3  2  0  0  0  0
  2  1  1  0  0  0  0
  3  4  1  0  0  0  0
  4 13  1  6  0  0  0
  4 14  1  0  0  0  0
  4  5  1  0  0  0  0
  5 12  1  0  0  0  0
  6  5  1  0  0  0  0
  6 11  1  0  0  0  0
  7  1  1  0  0  0  0
  8  2  1  0  0  0  0
  9  3  1  0  0  0  0
 10  9  1  0  0  0  0
 14 15  1  0  0  0  0
 15 16  2  0  0  0  0
 17 15  2  0  0  0  0
M  RAD  3   5   2   9   2  10   3
M  END
