Coordinates from ORCA-job Ph-N2-NO3-B3LYPG-aug-cc-pVDZ-scan-d09-49-n400
 OpenBabel10311713213D

 17 15  0  0  0  0  0  0  0  0999 V2000
   -1.7071    0.3355   -0.5714 C   0  0  0  0  0  0  0  0  0  0  0  0
   -0.5128    0.1115   -1.3031 C   0  0  0  0  0  0  0  0  0  0  0  0
    0.5243    0.2923   -0.4326 C   0  0  0  0  0  0  0  0  0  0  0  0
    0.6923    0.5939    0.7840 C   0  0  0  0  0  0  0  0  0  0  0  0
   -0.4963    0.8173    1.5216 C   0  0  0  0  0  0  0  0  0  0  0  0
   -1.6935    0.6763    0.7942 C   0  0  0  0  0  0  0  0  0  0  0  0
   -2.6583    0.2366   -1.0975 H   0  0  0  0  0  0  0  0  0  0  0  0
   -0.4842   -0.1524   -2.3559 H   0  0  0  0  0  0  0  0  0  0  0  0
    2.5348   -0.2062   -1.9776 N   0  0  0  0  0  0  0  0  0  0  0  0
    3.6150   -0.4061   -2.0874 N   0  0  0  0  0  0  0  0  0  0  0  0
   -2.6444    0.8374    1.3047 H   0  0  0  0  0  0  0  0  0  0  0  0
   -0.5026    1.0835    2.5787 H   0  0  0  0  0  0  0  0  0  0  0  0
    2.3085    0.8526    1.8356 H   0  0  0  0  0  0  0  0  0  0  0  0
    4.2615    1.1167    0.8265 O   0  0  0  0  0  0  0  0  0  0  0  0
    4.1779    1.2351    2.0359 N   0  0  0  0  0  0  0  0  0  0  0  0
    5.0434    1.4990    2.8330 O   0  0  0  0  0  0  0  0  0  0  0  0
    2.9241    1.0421    2.5987 O   0  0  0  0  0  0  0  0  0  0  0  0
  1  6  1  0  0  0  0
  2  1  2  0  0  0  0
  2  3  1  0  0  0  0
  3  4  2  0  0  0  0
  4  5  1  0  0  0  0
  5 12  1  0  0  0  0
  6 11  1  0  0  0  0
  6  5  2  0  0  0  0
  7  1  1  0  0  0  0
  8  2  1  0  0  0  0
 10  9  3  0  0  0  0
 13 17  1  0  0  0  0
 14 15  2  0  0  0  0
 15 17  1  0  0  0  0
 15 16  2  0  0  0  0
M  RAD  2   3   2   4   2
M  END
