Coordinates from ORCA-job Ph-N2-NO3-B3LYPG-aug-cc-pVDZ-scan-d09-49-n400
 OpenBabel10311713213D

 17 17  0  0  1  0  0  0  0  0999 V2000
   -0.7478   -0.3679   -0.2267 C   0  0  0  0  0  0  0  0  0  0  0  0
    0.2535    0.0088   -1.0591 C   0  0  0  0  0  0  0  0  0  0  0  0
    1.1948    1.0343   -0.6470 C   0  0  0  0  0  0  0  0  0  0  0  0
    1.2104    1.5716    0.7669 C   0  0  1  0  0  0  0  0  0  0  0  0
    0.0016    1.1613    1.5420 C   0  0  0  0  0  0  0  0  0  0  0  0
   -0.8864    0.2558    1.0750 C   0  0  0  0  0  0  0  0  0  0  0  0
   -1.4581   -1.1329   -0.5352 H   0  0  0  0  0  0  0  0  0  0  0  0
    0.3767   -0.4303   -2.0488 H   0  0  0  0  0  0  0  0  0  0  0  0
    2.0105    1.5045   -1.4552 N   0  0  0  0  0  0  0  0  0  0  0  0
    2.7707    1.9496   -2.1868 N   0  0  0  0  0  0  0  0  0  0  0  0
   -1.7478   -0.0095    1.6896 H   0  0  0  0  0  0  0  0  0  0  0  0
   -0.1306    1.6338    2.5149 H   0  0  0  0  0  0  0  0  0  0  0  0
    1.3325    2.6641    0.7649 H   0  0  0  0  0  0  0  0  0  0  0  0
    2.4956    1.2863    1.5103 O   0  0  0  0  0  0  0  0  0  0  0  0
    2.8101   -0.0637    1.7887 N   0  0  0  0  0  0  0  0  0  0  0  0
    3.7768   -0.1751    2.5025 O   0  0  0  0  0  0  0  0  0  0  0  0
    2.1202   -0.9257    1.2913 O   0  0  0  0  0  0  0  0  0  0  0  0
  1  6  1  0  0  0  0
  2  3  2  0  0  0  0
  2  1  1  0  0  0  0
  3  4  1  0  0  0  0
  4 13  1  6  0  0  0
  4 14  1  0  0  0  0
  4  5  1  0  0  0  0
  5 12  1  0  0  0  0
  6  5  2  0  0  0  0
  6 11  1  0  0  0  0
  7  1  1  0  0  0  0
  8  2  1  0  0  0  0
  9  3  1  0  0  0  0
 10  9  1  0  0  0  0
 14 15  1  0  0  0  0
 15 16  2  0  0  0  0
 17 15  2  0  0  0  0
M  RAD  3   1   2   9   2  10   3
M  END
