Coordinates from ORCA-job Ph-N2-NO3-B3LYPG-aug-cc-pVDZ-scan-d09-49-n400
 OpenBabel10311713213D

 17 16  0  0  0  0  0  0  0  0999 V2000
   -1.5115    0.0730   -0.6121 C   0  0  0  0  0  0  0  0  0  0  0  0
   -0.1700    0.0945   -1.0190 C   0  0  0  0  0  0  0  0  0  0  0  0
    0.7119    0.5445   -0.0585 C   0  0  0  0  0  0  0  0  0  0  0  0
    0.4574    0.9648    1.2250 C   0  0  0  0  0  0  0  0  0  0  0  0
   -0.8985    0.9297    1.5852 C   0  0  0  0  0  0  0  0  0  0  0  0
   -1.8673    0.4879    0.6770 C   0  0  0  0  0  0  0  0  0  0  0  0
   -2.2717   -0.2704   -1.3132 H   0  0  0  0  0  0  0  0  0  0  0  0
    0.1467   -0.2177   -2.0108 H   0  0  0  0  0  0  0  0  0  0  0  0
    2.3685    0.5849   -0.5626 N   0  0  0  0  0  0  0  0  0  0  0  0
    3.0399    0.5455   -1.4551 N   0  0  0  0  0  0  0  0  0  0  0  0
   -2.9147    0.4644    0.9770 H   0  0  0  0  0  0  0  0  0  0  0  0
   -1.1855    1.2479    2.5869 H   0  0  0  0  0  0  0  0  0  0  0  0
    1.2564    1.2827    1.8883 H   0  0  0  0  0  0  0  0  0  0  0  0
    5.1088    0.8415    0.2152 O   0  0  0  0  0  0  0  0  0  0  0  0
    4.5912    0.8122    1.3433 N   0  0  0  0  0  0  0  0  0  0  0  0
    5.2267    0.8742    2.3910 O   0  0  0  0  0  0  0  0  0  0  0  0
    3.2943    0.7056    1.4297 O   0  0  0  0  0  0  0  0  0  0  0  0
  1  6  1  0  0  0  0
  2  1  2  0  0  0  0
  2  3  1  0  0  0  0
  3  4  2  0  0  0  0
  4  5  1  0  0  0  0
  4 13  1  0  0  0  0
  5 12  1  0  0  0  0
  6 11  1  0  0  0  0
  6  5  2  0  0  0  0
  7  1  1  0  0  0  0
  8  2  1  0  0  0  0
  9  3  1  0  0  0  0
 10  9  2  0  0  0  0
 14 15  2  0  0  0  0
 15 17  2  0  0  0  0
 15 16  1  0  0  0  0
M  RAD  2  10   2  16   2
M  END
