Coordinates from ORCA-job Ph-N2-NO3-B3LYPG-aug-cc-pVDZ-scan-d09-49-n400
 OpenBabel10311713213D

 17 15  0  0  0  0  0  0  0  0999 V2000
   -1.6127    0.1181   -0.6101 C   0  0  0  0  0  0  0  0  0  0  0  0
   -0.2785    0.0952   -1.0670 C   0  0  0  0  0  0  0  0  0  0  0  0
    0.5948    0.4904   -0.0974 C   0  0  0  0  0  0  0  0  0  0  0  0
    0.4531    0.8896    1.1951 C   0  0  0  0  0  0  0  0  0  0  0  0
   -0.9009    0.8918    1.5915 C   0  0  0  0  0  0  0  0  0  0  0  0
   -1.9105    0.5113    0.6996 C   0  0  0  0  0  0  0  0  0  0  0  0
   -2.4040   -0.1766   -1.2997 H   0  0  0  0  0  0  0  0  0  0  0  0
    0.0041   -0.2019   -2.0734 H   0  0  0  0  0  0  0  0  0  0  0  0
    2.5226    0.4887   -0.6760 N   0  0  0  0  0  0  0  0  0  0  0  0
    3.1926    0.4037   -1.5590 N   0  0  0  0  0  0  0  0  0  0  0  0
   -2.9485    0.5198    1.0307 H   0  0  0  0  0  0  0  0  0  0  0  0
   -1.1418    1.1938    2.6108 H   0  0  0  0  0  0  0  0  0  0  0  0
    1.2926    1.1615    1.8312 H   0  0  0  0  0  0  0  0  0  0  0  0
    5.2498    0.9555    0.3352 O   0  0  0  0  0  0  0  0  0  0  0  0
    4.6625    0.9010    1.4256 N   0  0  0  0  0  0  0  0  0  0  0  0
    5.2292    1.0098    2.5137 O   0  0  0  0  0  0  0  0  0  0  0  0
    3.3784    0.7134    1.4362 O   0  0  0  0  0  0  0  0  0  0  0  0
  1  6  1  0  0  0  0
  2  1  2  0  0  0  0
  2  3  1  0  0  0  0
  3  4  2  0  0  0  0
  4  5  1  0  0  0  0
  4 13  1  0  0  0  0
  5 12  1  0  0  0  0
  6 11  1  0  0  0  0
  6  5  2  0  0  0  0
  7  1  1  0  0  0  0
  8  2  1  0  0  0  0
 10  9  3  0  0  0  0
 14 15  2  0  0  0  0
 15 17  2  0  0  0  0
 15 16  1  0  0  0  0
M  RAD  2   3   2  16   2
M  END
