Coordinates from ORCA-job Ph-N2-NO3-B3LYPG-aug-cc-pVDZ-scan-d09-49-n400
 OpenBabel10311713213D

 17 15  0  0  0  0  0  0  0  0999 V2000
   -1.7410    0.3145   -0.5287 C   0  0  0  0  0  0  0  0  0  0  0  0
   -0.5138    0.1265   -1.2164 C   0  0  0  0  0  0  0  0  0  0  0  0
    0.4873    0.3593   -0.3116 C   0  0  0  0  0  0  0  0  0  0  0  0
    0.5709    0.6819    0.9041 C   0  0  0  0  0  0  0  0  0  0  0  0
   -0.6368    0.8729    1.6094 C   0  0  0  0  0  0  0  0  0  0  0  0
   -1.7952    0.6737    0.8317 C   0  0  0  0  0  0  0  0  0  0  0  0
   -2.6683    0.1720   -1.0867 H   0  0  0  0  0  0  0  0  0  0  0  0
   -0.4384   -0.1498   -2.2637 H   0  0  0  0  0  0  0  0  0  0  0  0
    2.8675   -0.2551   -2.3693 N   0  0  0  0  0  0  0  0  0  0  0  0
    3.9265   -0.5090   -2.5502 N   0  0  0  0  0  0  0  0  0  0  0  0
   -2.7721    0.8031    1.3008 H   0  0  0  0  0  0  0  0  0  0  0  0
   -0.6935    1.1518    2.6610 H   0  0  0  0  0  0  0  0  0  0  0  0
    2.3062    0.9640    1.8904 H   0  0  0  0  0  0  0  0  0  0  0  0
    4.2682    0.9646    0.8711 O   0  0  0  0  0  0  0  0  0  0  0  0
    4.1997    1.1907    2.0650 N   0  0  0  0  0  0  0  0  0  0  0  0
    5.0849    1.4366    2.8448 O   0  0  0  0  0  0  0  0  0  0  0  0
    2.9304    1.1676    2.6353 O   0  0  0  0  0  0  0  0  0  0  0  0
  1  6  1  0  0  0  0
  2  1  2  0  0  0  0
  2  3  1  0  0  0  0
  3  4  2  0  0  0  0
  4  5  1  0  0  0  0
  5 12  1  0  0  0  0
  6 11  1  0  0  0  0
  6  5  2  0  0  0  0
  7  1  1  0  0  0  0
  8  2  1  0  0  0  0
 10  9  3  0  0  0  0
 13 17  1  0  0  0  0
 14 15  2  0  0  0  0
 15 17  1  0  0  0  0
 15 16  2  0  0  0  0
M  RAD  2   3   2   4   2
M  END
