Coordinates from ORCA-job Ph-N2-NO3-B3LYPG-aug-cc-pVDZ-scan-d09-49-n400
 OpenBabel10311713213D

 17 15  0  0  0  0  0  0  0  0999 V2000
   -1.7439    0.3123   -0.5228 C   0  0  0  0  0  0  0  0  0  0  0  0
   -0.5128    0.1282   -1.2047 C   0  0  0  0  0  0  0  0  0  0  0  0
    0.4834    0.3670   -0.2958 C   0  0  0  0  0  0  0  0  0  0  0  0
    0.5585    0.6922    0.9195 C   0  0  0  0  0  0  0  0  0  0  0  0
   -0.6522    0.8797    1.6197 C   0  0  0  0  0  0  0  0  0  0  0  0
   -1.8060    0.6739    0.8366 C   0  0  0  0  0  0  0  0  0  0  0  0
   -2.6681    0.1648   -1.0846 H   0  0  0  0  0  0  0  0  0  0  0  0
   -0.4317   -0.1499   -2.2512 H   0  0  0  0  0  0  0  0  0  0  0  0
    2.9092   -0.2621   -2.4213 N   0  0  0  0  0  0  0  0  0  0  0  0
    3.9650   -0.5220   -2.6117 N   0  0  0  0  0  0  0  0  0  0  0  0
   -2.7856    0.8000    1.3008 H   0  0  0  0  0  0  0  0  0  0  0  0
   -0.7149    1.1603    2.6705 H   0  0  0  0  0  0  0  0  0  0  0  0
    2.3029    0.9772    1.8990 H   0  0  0  0  0  0  0  0  0  0  0  0
    4.2635    0.9452    0.8778 O   0  0  0  0  0  0  0  0  0  0  0  0
    4.1987    1.1854    2.0691 N   0  0  0  0  0  0  0  0  0  0  0  0
    5.0873    1.4298    2.8455 O   0  0  0  0  0  0  0  0  0  0  0  0
    2.9296    1.1832    2.6408 O   0  0  0  0  0  0  0  0  0  0  0  0
  1  6  1  0  0  0  0
  2  1  2  0  0  0  0
  2  3  1  0  0  0  0
  3  4  2  0  0  0  0
  4  5  1  0  0  0  0
  5 12  1  0  0  0  0
  6 11  1  0  0  0  0
  6  5  2  0  0  0  0
  7  1  1  0  0  0  0
  8  2  1  0  0  0  0
 10  9  3  0  0  0  0
 13 17  1  0  0  0  0
 14 15  2  0  0  0  0
 15 17  1  0  0  0  0
 15 16  2  0  0  0  0
M  RAD  2   3   2   4   2
M  END
