Coordinates from ORCA-job Ph-N2-NO3-B3LYPG-aug-cc-pVDZ-scan-d09-49-n400
 OpenBabel10311713213D

 17 17  0  0  1  0  0  0  0  0999 V2000
   -0.7493   -0.3578   -0.2349 C   0  0  0  0  0  0  0  0  0  0  0  0
    0.2533    0.0119   -1.0652 C   0  0  0  0  0  0  0  0  0  0  0  0
    1.2125    1.0375   -0.6625 C   0  0  0  0  0  0  0  0  0  0  0  0
    1.2152    1.5693    0.7657 C   0  0  1  0  0  0  0  0  0  0  0  0
    0.0095    1.1531    1.5432 C   0  0  0  0  0  0  0  0  0  0  0  0
   -0.8848    0.2580    1.0723 C   0  0  0  0  0  0  0  0  0  0  0  0
   -1.4638   -1.1180   -0.5465 H   0  0  0  0  0  0  0  0  0  0  0  0
    0.3757   -0.4284   -2.0546 H   0  0  0  0  0  0  0  0  0  0  0  0
    1.9872    1.4792   -1.4209 N   0  0  0  0  0  0  0  0  0  0  0  0
    2.7557    1.9253   -2.1522 N   0  0  0  0  0  0  0  0  0  0  0  0
   -1.7461   -0.0085    1.6863 H   0  0  0  0  0  0  0  0  0  0  0  0
   -0.1151    1.6177    2.5211 H   0  0  0  0  0  0  0  0  0  0  0  0
    1.3222    2.6638    0.7559 H   0  0  0  0  0  0  0  0  0  0  0  0
    2.4956    1.2966    1.5013 O   0  0  0  0  0  0  0  0  0  0  0  0
    2.8134   -0.0554    1.7856 N   0  0  0  0  0  0  0  0  0  0  0  0
    3.7773   -0.1604    2.5023 O   0  0  0  0  0  0  0  0  0  0  0  0
    2.1243   -0.9187    1.2904 O   0  0  0  0  0  0  0  0  0  0  0  0
  1  6  1  0  0  0  0
  2  3  2  0  0  0  0
  2  1  1  0  0  0  0
  3  4  1  0  0  0  0
  4 13  1  6  0  0  0
  4 14  1  0  0  0  0
  4  5  1  0  0  0  0
  5 12  1  0  0  0  0
  6  5  2  0  0  0  0
  6 11  1  0  0  0  0
  7  1  1  0  0  0  0
  8  2  1  0  0  0  0
  9  3  1  0  0  0  0
 10  9  1  0  0  0  0
 14 15  1  0  0  0  0
 15 16  2  0  0  0  0
 17 15  2  0  0  0  0
M  RAD  3   1   2   9   2  10   3
M  END
