Coordinates from ORCA-job Ph-N2-NO3-B3LYPG-aug-cc-pVDZ-scan-d09-49-n400
 OpenBabel10311713213D

 17 17  0  0  1  0  0  0  0  0999 V2000
   -0.7538   -0.4098   -0.1972 C   0  0  0  0  0  0  0  0  0  0  0  0
    0.2328    0.0094   -1.0514 C   0  0  0  0  0  0  0  0  0  0  0  0
    1.0864    1.0310   -0.5809 C   0  0  1  0  0  0  0  0  0  0  0  0
    1.1749    1.5930    0.7605 C   0  0  1  0  0  0  0  0  0  0  0  0
   -0.0316    1.1926    1.5257 C   0  0  0  0  0  0  0  0  0  0  0  0
   -0.8910    0.2326    1.0820 C   0  0  0  0  0  0  0  0  0  0  0  0
   -1.4383   -1.2020   -0.4927 H   0  0  0  0  0  0  0  0  0  0  0  0
    0.3640   -0.4118   -2.0461 H   0  0  0  0  0  0  0  0  0  0  0  0
    2.1040    1.6159   -1.6110 N   0  0  0  0  0  0  0  0  0  0  0  0
    2.8559    2.0371   -2.3312 N   0  0  0  0  0  0  0  0  0  0  0  0
   -1.7404   -0.0390    1.7107 H   0  0  0  0  0  0  0  0  0  0  0  0
   -0.1950    1.6946    2.4784 H   0  0  0  0  0  0  0  0  0  0  0  0
    1.3865    2.6672    0.8006 H   0  0  0  0  0  0  0  0  0  0  0  0
    2.5297    1.2377    1.5460 O   0  0  0  0  0  0  0  0  0  0  0  0
    2.8143   -0.0920    1.8210 N   0  0  0  0  0  0  0  0  0  0  0  0
    3.7955   -0.2414    2.5179 O   0  0  0  0  0  0  0  0  0  0  0  0
    2.0889   -0.9500    1.3550 O   0  0  0  0  0  0  0  0  0  0  0  0
  1  6  1  0  0  0  0
  2  3  1  0  0  0  0
  2  1  2  0  0  0  0
  3  9  1  1  0  0  0
  3  4  1  0  0  0  0
  4 13  1  6  0  0  0
  4  5  1  0  0  0  0
  4 14  1  0  0  0  0
  5 12  1  0  0  0  0
  6  5  2  0  0  0  0
  6 11  1  0  0  0  0
  7  1  1  0  0  0  0
  8  2  1  0  0  0  0
 10  9  1  0  0  0  0
 14 15  1  0  0  0  0
 15 16  2  0  0  0  0
 17 15  2  0  0  0  0
M  RAD  3   3   2   9   2  10   3
M  END
