Coordinates from ORCA-job Ph-N2-NO3-B3LYPG-aug-cc-pVDZ-scan-d09-49-n400
 OpenBabel10311713213D

 17 15  0  0  0  0  0  0  0  0999 V2000
   -1.6018    0.2950   -0.4865 C   0  0  0  0  0  0  0  0  0  0  0  0
   -0.2811    0.1851   -0.9941 C   0  0  0  0  0  0  0  0  0  0  0  0
    0.5705    0.4981    0.0344 C   0  0  0  0  0  0  0  0  0  0  0  0
    0.4435    0.8365    1.2399 C   0  0  0  0  0  0  0  0  0  0  0  0
   -0.8533    0.9550    1.7750 C   0  0  0  0  0  0  0  0  0  0  0  0
   -1.8728    0.6653    0.8448 C   0  0  0  0  0  0  0  0  0  0  0  0
   -2.4302    0.0820   -1.1648 H   0  0  0  0  0  0  0  0  0  0  0  0
   -0.0471   -0.0989   -2.0161 H   0  0  0  0  0  0  0  0  0  0  0  0
    3.0243   -0.6514   -3.6446 N   0  0  0  0  0  0  0  0  0  0  0  0
    4.0068   -0.9029   -4.0812 N   0  0  0  0  0  0  0  0  0  0  0  0
   -2.9130    0.7305    1.1686 H   0  0  0  0  0  0  0  0  0  0  0  0
   -1.0753    1.2403    2.8024 H   0  0  0  0  0  0  0  0  0  0  0  0
    2.2205    1.1573    2.2411 H   0  0  0  0  0  0  0  0  0  0  0  0
    4.1357    0.8975    1.1817 O   0  0  0  0  0  0  0  0  0  0  0  0
    4.1265    1.2334    2.3512 N   0  0  0  0  0  0  0  0  0  0  0  0
    5.0531    1.4663    3.0849 O   0  0  0  0  0  0  0  0  0  0  0  0
    2.8765    1.3760    2.9504 O   0  0  0  0  0  0  0  0  0  0  0  0
  1  6  1  0  0  0  0
  2  1  2  0  0  0  0
  2  3  1  0  0  0  0
  3  4  2  0  0  0  0
  4  5  1  0  0  0  0
  5 12  1  0  0  0  0
  6 11  1  0  0  0  0
  6  5  2  0  0  0  0
  7  1  1  0  0  0  0
  8  2  1  0  0  0  0
 10  9  3  0  0  0  0
 13 17  1  0  0  0  0
 14 15  2  0  0  0  0
 15 17  1  0  0  0  0
 15 16  2  0  0  0  0
M  RAD  2   3   2   4   2
M  END
