Coordinates from ORCA-job Ph-N2-NO3-B3LYPG-aug-cc-pVDZ-scan-d09-49-n400
 OpenBabel10311713213D

 17 15  0  0  0  0  0  0  0  0999 V2000
   -1.6829    0.2975   -0.4859 C   0  0  0  0  0  0  0  0  0  0  0  0
   -0.3894    0.1637   -1.0551 C   0  0  0  0  0  0  0  0  0  0  0  0
    0.5114    0.4599   -0.0652 C   0  0  0  0  0  0  0  0  0  0  0  0
    0.4533    0.8004    1.1451 C   0  0  0  0  0  0  0  0  0  0  0  0
   -0.8166    0.9419    1.7381 C   0  0  0  0  0  0  0  0  0  0  0  0
   -1.8838    0.6718    0.8569 C   0  0  0  0  0  0  0  0  0  0  0  0
   -2.5461    0.1005   -1.1244 H   0  0  0  0  0  0  0  0  0  0  0  0
   -0.2050   -0.1229   -2.0863 H   0  0  0  0  0  0  0  0  0  0  0  0
    3.1143   -0.4474   -3.1111 N   0  0  0  0  0  0  0  0  0  0  0  0
    4.1379   -0.7230   -3.4197 N   0  0  0  0  0  0  0  0  0  0  0  0
   -2.9064    0.7563    1.2291 H   0  0  0  0  0  0  0  0  0  0  0  0
   -0.9854    1.2309    2.7746 H   0  0  0  0  0  0  0  0  0  0  0  0
    2.2507    1.0974    2.0925 H   0  0  0  0  0  0  0  0  0  0  0  0
    4.1422    0.8536    0.9833 O   0  0  0  0  0  0  0  0  0  0  0  0
    4.1599    1.1745    2.1570 N   0  0  0  0  0  0  0  0  0  0  0  0
    5.1036    1.4018    2.8705 O   0  0  0  0  0  0  0  0  0  0  0  0
    2.9250    1.3082    2.7877 O   0  0  0  0  0  0  0  0  0  0  0  0
  1  6  1  0  0  0  0
  2  1  2  0  0  0  0
  2  3  1  0  0  0  0
  3  4  2  0  0  0  0
  4  5  1  0  0  0  0
  5 12  1  0  0  0  0
  6 11  1  0  0  0  0
  6  5  2  0  0  0  0
  7  1  1  0  0  0  0
  8  2  1  0  0  0  0
 10  9  3  0  0  0  0
 13 17  1  0  0  0  0
 14 15  2  0  0  0  0
 15 17  1  0  0  0  0
 15 16  2  0  0  0  0
M  RAD  2   3   2   4   2
M  END
