Coordinates from ORCA-job Ph-N2-NO3-B3LYPG-aug-cc-pVDZ-scan-d09-49-n400
 OpenBabel10311713213D

 17 15  0  0  0  0  0  0  0  0999 V2000
   -1.7094    0.3004   -0.4927 C   0  0  0  0  0  0  0  0  0  0  0  0
   -0.4360    0.1501   -1.1018 C   0  0  0  0  0  0  0  0  0  0  0  0
    0.4995    0.4310   -0.1403 C   0  0  0  0  0  0  0  0  0  0  0  0
    0.4835    0.7686    1.0720 C   0  0  0  0  0  0  0  0  0  0  0  0
   -0.7652    0.9258    1.7049 C   0  0  0  0  0  0  0  0  0  0  0  0
   -1.8631    0.6735    0.8566 C   0  0  0  0  0  0  0  0  0  0  0  0
   -2.5947    0.1170   -1.1045 H   0  0  0  0  0  0  0  0  0  0  0  0
   -0.2886   -0.1358   -2.1391 H   0  0  0  0  0  0  0  0  0  0  0  0
    3.0782   -0.3881   -2.9734 N   0  0  0  0  0  0  0  0  0  0  0  0
    4.0944   -0.7055   -3.2658 N   0  0  0  0  0  0  0  0  0  0  0  0
   -2.8722    0.7712    1.2608 H   0  0  0  0  0  0  0  0  0  0  0  0
   -0.8975    1.2140    2.7470 H   0  0  0  0  0  0  0  0  0  0  0  0
    2.2707    1.0684    2.0315 H   0  0  0  0  0  0  0  0  0  0  0  0
    4.2082    0.8824    0.9901 O   0  0  0  0  0  0  0  0  0  0  0  0
    4.1747    1.1867    2.1679 N   0  0  0  0  0  0  0  0  0  0  0  0
    5.0857    1.4226    2.9201 O   0  0  0  0  0  0  0  0  0  0  0  0
    2.9144    1.2829    2.7539 O   0  0  0  0  0  0  0  0  0  0  0  0
  1  6  1  0  0  0  0
  2  1  2  0  0  0  0
  2  3  1  0  0  0  0
  3  4  2  0  0  0  0
  4  5  1  0  0  0  0
  5 12  1  0  0  0  0
  6 11  1  0  0  0  0
  6  5  2  0  0  0  0
  7  1  1  0  0  0  0
  8  2  1  0  0  0  0
 10  9  3  0  0  0  0
 13 17  1  0  0  0  0
 14 15  2  0  0  0  0
 15 17  1  0  0  0  0
 15 16  2  0  0  0  0
M  RAD  2   3   2   4   2
M  END
