Coordinates from ORCA-job Ph-N2-NO3-B3LYPG-aug-cc-pVDZ-scan-d09-49-n400
 OpenBabel10311713213D

 17 15  0  0  0  0  0  0  0  0999 V2000
   -1.6064    0.2952   -0.4859 C   0  0  0  0  0  0  0  0  0  0  0  0
   -0.2865    0.1849   -0.9956 C   0  0  0  0  0  0  0  0  0  0  0  0
    0.5669    0.4976    0.0314 C   0  0  0  0  0  0  0  0  0  0  0  0
    0.4421    0.8359    1.2373 C   0  0  0  0  0  0  0  0  0  0  0  0
   -0.8538    0.9547    1.7744 C   0  0  0  0  0  0  0  0  0  0  0  0
   -1.8750    0.6655    0.8459 C   0  0  0  0  0  0  0  0  0  0  0  0
   -2.4360    0.0825   -1.1628 H   0  0  0  0  0  0  0  0  0  0  0  0
   -0.0541   -0.0990   -2.0180 H   0  0  0  0  0  0  0  0  0  0  0  0
    3.0332   -0.6420   -3.6173 N   0  0  0  0  0  0  0  0  0  0  0  0
    4.0194   -0.8923   -4.0463 N   0  0  0  0  0  0  0  0  0  0  0  0
   -2.9146    0.7310    1.1715 H   0  0  0  0  0  0  0  0  0  0  0  0
   -1.0740    1.2400    2.8022 H   0  0  0  0  0  0  0  0  0  0  0  0
    2.2219    1.1551    2.2339 H   0  0  0  0  0  0  0  0  0  0  0  0
    4.1334    0.8924    1.1687 O   0  0  0  0  0  0  0  0  0  0  0  0
    4.1283    1.2291    2.3380 N   0  0  0  0  0  0  0  0  0  0  0  0
    5.0575    1.4611    3.0687 O   0  0  0  0  0  0  0  0  0  0  0  0
    2.8804    1.3734    2.9411 O   0  0  0  0  0  0  0  0  0  0  0  0
  1  6  1  0  0  0  0
  2  1  2  0  0  0  0
  2  3  1  0  0  0  0
  3  4  2  0  0  0  0
  4  5  1  0  0  0  0
  5 12  1  0  0  0  0
  6 11  1  0  0  0  0
  6  5  2  0  0  0  0
  7  1  1  0  0  0  0
  8  2  1  0  0  0  0
 10  9  3  0  0  0  0
 13 17  1  0  0  0  0
 14 15  2  0  0  0  0
 15 17  1  0  0  0  0
 15 16  2  0  0  0  0
M  RAD  2   3   2   4   2
M  END
