Coordinates from ORCA-job Ph-N2-NO3-B3LYPG-aug-cc-pVDZ-scan-d09-49-n400
 OpenBabel10311713213D

 17 15  0  0  0  0  0  0  0  0999 V2000
   -1.7039    0.3417   -0.5760 C   0  0  0  0  0  0  0  0  0  0  0  0
   -0.5131    0.1118   -1.3098 C   0  0  0  0  0  0  0  0  0  0  0  0
    0.5295    0.2829   -0.4431 C   0  0  0  0  0  0  0  0  0  0  0  0
    0.7044    0.5806    0.7745 C   0  0  0  0  0  0  0  0  0  0  0  0
   -0.4833    0.8094    1.5133 C   0  0  0  0  0  0  0  0  0  0  0  0
   -1.6838    0.6788    0.7904 C   0  0  0  0  0  0  0  0  0  0  0  0
   -2.6568    0.2505   -1.1002 H   0  0  0  0  0  0  0  0  0  0  0  0
   -0.4875   -0.1498   -2.3635 H   0  0  0  0  0  0  0  0  0  0  0  0
    2.5074   -0.2080   -1.9324 N   0  0  0  0  0  0  0  0  0  0  0  0
    3.5885   -0.4105   -2.0282 N   0  0  0  0  0  0  0  0  0  0  0  0
   -2.6317    0.8454    1.3047 H   0  0  0  0  0  0  0  0  0  0  0  0
   -0.4849    1.0730    2.5711 H   0  0  0  0  0  0  0  0  0  0  0  0
    2.3101    0.8301    1.8264 H   0  0  0  0  0  0  0  0  0  0  0  0
    4.2478    1.1774    0.8136 O   0  0  0  0  0  0  0  0  0  0  0  0
    4.1713    1.2513    2.0272 N   0  0  0  0  0  0  0  0  0  0  0  0
    5.0397    1.4972    2.8271 O   0  0  0  0  0  0  0  0  0  0  0  0
    2.9289    1.0032    2.5920 O   0  0  0  0  0  0  0  0  0  0  0  0
  1  6  1  0  0  0  0
  2  1  2  0  0  0  0
  2  3  1  0  0  0  0
  3  4  2  0  0  0  0
  4  5  1  0  0  0  0
  5 12  1  0  0  0  0
  6 11  1  0  0  0  0
  6  5  2  0  0  0  0
  7  1  1  0  0  0  0
  8  2  1  0  0  0  0
 10  9  3  0  0  0  0
 13 17  1  0  0  0  0
 14 15  2  0  0  0  0
 15 17  1  0  0  0  0
 15 16  2  0  0  0  0
M  RAD  2   3   2   4   2
M  END
