Coordinates from ORCA-job Ph-N2-NO3-B3LYPG-aug-cc-pVDZ-scan-d09-49-n400
 OpenBabel10311713213D

 17 16  0  0  0  0  0  0  0  0999 V2000
   -1.4898    0.0680   -0.6134 C   0  0  0  0  0  0  0  0  0  0  0  0
   -0.1487    0.0965   -1.0109 C   0  0  0  0  0  0  0  0  0  0  0  0
    0.7459    0.5526   -0.0565 C   0  0  0  0  0  0  0  0  0  0  0  0
    0.4641    0.9730    1.2267 C   0  0  0  0  0  0  0  0  0  0  0  0
   -0.8906    0.9342    1.5826 C   0  0  0  0  0  0  0  0  0  0  0  0
   -1.8544    0.4852    0.6729 C   0  0  0  0  0  0  0  0  0  0  0  0
   -2.2454   -0.2816   -1.3162 H   0  0  0  0  0  0  0  0  0  0  0  0
    0.1710   -0.2177   -2.0016 H   0  0  0  0  0  0  0  0  0  0  0  0
    2.3238    0.5966   -0.5431 N   0  0  0  0  0  0  0  0  0  0  0  0
    3.0091    0.5627   -1.4273 N   0  0  0  0  0  0  0  0  0  0  0  0
   -2.9030    0.4577    0.9685 H   0  0  0  0  0  0  0  0  0  0  0  0
   -1.1837    1.2542    2.5818 H   0  0  0  0  0  0  0  0  0  0  0  0
    1.2540    1.2968    1.8979 H   0  0  0  0  0  0  0  0  0  0  0  0
    5.0666    0.8213    0.1923 O   0  0  0  0  0  0  0  0  0  0  0  0
    4.5681    0.8001    1.3308 N   0  0  0  0  0  0  0  0  0  0  0  0
    5.2235    0.8595    2.3651 O   0  0  0  0  0  0  0  0  0  0  0  0
    3.2723    0.7061    1.4377 O   0  0  0  0  0  0  0  0  0  0  0  0
  1  6  1  0  0  0  0
  2  1  2  0  0  0  0
  2  3  1  0  0  0  0
  3  4  2  0  0  0  0
  4  5  1  0  0  0  0
  4 13  1  0  0  0  0
  5 12  1  0  0  0  0
  6 11  1  0  0  0  0
  6  5  2  0  0  0  0
  7  1  1  0  0  0  0
  8  2  1  0  0  0  0
  9  3  1  0  0  0  0
 10  9  2  0  0  0  0
 14 15  2  0  0  0  0
 15 17  2  0  0  0  0
 15 16  1  0  0  0  0
M  RAD  2  10   2  16   2
M  END
