Coordinates from ORCA-job Ph-N2-NO3-B3LYPG-aug-cc-pVDZ-scan-d09-49-n400
 OpenBabel10311713213D

 17 15  0  0  0  0  0  0  0  0999 V2000
   -1.6873    0.3612   -0.5919 C   0  0  0  0  0  0  0  0  0  0  0  0
   -0.5036    0.1119   -1.3273 C   0  0  0  0  0  0  0  0  0  0  0  0
    0.5485    0.2543   -0.4668 C   0  0  0  0  0  0  0  0  0  0  0  0
    0.7460    0.5407    0.7552 C   0  0  0  0  0  0  0  0  0  0  0  0
   -0.4441    0.7876    1.4891 C   0  0  0  0  0  0  0  0  0  0  0  0
   -1.6522    0.6889    0.7763 C   0  0  0  0  0  0  0  0  0  0  0  0
   -2.6432    0.2937   -1.1136 H   0  0  0  0  0  0  0  0  0  0  0  0
   -0.4837   -0.1437   -2.3828 H   0  0  0  0  0  0  0  0  0  0  0  0
    2.4104   -0.2100   -1.7770 N   0  0  0  0  0  0  0  0  0  0  0  0
    3.4941   -0.4152   -1.8327 N   0  0  0  0  0  0  0  0  0  0  0  0
   -2.5928    0.8730    1.2980 H   0  0  0  0  0  0  0  0  0  0  0  0
   -0.4359    1.0445    2.5489 H   0  0  0  0  0  0  0  0  0  0  0  0
    2.3129    0.7482    1.7921 H   0  0  0  0  0  0  0  0  0  0  0  0
    4.1834    1.3776    0.7784 O   0  0  0  0  0  0  0  0  0  0  0  0
    4.1492    1.2823    1.9934 N   0  0  0  0  0  0  0  0  0  0  0  0
    5.0260    1.5042    2.7921 O   0  0  0  0  0  0  0  0  0  0  0  0
    2.9553    0.8660    2.5557 O   0  0  0  0  0  0  0  0  0  0  0  0
  1  6  1  0  0  0  0
  2  1  2  0  0  0  0
  2  3  1  0  0  0  0
  3  4  2  0  0  0  0
  4  5  1  0  0  0  0
  5 12  1  0  0  0  0
  6 11  1  0  0  0  0
  6  5  2  0  0  0  0
  7  1  1  0  0  0  0
  8  2  1  0  0  0  0
 10  9  3  0  0  0  0
 13 17  1  0  0  0  0
 14 15  2  0  0  0  0
 15 17  1  0  0  0  0
 15 16  2  0  0  0  0
M  RAD  2   3   2   4   2
M  END
