Coordinates from ORCA-job Ph-N2-NO3-B3LYPG-aug-cc-pVDZ-scan-d09-49-n400
 OpenBabel10311713213D

 17 15  0  0  0  0  0  0  0  0999 V2000
   -1.7049    0.3385   -0.5734 C   0  0  0  0  0  0  0  0  0  0  0  0
   -0.5124    0.1115   -1.3067 C   0  0  0  0  0  0  0  0  0  0  0  0
    0.5272    0.2877   -0.4381 C   0  0  0  0  0  0  0  0  0  0  0  0
    0.6990    0.5874    0.7790 C   0  0  0  0  0  0  0  0  0  0  0  0
   -0.4889    0.8134    1.5175 C   0  0  0  0  0  0  0  0  0  0  0  0
   -1.6879    0.6775    0.7924 C   0  0  0  0  0  0  0  0  0  0  0  0
   -2.6570    0.2434   -1.0983 H   0  0  0  0  0  0  0  0  0  0  0  0
   -0.4863   -0.1513   -2.3600 H   0  0  0  0  0  0  0  0  0  0  0  0
    2.5205   -0.2072   -1.9565 N   0  0  0  0  0  0  0  0  0  0  0  0
    3.6011   -0.4082   -2.0600 N   0  0  0  0  0  0  0  0  0  0  0  0
   -2.6373    0.8413    1.3050 H   0  0  0  0  0  0  0  0  0  0  0  0
   -0.4926    1.0783    2.5749 H   0  0  0  0  0  0  0  0  0  0  0  0
    2.3086    0.8420    1.8315 H   0  0  0  0  0  0  0  0  0  0  0  0
    4.2541    1.1446    0.8208 O   0  0  0  0  0  0  0  0  0  0  0  0
    4.1737    1.2433    2.0323 N   0  0  0  0  0  0  0  0  0  0  0  0
    5.0406    1.4985    2.8308 O   0  0  0  0  0  0  0  0  0  0  0  0
    2.9252    1.0242    2.5962 O   0  0  0  0  0  0  0  0  0  0  0  0
  1  6  1  0  0  0  0
  2  1  2  0  0  0  0
  2  3  1  0  0  0  0
  3  4  2  0  0  0  0
  4  5  1  0  0  0  0
  5 12  1  0  0  0  0
  6 11  1  0  0  0  0
  6  5  2  0  0  0  0
  7  1  1  0  0  0  0
  8  2  1  0  0  0  0
 10  9  3  0  0  0  0
 13 17  1  0  0  0  0
 14 15  2  0  0  0  0
 15 17  1  0  0  0  0
 15 16  2  0  0  0  0
M  RAD  2   3   2   4   2
M  END
