Coordinates from ORCA-job Ph-N2-NO3-B3LYPG-aug-cc-pVDZ-scan-d09-49-n400
 OpenBabel10311713213D

 17 15  0  0  0  0  0  0  0  0999 V2000
   -1.6793    0.3635   -0.5983 C   0  0  0  0  0  0  0  0  0  0  0  0
   -0.4960    0.1084   -1.3291 C   0  0  0  0  0  0  0  0  0  0  0  0
    0.5596    0.2474   -0.4712 C   0  0  0  0  0  0  0  0  0  0  0  0
    0.7642    0.5349    0.7533 C   0  0  0  0  0  0  0  0  0  0  0  0
   -0.4320    0.7873    1.4783 C   0  0  0  0  0  0  0  0  0  0  0  0
   -1.6416    0.6937    0.7692 C   0  0  0  0  0  0  0  0  0  0  0  0
   -2.6348    0.2994   -1.1209 H   0  0  0  0  0  0  0  0  0  0  0  0
   -0.4735   -0.1493   -2.3842 H   0  0  0  0  0  0  0  0  0  0  0  0
    2.3726   -0.1980   -1.6970 N   0  0  0  0  0  0  0  0  0  0  0  0
    3.4587   -0.3938   -1.7431 N   0  0  0  0  0  0  0  0  0  0  0  0
   -2.5805    0.8834    1.2919 H   0  0  0  0  0  0  0  0  0  0  0  0
   -0.4233    1.0456    2.5379 H   0  0  0  0  0  0  0  0  0  0  0  0
    2.3089    0.7133    1.7748 H   0  0  0  0  0  0  0  0  0  0  0  0
    4.1468    1.4451    0.7612 O   0  0  0  0  0  0  0  0  0  0  0  0
    4.1372    1.2877    1.9709 N   0  0  0  0  0  0  0  0  0  0  0  0
    5.0254    1.4917    2.7626 O   0  0  0  0  0  0  0  0  0  0  0  0
    2.9705    0.8048    2.5310 O   0  0  0  0  0  0  0  0  0  0  0  0
  1  6  1  0  0  0  0
  2  1  2  0  0  0  0
  2  3  1  0  0  0  0
  3  4  2  0  0  0  0
  4  5  1  0  0  0  0
  5 12  1  0  0  0  0
  6 11  1  0  0  0  0
  6  5  2  0  0  0  0
  7  1  1  0  0  0  0
  8  2  1  0  0  0  0
 10  9  3  0  0  0  0
 13 17  1  0  0  0  0
 14 15  2  0  0  0  0
 15 17  1  0  0  0  0
 15 16  2  0  0  0  0
M  RAD  2   3   2   4   2
M  END
