Coordinates from ORCA-job Ph-N2-NO3-B3LYPG-aug-cc-pVDZ-scan-d09-49-n400
 OpenBabel10311713213D

 17 15  0  0  0  0  0  0  0  0999 V2000
   -1.6494    0.2952   -0.4819 C   0  0  0  0  0  0  0  0  0  0  0  0
   -0.3393    0.1794   -1.0158 C   0  0  0  0  0  0  0  0  0  0  0  0
    0.5310    0.4890   -0.0021 C   0  0  0  0  0  0  0  0  0  0  0  0
    0.4316    0.8286    1.2057 C   0  0  0  0  0  0  0  0  0  0  0  0
   -0.8548    0.9527    1.7647 C   0  0  0  0  0  0  0  0  0  0  0  0
   -1.8932    0.6670    0.8544 C   0  0  0  0  0  0  0  0  0  0  0  0
   -2.4919    0.0858   -1.1437 H   0  0  0  0  0  0  0  0  0  0  0  0
   -0.1267   -0.1062   -2.0420 H   0  0  0  0  0  0  0  0  0  0  0  0
    3.1094   -0.5334   -3.3121 N   0  0  0  0  0  0  0  0  0  0  0  0
    4.1306   -0.7714   -3.6580 N   0  0  0  0  0  0  0  0  0  0  0  0
   -2.9268    0.7368    1.1979 H   0  0  0  0  0  0  0  0  0  0  0  0
   -1.0561    1.2394    2.7960 H   0  0  0  0  0  0  0  0  0  0  0  0
    2.2375    1.1322    2.1546 H   0  0  0  0  0  0  0  0  0  0  0  0
    4.1116    0.8359    1.0327 O   0  0  0  0  0  0  0  0  0  0  0  0
    4.1470    1.1840    2.1982 N   0  0  0  0  0  0  0  0  0  0  0  0
    5.1016    1.4038    2.8993 O   0  0  0  0  0  0  0  0  0  0  0  0
    2.9208    1.3462    2.8394 O   0  0  0  0  0  0  0  0  0  0  0  0
  1  6  1  0  0  0  0
  2  1  2  0  0  0  0
  2  3  1  0  0  0  0
  3  4  2  0  0  0  0
  4  5  1  0  0  0  0
  5 12  1  0  0  0  0
  6 11  1  0  0  0  0
  6  5  2  0  0  0  0
  7  1  1  0  0  0  0
  8  2  1  0  0  0  0
 10  9  3  0  0  0  0
 13 17  1  0  0  0  0
 14 15  2  0  0  0  0
 15 17  1  0  0  0  0
 15 16  2  0  0  0  0
M  RAD  2   3   2   4   2
M  END
