Coordinates from ORCA-job Ph-N2-NO3-B3LYPG-aug-cc-pVDZ-scan-d09-49-n400
 OpenBabel10311713213D

 17 15  0  0  0  0  0  0  0  0999 V2000
   -1.7500    0.3083   -0.5061 C   0  0  0  0  0  0  0  0  0  0  0  0
   -0.5117    0.1305   -1.1766 C   0  0  0  0  0  0  0  0  0  0  0  0
    0.4750    0.3834   -0.2606 C   0  0  0  0  0  0  0  0  0  0  0  0
    0.5350    0.7147    0.9537 C   0  0  0  0  0  0  0  0  0  0  0  0
   -0.6823    0.8965    1.6433 C   0  0  0  0  0  0  0  0  0  0  0  0
   -1.8271    0.6767    0.8508 C   0  0  0  0  0  0  0  0  0  0  0  0
   -2.6681    0.1501   -1.0750 H   0  0  0  0  0  0  0  0  0  0  0  0
   -0.4197   -0.1525   -2.2209 H   0  0  0  0  0  0  0  0  0  0  0  0
    3.0095   -0.2911   -2.5880 N   0  0  0  0  0  0  0  0  0  0  0  0
    4.0559   -0.5699   -2.8029 N   0  0  0  0  0  0  0  0  0  0  0  0
   -2.8119    0.7968    1.3055 H   0  0  0  0  0  0  0  0  0  0  0  0
   -0.7565    1.1816    2.6920 H   0  0  0  0  0  0  0  0  0  0  0  0
    2.2913    1.0068    1.9261 H   0  0  0  0  0  0  0  0  0  0  0  0
    4.2530    0.9123    0.9122 O   0  0  0  0  0  0  0  0  0  0  0  0
    4.1901    1.1802    2.0975 N   0  0  0  0  0  0  0  0  0  0  0  0
    5.0811    1.4227    2.8716 O   0  0  0  0  0  0  0  0  0  0  0  0
    2.9192    1.2180    2.6647 O   0  0  0  0  0  0  0  0  0  0  0  0
  1  6  1  0  0  0  0
  2  1  2  0  0  0  0
  2  3  1  0  0  0  0
  3  4  2  0  0  0  0
  4  5  1  0  0  0  0
  5 12  1  0  0  0  0
  6 11  1  0  0  0  0
  6  5  2  0  0  0  0
  7  1  1  0  0  0  0
  8  2  1  0  0  0  0
 10  9  3  0  0  0  0
 13 17  1  0  0  0  0
 14 15  2  0  0  0  0
 15 17  1  0  0  0  0
 15 16  2  0  0  0  0
M  RAD  2   3   2   4   2
M  END
