Coordinates from ORCA-job Ph-N2-NO3-B3LYPG-aug-cc-pVDZ-scan-d09-49-n400
 OpenBabel10311713213D

 17 17  0  0  1  0  0  0  0  0999 V2000
   -0.7553   -0.4113   -0.1951 C   0  0  0  0  0  0  0  0  0  0  0  0
    0.2317    0.0091   -1.0496 C   0  0  0  0  0  0  0  0  0  0  0  0
    1.0793    1.0321   -0.5766 C   0  0  1  0  0  0  0  0  0  0  0  0
    1.1696    1.5964    0.7602 C   0  0  1  0  0  0  0  0  0  0  0  0
   -0.0365    1.1965    1.5242 C   0  0  0  0  0  0  0  0  0  0  0  0
   -0.8939    0.2330    1.0821 C   0  0  0  0  0  0  0  0  0  0  0  0
   -1.4374   -1.2057   -0.4899 H   0  0  0  0  0  0  0  0  0  0  0  0
    0.3657   -0.4131   -2.0435 H   0  0  0  0  0  0  0  0  0  0  0  0
    2.1075    1.6165   -1.6117 N   0  0  0  0  0  0  0  0  0  0  0  0
    2.8624    2.0338   -2.3295 N   0  0  0  0  0  0  0  0  0  0  0  0
   -1.7428   -0.0390    1.7112 H   0  0  0  0  0  0  0  0  0  0  0  0
   -0.2018    1.7004    2.4755 H   0  0  0  0  0  0  0  0  0  0  0  0
    1.3880    2.6687    0.8030 H   0  0  0  0  0  0  0  0  0  0  0  0
    2.5316    1.2362    1.5512 O   0  0  0  0  0  0  0  0  0  0  0  0
    2.8180   -0.0924    1.8182 N   0  0  0  0  0  0  0  0  0  0  0  0
    3.7985   -0.2462    2.5160 O   0  0  0  0  0  0  0  0  0  0  0  0
    2.0981   -0.9497    1.3413 O   0  0  0  0  0  0  0  0  0  0  0  0
  1  6  1  0  0  0  0
  2  3  1  0  0  0  0
  2  1  2  0  0  0  0
  3  9  1  1  0  0  0
  3  4  1  0  0  0  0
  4 13  1  6  0  0  0
  4  5  1  0  0  0  0
  4 14  1  0  0  0  0
  5 12  1  0  0  0  0
  6  5  2  0  0  0  0
  6 11  1  0  0  0  0
  7  1  1  0  0  0  0
  8  2  1  0  0  0  0
 10  9  1  0  0  0  0
 14 15  1  0  0  0  0
 15 16  2  0  0  0  0
 17 15  2  0  0  0  0
M  RAD  3   3   2   9   2  10   3
M  END
