Coordinates from ORCA-job Ph-N2-NO3-B3LYPG-aug-cc-pVDZ-scan-d09-49-n400
 OpenBabel10311713213D

 17 15  0  0  0  0  0  0  0  0999 V2000
   -1.6939    0.3547   -0.5854 C   0  0  0  0  0  0  0  0  0  0  0  0
   -0.5069    0.1129   -1.3206 C   0  0  0  0  0  0  0  0  0  0  0  0
    0.5388    0.2657   -0.4554 C   0  0  0  0  0  0  0  0  0  0  0  0
    0.7284    0.5553    0.7647 C   0  0  0  0  0  0  0  0  0  0  0  0
   -0.4607    0.7950    1.5005 C   0  0  0  0  0  0  0  0  0  0  0  0
   -1.6656    0.6849    0.7824 C   0  0  0  0  0  0  0  0  0  0  0  0
   -2.6486    0.2789   -1.1085 H   0  0  0  0  0  0  0  0  0  0  0  0
   -0.4859   -0.1441   -2.3756 H   0  0  0  0  0  0  0  0  0  0  0  0
    2.4530   -0.2128   -1.8459 N   0  0  0  0  0  0  0  0  0  0  0  0
    3.5352   -0.4201   -1.9172 N   0  0  0  0  0  0  0  0  0  0  0  0
   -2.6095    0.8621    1.3004 H   0  0  0  0  0  0  0  0  0  0  0  0
   -0.4569    1.0537    2.5597 H   0  0  0  0  0  0  0  0  0  0  0  0
    2.3117    0.7810    1.8089 H   0  0  0  0  0  0  0  0  0  0  0  0
    4.2099    1.3024    0.7904 O   0  0  0  0  0  0  0  0  0  0  0  0
    4.1585    1.2707    2.0076 N   0  0  0  0  0  0  0  0  0  0  0  0
    5.0313    1.5042    2.8070 O   0  0  0  0  0  0  0  0  0  0  0  0
    2.9439    0.9205    2.5741 O   0  0  0  0  0  0  0  0  0  0  0  0
  1  6  1  0  0  0  0
  2  1  2  0  0  0  0
  2  3  1  0  0  0  0
  3  4  2  0  0  0  0
  4  5  1  0  0  0  0
  5 12  1  0  0  0  0
  6 11  1  0  0  0  0
  6  5  2  0  0  0  0
  7  1  1  0  0  0  0
  8  2  1  0  0  0  0
 10  9  3  0  0  0  0
 13 17  1  0  0  0  0
 14 15  2  0  0  0  0
 15 17  1  0  0  0  0
 15 16  2  0  0  0  0
M  RAD  2   3   2   4   2
M  END
