Coordinates from ORCA-job Ph-N2-NO3-B3LYPG-aug-cc-pVDZ-scan-d09-49-n400
 OpenBabel10311713213D

 17 15  0  0  0  0  0  0  0  0999 V2000
   -1.6959    0.2986   -0.4892 C   0  0  0  0  0  0  0  0  0  0  0  0
   -0.4121    0.1543   -1.0769 C   0  0  0  0  0  0  0  0  0  0  0  0
    0.5081    0.4429   -0.1028 C   0  0  0  0  0  0  0  0  0  0  0  0
    0.4711    0.7833    1.1092 C   0  0  0  0  0  0  0  0  0  0  0  0
   -0.7896    0.9345    1.7202 C   0  0  0  0  0  0  0  0  0  0  0  0
   -1.8728    0.6740    0.8561 C   0  0  0  0  0  0  0  0  0  0  0  0
   -2.5701    0.1086   -1.1147 H   0  0  0  0  0  0  0  0  0  0  0  0
   -0.2465   -0.1332   -2.1110 H   0  0  0  0  0  0  0  0  0  0  0  0
    3.0956   -0.4138   -3.0411 N   0  0  0  0  0  0  0  0  0  0  0  0
    4.1154   -0.7115   -3.3416 N   0  0  0  0  0  0  0  0  0  0  0  0
   -2.8886    0.7669    1.2444 H   0  0  0  0  0  0  0  0  0  0  0  0
   -0.9402    1.2244    2.7593 H   0  0  0  0  0  0  0  0  0  0  0  0
    2.2593    1.0820    2.0633 H   0  0  0  0  0  0  0  0  0  0  0  0
    4.1699    0.8677    0.9857 O   0  0  0  0  0  0  0  0  0  0  0  0
    4.1653    1.1804    2.1616 N   0  0  0  0  0  0  0  0  0  0  0  0
    5.0947    1.4111    2.8927 O   0  0  0  0  0  0  0  0  0  0  0  0
    2.9189    1.2949    2.7720 O   0  0  0  0  0  0  0  0  0  0  0  0
  1  6  1  0  0  0  0
  2  1  2  0  0  0  0
  2  3  1  0  0  0  0
  3  4  2  0  0  0  0
  4  5  1  0  0  0  0
  5 12  1  0  0  0  0
  6 11  1  0  0  0  0
  6  5  2  0  0  0  0
  7  1  1  0  0  0  0
  8  2  1  0  0  0  0
 10  9  3  0  0  0  0
 13 17  1  0  0  0  0
 14 15  2  0  0  0  0
 15 17  1  0  0  0  0
 15 16  2  0  0  0  0
M  RAD  2   3   2   4   2
M  END
