Coordinates from ORCA-job Ph-N2-NO3-B3LYPG-aug-cc-pVDZ-scan-d09-49-n400
 OpenBabel10311713213D

 17 15  0  0  0  0  0  0  0  0999 V2000
   -1.7123    0.3007   -0.4933 C   0  0  0  0  0  0  0  0  0  0  0  0
   -0.4413    0.1492   -1.1066 C   0  0  0  0  0  0  0  0  0  0  0  0
    0.4994    0.4281   -0.1493 C   0  0  0  0  0  0  0  0  0  0  0  0
    0.4870    0.7653    1.0633 C   0  0  0  0  0  0  0  0  0  0  0  0
   -0.7592    0.9238    1.7007 C   0  0  0  0  0  0  0  0  0  0  0  0
   -1.8606    0.6734    0.8566 C   0  0  0  0  0  0  0  0  0  0  0  0
   -2.5999    0.1187   -1.1021 H   0  0  0  0  0  0  0  0  0  0  0  0
   -0.2979   -0.1362   -2.1447 H   0  0  0  0  0  0  0  0  0  0  0  0
    3.0731   -0.3836   -2.9613 N   0  0  0  0  0  0  0  0  0  0  0  0
    4.0886   -0.7046   -3.2523 N   0  0  0  0  0  0  0  0  0  0  0  0
   -2.8680    0.7722    1.2648 H   0  0  0  0  0  0  0  0  0  0  0  0
   -0.8871    1.2118    2.7434 H   0  0  0  0  0  0  0  0  0  0  0  0
    2.2732    1.0657    2.0251 H   0  0  0  0  0  0  0  0  0  0  0  0
    4.2161    0.8861    0.9930 O   0  0  0  0  0  0  0  0  0  0  0  0
    4.1761    1.1885    2.1710 N   0  0  0  0  0  0  0  0  0  0  0  0
    5.0828    1.4256    2.9281 O   0  0  0  0  0  0  0  0  0  0  0  0
    2.9128    1.2807    2.7509 O   0  0  0  0  0  0  0  0  0  0  0  0
  1  6  1  0  0  0  0
  2  1  2  0  0  0  0
  2  3  1  0  0  0  0
  3  4  2  0  0  0  0
  4  5  1  0  0  0  0
  5 12  1  0  0  0  0
  6 11  1  0  0  0  0
  6  5  2  0  0  0  0
  7  1  1  0  0  0  0
  8  2  1  0  0  0  0
 10  9  3  0  0  0  0
 13 17  1  0  0  0  0
 14 15  2  0  0  0  0
 15 17  1  0  0  0  0
 15 16  2  0  0  0  0
M  RAD  2   3   2   4   2
M  END
