Coordinates from ORCA-job Ph-N2-NO3-B3LYPG-aug-cc-pVDZ-scan-d09-49-n400
 OpenBabel10311713213D

 17 15  0  0  0  0  0  0  0  0999 V2000
   -1.7485    0.3054   -0.4979 C   0  0  0  0  0  0  0  0  0  0  0  0
   -0.5031    0.1320   -1.1565 C   0  0  0  0  0  0  0  0  0  0  0  0
    0.4746    0.3924   -0.2328 C   0  0  0  0  0  0  0  0  0  0  0  0
    0.5177    0.7282    0.9800 C   0  0  0  0  0  0  0  0  0  0  0  0
   -0.7044    0.9074    1.6596 C   0  0  0  0  0  0  0  0  0  0  0  0
   -1.8405    0.6786    0.8567 C   0  0  0  0  0  0  0  0  0  0  0  0
   -2.6604    0.1404   -1.0748 H   0  0  0  0  0  0  0  0  0  0  0  0
   -0.4015   -0.1544   -2.1991 H   0  0  0  0  0  0  0  0  0  0  0  0
    3.0574   -0.3116   -2.6945 N   0  0  0  0  0  0  0  0  0  0  0  0
    4.0965   -0.6006   -2.9301 N   0  0  0  0  0  0  0  0  0  0  0  0
   -2.8303    0.7952    1.3015 H   0  0  0  0  0  0  0  0  0  0  0  0
   -0.7895    1.1961    2.7065 H   0  0  0  0  0  0  0  0  0  0  0  0
    2.2859    1.0234    1.9473 H   0  0  0  0  0  0  0  0  0  0  0  0
    4.2466    0.8977    0.9338 O   0  0  0  0  0  0  0  0  0  0  0  0
    4.1865    1.1787    2.1163 N   0  0  0  0  0  0  0  0  0  0  0  0
    5.0799    1.4195    2.8881 O   0  0  0  0  0  0  0  0  0  0  0  0
    2.9158    1.2367    2.6831 O   0  0  0  0  0  0  0  0  0  0  0  0
  1  6  1  0  0  0  0
  2  1  2  0  0  0  0
  2  3  1  0  0  0  0
  3  4  2  0  0  0  0
  4  5  1  0  0  0  0
  5 12  1  0  0  0  0
  6 11  1  0  0  0  0
  6  5  2  0  0  0  0
  7  1  1  0  0  0  0
  8  2  1  0  0  0  0
 10  9  3  0  0  0  0
 13 17  1  0  0  0  0
 14 15  2  0  0  0  0
 15 17  1  0  0  0  0
 15 16  2  0  0  0  0
M  RAD  2   3   2   4   2
M  END
