Coordinates from ORCA-job Ph-N2-NO3-B3LYPG-aug-cc-pVDZ-scan-d09-49-n400
 OpenBabel10311713213D

 17 15  0  0  0  0  0  0  0  0999 V2000
   -1.6906    0.3575   -0.5889 C   0  0  0  0  0  0  0  0  0  0  0  0
   -0.5055    0.1123   -1.3247 C   0  0  0  0  0  0  0  0  0  0  0  0
    0.5438    0.2601   -0.4624 C   0  0  0  0  0  0  0  0  0  0  0  0
    0.7374    0.5481    0.7587 C   0  0  0  0  0  0  0  0  0  0  0  0
   -0.4518    0.7909    1.4942 C   0  0  0  0  0  0  0  0  0  0  0  0
   -1.6585    0.6863    0.7792 C   0  0  0  0  0  0  0  0  0  0  0  0
   -2.6461    0.2856   -1.1109 H   0  0  0  0  0  0  0  0  0  0  0  0
   -0.4853   -0.1438   -2.3800 H   0  0  0  0  0  0  0  0  0  0  0  0
    2.4296   -0.2095   -1.8078 N   0  0  0  0  0  0  0  0  0  0  0  0
    3.5128   -0.4156   -1.8687 N   0  0  0  0  0  0  0  0  0  0  0  0
   -2.6007    0.8666    1.2993 H   0  0  0  0  0  0  0  0  0  0  0  0
   -0.4454    1.0486    2.5537 H   0  0  0  0  0  0  0  0  0  0  0  0
    2.3122    0.7663    1.7991 H   0  0  0  0  0  0  0  0  0  0  0  0
    4.1989    1.3367    0.7831 O   0  0  0  0  0  0  0  0  0  0  0  0
    4.1530    1.2810    2.0000 N   0  0  0  0  0  0  0  0  0  0  0  0
    5.0300    1.4992    2.7992 O   0  0  0  0  0  0  0  0  0  0  0  0
    2.9489    0.8949    2.5641 O   0  0  0  0  0  0  0  0  0  0  0  0
  1  6  1  0  0  0  0
  2  1  2  0  0  0  0
  2  3  1  0  0  0  0
  3  4  2  0  0  0  0
  4  5  1  0  0  0  0
  5 12  1  0  0  0  0
  6 11  1  0  0  0  0
  6  5  2  0  0  0  0
  7  1  1  0  0  0  0
  8  2  1  0  0  0  0
 10  9  3  0  0  0  0
 13 17  1  0  0  0  0
 14 15  2  0  0  0  0
 15 17  1  0  0  0  0
 15 16  2  0  0  0  0
M  RAD  2   3   2   4   2
M  END
