Coordinates from ORCA-job Ph-N2-NO3-B3LYPG-aug-cc-pVDZ-scan-d09-49-n400
 OpenBabel10311713213D

 17 15  0  0  0  0  0  0  0  0999 V2000
   -1.7321    0.3026   -0.4950 C   0  0  0  0  0  0  0  0  0  0  0  0
   -0.4739    0.1410   -1.1312 C   0  0  0  0  0  0  0  0  0  0  0  0
    0.4875    0.4111   -0.1919 C   0  0  0  0  0  0  0  0  0  0  0  0
    0.5009    0.7482    1.0214 C   0  0  0  0  0  0  0  0  0  0  0  0
   -0.7333    0.9161    1.6804 C   0  0  0  0  0  0  0  0  0  0  0  0
   -1.8523    0.6755    0.8572 C   0  0  0  0  0  0  0  0  0  0  0  0
   -2.6321    0.1285   -1.0878 H   0  0  0  0  0  0  0  0  0  0  0  0
   -0.3518   -0.1449   -2.1718 H   0  0  0  0  0  0  0  0  0  0  0  0
    3.0691   -0.3470   -2.8286 N   0  0  0  0  0  0  0  0  0  0  0  0
    4.0963   -0.6533   -3.0931 N   0  0  0  0  0  0  0  0  0  0  0  0
   -2.8510    0.7827    1.2841 H   0  0  0  0  0  0  0  0  0  0  0  0
   -0.8398    1.2047    2.7254 H   0  0  0  0  0  0  0  0  0  0  0  0
    2.2816    1.0455    1.9841 H   0  0  0  0  0  0  0  0  0  0  0  0
    4.2336    0.8897    0.9646 O   0  0  0  0  0  0  0  0  0  0  0  0
    4.1828    1.1830    2.1443 N   0  0  0  0  0  0  0  0  0  0  0  0
    5.0822    1.4218    2.9097 O   0  0  0  0  0  0  0  0  0  0  0  0
    2.9151    1.2601    2.7156 O   0  0  0  0  0  0  0  0  0  0  0  0
  1  6  1  0  0  0  0
  2  1  2  0  0  0  0
  2  3  1  0  0  0  0
  3  4  2  0  0  0  0
  4  5  1  0  0  0  0
  5 12  1  0  0  0  0
  6 11  1  0  0  0  0
  6  5  2  0  0  0  0
  7  1  1  0  0  0  0
  8  2  1  0  0  0  0
 10  9  3  0  0  0  0
 13 17  1  0  0  0  0
 14 15  2  0  0  0  0
 15 17  1  0  0  0  0
 15 16  2  0  0  0  0
M  RAD  2   3   2   4   2
M  END
