Coordinates from ORCA-job Ph-N2-NO3-B3LYPG-aug-cc-pVDZ-scan-d09-49-n400
 OpenBabel10311713213D

 17 15  0  0  0  0  0  0  0  0999 V2000
   -1.7010    0.3457   -0.5781 C   0  0  0  0  0  0  0  0  0  0  0  0
   -0.5105    0.1125   -1.3121 C   0  0  0  0  0  0  0  0  0  0  0  0
    0.5309    0.2787   -0.4441 C   0  0  0  0  0  0  0  0  0  0  0  0
    0.7102    0.5739    0.7742 C   0  0  0  0  0  0  0  0  0  0  0  0
   -0.4784    0.8056    1.5114 C   0  0  0  0  0  0  0  0  0  0  0  0
   -1.6797    0.6808    0.7886 C   0  0  0  0  0  0  0  0  0  0  0  0
   -2.6541    0.2589   -1.1027 H   0  0  0  0  0  0  0  0  0  0  0  0
   -0.4865   -0.1476   -2.3661 H   0  0  0  0  0  0  0  0  0  0  0  0
    2.4962   -0.2116   -1.9162 N   0  0  0  0  0  0  0  0  0  0  0  0
    3.5772   -0.4166   -2.0080 N   0  0  0  0  0  0  0  0  0  0  0  0
   -2.6270    0.8501    1.3031 H   0  0  0  0  0  0  0  0  0  0  0  0
   -0.4794    1.0676    2.5696 H   0  0  0  0  0  0  0  0  0  0  0  0
    2.3099    0.8169    1.8247 H   0  0  0  0  0  0  0  0  0  0  0  0
    4.2372    1.2111    0.8076 O   0  0  0  0  0  0  0  0  0  0  0  0
    4.1684    1.2538    2.0232 N   0  0  0  0  0  0  0  0  0  0  0  0
    5.0368    1.5035    2.8220 O   0  0  0  0  0  0  0  0  0  0  0  0
    2.9325    0.9819    2.5901 O   0  0  0  0  0  0  0  0  0  0  0  0
  1  6  1  0  0  0  0
  2  1  2  0  0  0  0
  2  3  1  0  0  0  0
  3  4  2  0  0  0  0
  4  5  1  0  0  0  0
  5 12  1  0  0  0  0
  6 11  1  0  0  0  0
  6  5  2  0  0  0  0
  7  1  1  0  0  0  0
  8  2  1  0  0  0  0
 10  9  3  0  0  0  0
 13 17  1  0  0  0  0
 14 15  2  0  0  0  0
 15 17  1  0  0  0  0
 15 16  2  0  0  0  0
M  RAD  2   3   2   4   2
M  END
