Coordinates from ORCA-job Ph-N2-NO3-B3LYPG-aug-cc-pVDZ-scan-d09-49-n400
 OpenBabel10311713213D

 17 15  0  0  0  0  0  0  0  0999 V2000
   -1.6219    0.1243   -0.6099 C   0  0  0  0  0  0  0  0  0  0  0  0
   -0.2891    0.0953   -1.0727 C   0  0  0  0  0  0  0  0  0  0  0  0
    0.5859    0.4833   -0.1033 C   0  0  0  0  0  0  0  0  0  0  0  0
    0.4557    0.8793    1.1904 C   0  0  0  0  0  0  0  0  0  0  0  0
   -0.8977    0.8873    1.5915 C   0  0  0  0  0  0  0  0  0  0  0  0
   -1.9125    0.5150    0.7021 C   0  0  0  0  0  0  0  0  0  0  0  0
   -2.4172   -0.1639   -1.2978 H   0  0  0  0  0  0  0  0  0  0  0  0
   -0.0116   -0.1999   -2.0810 H   0  0  0  0  0  0  0  0  0  0  0  0
    2.5326    0.4742   -0.6887 N   0  0  0  0  0  0  0  0  0  0  0  0
    3.2049    0.3846   -1.5687 N   0  0  0  0  0  0  0  0  0  0  0  0
   -2.9491    0.5279    1.0372 H   0  0  0  0  0  0  0  0  0  0  0  0
   -1.1327    1.1874    2.6128 H   0  0  0  0  0  0  0  0  0  0  0  0
    1.2992    1.1452    1.8235 H   0  0  0  0  0  0  0  0  0  0  0  0
    5.2585    0.9757    0.3489 O   0  0  0  0  0  0  0  0  0  0  0  0
    4.6660    0.9119    1.4360 N   0  0  0  0  0  0  0  0  0  0  0  0
    5.2268    1.0251    2.5273 O   0  0  0  0  0  0  0  0  0  0  0  0
    3.3850    0.7122    1.4398 O   0  0  0  0  0  0  0  0  0  0  0  0
  1  6  1  0  0  0  0
  2  1  2  0  0  0  0
  2  3  1  0  0  0  0
  3  4  2  0  0  0  0
  4  5  1  0  0  0  0
  4 13  1  0  0  0  0
  5 12  1  0  0  0  0
  6 11  1  0  0  0  0
  6  5  2  0  0  0  0
  7  1  1  0  0  0  0
  8  2  1  0  0  0  0
 10  9  3  0  0  0  0
 14 15  2  0  0  0  0
 15 17  2  0  0  0  0
 15 16  1  0  0  0  0
M  RAD  2   3   2  16   2
M  END
