Coordinates from ORCA-job Ph-N2-NO3-B3LYPG-aug-cc-pVDZ-scan-d09-49-n400
 OpenBabel10311713213D

 17 15  0  0  0  0  0  0  0  0999 V2000
   -1.6945    0.3535   -0.5846 C   0  0  0  0  0  0  0  0  0  0  0  0
   -0.5069    0.1127   -1.3197 C   0  0  0  0  0  0  0  0  0  0  0  0
    0.5378    0.2674   -0.4537 C   0  0  0  0  0  0  0  0  0  0  0  0
    0.7266    0.5576    0.7661 C   0  0  0  0  0  0  0  0  0  0  0  0
   -0.4628    0.7963    1.5018 C   0  0  0  0  0  0  0  0  0  0  0  0
   -1.6672    0.6843    0.7830 C   0  0  0  0  0  0  0  0  0  0  0  0
   -2.6489    0.2763   -1.1080 H   0  0  0  0  0  0  0  0  0  0  0  0
   -0.4856   -0.1446   -2.3745 H   0  0  0  0  0  0  0  0  0  0  0  0
    2.4576   -0.2123   -1.8534 N   0  0  0  0  0  0  0  0  0  0  0  0
    3.5397   -0.4192   -1.9270 N   0  0  0  0  0  0  0  0  0  0  0  0
   -2.6116    0.8605    1.3005 H   0  0  0  0  0  0  0  0  0  0  0  0
   -0.4597    1.0554    2.5609 H   0  0  0  0  0  0  0  0  0  0  0  0
    2.3110    0.7856    1.8109 H   0  0  0  0  0  0  0  0  0  0  0  0
    4.2131    1.2909    0.7916 O   0  0  0  0  0  0  0  0  0  0  0  0
    4.1589    1.2711    2.0090 N   0  0  0  0  0  0  0  0  0  0  0  0
    5.0327    1.5017    2.8081 O   0  0  0  0  0  0  0  0  0  0  0  0
    2.9424    0.9279    2.5760 O   0  0  0  0  0  0  0  0  0  0  0  0
  1  6  1  0  0  0  0
  2  1  2  0  0  0  0
  2  3  1  0  0  0  0
  3  4  2  0  0  0  0
  4  5  1  0  0  0  0
  5 12  1  0  0  0  0
  6 11  1  0  0  0  0
  6  5  2  0  0  0  0
  7  1  1  0  0  0  0
  8  2  1  0  0  0  0
 10  9  3  0  0  0  0
 13 17  1  0  0  0  0
 14 15  2  0  0  0  0
 15 17  1  0  0  0  0
 15 16  2  0  0  0  0
M  RAD  2   3   2   4   2
M  END
