Coordinates from ORCA-job Ph-N2-NO3-B3LYPG-aug-cc-pVDZ-scan-d09-49-n400
 OpenBabel10311713213D

 17 17  0  0  1  0  0  0  0  0999 V2000
   -0.7476   -0.3911   -0.2099 C   0  0  0  0  0  0  0  0  0  0  0  0
    0.2474    0.0063   -1.0516 C   0  0  0  0  0  0  0  0  0  0  0  0
    1.1460    1.0280   -0.6111 C   0  0  1  0  0  0  0  0  0  0  0  0
    1.1974    1.5790    0.7673 C   0  0  1  0  0  0  0  0  0  0  0  0
   -0.0146    1.1774    1.5367 C   0  0  0  0  0  0  0  0  0  0  0  0
   -0.8877    0.2453    1.0801 C   0  0  0  0  0  0  0  0  0  0  0  0
   -1.4474   -1.1678   -0.5119 H   0  0  0  0  0  0  0  0  0  0  0  0
    0.3718   -0.4234   -2.0445 H   0  0  0  0  0  0  0  0  0  0  0  0
    2.0635    1.5647   -1.5395 N   0  0  0  0  0  0  0  0  0  0  0  0
    2.8120    2.0022   -2.2690 N   0  0  0  0  0  0  0  0  0  0  0  0
   -1.7459   -0.0207    1.6993 H   0  0  0  0  0  0  0  0  0  0  0  0
   -0.1645    1.6661    2.4987 H   0  0  0  0  0  0  0  0  0  0  0  0
    1.3590    2.6648    0.7840 H   0  0  0  0  0  0  0  0  0  0  0  0
    2.5041    1.2622    1.5289 O   0  0  0  0  0  0  0  0  0  0  0  0
    2.8055   -0.0803    1.8042 N   0  0  0  0  0  0  0  0  0  0  0  0
    3.7830   -0.2072    2.5050 O   0  0  0  0  0  0  0  0  0  0  0  0
    2.1007   -0.9405    1.3205 O   0  0  0  0  0  0  0  0  0  0  0  0
  1  6  1  0  0  0  0
  2  3  1  0  0  0  0
  2  1  2  0  0  0  0
  3  9  1  1  0  0  0
  3  4  1  0  0  0  0
  4 13  1  6  0  0  0
  4 14  1  0  0  0  0
  4  5  1  0  0  0  0
  5 12  1  0  0  0  0
  6  5  2  0  0  0  0
  6 11  1  0  0  0  0
  7  1  1  0  0  0  0
  8  2  1  0  0  0  0
 10  9  1  0  0  0  0
 14 15  1  0  0  0  0
 15 16  2  0  0  0  0
 17 15  2  0  0  0  0
M  RAD  3   3   2   9   2  10   3
M  END
