Coordinates from ORCA-job Ph-N2-NO3-B3LYPG-aug-cc-pVDZ-scan-d09-49-n400
 OpenBabel10311713213D

 17 15  0  0  0  0  0  0  0  0999 V2000
   -1.7507    0.3068   -0.4997 C   0  0  0  0  0  0  0  0  0  0  0  0
   -0.5088    0.1311   -1.1641 C   0  0  0  0  0  0  0  0  0  0  0  0
    0.4737    0.3888   -0.2446 C   0  0  0  0  0  0  0  0  0  0  0  0
    0.5244    0.7232    0.9689 C   0  0  0  0  0  0  0  0  0  0  0  0
   -0.6953    0.9034    1.6536 C   0  0  0  0  0  0  0  0  0  0  0  0
   -1.8355    0.6782    0.8558 C   0  0  0  0  0  0  0  0  0  0  0  0
   -2.6657    0.1446   -1.0725 H   0  0  0  0  0  0  0  0  0  0  0  0
   -0.4117   -0.1542   -2.2075 H   0  0  0  0  0  0  0  0  0  0  0  0
    3.0465   -0.3050   -2.6603 N   0  0  0  0  0  0  0  0  0  0  0  0
    4.0883   -0.5905   -2.8885 N   0  0  0  0  0  0  0  0  0  0  0  0
   -2.8229    0.7965    1.3055 H   0  0  0  0  0  0  0  0  0  0  0  0
   -0.7752    1.1908    2.7013 H   0  0  0  0  0  0  0  0  0  0  0  0
    2.2870    1.0184    1.9396 H   0  0  0  0  0  0  0  0  0  0  0  0
    4.2481    0.9015    0.9279 O   0  0  0  0  0  0  0  0  0  0  0  0
    4.1865    1.1792    2.1110 N   0  0  0  0  0  0  0  0  0  0  0  0
    5.0787    1.4210    2.8839 O   0  0  0  0  0  0  0  0  0  0  0  0
    2.9153    1.2314    2.6769 O   0  0  0  0  0  0  0  0  0  0  0  0
  1  6  1  0  0  0  0
  2  1  2  0  0  0  0
  2  3  1  0  0  0  0
  3  4  2  0  0  0  0
  4  5  1  0  0  0  0
  5 12  1  0  0  0  0
  6 11  1  0  0  0  0
  6  5  2  0  0  0  0
  7  1  1  0  0  0  0
  8  2  1  0  0  0  0
 10  9  3  0  0  0  0
 13 17  1  0  0  0  0
 14 15  2  0  0  0  0
 15 17  1  0  0  0  0
 15 16  2  0  0  0  0
M  RAD  2   3   2   4   2
M  END
