Coordinates from ORCA-job Ph-N2-NO3-B3LYPG-aug-cc-pVDZ-scan-d09-49-n400
 OpenBabel10311713213D

 17 17  0  0  1  0  0  0  0  0999 V2000
   -0.7682   -0.3275   -0.2539 C   0  0  0  0  0  0  0  0  0  0  0  0
    0.2400    0.0215   -1.0778 C   0  0  0  0  0  0  0  0  0  0  0  0
    1.2545    1.0334   -0.6912 C   0  0  0  0  0  0  0  0  0  0  0  0
    1.2149    1.5634    0.7727 C   0  0  1  0  0  0  0  0  0  0  0  0
    0.0182    1.1271    1.5538 C   0  0  0  0  0  0  0  0  0  0  0  0
   -0.8933    0.2620    1.0693 C   0  0  0  0  0  0  0  0  0  0  0  0
   -1.4989   -1.0677   -0.5775 H   0  0  0  0  0  0  0  0  0  0  0  0
    0.3603   -0.4150   -2.0697 H   0  0  0  0  0  0  0  0  0  0  0  0
    1.9566    1.4003   -1.3342 N   0  0  0  0  0  0  0  0  0  0  0  0
    2.7662    1.8324   -2.0558 N   0  0  0  0  0  0  0  0  0  0  0  0
   -1.7537   -0.0096    1.6817 H   0  0  0  0  0  0  0  0  0  0  0  0
   -0.0866    1.5672    2.5458 H   0  0  0  0  0  0  0  0  0  0  0  0
    1.2779    2.6616    0.7317 H   0  0  0  0  0  0  0  0  0  0  0  0
    2.4870    1.3344    1.4890 O   0  0  0  0  0  0  0  0  0  0  0  0
    2.8375   -0.0214    1.7657 N   0  0  0  0  0  0  0  0  0  0  0  0
    3.7897   -0.1060    2.4963 O   0  0  0  0  0  0  0  0  0  0  0  0
    2.1807   -0.8911    1.2413 O   0  0  0  0  0  0  0  0  0  0  0  0
  1  6  1  0  0  0  0
  2  3  2  0  0  0  0
  2  1  1  0  0  0  0
  3  4  1  0  0  0  0
  4 13  1  6  0  0  0
  4 14  1  0  0  0  0
  4  5  1  0  0  0  0
  5 12  1  0  0  0  0
  6  5  2  0  0  0  0
  6 11  1  0  0  0  0
  7  1  1  0  0  0  0
  8  2  1  0  0  0  0
  9  3  1  0  0  0  0
 10  9  1  0  0  0  0
 14 15  1  0  0  0  0
 15 16  2  0  0  0  0
 17 15  2  0  0  0  0
M  RAD  3   1   2   9   2  10   3
M  END
