Coordinates from ORCA-job Ph-N2-NO3-B3LYPG-aug-cc-pVDZ-scan-d09-49-n400
 OpenBabel10311713213D

 17 15  0  0  0  0  0  0  0  0999 V2000
   -1.6854    0.3622   -0.5935 C   0  0  0  0  0  0  0  0  0  0  0  0
   -0.5018    0.1111   -1.3280 C   0  0  0  0  0  0  0  0  0  0  0  0
    0.5509    0.2523   -0.4677 C   0  0  0  0  0  0  0  0  0  0  0  0
    0.7507    0.5385    0.7548 C   0  0  0  0  0  0  0  0  0  0  0  0
   -0.4409    0.7869    1.4866 C   0  0  0  0  0  0  0  0  0  0  0  0
   -1.6496    0.6901    0.7746 C   0  0  0  0  0  0  0  0  0  0  0  0
   -2.6413    0.2960   -1.1153 H   0  0  0  0  0  0  0  0  0  0  0  0
   -0.4819   -0.1447   -2.3834 H   0  0  0  0  0  0  0  0  0  0  0  0
    2.4008   -0.2088   -1.7606 N   0  0  0  0  0  0  0  0  0  0  0  0
    3.4849   -0.4123   -1.8148 N   0  0  0  0  0  0  0  0  0  0  0  0
   -2.5897    0.8757    1.2965 H   0  0  0  0  0  0  0  0  0  0  0  0
   -0.4326    1.0439    2.5464 H   0  0  0  0  0  0  0  0  0  0  0  0
    2.3123    0.7399    1.7892 H   0  0  0  0  0  0  0  0  0  0  0  0
    4.1751    1.3949    0.7753 O   0  0  0  0  0  0  0  0  0  0  0  0
    4.1464    1.2848    1.9893 N   0  0  0  0  0  0  0  0  0  0  0  0
    5.0257    1.5024    2.7867 O   0  0  0  0  0  0  0  0  0  0  0  0
    2.9589    0.8520    2.5513 O   0  0  0  0  0  0  0  0  0  0  0  0
  1  6  1  0  0  0  0
  2  1  2  0  0  0  0
  2  3  1  0  0  0  0
  3  4  2  0  0  0  0
  4  5  1  0  0  0  0
  5 12  1  0  0  0  0
  6 11  1  0  0  0  0
  6  5  2  0  0  0  0
  7  1  1  0  0  0  0
  8  2  1  0  0  0  0
 10  9  3  0  0  0  0
 13 17  1  0  0  0  0
 14 15  2  0  0  0  0
 15 17  1  0  0  0  0
 15 16  2  0  0  0  0
M  RAD  2   3   2   4   2
M  END
