Coordinates from ORCA-job Ph-N2-NO3-B3LYPG-aug-cc-pVDZ-scan-d09-49-n400
 OpenBabel10311713213D

 17 17  0  0  1  0  0  0  0  0999 V2000
   -0.7478   -0.3952   -0.2077 C   0  0  0  0  0  0  0  0  0  0  0  0
    0.2453    0.0068   -1.0519 C   0  0  0  0  0  0  0  0  0  0  0  0
    1.1359    1.0277   -0.6055 C   0  0  1  0  0  0  0  0  0  0  0  0
    1.1951    1.5808    0.7663 C   0  0  1  0  0  0  0  0  0  0  0  0
   -0.0166    1.1796    1.5349 C   0  0  0  0  0  0  0  0  0  0  0  0
   -0.8870    0.2424    1.0805 C   0  0  0  0  0  0  0  0  0  0  0  0
   -1.4452   -1.1743   -0.5085 H   0  0  0  0  0  0  0  0  0  0  0  0
    0.3700   -0.4204   -2.0457 H   0  0  0  0  0  0  0  0  0  0  0  0
    2.0714    1.5760   -1.5551 N   0  0  0  0  0  0  0  0  0  0  0  0
    2.8186    2.0119   -2.2839 N   0  0  0  0  0  0  0  0  0  0  0  0
   -1.7437   -0.0244    1.7014 H   0  0  0  0  0  0  0  0  0  0  0  0
   -0.1691    1.6708    2.4952 H   0  0  0  0  0  0  0  0  0  0  0  0
    1.3649    2.6649    0.7867 H   0  0  0  0  0  0  0  0  0  0  0  0
    2.5079    1.2575    1.5313 O   0  0  0  0  0  0  0  0  0  0  0  0
    2.8055   -0.0831    1.8082 N   0  0  0  0  0  0  0  0  0  0  0  0
    3.7844   -0.2133    2.5072 O   0  0  0  0  0  0  0  0  0  0  0  0
    2.0931   -0.9428    1.3337 O   0  0  0  0  0  0  0  0  0  0  0  0
  1  6  1  0  0  0  0
  2  3  1  0  0  0  0
  2  1  2  0  0  0  0
  3  9  1  1  0  0  0
  3  4  1  0  0  0  0
  4 13  1  6  0  0  0
  4 14  1  0  0  0  0
  4  5  1  0  0  0  0
  5 12  1  0  0  0  0
  6  5  2  0  0  0  0
  6 11  1  0  0  0  0
  7  1  1  0  0  0  0
  8  2  1  0  0  0  0
 10  9  1  0  0  0  0
 14 15  1  0  0  0  0
 15 16  2  0  0  0  0
 17 15  2  0  0  0  0
M  RAD  3   3   2   9   2  10   3
M  END
