Coordinates from ORCA-job Ph-N2-NO3-B3LYPG-aug-cc-pVDZ-scan-d09-49-n400
 OpenBabel10311713213D

 17 15  0  0  0  0  0  0  0  0999 V2000
   -1.6924    0.3556   -0.5868 C   0  0  0  0  0  0  0  0  0  0  0  0
   -0.5059    0.1125   -1.3223 C   0  0  0  0  0  0  0  0  0  0  0  0
    0.5407    0.2637   -0.4578 C   0  0  0  0  0  0  0  0  0  0  0  0
    0.7322    0.5527    0.7626 C   0  0  0  0  0  0  0  0  0  0  0  0
   -0.4572    0.7935    1.4981 C   0  0  0  0  0  0  0  0  0  0  0  0
   -1.6628    0.6853    0.7810 C   0  0  0  0  0  0  0  0  0  0  0  0
   -2.6473    0.2812   -1.1096 H   0  0  0  0  0  0  0  0  0  0  0  0
   -0.4854   -0.1441   -2.3773 H   0  0  0  0  0  0  0  0  0  0  0  0
    2.4433   -0.2111   -1.8305 N   0  0  0  0  0  0  0  0  0  0  0  0
    3.5260   -0.4177   -1.8978 N   0  0  0  0  0  0  0  0  0  0  0  0
   -2.6061    0.8636    1.2997 H   0  0  0  0  0  0  0  0  0  0  0  0
   -0.4526    1.0518    2.5574 H   0  0  0  0  0  0  0  0  0  0  0  0
    2.3115    0.7757    1.8052 H   0  0  0  0  0  0  0  0  0  0  0  0
    4.2058    1.3145    0.7871 O   0  0  0  0  0  0  0  0  0  0  0  0
    4.1558    1.2765    2.0043 N   0  0  0  0  0  0  0  0  0  0  0  0
    5.0314    1.5003    2.8035 O   0  0  0  0  0  0  0  0  0  0  0  0
    2.9457    0.9110    2.5702 O   0  0  0  0  0  0  0  0  0  0  0  0
  1  6  1  0  0  0  0
  2  1  2  0  0  0  0
  2  3  1  0  0  0  0
  3  4  2  0  0  0  0
  4  5  1  0  0  0  0
  5 12  1  0  0  0  0
  6 11  1  0  0  0  0
  6  5  2  0  0  0  0
  7  1  1  0  0  0  0
  8  2  1  0  0  0  0
 10  9  3  0  0  0  0
 13 17  1  0  0  0  0
 14 15  2  0  0  0  0
 15 17  1  0  0  0  0
 15 16  2  0  0  0  0
M  RAD  2   3   2   4   2
M  END
