21
Coordinates from ORCA-job p-NO2-Ph-N2-HSO4-B3LYPG-aug-cc-pVDZ-scan-d09-49-n400
  C   2.19209378426983     -0.28148220864122      0.19435901876025
  C   1.77209521886895      0.98706197842932      0.83379519403620
  C   1.64030930945669      2.03621516794670     -0.18030219667836
  C   1.45216461540387      1.82427374424008     -1.57163517679116
  C   1.62873338869651      0.56088729457262     -2.06474693703798
  C   2.04966575837454     -0.45662017674330     -1.14556612306469
  H   2.56702087784515     -1.08616375773627      0.81966989697433
  H   2.37110615142394      1.26369339350539      1.70288591109114
  H   1.18901962168983      2.65698125168437     -2.22120340950779
  H   1.50105214818452      0.32626538787855     -3.11567837505330
  N   2.40135009587520     -1.78891197841690     -1.70918278198833
  O   2.83836352350067     -2.64320075325484     -0.94582306812178
  O   2.22330238858691     -1.95073029493470     -2.91247688499022
  N   1.59606874723905      3.42620519935283      0.30039784791561
  N   1.56553369336585      4.49065421097998      0.65676736208141
  S   0.01397691672982      1.27112103332268      2.92236042038667
  O   0.89702309576055      0.29299190822885      3.92687419724692
  H   0.35875522496504     -0.49743908039180      4.10334357079022
  O   0.34161459926138      0.65287552533894      1.46049561098463
  O   -1.41339733545873      1.03768278609742      3.18086517447358
  O   0.65174817596047      2.59303936854125      3.05700074849268
