21
Coordinates from ORCA-job p-NO2-Ph-N2-HSO4-B3LYPG-aug-cc-pVDZ-scan-d09-49-n400
  C   2.67818705738130     -0.39368721426168      0.06934389023570
  C   2.32560425074040      0.78188422892595      0.74915980426851
  C   1.64287313080324      1.65614692658537     -0.04128342035865
  C   1.23940157184253      1.61778566349804     -1.34839477675545
  C   1.60822082488916      0.42566206008823     -1.98847438238590
  C   2.31747381140093     -0.54167290598623     -1.27207290610317
  H   3.21381323868628     -1.18815301522743      0.58304747836824
  H   2.50971394323254      0.96908167470687      1.80522005195889
  H   0.67522076530705      2.40346357345911     -1.84145175768682
  H   1.34288619446913      0.25094689279815     -3.02840583594911
  N   2.70100259930150     -1.79148501997368     -1.97328753320671
  O   3.33584278483683     -2.62205965363688     -1.33496759779884
  O   2.36401737061570     -1.90345131343781     -3.14670601885920
  N   1.30006521879247      3.29278659834577      0.77874681857752
  N   1.13001569615573      4.38640783640095      0.73260475036830
  S   -0.18199320229902      1.61855921662355      2.89108110691571
  O   0.32952406484003      0.02724505509645      3.17041290474160
  H   0.02913742969871     -0.18263010886499      4.06806780885507
  O   -0.71151226051412      1.56792846446438      1.48835418008103
  O   -1.13087466976632      1.91925461180733      3.98988642737654
  O   1.11898017958597      2.42138642858854      2.94131900735677
