21
Coordinates from ORCA-job p-NO2-Ph-N2-HSO4-B3LYPG-aug-cc-pVDZ-scan-d09-49-n400
  C   2.61044868701664     -0.42744810453015      0.05549648064803
  C   2.22696688174563      0.72498954161590      0.74260133568813
  C   1.60622467003239      1.72077900206970      0.00108419543648
  C   1.32765893988868      1.65065064561757     -1.36760379010085
  C   1.70862743934808      0.48995897754708     -2.03358680787344
  C   2.34563547338877     -0.52085559900255     -1.31009302299562
  H   3.09577861298474     -1.25112588060254      0.57180052606304
  H   2.36715783272017      0.85041891968382      1.81247332797172
  H   0.82283033625023      2.46201132710238     -1.88624435964209
  H   1.51652348674391      0.36054792083573     -3.09543604808779
  N   2.75448706922919     -1.75392899829722     -2.03269178078584
  O   3.32027539967461     -2.62415786368856     -1.38310891066146
  O   2.50145909789193     -1.81178445767334     -3.23065905431273
  N   1.22443121873535      2.99884269208009      0.64567075834569
  N   0.96526577888500      4.08122813112522      0.57288005550881
  S   -0.20259381839783      1.67005590773929      2.99177109547922
  O   0.28875543539057      0.08251414925760      3.30512214532475
  H   0.09598361957823     -0.06590218408695      4.24377156855127
  O   -0.92392239925961      1.57143364839420      1.68744472574113
  O   -0.94795152375932      2.09432507263282      4.20059666398838
  O   1.13355776191267      2.41284715217989      2.80091089571321
