Coordinates from ORCA-job p-CH3O-Ph-N2-OOCH-B3LYPG-aug-cc-pVDZ-scan-d09-49-n400
 OpenBabel11081710393D

 21 21  0  0  1  0  0  0  0  0999 V2000
   11.5820    7.7454   -1.3130 C   0  0  0  0  0  0  0  0  0  0  0  0
   10.3718    7.0719   -1.0107 C   0  0  0  0  0  0  0  0  0  0  0  0
   10.6021    6.0575   -0.0717 C   0  0  1  0  0  0  0  0  0  0  0  0
   11.0864    4.7616   -0.4202 C   0  0  2  0  0  0  0  0  0  0  0  0
   12.1056    5.9300    0.0719 C   0  0  1  0  0  0  0  0  0  0  0  0
   12.6254    7.0293   -0.7219 C   0  0  0  0  0  0  0  0  0  0  0  0
   11.6784    8.6035   -1.9734 H   0  0  0  0  0  0  0  0  0  0  0  0
    9.4418    7.1921   -1.5639 H   0  0  0  0  0  0  0  0  0  0  0  0
   11.1491    3.9359    0.2894 H   0  0  0  0  0  0  0  0  0  0  0  0
   12.6341    5.6234    0.9721 H   0  0  0  0  0  0  0  0  0  0  0  0
    9.2179    5.9154    1.4648 N   0  0  0  0  0  0  0  0  0  0  0  0
    9.5417    6.0791    2.5196 N   0  0  0  0  0  0  0  0  0  0  0  0
   13.9371    7.3385   -0.6392 O   0  0  0  0  0  0  0  0  0  0  0  0
   14.3393    8.5770   -1.2276 C   0  0  0  0  0  0  0  0  0  0  0  0
   15.4056    8.6851   -1.0087 H   0  0  0  0  0  0  0  0  0  0  0  0
   13.7768    9.4141   -0.7875 H   0  0  0  0  0  0  0  0  0  0  0  0
   14.1847    8.5591   -2.3165 H   0  0  0  0  0  0  0  0  0  0  0  0
   12.1032    2.3831   -1.2798 O   0  0  0  0  0  0  0  0  0  0  0  0
   11.5261    3.1062   -2.0494 C   0  0  0  0  0  0  0  0  0  0  0  0
   10.9776    4.3133   -1.7563 O   0  0  0  0  0  0  0  0  0  0  0  0
   11.3522    2.8894   -3.1170 H   0  0  0  0  0  0  0  0  0  0  0  0
  1  2  1  0  0  0  0
  1  6  2  0  0  0  0
  3  2  1  6  0  0  0
  3  5  1  0  0  0  0
  4  3  1  0  0  0  0
  4  5  1  0  0  0  0
  4  9  1  1  0  0  0
  5 10  1  1  0  0  0
  6 13  1  0  0  0  0
  6  5  1  0  0  0  0
  7  1  1  0  0  0  0
  8  2  1  0  0  0  0
 11 12  3  0  0  0  0
 14 15  1  0  0  0  0
 14 16  1  0  0  0  0
 14 13  1  0  0  0  0
 17 14  1  0  0  0  0
 19 20  1  0  0  0  0
 19 18  2  0  0  0  0
 20  4  1  0  0  0  0
 21 19  1  0  0  0  0
M  RAD  2   2   2   3   2
M  END
