Coordinates from ORCA-job p-CH3O-Ph-N2-OOCH-B3LYPG-aug-cc-pVDZ-scan-d09-49-n400
 OpenBabel11081710393D

 21 21  0  0  1  0  0  0  0  0999 V2000
   11.7090    7.8179   -1.3715 C   0  0  0  0  0  0  0  0  0  0  0  0
   10.5049    7.1458   -1.0354 C   0  0  0  0  0  0  0  0  0  0  0  0
   10.7648    6.1404   -0.1026 C   0  0  1  0  0  0  0  0  0  0  0  0
   11.1865    4.8255   -0.4426 C   0  0  2  0  0  0  0  0  0  0  0  0
   12.2630    6.0064    0.0041 C   0  0  1  0  0  0  0  0  0  0  0  0
   12.7646    7.0890   -0.8149 C   0  0  0  0  0  0  0  0  0  0  0  0
   11.7928    8.6733   -2.0369 H   0  0  0  0  0  0  0  0  0  0  0  0
    9.5669    7.2496   -1.5781 H   0  0  0  0  0  0  0  0  0  0  0  0
   11.2831    4.0114    0.2749 H   0  0  0  0  0  0  0  0  0  0  0  0
   12.8203    5.6856    0.8813 H   0  0  0  0  0  0  0  0  0  0  0  0
    8.1850    5.3319    2.1929 N   0  0  0  0  0  0  0  0  0  0  0  0
    8.5041    5.7315    3.1715 N   0  0  0  0  0  0  0  0  0  0  0  0
   14.0846    7.3785   -0.7964 O   0  0  0  0  0  0  0  0  0  0  0  0
   14.4767    8.6088   -1.4071 C   0  0  0  0  0  0  0  0  0  0  0  0
   15.5533    8.7029   -1.2372 H   0  0  0  0  0  0  0  0  0  0  0  0
   13.9470    9.4559   -0.9459 H   0  0  0  0  0  0  0  0  0  0  0  0
   14.2731    8.5902   -2.4881 H   0  0  0  0  0  0  0  0  0  0  0  0
   12.0813    2.3852   -1.2807 O   0  0  0  0  0  0  0  0  0  0  0  0
   11.5229    3.1227   -2.0501 C   0  0  0  0  0  0  0  0  0  0  0  0
   11.0369    4.3599   -1.7659 O   0  0  0  0  0  0  0  0  0  0  0  0
   11.3178    2.8985   -3.1105 H   0  0  0  0  0  0  0  0  0  0  0  0
  1  2  1  0  0  0  0
  1  6  2  0  0  0  0
  3  2  1  6  0  0  0
  3  5  1  0  0  0  0
  4  3  1  0  0  0  0
  4  5  1  0  0  0  0
  4  9  1  1  0  0  0
  5 10  1  1  0  0  0
  6 13  1  0  0  0  0
  6  5  1  0  0  0  0
  7  1  1  0  0  0  0
  8  2  1  0  0  0  0
 11 12  3  0  0  0  0
 14 15  1  0  0  0  0
 14 16  1  0  0  0  0
 14 13  1  0  0  0  0
 17 14  1  0  0  0  0
 19 20  1  0  0  0  0
 19 18  2  0  0  0  0
 20  4  1  0  0  0  0
 21 19  1  0  0  0  0
M  RAD  2   2   2   3   2
M  END
