Coordinates from ORCA-job p-CH3O-Ph-N2-OOCH-B3LYPG-aug-cc-pVDZ-scan-d09-49-n400
 OpenBabel11081710393D

 21 21  0  0  1  0  0  0  0  0999 V2000
   11.7329    7.8313   -1.3790 C   0  0  0  0  0  0  0  0  0  0  0  0
   10.5297    7.1657   -1.0272 C   0  0  0  0  0  0  0  0  0  0  0  0
   10.7956    6.1625   -0.0936 C   0  0  1  0  0  0  0  0  0  0  0  0
   11.2075    4.8443   -0.4338 C   0  0  2  0  0  0  0  0  0  0  0  0
   12.2942    6.0222   -0.0031 C   0  0  1  0  0  0  0  0  0  0  0  0
   12.7914    7.0996   -0.8315 C   0  0  0  0  0  0  0  0  0  0  0  0
   11.8132    8.6840   -2.0483 H   0  0  0  0  0  0  0  0  0  0  0  0
    9.5862    7.2718   -1.5599 H   0  0  0  0  0  0  0  0  0  0  0  0
   11.3089    4.0322    0.2853 H   0  0  0  0  0  0  0  0  0  0  0  0
   12.8595    5.7021    0.8692 H   0  0  0  0  0  0  0  0  0  0  0  0
    7.9677    5.2096    2.2868 N   0  0  0  0  0  0  0  0  0  0  0  0
    8.3370    5.6289    3.2392 N   0  0  0  0  0  0  0  0  0  0  0  0
   14.1129    7.3831   -0.8289 O   0  0  0  0  0  0  0  0  0  0  0  0
   14.5036    8.6094   -1.4484 C   0  0  0  0  0  0  0  0  0  0  0  0
   15.5824    8.6992   -1.2909 H   0  0  0  0  0  0  0  0  0  0  0  0
   13.9829    9.4605   -0.9843 H   0  0  0  0  0  0  0  0  0  0  0  0
   14.2878    8.5880   -2.5270 H   0  0  0  0  0  0  0  0  0  0  0  0
   12.0842    2.3983   -1.2741 O   0  0  0  0  0  0  0  0  0  0  0  0
   11.5194    3.1350   -2.0394 C   0  0  0  0  0  0  0  0  0  0  0  0
   11.0409    4.3749   -1.7537 O   0  0  0  0  0  0  0  0  0  0  0  0
   11.3009    2.9080   -3.0965 H   0  0  0  0  0  0  0  0  0  0  0  0
  1  2  1  0  0  0  0
  1  6  2  0  0  0  0
  3  2  1  6  0  0  0
  3  5  1  0  0  0  0
  4  3  1  0  0  0  0
  4  5  1  0  0  0  0
  4  9  1  1  0  0  0
  5 10  1  1  0  0  0
  6 13  1  0  0  0  0
  6  5  1  0  0  0  0
  7  1  1  0  0  0  0
  8  2  1  0  0  0  0
 11 12  3  0  0  0  0
 14 15  1  0  0  0  0
 14 16  1  0  0  0  0
 14 13  1  0  0  0  0
 17 14  1  0  0  0  0
 19 20  1  0  0  0  0
 19 18  2  0  0  0  0
 20  4  1  0  0  0  0
 21 19  1  0  0  0  0
M  RAD  2   2   2   3   2
M  END
