Coordinates from ORCA-job p-CH3O-Ph-N2-OOCH-B3LYPG-aug-cc-pVDZ-scan-d09-49-n400
 OpenBabel11081710393D

 21 21  0  0  1  0  0  0  0  0999 V2000
   11.6220    7.7723   -1.3316 C   0  0  0  0  0  0  0  0  0  0  0  0
   10.4161    7.0841   -1.0363 C   0  0  0  0  0  0  0  0  0  0  0  0
   10.6582    6.0721   -0.1057 C   0  0  1  0  0  0  0  0  0  0  0  0
   11.1115    4.7686   -0.4461 C   0  0  2  0  0  0  0  0  0  0  0  0
   12.1563    5.9527    0.0411 C   0  0  1  0  0  0  0  0  0  0  0  0
   12.6693    7.0513   -0.7510 C   0  0  0  0  0  0  0  0  0  0  0  0
   11.7146    8.6355   -1.9856 H   0  0  0  0  0  0  0  0  0  0  0  0
    9.4924    7.1868   -1.6032 H   0  0  0  0  0  0  0  0  0  0  0  0
   11.1936    3.9485    0.2671 H   0  0  0  0  0  0  0  0  0  0  0  0
   12.6925    5.6315    0.9315 H   0  0  0  0  0  0  0  0  0  0  0  0
    8.9113    5.7883    1.7359 N   0  0  0  0  0  0  0  0  0  0  0  0
    9.2209    6.0083    2.7754 N   0  0  0  0  0  0  0  0  0  0  0  0
   13.9838    7.3585   -0.6843 O   0  0  0  0  0  0  0  0  0  0  0  0
   14.3790    8.6005   -1.2687 C   0  0  0  0  0  0  0  0  0  0  0  0
   15.4479    8.7071   -1.0622 H   0  0  0  0  0  0  0  0  0  0  0  0
   13.8226    9.4353   -0.8164 H   0  0  0  0  0  0  0  0  0  0  0  0
   14.2114    8.5909   -2.3560 H   0  0  0  0  0  0  0  0  0  0  0  0
   12.0703    2.3527   -1.2812 O   0  0  0  0  0  0  0  0  0  0  0  0
   11.5183    3.0865   -2.0587 C   0  0  0  0  0  0  0  0  0  0  0  0
   11.0023    4.3118   -1.7771 O   0  0  0  0  0  0  0  0  0  0  0  0
   11.3443    2.8674   -3.1258 H   0  0  0  0  0  0  0  0  0  0  0  0
  1  2  1  0  0  0  0
  1  6  2  0  0  0  0
  3  2  1  6  0  0  0
  3  5  1  0  0  0  0
  4  3  1  0  0  0  0
  4  5  1  0  0  0  0
  4  9  1  1  0  0  0
  5 10  1  1  0  0  0
  6 13  1  0  0  0  0
  6  5  1  0  0  0  0
  7  1  1  0  0  0  0
  8  2  1  0  0  0  0
 11 12  3  0  0  0  0
 14 15  1  0  0  0  0
 14 16  1  0  0  0  0
 14 13  1  0  0  0  0
 17 14  1  0  0  0  0
 19 20  1  0  0  0  0
 19 18  2  0  0  0  0
 20  4  1  0  0  0  0
 21 19  1  0  0  0  0
M  RAD  2   2   2   3   2
M  END
