Coordinates from ORCA-job p-CH3O-Ph-N2-OOCH-B3LYPG-aug-cc-pVDZ-scan-d09-49-n400
 OpenBabel11081710393D

 21 21  0  0  1  0  0  0  0  0999 V2000
   11.6779    7.8028   -1.3668 C   0  0  0  0  0  0  0  0  0  0  0  0
   10.4707    7.1252   -1.0532 C   0  0  0  0  0  0  0  0  0  0  0  0
   10.7174    6.1195   -0.1173 C   0  0  1  0  0  0  0  0  0  0  0  0
   11.1512    4.8073   -0.4511 C   0  0  2  0  0  0  0  0  0  0  0  0
   12.2145    5.9914    0.0157 C   0  0  1  0  0  0  0  0  0  0  0  0
   12.7263    7.0776   -0.7924 C   0  0  0  0  0  0  0  0  0  0  0  0
   11.7700    8.6595   -2.0295 H   0  0  0  0  0  0  0  0  0  0  0  0
    9.5430    7.2272   -1.6137 H   0  0  0  0  0  0  0  0  0  0  0  0
   11.2381    3.9929    0.2675 H   0  0  0  0  0  0  0  0  0  0  0  0
   12.7576    5.6718    0.9023 H   0  0  0  0  0  0  0  0  0  0  0  0
    8.4668    5.5033    2.0516 N   0  0  0  0  0  0  0  0  0  0  0  0
    8.7857    5.8093    3.0639 N   0  0  0  0  0  0  0  0  0  0  0  0
   14.0445    7.3727   -0.7490 O   0  0  0  0  0  0  0  0  0  0  0  0
   14.4424    8.6056   -1.3505 C   0  0  0  0  0  0  0  0  0  0  0  0
   15.5152    8.7042   -1.1606 H   0  0  0  0  0  0  0  0  0  0  0  0
   13.9005    9.4497   -0.8978 H   0  0  0  0  0  0  0  0  0  0  0  0
   14.2588    8.5879   -2.4351 H   0  0  0  0  0  0  0  0  0  0  0  0
   12.0706    2.3712   -1.2749 O   0  0  0  0  0  0  0  0  0  0  0  0
   11.5214    3.1062   -2.0531 C   0  0  0  0  0  0  0  0  0  0  0  0
   11.0268    4.3419   -1.7771 O   0  0  0  0  0  0  0  0  0  0  0  0
   11.3394    2.8836   -3.1181 H   0  0  0  0  0  0  0  0  0  0  0  0
  1  2  1  0  0  0  0
  1  6  2  0  0  0  0
  3  2  1  6  0  0  0
  3  5  1  0  0  0  0
  4  3  1  0  0  0  0
  4  5  1  0  0  0  0
  4  9  1  1  0  0  0
  5 10  1  1  0  0  0
  6 13  1  0  0  0  0
  6  5  1  0  0  0  0
  7  1  1  0  0  0  0
  8  2  1  0  0  0  0
 11 12  3  0  0  0  0
 14 15  1  0  0  0  0
 14 16  1  0  0  0  0
 14 13  1  0  0  0  0
 17 14  1  0  0  0  0
 19 20  1  0  0  0  0
 19 18  2  0  0  0  0
 20  4  1  0  0  0  0
 21 19  1  0  0  0  0
M  RAD  2   2   2   3   2
M  END
