Coordinates from ORCA-job p-CH3O-Ph-N2-OOCH-B3LYPG-aug-cc-pVDZ-scan-d09-49-n400
 OpenBabel11081710393D

 21 21  0  0  1  0  0  0  0  0999 V2000
   11.6472    7.7869   -1.3540 C   0  0  0  0  0  0  0  0  0  0  0  0
   10.4392    7.1047   -1.0546 C   0  0  0  0  0  0  0  0  0  0  0  0
   10.6780    6.0984   -0.1170 C   0  0  1  0  0  0  0  0  0  0  0  0
   11.1225    4.7898   -0.4504 C   0  0  2  0  0  0  0  0  0  0  0  0
   12.1751    5.9749    0.0310 C   0  0  1  0  0  0  0  0  0  0  0  0
   12.6918    7.0650   -0.7688 C   0  0  0  0  0  0  0  0  0  0  0  0
   11.7433    8.6450   -2.0143 H   0  0  0  0  0  0  0  0  0  0  0  0
    9.5165    7.2051   -1.6237 H   0  0  0  0  0  0  0  0  0  0  0  0
   11.2038    3.9735    0.2669 H   0  0  0  0  0  0  0  0  0  0  0  0
   12.7104    5.6552    0.9223 H   0  0  0  0  0  0  0  0  0  0  0  0
    8.7281    5.6686    1.8812 N   0  0  0  0  0  0  0  0  0  0  0  0
    9.0530    5.8858    2.9150 N   0  0  0  0  0  0  0  0  0  0  0  0
   14.0079    7.3662   -0.7077 O   0  0  0  0  0  0  0  0  0  0  0  0
   14.4079    8.6021   -1.3018 C   0  0  0  0  0  0  0  0  0  0  0  0
   15.4777    8.7050   -1.0981 H   0  0  0  0  0  0  0  0  0  0  0  0
   13.8565    9.4428   -0.8544 H   0  0  0  0  0  0  0  0  0  0  0  0
   14.2382    8.5856   -2.3887 H   0  0  0  0  0  0  0  0  0  0  0  0
   12.0632    2.3610   -1.2706 O   0  0  0  0  0  0  0  0  0  0  0  0
   11.5192    3.0955   -2.0530 C   0  0  0  0  0  0  0  0  0  0  0  0
   11.0135    4.3270   -1.7788 O   0  0  0  0  0  0  0  0  0  0  0  0
   11.3458    2.8728   -3.1194 H   0  0  0  0  0  0  0  0  0  0  0  0
  1  2  1  0  0  0  0
  1  6  2  0  0  0  0
  3  2  1  6  0  0  0
  3  5  1  0  0  0  0
  4  3  1  0  0  0  0
  4  5  1  0  0  0  0
  4  9  1  1  0  0  0
  5 10  1  1  0  0  0
  6 13  1  0  0  0  0
  6  5  1  0  0  0  0
  7  1  1  0  0  0  0
  8  2  1  0  0  0  0
 11 12  3  0  0  0  0
 14 15  1  0  0  0  0
 14 16  1  0  0  0  0
 14 13  1  0  0  0  0
 17 14  1  0  0  0  0
 19 20  1  0  0  0  0
 19 18  2  0  0  0  0
 20  4  1  0  0  0  0
 21 19  1  0  0  0  0
M  RAD  2   2   2   3   2
M  END
