Coordinates from ORCA-job p-CH3O-Ph-N2-OOCH-B3LYPG-aug-cc-pVDZ-scan-d09-49-n400
 OpenBabel11081710393D

 21 21  0  0  1  0  0  0  0  0999 V2000
   11.7922    7.5418   -1.0966 C   0  0  0  0  0  0  0  0  0  0  0  0
   10.5278    7.1113   -0.7793 C   0  0  0  0  0  0  0  0  0  0  0  0
   10.4736    6.1325    0.2289 C   0  0  2  0  0  0  0  0  0  0  0  0
   11.3773    5.0154    0.3829 C   0  0  2  0  0  0  0  0  0  0  0  0
   12.6992    5.6786    0.2409 C   0  0  0  0  0  0  0  0  0  0  0  0
   12.8931    6.8081   -0.5221 C   0  0  0  0  0  0  0  0  0  0  0  0
   11.9343    8.4009   -1.7433 H   0  0  0  0  0  0  0  0  0  0  0  0
    9.6337    7.5866   -1.1739 H   0  0  0  0  0  0  0  0  0  0  0  0
   11.2680    4.4550    1.3128 H   0  0  0  0  0  0  0  0  0  0  0  0
   13.5615    5.1681    0.6658 H   0  0  0  0  0  0  0  0  0  0  0  0
    8.7071    5.4564    0.2912 N   0  0  0  0  0  0  0  0  0  0  0  0
    7.7016    5.1951    0.6797 N   0  0  0  0  0  0  0  0  0  0  0  0
   14.1871    7.2030   -0.6781 O   0  0  0  0  0  0  0  0  0  0  0  0
   14.4715    8.3651   -1.4555 C   0  0  0  0  0  0  0  0  0  0  0  0
   15.5589    8.4810   -1.4199 H   0  0  0  0  0  0  0  0  0  0  0  0
   13.9949    9.2592   -1.0269 H   0  0  0  0  0  0  0  0  0  0  0  0
   14.1532    8.2344   -2.4999 H   0  0  0  0  0  0  0  0  0  0  0  0
   11.1696    4.8051   -2.5766 O   0  0  0  0  0  0  0  0  0  0  0  0
   11.1789    3.8063   -1.8883 C   0  0  0  0  0  0  0  0  0  0  0  0
   11.2222    3.7229   -0.5634 O   0  0  0  0  0  0  0  0  0  0  0  0
   11.1330    2.7841   -2.3175 H   0  0  0  0  0  0  0  0  0  0  0  0
  1  2  2  0  0  0  0
  1  6  1  0  0  0  0
  2  3  1  0  0  0  0
  3 11  1  6  0  0  0
  3  4  1  0  0  0  0
  4  9  1  1  0  0  0
  5  4  1  0  0  0  0
  5 10  1  0  0  0  0
  6  5  2  0  0  0  0
  7  1  1  0  0  0  0
  8  2  1  0  0  0  0
 11 12  1  0  0  0  0
 13  6  1  0  0  0  0
 14 15  1  0  0  0  0
 14 16  1  0  0  0  0
 14 13  1  0  0  0  0
 17 14  1  0  0  0  0
 18 19  2  0  0  0  0
 19 20  1  0  0  0  0
 20  4  1  0  0  0  0
 21 19  1  0  0  0  0
M  RAD  3   3   2  11   2  12   3
M  END
