Coordinates from ORCA-job p-CH3O-Ph-N2-OOCH-B3LYPG-aug-cc-pVDZ-scan-d09-49-n400
 OpenBabel11081710393D

 21 21  0  0  1  0  0  0  0  0999 V2000
   11.5799    7.7435   -1.3124 C   0  0  0  0  0  0  0  0  0  0  0  0
   10.3694    7.0712   -1.0095 C   0  0  0  0  0  0  0  0  0  0  0  0
   10.5993    6.0561   -0.0700 C   0  0  1  0  0  0  0  0  0  0  0  0
   11.0869    4.7610   -0.4192 C   0  0  2  0  0  0  0  0  0  0  0  0
   12.1032    5.9290    0.0738 C   0  0  1  0  0  0  0  0  0  0  0  0
   12.6233    7.0286   -0.7199 C   0  0  0  0  0  0  0  0  0  0  0  0
   11.6762    8.6012   -1.9733 H   0  0  0  0  0  0  0  0  0  0  0  0
    9.4387    7.1934   -1.5610 H   0  0  0  0  0  0  0  0  0  0  0  0
   11.1486    3.9349    0.2901 H   0  0  0  0  0  0  0  0  0  0  0  0
   12.6308    5.6239    0.9750 H   0  0  0  0  0  0  0  0  0  0  0  0
    9.2375    5.9210    1.4467 N   0  0  0  0  0  0  0  0  0  0  0  0
    9.5621    6.0841    2.5026 N   0  0  0  0  0  0  0  0  0  0  0  0
   13.9346    7.3388   -0.6354 O   0  0  0  0  0  0  0  0  0  0  0  0
   14.3368    8.5771   -1.2243 C   0  0  0  0  0  0  0  0  0  0  0  0
   15.4027    8.6859   -1.0043 H   0  0  0  0  0  0  0  0  0  0  0  0
   13.7733    9.4142   -0.7855 H   0  0  0  0  0  0  0  0  0  0  0  0
   14.1834    8.5582   -2.3134 H   0  0  0  0  0  0  0  0  0  0  0  0
   12.0983    2.3803   -1.2785 O   0  0  0  0  0  0  0  0  0  0  0  0
   11.5264    3.1065   -2.0492 C   0  0  0  0  0  0  0  0  0  0  0  0
   10.9784    4.3136   -1.7557 O   0  0  0  0  0  0  0  0  0  0  0  0
   11.3489    2.8882   -3.1158 H   0  0  0  0  0  0  0  0  0  0  0  0
  1  2  1  0  0  0  0
  1  6  2  0  0  0  0
  3  2  1  6  0  0  0
  3  5  1  0  0  0  0
  4  3  1  0  0  0  0
  4  5  1  0  0  0  0
  4  9  1  1  0  0  0
  5 10  1  1  0  0  0
  6 13  1  0  0  0  0
  6  5  1  0  0  0  0
  7  1  1  0  0  0  0
  8  2  1  0  0  0  0
 11 12  3  0  0  0  0
 14 15  1  0  0  0  0
 14 16  1  0  0  0  0
 14 13  1  0  0  0  0
 17 14  1  0  0  0  0
 19 20  1  0  0  0  0
 19 18  2  0  0  0  0
 20  4  1  0  0  0  0
 21 19  1  0  0  0  0
M  RAD  2   2   2   3   2
M  END
