Coordinates from ORCA-job p-CH3O-Ph-N2-OOCH-B3LYPG-aug-cc-pVDZ-scan-d09-49-n400
 OpenBabel11081710393D

 21 21  0  0  1  0  0  0  0  0999 V2000
   11.7590    7.8475   -1.3875 C   0  0  0  0  0  0  0  0  0  0  0  0
   10.5560    7.1888   -1.0205 C   0  0  0  0  0  0  0  0  0  0  0  0
   10.8280    6.1883   -0.0880 C   0  0  1  0  0  0  0  0  0  0  0  0
   11.2275    4.8662   -0.4240 C   0  0  2  0  0  0  0  0  0  0  0  0
   12.3257    6.0416   -0.0106 C   0  0  1  0  0  0  0  0  0  0  0  0
   12.8198    7.1129   -0.8486 C   0  0  0  0  0  0  0  0  0  0  0  0
   11.8362    8.6973   -2.0610 H   0  0  0  0  0  0  0  0  0  0  0  0
    9.6071    7.2962   -1.5432 H   0  0  0  0  0  0  0  0  0  0  0  0
   11.3324    4.0579    0.2989 H   0  0  0  0  0  0  0  0  0  0  0  0
   12.8978    5.7219    0.8574 H   0  0  0  0  0  0  0  0  0  0  0  0
    7.7395    5.0742    2.3810 N   0  0  0  0  0  0  0  0  0  0  0  0
    8.1846    5.5078    3.2937 N   0  0  0  0  0  0  0  0  0  0  0  0
   14.1427    7.3896   -0.8617 O   0  0  0  0  0  0  0  0  0  0  0  0
   14.5325    8.6113   -1.4906 C   0  0  0  0  0  0  0  0  0  0  0  0
   15.6134    8.6964   -1.3455 H   0  0  0  0  0  0  0  0  0  0  0  0
   14.0212    9.4669   -1.0244 H   0  0  0  0  0  0  0  0  0  0  0  0
   14.3047    8.5864   -2.5667 H   0  0  0  0  0  0  0  0  0  0  0  0
   12.0767    2.4087   -1.2589 O   0  0  0  0  0  0  0  0  0  0  0  0
   11.5122    3.1465   -2.0234 C   0  0  0  0  0  0  0  0  0  0  0  0
   11.0441    4.3907   -1.7393 O   0  0  0  0  0  0  0  0  0  0  0  0
   11.2776    2.9136   -3.0759 H   0  0  0  0  0  0  0  0  0  0  0  0
  1  2  1  0  0  0  0
  1  6  2  0  0  0  0
  3  2  1  6  0  0  0
  3  5  1  0  0  0  0
  4  3  1  0  0  0  0
  4  5  1  0  0  0  0
  4  9  1  1  0  0  0
  5 10  1  1  0  0  0
  6  5  1  0  0  0  0
  7  1  1  0  0  0  0
  8  2  1  0  0  0  0
 11 12  3  0  0  0  0
 13  6  1  0  0  0  0
 14 15  1  0  0  0  0
 14 16  1  0  0  0  0
 14 13  1  0  0  0  0
 17 14  1  0  0  0  0
 19 20  1  0  0  0  0
 19 18  2  0  0  0  0
 20  4  1  0  0  0  0
 21 19  1  0  0  0  0
M  RAD  2   2   2   3   2
M  END
