Coordinates from ORCA-job p-CH3O-Ph-N2-OOCH-B3LYPG-aug-cc-pVDZ-scan-d09-49-n400
 OpenBabel11081710393D

 21 21  0  0  1  0  0  0  0  0999 V2000
   11.8177    7.8807   -1.4123 C   0  0  0  0  0  0  0  0  0  0  0  0
   10.6157    7.2419   -1.0101 C   0  0  0  0  0  0  0  0  0  0  0  0
   10.8960    6.2488   -0.0698 C   0  0  1  0  0  0  0  0  0  0  0  0
   11.2733    4.9184   -0.4030 C   0  0  2  0  0  0  0  0  0  0  0  0
   12.3938    6.0838   -0.0270 C   0  0  1  0  0  0  0  0  0  0  0  0
   12.8814    7.1392   -0.8887 C   0  0  0  0  0  0  0  0  0  0  0  0
   11.8901    8.7216   -2.0973 H   0  0  0  0  0  0  0  0  0  0  0  0
    9.6571    7.3568   -1.5130 H   0  0  0  0  0  0  0  0  0  0  0  0
   11.3859    4.1157    0.3251 H   0  0  0  0  0  0  0  0  0  0  0  0
   12.9816    5.7671    0.8316 H   0  0  0  0  0  0  0  0  0  0  0  0
    7.1983    4.7656    2.6428 N   0  0  0  0  0  0  0  0  0  0  0  0
    7.8342    5.2340    3.4146 N   0  0  0  0  0  0  0  0  0  0  0  0
   14.2069    7.3994   -0.9346 O   0  0  0  0  0  0  0  0  0  0  0  0
   14.5975    8.6089   -1.5863 C   0  0  0  0  0  0  0  0  0  0  0  0
   15.6824    8.6822   -1.4663 H   0  0  0  0  0  0  0  0  0  0  0  0
   14.1073    9.4762   -1.1188 H   0  0  0  0  0  0  0  0  0  0  0  0
   14.3452    8.5747   -2.6566 H   0  0  0  0  0  0  0  0  0  0  0  0
   12.0777    2.4441   -1.2334 O   0  0  0  0  0  0  0  0  0  0  0  0
   11.5006    3.1794   -1.9909 C   0  0  0  0  0  0  0  0  0  0  0  0
   11.0536    4.4318   -1.7087 O   0  0  0  0  0  0  0  0  0  0  0  0
   11.2425    2.9404   -3.0365 H   0  0  0  0  0  0  0  0  0  0  0  0
  1  2  1  0  0  0  0
  1  6  2  0  0  0  0
  3  2  1  6  0  0  0
  3  5  1  0  0  0  0
  4  3  1  0  0  0  0
  4  5  1  0  0  0  0
  4  9  1  1  0  0  0
  5 10  1  1  0  0  0
  6  5  1  0  0  0  0
  7  1  1  0  0  0  0
  8  2  1  0  0  0  0
 11 12  3  0  0  0  0
 13  6  1  0  0  0  0
 14 15  1  0  0  0  0
 14 16  1  0  0  0  0
 14 13  1  0  0  0  0
 17 14  1  0  0  0  0
 19 20  1  0  0  0  0
 19 18  2  0  0  0  0
 20  4  1  0  0  0  0
 21 19  1  0  0  0  0
M  RAD  2   2   2   3   2
M  END
