Coordinates from ORCA-job p-CH3O-Ph-N2-OOCH-B3LYPG-aug-cc-pVDZ-scan-d09-49-n400
 OpenBabel11081710393D

 21 21  0  0  1  0  0  0  0  0999 V2000
   11.6755    7.8015   -1.3662 C   0  0  0  0  0  0  0  0  0  0  0  0
   10.4682    7.1234   -1.0542 C   0  0  0  0  0  0  0  0  0  0  0  0
   10.7142    6.1178   -0.1177 C   0  0  1  0  0  0  0  0  0  0  0  0
   11.1493    4.8059   -0.4517 C   0  0  2  0  0  0  0  0  0  0  0  0
   12.2114    5.9902    0.0168 C   0  0  1  0  0  0  0  0  0  0  0  0
   12.7235    7.0768   -0.7906 C   0  0  0  0  0  0  0  0  0  0  0  0
   11.7679    8.6583   -2.0287 H   0  0  0  0  0  0  0  0  0  0  0  0
    9.5411    7.2249   -1.6156 H   0  0  0  0  0  0  0  0  0  0  0  0
   11.2358    3.9913    0.2667 H   0  0  0  0  0  0  0  0  0  0  0  0
   12.7536    5.6708    0.9039 H   0  0  0  0  0  0  0  0  0  0  0  0
    8.4893    5.5175    2.0381 N   0  0  0  0  0  0  0  0  0  0  0  0
    8.8083    5.8150    3.0529 N   0  0  0  0  0  0  0  0  0  0  0  0
   14.0415    7.3727   -0.7452 O   0  0  0  0  0  0  0  0  0  0  0  0
   14.4396    8.6061   -1.3459 C   0  0  0  0  0  0  0  0  0  0  0  0
   15.5120    8.7051   -1.1544 H   0  0  0  0  0  0  0  0  0  0  0  0
   13.8965    9.4497   -0.8938 H   0  0  0  0  0  0  0  0  0  0  0  0
   14.2575    8.5884   -2.4307 H   0  0  0  0  0  0  0  0  0  0  0  0
   12.0675    2.3688   -1.2739 O   0  0  0  0  0  0  0  0  0  0  0  0
   11.5218    3.1051   -2.0534 C   0  0  0  0  0  0  0  0  0  0  0  0
   11.0265    4.3406   -1.7778 O   0  0  0  0  0  0  0  0  0  0  0  0
   11.3377    2.8811   -3.1177 H   0  0  0  0  0  0  0  0  0  0  0  0
  1  2  1  0  0  0  0
  1  6  2  0  0  0  0
  3  2  1  6  0  0  0
  3  5  1  0  0  0  0
  4  3  1  0  0  0  0
  4  5  1  0  0  0  0
  4  9  1  1  0  0  0
  5 10  1  1  0  0  0
  6 13  1  0  0  0  0
  6  5  1  0  0  0  0
  7  1  1  0  0  0  0
  8  2  1  0  0  0  0
 11 12  3  0  0  0  0
 14 15  1  0  0  0  0
 14 16  1  0  0  0  0
 14 13  1  0  0  0  0
 17 14  1  0  0  0  0
 19 20  1  0  0  0  0
 19 18  2  0  0  0  0
 20  4  1  0  0  0  0
 21 19  1  0  0  0  0
M  RAD  2   2   2   3   2
M  END
