Coordinates from ORCA-job p-CH3O-Ph-N2-OOCH-B3LYPG-aug-cc-pVDZ-scan-d09-49-n400
 OpenBabel11081710393D

 21 21  0  0  1  0  0  0  0  0999 V2000
   11.7565    7.5371   -1.0954 C   0  0  0  0  0  0  0  0  0  0  0  0
   10.4869    7.1503   -0.8248 C   0  0  0  0  0  0  0  0  0  0  0  0
   10.2307    5.9502   -0.0571 C   0  0  0  0  0  0  0  0  0  0  0  0
   11.3460    4.9827    0.2766 C   0  0  2  0  0  0  0  0  0  0  0  0
   12.6865    5.5867    0.0767 C   0  0  0  0  0  0  0  0  0  0  0  0
   12.8750    6.7528   -0.5939 C   0  0  0  0  0  0  0  0  0  0  0  0
   11.9253    8.4323   -1.6859 H   0  0  0  0  0  0  0  0  0  0  0  0
    9.6325    7.7264   -1.1783 H   0  0  0  0  0  0  0  0  0  0  0  0
   11.2243    4.5972    1.2959 H   0  0  0  0  0  0  0  0  0  0  0  0
   13.5465    5.0467    0.4684 H   0  0  0  0  0  0  0  0  0  0  0  0
    9.0815    5.6741    0.3209 N   0  0  0  0  0  0  0  0  0  0  0  0
    8.0282    5.3980    0.6782 N   0  0  0  0  0  0  0  0  0  0  0  0
   14.1664    7.1681   -0.7584 O   0  0  0  0  0  0  0  0  0  0  0  0
   14.4298    8.4332   -1.3618 C   0  0  0  0  0  0  0  0  0  0  0  0
   15.5175    8.5495   -1.3290 H   0  0  0  0  0  0  0  0  0  0  0  0
   13.9604    9.2545   -0.8001 H   0  0  0  0  0  0  0  0  0  0  0  0
   14.0967    8.4576   -2.4099 H   0  0  0  0  0  0  0  0  0  0  0  0
   11.1671    4.6007   -2.5480 O   0  0  0  0  0  0  0  0  0  0  0  0
   11.1654    3.6495   -1.8041 C   0  0  0  0  0  0  0  0  0  0  0  0
   11.1993    3.6650   -0.4633 O   0  0  0  0  0  0  0  0  0  0  0  0
   11.1164    2.5982   -2.1458 H   0  0  0  0  0  0  0  0  0  0  0  0
  1  2  1  0  0  0  0
  1  6  2  0  0  0  0
  2  3  2  0  0  0  0
  3  4  1  0  0  0  0
  3 11  1  0  0  0  0
  4  9  1  1  0  0  0
  5  4  1  0  0  0  0
  5 10  1  0  0  0  0
  6  5  1  0  0  0  0
  7  1  1  0  0  0  0
  8  2  1  0  0  0  0
 11 12  1  0  0  0  0
 13  6  1  0  0  0  0
 14 15  1  0  0  0  0
 14 16  1  0  0  0  0
 14 13  1  0  0  0  0
 17 14  1  0  0  0  0
 18 19  2  0  0  0  0
 19 20  1  0  0  0  0
 20  4  1  0  0  0  0
 21 19  1  0  0  0  0
M  RAD  3   5   2  11   2  12   3
M  END
