Coordinates from ORCA-job p-CH3O-Ph-N2-OOCH-B3LYPG-aug-cc-pVDZ-scan-d09-49-n400
 OpenBabel11081710393D

 21 21  0  0  1  0  0  0  0  0999 V2000
   11.7736    7.5640   -1.0887 C   0  0  0  0  0  0  0  0  0  0  0  0
   10.4953    7.1759   -0.7802 C   0  0  0  0  0  0  0  0  0  0  0  0
   10.3501    6.0037   -0.0211 C   0  0  2  0  0  0  0  0  0  0  0  0
   11.3570    4.9972    0.3088 C   0  0  2  0  0  0  0  0  0  0  0  0
   12.6872    5.6189    0.1225 C   0  0  0  0  0  0  0  0  0  0  0  0
   12.8748    6.7760   -0.5858 C   0  0  0  0  0  0  0  0  0  0  0  0
   11.9343    8.4504   -1.6927 H   0  0  0  0  0  0  0  0  0  0  0  0
    9.6271    7.7431   -1.1082 H   0  0  0  0  0  0  0  0  0  0  0  0
   11.2320    4.5416    1.2956 H   0  0  0  0  0  0  0  0  0  0  0  0
   13.5510    5.0999    0.5328 H   0  0  0  0  0  0  0  0  0  0  0  0
    8.8493    5.6193    0.3856 N   0  0  0  0  0  0  0  0  0  0  0  0
    7.8087    5.3171    0.6798 N   0  0  0  0  0  0  0  0  0  0  0  0
   14.1736    7.1685   -0.7561 O   0  0  0  0  0  0  0  0  0  0  0  0
   14.4495    8.4056   -1.4068 C   0  0  0  0  0  0  0  0  0  0  0  0
   15.5389    8.5095   -1.3869 H   0  0  0  0  0  0  0  0  0  0  0  0
   13.9938    9.2529   -0.8725 H   0  0  0  0  0  0  0  0  0  0  0  0
   14.1068    8.3955   -2.4521 H   0  0  0  0  0  0  0  0  0  0  0  0
   11.2630    4.6306   -2.5657 O   0  0  0  0  0  0  0  0  0  0  0  0
   11.2126    3.6662   -1.8352 C   0  0  0  0  0  0  0  0  0  0  0  0
   11.2040    3.6507   -0.5014 O   0  0  0  0  0  0  0  0  0  0  0  0
   11.1561    2.6243   -2.2108 H   0  0  0  0  0  0  0  0  0  0  0  0
  1  2  2  0  0  0  0
  1  6  1  0  0  0  0
  2  3  1  0  0  0  0
  3  4  1  0  0  0  0
  3 11  1  6  0  0  0
  4  9  1  1  0  0  0
  5  4  1  0  0  0  0
  5 10  1  0  0  0  0
  6  5  2  0  0  0  0
  7  1  1  0  0  0  0
  8  2  1  0  0  0  0
 11 12  1  0  0  0  0
 13  6  1  0  0  0  0
 14 15  1  0  0  0  0
 14 16  1  0  0  0  0
 14 13  1  0  0  0  0
 17 14  1  0  0  0  0
 18 19  2  0  0  0  0
 19 20  1  0  0  0  0
 20  4  1  0  0  0  0
 21 19  1  0  0  0  0
M  RAD  3   3   2  11   2  12   3
M  END
