Coordinates from ORCA-job p-CH3O-Ph-N2-OOCH-B3LYPG-aug-cc-pVDZ-scan-d09-49-n400
 OpenBabel11081710393D

 21 21  0  0  1  0  0  0  0  0999 V2000
   11.5955    7.7564   -1.3161 C   0  0  0  0  0  0  0  0  0  0  0  0
   10.3879    7.0733   -1.0190 C   0  0  0  0  0  0  0  0  0  0  0  0
   10.6244    6.0594   -0.0861 C   0  0  1  0  0  0  0  0  0  0  0  0
   11.0947    4.7608   -0.4315 C   0  0  2  0  0  0  0  0  0  0  0  0
   12.1254    5.9356    0.0582 C   0  0  1  0  0  0  0  0  0  0  0  0
   12.6412    7.0368   -0.7327 C   0  0  0  0  0  0  0  0  0  0  0  0
   11.6892    8.6188   -1.9712 H   0  0  0  0  0  0  0  0  0  0  0  0
    9.4614    7.1845   -1.5798 H   0  0  0  0  0  0  0  0  0  0  0  0
   11.1666    3.9369    0.2790 H   0  0  0  0  0  0  0  0  0  0  0  0
   12.6585    5.6218    0.9533 H   0  0  0  0  0  0  0  0  0  0  0  0
    9.1140    5.8778    1.5627 N   0  0  0  0  0  0  0  0  0  0  0  0
    9.4241    6.0737    2.6112 N   0  0  0  0  0  0  0  0  0  0  0  0
   13.9541    7.3455   -0.6571 O   0  0  0  0  0  0  0  0  0  0  0  0
   14.3521    8.5877   -1.2400 C   0  0  0  0  0  0  0  0  0  0  0  0
   15.4196    8.6950   -1.0269 H   0  0  0  0  0  0  0  0  0  0  0  0
   13.7920    9.4220   -0.7914 H   0  0  0  0  0  0  0  0  0  0  0  0
   14.1911    8.5770   -2.3282 H   0  0  0  0  0  0  0  0  0  0  0  0
   12.0908    2.3679   -1.2819 O   0  0  0  0  0  0  0  0  0  0  0  0
   11.5220    3.0945   -2.0543 C   0  0  0  0  0  0  0  0  0  0  0  0
   10.9858    4.3087   -1.7657 O   0  0  0  0  0  0  0  0  0  0  0  0
   11.3483    2.8767   -3.1217 H   0  0  0  0  0  0  0  0  0  0  0  0
  1  2  1  0  0  0  0
  1  6  2  0  0  0  0
  3  2  1  6  0  0  0
  3  5  1  0  0  0  0
  4  3  1  0  0  0  0
  4  5  1  0  0  0  0
  4  9  1  1  0  0  0
  5 10  1  1  0  0  0
  6 13  1  0  0  0  0
  6  5  1  0  0  0  0
  7  1  1  0  0  0  0
  8  2  1  0  0  0  0
 11 12  3  0  0  0  0
 14 15  1  0  0  0  0
 14 16  1  0  0  0  0
 14 13  1  0  0  0  0
 17 14  1  0  0  0  0
 19 20  1  0  0  0  0
 19 18  2  0  0  0  0
 20  4  1  0  0  0  0
 21 19  1  0  0  0  0
M  RAD  2   2   2   3   2
M  END
