Coordinates from ORCA-job p-CH3O-Ph-N2-OOCH-B3LYPG-aug-cc-pVDZ-scan-d09-49-n400
 OpenBabel11081710393D

 21 21  0  0  1  0  0  0  0  0999 V2000
   11.7143    7.8207   -1.3732 C   0  0  0  0  0  0  0  0  0  0  0  0
   10.5104    7.1502   -1.0334 C   0  0  0  0  0  0  0  0  0  0  0  0
   10.7715    6.1453   -0.1004 C   0  0  1  0  0  0  0  0  0  0  0  0
   11.1912    4.8297   -0.4406 C   0  0  2  0  0  0  0  0  0  0  0  0
   12.2699    6.0098    0.0025 C   0  0  1  0  0  0  0  0  0  0  0  0
   12.7705    7.0912   -0.8187 C   0  0  0  0  0  0  0  0  0  0  0  0
   11.7973    8.6755   -2.0395 H   0  0  0  0  0  0  0  0  0  0  0  0
    9.5711    7.2546   -1.5738 H   0  0  0  0  0  0  0  0  0  0  0  0
   11.2888    4.0159    0.2771 H   0  0  0  0  0  0  0  0  0  0  0  0
   12.8291    5.6893    0.8786 H   0  0  0  0  0  0  0  0  0  0  0  0
    8.1364    5.3048    2.2145 N   0  0  0  0  0  0  0  0  0  0  0  0
    8.4649    5.7090    3.1881 N   0  0  0  0  0  0  0  0  0  0  0  0
   14.0909    7.3792   -0.8038 O   0  0  0  0  0  0  0  0  0  0  0  0
   14.4828    8.6086   -1.4166 C   0  0  0  0  0  0  0  0  0  0  0  0
   15.5598    8.7017   -1.2495 H   0  0  0  0  0  0  0  0  0  0  0  0
   13.9551    9.4566   -0.9547 H   0  0  0  0  0  0  0  0  0  0  0  0
   14.2764    8.5894   -2.4970 H   0  0  0  0  0  0  0  0  0  0  0  0
   12.0830    2.3887   -1.2797 O   0  0  0  0  0  0  0  0  0  0  0  0
   11.5227    3.1258   -2.0480 C   0  0  0  0  0  0  0  0  0  0  0  0
   11.0379    4.3635   -1.7633 O   0  0  0  0  0  0  0  0  0  0  0  0
   11.3147    2.9012   -3.1078 H   0  0  0  0  0  0  0  0  0  0  0  0
  1  2  1  0  0  0  0
  1  6  2  0  0  0  0
  3  2  1  6  0  0  0
  3  5  1  0  0  0  0
  4  3  1  0  0  0  0
  4  5  1  0  0  0  0
  4  9  1  1  0  0  0
  5 10  1  1  0  0  0
  6 13  1  0  0  0  0
  6  5  1  0  0  0  0
  7  1  1  0  0  0  0
  8  2  1  0  0  0  0
 11 12  3  0  0  0  0
 14 15  1  0  0  0  0
 14 16  1  0  0  0  0
 14 13  1  0  0  0  0
 17 14  1  0  0  0  0
 19 20  1  0  0  0  0
 19 18  2  0  0  0  0
 20  4  1  0  0  0  0
 21 19  1  0  0  0  0
M  RAD  2   2   2   3   2
M  END
