Coordinates from ORCA-job p-CH3O-Ph-N2-OOCH-B3LYPG-aug-cc-pVDZ-scan-d09-49-n400
 OpenBabel11081710393D

 21 21  0  0  1  0  0  0  0  0999 V2000
   11.6856    7.8060   -1.3697 C   0  0  0  0  0  0  0  0  0  0  0  0
   10.4790    7.1298   -1.0516 C   0  0  0  0  0  0  0  0  0  0  0  0
   10.7279    6.1248   -0.1151 C   0  0  1  0  0  0  0  0  0  0  0  0
   11.1595    4.8120   -0.4506 C   0  0  2  0  0  0  0  0  0  0  0  0
   12.2254    5.9955    0.0127 C   0  0  1  0  0  0  0  0  0  0  0  0
   12.7353    7.0805   -0.7979 C   0  0  0  0  0  0  0  0  0  0  0  0
   11.7763    8.6621   -2.0334 H   0  0  0  0  0  0  0  0  0  0  0  0
    9.5495    7.2320   -1.6089 H   0  0  0  0  0  0  0  0  0  0  0  0
   11.2487    3.9975    0.2676 H   0  0  0  0  0  0  0  0  0  0  0  0
   12.7712    5.6758    0.8975 H   0  0  0  0  0  0  0  0  0  0  0  0
    8.4003    5.4599    2.0921 N   0  0  0  0  0  0  0  0  0  0  0  0
    8.7170    5.7921    3.0966 N   0  0  0  0  0  0  0  0  0  0  0  0
   14.0539    7.3746   -0.7592 O   0  0  0  0  0  0  0  0  0  0  0  0
   14.4509    8.6067   -1.3631 C   0  0  0  0  0  0  0  0  0  0  0  0
   15.5244    8.7044   -1.1768 H   0  0  0  0  0  0  0  0  0  0  0  0
   13.9113    9.4516   -0.9093 H   0  0  0  0  0  0  0  0  0  0  0  0
   14.2638    8.5882   -2.4471 H   0  0  0  0  0  0  0  0  0  0  0  0
   12.0718    2.3739   -1.2765 O   0  0  0  0  0  0  0  0  0  0  0  0
   11.5229    3.1104   -2.0535 C   0  0  0  0  0  0  0  0  0  0  0  0
   11.0302    4.3466   -1.7760 O   0  0  0  0  0  0  0  0  0  0  0  0
   11.3338    2.8864   -3.1170 H   0  0  0  0  0  0  0  0  0  0  0  0
  1  2  1  0  0  0  0
  1  6  2  0  0  0  0
  3  2  1  6  0  0  0
  3  5  1  0  0  0  0
  4  3  1  0  0  0  0
  4  5  1  0  0  0  0
  4  9  1  1  0  0  0
  5 10  1  1  0  0  0
  6 13  1  0  0  0  0
  6  5  1  0  0  0  0
  7  1  1  0  0  0  0
  8  2  1  0  0  0  0
 11 12  3  0  0  0  0
 14 15  1  0  0  0  0
 14 16  1  0  0  0  0
 14 13  1  0  0  0  0
 17 14  1  0  0  0  0
 19 20  1  0  0  0  0
 19 18  2  0  0  0  0
 20  4  1  0  0  0  0
 21 19  1  0  0  0  0
M  RAD  2   2   2   3   2
M  END
