Coordinates from ORCA-job p-CH3O-Ph-N2-OOCH-B3LYPG-aug-cc-pVDZ-scan-d09-49-n400
 OpenBabel11081710393D

 21 21  0  0  1  0  0  0  0  0999 V2000
   11.7699    7.5584   -1.0913 C   0  0  0  0  0  0  0  0  0  0  0  0
   10.4931    7.1709   -0.7905 C   0  0  0  0  0  0  0  0  0  0  0  0
   10.3259    5.9893   -0.0382 C   0  0  2  0  0  0  0  0  0  0  0  0
   11.3538    4.9934    0.2989 C   0  0  2  0  0  0  0  0  0  0  0  0
   12.6869    5.6114    0.1124 C   0  0  0  0  0  0  0  0  0  0  0  0
   12.8743    6.7702   -0.5883 C   0  0  0  0  0  0  0  0  0  0  0  0
   11.9336    8.4483   -1.6896 H   0  0  0  0  0  0  0  0  0  0  0  0
    9.6286    7.7440   -1.1197 H   0  0  0  0  0  0  0  0  0  0  0  0
   11.2277    4.5526    1.2929 H   0  0  0  0  0  0  0  0  0  0  0  0
   13.5502    5.0889    0.5194 H   0  0  0  0  0  0  0  0  0  0  0  0
    8.8858    5.6322    0.3803 N   0  0  0  0  0  0  0  0  0  0  0  0
    7.8437    5.3407    0.6933 N   0  0  0  0  0  0  0  0  0  0  0  0
   14.1718    7.1682   -0.7562 O   0  0  0  0  0  0  0  0  0  0  0  0
   14.4455    8.4109   -1.3975 C   0  0  0  0  0  0  0  0  0  0  0  0
   15.5346    8.5169   -1.3754 H   0  0  0  0  0  0  0  0  0  0  0  0
   13.9876    9.2534   -0.8576 H   0  0  0  0  0  0  0  0  0  0  0  0
   14.1045    8.4080   -2.4434 H   0  0  0  0  0  0  0  0  0  0  0  0
   11.2493    4.6220   -2.5652 O   0  0  0  0  0  0  0  0  0  0  0  0
   11.2094    3.6612   -1.8306 C   0  0  0  0  0  0  0  0  0  0  0  0
   11.2065    3.6532   -0.4951 O   0  0  0  0  0  0  0  0  0  0  0  0
   11.1559    2.6167   -2.1978 H   0  0  0  0  0  0  0  0  0  0  0  0
  1  2  2  0  0  0  0
  1  6  1  0  0  0  0
  2  3  1  0  0  0  0
  3  4  1  0  0  0  0
  3 11  1  6  0  0  0
  4  9  1  1  0  0  0
  5  4  1  0  0  0  0
  5 10  1  0  0  0  0
  6  5  2  0  0  0  0
  7  1  1  0  0  0  0
  8  2  1  0  0  0  0
 11 12  1  0  0  0  0
 13  6  1  0  0  0  0
 14 15  1  0  0  0  0
 14 16  1  0  0  0  0
 14 13  1  0  0  0  0
 17 14  1  0  0  0  0
 18 19  2  0  0  0  0
 19 20  1  0  0  0  0
 20  4  1  0  0  0  0
 21 19  1  0  0  0  0
M  RAD  3   3   2  11   2  12   3
M  END
