Coordinates from ORCA-job p-CH3O-Ph-N2-OOCH-B3LYPG-aug-cc-pVDZ-scan-d09-49-n400
 OpenBabel11081710393D

 21 21  0  0  1  0  0  0  0  0999 V2000
   11.7979    7.8695   -1.4009 C   0  0  0  0  0  0  0  0  0  0  0  0
   10.5966    7.2239   -1.0074 C   0  0  0  0  0  0  0  0  0  0  0  0
   10.8764    6.2279   -0.0704 C   0  0  1  0  0  0  0  0  0  0  0  0
   11.2611    4.9005   -0.4070 C   0  0  2  0  0  0  0  0  0  0  0  0
   12.3745    6.0687   -0.0206 C   0  0  1  0  0  0  0  0  0  0  0  0
   12.8619    7.1300   -0.8755 C   0  0  0  0  0  0  0  0  0  0  0  0
   11.8700    8.7136   -2.0820 H   0  0  0  0  0  0  0  0  0  0  0  0
    9.6398    7.3368   -1.5144 H   0  0  0  0  0  0  0  0  0  0  0  0
   11.3726    4.0951    0.3182 H   0  0  0  0  0  0  0  0  0  0  0  0
   12.9598    5.7512    0.8394 H   0  0  0  0  0  0  0  0  0  0  0  0
    7.3712    4.8684    2.5440 N   0  0  0  0  0  0  0  0  0  0  0  0
    7.9408    5.3265    3.3717 N   0  0  0  0  0  0  0  0  0  0  0  0
   14.1866    7.3956   -0.9138 O   0  0  0  0  0  0  0  0  0  0  0  0
   14.5754    8.6096   -1.5583 C   0  0  0  0  0  0  0  0  0  0  0  0
   15.6594    8.6867   -1.4327 H   0  0  0  0  0  0  0  0  0  0  0  0
   14.0794    9.4728   -1.0894 H   0  0  0  0  0  0  0  0  0  0  0  0
   14.3286    8.5790   -2.6300 H   0  0  0  0  0  0  0  0  0  0  0  0
   12.0800    2.4332   -1.2437 O   0  0  0  0  0  0  0  0  0  0  0  0
   11.5038    3.1693   -2.0011 C   0  0  0  0  0  0  0  0  0  0  0  0
   11.0504    4.4188   -1.7161 O   0  0  0  0  0  0  0  0  0  0  0  0
   11.2526    2.9339   -3.0491 H   0  0  0  0  0  0  0  0  0  0  0  0
  1  2  1  0  0  0  0
  1  6  2  0  0  0  0
  3  2  1  6  0  0  0
  3  5  1  0  0  0  0
  4  3  1  0  0  0  0
  4  5  1  0  0  0  0
  4  9  1  1  0  0  0
  5 10  1  1  0  0  0
  6  5  1  0  0  0  0
  7  1  1  0  0  0  0
  8  2  1  0  0  0  0
 11 12  3  0  0  0  0
 13  6  1  0  0  0  0
 14 15  1  0  0  0  0
 14 16  1  0  0  0  0
 14 13  1  0  0  0  0
 17 14  1  0  0  0  0
 19 20  1  0  0  0  0
 19 18  2  0  0  0  0
 20  4  1  0  0  0  0
 21 19  1  0  0  0  0
M  RAD  2   2   2   3   2
M  END
