Coordinates from ORCA-job p-CH3O-Ph-N2-OOCH-B3LYPG-aug-cc-pVDZ-scan-d09-49-n400
 OpenBabel11081710393D

 21 21  0  0  1  0  0  0  0  0999 V2000
   11.5790    7.7427   -1.3122 C   0  0  0  0  0  0  0  0  0  0  0  0
   10.3682    7.0713   -1.0087 C   0  0  0  0  0  0  0  0  0  0  0  0
   10.5980    6.0558   -0.0693 C   0  0  1  0  0  0  0  0  0  0  0  0
   11.0860    4.7607   -0.4184 C   0  0  2  0  0  0  0  0  0  0  0  0
   12.1020    5.9285    0.0744 C   0  0  1  0  0  0  0  0  0  0  0  0
   12.6223    7.0279   -0.7194 C   0  0  0  0  0  0  0  0  0  0  0  0
   11.6754    8.6003   -1.9732 H   0  0  0  0  0  0  0  0  0  0  0  0
    9.4373    7.1942   -1.5597 H   0  0  0  0  0  0  0  0  0  0  0  0
   11.1473    3.9347    0.2910 H   0  0  0  0  0  0  0  0  0  0  0  0
   12.6294    5.6238    0.9759 H   0  0  0  0  0  0  0  0  0  0  0  0
    9.2438    5.9235    1.4411 N   0  0  0  0  0  0  0  0  0  0  0  0
    9.5689    6.0858    2.4974 N   0  0  0  0  0  0  0  0  0  0  0  0
   13.9336    7.3381   -0.6346 O   0  0  0  0  0  0  0  0  0  0  0  0
   14.3360    8.5762   -1.2236 C   0  0  0  0  0  0  0  0  0  0  0  0
   15.4019    8.6850   -1.0035 H   0  0  0  0  0  0  0  0  0  0  0  0
   13.7725    9.4135   -0.7851 H   0  0  0  0  0  0  0  0  0  0  0  0
   14.1828    8.5572   -2.3128 H   0  0  0  0  0  0  0  0  0  0  0  0
   12.1007    2.3819   -1.2789 O   0  0  0  0  0  0  0  0  0  0  0  0
   11.5240    3.1057   -2.0482 C   0  0  0  0  0  0  0  0  0  0  0  0
   10.9771    4.3133   -1.7548 O   0  0  0  0  0  0  0  0  0  0  0  0
   11.3525    2.8907   -3.1165 H   0  0  0  0  0  0  0  0  0  0  0  0
  1  2  1  0  0  0  0
  1  6  2  0  0  0  0
  3  2  1  6  0  0  0
  3  5  1  0  0  0  0
  4  3  1  0  0  0  0
  4  5  1  0  0  0  0
  4  9  1  1  0  0  0
  5 10  1  1  0  0  0
  6 13  1  0  0  0  0
  6  5  1  0  0  0  0
  7  1  1  0  0  0  0
  8  2  1  0  0  0  0
 11 12  3  0  0  0  0
 14 15  1  0  0  0  0
 14 16  1  0  0  0  0
 14 13  1  0  0  0  0
 17 14  1  0  0  0  0
 19 20  1  0  0  0  0
 19 18  2  0  0  0  0
 20  4  1  0  0  0  0
 21 19  1  0  0  0  0
M  RAD  2   2   2   3   2
M  END
