Coordinates from ORCA-job p-CH3O-Ph-N2-OOCH-B3LYPG-aug-cc-pVDZ-scan-d09-49-n400
 OpenBabel11081710393D

 21 21  0  0  1  0  0  0  0  0999 V2000
   11.7700    7.8539   -1.3923 C   0  0  0  0  0  0  0  0  0  0  0  0
   10.5672    7.1996   -1.0178 C   0  0  0  0  0  0  0  0  0  0  0  0
   10.8408    6.2001   -0.0825 C   0  0  1  0  0  0  0  0  0  0  0  0
   11.2364    4.8761   -0.4191 C   0  0  2  0  0  0  0  0  0  0  0  0
   12.3391    6.0494   -0.0137 C   0  0  1  0  0  0  0  0  0  0  0  0
   12.8314    7.1176   -0.8569 C   0  0  0  0  0  0  0  0  0  0  0  0
   11.8461    8.7021   -2.0677 H   0  0  0  0  0  0  0  0  0  0  0  0
    9.6165    7.3095   -1.5365 H   0  0  0  0  0  0  0  0  0  0  0  0
   11.3435    4.0688    0.3046 H   0  0  0  0  0  0  0  0  0  0  0  0
   12.9150    5.7308    0.8521 H   0  0  0  0  0  0  0  0  0  0  0  0
    7.6361    5.0155    2.4256 N   0  0  0  0  0  0  0  0  0  0  0  0
    8.1177    5.4539    3.3173 N   0  0  0  0  0  0  0  0  0  0  0  0
   14.1549    7.3912   -0.8766 O   0  0  0  0  0  0  0  0  0  0  0  0
   14.5450    8.6108   -1.5095 C   0  0  0  0  0  0  0  0  0  0  0  0
   15.6268    8.6935   -1.3694 H   0  0  0  0  0  0  0  0  0  0  0  0
   14.0380    9.4686   -1.0424 H   0  0  0  0  0  0  0  0  0  0  0  0
   14.3121    8.5846   -2.5844 H   0  0  0  0  0  0  0  0  0  0  0  0
   12.0779    2.4159   -1.2537 O   0  0  0  0  0  0  0  0  0  0  0  0
   11.5082    3.1520   -2.0160 C   0  0  0  0  0  0  0  0  0  0  0  0
   11.0449    4.3982   -1.7324 O   0  0  0  0  0  0  0  0  0  0  0  0
   11.2712    2.9189   -3.0679 H   0  0  0  0  0  0  0  0  0  0  0  0
  1  2  1  0  0  0  0
  1  6  2  0  0  0  0
  3  2  1  6  0  0  0
  3  5  1  0  0  0  0
  4  3  1  0  0  0  0
  4  5  1  0  0  0  0
  4  9  1  1  0  0  0
  5 10  1  1  0  0  0
  6  5  1  0  0  0  0
  7  1  1  0  0  0  0
  8  2  1  0  0  0  0
 11 12  3  0  0  0  0
 13  6  1  0  0  0  0
 14 15  1  0  0  0  0
 14 16  1  0  0  0  0
 14 13  1  0  0  0  0
 17 14  1  0  0  0  0
 19 20  1  0  0  0  0
 19 18  2  0  0  0  0
 20  4  1  0  0  0  0
 21 19  1  0  0  0  0
M  RAD  2   2   2   3   2
M  END
