Coordinates from ORCA-job p-CH3O-Ph-N2-OOCH-B3LYPG-aug-cc-pVDZ-scan-d09-49-n400
 OpenBabel11081710393D

 21 21  0  0  1  0  0  0  0  0999 V2000
   11.7773    7.5677   -1.0856 C   0  0  0  0  0  0  0  0  0  0  0  0
   10.4986    7.1780   -0.7716 C   0  0  0  0  0  0  0  0  0  0  0  0
   10.3700    6.0176    0.0014 C   0  0  2  0  0  0  0  0  0  0  0  0
   11.3617    5.0021    0.3211 C   0  0  2  0  0  0  0  0  0  0  0  0
   12.6892    5.6267    0.1342 C   0  0  0  0  0  0  0  0  0  0  0  0
   12.8766    6.7817   -0.5813 C   0  0  0  0  0  0  0  0  0  0  0  0
   11.9349    8.4506   -1.6952 H   0  0  0  0  0  0  0  0  0  0  0  0
    9.6271    7.7380   -1.1022 H   0  0  0  0  0  0  0  0  0  0  0  0
   11.2389    4.5322    1.3010 H   0  0  0  0  0  0  0  0  0  0  0  0
   13.5538    5.1100    0.5458 H   0  0  0  0  0  0  0  0  0  0  0  0
    8.8270    5.6037    0.3805 N   0  0  0  0  0  0  0  0  0  0  0  0
    7.7871    5.2886    0.6523 N   0  0  0  0  0  0  0  0  0  0  0  0
   14.1762    7.1700   -0.7542 O   0  0  0  0  0  0  0  0  0  0  0  0
   14.4533    8.4014   -1.4151 C   0  0  0  0  0  0  0  0  0  0  0  0
   15.5428    8.5042   -1.3971 H   0  0  0  0  0  0  0  0  0  0  0  0
   13.9987    9.2534   -0.8872 H   0  0  0  0  0  0  0  0  0  0  0  0
   14.1092    8.3831   -2.4599 H   0  0  0  0  0  0  0  0  0  0  0  0
   11.2564    4.6428   -2.5630 O   0  0  0  0  0  0  0  0  0  0  0  0
   11.2088    3.6738   -1.8371 C   0  0  0  0  0  0  0  0  0  0  0  0
   11.2030    3.6504   -0.5050 O   0  0  0  0  0  0  0  0  0  0  0  0
   11.1481    2.6348   -2.2209 H   0  0  0  0  0  0  0  0  0  0  0  0
  1  2  2  0  0  0  0
  1  6  1  0  0  0  0
  2  3  1  0  0  0  0
  3  4  1  0  0  0  0
  3 11  1  6  0  0  0
  4  9  1  1  0  0  0
  5  4  1  0  0  0  0
  5 10  1  0  0  0  0
  6  5  2  0  0  0  0
  7  1  1  0  0  0  0
  8  2  1  0  0  0  0
 11 12  1  0  0  0  0
 13  6  1  0  0  0  0
 14 15  1  0  0  0  0
 14 16  1  0  0  0  0
 14 13  1  0  0  0  0
 17 14  1  0  0  0  0
 18 19  2  0  0  0  0
 19 20  1  0  0  0  0
 20  4  1  0  0  0  0
 21 19  1  0  0  0  0
M  RAD  3   3   2  11   2  12   3
M  END
