Coordinates from ORCA-job p-CH3O-Ph-N2-OOCH-B3LYPG-aug-cc-pVDZ-scan-d09-49-n400
 OpenBabel11081710393D

 21 21  0  0  1  0  0  0  0  0999 V2000
   11.7760    7.8577   -1.3932 C   0  0  0  0  0  0  0  0  0  0  0  0
   10.5735    7.2044   -1.0151 C   0  0  0  0  0  0  0  0  0  0  0  0
   10.8492    6.2056   -0.0816 C   0  0  1  0  0  0  0  0  0  0  0  0
   11.2419    4.8810   -0.4168 C   0  0  2  0  0  0  0  0  0  0  0  0
   12.3470    6.0536   -0.0157 C   0  0  1  0  0  0  0  0  0  0  0  0
   12.8383    7.1209   -0.8606 C   0  0  0  0  0  0  0  0  0  0  0  0
   11.8510    8.7056   -2.0693 H   0  0  0  0  0  0  0  0  0  0  0  0
    9.6212    7.3144   -1.5309 H   0  0  0  0  0  0  0  0  0  0  0  0
   11.3494    4.0745    0.3077 H   0  0  0  0  0  0  0  0  0  0  0  0
   12.9245    5.7350    0.8491 H   0  0  0  0  0  0  0  0  0  0  0  0
    7.5822    4.9841    2.4477 N   0  0  0  0  0  0  0  0  0  0  0  0
    8.0820    5.4280    3.3265 N   0  0  0  0  0  0  0  0  0  0  0  0
   14.1620    7.3928   -0.8845 O   0  0  0  0  0  0  0  0  0  0  0  0
   14.5514    8.6115   -1.5195 C   0  0  0  0  0  0  0  0  0  0  0  0
   15.6337    8.6932   -1.3829 H   0  0  0  0  0  0  0  0  0  0  0  0
   14.0467    9.4702   -1.0515 H   0  0  0  0  0  0  0  0  0  0  0  0
   14.3151    8.5848   -2.5937 H   0  0  0  0  0  0  0  0  0  0  0  0
   12.0750    2.4173   -1.2501 O   0  0  0  0  0  0  0  0  0  0  0  0
   11.5074    3.1548   -2.0127 C   0  0  0  0  0  0  0  0  0  0  0  0
   11.0465    4.4019   -1.7292 O   0  0  0  0  0  0  0  0  0  0  0  0
   11.2647    2.9198   -3.0628 H   0  0  0  0  0  0  0  0  0  0  0  0
  1  2  1  0  0  0  0
  1  6  2  0  0  0  0
  3  2  1  6  0  0  0
  3  5  1  0  0  0  0
  4  3  1  0  0  0  0
  4  5  1  0  0  0  0
  4  9  1  1  0  0  0
  5 10  1  1  0  0  0
  6  5  1  0  0  0  0
  7  1  1  0  0  0  0
  8  2  1  0  0  0  0
 11 12  3  0  0  0  0
 13  6  1  0  0  0  0
 14 15  1  0  0  0  0
 14 16  1  0  0  0  0
 14 13  1  0  0  0  0
 17 14  1  0  0  0  0
 19 20  1  0  0  0  0
 19 18  2  0  0  0  0
 20  4  1  0  0  0  0
 21 19  1  0  0  0  0
M  RAD  2   2   2   3   2
M  END
