Coordinates from ORCA-job p-CH3O-Ph-N2-OOCH-B3LYPG-aug-cc-pVDZ-scan-d09-49-n400
 OpenBabel11081710393D

 21 21  0  0  1  0  0  0  0  0999 V2000
   11.6613    7.7961   -1.3607 C   0  0  0  0  0  0  0  0  0  0  0  0
   10.4529    7.1154   -1.0571 C   0  0  0  0  0  0  0  0  0  0  0  0
   10.6952    6.1085   -0.1219 C   0  0  1  0  0  0  0  0  0  0  0  0
   11.1345    4.7976   -0.4524 C   0  0  2  0  0  0  0  0  0  0  0  0
   12.1916    5.9830    0.0221 C   0  0  1  0  0  0  0  0  0  0  0  0
   12.7070    7.0720   -0.7805 C   0  0  0  0  0  0  0  0  0  0  0  0
   11.7562    8.6546   -2.0208 H   0  0  0  0  0  0  0  0  0  0  0  0
    9.5292    7.2166   -1.6243 H   0  0  0  0  0  0  0  0  0  0  0  0
   11.2169    3.9835    0.2671 H   0  0  0  0  0  0  0  0  0  0  0  0
   12.7288    5.6643    0.9126 H   0  0  0  0  0  0  0  0  0  0  0  0
    8.6161    5.5952    1.9578 N   0  0  0  0  0  0  0  0  0  0  0  0
    8.9409    5.8441    2.9841 N   0  0  0  0  0  0  0  0  0  0  0  0
   14.0242    7.3701   -0.7261 O   0  0  0  0  0  0  0  0  0  0  0  0
   14.4237    8.6054   -1.3217 C   0  0  0  0  0  0  0  0  0  0  0  0
   15.4948    8.7060   -1.1235 H   0  0  0  0  0  0  0  0  0  0  0  0
   13.8763    9.4471   -0.8711 H   0  0  0  0  0  0  0  0  0  0  0  0
   14.2483    8.5898   -2.4077 H   0  0  0  0  0  0  0  0  0  0  0  0
   12.0602    2.3613   -1.2678 O   0  0  0  0  0  0  0  0  0  0  0  0
   11.5195    3.0970   -2.0514 C   0  0  0  0  0  0  0  0  0  0  0  0
   11.0201    4.3315   -1.7793 O   0  0  0  0  0  0  0  0  0  0  0  0
   11.3411    2.8716   -3.1164 H   0  0  0  0  0  0  0  0  0  0  0  0
  1  2  1  0  0  0  0
  1  6  2  0  0  0  0
  3  2  1  6  0  0  0
  3  5  1  0  0  0  0
  4  3  1  0  0  0  0
  4  5  1  0  0  0  0
  4  9  1  1  0  0  0
  5 10  1  1  0  0  0
  6 13  1  0  0  0  0
  6  5  1  0  0  0  0
  7  1  1  0  0  0  0
  8  2  1  0  0  0  0
 11 12  3  0  0  0  0
 14 15  1  0  0  0  0
 14 16  1  0  0  0  0
 14 13  1  0  0  0  0
 17 14  1  0  0  0  0
 19 20  1  0  0  0  0
 19 18  2  0  0  0  0
 20  4  1  0  0  0  0
 21 19  1  0  0  0  0
M  RAD  2   2   2   3   2
M  END
