Coordinates from ORCA-job p-CH3O-Ph-N2-OOCH-B3LYPG-aug-cc-pVDZ-scan-d09-49-n400
 OpenBabel11081710393D

 21 21  0  0  1  0  0  0  0  0999 V2000
   11.7605    7.5456   -1.0935 C   0  0  0  0  0  0  0  0  0  0  0  0
   10.4880    7.1591   -0.8098 C   0  0  0  0  0  0  0  0  0  0  0  0
   10.2677    5.9648   -0.0534 C   0  0  2  0  0  0  0  0  0  0  0  0
   11.3466    4.9875    0.2842 C   0  0  2  0  0  0  0  0  0  0  0  0
   12.6853    5.5956    0.0911 C   0  0  0  0  0  0  0  0  0  0  0  0
   12.8733    6.7584   -0.5919 C   0  0  0  0  0  0  0  0  0  0  0  0
   11.9285    8.4403   -1.6842 H   0  0  0  0  0  0  0  0  0  0  0  0
    9.6310    7.7383   -1.1502 H   0  0  0  0  0  0  0  0  0  0  0  0
   11.2231    4.5781    1.2931 H   0  0  0  0  0  0  0  0  0  0  0  0
   13.5468    5.0622    0.4881 H   0  0  0  0  0  0  0  0  0  0  0  0
    8.9938    5.6588    0.3509 N   0  0  0  0  0  0  0  0  0  0  0  0
    7.9460    5.3806    0.6936 N   0  0  0  0  0  0  0  0  0  0  0  0
   14.1673    7.1667   -0.7580 O   0  0  0  0  0  0  0  0  0  0  0  0
   14.4354    8.4222   -1.3779 C   0  0  0  0  0  0  0  0  0  0  0  0
   15.5238    8.5332   -1.3510 H   0  0  0  0  0  0  0  0  0  0  0  0
   13.9723    9.2531   -0.8250 H   0  0  0  0  0  0  0  0  0  0  0  0
   14.0978    8.4353   -2.4249 H   0  0  0  0  0  0  0  0  0  0  0  0
   11.2162    4.6090   -2.5580 O   0  0  0  0  0  0  0  0  0  0  0  0
   11.1903    3.6549   -1.8167 C   0  0  0  0  0  0  0  0  0  0  0  0
   11.2025    3.6614   -0.4777 O   0  0  0  0  0  0  0  0  0  0  0  0
   11.1424    2.6058   -2.1680 H   0  0  0  0  0  0  0  0  0  0  0  0
  1  2  2  0  0  0  0
  1  6  1  0  0  0  0
  2  3  1  0  0  0  0
  3  4  1  0  0  0  0
  3 11  1  6  0  0  0
  4  9  1  1  0  0  0
  5  4  1  0  0  0  0
  5 10  1  0  0  0  0
  6  5  2  0  0  0  0
  7  1  1  0  0  0  0
  8  2  1  0  0  0  0
 11 12  1  0  0  0  0
 13  6  1  0  0  0  0
 14 15  1  0  0  0  0
 14 16  1  0  0  0  0
 14 13  1  0  0  0  0
 17 14  1  0  0  0  0
 18 19  2  0  0  0  0
 19 20  1  0  0  0  0
 20  4  1  0  0  0  0
 21 19  1  0  0  0  0
M  RAD  3   3   2  11   2  12   3
M  END
