Coordinates from ORCA-job p-CH3O-Ph-N2-OOCH-B3LYPG-aug-cc-pVDZ-scan-d09-49-n400
 OpenBabel11081710393D

 21 21  0  0  1  0  0  0  0  0999 V2000
   11.7993    7.8700   -1.4020 C   0  0  0  0  0  0  0  0  0  0  0  0
   10.5981    7.2252   -1.0077 C   0  0  0  0  0  0  0  0  0  0  0  0
   10.8775    6.2295   -0.0696 C   0  0  1  0  0  0  0  0  0  0  0  0
   11.2622    4.9020   -0.4067 C   0  0  2  0  0  0  0  0  0  0  0  0
   12.3760    6.0699   -0.0209 C   0  0  1  0  0  0  0  0  0  0  0  0
   12.8634    7.1305   -0.8763 C   0  0  0  0  0  0  0  0  0  0  0  0
   11.8716    8.7137   -2.0836 H   0  0  0  0  0  0  0  0  0  0  0  0
    9.6413    7.3385   -1.5146 H   0  0  0  0  0  0  0  0  0  0  0  0
   11.3742    4.0966    0.3184 H   0  0  0  0  0  0  0  0  0  0  0  0
   12.9616    5.7525    0.8390 H   0  0  0  0  0  0  0  0  0  0  0  0
    7.3560    4.8606    2.5531 N   0  0  0  0  0  0  0  0  0  0  0  0
    7.9316    5.3193    3.3762 N   0  0  0  0  0  0  0  0  0  0  0  0
   14.1881    7.3958   -0.9153 O   0  0  0  0  0  0  0  0  0  0  0  0
   14.5772    8.6093   -1.5607 C   0  0  0  0  0  0  0  0  0  0  0  0
   15.6612    8.6861   -1.4354 H   0  0  0  0  0  0  0  0  0  0  0  0
   14.0816    9.4729   -1.0921 H   0  0  0  0  0  0  0  0  0  0  0  0
   14.3299    8.5781   -2.6322 H   0  0  0  0  0  0  0  0  0  0  0  0
   12.0808    2.4347   -1.2437 O   0  0  0  0  0  0  0  0  0  0  0  0
   11.5040    3.1706   -2.0008 C   0  0  0  0  0  0  0  0  0  0  0  0
   11.0509    4.4201   -1.7156 O   0  0  0  0  0  0  0  0  0  0  0  0
   11.2522    2.9351   -3.0486 H   0  0  0  0  0  0  0  0  0  0  0  0
  1  2  1  0  0  0  0
  1  6  2  0  0  0  0
  3  2  1  6  0  0  0
  3  5  1  0  0  0  0
  4  3  1  0  0  0  0
  4  5  1  0  0  0  0
  4  9  1  1  0  0  0
  5 10  1  1  0  0  0
  6  5  1  0  0  0  0
  7  1  1  0  0  0  0
  8  2  1  0  0  0  0
 11 12  3  0  0  0  0
 13  6  1  0  0  0  0
 14 15  1  0  0  0  0
 14 16  1  0  0  0  0
 14 13  1  0  0  0  0
 17 14  1  0  0  0  0
 19 20  1  0  0  0  0
 19 18  2  0  0  0  0
 20  4  1  0  0  0  0
 21 19  1  0  0  0  0
M  RAD  2   2   2   3   2
M  END
