Coordinates from ORCA-job p-CH3O-Ph-N2-OOCH-B3LYPG-aug-cc-pVDZ-scan-d09-49-n400
 OpenBabel11081710393D

 21 21  0  0  1  0  0  0  0  0999 V2000
   11.7774    7.8585   -1.3936 C   0  0  0  0  0  0  0  0  0  0  0  0
   10.5749    7.2059   -1.0141 C   0  0  0  0  0  0  0  0  0  0  0  0
   10.8509    6.2072   -0.0807 C   0  0  1  0  0  0  0  0  0  0  0  0
   11.2425    4.8822   -0.4158 C   0  0  2  0  0  0  0  0  0  0  0  0
   12.3487    6.0544   -0.0161 C   0  0  1  0  0  0  0  0  0  0  0  0
   12.8398    7.1212   -0.8617 C   0  0  0  0  0  0  0  0  0  0  0  0
   11.8523    8.7061   -2.0700 H   0  0  0  0  0  0  0  0  0  0  0  0
    9.6221    7.3162   -1.5291 H   0  0  0  0  0  0  0  0  0  0  0  0
   11.3502    4.0760    0.3090 H   0  0  0  0  0  0  0  0  0  0  0  0
   12.9268    5.7358    0.8483 H   0  0  0  0  0  0  0  0  0  0  0  0
    7.5662    4.9762    2.4553 N   0  0  0  0  0  0  0  0  0  0  0  0
    8.0715    5.4216    3.3303 N   0  0  0  0  0  0  0  0  0  0  0  0
   14.1637    7.3923   -0.8870 O   0  0  0  0  0  0  0  0  0  0  0  0
   14.5531    8.6107   -1.5227 C   0  0  0  0  0  0  0  0  0  0  0  0
   15.6356    8.6917   -1.3871 H   0  0  0  0  0  0  0  0  0  0  0  0
   14.0494    9.4697   -1.0544 H   0  0  0  0  0  0  0  0  0  0  0  0
   14.3158    8.5838   -2.5966 H   0  0  0  0  0  0  0  0  0  0  0  0
   12.0789    2.4203   -1.2508 O   0  0  0  0  0  0  0  0  0  0  0  0
   11.5055    3.1553   -2.0113 C   0  0  0  0  0  0  0  0  0  0  0  0
   11.0456    4.4028   -1.7278 O   0  0  0  0  0  0  0  0  0  0  0  0
   11.2679    2.9229   -3.0632 H   0  0  0  0  0  0  0  0  0  0  0  0
  1  2  1  0  0  0  0
  1  6  2  0  0  0  0
  3  2  1  6  0  0  0
  3  5  1  0  0  0  0
  4  3  1  0  0  0  0
  4  5  1  0  0  0  0
  4  9  1  1  0  0  0
  5 10  1  1  0  0  0
  6  5  1  0  0  0  0
  7  1  1  0  0  0  0
  8  2  1  0  0  0  0
 11 12  3  0  0  0  0
 13  6  1  0  0  0  0
 14 15  1  0  0  0  0
 14 16  1  0  0  0  0
 14 13  1  0  0  0  0
 17 14  1  0  0  0  0
 19 20  1  0  0  0  0
 19 18  2  0  0  0  0
 20  4  1  0  0  0  0
 21 19  1  0  0  0  0
M  RAD  2   2   2   3   2
M  END
