Coordinates from ORCA-job p-CH3O-Ph-N2-OOCH-B3LYPG-aug-cc-pVDZ-scan-d09-49-n400
 OpenBabel11081710393D

 21 21  0  0  1  0  0  0  0  0999 V2000
   11.6536    7.7905   -1.3594 C   0  0  0  0  0  0  0  0  0  0  0  0
   10.4452    7.1101   -1.0583 C   0  0  0  0  0  0  0  0  0  0  0  0
   10.6836    6.1049   -0.1190 C   0  0  1  0  0  0  0  0  0  0  0  0
   11.1259    4.7953   -0.4508 C   0  0  2  0  0  0  0  0  0  0  0  0
   12.1804    5.9803    0.0283 C   0  0  1  0  0  0  0  0  0  0  0  0
   12.6978    7.0684   -0.7735 C   0  0  0  0  0  0  0  0  0  0  0  0
   11.7504    8.6474   -2.0212 H   0  0  0  0  0  0  0  0  0  0  0  0
    9.5224    7.2102   -1.6271 H   0  0  0  0  0  0  0  0  0  0  0  0
   11.2069    3.9799    0.2675 H   0  0  0  0  0  0  0  0  0  0  0  0
   12.7160    5.6612    0.9196 H   0  0  0  0  0  0  0  0  0  0  0  0
    8.6805    5.6327    1.9171 N   0  0  0  0  0  0  0  0  0  0  0  0
    9.0081    5.8588    2.9479 N   0  0  0  0  0  0  0  0  0  0  0  0
   14.0144    7.3679   -0.7141 O   0  0  0  0  0  0  0  0  0  0  0  0
   14.4154    8.6024   -1.3106 C   0  0  0  0  0  0  0  0  0  0  0  0
   15.4855    8.7043   -1.1079 H   0  0  0  0  0  0  0  0  0  0  0  0
   13.8654    9.4445   -0.8642 H   0  0  0  0  0  0  0  0  0  0  0  0
   14.2448    8.5843   -2.3973 H   0  0  0  0  0  0  0  0  0  0  0  0
   12.0620    2.3637   -1.2683 O   0  0  0  0  0  0  0  0  0  0  0  0
   11.5199    3.0986   -2.0517 C   0  0  0  0  0  0  0  0  0  0  0  0
   11.0160    4.3311   -1.7787 O   0  0  0  0  0  0  0  0  0  0  0  0
   11.3446    2.8744   -3.1175 H   0  0  0  0  0  0  0  0  0  0  0  0
  1  2  1  0  0  0  0
  1  6  2  0  0  0  0
  3  2  1  6  0  0  0
  3  5  1  0  0  0  0
  4  3  1  0  0  0  0
  4  5  1  0  0  0  0
  4  9  1  1  0  0  0
  5 10  1  1  0  0  0
  6 13  1  0  0  0  0
  6  5  1  0  0  0  0
  7  1  1  0  0  0  0
  8  2  1  0  0  0  0
 11 12  3  0  0  0  0
 14 15  1  0  0  0  0
 14 16  1  0  0  0  0
 14 13  1  0  0  0  0
 17 14  1  0  0  0  0
 19 20  1  0  0  0  0
 19 18  2  0  0  0  0
 20  4  1  0  0  0  0
 21 19  1  0  0  0  0
M  RAD  2   2   2   3   2
M  END
