Coordinates from ORCA-job p-CH3O-Ph-N2-OOCH-B3LYPG-aug-cc-pVDZ-scan-d09-49-n400
 OpenBabel11081710393D

 21 21  0  0  1  0  0  0  0  0999 V2000
   11.7944    7.5421   -1.2840 C   0  0  0  0  0  0  0  0  0  0  0  0
   10.5771    7.0265   -0.8542 C   0  0  0  0  0  0  0  0  0  0  0  0
   10.6653    6.0857    0.1863 C   0  0  1  0  0  0  0  0  0  0  0  0
   11.2903    4.8130    0.2005 C   0  0  2  0  0  0  0  0  0  0  0  0
   12.4516    5.8120    0.2597 C   0  0  1  0  0  0  0  0  0  0  0  0
   12.8300    6.8540   -0.6323 C   0  0  2  0  0  0  0  0  0  0  0  0
   11.9070    8.2881   -2.0640 H   0  0  0  0  0  0  0  0  0  0  0  0
    9.6166    7.2868   -1.2942 H   0  0  0  0  0  0  0  0  0  0  0  0
   11.2673    4.2923    1.1597 H   0  0  0  0  0  0  0  0  0  0  0  0
   13.1235    5.6238    1.0955 H   0  0  0  0  0  0  0  0  0  0  0  0
    8.7323    5.6875    0.5268 N   0  0  0  0  0  0  0  0  0  0  0  0
    8.1611    5.2609    1.3796 N   0  0  0  0  0  0  0  0  0  0  0  0
   14.1382    7.1940   -0.6263 O   0  0  0  0  0  0  0  0  0  0  0  0
   14.5165    8.3622   -1.3596 C   0  0  0  0  0  0  0  0  0  0  0  0
   15.5833    8.5050   -1.1642 H   0  0  0  0  0  0  0  0  0  0  0  0
   13.9501    9.2386   -1.0126 H   0  0  0  0  0  0  0  0  0  0  0  0
   14.3545    8.2156   -2.4369 H   0  0  0  0  0  0  0  0  0  0  0  0
   11.3377    4.8206   -2.7048 O   0  0  0  0  0  0  0  0  0  0  0  0
   11.1734    3.8109   -2.0673 C   0  0  0  0  0  0  0  0  0  0  0  0
   11.1474    3.6786   -0.7298 O   0  0  0  0  0  0  0  0  0  0  0  0
   11.0211    2.8125   -2.5172 H   0  0  0  0  0  0  0  0  0  0  0  0
  1  2  2  0  0  0  0
  1  6  1  0  0  0  0
  3  2  1  6  0  0  0
  3  4  1  0  0  0  0
  3  5  1  0  0  0  0
  4  5  1  0  0  0  0
  4  9  1  1  0  0  0
  5 10  1  1  0  0  0
  6 13  1  1  0  0  0
  6  5  1  0  0  0  0
  7  1  1  0  0  0  0
  8  2  1  0  0  0  0
 11 12  3  0  0  0  0
 14 15  1  0  0  0  0
 14 16  1  0  0  0  0
 14 13  1  0  0  0  0
 17 14  1  0  0  0  0
 18 19  2  0  0  0  0
 19 20  1  0  0  0  0
 20  4  1  0  0  0  0
 21 19  1  0  0  0  0
M  RAD  2   3   2   6   2
M  END
