Coordinates from ORCA-job p-CH3O-Ph-N2-OOCH-B3LYPG-aug-cc-pVDZ-scan-d09-49-n400
 OpenBabel11081710393D

 21 21  0  0  1  0  0  0  0  0999 V2000
   11.7114    7.8192   -1.3723 C   0  0  0  0  0  0  0  0  0  0  0  0
   10.5074    7.1481   -1.0341 C   0  0  0  0  0  0  0  0  0  0  0  0
   10.7676    6.1429   -0.1006 C   0  0  1  0  0  0  0  0  0  0  0  0
   11.1885    4.8277   -0.4412 C   0  0  2  0  0  0  0  0  0  0  0  0
   12.2661    6.0079    0.0038 C   0  0  1  0  0  0  0  0  0  0  0  0
   12.7672    7.0898   -0.8165 C   0  0  0  0  0  0  0  0  0  0  0  0
   11.7951    8.6739   -2.0385 H   0  0  0  0  0  0  0  0  0  0  0  0
    9.5688    7.2525   -1.5758 H   0  0  0  0  0  0  0  0  0  0  0  0
   11.2856    4.0135    0.2762 H   0  0  0  0  0  0  0  0  0  0  0  0
   12.8244    5.6872    0.8804 H   0  0  0  0  0  0  0  0  0  0  0  0
    8.1599    5.3187    2.2044 N   0  0  0  0  0  0  0  0  0  0  0  0
    8.4834    5.7206    3.1809 N   0  0  0  0  0  0  0  0  0  0  0  0
   14.0875    7.3782   -0.8002 O   0  0  0  0  0  0  0  0  0  0  0  0
   14.4797    8.6078   -1.4124 C   0  0  0  0  0  0  0  0  0  0  0  0
   15.5565    8.7012   -1.2440 H   0  0  0  0  0  0  0  0  0  0  0  0
   13.9512    9.4556   -0.9511 H   0  0  0  0  0  0  0  0  0  0  0  0
   14.2746    8.5884   -2.4931 H   0  0  0  0  0  0  0  0  0  0  0  0
   12.0853    2.3888   -1.2815 O   0  0  0  0  0  0  0  0  0  0  0  0
   11.5221    3.1245   -2.0490 C   0  0  0  0  0  0  0  0  0  0  0  0
   11.0369    4.3620   -1.7643 O   0  0  0  0  0  0  0  0  0  0  0  0
   11.3194    2.9022   -3.1103 H   0  0  0  0  0  0  0  0  0  0  0  0
  1  2  1  0  0  0  0
  1  6  2  0  0  0  0
  3  2  1  6  0  0  0
  3  5  1  0  0  0  0
  4  3  1  0  0  0  0
  4  5  1  0  0  0  0
  4  9  1  1  0  0  0
  5 10  1  1  0  0  0
  6 13  1  0  0  0  0
  6  5  1  0  0  0  0
  7  1  1  0  0  0  0
  8  2  1  0  0  0  0
 11 12  3  0  0  0  0
 14 15  1  0  0  0  0
 14 16  1  0  0  0  0
 14 13  1  0  0  0  0
 17 14  1  0  0  0  0
 19 20  1  0  0  0  0
 19 18  2  0  0  0  0
 20  4  1  0  0  0  0
 21 19  1  0  0  0  0
M  RAD  2   2   2   3   2
M  END
