Coordinates from ORCA-job p-CH3O-Ph-N2-OOCH-B3LYPG-aug-cc-pVDZ-scan-d09-49-n400
 OpenBabel11081710393D

 21 21  0  0  1  0  0  0  0  0999 V2000
   11.6378    7.7816   -1.3460 C   0  0  0  0  0  0  0  0  0  0  0  0
   10.4305    7.0972   -1.0485 C   0  0  0  0  0  0  0  0  0  0  0  0
   10.6704    6.0887   -0.1135 C   0  0  1  0  0  0  0  0  0  0  0  0
   11.1174    4.7819   -0.4489 C   0  0  2  0  0  0  0  0  0  0  0  0
   12.1677    5.9669    0.0346 C   0  0  1  0  0  0  0  0  0  0  0  0
   12.6833    7.0600   -0.7623 C   0  0  0  0  0  0  0  0  0  0  0  0
   11.7328    8.6417   -2.0038 H   0  0  0  0  0  0  0  0  0  0  0  0
    9.5078    7.1982   -1.6172 H   0  0  0  0  0  0  0  0  0  0  0  0
   11.1990    3.9644    0.2672 H   0  0  0  0  0  0  0  0  0  0  0  0
   12.7032    5.6464    0.9255 H   0  0  0  0  0  0  0  0  0  0  0  0
    8.7961    5.7161    1.8284 N   0  0  0  0  0  0  0  0  0  0  0  0
    9.1159    5.9280    2.8655 N   0  0  0  0  0  0  0  0  0  0  0  0
   13.9989    7.3632   -0.6990 O   0  0  0  0  0  0  0  0  0  0  0  0
   14.3973    8.6013   -1.2896 C   0  0  0  0  0  0  0  0  0  0  0  0
   15.4668    8.7054   -1.0849 H   0  0  0  0  0  0  0  0  0  0  0  0
   13.8442    9.4399   -0.8404 H   0  0  0  0  0  0  0  0  0  0  0  0
   14.2283    8.5874   -2.3766 H   0  0  0  0  0  0  0  0  0  0  0  0
   12.0671    2.3585   -1.2745 O   0  0  0  0  0  0  0  0  0  0  0  0
   11.5172    3.0912   -2.0546 C   0  0  0  0  0  0  0  0  0  0  0  0
   11.0086    4.3209   -1.7782 O   0  0  0  0  0  0  0  0  0  0  0  0
   11.3484    2.8718   -3.1224 H   0  0  0  0  0  0  0  0  0  0  0  0
  1  2  1  0  0  0  0
  1  6  2  0  0  0  0
  3  2  1  6  0  0  0
  3  5  1  0  0  0  0
  4  3  1  0  0  0  0
  4  5  1  0  0  0  0
  4  9  1  1  0  0  0
  5 10  1  1  0  0  0
  6 13  1  0  0  0  0
  6  5  1  0  0  0  0
  7  1  1  0  0  0  0
  8  2  1  0  0  0  0
 11 12  3  0  0  0  0
 14 15  1  0  0  0  0
 14 16  1  0  0  0  0
 14 13  1  0  0  0  0
 17 14  1  0  0  0  0
 19 20  1  0  0  0  0
 19 18  2  0  0  0  0
 20  4  1  0  0  0  0
 21 19  1  0  0  0  0
M  RAD  2   2   2   3   2
M  END
