Coordinates from ORCA-job p-CH3O-Ph-N2-OOCH-B3LYPG-aug-cc-pVDZ-scan-d09-49-n400
 OpenBabel11081710393D

 21 21  0  0  1  0  0  0  0  0999 V2000
   11.6628    7.7963   -1.3614 C   0  0  0  0  0  0  0  0  0  0  0  0
   10.4546    7.1160   -1.0566 C   0  0  0  0  0  0  0  0  0  0  0  0
   10.6972    6.1095   -0.1209 C   0  0  1  0  0  0  0  0  0  0  0  0
   11.1360    4.7986   -0.4522 C   0  0  2  0  0  0  0  0  0  0  0  0
   12.1937    5.9837    0.0218 C   0  0  1  0  0  0  0  0  0  0  0  0
   12.7087    7.0722   -0.7815 C   0  0  0  0  0  0  0  0  0  0  0  0
   11.7575    8.6544   -2.0220 H   0  0  0  0  0  0  0  0  0  0  0  0
    9.5304    7.2173   -1.6229 H   0  0  0  0  0  0  0  0  0  0  0  0
   11.2190    3.9842    0.2670 H   0  0  0  0  0  0  0  0  0  0  0  0
   12.7316    5.6648    0.9118 H   0  0  0  0  0  0  0  0  0  0  0  0
    8.6008    5.5868    1.9681 N   0  0  0  0  0  0  0  0  0  0  0  0
    8.9243    5.8417    2.9933 N   0  0  0  0  0  0  0  0  0  0  0  0
   14.0260    7.3700   -0.7283 O   0  0  0  0  0  0  0  0  0  0  0  0
   14.4255    8.6049   -1.3248 C   0  0  0  0  0  0  0  0  0  0  0  0
   15.4967    8.7053   -1.1274 H   0  0  0  0  0  0  0  0  0  0  0  0
   13.8787    9.4470   -0.8744 H   0  0  0  0  0  0  0  0  0  0  0  0
   14.2493    8.5887   -2.4107 H   0  0  0  0  0  0  0  0  0  0  0  0
   12.0631    2.3634   -1.2696 O   0  0  0  0  0  0  0  0  0  0  0  0
   11.5193    3.0983   -2.0518 C   0  0  0  0  0  0  0  0  0  0  0  0
   11.0206    4.3330   -1.7790 O   0  0  0  0  0  0  0  0  0  0  0  0
   11.3429    2.8746   -3.1176 H   0  0  0  0  0  0  0  0  0  0  0  0
  1  2  1  0  0  0  0
  1  6  2  0  0  0  0
  3  2  1  6  0  0  0
  3  5  1  0  0  0  0
  4  3  1  0  0  0  0
  4  5  1  0  0  0  0
  4  9  1  1  0  0  0
  5 10  1  1  0  0  0
  6 13  1  0  0  0  0
  6  5  1  0  0  0  0
  7  1  1  0  0  0  0
  8  2  1  0  0  0  0
 11 12  3  0  0  0  0
 14 15  1  0  0  0  0
 14 16  1  0  0  0  0
 14 13  1  0  0  0  0
 17 14  1  0  0  0  0
 19 20  1  0  0  0  0
 19 18  2  0  0  0  0
 20  4  1  0  0  0  0
 21 19  1  0  0  0  0
M  RAD  2   2   2   3   2
M  END
