Coordinates from ORCA-job p-CH3O-Ph-N2-OOCH-B3LYPG-aug-cc-pVDZ-scan-d09-49-n400
 OpenBabel11081710393D

 21 21  0  0  1  0  0  0  0  0999 V2000
   11.6874    7.8071   -1.3699 C   0  0  0  0  0  0  0  0  0  0  0  0
   10.4808    7.1311   -1.0507 C   0  0  0  0  0  0  0  0  0  0  0  0
   10.7306    6.1259   -0.1151 C   0  0  1  0  0  0  0  0  0  0  0  0
   11.1612    4.8129   -0.4503 C   0  0  2  0  0  0  0  0  0  0  0  0
   12.2280    5.9963    0.0117 C   0  0  1  0  0  0  0  0  0  0  0  0
   12.7374    7.0811   -0.7994 C   0  0  0  0  0  0  0  0  0  0  0  0
   11.7776    8.6632   -2.0335 H   0  0  0  0  0  0  0  0  0  0  0  0
    9.5505    7.2330   -1.6067 H   0  0  0  0  0  0  0  0  0  0  0  0
   11.2505    3.9986    0.2681 H   0  0  0  0  0  0  0  0  0  0  0  0
   12.7743    5.6765    0.8962 H   0  0  0  0  0  0  0  0  0  0  0  0
    8.3853    5.4507    2.1001 N   0  0  0  0  0  0  0  0  0  0  0  0
    8.7021    5.7882    3.1025 N   0  0  0  0  0  0  0  0  0  0  0  0
   14.0562    7.3749   -0.7619 O   0  0  0  0  0  0  0  0  0  0  0  0
   14.4529    8.6070   -1.3660 C   0  0  0  0  0  0  0  0  0  0  0  0
   15.5266    8.7044   -1.1808 H   0  0  0  0  0  0  0  0  0  0  0  0
   13.9138    9.4519   -0.9116 H   0  0  0  0  0  0  0  0  0  0  0  0
   14.2646    8.5887   -2.4498 H   0  0  0  0  0  0  0  0  0  0  0  0
   12.0721    2.3744   -1.2765 O   0  0  0  0  0  0  0  0  0  0  0  0
   11.5229    3.1110   -2.0533 C   0  0  0  0  0  0  0  0  0  0  0  0
   11.0308    4.3473   -1.7756 O   0  0  0  0  0  0  0  0  0  0  0  0
   11.3332    2.8869   -3.1166 H   0  0  0  0  0  0  0  0  0  0  0  0
  1  2  1  0  0  0  0
  1  6  2  0  0  0  0
  3  2  1  6  0  0  0
  3  5  1  0  0  0  0
  4  3  1  0  0  0  0
  4  5  1  0  0  0  0
  4  9  1  1  0  0  0
  5 10  1  1  0  0  0
  6 13  1  0  0  0  0
  6  5  1  0  0  0  0
  7  1  1  0  0  0  0
  8  2  1  0  0  0  0
 11 12  3  0  0  0  0
 14 15  1  0  0  0  0
 14 16  1  0  0  0  0
 14 13  1  0  0  0  0
 17 14  1  0  0  0  0
 19 20  1  0  0  0  0
 19 18  2  0  0  0  0
 20  4  1  0  0  0  0
 21 19  1  0  0  0  0
M  RAD  2   2   2   3   2
M  END
