Coordinates from ORCA-job p-CH3O-Ph-N2-OOCH-B3LYPG-aug-cc-pVDZ-scan-d09-49-n400
 OpenBabel11081710393D

 21 21  0  0  1  0  0  0  0  0999 V2000
   11.7527    7.5331   -1.0934 C   0  0  0  0  0  0  0  0  0  0  0  0
   10.4853    7.1470   -0.8349 C   0  0  0  0  0  0  0  0  0  0  0  0
   10.1938    5.9384   -0.0578 C   0  0  0  0  0  0  0  0  0  0  0  0
   11.3467    4.9778    0.2709 C   0  0  2  0  0  0  0  0  0  0  0  0
   12.6873    5.5782    0.0606 C   0  0  0  0  0  0  0  0  0  0  0  0
   12.8760    6.7490   -0.5964 C   0  0  0  0  0  0  0  0  0  0  0  0
   11.9220    8.4298   -1.6823 H   0  0  0  0  0  0  0  0  0  0  0  0
    9.6316    7.7186   -1.1984 H   0  0  0  0  0  0  0  0  0  0  0  0
   11.2249    4.6176    1.2999 H   0  0  0  0  0  0  0  0  0  0  0  0
   13.5466    5.0313    0.4449 H   0  0  0  0  0  0  0  0  0  0  0  0
    9.1679    5.6872    0.2855 N   0  0  0  0  0  0  0  0  0  0  0  0
    8.1058    5.4066    0.6510 N   0  0  0  0  0  0  0  0  0  0  0  0
   14.1650    7.1692   -0.7605 O   0  0  0  0  0  0  0  0  0  0  0  0
   14.4248    8.4430   -1.3484 C   0  0  0  0  0  0  0  0  0  0  0  0
   15.5120    8.5623   -1.3124 H   0  0  0  0  0  0  0  0  0  0  0  0
   13.9520    9.2557   -0.7773 H   0  0  0  0  0  0  0  0  0  0  0  0
   14.0936    8.4787   -2.3967 H   0  0  0  0  0  0  0  0  0  0  0  0
   11.1302    4.5902   -2.5352 O   0  0  0  0  0  0  0  0  0  0  0  0
   11.1385    3.6418   -1.7891 C   0  0  0  0  0  0  0  0  0  0  0  0
   11.1922    3.6667   -0.4469 O   0  0  0  0  0  0  0  0  0  0  0  0
   11.0898    2.5885   -2.1222 H   0  0  0  0  0  0  0  0  0  0  0  0
  1  2  1  0  0  0  0
  1  6  2  0  0  0  0
  2  3  2  0  0  0  0
  3  4  1  0  0  0  0
  3 11  1  0  0  0  0
  4  9  1  1  0  0  0
  5  4  1  0  0  0  0
  5 10  1  0  0  0  0
  6  5  1  0  0  0  0
  7  1  1  0  0  0  0
  8  2  1  0  0  0  0
 11 12  1  0  0  0  0
 13  6  1  0  0  0  0
 14 15  1  0  0  0  0
 14 16  1  0  0  0  0
 14 13  1  0  0  0  0
 17 14  1  0  0  0  0
 18 19  2  0  0  0  0
 19 20  1  0  0  0  0
 20  4  1  0  0  0  0
 21 19  1  0  0  0  0
M  RAD  3   5   2  11   2  12   3
M  END
