Coordinates from ORCA-job p-CH3O-Ph-N2-OOCH-B3LYPG-aug-cc-pVDZ-scan-d09-49-n400
 OpenBabel11081710393D

 21 21  0  0  1  0  0  0  0  0999 V2000
   11.7125    7.8195   -1.3727 C   0  0  0  0  0  0  0  0  0  0  0  0
   10.5086    7.1485   -1.0340 C   0  0  0  0  0  0  0  0  0  0  0  0
   10.7691    6.1437   -0.1007 C   0  0  1  0  0  0  0  0  0  0  0  0
   11.1898    4.8285   -0.4412 C   0  0  2  0  0  0  0  0  0  0  0  0
   12.2676    6.0087    0.0033 C   0  0  1  0  0  0  0  0  0  0  0  0
   12.7685    7.0903   -0.8173 C   0  0  0  0  0  0  0  0  0  0  0  0
   11.7958    8.6743   -2.0390 H   0  0  0  0  0  0  0  0  0  0  0  0
    9.5698    7.2528   -1.5752 H   0  0  0  0  0  0  0  0  0  0  0  0
   11.2871    4.0144    0.2763 H   0  0  0  0  0  0  0  0  0  0  0  0
   12.8262    5.6881    0.8797 H   0  0  0  0  0  0  0  0  0  0  0  0
    8.1524    5.3138    2.2077 N   0  0  0  0  0  0  0  0  0  0  0  0
    8.4773    5.7165    3.1830 N   0  0  0  0  0  0  0  0  0  0  0  0
   14.0888    7.3789   -0.8012 O   0  0  0  0  0  0  0  0  0  0  0  0
   14.4808    8.6085   -1.4135 C   0  0  0  0  0  0  0  0  0  0  0  0
   15.5576    8.7020   -1.2454 H   0  0  0  0  0  0  0  0  0  0  0  0
   13.9523    9.4563   -0.9521 H   0  0  0  0  0  0  0  0  0  0  0  0
   14.2754    8.5892   -2.4942 H   0  0  0  0  0  0  0  0  0  0  0  0
   12.0828    2.3880   -1.2804 O   0  0  0  0  0  0  0  0  0  0  0  0
   11.5229    3.1252   -2.0489 C   0  0  0  0  0  0  0  0  0  0  0  0
   11.0377    4.3626   -1.7641 O   0  0  0  0  0  0  0  0  0  0  0  0
   11.3159    2.9009   -3.1089 H   0  0  0  0  0  0  0  0  0  0  0  0
  1  2  1  0  0  0  0
  1  6  2  0  0  0  0
  3  2  1  6  0  0  0
  3  5  1  0  0  0  0
  4  3  1  0  0  0  0
  4  5  1  0  0  0  0
  4  9  1  1  0  0  0
  5 10  1  1  0  0  0
  6 13  1  0  0  0  0
  6  5  1  0  0  0  0
  7  1  1  0  0  0  0
  8  2  1  0  0  0  0
 11 12  3  0  0  0  0
 14 15  1  0  0  0  0
 14 16  1  0  0  0  0
 14 13  1  0  0  0  0
 17 14  1  0  0  0  0
 19 20  1  0  0  0  0
 19 18  2  0  0  0  0
 20  4  1  0  0  0  0
 21 19  1  0  0  0  0
M  RAD  2   2   2   3   2
M  END
