Coordinates from ORCA-job p-CH3O-Ph-N2-OOCH-B3LYPG-aug-cc-pVDZ-scan-d09-49-n400
 OpenBabel11081710393D

 21 21  0  0  1  0  0  0  0  0999 V2000
   11.6443    7.7855   -1.3519 C   0  0  0  0  0  0  0  0  0  0  0  0
   10.4365    7.1026   -1.0535 C   0  0  0  0  0  0  0  0  0  0  0  0
   10.6757    6.0954   -0.1169 C   0  0  1  0  0  0  0  0  0  0  0  0
   11.1204    4.7873   -0.4502 C   0  0  2  0  0  0  0  0  0  0  0  0
   12.1726    5.9726    0.0317 C   0  0  1  0  0  0  0  0  0  0  0  0
   12.6892    7.0637   -0.7670 C   0  0  0  0  0  0  0  0  0  0  0  0
   11.7402    8.6443   -2.0112 H   0  0  0  0  0  0  0  0  0  0  0  0
    9.5140    7.2030   -1.6227 H   0  0  0  0  0  0  0  0  0  0  0  0
   11.2018    3.9709    0.2672 H   0  0  0  0  0  0  0  0  0  0  0  0
   12.7079    5.6526    0.9229 H   0  0  0  0  0  0  0  0  0  0  0  0
    8.7492    5.6832    1.8654 N   0  0  0  0  0  0  0  0  0  0  0  0
    9.0750    5.8980    2.8997 N   0  0  0  0  0  0  0  0  0  0  0  0
   14.0051    7.3655   -0.7048 O   0  0  0  0  0  0  0  0  0  0  0  0
   14.4047    8.6022   -1.2975 C   0  0  0  0  0  0  0  0  0  0  0  0
   15.4744    8.7055   -1.0932 H   0  0  0  0  0  0  0  0  0  0  0  0
   13.8526    9.4422   -0.8495 H   0  0  0  0  0  0  0  0  0  0  0  0
   14.2355    8.5867   -2.3844 H   0  0  0  0  0  0  0  0  0  0  0  0
   12.0639    2.3599   -1.2712 O   0  0  0  0  0  0  0  0  0  0  0  0
   11.5183    3.0936   -2.0532 C   0  0  0  0  0  0  0  0  0  0  0  0
   11.0114    4.3245   -1.7787 O   0  0  0  0  0  0  0  0  0  0  0  0
   11.3461    2.8714   -3.1200 H   0  0  0  0  0  0  0  0  0  0  0  0
  1  2  1  0  0  0  0
  1  6  2  0  0  0  0
  3  2  1  6  0  0  0
  3  5  1  0  0  0  0
  4  3  1  0  0  0  0
  4  5  1  0  0  0  0
  4  9  1  1  0  0  0
  5 10  1  1  0  0  0
  6 13  1  0  0  0  0
  6  5  1  0  0  0  0
  7  1  1  0  0  0  0
  8  2  1  0  0  0  0
 11 12  3  0  0  0  0
 14 15  1  0  0  0  0
 14 16  1  0  0  0  0
 14 13  1  0  0  0  0
 17 14  1  0  0  0  0
 19 20  1  0  0  0  0
 19 18  2  0  0  0  0
 20  4  1  0  0  0  0
 21 19  1  0  0  0  0
M  RAD  2   2   2   3   2
M  END
