Coordinates from ORCA-job p-CH3O-Ph-N2-OOCH-B3LYPG-aug-cc-pVDZ-scan-d09-49-n400
 OpenBabel11081710393D

 21 21  0  0  1  0  0  0  0  0999 V2000
   11.7000    7.8144   -1.3706 C   0  0  0  0  0  0  0  0  0  0  0  0
   10.4952    7.1398   -1.0426 C   0  0  0  0  0  0  0  0  0  0  0  0
   10.7508    6.1334   -0.1081 C   0  0  1  0  0  0  0  0  0  0  0  0
   11.1777    4.8194   -0.4468 C   0  0  2  0  0  0  0  0  0  0  0  0
   12.2490    6.0021    0.0075 C   0  0  1  0  0  0  0  0  0  0  0  0
   12.7533    7.0867   -0.8079 C   0  0  0  0  0  0  0  0  0  0  0  0
   11.7866    8.6703   -2.0350 H   0  0  0  0  0  0  0  0  0  0  0  0
    9.5605    7.2425   -1.5917 H   0  0  0  0  0  0  0  0  0  0  0  0
   11.2716    4.0047    0.2707 H   0  0  0  0  0  0  0  0  0  0  0  0
   12.8016    5.6817    0.8878 H   0  0  0  0  0  0  0  0  0  0  0  0
    8.2734    5.3816    2.1514 N   0  0  0  0  0  0  0  0  0  0  0  0
    8.5873    5.7574    3.1422 N   0  0  0  0  0  0  0  0  0  0  0  0
   14.0727    7.3784   -0.7812 O   0  0  0  0  0  0  0  0  0  0  0  0
   14.4662    8.6097   -1.3888 C   0  0  0  0  0  0  0  0  0  0  0  0
   15.5415    8.7057   -1.2123 H   0  0  0  0  0  0  0  0  0  0  0  0
   13.9321    9.4556   -0.9303 H   0  0  0  0  0  0  0  0  0  0  0  0
   14.2691    8.5914   -2.4710 H   0  0  0  0  0  0  0  0  0  0  0  0
   12.0699    2.3756   -1.2772 O   0  0  0  0  0  0  0  0  0  0  0  0
   11.5265    3.1177   -2.0529 C   0  0  0  0  0  0  0  0  0  0  0  0
   11.0371    4.3541   -1.7712 O   0  0  0  0  0  0  0  0  0  0  0  0
   11.3166    2.8885   -3.1113 H   0  0  0  0  0  0  0  0  0  0  0  0
  1  2  1  0  0  0  0
  1  6  2  0  0  0  0
  3  2  1  6  0  0  0
  3  5  1  0  0  0  0
  4  3  1  0  0  0  0
  4  5  1  0  0  0  0
  4  9  1  1  0  0  0
  5 10  1  1  0  0  0
  6 13  1  0  0  0  0
  6  5  1  0  0  0  0
  7  1  1  0  0  0  0
  8  2  1  0  0  0  0
 11 12  3  0  0  0  0
 14 15  1  0  0  0  0
 14 16  1  0  0  0  0
 14 13  1  0  0  0  0
 17 14  1  0  0  0  0
 19 20  1  0  0  0  0
 19 18  2  0  0  0  0
 20  4  1  0  0  0  0
 21 19  1  0  0  0  0
M  RAD  2   2   2   3   2
M  END
