Coordinates from ORCA-job p-CH3O-Ph-N2-OOCH-B3LYPG-aug-cc-pVDZ-scan-d09-49-n400
 OpenBabel11081710393D

 21 21  0  0  1  0  0  0  0  0999 V2000
   11.7707    7.8545   -1.3917 C   0  0  0  0  0  0  0  0  0  0  0  0
   10.5679    7.2001   -1.0166 C   0  0  0  0  0  0  0  0  0  0  0  0
   10.8421    6.2009   -0.0832 C   0  0  1  0  0  0  0  0  0  0  0  0
   11.2365    4.8768   -0.4184 C   0  0  2  0  0  0  0  0  0  0  0  0
   12.3399    6.0499   -0.0140 C   0  0  1  0  0  0  0  0  0  0  0  0
   12.8323    7.1180   -0.8571 C   0  0  0  0  0  0  0  0  0  0  0  0
   11.8467    8.7028   -2.0672 H   0  0  0  0  0  0  0  0  0  0  0  0
    9.6166    7.3098   -1.5345 H   0  0  0  0  0  0  0  0  0  0  0  0
   11.3429    4.0699    0.3057 H   0  0  0  0  0  0  0  0  0  0  0  0
   12.9158    5.7311    0.8518 H   0  0  0  0  0  0  0  0  0  0  0  0
    7.6286    5.0115    2.4283 N   0  0  0  0  0  0  0  0  0  0  0  0
    8.1129    5.4507    3.3180 N   0  0  0  0  0  0  0  0  0  0  0  0
   14.1559    7.3909   -0.8779 O   0  0  0  0  0  0  0  0  0  0  0  0
   14.5459    8.6103   -1.5114 C   0  0  0  0  0  0  0  0  0  0  0  0
   15.6278    8.6926   -1.3723 H   0  0  0  0  0  0  0  0  0  0  0  0
   14.0395    9.4683   -1.0440 H   0  0  0  0  0  0  0  0  0  0  0  0
   14.3121    8.5840   -2.5861 H   0  0  0  0  0  0  0  0  0  0  0  0
   12.0798    2.4174   -1.2538 O   0  0  0  0  0  0  0  0  0  0  0  0
   11.5072    3.1522   -2.0151 C   0  0  0  0  0  0  0  0  0  0  0  0
   11.0444    4.3986   -1.7316 O   0  0  0  0  0  0  0  0  0  0  0  0
   11.2734    2.9206   -3.0680 H   0  0  0  0  0  0  0  0  0  0  0  0
  1  2  1  0  0  0  0
  1  6  2  0  0  0  0
  3  2  1  6  0  0  0
  3  5  1  0  0  0  0
  4  3  1  0  0  0  0
  4  5  1  0  0  0  0
  4  9  1  1  0  0  0
  5 10  1  1  0  0  0
  6  5  1  0  0  0  0
  7  1  1  0  0  0  0
  8  2  1  0  0  0  0
 11 12  3  0  0  0  0
 13  6  1  0  0  0  0
 14 15  1  0  0  0  0
 14 16  1  0  0  0  0
 14 13  1  0  0  0  0
 17 14  1  0  0  0  0
 19 20  1  0  0  0  0
 19 18  2  0  0  0  0
 20  4  1  0  0  0  0
 21 19  1  0  0  0  0
M  RAD  2   2   2   3   2
M  END
