Coordinates from ORCA-job p-CH3O-Ph-N2-OOCH-B3LYPG-aug-cc-pVDZ-scan-d09-49-n400
 OpenBabel11081710393D

 21 21  0  0  1  0  0  0  0  0999 V2000
   11.6687    7.7987   -1.3634 C   0  0  0  0  0  0  0  0  0  0  0  0
   10.4610    7.1192   -1.0552 C   0  0  0  0  0  0  0  0  0  0  0  0
   10.7054    6.1131   -0.1196 C   0  0  1  0  0  0  0  0  0  0  0  0
   11.1425    4.8018   -0.4521 C   0  0  2  0  0  0  0  0  0  0  0  0
   12.2022    5.9866    0.0192 C   0  0  1  0  0  0  0  0  0  0  0  0
   12.7158    7.0743   -0.7859 C   0  0  0  0  0  0  0  0  0  0  0  0
   11.7622    8.6562   -2.0248 H   0  0  0  0  0  0  0  0  0  0  0  0
    9.5354    7.2206   -1.6192 H   0  0  0  0  0  0  0  0  0  0  0  0
   11.2271    3.9873    0.2668 H   0  0  0  0  0  0  0  0  0  0  0  0
   12.7422    5.6674    0.9078 H   0  0  0  0  0  0  0  0  0  0  0  0
    8.5489    5.5551    2.0009 N   0  0  0  0  0  0  0  0  0  0  0  0
    8.8689    5.8302    3.0215 N   0  0  0  0  0  0  0  0  0  0  0  0
   14.0334    7.3713   -0.7364 O   0  0  0  0  0  0  0  0  0  0  0  0
   14.4320    8.6057   -1.3346 C   0  0  0  0  0  0  0  0  0  0  0  0
   15.5038    8.7055   -1.1401 H   0  0  0  0  0  0  0  0  0  0  0  0
   13.8869    9.4483   -0.8831 H   0  0  0  0  0  0  0  0  0  0  0  0
   14.2530    8.5891   -2.4200 H   0  0  0  0  0  0  0  0  0  0  0  0
   12.0647    2.3654   -1.2718 O   0  0  0  0  0  0  0  0  0  0  0  0
   11.5208    3.1014   -2.0529 C   0  0  0  0  0  0  0  0  0  0  0  0
   11.0237    4.3364   -1.7787 O   0  0  0  0  0  0  0  0  0  0  0  0
   11.3402    2.8773   -3.1177 H   0  0  0  0  0  0  0  0  0  0  0  0
  1  2  1  0  0  0  0
  1  6  2  0  0  0  0
  3  2  1  6  0  0  0
  3  5  1  0  0  0  0
  4  3  1  0  0  0  0
  4  5  1  0  0  0  0
  4  9  1  1  0  0  0
  5 10  1  1  0  0  0
  6 13  1  0  0  0  0
  6  5  1  0  0  0  0
  7  1  1  0  0  0  0
  8  2  1  0  0  0  0
 11 12  3  0  0  0  0
 14 15  1  0  0  0  0
 14 16  1  0  0  0  0
 14 13  1  0  0  0  0
 17 14  1  0  0  0  0
 19 20  1  0  0  0  0
 19 18  2  0  0  0  0
 20  4  1  0  0  0  0
 21 19  1  0  0  0  0
M  RAD  2   2   2   3   2
M  END
