Coordinates from ORCA-job p-CH3O-Ph-N2-OOCH-B3LYPG-aug-cc-pVDZ-scan-d09-49-n400
 OpenBabel11081710393D

 21 21  0  0  1  0  0  0  0  0999 V2000
   11.7390    7.8345   -1.3814 C   0  0  0  0  0  0  0  0  0  0  0  0
   10.5360    7.1710   -1.0257 C   0  0  0  0  0  0  0  0  0  0  0  0
   10.8032    6.1685   -0.0912 C   0  0  1  0  0  0  0  0  0  0  0  0
   11.2127    4.8494   -0.4316 C   0  0  2  0  0  0  0  0  0  0  0  0
   12.3020    6.0265   -0.0050 C   0  0  1  0  0  0  0  0  0  0  0  0
   12.7981    7.1024   -0.8359 C   0  0  0  0  0  0  0  0  0  0  0  0
   11.8186    8.6866   -2.0517 H   0  0  0  0  0  0  0  0  0  0  0  0
    9.5914    7.2778   -1.5561 H   0  0  0  0  0  0  0  0  0  0  0  0
   11.3155    4.0379    0.2880 H   0  0  0  0  0  0  0  0  0  0  0  0
   12.8693    5.7067    0.8661 H   0  0  0  0  0  0  0  0  0  0  0  0
    7.9119    5.1776    2.3110 N   0  0  0  0  0  0  0  0  0  0  0  0
    8.2976    5.6013    3.2548 N   0  0  0  0  0  0  0  0  0  0  0  0
   14.1199    7.3845   -0.8369 O   0  0  0  0  0  0  0  0  0  0  0  0
   14.5105    8.6098   -1.4585 C   0  0  0  0  0  0  0  0  0  0  0  0
   15.5898    8.6985   -1.3039 H   0  0  0  0  0  0  0  0  0  0  0  0
   13.9920    9.4620   -0.9939 H   0  0  0  0  0  0  0  0  0  0  0  0
   14.2920    8.5875   -2.5365 H   0  0  0  0  0  0  0  0  0  0  0  0
   12.0840    2.4015   -1.2717 O   0  0  0  0  0  0  0  0  0  0  0  0
   11.5176    3.1379   -2.0361 C   0  0  0  0  0  0  0  0  0  0  0  0
   11.0416    4.3787   -1.7504 O   0  0  0  0  0  0  0  0  0  0  0  0
   11.2960    2.9101   -3.0924 H   0  0  0  0  0  0  0  0  0  0  0  0
  1  2  1  0  0  0  0
  1  6  2  0  0  0  0
  3  2  1  6  0  0  0
  3  5  1  0  0  0  0
  4  3  1  0  0  0  0
  4  5  1  0  0  0  0
  4  9  1  1  0  0  0
  5 10  1  1  0  0  0
  6  5  1  0  0  0  0
  7  1  1  0  0  0  0
  8  2  1  0  0  0  0
 11 12  3  0  0  0  0
 13  6  1  0  0  0  0
 14 15  1  0  0  0  0
 14 16  1  0  0  0  0
 14 13  1  0  0  0  0
 17 14  1  0  0  0  0
 19 20  1  0  0  0  0
 19 18  2  0  0  0  0
 20  4  1  0  0  0  0
 21 19  1  0  0  0  0
M  RAD  2   2   2   3   2
M  END
