Coordinates from ORCA-job p-CH3O-Ph-N2-OOCH-B3LYPG-aug-cc-pVDZ-scan-d09-49-n400
 OpenBabel11081710393D

 21 21  0  0  1  0  0  0  0  0999 V2000
   11.6099    7.7645   -1.3216 C   0  0  0  0  0  0  0  0  0  0  0  0
   10.4046    7.0755   -1.0263 C   0  0  0  0  0  0  0  0  0  0  0  0
   10.6466    6.0619   -0.0967 C   0  0  1  0  0  0  0  0  0  0  0  0
   11.1072    4.7614   -0.4417 C   0  0  2  0  0  0  0  0  0  0  0  0
   12.1460    5.9425    0.0478 C   0  0  1  0  0  0  0  0  0  0  0  0
   12.6579    7.0442   -0.7423 C   0  0  0  0  0  0  0  0  0  0  0  0
   11.7013    8.6288   -1.9746 H   0  0  0  0  0  0  0  0  0  0  0  0
    9.4797    7.1805   -1.5909 H   0  0  0  0  0  0  0  0  0  0  0  0
   11.1872    3.9385    0.2688 H   0  0  0  0  0  0  0  0  0  0  0  0
   12.6824    5.6230    0.9387 H   0  0  0  0  0  0  0  0  0  0  0  0
    8.9971    5.8316    1.6642 N   0  0  0  0  0  0  0  0  0  0  0  0
    9.3023    6.0651    2.7036 N   0  0  0  0  0  0  0  0  0  0  0  0
   13.9715    7.3533   -0.6731 O   0  0  0  0  0  0  0  0  0  0  0  0
   14.3657    8.5971   -1.2548 C   0  0  0  0  0  0  0  0  0  0  0  0
   15.4342    8.7048   -1.0466 H   0  0  0  0  0  0  0  0  0  0  0  0
   13.8074    9.4301   -0.8018 H   0  0  0  0  0  0  0  0  0  0  0  0
   14.1996    8.5890   -2.3423 H   0  0  0  0  0  0  0  0  0  0  0  0
   12.0758    2.3533   -1.2860 O   0  0  0  0  0  0  0  0  0  0  0  0
   11.5201    3.0872   -2.0609 C   0  0  0  0  0  0  0  0  0  0  0  0
   10.9981    4.3086   -1.7747 O   0  0  0  0  0  0  0  0  0  0  0  0
   11.3442    2.8698   -3.1279 H   0  0  0  0  0  0  0  0  0  0  0  0
  1  2  1  0  0  0  0
  1  6  2  0  0  0  0
  3  2  1  6  0  0  0
  3  5  1  0  0  0  0
  4  3  1  0  0  0  0
  4  5  1  0  0  0  0
  4  9  1  1  0  0  0
  5 10  1  1  0  0  0
  6 13  1  0  0  0  0
  6  5  1  0  0  0  0
  7  1  1  0  0  0  0
  8  2  1  0  0  0  0
 11 12  3  0  0  0  0
 14 15  1  0  0  0  0
 14 16  1  0  0  0  0
 14 13  1  0  0  0  0
 17 14  1  0  0  0  0
 19 20  1  0  0  0  0
 19 18  2  0  0  0  0
 20  4  1  0  0  0  0
 21 19  1  0  0  0  0
M  RAD  2   2   2   3   2
M  END
