Coordinates from ORCA-job p-CH3O-Ph-N2-OOCH-B3LYPG-aug-cc-pVDZ-scan-d09-49-n400
 OpenBabel11081710393D

 21 21  0  0  1  0  0  0  0  0999 V2000
   11.7819    7.5557   -1.0729 C   0  0  0  0  0  0  0  0  0  0  0  0
   10.5083    7.1449   -0.7674 C   0  0  0  0  0  0  0  0  0  0  0  0
   10.4090    6.0876    0.1501 C   0  0  2  0  0  0  0  0  0  0  0  0
   11.3736    5.0329    0.3852 C   0  0  2  0  0  0  0  0  0  0  0  0
   12.6951    5.6598    0.2126 C   0  0  0  0  0  0  0  0  0  0  0  0
   12.8837    6.8013   -0.5300 C   0  0  0  0  0  0  0  0  0  0  0  0
   11.9321    8.4320   -1.6940 H   0  0  0  0  0  0  0  0  0  0  0  0
    9.6285    7.6642   -1.1387 H   0  0  0  0  0  0  0  0  0  0  0  0
   11.2503    4.4845    1.3209 H   0  0  0  0  0  0  0  0  0  0  0  0
   13.5617    5.1331    0.6070 H   0  0  0  0  0  0  0  0  0  0  0  0
    8.8047    5.5064    0.2896 N   0  0  0  0  0  0  0  0  0  0  0  0
    7.7753    5.2214    0.6077 N   0  0  0  0  0  0  0  0  0  0  0  0
   14.1796    7.1918   -0.7013 O   0  0  0  0  0  0  0  0  0  0  0  0
   14.4585    8.3721   -1.4509 C   0  0  0  0  0  0  0  0  0  0  0  0
   15.5478    8.4761   -1.4368 H   0  0  0  0  0  0  0  0  0  0  0  0
   14.0021    9.2594   -0.9871 H   0  0  0  0  0  0  0  0  0  0  0  0
   14.1164    8.2756   -2.4917 H   0  0  0  0  0  0  0  0  0  0  0  0
   11.1951    4.7472   -2.5582 O   0  0  0  0  0  0  0  0  0  0  0  0
   11.1829    3.7532   -1.8603 C   0  0  0  0  0  0  0  0  0  0  0  0
   11.2102    3.6835   -0.5367 O   0  0  0  0  0  0  0  0  0  0  0  0
   11.1422    2.7284   -2.2861 H   0  0  0  0  0  0  0  0  0  0  0  0
  1  2  2  0  0  0  0
  1  6  1  0  0  0  0
  2  3  1  0  0  0  0
  3 11  1  6  0  0  0
  3  4  1  0  0  0  0
  4  9  1  1  0  0  0
  5  4  1  0  0  0  0
  5 10  1  0  0  0  0
  6  5  2  0  0  0  0
  7  1  1  0  0  0  0
  8  2  1  0  0  0  0
 11 12  1  0  0  0  0
 13  6  1  0  0  0  0
 14 15  1  0  0  0  0
 14 16  1  0  0  0  0
 14 13  1  0  0  0  0
 17 14  1  0  0  0  0
 18 19  2  0  0  0  0
 19 20  1  0  0  0  0
 20  4  1  0  0  0  0
 21 19  1  0  0  0  0
M  RAD  3   3   2  11   2  12   3
M  END
