Coordinates from ORCA-job p-CH3O-Ph-N2-OOCH-B3LYPG-aug-cc-pVDZ-scan-d09-49-n400
 OpenBabel11081710393D

 21 21  0  0  1  0  0  0  0  0999 V2000
   11.6175    7.7690   -1.3278 C   0  0  0  0  0  0  0  0  0  0  0  0
   10.4116    7.0811   -1.0320 C   0  0  0  0  0  0  0  0  0  0  0  0
   10.6540    6.0683   -0.1022 C   0  0  1  0  0  0  0  0  0  0  0  0
   11.1085    4.7653   -0.4443 C   0  0  2  0  0  0  0  0  0  0  0  0
   12.1526    5.9483    0.0432 C   0  0  1  0  0  0  0  0  0  0  0  0
   12.6652    7.0477   -0.7484 C   0  0  0  0  0  0  0  0  0  0  0  0
   11.7096    8.6328   -1.9813 H   0  0  0  0  0  0  0  0  0  0  0  0
    9.4873    7.1848   -1.5978 H   0  0  0  0  0  0  0  0  0  0  0  0
   11.1905    3.9439    0.2676 H   0  0  0  0  0  0  0  0  0  0  0  0
   12.6893    5.6272    0.9333 H   0  0  0  0  0  0  0  0  0  0  0  0
    8.9369    5.8063    1.7152 N   0  0  0  0  0  0  0  0  0  0  0  0
    9.2448    6.0329    2.7556 N   0  0  0  0  0  0  0  0  0  0  0  0
   13.9795    7.3550   -0.6815 O   0  0  0  0  0  0  0  0  0  0  0  0
   14.3745    8.5976   -1.2649 C   0  0  0  0  0  0  0  0  0  0  0  0
   15.4435    8.7041   -1.0585 H   0  0  0  0  0  0  0  0  0  0  0  0
   13.8181    9.4319   -0.8118 H   0  0  0  0  0  0  0  0  0  0  0  0
   14.2067    8.5889   -2.3522 H   0  0  0  0  0  0  0  0  0  0  0  0
   12.0807    2.3571   -1.2861 O   0  0  0  0  0  0  0  0  0  0  0  0
   11.5158    3.0855   -2.0595 C   0  0  0  0  0  0  0  0  0  0  0  0
   10.9985    4.3097   -1.7760 O   0  0  0  0  0  0  0  0  0  0  0  0
   11.3536    2.8735   -3.1298 H   0  0  0  0  0  0  0  0  0  0  0  0
  1  2  1  0  0  0  0
  1  6  2  0  0  0  0
  3  2  1  6  0  0  0
  3  5  1  0  0  0  0
  4  3  1  0  0  0  0
  4  5  1  0  0  0  0
  4  9  1  1  0  0  0
  5 10  1  1  0  0  0
  6 13  1  0  0  0  0
  6  5  1  0  0  0  0
  7  1  1  0  0  0  0
  8  2  1  0  0  0  0
 11 12  3  0  0  0  0
 14 15  1  0  0  0  0
 14 16  1  0  0  0  0
 14 13  1  0  0  0  0
 17 14  1  0  0  0  0
 19 20  1  0  0  0  0
 19 18  2  0  0  0  0
 20  4  1  0  0  0  0
 21 19  1  0  0  0  0
M  RAD  2   2   2   3   2
M  END
