Coordinates from ORCA-job p-CH3O-Ph-N2-OOCH-B3LYPG-aug-cc-pVDZ-scan-d09-49-n400
 OpenBabel11081710393D

 21 21  0  0  1  0  0  0  0  0999 V2000
   11.7987    7.8703   -1.4013 C   0  0  0  0  0  0  0  0  0  0  0  0
   10.5973    7.2249   -1.0075 C   0  0  0  0  0  0  0  0  0  0  0  0
   10.8773    6.2286   -0.0706 C   0  0  1  0  0  0  0  0  0  0  0  0
   11.2617    4.9010   -0.4069 C   0  0  2  0  0  0  0  0  0  0  0  0
   12.3754    6.0693   -0.0210 C   0  0  1  0  0  0  0  0  0  0  0  0
   12.8628    7.1305   -0.8761 C   0  0  0  0  0  0  0  0  0  0  0  0
   11.8709    8.7145   -2.0823 H   0  0  0  0  0  0  0  0  0  0  0  0
    9.6405    7.3379   -1.5144 H   0  0  0  0  0  0  0  0  0  0  0  0
   11.3733    4.0957    0.3184 H   0  0  0  0  0  0  0  0  0  0  0  0
   12.9608    5.7519    0.8390 H   0  0  0  0  0  0  0  0  0  0  0  0
    7.3641    4.8641    2.5478 N   0  0  0  0  0  0  0  0  0  0  0  0
    7.9365    5.3225    3.3731 N   0  0  0  0  0  0  0  0  0  0  0  0
   14.1876    7.3959   -0.9148 O   0  0  0  0  0  0  0  0  0  0  0  0
   14.5764    8.6099   -1.5594 C   0  0  0  0  0  0  0  0  0  0  0  0
   15.6604    8.6868   -1.4341 H   0  0  0  0  0  0  0  0  0  0  0  0
   14.0807    9.4731   -1.0904 H   0  0  0  0  0  0  0  0  0  0  0  0
   14.3292    8.5793   -2.6310 H   0  0  0  0  0  0  0  0  0  0  0  0
   12.0792    2.4330   -1.2429 O   0  0  0  0  0  0  0  0  0  0  0  0
   11.5039    3.1694   -2.0007 C   0  0  0  0  0  0  0  0  0  0  0  0
   11.0506    4.4189   -1.7158 O   0  0  0  0  0  0  0  0  0  0  0  0
   11.2513    2.9332   -3.0482 H   0  0  0  0  0  0  0  0  0  0  0  0
  1  2  1  0  0  0  0
  1  6  2  0  0  0  0
  3  2  1  6  0  0  0
  3  5  1  0  0  0  0
  4  3  1  0  0  0  0
  4  5  1  0  0  0  0
  4  9  1  1  0  0  0
  5 10  1  1  0  0  0
  6  5  1  0  0  0  0
  7  1  1  0  0  0  0
  8  2  1  0  0  0  0
 11 12  3  0  0  0  0
 13  6  1  0  0  0  0
 14 15  1  0  0  0  0
 14 16  1  0  0  0  0
 14 13  1  0  0  0  0
 17 14  1  0  0  0  0
 19 20  1  0  0  0  0
 19 18  2  0  0  0  0
 20  4  1  0  0  0  0
 21 19  1  0  0  0  0
M  RAD  2   2   2   3   2
M  END
