Coordinates from ORCA-job p-CH3O-Ph-N2-OOCH-B3LYPG-aug-cc-pVDZ-scan-d09-49-n400
 OpenBabel11081710393D

 21 21  0  0  1  0  0  0  0  0999 V2000
   11.7640    7.5507   -1.0927 C   0  0  0  0  0  0  0  0  0  0  0  0
   10.4896    7.1638   -0.8021 C   0  0  0  0  0  0  0  0  0  0  0  0
   10.2911    5.9738   -0.0496 C   0  0  2  0  0  0  0  0  0  0  0  0
   11.3490    4.9898    0.2896 C   0  0  2  0  0  0  0  0  0  0  0  0
   12.6857    5.6017    0.0999 C   0  0  0  0  0  0  0  0  0  0  0  0
   12.8733    6.7628   -0.5904 C   0  0  0  0  0  0  0  0  0  0  0  0
   11.9307    8.4441   -1.6853 H   0  0  0  0  0  0  0  0  0  0  0  0
    9.6300    7.7419   -1.1367 H   0  0  0  0  0  0  0  0  0  0  0  0
   11.2239    4.5674    1.2924 H   0  0  0  0  0  0  0  0  0  0  0  0
   13.5481    5.0729    0.5010 H   0  0  0  0  0  0  0  0  0  0  0  0
    8.9491    5.6488    0.3639 N   0  0  0  0  0  0  0  0  0  0  0  0
    7.9039    5.3665    0.6957 N   0  0  0  0  0  0  0  0  0  0  0  0
   14.1688    7.1672   -0.7570 O   0  0  0  0  0  0  0  0  0  0  0  0
   14.4393    8.4173   -1.3860 C   0  0  0  0  0  0  0  0  0  0  0  0
   15.5280    8.5261   -1.3613 H   0  0  0  0  0  0  0  0  0  0  0  0
   13.9786    9.2532   -0.8385 H   0  0  0  0  0  0  0  0  0  0  0  0
   14.1000    8.4236   -2.4325 H   0  0  0  0  0  0  0  0  0  0  0  0
   11.2307    4.6139   -2.5616 O   0  0  0  0  0  0  0  0  0  0  0  0
   11.1993    3.6573   -1.8226 C   0  0  0  0  0  0  0  0  0  0  0  0
   11.2050    3.6581   -0.4850 O   0  0  0  0  0  0  0  0  0  0  0  0
   11.1506    2.6099   -2.1802 H   0  0  0  0  0  0  0  0  0  0  0  0
  1  2  2  0  0  0  0
  1  6  1  0  0  0  0
  2  3  1  0  0  0  0
  3  4  1  0  0  0  0
  3 11  1  6  0  0  0
  4  9  1  1  0  0  0
  5  4  1  0  0  0  0
  5 10  1  0  0  0  0
  6  5  2  0  0  0  0
  7  1  1  0  0  0  0
  8  2  1  0  0  0  0
 11 12  1  0  0  0  0
 13  6  1  0  0  0  0
 14 15  1  0  0  0  0
 14 16  1  0  0  0  0
 14 13  1  0  0  0  0
 17 14  1  0  0  0  0
 18 19  2  0  0  0  0
 19 20  1  0  0  0  0
 20  4  1  0  0  0  0
 21 19  1  0  0  0  0
M  RAD  3   3   2  11   2  12   3
M  END
