Coordinates from ORCA-job p-CH3O-Ph-N2-OOCH-B3LYPG-aug-cc-pVDZ-scan-d09-49-n400
 OpenBabel11081710393D

 21 21  0  0  1  0  0  0  0  0999 V2000
   11.6816    7.8049   -1.3679 C   0  0  0  0  0  0  0  0  0  0  0  0
   10.4747    7.1274   -1.0527 C   0  0  0  0  0  0  0  0  0  0  0  0
   10.7228    6.1217   -0.1171 C   0  0  1  0  0  0  0  0  0  0  0  0
   11.1557    4.8092   -0.4512 C   0  0  2  0  0  0  0  0  0  0  0  0
   12.2199    5.9934    0.0140 C   0  0  1  0  0  0  0  0  0  0  0  0
   12.7307    7.0794   -0.7950 C   0  0  0  0  0  0  0  0  0  0  0  0
   11.7729    8.6615   -2.0308 H   0  0  0  0  0  0  0  0  0  0  0  0
    9.5463    7.2294   -1.6120 H   0  0  0  0  0  0  0  0  0  0  0  0
   11.2436    3.9948    0.2673 H   0  0  0  0  0  0  0  0  0  0  0  0
   12.7641    5.6739    0.8999 H   0  0  0  0  0  0  0  0  0  0  0  0
    8.4377    5.4833    2.0685 N   0  0  0  0  0  0  0  0  0  0  0  0
    8.7553    5.8009    3.0777 N   0  0  0  0  0  0  0  0  0  0  0  0
   14.0490    7.3743   -0.7536 O   0  0  0  0  0  0  0  0  0  0  0  0
   14.4462    8.6072   -1.3557 C   0  0  0  0  0  0  0  0  0  0  0  0
   15.5193    8.7055   -1.1675 H   0  0  0  0  0  0  0  0  0  0  0  0
   13.9052    9.4513   -0.9023 H   0  0  0  0  0  0  0  0  0  0  0  0
   14.2610    8.5894   -2.4401 H   0  0  0  0  0  0  0  0  0  0  0  0
   12.0670    2.3698   -1.2741 O   0  0  0  0  0  0  0  0  0  0  0  0
   11.5237    3.1080   -2.0535 C   0  0  0  0  0  0  0  0  0  0  0  0
   11.0294    4.3436   -1.7770 O   0  0  0  0  0  0  0  0  0  0  0  0
   11.3327    2.8818   -3.1162 H   0  0  0  0  0  0  0  0  0  0  0  0
  1  2  1  0  0  0  0
  1  6  2  0  0  0  0
  3  2  1  6  0  0  0
  3  5  1  0  0  0  0
  4  3  1  0  0  0  0
  4  5  1  0  0  0  0
  4  9  1  1  0  0  0
  5 10  1  1  0  0  0
  6 13  1  0  0  0  0
  6  5  1  0  0  0  0
  7  1  1  0  0  0  0
  8  2  1  0  0  0  0
 11 12  3  0  0  0  0
 14 15  1  0  0  0  0
 14 16  1  0  0  0  0
 14 13  1  0  0  0  0
 17 14  1  0  0  0  0
 19 20  1  0  0  0  0
 19 18  2  0  0  0  0
 20  4  1  0  0  0  0
 21 19  1  0  0  0  0
M  RAD  2   2   2   3   2
M  END
