Coordinates from ORCA-job p-CH3O-Ph-N2-OOCH-B3LYPG-aug-cc-pVDZ-scan-d09-49-n400
 OpenBabel11081710393D

 21 21  0  0  1  0  0  0  0  0999 V2000
   11.7705    7.5608   -1.0902 C   0  0  0  0  0  0  0  0  0  0  0  0
   10.4929    7.1736   -0.7858 C   0  0  0  0  0  0  0  0  0  0  0  0
   10.3348    5.9949   -0.0323 C   0  0  2  0  0  0  0  0  0  0  0  0
   11.3537    4.9943    0.3021 C   0  0  2  0  0  0  0  0  0  0  0  0
   12.6858    5.6137    0.1155 C   0  0  0  0  0  0  0  0  0  0  0  0
   12.8733    6.7720   -0.5880 C   0  0  0  0  0  0  0  0  0  0  0  0
   11.9331    8.4495   -1.6905 H   0  0  0  0  0  0  0  0  0  0  0  0
    9.6270    7.7449   -1.1135 H   0  0  0  0  0  0  0  0  0  0  0  0
   11.2280    4.5481    1.2935 H   0  0  0  0  0  0  0  0  0  0  0  0
   13.5492    5.0924    0.5239 H   0  0  0  0  0  0  0  0  0  0  0  0
    8.8744    5.6296    0.3830 N   0  0  0  0  0  0  0  0  0  0  0  0
    7.8329    5.3347    0.6898 N   0  0  0  0  0  0  0  0  0  0  0  0
   14.1715    7.1676   -0.7568 O   0  0  0  0  0  0  0  0  0  0  0  0
   14.4463    8.4084   -1.4010 C   0  0  0  0  0  0  0  0  0  0  0  0
   15.5355    8.5133   -1.3799 H   0  0  0  0  0  0  0  0  0  0  0  0
   13.9895    9.2526   -0.8628 H   0  0  0  0  0  0  0  0  0  0  0  0
   14.1044    8.4034   -2.4467 H   0  0  0  0  0  0  0  0  0  0  0  0
   11.2618    4.6240   -2.5660 O   0  0  0  0  0  0  0  0  0  0  0  0
   11.2129    3.6623   -1.8327 C   0  0  0  0  0  0  0  0  0  0  0  0
   11.2041    3.6520   -0.4978 O   0  0  0  0  0  0  0  0  0  0  0  0
   11.1571    2.6187   -2.2028 H   0  0  0  0  0  0  0  0  0  0  0  0
  1  2  2  0  0  0  0
  1  6  1  0  0  0  0
  2  3  1  0  0  0  0
  3  4  1  0  0  0  0
  3 11  1  6  0  0  0
  4  9  1  1  0  0  0
  5  4  1  0  0  0  0
  5 10  1  0  0  0  0
  6  5  2  0  0  0  0
  7  1  1  0  0  0  0
  8  2  1  0  0  0  0
 11 12  1  0  0  0  0
 13  6  1  0  0  0  0
 14 15  1  0  0  0  0
 14 16  1  0  0  0  0
 14 13  1  0  0  0  0
 17 14  1  0  0  0  0
 18 19  2  0  0  0  0
 19 20  1  0  0  0  0
 20  4  1  0  0  0  0
 21 19  1  0  0  0  0
M  RAD  3   3   2  11   2  12   3
M  END
