Coordinates from ORCA-job p-CH3O-Ph-N2-OOCH-B3LYPG-aug-cc-pVDZ-scan-d09-49-n400
 OpenBabel11081710393D

 21 21  0  0  1  0  0  0  0  0999 V2000
   11.7538    7.5434   -1.0757 C   0  0  0  0  0  0  0  0  0  0  0  0
   10.4881    7.1585   -0.8383 C   0  0  0  0  0  0  0  0  0  0  0  0
   10.1424    5.9216   -0.0735 C   0  0  0  0  0  0  0  0  0  0  0  0
   11.3611    4.9719    0.2646 C   0  0  2  0  0  0  0  0  0  0  0  0
   12.6983    5.5671    0.0257 C   0  0  0  0  0  0  0  0  0  0  0  0
   12.8840    6.7502   -0.6028 C   0  0  0  0  0  0  0  0  0  0  0  0
   11.9239    8.4529   -1.6458 H   0  0  0  0  0  0  0  0  0  0  0  0
    9.6314    7.7275   -1.2000 H   0  0  0  0  0  0  0  0  0  0  0  0
   11.2306    4.6696    1.3120 H   0  0  0  0  0  0  0  0  0  0  0  0
   13.5599    5.0058    0.3852 H   0  0  0  0  0  0  0  0  0  0  0  0
    9.2747    5.6828    0.1982 N   0  0  0  0  0  0  0  0  0  0  0  0
    8.1917    5.3681    0.5459 N   0  0  0  0  0  0  0  0  0  0  0  0
   14.1700    7.1735   -0.7752 O   0  0  0  0  0  0  0  0  0  0  0  0
   14.4251    8.4621   -1.3337 C   0  0  0  0  0  0  0  0  0  0  0  0
   15.5124    8.5800   -1.3035 H   0  0  0  0  0  0  0  0  0  0  0  0
   13.9577    9.2602   -0.7383 H   0  0  0  0  0  0  0  0  0  0  0  0
   14.0858    8.5237   -2.3781 H   0  0  0  0  0  0  0  0  0  0  0  0
   11.0493    4.5552   -2.4996 O   0  0  0  0  0  0  0  0  0  0  0  0
   11.0890    3.6151   -1.7461 C   0  0  0  0  0  0  0  0  0  0  0  0
   11.1868    3.6642   -0.4029 O   0  0  0  0  0  0  0  0  0  0  0  0
   11.0228    2.5574   -2.0575 H   0  0  0  0  0  0  0  0  0  0  0  0
  1  2  1  0  0  0  0
  1  6  2  0  0  0  0
  2  3  2  0  0  0  0
  3 11  1  0  0  0  0
  3  4  1  0  0  0  0
  4  9  1  1  0  0  0
  5  4  1  0  0  0  0
  5 10  1  0  0  0  0
  6  5  1  0  0  0  0
  7  1  1  0  0  0  0
  8  2  1  0  0  0  0
 11 12  1  0  0  0  0
 13  6  1  0  0  0  0
 14 15  1  0  0  0  0
 14 13  1  0  0  0  0
 14 16  1  0  0  0  0
 17 14  1  0  0  0  0
 18 19  2  0  0  0  0
 19 20  1  0  0  0  0
 20  4  1  0  0  0  0
 21 19  1  0  0  0  0
M  RAD  3   5   2  11   2  12   3
M  END
