Coordinates from ORCA-job p-CH3O-Ph-N2-OOCH-B3LYPG-aug-cc-pVDZ-scan-d09-49-n400
 OpenBabel11081710393D

 21 21  0  0  1  0  0  0  0  0999 V2000
   11.7028    7.8146   -1.3708 C   0  0  0  0  0  0  0  0  0  0  0  0
   10.4982    7.1414   -1.0392 C   0  0  0  0  0  0  0  0  0  0  0  0
   10.7552    6.1360   -0.1052 C   0  0  1  0  0  0  0  0  0  0  0  0
   11.1798    4.8217   -0.4447 C   0  0  2  0  0  0  0  0  0  0  0  0
   12.2535    6.0033    0.0067 C   0  0  1  0  0  0  0  0  0  0  0  0
   12.7570    7.0865   -0.8103 C   0  0  0  0  0  0  0  0  0  0  0  0
   11.7884    8.6700   -2.0360 H   0  0  0  0  0  0  0  0  0  0  0  0
    9.5623    7.2447   -1.5855 H   0  0  0  0  0  0  0  0  0  0  0  0
   11.2748    4.0072    0.2726 H   0  0  0  0  0  0  0  0  0  0  0  0
   12.8079    5.6825    0.8857 H   0  0  0  0  0  0  0  0  0  0  0  0
    8.2407    5.3647    2.1682 N   0  0  0  0  0  0  0  0  0  0  0  0
    8.5555    5.7505    3.1539 N   0  0  0  0  0  0  0  0  0  0  0  0
   14.0767    7.3772   -0.7868 O   0  0  0  0  0  0  0  0  0  0  0  0
   14.4699    8.6079   -1.3961 C   0  0  0  0  0  0  0  0  0  0  0  0
   15.5457    8.7030   -1.2221 H   0  0  0  0  0  0  0  0  0  0  0  0
   13.9376    9.4545   -0.9369 H   0  0  0  0  0  0  0  0  0  0  0  0
   14.2704    8.5890   -2.4779 H   0  0  0  0  0  0  0  0  0  0  0  0
   12.0806    2.3830   -1.2811 O   0  0  0  0  0  0  0  0  0  0  0  0
   11.5228    3.1197   -2.0516 C   0  0  0  0  0  0  0  0  0  0  0  0
   11.0354    4.3566   -1.7687 O   0  0  0  0  0  0  0  0  0  0  0  0
   11.3235    2.8969   -3.1135 H   0  0  0  0  0  0  0  0  0  0  0  0
  1  2  1  0  0  0  0
  1  6  2  0  0  0  0
  3  2  1  6  0  0  0
  3  5  1  0  0  0  0
  4  3  1  0  0  0  0
  4  5  1  0  0  0  0
  4  9  1  1  0  0  0
  5 10  1  1  0  0  0
  6 13  1  0  0  0  0
  6  5  1  0  0  0  0
  7  1  1  0  0  0  0
  8  2  1  0  0  0  0
 11 12  3  0  0  0  0
 14 15  1  0  0  0  0
 14 16  1  0  0  0  0
 14 13  1  0  0  0  0
 17 14  1  0  0  0  0
 19 20  1  0  0  0  0
 19 18  2  0  0  0  0
 20  4  1  0  0  0  0
 21 19  1  0  0  0  0
M  RAD  2   2   2   3   2
M  END
