Coordinates from ORCA-job p-CH3O-Ph-N2-OOCH-B3LYPG-aug-cc-pVDZ-scan-d09-49-n400
 OpenBabel11081710393D

 21 21  0  0  1  0  0  0  0  0999 V2000
   11.7358    7.8333   -1.3799 C   0  0  0  0  0  0  0  0  0  0  0  0
   10.5328    7.1683   -1.0266 C   0  0  0  0  0  0  0  0  0  0  0  0
   10.7992    6.1650   -0.0924 C   0  0  1  0  0  0  0  0  0  0  0  0
   11.2107    4.8465   -0.4330 C   0  0  2  0  0  0  0  0  0  0  0  0
   12.2980    6.0243   -0.0036 C   0  0  1  0  0  0  0  0  0  0  0  0
   12.7945    7.1014   -0.8332 C   0  0  0  0  0  0  0  0  0  0  0  0
   11.8157    8.6857   -2.0498 H   0  0  0  0  0  0  0  0  0  0  0  0
    9.5888    7.2747   -1.5586 H   0  0  0  0  0  0  0  0  0  0  0  0
   11.3128    4.0344    0.2861 H   0  0  0  0  0  0  0  0  0  0  0  0
   12.8642    5.7043    0.8681 H   0  0  0  0  0  0  0  0  0  0  0  0
    7.9436    5.1948    2.2963 N   0  0  0  0  0  0  0  0  0  0  0  0
    8.3193    5.6161    3.2456 N   0  0  0  0  0  0  0  0  0  0  0  0
   14.1161    7.3843   -0.8322 O   0  0  0  0  0  0  0  0  0  0  0  0
   14.5066    8.6102   -1.4528 C   0  0  0  0  0  0  0  0  0  0  0  0
   15.5856    8.6997   -1.2966 H   0  0  0  0  0  0  0  0  0  0  0  0
   13.9867    9.4617   -0.9886 H   0  0  0  0  0  0  0  0  0  0  0  0
   14.2895    8.5882   -2.5312 H   0  0  0  0  0  0  0  0  0  0  0  0
   12.0805    2.3976   -1.2719 O   0  0  0  0  0  0  0  0  0  0  0  0
   11.5205    3.1367   -2.0385 C   0  0  0  0  0  0  0  0  0  0  0  0
   11.0426    4.3768   -1.7526 O   0  0  0  0  0  0  0  0  0  0  0  0
   11.2951    2.9070   -3.0936 H   0  0  0  0  0  0  0  0  0  0  0  0
  1  2  1  0  0  0  0
  1  6  2  0  0  0  0
  3  2  1  6  0  0  0
  3  5  1  0  0  0  0
  4  3  1  0  0  0  0
  4  5  1  0  0  0  0
  4  9  1  1  0  0  0
  5 10  1  1  0  0  0
  6 13  1  0  0  0  0
  6  5  1  0  0  0  0
  7  1  1  0  0  0  0
  8  2  1  0  0  0  0
 11 12  3  0  0  0  0
 14 15  1  0  0  0  0
 14 16  1  0  0  0  0
 14 13  1  0  0  0  0
 17 14  1  0  0  0  0
 19 20  1  0  0  0  0
 19 18  2  0  0  0  0
 20  4  1  0  0  0  0
 21 19  1  0  0  0  0
M  RAD  2   2   2   3   2
M  END
