Coordinates from ORCA-job p-CH3O-Ph-N2-OOCH-B3LYPG-aug-cc-pVDZ-scan-d09-49-n400
 OpenBabel11081710393D

 21 21  0  0  1  0  0  0  0  0999 V2000
   11.7833    7.8617   -1.3960 C   0  0  0  0  0  0  0  0  0  0  0  0
   10.5813    7.2112   -1.0127 C   0  0  0  0  0  0  0  0  0  0  0  0
   10.8584    6.2128   -0.0773 C   0  0  1  0  0  0  0  0  0  0  0  0
   11.2483    4.8871   -0.4136 C   0  0  2  0  0  0  0  0  0  0  0  0
   12.3566    6.0584   -0.0177 C   0  0  1  0  0  0  0  0  0  0  0  0
   12.8462    7.1238   -0.8661 C   0  0  0  0  0  0  0  0  0  0  0  0
   11.8573    8.7086   -2.0734 H   0  0  0  0  0  0  0  0  0  0  0  0
    9.6276    7.3224   -1.5257 H   0  0  0  0  0  0  0  0  0  0  0  0
   11.3580    4.0810    0.3111 H   0  0  0  0  0  0  0  0  0  0  0  0
   12.9370    5.7402    0.8453 H   0  0  0  0  0  0  0  0  0  0  0  0
    7.5112    4.9451    2.4797 N   0  0  0  0  0  0  0  0  0  0  0  0
    8.0350    5.3951    3.3415 N   0  0  0  0  0  0  0  0  0  0  0  0
   14.1703    7.3939   -0.8946 O   0  0  0  0  0  0  0  0  0  0  0  0
   14.5595    8.6114   -1.5322 C   0  0  0  0  0  0  0  0  0  0  0  0
   15.6423    8.6915   -1.3992 H   0  0  0  0  0  0  0  0  0  0  0  0
   14.0576    9.4713   -1.0635 H   0  0  0  0  0  0  0  0  0  0  0  0
   14.3197    8.5838   -2.6056 H   0  0  0  0  0  0  0  0  0  0  0  0
   12.0766    2.4222   -1.2479 O   0  0  0  0  0  0  0  0  0  0  0  0
   11.5048    3.1585   -2.0083 C   0  0  0  0  0  0  0  0  0  0  0  0
   11.0472    4.4068   -1.7246 O   0  0  0  0  0  0  0  0  0  0  0  0
   11.2607    2.9240   -3.0582 H   0  0  0  0  0  0  0  0  0  0  0  0
  1  2  1  0  0  0  0
  1  6  2  0  0  0  0
  3  2  1  6  0  0  0
  3  5  1  0  0  0  0
  4  3  1  0  0  0  0
  4  5  1  0  0  0  0
  4  9  1  1  0  0  0
  5 10  1  1  0  0  0
  6  5  1  0  0  0  0
  7  1  1  0  0  0  0
  8  2  1  0  0  0  0
 11 12  3  0  0  0  0
 13  6  1  0  0  0  0
 14 15  1  0  0  0  0
 14 16  1  0  0  0  0
 14 13  1  0  0  0  0
 17 14  1  0  0  0  0
 19 20  1  0  0  0  0
 19 18  2  0  0  0  0
 20  4  1  0  0  0  0
 21 19  1  0  0  0  0
M  RAD  2   2   2   3   2
M  END
