Coordinates from ORCA-job p-CH3O-Ph-N2-OOCH-B3LYPG-aug-cc-pVDZ-scan-d09-49-n400
 OpenBabel11081710393D

 21 21  0  0  1  0  0  0  0  0999 V2000
   11.7323    7.8316   -1.3787 C   0  0  0  0  0  0  0  0  0  0  0  0
   10.5290    7.1655   -1.0279 C   0  0  0  0  0  0  0  0  0  0  0  0
   10.7949    6.1615   -0.0943 C   0  0  1  0  0  0  0  0  0  0  0  0
   11.2075    4.8433   -0.4345 C   0  0  2  0  0  0  0  0  0  0  0  0
   12.2935    6.0217   -0.0031 C   0  0  1  0  0  0  0  0  0  0  0  0
   12.7906    7.0998   -0.8311 C   0  0  0  0  0  0  0  0  0  0  0  0
   11.8127    8.6847   -2.0475 H   0  0  0  0  0  0  0  0  0  0  0  0
    9.5859    7.2715   -1.5612 H   0  0  0  0  0  0  0  0  0  0  0  0
   11.3088    4.0312    0.2846 H   0  0  0  0  0  0  0  0  0  0  0  0
   12.8586    5.7017    0.8694 H   0  0  0  0  0  0  0  0  0  0  0  0
    7.9760    5.2132    2.2826 N   0  0  0  0  0  0  0  0  0  0  0  0
    8.3430    5.6320    3.2364 N   0  0  0  0  0  0  0  0  0  0  0  0
   14.1121    7.3836   -0.8279 O   0  0  0  0  0  0  0  0  0  0  0  0
   14.5027    8.6103   -1.4466 C   0  0  0  0  0  0  0  0  0  0  0  0
   15.5814    8.7004   -1.2887 H   0  0  0  0  0  0  0  0  0  0  0  0
   13.9816    9.4611   -0.9823 H   0  0  0  0  0  0  0  0  0  0  0  0
   14.2873    8.5893   -2.5253 H   0  0  0  0  0  0  0  0  0  0  0  0
   12.0806    2.3955   -1.2729 O   0  0  0  0  0  0  0  0  0  0  0  0
   11.5208    3.1342   -2.0400 C   0  0  0  0  0  0  0  0  0  0  0  0
   11.0416    4.3739   -1.7545 O   0  0  0  0  0  0  0  0  0  0  0  0
   11.2979    2.9049   -3.0957 H   0  0  0  0  0  0  0  0  0  0  0  0
  1  2  1  0  0  0  0
  1  6  2  0  0  0  0
  3  2  1  6  0  0  0
  3  5  1  0  0  0  0
  4  3  1  0  0  0  0
  4  5  1  0  0  0  0
  4  9  1  1  0  0  0
  5 10  1  1  0  0  0
  6 13  1  0  0  0  0
  6  5  1  0  0  0  0
  7  1  1  0  0  0  0
  8  2  1  0  0  0  0
 11 12  3  0  0  0  0
 14 15  1  0  0  0  0
 14 16  1  0  0  0  0
 14 13  1  0  0  0  0
 17 14  1  0  0  0  0
 19 20  1  0  0  0  0
 19 18  2  0  0  0  0
 20  4  1  0  0  0  0
 21 19  1  0  0  0  0
M  RAD  2   2   2   3   2
M  END
