Coordinates from ORCA-job p-CH3O-Ph-N2-OOCH-B3LYPG-aug-cc-pVDZ-scan-d09-49-n400
 OpenBabel11081710393D

 21 21  0  0  1  0  0  0  0  0999 V2000
   11.6936    7.8106   -1.3703 C   0  0  0  0  0  0  0  0  0  0  0  0
   10.4877    7.1353   -1.0469 C   0  0  0  0  0  0  0  0  0  0  0  0
   10.7404    6.1296   -0.1123 C   0  0  1  0  0  0  0  0  0  0  0  0
   11.1689    4.8160   -0.4487 C   0  0  2  0  0  0  0  0  0  0  0  0
   12.2381    5.9990    0.0093 C   0  0  1  0  0  0  0  0  0  0  0  0
   12.7452    7.0837   -0.8038 C   0  0  0  0  0  0  0  0  0  0  0  0
   11.7821    8.6668   -2.0342 H   0  0  0  0  0  0  0  0  0  0  0  0
    9.5551    7.2375   -1.5992 H   0  0  0  0  0  0  0  0  0  0  0  0
   11.2602    4.0018    0.2695 H   0  0  0  0  0  0  0  0  0  0  0  0
   12.7874    5.6790    0.8918 H   0  0  0  0  0  0  0  0  0  0  0  0
    8.3298    5.4171    2.1265 N   0  0  0  0  0  0  0  0  0  0  0  0
    8.6459    5.7734    3.1229 N   0  0  0  0  0  0  0  0  0  0  0  0
   14.0643    7.3764   -0.7716 O   0  0  0  0  0  0  0  0  0  0  0  0
   14.4595    8.6082   -1.3772 C   0  0  0  0  0  0  0  0  0  0  0  0
   15.5340    8.7048   -1.1962 H   0  0  0  0  0  0  0  0  0  0  0  0
   13.9229    9.4535   -0.9206 H   0  0  0  0  0  0  0  0  0  0  0  0
   14.2670    8.5901   -2.4602 H   0  0  0  0  0  0  0  0  0  0  0  0
   12.0723    2.3756   -1.2771 O   0  0  0  0  0  0  0  0  0  0  0  0
   11.5238    3.1137   -2.0528 C   0  0  0  0  0  0  0  0  0  0  0  0
   11.0335    4.3504   -1.7735 O   0  0  0  0  0  0  0  0  0  0  0  0
   11.3271    2.8883   -3.1146 H   0  0  0  0  0  0  0  0  0  0  0  0
  1  2  1  0  0  0  0
  1  6  2  0  0  0  0
  3  2  1  6  0  0  0
  3  5  1  0  0  0  0
  4  3  1  0  0  0  0
  4  5  1  0  0  0  0
  4  9  1  1  0  0  0
  5 10  1  1  0  0  0
  6 13  1  0  0  0  0
  6  5  1  0  0  0  0
  7  1  1  0  0  0  0
  8  2  1  0  0  0  0
 11 12  3  0  0  0  0
 14 15  1  0  0  0  0
 14 16  1  0  0  0  0
 14 13  1  0  0  0  0
 17 14  1  0  0  0  0
 19 20  1  0  0  0  0
 19 18  2  0  0  0  0
 20  4  1  0  0  0  0
 21 19  1  0  0  0  0
M  RAD  2   2   2   3   2
M  END
