Coordinates from ORCA-job p-CH3O-Ph-N2-OOCH-B3LYPG-aug-cc-pVDZ-scan-d09-49-n400
 OpenBabel11081710393D

 21 21  0  0  1  0  0  0  0  0999 V2000
   11.6122    7.7656   -1.3230 C   0  0  0  0  0  0  0  0  0  0  0  0
   10.4071    7.0764   -1.0276 C   0  0  0  0  0  0  0  0  0  0  0  0
   10.6495    6.0629   -0.0981 C   0  0  1  0  0  0  0  0  0  0  0  0
   11.1088    4.7621   -0.4430 C   0  0  2  0  0  0  0  0  0  0  0  0
   12.1487    5.9437    0.0463 C   0  0  1  0  0  0  0  0  0  0  0  0
   12.6604    7.0451   -0.7440 C   0  0  0  0  0  0  0  0  0  0  0  0
   11.7035    8.6298   -1.9759 H   0  0  0  0  0  0  0  0  0  0  0  0
    9.4823    7.1807   -1.5925 H   0  0  0  0  0  0  0  0  0  0  0  0
   11.1896    3.9393    0.2675 H   0  0  0  0  0  0  0  0  0  0  0  0
   12.6854    5.6235    0.9368 H   0  0  0  0  0  0  0  0  0  0  0  0
    8.9774    5.8236    1.6819 N   0  0  0  0  0  0  0  0  0  0  0  0
    9.2818    6.0613    2.7200 N   0  0  0  0  0  0  0  0  0  0  0  0
   13.9741    7.3540   -0.6757 O   0  0  0  0  0  0  0  0  0  0  0  0
   14.3682    8.5976   -1.2579 C   0  0  0  0  0  0  0  0  0  0  0  0
   15.4368    8.7052   -1.0504 H   0  0  0  0  0  0  0  0  0  0  0  0
   13.8103    9.4308   -0.8046 H   0  0  0  0  0  0  0  0  0  0  0  0
   14.2013    8.5895   -2.3452 H   0  0  0  0  0  0  0  0  0  0  0  0
   12.0760    2.3531   -1.2871 O   0  0  0  0  0  0  0  0  0  0  0  0
   11.5199    3.0869   -2.0617 C   0  0  0  0  0  0  0  0  0  0  0  0
   10.9996    4.3092   -1.7758 O   0  0  0  0  0  0  0  0  0  0  0  0
   11.3458    2.8705   -3.1293 H   0  0  0  0  0  0  0  0  0  0  0  0
  1  2  1  0  0  0  0
  1  6  2  0  0  0  0
  3  2  1  6  0  0  0
  3  5  1  0  0  0  0
  4  3  1  0  0  0  0
  4  5  1  0  0  0  0
  4  9  1  1  0  0  0
  5 10  1  1  0  0  0
  6 13  1  0  0  0  0
  6  5  1  0  0  0  0
  7  1  1  0  0  0  0
  8  2  1  0  0  0  0
 11 12  3  0  0  0  0
 14 15  1  0  0  0  0
 14 16  1  0  0  0  0
 14 13  1  0  0  0  0
 17 14  1  0  0  0  0
 19 20  1  0  0  0  0
 19 18  2  0  0  0  0
 20  4  1  0  0  0  0
 21 19  1  0  0  0  0
M  RAD  2   2   2   3   2
M  END
