Coordinates from ORCA-job p-CH3O-Ph-N2-OOCH-B3LYPG-aug-cc-pVDZ-scan-d09-49-n400
 OpenBabel11081710393D

 21 21  0  0  1  0  0  0  0  0999 V2000
   11.7586    7.5433   -1.0939 C   0  0  0  0  0  0  0  0  0  0  0  0
   10.4868    7.1568   -0.8135 C   0  0  0  0  0  0  0  0  0  0  0  0
   10.2572    5.9608   -0.0544 C   0  0  0  0  0  0  0  0  0  0  0  0
   11.3454    4.9863    0.2824 C   0  0  2  0  0  0  0  0  0  0  0  0
   12.6847    5.5931    0.0878 C   0  0  0  0  0  0  0  0  0  0  0  0
   12.8728    6.7566   -0.5924 C   0  0  0  0  0  0  0  0  0  0  0  0
   11.9271    8.4383   -1.6841 H   0  0  0  0  0  0  0  0  0  0  0  0
    9.6308    7.7358   -1.1570 H   0  0  0  0  0  0  0  0  0  0  0  0
   11.2225    4.5823    1.2937 H   0  0  0  0  0  0  0  0  0  0  0  0
   13.5460    5.0581    0.4834 H   0  0  0  0  0  0  0  0  0  0  0  0
    9.0215    5.6645    0.3420 N   0  0  0  0  0  0  0  0  0  0  0  0
    7.9723    5.3873    0.6889 N   0  0  0  0  0  0  0  0  0  0  0  0
   14.1662    7.1667   -0.7579 O   0  0  0  0  0  0  0  0  0  0  0  0
   14.4332    8.4246   -1.3737 C   0  0  0  0  0  0  0  0  0  0  0  0
   15.5215    8.5369   -1.3453 H   0  0  0  0  0  0  0  0  0  0  0  0
   13.9687    9.2532   -0.8186 H   0  0  0  0  0  0  0  0  0  0  0  0
   14.0967    8.4405   -2.4209 H   0  0  0  0  0  0  0  0  0  0  0  0
   11.2047    4.6066   -2.5557 O   0  0  0  0  0  0  0  0  0  0  0  0
   11.1845    3.6533   -1.8135 C   0  0  0  0  0  0  0  0  0  0  0  0
   11.2013    3.6622   -0.4741 O   0  0  0  0  0  0  0  0  0  0  0  0
   11.1362    2.6036   -2.1624 H   0  0  0  0  0  0  0  0  0  0  0  0
  1  2  1  0  0  0  0
  1  6  2  0  0  0  0
  2  3  2  0  0  0  0
  3  4  1  0  0  0  0
  3 11  1  0  0  0  0
  4  9  1  1  0  0  0
  5  4  1  0  0  0  0
  5 10  1  0  0  0  0
  6  5  1  0  0  0  0
  7  1  1  0  0  0  0
  8  2  1  0  0  0  0
 11 12  1  0  0  0  0
 13  6  1  0  0  0  0
 14 15  1  0  0  0  0
 14 16  1  0  0  0  0
 14 13  1  0  0  0  0
 17 14  1  0  0  0  0
 18 19  2  0  0  0  0
 19 20  1  0  0  0  0
 20  4  1  0  0  0  0
 21 19  1  0  0  0  0
M  RAD  3   5   2  11   2  12   3
M  END
