Coordinates from ORCA-job p-CH3O-Ph-N2-OOCH-B3LYPG-aug-cc-pVDZ-scan-d09-49-n400
 OpenBabel11081710393D

 21 21  0  0  1  0  0  0  0  0999 V2000
   11.5851    7.7484   -1.3137 C   0  0  0  0  0  0  0  0  0  0  0  0
   10.3754    7.0725   -1.0128 C   0  0  0  0  0  0  0  0  0  0  0  0
   10.6069    6.0585   -0.0752 C   0  0  1  0  0  0  0  0  0  0  0  0
   11.0872    4.7618   -0.4226 C   0  0  2  0  0  0  0  0  0  0  0  0
   12.1097    5.9314    0.0686 C   0  0  1  0  0  0  0  0  0  0  0  0
   12.6289    7.0310   -0.7246 C   0  0  0  0  0  0  0  0  0  0  0  0
   11.6811    8.6075   -1.9728 H   0  0  0  0  0  0  0  0  0  0  0  0
    9.4465    7.1902   -1.5683 H   0  0  0  0  0  0  0  0  0  0  0  0
   11.1519    3.9366    0.2875 H   0  0  0  0  0  0  0  0  0  0  0  0
   12.6394    5.6231    0.9675 H   0  0  0  0  0  0  0  0  0  0  0  0
    9.1932    5.9074    1.4879 N   0  0  0  0  0  0  0  0  0  0  0  0
    9.5152    6.0747    2.5413 N   0  0  0  0  0  0  0  0  0  0  0  0
   13.9409    7.3396   -0.6438 O   0  0  0  0  0  0  0  0  0  0  0  0
   14.3425    8.5790   -1.2307 C   0  0  0  0  0  0  0  0  0  0  0  0
   15.4091    8.6865   -1.0133 H   0  0  0  0  0  0  0  0  0  0  0  0
   13.7808    9.4155   -0.7885 H   0  0  0  0  0  0  0  0  0  0  0  0
   14.1863    8.5629   -2.3195 H   0  0  0  0  0  0  0  0  0  0  0  0
   12.1027    2.3814   -1.2801 O   0  0  0  0  0  0  0  0  0  0  0  0
   11.5251    3.1037   -2.0500 C   0  0  0  0  0  0  0  0  0  0  0  0
   10.9783    4.3120   -1.7581 O   0  0  0  0  0  0  0  0  0  0  0  0
   11.3525    2.8869   -3.1177 H   0  0  0  0  0  0  0  0  0  0  0  0
  1  2  1  0  0  0  0
  1  6  2  0  0  0  0
  3  2  1  6  0  0  0
  3  5  1  0  0  0  0
  4  3  1  0  0  0  0
  4  5  1  0  0  0  0
  4  9  1  1  0  0  0
  5 10  1  1  0  0  0
  6 13  1  0  0  0  0
  6  5  1  0  0  0  0
  7  1  1  0  0  0  0
  8  2  1  0  0  0  0
 11 12  3  0  0  0  0
 14 15  1  0  0  0  0
 14 16  1  0  0  0  0
 14 13  1  0  0  0  0
 17 14  1  0  0  0  0
 19 20  1  0  0  0  0
 19 18  2  0  0  0  0
 20  4  1  0  0  0  0
 21 19  1  0  0  0  0
M  RAD  2   2   2   3   2
M  END
