Coordinates from ORCA-job p-CH3O-Ph-N2-OOCH-B3LYPG-aug-cc-pVDZ-scan-d09-49-n400
 OpenBabel11081710393D

 21 21  0  0  1  0  0  0  0  0999 V2000
   11.7527    7.5340   -1.0888 C   0  0  0  0  0  0  0  0  0  0  0  0
   10.4862    7.1478   -0.8396 C   0  0  0  0  0  0  0  0  0  0  0  0
   10.1716    5.9303   -0.0614 C   0  0  0  0  0  0  0  0  0  0  0  0
   11.3516    4.9746    0.2682 C   0  0  2  0  0  0  0  0  0  0  0  0
   12.6911    5.5737    0.0490 C   0  0  0  0  0  0  0  0  0  0  0  0
   12.8789    6.7488   -0.5974 C   0  0  0  0  0  0  0  0  0  0  0  0
   11.9221    8.4339   -1.6733 H   0  0  0  0  0  0  0  0  0  0  0  0
    9.6316    7.7162   -1.2065 H   0  0  0  0  0  0  0  0  0  0  0  0
   11.2270    4.6352    1.3044 H   0  0  0  0  0  0  0  0  0  0  0  0
   13.5508    5.0220    0.4264 H   0  0  0  0  0  0  0  0  0  0  0  0
    9.2205    5.6887    0.2527 N   0  0  0  0  0  0  0  0  0  0  0  0
    8.1501    5.3980    0.6155 N   0  0  0  0  0  0  0  0  0  0  0  0
   14.1664    7.1719   -0.7623 O   0  0  0  0  0  0  0  0  0  0  0  0
   14.4238    8.4508   -1.3409 C   0  0  0  0  0  0  0  0  0  0  0  0
   15.5108    8.5712   -1.3049 H   0  0  0  0  0  0  0  0  0  0  0  0
   13.9506    9.2583   -0.7630 H   0  0  0  0  0  0  0  0  0  0  0  0
   14.0917    8.4939   -2.3886 H   0  0  0  0  0  0  0  0  0  0  0  0
   11.0898    4.5809   -2.5216 O   0  0  0  0  0  0  0  0  0  0  0  0
   11.1153    3.6344   -1.7743 C   0  0  0  0  0  0  0  0  0  0  0  0
   11.1902    3.6664   -0.4317 O   0  0  0  0  0  0  0  0  0  0  0  0
   11.0656    2.5797   -2.1010 H   0  0  0  0  0  0  0  0  0  0  0  0
  1  2  1  0  0  0  0
  1  6  2  0  0  0  0
  2  3  2  0  0  0  0
  3 11  1  0  0  0  0
  3  4  1  0  0  0  0
  4  9  1  1  0  0  0
  5  4  1  0  0  0  0
  5 10  1  0  0  0  0
  6  5  1  0  0  0  0
  7  1  1  0  0  0  0
  8  2  1  0  0  0  0
 11 12  1  0  0  0  0
 13  6  1  0  0  0  0
 14 15  1  0  0  0  0
 14 16  1  0  0  0  0
 14 13  1  0  0  0  0
 17 14  1  0  0  0  0
 18 19  2  0  0  0  0
 19 20  1  0  0  0  0
 20  4  1  0  0  0  0
 21 19  1  0  0  0  0
M  RAD  3   5   2  11   2  12   3
M  END
