Coordinates from ORCA-job p-CH3O-Ph-N2-OOCH-B3LYPG-aug-cc-pVDZ-scan-d09-49-n400
 OpenBabel11081710393D

 21 21  0  0  1  0  0  0  0  0999 V2000
   11.7600    7.5451   -1.0936 C   0  0  0  0  0  0  0  0  0  0  0  0
   10.4876    7.1585   -0.8106 C   0  0  0  0  0  0  0  0  0  0  0  0
   10.2657    5.9639   -0.0537 C   0  0  2  0  0  0  0  0  0  0  0  0
   11.3463    4.9872    0.2840 C   0  0  2  0  0  0  0  0  0  0  0  0
   12.6851    5.5951    0.0907 C   0  0  0  0  0  0  0  0  0  0  0  0
   12.8731    6.7580   -0.5919 C   0  0  0  0  0  0  0  0  0  0  0  0
   11.9281    8.4399   -1.6842 H   0  0  0  0  0  0  0  0  0  0  0  0
    9.6308    7.7376   -1.1516 H   0  0  0  0  0  0  0  0  0  0  0  0
   11.2229    4.5788    1.2933 H   0  0  0  0  0  0  0  0  0  0  0  0
   13.5466    5.0616    0.4875 H   0  0  0  0  0  0  0  0  0  0  0  0
    9.0012    5.6603    0.3483 N   0  0  0  0  0  0  0  0  0  0  0  0
    7.9532    5.3822    0.6917 N   0  0  0  0  0  0  0  0  0  0  0  0
   14.1670    7.1668   -0.7578 O   0  0  0  0  0  0  0  0  0  0  0  0
   14.4348    8.4227   -1.3770 C   0  0  0  0  0  0  0  0  0  0  0  0
   15.5232    8.5341   -1.3496 H   0  0  0  0  0  0  0  0  0  0  0  0
   13.9713    9.2532   -0.8237 H   0  0  0  0  0  0  0  0  0  0  0  0
   14.0976    8.4362   -2.4240 H   0  0  0  0  0  0  0  0  0  0  0  0
   11.2124    4.6084   -2.5574 O   0  0  0  0  0  0  0  0  0  0  0  0
   11.1889    3.6545   -1.8159 C   0  0  0  0  0  0  0  0  0  0  0  0
   11.2024    3.6614   -0.4769 O   0  0  0  0  0  0  0  0  0  0  0  0
   11.1404    2.6053   -2.1668 H   0  0  0  0  0  0  0  0  0  0  0  0
  1  2  2  0  0  0  0
  1  6  1  0  0  0  0
  2  3  1  0  0  0  0
  3  4  1  0  0  0  0
  3 11  1  6  0  0  0
  4  9  1  1  0  0  0
  5  4  1  0  0  0  0
  5 10  1  0  0  0  0
  6  5  2  0  0  0  0
  7  1  1  0  0  0  0
  8  2  1  0  0  0  0
 11 12  1  0  0  0  0
 13  6  1  0  0  0  0
 14 15  1  0  0  0  0
 14 16  1  0  0  0  0
 14 13  1  0  0  0  0
 17 14  1  0  0  0  0
 18 19  2  0  0  0  0
 19 20  1  0  0  0  0
 20  4  1  0  0  0  0
 21 19  1  0  0  0  0
M  RAD  3   3   2  11   2  12   3
M  END
