Coordinates from ORCA-job p-CH3O-Ph-N2-OOCH-B3LYPG-aug-cc-pVDZ-scan-d09-49-n400
 OpenBabel11081710393D

 21 21  0  0  1  0  0  0  0  0999 V2000
   11.5868    7.7500   -1.3140 C   0  0  0  0  0  0  0  0  0  0  0  0
   10.3775    7.0726   -1.0139 C   0  0  0  0  0  0  0  0  0  0  0  0
   10.6100    6.0588   -0.0773 C   0  0  1  0  0  0  0  0  0  0  0  0
   11.0881    4.7616   -0.4241 C   0  0  2  0  0  0  0  0  0  0  0  0
   12.1124    5.9323    0.0668 C   0  0  1  0  0  0  0  0  0  0  0  0
   12.6309    7.0322   -0.7259 C   0  0  0  0  0  0  0  0  0  0  0  0
   11.6824    8.6098   -1.9723 H   0  0  0  0  0  0  0  0  0  0  0  0
    9.4492    7.1889   -1.5707 H   0  0  0  0  0  0  0  0  0  0  0  0
   11.1542    3.9367    0.2861 H   0  0  0  0  0  0  0  0  0  0  0  0
   12.6428    5.6229    0.9649 H   0  0  0  0  0  0  0  0  0  0  0  0
    9.1813    5.9023    1.4989 N   0  0  0  0  0  0  0  0  0  0  0  0
    9.5016    6.0741    2.5514 N   0  0  0  0  0  0  0  0  0  0  0  0
   13.9432    7.3409   -0.6459 O   0  0  0  0  0  0  0  0  0  0  0  0
   14.3440    8.5809   -1.2319 C   0  0  0  0  0  0  0  0  0  0  0  0
   15.4108    8.6884   -1.0152 H   0  0  0  0  0  0  0  0  0  0  0  0
   13.7826    9.4169   -0.7884 H   0  0  0  0  0  0  0  0  0  0  0  0
   14.1870    8.5660   -2.3206 H   0  0  0  0  0  0  0  0  0  0  0  0
   12.0996    2.3785   -1.2797 O   0  0  0  0  0  0  0  0  0  0  0  0
   11.5244    3.1019   -2.0504 C   0  0  0  0  0  0  0  0  0  0  0  0
   10.9793    4.3112   -1.7593 O   0  0  0  0  0  0  0  0  0  0  0  0
   11.3506    2.8842   -3.1178 H   0  0  0  0  0  0  0  0  0  0  0  0
  1  2  1  0  0  0  0
  1  6  2  0  0  0  0
  3  2  1  6  0  0  0
  3  5  1  0  0  0  0
  4  3  1  0  0  0  0
  4  5  1  0  0  0  0
  4  9  1  1  0  0  0
  5 10  1  1  0  0  0
  6 13  1  0  0  0  0
  6  5  1  0  0  0  0
  7  1  1  0  0  0  0
  8  2  1  0  0  0  0
 11 12  3  0  0  0  0
 14 15  1  0  0  0  0
 14 16  1  0  0  0  0
 14 13  1  0  0  0  0
 17 14  1  0  0  0  0
 19 20  1  0  0  0  0
 19 18  2  0  0  0  0
 20  4  1  0  0  0  0
 21 19  1  0  0  0  0
M  RAD  2   2   2   3   2
M  END
