Coordinates from ORCA-job p-CH3O-Ph-N2-OOCH-B3LYPG-aug-cc-pVDZ-scan-d09-49-n400
 OpenBabel11081710393D

 21 21  0  0  1  0  0  0  0  0999 V2000
   11.6323    7.7786   -1.3413 C   0  0  0  0  0  0  0  0  0  0  0  0
   10.4254    7.0928   -1.0451 C   0  0  0  0  0  0  0  0  0  0  0  0
   10.6661    6.0829   -0.1118 C   0  0  1  0  0  0  0  0  0  0  0  0
   11.1147    4.7771   -0.4483 C   0  0  2  0  0  0  0  0  0  0  0  0
   12.1634    5.9621    0.0365 C   0  0  1  0  0  0  0  0  0  0  0  0
   12.6783    7.0572   -0.7585 C   0  0  0  0  0  0  0  0  0  0  0  0
   11.7266    8.6400   -1.9976 H   0  0  0  0  0  0  0  0  0  0  0  0
    9.5026    7.1942   -1.6136 H   0  0  0  0  0  0  0  0  0  0  0  0
   11.1965    3.9591    0.2673 H   0  0  0  0  0  0  0  0  0  0  0  0
   12.6990    5.6413    0.9273 H   0  0  0  0  0  0  0  0  0  0  0  0
    8.8376    5.7424    1.7960 N   0  0  0  0  0  0  0  0  0  0  0  0
    9.1558    5.9547    2.8338 N   0  0  0  0  0  0  0  0  0  0  0  0
   13.9935    7.3618   -0.6935 O   0  0  0  0  0  0  0  0  0  0  0  0
   14.3908    8.6015   -1.2816 C   0  0  0  0  0  0  0  0  0  0  0  0
   15.4601    8.7065   -1.0759 H   0  0  0  0  0  0  0  0  0  0  0  0
   13.8364    9.4386   -0.8313 H   0  0  0  0  0  0  0  0  0  0  0  0
   14.2227    8.5893   -2.3687 H   0  0  0  0  0  0  0  0  0  0  0  0
   12.0675    2.3560   -1.2761 O   0  0  0  0  0  0  0  0  0  0  0  0
   11.5172    3.0888   -2.0557 C   0  0  0  0  0  0  0  0  0  0  0  0
   11.0059    4.3171   -1.7780 O   0  0  0  0  0  0  0  0  0  0  0  0
   11.3464    2.8690   -3.1231 H   0  0  0  0  0  0  0  0  0  0  0  0
  1  2  1  0  0  0  0
  1  6  2  0  0  0  0
  3  2  1  6  0  0  0
  3  5  1  0  0  0  0
  4  3  1  0  0  0  0
  4  5  1  0  0  0  0
  4  9  1  1  0  0  0
  5 10  1  1  0  0  0
  6 13  1  0  0  0  0
  6  5  1  0  0  0  0
  7  1  1  0  0  0  0
  8  2  1  0  0  0  0
 11 12  3  0  0  0  0
 14 15  1  0  0  0  0
 14 16  1  0  0  0  0
 14 13  1  0  0  0  0
 17 14  1  0  0  0  0
 19 20  1  0  0  0  0
 19 18  2  0  0  0  0
 20  4  1  0  0  0  0
 21 19  1  0  0  0  0
M  RAD  2   2   2   3   2
M  END
