Coordinates from ORCA-job p-CH3O-Ph-N2-OOCH-B3LYPG-aug-cc-pVDZ-scan-d09-49-n400
 OpenBabel11081710393D

 21 21  0  0  1  0  0  0  0  0999 V2000
   11.7551    7.5372   -1.0948 C   0  0  0  0  0  0  0  0  0  0  0  0
   10.4856    7.1511   -0.8241 C   0  0  0  0  0  0  0  0  0  0  0  0
   10.2270    5.9502   -0.0561 C   0  0  0  0  0  0  0  0  0  0  0  0
   11.3443    4.9825    0.2762 C   0  0  2  0  0  0  0  0  0  0  0  0
   12.6850    5.5855    0.0751 C   0  0  0  0  0  0  0  0  0  0  0  0
   12.8738    6.7519   -0.5947 C   0  0  0  0  0  0  0  0  0  0  0  0
   11.9241    8.4326   -1.6849 H   0  0  0  0  0  0  0  0  0  0  0  0
    9.6315    7.7277   -1.1775 H   0  0  0  0  0  0  0  0  0  0  0  0
   11.2231    4.5980    1.2959 H   0  0  0  0  0  0  0  0  0  0  0  0
   13.5450    5.0446    0.4657 H   0  0  0  0  0  0  0  0  0  0  0  0
    9.0874    5.6769    0.3202 N   0  0  0  0  0  0  0  0  0  0  0  0
    8.0336    5.4013    0.6789 N   0  0  0  0  0  0  0  0  0  0  0  0
   14.1651    7.1669   -0.7597 O   0  0  0  0  0  0  0  0  0  0  0  0
   14.4287    8.4327   -1.3617 C   0  0  0  0  0  0  0  0  0  0  0  0
   15.5164    8.5485   -1.3293 H   0  0  0  0  0  0  0  0  0  0  0  0
   13.9599    9.2535   -0.7988 H   0  0  0  0  0  0  0  0  0  0  0  0
   14.0951    8.4584   -2.4096 H   0  0  0  0  0  0  0  0  0  0  0  0
   11.1770    4.5995   -2.5483 O   0  0  0  0  0  0  0  0  0  0  0  0
   11.1663    3.6489   -1.8038 C   0  0  0  0  0  0  0  0  0  0  0  0
   11.1966    3.6653   -0.4628 O   0  0  0  0  0  0  0  0  0  0  0  0
   11.1182    2.5974   -2.1450 H   0  0  0  0  0  0  0  0  0  0  0  0
  1  2  1  0  0  0  0
  1  6  2  0  0  0  0
  2  3  2  0  0  0  0
  3  4  1  0  0  0  0
  3 11  1  0  0  0  0
  4  9  1  1  0  0  0
  5  4  1  0  0  0  0
  5 10  1  0  0  0  0
  6  5  1  0  0  0  0
  7  1  1  0  0  0  0
  8  2  1  0  0  0  0
 11 12  1  0  0  0  0
 13  6  1  0  0  0  0
 14 15  1  0  0  0  0
 14 16  1  0  0  0  0
 14 13  1  0  0  0  0
 17 14  1  0  0  0  0
 18 19  2  0  0  0  0
 19 20  1  0  0  0  0
 20  4  1  0  0  0  0
 21 19  1  0  0  0  0
M  RAD  3   5   2  11   2  12   3
M  END
