Coordinates from ORCA-job p-CH3O-Ph-N2-OOCH-B3LYPG-aug-cc-pVDZ-scan-d09-49-n400
 OpenBabel11081710393D

 21 21  0  0  1  0  0  0  0  0999 V2000
   11.6517    7.7894   -1.3579 C   0  0  0  0  0  0  0  0  0  0  0  0
   10.4434    7.1085   -1.0573 C   0  0  0  0  0  0  0  0  0  0  0  0
   10.6819    6.1030   -0.1185 C   0  0  1  0  0  0  0  0  0  0  0  0
   11.1246    4.7937   -0.4506 C   0  0  2  0  0  0  0  0  0  0  0  0
   12.1787    5.9787    0.0291 C   0  0  1  0  0  0  0  0  0  0  0  0
   12.6960    7.0673   -0.7722 C   0  0  0  0  0  0  0  0  0  0  0  0
   11.7483    8.6466   -2.0192 H   0  0  0  0  0  0  0  0  0  0  0  0
    9.5206    7.2088   -1.6261 H   0  0  0  0  0  0  0  0  0  0  0  0
   11.2057    3.9780    0.2675 H   0  0  0  0  0  0  0  0  0  0  0  0
   12.7142    5.6594    0.9203 H   0  0  0  0  0  0  0  0  0  0  0  0
    8.6941    5.6434    1.9071 N   0  0  0  0  0  0  0  0  0  0  0  0
    9.0212    5.8666    2.9388 N   0  0  0  0  0  0  0  0  0  0  0  0
   14.0125    7.3672   -0.7123 O   0  0  0  0  0  0  0  0  0  0  0  0
   14.4132    8.6021   -1.3081 C   0  0  0  0  0  0  0  0  0  0  0  0
   15.4833    8.7042   -1.1051 H   0  0  0  0  0  0  0  0  0  0  0  0
   13.8629    9.4438   -0.8614 H   0  0  0  0  0  0  0  0  0  0  0  0
   14.2429    8.5845   -2.3949 H   0  0  0  0  0  0  0  0  0  0  0  0
   12.0633    2.3635   -1.2692 O   0  0  0  0  0  0  0  0  0  0  0  0
   11.5192    3.0976   -2.0519 C   0  0  0  0  0  0  0  0  0  0  0  0
   11.0149    4.3298   -1.7786 O   0  0  0  0  0  0  0  0  0  0  0  0
   11.3462    2.8746   -3.1183 H   0  0  0  0  0  0  0  0  0  0  0  0
  1  2  1  0  0  0  0
  1  6  2  0  0  0  0
  3  2  1  6  0  0  0
  3  5  1  0  0  0  0
  4  3  1  0  0  0  0
  4  5  1  0  0  0  0
  4  9  1  1  0  0  0
  5 10  1  1  0  0  0
  6 13  1  0  0  0  0
  6  5  1  0  0  0  0
  7  1  1  0  0  0  0
  8  2  1  0  0  0  0
 11 12  3  0  0  0  0
 14 15  1  0  0  0  0
 14 16  1  0  0  0  0
 14 13  1  0  0  0  0
 17 14  1  0  0  0  0
 19 20  1  0  0  0  0
 19 18  2  0  0  0  0
 20  4  1  0  0  0  0
 21 19  1  0  0  0  0
M  RAD  2   2   2   3   2
M  END
