Coordinates from ORCA-job p-CH3O-Ph-N2-OOCH-B3LYPG-aug-cc-pVDZ-scan-d09-49-n400
 OpenBabel11081710393D

 21 21  0  0  1  0  0  0  0  0999 V2000
   11.5908    7.7532   -1.3149 C   0  0  0  0  0  0  0  0  0  0  0  0
   10.3823    7.0729   -1.0164 C   0  0  0  0  0  0  0  0  0  0  0  0
   10.6166    6.0591   -0.0817 C   0  0  1  0  0  0  0  0  0  0  0  0
   11.0909    4.7612   -0.4276 C   0  0  2  0  0  0  0  0  0  0  0  0
   12.1183    5.9339    0.0627 C   0  0  1  0  0  0  0  0  0  0  0  0
   12.6356    7.0345   -0.7290 C   0  0  0  0  0  0  0  0  0  0  0  0
   11.6856    8.6144   -1.9715 H   0  0  0  0  0  0  0  0  0  0  0  0
    9.4549    7.1866   -1.5754 H   0  0  0  0  0  0  0  0  0  0  0  0
   11.1597    3.9368    0.2829 H   0  0  0  0  0  0  0  0  0  0  0  0
   12.6499    5.6224    0.9594 H   0  0  0  0  0  0  0  0  0  0  0  0
    9.1510    5.8915    1.5277 N   0  0  0  0  0  0  0  0  0  0  0  0
    9.4673    6.0732    2.5784 N   0  0  0  0  0  0  0  0  0  0  0  0
   13.9481    7.3431   -0.6511 O   0  0  0  0  0  0  0  0  0  0  0  0
   14.3477    8.5842   -1.2354 C   0  0  0  0  0  0  0  0  0  0  0  0
   15.4148    8.6916   -1.0203 H   0  0  0  0  0  0  0  0  0  0  0  0
   13.7869    9.4193   -0.7894 H   0  0  0  0  0  0  0  0  0  0  0  0
   14.1888    8.5714   -2.3239 H   0  0  0  0  0  0  0  0  0  0  0  0
   12.0951    2.3733   -1.2803 O   0  0  0  0  0  0  0  0  0  0  0  0
   11.5232    3.0982   -2.0520 C   0  0  0  0  0  0  0  0  0  0  0  0
   10.9821    4.3098   -1.7622 O   0  0  0  0  0  0  0  0  0  0  0  0
   11.3492    2.8801   -3.1193 H   0  0  0  0  0  0  0  0  0  0  0  0
  1  2  1  0  0  0  0
  1  6  2  0  0  0  0
  3  2  1  6  0  0  0
  3  5  1  0  0  0  0
  4  3  1  0  0  0  0
  4  5  1  0  0  0  0
  4  9  1  1  0  0  0
  5 10  1  1  0  0  0
  6 13  1  0  0  0  0
  6  5  1  0  0  0  0
  7  1  1  0  0  0  0
  8  2  1  0  0  0  0
 11 12  3  0  0  0  0
 14 15  1  0  0  0  0
 14 16  1  0  0  0  0
 14 13  1  0  0  0  0
 17 14  1  0  0  0  0
 19 20  1  0  0  0  0
 19 18  2  0  0  0  0
 20  4  1  0  0  0  0
 21 19  1  0  0  0  0
M  RAD  2   2   2   3   2
M  END
