Coordinates from ORCA-job p-CH3O-Ph-N2-OOCH-B3LYPG-aug-cc-pVDZ-scan-d09-49-n400
 OpenBabel11081710393D

 21 21  0  0  1  0  0  0  0  0999 V2000
   11.6052    7.7620   -1.3187 C   0  0  0  0  0  0  0  0  0  0  0  0
   10.3994    7.0744   -1.0224 C   0  0  0  0  0  0  0  0  0  0  0  0
   10.6404    6.0604   -0.0926 C   0  0  1  0  0  0  0  0  0  0  0  0
   11.1036    4.7606   -0.4381 C   0  0  2  0  0  0  0  0  0  0  0  0
   12.1404    5.9395    0.0508 C   0  0  1  0  0  0  0  0  0  0  0  0
   12.6529    7.0415   -0.7393 C   0  0  0  0  0  0  0  0  0  0  0  0
   11.6968    8.6261   -1.9718 H   0  0  0  0  0  0  0  0  0  0  0  0
    9.4738    7.1812   -1.5855 H   0  0  0  0  0  0  0  0  0  0  0  0
   11.1814    3.9371    0.2721 H   0  0  0  0  0  0  0  0  0  0  0  0
   12.6765    5.6215    0.9425 H   0  0  0  0  0  0  0  0  0  0  0  0
    9.0360    5.8458    1.6298 N   0  0  0  0  0  0  0  0  0  0  0  0
    9.3363    6.0736    2.6725 N   0  0  0  0  0  0  0  0  0  0  0  0
   13.9663    7.3505   -0.6689 O   0  0  0  0  0  0  0  0  0  0  0  0
   14.3612    8.5943   -1.2503 C   0  0  0  0  0  0  0  0  0  0  0  0
   15.4295    8.7018   -1.0412 H   0  0  0  0  0  0  0  0  0  0  0  0
   13.8025    9.4272   -0.7975 H   0  0  0  0  0  0  0  0  0  0  0  0
   14.1959    8.5863   -2.3379 H   0  0  0  0  0  0  0  0  0  0  0  0
   12.0815    2.3578   -1.2856 O   0  0  0  0  0  0  0  0  0  0  0  0
   11.5200    3.0890   -2.0589 C   0  0  0  0  0  0  0  0  0  0  0  0
   10.9936    4.3081   -1.7715 O   0  0  0  0  0  0  0  0  0  0  0  0
   11.3454    2.8721   -3.1263 H   0  0  0  0  0  0  0  0  0  0  0  0
  1  2  1  0  0  0  0
  1  6  2  0  0  0  0
  3  2  1  6  0  0  0
  3  5  1  0  0  0  0
  4  3  1  0  0  0  0
  4  5  1  0  0  0  0
  4  9  1  1  0  0  0
  5 10  1  1  0  0  0
  6 13  1  0  0  0  0
  6  5  1  0  0  0  0
  7  1  1  0  0  0  0
  8  2  1  0  0  0  0
 11 12  3  0  0  0  0
 14 15  1  0  0  0  0
 14 16  1  0  0  0  0
 14 13  1  0  0  0  0
 17 14  1  0  0  0  0
 19 20  1  0  0  0  0
 19 18  2  0  0  0  0
 20  4  1  0  0  0  0
 21 19  1  0  0  0  0
M  RAD  2   2   2   3   2
M  END
