Coordinates from ORCA-job p-CH3O-Ph-N2-OOCH-B3LYPG-aug-cc-pVDZ-scan-d09-49-n400
 OpenBabel11081710393D

 21 21  0  0  1  0  0  0  0  0999 V2000
   11.8001    7.8707   -1.4022 C   0  0  0  0  0  0  0  0  0  0  0  0
   10.5986    7.2260   -1.0076 C   0  0  0  0  0  0  0  0  0  0  0  0
   10.8784    6.2303   -0.0699 C   0  0  1  0  0  0  0  0  0  0  0  0
   11.2623    4.9025   -0.4064 C   0  0  2  0  0  0  0  0  0  0  0  0
   12.3765    6.0703   -0.0211 C   0  0  1  0  0  0  0  0  0  0  0  0
   12.8641    7.1308   -0.8769 C   0  0  0  0  0  0  0  0  0  0  0  0
   11.8724    8.7143   -2.0839 H   0  0  0  0  0  0  0  0  0  0  0  0
    9.6416    7.3393   -1.5140 H   0  0  0  0  0  0  0  0  0  0  0  0
   11.3740    4.0973    0.3189 H   0  0  0  0  0  0  0  0  0  0  0  0
   12.9618    5.7528    0.8389 H   0  0  0  0  0  0  0  0  0  0  0  0
    7.3489    4.8570    2.5574 N   0  0  0  0  0  0  0  0  0  0  0  0
    7.9276    5.3161    3.3779 N   0  0  0  0  0  0  0  0  0  0  0  0
   14.1889    7.3957   -0.9163 O   0  0  0  0  0  0  0  0  0  0  0  0
   14.5780    8.6089   -1.5620 C   0  0  0  0  0  0  0  0  0  0  0  0
   15.6621    8.6855   -1.4371 H   0  0  0  0  0  0  0  0  0  0  0  0
   14.0828    9.4727   -1.0934 H   0  0  0  0  0  0  0  0  0  0  0  0
   14.3304    8.5776   -2.6335 H   0  0  0  0  0  0  0  0  0  0  0  0
   12.0825    2.4358   -1.2438 O   0  0  0  0  0  0  0  0  0  0  0  0
   11.5034    3.1707   -2.0002 C   0  0  0  0  0  0  0  0  0  0  0  0
   11.0505    4.4204   -1.7152 O   0  0  0  0  0  0  0  0  0  0  0  0
   11.2538    2.9362   -3.0488 H   0  0  0  0  0  0  0  0  0  0  0  0
  1  2  1  0  0  0  0
  1  6  2  0  0  0  0
  3  2  1  6  0  0  0
  3  5  1  0  0  0  0
  4  3  1  0  0  0  0
  4  5  1  0  0  0  0
  4  9  1  1  0  0  0
  5 10  1  1  0  0  0
  6  5  1  0  0  0  0
  7  1  1  0  0  0  0
  8  2  1  0  0  0  0
 11 12  3  0  0  0  0
 13  6  1  0  0  0  0
 14 15  1  0  0  0  0
 14 16  1  0  0  0  0
 14 13  1  0  0  0  0
 17 14  1  0  0  0  0
 19 20  1  0  0  0  0
 19 18  2  0  0  0  0
 20  4  1  0  0  0  0
 21 19  1  0  0  0  0
M  RAD  2   2   2   3   2
M  END
