Coordinates from ORCA-job p-CH3O-Ph-N2-OOCH-B3LYPG-aug-cc-pVDZ-scan-d09-49-n400
 OpenBabel11081710393D

 21 21  0  0  1  0  0  0  0  0999 V2000
   11.6880    7.8079   -1.3697 C   0  0  0  0  0  0  0  0  0  0  0  0
   10.4814    7.1323   -1.0500 C   0  0  0  0  0  0  0  0  0  0  0  0
   10.7315    6.1264   -0.1147 C   0  0  1  0  0  0  0  0  0  0  0  0
   11.1614    4.8130   -0.4498 C   0  0  2  0  0  0  0  0  0  0  0  0
   12.2289    5.9962    0.0114 C   0  0  1  0  0  0  0  0  0  0  0  0
   12.7381    7.0812   -0.8001 C   0  0  0  0  0  0  0  0  0  0  0  0
   11.7783    8.6641   -2.0333 H   0  0  0  0  0  0  0  0  0  0  0  0
    9.5506    7.2344   -1.6053 H   0  0  0  0  0  0  0  0  0  0  0  0
   11.2507    3.9988    0.2688 H   0  0  0  0  0  0  0  0  0  0  0  0
   12.7756    5.6763    0.8955 H   0  0  0  0  0  0  0  0  0  0  0  0
    8.3770    5.4467    2.1043 N   0  0  0  0  0  0  0  0  0  0  0  0
    8.6943    5.7868    3.1062 N   0  0  0  0  0  0  0  0  0  0  0  0
   14.0570    7.3742   -0.7637 O   0  0  0  0  0  0  0  0  0  0  0  0
   14.4537    8.6062   -1.3680 C   0  0  0  0  0  0  0  0  0  0  0  0
   15.5276    8.7032   -1.1837 H   0  0  0  0  0  0  0  0  0  0  0  0
   13.9155    9.4514   -0.9130 H   0  0  0  0  0  0  0  0  0  0  0  0
   14.2645    8.5882   -2.4516 H   0  0  0  0  0  0  0  0  0  0  0  0
   12.0761    2.3765   -1.2775 O   0  0  0  0  0  0  0  0  0  0  0  0
   11.5214    3.1106   -2.0526 C   0  0  0  0  0  0  0  0  0  0  0  0
   11.0299    4.3471   -1.7749 O   0  0  0  0  0  0  0  0  0  0  0  0
   11.3370    2.8892   -3.1175 H   0  0  0  0  0  0  0  0  0  0  0  0
  1  2  1  0  0  0  0
  1  6  2  0  0  0  0
  3  2  1  6  0  0  0
  3  5  1  0  0  0  0
  4  3  1  0  0  0  0
  4  5  1  0  0  0  0
  4  9  1  1  0  0  0
  5 10  1  1  0  0  0
  6 13  1  0  0  0  0
  6  5  1  0  0  0  0
  7  1  1  0  0  0  0
  8  2  1  0  0  0  0
 11 12  3  0  0  0  0
 14 15  1  0  0  0  0
 14 16  1  0  0  0  0
 14 13  1  0  0  0  0
 17 14  1  0  0  0  0
 19 20  1  0  0  0  0
 19 18  2  0  0  0  0
 20  4  1  0  0  0  0
 21 19  1  0  0  0  0
M  RAD  2   2   2   3   2
M  END
