Coordinates from ORCA-job p-CH3O-Ph-N2-OOCH-B3LYPG-aug-cc-pVDZ-scan-d09-49-n400
 OpenBabel11081710393D

 21 21  0  0  1  0  0  0  0  0999 V2000
   11.8151    7.8797   -1.4104 C   0  0  0  0  0  0  0  0  0  0  0  0
   10.6129    7.2402   -1.0091 C   0  0  0  0  0  0  0  0  0  0  0  0
   10.8936    6.2462   -0.0700 C   0  0  1  0  0  0  0  0  0  0  0  0
   11.2707    4.9157   -0.4028 C   0  0  2  0  0  0  0  0  0  0  0  0
   12.3910    6.0816   -0.0261 C   0  0  1  0  0  0  0  0  0  0  0  0
   12.8788    7.1379   -0.8872 C   0  0  0  0  0  0  0  0  0  0  0  0
   11.8875    8.7212   -2.0948 H   0  0  0  0  0  0  0  0  0  0  0  0
    9.6543    7.3549   -1.5121 H   0  0  0  0  0  0  0  0  0  0  0  0
   11.3830    4.1130    0.3251 H   0  0  0  0  0  0  0  0  0  0  0  0
   12.9783    5.7645    0.8326 H   0  0  0  0  0  0  0  0  0  0  0  0
    7.2198    4.7786    2.6303 N   0  0  0  0  0  0  0  0  0  0  0  0
    7.8471    5.2463    3.4089 N   0  0  0  0  0  0  0  0  0  0  0  0
   14.2043    7.3983   -0.9325 O   0  0  0  0  0  0  0  0  0  0  0  0
   14.5948    8.6083   -1.5834 C   0  0  0  0  0  0  0  0  0  0  0  0
   15.6796    8.6817   -1.4632 H   0  0  0  0  0  0  0  0  0  0  0  0
   14.1043    9.4751   -1.1154 H   0  0  0  0  0  0  0  0  0  0  0  0
   14.3427    8.5747   -2.6538 H   0  0  0  0  0  0  0  0  0  0  0  0
   12.0824    2.4448   -1.2360 O   0  0  0  0  0  0  0  0  0  0  0  0
   11.4988    3.1772   -1.9912 C   0  0  0  0  0  0  0  0  0  0  0  0
   11.0513    4.4294   -1.7088 O   0  0  0  0  0  0  0  0  0  0  0  0
   11.2482    2.9417   -3.0393 H   0  0  0  0  0  0  0  0  0  0  0  0
  1  2  1  0  0  0  0
  1  6  2  0  0  0  0
  3  2  1  6  0  0  0
  3  5  1  0  0  0  0
  4  3  1  0  0  0  0
  4  5  1  0  0  0  0
  4  9  1  1  0  0  0
  5 10  1  1  0  0  0
  6  5  1  0  0  0  0
  7  1  1  0  0  0  0
  8  2  1  0  0  0  0
 11 12  3  0  0  0  0
 13  6  1  0  0  0  0
 14 15  1  0  0  0  0
 14 16  1  0  0  0  0
 14 13  1  0  0  0  0
 17 14  1  0  0  0  0
 19 20  1  0  0  0  0
 19 18  2  0  0  0  0
 20  4  1  0  0  0  0
 21 19  1  0  0  0  0
M  RAD  2   2   2   3   2
M  END
