Coordinates from ORCA-job p-CH3O-Ph-N2-OOCH-B3LYPG-aug-cc-pVDZ-scan-d09-49-n400
 OpenBabel11081710393D

 21 21  0  0  1  0  0  0  0  0999 V2000
   11.6704    7.7995   -1.3641 C   0  0  0  0  0  0  0  0  0  0  0  0
   10.4628    7.1202   -1.0551 C   0  0  0  0  0  0  0  0  0  0  0  0
   10.7078    6.1141   -0.1197 C   0  0  1  0  0  0  0  0  0  0  0  0
   11.1441    4.8027   -0.4521 C   0  0  2  0  0  0  0  0  0  0  0  0
   12.2045    5.9875    0.0182 C   0  0  1  0  0  0  0  0  0  0  0  0
   12.7178    7.0750   -0.7872 C   0  0  0  0  0  0  0  0  0  0  0  0
   11.7636    8.6571   -2.0254 H   0  0  0  0  0  0  0  0  0  0  0  0
    9.5369    7.2217   -1.6185 H   0  0  0  0  0  0  0  0  0  0  0  0
   11.2291    3.9884    0.2668 H   0  0  0  0  0  0  0  0  0  0  0  0
   12.7450    5.6683    0.9066 H   0  0  0  0  0  0  0  0  0  0  0  0
    8.5344    5.5460    2.0100 N   0  0  0  0  0  0  0  0  0  0  0  0
    8.8546    5.8261    3.0289 N   0  0  0  0  0  0  0  0  0  0  0  0
   14.0355    7.3718   -0.7387 O   0  0  0  0  0  0  0  0  0  0  0  0
   14.4339    8.6061   -1.3372 C   0  0  0  0  0  0  0  0  0  0  0  0
   15.5059    8.7057   -1.1434 H   0  0  0  0  0  0  0  0  0  0  0  0
   13.8893    9.4488   -0.8853 H   0  0  0  0  0  0  0  0  0  0  0  0
   14.2542    8.5895   -2.4224 H   0  0  0  0  0  0  0  0  0  0  0  0
   12.0648    2.3658   -1.2718 O   0  0  0  0  0  0  0  0  0  0  0  0
   11.5209    3.1019   -2.0528 C   0  0  0  0  0  0  0  0  0  0  0  0
   11.0242    4.3371   -1.7785 O   0  0  0  0  0  0  0  0  0  0  0  0
   11.3390    2.8774   -3.1174 H   0  0  0  0  0  0  0  0  0  0  0  0
  1  2  1  0  0  0  0
  1  6  2  0  0  0  0
  3  2  1  6  0  0  0
  3  5  1  0  0  0  0
  4  3  1  0  0  0  0
  4  5  1  0  0  0  0
  4  9  1  1  0  0  0
  5 10  1  1  0  0  0
  6 13  1  0  0  0  0
  6  5  1  0  0  0  0
  7  1  1  0  0  0  0
  8  2  1  0  0  0  0
 11 12  3  0  0  0  0
 14 15  1  0  0  0  0
 14 16  1  0  0  0  0
 14 13  1  0  0  0  0
 17 14  1  0  0  0  0
 19 20  1  0  0  0  0
 19 18  2  0  0  0  0
 20  4  1  0  0  0  0
 21 19  1  0  0  0  0
M  RAD  2   2   2   3   2
M  END
