Coordinates from ORCA-job p-CH3O-Ph-N2-OOCH-B3LYPG-aug-cc-pVDZ-scan-d09-49-n400
 OpenBabel11081710393D

 21 21  0  0  1  0  0  0  0  0999 V2000
   11.6670    7.7976   -1.3630 C   0  0  0  0  0  0  0  0  0  0  0  0
   10.4593    7.1180   -1.0556 C   0  0  0  0  0  0  0  0  0  0  0  0
   10.7029    6.1121   -0.1190 C   0  0  1  0  0  0  0  0  0  0  0  0
   11.1410    4.8010   -0.4521 C   0  0  2  0  0  0  0  0  0  0  0  0
   12.1999    5.9858    0.0204 C   0  0  1  0  0  0  0  0  0  0  0  0
   12.7138    7.0735   -0.7844 C   0  0  0  0  0  0  0  0  0  0  0  0
   11.7608    8.6550   -2.0245 H   0  0  0  0  0  0  0  0  0  0  0  0
    9.5340    7.2192   -1.6201 H   0  0  0  0  0  0  0  0  0  0  0  0
   11.2254    3.9862    0.2664 H   0  0  0  0  0  0  0  0  0  0  0  0
   12.7395    5.6667    0.9093 H   0  0  0  0  0  0  0  0  0  0  0  0
    8.5633    5.5641    1.9921 N   0  0  0  0  0  0  0  0  0  0  0  0
    8.8830    5.8342    3.0144 N   0  0  0  0  0  0  0  0  0  0  0  0
   14.0312    7.3709   -0.7339 O   0  0  0  0  0  0  0  0  0  0  0  0
   14.4301    8.6052   -1.3320 C   0  0  0  0  0  0  0  0  0  0  0  0
   15.5017    8.7054   -1.1366 H   0  0  0  0  0  0  0  0  0  0  0  0
   13.8845    9.4478   -0.8812 H   0  0  0  0  0  0  0  0  0  0  0  0
   14.2521    8.5884   -2.4176 H   0  0  0  0  0  0  0  0  0  0  0  0
   12.0645    2.3652   -1.2719 O   0  0  0  0  0  0  0  0  0  0  0  0
   11.5209    3.1012   -2.0531 C   0  0  0  0  0  0  0  0  0  0  0  0
   11.0232    4.3360   -1.7788 O   0  0  0  0  0  0  0  0  0  0  0  0
   11.3407    2.8773   -3.1181 H   0  0  0  0  0  0  0  0  0  0  0  0
  1  2  1  0  0  0  0
  1  6  2  0  0  0  0
  3  2  1  6  0  0  0
  3  5  1  0  0  0  0
  4  3  1  0  0  0  0
  4  5  1  0  0  0  0
  4  9  1  1  0  0  0
  5 10  1  1  0  0  0
  6 13  1  0  0  0  0
  6  5  1  0  0  0  0
  7  1  1  0  0  0  0
  8  2  1  0  0  0  0
 11 12  3  0  0  0  0
 14 15  1  0  0  0  0
 14 16  1  0  0  0  0
 14 13  1  0  0  0  0
 17 14  1  0  0  0  0
 19 20  1  0  0  0  0
 19 18  2  0  0  0  0
 20  4  1  0  0  0  0
 21 19  1  0  0  0  0
M  RAD  2   2   2   3   2
M  END
