Coordinates from ORCA-job p-CH3O-Ph-N2-OOCH-B3LYPG-aug-cc-pVDZ-scan-d09-49-n400
 OpenBabel11081710393D

 21 21  0  0  1  0  0  0  0  0999 V2000
   11.7454    7.8392   -1.3826 C   0  0  0  0  0  0  0  0  0  0  0  0
   10.5421    7.1767   -1.0234 C   0  0  0  0  0  0  0  0  0  0  0  0
   10.8117    6.1744   -0.0918 C   0  0  1  0  0  0  0  0  0  0  0  0
   11.2169    4.8542   -0.4292 C   0  0  2  0  0  0  0  0  0  0  0  0
   12.3095    6.0309   -0.0075 C   0  0  1  0  0  0  0  0  0  0  0  0
   12.8051    7.1058   -0.8402 C   0  0  0  0  0  0  0  0  0  0  0  0
   11.8239    8.6911   -2.0532 H   0  0  0  0  0  0  0  0  0  0  0  0
    9.5957    7.2833   -1.5507 H   0  0  0  0  0  0  0  0  0  0  0  0
   11.3197    4.0441    0.2920 H   0  0  0  0  0  0  0  0  0  0  0  0
   12.8781    5.7109    0.8627 H   0  0  0  0  0  0  0  0  0  0  0  0
    7.8575    5.1456    2.3326 N   0  0  0  0  0  0  0  0  0  0  0  0
    8.2615    5.5735    3.2670 N   0  0  0  0  0  0  0  0  0  0  0  0
   14.1274    7.3858   -0.8455 O   0  0  0  0  0  0  0  0  0  0  0  0
   14.5175    8.6103   -1.4688 C   0  0  0  0  0  0  0  0  0  0  0  0
   15.5974    8.6977   -1.3177 H   0  0  0  0  0  0  0  0  0  0  0  0
   14.0016    9.4633   -1.0028 H   0  0  0  0  0  0  0  0  0  0  0  0
   14.2953    8.5880   -2.5461 H   0  0  0  0  0  0  0  0  0  0  0  0
   12.0831    2.4038   -1.2677 O   0  0  0  0  0  0  0  0  0  0  0  0
   11.5153    3.1396   -2.0317 C   0  0  0  0  0  0  0  0  0  0  0  0
   11.0417    4.3816   -1.7468 O   0  0  0  0  0  0  0  0  0  0  0  0
   11.2923    2.9111   -3.0876 H   0  0  0  0  0  0  0  0  0  0  0  0
  1  2  1  0  0  0  0
  1  6  2  0  0  0  0
  3  2  1  6  0  0  0
  3  5  1  0  0  0  0
  4  3  1  0  0  0  0
  4  5  1  0  0  0  0
  4  9  1  1  0  0  0
  5 10  1  1  0  0  0
  6  5  1  0  0  0  0
  7  1  1  0  0  0  0
  8  2  1  0  0  0  0
 11 12  3  0  0  0  0
 13  6  1  0  0  0  0
 14 15  1  0  0  0  0
 14 16  1  0  0  0  0
 14 13  1  0  0  0  0
 17 14  1  0  0  0  0
 19 20  1  0  0  0  0
 19 18  2  0  0  0  0
 20  4  1  0  0  0  0
 21 19  1  0  0  0  0
M  RAD  2   2   2   3   2
M  END
