Coordinates from ORCA-job p-CH3O-Ph-N2-OOCH-B3LYPG-aug-cc-pVDZ-scan-d09-49-n400
 OpenBabel11081710393D

 21 21  0  0  1  0  0  0  0  0999 V2000
   11.7527    7.5353   -1.0861 C   0  0  0  0  0  0  0  0  0  0  0  0
   10.4866    7.1491   -0.8404 C   0  0  0  0  0  0  0  0  0  0  0  0
   10.1637    5.9274   -0.0638 C   0  0  0  0  0  0  0  0  0  0  0  0
   11.3541    4.9735    0.2673 C   0  0  2  0  0  0  0  0  0  0  0  0
   12.6929    5.5721    0.0438 C   0  0  0  0  0  0  0  0  0  0  0  0
   12.8802    6.7491   -0.5981 C   0  0  0  0  0  0  0  0  0  0  0  0
   11.9221    8.4372   -1.6678 H   0  0  0  0  0  0  0  0  0  0  0  0
    9.6314    7.7167   -1.2073 H   0  0  0  0  0  0  0  0  0  0  0  0
   11.2279    4.6434    1.3064 H   0  0  0  0  0  0  0  0  0  0  0  0
   13.5530    5.0183    0.4176 H   0  0  0  0  0  0  0  0  0  0  0  0
    9.2404    5.6882    0.2377 N   0  0  0  0  0  0  0  0  0  0  0  0
    8.1668    5.3918    0.5973 N   0  0  0  0  0  0  0  0  0  0  0  0
   14.1672    7.1731   -0.7637 O   0  0  0  0  0  0  0  0  0  0  0  0
   14.4236    8.4542   -1.3382 C   0  0  0  0  0  0  0  0  0  0  0  0
   15.5106    8.5745   -1.3028 H   0  0  0  0  0  0  0  0  0  0  0  0
   13.9509    9.2596   -0.7570 H   0  0  0  0  0  0  0  0  0  0  0  0
   14.0907    8.5008   -2.3855 H   0  0  0  0  0  0  0  0  0  0  0  0
   11.0746    4.5754   -2.5157 O   0  0  0  0  0  0  0  0  0  0  0  0
   11.1097    3.6301   -1.7677 C   0  0  0  0  0  0  0  0  0  0  0  0
   11.1899    3.6660   -0.4247 O   0  0  0  0  0  0  0  0  0  0  0  0
   11.0496    2.5749   -2.0904 H   0  0  0  0  0  0  0  0  0  0  0  0
  1  2  1  0  0  0  0
  1  6  2  0  0  0  0
  2  3  2  0  0  0  0
  3 11  1  0  0  0  0
  3  4  1  0  0  0  0
  4  9  1  1  0  0  0
  5  4  1  0  0  0  0
  5 10  1  0  0  0  0
  6  5  1  0  0  0  0
  7  1  1  0  0  0  0
  8  2  1  0  0  0  0
 11 12  1  0  0  0  0
 13  6  1  0  0  0  0
 14 15  1  0  0  0  0
 14 13  1  0  0  0  0
 14 16  1  0  0  0  0
 17 14  1  0  0  0  0
 18 19  2  0  0  0  0
 19 20  1  0  0  0  0
 20  4  1  0  0  0  0
 21 19  1  0  0  0  0
M  RAD  3   5   2  11   2  12   3
M  END
