Coordinates from ORCA-job p-CH3O-Ph-N2-OOCH-B3LYPG-aug-cc-pVDZ-scan-d09-49-n400
 OpenBabel11081710393D

 21 21  0  0  1  0  0  0  0  0999 V2000
   11.7616    7.5472   -1.0934 C   0  0  0  0  0  0  0  0  0  0  0  0
   10.4884    7.1604   -0.8075 C   0  0  0  0  0  0  0  0  0  0  0  0
   10.2757    5.9675   -0.0526 C   0  0  2  0  0  0  0  0  0  0  0  0
   11.3474    4.9881    0.2861 C   0  0  2  0  0  0  0  0  0  0  0  0
   12.6854    5.5977    0.0944 C   0  0  0  0  0  0  0  0  0  0  0  0
   12.8731    6.7599   -0.5913 C   0  0  0  0  0  0  0  0  0  0  0  0
   11.9292    8.4415   -1.6846 H   0  0  0  0  0  0  0  0  0  0  0  0
    9.6305    7.7392   -1.1459 H   0  0  0  0  0  0  0  0  0  0  0  0
   11.2233    4.5743    1.2930 H   0  0  0  0  0  0  0  0  0  0  0  0
   13.5473    5.0662    0.4930 H   0  0  0  0  0  0  0  0  0  0  0  0
    8.9821    5.6559    0.3538 N   0  0  0  0  0  0  0  0  0  0  0  0
    7.9351    5.3763    0.6927 N   0  0  0  0  0  0  0  0  0  0  0  0
   14.1677    7.1671   -0.7572 O   0  0  0  0  0  0  0  0  0  0  0  0
   14.4365    8.4207   -1.3803 C   0  0  0  0  0  0  0  0  0  0  0  0
   15.5251    8.5312   -1.3538 H   0  0  0  0  0  0  0  0  0  0  0  0
   13.9740    9.2533   -0.8293 H   0  0  0  0  0  0  0  0  0  0  0  0
   14.0986    8.4314   -2.4271 H   0  0  0  0  0  0  0  0  0  0  0  0
   11.2171    4.6105   -2.5590 O   0  0  0  0  0  0  0  0  0  0  0  0
   11.1923    3.6555   -1.8184 C   0  0  0  0  0  0  0  0  0  0  0  0
   11.2038    3.6601   -0.4799 O   0  0  0  0  0  0  0  0  0  0  0  0
   11.1443    2.6069   -2.1717 H   0  0  0  0  0  0  0  0  0  0  0  0
  1  2  2  0  0  0  0
  1  6  1  0  0  0  0
  2  3  1  0  0  0  0
  3  4  1  0  0  0  0
  3 11  1  6  0  0  0
  4  9  1  1  0  0  0
  5  4  1  0  0  0  0
  5 10  1  0  0  0  0
  6  5  2  0  0  0  0
  7  1  1  0  0  0  0
  8  2  1  0  0  0  0
 11 12  1  0  0  0  0
 13  6  1  0  0  0  0
 14 15  1  0  0  0  0
 14 16  1  0  0  0  0
 14 13  1  0  0  0  0
 17 14  1  0  0  0  0
 18 19  2  0  0  0  0
 19 20  1  0  0  0  0
 20  4  1  0  0  0  0
 21 19  1  0  0  0  0
M  RAD  3   3   2  11   2  12   3
M  END
