Coordinates from ORCA-job p-CH3O-Ph-N2-OOCH-B3LYPG-aug-cc-pVDZ-scan-d09-49-n400
 OpenBabel11081710393D

 21 21  0  0  1  0  0  0  0  0999 V2000
   11.6849    7.8065   -1.3691 C   0  0  0  0  0  0  0  0  0  0  0  0
   10.4781    7.1297   -1.0520 C   0  0  0  0  0  0  0  0  0  0  0  0
   10.7272    6.1240   -0.1167 C   0  0  1  0  0  0  0  0  0  0  0  0
   11.1587    4.8111   -0.4509 C   0  0  2  0  0  0  0  0  0  0  0  0
   12.2244    5.9951    0.0124 C   0  0  1  0  0  0  0  0  0  0  0  0
   12.7345    7.0807   -0.7976 C   0  0  0  0  0  0  0  0  0  0  0  0
   11.7757    8.6631   -2.0322 H   0  0  0  0  0  0  0  0  0  0  0  0
    9.5490    7.2320   -1.6100 H   0  0  0  0  0  0  0  0  0  0  0  0
   11.2473    3.9970    0.2678 H   0  0  0  0  0  0  0  0  0  0  0  0
   12.7696    5.6755    0.8976 H   0  0  0  0  0  0  0  0  0  0  0  0
    8.4083    5.4647    2.0865 N   0  0  0  0  0  0  0  0  0  0  0  0
    8.7264    5.7930    3.0920 N   0  0  0  0  0  0  0  0  0  0  0  0
   14.0531    7.3748   -0.7583 O   0  0  0  0  0  0  0  0  0  0  0  0
   14.4500    8.6074   -1.3613 C   0  0  0  0  0  0  0  0  0  0  0  0
   15.5235    8.7052   -1.1747 H   0  0  0  0  0  0  0  0  0  0  0  0
   13.9101    9.4519   -0.9071 H   0  0  0  0  0  0  0  0  0  0  0  0
   14.2631    8.5895   -2.4453 H   0  0  0  0  0  0  0  0  0  0  0  0
   12.0692    2.3718   -1.2749 O   0  0  0  0  0  0  0  0  0  0  0  0
   11.5230    3.1090   -2.0531 C   0  0  0  0  0  0  0  0  0  0  0  0
   11.0300    4.3452   -1.7763 O   0  0  0  0  0  0  0  0  0  0  0  0
   11.3326    2.8837   -3.1161 H   0  0  0  0  0  0  0  0  0  0  0  0
  1  2  1  0  0  0  0
  1  6  2  0  0  0  0
  3  2  1  6  0  0  0
  3  5  1  0  0  0  0
  4  3  1  0  0  0  0
  4  5  1  0  0  0  0
  4  9  1  1  0  0  0
  5 10  1  1  0  0  0
  6 13  1  0  0  0  0
  6  5  1  0  0  0  0
  7  1  1  0  0  0  0
  8  2  1  0  0  0  0
 11 12  3  0  0  0  0
 14 15  1  0  0  0  0
 14 16  1  0  0  0  0
 14 13  1  0  0  0  0
 17 14  1  0  0  0  0
 19 20  1  0  0  0  0
 19 18  2  0  0  0  0
 20  4  1  0  0  0  0
 21 19  1  0  0  0  0
M  RAD  2   2   2   3   2
M  END
