Coordinates from ORCA-job p-CH3O-Ph-N2-OOCH-B3LYPG-aug-cc-pVDZ-scan-d09-49-n400
 OpenBabel11081710393D

 21 21  0  0  1  0  0  0  0  0999 V2000
   11.6074    7.7632   -1.3201 C   0  0  0  0  0  0  0  0  0  0  0  0
   10.4019    7.0749   -1.0244 C   0  0  0  0  0  0  0  0  0  0  0  0
   10.6434    6.0611   -0.0947 C   0  0  1  0  0  0  0  0  0  0  0  0
   11.1051    4.7609   -0.4399 C   0  0  2  0  0  0  0  0  0  0  0  0
   12.1430    5.9409    0.0494 C   0  0  1  0  0  0  0  0  0  0  0  0
   12.6553    7.0428   -0.7407 C   0  0  0  0  0  0  0  0  0  0  0  0
   11.6990    8.6274   -1.9731 H   0  0  0  0  0  0  0  0  0  0  0  0
    9.4766    7.1808   -1.5883 H   0  0  0  0  0  0  0  0  0  0  0  0
   11.1841    3.9377    0.2705 H   0  0  0  0  0  0  0  0  0  0  0  0
   12.6792    5.6221    0.9407 H   0  0  0  0  0  0  0  0  0  0  0  0
    9.0163    5.8393    1.6470 N   0  0  0  0  0  0  0  0  0  0  0  0
    9.3212    6.0697    2.6873 N   0  0  0  0  0  0  0  0  0  0  0  0
   13.9688    7.3518   -0.6709 O   0  0  0  0  0  0  0  0  0  0  0  0
   14.3633    8.5956   -1.2524 C   0  0  0  0  0  0  0  0  0  0  0  0
   15.4317    8.7032   -1.0438 H   0  0  0  0  0  0  0  0  0  0  0  0
   13.8048    9.4286   -0.7995 H   0  0  0  0  0  0  0  0  0  0  0  0
   14.1976    8.5876   -2.3399 H   0  0  0  0  0  0  0  0  0  0  0  0
   12.0791    2.3558   -1.2859 O   0  0  0  0  0  0  0  0  0  0  0  0
   11.5197    3.0879   -2.0598 C   0  0  0  0  0  0  0  0  0  0  0  0
   10.9956    4.3082   -1.7731 O   0  0  0  0  0  0  0  0  0  0  0  0
   11.3454    2.8712   -3.1273 H   0  0  0  0  0  0  0  0  0  0  0  0
  1  2  1  0  0  0  0
  1  6  2  0  0  0  0
  3  2  1  6  0  0  0
  3  5  1  0  0  0  0
  4  3  1  0  0  0  0
  4  5  1  0  0  0  0
  4  9  1  1  0  0  0
  5 10  1  1  0  0  0
  6 13  1  0  0  0  0
  6  5  1  0  0  0  0
  7  1  1  0  0  0  0
  8  2  1  0  0  0  0
 11 12  3  0  0  0  0
 14 15  1  0  0  0  0
 14 16  1  0  0  0  0
 14 13  1  0  0  0  0
 17 14  1  0  0  0  0
 19 20  1  0  0  0  0
 19 18  2  0  0  0  0
 20  4  1  0  0  0  0
 21 19  1  0  0  0  0
M  RAD  2   2   2   3   2
M  END
