Coordinates from ORCA-job p-CH3O-Ph-N2-OOCH-B3LYPG-aug-cc-pVDZ-scan-d09-49-n400
 OpenBabel11081710393D

 21 21  0  0  1  0  0  0  0  0999 V2000
   11.7535    7.5341   -1.0948 C   0  0  0  0  0  0  0  0  0  0  0  0
   10.4851    7.1476   -0.8309 C   0  0  0  0  0  0  0  0  0  0  0  0
   10.2093    5.9432   -0.0570 C   0  0  0  0  0  0  0  0  0  0  0  0
   11.3452    4.9799    0.2738 C   0  0  2  0  0  0  0  0  0  0  0  0
   12.6859    5.5820    0.0689 C   0  0  0  0  0  0  0  0  0  0  0  0
   12.8745    6.7503   -0.5949 C   0  0  0  0  0  0  0  0  0  0  0  0
   11.9227    8.4298   -1.6849 H   0  0  0  0  0  0  0  0  0  0  0  0
    9.6316    7.7215   -1.1907 H   0  0  0  0  0  0  0  0  0  0  0  0
   11.2239    4.6069    1.2980 H   0  0  0  0  0  0  0  0  0  0  0  0
   13.5455    5.0386    0.4571 H   0  0  0  0  0  0  0  0  0  0  0  0
    9.1361    5.6837    0.3007 N   0  0  0  0  0  0  0  0  0  0  0  0
    8.0781    5.4062    0.6638 N   0  0  0  0  0  0  0  0  0  0  0  0
   14.1646    7.1684   -0.7588 O   0  0  0  0  0  0  0  0  0  0  0  0
   14.4261    8.4382   -1.3540 C   0  0  0  0  0  0  0  0  0  0  0  0
   15.5135    8.5563   -1.3190 H   0  0  0  0  0  0  0  0  0  0  0  0
   13.9545    9.2548   -0.7875 H   0  0  0  0  0  0  0  0  0  0  0  0
   14.0945    8.4685   -2.4023 H   0  0  0  0  0  0  0  0  0  0  0  0
   11.1456    4.5959   -2.5411 O   0  0  0  0  0  0  0  0  0  0  0  0
   11.1499    3.6459   -1.7964 C   0  0  0  0  0  0  0  0  0  0  0  0
   11.1951    3.6658   -0.4549 O   0  0  0  0  0  0  0  0  0  0  0  0
   11.1035    2.5935   -2.1340 H   0  0  0  0  0  0  0  0  0  0  0  0
  1  2  1  0  0  0  0
  1  6  2  0  0  0  0
  2  3  2  0  0  0  0
  3  4  1  0  0  0  0
  3 11  1  0  0  0  0
  4  9  1  1  0  0  0
  5  4  1  0  0  0  0
  5 10  1  0  0  0  0
  6  5  1  0  0  0  0
  7  1  1  0  0  0  0
  8  2  1  0  0  0  0
 11 12  1  0  0  0  0
 13  6  1  0  0  0  0
 14 15  1  0  0  0  0
 14 16  1  0  0  0  0
 14 13  1  0  0  0  0
 17 14  1  0  0  0  0
 18 19  2  0  0  0  0
 19 20  1  0  0  0  0
 20  4  1  0  0  0  0
 21 19  1  0  0  0  0
M  RAD  3   5   2  11   2  12   3
M  END
