Coordinates from ORCA-job p-CH3O-Ph-N2-OOCH-B3LYPG-aug-cc-pVDZ-scan-d09-49-n400
 OpenBabel11081710393D

 21 21  0  0  1  0  0  0  0  0999 V2000
   11.7535    7.5330   -1.0939 C   0  0  0  0  0  0  0  0  0  0  0  0
   10.4860    7.1465   -0.8350 C   0  0  0  0  0  0  0  0  0  0  0  0
   10.1968    5.9388   -0.0582 C   0  0  0  0  0  0  0  0  0  0  0  0
   11.3474    4.9781    0.2711 C   0  0  2  0  0  0  0  0  0  0  0  0
   12.6879    5.5789    0.0617 C   0  0  0  0  0  0  0  0  0  0  0  0
   12.8766    6.7494   -0.5960 C   0  0  0  0  0  0  0  0  0  0  0  0
   11.9226    8.4294   -1.6832 H   0  0  0  0  0  0  0  0  0  0  0  0
    9.6322    7.7180   -1.1983 H   0  0  0  0  0  0  0  0  0  0  0  0
   11.2254    4.6168    1.2997 H   0  0  0  0  0  0  0  0  0  0  0  0
   13.5472    5.0325    0.4468 H   0  0  0  0  0  0  0  0  0  0  0  0
    9.1615    5.6854    0.2878 N   0  0  0  0  0  0  0  0  0  0  0  0
    8.1002    5.4051    0.6526 N   0  0  0  0  0  0  0  0  0  0  0  0
   14.1657    7.1697   -0.7599 O   0  0  0  0  0  0  0  0  0  0  0  0
   14.4255    8.4430   -1.3489 C   0  0  0  0  0  0  0  0  0  0  0  0
   15.5126    8.5624   -1.3127 H   0  0  0  0  0  0  0  0  0  0  0  0
   13.9524    9.2560   -0.7786 H   0  0  0  0  0  0  0  0  0  0  0  0
   14.0945    8.4777   -2.3973 H   0  0  0  0  0  0  0  0  0  0  0  0
   11.1279    4.5913   -2.5356 O   0  0  0  0  0  0  0  0  0  0  0  0
   11.1395    3.6426   -1.7899 C   0  0  0  0  0  0  0  0  0  0  0  0
   11.1935    3.6667   -0.4478 O   0  0  0  0  0  0  0  0  0  0  0  0
   11.0899    2.5894   -2.1235 H   0  0  0  0  0  0  0  0  0  0  0  0
  1  2  1  0  0  0  0
  1  6  2  0  0  0  0
  2  3  2  0  0  0  0
  3  4  1  0  0  0  0
  3 11  1  0  0  0  0
  4  9  1  1  0  0  0
  5  4  1  0  0  0  0
  5 10  1  0  0  0  0
  6  5  1  0  0  0  0
  7  1  1  0  0  0  0
  8  2  1  0  0  0  0
 11 12  1  0  0  0  0
 13  6  1  0  0  0  0
 14 15  1  0  0  0  0
 14 16  1  0  0  0  0
 14 13  1  0  0  0  0
 17 14  1  0  0  0  0
 18 19  2  0  0  0  0
 19 20  1  0  0  0  0
 20  4  1  0  0  0  0
 21 19  1  0  0  0  0
M  RAD  3   5   2  11   2  12   3
M  END
