Coordinates from ORCA-job p-CH3O-Ph-N2-OOCH-B3LYPG-aug-cc-pVDZ-scan-d09-49-n400
 OpenBabel11081710393D

 21 21  0  0  1  0  0  0  0  0999 V2000
   11.6259    7.7747   -1.3351 C   0  0  0  0  0  0  0  0  0  0  0  0
   10.4197    7.0873   -1.0395 C   0  0  0  0  0  0  0  0  0  0  0  0
   10.6612    6.0762   -0.1079 C   0  0  1  0  0  0  0  0  0  0  0  0
   11.1129    4.7718   -0.4470 C   0  0  2  0  0  0  0  0  0  0  0  0
   12.1591    5.9563    0.0395 C   0  0  1  0  0  0  0  0  0  0  0  0
   12.6727    7.0536   -0.7537 C   0  0  0  0  0  0  0  0  0  0  0  0
   11.7191    8.6373   -1.9900 H   0  0  0  0  0  0  0  0  0  0  0  0
    9.4963    7.1895   -1.6070 H   0  0  0  0  0  0  0  0  0  0  0  0
   11.1950    3.9525    0.2670 H   0  0  0  0  0  0  0  0  0  0  0  0
   12.6950    5.6351    0.9300 H   0  0  0  0  0  0  0  0  0  0  0  0
    8.8844    5.7717    1.7577 N   0  0  0  0  0  0  0  0  0  0  0  0
    9.1961    5.9875    2.7971 N   0  0  0  0  0  0  0  0  0  0  0  0
   13.9874    7.3599   -0.6877 O   0  0  0  0  0  0  0  0  0  0  0  0
   14.3834    8.6010   -1.2736 C   0  0  0  0  0  0  0  0  0  0  0  0
   15.4524    8.7071   -1.0674 H   0  0  0  0  0  0  0  0  0  0  0  0
   13.8277    9.4367   -0.8220 H   0  0  0  0  0  0  0  0  0  0  0  0
   14.2156    8.5904   -2.3608 H   0  0  0  0  0  0  0  0  0  0  0  0
   12.0684    2.3535   -1.2790 O   0  0  0  0  0  0  0  0  0  0  0  0
   11.5180    3.0873   -2.0576 C   0  0  0  0  0  0  0  0  0  0  0  0
   11.0039    4.3138   -1.7775 O   0  0  0  0  0  0  0  0  0  0  0  0
   11.3446    2.8677   -3.1247 H   0  0  0  0  0  0  0  0  0  0  0  0
  1  2  1  0  0  0  0
  1  6  2  0  0  0  0
  3  2  1  6  0  0  0
  3  5  1  0  0  0  0
  4  3  1  0  0  0  0
  4  5  1  0  0  0  0
  4  9  1  1  0  0  0
  5 10  1  1  0  0  0
  6 13  1  0  0  0  0
  6  5  1  0  0  0  0
  7  1  1  0  0  0  0
  8  2  1  0  0  0  0
 11 12  3  0  0  0  0
 14 15  1  0  0  0  0
 14 16  1  0  0  0  0
 14 13  1  0  0  0  0
 17 14  1  0  0  0  0
 19 20  1  0  0  0  0
 19 18  2  0  0  0  0
 20  4  1  0  0  0  0
 21 19  1  0  0  0  0
M  RAD  2   2   2   3   2
M  END
