Coordinates from ORCA-job p-CH3O-Ph-N2-OOCH-B3LYPG-aug-cc-pVDZ-scan-d09-49-n400
 OpenBabel11081710393D

 21 21  0  0  1  0  0  0  0  0999 V2000
   11.7749    7.8568   -1.3937 C   0  0  0  0  0  0  0  0  0  0  0  0
   10.5724    7.2039   -1.0158 C   0  0  0  0  0  0  0  0  0  0  0  0
   10.8473    6.2048   -0.0805 C   0  0  1  0  0  0  0  0  0  0  0  0
   11.2408    4.8801   -0.4171 C   0  0  2  0  0  0  0  0  0  0  0  0
   12.3456    6.0526   -0.0153 C   0  0  1  0  0  0  0  0  0  0  0  0
   12.8369    7.1198   -0.8604 C   0  0  0  0  0  0  0  0  0  0  0  0
   11.8503    8.7046   -2.0697 H   0  0  0  0  0  0  0  0  0  0  0  0
    9.6206    7.3144   -1.5324 H   0  0  0  0  0  0  0  0  0  0  0  0
   11.3488    4.0733    0.3070 H   0  0  0  0  0  0  0  0  0  0  0  0
   12.9232    5.7342    0.8495 H   0  0  0  0  0  0  0  0  0  0  0  0
    7.5892    4.9893    2.4461 N   0  0  0  0  0  0  0  0  0  0  0  0
    8.0865    5.4323    3.3268 N   0  0  0  0  0  0  0  0  0  0  0  0
   14.1606    7.3921   -0.8834 O   0  0  0  0  0  0  0  0  0  0  0  0
   14.5504    8.6109   -1.5180 C   0  0  0  0  0  0  0  0  0  0  0  0
   15.6326    8.6926   -1.3806 H   0  0  0  0  0  0  0  0  0  0  0  0
   14.0454    9.4695   -1.0502 H   0  0  0  0  0  0  0  0  0  0  0  0
   14.3149    8.5843   -2.5923 H   0  0  0  0  0  0  0  0  0  0  0  0
   12.0781    2.4185   -1.2518 O   0  0  0  0  0  0  0  0  0  0  0  0
   11.5066    3.1542   -2.0131 C   0  0  0  0  0  0  0  0  0  0  0  0
   11.0456    4.4012   -1.7295 O   0  0  0  0  0  0  0  0  0  0  0  0
   11.2681    2.9211   -3.0646 H   0  0  0  0  0  0  0  0  0  0  0  0
  1  2  1  0  0  0  0
  1  6  2  0  0  0  0
  3  2  1  6  0  0  0
  3  5  1  0  0  0  0
  4  3  1  0  0  0  0
  4  5  1  0  0  0  0
  4  9  1  1  0  0  0
  5 10  1  1  0  0  0
  6  5  1  0  0  0  0
  7  1  1  0  0  0  0
  8  2  1  0  0  0  0
 11 12  3  0  0  0  0
 13  6  1  0  0  0  0
 14 15  1  0  0  0  0
 14 16  1  0  0  0  0
 14 13  1  0  0  0  0
 17 14  1  0  0  0  0
 19 20  1  0  0  0  0
 19 18  2  0  0  0  0
 20  4  1  0  0  0  0
 21 19  1  0  0  0  0
M  RAD  2   2   2   3   2
M  END
