Coordinates from ORCA-job p-CH3O-Ph-N2-OOCH-B3LYPG-aug-cc-pVDZ-scan-d09-49-n400
 OpenBabel11081710393D

 21 21  0  0  1  0  0  0  0  0999 V2000
   11.7072    7.8166   -1.3711 C   0  0  0  0  0  0  0  0  0  0  0  0
   10.5032    7.1441   -1.0361 C   0  0  0  0  0  0  0  0  0  0  0  0
   10.7625    6.1388   -0.1029 C   0  0  1  0  0  0  0  0  0  0  0  0
   11.1852    4.8243   -0.4433 C   0  0  2  0  0  0  0  0  0  0  0  0
   12.2608    6.0054    0.0049 C   0  0  1  0  0  0  0  0  0  0  0  0
   12.7626    7.0882   -0.8136 C   0  0  0  0  0  0  0  0  0  0  0  0
   11.7914    8.6720   -2.0365 H   0  0  0  0  0  0  0  0  0  0  0  0
    9.5658    7.2477   -1.5797 H   0  0  0  0  0  0  0  0  0  0  0  0
   11.2818    4.0099    0.2739 H   0  0  0  0  0  0  0  0  0  0  0  0
   12.8175    5.6846    0.8824 H   0  0  0  0  0  0  0  0  0  0  0  0
    8.2010    5.3408    2.1859 N   0  0  0  0  0  0  0  0  0  0  0  0
    8.5168    5.7389    3.1661 N   0  0  0  0  0  0  0  0  0  0  0  0
   14.0826    7.3784   -0.7937 O   0  0  0  0  0  0  0  0  0  0  0  0
   14.4747    8.6089   -1.4040 C   0  0  0  0  0  0  0  0  0  0  0  0
   15.5510    8.7035   -1.2329 H   0  0  0  0  0  0  0  0  0  0  0  0
   13.9441    9.4557   -0.9433 H   0  0  0  0  0  0  0  0  0  0  0  0
   14.2723    8.5902   -2.4852 H   0  0  0  0  0  0  0  0  0  0  0  0
   12.0806    2.3842   -1.2812 O   0  0  0  0  0  0  0  0  0  0  0  0
   11.5229    3.1219   -2.0509 C   0  0  0  0  0  0  0  0  0  0  0  0
   11.0367    4.3591   -1.7667 O   0  0  0  0  0  0  0  0  0  0  0  0
   11.3181    2.8978   -3.1114 H   0  0  0  0  0  0  0  0  0  0  0  0
  1  2  1  0  0  0  0
  1  6  2  0  0  0  0
  3  2  1  6  0  0  0
  3  5  1  0  0  0  0
  4  3  1  0  0  0  0
  4  5  1  0  0  0  0
  4  9  1  1  0  0  0
  5 10  1  1  0  0  0
  6 13  1  0  0  0  0
  6  5  1  0  0  0  0
  7  1  1  0  0  0  0
  8  2  1  0  0  0  0
 11 12  3  0  0  0  0
 14 15  1  0  0  0  0
 14 16  1  0  0  0  0
 14 13  1  0  0  0  0
 17 14  1  0  0  0  0
 19 20  1  0  0  0  0
 19 18  2  0  0  0  0
 20  4  1  0  0  0  0
 21 19  1  0  0  0  0
M  RAD  2   2   2   3   2
M  END
