Coordinates from ORCA-job p-CH3O-Ph-N2-OOCH-B3LYPG-aug-cc-pVDZ-scan-d09-49-n400
 OpenBabel11081710393D

 21 21  0  0  1  0  0  0  0  0999 V2000
   11.7364    7.8331   -1.3801 C   0  0  0  0  0  0  0  0  0  0  0  0
   10.5333    7.1686   -1.0259 C   0  0  0  0  0  0  0  0  0  0  0  0
   10.7999    6.1659   -0.0920 C   0  0  1  0  0  0  0  0  0  0  0  0
   11.2106    4.8474   -0.4324 C   0  0  2  0  0  0  0  0  0  0  0  0
   12.2986    6.0247   -0.0038 C   0  0  1  0  0  0  0  0  0  0  0  0
   12.7952    7.1011   -0.8337 C   0  0  0  0  0  0  0  0  0  0  0  0
   11.8162    8.6852   -2.0503 H   0  0  0  0  0  0  0  0  0  0  0  0
    9.5890    7.2750   -1.5571 H   0  0  0  0  0  0  0  0  0  0  0  0
   11.3126    4.0355    0.2869 H   0  0  0  0  0  0  0  0  0  0  0  0
   12.8651    5.7046    0.8677 H   0  0  0  0  0  0  0  0  0  0  0  0
    7.9354    5.1913    2.3005 N   0  0  0  0  0  0  0  0  0  0  0  0
    8.3136    5.6133    3.2482 N   0  0  0  0  0  0  0  0  0  0  0  0
   14.1169    7.3837   -0.8335 O   0  0  0  0  0  0  0  0  0  0  0  0
   14.5075    8.6093   -1.4546 C   0  0  0  0  0  0  0  0  0  0  0  0
   15.5866    8.6985   -1.2988 H   0  0  0  0  0  0  0  0  0  0  0  0
   13.9881    9.4611   -0.9904 H   0  0  0  0  0  0  0  0  0  0  0  0
   14.2900    8.5871   -2.5328 H   0  0  0  0  0  0  0  0  0  0  0  0
   12.0845    2.4005   -1.2731 O   0  0  0  0  0  0  0  0  0  0  0  0
   11.5189    3.1373   -2.0378 C   0  0  0  0  0  0  0  0  0  0  0  0
   11.0416    4.3776   -1.7518 O   0  0  0  0  0  0  0  0  0  0  0  0
   11.2987    2.9101   -3.0945 H   0  0  0  0  0  0  0  0  0  0  0  0
  1  2  1  0  0  0  0
  1  6  2  0  0  0  0
  3  2  1  6  0  0  0
  3  5  1  0  0  0  0
  4  3  1  0  0  0  0
  4  5  1  0  0  0  0
  4  9  1  1  0  0  0
  5 10  1  1  0  0  0
  6 13  1  0  0  0  0
  6  5  1  0  0  0  0
  7  1  1  0  0  0  0
  8  2  1  0  0  0  0
 11 12  3  0  0  0  0
 14 15  1  0  0  0  0
 14 16  1  0  0  0  0
 14 13  1  0  0  0  0
 17 14  1  0  0  0  0
 19 20  1  0  0  0  0
 19 18  2  0  0  0  0
 20  4  1  0  0  0  0
 21 19  1  0  0  0  0
M  RAD  2   2   2   3   2
M  END
