Coordinates from ORCA-job p-CH3O-Ph-N2-OOCH-B3LYPG-aug-cc-pVDZ-scan-d09-49-n400
 OpenBabel11081710393D

 21 21  0  0  1  0  0  0  0  0999 V2000
   11.7649    7.5519   -1.0925 C   0  0  0  0  0  0  0  0  0  0  0  0
   10.4902    7.1652   -0.8001 C   0  0  0  0  0  0  0  0  0  0  0  0
   10.2959    5.9762   -0.0484 C   0  0  2  0  0  0  0  0  0  0  0  0
   11.3495    4.9903    0.2903 C   0  0  2  0  0  0  0  0  0  0  0  0
   12.6859    5.6027    0.1009 C   0  0  0  0  0  0  0  0  0  0  0  0
   12.8736    6.7636   -0.5905 C   0  0  0  0  0  0  0  0  0  0  0  0
   11.9313    8.4449   -1.6856 H   0  0  0  0  0  0  0  0  0  0  0  0
    9.6300    7.7430   -1.1334 H   0  0  0  0  0  0  0  0  0  0  0  0
   11.2243    4.5658    1.2922 H   0  0  0  0  0  0  0  0  0  0  0  0
   13.5483    5.0743    0.5024 H   0  0  0  0  0  0  0  0  0  0  0  0
    8.9347    5.6462    0.3689 N   0  0  0  0  0  0  0  0  0  0  0  0
    7.8902    5.3634    0.6988 N   0  0  0  0  0  0  0  0  0  0  0  0
   14.1694    7.1669   -0.7576 O   0  0  0  0  0  0  0  0  0  0  0  0
   14.4403    8.4160   -1.3881 C   0  0  0  0  0  0  0  0  0  0  0  0
   15.5292    8.5242   -1.3641 H   0  0  0  0  0  0  0  0  0  0  0  0
   13.9804    9.2528   -0.8413 H   0  0  0  0  0  0  0  0  0  0  0  0
   14.1006    8.4214   -2.4345 H   0  0  0  0  0  0  0  0  0  0  0  0
   11.2390    4.6151   -2.5625 O   0  0  0  0  0  0  0  0  0  0  0  0
   11.2004    3.6583   -1.8242 C   0  0  0  0  0  0  0  0  0  0  0  0
   11.2045    3.6579   -0.4868 O   0  0  0  0  0  0  0  0  0  0  0  0
   11.1562    2.6110   -2.1829 H   0  0  0  0  0  0  0  0  0  0  0  0
  1  2  2  0  0  0  0
  1  6  1  0  0  0  0
  2  3  1  0  0  0  0
  3  4  1  0  0  0  0
  3 11  1  6  0  0  0
  4  9  1  1  0  0  0
  5  4  1  0  0  0  0
  5 10  1  0  0  0  0
  6  5  2  0  0  0  0
  7  1  1  0  0  0  0
  8  2  1  0  0  0  0
 11 12  1  0  0  0  0
 13  6  1  0  0  0  0
 14 15  1  0  0  0  0
 14 16  1  0  0  0  0
 14 13  1  0  0  0  0
 17 14  1  0  0  0  0
 18 19  2  0  0  0  0
 19 20  1  0  0  0  0
 20  4  1  0  0  0  0
 21 19  1  0  0  0  0
M  RAD  3   3   2  11   2  12   3
M  END
