Coordinates from ORCA-job p-CH3O-Ph-N2-OOCH-B3LYPG-aug-cc-pVDZ-scan-d09-49-n400
 OpenBabel11081710393D

 21 21  0  0  1  0  0  0  0  0999 V2000
   11.6799    7.8039   -1.3674 C   0  0  0  0  0  0  0  0  0  0  0  0
   10.4730    7.1262   -1.0530 C   0  0  0  0  0  0  0  0  0  0  0  0
   10.7204    6.1206   -0.1170 C   0  0  1  0  0  0  0  0  0  0  0  0
   11.1543    4.8084   -0.4513 C   0  0  2  0  0  0  0  0  0  0  0  0
   12.2176    5.9926    0.0151 C   0  0  1  0  0  0  0  0  0  0  0  0
   12.7287    7.0788   -0.7935 C   0  0  0  0  0  0  0  0  0  0  0  0
   11.7715    8.6605   -2.0303 H   0  0  0  0  0  0  0  0  0  0  0  0
    9.5449    7.2279   -1.6129 H   0  0  0  0  0  0  0  0  0  0  0  0
   11.2417    3.9938    0.2670 H   0  0  0  0  0  0  0  0  0  0  0  0
   12.7613    5.6731    0.9013 H   0  0  0  0  0  0  0  0  0  0  0  0
    8.4522    5.4925    2.0597 N   0  0  0  0  0  0  0  0  0  0  0  0
    8.7696    5.8048    3.0707 N   0  0  0  0  0  0  0  0  0  0  0  0
   14.0469    7.3740   -0.7511 O   0  0  0  0  0  0  0  0  0  0  0  0
   14.4443    8.6069   -1.3531 C   0  0  0  0  0  0  0  0  0  0  0  0
   15.5172    8.7056   -1.1639 H   0  0  0  0  0  0  0  0  0  0  0  0
   13.9026    9.4510   -0.9002 H   0  0  0  0  0  0  0  0  0  0  0  0
   14.2600    8.5890   -2.4375 H   0  0  0  0  0  0  0  0  0  0  0  0
   12.0662    2.3692   -1.2740 O   0  0  0  0  0  0  0  0  0  0  0  0
   11.5240    3.1077   -2.0538 C   0  0  0  0  0  0  0  0  0  0  0  0
   11.0292    4.3432   -1.7773 O   0  0  0  0  0  0  0  0  0  0  0  0
   11.3329    2.8814   -3.1164 H   0  0  0  0  0  0  0  0  0  0  0  0
  1  2  1  0  0  0  0
  1  6  2  0  0  0  0
  3  2  1  6  0  0  0
  3  5  1  0  0  0  0
  4  3  1  0  0  0  0
  4  5  1  0  0  0  0
  4  9  1  1  0  0  0
  5 10  1  1  0  0  0
  6 13  1  0  0  0  0
  6  5  1  0  0  0  0
  7  1  1  0  0  0  0
  8  2  1  0  0  0  0
 11 12  3  0  0  0  0
 14 15  1  0  0  0  0
 14 16  1  0  0  0  0
 14 13  1  0  0  0  0
 17 14  1  0  0  0  0
 19 20  1  0  0  0  0
 19 18  2  0  0  0  0
 20  4  1  0  0  0  0
 21 19  1  0  0  0  0
M  RAD  2   2   2   3   2
M  END
