Coordinates from ORCA-job p-CH3O-Ph-N2-OOCH-B3LYPG-aug-cc-pVDZ-scan-d09-49-n400
 OpenBabel11081710393D

 21 21  0  0  1  0  0  0  0  0999 V2000
   11.8204    7.8828   -1.4135 C   0  0  0  0  0  0  0  0  0  0  0  0
   10.6181    7.2444   -1.0106 C   0  0  0  0  0  0  0  0  0  0  0  0
   10.8989    6.2513   -0.0710 C   0  0  1  0  0  0  0  0  0  0  0  0
   11.2751    4.9203   -0.4027 C   0  0  2  0  0  0  0  0  0  0  0  0
   12.3962    6.0857   -0.0282 C   0  0  1  0  0  0  0  0  0  0  0  0
   12.8840    7.1408   -0.8906 C   0  0  0  0  0  0  0  0  0  0  0  0
   11.8927    8.7237   -2.0986 H   0  0  0  0  0  0  0  0  0  0  0  0
    9.6591    7.3593   -1.5129 H   0  0  0  0  0  0  0  0  0  0  0  0
   11.3871    4.1181    0.3258 H   0  0  0  0  0  0  0  0  0  0  0  0
   12.9840    5.7693    0.8305 H   0  0  0  0  0  0  0  0  0  0  0  0
    7.1777    4.7531    2.6547 N   0  0  0  0  0  0  0  0  0  0  0  0
    7.8217    5.2218    3.4191 N   0  0  0  0  0  0  0  0  0  0  0  0
   14.2096    7.4002   -0.9374 O   0  0  0  0  0  0  0  0  0  0  0  0
   14.6004    8.6094   -1.5895 C   0  0  0  0  0  0  0  0  0  0  0  0
   15.6854    8.6822   -1.4703 H   0  0  0  0  0  0  0  0  0  0  0  0
   14.1109    9.4770   -1.1218 H   0  0  0  0  0  0  0  0  0  0  0  0
   14.3473    8.5751   -2.6597 H   0  0  0  0  0  0  0  0  0  0  0  0
   12.0751    2.4439   -1.2308 O   0  0  0  0  0  0  0  0  0  0  0  0
   11.5010    3.1802   -1.9896 C   0  0  0  0  0  0  0  0  0  0  0  0
   11.0546    4.4329   -1.7082 O   0  0  0  0  0  0  0  0  0  0  0  0
   11.2395    2.9393   -3.0339 H   0  0  0  0  0  0  0  0  0  0  0  0
  1  2  1  0  0  0  0
  1  6  2  0  0  0  0
  3  2  1  6  0  0  0
  3  5  1  0  0  0  0
  4  3  1  0  0  0  0
  4  5  1  0  0  0  0
  4  9  1  1  0  0  0
  5 10  1  1  0  0  0
  6  5  1  0  0  0  0
  7  1  1  0  0  0  0
  8  2  1  0  0  0  0
 11 12  3  0  0  0  0
 13  6  1  0  0  0  0
 14 15  1  0  0  0  0
 14 16  1  0  0  0  0
 14 13  1  0  0  0  0
 17 14  1  0  0  0  0
 19 20  1  0  0  0  0
 19 18  2  0  0  0  0
 20  4  1  0  0  0  0
 21 19  1  0  0  0  0
M  RAD  2   2   2   3   2
M  END
