Coordinates from ORCA-job p-CH3O-Ph-N2-OOCH-B3LYPG-aug-cc-pVDZ-scan-d09-49-n400
 OpenBabel11081710393D

 21 21  0  0  1  0  0  0  0  0999 V2000
   11.7881    7.8640   -1.3976 C   0  0  0  0  0  0  0  0  0  0  0  0
   10.5865    7.2151   -1.0106 C   0  0  0  0  0  0  0  0  0  0  0  0
   10.8643    6.2179   -0.0744 C   0  0  1  0  0  0  0  0  0  0  0  0
   11.2527    4.8918   -0.4112 C   0  0  2  0  0  0  0  0  0  0  0  0
   12.3627    6.0620   -0.0182 C   0  0  1  0  0  0  0  0  0  0  0  0
   12.8515    7.1259   -0.8687 C   0  0  0  0  0  0  0  0  0  0  0  0
   11.8615    8.7097   -2.0766 H   0  0  0  0  0  0  0  0  0  0  0  0
    9.6319    7.3270   -1.5219 H   0  0  0  0  0  0  0  0  0  0  0  0
   11.3633    4.0859    0.3135 H   0  0  0  0  0  0  0  0  0  0  0  0
   12.9449    5.7438    0.8436 H   0  0  0  0  0  0  0  0  0  0  0  0
    7.4640    4.9190    2.5009 N   0  0  0  0  0  0  0  0  0  0  0  0
    8.0032    5.3722    3.3513 N   0  0  0  0  0  0  0  0  0  0  0  0
   14.1758    7.3946   -0.9007 O   0  0  0  0  0  0  0  0  0  0  0  0
   14.5647    8.6107   -1.5412 C   0  0  0  0  0  0  0  0  0  0  0  0
   15.6480    8.6899   -1.4107 H   0  0  0  0  0  0  0  0  0  0  0  0
   14.0648    9.4718   -1.0728 H   0  0  0  0  0  0  0  0  0  0  0  0
   14.3226    8.5816   -2.6140 H   0  0  0  0  0  0  0  0  0  0  0  0
   12.0777    2.4261   -1.2469 O   0  0  0  0  0  0  0  0  0  0  0  0
   11.5042    3.1625   -2.0060 C   0  0  0  0  0  0  0  0  0  0  0  0
   11.0483    4.4113   -1.7216 O   0  0  0  0  0  0  0  0  0  0  0  0
   11.2579    2.9280   -3.0554 H   0  0  0  0  0  0  0  0  0  0  0  0
  1  2  1  0  0  0  0
  1  6  2  0  0  0  0
  3  2  1  6  0  0  0
  3  5  1  0  0  0  0
  4  3  1  0  0  0  0
  4  5  1  0  0  0  0
  4  9  1  1  0  0  0
  5 10  1  1  0  0  0
  6  5  1  0  0  0  0
  7  1  1  0  0  0  0
  8  2  1  0  0  0  0
 11 12  3  0  0  0  0
 13  6  1  0  0  0  0
 14 15  1  0  0  0  0
 14 16  1  0  0  0  0
 14 13  1  0  0  0  0
 17 14  1  0  0  0  0
 19 20  1  0  0  0  0
 19 18  2  0  0  0  0
 20  4  1  0  0  0  0
 21 19  1  0  0  0  0
M  RAD  2   2   2   3   2
M  END
