Coordinates from ORCA-job p-CH3O-Ph-N2-OOCH-B3LYPG-aug-cc-pVDZ-scan-d09-49-n400
 OpenBabel11081710393D

 21 21  0  0  1  0  0  0  0  0999 V2000
   11.7533    7.5396   -1.0812 C   0  0  0  0  0  0  0  0  0  0  0  0
   10.4873    7.1542   -0.8401 C   0  0  0  0  0  0  0  0  0  0  0  0
   10.1517    5.9234   -0.0706 C   0  0  0  0  0  0  0  0  0  0  0  0
   11.3571    4.9723    0.2646 C   0  0  2  0  0  0  0  0  0  0  0  0
   12.6952    5.5693    0.0341 C   0  0  0  0  0  0  0  0  0  0  0  0
   12.8819    6.7494   -0.6011 C   0  0  0  0  0  0  0  0  0  0  0  0
   11.9234    8.4457   -1.6564 H   0  0  0  0  0  0  0  0  0  0  0  0
    9.6316    7.7231   -1.2041 H   0  0  0  0  0  0  0  0  0  0  0  0
   11.2286    4.6561    1.3079 H   0  0  0  0  0  0  0  0  0  0  0  0
   13.5560    5.0121    0.4016 H   0  0  0  0  0  0  0  0  0  0  0  0
    9.2568    5.6868    0.2198 N   0  0  0  0  0  0  0  0  0  0  0  0
    8.1786    5.3842    0.5784 N   0  0  0  0  0  0  0  0  0  0  0  0
   14.1684    7.1734   -0.7689 O   0  0  0  0  0  0  0  0  0  0  0  0
   14.4243    8.4582   -1.3355 C   0  0  0  0  0  0  0  0  0  0  0  0
   15.5115    8.5775   -1.3021 H   0  0  0  0  0  0  0  0  0  0  0  0
   13.9538    9.2600   -0.7476 H   0  0  0  0  0  0  0  0  0  0  0  0
   14.0887    8.5121   -2.3816 H   0  0  0  0  0  0  0  0  0  0  0  0
   11.0624    4.5634   -2.5091 O   0  0  0  0  0  0  0  0  0  0  0  0
   11.0970    3.6212   -1.7576 C   0  0  0  0  0  0  0  0  0  0  0  0
   11.1882    3.6643   -0.4147 O   0  0  0  0  0  0  0  0  0  0  0  0
   11.0428    2.5643   -2.0748 H   0  0  0  0  0  0  0  0  0  0  0  0
  1  2  1  0  0  0  0
  1  6  2  0  0  0  0
  2  3  2  0  0  0  0
  3 11  1  0  0  0  0
  3  4  1  0  0  0  0
  4  9  1  1  0  0  0
  5  4  1  0  0  0  0
  5 10  1  0  0  0  0
  6  5  1  0  0  0  0
  7  1  1  0  0  0  0
  8  2  1  0  0  0  0
 11 12  1  0  0  0  0
 13  6  1  0  0  0  0
 14 15  1  0  0  0  0
 14 13  1  0  0  0  0
 14 16  1  0  0  0  0
 17 14  1  0  0  0  0
 18 19  2  0  0  0  0
 19 20  1  0  0  0  0
 20  4  1  0  0  0  0
 21 19  1  0  0  0  0
M  RAD  3   5   2  11   2  12   3
M  END
