Coordinates from ORCA-job p-CH3O-Ph-N2-OOCH-B3LYPG-aug-cc-pVDZ-scan-d09-49-n400
 OpenBabel11081710393D

 21 21  0  0  1  0  0  0  0  0999 V2000
   11.6334    7.7792   -1.3420 C   0  0  0  0  0  0  0  0  0  0  0  0
   10.4265    7.0934   -1.0455 C   0  0  0  0  0  0  0  0  0  0  0  0
   10.6671    6.0840   -0.1118 C   0  0  1  0  0  0  0  0  0  0  0  0
   11.1160    4.7781   -0.4486 C   0  0  2  0  0  0  0  0  0  0  0  0
   12.1645    5.9630    0.0364 C   0  0  1  0  0  0  0  0  0  0  0  0
   12.6794    7.0578   -0.7590 C   0  0  0  0  0  0  0  0  0  0  0  0
   11.7277    8.6402   -1.9987 H   0  0  0  0  0  0  0  0  0  0  0  0
    9.5037    7.1947   -1.6140 H   0  0  0  0  0  0  0  0  0  0  0  0
   11.1978    3.9599    0.2668 H   0  0  0  0  0  0  0  0  0  0  0  0
   12.7000    5.6423    0.9273 H   0  0  0  0  0  0  0  0  0  0  0  0
    8.8304    5.7378    1.8012 N   0  0  0  0  0  0  0  0  0  0  0  0
    9.1474    5.9495    2.8394 N   0  0  0  0  0  0  0  0  0  0  0  0
   13.9945    7.3624   -0.6945 O   0  0  0  0  0  0  0  0  0  0  0  0
   14.3919    8.6018   -1.2831 C   0  0  0  0  0  0  0  0  0  0  0  0
   15.4612    8.7068   -1.0776 H   0  0  0  0  0  0  0  0  0  0  0  0
   13.8376    9.4391   -0.8331 H   0  0  0  0  0  0  0  0  0  0  0  0
   14.2237    8.5891   -2.3702 H   0  0  0  0  0  0  0  0  0  0  0  0
   12.0655    2.3553   -1.2755 O   0  0  0  0  0  0  0  0  0  0  0  0
   11.5182    3.0896   -2.0559 C   0  0  0  0  0  0  0  0  0  0  0  0
   11.0074    4.3181   -1.7782 O   0  0  0  0  0  0  0  0  0  0  0  0
   11.3448    2.8686   -3.1226 H   0  0  0  0  0  0  0  0  0  0  0  0
  1  2  1  0  0  0  0
  1  6  2  0  0  0  0
  3  2  1  6  0  0  0
  3  5  1  0  0  0  0
  4  3  1  0  0  0  0
  4  5  1  0  0  0  0
  4  9  1  1  0  0  0
  5 10  1  1  0  0  0
  6 13  1  0  0  0  0
  6  5  1  0  0  0  0
  7  1  1  0  0  0  0
  8  2  1  0  0  0  0
 11 12  3  0  0  0  0
 14 15  1  0  0  0  0
 14 16  1  0  0  0  0
 14 13  1  0  0  0  0
 17 14  1  0  0  0  0
 19 20  1  0  0  0  0
 19 18  2  0  0  0  0
 20  4  1  0  0  0  0
 21 19  1  0  0  0  0
M  RAD  2   2   2   3   2
M  END
