Coordinates from ORCA-job p-CH3O-Ph-N2-OOCH-B3LYPG-aug-cc-pVDZ-scan-d09-49-n400
 OpenBabel11081710393D

 21 21  0  0  1  0  0  0  0  0999 V2000
   11.8009    7.8707   -1.4029 C   0  0  0  0  0  0  0  0  0  0  0  0
   10.5996    7.2264   -1.0079 C   0  0  0  0  0  0  0  0  0  0  0  0
   10.8790    6.2311   -0.0694 C   0  0  1  0  0  0  0  0  0  0  0  0
   11.2633    4.9035   -0.4064 C   0  0  2  0  0  0  0  0  0  0  0  0
   12.3774    6.0710   -0.0212 C   0  0  1  0  0  0  0  0  0  0  0  0
   12.8649    7.1311   -0.8772 C   0  0  0  0  0  0  0  0  0  0  0  0
   11.8732    8.7139   -2.0850 H   0  0  0  0  0  0  0  0  0  0  0  0
    9.6426    7.3398   -1.5144 H   0  0  0  0  0  0  0  0  0  0  0  0
   11.3752    4.0981    0.3188 H   0  0  0  0  0  0  0  0  0  0  0  0
   12.9631    5.7537    0.8386 H   0  0  0  0  0  0  0  0  0  0  0  0
    7.3413    4.8528    2.5618 N   0  0  0  0  0  0  0  0  0  0  0  0
    7.9231    5.3123    3.3802 N   0  0  0  0  0  0  0  0  0  0  0  0
   14.1896    7.3960   -0.9168 O   0  0  0  0  0  0  0  0  0  0  0  0
   14.5788    8.6090   -1.5629 C   0  0  0  0  0  0  0  0  0  0  0  0
   15.6629    8.6856   -1.4381 H   0  0  0  0  0  0  0  0  0  0  0  0
   14.0837    9.4730   -1.0947 H   0  0  0  0  0  0  0  0  0  0  0  0
   14.3312    8.5773   -2.6344 H   0  0  0  0  0  0  0  0  0  0  0  0
   12.0813    2.4359   -1.2434 O   0  0  0  0  0  0  0  0  0  0  0  0
   11.5044    3.1719   -2.0004 C   0  0  0  0  0  0  0  0  0  0  0  0
   11.0514    4.4215   -1.7152 O   0  0  0  0  0  0  0  0  0  0  0  0
   11.2518    2.9361   -3.0480 H   0  0  0  0  0  0  0  0  0  0  0  0
  1  2  1  0  0  0  0
  1  6  2  0  0  0  0
  3  2  1  6  0  0  0
  3  5  1  0  0  0  0
  4  3  1  0  0  0  0
  4  5  1  0  0  0  0
  4  9  1  1  0  0  0
  5 10  1  1  0  0  0
  6  5  1  0  0  0  0
  7  1  1  0  0  0  0
  8  2  1  0  0  0  0
 11 12  3  0  0  0  0
 13  6  1  0  0  0  0
 14 15  1  0  0  0  0
 14 16  1  0  0  0  0
 14 13  1  0  0  0  0
 17 14  1  0  0  0  0
 19 20  1  0  0  0  0
 19 18  2  0  0  0  0
 20  4  1  0  0  0  0
 21 19  1  0  0  0  0
M  RAD  2   2   2   3   2
M  END
