Coordinates from ORCA-job p-CH3O-Ph-N2-OOCH-B3LYPG-aug-cc-pVDZ-scan-d09-49-n400
 OpenBabel11081710393D

 21 21  0  0  1  0  0  0  0  0999 V2000
   11.7639    7.8501   -1.3898 C   0  0  0  0  0  0  0  0  0  0  0  0
   10.5609    7.1938   -1.0190 C   0  0  0  0  0  0  0  0  0  0  0  0
   10.8334    6.1941   -0.0851 C   0  0  1  0  0  0  0  0  0  0  0  0
   11.2306    4.8711   -0.4212 C   0  0  2  0  0  0  0  0  0  0  0  0
   12.3313    6.0452   -0.0117 C   0  0  1  0  0  0  0  0  0  0  0  0
   12.8248    7.1147   -0.8522 C   0  0  0  0  0  0  0  0  0  0  0  0
   11.8408    8.6989   -2.0645 H   0  0  0  0  0  0  0  0  0  0  0  0
    9.6110    7.3022   -1.5397 H   0  0  0  0  0  0  0  0  0  0  0  0
   11.3362    4.0632    0.3021 H   0  0  0  0  0  0  0  0  0  0  0  0
   12.9051    5.7258    0.8553 H   0  0  0  0  0  0  0  0  0  0  0  0
    7.6912    5.0476    2.4020 N   0  0  0  0  0  0  0  0  0  0  0  0
    8.1537    5.4825    3.3055 N   0  0  0  0  0  0  0  0  0  0  0  0
   14.1481    7.3895   -0.8686 O   0  0  0  0  0  0  0  0  0  0  0  0
   14.5383    8.6099   -1.4998 C   0  0  0  0  0  0  0  0  0  0  0  0
   15.6197    8.6937   -1.3572 H   0  0  0  0  0  0  0  0  0  0  0  0
   14.0292    9.4669   -1.0335 H   0  0  0  0  0  0  0  0  0  0  0  0
   14.3080    8.5841   -2.5753 H   0  0  0  0  0  0  0  0  0  0  0  0
   12.0813    2.4146   -1.2579 O   0  0  0  0  0  0  0  0  0  0  0  0
   11.5089    3.1493   -2.0195 C   0  0  0  0  0  0  0  0  0  0  0  0
   11.0432    4.3945   -1.7355 O   0  0  0  0  0  0  0  0  0  0  0  0
   11.2790    2.9191   -3.0736 H   0  0  0  0  0  0  0  0  0  0  0  0
  1  2  1  0  0  0  0
  1  6  2  0  0  0  0
  3  2  1  6  0  0  0
  3  5  1  0  0  0  0
  4  3  1  0  0  0  0
  4  5  1  0  0  0  0
  4  9  1  1  0  0  0
  5 10  1  1  0  0  0
  6  5  1  0  0  0  0
  7  1  1  0  0  0  0
  8  2  1  0  0  0  0
 11 12  3  0  0  0  0
 13  6  1  0  0  0  0
 14 15  1  0  0  0  0
 14 16  1  0  0  0  0
 14 13  1  0  0  0  0
 17 14  1  0  0  0  0
 19 20  1  0  0  0  0
 19 18  2  0  0  0  0
 20  4  1  0  0  0  0
 21 19  1  0  0  0  0
M  RAD  2   2   2   3   2
M  END
