Coordinates from ORCA-job p-CH3O-Ph-N2-OOCH-B3LYPG-aug-cc-pVDZ-scan-d09-49-n400
 OpenBabel11081710393D

 21 21  0  0  1  0  0  0  0  0999 V2000
   11.7576    7.5397   -1.0950 C   0  0  0  0  0  0  0  0  0  0  0  0
   10.4869    7.1526   -0.8201 C   0  0  0  0  0  0  0  0  0  0  0  0
   10.2436    5.9546   -0.0563 C   0  0  0  0  0  0  0  0  0  0  0  0
   11.3459    4.9844    0.2797 C   0  0  2  0  0  0  0  0  0  0  0  0
   12.6858    5.5901    0.0830 C   0  0  0  0  0  0  0  0  0  0  0  0
   12.8740    6.7547   -0.5926 C   0  0  0  0  0  0  0  0  0  0  0  0
   11.9263    8.4347   -1.6854 H   0  0  0  0  0  0  0  0  0  0  0  0
    9.6319    7.7302   -1.1692 H   0  0  0  0  0  0  0  0  0  0  0  0
   11.2236    4.5895    1.2949 H   0  0  0  0  0  0  0  0  0  0  0  0
   13.5465    5.0530    0.4770 H   0  0  0  0  0  0  0  0  0  0  0  0
    9.0559    5.6696    0.3297 N   0  0  0  0  0  0  0  0  0  0  0  0
    8.0046    5.3931    0.6820 N   0  0  0  0  0  0  0  0  0  0  0  0
   14.1663    7.1678   -0.7573 O   0  0  0  0  0  0  0  0  0  0  0  0
   14.4314    8.4293   -1.3671 C   0  0  0  0  0  0  0  0  0  0  0  0
   15.5193    8.5438   -1.3362 H   0  0  0  0  0  0  0  0  0  0  0  0
   13.9639    9.2542   -0.8091 H   0  0  0  0  0  0  0  0  0  0  0  0
   14.0970    8.4490   -2.4149 H   0  0  0  0  0  0  0  0  0  0  0  0
   11.1784    4.6043   -2.5512 O   0  0  0  0  0  0  0  0  0  0  0  0
   11.1716    3.6517   -1.8084 C   0  0  0  0  0  0  0  0  0  0  0  0
   11.2012    3.6634   -0.4684 O   0  0  0  0  0  0  0  0  0  0  0  0
   11.1272    2.6011   -2.1541 H   0  0  0  0  0  0  0  0  0  0  0  0
  1  2  1  0  0  0  0
  1  6  2  0  0  0  0
  2  3  2  0  0  0  0
  3  4  1  0  0  0  0
  3 11  1  0  0  0  0
  4  9  1  1  0  0  0
  5  4  1  0  0  0  0
  5 10  1  0  0  0  0
  6  5  1  0  0  0  0
  7  1  1  0  0  0  0
  8  2  1  0  0  0  0
 11 12  1  0  0  0  0
 13  6  1  0  0  0  0
 14 15  1  0  0  0  0
 14 16  1  0  0  0  0
 14 13  1  0  0  0  0
 17 14  1  0  0  0  0
 18 19  2  0  0  0  0
 19 20  1  0  0  0  0
 20  4  1  0  0  0  0
 21 19  1  0  0  0  0
M  RAD  3   5   2  11   2  12   3
M  END
