Coordinates from ORCA-job p-CH3O-Ph-N2-OOCH-B3LYPG-aug-cc-pVDZ-scan-d09-49-n400
 OpenBabel11081710393D

 21 21  0  0  1  0  0  0  0  0999 V2000
   11.7222    7.8245   -1.3760 C   0  0  0  0  0  0  0  0  0  0  0  0
   10.5188    7.1564   -1.0305 C   0  0  0  0  0  0  0  0  0  0  0  0
   10.7815    6.1528   -0.0959 C   0  0  1  0  0  0  0  0  0  0  0  0
   11.1987    4.8364   -0.4376 C   0  0  2  0  0  0  0  0  0  0  0  0
   12.2804    6.0151    0.0008 C   0  0  1  0  0  0  0  0  0  0  0  0
   12.7794    7.0945   -0.8239 C   0  0  0  0  0  0  0  0  0  0  0  0
   11.8041    8.6779   -2.0442 H   0  0  0  0  0  0  0  0  0  0  0  0
    9.5778    7.2618   -1.5678 H   0  0  0  0  0  0  0  0  0  0  0  0
   11.2983    4.0228    0.2802 H   0  0  0  0  0  0  0  0  0  0  0  0
   12.8426    5.6949    0.8750 H   0  0  0  0  0  0  0  0  0  0  0  0
    8.0630    5.2639    2.2466 N   0  0  0  0  0  0  0  0  0  0  0  0
    8.4067    5.6748    3.2121 N   0  0  0  0  0  0  0  0  0  0  0  0
   14.1002    7.3807   -0.8144 O   0  0  0  0  0  0  0  0  0  0  0  0
   14.4917    8.6084   -1.4307 C   0  0  0  0  0  0  0  0  0  0  0  0
   15.5695    8.7002   -1.2676 H   0  0  0  0  0  0  0  0  0  0  0  0
   13.9669    9.4580   -0.9685 H   0  0  0  0  0  0  0  0  0  0  0  0
   14.2815    8.5875   -2.5104 H   0  0  0  0  0  0  0  0  0  0  0  0
   12.0848    2.3940   -1.2786 O   0  0  0  0  0  0  0  0  0  0  0  0
   11.5219    3.1310   -2.0450 C   0  0  0  0  0  0  0  0  0  0  0  0
   11.0396    4.3694   -1.7592 O   0  0  0  0  0  0  0  0  0  0  0  0
   11.3091    2.9058   -3.1037 H   0  0  0  0  0  0  0  0  0  0  0  0
  1  2  1  0  0  0  0
  1  6  2  0  0  0  0
  3  2  1  6  0  0  0
  3  5  1  0  0  0  0
  4  3  1  0  0  0  0
  4  5  1  0  0  0  0
  4  9  1  1  0  0  0
  5 10  1  1  0  0  0
  6 13  1  0  0  0  0
  6  5  1  0  0  0  0
  7  1  1  0  0  0  0
  8  2  1  0  0  0  0
 11 12  3  0  0  0  0
 14 15  1  0  0  0  0
 14 16  1  0  0  0  0
 14 13  1  0  0  0  0
 17 14  1  0  0  0  0
 19 20  1  0  0  0  0
 19 18  2  0  0  0  0
 20  4  1  0  0  0  0
 21 19  1  0  0  0  0
M  RAD  2   2   2   3   2
M  END
