Coordinates from ORCA-job p-CH3O-Ph-N2-OOCH-B3LYPG-aug-cc-pVDZ-scan-d09-49-n400
 OpenBabel11081710393D

 21 21  0  0  1  0  0  0  0  0999 V2000
   11.7913    7.5438   -1.0891 C   0  0  0  0  0  0  0  0  0  0  0  0
   10.5249    7.1164   -0.7752 C   0  0  0  0  0  0  0  0  0  0  0  0
   10.4639    6.1298    0.2240 C   0  0  2  0  0  0  0  0  0  0  0  0
   11.3791    5.0214    0.3888 C   0  0  2  0  0  0  0  0  0  0  0  0
   12.7020    5.6760    0.2393 C   0  0  0  0  0  0  0  0  0  0  0  0
   12.8935    6.8073   -0.5204 C   0  0  0  0  0  0  0  0  0  0  0  0
   11.9344    8.4097   -1.7265 H   0  0  0  0  0  0  0  0  0  0  0  0
    9.6337    7.6019   -1.1641 H   0  0  0  0  0  0  0  0  0  0  0  0
   11.2669    4.4622    1.3192 H   0  0  0  0  0  0  0  0  0  0  0  0
   13.5659    5.1575    0.6508 H   0  0  0  0  0  0  0  0  0  0  0  0
    8.7194    5.4520    0.2809 N   0  0  0  0  0  0  0  0  0  0  0  0
    7.7052    5.1879    0.6454 N   0  0  0  0  0  0  0  0  0  0  0  0
   14.1876    7.2008   -0.6831 O   0  0  0  0  0  0  0  0  0  0  0  0
   14.4696    8.3640   -1.4594 C   0  0  0  0  0  0  0  0  0  0  0  0
   15.5577    8.4766   -1.4314 H   0  0  0  0  0  0  0  0  0  0  0  0
   13.9992    9.2587   -1.0250 H   0  0  0  0  0  0  0  0  0  0  0  0
   14.1436    8.2374   -2.5019 H   0  0  0  0  0  0  0  0  0  0  0  0
   11.1691    4.8018   -2.5687 O   0  0  0  0  0  0  0  0  0  0  0  0
   11.1757    3.8034   -1.8795 C   0  0  0  0  0  0  0  0  0  0  0  0
   11.2200    3.7214   -0.5547 O   0  0  0  0  0  0  0  0  0  0  0  0
   11.1361    2.7807   -2.3085 H   0  0  0  0  0  0  0  0  0  0  0  0
  1  2  2  0  0  0  0
  1  6  1  0  0  0  0
  2  3  1  0  0  0  0
  3 11  1  6  0  0  0
  3  4  1  0  0  0  0
  4  9  1  1  0  0  0
  5  4  1  0  0  0  0
  5 10  1  0  0  0  0
  6  5  2  0  0  0  0
  7  1  1  0  0  0  0
  8  2  1  0  0  0  0
 11 12  1  0  0  0  0
 13  6  1  0  0  0  0
 14 15  1  0  0  0  0
 14 16  1  0  0  0  0
 14 13  1  0  0  0  0
 17 14  1  0  0  0  0
 18 19  2  0  0  0  0
 19 20  1  0  0  0  0
 20  4  1  0  0  0  0
 21 19  1  0  0  0  0
M  RAD  3   3   2  11   2  12   3
M  END
