Coordinates from ORCA-job p-CH3O-Ph-N2-OOCH-B3LYPG-aug-cc-pVDZ-scan-d09-49-n400
 OpenBabel11081710393D

 21 21  0  0  1  0  0  0  0  0999 V2000
   11.7805    7.5691   -1.0761 C   0  0  0  0  0  0  0  0  0  0  0  0
   10.5032    7.1757   -0.7570 C   0  0  0  0  0  0  0  0  0  0  0  0
   10.3912    6.0458    0.0603 C   0  0  2  0  0  0  0  0  0  0  0  0
   11.3691    5.0179    0.3525 C   0  0  2  0  0  0  0  0  0  0  0  0
   12.6923    5.6412    0.1637 C   0  0  0  0  0  0  0  0  0  0  0  0
   12.8797    6.7908   -0.5649 C   0  0  0  0  0  0  0  0  0  0  0  0
   11.9337    8.4471   -1.6938 H   0  0  0  0  0  0  0  0  0  0  0  0
    9.6272    7.7218   -1.0981 H   0  0  0  0  0  0  0  0  0  0  0  0
   11.2492    4.5153    1.3152 H   0  0  0  0  0  0  0  0  0  0  0  0
   13.5587    5.1229    0.5695 H   0  0  0  0  0  0  0  0  0  0  0  0
    8.8246    5.5718    0.3483 N   0  0  0  0  0  0  0  0  0  0  0  0
    7.7844    5.2343    0.5783 N   0  0  0  0  0  0  0  0  0  0  0  0
   14.1786    7.1746   -0.7437 O   0  0  0  0  0  0  0  0  0  0  0  0
   14.4563    8.3908   -1.4325 C   0  0  0  0  0  0  0  0  0  0  0  0
   15.5460    8.4920   -1.4194 H   0  0  0  0  0  0  0  0  0  0  0  0
   14.0043    9.2545   -0.9220 H   0  0  0  0  0  0  0  0  0  0  0  0
   14.1091    8.3495   -2.4755 H   0  0  0  0  0  0  0  0  0  0  0  0
   11.2264    4.6771   -2.5541 O   0  0  0  0  0  0  0  0  0  0  0  0
   11.1921    3.6977   -1.8386 C   0  0  0  0  0  0  0  0  0  0  0  0
   11.2003    3.6562   -0.5106 O   0  0  0  0  0  0  0  0  0  0  0  0
   11.1317    2.6647   -2.2406 H   0  0  0  0  0  0  0  0  0  0  0  0
  1  2  2  0  0  0  0
  1  6  1  0  0  0  0
  2  3  1  0  0  0  0
  3 11  1  6  0  0  0
  3  4  1  0  0  0  0
  4  9  1  1  0  0  0
  5  4  1  0  0  0  0
  5 10  1  0  0  0  0
  6  5  2  0  0  0  0
  7  1  1  0  0  0  0
  8  2  1  0  0  0  0
 11 12  1  0  0  0  0
 13  6  1  0  0  0  0
 14 15  1  0  0  0  0
 14 16  1  0  0  0  0
 14 13  1  0  0  0  0
 17 14  1  0  0  0  0
 18 19  2  0  0  0  0
 19 20  1  0  0  0  0
 20  4  1  0  0  0  0
 21 19  1  0  0  0  0
M  RAD  3   3   2  11   2  12   3
M  END
