Coordinates from ORCA-job p-CH3O-Ph-N2-OOCH-B3LYPG-aug-cc-pVDZ-scan-d09-49-n400
 OpenBabel11081710393D

 21 21  0  0  1  0  0  0  0  0999 V2000
   11.6315    7.7782   -1.3403 C   0  0  0  0  0  0  0  0  0  0  0  0
   10.4248    7.0919   -1.0443 C   0  0  0  0  0  0  0  0  0  0  0  0
   10.6656    6.0819   -0.1113 C   0  0  1  0  0  0  0  0  0  0  0  0
   11.1147    4.7764   -0.4482 C   0  0  2  0  0  0  0  0  0  0  0  0
   12.1630    5.9614    0.0369 C   0  0  1  0  0  0  0  0  0  0  0  0
   12.6776    7.0568   -0.7578 C   0  0  0  0  0  0  0  0  0  0  0  0
   11.7256    8.6397   -1.9964 H   0  0  0  0  0  0  0  0  0  0  0  0
    9.5019    7.1934   -1.6127 H   0  0  0  0  0  0  0  0  0  0  0  0
   11.1966    3.9582    0.2671 H   0  0  0  0  0  0  0  0  0  0  0  0
   12.6986    5.6405    0.9277 H   0  0  0  0  0  0  0  0  0  0  0  0
    8.8444    5.7464    1.7904 N   0  0  0  0  0  0  0  0  0  0  0  0
    9.1614    5.9589    2.8282 N   0  0  0  0  0  0  0  0  0  0  0  0
   13.9927    7.3618   -0.6927 O   0  0  0  0  0  0  0  0  0  0  0  0
   14.3898    8.6017   -1.2804 C   0  0  0  0  0  0  0  0  0  0  0  0
   15.4590    8.7069   -1.0746 H   0  0  0  0  0  0  0  0  0  0  0  0
   13.8351    9.4386   -0.8299 H   0  0  0  0  0  0  0  0  0  0  0  0
   14.2217    8.5897   -2.3676 H   0  0  0  0  0  0  0  0  0  0  0  0
   12.0664    2.3549   -1.2762 O   0  0  0  0  0  0  0  0  0  0  0  0
   11.5178    3.0887   -2.0561 C   0  0  0  0  0  0  0  0  0  0  0  0
   11.0060    4.3167   -1.7780 O   0  0  0  0  0  0  0  0  0  0  0  0
   11.3448    2.8680   -3.1230 H   0  0  0  0  0  0  0  0  0  0  0  0
  1  2  1  0  0  0  0
  1  6  2  0  0  0  0
  3  2  1  6  0  0  0
  3  5  1  0  0  0  0
  4  3  1  0  0  0  0
  4  5  1  0  0  0  0
  4  9  1  1  0  0  0
  5 10  1  1  0  0  0
  6 13  1  0  0  0  0
  6  5  1  0  0  0  0
  7  1  1  0  0  0  0
  8  2  1  0  0  0  0
 11 12  3  0  0  0  0
 14 15  1  0  0  0  0
 14 16  1  0  0  0  0
 14 13  1  0  0  0  0
 17 14  1  0  0  0  0
 19 20  1  0  0  0  0
 19 18  2  0  0  0  0
 20  4  1  0  0  0  0
 21 19  1  0  0  0  0
M  RAD  2   2   2   3   2
M  END
