Coordinates from ORCA-job p-CH3O-Ph-N2-OOCH-B3LYPG-aug-cc-pVDZ-scan-d09-49-n400
 OpenBabel11081710393D

 21 21  0  0  1  0  0  0  0  0999 V2000
   11.6490    7.7879   -1.3555 C   0  0  0  0  0  0  0  0  0  0  0  0
   10.4409    7.1063   -1.0556 C   0  0  0  0  0  0  0  0  0  0  0  0
   10.6796    6.1003   -0.1174 C   0  0  1  0  0  0  0  0  0  0  0  0
   11.1236    4.7914   -0.4505 C   0  0  2  0  0  0  0  0  0  0  0  0
   12.1766    5.9764    0.0303 C   0  0  1  0  0  0  0  0  0  0  0  0
   12.6935    7.0659   -0.7702 C   0  0  0  0  0  0  0  0  0  0  0  0
   11.7454    8.6456   -2.0162 H   0  0  0  0  0  0  0  0  0  0  0  0
    9.5182    7.2066   -1.6245 H   0  0  0  0  0  0  0  0  0  0  0  0
   11.2048    3.9752    0.2670 H   0  0  0  0  0  0  0  0  0  0  0  0
   12.7120    5.6568    0.9216 H   0  0  0  0  0  0  0  0  0  0  0  0
    8.7143    5.6586    1.8915 N   0  0  0  0  0  0  0  0  0  0  0  0
    9.0396    5.8780    2.9247 N   0  0  0  0  0  0  0  0  0  0  0  0
   14.0098    7.3666   -0.7096 O   0  0  0  0  0  0  0  0  0  0  0  0
   14.4100    8.6021   -1.3044 C   0  0  0  0  0  0  0  0  0  0  0  0
   15.4800    8.7047   -1.1011 H   0  0  0  0  0  0  0  0  0  0  0  0
   13.8591    9.4432   -0.8574 H   0  0  0  0  0  0  0  0  0  0  0  0
   14.2400    8.5851   -2.3912 H   0  0  0  0  0  0  0  0  0  0  0  0
   12.0630    2.3619   -1.2701 O   0  0  0  0  0  0  0  0  0  0  0  0
   11.5194    3.0964   -2.0527 C   0  0  0  0  0  0  0  0  0  0  0  0
   11.0143    4.3282   -1.7788 O   0  0  0  0  0  0  0  0  0  0  0  0
   11.3458    2.8735   -3.1190 H   0  0  0  0  0  0  0  0  0  0  0  0
  1  2  1  0  0  0  0
  1  6  2  0  0  0  0
  3  2  1  6  0  0  0
  3  5  1  0  0  0  0
  4  3  1  0  0  0  0
  4  5  1  0  0  0  0
  4  9  1  1  0  0  0
  5 10  1  1  0  0  0
  6 13  1  0  0  0  0
  6  5  1  0  0  0  0
  7  1  1  0  0  0  0
  8  2  1  0  0  0  0
 11 12  3  0  0  0  0
 14 15  1  0  0  0  0
 14 16  1  0  0  0  0
 14 13  1  0  0  0  0
 17 14  1  0  0  0  0
 19 20  1  0  0  0  0
 19 18  2  0  0  0  0
 20  4  1  0  0  0  0
 21 19  1  0  0  0  0
M  RAD  2   2   2   3   2
M  END
