Coordinates from ORCA-job p-CH3O-Ph-N2-OOCH-B3LYPG-aug-cc-pVDZ-scan-d09-49-n400
 OpenBabel11081710393D

 21 21  0  0  1  0  0  0  0  0999 V2000
   11.6112    7.7650   -1.3225 C   0  0  0  0  0  0  0  0  0  0  0  0
   10.4059    7.0762   -1.0268 C   0  0  0  0  0  0  0  0  0  0  0  0
   10.6481    6.0628   -0.0972 C   0  0  1  0  0  0  0  0  0  0  0  0
   11.1073    4.7618   -0.4421 C   0  0  2  0  0  0  0  0  0  0  0  0
   12.1473    5.9431    0.0470 C   0  0  1  0  0  0  0  0  0  0  0  0
   12.6593    7.0443   -0.7435 C   0  0  0  0  0  0  0  0  0  0  0  0
   11.7027    8.6292   -1.9755 H   0  0  0  0  0  0  0  0  0  0  0  0
    9.4810    7.1809   -1.5915 H   0  0  0  0  0  0  0  0  0  0  0  0
   11.1877    3.9391    0.2684 H   0  0  0  0  0  0  0  0  0  0  0  0
   12.6840    5.6230    0.9375 H   0  0  0  0  0  0  0  0  0  0  0  0
    8.9836    5.8269    1.6766 N   0  0  0  0  0  0  0  0  0  0  0  0
    9.2880    6.0632    2.7156 N   0  0  0  0  0  0  0  0  0  0  0  0
   13.9730    7.3529   -0.6752 O   0  0  0  0  0  0  0  0  0  0  0  0
   14.3674    8.5964   -1.2574 C   0  0  0  0  0  0  0  0  0  0  0  0
   15.4361    8.7038   -1.0498 H   0  0  0  0  0  0  0  0  0  0  0  0
   13.8097    9.4297   -0.8041 H   0  0  0  0  0  0  0  0  0  0  0  0
   14.2006    8.5882   -2.3448 H   0  0  0  0  0  0  0  0  0  0  0  0
   12.0803    2.3557   -1.2879 O   0  0  0  0  0  0  0  0  0  0  0  0
   11.5180    3.0866   -2.0609 C   0  0  0  0  0  0  0  0  0  0  0  0
   10.9977    4.3088   -1.7749 O   0  0  0  0  0  0  0  0  0  0  0  0
   11.3499    2.8732   -3.1300 H   0  0  0  0  0  0  0  0  0  0  0  0
  1  2  1  0  0  0  0
  1  6  2  0  0  0  0
  3  2  1  6  0  0  0
  3  5  1  0  0  0  0
  4  3  1  0  0  0  0
  4  5  1  0  0  0  0
  4  9  1  1  0  0  0
  5 10  1  1  0  0  0
  6 13  1  0  0  0  0
  6  5  1  0  0  0  0
  7  1  1  0  0  0  0
  8  2  1  0  0  0  0
 11 12  3  0  0  0  0
 14 15  1  0  0  0  0
 14 16  1  0  0  0  0
 14 13  1  0  0  0  0
 17 14  1  0  0  0  0
 19 20  1  0  0  0  0
 19 18  2  0  0  0  0
 20  4  1  0  0  0  0
 21 19  1  0  0  0  0
M  RAD  2   2   2   3   2
M  END
