Coordinates from ORCA-job p-CH3O-Ph-N2-OOCH-B3LYPG-aug-cc-pVDZ-scan-d09-49-n400
 OpenBabel11081710393D

 21 20  0  0  1  0  0  0  0  0999 V2000
   11.7951    7.5406   -1.1006 C   0  0  0  0  0  0  0  0  0  0  0  0
   10.5321    7.1068   -0.7809 C   0  0  0  0  0  0  0  0  0  0  0  0
   10.4853    6.1363    0.2348 C   0  0  0  0  0  0  0  0  0  0  0  0
   11.3794    5.0130    0.3821 C   0  0  2  0  0  0  0  0  0  0  0  0
   12.7001    5.6822    0.2447 C   0  0  0  0  0  0  0  0  0  0  0  0
   12.8953    6.8100   -0.5217 C   0  0  0  0  0  0  0  0  0  0  0  0
   11.9355    8.3965   -1.7518 H   0  0  0  0  0  0  0  0  0  0  0  0
    9.6352    7.5743   -1.1786 H   0  0  0  0  0  0  0  0  0  0  0  0
   11.2716    4.4517    1.3115 H   0  0  0  0  0  0  0  0  0  0  0  0
   13.5611    5.1766    0.6779 H   0  0  0  0  0  0  0  0  0  0  0  0
    8.6906    5.4495    0.2942 N   0  0  0  0  0  0  0  0  0  0  0  0
    7.6887    5.1881    0.6899 N   0  0  0  0  0  0  0  0  0  0  0  0
   14.1891    7.2050   -0.6753 O   0  0  0  0  0  0  0  0  0  0  0  0
   14.4745    8.3650   -1.4558 C   0  0  0  0  0  0  0  0  0  0  0  0
   15.5616    8.4831   -1.4160 H   0  0  0  0  0  0  0  0  0  0  0  0
   13.9942    9.2594   -1.0322 H   0  0  0  0  0  0  0  0  0  0  0  0
   14.1609    8.2298   -2.5009 H   0  0  0  0  0  0  0  0  0  0  0  0
   11.1602    4.8133   -2.5773 O   0  0  0  0  0  0  0  0  0  0  0  0
   11.1732    3.8126   -1.8919 C   0  0  0  0  0  0  0  0  0  0  0  0
   11.2238    3.7255   -0.5673 O   0  0  0  0  0  0  0  0  0  0  0  0
   11.1312    2.7914   -2.3237 H   0  0  0  0  0  0  0  0  0  0  0  0
  1  2  2  0  0  0  0
  1  6  1  0  0  0  0
  2  3  1  0  0  0  0
  3  4  1  0  0  0  0
  4  9  1  1  0  0  0
  5  4  1  0  0  0  0
  5 10  1  0  0  0  0
  6  5  2  0  0  0  0
  7  1  1  0  0  0  0
  8  2  1  0  0  0  0
 11 12  3  0  0  0  0
 13  6  1  0  0  0  0
 14 15  1  0  0  0  0
 14 16  1  0  0  0  0
 14 13  1  0  0  0  0
 17 14  1  0  0  0  0
 18 19  2  0  0  0  0
 19 20  1  0  0  0  0
 20  4  1  0  0  0  0
 21 19  1  0  0  0  0
M  RAD  1   3   3
M  END
