Coordinates from ORCA-job p-CH3O-Ph-N2-OOCH-B3LYPG-aug-cc-pVDZ-scan-d09-49-n400
 OpenBabel11081710393D

 21 21  0  0  1  0  0  0  0  0999 V2000
   11.7535    7.5334   -1.0945 C   0  0  0  0  0  0  0  0  0  0  0  0
   10.4855    7.1470   -0.8331 C   0  0  0  0  0  0  0  0  0  0  0  0
   10.2027    5.9410   -0.0575 C   0  0  0  0  0  0  0  0  0  0  0  0
   11.3463    4.9790    0.2724 C   0  0  2  0  0  0  0  0  0  0  0  0
   12.6869    5.5804    0.0652 C   0  0  0  0  0  0  0  0  0  0  0  0
   12.8756    6.7497   -0.5955 C   0  0  0  0  0  0  0  0  0  0  0  0
   11.9226    8.4293   -1.6843 H   0  0  0  0  0  0  0  0  0  0  0  0
    9.6319    7.7196   -1.1949 H   0  0  0  0  0  0  0  0  0  0  0  0
   11.2247    4.6118    1.2988 H   0  0  0  0  0  0  0  0  0  0  0  0
   13.5463    5.0354    0.4519 H   0  0  0  0  0  0  0  0  0  0  0  0
    9.1486    5.6846    0.2947 N   0  0  0  0  0  0  0  0  0  0  0  0
    8.0889    5.4060    0.6589 N   0  0  0  0  0  0  0  0  0  0  0  0
   14.1651    7.1689   -0.7595 O   0  0  0  0  0  0  0  0  0  0  0  0
   14.4258    8.4406   -1.3514 C   0  0  0  0  0  0  0  0  0  0  0  0
   15.5130    8.5593   -1.3158 H   0  0  0  0  0  0  0  0  0  0  0  0
   13.9534    9.2554   -0.7829 H   0  0  0  0  0  0  0  0  0  0  0  0
   14.0945    8.4732   -2.3998 H   0  0  0  0  0  0  0  0  0  0  0  0
   11.1373    4.5938   -2.5384 O   0  0  0  0  0  0  0  0  0  0  0  0
   11.1446    3.6444   -1.7932 C   0  0  0  0  0  0  0  0  0  0  0  0
   11.1942    3.6664   -0.4514 O   0  0  0  0  0  0  0  0  0  0  0  0
   11.0972    2.5916   -2.1289 H   0  0  0  0  0  0  0  0  0  0  0  0
  1  2  1  0  0  0  0
  1  6  2  0  0  0  0
  2  3  2  0  0  0  0
  3  4  1  0  0  0  0
  3 11  1  0  0  0  0
  4  9  1  1  0  0  0
  5  4  1  0  0  0  0
  5 10  1  0  0  0  0
  6  5  1  0  0  0  0
  7  1  1  0  0  0  0
  8  2  1  0  0  0  0
 11 12  1  0  0  0  0
 13  6  1  0  0  0  0
 14 15  1  0  0  0  0
 14 16  1  0  0  0  0
 14 13  1  0  0  0  0
 17 14  1  0  0  0  0
 18 19  2  0  0  0  0
 19 20  1  0  0  0  0
 20  4  1  0  0  0  0
 21 19  1  0  0  0  0
M  RAD  3   5   2  11   2  12   3
M  END
