Coordinates from ORCA-job p-CH3O-Ph-N2-OOCH-B3LYPG-aug-cc-pVDZ-scan-d09-49-n400
 OpenBabel11081710393D

 21 21  0  0  1  0  0  0  0  0999 V2000
   11.6840    7.8058   -1.3688 C   0  0  0  0  0  0  0  0  0  0  0  0
   10.4771    7.1290   -1.0520 C   0  0  0  0  0  0  0  0  0  0  0  0
   10.7259    6.1235   -0.1166 C   0  0  1  0  0  0  0  0  0  0  0  0
   11.1576    4.8107   -0.4508 C   0  0  2  0  0  0  0  0  0  0  0  0
   12.2231    5.9946    0.0129 C   0  0  1  0  0  0  0  0  0  0  0  0
   12.7334    7.0801   -0.7970 C   0  0  0  0  0  0  0  0  0  0  0  0
   11.7749    8.6623   -2.0319 H   0  0  0  0  0  0  0  0  0  0  0  0
    9.5481    7.2312   -1.6102 H   0  0  0  0  0  0  0  0  0  0  0  0
   11.2460    3.9965    0.2678 H   0  0  0  0  0  0  0  0  0  0  0  0
   12.7680    5.6750    0.8982 H   0  0  0  0  0  0  0  0  0  0  0  0
    8.4156    5.4697    2.0825 N   0  0  0  0  0  0  0  0  0  0  0  0
    8.7334    5.7954    3.0887 N   0  0  0  0  0  0  0  0  0  0  0  0
   14.0520    7.3743   -0.7572 O   0  0  0  0  0  0  0  0  0  0  0  0
   14.4491    8.6069   -1.3600 C   0  0  0  0  0  0  0  0  0  0  0  0
   15.5225    8.7048   -1.1730 H   0  0  0  0  0  0  0  0  0  0  0  0
   13.9090    9.4514   -0.9061 H   0  0  0  0  0  0  0  0  0  0  0  0
   14.2626    8.5891   -2.4441 H   0  0  0  0  0  0  0  0  0  0  0  0
   12.0704    2.3724   -1.2753 O   0  0  0  0  0  0  0  0  0  0  0  0
   11.5225    3.1088   -2.0531 C   0  0  0  0  0  0  0  0  0  0  0  0
   11.0294    4.3449   -1.7763 O   0  0  0  0  0  0  0  0  0  0  0  0
   11.3344    2.8844   -3.1167 H   0  0  0  0  0  0  0  0  0  0  0  0
  1  2  1  0  0  0  0
  1  6  2  0  0  0  0
  3  2  1  6  0  0  0
  3  5  1  0  0  0  0
  4  3  1  0  0  0  0
  4  5  1  0  0  0  0
  4  9  1  1  0  0  0
  5 10  1  1  0  0  0
  6 13  1  0  0  0  0
  6  5  1  0  0  0  0
  7  1  1  0  0  0  0
  8  2  1  0  0  0  0
 11 12  3  0  0  0  0
 14 15  1  0  0  0  0
 14 16  1  0  0  0  0
 14 13  1  0  0  0  0
 17 14  1  0  0  0  0
 19 20  1  0  0  0  0
 19 18  2  0  0  0  0
 20  4  1  0  0  0  0
 21 19  1  0  0  0  0
M  RAD  2   2   2   3   2
M  END
