Coordinates from ORCA-job p-CH3O-Ph-N2-OOCH-B3LYPG-aug-cc-pVDZ-scan-d09-49-n400
 OpenBabel11081710393D

 21 21  0  0  1  0  0  0  0  0999 V2000
   11.7674    7.8522   -1.3909 C   0  0  0  0  0  0  0  0  0  0  0  0
   10.5644    7.1971   -1.0179 C   0  0  0  0  0  0  0  0  0  0  0  0
   10.8376    6.1978   -0.0840 C   0  0  1  0  0  0  0  0  0  0  0  0
   11.2334    4.8742   -0.4196 C   0  0  2  0  0  0  0  0  0  0  0  0
   12.3355    6.0478   -0.0127 C   0  0  1  0  0  0  0  0  0  0  0  0
   12.8285    7.1164   -0.8546 C   0  0  0  0  0  0  0  0  0  0  0  0
   11.8439    8.7006   -2.0662 H   0  0  0  0  0  0  0  0  0  0  0  0
    9.6139    7.3062   -1.5374 H   0  0  0  0  0  0  0  0  0  0  0  0
   11.3394    4.0668    0.3041 H   0  0  0  0  0  0  0  0  0  0  0  0
   12.9103    5.7287    0.8538 H   0  0  0  0  0  0  0  0  0  0  0  0
    7.6597    5.0292    2.4150 N   0  0  0  0  0  0  0  0  0  0  0  0
    8.1335    5.4651    3.3120 N   0  0  0  0  0  0  0  0  0  0  0  0
   14.1520    7.3902   -0.8731 O   0  0  0  0  0  0  0  0  0  0  0  0
   14.5422    8.6100   -1.5057 C   0  0  0  0  0  0  0  0  0  0  0  0
   15.6238    8.6930   -1.3648 H   0  0  0  0  0  0  0  0  0  0  0  0
   14.0345    9.4676   -1.0392 H   0  0  0  0  0  0  0  0  0  0  0  0
   14.3103    8.5836   -2.5809 H   0  0  0  0  0  0  0  0  0  0  0  0
   12.0805    2.4163   -1.2557 O   0  0  0  0  0  0  0  0  0  0  0  0
   11.5082    3.1511   -2.0172 C   0  0  0  0  0  0  0  0  0  0  0  0
   11.0437    4.3968   -1.7334 O   0  0  0  0  0  0  0  0  0  0  0  0
   11.2759    2.9200   -3.0706 H   0  0  0  0  0  0  0  0  0  0  0  0
  1  2  1  0  0  0  0
  1  6  2  0  0  0  0
  3  2  1  6  0  0  0
  3  5  1  0  0  0  0
  4  3  1  0  0  0  0
  4  5  1  0  0  0  0
  4  9  1  1  0  0  0
  5 10  1  1  0  0  0
  6  5  1  0  0  0  0
  7  1  1  0  0  0  0
  8  2  1  0  0  0  0
 11 12  3  0  0  0  0
 13  6  1  0  0  0  0
 14 15  1  0  0  0  0
 14 16  1  0  0  0  0
 14 13  1  0  0  0  0
 17 14  1  0  0  0  0
 19 20  1  0  0  0  0
 19 18  2  0  0  0  0
 20  4  1  0  0  0  0
 21 19  1  0  0  0  0
M  RAD  2   2   2   3   2
M  END
