Coordinates from ORCA-job p-CH3O-Ph-N2-OOCH-B3LYPG-aug-cc-pVDZ-scan-d09-49-n400
 OpenBabel11081710393D

 21 21  0  0  1  0  0  0  0  0999 V2000
   11.6352    7.7802   -1.3437 C   0  0  0  0  0  0  0  0  0  0  0  0
   10.4282    7.0949   -1.0470 C   0  0  0  0  0  0  0  0  0  0  0  0
   10.6685    6.0858   -0.1128 C   0  0  1  0  0  0  0  0  0  0  0  0
   11.1166    4.7796   -0.4488 C   0  0  2  0  0  0  0  0  0  0  0  0
   12.1659    5.9647    0.0355 C   0  0  1  0  0  0  0  0  0  0  0  0
   12.6810    7.0588   -0.7604 C   0  0  0  0  0  0  0  0  0  0  0  0
   11.7298    8.6410   -2.0008 H   0  0  0  0  0  0  0  0  0  0  0  0
    9.5054    7.1960   -1.6157 H   0  0  0  0  0  0  0  0  0  0  0  0
   11.1983    3.9618    0.2670 H   0  0  0  0  0  0  0  0  0  0  0  0
   12.7014    5.6440    0.9264 H   0  0  0  0  0  0  0  0  0  0  0  0
    8.8171    5.7291    1.8120 N   0  0  0  0  0  0  0  0  0  0  0  0
    9.1358    5.9407    2.8494 N   0  0  0  0  0  0  0  0  0  0  0  0
   13.9963    7.3630   -0.6962 O   0  0  0  0  0  0  0  0  0  0  0  0
   14.3941    8.6020   -1.2853 C   0  0  0  0  0  0  0  0  0  0  0  0
   15.4634    8.7067   -1.0800 H   0  0  0  0  0  0  0  0  0  0  0  0
   13.8401    9.4397   -0.8356 H   0  0  0  0  0  0  0  0  0  0  0  0
   14.2257    8.5889   -2.3725 H   0  0  0  0  0  0  0  0  0  0  0  0
   12.0650    2.3559   -1.2747 O   0  0  0  0  0  0  0  0  0  0  0  0
   11.5181    3.0901   -2.0554 C   0  0  0  0  0  0  0  0  0  0  0  0
   11.0080    4.3191   -1.7783 O   0  0  0  0  0  0  0  0  0  0  0  0
   11.3450    2.8690   -3.1222 H   0  0  0  0  0  0  0  0  0  0  0  0
  1  2  1  0  0  0  0
  1  6  2  0  0  0  0
  3  2  1  6  0  0  0
  3  5  1  0  0  0  0
  4  3  1  0  0  0  0
  4  5  1  0  0  0  0
  4  9  1  1  0  0  0
  5 10  1  1  0  0  0
  6 13  1  0  0  0  0
  6  5  1  0  0  0  0
  7  1  1  0  0  0  0
  8  2  1  0  0  0  0
 11 12  3  0  0  0  0
 14 15  1  0  0  0  0
 14 16  1  0  0  0  0
 14 13  1  0  0  0  0
 17 14  1  0  0  0  0
 19 20  1  0  0  0  0
 19 18  2  0  0  0  0
 20  4  1  0  0  0  0
 21 19  1  0  0  0  0
M  RAD  2   2   2   3   2
M  END
