Coordinates from ORCA-job p-CH3O-Ph-N2-OOCH-B3LYPG-aug-cc-pVDZ-scan-d09-49-n400
 OpenBabel11081710393D

 21 21  0  0  1  0  0  0  0  0999 V2000
   11.7066    7.8168   -1.3709 C   0  0  0  0  0  0  0  0  0  0  0  0
   10.5024    7.1438   -1.0368 C   0  0  0  0  0  0  0  0  0  0  0  0
   10.7614    6.1382   -0.1036 C   0  0  1  0  0  0  0  0  0  0  0  0
   11.1847    4.8237   -0.4437 C   0  0  2  0  0  0  0  0  0  0  0  0
   12.2597    6.0051    0.0052 C   0  0  1  0  0  0  0  0  0  0  0  0
   12.7617    7.0883   -0.8128 C   0  0  0  0  0  0  0  0  0  0  0  0
   11.7909    8.6723   -2.0362 H   0  0  0  0  0  0  0  0  0  0  0  0
    9.5653    7.2473   -1.5811 H   0  0  0  0  0  0  0  0  0  0  0  0
   11.2809    4.0092    0.2735 H   0  0  0  0  0  0  0  0  0  0  0  0
   12.8159    5.6843    0.8831 H   0  0  0  0  0  0  0  0  0  0  0  0
    8.2090    5.3448    2.1817 N   0  0  0  0  0  0  0  0  0  0  0  0
    8.5244    5.7406    3.1633 N   0  0  0  0  0  0  0  0  0  0  0  0
   14.0815    7.3786   -0.7923 O   0  0  0  0  0  0  0  0  0  0  0  0
   14.4738    8.6092   -1.4023 C   0  0  0  0  0  0  0  0  0  0  0  0
   15.5500    8.7040   -1.2307 H   0  0  0  0  0  0  0  0  0  0  0  0
   13.9427    9.4559   -0.9418 H   0  0  0  0  0  0  0  0  0  0  0  0
   14.2718    8.5906   -2.4836 H   0  0  0  0  0  0  0  0  0  0  0  0
   12.0780    2.3824   -1.2803 O   0  0  0  0  0  0  0  0  0  0  0  0
   11.5240    3.1215   -2.0512 C   0  0  0  0  0  0  0  0  0  0  0  0
   11.0372    4.3585   -1.7674 O   0  0  0  0  0  0  0  0  0  0  0  0
   11.3166    2.8959   -3.1109 H   0  0  0  0  0  0  0  0  0  0  0  0
  1  2  1  0  0  0  0
  1  6  2  0  0  0  0
  3  2  1  6  0  0  0
  3  5  1  0  0  0  0
  4  3  1  0  0  0  0
  4  5  1  0  0  0  0
  4  9  1  1  0  0  0
  5 10  1  1  0  0  0
  6 13  1  0  0  0  0
  6  5  1  0  0  0  0
  7  1  1  0  0  0  0
  8  2  1  0  0  0  0
 11 12  3  0  0  0  0
 14 15  1  0  0  0  0
 14 16  1  0  0  0  0
 14 13  1  0  0  0  0
 17 14  1  0  0  0  0
 19 20  1  0  0  0  0
 19 18  2  0  0  0  0
 20  4  1  0  0  0  0
 21 19  1  0  0  0  0
M  RAD  2   2   2   3   2
M  END
