Coordinates from ORCA-job p-CH3O-Ph-N2-OOCH-B3LYPG-aug-cc-pVDZ-scan-d09-49-n400
 OpenBabel11081710393D

 21 21  0  0  1  0  0  0  0  0999 V2000
   11.5932    7.7550   -1.3155 C   0  0  0  0  0  0  0  0  0  0  0  0
   10.3852    7.0731   -1.0177 C   0  0  0  0  0  0  0  0  0  0  0  0
   10.6209    6.0593   -0.0840 C   0  0  1  0  0  0  0  0  0  0  0  0
   11.0928    4.7609   -0.4296 C   0  0  2  0  0  0  0  0  0  0  0  0
   12.1221    5.9349    0.0604 C   0  0  1  0  0  0  0  0  0  0  0  0
   12.6385    7.0358   -0.7308 C   0  0  0  0  0  0  0  0  0  0  0  0
   11.6875    8.6168   -1.9712 H   0  0  0  0  0  0  0  0  0  0  0  0
    9.4584    7.1853   -1.5778 H   0  0  0  0  0  0  0  0  0  0  0  0
   11.1633    3.9368    0.2810 H   0  0  0  0  0  0  0  0  0  0  0  0
   12.6545    5.6221    0.9562 H   0  0  0  0  0  0  0  0  0  0  0  0
    9.1326    5.8840    1.5448 N   0  0  0  0  0  0  0  0  0  0  0  0
    9.4456    6.0735    2.5944 N   0  0  0  0  0  0  0  0  0  0  0  0
   13.9513    7.3445   -0.6542 O   0  0  0  0  0  0  0  0  0  0  0  0
   14.3500    8.5863   -1.2376 C   0  0  0  0  0  0  0  0  0  0  0  0
   15.4173    8.6937   -1.0236 H   0  0  0  0  0  0  0  0  0  0  0  0
   13.7895    9.4209   -0.7901 H   0  0  0  0  0  0  0  0  0  0  0  0
   14.1899    8.5747   -2.3259 H   0  0  0  0  0  0  0  0  0  0  0  0
   12.0921    2.3700   -1.2808 O   0  0  0  0  0  0  0  0  0  0  0  0
   11.5221    3.0959   -2.0529 C   0  0  0  0  0  0  0  0  0  0  0  0
   10.9838    4.3090   -1.7639 O   0  0  0  0  0  0  0  0  0  0  0  0
   11.3482    2.8779   -3.1203 H   0  0  0  0  0  0  0  0  0  0  0  0
  1  2  1  0  0  0  0
  1  6  2  0  0  0  0
  3  2  1  6  0  0  0
  3  5  1  0  0  0  0
  4  3  1  0  0  0  0
  4  5  1  0  0  0  0
  4  9  1  1  0  0  0
  5 10  1  1  0  0  0
  6 13  1  0  0  0  0
  6  5  1  0  0  0  0
  7  1  1  0  0  0  0
  8  2  1  0  0  0  0
 11 12  3  0  0  0  0
 14 15  1  0  0  0  0
 14 16  1  0  0  0  0
 14 13  1  0  0  0  0
 17 14  1  0  0  0  0
 19 20  1  0  0  0  0
 19 18  2  0  0  0  0
 20  4  1  0  0  0  0
 21 19  1  0  0  0  0
M  RAD  2   2   2   3   2
M  END
