Coordinates from ORCA-job p-CH3O-Ph-N2-OOCH-B3LYPG-aug-cc-pVDZ-scan-d09-49-n400
 OpenBabel11081710393D

 21 21  0  0  1  0  0  0  0  0999 V2000
   11.7578    7.8461   -1.3877 C   0  0  0  0  0  0  0  0  0  0  0  0
   10.5549    7.1877   -1.0208 C   0  0  0  0  0  0  0  0  0  0  0  0
   10.8261    6.1875   -0.0869 C   0  0  1  0  0  0  0  0  0  0  0  0
   11.2264    4.8657   -0.4241 C   0  0  2  0  0  0  0  0  0  0  0  0
   12.3242    6.0408   -0.0099 C   0  0  1  0  0  0  0  0  0  0  0  0
   12.8184    7.1119   -0.8478 C   0  0  0  0  0  0  0  0  0  0  0  0
   11.8353    8.6957   -2.0614 H   0  0  0  0  0  0  0  0  0  0  0  0
    9.6064    7.2957   -1.5442 H   0  0  0  0  0  0  0  0  0  0  0  0
   11.3317    4.0570    0.2982 H   0  0  0  0  0  0  0  0  0  0  0  0
   12.8963    5.7210    0.8581 H   0  0  0  0  0  0  0  0  0  0  0  0
    7.7465    5.0796    2.3793 N   0  0  0  0  0  0  0  0  0  0  0  0
    8.1890    5.5126    3.2936 N   0  0  0  0  0  0  0  0  0  0  0  0
   14.1413    7.3888   -0.8602 O   0  0  0  0  0  0  0  0  0  0  0  0
   14.5314    8.6103   -1.4894 C   0  0  0  0  0  0  0  0  0  0  0  0
   15.6123    8.6956   -1.3436 H   0  0  0  0  0  0  0  0  0  0  0  0
   14.0198    9.4661   -1.0237 H   0  0  0  0  0  0  0  0  0  0  0  0
   14.3042    8.5851   -2.5655 H   0  0  0  0  0  0  0  0  0  0  0  0
   12.0805    2.4105   -1.2612 O   0  0  0  0  0  0  0  0  0  0  0  0
   11.5114    3.1464   -2.0241 C   0  0  0  0  0  0  0  0  0  0  0  0
   11.0432    4.3906   -1.7396 O   0  0  0  0  0  0  0  0  0  0  0  0
   11.2816    2.9160   -3.0781 H   0  0  0  0  0  0  0  0  0  0  0  0
  1  2  1  0  0  0  0
  1  6  2  0  0  0  0
  3  2  1  6  0  0  0
  3  5  1  0  0  0  0
  4  3  1  0  0  0  0
  4  5  1  0  0  0  0
  4  9  1  1  0  0  0
  5 10  1  1  0  0  0
  6  5  1  0  0  0  0
  7  1  1  0  0  0  0
  8  2  1  0  0  0  0
 11 12  3  0  0  0  0
 13  6  1  0  0  0  0
 14 15  1  0  0  0  0
 14 16  1  0  0  0  0
 14 13  1  0  0  0  0
 17 14  1  0  0  0  0
 19 20  1  0  0  0  0
 19 18  2  0  0  0  0
 20  4  1  0  0  0  0
 21 19  1  0  0  0  0
M  RAD  2   2   2   3   2
M  END
