Coordinates from ORCA-job p-CH3O-Ph-N2-OOCH-B3LYPG-aug-cc-pVDZ-scan-d09-49-n400
 OpenBabel11081710393D

 21 21  0  0  1  0  0  0  0  0999 V2000
   11.7696    7.5595   -1.0905 C   0  0  0  0  0  0  0  0  0  0  0  0
   10.4925    7.1727   -0.7880 C   0  0  0  0  0  0  0  0  0  0  0  0
   10.3278    5.9917   -0.0361 C   0  0  2  0  0  0  0  0  0  0  0  0
   11.3527    4.9937    0.2993 C   0  0  2  0  0  0  0  0  0  0  0  0
   12.6857    5.6114    0.1123 C   0  0  0  0  0  0  0  0  0  0  0  0
   12.8734    6.7703   -0.5888 C   0  0  0  0  0  0  0  0  0  0  0  0
   11.9331    8.4491   -1.6891 H   0  0  0  0  0  0  0  0  0  0  0  0
    9.6278    7.7459   -1.1159 H   0  0  0  0  0  0  0  0  0  0  0  0
   11.2269    4.5514    1.2927 H   0  0  0  0  0  0  0  0  0  0  0  0
   13.5490    5.0885    0.5190 H   0  0  0  0  0  0  0  0  0  0  0  0
    8.8780    5.6322    0.3840 N   0  0  0  0  0  0  0  0  0  0  0  0
    7.8363    5.3405    0.6961 N   0  0  0  0  0  0  0  0  0  0  0  0
   14.1712    7.1669   -0.7577 O   0  0  0  0  0  0  0  0  0  0  0  0
   14.4455    8.4093   -1.3994 C   0  0  0  0  0  0  0  0  0  0  0  0
   15.5347    8.5144   -1.3782 H   0  0  0  0  0  0  0  0  0  0  0  0
   13.9887    9.2522   -0.8593 H   0  0  0  0  0  0  0  0  0  0  0  0
   14.1035    8.4064   -2.4451 H   0  0  0  0  0  0  0  0  0  0  0  0
   11.2651    4.6223   -2.5662 O   0  0  0  0  0  0  0  0  0  0  0  0
   11.2122    3.6618   -1.8319 C   0  0  0  0  0  0  0  0  0  0  0  0
   11.2038    3.6533   -0.4965 O   0  0  0  0  0  0  0  0  0  0  0  0
   11.1614    2.6173   -2.1999 H   0  0  0  0  0  0  0  0  0  0  0  0
  1  2  2  0  0  0  0
  1  6  1  0  0  0  0
  2  3  1  0  0  0  0
  3  4  1  0  0  0  0
  3 11  1  6  0  0  0
  4  9  1  1  0  0  0
  5  4  1  0  0  0  0
  5 10  1  0  0  0  0
  6  5  2  0  0  0  0
  7  1  1  0  0  0  0
  8  2  1  0  0  0  0
 11 12  1  0  0  0  0
 13  6  1  0  0  0  0
 14 15  1  0  0  0  0
 14 16  1  0  0  0  0
 14 13  1  0  0  0  0
 17 14  1  0  0  0  0
 18 19  2  0  0  0  0
 19 20  1  0  0  0  0
 20  4  1  0  0  0  0
 21 19  1  0  0  0  0
M  RAD  3   3   2  11   2  12   3
M  END
