Coordinates from ORCA-job p-CH3O-Ph-N2-OOCH-B3LYPG-aug-cc-pVDZ-scan-d09-49-n400
 OpenBabel11081710393D

 21 21  0  0  1  0  0  0  0  0999 V2000
   11.5947    7.7560   -1.3159 C   0  0  0  0  0  0  0  0  0  0  0  0
   10.3870    7.0733   -1.0186 C   0  0  0  0  0  0  0  0  0  0  0  0
   10.6232    6.0594   -0.0854 C   0  0  1  0  0  0  0  0  0  0  0  0
   11.0941    4.7609   -0.4309 C   0  0  2  0  0  0  0  0  0  0  0  0
   12.1243    5.9354    0.0589 C   0  0  1  0  0  0  0  0  0  0  0  0
   12.6403    7.0365   -0.7321 C   0  0  0  0  0  0  0  0  0  0  0  0
   11.6887    8.6182   -1.9712 H   0  0  0  0  0  0  0  0  0  0  0  0
    9.4604    7.1848   -1.5792 H   0  0  0  0  0  0  0  0  0  0  0  0
   11.1655    3.9369    0.2797 H   0  0  0  0  0  0  0  0  0  0  0  0
   12.6571    5.6220    0.9543 H   0  0  0  0  0  0  0  0  0  0  0  0
    9.1202    5.8800    1.5567 N   0  0  0  0  0  0  0  0  0  0  0  0
    9.4314    6.0733    2.6056 N   0  0  0  0  0  0  0  0  0  0  0  0
   13.9531    7.3452   -0.6561 O   0  0  0  0  0  0  0  0  0  0  0  0
   14.3514    8.5873   -1.2392 C   0  0  0  0  0  0  0  0  0  0  0  0
   15.4188    8.6946   -1.0257 H   0  0  0  0  0  0  0  0  0  0  0  0
   13.7912    9.4216   -0.7910 H   0  0  0  0  0  0  0  0  0  0  0  0
   14.1907    8.5762   -2.3274 H   0  0  0  0  0  0  0  0  0  0  0  0
   12.0911    2.3686   -1.2814 O   0  0  0  0  0  0  0  0  0  0  0  0
   11.5221    3.0950   -2.0538 C   0  0  0  0  0  0  0  0  0  0  0  0
   10.9851    4.3088   -1.7651 O   0  0  0  0  0  0  0  0  0  0  0  0
   11.3481    2.8770   -3.1211 H   0  0  0  0  0  0  0  0  0  0  0  0
  1  2  1  0  0  0  0
  1  6  2  0  0  0  0
  3  2  1  6  0  0  0
  3  5  1  0  0  0  0
  4  3  1  0  0  0  0
  4  5  1  0  0  0  0
  4  9  1  1  0  0  0
  5 10  1  1  0  0  0
  6 13  1  0  0  0  0
  6  5  1  0  0  0  0
  7  1  1  0  0  0  0
  8  2  1  0  0  0  0
 11 12  3  0  0  0  0
 14 15  1  0  0  0  0
 14 16  1  0  0  0  0
 14 13  1  0  0  0  0
 17 14  1  0  0  0  0
 19 20  1  0  0  0  0
 19 18  2  0  0  0  0
 20  4  1  0  0  0  0
 21 19  1  0  0  0  0
M  RAD  2   2   2   3   2
M  END
