Coordinates from ORCA-job p-CH3O-Ph-N2-OOCH-B3LYPG-aug-cc-pVDZ-scan-d09-49-n400
 OpenBabel11081710393D

 21 21  0  0  1  0  0  0  0  0999 V2000
   11.5988    7.7584   -1.3168 C   0  0  0  0  0  0  0  0  0  0  0  0
   10.3919    7.0736   -1.0201 C   0  0  0  0  0  0  0  0  0  0  0  0
   10.6301    6.0596   -0.0885 C   0  0  1  0  0  0  0  0  0  0  0  0
   11.0978    4.7605   -0.4339 C   0  0  2  0  0  0  0  0  0  0  0  0
   12.1307    5.9368    0.0555 C   0  0  1  0  0  0  0  0  0  0  0  0
   12.6452    7.0384   -0.7351 C   0  0  0  0  0  0  0  0  0  0  0  0
   11.6917    8.6216   -1.9711 H   0  0  0  0  0  0  0  0  0  0  0  0
    9.4657    7.1831   -1.5819 H   0  0  0  0  0  0  0  0  0  0  0  0
   11.1718    3.9368    0.2765 H   0  0  0  0  0  0  0  0  0  0  0  0
   12.6649    5.6215    0.9493 H   0  0  0  0  0  0  0  0  0  0  0  0
    9.0888    5.8672    1.5853 N   0  0  0  0  0  0  0  0  0  0  0  0
    9.3931    6.0748    2.6324 N   0  0  0  0  0  0  0  0  0  0  0  0
   13.9583    7.3472   -0.6613 O   0  0  0  0  0  0  0  0  0  0  0  0
   14.3551    8.5902   -1.2433 C   0  0  0  0  0  0  0  0  0  0  0  0
   15.4229    8.6976   -1.0317 H   0  0  0  0  0  0  0  0  0  0  0  0
   13.7955    9.4238   -0.7930 H   0  0  0  0  0  0  0  0  0  0  0  0
   14.1925    8.5807   -2.3313 H   0  0  0  0  0  0  0  0  0  0  0  0
   12.0873    2.3640   -1.2831 O   0  0  0  0  0  0  0  0  0  0  0  0
   11.5213    3.0923   -2.0559 C   0  0  0  0  0  0  0  0  0  0  0  0
   10.9884    4.3082   -1.7678 O   0  0  0  0  0  0  0  0  0  0  0  0
   11.3469    2.8747   -3.1232 H   0  0  0  0  0  0  0  0  0  0  0  0
  1  2  1  0  0  0  0
  1  6  2  0  0  0  0
  3  2  1  6  0  0  0
  3  5  1  0  0  0  0
  4  3  1  0  0  0  0
  4  5  1  0  0  0  0
  4  9  1  1  0  0  0
  5 10  1  1  0  0  0
  6 13  1  0  0  0  0
  6  5  1  0  0  0  0
  7  1  1  0  0  0  0
  8  2  1  0  0  0  0
 11 12  3  0  0  0  0
 14 15  1  0  0  0  0
 14 16  1  0  0  0  0
 14 13  1  0  0  0  0
 17 14  1  0  0  0  0
 19 20  1  0  0  0  0
 19 18  2  0  0  0  0
 20  4  1  0  0  0  0
 21 19  1  0  0  0  0
M  RAD  2   2   2   3   2
M  END
