Coordinates from ORCA-job p-CH3O-Ph-N2-OOCH-B3LYPG-aug-cc-pVDZ-scan-d09-49-n400
 OpenBabel11081710393D

 21 21  0  0  1  0  0  0  0  0999 V2000
   11.6407    7.7834   -1.3485 C   0  0  0  0  0  0  0  0  0  0  0  0
   10.4333    7.0994   -1.0507 C   0  0  0  0  0  0  0  0  0  0  0  0
   10.6730    6.0915   -0.1151 C   0  0  1  0  0  0  0  0  0  0  0  0
   11.1191    4.7842   -0.4496 C   0  0  2  0  0  0  0  0  0  0  0  0
   12.1701    5.9694    0.0332 C   0  0  1  0  0  0  0  0  0  0  0  0
   12.6860    7.0618   -0.7644 C   0  0  0  0  0  0  0  0  0  0  0  0
   11.7360    8.6430   -2.0070 H   0  0  0  0  0  0  0  0  0  0  0  0
    9.5107    7.2001   -1.6197 H   0  0  0  0  0  0  0  0  0  0  0  0
   11.2007    3.9672    0.2670 H   0  0  0  0  0  0  0  0  0  0  0  0
   12.7055    5.6492    0.9242 H   0  0  0  0  0  0  0  0  0  0  0  0
    8.7762    5.7019    1.8440 N   0  0  0  0  0  0  0  0  0  0  0  0
    9.0981    5.9148    2.8799 N   0  0  0  0  0  0  0  0  0  0  0  0
   14.0017    7.3646   -0.7015 O   0  0  0  0  0  0  0  0  0  0  0  0
   14.4004    8.6022   -1.2927 C   0  0  0  0  0  0  0  0  0  0  0  0
   15.4700    8.7061   -1.0881 H   0  0  0  0  0  0  0  0  0  0  0  0
   13.8476    9.4412   -0.8440 H   0  0  0  0  0  0  0  0  0  0  0  0
   14.2315    8.5877   -2.3798 H   0  0  0  0  0  0  0  0  0  0  0  0
   12.0638    2.3579   -1.2726 O   0  0  0  0  0  0  0  0  0  0  0  0
   11.5184    3.0923   -2.0542 C   0  0  0  0  0  0  0  0  0  0  0  0
   11.0104    4.3225   -1.7786 O   0  0  0  0  0  0  0  0  0  0  0  0
   11.3454    2.8703   -3.1208 H   0  0  0  0  0  0  0  0  0  0  0  0
  1  2  1  0  0  0  0
  1  6  2  0  0  0  0
  3  2  1  6  0  0  0
  3  5  1  0  0  0  0
  4  3  1  0  0  0  0
  4  5  1  0  0  0  0
  4  9  1  1  0  0  0
  5 10  1  1  0  0  0
  6 13  1  0  0  0  0
  6  5  1  0  0  0  0
  7  1  1  0  0  0  0
  8  2  1  0  0  0  0
 11 12  3  0  0  0  0
 14 15  1  0  0  0  0
 14 16  1  0  0  0  0
 14 13  1  0  0  0  0
 17 14  1  0  0  0  0
 19 20  1  0  0  0  0
 19 18  2  0  0  0  0
 20  4  1  0  0  0  0
 21 19  1  0  0  0  0
M  RAD  2   2   2   3   2
M  END
