Coordinates from ORCA-job p-CH3O-Ph-N2-OOCH-B3LYPG-aug-cc-pVDZ-scan-d09-49-n400
 OpenBabel11081710393D

 21 21  0  0  1  0  0  0  0  0999 V2000
   11.6020    7.7602   -1.3175 C   0  0  0  0  0  0  0  0  0  0  0  0
   10.3958    7.0739   -1.0208 C   0  0  0  0  0  0  0  0  0  0  0  0
   10.6357    6.0598   -0.0903 C   0  0  1  0  0  0  0  0  0  0  0  0
   11.1009    4.7603   -0.4360 C   0  0  2  0  0  0  0  0  0  0  0  0
   12.1360    5.9378    0.0529 C   0  0  1  0  0  0  0  0  0  0  0  0
   12.6493    7.0398   -0.7374 C   0  0  0  0  0  0  0  0  0  0  0  0
   11.6942    8.6239   -1.9710 H   0  0  0  0  0  0  0  0  0  0  0  0
    9.4698    7.1820   -1.5831 H   0  0  0  0  0  0  0  0  0  0  0  0
   11.1771    3.9367    0.2742 H   0  0  0  0  0  0  0  0  0  0  0  0
   12.6715    5.6211    0.9454 H   0  0  0  0  0  0  0  0  0  0  0  0
    9.0629    5.8559    1.6078 N   0  0  0  0  0  0  0  0  0  0  0  0
    9.3604    6.0763    2.6535 N   0  0  0  0  0  0  0  0  0  0  0  0
   13.9626    7.3487   -0.6656 O   0  0  0  0  0  0  0  0  0  0  0  0
   14.3582    8.5923   -1.2471 C   0  0  0  0  0  0  0  0  0  0  0  0
   15.4263    8.6997   -1.0370 H   0  0  0  0  0  0  0  0  0  0  0  0
   13.7992    9.4254   -0.7952 H   0  0  0  0  0  0  0  0  0  0  0  0
   14.1939    8.5838   -2.3348 H   0  0  0  0  0  0  0  0  0  0  0  0
   12.0850    2.3611   -1.2849 O   0  0  0  0  0  0  0  0  0  0  0  0
   11.5208    3.0907   -2.0577 C   0  0  0  0  0  0  0  0  0  0  0  0
   10.9910    4.3081   -1.7697 O   0  0  0  0  0  0  0  0  0  0  0  0
   11.3460    2.8735   -3.1250 H   0  0  0  0  0  0  0  0  0  0  0  0
  1  2  1  0  0  0  0
  1  6  2  0  0  0  0
  3  2  1  6  0  0  0
  3  5  1  0  0  0  0
  4  3  1  0  0  0  0
  4  5  1  0  0  0  0
  4  9  1  1  0  0  0
  5 10  1  1  0  0  0
  6 13  1  0  0  0  0
  6  5  1  0  0  0  0
  7  1  1  0  0  0  0
  8  2  1  0  0  0  0
 11 12  3  0  0  0  0
 14 15  1  0  0  0  0
 14 16  1  0  0  0  0
 14 13  1  0  0  0  0
 17 14  1  0  0  0  0
 19 20  1  0  0  0  0
 19 18  2  0  0  0  0
 20  4  1  0  0  0  0
 21 19  1  0  0  0  0
M  RAD  2   2   2   3   2
M  END
