Coordinates from ORCA-job p-CH3O-Ph-N2-OOCH-B3LYPG-aug-cc-pVDZ-scan-d09-49-n400
 OpenBabel11081710393D

 21 21  0  0  1  0  0  0  0  0999 V2000
   11.7834    7.5692   -1.0738 C   0  0  0  0  0  0  0  0  0  0  0  0
   10.5067    7.1724   -0.7527 C   0  0  0  0  0  0  0  0  0  0  0  0
   10.4049    6.0596    0.0896 C   0  0  2  0  0  0  0  0  0  0  0  0
   11.3742    5.0223    0.3660 C   0  0  2  0  0  0  0  0  0  0  0  0
   12.6958    5.6491    0.1779 C   0  0  0  0  0  0  0  0  0  0  0  0
   12.8823    6.7960   -0.5571 C   0  0  0  0  0  0  0  0  0  0  0  0
   11.9340    8.4446   -1.6959 H   0  0  0  0  0  0  0  0  0  0  0  0
    9.6285    7.7098   -1.1009 H   0  0  0  0  0  0  0  0  0  0  0  0
   11.2577    4.5063    1.3213 H   0  0  0  0  0  0  0  0  0  0  0  0
   13.5634    5.1313    0.5819 H   0  0  0  0  0  0  0  0  0  0  0  0
    8.8193    5.5533    0.3311 N   0  0  0  0  0  0  0  0  0  0  0  0
    7.7794    5.2080    0.5446 N   0  0  0  0  0  0  0  0  0  0  0  0
   14.1813    7.1785   -0.7365 O   0  0  0  0  0  0  0  0  0  0  0  0
   14.4593    8.3869   -1.4390 C   0  0  0  0  0  0  0  0  0  0  0  0
   15.5489    8.4881   -1.4273 H   0  0  0  0  0  0  0  0  0  0  0  0
   14.0073    9.2563   -0.9381 H   0  0  0  0  0  0  0  0  0  0  0  0
   14.1116    8.3338   -2.4813 H   0  0  0  0  0  0  0  0  0  0  0  0
   11.1952    4.6948   -2.5490 O   0  0  0  0  0  0  0  0  0  0  0  0
   11.1787    3.7104   -1.8390 C   0  0  0  0  0  0  0  0  0  0  0  0
   11.2035    3.6604   -0.5127 O   0  0  0  0  0  0  0  0  0  0  0  0
   11.1232    2.6798   -2.2483 H   0  0  0  0  0  0  0  0  0  0  0  0
  1  2  2  0  0  0  0
  1  6  1  0  0  0  0
  2  3  1  0  0  0  0
  3 11  1  6  0  0  0
  3  4  1  0  0  0  0
  4  9  1  1  0  0  0
  5  4  1  0  0  0  0
  5 10  1  0  0  0  0
  6  5  2  0  0  0  0
  7  1  1  0  0  0  0
  8  2  1  0  0  0  0
 11 12  1  0  0  0  0
 13  6  1  0  0  0  0
 14 15  1  0  0  0  0
 14 16  1  0  0  0  0
 14 13  1  0  0  0  0
 17 14  1  0  0  0  0
 18 19  2  0  0  0  0
 19 20  1  0  0  0  0
 20  4  1  0  0  0  0
 21 19  1  0  0  0  0
M  RAD  3   3   2  11   2  12   3
M  END
