Coordinates from ORCA-job p-CH3O-Ph-N2-OOCH-B3LYPG-aug-cc-pVDZ-scan-d09-49-n400
 OpenBabel11081710393D

 21 21  0  0  1  0  0  0  0  0999 V2000
   11.7955    7.8682   -1.4000 C   0  0  0  0  0  0  0  0  0  0  0  0
   10.5943    7.2218   -1.0081 C   0  0  0  0  0  0  0  0  0  0  0  0
   10.8733    6.2254   -0.0705 C   0  0  1  0  0  0  0  0  0  0  0  0
   11.2596    4.8985   -0.4079 C   0  0  2  0  0  0  0  0  0  0  0  0
   12.3719    6.0671   -0.0195 C   0  0  1  0  0  0  0  0  0  0  0  0
   12.8595    7.1291   -0.8734 C   0  0  0  0  0  0  0  0  0  0  0  0
   11.8680    8.7124   -2.0810 H   0  0  0  0  0  0  0  0  0  0  0  0
    9.6382    7.3345   -1.5163 H   0  0  0  0  0  0  0  0  0  0  0  0
   11.3711    4.0927    0.3168 H   0  0  0  0  0  0  0  0  0  0  0  0
   12.9566    5.7494    0.8408 H   0  0  0  0  0  0  0  0  0  0  0  0
    7.3937    4.8805    2.5329 N   0  0  0  0  0  0  0  0  0  0  0  0
    7.9551    5.3371    3.3667 N   0  0  0  0  0  0  0  0  0  0  0  0
   14.1839    7.3956   -0.9104 O   0  0  0  0  0  0  0  0  0  0  0  0
   14.5727    8.6099   -1.5544 C   0  0  0  0  0  0  0  0  0  0  0  0
   15.6565    8.6877   -1.4276 H   0  0  0  0  0  0  0  0  0  0  0  0
   14.0756    9.4727   -1.0859 H   0  0  0  0  0  0  0  0  0  0  0  0
   14.3270    8.5792   -2.6263 H   0  0  0  0  0  0  0  0  0  0  0  0
   12.0779    2.4309   -1.2443 O   0  0  0  0  0  0  0  0  0  0  0  0
   11.5052    3.1685   -2.0029 C   0  0  0  0  0  0  0  0  0  0  0  0
   11.0508    4.4175   -1.7176 O   0  0  0  0  0  0  0  0  0  0  0  0
   11.2521    2.9322   -3.0502 H   0  0  0  0  0  0  0  0  0  0  0  0
  1  2  1  0  0  0  0
  1  6  2  0  0  0  0
  3  2  1  6  0  0  0
  3  5  1  0  0  0  0
  4  3  1  0  0  0  0
  4  5  1  0  0  0  0
  4  9  1  1  0  0  0
  5 10  1  1  0  0  0
  6  5  1  0  0  0  0
  7  1  1  0  0  0  0
  8  2  1  0  0  0  0
 11 12  3  0  0  0  0
 13  6  1  0  0  0  0
 14 15  1  0  0  0  0
 14 16  1  0  0  0  0
 14 13  1  0  0  0  0
 17 14  1  0  0  0  0
 19 20  1  0  0  0  0
 19 18  2  0  0  0  0
 20  4  1  0  0  0  0
 21 19  1  0  0  0  0
M  RAD  2   2   2   3   2
M  END
