Coordinates from ORCA-job p-CH3O-Ph-N2-OOCH-B3LYPG-aug-cc-pVDZ-scan-d09-49-n400
 OpenBabel11081710393D

 21 21  0  0  1  0  0  0  0  0999 V2000
   11.8214    7.8831   -1.4145 C   0  0  0  0  0  0  0  0  0  0  0  0
   10.6190    7.2459   -1.0105 C   0  0  0  0  0  0  0  0  0  0  0  0
   10.8994    6.2530   -0.0700 C   0  0  1  0  0  0  0  0  0  0  0  0
   11.2748    4.9217   -0.4019 C   0  0  2  0  0  0  0  0  0  0  0  0
   12.3968    6.0863   -0.0282 C   0  0  1  0  0  0  0  0  0  0  0  0
   12.8848    7.1406   -0.8915 C   0  0  0  0  0  0  0  0  0  0  0  0
   11.8940    8.7234   -2.1002 H   0  0  0  0  0  0  0  0  0  0  0  0
    9.6599    7.3613   -1.5123 H   0  0  0  0  0  0  0  0  0  0  0  0
   11.3868    4.1196    0.3268 H   0  0  0  0  0  0  0  0  0  0  0  0
   12.9850    5.7699    0.8302 H   0  0  0  0  0  0  0  0  0  0  0  0
    7.1623    4.7470    2.6654 N   0  0  0  0  0  0  0  0  0  0  0  0
    7.8121    5.2155    3.4249 N   0  0  0  0  0  0  0  0  0  0  0  0
   14.2106    7.3991   -0.9391 O   0  0  0  0  0  0  0  0  0  0  0  0
   14.6019    8.6076   -1.5923 C   0  0  0  0  0  0  0  0  0  0  0  0
   15.6870    8.6797   -1.4736 H   0  0  0  0  0  0  0  0  0  0  0  0
   14.1132    9.4758   -1.1250 H   0  0  0  0  0  0  0  0  0  0  0  0
   14.3483    8.5727   -2.6623 H   0  0  0  0  0  0  0  0  0  0  0  0
   12.0825    2.4488   -1.2332 O   0  0  0  0  0  0  0  0  0  0  0  0
   11.4987    3.1810   -1.9885 C   0  0  0  0  0  0  0  0  0  0  0  0
   11.0533    4.4342   -1.7071 O   0  0  0  0  0  0  0  0  0  0  0  0
   11.2470    2.9447   -3.0362 H   0  0  0  0  0  0  0  0  0  0  0  0
  1  2  1  0  0  0  0
  1  6  2  0  0  0  0
  3  2  1  6  0  0  0
  3  5  1  0  0  0  0
  4  3  1  0  0  0  0
  4  5  1  0  0  0  0
  4  9  1  1  0  0  0
  5 10  1  1  0  0  0
  6  5  1  0  0  0  0
  7  1  1  0  0  0  0
  8  2  1  0  0  0  0
 11 12  3  0  0  0  0
 13  6  1  0  0  0  0
 14 15  1  0  0  0  0
 14 16  1  0  0  0  0
 14 13  1  0  0  0  0
 17 14  1  0  0  0  0
 19 20  1  0  0  0  0
 19 18  2  0  0  0  0
 20  4  1  0  0  0  0
 21 19  1  0  0  0  0
M  RAD  2   2   2   3   2
M  END
