Coordinates from ORCA-job p-CH3O-Ph-N2-OOCH-B3LYPG-aug-cc-pVDZ-scan-d09-49-n400
 OpenBabel11081710393D

 21 21  0  0  1  0  0  0  0  0999 V2000
   11.6978    7.8123   -1.3705 C   0  0  0  0  0  0  0  0  0  0  0  0
   10.4927    7.1379   -1.0432 C   0  0  0  0  0  0  0  0  0  0  0  0
   10.7473    6.1325   -0.1085 C   0  0  1  0  0  0  0  0  0  0  0  0
   11.1744    4.8188   -0.4469 C   0  0  2  0  0  0  0  0  0  0  0  0
   12.2453    6.0011    0.0084 C   0  0  1  0  0  0  0  0  0  0  0  0
   12.7507    7.0850   -0.8065 C   0  0  0  0  0  0  0  0  0  0  0  0
   11.7850    8.6679   -2.0353 H   0  0  0  0  0  0  0  0  0  0  0  0
    9.5586    7.2405   -1.5928 H   0  0  0  0  0  0  0  0  0  0  0  0
   11.2675    4.0041    0.2706 H   0  0  0  0  0  0  0  0  0  0  0  0
   12.7971    5.6807    0.8893 H   0  0  0  0  0  0  0  0  0  0  0  0
    8.2890    5.3926    2.1455 N   0  0  0  0  0  0  0  0  0  0  0  0
    8.6030    5.7632    3.1374 N   0  0  0  0  0  0  0  0  0  0  0  0
   14.0700    7.3769   -0.7784 O   0  0  0  0  0  0  0  0  0  0  0  0
   14.4642    8.6081   -1.3860 C   0  0  0  0  0  0  0  0  0  0  0  0
   15.5393    8.7042   -1.2082 H   0  0  0  0  0  0  0  0  0  0  0  0
   13.9295    9.4541   -0.9284 H   0  0  0  0  0  0  0  0  0  0  0  0
   14.2686    8.5894   -2.4684 H   0  0  0  0  0  0  0  0  0  0  0  0
   12.0749    2.3785   -1.2790 O   0  0  0  0  0  0  0  0  0  0  0  0
   11.5246    3.1173   -2.0529 C   0  0  0  0  0  0  0  0  0  0  0  0
   11.0352    4.3538   -1.7715 O   0  0  0  0  0  0  0  0  0  0  0  0
   11.3238    2.8920   -3.1139 H   0  0  0  0  0  0  0  0  0  0  0  0
  1  2  1  0  0  0  0
  1  6  2  0  0  0  0
  3  2  1  6  0  0  0
  3  5  1  0  0  0  0
  4  3  1  0  0  0  0
  4  5  1  0  0  0  0
  4  9  1  1  0  0  0
  5 10  1  1  0  0  0
  6 13  1  0  0  0  0
  6  5  1  0  0  0  0
  7  1  1  0  0  0  0
  8  2  1  0  0  0  0
 11 12  3  0  0  0  0
 14 15  1  0  0  0  0
 14 16  1  0  0  0  0
 14 13  1  0  0  0  0
 17 14  1  0  0  0  0
 19 20  1  0  0  0  0
 19 18  2  0  0  0  0
 20  4  1  0  0  0  0
 21 19  1  0  0  0  0
M  RAD  2   2   2   3   2
M  END
