Coordinates from ORCA-job p-CH3O-Ph-N2-OOCH-B3LYPG-aug-cc-pVDZ-scan-d09-49-n400
 OpenBabel11081710393D

 21 21  0  0  1  0  0  0  0  0999 V2000
   11.7408    7.8365   -1.3806 C   0  0  0  0  0  0  0  0  0  0  0  0
   10.5375    7.1727   -1.0241 C   0  0  0  0  0  0  0  0  0  0  0  0
   10.8061    6.1700   -0.0930 C   0  0  1  0  0  0  0  0  0  0  0  0
   11.2132    4.8506   -0.4306 C   0  0  2  0  0  0  0  0  0  0  0  0
   12.3039    6.0276   -0.0059 C   0  0  1  0  0  0  0  0  0  0  0  0
   12.8002    7.1035   -0.8370 C   0  0  0  0  0  0  0  0  0  0  0  0
   11.8199    8.6888   -2.0508 H   0  0  0  0  0  0  0  0  0  0  0  0
    9.5918    7.2788   -1.5529 H   0  0  0  0  0  0  0  0  0  0  0  0
   11.3150    4.0399    0.2901 H   0  0  0  0  0  0  0  0  0  0  0  0
   12.8712    5.7075    0.8650 H   0  0  0  0  0  0  0  0  0  0  0  0
    7.8968    5.1689    2.3159 N   0  0  0  0  0  0  0  0  0  0  0  0
    8.2880    5.5940    3.2569 N   0  0  0  0  0  0  0  0  0  0  0  0
   14.1222    7.3844   -0.8399 O   0  0  0  0  0  0  0  0  0  0  0  0
   14.5125    8.6096   -1.4619 C   0  0  0  0  0  0  0  0  0  0  0  0
   15.5921    8.6977   -1.3089 H   0  0  0  0  0  0  0  0  0  0  0  0
   13.9952    9.4620   -0.9963 H   0  0  0  0  0  0  0  0  0  0  0  0
   14.2922    8.5877   -2.5396 H   0  0  0  0  0  0  0  0  0  0  0  0
   12.0850    2.4026   -1.2705 O   0  0  0  0  0  0  0  0  0  0  0  0
   11.5165    3.1379   -2.0344 C   0  0  0  0  0  0  0  0  0  0  0  0
   11.0411    4.3791   -1.7491 O   0  0  0  0  0  0  0  0  0  0  0  0
   11.2974    2.9111   -3.0914 H   0  0  0  0  0  0  0  0  0  0  0  0
  1  2  1  0  0  0  0
  1  6  2  0  0  0  0
  3  2  1  6  0  0  0
  3  5  1  0  0  0  0
  4  3  1  0  0  0  0
  4  5  1  0  0  0  0
  4  9  1  1  0  0  0
  5 10  1  1  0  0  0
  6  5  1  0  0  0  0
  7  1  1  0  0  0  0
  8  2  1  0  0  0  0
 11 12  3  0  0  0  0
 13  6  1  0  0  0  0
 14 15  1  0  0  0  0
 14 16  1  0  0  0  0
 14 13  1  0  0  0  0
 17 14  1  0  0  0  0
 19 20  1  0  0  0  0
 19 18  2  0  0  0  0
 20  4  1  0  0  0  0
 21 19  1  0  0  0  0
M  RAD  2   2   2   3   2
M  END
