Coordinates from ORCA-job p-CH3O-Ph-N2-OOCH-B3LYPG-aug-cc-pVDZ-scan-d09-49-n400
 OpenBabel11081710393D

 21 21  0  0  1  0  0  0  0  0999 V2000
   11.7736    7.5619   -1.0905 C   0  0  0  0  0  0  0  0  0  0  0  0
   10.4957    7.1731   -0.7852 C   0  0  0  0  0  0  0  0  0  0  0  0
   10.3446    5.9981   -0.0280 C   0  0  2  0  0  0  0  0  0  0  0  0
   11.3580    4.9959    0.3061 C   0  0  2  0  0  0  0  0  0  0  0  0
   12.6886    5.6177    0.1207 C   0  0  0  0  0  0  0  0  0  0  0  0
   12.8757    6.7751   -0.5860 C   0  0  0  0  0  0  0  0  0  0  0  0
   11.9350    8.4492   -1.6930 H   0  0  0  0  0  0  0  0  0  0  0  0
    9.6284    7.7412   -1.1145 H   0  0  0  0  0  0  0  0  0  0  0  0
   11.2321    4.5448    1.2950 H   0  0  0  0  0  0  0  0  0  0  0  0
   13.5525    5.0989    0.5313 H   0  0  0  0  0  0  0  0  0  0  0  0
    8.8638    5.6217    0.3809 N   0  0  0  0  0  0  0  0  0  0  0  0
    7.8227    5.3219    0.6799 N   0  0  0  0  0  0  0  0  0  0  0  0
   14.1741    7.1702   -0.7543 O   0  0  0  0  0  0  0  0  0  0  0  0
   14.4490    8.4089   -1.4025 C   0  0  0  0  0  0  0  0  0  0  0  0
   15.5382    8.5143   -1.3809 H   0  0  0  0  0  0  0  0  0  0  0  0
   13.9914    9.2546   -0.8675 H   0  0  0  0  0  0  0  0  0  0  0  0
   14.1078    8.4001   -2.4484 H   0  0  0  0  0  0  0  0  0  0  0  0
   11.2412    4.6277   -2.5648 O   0  0  0  0  0  0  0  0  0  0  0  0
   11.2119    3.6636   -1.8330 C   0  0  0  0  0  0  0  0  0  0  0  0
   11.2087    3.6504   -0.4988 O   0  0  0  0  0  0  0  0  0  0  0  0
   11.1458    2.6214   -2.2058 H   0  0  0  0  0  0  0  0  0  0  0  0
  1  2  2  0  0  0  0
  1  6  1  0  0  0  0
  2  3  1  0  0  0  0
  3  4  1  0  0  0  0
  3 11  1  6  0  0  0
  4  9  1  1  0  0  0
  5  4  1  0  0  0  0
  5 10  1  0  0  0  0
  6  5  2  0  0  0  0
  7  1  1  0  0  0  0
  8  2  1  0  0  0  0
 11 12  1  0  0  0  0
 13  6  1  0  0  0  0
 14 15  1  0  0  0  0
 14 16  1  0  0  0  0
 14 13  1  0  0  0  0
 17 14  1  0  0  0  0
 18 19  2  0  0  0  0
 19 20  1  0  0  0  0
 20  4  1  0  0  0  0
 21 19  1  0  0  0  0
M  RAD  3   3   2  11   2  12   3
M  END
