Coordinates from ORCA-job p-CH3O-Ph-N2-OOCH-B3LYPG-aug-cc-pVDZ-scan-d09-49-n400
 OpenBabel11081710393D

 21 21  0  0  1  0  0  0  0  0999 V2000
   11.8194    7.8819   -1.4130 C   0  0  0  0  0  0  0  0  0  0  0  0
   10.6172    7.2435   -1.0102 C   0  0  0  0  0  0  0  0  0  0  0  0
   10.8978    6.2505   -0.0705 C   0  0  1  0  0  0  0  0  0  0  0  0
   11.2742    4.9197   -0.4027 C   0  0  2  0  0  0  0  0  0  0  0  0
   12.3952    6.0849   -0.0277 C   0  0  1  0  0  0  0  0  0  0  0  0
   12.8829    7.1400   -0.8899 C   0  0  0  0  0  0  0  0  0  0  0  0
   11.8917    8.7227   -2.0982 H   0  0  0  0  0  0  0  0  0  0  0  0
    9.6582    7.3584   -1.5126 H   0  0  0  0  0  0  0  0  0  0  0  0
   11.3864    4.1173    0.3257 H   0  0  0  0  0  0  0  0  0  0  0  0
   12.9830    5.7684    0.8309 H   0  0  0  0  0  0  0  0  0  0  0  0
    7.1844    4.7577    2.6510 N   0  0  0  0  0  0  0  0  0  0  0  0
    7.8259    5.2264    3.4180 N   0  0  0  0  0  0  0  0  0  0  0  0
   14.2086    7.3996   -0.9364 O   0  0  0  0  0  0  0  0  0  0  0  0
   14.5993    8.6089   -1.5886 C   0  0  0  0  0  0  0  0  0  0  0  0
   15.6843    8.6817   -1.4691 H   0  0  0  0  0  0  0  0  0  0  0  0
   14.1097    9.4764   -1.1210 H   0  0  0  0  0  0  0  0  0  0  0  0
   14.3465    8.5745   -2.6588 H   0  0  0  0  0  0  0  0  0  0  0  0
   12.0776    2.4449   -1.2324 O   0  0  0  0  0  0  0  0  0  0  0  0
   11.5004    3.1800   -1.9900 C   0  0  0  0  0  0  0  0  0  0  0  0
   11.0539    4.4327   -1.7082 O   0  0  0  0  0  0  0  0  0  0  0  0
   11.2422    2.9407   -3.0354 H   0  0  0  0  0  0  0  0  0  0  0  0
  1  2  1  0  0  0  0
  1  6  2  0  0  0  0
  3  2  1  6  0  0  0
  3  5  1  0  0  0  0
  4  3  1  0  0  0  0
  4  5  1  0  0  0  0
  4  9  1  1  0  0  0
  5 10  1  1  0  0  0
  6  5  1  0  0  0  0
  7  1  1  0  0  0  0
  8  2  1  0  0  0  0
 11 12  3  0  0  0  0
 13  6  1  0  0  0  0
 14 15  1  0  0  0  0
 14 16  1  0  0  0  0
 14 13  1  0  0  0  0
 17 14  1  0  0  0  0
 19 20  1  0  0  0  0
 19 18  2  0  0  0  0
 20  4  1  0  0  0  0
 21 19  1  0  0  0  0
M  RAD  2   2   2   3   2
M  END
