Coordinates from ORCA-job p-CH3O-Ph-N2-OOCH-B3LYPG-aug-cc-pVDZ-scan-d09-49-n400
 OpenBabel11081710393D

 21 21  0  0  1  0  0  0  0  0999 V2000
   11.8233    7.8844   -1.4154 C   0  0  0  0  0  0  0  0  0  0  0  0
   10.6208    7.2474   -1.0110 C   0  0  0  0  0  0  0  0  0  0  0  0
   10.9015    6.2547   -0.0709 C   0  0  1  0  0  0  0  0  0  0  0  0
   11.2762    4.9231   -0.4019 C   0  0  2  0  0  0  0  0  0  0  0  0
   12.3986    6.0877   -0.0292 C   0  0  1  0  0  0  0  0  0  0  0  0
   12.8866    7.1417   -0.8928 C   0  0  0  0  0  0  0  0  0  0  0  0
   11.8958    8.7247   -2.1012 H   0  0  0  0  0  0  0  0  0  0  0  0
    9.6614    7.3627   -1.5125 H   0  0  0  0  0  0  0  0  0  0  0  0
   11.3880    4.1213    0.3271 H   0  0  0  0  0  0  0  0  0  0  0  0
   12.9868    5.7715    0.8293 H   0  0  0  0  0  0  0  0  0  0  0  0
    7.1487    4.7384    2.6731 N   0  0  0  0  0  0  0  0  0  0  0  0
    7.8040    5.2072    3.4278 N   0  0  0  0  0  0  0  0  0  0  0  0
   14.2125    7.3999   -0.9409 O   0  0  0  0  0  0  0  0  0  0  0  0
   14.6038    8.6083   -1.5943 C   0  0  0  0  0  0  0  0  0  0  0  0
   15.6890    8.6801   -1.4760 H   0  0  0  0  0  0  0  0  0  0  0  0
   14.1155    9.4766   -1.1268 H   0  0  0  0  0  0  0  0  0  0  0  0
   14.3499    8.5734   -2.6642 H   0  0  0  0  0  0  0  0  0  0  0  0
   12.0794    2.4480   -1.2309 O   0  0  0  0  0  0  0  0  0  0  0  0
   11.4993    3.1816   -1.9878 C   0  0  0  0  0  0  0  0  0  0  0  0
   11.0542    4.4350   -1.7069 O   0  0  0  0  0  0  0  0  0  0  0  0
   11.2433    2.9431   -3.0339 H   0  0  0  0  0  0  0  0  0  0  0  0
  1  2  1  0  0  0  0
  1  6  2  0  0  0  0
  3  2  1  6  0  0  0
  3  5  1  0  0  0  0
  4  3  1  0  0  0  0
  4  5  1  0  0  0  0
  4  9  1  1  0  0  0
  5 10  1  1  0  0  0
  6  5  1  0  0  0  0
  7  1  1  0  0  0  0
  8  2  1  0  0  0  0
 11 12  3  0  0  0  0
 13  6  1  0  0  0  0
 14 15  1  0  0  0  0
 14 16  1  0  0  0  0
 14 13  1  0  0  0  0
 17 14  1  0  0  0  0
 19 20  1  0  0  0  0
 19 18  2  0  0  0  0
 20  4  1  0  0  0  0
 21 19  1  0  0  0  0
M  RAD  2   2   2   3   2
M  END
