Coordinates from ORCA-job p-CH3O-Ph-N2-OOCH-B3LYPG-aug-cc-pVDZ-scan-d09-49-n400
 OpenBabel11081710393D

 21 20  0  0  1  0  0  0  0  0999 V2000
   11.8020    7.5329   -1.1480 C   0  0  0  0  0  0  0  0  0  0  0  0
   10.5503    7.0857   -0.7995 C   0  0  0  0  0  0  0  0  0  0  0  0
   10.5347    6.1319    0.2339 C   0  0  0  0  0  0  0  0  0  0  0  0
   11.3704    4.9740    0.3446 C   0  0  2  0  0  0  0  0  0  0  0  0
   12.6769    5.6952    0.2410 C   0  0  0  0  0  0  0  0  0  0  0  0
   12.8908    6.8125   -0.5469 C   0  0  0  0  0  0  0  0  0  0  0  0
   11.9358    8.3437   -1.8556 H   0  0  0  0  0  0  0  0  0  0  0  0
    9.6370    7.4924   -1.2251 H   0  0  0  0  0  0  0  0  0  0  0  0
   11.2835    4.4170    1.2786 H   0  0  0  0  0  0  0  0  0  0  0  0
   13.5201    5.2543    0.7695 H   0  0  0  0  0  0  0  0  0  0  0  0
    8.6590    5.5013    0.3582 N   0  0  0  0  0  0  0  0  0  0  0  0
    7.7125    5.2229    0.8614 N   0  0  0  0  0  0  0  0  0  0  0  0
   14.1863    7.2056   -0.6667 O   0  0  0  0  0  0  0  0  0  0  0  0
   14.4846    8.3774   -1.4261 C   0  0  0  0  0  0  0  0  0  0  0  0
   15.5666    8.5147   -1.3394 H   0  0  0  0  0  0  0  0  0  0  0  0
   13.9679    9.2578   -1.0168 H   0  0  0  0  0  0  0  0  0  0  0  0
   14.2173    8.2437   -2.4841 H   0  0  0  0  0  0  0  0  0  0  0  0
   11.1583    4.8200   -2.6094 O   0  0  0  0  0  0  0  0  0  0  0  0
   11.1624    3.8144   -1.9324 C   0  0  0  0  0  0  0  0  0  0  0  0
   11.2183    3.7166   -0.6072 O   0  0  0  0  0  0  0  0  0  0  0  0
   11.1040    2.7968   -2.3691 H   0  0  0  0  0  0  0  0  0  0  0  0
  1  2  2  0  0  0  0
  1  6  1  0  0  0  0
  2  3  1  0  0  0  0
  3  4  1  0  0  0  0
  4  9  1  1  0  0  0
  5  4  1  0  0  0  0
  5 10  1  0  0  0  0
  6  5  2  0  0  0  0
  7  1  1  0  0  0  0
  8  2  1  0  0  0  0
 11 12  3  0  0  0  0
 13  6  1  0  0  0  0
 14 15  1  0  0  0  0
 14 16  1  0  0  0  0
 14 13  1  0  0  0  0
 17 14  1  0  0  0  0
 18 19  2  0  0  0  0
 19 20  1  0  0  0  0
 20  4  1  0  0  0  0
 21 19  1  0  0  0  0
M  RAD  1   3   3
M  END
