Coordinates from ORCA-job p-CH3O-Ph-N2-OOCH-B3LYPG-aug-cc-pVDZ-scan-d09-49-n400
 OpenBabel11081710393D

 21 21  0  0  1  0  0  0  0  0999 V2000
   11.7923    7.5414   -1.0969 C   0  0  0  0  0  0  0  0  0  0  0  0
   10.5273    7.1123   -0.7792 C   0  0  0  0  0  0  0  0  0  0  0  0
   10.4718    6.1313    0.2276 C   0  0  2  0  0  0  0  0  0  0  0  0
   11.3776    5.0155    0.3832 C   0  0  2  0  0  0  0  0  0  0  0  0
   12.6994    5.6790    0.2420 C   0  0  0  0  0  0  0  0  0  0  0  0
   12.8931    6.8082   -0.5214 C   0  0  0  0  0  0  0  0  0  0  0  0
   11.9350    8.4002   -1.7438 H   0  0  0  0  0  0  0  0  0  0  0  0
    9.6339    7.5884   -1.1741 H   0  0  0  0  0  0  0  0  0  0  0  0
   11.2676    4.4548    1.3127 H   0  0  0  0  0  0  0  0  0  0  0  0
   13.5618    5.1685    0.6665 H   0  0  0  0  0  0  0  0  0  0  0  0
    8.7150    5.4578    0.2885 N   0  0  0  0  0  0  0  0  0  0  0  0
    7.7088    5.1946    0.6751 N   0  0  0  0  0  0  0  0  0  0  0  0
   14.1870    7.2036   -0.6768 O   0  0  0  0  0  0  0  0  0  0  0  0
   14.4712    8.3654   -1.4547 C   0  0  0  0  0  0  0  0  0  0  0  0
   15.5587    8.4814   -1.4192 H   0  0  0  0  0  0  0  0  0  0  0  0
   13.9947    9.2596   -1.0265 H   0  0  0  0  0  0  0  0  0  0  0  0
   14.1529    8.2342   -2.4990 H   0  0  0  0  0  0  0  0  0  0  0  0
   11.1577    4.8042   -2.5756 O   0  0  0  0  0  0  0  0  0  0  0  0
   11.1736    3.8054   -1.8875 C   0  0  0  0  0  0  0  0  0  0  0  0
   11.2238    3.7220   -0.5629 O   0  0  0  0  0  0  0  0  0  0  0  0
   11.1357    2.7829   -2.3170 H   0  0  0  0  0  0  0  0  0  0  0  0
  1  2  2  0  0  0  0
  1  6  1  0  0  0  0
  2  3  1  0  0  0  0
  3 11  1  6  0  0  0
  3  4  1  0  0  0  0
  4  9  1  1  0  0  0
  5  4  1  0  0  0  0
  5 10  1  0  0  0  0
  6  5  2  0  0  0  0
  7  1  1  0  0  0  0
  8  2  1  0  0  0  0
 11 12  1  0  0  0  0
 13  6  1  0  0  0  0
 14 15  1  0  0  0  0
 14 16  1  0  0  0  0
 14 13  1  0  0  0  0
 17 14  1  0  0  0  0
 18 19  2  0  0  0  0
 19 20  1  0  0  0  0
 20  4  1  0  0  0  0
 21 19  1  0  0  0  0
M  RAD  3   3   2  11   2  12   3
M  END
