Coordinates from ORCA-job p-CH3O-Ph-N2-OOCH-B3LYPG-aug-cc-pVDZ-scan-d09-49-n400
 OpenBabel11081710393D

 21 21  0  0  1  0  0  0  0  0999 V2000
   11.7085    7.8183   -1.3712 C   0  0  0  0  0  0  0  0  0  0  0  0
   10.5046    7.1455   -1.0362 C   0  0  0  0  0  0  0  0  0  0  0  0
   10.7643    6.1395   -0.1030 C   0  0  1  0  0  0  0  0  0  0  0  0
   11.1871    4.8247   -0.4434 C   0  0  2  0  0  0  0  0  0  0  0  0
   12.2627    6.0062    0.0044 C   0  0  1  0  0  0  0  0  0  0  0  0
   12.7640    7.0895   -0.8141 C   0  0  0  0  0  0  0  0  0  0  0  0
   11.7925    8.6739   -2.0365 H   0  0  0  0  0  0  0  0  0  0  0  0
    9.5670    7.2491   -1.5799 H   0  0  0  0  0  0  0  0  0  0  0  0
   11.2839    4.0103    0.2739 H   0  0  0  0  0  0  0  0  0  0  0  0
   12.8196    5.6854    0.8819 H   0  0  0  0  0  0  0  0  0  0  0  0
    8.1931    5.3347    2.1881 N   0  0  0  0  0  0  0  0  0  0  0  0
    8.5103    5.7338    3.1682 N   0  0  0  0  0  0  0  0  0  0  0  0
   14.0839    7.3795   -0.7949 O   0  0  0  0  0  0  0  0  0  0  0  0
   14.4758    8.6101   -1.4053 C   0  0  0  0  0  0  0  0  0  0  0  0
   15.5522    8.7046   -1.2348 H   0  0  0  0  0  0  0  0  0  0  0  0
   13.9454    9.4568   -0.9441 H   0  0  0  0  0  0  0  0  0  0  0  0
   14.2727    8.5916   -2.4864 H   0  0  0  0  0  0  0  0  0  0  0  0
   12.0753    2.3813   -1.2790 O   0  0  0  0  0  0  0  0  0  0  0  0
   11.5253    3.1223   -2.0510 C   0  0  0  0  0  0  0  0  0  0  0  0
   11.0386    4.3593   -1.7669 O   0  0  0  0  0  0  0  0  0  0  0  0
   11.3120    2.8943   -3.1090 H   0  0  0  0  0  0  0  0  0  0  0  0
  1  2  1  0  0  0  0
  1  6  2  0  0  0  0
  3  2  1  6  0  0  0
  3  5  1  0  0  0  0
  4  3  1  0  0  0  0
  4  5  1  0  0  0  0
  4  9  1  1  0  0  0
  5 10  1  1  0  0  0
  6 13  1  0  0  0  0
  6  5  1  0  0  0  0
  7  1  1  0  0  0  0
  8  2  1  0  0  0  0
 11 12  3  0  0  0  0
 14 15  1  0  0  0  0
 14 16  1  0  0  0  0
 14 13  1  0  0  0  0
 17 14  1  0  0  0  0
 19 20  1  0  0  0  0
 19 18  2  0  0  0  0
 20  4  1  0  0  0  0
 21 19  1  0  0  0  0
M  RAD  2   2   2   3   2
M  END
