Coordinates from ORCA-job p-CH3O-Ph-N2-OOCH-B3LYPG-aug-cc-pVDZ-scan-d09-49-n400
 OpenBabel11081710393D

 21 21  0  0  1  0  0  0  0  0999 V2000
   11.6959    7.8113   -1.3704 C   0  0  0  0  0  0  0  0  0  0  0  0
   10.4904    7.1368   -1.0445 C   0  0  0  0  0  0  0  0  0  0  0  0
   10.7441    6.1314   -0.1097 C   0  0  1  0  0  0  0  0  0  0  0  0
   11.1715    4.8177   -0.4473 C   0  0  2  0  0  0  0  0  0  0  0  0
   12.2420    6.0001    0.0089 C   0  0  1  0  0  0  0  0  0  0  0  0
   12.7482    7.0841   -0.8054 C   0  0  0  0  0  0  0  0  0  0  0  0
   11.7837    8.6670   -2.0349 H   0  0  0  0  0  0  0  0  0  0  0  0
    9.5569    7.2395   -1.5951 H   0  0  0  0  0  0  0  0  0  0  0  0
   11.2638    4.0032    0.2704 H   0  0  0  0  0  0  0  0  0  0  0  0
   12.7928    5.6798    0.8904 H   0  0  0  0  0  0  0  0  0  0  0  0
    8.3050    5.4032    2.1387 N   0  0  0  0  0  0  0  0  0  0  0  0
    8.6202    5.7679    3.1323 N   0  0  0  0  0  0  0  0  0  0  0  0
   14.0675    7.3760   -0.7757 O   0  0  0  0  0  0  0  0  0  0  0  0
   14.4623    8.6073   -1.3827 C   0  0  0  0  0  0  0  0  0  0  0  0
   15.5372    8.7035   -1.2037 H   0  0  0  0  0  0  0  0  0  0  0  0
   13.9271    9.4532   -0.9257 H   0  0  0  0  0  0  0  0  0  0  0  0
   14.2678    8.5887   -2.4654 H   0  0  0  0  0  0  0  0  0  0  0  0
   12.0772    2.3792   -1.2793 O   0  0  0  0  0  0  0  0  0  0  0  0
   11.5230    3.1158   -2.0526 C   0  0  0  0  0  0  0  0  0  0  0  0
   11.0335    4.3525   -1.7720 O   0  0  0  0  0  0  0  0  0  0  0  0
   11.3287    2.8928   -3.1153 H   0  0  0  0  0  0  0  0  0  0  0  0
  1  2  1  0  0  0  0
  1  6  2  0  0  0  0
  3  2  1  6  0  0  0
  3  5  1  0  0  0  0
  4  3  1  0  0  0  0
  4  5  1  0  0  0  0
  4  9  1  1  0  0  0
  5 10  1  1  0  0  0
  6 13  1  0  0  0  0
  6  5  1  0  0  0  0
  7  1  1  0  0  0  0
  8  2  1  0  0  0  0
 11 12  3  0  0  0  0
 14 15  1  0  0  0  0
 14 16  1  0  0  0  0
 14 13  1  0  0  0  0
 17 14  1  0  0  0  0
 19 20  1  0  0  0  0
 19 18  2  0  0  0  0
 20  4  1  0  0  0  0
 21 19  1  0  0  0  0
M  RAD  2   2   2   3   2
M  END
