Coordinates from ORCA-job p-CH3O-Ph-N2-OOCH-B3LYPG-aug-cc-pVDZ-scan-d09-49-n400
 OpenBabel11081710393D

 21 21  0  0  1  0  0  0  0  0999 V2000
   11.7100    7.8188   -1.3718 C   0  0  0  0  0  0  0  0  0  0  0  0
   10.5059    7.1468   -1.0353 C   0  0  0  0  0  0  0  0  0  0  0  0
   10.7661    6.1411   -0.1025 C   0  0  1  0  0  0  0  0  0  0  0  0
   11.1875    4.8260   -0.4425 C   0  0  2  0  0  0  0  0  0  0  0  0
   12.2643    6.0070    0.0037 C   0  0  1  0  0  0  0  0  0  0  0  0
   12.7656    7.0896   -0.8157 C   0  0  0  0  0  0  0  0  0  0  0  0
   11.7937    8.6743   -2.0371 H   0  0  0  0  0  0  0  0  0  0  0  0
    9.5678    7.2508   -1.5777 H   0  0  0  0  0  0  0  0  0  0  0  0
   11.2843    4.0120    0.2752 H   0  0  0  0  0  0  0  0  0  0  0  0
   12.8219    5.6863    0.8808 H   0  0  0  0  0  0  0  0  0  0  0  0
    8.1771    5.3270    2.1962 N   0  0  0  0  0  0  0  0  0  0  0  0
    8.4978    5.7275    3.1741 N   0  0  0  0  0  0  0  0  0  0  0  0
   14.0858    7.3789   -0.7977 O   0  0  0  0  0  0  0  0  0  0  0  0
   14.4778    8.6092   -1.4085 C   0  0  0  0  0  0  0  0  0  0  0  0
   15.5544    8.7031   -1.2391 H   0  0  0  0  0  0  0  0  0  0  0  0
   13.9483    9.4563   -0.9470 H   0  0  0  0  0  0  0  0  0  0  0  0
   14.2737    8.5907   -2.4894 H   0  0  0  0  0  0  0  0  0  0  0  0
   12.0802    2.3848   -1.2799 O   0  0  0  0  0  0  0  0  0  0  0  0
   11.5233    3.1229   -2.0497 C   0  0  0  0  0  0  0  0  0  0  0  0
   11.0374    4.3602   -1.7656 O   0  0  0  0  0  0  0  0  0  0  0  0
   11.3159    2.8977   -3.1095 H   0  0  0  0  0  0  0  0  0  0  0  0
  1  2  1  0  0  0  0
  1  6  2  0  0  0  0
  3  2  1  6  0  0  0
  3  5  1  0  0  0  0
  4  3  1  0  0  0  0
  4  5  1  0  0  0  0
  4  9  1  1  0  0  0
  5 10  1  1  0  0  0
  6 13  1  0  0  0  0
  6  5  1  0  0  0  0
  7  1  1  0  0  0  0
  8  2  1  0  0  0  0
 11 12  3  0  0  0  0
 14 15  1  0  0  0  0
 14 16  1  0  0  0  0
 14 13  1  0  0  0  0
 17 14  1  0  0  0  0
 19 20  1  0  0  0  0
 19 18  2  0  0  0  0
 20  4  1  0  0  0  0
 21 19  1  0  0  0  0
M  RAD  2   2   2   3   2
M  END
