Coordinates from ORCA-job p-CH3O-Ph-N2-OOCH-B3LYPG-aug-cc-pVDZ-scan-d09-49-n400
 OpenBabel11081710393D

 21 21  0  0  1  0  0  0  0  0999 V2000
   11.5940    7.7555   -1.3157 C   0  0  0  0  0  0  0  0  0  0  0  0
   10.3861    7.0732   -1.0182 C   0  0  0  0  0  0  0  0  0  0  0  0
   10.6220    6.0593   -0.0848 C   0  0  1  0  0  0  0  0  0  0  0  0
   11.0934    4.7609   -0.4302 C   0  0  2  0  0  0  0  0  0  0  0  0
   12.1232    5.9351    0.0597 C   0  0  1  0  0  0  0  0  0  0  0  0
   12.6394    7.0362   -0.7315 C   0  0  0  0  0  0  0  0  0  0  0  0
   11.6881    8.6175   -1.9712 H   0  0  0  0  0  0  0  0  0  0  0  0
    9.4594    7.1851   -1.5786 H   0  0  0  0  0  0  0  0  0  0  0  0
   11.1644    3.9369    0.2803 H   0  0  0  0  0  0  0  0  0  0  0  0
   12.6558    5.6220    0.9552 H   0  0  0  0  0  0  0  0  0  0  0  0
    9.1264    5.8821    1.5507 N   0  0  0  0  0  0  0  0  0  0  0  0
    9.4385    6.0732    2.6000 N   0  0  0  0  0  0  0  0  0  0  0  0
   13.9522    7.3449   -0.6552 O   0  0  0  0  0  0  0  0  0  0  0  0
   14.3507    8.5868   -1.2384 C   0  0  0  0  0  0  0  0  0  0  0  0
   15.4181    8.6941   -1.0246 H   0  0  0  0  0  0  0  0  0  0  0  0
   13.7903    9.4213   -0.7906 H   0  0  0  0  0  0  0  0  0  0  0  0
   14.1903    8.5755   -2.3267 H   0  0  0  0  0  0  0  0  0  0  0  0
   12.0916    2.3693   -1.2811 O   0  0  0  0  0  0  0  0  0  0  0  0
   11.5221    3.0954   -2.0533 C   0  0  0  0  0  0  0  0  0  0  0  0
   10.9845    4.3089   -1.7645 O   0  0  0  0  0  0  0  0  0  0  0  0
   11.3482    2.8775   -3.1207 H   0  0  0  0  0  0  0  0  0  0  0  0
  1  2  1  0  0  0  0
  1  6  2  0  0  0  0
  3  2  1  6  0  0  0
  3  5  1  0  0  0  0
  4  3  1  0  0  0  0
  4  5  1  0  0  0  0
  4  9  1  1  0  0  0
  5 10  1  1  0  0  0
  6 13  1  0  0  0  0
  6  5  1  0  0  0  0
  7  1  1  0  0  0  0
  8  2  1  0  0  0  0
 11 12  3  0  0  0  0
 14 15  1  0  0  0  0
 14 16  1  0  0  0  0
 14 13  1  0  0  0  0
 17 14  1  0  0  0  0
 19 20  1  0  0  0  0
 19 18  2  0  0  0  0
 20  4  1  0  0  0  0
 21 19  1  0  0  0  0
M  RAD  2   2   2   3   2
M  END
