Coordinates from ORCA-job p-CH3O-Ph-N2-OOCH-B3LYPG-aug-cc-pVDZ-scan-d09-49-n400
 OpenBabel11081710393D

 21 21  0  0  1  0  0  0  0  0999 V2000
   11.6653    7.7969   -1.3625 C   0  0  0  0  0  0  0  0  0  0  0  0
   10.4575    7.1171   -1.0560 C   0  0  0  0  0  0  0  0  0  0  0  0
   10.7006    6.1111   -0.1195 C   0  0  1  0  0  0  0  0  0  0  0  0
   11.1391    4.8001   -0.4521 C   0  0  2  0  0  0  0  0  0  0  0  0
   12.1975    5.9850    0.0211 C   0  0  1  0  0  0  0  0  0  0  0  0
   12.7118    7.0730   -0.7832 C   0  0  0  0  0  0  0  0  0  0  0  0
   11.7595    8.6545   -2.0237 H   0  0  0  0  0  0  0  0  0  0  0  0
    9.5326    7.2182   -1.6212 H   0  0  0  0  0  0  0  0  0  0  0  0
   11.2231    3.9853    0.2664 H   0  0  0  0  0  0  0  0  0  0  0  0
   12.7364    5.6659    0.9104 H   0  0  0  0  0  0  0  0  0  0  0  0
    8.5782    5.5732    1.9828 N   0  0  0  0  0  0  0  0  0  0  0  0
    8.8990    5.8374    3.0063 N   0  0  0  0  0  0  0  0  0  0  0  0
   14.0291    7.3706   -0.7315 O   0  0  0  0  0  0  0  0  0  0  0  0
   14.4282    8.6051   -1.3292 C   0  0  0  0  0  0  0  0  0  0  0  0
   15.4997    8.7054   -1.1329 H   0  0  0  0  0  0  0  0  0  0  0  0
   13.8821    9.4475   -0.8786 H   0  0  0  0  0  0  0  0  0  0  0  0
   14.2511    8.5883   -2.4148 H   0  0  0  0  0  0  0  0  0  0  0  0
   12.0638    2.3645   -1.2712 O   0  0  0  0  0  0  0  0  0  0  0  0
   11.5204    3.1003   -2.0528 C   0  0  0  0  0  0  0  0  0  0  0  0
   11.0223    4.3350   -1.7790 O   0  0  0  0  0  0  0  0  0  0  0  0
   11.3414    2.8764   -3.1180 H   0  0  0  0  0  0  0  0  0  0  0  0
  1  2  1  0  0  0  0
  1  6  2  0  0  0  0
  3  2  1  6  0  0  0
  3  5  1  0  0  0  0
  4  3  1  0  0  0  0
  4  5  1  0  0  0  0
  4  9  1  1  0  0  0
  5 10  1  1  0  0  0
  6 13  1  0  0  0  0
  6  5  1  0  0  0  0
  7  1  1  0  0  0  0
  8  2  1  0  0  0  0
 11 12  3  0  0  0  0
 14 15  1  0  0  0  0
 14 16  1  0  0  0  0
 14 13  1  0  0  0  0
 17 14  1  0  0  0  0
 19 20  1  0  0  0  0
 19 18  2  0  0  0  0
 20  4  1  0  0  0  0
 21 19  1  0  0  0  0
M  RAD  2   2   2   3   2
M  END
