Coordinates from ORCA-job p-CH3O-Ph-N2-OOCH-B3LYPG-aug-cc-pVDZ-scan-d09-49-n400
 OpenBabel11081710393D

 21 21  0  0  1  0  0  0  0  0999 V2000
   11.6925    7.8097   -1.3703 C   0  0  0  0  0  0  0  0  0  0  0  0
   10.4866    7.1345   -1.0473 C   0  0  0  0  0  0  0  0  0  0  0  0
   10.7388    6.1291   -0.1124 C   0  0  1  0  0  0  0  0  0  0  0  0
   11.1675    4.8157   -0.4488 C   0  0  2  0  0  0  0  0  0  0  0  0
   12.2364    5.9986    0.0098 C   0  0  1  0  0  0  0  0  0  0  0  0
   12.7440    7.0830   -0.8031 C   0  0  0  0  0  0  0  0  0  0  0  0
   11.7813    8.6657   -2.0343 H   0  0  0  0  0  0  0  0  0  0  0  0
    9.5543    7.2366   -1.5999 H   0  0  0  0  0  0  0  0  0  0  0  0
   11.2585    4.0014    0.2693 H   0  0  0  0  0  0  0  0  0  0  0  0
   12.7853    5.6785    0.8925 H   0  0  0  0  0  0  0  0  0  0  0  0
    8.3375    5.4223    2.1233 N   0  0  0  0  0  0  0  0  0  0  0  0
    8.6536    5.7761    3.1204 N   0  0  0  0  0  0  0  0  0  0  0  0
   14.0630    7.3758   -0.7701 O   0  0  0  0  0  0  0  0  0  0  0  0
   14.4585    8.6075   -1.3757 C   0  0  0  0  0  0  0  0  0  0  0  0
   15.5329    8.7043   -1.1941 H   0  0  0  0  0  0  0  0  0  0  0  0
   13.9217    9.4529   -0.9196 H   0  0  0  0  0  0  0  0  0  0  0  0
   14.2666    8.5892   -2.4589 H   0  0  0  0  0  0  0  0  0  0  0  0
   12.0740    2.3765   -1.2777 O   0  0  0  0  0  0  0  0  0  0  0  0
   11.5232    3.1136   -2.0529 C   0  0  0  0  0  0  0  0  0  0  0  0
   11.0327    4.3502   -1.7737 O   0  0  0  0  0  0  0  0  0  0  0  0
   11.3297    2.8895   -3.1155 H   0  0  0  0  0  0  0  0  0  0  0  0
  1  2  1  0  0  0  0
  1  6  2  0  0  0  0
  3  2  1  6  0  0  0
  3  5  1  0  0  0  0
  4  3  1  0  0  0  0
  4  5  1  0  0  0  0
  4  9  1  1  0  0  0
  5 10  1  1  0  0  0
  6 13  1  0  0  0  0
  6  5  1  0  0  0  0
  7  1  1  0  0  0  0
  8  2  1  0  0  0  0
 11 12  3  0  0  0  0
 14 15  1  0  0  0  0
 14 16  1  0  0  0  0
 14 13  1  0  0  0  0
 17 14  1  0  0  0  0
 19 20  1  0  0  0  0
 19 18  2  0  0  0  0
 20  4  1  0  0  0  0
 21 19  1  0  0  0  0
M  RAD  2   2   2   3   2
M  END
