Coordinates from ORCA-job p-CH3O-Ph-N2-OOCH-B3LYPG-aug-cc-pVDZ-scan-d09-49-n400
 OpenBabel11081710393D

 21 21  0  0  1  0  0  0  0  0999 V2000
   11.8226    7.8837   -1.4150 C   0  0  0  0  0  0  0  0  0  0  0  0
   10.6202    7.2464   -1.0109 C   0  0  0  0  0  0  0  0  0  0  0  0
   10.9008    6.2539   -0.0707 C   0  0  1  0  0  0  0  0  0  0  0  0
   11.2762    4.9226   -0.4022 C   0  0  2  0  0  0  0  0  0  0  0  0
   12.3981    6.0873   -0.0288 C   0  0  1  0  0  0  0  0  0  0  0  0
   12.8860    7.1415   -0.8922 C   0  0  0  0  0  0  0  0  0  0  0  0
   11.8950    8.7240   -2.1008 H   0  0  0  0  0  0  0  0  0  0  0  0
    9.6610    7.3616   -1.5127 H   0  0  0  0  0  0  0  0  0  0  0  0
   11.3881    4.1206    0.3266 H   0  0  0  0  0  0  0  0  0  0  0  0
   12.9862    5.7711    0.8297 H   0  0  0  0  0  0  0  0  0  0  0  0
    7.1557    4.7419    2.6684 N   0  0  0  0  0  0  0  0  0  0  0  0
    7.8084    5.2108    3.4259 N   0  0  0  0  0  0  0  0  0  0  0  0
   14.2118    7.4001   -0.9398 O   0  0  0  0  0  0  0  0  0  0  0  0
   14.6029    8.6086   -1.5930 C   0  0  0  0  0  0  0  0  0  0  0  0
   15.6880    8.6808   -1.4744 H   0  0  0  0  0  0  0  0  0  0  0  0
   14.1142    9.4768   -1.1257 H   0  0  0  0  0  0  0  0  0  0  0  0
   14.3493    8.5737   -2.6630 H   0  0  0  0  0  0  0  0  0  0  0  0
   12.0776    2.4468   -1.2309 O   0  0  0  0  0  0  0  0  0  0  0  0
   11.5002    3.1817   -1.9885 C   0  0  0  0  0  0  0  0  0  0  0  0
   11.0547    4.4348   -1.7073 O   0  0  0  0  0  0  0  0  0  0  0  0
   11.2416    2.9421   -3.0338 H   0  0  0  0  0  0  0  0  0  0  0  0
  1  2  1  0  0  0  0
  1  6  2  0  0  0  0
  3  2  1  6  0  0  0
  3  5  1  0  0  0  0
  4  3  1  0  0  0  0
  4  5  1  0  0  0  0
  4  9  1  1  0  0  0
  5 10  1  1  0  0  0
  6  5  1  0  0  0  0
  7  1  1  0  0  0  0
  8  2  1  0  0  0  0
 11 12  3  0  0  0  0
 13  6  1  0  0  0  0
 14 15  1  0  0  0  0
 14 16  1  0  0  0  0
 14 13  1  0  0  0  0
 17 14  1  0  0  0  0
 19 20  1  0  0  0  0
 19 18  2  0  0  0  0
 20  4  1  0  0  0  0
 21 19  1  0  0  0  0
M  RAD  2   2   2   3   2
M  END
