Coordinates from ORCA-job p-CH3O-Ph-N2-OOCH-B3LYPG-aug-cc-pVDZ-scan-d09-49-n400
 OpenBabel11081710393D

 21 20  0  0  1  0  0  0  0  0999 V2000
   11.7961    7.5407   -1.1028 C   0  0  0  0  0  0  0  0  0  0  0  0
   10.5341    7.1051   -0.7806 C   0  0  0  0  0  0  0  0  0  0  0  0
   10.4927    6.1394    0.2394 C   0  0  0  0  0  0  0  0  0  0  0  0
   11.3794    5.0114    0.3811 C   0  0  2  0  0  0  0  0  0  0  0  0
   12.6993    5.6843    0.2464 C   0  0  0  0  0  0  0  0  0  0  0  0
   12.8957    6.8111   -0.5222 C   0  0  0  0  0  0  0  0  0  0  0  0
   11.9355    8.3941   -1.7575 H   0  0  0  0  0  0  0  0  0  0  0  0
    9.6355    7.5675   -1.1800 H   0  0  0  0  0  0  0  0  0  0  0  0
   11.2730    4.4487    1.3098 H   0  0  0  0  0  0  0  0  0  0  0  0
   13.5593    5.1822    0.6857 H   0  0  0  0  0  0  0  0  0  0  0  0
    8.6784    5.4476    0.2989 N   0  0  0  0  0  0  0  0  0  0  0  0
    7.6795    5.1849    0.7002 N   0  0  0  0  0  0  0  0  0  0  0  0
   14.1895    7.2054   -0.6744 O   0  0  0  0  0  0  0  0  0  0  0  0
   14.4761    8.3642   -1.4564 C   0  0  0  0  0  0  0  0  0  0  0  0
   15.5630    8.4831   -1.4143 H   0  0  0  0  0  0  0  0  0  0  0  0
   13.9941    9.2590   -1.0355 H   0  0  0  0  0  0  0  0  0  0  0  0
   14.1649    8.2268   -2.5019 H   0  0  0  0  0  0  0  0  0  0  0  0
   11.1648    4.8173   -2.5798 O   0  0  0  0  0  0  0  0  0  0  0  0
   11.1723    3.8158   -1.8955 C   0  0  0  0  0  0  0  0  0  0  0  0
   11.2230    3.7268   -0.5710 O   0  0  0  0  0  0  0  0  0  0  0  0
   11.1324    2.7951   -2.3287 H   0  0  0  0  0  0  0  0  0  0  0  0
  1  2  2  0  0  0  0
  1  6  1  0  0  0  0
  2  3  1  0  0  0  0
  3  4  1  0  0  0  0
  4  9  1  1  0  0  0
  5  4  1  0  0  0  0
  5 10  1  0  0  0  0
  6  5  2  0  0  0  0
  7  1  1  0  0  0  0
  8  2  1  0  0  0  0
 11 12  3  0  0  0  0
 13  6  1  0  0  0  0
 14 15  1  0  0  0  0
 14 16  1  0  0  0  0
 14 13  1  0  0  0  0
 17 14  1  0  0  0  0
 18 19  2  0  0  0  0
 19 20  1  0  0  0  0
 20  4  1  0  0  0  0
 21 19  1  0  0  0  0
M  RAD  1   3   3
M  END
