Coordinates from ORCA-job p-CH3O-Ph-N2-OOCH-B3LYPG-aug-cc-pVDZ-scan-d09-49-n400
 OpenBabel11081710393D

 21 21  0  0  1  0  0  0  0  0999 V2000
   11.8241    7.8844   -1.4162 C   0  0  0  0  0  0  0  0  0  0  0  0
   10.6218    7.2478   -1.0115 C   0  0  0  0  0  0  0  0  0  0  0  0
   10.9020    6.2556   -0.0703 C   0  0  1  0  0  0  0  0  0  0  0  0
   11.2773    4.9242   -0.4021 C   0  0  2  0  0  0  0  0  0  0  0  0
   12.3996    6.0885   -0.0293 C   0  0  1  0  0  0  0  0  0  0  0  0
   12.8875    7.1422   -0.8931 C   0  0  0  0  0  0  0  0  0  0  0  0
   11.8967    8.7242   -2.1025 H   0  0  0  0  0  0  0  0  0  0  0  0
    9.6626    7.3633   -1.5133 H   0  0  0  0  0  0  0  0  0  0  0  0
   11.3895    4.1223    0.3269 H   0  0  0  0  0  0  0  0  0  0  0  0
   12.9882    5.7725    0.8290 H   0  0  0  0  0  0  0  0  0  0  0  0
    7.1411    4.7341    2.6776 N   0  0  0  0  0  0  0  0  0  0  0  0
    7.7993    5.2027    3.4303 N   0  0  0  0  0  0  0  0  0  0  0  0
   14.2133    7.4004   -0.9412 O   0  0  0  0  0  0  0  0  0  0  0  0
   14.6047    8.6085   -1.5952 C   0  0  0  0  0  0  0  0  0  0  0  0
   15.6898    8.6804   -1.4768 H   0  0  0  0  0  0  0  0  0  0  0  0
   14.1163    9.4770   -1.1281 H   0  0  0  0  0  0  0  0  0  0  0  0
   14.3508    8.5731   -2.6651 H   0  0  0  0  0  0  0  0  0  0  0  0
   12.0773    2.4478   -1.2302 O   0  0  0  0  0  0  0  0  0  0  0  0
   11.5004    3.1829   -1.9880 C   0  0  0  0  0  0  0  0  0  0  0  0
   11.0554    4.4362   -1.7070 O   0  0  0  0  0  0  0  0  0  0  0  0
   11.2408    2.9428   -3.0329 H   0  0  0  0  0  0  0  0  0  0  0  0
  1  2  1  0  0  0  0
  1  6  2  0  0  0  0
  3  2  1  6  0  0  0
  3  5  1  0  0  0  0
  4  3  1  0  0  0  0
  4  5  1  0  0  0  0
  4  9  1  1  0  0  0
  5 10  1  1  0  0  0
  6  5  1  0  0  0  0
  7  1  1  0  0  0  0
  8  2  1  0  0  0  0
 11 12  3  0  0  0  0
 13  6  1  0  0  0  0
 14 15  1  0  0  0  0
 14 16  1  0  0  0  0
 14 13  1  0  0  0  0
 17 14  1  0  0  0  0
 19 20  1  0  0  0  0
 19 18  2  0  0  0  0
 20  4  1  0  0  0  0
 21 19  1  0  0  0  0
M  RAD  2   2   2   3   2
M  END
