Coordinates from ORCA-job p-CH3O-Ph-N2-OOCH-B3LYPG-aug-cc-pVDZ-scan-d09-49-n400
 OpenBabel11081710393D

 21 21  0  0  1  0  0  0  0  0999 V2000
   11.7962    7.8682   -1.4004 C   0  0  0  0  0  0  0  0  0  0  0  0
   10.5950    7.2222   -1.0077 C   0  0  0  0  0  0  0  0  0  0  0  0
   10.8742    6.2262   -0.0703 C   0  0  1  0  0  0  0  0  0  0  0  0
   11.2599    4.8992   -0.4075 C   0  0  2  0  0  0  0  0  0  0  0  0
   12.3727    6.0676   -0.0200 C   0  0  1  0  0  0  0  0  0  0  0  0
   12.8602    7.1291   -0.8742 C   0  0  0  0  0  0  0  0  0  0  0  0
   11.8685    8.7123   -2.0814 H   0  0  0  0  0  0  0  0  0  0  0  0
    9.6386    7.3352   -1.5154 H   0  0  0  0  0  0  0  0  0  0  0  0
   11.3714    4.0936    0.3174 H   0  0  0  0  0  0  0  0  0  0  0  0
   12.9577    5.7500    0.8402 H   0  0  0  0  0  0  0  0  0  0  0  0
    7.3859    4.8768    2.5368 N   0  0  0  0  0  0  0  0  0  0  0  0
    7.9502    5.3339    3.3688 N   0  0  0  0  0  0  0  0  0  0  0  0
   14.1848    7.3954   -0.9116 O   0  0  0  0  0  0  0  0  0  0  0  0
   14.5736    8.6096   -1.5557 C   0  0  0  0  0  0  0  0  0  0  0  0
   15.6574    8.6871   -1.4293 H   0  0  0  0  0  0  0  0  0  0  0  0
   14.0769    9.4725   -1.0871 H   0  0  0  0  0  0  0  0  0  0  0  0
   14.3275    8.5789   -2.6276 H   0  0  0  0  0  0  0  0  0  0  0  0
   12.0799    2.4324   -1.2446 O   0  0  0  0  0  0  0  0  0  0  0  0
   11.5043    3.1688   -2.0022 C   0  0  0  0  0  0  0  0  0  0  0  0
   11.0503    4.4180   -1.7169 O   0  0  0  0  0  0  0  0  0  0  0  0
   11.2535    2.9336   -3.0504 H   0  0  0  0  0  0  0  0  0  0  0  0
  1  2  1  0  0  0  0
  1  6  2  0  0  0  0
  3  2  1  6  0  0  0
  3  5  1  0  0  0  0
  4  3  1  0  0  0  0
  4  5  1  0  0  0  0
  4  9  1  1  0  0  0
  5 10  1  1  0  0  0
  6  5  1  0  0  0  0
  7  1  1  0  0  0  0
  8  2  1  0  0  0  0
 11 12  3  0  0  0  0
 13  6  1  0  0  0  0
 14 15  1  0  0  0  0
 14 16  1  0  0  0  0
 14 13  1  0  0  0  0
 17 14  1  0  0  0  0
 19 20  1  0  0  0  0
 19 18  2  0  0  0  0
 20  4  1  0  0  0  0
 21 19  1  0  0  0  0
M  RAD  2   2   2   3   2
M  END
