Coordinates from ORCA-job p-CH3O-Ph-N2-OOCH-B3LYPG-aug-cc-pVDZ-scan-d09-49-n400
 OpenBabel11081710393D

 21 21  0  0  1  0  0  0  0  0999 V2000
   11.8047    7.8739   -1.4046 C   0  0  0  0  0  0  0  0  0  0  0  0
   10.6029    7.2300   -1.0086 C   0  0  0  0  0  0  0  0  0  0  0  0
   10.8834    6.2344   -0.0709 C   0  0  1  0  0  0  0  0  0  0  0  0
   11.2654    4.9056   -0.4059 C   0  0  2  0  0  0  0  0  0  0  0  0
   12.3812    6.0738   -0.0229 C   0  0  1  0  0  0  0  0  0  0  0  0
   12.8688    7.1336   -0.8799 C   0  0  0  0  0  0  0  0  0  0  0  0
   11.8769    8.7173   -2.0865 H   0  0  0  0  0  0  0  0  0  0  0  0
    9.6456    7.3434   -1.5143 H   0  0  0  0  0  0  0  0  0  0  0  0
   11.3776    4.1015    0.3205 H   0  0  0  0  0  0  0  0  0  0  0  0
   12.9668    5.7565    0.8369 H   0  0  0  0  0  0  0  0  0  0  0  0
    7.3139    4.8345    2.5766 N   0  0  0  0  0  0  0  0  0  0  0  0
    7.9062    5.2964    3.3853 N   0  0  0  0  0  0  0  0  0  0  0  0
   14.1937    7.3976   -0.9206 O   0  0  0  0  0  0  0  0  0  0  0  0
   14.5829    8.6103   -1.5673 C   0  0  0  0  0  0  0  0  0  0  0  0
   15.6672    8.6863   -1.4436 H   0  0  0  0  0  0  0  0  0  0  0  0
   14.0887    9.4746   -1.0986 H   0  0  0  0  0  0  0  0  0  0  0  0
   14.3341    8.5787   -2.6385 H   0  0  0  0  0  0  0  0  0  0  0  0
   12.0779    2.4351   -1.2401 O   0  0  0  0  0  0  0  0  0  0  0  0
   11.5033    3.1717   -1.9982 C   0  0  0  0  0  0  0  0  0  0  0  0
   11.0512    4.4219   -1.7137 O   0  0  0  0  0  0  0  0  0  0  0  0
   11.2464    2.9337   -3.0442 H   0  0  0  0  0  0  0  0  0  0  0  0
  1  2  1  0  0  0  0
  1  6  2  0  0  0  0
  3  2  1  6  0  0  0
  3  5  1  0  0  0  0
  4  3  1  0  0  0  0
  4  5  1  0  0  0  0
  4  9  1  1  0  0  0
  5 10  1  1  0  0  0
  6  5  1  0  0  0  0
  7  1  1  0  0  0  0
  8  2  1  0  0  0  0
 11 12  3  0  0  0  0
 13  6  1  0  0  0  0
 14 15  1  0  0  0  0
 14 16  1  0  0  0  0
 14 13  1  0  0  0  0
 17 14  1  0  0  0  0
 19 20  1  0  0  0  0
 19 18  2  0  0  0  0
 20  4  1  0  0  0  0
 21 19  1  0  0  0  0
M  RAD  2   2   2   3   2
M  END
