Coordinates from ORCA-job p-CH3O-Ph-N2-OOCH-B3LYPG-aug-cc-pVDZ-scan-d09-49-n400
 OpenBabel11081710393D

 21 21  0  0  1  0  0  0  0  0999 V2000
   11.6499    7.7885   -1.3564 C   0  0  0  0  0  0  0  0  0  0  0  0
   10.4418    7.1070   -1.0564 C   0  0  0  0  0  0  0  0  0  0  0  0
   10.6805    6.1011   -0.1181 C   0  0  1  0  0  0  0  0  0  0  0  0
   11.1239    4.7922   -0.4506 C   0  0  2  0  0  0  0  0  0  0  0  0
   12.1773    5.9773    0.0297 C   0  0  1  0  0  0  0  0  0  0  0  0
   12.6944    7.0665   -0.7709 C   0  0  0  0  0  0  0  0  0  0  0  0
   11.7464    8.6461   -2.0173 H   0  0  0  0  0  0  0  0  0  0  0  0
    9.5191    7.2072   -1.6254 H   0  0  0  0  0  0  0  0  0  0  0  0
   11.2051    3.9763    0.2672 H   0  0  0  0  0  0  0  0  0  0  0  0
   12.7128    5.6578    0.9210 H   0  0  0  0  0  0  0  0  0  0  0  0
    8.7079    5.6534    1.8965 N   0  0  0  0  0  0  0  0  0  0  0  0
    9.0344    5.8739    2.9291 N   0  0  0  0  0  0  0  0  0  0  0  0
   14.0107    7.3671   -0.7104 O   0  0  0  0  0  0  0  0  0  0  0  0
   14.4111    8.6024   -1.3054 C   0  0  0  0  0  0  0  0  0  0  0  0
   15.4810    8.7050   -1.1020 H   0  0  0  0  0  0  0  0  0  0  0  0
   13.8602    9.4436   -0.8584 H   0  0  0  0  0  0  0  0  0  0  0  0
   14.2411    8.5853   -2.3922 H   0  0  0  0  0  0  0  0  0  0  0  0
   12.0620    2.3618   -1.2694 O   0  0  0  0  0  0  0  0  0  0  0  0
   11.5196    3.0968   -2.0525 C   0  0  0  0  0  0  0  0  0  0  0  0
   11.0146    4.3286   -1.7788 O   0  0  0  0  0  0  0  0  0  0  0  0
   11.3448    2.8730   -3.1184 H   0  0  0  0  0  0  0  0  0  0  0  0
  1  2  1  0  0  0  0
  1  6  2  0  0  0  0
  3  2  1  6  0  0  0
  3  5  1  0  0  0  0
  4  3  1  0  0  0  0
  4  5  1  0  0  0  0
  4  9  1  1  0  0  0
  5 10  1  1  0  0  0
  6 13  1  0  0  0  0
  6  5  1  0  0  0  0
  7  1  1  0  0  0  0
  8  2  1  0  0  0  0
 11 12  3  0  0  0  0
 14 15  1  0  0  0  0
 14 16  1  0  0  0  0
 14 13  1  0  0  0  0
 17 14  1  0  0  0  0
 19 20  1  0  0  0  0
 19 18  2  0  0  0  0
 20  4  1  0  0  0  0
 21 19  1  0  0  0  0
M  RAD  2   2   2   3   2
M  END
