Coordinates from ORCA-job p-CH3O-Ph-N2-OOCH-B3LYPG-aug-cc-pVDZ-scan-d09-49-n400
 OpenBabel11081710393D

 21 21  0  0  1  0  0  0  0  0999 V2000
   11.5861    7.7493   -1.3139 C   0  0  0  0  0  0  0  0  0  0  0  0
   10.3767    7.0724   -1.0137 C   0  0  0  0  0  0  0  0  0  0  0  0
   10.6087    6.0585   -0.0765 C   0  0  1  0  0  0  0  0  0  0  0  0
   11.0886    4.7617   -0.4237 C   0  0  2  0  0  0  0  0  0  0  0  0
   12.1113    5.9320    0.0676 C   0  0  1  0  0  0  0  0  0  0  0  0
   12.6301    7.0319   -0.7252 C   0  0  0  0  0  0  0  0  0  0  0  0
   11.6818    8.6088   -1.9725 H   0  0  0  0  0  0  0  0  0  0  0  0
    9.4480    7.1894   -1.5698 H   0  0  0  0  0  0  0  0  0  0  0  0
   11.1539    3.9366    0.2863 H   0  0  0  0  0  0  0  0  0  0  0  0
   12.6412    5.6233    0.9663 H   0  0  0  0  0  0  0  0  0  0  0  0
    9.1874    5.9047    1.4932 N   0  0  0  0  0  0  0  0  0  0  0  0
    9.5086    6.0740    2.5462 N   0  0  0  0  0  0  0  0  0  0  0  0
   13.9421    7.3408   -0.6445 O   0  0  0  0  0  0  0  0  0  0  0  0
   14.3432    8.5806   -1.2310 C   0  0  0  0  0  0  0  0  0  0  0  0
   15.4098    8.6883   -1.0137 H   0  0  0  0  0  0  0  0  0  0  0  0
   13.7814    9.4167   -0.7882 H   0  0  0  0  0  0  0  0  0  0  0  0
   14.1868    8.5650   -2.3197 H   0  0  0  0  0  0  0  0  0  0  0  0
   12.0981    2.3780   -1.2792 O   0  0  0  0  0  0  0  0  0  0  0  0
   11.5269    3.1035   -2.0509 C   0  0  0  0  0  0  0  0  0  0  0  0
   10.9801    4.3119   -1.7592 O   0  0  0  0  0  0  0  0  0  0  0  0
   11.3479    2.8832   -3.1169 H   0  0  0  0  0  0  0  0  0  0  0  0
  1  2  1  0  0  0  0
  1  6  2  0  0  0  0
  3  2  1  6  0  0  0
  3  5  1  0  0  0  0
  4  3  1  0  0  0  0
  4  5  1  0  0  0  0
  4  9  1  1  0  0  0
  5 10  1  1  0  0  0
  6 13  1  0  0  0  0
  6  5  1  0  0  0  0
  7  1  1  0  0  0  0
  8  2  1  0  0  0  0
 11 12  3  0  0  0  0
 14 15  1  0  0  0  0
 14 16  1  0  0  0  0
 14 13  1  0  0  0  0
 17 14  1  0  0  0  0
 19 20  1  0  0  0  0
 19 18  2  0  0  0  0
 20  4  1  0  0  0  0
 21 19  1  0  0  0  0
M  RAD  2   2   2   3   2
M  END
