Coordinates from ORCA-job p-CH3O-Ph-N2-OOCH-B3LYPG-aug-cc-pVDZ-scan-d09-49-n400
 OpenBabel11081710393D

 21 21  0  0  1  0  0  0  0  0999 V2000
   11.6646    7.7971   -1.3620 C   0  0  0  0  0  0  0  0  0  0  0  0
   10.4566    7.1169   -1.0563 C   0  0  0  0  0  0  0  0  0  0  0  0
   10.6997    6.1104   -0.1205 C   0  0  1  0  0  0  0  0  0  0  0  0
   11.1383    4.7996   -0.4523 C   0  0  2  0  0  0  0  0  0  0  0  0
   12.1964    5.9847    0.0212 C   0  0  1  0  0  0  0  0  0  0  0  0
   12.7109    7.0730   -0.7826 C   0  0  0  0  0  0  0  0  0  0  0  0
   11.7589    8.6549   -2.0229 H   0  0  0  0  0  0  0  0  0  0  0  0
    9.5321    7.2180   -1.6221 H   0  0  0  0  0  0  0  0  0  0  0  0
   11.2218    3.9850    0.2667 H   0  0  0  0  0  0  0  0  0  0  0  0
   12.7348    5.6657    0.9108 H   0  0  0  0  0  0  0  0  0  0  0  0
    8.5860    5.5775    1.9773 N   0  0  0  0  0  0  0  0  0  0  0  0
    8.9082    5.8382    3.0014 N   0  0  0  0  0  0  0  0  0  0  0  0
   14.0282    7.3707   -0.7304 O   0  0  0  0  0  0  0  0  0  0  0  0
   14.4273    8.6055   -1.3275 C   0  0  0  0  0  0  0  0  0  0  0  0
   15.4987    8.7059   -1.1309 H   0  0  0  0  0  0  0  0  0  0  0  0
   13.8809    9.4477   -0.8769 H   0  0  0  0  0  0  0  0  0  0  0  0
   14.2505    8.5891   -2.4133 H   0  0  0  0  0  0  0  0  0  0  0  0
   12.0618    2.3630   -1.2699 O   0  0  0  0  0  0  0  0  0  0  0  0
   11.5206    3.0995   -2.0525 C   0  0  0  0  0  0  0  0  0  0  0  0
   11.0222    4.3341   -1.7792 O   0  0  0  0  0  0  0  0  0  0  0  0
   11.3403    2.8744   -3.1172 H   0  0  0  0  0  0  0  0  0  0  0  0
  1  2  1  0  0  0  0
  1  6  2  0  0  0  0
  3  2  1  6  0  0  0
  3  5  1  0  0  0  0
  4  3  1  0  0  0  0
  4  5  1  0  0  0  0
  4  9  1  1  0  0  0
  5 10  1  1  0  0  0
  6 13  1  0  0  0  0
  6  5  1  0  0  0  0
  7  1  1  0  0  0  0
  8  2  1  0  0  0  0
 11 12  3  0  0  0  0
 14 15  1  0  0  0  0
 14 16  1  0  0  0  0
 14 13  1  0  0  0  0
 17 14  1  0  0  0  0
 19 20  1  0  0  0  0
 19 18  2  0  0  0  0
 20  4  1  0  0  0  0
 21 19  1  0  0  0  0
M  RAD  2   2   2   3   2
M  END
