Coordinates from ORCA-job p-CH3O-Ph-N2-OOCH-B3LYPG-aug-cc-pVDZ-scan-d09-49-n400
 OpenBabel11081710393D

 21 21  0  0  1  0  0  0  0  0999 V2000
   11.7827    7.8616   -1.3952 C   0  0  0  0  0  0  0  0  0  0  0  0
   10.5806    7.2102   -1.0126 C   0  0  0  0  0  0  0  0  0  0  0  0
   10.8580    6.2120   -0.0790 C   0  0  1  0  0  0  0  0  0  0  0  0
   11.2478    4.8865   -0.4140 C   0  0  2  0  0  0  0  0  0  0  0  0
   12.3557    6.0581   -0.0176 C   0  0  1  0  0  0  0  0  0  0  0  0
   12.8457    7.1239   -0.8651 C   0  0  0  0  0  0  0  0  0  0  0  0
   11.8567    8.7087   -2.0724 H   0  0  0  0  0  0  0  0  0  0  0  0
    9.6267    7.3208   -1.5255 H   0  0  0  0  0  0  0  0  0  0  0  0
   11.3566    4.0806    0.3110 H   0  0  0  0  0  0  0  0  0  0  0  0
   12.9355    5.7397    0.8458 H   0  0  0  0  0  0  0  0  0  0  0  0
    7.5198    4.9489    2.4748 N   0  0  0  0  0  0  0  0  0  0  0  0
    8.0407    5.3984    3.3384 N   0  0  0  0  0  0  0  0  0  0  0  0
   14.1697    7.3942   -0.8935 O   0  0  0  0  0  0  0  0  0  0  0  0
   14.5586    8.6118   -1.5309 C   0  0  0  0  0  0  0  0  0  0  0  0
   15.6415    8.6922   -1.3978 H   0  0  0  0  0  0  0  0  0  0  0  0
   14.0565    9.4715   -1.0622 H   0  0  0  0  0  0  0  0  0  0  0  0
   14.3189    8.5843   -2.6043 H   0  0  0  0  0  0  0  0  0  0  0  0
   12.0743    2.4206   -1.2472 O   0  0  0  0  0  0  0  0  0  0  0  0
   11.5057    3.1581   -2.0088 C   0  0  0  0  0  0  0  0  0  0  0  0
   11.0476    4.4062   -1.7252 O   0  0  0  0  0  0  0  0  0  0  0  0
   11.2593    2.9224   -3.0579 H   0  0  0  0  0  0  0  0  0  0  0  0
  1  2  1  0  0  0  0
  1  6  2  0  0  0  0
  3  2  1  6  0  0  0
  3  5  1  0  0  0  0
  4  3  1  0  0  0  0
  4  5  1  0  0  0  0
  4  9  1  1  0  0  0
  5 10  1  1  0  0  0
  6  5  1  0  0  0  0
  7  1  1  0  0  0  0
  8  2  1  0  0  0  0
 11 12  3  0  0  0  0
 13  6  1  0  0  0  0
 14 15  1  0  0  0  0
 14 16  1  0  0  0  0
 14 13  1  0  0  0  0
 17 14  1  0  0  0  0
 19 20  1  0  0  0  0
 19 18  2  0  0  0  0
 20  4  1  0  0  0  0
 21 19  1  0  0  0  0
M  RAD  2   2   2   3   2
M  END
