Coordinates from ORCA-job p-CH3O-Ph-N2-OOCH-B3LYPG-aug-cc-pVDZ-scan-d09-49-n400
 OpenBabel11081710393D

 21 21  0  0  1  0  0  0  0  0999 V2000
   11.7572    7.5389   -1.0951 C   0  0  0  0  0  0  0  0  0  0  0  0
   10.4870    7.1521   -0.8214 C   0  0  0  0  0  0  0  0  0  0  0  0
   10.2390    5.9534   -0.0564 C   0  0  0  0  0  0  0  0  0  0  0  0
   11.3458    4.9840    0.2784 C   0  0  2  0  0  0  0  0  0  0  0  0
   12.6860    5.5888    0.0804 C   0  0  0  0  0  0  0  0  0  0  0  0
   12.8744    6.7539   -0.5934 C   0  0  0  0  0  0  0  0  0  0  0  0
   11.9259    8.4340   -1.6854 H   0  0  0  0  0  0  0  0  0  0  0  0
    9.6322    7.7294   -1.1719 H   0  0  0  0  0  0  0  0  0  0  0  0
   11.2238    4.5923    1.2950 H   0  0  0  0  0  0  0  0  0  0  0  0
   13.5465    5.0505    0.4734 H   0  0  0  0  0  0  0  0  0  0  0  0
    9.0611    5.6709    0.3284 N   0  0  0  0  0  0  0  0  0  0  0  0
    8.0093    5.3948    0.6827 N   0  0  0  0  0  0  0  0  0  0  0  0
   14.1664    7.1676   -0.7582 O   0  0  0  0  0  0  0  0  0  0  0  0
   14.4309    8.4304   -1.3656 C   0  0  0  0  0  0  0  0  0  0  0  0
   15.5188    8.5454   -1.3343 H   0  0  0  0  0  0  0  0  0  0  0  0
   13.9631    9.2541   -0.8061 H   0  0  0  0  0  0  0  0  0  0  0  0
   14.0968    8.4520   -2.4135 H   0  0  0  0  0  0  0  0  0  0  0  0
   11.1792    4.6028   -2.5507 O   0  0  0  0  0  0  0  0  0  0  0  0
   11.1721    3.6509   -1.8073 C   0  0  0  0  0  0  0  0  0  0  0  0
   11.2003    3.6643   -0.4670 O   0  0  0  0  0  0  0  0  0  0  0  0
   11.1229    2.6002   -2.1514 H   0  0  0  0  0  0  0  0  0  0  0  0
  1  2  1  0  0  0  0
  1  6  2  0  0  0  0
  2  3  2  0  0  0  0
  3  4  1  0  0  0  0
  3 11  1  0  0  0  0
  4  9  1  1  0  0  0
  5  4  1  0  0  0  0
  5 10  1  0  0  0  0
  6  5  1  0  0  0  0
  7  1  1  0  0  0  0
  8  2  1  0  0  0  0
 11 12  1  0  0  0  0
 13  6  1  0  0  0  0
 14 15  1  0  0  0  0
 14 16  1  0  0  0  0
 14 13  1  0  0  0  0
 17 14  1  0  0  0  0
 18 19  2  0  0  0  0
 19 20  1  0  0  0  0
 20  4  1  0  0  0  0
 21 19  1  0  0  0  0
M  RAD  3   5   2  11   2  12   3
M  END
