Coordinates from ORCA-job p-CH3O-Ph-N2-OOCH-B3LYPG-aug-cc-pVDZ-scan-d09-49-n400
 OpenBabel11081710393D

 21 21  0  0  1  0  0  0  0  0999 V2000
   11.7560    7.5383   -1.0950 C   0  0  0  0  0  0  0  0  0  0  0  0
   10.4859    7.1516   -0.8225 C   0  0  0  0  0  0  0  0  0  0  0  0
   10.2346    5.9519   -0.0563 C   0  0  0  0  0  0  0  0  0  0  0  0
   11.3449    4.9833    0.2781 C   0  0  2  0  0  0  0  0  0  0  0  0
   12.6852    5.5878    0.0794 C   0  0  0  0  0  0  0  0  0  0  0  0
   12.8735    6.7533   -0.5934 C   0  0  0  0  0  0  0  0  0  0  0  0
   11.9250    8.4336   -1.6852 H   0  0  0  0  0  0  0  0  0  0  0  0
    9.6316    7.7288   -1.1740 H   0  0  0  0  0  0  0  0  0  0  0  0
   11.2232    4.5933    1.2955 H   0  0  0  0  0  0  0  0  0  0  0  0
   13.5456    5.0491    0.4719 H   0  0  0  0  0  0  0  0  0  0  0  0
    9.0757    5.6740    0.3235 N   0  0  0  0  0  0  0  0  0  0  0  0
    8.0229    5.3979    0.6792 N   0  0  0  0  0  0  0  0  0  0  0  0
   14.1654    7.1674   -0.7581 O   0  0  0  0  0  0  0  0  0  0  0  0
   14.4297    8.4310   -1.3641 C   0  0  0  0  0  0  0  0  0  0  0  0
   15.5176    8.5462   -1.3323 H   0  0  0  0  0  0  0  0  0  0  0  0
   13.9616    9.2539   -0.8037 H   0  0  0  0  0  0  0  0  0  0  0  0
   14.0959    8.4537   -2.4120 H   0  0  0  0  0  0  0  0  0  0  0  0
   11.1747    4.6020   -2.5494 O   0  0  0  0  0  0  0  0  0  0  0  0
   11.1681    3.6503   -1.8059 C   0  0  0  0  0  0  0  0  0  0  0  0
   11.1992    3.6641   -0.4655 O   0  0  0  0  0  0  0  0  0  0  0  0
   11.1224    2.5992   -2.1495 H   0  0  0  0  0  0  0  0  0  0  0  0
  1  2  1  0  0  0  0
  1  6  2  0  0  0  0
  2  3  2  0  0  0  0
  3  4  1  0  0  0  0
  3 11  1  0  0  0  0
  4  9  1  1  0  0  0
  5  4  1  0  0  0  0
  5 10  1  0  0  0  0
  6  5  1  0  0  0  0
  7  1  1  0  0  0  0
  8  2  1  0  0  0  0
 11 12  1  0  0  0  0
 13  6  1  0  0  0  0
 14 15  1  0  0  0  0
 14 16  1  0  0  0  0
 14 13  1  0  0  0  0
 17 14  1  0  0  0  0
 18 19  2  0  0  0  0
 19 20  1  0  0  0  0
 20  4  1  0  0  0  0
 21 19  1  0  0  0  0
M  RAD  3   5   2  11   2  12   3
M  END
