Coordinates from ORCA-job p-CH3O-Ph-N2-OOCH-B3LYPG-aug-cc-pVDZ-scan-d09-49-n400
 OpenBabel11081710393D

 21 21  0  0  1  0  0  0  0  0999 V2000
   11.6823    7.8048   -1.3683 C   0  0  0  0  0  0  0  0  0  0  0  0
   10.4753    7.1277   -1.0523 C   0  0  0  0  0  0  0  0  0  0  0  0
   10.7236    6.1223   -0.1167 C   0  0  1  0  0  0  0  0  0  0  0  0
   11.1560    4.8098   -0.4510 C   0  0  2  0  0  0  0  0  0  0  0  0
   12.2208    5.9937    0.0137 C   0  0  1  0  0  0  0  0  0  0  0  0
   12.7315    7.0793   -0.7957 C   0  0  0  0  0  0  0  0  0  0  0  0
   11.7734    8.6613   -2.0313 H   0  0  0  0  0  0  0  0  0  0  0  0
    9.5467    7.2298   -1.6111 H   0  0  0  0  0  0  0  0  0  0  0  0
   11.2440    3.9955    0.2676 H   0  0  0  0  0  0  0  0  0  0  0  0
   12.7653    5.6742    0.8993 H   0  0  0  0  0  0  0  0  0  0  0  0
    8.4303    5.4792    2.0737 N   0  0  0  0  0  0  0  0  0  0  0  0
    8.7478    5.7996    3.0815 N   0  0  0  0  0  0  0  0  0  0  0  0
   14.0499    7.3740   -0.7548 O   0  0  0  0  0  0  0  0  0  0  0  0
   14.4472    8.6067   -1.3572 C   0  0  0  0  0  0  0  0  0  0  0  0
   15.5204    8.7048   -1.1694 H   0  0  0  0  0  0  0  0  0  0  0  0
   13.9065    9.4510   -0.9037 H   0  0  0  0  0  0  0  0  0  0  0  0
   14.2616    8.5889   -2.4415 H   0  0  0  0  0  0  0  0  0  0  0  0
   12.0699    2.3718   -1.2752 O   0  0  0  0  0  0  0  0  0  0  0  0
   11.5225    3.1083   -2.0533 C   0  0  0  0  0  0  0  0  0  0  0  0
   11.0289    4.3442   -1.7766 O   0  0  0  0  0  0  0  0  0  0  0  0
   11.3349    2.8839   -3.1169 H   0  0  0  0  0  0  0  0  0  0  0  0
  1  2  1  0  0  0  0
  1  6  2  0  0  0  0
  3  2  1  6  0  0  0
  3  5  1  0  0  0  0
  4  3  1  0  0  0  0
  4  5  1  0  0  0  0
  4  9  1  1  0  0  0
  5 10  1  1  0  0  0
  6 13  1  0  0  0  0
  6  5  1  0  0  0  0
  7  1  1  0  0  0  0
  8  2  1  0  0  0  0
 11 12  3  0  0  0  0
 14 15  1  0  0  0  0
 14 16  1  0  0  0  0
 14 13  1  0  0  0  0
 17 14  1  0  0  0  0
 19 20  1  0  0  0  0
 19 18  2  0  0  0  0
 20  4  1  0  0  0  0
 21 19  1  0  0  0  0
M  RAD  2   2   2   3   2
M  END
