Coordinates from ORCA-job p-CH3O-Ph-N2-OOCH-B3LYPG-aug-cc-pVDZ-scan-d09-49-n400
 OpenBabel11081710393D

 21 21  0  0  1  0  0  0  0  0999 V2000
   11.6721    7.8006   -1.3646 C   0  0  0  0  0  0  0  0  0  0  0  0
   10.4645    7.1215   -1.0549 C   0  0  0  0  0  0  0  0  0  0  0  0
   10.7100    6.1153   -0.1198 C   0  0  1  0  0  0  0  0  0  0  0  0
   11.1456    4.8036   -0.4521 C   0  0  2  0  0  0  0  0  0  0  0  0
   12.2067    5.9884    0.0174 C   0  0  1  0  0  0  0  0  0  0  0  0
   12.7197    7.0758   -0.7885 C   0  0  0  0  0  0  0  0  0  0  0  0
   11.7650    8.6582   -2.0260 H   0  0  0  0  0  0  0  0  0  0  0  0
    9.5383    7.2231   -1.6179 H   0  0  0  0  0  0  0  0  0  0  0  0
   11.2310    3.9894    0.2670 H   0  0  0  0  0  0  0  0  0  0  0  0
   12.7476    5.6691    0.9054 H   0  0  0  0  0  0  0  0  0  0  0  0
    8.5197    5.5367    2.0190 N   0  0  0  0  0  0  0  0  0  0  0  0
    8.8404    5.8220    3.0366 N   0  0  0  0  0  0  0  0  0  0  0  0
   14.0375    7.3722   -0.7410 O   0  0  0  0  0  0  0  0  0  0  0  0
   14.4358    8.6063   -1.3399 C   0  0  0  0  0  0  0  0  0  0  0  0
   15.5080    8.7057   -1.1470 H   0  0  0  0  0  0  0  0  0  0  0  0
   13.8918    9.4492   -0.8876 H   0  0  0  0  0  0  0  0  0  0  0  0
   14.2552    8.5897   -2.4250 H   0  0  0  0  0  0  0  0  0  0  0  0
   12.0654    2.3663   -1.2720 O   0  0  0  0  0  0  0  0  0  0  0  0
   11.5208    3.1023   -2.0527 C   0  0  0  0  0  0  0  0  0  0  0  0
   11.0247    4.3377   -1.7783 O   0  0  0  0  0  0  0  0  0  0  0  0
   11.3388    2.8778   -3.1172 H   0  0  0  0  0  0  0  0  0  0  0  0
  1  2  1  0  0  0  0
  1  6  2  0  0  0  0
  3  2  1  6  0  0  0
  3  5  1  0  0  0  0
  4  3  1  0  0  0  0
  4  5  1  0  0  0  0
  4  9  1  1  0  0  0
  5 10  1  1  0  0  0
  6 13  1  0  0  0  0
  6  5  1  0  0  0  0
  7  1  1  0  0  0  0
  8  2  1  0  0  0  0
 11 12  3  0  0  0  0
 14 15  1  0  0  0  0
 14 16  1  0  0  0  0
 14 13  1  0  0  0  0
 17 14  1  0  0  0  0
 19 20  1  0  0  0  0
 19 18  2  0  0  0  0
 20  4  1  0  0  0  0
 21 19  1  0  0  0  0
M  RAD  2   2   2   3   2
M  END
