Coordinates from ORCA-job p-CH3O-Ph-N2-OOCH-B3LYPG-aug-cc-pVDZ-scan-d09-49-n400
 OpenBabel11081710393D

 21 21  0  0  1  0  0  0  0  0999 V2000
   11.7668    7.5544   -1.0922 C   0  0  0  0  0  0  0  0  0  0  0  0
   10.4912    7.1673   -0.7967 C   0  0  0  0  0  0  0  0  0  0  0  0
   10.3074    5.9807   -0.0455 C   0  0  2  0  0  0  0  0  0  0  0  0
   11.3512    4.9913    0.2934 C   0  0  2  0  0  0  0  0  0  0  0  0
   12.6863    5.6061    0.1054 C   0  0  0  0  0  0  0  0  0  0  0  0
   12.8738    6.7661   -0.5897 C   0  0  0  0  0  0  0  0  0  0  0  0
   11.9323    8.4464   -1.6870 H   0  0  0  0  0  0  0  0  0  0  0  0
    9.6295    7.7436   -1.1281 H   0  0  0  0  0  0  0  0  0  0  0  0
   11.2254    4.5606    1.2923 H   0  0  0  0  0  0  0  0  0  0  0  0
   13.5491    5.0802    0.5092 H   0  0  0  0  0  0  0  0  0  0  0  0
    8.9168    5.6410    0.3730 N   0  0  0  0  0  0  0  0  0  0  0  0
    7.8732    5.3552    0.6968 N   0  0  0  0  0  0  0  0  0  0  0  0
   14.1702    7.1676   -0.7568 O   0  0  0  0  0  0  0  0  0  0  0  0
   14.4423    8.4143   -1.3914 C   0  0  0  0  0  0  0  0  0  0  0  0
   15.5312    8.5217   -1.3681 H   0  0  0  0  0  0  0  0  0  0  0  0
   13.9831    9.2533   -0.8473 H   0  0  0  0  0  0  0  0  0  0  0  0
   14.1021    8.4165   -2.4377 H   0  0  0  0  0  0  0  0  0  0  0  0
   11.2415    4.6171   -2.5638 O   0  0  0  0  0  0  0  0  0  0  0  0
   11.2061    3.6588   -1.8266 C   0  0  0  0  0  0  0  0  0  0  0  0
   11.2062    3.6558   -0.4899 O   0  0  0  0  0  0  0  0  0  0  0  0
   11.1531    2.6127   -2.1883 H   0  0  0  0  0  0  0  0  0  0  0  0
  1  2  2  0  0  0  0
  1  6  1  0  0  0  0
  2  3  1  0  0  0  0
  3  4  1  0  0  0  0
  3 11  1  6  0  0  0
  4  9  1  1  0  0  0
  5  4  1  0  0  0  0
  5 10  1  0  0  0  0
  6  5  2  0  0  0  0
  7  1  1  0  0  0  0
  8  2  1  0  0  0  0
 11 12  1  0  0  0  0
 13  6  1  0  0  0  0
 14 15  1  0  0  0  0
 14 16  1  0  0  0  0
 14 13  1  0  0  0  0
 17 14  1  0  0  0  0
 18 19  2  0  0  0  0
 19 20  1  0  0  0  0
 20  4  1  0  0  0  0
 21 19  1  0  0  0  0
M  RAD  3   3   2  11   2  12   3
M  END
