Coordinates from ORCA-job p-CH3O-Ph-N2-OOCH-B3LYPG-aug-cc-pVDZ-scan-d09-49-n400
 OpenBabel11081710393D

 21 21  0  0  1  0  0  0  0  0999 V2000
   11.8065    7.8752   -1.4055 C   0  0  0  0  0  0  0  0  0  0  0  0
   10.6046    7.2319   -1.0090 C   0  0  0  0  0  0  0  0  0  0  0  0
   10.8851    6.2361   -0.0710 C   0  0  1  0  0  0  0  0  0  0  0  0
   11.2661    4.9069   -0.4055 C   0  0  2  0  0  0  0  0  0  0  0  0
   12.3831    6.0752   -0.0236 C   0  0  1  0  0  0  0  0  0  0  0  0
   12.8706    7.1346   -0.8812 C   0  0  0  0  0  0  0  0  0  0  0  0
   11.8787    8.7186   -2.0874 H   0  0  0  0  0  0  0  0  0  0  0  0
    9.6472    7.3455   -1.5145 H   0  0  0  0  0  0  0  0  0  0  0  0
   11.3788    4.1034    0.3214 H   0  0  0  0  0  0  0  0  0  0  0  0
   12.9690    5.7577    0.8360 H   0  0  0  0  0  0  0  0  0  0  0  0
    7.2997    4.8252    2.5844 N   0  0  0  0  0  0  0  0  0  0  0  0
    7.8971    5.2884    3.3884 N   0  0  0  0  0  0  0  0  0  0  0  0
   14.1957    7.3981   -0.9226 O   0  0  0  0  0  0  0  0  0  0  0  0
   14.5849    8.6106   -1.5696 C   0  0  0  0  0  0  0  0  0  0  0  0
   15.6693    8.6862   -1.4465 H   0  0  0  0  0  0  0  0  0  0  0  0
   14.0913    9.4752   -1.1007 H   0  0  0  0  0  0  0  0  0  0  0  0
   14.3355    8.5789   -2.6407 H   0  0  0  0  0  0  0  0  0  0  0  0
   12.0775    2.4356   -1.2389 O   0  0  0  0  0  0  0  0  0  0  0  0
   11.5023    3.1718   -1.9969 C   0  0  0  0  0  0  0  0  0  0  0  0
   11.0509    4.4223   -1.7128 O   0  0  0  0  0  0  0  0  0  0  0  0
   11.2449    2.9334   -3.0427 H   0  0  0  0  0  0  0  0  0  0  0  0
  1  2  1  0  0  0  0
  1  6  2  0  0  0  0
  3  2  1  6  0  0  0
  3  5  1  0  0  0  0
  4  3  1  0  0  0  0
  4  5  1  0  0  0  0
  4  9  1  1  0  0  0
  5 10  1  1  0  0  0
  6  5  1  0  0  0  0
  7  1  1  0  0  0  0
  8  2  1  0  0  0  0
 11 12  3  0  0  0  0
 13  6  1  0  0  0  0
 14 15  1  0  0  0  0
 14 16  1  0  0  0  0
 14 13  1  0  0  0  0
 17 14  1  0  0  0  0
 19 20  1  0  0  0  0
 19 18  2  0  0  0  0
 20  4  1  0  0  0  0
 21 19  1  0  0  0  0
M  RAD  2   2   2   3   2
M  END
