Coordinates from ORCA-job p-CH3O-Ph-N2-OOCH-B3LYPG-aug-cc-pVDZ-scan-d09-49-n400
 OpenBabel11081710393D

 21 21  0  0  1  0  0  0  0  0999 V2000
   11.7515    7.5328   -1.0924 C   0  0  0  0  0  0  0  0  0  0  0  0
   10.4841    7.1468   -0.8348 C   0  0  0  0  0  0  0  0  0  0  0  0
   10.1904    5.9377   -0.0578 C   0  0  0  0  0  0  0  0  0  0  0  0
   11.3454    4.9771    0.2707 C   0  0  2  0  0  0  0  0  0  0  0  0
   12.6861    5.5770    0.0592 C   0  0  0  0  0  0  0  0  0  0  0  0
   12.8751    6.7484   -0.5962 C   0  0  0  0  0  0  0  0  0  0  0  0
   11.9207    8.4298   -1.6809 H   0  0  0  0  0  0  0  0  0  0  0  0
    9.6303    7.7182   -1.1983 H   0  0  0  0  0  0  0  0  0  0  0  0
   11.2235    4.6197    1.3008 H   0  0  0  0  0  0  0  0  0  0  0  0
   13.5452    5.0289    0.4424 H   0  0  0  0  0  0  0  0  0  0  0  0
    9.1833    5.6903    0.2793 N   0  0  0  0  0  0  0  0  0  0  0  0
    8.1207    5.4091    0.6449 N   0  0  0  0  0  0  0  0  0  0  0  0
   14.1639    7.1687   -0.7607 O   0  0  0  0  0  0  0  0  0  0  0  0
   14.4235    8.4431   -1.3474 C   0  0  0  0  0  0  0  0  0  0  0  0
   15.5106    8.5625   -1.3115 H   0  0  0  0  0  0  0  0  0  0  0  0
   13.9507    9.2552   -0.7754 H   0  0  0  0  0  0  0  0  0  0  0  0
   14.0921    8.4798   -2.3956 H   0  0  0  0  0  0  0  0  0  0  0  0
   11.1278    4.5896   -2.5334 O   0  0  0  0  0  0  0  0  0  0  0  0
   11.1301    3.6415   -1.7871 C   0  0  0  0  0  0  0  0  0  0  0  0
   11.1891    3.6668   -0.4448 O   0  0  0  0  0  0  0  0  0  0  0  0
   11.0946    2.5877   -2.1201 H   0  0  0  0  0  0  0  0  0  0  0  0
  1  2  1  0  0  0  0
  1  6  2  0  0  0  0
  2  3  2  0  0  0  0
  3  4  1  0  0  0  0
  3 11  1  0  0  0  0
  4  9  1  1  0  0  0
  5  4  1  0  0  0  0
  5 10  1  0  0  0  0
  6  5  1  0  0  0  0
  7  1  1  0  0  0  0
  8  2  1  0  0  0  0
 11 12  1  0  0  0  0
 13  6  1  0  0  0  0
 14 15  1  0  0  0  0
 14 16  1  0  0  0  0
 14 13  1  0  0  0  0
 17 14  1  0  0  0  0
 18 19  2  0  0  0  0
 19 20  1  0  0  0  0
 20  4  1  0  0  0  0
 21 19  1  0  0  0  0
M  RAD  3   5   2  11   2  12   3
M  END
