Coordinates from ORCA-job p-CH3O-Ph-N2-OOCH-B3LYPG-aug-cc-pVDZ-scan-d09-49-n400
 OpenBabel11081710393D

 21 21  0  0  1  0  0  0  0  0999 V2000
   11.7544    7.5346   -1.0950 C   0  0  0  0  0  0  0  0  0  0  0  0
   10.4859    7.1481   -0.8299 C   0  0  0  0  0  0  0  0  0  0  0  0
   10.2136    5.9447   -0.0572 C   0  0  0  0  0  0  0  0  0  0  0  0
   11.3457    4.9806    0.2739 C   0  0  2  0  0  0  0  0  0  0  0  0
   12.6864    5.5827    0.0697 C   0  0  0  0  0  0  0  0  0  0  0  0
   12.8752    6.7507   -0.5950 C   0  0  0  0  0  0  0  0  0  0  0  0
   11.9235    8.4302   -1.6852 H   0  0  0  0  0  0  0  0  0  0  0  0
    9.6322    7.7223   -1.1885 H   0  0  0  0  0  0  0  0  0  0  0  0
   11.2243    4.6058    1.2974 H   0  0  0  0  0  0  0  0  0  0  0  0
   13.5460    5.0397    0.4584 H   0  0  0  0  0  0  0  0  0  0  0  0
    9.1216    5.6810    0.3062 N   0  0  0  0  0  0  0  0  0  0  0  0
    8.0648    5.4041    0.6684 N   0  0  0  0  0  0  0  0  0  0  0  0
   14.1654    7.1684   -0.7591 O   0  0  0  0  0  0  0  0  0  0  0  0
   14.4272    8.4375   -1.3555 C   0  0  0  0  0  0  0  0  0  0  0  0
   15.5146    8.5554   -1.3209 H   0  0  0  0  0  0  0  0  0  0  0  0
   13.9559    9.2549   -0.7897 H   0  0  0  0  0  0  0  0  0  0  0  0
   14.0953    8.4669   -2.4038 H   0  0  0  0  0  0  0  0  0  0  0  0
   11.1516    4.5964   -2.5429 O   0  0  0  0  0  0  0  0  0  0  0  0
   11.1543    3.6465   -1.7980 C   0  0  0  0  0  0  0  0  0  0  0  0
   11.1960    3.6660   -0.4565 O   0  0  0  0  0  0  0  0  0  0  0  0
   11.1048    2.5943   -2.1359 H   0  0  0  0  0  0  0  0  0  0  0  0
  1  2  1  0  0  0  0
  1  6  2  0  0  0  0
  2  3  2  0  0  0  0
  3  4  1  0  0  0  0
  3 11  1  0  0  0  0
  4  9  1  1  0  0  0
  5  4  1  0  0  0  0
  5 10  1  0  0  0  0
  6  5  1  0  0  0  0
  7  1  1  0  0  0  0
  8  2  1  0  0  0  0
 11 12  1  0  0  0  0
 13  6  1  0  0  0  0
 14 15  1  0  0  0  0
 14 16  1  0  0  0  0
 14 13  1  0  0  0  0
 17 14  1  0  0  0  0
 18 19  2  0  0  0  0
 19 20  1  0  0  0  0
 20  4  1  0  0  0  0
 21 19  1  0  0  0  0
M  RAD  3   5   2  11   2  12   3
M  END
