Coordinates from ORCA-job p-CH3O-Ph-N2-OOCH-B3LYPG-aug-cc-pVDZ-scan-d09-49-n400
 OpenBabel11081710393D

 21 21  0  0  1  0  0  0  0  0999 V2000
   11.6249    7.7742   -1.3343 C   0  0  0  0  0  0  0  0  0  0  0  0
   10.4188    7.0865   -1.0391 C   0  0  0  0  0  0  0  0  0  0  0  0
   10.6605    6.0750   -0.1079 C   0  0  1  0  0  0  0  0  0  0  0  0
   11.1123    4.7709   -0.4468 C   0  0  2  0  0  0  0  0  0  0  0  0
   12.1584    5.9555    0.0396 C   0  0  1  0  0  0  0  0  0  0  0  0
   12.6719    7.0531   -0.7532 C   0  0  0  0  0  0  0  0  0  0  0  0
   11.7179    8.6370   -1.9889 H   0  0  0  0  0  0  0  0  0  0  0  0
    9.4954    7.1887   -1.6066 H   0  0  0  0  0  0  0  0  0  0  0  0
   11.1944    3.9516    0.2673 H   0  0  0  0  0  0  0  0  0  0  0  0
   12.6943    5.6343    0.9301 H   0  0  0  0  0  0  0  0  0  0  0  0
    8.8916    5.7757    1.7521 N   0  0  0  0  0  0  0  0  0  0  0  0
    9.2041    5.9929    2.7911 N   0  0  0  0  0  0  0  0  0  0  0  0
   13.9865    7.3597   -0.6867 O   0  0  0  0  0  0  0  0  0  0  0  0
   14.3823    8.6012   -1.2719 C   0  0  0  0  0  0  0  0  0  0  0  0
   15.4512    8.7074   -1.0655 H   0  0  0  0  0  0  0  0  0  0  0  0
   13.8263    9.4365   -0.8201 H   0  0  0  0  0  0  0  0  0  0  0  0
   14.2146    8.5910   -2.3592 H   0  0  0  0  0  0  0  0  0  0  0  0
   12.0682    2.3528   -1.2792 O   0  0  0  0  0  0  0  0  0  0  0  0
   11.5182    3.0869   -2.0579 C   0  0  0  0  0  0  0  0  0  0  0  0
   11.0033    4.3130   -1.7775 O   0  0  0  0  0  0  0  0  0  0  0  0
   11.3437    2.8668   -3.1246 H   0  0  0  0  0  0  0  0  0  0  0  0
  1  2  1  0  0  0  0
  1  6  2  0  0  0  0
  3  2  1  6  0  0  0
  3  5  1  0  0  0  0
  4  3  1  0  0  0  0
  4  5  1  0  0  0  0
  4  9  1  1  0  0  0
  5 10  1  1  0  0  0
  6 13  1  0  0  0  0
  6  5  1  0  0  0  0
  7  1  1  0  0  0  0
  8  2  1  0  0  0  0
 11 12  3  0  0  0  0
 14 15  1  0  0  0  0
 14 16  1  0  0  0  0
 14 13  1  0  0  0  0
 17 14  1  0  0  0  0
 19 20  1  0  0  0  0
 19 18  2  0  0  0  0
 20  4  1  0  0  0  0
 21 19  1  0  0  0  0
M  RAD  2   2   2   3   2
M  END
