Coordinates from ORCA-job p-CH3O-Ph-N2-OOCH-B3LYPG-aug-cc-pVDZ-scan-d09-49-n400
 OpenBabel11081710393D

 21 21  0  0  1  0  0  0  0  0999 V2000
   11.6064    7.7626   -1.3196 C   0  0  0  0  0  0  0  0  0  0  0  0
   10.4007    7.0748   -1.0235 C   0  0  0  0  0  0  0  0  0  0  0  0
   10.6419    6.0610   -0.0936 C   0  0  1  0  0  0  0  0  0  0  0  0
   11.1037    4.7607   -0.4389 C   0  0  2  0  0  0  0  0  0  0  0  0
   12.1416    5.9402    0.0500 C   0  0  1  0  0  0  0  0  0  0  0  0
   12.6541    7.0419   -0.7403 C   0  0  0  0  0  0  0  0  0  0  0  0
   11.6981    8.6267   -1.9726 H   0  0  0  0  0  0  0  0  0  0  0  0
    9.4753    7.1812   -1.5870 H   0  0  0  0  0  0  0  0  0  0  0  0
   11.1822    3.9375    0.2715 H   0  0  0  0  0  0  0  0  0  0  0  0
   12.6778    5.6216    0.9414 H   0  0  0  0  0  0  0  0  0  0  0  0
    9.0223    5.8421    1.6416 N   0  0  0  0  0  0  0  0  0  0  0  0
    9.3266    6.0718    2.6829 N   0  0  0  0  0  0  0  0  0  0  0  0
   13.9677    7.3506   -0.6705 O   0  0  0  0  0  0  0  0  0  0  0  0
   14.3626    8.5942   -1.2521 C   0  0  0  0  0  0  0  0  0  0  0  0
   15.4311    8.7015   -1.0435 H   0  0  0  0  0  0  0  0  0  0  0  0
   13.8044    9.4273   -0.7992 H   0  0  0  0  0  0  0  0  0  0  0  0
   14.1969    8.5861   -2.3396 H   0  0  0  0  0  0  0  0  0  0  0  0
   12.0838    2.3588   -1.2868 O   0  0  0  0  0  0  0  0  0  0  0  0
   11.5183    3.0880   -2.0591 C   0  0  0  0  0  0  0  0  0  0  0  0
   10.9938    4.3081   -1.7721 O   0  0  0  0  0  0  0  0  0  0  0  0
   11.3495    2.8741   -3.1280 H   0  0  0  0  0  0  0  0  0  0  0  0
  1  2  1  0  0  0  0
  1  6  2  0  0  0  0
  3  2  1  6  0  0  0
  3  5  1  0  0  0  0
  4  3  1  0  0  0  0
  4  5  1  0  0  0  0
  4  9  1  1  0  0  0
  5 10  1  1  0  0  0
  6 13  1  0  0  0  0
  6  5  1  0  0  0  0
  7  1  1  0  0  0  0
  8  2  1  0  0  0  0
 11 12  3  0  0  0  0
 14 15  1  0  0  0  0
 14 16  1  0  0  0  0
 14 13  1  0  0  0  0
 17 14  1  0  0  0  0
 19 20  1  0  0  0  0
 19 18  2  0  0  0  0
 20  4  1  0  0  0  0
 21 19  1  0  0  0  0
M  RAD  2   2   2   3   2
M  END
