Coordinates from ORCA-job p-CH3O-Ph-N2-OOCH-B3LYPG-aug-cc-pVDZ-scan-d09-49-n400
 OpenBabel11081710393D

 21 21  0  0  1  0  0  0  0  0999 V2000
   11.6170    7.7687   -1.3271 C   0  0  0  0  0  0  0  0  0  0  0  0
   10.4116    7.0799   -1.0317 C   0  0  0  0  0  0  0  0  0  0  0  0
   10.6542    6.0669   -0.1021 C   0  0  1  0  0  0  0  0  0  0  0  0
   11.1099    4.7648   -0.4444 C   0  0  2  0  0  0  0  0  0  0  0  0
   12.1527    5.9479    0.0435 C   0  0  1  0  0  0  0  0  0  0  0  0
   12.6649    7.0480   -0.7476 C   0  0  0  0  0  0  0  0  0  0  0  0
   11.7087    8.6327   -1.9803 H   0  0  0  0  0  0  0  0  0  0  0  0
    9.4873    7.1833   -1.5976 H   0  0  0  0  0  0  0  0  0  0  0  0
   11.1919    3.9432    0.2672 H   0  0  0  0  0  0  0  0  0  0  0  0
   12.6894    5.6271    0.9337 H   0  0  0  0  0  0  0  0  0  0  0  0
    8.9444    5.8083    1.7089 N   0  0  0  0  0  0  0  0  0  0  0  0
    9.2509    6.0366    2.7480 N   0  0  0  0  0  0  0  0  0  0  0  0
   13.9790    7.3561   -0.6801 O   0  0  0  0  0  0  0  0  0  0  0  0
   14.3734    8.5991   -1.2631 C   0  0  0  0  0  0  0  0  0  0  0  0
   15.4422    8.7062   -1.0562 H   0  0  0  0  0  0  0  0  0  0  0  0
   13.8163    9.4329   -0.8100 H   0  0  0  0  0  0  0  0  0  0  0  0
   14.2061    8.5906   -2.3504 H   0  0  0  0  0  0  0  0  0  0  0  0
   12.0741    2.3530   -1.2848 O   0  0  0  0  0  0  0  0  0  0  0  0
   11.5189    3.0864   -2.0605 C   0  0  0  0  0  0  0  0  0  0  0  0
   11.0004    4.3099   -1.7764 O   0  0  0  0  0  0  0  0  0  0  0  0
   11.3456    2.8692   -3.1281 H   0  0  0  0  0  0  0  0  0  0  0  0
  1  2  1  0  0  0  0
  1  6  2  0  0  0  0
  3  2  1  6  0  0  0
  3  5  1  0  0  0  0
  4  3  1  0  0  0  0
  4  5  1  0  0  0  0
  4  9  1  1  0  0  0
  5 10  1  1  0  0  0
  6 13  1  0  0  0  0
  6  5  1  0  0  0  0
  7  1  1  0  0  0  0
  8  2  1  0  0  0  0
 11 12  3  0  0  0  0
 14 15  1  0  0  0  0
 14 16  1  0  0  0  0
 14 13  1  0  0  0  0
 17 14  1  0  0  0  0
 19 20  1  0  0  0  0
 19 18  2  0  0  0  0
 20  4  1  0  0  0  0
 21 19  1  0  0  0  0
M  RAD  2   2   2   3   2
M  END
