Coordinates from ORCA-job p-CH3O-Ph-N2-OOCH-B3LYPG-aug-cc-pVDZ-scan-d09-49-n400
 OpenBabel11081710393D

 21 21  0  0  1  0  0  0  0  0999 V2000
   11.7417    7.8358   -1.3825 C   0  0  0  0  0  0  0  0  0  0  0  0
   10.5388    7.1731   -1.0250 C   0  0  0  0  0  0  0  0  0  0  0  0
   10.8065    6.1711   -0.0903 C   0  0  1  0  0  0  0  0  0  0  0  0
   11.2149    4.8518   -0.4307 C   0  0  2  0  0  0  0  0  0  0  0  0
   12.3053    6.0285   -0.0056 C   0  0  1  0  0  0  0  0  0  0  0  0
   12.8011    7.1037   -0.8376 C   0  0  0  0  0  0  0  0  0  0  0  0
   11.8209    8.6874   -2.0534 H   0  0  0  0  0  0  0  0  0  0  0  0
    9.5936    7.2801   -1.5545 H   0  0  0  0  0  0  0  0  0  0  0  0
   11.3183    4.0406    0.2892 H   0  0  0  0  0  0  0  0  0  0  0  0
   12.8734    5.7087    0.8649 H   0  0  0  0  0  0  0  0  0  0  0  0
    7.8880    5.1638    2.3211 N   0  0  0  0  0  0  0  0  0  0  0  0
    8.2812    5.5892    3.2611 N   0  0  0  0  0  0  0  0  0  0  0  0
   14.1230    7.3852   -0.8401 O   0  0  0  0  0  0  0  0  0  0  0  0
   14.5135    8.6099   -1.4629 C   0  0  0  0  0  0  0  0  0  0  0  0
   15.5930    8.6983   -1.3093 H   0  0  0  0  0  0  0  0  0  0  0  0
   13.9958    9.4626   -0.9983 H   0  0  0  0  0  0  0  0  0  0  0  0
   14.2939    8.5871   -2.5407 H   0  0  0  0  0  0  0  0  0  0  0  0
   12.0835    2.4028   -1.2705 O   0  0  0  0  0  0  0  0  0  0  0  0
   11.5170    3.1394   -2.0347 C   0  0  0  0  0  0  0  0  0  0  0  0
   11.0420    4.3806   -1.7490 O   0  0  0  0  0  0  0  0  0  0  0  0
   11.2936    2.9111   -3.0905 H   0  0  0  0  0  0  0  0  0  0  0  0
  1  2  1  0  0  0  0
  1  6  2  0  0  0  0
  3  2  1  6  0  0  0
  3  5  1  0  0  0  0
  4  3  1  0  0  0  0
  4  5  1  0  0  0  0
  4  9  1  1  0  0  0
  5 10  1  1  0  0  0
  6  5  1  0  0  0  0
  7  1  1  0  0  0  0
  8  2  1  0  0  0  0
 11 12  3  0  0  0  0
 13  6  1  0  0  0  0
 14 15  1  0  0  0  0
 14 16  1  0  0  0  0
 14 13  1  0  0  0  0
 17 14  1  0  0  0  0
 19 20  1  0  0  0  0
 19 18  2  0  0  0  0
 20  4  1  0  0  0  0
 21 19  1  0  0  0  0
M  RAD  2   2   2   3   2
M  END
