Coordinates from ORCA-job p-CH3O-Ph-N2-OOCH-B3LYPG-aug-cc-pVDZ-scan-d09-49-n400
 OpenBabel11081710393D

 21 21  0  0  1  0  0  0  0  0999 V2000
   11.7273    7.8283   -1.3771 C   0  0  0  0  0  0  0  0  0  0  0  0
   10.5238    7.1617   -1.0284 C   0  0  0  0  0  0  0  0  0  0  0  0
   10.7882    6.1575   -0.0944 C   0  0  1  0  0  0  0  0  0  0  0  0
   11.2023    4.8398   -0.4352 C   0  0  2  0  0  0  0  0  0  0  0  0
   12.2869    6.0181   -0.0011 C   0  0  1  0  0  0  0  0  0  0  0  0
   12.7849    7.0967   -0.8279 C   0  0  0  0  0  0  0  0  0  0  0  0
   11.8086    8.6815   -2.0457 H   0  0  0  0  0  0  0  0  0  0  0  0
    9.5815    7.2678   -1.5633 H   0  0  0  0  0  0  0  0  0  0  0  0
   11.3026    4.0270    0.2832 H   0  0  0  0  0  0  0  0  0  0  0  0
   12.8507    5.6978    0.8721 H   0  0  0  0  0  0  0  0  0  0  0  0
    8.0147    5.2377    2.2673 N   0  0  0  0  0  0  0  0  0  0  0  0
    8.3709    5.6531    3.2268 N   0  0  0  0  0  0  0  0  0  0  0  0
   14.1062    7.3809   -0.8223 O   0  0  0  0  0  0  0  0  0  0  0  0
   14.4975    8.6079   -1.4401 C   0  0  0  0  0  0  0  0  0  0  0  0
   15.5759    8.6983   -1.2803 H   0  0  0  0  0  0  0  0  0  0  0  0
   13.9753    9.4584   -0.9765 H   0  0  0  0  0  0  0  0  0  0  0  0
   14.2840    8.5871   -2.5192 H   0  0  0  0  0  0  0  0  0  0  0  0
   12.0890    2.3981   -1.2776 O   0  0  0  0  0  0  0  0  0  0  0  0
   11.5192    3.1323   -2.0417 C   0  0  0  0  0  0  0  0  0  0  0  0
   11.0390    4.3715   -1.7559 O   0  0  0  0  0  0  0  0  0  0  0  0
   11.3101    2.9092   -3.1016 H   0  0  0  0  0  0  0  0  0  0  0  0
  1  2  1  0  0  0  0
  1  6  2  0  0  0  0
  3  2  1  6  0  0  0
  3  5  1  0  0  0  0
  4  3  1  0  0  0  0
  4  5  1  0  0  0  0
  4  9  1  1  0  0  0
  5 10  1  1  0  0  0
  6 13  1  0  0  0  0
  6  5  1  0  0  0  0
  7  1  1  0  0  0  0
  8  2  1  0  0  0  0
 11 12  3  0  0  0  0
 14 15  1  0  0  0  0
 14 16  1  0  0  0  0
 14 13  1  0  0  0  0
 17 14  1  0  0  0  0
 19 20  1  0  0  0  0
 19 18  2  0  0  0  0
 20  4  1  0  0  0  0
 21 19  1  0  0  0  0
M  RAD  2   2   2   3   2
M  END
