Coordinates from ORCA-job p-CH3O-Ph-N2-OOCH-B3LYPG-aug-cc-pVDZ-scan-d09-49-n400
 OpenBabel11081710393D

 21 21  0  0  1  0  0  0  0  0999 V2000
   11.7305    7.8302   -1.3775 C   0  0  0  0  0  0  0  0  0  0  0  0
   10.5272    7.1633   -1.0277 C   0  0  0  0  0  0  0  0  0  0  0  0
   10.7931    6.1598   -0.0959 C   0  0  1  0  0  0  0  0  0  0  0  0
   11.2060    4.8422   -0.4350 C   0  0  2  0  0  0  0  0  0  0  0  0
   12.2912    6.0206   -0.0026 C   0  0  1  0  0  0  0  0  0  0  0  0
   12.7889    7.0989   -0.8296 C   0  0  0  0  0  0  0  0  0  0  0  0
   11.8109    8.6835   -2.0462 H   0  0  0  0  0  0  0  0  0  0  0  0
    9.5840    7.2685   -1.5610 H   0  0  0  0  0  0  0  0  0  0  0  0
   11.3062    4.0300    0.2842 H   0  0  0  0  0  0  0  0  0  0  0  0
   12.8555    5.7005    0.8703 H   0  0  0  0  0  0  0  0  0  0  0  0
    7.9924    5.2226    2.2749 N   0  0  0  0  0  0  0  0  0  0  0  0
    8.3548    5.6401    3.2307 N   0  0  0  0  0  0  0  0  0  0  0  0
   14.1102    7.3832   -0.8255 O   0  0  0  0  0  0  0  0  0  0  0  0
   14.5007    8.6101   -1.4438 C   0  0  0  0  0  0  0  0  0  0  0  0
   15.5793    8.7006   -1.2852 H   0  0  0  0  0  0  0  0  0  0  0  0
   13.9790    9.4606   -0.9797 H   0  0  0  0  0  0  0  0  0  0  0  0
   14.2860    8.5892   -2.5226 H   0  0  0  0  0  0  0  0  0  0  0  0
   12.0802    2.3948   -1.2735 O   0  0  0  0  0  0  0  0  0  0  0  0
   11.5218    3.1341   -2.0410 C   0  0  0  0  0  0  0  0  0  0  0  0
   11.0417    4.3733   -1.7554 O   0  0  0  0  0  0  0  0  0  0  0  0
   11.2991    2.9047   -3.0968 H   0  0  0  0  0  0  0  0  0  0  0  0
  1  2  1  0  0  0  0
  1  6  2  0  0  0  0
  3  2  1  6  0  0  0
  3  5  1  0  0  0  0
  4  3  1  0  0  0  0
  4  5  1  0  0  0  0
  4  9  1  1  0  0  0
  5 10  1  1  0  0  0
  6 13  1  0  0  0  0
  6  5  1  0  0  0  0
  7  1  1  0  0  0  0
  8  2  1  0  0  0  0
 11 12  3  0  0  0  0
 14 15  1  0  0  0  0
 14 16  1  0  0  0  0
 14 13  1  0  0  0  0
 17 14  1  0  0  0  0
 19 20  1  0  0  0  0
 19 18  2  0  0  0  0
 20  4  1  0  0  0  0
 21 19  1  0  0  0  0
M  RAD  2   2   2   3   2
M  END
