Coordinates from ORCA-job p-CH3O-Ph-N2-OOCH-B3LYPG-aug-cc-pVDZ-scan-d09-49-n400
 OpenBabel11081710393D

 21 21  0  0  1  0  0  0  0  0999 V2000
   11.8136    7.8785   -1.4096 C   0  0  0  0  0  0  0  0  0  0  0  0
   10.6116    7.2385   -1.0090 C   0  0  0  0  0  0  0  0  0  0  0  0
   10.8920    6.2445   -0.0696 C   0  0  1  0  0  0  0  0  0  0  0  0
   11.2699    4.9145   -0.4032 C   0  0  2  0  0  0  0  0  0  0  0  0
   12.3897    6.0807   -0.0254 C   0  0  1  0  0  0  0  0  0  0  0  0
   12.8774    7.1372   -0.8858 C   0  0  0  0  0  0  0  0  0  0  0  0
   11.8859    8.7200   -2.0939 H   0  0  0  0  0  0  0  0  0  0  0  0
    9.6532    7.3531   -1.5124 H   0  0  0  0  0  0  0  0  0  0  0  0
   11.3827    4.1115    0.3244 H   0  0  0  0  0  0  0  0  0  0  0  0
   12.9769    5.7631    0.8333 H   0  0  0  0  0  0  0  0  0  0  0  0
    7.2341    4.7864    2.6216 N   0  0  0  0  0  0  0  0  0  0  0  0
    7.8556    5.2537    3.4052 N   0  0  0  0  0  0  0  0  0  0  0  0
   14.2028    7.3983   -0.9305 O   0  0  0  0  0  0  0  0  0  0  0  0
   14.5930    8.6086   -1.5811 C   0  0  0  0  0  0  0  0  0  0  0  0
   15.6777    8.6825   -1.4602 H   0  0  0  0  0  0  0  0  0  0  0  0
   14.1018    9.4751   -1.1133 H   0  0  0  0  0  0  0  0  0  0  0  0
   14.3415    8.5749   -2.6516 H   0  0  0  0  0  0  0  0  0  0  0  0
   12.0816    2.4436   -1.2367 O   0  0  0  0  0  0  0  0  0  0  0  0
   11.4992    3.1767   -1.9922 C   0  0  0  0  0  0  0  0  0  0  0  0
   11.0511    4.4287   -1.7093 O   0  0  0  0  0  0  0  0  0  0  0  0
   11.2472    2.9407   -3.0399 H   0  0  0  0  0  0  0  0  0  0  0  0
  1  2  1  0  0  0  0
  1  6  2  0  0  0  0
  3  2  1  6  0  0  0
  3  5  1  0  0  0  0
  4  3  1  0  0  0  0
  4  5  1  0  0  0  0
  4  9  1  1  0  0  0
  5 10  1  1  0  0  0
  6  5  1  0  0  0  0
  7  1  1  0  0  0  0
  8  2  1  0  0  0  0
 11 12  3  0  0  0  0
 13  6  1  0  0  0  0
 14 15  1  0  0  0  0
 14 16  1  0  0  0  0
 14 13  1  0  0  0  0
 17 14  1  0  0  0  0
 19 20  1  0  0  0  0
 19 18  2  0  0  0  0
 20  4  1  0  0  0  0
 21 19  1  0  0  0  0
M  RAD  2   2   2   3   2
M  END
