Coordinates from ORCA-job p-CH3O-Ph-N2-OOCH-B3LYPG-aug-cc-pVDZ-scan-d09-49-n400
 OpenBabel11081710393D

 21 21  0  0  1  0  0  0  0  0999 V2000
   11.8082    7.8762   -1.4065 C   0  0  0  0  0  0  0  0  0  0  0  0
   10.6063    7.2335   -1.0092 C   0  0  0  0  0  0  0  0  0  0  0  0
   10.8870    6.2380   -0.0710 C   0  0  1  0  0  0  0  0  0  0  0  0
   11.2671    4.9085   -0.4052 C   0  0  2  0  0  0  0  0  0  0  0  0
   12.3849    6.0766   -0.0242 C   0  0  1  0  0  0  0  0  0  0  0  0
   12.8723    7.1355   -0.8823 C   0  0  0  0  0  0  0  0  0  0  0  0
   11.8804    8.7194   -2.0887 H   0  0  0  0  0  0  0  0  0  0  0  0
    9.6488    7.3473   -1.5143 H   0  0  0  0  0  0  0  0  0  0  0  0
   11.3801    4.1053    0.3221 H   0  0  0  0  0  0  0  0  0  0  0  0
   12.9710    5.7590    0.8352 H   0  0  0  0  0  0  0  0  0  0  0  0
    7.2855    4.8159    2.5921 N   0  0  0  0  0  0  0  0  0  0  0  0
    7.8881    5.2802    3.3915 N   0  0  0  0  0  0  0  0  0  0  0  0
   14.1975    7.3986   -0.9243 O   0  0  0  0  0  0  0  0  0  0  0  0
   14.5869    8.6107   -1.5720 C   0  0  0  0  0  0  0  0  0  0  0  0
   15.6713    8.6861   -1.4494 H   0  0  0  0  0  0  0  0  0  0  0  0
   14.0937    9.4756   -1.1032 H   0  0  0  0  0  0  0  0  0  0  0  0
   14.3370    8.5787   -2.6429 H   0  0  0  0  0  0  0  0  0  0  0  0
   12.0768    2.4363   -1.2377 O   0  0  0  0  0  0  0  0  0  0  0  0
   11.5016    3.1724   -1.9957 C   0  0  0  0  0  0  0  0  0  0  0  0
   11.0509    4.4233   -1.7120 O   0  0  0  0  0  0  0  0  0  0  0  0
   11.2433    2.9336   -3.0413 H   0  0  0  0  0  0  0  0  0  0  0  0
  1  2  1  0  0  0  0
  1  6  2  0  0  0  0
  3  2  1  6  0  0  0
  3  5  1  0  0  0  0
  4  3  1  0  0  0  0
  4  5  1  0  0  0  0
  4  9  1  1  0  0  0
  5 10  1  1  0  0  0
  6  5  1  0  0  0  0
  7  1  1  0  0  0  0
  8  2  1  0  0  0  0
 11 12  3  0  0  0  0
 13  6  1  0  0  0  0
 14 15  1  0  0  0  0
 14 16  1  0  0  0  0
 14 13  1  0  0  0  0
 17 14  1  0  0  0  0
 19 20  1  0  0  0  0
 19 18  2  0  0  0  0
 20  4  1  0  0  0  0
 21 19  1  0  0  0  0
M  RAD  2   2   2   3   2
M  END
