Coordinates from ORCA-job p-CH3O-Ph-N2-OOCH-B3LYPG-aug-cc-pVDZ-scan-d09-49-n400
 OpenBabel11081710393D

 21 21  0  0  1  0  0  0  0  0999 V2000
   11.7230    7.8254   -1.3758 C   0  0  0  0  0  0  0  0  0  0  0  0
   10.5195    7.1575   -1.0299 C   0  0  0  0  0  0  0  0  0  0  0  0
   10.7826    6.1535   -0.0958 C   0  0  1  0  0  0  0  0  0  0  0  0
   11.1990    4.8368   -0.4369 C   0  0  2  0  0  0  0  0  0  0  0  0
   12.2813    6.0155    0.0006 C   0  0  1  0  0  0  0  0  0  0  0  0
   12.7802    7.0948   -0.8245 C   0  0  0  0  0  0  0  0  0  0  0  0
   11.8048    8.6788   -2.0441 H   0  0  0  0  0  0  0  0  0  0  0  0
    9.5781    7.2630   -1.5666 H   0  0  0  0  0  0  0  0  0  0  0  0
   11.2984    4.0234    0.2810 H   0  0  0  0  0  0  0  0  0  0  0  0
   12.8437    5.6951    0.8747 H   0  0  0  0  0  0  0  0  0  0  0  0
    8.0549    5.2597    2.2499 N   0  0  0  0  0  0  0  0  0  0  0  0
    8.4007    5.6714    3.2145 N   0  0  0  0  0  0  0  0  0  0  0  0
   14.1012    7.3804   -0.8159 O   0  0  0  0  0  0  0  0  0  0  0  0
   14.4926    8.6080   -1.4326 C   0  0  0  0  0  0  0  0  0  0  0  0
   15.5706    8.6994   -1.2702 H   0  0  0  0  0  0  0  0  0  0  0  0
   13.9685    9.4578   -0.9700 H   0  0  0  0  0  0  0  0  0  0  0  0
   14.2816    8.5871   -2.5121 H   0  0  0  0  0  0  0  0  0  0  0  0
   12.0867    2.3952   -1.2787 O   0  0  0  0  0  0  0  0  0  0  0  0
   11.5212    3.1312   -2.0443 C   0  0  0  0  0  0  0  0  0  0  0  0
   11.0393    4.3696   -1.7585 O   0  0  0  0  0  0  0  0  0  0  0  0
   11.3109    2.9071   -3.1038 H   0  0  0  0  0  0  0  0  0  0  0  0
  1  2  1  0  0  0  0
  1  6  2  0  0  0  0
  3  2  1  6  0  0  0
  3  5  1  0  0  0  0
  4  3  1  0  0  0  0
  4  5  1  0  0  0  0
  4  9  1  1  0  0  0
  5 10  1  1  0  0  0
  6 13  1  0  0  0  0
  6  5  1  0  0  0  0
  7  1  1  0  0  0  0
  8  2  1  0  0  0  0
 11 12  3  0  0  0  0
 14 15  1  0  0  0  0
 14 16  1  0  0  0  0
 14 13  1  0  0  0  0
 17 14  1  0  0  0  0
 19 20  1  0  0  0  0
 19 18  2  0  0  0  0
 20  4  1  0  0  0  0
 21 19  1  0  0  0  0
M  RAD  2   2   2   3   2
M  END
