Coordinates from ORCA-job p-CH3O-Ph-N2-OOCH-B3LYPG-aug-cc-pVDZ-scan-d09-49-n400
 OpenBabel11081710393D

 21 21  0  0  1  0  0  0  0  0999 V2000
   11.6463    7.7865   -1.3534 C   0  0  0  0  0  0  0  0  0  0  0  0
   10.4384    7.1040   -1.0545 C   0  0  0  0  0  0  0  0  0  0  0  0
   10.6774    6.0973   -0.1173 C   0  0  1  0  0  0  0  0  0  0  0  0
   11.1219    4.7890   -0.4504 C   0  0  2  0  0  0  0  0  0  0  0  0
   12.1743    5.9743    0.0311 C   0  0  1  0  0  0  0  0  0  0  0  0
   12.6910    7.0647   -0.7683 C   0  0  0  0  0  0  0  0  0  0  0  0
   11.7423    8.6449   -2.0133 H   0  0  0  0  0  0  0  0  0  0  0  0
    9.5158    7.2043   -1.6237 H   0  0  0  0  0  0  0  0  0  0  0  0
   11.2032    3.9727    0.2670 H   0  0  0  0  0  0  0  0  0  0  0  0
   12.7096    5.6545    0.9224 H   0  0  0  0  0  0  0  0  0  0  0  0
    8.7354    5.6733    1.8758 N   0  0  0  0  0  0  0  0  0  0  0  0
    9.0612    5.8896    2.9096 N   0  0  0  0  0  0  0  0  0  0  0  0
   14.0070    7.3662   -0.7066 O   0  0  0  0  0  0  0  0  0  0  0  0
   14.4068    8.6025   -1.3001 C   0  0  0  0  0  0  0  0  0  0  0  0
   15.4766    8.7056   -1.0960 H   0  0  0  0  0  0  0  0  0  0  0  0
   13.8551    9.4428   -0.8526 H   0  0  0  0  0  0  0  0  0  0  0  0
   14.2374    8.5863   -2.3870 H   0  0  0  0  0  0  0  0  0  0  0  0
   12.0623    2.3600   -1.2704 O   0  0  0  0  0  0  0  0  0  0  0  0
   11.5192    3.0948   -2.0531 C   0  0  0  0  0  0  0  0  0  0  0  0
   11.0129    4.3261   -1.7789 O   0  0  0  0  0  0  0  0  0  0  0  0
   11.3448    2.8715   -3.1193 H   0  0  0  0  0  0  0  0  0  0  0  0
  1  2  1  0  0  0  0
  1  6  2  0  0  0  0
  3  2  1  6  0  0  0
  3  5  1  0  0  0  0
  4  3  1  0  0  0  0
  4  5  1  0  0  0  0
  4  9  1  1  0  0  0
  5 10  1  1  0  0  0
  6 13  1  0  0  0  0
  6  5  1  0  0  0  0
  7  1  1  0  0  0  0
  8  2  1  0  0  0  0
 11 12  3  0  0  0  0
 14 15  1  0  0  0  0
 14 16  1  0  0  0  0
 14 13  1  0  0  0  0
 17 14  1  0  0  0  0
 19 20  1  0  0  0  0
 19 18  2  0  0  0  0
 20  4  1  0  0  0  0
 21 19  1  0  0  0  0
M  RAD  2   2   2   3   2
M  END
