Coordinates from ORCA-job p-CH3O-Ph-N2-OOCH-B3LYPG-aug-cc-pVDZ-scan-d09-49-n400
 OpenBabel11081710393D

 21 21  0  0  1  0  0  0  0  0999 V2000
   11.6508    7.7889   -1.3570 C   0  0  0  0  0  0  0  0  0  0  0  0
   10.4426    7.1078   -1.0565 C   0  0  0  0  0  0  0  0  0  0  0  0
   10.6812    6.1022   -0.1179 C   0  0  1  0  0  0  0  0  0  0  0  0
   11.1245    4.7930   -0.4506 C   0  0  2  0  0  0  0  0  0  0  0  0
   12.1781    5.9779    0.0296 C   0  0  1  0  0  0  0  0  0  0  0  0
   12.6952    7.0668   -0.7715 C   0  0  0  0  0  0  0  0  0  0  0  0
   11.7474    8.6462   -2.0182 H   0  0  0  0  0  0  0  0  0  0  0  0
    9.5198    7.2081   -1.6253 H   0  0  0  0  0  0  0  0  0  0  0  0
   11.2057    3.9770    0.2671 H   0  0  0  0  0  0  0  0  0  0  0  0
   12.7136    5.6585    0.9209 H   0  0  0  0  0  0  0  0  0  0  0  0
    8.7006    5.6485    1.9018 N   0  0  0  0  0  0  0  0  0  0  0  0
    9.0264    5.8704    2.9342 N   0  0  0  0  0  0  0  0  0  0  0  0
   14.0116    7.3670   -0.7115 O   0  0  0  0  0  0  0  0  0  0  0  0
   14.4122    8.6021   -1.3071 C   0  0  0  0  0  0  0  0  0  0  0  0
   15.4822    8.7044   -1.1040 H   0  0  0  0  0  0  0  0  0  0  0  0
   13.8616    9.4436   -0.8602 H   0  0  0  0  0  0  0  0  0  0  0  0
   14.2419    8.5846   -2.3938 H   0  0  0  0  0  0  0  0  0  0  0  0
   12.0630    2.3628   -1.2696 O   0  0  0  0  0  0  0  0  0  0  0  0
   11.5195    3.0974   -2.0523 C   0  0  0  0  0  0  0  0  0  0  0  0
   11.0150    4.3295   -1.7787 O   0  0  0  0  0  0  0  0  0  0  0  0
   11.3458    2.8742   -3.1186 H   0  0  0  0  0  0  0  0  0  0  0  0
  1  2  1  0  0  0  0
  1  6  2  0  0  0  0
  3  2  1  6  0  0  0
  3  5  1  0  0  0  0
  4  3  1  0  0  0  0
  4  5  1  0  0  0  0
  4  9  1  1  0  0  0
  5 10  1  1  0  0  0
  6 13  1  0  0  0  0
  6  5  1  0  0  0  0
  7  1  1  0  0  0  0
  8  2  1  0  0  0  0
 11 12  3  0  0  0  0
 14 15  1  0  0  0  0
 14 16  1  0  0  0  0
 14 13  1  0  0  0  0
 17 14  1  0  0  0  0
 19 20  1  0  0  0  0
 19 18  2  0  0  0  0
 20  4  1  0  0  0  0
 21 19  1  0  0  0  0
M  RAD  2   2   2   3   2
M  END
