Coordinates from ORCA-job p-CH3O-Ph-N2-OOCH-B3LYPG-aug-cc-pVDZ-scan-d09-49-n400
 OpenBabel11081710393D

 21 21  0  0  1  0  0  0  0  0999 V2000
   11.7884    7.5461   -1.0842 C   0  0  0  0  0  0  0  0  0  0  0  0
   10.5201    7.1232   -0.7726 C   0  0  0  0  0  0  0  0  0  0  0  0
   10.4492    6.1227    0.2120 C   0  0  2  0  0  0  0  0  0  0  0  0
   11.3773    5.0240    0.3891 C   0  0  2  0  0  0  0  0  0  0  0  0
   12.7012    5.6709    0.2324 C   0  0  0  0  0  0  0  0  0  0  0  0
   12.8911    6.8048   -0.5225 C   0  0  0  0  0  0  0  0  0  0  0  0
   11.9333    8.4163   -1.7152 H   0  0  0  0  0  0  0  0  0  0  0  0
    9.6321    7.6186   -1.1564 H   0  0  0  0  0  0  0  0  0  0  0  0
   11.2633    4.4686    1.3216 H   0  0  0  0  0  0  0  0  0  0  0  0
   13.5663    5.1470    0.6345 H   0  0  0  0  0  0  0  0  0  0  0  0
    8.7416    5.4614    0.2771 N   0  0  0  0  0  0  0  0  0  0  0  0
    7.7221    5.1955    0.6288 N   0  0  0  0  0  0  0  0  0  0  0  0
   14.1856    7.1975   -0.6892 O   0  0  0  0  0  0  0  0  0  0  0  0
   14.4660    8.3654   -1.4584 C   0  0  0  0  0  0  0  0  0  0  0  0
   15.5545    8.4755   -1.4355 H   0  0  0  0  0  0  0  0  0  0  0  0
   14.0002    9.2583   -1.0153 H   0  0  0  0  0  0  0  0  0  0  0  0
   14.1343    8.2473   -2.5002 H   0  0  0  0  0  0  0  0  0  0  0  0
   11.1802    4.7889   -2.5661 O   0  0  0  0  0  0  0  0  0  0  0  0
   11.1805    3.7932   -1.8730 C   0  0  0  0  0  0  0  0  0  0  0  0
   11.2163    3.7164   -0.5477 O   0  0  0  0  0  0  0  0  0  0  0  0
   11.1352    2.7691   -2.2984 H   0  0  0  0  0  0  0  0  0  0  0  0
  1  2  2  0  0  0  0
  1  6  1  0  0  0  0
  2  3  1  0  0  0  0
  3 11  1  6  0  0  0
  3  4  1  0  0  0  0
  4  9  1  1  0  0  0
  5  4  1  0  0  0  0
  5 10  1  0  0  0  0
  6  5  2  0  0  0  0
  7  1  1  0  0  0  0
  8  2  1  0  0  0  0
 11 12  1  0  0  0  0
 13  6  1  0  0  0  0
 14 15  1  0  0  0  0
 14 16  1  0  0  0  0
 14 13  1  0  0  0  0
 17 14  1  0  0  0  0
 18 19  2  0  0  0  0
 19 20  1  0  0  0  0
 20  4  1  0  0  0  0
 21 19  1  0  0  0  0
M  RAD  3   3   2  11   2  12   3
M  END
