Coordinates from ORCA-job p-CH3O-Ph-N2-OOCH-B3LYPG-aug-cc-pVDZ-scan-d09-49-n400
 OpenBabel11081710393D

 21 21  0  0  1  0  0  0  0  0999 V2000
   11.5785    7.7424   -1.3124 C   0  0  0  0  0  0  0  0  0  0  0  0
   10.3676    7.0714   -1.0085 C   0  0  0  0  0  0  0  0  0  0  0  0
   10.5973    6.0557   -0.0692 C   0  0  1  0  0  0  0  0  0  0  0  0
   11.0859    4.7607   -0.4181 C   0  0  2  0  0  0  0  0  0  0  0  0
   12.1014    5.9285    0.0748 C   0  0  1  0  0  0  0  0  0  0  0  0
   12.6218    7.0282   -0.7189 C   0  0  0  0  0  0  0  0  0  0  0  0
   11.6750    8.5997   -1.9737 H   0  0  0  0  0  0  0  0  0  0  0  0
    9.4367    7.1948   -1.5594 H   0  0  0  0  0  0  0  0  0  0  0  0
   11.1470    3.9347    0.2913 H   0  0  0  0  0  0  0  0  0  0  0  0
   12.6284    5.6243    0.9766 H   0  0  0  0  0  0  0  0  0  0  0  0
    9.2505    5.9259    1.4345 N   0  0  0  0  0  0  0  0  0  0  0  0
    9.5765    6.0834    2.4916 N   0  0  0  0  0  0  0  0  0  0  0  0
   13.9329    7.3387   -0.6333 O   0  0  0  0  0  0  0  0  0  0  0  0
   14.3353    8.5768   -1.2224 C   0  0  0  0  0  0  0  0  0  0  0  0
   15.4011    8.6858   -1.0020 H   0  0  0  0  0  0  0  0  0  0  0  0
   13.7716    9.4140   -0.7841 H   0  0  0  0  0  0  0  0  0  0  0  0
   14.1824    8.5577   -2.3116 H   0  0  0  0  0  0  0  0  0  0  0  0
   12.0976    2.3804   -1.2773 O   0  0  0  0  0  0  0  0  0  0  0  0
   11.5231    3.1052   -2.0474 C   0  0  0  0  0  0  0  0  0  0  0  0
   10.9771    4.3132   -1.7545 O   0  0  0  0  0  0  0  0  0  0  0  0
   11.3509    2.8894   -3.1154 H   0  0  0  0  0  0  0  0  0  0  0  0
  1  2  1  0  0  0  0
  1  6  2  0  0  0  0
  3  2  1  6  0  0  0
  3  5  1  0  0  0  0
  4  3  1  0  0  0  0
  4  5  1  0  0  0  0
  4  9  1  1  0  0  0
  5 10  1  1  0  0  0
  6 13  1  0  0  0  0
  6  5  1  0  0  0  0
  7  1  1  0  0  0  0
  8  2  1  0  0  0  0
 11 12  3  0  0  0  0
 14 15  1  0  0  0  0
 14 16  1  0  0  0  0
 14 13  1  0  0  0  0
 17 14  1  0  0  0  0
 19 20  1  0  0  0  0
 19 18  2  0  0  0  0
 20  4  1  0  0  0  0
 21 19  1  0  0  0  0
M  RAD  2   2   2   3   2
M  END
