Coordinates from ORCA-job p-CH3O-Ph-N2-OOCH-B3LYPG-aug-cc-pVDZ-scan-d09-49-n400
 OpenBabel11081710393D

 21 21  0  0  1  0  0  0  0  0999 V2000
   11.7891    7.8649   -1.3978 C   0  0  0  0  0  0  0  0  0  0  0  0
   10.5875    7.2162   -1.0105 C   0  0  0  0  0  0  0  0  0  0  0  0
   10.8654    6.2187   -0.0740 C   0  0  1  0  0  0  0  0  0  0  0  0
   11.2536    4.8924   -0.4108 C   0  0  2  0  0  0  0  0  0  0  0  0
   12.3638    6.0626   -0.0183 C   0  0  1  0  0  0  0  0  0  0  0  0
   12.8525    7.1264   -0.8693 C   0  0  0  0  0  0  0  0  0  0  0  0
   11.8623    8.7105   -2.0770 H   0  0  0  0  0  0  0  0  0  0  0  0
    9.6328    7.3282   -1.5215 H   0  0  0  0  0  0  0  0  0  0  0  0
   11.3644    4.0865    0.3139 H   0  0  0  0  0  0  0  0  0  0  0  0
   12.9463    5.7444    0.8433 H   0  0  0  0  0  0  0  0  0  0  0  0
    7.4562    4.9143    2.5043 N   0  0  0  0  0  0  0  0  0  0  0  0
    7.9978    5.3680    3.3528 N   0  0  0  0  0  0  0  0  0  0  0  0
   14.1767    7.3948   -0.9019 O   0  0  0  0  0  0  0  0  0  0  0  0
   14.5656    8.6108   -1.5427 C   0  0  0  0  0  0  0  0  0  0  0  0
   15.6489    8.6898   -1.4127 H   0  0  0  0  0  0  0  0  0  0  0  0
   14.0660    9.4720   -1.0742 H   0  0  0  0  0  0  0  0  0  0  0  0
   14.3230    8.5816   -2.6154 H   0  0  0  0  0  0  0  0  0  0  0  0
   12.0768    2.4260   -1.2461 O   0  0  0  0  0  0  0  0  0  0  0  0
   11.5046    3.1630   -2.0056 C   0  0  0  0  0  0  0  0  0  0  0  0
   11.0488    4.4118   -1.7212 O   0  0  0  0  0  0  0  0  0  0  0  0
   11.2565    2.9278   -3.0544 H   0  0  0  0  0  0  0  0  0  0  0  0
  1  2  1  0  0  0  0
  1  6  2  0  0  0  0
  3  2  1  6  0  0  0
  3  5  1  0  0  0  0
  4  3  1  0  0  0  0
  4  5  1  0  0  0  0
  4  9  1  1  0  0  0
  5 10  1  1  0  0  0
  6  5  1  0  0  0  0
  7  1  1  0  0  0  0
  8  2  1  0  0  0  0
 11 12  3  0  0  0  0
 13  6  1  0  0  0  0
 14 15  1  0  0  0  0
 14 16  1  0  0  0  0
 14 13  1  0  0  0  0
 17 14  1  0  0  0  0
 19 20  1  0  0  0  0
 19 18  2  0  0  0  0
 20  4  1  0  0  0  0
 21 19  1  0  0  0  0
M  RAD  2   2   2   3   2
M  END
