Coordinates from ORCA-job Ph-N2-OTf-B3LYPG-aug-cc-pVDZ-scan-d09-49-n400
 OpenBabel07022015323D

 21 21  0  0  1  0  0  0  0  0999 V2000
   -0.8898   -0.7607   -5.3381 C   0  0  0  0  0  0  0  0  0  0  0  0
   -0.3461    0.4341   -6.0252 C   0  0  1  0  0  0  0  0  0  0  0  0
   -1.1971    1.6529   -5.8276 C   0  0  0  0  0  0  0  0  0  0  0  0
   -2.1298    1.7301   -4.7155 C   0  0  0  0  0  0  0  0  0  0  0  0
   -2.4180    0.6143   -3.9990 C   0  0  0  0  0  0  0  0  0  0  0  0
   -1.8267   -0.6552   -4.3661 C   0  0  0  0  0  0  0  0  0  0  0  0
   -0.4652   -1.7250   -5.6111 H   0  0  0  0  0  0  0  0  0  0  0  0
   -0.0921    0.2750   -7.0753 H   0  0  0  0  0  0  0  0  0  0  0  0
   -2.5925    2.6923   -4.4989 H   0  0  0  0  0  0  0  0  0  0  0  0
   -3.1194    0.6632   -3.1675 H   0  0  0  0  0  0  0  0  0  0  0  0
   -1.0604    2.5870   -6.5857 N   0  0  0  0  0  0  0  0  0  0  0  0
   -0.9290    3.4683   -7.3017 N   0  0  0  0  0  0  0  0  0  0  0  0
    2.3561    1.0039   -6.2559 S   0  0  0  0  0  0  0  0  0  0  0  0
    3.1052   -0.7401   -6.3360 C   0  0  0  0  0  0  0  0  0  0  0  0
    3.2912    1.8279   -5.4763 O   0  0  0  0  0  0  0  0  0  0  0  0
    1.0486    0.7067   -5.3372 O   0  0  0  0  0  0  0  0  0  0  0  0
    1.9571    1.3441   -7.6396 O   0  0  0  0  0  0  0  0  0  0  0  0
    4.1887   -0.7119   -7.1162 F   0  0  0  0  0  0  0  0  0  0  0  0
    3.4425   -1.1556   -5.1135 F   0  0  0  0  0  0  0  0  0  0  0  0
    2.2036   -1.5899   -6.8599 F   0  0  0  0  0  0  0  0  0  0  0  0
   -2.1653   -1.5548   -3.8510 H   0  0  0  0  0  0  0  0  0  0  0  0
  1  6  2  0  0  0  0
  2  8  1  6  0  0  0
  2  3  1  0  0  0  0
  2  1  1  0  0  0  0
  2 16  1  0  0  0  0
  3  4  2  0  0  0  0
  4  9  1  0  0  0  0
  4  5  1  0  0  0  0
  5 10  1  0  0  0  0
  6  5  1  0  0  0  0
  6 21  1  0  0  0  0
  7  1  1  0  0  0  0
 11  3  1  0  0  0  0
 12 11  1  0  0  0  0
 13 15  2  0  0  0  0
 13 16  1  0  0  0  0
 14 13  1  0  0  0  0
 14 19  1  0  0  0  0
 17 13  2  0  0  0  0
 18 14  1  0  0  0  0
 20 14  1  0  0  0  0
M  RAD  3   5   2  11   2  12   3
M  END
