Coordinates from ORCA-job Ph-N2-OTf-B3LYPG-aug-cc-pVDZ-scan-d09-49-n400
 OpenBabel07022015323D

 21 20  0  0  0  0  0  0  0  0999 V2000
   -1.2780   -0.1263   -3.5960 C   0  0  0  0  0  0  0  0  0  0  0  0
   -0.0563    0.3447   -4.0851 C   0  0  0  0  0  0  0  0  0  0  0  0
    0.0411    0.6609   -5.4393 C   0  0  0  0  0  0  0  0  0  0  0  0
   -1.0418    0.5384   -6.3083 C   0  0  0  0  0  0  0  0  0  0  0  0
   -2.2601    0.0764   -5.8019 C   0  0  0  0  0  0  0  0  0  0  0  0
   -2.3781   -0.2605   -4.4496 C   0  0  0  0  0  0  0  0  0  0  0  0
   -1.3678   -0.3860   -2.5413 H   0  0  0  0  0  0  0  0  0  0  0  0
    0.8062    0.4633   -3.4331 H   0  0  0  0  0  0  0  0  0  0  0  0
   -0.9301    0.8122   -7.3561 H   0  0  0  0  0  0  0  0  0  0  0  0
   -3.1167   -0.0242   -6.4686 H   0  0  0  0  0  0  0  0  0  0  0  0
   -0.7170    4.1258   -4.7314 N   0  0  0  0  0  0  0  0  0  0  0  0
   -1.5961    4.6257   -4.2885 N   0  0  0  0  0  0  0  0  0  0  0  0
    2.6146    0.2969   -6.0813 S   0  0  0  0  0  0  0  0  0  0  0  0
    2.3936   -0.3875   -7.8456 C   0  0  0  0  0  0  0  0  0  0  0  0
    3.7201    1.2601   -6.1344 O   0  0  0  0  0  0  0  0  0  0  0  0
    2.5758   -0.8540   -5.1644 O   0  0  0  0  0  0  0  0  0  0  0  0
    1.2310    1.2213   -5.9551 O   0  0  0  0  0  0  0  0  0  0  0  0
    2.2386    0.6203   -8.7064 F   0  0  0  0  0  0  0  0  0  0  0  0
    3.4875   -1.0856   -8.1599 F   0  0  0  0  0  0  0  0  0  0  0  0
    1.3220   -1.1863   -7.8908 F   0  0  0  0  0  0  0  0  0  0  0  0
   -3.3270   -0.6289   -4.0603 H   0  0  0  0  0  0  0  0  0  0  0  0
  1  7  1  0  0  0  0
  2  1  1  0  0  0  0
  2  8  1  0  0  0  0
  3  2  2  0  0  0  0
  4  5  2  0  0  0  0
  4  3  1  0  0  0  0
  5  6  1  0  0  0  0
  6 21  1  0  0  0  0
  6  1  2  0  0  0  0
  9  4  1  0  0  0  0
 10  5  1  0  0  0  0
 11 12  3  0  0  0  0
 13 17  1  0  0  0  0
 13 16  2  0  0  0  0
 14 13  1  0  0  0  0
 15 13  2  0  0  0  0
 17  3  1  0  0  0  0
 18 14  1  0  0  0  0
 19 14  1  0  0  0  0
 20 14  1  0  0  0  0
M  END
