Coordinates from ORCA-job Ph-N2-OTf-B3LYPG-aug-cc-pVDZ-scan-d09-49-n400
 OpenBabel07022015323D

 21 20  0  0  0  0  0  0  0  0999 V2000
   -1.2940   -0.0530   -3.5812 C   0  0  0  0  0  0  0  0  0  0  0  0
   -0.0757    0.4290   -4.0662 C   0  0  0  0  0  0  0  0  0  0  0  0
    0.0176    0.7695   -5.4146 C   0  0  0  0  0  0  0  0  0  0  0  0
   -1.0588    0.6277   -6.2885 C   0  0  0  0  0  0  0  0  0  0  0  0
   -2.2744    0.1545   -5.7870 C   0  0  0  0  0  0  0  0  0  0  0  0
   -2.3935   -0.1870   -4.4358 C   0  0  0  0  0  0  0  0  0  0  0  0
   -1.3820   -0.3236   -2.5291 H   0  0  0  0  0  0  0  0  0  0  0  0
    0.7858    0.5485   -3.4128 H   0  0  0  0  0  0  0  0  0  0  0  0
   -0.9463    0.9031   -7.3358 H   0  0  0  0  0  0  0  0  0  0  0  0
   -3.1276    0.0465   -6.4568 H   0  0  0  0  0  0  0  0  0  0  0  0
   -0.5039    3.3674   -4.9255 N   0  0  0  0  0  0  0  0  0  0  0  0
   -1.3655    3.9086   -4.4950 N   0  0  0  0  0  0  0  0  0  0  0  0
    2.5857    0.3754   -6.0562 S   0  0  0  0  0  0  0  0  0  0  0  0
    2.3548   -0.3184   -7.8157 C   0  0  0  0  0  0  0  0  0  0  0  0
    3.6990    1.3289   -6.1192 O   0  0  0  0  0  0  0  0  0  0  0  0
    2.5423   -0.7694   -5.1320 O   0  0  0  0  0  0  0  0  0  0  0  0
    1.2124    1.3139   -5.9318 O   0  0  0  0  0  0  0  0  0  0  0  0
    2.1962    0.6849   -8.6812 F   0  0  0  0  0  0  0  0  0  0  0  0
    3.4471   -1.0186   -8.1311 F   0  0  0  0  0  0  0  0  0  0  0  0
    1.2829   -1.1171   -7.8520 F   0  0  0  0  0  0  0  0  0  0  0  0
   -3.3403   -0.5637   -4.0499 H   0  0  0  0  0  0  0  0  0  0  0  0
  1  7  1  0  0  0  0
  2  1  1  0  0  0  0
  2  8  1  0  0  0  0
  3  2  2  0  0  0  0
  4  5  2  0  0  0  0
  4  3  1  0  0  0  0
  5  6  1  0  0  0  0
  6 21  1  0  0  0  0
  6  1  2  0  0  0  0
  9  4  1  0  0  0  0
 10  5  1  0  0  0  0
 11 12  3  0  0  0  0
 13 17  1  0  0  0  0
 13 16  2  0  0  0  0
 14 13  1  0  0  0  0
 15 13  2  0  0  0  0
 17  3  1  0  0  0  0
 18 14  1  0  0  0  0
 19 14  1  0  0  0  0
 20 14  1  0  0  0  0
M  END
