Coordinates from ORCA-job Ph-N2-OTf-B3LYPG-aug-cc-pVDZ-scan-d09-49-n400
 OpenBabel07022015323D

 21 20  0  0  0  0  0  0  0  0999 V2000
   -1.2737   -0.1331   -3.5994 C   0  0  0  0  0  0  0  0  0  0  0  0
   -0.0516    0.3361   -4.0891 C   0  0  0  0  0  0  0  0  0  0  0  0
    0.0462    0.6501   -5.4437 C   0  0  0  0  0  0  0  0  0  0  0  0
   -1.0367    0.5276   -6.3127 C   0  0  0  0  0  0  0  0  0  0  0  0
   -2.2555    0.0673   -5.8057 C   0  0  0  0  0  0  0  0  0  0  0  0
   -2.3739   -0.2676   -4.4529 C   0  0  0  0  0  0  0  0  0  0  0  0
   -1.3639   -0.3913   -2.5443 H   0  0  0  0  0  0  0  0  0  0  0  0
    0.8110    0.4549   -3.4371 H   0  0  0  0  0  0  0  0  0  0  0  0
   -0.9247    0.7999   -7.3608 H   0  0  0  0  0  0  0  0  0  0  0  0
   -3.1121   -0.0334   -6.4723 H   0  0  0  0  0  0  0  0  0  0  0  0
   -0.7591    4.2322   -4.6946 N   0  0  0  0  0  0  0  0  0  0  0  0
   -1.6433    4.7206   -4.2490 N   0  0  0  0  0  0  0  0  0  0  0  0
    2.6195    0.2834   -6.0857 S   0  0  0  0  0  0  0  0  0  0  0  0
    2.3984   -0.4009   -7.8499 C   0  0  0  0  0  0  0  0  0  0  0  0
    3.7260    1.2455   -6.1385 O   0  0  0  0  0  0  0  0  0  0  0  0
    2.5791   -0.8672   -5.1685 O   0  0  0  0  0  0  0  0  0  0  0  0
    1.2367    1.2093   -5.9600 O   0  0  0  0  0  0  0  0  0  0  0  0
    2.2443    0.6069   -8.7108 F   0  0  0  0  0  0  0  0  0  0  0  0
    3.4918   -1.1000   -8.1639 F   0  0  0  0  0  0  0  0  0  0  0  0
    1.3261   -1.1989   -7.8953 F   0  0  0  0  0  0  0  0  0  0  0  0
   -3.3230   -0.6347   -4.0633 H   0  0  0  0  0  0  0  0  0  0  0  0
  1  7  1  0  0  0  0
  2  1  1  0  0  0  0
  2  8  1  0  0  0  0
  3  2  2  0  0  0  0
  4  5  2  0  0  0  0
  4  3  1  0  0  0  0
  5  6  1  0  0  0  0
  6 21  1  0  0  0  0
  6  1  2  0  0  0  0
  9  4  1  0  0  0  0
 10  5  1  0  0  0  0
 11 12  3  0  0  0  0
 13 17  1  0  0  0  0
 13 16  2  0  0  0  0
 14 13  1  0  0  0  0
 15 13  2  0  0  0  0
 17  3  1  0  0  0  0
 18 14  1  0  0  0  0
 19 14  1  0  0  0  0
 20 14  1  0  0  0  0
M  END
