Coordinates from ORCA-job Ph-N2-OTf-B3LYPG-aug-cc-pVDZ-scan-d09-49-n400
 OpenBabel07022015323D

 21 20  0  0  0  0  0  0  0  0999 V2000
   -1.2281   -0.1721   -3.6331 C   0  0  0  0  0  0  0  0  0  0  0  0
    0.0003    0.2745   -4.1281 C   0  0  0  0  0  0  0  0  0  0  0  0
    0.1025    0.5697   -5.4866 C   0  0  0  0  0  0  0  0  0  0  0  0
   -0.9819    0.4516   -6.3543 C   0  0  0  0  0  0  0  0  0  0  0  0
   -2.2068    0.0142   -5.8420 C   0  0  0  0  0  0  0  0  0  0  0  0
   -2.3297   -0.3025   -4.4852 C   0  0  0  0  0  0  0  0  0  0  0  0
   -1.3220   -0.4153   -2.5747 H   0  0  0  0  0  0  0  0  0  0  0  0
    0.8642    0.3906   -3.4774 H   0  0  0  0  0  0  0  0  0  0  0  0
   -0.8662    0.7098   -7.4057 H   0  0  0  0  0  0  0  0  0  0  0  0
   -3.0648   -0.0827   -6.5074 H   0  0  0  0  0  0  0  0  0  0  0  0
   -1.1808    5.1268   -4.3458 N   0  0  0  0  0  0  0  0  0  0  0  0
   -2.1261    5.4519   -3.8770 N   0  0  0  0  0  0  0  0  0  0  0  0
    2.6698    0.1578   -6.1275 S   0  0  0  0  0  0  0  0  0  0  0  0
    2.4382   -0.5360   -7.8868 C   0  0  0  0  0  0  0  0  0  0  0  0
    3.7908    1.1025   -6.1871 O   0  0  0  0  0  0  0  0  0  0  0  0
    2.6109   -0.9848   -5.2013 O   0  0  0  0  0  0  0  0  0  0  0  0
    1.3010    1.1061   -6.0092 O   0  0  0  0  0  0  0  0  0  0  0  0
    2.2947    0.4681   -8.7539 F   0  0  0  0  0  0  0  0  0  0  0  0
    3.5228   -1.2499   -8.1976 F   0  0  0  0  0  0  0  0  0  0  0  0
    1.3566   -1.3214   -7.9252 F   0  0  0  0  0  0  0  0  0  0  0  0
   -3.2836   -0.6523   -4.0913 H   0  0  0  0  0  0  0  0  0  0  0  0
  1  7  1  0  0  0  0
  2  1  1  0  0  0  0
  2  8  1  0  0  0  0
  3  2  2  0  0  0  0
  4  5  2  0  0  0  0
  4  3  1  0  0  0  0
  5  6  1  0  0  0  0
  6 21  1  0  0  0  0
  6  1  2  0  0  0  0
  9  4  1  0  0  0  0
 10  5  1  0  0  0  0
 11 12  3  0  0  0  0
 13 17  1  0  0  0  0
 13 16  2  0  0  0  0
 14 13  1  0  0  0  0
 15 13  2  0  0  0  0
 17  3  1  0  0  0  0
 18 14  1  0  0  0  0
 19 14  1  0  0  0  0
 20 14  1  0  0  0  0
M  END
