Coordinates from ORCA-job Ph-N2-OTf-B3LYPG-aug-cc-pVDZ-scan-d09-49-n400
 OpenBabel07022015323D

 21 21  0  0  1  0  0  0  0  0999 V2000
   -0.8944   -0.7640   -5.3320 C   0  0  0  0  0  0  0  0  0  0  0  0
   -0.3503    0.4266   -6.0233 C   0  0  1  0  0  0  0  0  0  0  0  0
   -1.1965    1.6452   -5.8276 C   0  0  0  0  0  0  0  0  0  0  0  0
   -2.1313    1.7306   -4.7196 C   0  0  0  0  0  0  0  0  0  0  0  0
   -2.4228    0.6176   -3.9988 C   0  0  0  0  0  0  0  0  0  0  0  0
   -1.8319   -0.6531   -4.3603 C   0  0  0  0  0  0  0  0  0  0  0  0
   -0.4708   -1.7300   -5.6000 H   0  0  0  0  0  0  0  0  0  0  0  0
   -0.0891    0.2643   -7.0709 H   0  0  0  0  0  0  0  0  0  0  0  0
   -2.5936    2.6940   -4.5079 H   0  0  0  0  0  0  0  0  0  0  0  0
   -3.1260    0.6703   -3.1693 H   0  0  0  0  0  0  0  0  0  0  0  0
   -1.0541    2.5860   -6.5924 N   0  0  0  0  0  0  0  0  0  0  0  0
   -0.9189    3.4658   -7.3080 N   0  0  0  0  0  0  0  0  0  0  0  0
    2.3557    1.0053   -6.2471 S   0  0  0  0  0  0  0  0  0  0  0  0
    3.1091   -0.7358   -6.3457 C   0  0  0  0  0  0  0  0  0  0  0  0
    3.2929    1.8246   -5.4646 O   0  0  0  0  0  0  0  0  0  0  0  0
    1.0525    0.6969   -5.3300 O   0  0  0  0  0  0  0  0  0  0  0  0
    1.9530    1.3572   -7.6272 O   0  0  0  0  0  0  0  0  0  0  0  0
    4.1900   -0.6988   -7.1292 F   0  0  0  0  0  0  0  0  0  0  0  0
    3.4514   -1.1615   -5.1279 F   0  0  0  0  0  0  0  0  0  0  0  0
    2.2078   -1.5836   -6.8740 F   0  0  0  0  0  0  0  0  0  0  0  0
   -2.1710   -1.5505   -3.8415 H   0  0  0  0  0  0  0  0  0  0  0  0
  1  6  2  0  0  0  0
  2  8  1  6  0  0  0
  2  3  1  0  0  0  0
  2  1  1  0  0  0  0
  2 16  1  0  0  0  0
  3  4  2  0  0  0  0
  4  9  1  0  0  0  0
  4  5  1  0  0  0  0
  5 10  1  0  0  0  0
  6  5  1  0  0  0  0
  6 21  1  0  0  0  0
  7  1  1  0  0  0  0
 11  3  1  0  0  0  0
 12 11  1  0  0  0  0
 13 15  2  0  0  0  0
 13 16  1  0  0  0  0
 14 13  1  0  0  0  0
 14 19  1  0  0  0  0
 17 13  2  0  0  0  0
 18 14  1  0  0  0  0
 20 14  1  0  0  0  0
M  RAD  3   5   2  11   2  12   3
M  END
