Coordinates from ORCA-job Ph-N2-OTf-B3LYPG-aug-cc-pVDZ-scan-d09-49-n400
 OpenBabel07022015323D

 21 20  0  0  0  0  0  0  0  0999 V2000
   -1.2810   -0.1214   -3.5940 C   0  0  0  0  0  0  0  0  0  0  0  0
   -0.0597    0.3508   -4.0827 C   0  0  0  0  0  0  0  0  0  0  0  0
    0.0374    0.6686   -5.4364 C   0  0  0  0  0  0  0  0  0  0  0  0
   -1.0453    0.5459   -6.3056 C   0  0  0  0  0  0  0  0  0  0  0  0
   -2.2633    0.0826   -5.7995 C   0  0  0  0  0  0  0  0  0  0  0  0
   -2.3811   -0.2555   -4.4475 C   0  0  0  0  0  0  0  0  0  0  0  0
   -1.3706   -0.3822   -2.5395 H   0  0  0  0  0  0  0  0  0  0  0  0
    0.8029    0.4693   -3.4306 H   0  0  0  0  0  0  0  0  0  0  0  0
   -0.9338    0.8205   -7.3532 H   0  0  0  0  0  0  0  0  0  0  0  0
   -3.1198   -0.0180   -6.4663 H   0  0  0  0  0  0  0  0  0  0  0  0
   -0.6873    4.0521   -4.7558 N   0  0  0  0  0  0  0  0  0  0  0  0
   -1.5631    4.5594   -4.3146 N   0  0  0  0  0  0  0  0  0  0  0  0
    2.6112    0.3067   -6.0784 S   0  0  0  0  0  0  0  0  0  0  0  0
    2.3902   -0.3785   -7.8423 C   0  0  0  0  0  0  0  0  0  0  0  0
    3.7159    1.2708   -6.1321 O   0  0  0  0  0  0  0  0  0  0  0  0
    2.5738   -0.8440   -5.1611 O   0  0  0  0  0  0  0  0  0  0  0  0
    1.2270    1.2300   -5.9520 O   0  0  0  0  0  0  0  0  0  0  0  0
    2.2341    0.6288   -8.7035 F   0  0  0  0  0  0  0  0  0  0  0  0
    3.4846   -1.0760   -8.1566 F   0  0  0  0  0  0  0  0  0  0  0  0
    1.3192   -1.1782   -7.8869 F   0  0  0  0  0  0  0  0  0  0  0  0
   -3.3297   -0.6248   -4.0586 H   0  0  0  0  0  0  0  0  0  0  0  0
  1  7  1  0  0  0  0
  2  1  1  0  0  0  0
  2  8  1  0  0  0  0
  3  2  2  0  0  0  0
  4  5  2  0  0  0  0
  4  3  1  0  0  0  0
  5  6  1  0  0  0  0
  6 21  1  0  0  0  0
  6  1  2  0  0  0  0
  9  4  1  0  0  0  0
 10  5  1  0  0  0  0
 11 12  3  0  0  0  0
 13 17  1  0  0  0  0
 13 16  2  0  0  0  0
 14 13  1  0  0  0  0
 15 13  2  0  0  0  0
 17  3  1  0  0  0  0
 18 14  1  0  0  0  0
 19 14  1  0  0  0  0
 20 14  1  0  0  0  0
M  END
