Coordinates from ORCA-job Ph-N2-OTf-B3LYPG-aug-cc-pVDZ-scan-d09-49-n400
 OpenBabel07022015323D

 21 21  0  0  1  0  0  0  0  0999 V2000
   -0.8559   -0.7078   -5.4706 C   0  0  0  0  0  0  0  0  0  0  0  0
   -0.3306    0.5388   -6.0914 C   0  0  1  0  0  0  0  0  0  0  0  0
   -1.2052    1.8139   -5.8275 C   0  0  0  0  0  0  0  0  0  0  0  0
   -2.1026    1.7306   -4.6285 C   0  0  0  0  0  0  0  0  0  0  0  0
   -2.3600    0.5609   -4.0129 C   0  0  0  0  0  0  0  0  0  0  0  0
   -1.7784   -0.6841   -4.4892 C   0  0  0  0  0  0  0  0  0  0  0  0
   -0.4277   -1.6450   -5.8236 H   0  0  0  0  0  0  0  0  0  0  0  0
   -0.1767    0.4565   -7.1729 H   0  0  0  0  0  0  0  0  0  0  0  0
   -2.5423    2.6768   -4.3129 H   0  0  0  0  0  0  0  0  0  0  0  0
   -3.0296    0.5392   -3.1531 H   0  0  0  0  0  0  0  0  0  0  0  0
   -1.1225    2.5697   -6.3804 N   0  0  0  0  0  0  0  0  0  0  0  0
   -1.0142    3.5158   -7.0734 N   0  0  0  0  0  0  0  0  0  0  0  0
    2.3456    0.9460   -6.4484 S   0  0  0  0  0  0  0  0  0  0  0  0
    3.0837   -0.7798   -6.1451 C   0  0  0  0  0  0  0  0  0  0  0  0
    3.2540    1.9117   -5.8199 O   0  0  0  0  0  0  0  0  0  0  0  0
    1.0091    0.8356   -5.4872 O   0  0  0  0  0  0  0  0  0  0  0  0
    1.9586    0.9960   -7.8715 O   0  0  0  0  0  0  0  0  0  0  0  0
    4.2172   -0.8821   -6.8415 F   0  0  0  0  0  0  0  0  0  0  0  0
    3.3328   -0.9520   -4.8469 F   0  0  0  0  0  0  0  0  0  0  0  0
    2.2166   -1.7150   -6.5632 F   0  0  0  0  0  0  0  0  0  0  0  0
   -2.1101   -1.6189   -4.0372 H   0  0  0  0  0  0  0  0  0  0  0  0
  1  6  1  0  0  0  0
  2  8  1  6  0  0  0
  2  3  1  0  0  0  0
  2 16  1  0  0  0  0
  2  1  1  0  0  0  0
  3  4  2  0  0  0  0
  4  9  1  0  0  0  0
  4  5  1  0  0  0  0
  5 10  1  0  0  0  0
  6 21  1  0  0  0  0
  6  5  2  0  0  0  0
  7  1  1  0  0  0  0
 11  3  1  0  0  0  0
 12 11  1  0  0  0  0
 13 14  1  0  0  0  0
 13 15  2  0  0  0  0
 13 16  1  0  0  0  0
 14 19  1  0  0  0  0
 17 13  2  0  0  0  0
 18 14  1  0  0  0  0
 20 14  1  0  0  0  0
M  RAD  3   1   2  11   2  12   3
M  END
