Coordinates from ORCA-job Ph-N2-OTf-B3LYPG-aug-cc-pVDZ-scan-d09-49-n400
 OpenBabel07022015323D

 21 20  0  0  0  0  0  0  0  0999 V2000
   -1.2577   -0.1498   -3.6111 C   0  0  0  0  0  0  0  0  0  0  0  0
   -0.0335    0.3122   -4.1023 C   0  0  0  0  0  0  0  0  0  0  0  0
    0.0657    0.6212   -5.4580 C   0  0  0  0  0  0  0  0  0  0  0  0
   -1.0181    0.5018   -6.3264 C   0  0  0  0  0  0  0  0  0  0  0  0
   -2.2389    0.0488   -5.8178 C   0  0  0  0  0  0  0  0  0  0  0  0
   -2.3586   -0.2817   -4.4641 C   0  0  0  0  0  0  0  0  0  0  0  0
   -1.3490   -0.4042   -2.5552 H   0  0  0  0  0  0  0  0  0  0  0  0
    0.8296    0.4295   -3.4507 H   0  0  0  0  0  0  0  0  0  0  0  0
   -0.9049    0.7707   -7.3753 H   0  0  0  0  0  0  0  0  0  0  0  0
   -3.0962   -0.0495   -6.4839 H   0  0  0  0  0  0  0  0  0  0  0  0
   -0.9046    4.5463   -4.5771 N   0  0  0  0  0  0  0  0  0  0  0  0
   -1.8102    4.9846   -4.1224 N   0  0  0  0  0  0  0  0  0  0  0  0
    2.6372    0.2402   -6.1000 S   0  0  0  0  0  0  0  0  0  0  0  0
    2.4119   -0.4476   -7.8624 C   0  0  0  0  0  0  0  0  0  0  0  0
    3.7482    1.1968   -6.1557 O   0  0  0  0  0  0  0  0  0  0  0  0
    2.5914   -0.9078   -5.1797 O   0  0  0  0  0  0  0  0  0  0  0  0
    1.2588    1.1733   -5.9761 O   0  0  0  0  0  0  0  0  0  0  0  0
    2.2610    0.5589   -8.7254 F   0  0  0  0  0  0  0  0  0  0  0  0
    3.5024   -1.1516   -8.1756 F   0  0  0  0  0  0  0  0  0  0  0  0
    1.3366   -1.2415   -7.9049 F   0  0  0  0  0  0  0  0  0  0  0  0
   -3.3093   -0.6434   -4.0733 H   0  0  0  0  0  0  0  0  0  0  0  0
  1  7  1  0  0  0  0
  2  1  1  0  0  0  0
  2  8  1  0  0  0  0
  3  2  2  0  0  0  0
  4  5  2  0  0  0  0
  4  3  1  0  0  0  0
  5  6  1  0  0  0  0
  6 21  1  0  0  0  0
  6  1  2  0  0  0  0
  9  4  1  0  0  0  0
 10  5  1  0  0  0  0
 11 12  3  0  0  0  0
 13 17  1  0  0  0  0
 13 16  2  0  0  0  0
 14 13  1  0  0  0  0
 15 13  2  0  0  0  0
 17  3  1  0  0  0  0
 18 14  1  0  0  0  0
 19 14  1  0  0  0  0
 20 14  1  0  0  0  0
M  END
