Coordinates from ORCA-job Ph-N2-OTf-B3LYPG-aug-cc-pVDZ-scan-d09-49-n400
 OpenBabel07022015323D

 21 20  0  0  0  0  0  0  0  0999 V2000
   -1.2912   -0.0999   -3.5863 C   0  0  0  0  0  0  0  0  0  0  0  0
   -0.0713    0.3771   -4.0738 C   0  0  0  0  0  0  0  0  0  0  0  0
    0.0244    0.7010   -5.4261 C   0  0  0  0  0  0  0  0  0  0  0  0
   -1.0570    0.5741   -6.2962 C   0  0  0  0  0  0  0  0  0  0  0  0
   -2.2736    0.1059   -5.7916 C   0  0  0  0  0  0  0  0  0  0  0  0
   -2.3910   -0.2349   -4.4402 C   0  0  0  0  0  0  0  0  0  0  0  0
   -1.3800   -0.3641   -2.5326 H   0  0  0  0  0  0  0  0  0  0  0  0
    0.7909    0.4958   -3.4213 H   0  0  0  0  0  0  0  0  0  0  0  0
   -0.9458    0.8497   -7.3436 H   0  0  0  0  0  0  0  0  0  0  0  0
   -3.1293    0.0028   -6.4591 H   0  0  0  0  0  0  0  0  0  0  0  0
   -0.5835    3.7731   -4.8415 N   0  0  0  0  0  0  0  0  0  0  0  0
   -1.4455    4.3094   -4.4074 N   0  0  0  0  0  0  0  0  0  0  0  0
    2.5981    0.3408   -6.0677 S   0  0  0  0  0  0  0  0  0  0  0  0
    2.3773   -0.3462   -7.8310 C   0  0  0  0  0  0  0  0  0  0  0  0
    3.7017    1.3061   -6.1229 O   0  0  0  0  0  0  0  0  0  0  0  0
    2.5632   -0.8093   -5.1495 O   0  0  0  0  0  0  0  0  0  0  0  0
    1.2134    1.2627   -5.9413 O   0  0  0  0  0  0  0  0  0  0  0  0
    2.2189    0.6601   -8.6929 F   0  0  0  0  0  0  0  0  0  0  0  0
    3.4728   -1.0419   -8.1453 F   0  0  0  0  0  0  0  0  0  0  0  0
    1.3078   -1.1479   -7.8745 F   0  0  0  0  0  0  0  0  0  0  0  0
   -3.3385   -0.6078   -4.0522 H   0  0  0  0  0  0  0  0  0  0  0  0
  1  7  1  0  0  0  0
  2  1  1  0  0  0  0
  2  8  1  0  0  0  0
  3  2  2  0  0  0  0
  4  5  2  0  0  0  0
  4  3  1  0  0  0  0
  5  6  1  0  0  0  0
  6 21  1  0  0  0  0
  6  1  2  0  0  0  0
  9  4  1  0  0  0  0
 10  5  1  0  0  0  0
 11 12  3  0  0  0  0
 13 17  1  0  0  0  0
 13 16  2  0  0  0  0
 14 13  1  0  0  0  0
 15 13  2  0  0  0  0
 17  3  1  0  0  0  0
 18 14  1  0  0  0  0
 19 14  1  0  0  0  0
 20 14  1  0  0  0  0
M  END
