Coordinates from ORCA-job Ph-N2-OTf-B3LYPG-aug-cc-pVDZ-scan-d09-49-n400
 OpenBabel07022015323D

 21 20  0  0  0  0  0  0  0  0999 V2000
   -1.2863   -0.1114   -3.5904 C   0  0  0  0  0  0  0  0  0  0  0  0
   -0.0656    0.3628   -4.0787 C   0  0  0  0  0  0  0  0  0  0  0  0
    0.0309    0.6828   -5.4320 C   0  0  0  0  0  0  0  0  0  0  0  0
   -1.0514    0.5586   -6.3014 C   0  0  0  0  0  0  0  0  0  0  0  0
   -2.2688    0.0933   -5.7958 C   0  0  0  0  0  0  0  0  0  0  0  0
   -2.3864   -0.2459   -4.4440 C   0  0  0  0  0  0  0  0  0  0  0  0
   -1.3756   -0.3734   -2.5362 H   0  0  0  0  0  0  0  0  0  0  0  0
    0.7968    0.4817   -3.4265 H   0  0  0  0  0  0  0  0  0  0  0  0
   -0.9401    0.8336   -7.3489 H   0  0  0  0  0  0  0  0  0  0  0  0
   -3.1251   -0.0083   -6.4628 H   0  0  0  0  0  0  0  0  0  0  0  0
   -0.6352    3.9207   -4.7967 N   0  0  0  0  0  0  0  0  0  0  0  0
   -1.5050    4.4399   -4.3576 N   0  0  0  0  0  0  0  0  0  0  0  0
    2.6050    0.3238   -6.0734 S   0  0  0  0  0  0  0  0  0  0  0  0
    2.3845   -0.3631   -7.8368 C   0  0  0  0  0  0  0  0  0  0  0  0
    3.7083    1.2894   -6.1283 O   0  0  0  0  0  0  0  0  0  0  0  0
    2.5697   -0.8263   -5.1553 O   0  0  0  0  0  0  0  0  0  0  0  0
    1.2197    1.2454   -5.9472 O   0  0  0  0  0  0  0  0  0  0  0  0
    2.2268    0.6433   -8.6987 F   0  0  0  0  0  0  0  0  0  0  0  0
    3.4797   -1.0593   -8.1508 F   0  0  0  0  0  0  0  0  0  0  0  0
    1.3145   -1.1642   -7.8805 F   0  0  0  0  0  0  0  0  0  0  0  0
   -3.3346   -0.6166   -4.0554 H   0  0  0  0  0  0  0  0  0  0  0  0
  1  7  1  0  0  0  0
  2  1  1  0  0  0  0
  2  8  1  0  0  0  0
  3  2  2  0  0  0  0
  4  5  2  0  0  0  0
  4  3  1  0  0  0  0
  5  6  1  0  0  0  0
  6 21  1  0  0  0  0
  6  1  2  0  0  0  0
  9  4  1  0  0  0  0
 10  5  1  0  0  0  0
 11 12  3  0  0  0  0
 13 17  1  0  0  0  0
 13 16  2  0  0  0  0
 14 13  1  0  0  0  0
 15 13  2  0  0  0  0
 17  3  1  0  0  0  0
 18 14  1  0  0  0  0
 19 14  1  0  0  0  0
 20 14  1  0  0  0  0
M  END
