Coordinates from ORCA-job Ph-N2-OTf-B3LYPG-aug-cc-pVDZ-scan-d09-49-n400
 OpenBabel07022015323D

 21 20  0  0  0  0  0  0  0  0999 V2000
   -1.2948   -0.0695   -3.5819 C   0  0  0  0  0  0  0  0  0  0  0  0
   -0.0759    0.4106   -4.0680 C   0  0  0  0  0  0  0  0  0  0  0  0
    0.0186    0.7433   -5.4181 C   0  0  0  0  0  0  0  0  0  0  0  0
   -1.0603    0.6091   -6.2901 C   0  0  0  0  0  0  0  0  0  0  0  0
   -2.2763    0.1379   -5.7873 C   0  0  0  0  0  0  0  0  0  0  0  0
   -2.3945   -0.2039   -4.4361 C   0  0  0  0  0  0  0  0  0  0  0  0
   -1.3832   -0.3373   -2.5291 H   0  0  0  0  0  0  0  0  0  0  0  0
    0.7858    0.5302   -3.4149 H   0  0  0  0  0  0  0  0  0  0  0  0
   -0.9485    0.8852   -7.3374 H   0  0  0  0  0  0  0  0  0  0  0  0
   -3.1308    0.0325   -6.4560 H   0  0  0  0  0  0  0  0  0  0  0  0
   -0.5247    3.4880   -4.9034 N   0  0  0  0  0  0  0  0  0  0  0  0
   -1.3768    4.0441   -4.4737 N   0  0  0  0  0  0  0  0  0  0  0  0
    2.5893    0.3664   -6.0596 S   0  0  0  0  0  0  0  0  0  0  0  0
    2.3631   -0.3247   -7.8206 C   0  0  0  0  0  0  0  0  0  0  0  0
    3.6976    1.3260   -6.1193 O   0  0  0  0  0  0  0  0  0  0  0  0
    2.5507   -0.7807   -5.1379 O   0  0  0  0  0  0  0  0  0  0  0  0
    1.2102    1.2966   -5.9342 O   0  0  0  0  0  0  0  0  0  0  0  0
    2.2042    0.6797   -8.6848 F   0  0  0  0  0  0  0  0  0  0  0  0
    3.4571   -1.0225   -8.1355 F   0  0  0  0  0  0  0  0  0  0  0  0
    1.2926   -1.1251   -7.8601 F   0  0  0  0  0  0  0  0  0  0  0  0
   -3.3416   -0.5791   -4.0494 H   0  0  0  0  0  0  0  0  0  0  0  0
  1  7  1  0  0  0  0
  2  1  1  0  0  0  0
  2  8  1  0  0  0  0
  3  2  2  0  0  0  0
  4  5  2  0  0  0  0
  4  3  1  0  0  0  0
  5  6  1  0  0  0  0
  6 21  1  0  0  0  0
  6  1  2  0  0  0  0
  9  4  1  0  0  0  0
 10  5  1  0  0  0  0
 11 12  3  0  0  0  0
 13 17  1  0  0  0  0
 13 16  2  0  0  0  0
 14 13  1  0  0  0  0
 15 13  2  0  0  0  0
 17  3  1  0  0  0  0
 18 14  1  0  0  0  0
 19 14  1  0  0  0  0
 20 14  1  0  0  0  0
M  END
