Coordinates from ORCA-job Ph-N2-OTf-B3LYPG-aug-cc-pVDZ-scan-d09-49-n400
 OpenBabel07022015323D

 21 20  0  0  0  0  0  0  0  0999 V2000
   -1.3046   -0.7054   -4.3058 C   0  0  0  0  0  0  0  0  0  0  0  0
   -0.4595    0.2668   -4.8595 C   0  0  0  0  0  0  0  0  0  0  0  0
   -1.1188    1.3563   -5.3897 C   0  0  0  0  0  0  0  0  0  0  0  0
   -2.4893    1.5968   -5.4372 C   0  0  0  0  0  0  0  0  0  0  0  0
   -3.2859    0.5982   -4.8750 C   0  0  0  0  0  0  0  0  0  0  0  0
   -2.6935   -0.5433   -4.3147 C   0  0  0  0  0  0  0  0  0  0  0  0
   -0.8521   -1.5949   -3.8697 H   0  0  0  0  0  0  0  0  0  0  0  0
    0.6315    0.1537   -4.8665 H   0  0  0  0  0  0  0  0  0  0  0  0
   -2.9102    2.4951   -5.8820 H   0  0  0  0  0  0  0  0  0  0  0  0
   -4.3692    0.7154   -4.8794 H   0  0  0  0  0  0  0  0  0  0  0  0
   -0.2620    2.5320   -6.0358 N   0  0  0  0  0  0  0  0  0  0  0  0
    0.0185    3.5004   -6.4935 N   0  0  0  0  0  0  0  0  0  0  0  0
    3.0267    0.6497   -5.8289 S   0  0  0  0  0  0  0  0  0  0  0  0
    3.2033   -0.3430   -7.4349 C   0  0  0  0  0  0  0  0  0  0  0  0
    4.3737    1.2190   -5.5848 O   0  0  0  0  0  0  0  0  0  0  0  0
    2.5093   -0.3654   -4.8460 O   0  0  0  0  0  0  0  0  0  0  0  0
    1.9555    1.6707   -6.2026 O   0  0  0  0  0  0  0  0  0  0  0  0
    3.6073    0.4477   -8.4450 F   0  0  0  0  0  0  0  0  0  0  0  0
    4.0947   -1.3360   -7.2846 F   0  0  0  0  0  0  0  0  0  0  0  0
    2.0143   -0.8904   -7.7806 F   0  0  0  0  0  0  0  0  0  0  0  0
   -3.3280   -1.3165   -3.8812 H   0  0  0  0  0  0  0  0  0  0  0  0
  1  7  1  0  0  0  0
  2  1  2  0  0  0  0
  3  2  1  0  0  0  0
  4  3  2  0  0  0  0
  4  5  1  0  0  0  0
  5  6  2  0  0  0  0
  6  1  1  0  0  0  0
  6 21  1  0  0  0  0
  8  2  1  0  0  0  0
  9  4  1  0  0  0  0
 10  5  1  0  0  0  0
 11  3  1  0  0  0  0
 12 11  1  0  0  0  0
 13 15  2  0  0  0  0
 13 16  1  0  0  0  0
 14 19  1  0  0  0  0
 14 13  1  0  0  0  0
 17 13  2  0  0  0  0
 18 14  1  0  0  0  0
 20 14  1  0  0  0  0
M  RAD  3  11   2  12   3  16   2
M  END
