Coordinates from ORCA-job Ph-N2-OTf-B3LYPG-aug-cc-pVDZ-scan-d09-49-n400
 OpenBabel07022015323D

 21 20  0  0  0  0  0  0  0  0999 V2000
   -1.3166   -0.7783   -4.4073 C   0  0  0  0  0  0  0  0  0  0  0  0
   -0.4307    0.2656   -4.7597 C   0  0  0  0  0  0  0  0  0  0  0  0
   -1.1229    1.3504   -5.1711 C   0  0  0  0  0  0  0  0  0  0  0  0
   -2.4452    1.6581   -5.3325 C   0  0  0  0  0  0  0  0  0  0  0  0
   -3.2670    0.5733   -4.9725 C   0  0  0  0  0  0  0  0  0  0  0  0
   -2.7027   -0.6239   -4.5137 C   0  0  0  0  0  0  0  0  0  0  0  0
   -0.8814   -1.7137   -4.0561 H   0  0  0  0  0  0  0  0  0  0  0  0
    0.6780    0.1776   -4.7321 H   0  0  0  0  0  0  0  0  0  0  0  0
   -2.8301    2.6064   -5.6940 H   0  0  0  0  0  0  0  0  0  0  0  0
   -4.3472    0.6888   -5.0605 H   0  0  0  0  0  0  0  0  0  0  0  0
   -0.0486    2.8491   -5.5967 N   0  0  0  0  0  0  0  0  0  0  0  0
    0.3150    3.8848   -5.7104 N   0  0  0  0  0  0  0  0  0  0  0  0
    2.7837    0.8357   -6.1844 S   0  0  0  0  0  0  0  0  0  0  0  0
    3.2560   -0.5995   -7.3303 C   0  0  0  0  0  0  0  0  0  0  0  0
    3.9717    1.7253   -6.1676 O   0  0  0  0  0  0  0  0  0  0  0  0
    2.4587    0.1379   -4.8777 O   0  0  0  0  0  0  0  0  0  0  0  0
    1.5415    1.3956   -6.8497 O   0  0  0  0  0  0  0  0  0  0  0  0
    3.5346   -0.1474   -8.5646 F   0  0  0  0  0  0  0  0  0  0  0  0
    4.3337   -1.2452   -6.8559 F   0  0  0  0  0  0  0  0  0  0  0  0
    2.2377   -1.4824   -7.4220 F   0  0  0  0  0  0  0  0  0  0  0  0
   -3.3565   -1.4512   -4.2387 H   0  0  0  0  0  0  0  0  0  0  0  0
  1  7  1  0  0  0  0
  2  8  1  0  0  0  0
  2  1  2  0  0  0  0
  3  2  1  0  0  0  0
  4  3  2  0  0  0  0
  4  5  1  0  0  0  0
  5  6  2  0  0  0  0
  6  1  1  0  0  0  0
  6 21  1  0  0  0  0
  9  4  1  0  0  0  0
 10  5  1  0  0  0  0
 11  3  1  0  0  0  0
 12 11  1  0  0  0  0
 13 15  2  0  0  0  0
 13 16  1  0  0  0  0
 14 19  1  0  0  0  0
 14 13  1  0  0  0  0
 17 13  2  0  0  0  0
 18 14  1  0  0  0  0
 20 14  1  0  0  0  0
M  RAD  3  11   2  12   3  16   2
M  END
