Coordinates from ORCA-job Ph-N2-OTf-B3LYPG-aug-cc-pVDZ-scan-d09-49-n400
 OpenBabel07022015323D

 21 20  0  0  0  0  0  0  0  0999 V2000
   -1.2424   -0.1615   -3.6223 C   0  0  0  0  0  0  0  0  0  0  0  0
   -0.0162    0.2929   -4.1153 C   0  0  0  0  0  0  0  0  0  0  0  0
    0.0846    0.5952   -5.4724 C   0  0  0  0  0  0  0  0  0  0  0  0
   -0.9995    0.4767   -6.3404 C   0  0  0  0  0  0  0  0  0  0  0  0
   -2.2224    0.0313   -5.8300 C   0  0  0  0  0  0  0  0  0  0  0  0
   -2.3437   -0.2927   -4.4749 C   0  0  0  0  0  0  0  0  0  0  0  0
   -1.3351   -0.4107   -2.5652 H   0  0  0  0  0  0  0  0  0  0  0  0
    0.8474    0.4095   -3.4641 H   0  0  0  0  0  0  0  0  0  0  0  0
   -0.8850    0.7404   -7.3906 H   0  0  0  0  0  0  0  0  0  0  0  0
   -3.0800   -0.0662   -6.4958 H   0  0  0  0  0  0  0  0  0  0  0  0
   -1.0461    4.8412   -4.4603 N   0  0  0  0  0  0  0  0  0  0  0  0
   -1.9720    5.2254   -3.9975 N   0  0  0  0  0  0  0  0  0  0  0  0
    2.6539    0.1980   -6.1139 S   0  0  0  0  0  0  0  0  0  0  0  0
    2.4251   -0.4926   -7.8748 C   0  0  0  0  0  0  0  0  0  0  0  0
    3.7703    1.1482   -6.1716 O   0  0  0  0  0  0  0  0  0  0  0  0
    2.6011   -0.9474   -5.1908 O   0  0  0  0  0  0  0  0  0  0  0  0
    1.2806    1.1392   -5.9927 O   0  0  0  0  0  0  0  0  0  0  0  0
    2.2782    0.5128   -8.7398 F   0  0  0  0  0  0  0  0  0  0  0  0
    3.5124   -1.2019   -8.1869 F   0  0  0  0  0  0  0  0  0  0  0  0
    1.3464   -1.2819   -7.9153 F   0  0  0  0  0  0  0  0  0  0  0  0
   -3.2959   -0.6488   -4.0827 H   0  0  0  0  0  0  0  0  0  0  0  0
  1  7  1  0  0  0  0
  2  1  1  0  0  0  0
  2  8  1  0  0  0  0
  3  2  2  0  0  0  0
  4  5  2  0  0  0  0
  4  3  1  0  0  0  0
  5  6  1  0  0  0  0
  6 21  1  0  0  0  0
  6  1  2  0  0  0  0
  9  4  1  0  0  0  0
 10  5  1  0  0  0  0
 11 12  3  0  0  0  0
 13 17  1  0  0  0  0
 13 16  2  0  0  0  0
 14 13  1  0  0  0  0
 15 13  2  0  0  0  0
 17  3  1  0  0  0  0
 18 14  1  0  0  0  0
 19 14  1  0  0  0  0
 20 14  1  0  0  0  0
M  END
