Coordinates from ORCA-job Ph-N2-OTf-B3LYPG-aug-cc-pVDZ-scan-d09-49-n400
 OpenBabel07022015323D

 21 21  0  0  1  0  0  0  0  0999 V2000
   -0.8548   -0.7041   -5.4748 C   0  0  0  0  0  0  0  0  0  0  0  0
   -0.3418    0.5464   -6.0964 C   0  0  1  0  0  0  0  0  0  0  0  0
   -1.2163    1.7833   -5.8175 C   0  0  0  0  0  0  0  0  0  0  0  0
   -2.1048    1.7250   -4.6322 C   0  0  0  0  0  0  0  0  0  0  0  0
   -2.3520    0.5570   -4.0020 C   0  0  0  0  0  0  0  0  0  0  0  0
   -1.7660   -0.6831   -4.4803 C   0  0  0  0  0  0  0  0  0  0  0  0
   -0.4264   -1.6394   -5.8315 H   0  0  0  0  0  0  0  0  0  0  0  0
   -0.1663    0.4585   -7.1733 H   0  0  0  0  0  0  0  0  0  0  0  0
   -2.5555    2.6664   -4.3186 H   0  0  0  0  0  0  0  0  0  0  0  0
   -3.0158    0.5358   -3.1384 H   0  0  0  0  0  0  0  0  0  0  0  0
   -1.1389    2.6127   -6.4238 N   0  0  0  0  0  0  0  0  0  0  0  0
   -1.0462    3.5476   -7.1101 N   0  0  0  0  0  0  0  0  0  0  0  0
    2.3508    0.9443   -6.4310 S   0  0  0  0  0  0  0  0  0  0  0  0
    3.0782   -0.7886   -6.1456 C   0  0  0  0  0  0  0  0  0  0  0  0
    3.2718    1.8965   -5.7981 O   0  0  0  0  0  0  0  0  0  0  0  0
    1.0164    0.8417   -5.4792 O   0  0  0  0  0  0  0  0  0  0  0  0
    1.9712    1.0107   -7.8567 O   0  0  0  0  0  0  0  0  0  0  0  0
    4.2126   -0.8917   -6.8412 F   0  0  0  0  0  0  0  0  0  0  0  0
    3.3248   -0.9770   -4.8487 F   0  0  0  0  0  0  0  0  0  0  0  0
    2.2067   -1.7154   -6.5745 F   0  0  0  0  0  0  0  0  0  0  0  0
   -2.0859   -1.6198   -4.0232 H   0  0  0  0  0  0  0  0  0  0  0  0
  1  6  2  0  0  0  0
  2  8  1  6  0  0  0
  2  3  1  0  0  0  0
  2 16  1  0  0  0  0
  2  1  1  0  0  0  0
  3  4  2  0  0  0  0
  4  9  1  0  0  0  0
  4  5  1  0  0  0  0
  5 10  1  0  0  0  0
  6 21  1  0  0  0  0
  6  5  1  0  0  0  0
  7  1  1  0  0  0  0
 11  3  1  0  0  0  0
 12 11  1  0  0  0  0
 13 14  1  0  0  0  0
 13 15  2  0  0  0  0
 13 16  1  0  0  0  0
 14 19  1  0  0  0  0
 17 13  2  0  0  0  0
 18 14  1  0  0  0  0
 20 14  1  0  0  0  0
M  RAD  3   5   2  11   2  12   3
M  END
