Coordinates from ORCA-job Ph-N2-OTf-B3LYPG-aug-cc-pVDZ-scan-d09-49-n400
 OpenBabel07022015323D

 21 20  0  0  0  0  0  0  0  0999 V2000
   -1.2380   -0.1653   -3.6258 C   0  0  0  0  0  0  0  0  0  0  0  0
   -0.0111    0.2870   -4.1193 C   0  0  0  0  0  0  0  0  0  0  0  0
    0.0901    0.5874   -5.4767 C   0  0  0  0  0  0  0  0  0  0  0  0
   -0.9942    0.4694   -6.3447 C   0  0  0  0  0  0  0  0  0  0  0  0
   -2.2176    0.0261   -5.8338 C   0  0  0  0  0  0  0  0  0  0  0  0
   -2.3393   -0.2961   -4.4783 C   0  0  0  0  0  0  0  0  0  0  0  0
   -1.3310   -0.4130   -2.5684 H   0  0  0  0  0  0  0  0  0  0  0  0
    0.8526    0.4033   -3.4682 H   0  0  0  0  0  0  0  0  0  0  0  0
   -0.8794    0.7318   -7.3951 H   0  0  0  0  0  0  0  0  0  0  0  0
   -3.0754   -0.0711   -6.4995 H   0  0  0  0  0  0  0  0  0  0  0  0
   -1.0870    4.9288   -4.4254 N   0  0  0  0  0  0  0  0  0  0  0  0
   -2.0188    5.2960   -3.9606 N   0  0  0  0  0  0  0  0  0  0  0  0
    2.6588    0.1861   -6.1180 S   0  0  0  0  0  0  0  0  0  0  0  0
    2.4289   -0.5061   -7.8781 C   0  0  0  0  0  0  0  0  0  0  0  0
    3.7764    1.1348   -6.1768 O   0  0  0  0  0  0  0  0  0  0  0  0
    2.6046   -0.9582   -5.1936 O   0  0  0  0  0  0  0  0  0  0  0  0
    1.2868    1.1293   -5.9976 O   0  0  0  0  0  0  0  0  0  0  0  0
    2.2827    0.4985   -8.7441 F   0  0  0  0  0  0  0  0  0  0  0  0
    3.5154   -1.2168   -8.1898 F   0  0  0  0  0  0  0  0  0  0  0  0
    1.3493   -1.2944   -7.9175 F   0  0  0  0  0  0  0  0  0  0  0  0
   -3.2920   -0.6506   -4.0856 H   0  0  0  0  0  0  0  0  0  0  0  0
  1  7  1  0  0  0  0
  2  1  1  0  0  0  0
  2  8  1  0  0  0  0
  3  2  2  0  0  0  0
  4  5  2  0  0  0  0
  4  3  1  0  0  0  0
  5  6  1  0  0  0  0
  6 21  1  0  0  0  0
  6  1  2  0  0  0  0
  9  4  1  0  0  0  0
 10  5  1  0  0  0  0
 11 12  3  0  0  0  0
 13 17  1  0  0  0  0
 13 16  2  0  0  0  0
 14 13  1  0  0  0  0
 15 13  2  0  0  0  0
 17  3  1  0  0  0  0
 18 14  1  0  0  0  0
 19 14  1  0  0  0  0
 20 14  1  0  0  0  0
M  END
