Coordinates from ORCA-job Ph-N2-OTf-B3LYPG-aug-cc-pVDZ-scan-d09-49-n400
 OpenBabel07022015323D

 21 20  0  0  0  0  0  0  0  0999 V2000
   -1.2723   -0.1352   -3.6006 C   0  0  0  0  0  0  0  0  0  0  0  0
   -0.0500    0.3335   -4.0904 C   0  0  0  0  0  0  0  0  0  0  0  0
    0.0479    0.6470   -5.4451 C   0  0  0  0  0  0  0  0  0  0  0  0
   -1.0350    0.5245   -6.3141 C   0  0  0  0  0  0  0  0  0  0  0  0
   -2.2540    0.0648   -5.8069 C   0  0  0  0  0  0  0  0  0  0  0  0
   -2.3725   -0.2697   -4.4540 C   0  0  0  0  0  0  0  0  0  0  0  0
   -1.3625   -0.3930   -2.5454 H   0  0  0  0  0  0  0  0  0  0  0  0
    0.8127    0.4523   -3.4385 H   0  0  0  0  0  0  0  0  0  0  0  0
   -0.9230    0.7965   -7.3623 H   0  0  0  0  0  0  0  0  0  0  0  0
   -3.1106   -0.0358   -6.4735 H   0  0  0  0  0  0  0  0  0  0  0  0
   -0.7726    4.2649   -4.6829 N   0  0  0  0  0  0  0  0  0  0  0  0
   -1.6586    4.7493   -4.2364 N   0  0  0  0  0  0  0  0  0  0  0  0
    2.6211    0.2793   -6.0871 S   0  0  0  0  0  0  0  0  0  0  0  0
    2.3998   -0.4054   -7.8511 C   0  0  0  0  0  0  0  0  0  0  0  0
    3.7279    1.2410   -6.1401 O   0  0  0  0  0  0  0  0  0  0  0  0
    2.5803   -0.8711   -5.1696 O   0  0  0  0  0  0  0  0  0  0  0  0
    1.2386    1.2057   -5.9616 O   0  0  0  0  0  0  0  0  0  0  0  0
    2.2459    0.6023   -8.7122 F   0  0  0  0  0  0  0  0  0  0  0  0
    3.4930   -1.1048   -8.1650 F   0  0  0  0  0  0  0  0  0  0  0  0
    1.3273   -1.2030   -7.8963 F   0  0  0  0  0  0  0  0  0  0  0  0
   -3.3217   -0.6363   -4.0643 H   0  0  0  0  0  0  0  0  0  0  0  0
  1  7  1  0  0  0  0
  2  1  1  0  0  0  0
  2  8  1  0  0  0  0
  3  2  2  0  0  0  0
  4  5  2  0  0  0  0
  4  3  1  0  0  0  0
  5  6  1  0  0  0  0
  6 21  1  0  0  0  0
  6  1  2  0  0  0  0
  9  4  1  0  0  0  0
 10  5  1  0  0  0  0
 11 12  3  0  0  0  0
 13 17  1  0  0  0  0
 13 16  2  0  0  0  0
 14 13  1  0  0  0  0
 15 13  2  0  0  0  0
 17  3  1  0  0  0  0
 18 14  1  0  0  0  0
 19 14  1  0  0  0  0
 20 14  1  0  0  0  0
M  END
