Coordinates from ORCA-job Ph-N2-OTf-B3LYPG-aug-cc-pVDZ-scan-d09-49-n400
 OpenBabel07022015323D

 21 20  0  0  0  0  0  0  0  0999 V2000
   -1.2573   -0.1502   -3.6115 C   0  0  0  0  0  0  0  0  0  0  0  0
   -0.0330    0.3116   -4.1027 C   0  0  0  0  0  0  0  0  0  0  0  0
    0.0662    0.6205   -5.4584 C   0  0  0  0  0  0  0  0  0  0  0  0
   -1.0175    0.5012   -6.3268 C   0  0  0  0  0  0  0  0  0  0  0  0
   -2.2385    0.0484   -5.8182 C   0  0  0  0  0  0  0  0  0  0  0  0
   -2.3582   -0.2820   -4.4644 C   0  0  0  0  0  0  0  0  0  0  0  0
   -1.3486   -0.4045   -2.5555 H   0  0  0  0  0  0  0  0  0  0  0  0
    0.8302    0.4288   -3.4511 H   0  0  0  0  0  0  0  0  0  0  0  0
   -0.9044    0.7699   -7.3758 H   0  0  0  0  0  0  0  0  0  0  0  0
   -3.0958   -0.0498   -6.4843 H   0  0  0  0  0  0  0  0  0  0  0  0
   -0.9085    4.5542   -4.5739 N   0  0  0  0  0  0  0  0  0  0  0  0
   -1.8147    4.9912   -4.1189 N   0  0  0  0  0  0  0  0  0  0  0  0
    2.6377    0.2391   -6.1004 S   0  0  0  0  0  0  0  0  0  0  0  0
    2.4123   -0.4489   -7.8627 C   0  0  0  0  0  0  0  0  0  0  0  0
    3.7488    1.1956   -6.1562 O   0  0  0  0  0  0  0  0  0  0  0  0
    2.5917   -0.9088   -5.1799 O   0  0  0  0  0  0  0  0  0  0  0  0
    1.2595    1.1724   -5.9765 O   0  0  0  0  0  0  0  0  0  0  0  0
    2.2613    0.5575   -8.7258 F   0  0  0  0  0  0  0  0  0  0  0  0
    3.5026   -1.1530   -8.1758 F   0  0  0  0  0  0  0  0  0  0  0  0
    1.3369   -1.2427   -7.9050 F   0  0  0  0  0  0  0  0  0  0  0  0
   -3.3090   -0.6435   -4.0735 H   0  0  0  0  0  0  0  0  0  0  0  0
  1  7  1  0  0  0  0
  2  1  1  0  0  0  0
  2  8  1  0  0  0  0
  3  2  2  0  0  0  0
  4  5  2  0  0  0  0
  4  3  1  0  0  0  0
  5  6  1  0  0  0  0
  6 21  1  0  0  0  0
  6  1  2  0  0  0  0
  9  4  1  0  0  0  0
 10  5  1  0  0  0  0
 11 12  3  0  0  0  0
 13 17  1  0  0  0  0
 13 16  2  0  0  0  0
 14 13  1  0  0  0  0
 15 13  2  0  0  0  0
 17  3  1  0  0  0  0
 18 14  1  0  0  0  0
 19 14  1  0  0  0  0
 20 14  1  0  0  0  0
M  END
