Coordinates from ORCA-job Ph-N2-OTf-B3LYPG-aug-cc-pVDZ-scan-d09-49-n400
 OpenBabel07022015323D

 21 20  0  0  0  0  0  0  0  0999 V2000
   -1.2308   -0.1703   -3.6312 C   0  0  0  0  0  0  0  0  0  0  0  0
   -0.0029    0.2780   -4.1258 C   0  0  0  0  0  0  0  0  0  0  0  0
    0.0991    0.5748   -5.4840 C   0  0  0  0  0  0  0  0  0  0  0  0
   -0.9853    0.4568   -6.3518 C   0  0  0  0  0  0  0  0  0  0  0  0
   -2.2098    0.0176   -5.8399 C   0  0  0  0  0  0  0  0  0  0  0  0
   -2.3323   -0.3008   -4.4835 C   0  0  0  0  0  0  0  0  0  0  0  0
   -1.3245   -0.4149   -2.5732 H   0  0  0  0  0  0  0  0  0  0  0  0
    0.8610    0.3941   -3.4750 H   0  0  0  0  0  0  0  0  0  0  0  0
   -0.8698    0.7163   -7.4029 H   0  0  0  0  0  0  0  0  0  0  0  0
   -3.0677   -0.0793   -6.5054 H   0  0  0  0  0  0  0  0  0  0  0  0
   -1.1548    5.0713   -4.3677 N   0  0  0  0  0  0  0  0  0  0  0  0
   -2.0963    5.4086   -3.8998 N   0  0  0  0  0  0  0  0  0  0  0  0
    2.6668    0.1660   -6.1249 S   0  0  0  0  0  0  0  0  0  0  0  0
    2.4354   -0.5280   -7.8841 C   0  0  0  0  0  0  0  0  0  0  0  0
    3.7868    1.1119   -6.1848 O   0  0  0  0  0  0  0  0  0  0  0  0
    2.6095   -0.9768   -5.1988 O   0  0  0  0  0  0  0  0  0  0  0  0
    1.2971    1.1128   -6.0060 O   0  0  0  0  0  0  0  0  0  0  0  0
    2.2910    0.4759   -8.7513 F   0  0  0  0  0  0  0  0  0  0  0  0
    3.5205   -1.2411   -8.1950 F   0  0  0  0  0  0  0  0  0  0  0  0
    1.3544   -1.3142   -7.9224 F   0  0  0  0  0  0  0  0  0  0  0  0
   -3.2859   -0.6520   -4.0900 H   0  0  0  0  0  0  0  0  0  0  0  0
  1  7  1  0  0  0  0
  2  1  1  0  0  0  0
  2  8  1  0  0  0  0
  3  2  2  0  0  0  0
  4  5  2  0  0  0  0
  4  3  1  0  0  0  0
  5  6  1  0  0  0  0
  6 21  1  0  0  0  0
  6  1  2  0  0  0  0
  9  4  1  0  0  0  0
 10  5  1  0  0  0  0
 11 12  3  0  0  0  0
 13 17  1  0  0  0  0
 13 16  2  0  0  0  0
 14 13  1  0  0  0  0
 15 13  2  0  0  0  0
 17  3  1  0  0  0  0
 18 14  1  0  0  0  0
 19 14  1  0  0  0  0
 20 14  1  0  0  0  0
M  END
