Coordinates from ORCA-job Ph-N2-OTf-B3LYPG-aug-cc-pVDZ-scan-d09-49-n400
 OpenBabel07022015323D

 21 20  0  0  0  0  0  0  0  0999 V2000
   -1.2708   -0.1373   -3.6018 C   0  0  0  0  0  0  0  0  0  0  0  0
   -0.0484    0.3308   -4.0917 C   0  0  0  0  0  0  0  0  0  0  0  0
    0.0496    0.6439   -5.4466 C   0  0  0  0  0  0  0  0  0  0  0  0
   -1.0334    0.5215   -6.3155 C   0  0  0  0  0  0  0  0  0  0  0  0
   -2.2525    0.0624   -5.8081 C   0  0  0  0  0  0  0  0  0  0  0  0
   -2.3711   -0.2717   -4.4551 C   0  0  0  0  0  0  0  0  0  0  0  0
   -1.3611   -0.3947   -2.5465 H   0  0  0  0  0  0  0  0  0  0  0  0
    0.8143    0.4496   -3.4399 H   0  0  0  0  0  0  0  0  0  0  0  0
   -0.9213    0.7932   -7.3638 H   0  0  0  0  0  0  0  0  0  0  0  0
   -3.1092   -0.0382   -6.4746 H   0  0  0  0  0  0  0  0  0  0  0  0
   -0.7862    4.2975   -4.6713 N   0  0  0  0  0  0  0  0  0  0  0  0
   -1.6740    4.7777   -4.2238 N   0  0  0  0  0  0  0  0  0  0  0  0
    2.6227    0.2752   -6.0884 S   0  0  0  0  0  0  0  0  0  0  0  0
    2.4012   -0.4098   -7.8524 C   0  0  0  0  0  0  0  0  0  0  0  0
    3.7298    1.2365   -6.1416 O   0  0  0  0  0  0  0  0  0  0  0  0
    2.5815   -0.8750   -5.1707 O   0  0  0  0  0  0  0  0  0  0  0  0
    1.2405    1.2020   -5.9632 O   0  0  0  0  0  0  0  0  0  0  0  0
    2.2476    0.5977   -8.7136 F   0  0  0  0  0  0  0  0  0  0  0  0
    3.4942   -1.1096   -8.1660 F   0  0  0  0  0  0  0  0  0  0  0  0
    1.3285   -1.2072   -7.8973 F   0  0  0  0  0  0  0  0  0  0  0  0
   -3.3204   -0.6379   -4.0653 H   0  0  0  0  0  0  0  0  0  0  0  0
  1  7  1  0  0  0  0
  2  1  1  0  0  0  0
  2  8  1  0  0  0  0
  3  2  2  0  0  0  0
  4  5  2  0  0  0  0
  4  3  1  0  0  0  0
  5  6  1  0  0  0  0
  6 21  1  0  0  0  0
  6  1  2  0  0  0  0
  9  4  1  0  0  0  0
 10  5  1  0  0  0  0
 11 12  3  0  0  0  0
 13 17  1  0  0  0  0
 13 16  2  0  0  0  0
 14 13  1  0  0  0  0
 15 13  2  0  0  0  0
 17  3  1  0  0  0  0
 18 14  1  0  0  0  0
 19 14  1  0  0  0  0
 20 14  1  0  0  0  0
M  END
