Coordinates from ORCA-job Ph-N2-OTf-B3LYPG-aug-cc-pVDZ-scan-d09-49-n400
 OpenBabel07022015323D

 21 20  0  0  0  0  0  0  0  0999 V2000
   -1.3004   -0.6963   -4.3045 C   0  0  0  0  0  0  0  0  0  0  0  0
   -0.4610    0.2749   -4.8626 C   0  0  0  0  0  0  0  0  0  0  0  0
   -1.1108    1.3730   -5.4044 C   0  0  0  0  0  0  0  0  0  0  0  0
   -2.4909    1.5955   -5.4437 C   0  0  0  0  0  0  0  0  0  0  0  0
   -3.2851    0.6007   -4.8783 C   0  0  0  0  0  0  0  0  0  0  0  0
   -2.6897   -0.5377   -4.3129 C   0  0  0  0  0  0  0  0  0  0  0  0
   -0.8463   -1.5831   -3.8650 H   0  0  0  0  0  0  0  0  0  0  0  0
    0.6291    0.1624   -4.8691 H   0  0  0  0  0  0  0  0  0  0  0  0
   -2.9164    2.4906   -5.8918 H   0  0  0  0  0  0  0  0  0  0  0  0
   -4.3686    0.7144   -4.8821 H   0  0  0  0  0  0  0  0  0  0  0  0
   -0.2886    2.5030   -6.0314 N   0  0  0  0  0  0  0  0  0  0  0  0
    0.0249    3.4580   -6.4985 N   0  0  0  0  0  0  0  0  0  0  0  0
    3.0340    0.6428   -5.8193 S   0  0  0  0  0  0  0  0  0  0  0  0
    3.1982   -0.3342   -7.4363 C   0  0  0  0  0  0  0  0  0  0  0  0
    4.3835    1.2076   -5.5790 O   0  0  0  0  0  0  0  0  0  0  0  0
    2.5207   -0.3808   -4.8439 O   0  0  0  0  0  0  0  0  0  0  0  0
    1.9607    1.6675   -6.1750 O   0  0  0  0  0  0  0  0  0  0  0  0
    3.6007    0.4646   -8.4408 F   0  0  0  0  0  0  0  0  0  0  0  0
    4.0854   -1.3331   -7.3011 F   0  0  0  0  0  0  0  0  0  0  0  0
    2.0047   -0.8726   -7.7821 F   0  0  0  0  0  0  0  0  0  0  0  0
   -3.3224   -1.3104   -3.8756 H   0  0  0  0  0  0  0  0  0  0  0  0
  1  7  1  0  0  0  0
  2  1  2  0  0  0  0
  3  2  1  0  0  0  0
  4  3  2  0  0  0  0
  4  5  1  0  0  0  0
  5  6  2  0  0  0  0
  6  1  1  0  0  0  0
  6 21  1  0  0  0  0
  8  2  1  0  0  0  0
  9  4  1  0  0  0  0
 10  5  1  0  0  0  0
 11  3  1  0  0  0  0
 12 11  1  0  0  0  0
 13 15  2  0  0  0  0
 13 16  1  0  0  0  0
 14 19  1  0  0  0  0
 14 13  1  0  0  0  0
 17 13  2  0  0  0  0
 18 14  1  0  0  0  0
 20 14  1  0  0  0  0
M  RAD  3  11   2  12   3  16   2
M  END
