Coordinates from ORCA-job Ph-N2-OTf-B3LYPG-aug-cc-pVDZ-scan-d09-49-n400
 OpenBabel07022015323D

 21 20  0  0  0  0  0  0  0  0999 V2000
   -1.2494   -0.1559   -3.6171 C   0  0  0  0  0  0  0  0  0  0  0  0
   -0.0240    0.3018   -4.1092 C   0  0  0  0  0  0  0  0  0  0  0  0
    0.0762    0.6070   -5.4656 C   0  0  0  0  0  0  0  0  0  0  0  0
   -1.0076    0.4881   -6.3339 C   0  0  0  0  0  0  0  0  0  0  0  0
   -2.2297    0.0396   -5.8244 C   0  0  0  0  0  0  0  0  0  0  0  0
   -2.3504   -0.2872   -4.4699 C   0  0  0  0  0  0  0  0  0  0  0  0
   -1.3415   -0.4074   -2.5605 H   0  0  0  0  0  0  0  0  0  0  0  0
    0.8394    0.4185   -3.4578 H   0  0  0  0  0  0  0  0  0  0  0  0
   -0.8937    0.7543   -7.3835 H   0  0  0  0  0  0  0  0  0  0  0  0
   -3.0872   -0.0581   -6.4904 H   0  0  0  0  0  0  0  0  0  0  0  0
   -0.9824    4.7054   -4.5140 N   0  0  0  0  0  0  0  0  0  0  0  0
   -1.8992    5.1147   -4.0546 N   0  0  0  0  0  0  0  0  0  0  0  0
    2.6464    0.2169   -6.1076 S   0  0  0  0  0  0  0  0  0  0  0  0
    2.4190   -0.4720   -7.8693 C   0  0  0  0  0  0  0  0  0  0  0  0
    3.7606    1.1699   -6.1643 O   0  0  0  0  0  0  0  0  0  0  0  0
    2.5967   -0.9298   -5.1860 O   0  0  0  0  0  0  0  0  0  0  0  0
    1.2710    1.1547   -5.9848 O   0  0  0  0  0  0  0  0  0  0  0  0
    2.2702    0.5340   -8.7332 F   0  0  0  0  0  0  0  0  0  0  0  0
    3.5076   -1.1789   -8.1822 F   0  0  0  0  0  0  0  0  0  0  0  0
    1.3417   -1.2633   -7.9107 F   0  0  0  0  0  0  0  0  0  0  0  0
   -3.3021   -0.6455   -4.0783 H   0  0  0  0  0  0  0  0  0  0  0  0
  1  7  1  0  0  0  0
  2  1  1  0  0  0  0
  2  8  1  0  0  0  0
  3  2  2  0  0  0  0
  4  5  2  0  0  0  0
  4  3  1  0  0  0  0
  5  6  1  0  0  0  0
  6 21  1  0  0  0  0
  6  1  2  0  0  0  0
  9  4  1  0  0  0  0
 10  5  1  0  0  0  0
 11 12  3  0  0  0  0
 13 17  1  0  0  0  0
 13 16  2  0  0  0  0
 14 13  1  0  0  0  0
 15 13  2  0  0  0  0
 17  3  1  0  0  0  0
 18 14  1  0  0  0  0
 19 14  1  0  0  0  0
 20 14  1  0  0  0  0
M  END
