Coordinates from ORCA-job Ph-N2-OTf-B3LYPG-aug-cc-pVDZ-scan-d09-49-n400
 OpenBabel07022015323D

 21 20  0  0  0  0  0  0  0  0999 V2000
   -1.2947   -0.0661   -3.5817 C   0  0  0  0  0  0  0  0  0  0  0  0
   -0.0759    0.4142   -4.0676 C   0  0  0  0  0  0  0  0  0  0  0  0
    0.0184    0.7482   -5.4175 C   0  0  0  0  0  0  0  0  0  0  0  0
   -1.0600    0.6128   -6.2897 C   0  0  0  0  0  0  0  0  0  0  0  0
   -2.2760    0.1414   -5.7872 C   0  0  0  0  0  0  0  0  0  0  0  0
   -2.3944   -0.2003   -4.4360 C   0  0  0  0  0  0  0  0  0  0  0  0
   -1.3830   -0.3343   -2.5290 H   0  0  0  0  0  0  0  0  0  0  0  0
    0.7858    0.5337   -3.4145 H   0  0  0  0  0  0  0  0  0  0  0  0
   -0.9481    0.8888   -7.3370 H   0  0  0  0  0  0  0  0  0  0  0  0
   -3.1303    0.0356   -6.4560 H   0  0  0  0  0  0  0  0  0  0  0  0
   -0.5206    3.4635   -4.9079 N   0  0  0  0  0  0  0  0  0  0  0  0
   -1.3748    4.0164   -4.4781 N   0  0  0  0  0  0  0  0  0  0  0  0
    2.5887    0.3682   -6.0589 S   0  0  0  0  0  0  0  0  0  0  0  0
    2.3616   -0.3234   -7.8197 C   0  0  0  0  0  0  0  0  0  0  0  0
    3.6979    1.3267   -6.1193 O   0  0  0  0  0  0  0  0  0  0  0  0
    2.5492   -0.7784   -5.1368 O   0  0  0  0  0  0  0  0  0  0  0  0
    1.2106    1.2999   -5.9337 O   0  0  0  0  0  0  0  0  0  0  0  0
    2.2028    0.6808   -8.6841 F   0  0  0  0  0  0  0  0  0  0  0  0
    3.4552   -1.0217   -8.1347 F   0  0  0  0  0  0  0  0  0  0  0  0
    1.2907   -1.1234   -7.8586 F   0  0  0  0  0  0  0  0  0  0  0  0
   -3.3414   -0.5757   -4.0494 H   0  0  0  0  0  0  0  0  0  0  0  0
  1  7  1  0  0  0  0
  2  1  1  0  0  0  0
  2  8  1  0  0  0  0
  3  2  2  0  0  0  0
  4  5  2  0  0  0  0
  4  3  1  0  0  0  0
  5  6  1  0  0  0  0
  6 21  1  0  0  0  0
  6  1  2  0  0  0  0
  9  4  1  0  0  0  0
 10  5  1  0  0  0  0
 11 12  3  0  0  0  0
 13 17  1  0  0  0  0
 13 16  2  0  0  0  0
 14 13  1  0  0  0  0
 15 13  2  0  0  0  0
 17  3  1  0  0  0  0
 18 14  1  0  0  0  0
 19 14  1  0  0  0  0
 20 14  1  0  0  0  0
M  END
