Coordinates from ORCA-job Ph-N2-OTf-B3LYPG-aug-cc-pVDZ-scan-d09-49-n400
 OpenBabel07022015323D

 21 19  0  0  0  0  0  0  0  0999 V2000
   -1.3055   -0.7799   -4.4203 C   0  0  0  0  0  0  0  0  0  0  0  0
   -0.4253    0.2744   -4.7671 C   0  0  0  0  0  0  0  0  0  0  0  0
   -1.1358    1.3461   -5.1647 C   0  0  0  0  0  0  0  0  0  0  0  0
   -2.4546    1.6570   -5.3239 C   0  0  0  0  0  0  0  0  0  0  0  0
   -3.2675    0.5617   -4.9689 C   0  0  0  0  0  0  0  0  0  0  0  0
   -2.6929   -0.6346   -4.5209 C   0  0  0  0  0  0  0  0  0  0  0  0
   -0.8605   -1.7144   -4.0789 H   0  0  0  0  0  0  0  0  0  0  0  0
    0.6886    0.1906   -4.7466 H   0  0  0  0  0  0  0  0  0  0  0  0
   -2.8452    2.6059   -5.6773 H   0  0  0  0  0  0  0  0  0  0  0  0
   -4.3487    0.6716   -5.0527 H   0  0  0  0  0  0  0  0  0  0  0  0
   -0.0493    2.8994   -5.5895 N   0  0  0  0  0  0  0  0  0  0  0  0
    0.3319    3.9281   -5.7042 N   0  0  0  0  0  0  0  0  0  0  0  0
    2.7783    0.8386   -6.1937 S   0  0  0  0  0  0  0  0  0  0  0  0
    3.2478   -0.6127   -7.3200 C   0  0  0  0  0  0  0  0  0  0  0  0
    3.9783    1.7114   -6.1664 O   0  0  0  0  0  0  0  0  0  0  0  0
    2.4336    0.1519   -4.8830 O   0  0  0  0  0  0  0  0  0  0  0  0
    1.5501    1.4070   -6.8711 O   0  0  0  0  0  0  0  0  0  0  0  0
    3.5426   -0.1755   -8.5559 F   0  0  0  0  0  0  0  0  0  0  0  0
    4.3142   -1.2649   -6.8293 F   0  0  0  0  0  0  0  0  0  0  0  0
    2.2213   -1.4863   -7.4131 F   0  0  0  0  0  0  0  0  0  0  0  0
   -3.3395   -1.4687   -4.2499 H   0  0  0  0  0  0  0  0  0  0  0  0
  1  7  1  0  0  0  0
  2  8  1  0  0  0  0
  2  1  2  0  0  0  0
  3  2  1  0  0  0  0
  4  3  2  0  0  0  0
  4  5  1  0  0  0  0
  5  6  2  0  0  0  0
  6  1  1  0  0  0  0
  6 21  1  0  0  0  0
  9  4  1  0  0  0  0
 10  5  1  0  0  0  0
 12 11  3  0  0  0  0
 13 15  2  0  0  0  0
 13 16  1  0  0  0  0
 14 19  1  0  0  0  0
 14 13  1  0  0  0  0
 17 13  2  0  0  0  0
 18 14  1  0  0  0  0
 20 14  1  0  0  0  0
M  RAD  2   3   2  16   2
M  END
