Coordinates from ORCA-job Ph-N2-OTf-B3LYPG-aug-cc-pVDZ-scan-d09-49-n400
 OpenBabel07022015323D

 21 19  0  0  0  0  0  0  0  0999 V2000
   -1.1887   -0.7713   -4.4746 C   0  0  0  0  0  0  0  0  0  0  0  0
   -0.3724    0.3568   -4.7937 C   0  0  0  0  0  0  0  0  0  0  0  0
   -1.1800    1.3380   -5.1606 C   0  0  0  0  0  0  0  0  0  0  0  0
   -2.4960    1.6095   -5.3336 C   0  0  0  0  0  0  0  0  0  0  0  0
   -3.2344    0.4479   -5.0033 C   0  0  0  0  0  0  0  0  0  0  0  0
   -2.5817   -0.7165   -4.5775 C   0  0  0  0  0  0  0  0  0  0  0  0
   -0.6749   -1.6792   -4.1566 H   0  0  0  0  0  0  0  0  0  0  0  0
    0.7765    0.3183   -4.7769 H   0  0  0  0  0  0  0  0  0  0  0  0
   -2.9395    2.5411   -5.6687 H   0  0  0  0  0  0  0  0  0  0  0  0
   -4.3206    0.4925   -5.0899 H   0  0  0  0  0  0  0  0  0  0  0  0
   -0.1122    3.2233   -5.5602 N   0  0  0  0  0  0  0  0  0  0  0  0
    0.3692    4.2050   -5.7013 N   0  0  0  0  0  0  0  0  0  0  0  0
    2.8255    0.8528   -6.1725 S   0  0  0  0  0  0  0  0  0  0  0  0
    3.0683   -0.6748   -7.2682 C   0  0  0  0  0  0  0  0  0  0  0  0
    4.1595    1.4938   -6.1018 O   0  0  0  0  0  0  0  0  0  0  0  0
    2.3536    0.2301   -4.8522 O   0  0  0  0  0  0  0  0  0  0  0  0
    1.7199    1.6035   -6.8572 O   0  0  0  0  0  0  0  0  0  0  0  0
    3.4331   -0.3090   -8.5077 F   0  0  0  0  0  0  0  0  0  0  0  0
    4.0134   -1.4830   -6.7617 F   0  0  0  0  0  0  0  0  0  0  0  0
    1.9139   -1.3746   -7.3541 F   0  0  0  0  0  0  0  0  0  0  0  0
   -3.1708   -1.5974   -4.3247 H   0  0  0  0  0  0  0  0  0  0  0  0
  1  7  1  0  0  0  0
  2  8  1  0  0  0  0
  2  1  2  0  0  0  0
  3  2  1  0  0  0  0
  4  3  2  0  0  0  0
  4  5  1  0  0  0  0
  5  6  2  0  0  0  0
  6  1  1  0  0  0  0
  6 21  1  0  0  0  0
  9  4  1  0  0  0  0
 10  5  1  0  0  0  0
 12 11  3  0  0  0  0
 13 15  2  0  0  0  0
 13 16  1  0  0  0  0
 14 19  1  0  0  0  0
 14 13  1  0  0  0  0
 17 13  2  0  0  0  0
 18 14  1  0  0  0  0
 20 14  1  0  0  0  0
M  RAD  2   3   2  16   2
M  END
