Coordinates from ORCA-job Ph-N2-OTf-B3LYPG-aug-cc-pVDZ-scan-d09-49-n400
 OpenBabel07022015323D

 21 20  0  0  0  0  0  0  0  0999 V2000
   -1.3049   -0.7184   -4.3103 C   0  0  0  0  0  0  0  0  0  0  0  0
   -0.4576    0.2641   -4.8618 C   0  0  0  0  0  0  0  0  0  0  0  0
   -1.1600    1.3198   -5.3583 C   0  0  0  0  0  0  0  0  0  0  0  0
   -2.5085    1.5945   -5.4177 C   0  0  0  0  0  0  0  0  0  0  0  0
   -3.2961    0.5795   -4.8551 C   0  0  0  0  0  0  0  0  0  0  0  0
   -2.6942   -0.5625   -4.3091 C   0  0  0  0  0  0  0  0  0  0  0  0
   -0.8408   -1.6077   -3.8854 H   0  0  0  0  0  0  0  0  0  0  0  0
    0.6396    0.1524   -4.8754 H   0  0  0  0  0  0  0  0  0  0  0  0
   -2.9287    2.4960   -5.8537 H   0  0  0  0  0  0  0  0  0  0  0  0
   -4.3797    0.6956   -4.8535 H   0  0  0  0  0  0  0  0  0  0  0  0
   -0.2155    2.6383   -6.0726 N   0  0  0  0  0  0  0  0  0  0  0  0
    0.0206    3.6220   -6.5165 N   0  0  0  0  0  0  0  0  0  0  0  0
    3.0122    0.6549   -5.8451 S   0  0  0  0  0  0  0  0  0  0  0  0
    3.2204   -0.3631   -7.4315 C   0  0  0  0  0  0  0  0  0  0  0  0
    4.3634    1.1948   -5.5602 O   0  0  0  0  0  0  0  0  0  0  0  0
    2.4477   -0.3435   -4.8658 O   0  0  0  0  0  0  0  0  0  0  0  0
    1.9736    1.6883   -6.2614 O   0  0  0  0  0  0  0  0  0  0  0  0
    3.6649    0.4087   -8.4389 F   0  0  0  0  0  0  0  0  0  0  0  0
    4.0926   -1.3665   -7.2428 F   0  0  0  0  0  0  0  0  0  0  0  0
    2.0341   -0.8977   -7.8041 F   0  0  0  0  0  0  0  0  0  0  0  0
   -3.3215   -1.3427   -3.8782 H   0  0  0  0  0  0  0  0  0  0  0  0
  1  6  1  0  0  0  0
  1  7  1  0  0  0  0
  2  1  2  0  0  0  0
  3  2  1  0  0  0  0
  4  3  2  0  0  0  0
  4  5  1  0  0  0  0
  5 10  1  0  0  0  0
  5  6  2  0  0  0  0
  6 21  1  0  0  0  0
  8  2  1  0  0  0  0
  9  4  1  0  0  0  0
 11  3  1  0  0  0  0
 12 11  1  0  0  0  0
 13 15  2  0  0  0  0
 13 16  1  0  0  0  0
 14 19  1  0  0  0  0
 14 13  1  0  0  0  0
 17 13  2  0  0  0  0
 18 14  1  0  0  0  0
 20 14  1  0  0  0  0
M  RAD  3  11   2  12   3  16   2
M  END
