Coordinates from ORCA-job Ph-N2-OTf-B3LYPG-aug-cc-pVDZ-scan-d09-49-n400
 OpenBabel07022015323D

 21 21  0  0  1  0  0  0  0  0999 V2000
   -0.8560   -0.7061   -5.4732 C   0  0  0  0  0  0  0  0  0  0  0  0
   -0.3344    0.5423   -6.0933 C   0  0  1  0  0  0  0  0  0  0  0  0
   -1.2086    1.8036   -5.8238 C   0  0  0  0  0  0  0  0  0  0  0  0
   -2.1024    1.7289   -4.6292 C   0  0  0  0  0  0  0  0  0  0  0  0
   -2.3565    0.5597   -4.0090 C   0  0  0  0  0  0  0  0  0  0  0  0
   -1.7743   -0.6837   -4.4870 C   0  0  0  0  0  0  0  0  0  0  0  0
   -0.4282   -1.6424   -5.8285 H   0  0  0  0  0  0  0  0  0  0  0  0
   -0.1734    0.4580   -7.1734 H   0  0  0  0  0  0  0  0  0  0  0  0
   -2.5453    2.6735   -4.3135 H   0  0  0  0  0  0  0  0  0  0  0  0
   -3.0236    0.5381   -3.1474 H   0  0  0  0  0  0  0  0  0  0  0  0
   -1.1288    2.5838   -6.3950 N   0  0  0  0  0  0  0  0  0  0  0  0
   -1.0274    3.5254   -7.0862 N   0  0  0  0  0  0  0  0  0  0  0  0
    2.3472    0.9450   -6.4428 S   0  0  0  0  0  0  0  0  0  0  0  0
    3.0820   -0.7829   -6.1444 C   0  0  0  0  0  0  0  0  0  0  0  0
    3.2596    1.9067   -5.8130 O   0  0  0  0  0  0  0  0  0  0  0  0
    1.0113    0.8375   -5.4848 O   0  0  0  0  0  0  0  0  0  0  0  0
    1.9630    0.9998   -7.8668 O   0  0  0  0  0  0  0  0  0  0  0  0
    4.2160   -0.8855   -6.8401 F   0  0  0  0  0  0  0  0  0  0  0  0
    3.3301   -0.9598   -4.8464 F   0  0  0  0  0  0  0  0  0  0  0  0
    2.2138   -1.7157   -6.5658 F   0  0  0  0  0  0  0  0  0  0  0  0
   -2.1023   -1.6193   -4.0338 H   0  0  0  0  0  0  0  0  0  0  0  0
  1  6  2  0  0  0  0
  2  8  1  6  0  0  0
  2  3  1  0  0  0  0
  2 16  1  0  0  0  0
  2  1  1  0  0  0  0
  3  4  2  0  0  0  0
  4  9  1  0  0  0  0
  4  5  1  0  0  0  0
  5 10  1  0  0  0  0
  6 21  1  0  0  0  0
  6  5  1  0  0  0  0
  7  1  1  0  0  0  0
 11  3  1  0  0  0  0
 12 11  1  0  0  0  0
 13 14  1  0  0  0  0
 13 15  2  0  0  0  0
 13 16  1  0  0  0  0
 14 19  1  0  0  0  0
 17 13  2  0  0  0  0
 18 14  1  0  0  0  0
 20 14  1  0  0  0  0
M  RAD  3   5   2  11   2  12   3
M  END
