Coordinates from ORCA-job Ph-N2-OTf-B3LYPG-aug-cc-pVDZ-scan-d09-49-n400
 OpenBabel07022015323D

 21 20  0  0  0  0  0  0  0  0999 V2000
   -1.2665   -0.1428   -3.6050 C   0  0  0  0  0  0  0  0  0  0  0  0
   -0.0436    0.3236   -4.0954 C   0  0  0  0  0  0  0  0  0  0  0  0
    0.0546    0.6354   -5.4505 C   0  0  0  0  0  0  0  0  0  0  0  0
   -1.0287    0.5139   -6.3192 C   0  0  0  0  0  0  0  0  0  0  0  0
   -2.2482    0.0565   -5.8114 C   0  0  0  0  0  0  0  0  0  0  0  0
   -2.3670   -0.2765   -4.4582 C   0  0  0  0  0  0  0  0  0  0  0  0
   -1.3571   -0.3993   -2.5495 H   0  0  0  0  0  0  0  0  0  0  0  0
    0.8192    0.4420   -3.4437 H   0  0  0  0  0  0  0  0  0  0  0  0
   -0.9163    0.7847   -7.3677 H   0  0  0  0  0  0  0  0  0  0  0  0
   -3.1051   -0.0434   -6.4777 H   0  0  0  0  0  0  0  0  0  0  0  0
   -0.8250    4.3868   -4.6393 N   0  0  0  0  0  0  0  0  0  0  0  0
   -1.7184    4.8542   -4.1893 N   0  0  0  0  0  0  0  0  0  0  0  0
    2.6274    0.2635   -6.0923 S   0  0  0  0  0  0  0  0  0  0  0  0
    2.4051   -0.4224   -7.8558 C   0  0  0  0  0  0  0  0  0  0  0  0
    3.7355    1.2237   -6.1461 O   0  0  0  0  0  0  0  0  0  0  0  0
    2.5849   -0.8860   -5.1737 O   0  0  0  0  0  0  0  0  0  0  0  0
    1.2461    1.1919   -5.9677 O   0  0  0  0  0  0  0  0  0  0  0  0
    2.2524    0.5847   -8.7176 F   0  0  0  0  0  0  0  0  0  0  0  0
    3.4974   -1.1234   -8.1691 F   0  0  0  0  0  0  0  0  0  0  0  0
    1.3317   -1.2188   -7.9001 F   0  0  0  0  0  0  0  0  0  0  0  0
   -3.3167   -0.6414   -4.0680 H   0  0  0  0  0  0  0  0  0  0  0  0
  1  7  1  0  0  0  0
  2  1  1  0  0  0  0
  2  8  1  0  0  0  0
  3  2  2  0  0  0  0
  4  5  2  0  0  0  0
  4  3  1  0  0  0  0
  5  6  1  0  0  0  0
  6 21  1  0  0  0  0
  6  1  2  0  0  0  0
  9  4  1  0  0  0  0
 10  5  1  0  0  0  0
 11 12  3  0  0  0  0
 13 17  1  0  0  0  0
 13 16  2  0  0  0  0
 14 13  1  0  0  0  0
 15 13  2  0  0  0  0
 17  3  1  0  0  0  0
 18 14  1  0  0  0  0
 19 14  1  0  0  0  0
 20 14  1  0  0  0  0
M  END
