Coordinates from ORCA-job Ph-N2-OTf-B3LYPG-aug-cc-pVDZ-scan-d09-49-n400
 OpenBabel07022015323D

 21 20  0  0  0  0  0  0  0  0999 V2000
   -1.3177   -0.9402   -5.1161 C   0  0  0  0  0  0  0  0  0  0  0  0
   -0.7804   -0.0512   -6.0427 C   0  0  0  0  0  0  0  0  0  0  0  0
   -1.2085    1.2918   -5.9836 C   0  0  0  0  0  0  0  0  0  0  0  0
   -2.1049    1.7685   -4.9926 C   0  0  0  0  0  0  0  0  0  0  0  0
   -2.5925    0.8607   -4.0700 C   0  0  0  0  0  0  0  0  0  0  0  0
   -2.2067   -0.4912   -4.1389 C   0  0  0  0  0  0  0  0  0  0  0  0
   -0.9971   -1.9799   -5.1352 H   0  0  0  0  0  0  0  0  0  0  0  0
   -0.0531   -0.3581   -6.7875 H   0  0  0  0  0  0  0  0  0  0  0  0
   -2.3869    2.8196   -4.9714 H   0  0  0  0  0  0  0  0  0  0  0  0
   -3.2736    1.1989   -3.2904 H   0  0  0  0  0  0  0  0  0  0  0  0
   -0.7826    2.1588   -6.8848 N   0  0  0  0  0  0  0  0  0  0  0  0
   -0.5428    2.9383   -7.6466 N   0  0  0  0  0  0  0  0  0  0  0  0
    2.4955    0.8993   -5.5997 S   0  0  0  0  0  0  0  0  0  0  0  0
    3.3042   -0.3046   -6.8226 C   0  0  0  0  0  0  0  0  0  0  0  0
    3.6313    1.5661   -4.9165 O   0  0  0  0  0  0  0  0  0  0  0  0
    1.6314   -0.0067   -4.7605 O   0  0  0  0  0  0  0  0  0  0  0  0
    1.6709    1.7770   -6.5214 O   0  0  0  0  0  0  0  0  0  0  0  0
    4.0779    0.3436   -7.7081 F   0  0  0  0  0  0  0  0  0  0  0  0
    4.0538   -1.2159   -6.1825 F   0  0  0  0  0  0  0  0  0  0  0  0
    2.3434   -0.9726   -7.5208 F   0  0  0  0  0  0  0  0  0  0  0  0
   -2.5996   -1.1952   -3.4052 H   0  0  0  0  0  0  0  0  0  0  0  0
  1  6  2  0  0  0  0
  2  3  2  0  0  0  0
  2  1  1  0  0  0  0
  3  4  1  0  0  0  0
  4  9  1  0  0  0  0
  4  5  2  0  0  0  0
  5 10  1  0  0  0  0
  6  5  1  0  0  0  0
  6 21  1  0  0  0  0
  7  1  1  0  0  0  0
  8  2  1  0  0  0  0
 11  3  1  0  0  0  0
 12 11  1  0  0  0  0
 13 15  2  0  0  0  0
 13 16  1  0  0  0  0
 14 19  1  0  0  0  0
 14 13  1  0  0  0  0
 17 13  2  0  0  0  0
 18 14  1  0  0  0  0
 20 14  1  0  0  0  0
M  RAD  3  11   2  12   3  16   2
M  END
