Coordinates from ORCA-job Ph-N2-OTf-B3LYPG-aug-cc-pVDZ-scan-d09-49-n400
 OpenBabel07022015323D

 21 20  0  0  0  0  0  0  0  0999 V2000
   -1.2837   -0.1167   -3.5922 C   0  0  0  0  0  0  0  0  0  0  0  0
   -0.0627    0.3565   -4.0807 C   0  0  0  0  0  0  0  0  0  0  0  0
    0.0341    0.6756   -5.4341 C   0  0  0  0  0  0  0  0  0  0  0  0
   -1.0484    0.5524   -6.3034 C   0  0  0  0  0  0  0  0  0  0  0  0
   -2.2661    0.0880   -5.7976 C   0  0  0  0  0  0  0  0  0  0  0  0
   -2.3838   -0.2509   -4.4458 C   0  0  0  0  0  0  0  0  0  0  0  0
   -1.3731   -0.3782   -2.5379 H   0  0  0  0  0  0  0  0  0  0  0  0
    0.7998    0.4751   -3.4285 H   0  0  0  0  0  0  0  0  0  0  0  0
   -0.9371    0.8274   -7.3510 H   0  0  0  0  0  0  0  0  0  0  0  0
   -3.1225   -0.0129   -6.4645 H   0  0  0  0  0  0  0  0  0  0  0  0
   -0.6609    3.9865   -4.7766 N   0  0  0  0  0  0  0  0  0  0  0  0
   -1.5337    4.4999   -4.3366 N   0  0  0  0  0  0  0  0  0  0  0  0
    2.6081    0.3155   -6.0759 S   0  0  0  0  0  0  0  0  0  0  0  0
    2.3873   -0.3708   -7.8394 C   0  0  0  0  0  0  0  0  0  0  0  0
    3.7120    1.2804   -6.1304 O   0  0  0  0  0  0  0  0  0  0  0  0
    2.5720   -0.8348   -5.1580 O   0  0  0  0  0  0  0  0  0  0  0  0
    1.2233    1.2378   -5.9495 O   0  0  0  0  0  0  0  0  0  0  0  0
    2.2303    0.6359   -8.7011 F   0  0  0  0  0  0  0  0  0  0  0  0
    3.4821   -1.0676   -8.1536 F   0  0  0  0  0  0  0  0  0  0  0  0
    1.3169   -1.1713   -7.8834 F   0  0  0  0  0  0  0  0  0  0  0  0
   -3.3322   -0.6209   -4.0570 H   0  0  0  0  0  0  0  0  0  0  0  0
  1  7  1  0  0  0  0
  2  1  1  0  0  0  0
  2  8  1  0  0  0  0
  3  2  2  0  0  0  0
  4  5  2  0  0  0  0
  4  3  1  0  0  0  0
  5  6  1  0  0  0  0
  6 21  1  0  0  0  0
  6  1  2  0  0  0  0
  9  4  1  0  0  0  0
 10  5  1  0  0  0  0
 11 12  3  0  0  0  0
 13 17  1  0  0  0  0
 13 16  2  0  0  0  0
 14 13  1  0  0  0  0
 15 13  2  0  0  0  0
 17  3  1  0  0  0  0
 18 14  1  0  0  0  0
 19 14  1  0  0  0  0
 20 14  1  0  0  0  0
M  END
