Coordinates from ORCA-job Ph-N2-OTf-B3LYPG-aug-cc-pVDZ-scan-d09-49-n400
 OpenBabel07022015323D

 21 20  0  0  0  0  0  0  0  0999 V2000
   -1.2949   -0.0717   -3.5821 C   0  0  0  0  0  0  0  0  0  0  0  0
   -0.0759    0.4082   -4.0682 C   0  0  0  0  0  0  0  0  0  0  0  0
    0.0186    0.7401   -5.4186 C   0  0  0  0  0  0  0  0  0  0  0  0
   -1.0605    0.6067   -6.2903 C   0  0  0  0  0  0  0  0  0  0  0  0
   -2.2765    0.1355   -5.7874 C   0  0  0  0  0  0  0  0  0  0  0  0
   -2.3946   -0.2063   -4.4363 C   0  0  0  0  0  0  0  0  0  0  0  0
   -1.3832   -0.3393   -2.5292 H   0  0  0  0  0  0  0  0  0  0  0  0
    0.7859    0.5278   -3.4152 H   0  0  0  0  0  0  0  0  0  0  0  0
   -0.9487    0.8829   -7.3376 H   0  0  0  0  0  0  0  0  0  0  0  0
   -3.1311    0.0304   -6.4560 H   0  0  0  0  0  0  0  0  0  0  0  0
   -0.5274    3.5044   -4.9004 N   0  0  0  0  0  0  0  0  0  0  0  0
   -1.3781    4.0626   -4.4707 N   0  0  0  0  0  0  0  0  0  0  0  0
    2.5897    0.3652   -6.0600 S   0  0  0  0  0  0  0  0  0  0  0  0
    2.3641   -0.3256   -7.8212 C   0  0  0  0  0  0  0  0  0  0  0  0
    3.6974    1.3255   -6.1194 O   0  0  0  0  0  0  0  0  0  0  0  0
    2.5516   -0.7821   -5.1386 O   0  0  0  0  0  0  0  0  0  0  0  0
    1.2099    1.2945   -5.9345 O   0  0  0  0  0  0  0  0  0  0  0  0
    2.2051    0.6789   -8.6852 F   0  0  0  0  0  0  0  0  0  0  0  0
    3.4582   -1.0231   -8.1360 F   0  0  0  0  0  0  0  0  0  0  0  0
    1.2937   -1.1263   -7.8610 F   0  0  0  0  0  0  0  0  0  0  0  0
   -3.3416   -0.5814   -4.0494 H   0  0  0  0  0  0  0  0  0  0  0  0
  1  7  1  0  0  0  0
  2  1  1  0  0  0  0
  2  8  1  0  0  0  0
  3  2  2  0  0  0  0
  4  5  2  0  0  0  0
  4  3  1  0  0  0  0
  5  6  1  0  0  0  0
  6 21  1  0  0  0  0
  6  1  2  0  0  0  0
  9  4  1  0  0  0  0
 10  5  1  0  0  0  0
 11 12  3  0  0  0  0
 13 17  1  0  0  0  0
 13 16  2  0  0  0  0
 14 13  1  0  0  0  0
 15 13  2  0  0  0  0
 17  3  1  0  0  0  0
 18 14  1  0  0  0  0
 19 14  1  0  0  0  0
 20 14  1  0  0  0  0
M  END
