Coordinates from ORCA-job Ph-N2-OTf-B3LYPG-aug-cc-pVDZ-scan-d09-49-n400
 OpenBabel07022015323D

 21 20  0  0  0  0  0  0  0  0999 V2000
   -1.3002   -0.6958   -4.3047 C   0  0  0  0  0  0  0  0  0  0  0  0
   -0.4603    0.2748   -4.8627 C   0  0  0  0  0  0  0  0  0  0  0  0
   -1.1086    1.3744   -5.4054 C   0  0  0  0  0  0  0  0  0  0  0  0
   -2.4894    1.5964   -5.4443 C   0  0  0  0  0  0  0  0  0  0  0  0
   -3.2841    0.6021   -4.8790 C   0  0  0  0  0  0  0  0  0  0  0  0
   -2.6894   -0.5366   -4.3134 C   0  0  0  0  0  0  0  0  0  0  0  0
   -0.8467   -1.5828   -3.8651 H   0  0  0  0  0  0  0  0  0  0  0  0
    0.6296    0.1616   -4.8690 H   0  0  0  0  0  0  0  0  0  0  0  0
   -2.9147    2.4915   -5.8925 H   0  0  0  0  0  0  0  0  0  0  0  0
   -4.3677    0.7164   -4.8829 H   0  0  0  0  0  0  0  0  0  0  0  0
   -0.2924    2.4972   -6.0285 N   0  0  0  0  0  0  0  0  0  0  0  0
    0.0205    3.4525   -6.4960 N   0  0  0  0  0  0  0  0  0  0  0  0
    3.0340    0.6430   -5.8193 S   0  0  0  0  0  0  0  0  0  0  0  0
    3.1982   -0.3338   -7.4364 C   0  0  0  0  0  0  0  0  0  0  0  0
    4.3832    1.2088   -5.5797 O   0  0  0  0  0  0  0  0  0  0  0  0
    2.5219   -0.3810   -4.8436 O   0  0  0  0  0  0  0  0  0  0  0  0
    1.9596    1.6669   -6.1745 O   0  0  0  0  0  0  0  0  0  0  0  0
    3.5997    0.4653   -8.4411 F   0  0  0  0  0  0  0  0  0  0  0  0
    4.0861   -1.3321   -7.3015 F   0  0  0  0  0  0  0  0  0  0  0  0
    2.0049   -0.8730   -7.7817 F   0  0  0  0  0  0  0  0  0  0  0  0
   -3.3226   -1.3089   -3.8761 H   0  0  0  0  0  0  0  0  0  0  0  0
  1  7  1  0  0  0  0
  2  1  2  0  0  0  0
  3  2  1  0  0  0  0
  4  3  2  0  0  0  0
  4  5  1  0  0  0  0
  5  6  2  0  0  0  0
  6  1  1  0  0  0  0
  6 21  1  0  0  0  0
  8  2  1  0  0  0  0
  9  4  1  0  0  0  0
 10  5  1  0  0  0  0
 11  3  1  0  0  0  0
 12 11  1  0  0  0  0
 13 15  2  0  0  0  0
 13 16  1  0  0  0  0
 14 19  1  0  0  0  0
 14 13  1  0  0  0  0
 17 13  2  0  0  0  0
 18 14  1  0  0  0  0
 20 14  1  0  0  0  0
M  RAD  3  11   2  12   3  16   2
M  END
