Coordinates from ORCA-job Ph-N2-OTf-B3LYPG-aug-cc-pVDZ-scan-d09-49-n400
 OpenBabel07022015323D

 21 20  0  0  0  0  0  0  0  0999 V2000
   -1.2913   -0.0993   -3.5863 C   0  0  0  0  0  0  0  0  0  0  0  0
   -0.0715    0.3780   -4.0736 C   0  0  0  0  0  0  0  0  0  0  0  0
    0.0242    0.7023   -5.4258 C   0  0  0  0  0  0  0  0  0  0  0  0
   -1.0572    0.5753   -6.2960 C   0  0  0  0  0  0  0  0  0  0  0  0
   -2.2738    0.1068   -5.7914 C   0  0  0  0  0  0  0  0  0  0  0  0
   -2.3911   -0.2343   -4.4401 C   0  0  0  0  0  0  0  0  0  0  0  0
   -1.3800   -0.3640   -2.5327 H   0  0  0  0  0  0  0  0  0  0  0  0
    0.7907    0.4966   -3.4210 H   0  0  0  0  0  0  0  0  0  0  0  0
   -0.9461    0.8510   -7.3434 H   0  0  0  0  0  0  0  0  0  0  0  0
   -3.1295    0.0037   -6.4589 H   0  0  0  0  0  0  0  0  0  0  0  0
   -0.5810    3.7650   -4.8439 N   0  0  0  0  0  0  0  0  0  0  0  0
   -1.4426    4.3022   -4.4100 N   0  0  0  0  0  0  0  0  0  0  0  0
    2.5978    0.3417   -6.0674 S   0  0  0  0  0  0  0  0  0  0  0  0
    2.3768   -0.3455   -7.8305 C   0  0  0  0  0  0  0  0  0  0  0  0
    3.7014    1.3070   -6.1228 O   0  0  0  0  0  0  0  0  0  0  0  0
    2.5628   -0.8082   -5.1490 O   0  0  0  0  0  0  0  0  0  0  0  0
    1.2132    1.2638   -5.9410 O   0  0  0  0  0  0  0  0  0  0  0  0
    2.2182    0.6607   -8.6926 F   0  0  0  0  0  0  0  0  0  0  0  0
    3.4722   -1.0412   -8.1449 F   0  0  0  0  0  0  0  0  0  0  0  0
    1.3072   -1.1472   -7.8738 F   0  0  0  0  0  0  0  0  0  0  0  0
   -3.3385   -0.6075   -4.0523 H   0  0  0  0  0  0  0  0  0  0  0  0
  1  7  1  0  0  0  0
  2  1  1  0  0  0  0
  2  8  1  0  0  0  0
  3  2  2  0  0  0  0
  4  5  2  0  0  0  0
  4  3  1  0  0  0  0
  5  6  1  0  0  0  0
  6 21  1  0  0  0  0
  6  1  2  0  0  0  0
  9  4  1  0  0  0  0
 10  5  1  0  0  0  0
 11 12  3  0  0  0  0
 13 17  1  0  0  0  0
 13 16  2  0  0  0  0
 14 13  1  0  0  0  0
 15 13  2  0  0  0  0
 17  3  1  0  0  0  0
 18 14  1  0  0  0  0
 19 14  1  0  0  0  0
 20 14  1  0  0  0  0
M  END
