Coordinates from ORCA-job Ph-N2-OTf-B3LYPG-aug-cc-pVDZ-scan-d09-49-n400
 OpenBabel07022015323D

 21 20  0  0  0  0  0  0  0  0999 V2000
   -1.3074   -0.9338   -5.1226 C   0  0  0  0  0  0  0  0  0  0  0  0
   -0.7796   -0.0423   -6.0519 C   0  0  0  0  0  0  0  0  0  0  0  0
   -1.2109    1.3036   -5.9953 C   0  0  0  0  0  0  0  0  0  0  0  0
   -2.1028    1.7717   -4.9906 C   0  0  0  0  0  0  0  0  0  0  0  0
   -2.5787    0.8632   -4.0651 C   0  0  0  0  0  0  0  0  0  0  0  0
   -2.1895   -0.4887   -4.1384 C   0  0  0  0  0  0  0  0  0  0  0  0
   -0.9824   -1.9720   -5.1451 H   0  0  0  0  0  0  0  0  0  0  0  0
   -0.0607   -0.3480   -6.8053 H   0  0  0  0  0  0  0  0  0  0  0  0
   -2.3889    2.8218   -4.9674 H   0  0  0  0  0  0  0  0  0  0  0  0
   -3.2540    1.1985   -3.2794 H   0  0  0  0  0  0  0  0  0  0  0  0
   -0.8090    2.1502   -6.8832 N   0  0  0  0  0  0  0  0  0  0  0  0
   -0.5602    2.9223   -7.6522 N   0  0  0  0  0  0  0  0  0  0  0  0
    2.4837    0.8967   -5.6009 S   0  0  0  0  0  0  0  0  0  0  0  0
    3.3036   -0.3084   -6.8149 C   0  0  0  0  0  0  0  0  0  0  0  0
    3.6125    1.5527   -4.8959 O   0  0  0  0  0  0  0  0  0  0  0  0
    1.6033   -0.0099   -4.7764 O   0  0  0  0  0  0  0  0  0  0  0  0
    1.6753    1.7803   -6.5286 O   0  0  0  0  0  0  0  0  0  0  0  0
    4.0927    0.3381   -7.6878 F   0  0  0  0  0  0  0  0  0  0  0  0
    4.0398   -1.2247   -6.1663 F   0  0  0  0  0  0  0  0  0  0  0  0
    2.3494   -0.9701   -7.5276 F   0  0  0  0  0  0  0  0  0  0  0  0
   -2.5747   -1.1945   -3.4023 H   0  0  0  0  0  0  0  0  0  0  0  0
  1  6  2  0  0  0  0
  2  3  2  0  0  0  0
  2  1  1  0  0  0  0
  3  4  1  0  0  0  0
  4  9  1  0  0  0  0
  4  5  2  0  0  0  0
  5 10  1  0  0  0  0
  6  5  1  0  0  0  0
  6 21  1  0  0  0  0
  7  1  1  0  0  0  0
  8  2  1  0  0  0  0
 11  3  1  0  0  0  0
 12 11  1  0  0  0  0
 13 15  2  0  0  0  0
 13 16  1  0  0  0  0
 14 19  1  0  0  0  0
 14 13  1  0  0  0  0
 17 13  2  0  0  0  0
 18 14  1  0  0  0  0
 20 14  1  0  0  0  0
M  RAD  3  11   2  12   3  16   2
M  END
