Coordinates from ORCA-job Ph-N2-OTf-B3LYPG-aug-cc-pVDZ-scan-d09-49-n400
 OpenBabel07022015323D

 21 21  0  0  1  0  0  0  0  0999 V2000
   -0.9033   -0.7711   -5.3200 C   0  0  0  0  0  0  0  0  0  0  0  0
   -0.3577    0.4118   -6.0186 C   0  0  1  0  0  0  0  0  0  0  0  0
   -1.1971    1.6274   -5.8261 C   0  0  0  0  0  0  0  0  0  0  0  0
   -2.1341    1.7300   -4.7272 C   0  0  0  0  0  0  0  0  0  0  0  0
   -2.4302    0.6227   -3.9971 C   0  0  0  0  0  0  0  0  0  0  0  0
   -1.8410   -0.6504   -4.3480 C   0  0  0  0  0  0  0  0  0  0  0  0
   -0.4823   -1.7401   -5.5808 H   0  0  0  0  0  0  0  0  0  0  0  0
   -0.0845    0.2445   -7.0617 H   0  0  0  0  0  0  0  0  0  0  0  0
   -2.5953    2.6960   -4.5261 H   0  0  0  0  0  0  0  0  0  0  0  0
   -3.1361    0.6834   -3.1703 H   0  0  0  0  0  0  0  0  0  0  0  0
   -1.0422    2.5887   -6.6113 N   0  0  0  0  0  0  0  0  0  0  0  0
   -0.8997    3.4640   -7.3262 N   0  0  0  0  0  0  0  0  0  0  0  0
    2.3556    1.0080   -6.2291 S   0  0  0  0  0  0  0  0  0  0  0  0
    3.1154   -0.7277   -6.3639 C   0  0  0  0  0  0  0  0  0  0  0  0
    3.2968    1.8170   -5.4399 O   0  0  0  0  0  0  0  0  0  0  0  0
    1.0592    0.6804   -5.3155 O   0  0  0  0  0  0  0  0  0  0  0  0
    1.9470    1.3835   -7.6021 O   0  0  0  0  0  0  0  0  0  0  0  0
    4.1918   -0.6735   -7.1530 F   0  0  0  0  0  0  0  0  0  0  0  0
    3.4668   -1.1743   -5.1560 F   0  0  0  0  0  0  0  0  0  0  0  0
    2.2144   -1.5701   -6.9018 F   0  0  0  0  0  0  0  0  0  0  0  0
   -2.1817   -1.5433   -3.8226 H   0  0  0  0  0  0  0  0  0  0  0  0
  1  6  2  0  0  0  0
  2  8  1  6  0  0  0
  2  3  1  0  0  0  0
  2  1  1  0  0  0  0
  2 16  1  0  0  0  0
  3  4  2  0  0  0  0
  4  9  1  0  0  0  0
  4  5  1  0  0  0  0
  5 10  1  0  0  0  0
  6  5  1  0  0  0  0
  6 21  1  0  0  0  0
  7  1  1  0  0  0  0
 11  3  1  0  0  0  0
 12 11  1  0  0  0  0
 13 15  2  0  0  0  0
 13 16  1  0  0  0  0
 14 13  1  0  0  0  0
 14 19  1  0  0  0  0
 17 13  2  0  0  0  0
 18 14  1  0  0  0  0
 20 14  1  0  0  0  0
M  RAD  3   5   2  11   2  12   3
M  END
