Coordinates from ORCA-job Ph-N2-OTf-B3LYPG-aug-cc-pVDZ-scan-d09-49-n400
 OpenBabel07022015323D

 21 19  0  0  0  0  0  0  0  0999 V2000
   -1.1769   -0.7812   -4.4714 C   0  0  0  0  0  0  0  0  0  0  0  0
   -0.3685    0.3537   -4.8038 C   0  0  0  0  0  0  0  0  0  0  0  0
   -1.1902    1.3134   -5.1681 C   0  0  0  0  0  0  0  0  0  0  0  0
   -2.5029    1.5908   -5.3404 C   0  0  0  0  0  0  0  0  0  0  0  0
   -3.2323    0.4245   -4.9977 C   0  0  0  0  0  0  0  0  0  0  0  0
   -2.5706   -0.7336   -4.5677 C   0  0  0  0  0  0  0  0  0  0  0  0
   -0.6549   -1.6835   -4.1506 H   0  0  0  0  0  0  0  0  0  0  0  0
    0.7976    0.3136   -4.7951 H   0  0  0  0  0  0  0  0  0  0  0  0
   -2.9514    2.5189   -5.6781 H   0  0  0  0  0  0  0  0  0  0  0  0
   -4.3194    0.4635   -5.0782 H   0  0  0  0  0  0  0  0  0  0  0  0
   -0.1149    3.3427   -5.5818 N   0  0  0  0  0  0  0  0  0  0  0  0
    0.3853    4.3133   -5.7358 N   0  0  0  0  0  0  0  0  0  0  0  0
    2.8293    0.8434   -6.1612 S   0  0  0  0  0  0  0  0  0  0  0  0
    3.0481   -0.6772   -7.2714 C   0  0  0  0  0  0  0  0  0  0  0  0
    4.1810    1.4365   -6.0440 O   0  0  0  0  0  0  0  0  0  0  0  0
    2.3146    0.2112   -4.8545 O   0  0  0  0  0  0  0  0  0  0  0  0
    1.7597    1.6363   -6.8486 O   0  0  0  0  0  0  0  0  0  0  0  0
    3.4444   -0.3044   -8.4985 F   0  0  0  0  0  0  0  0  0  0  0  0
    3.9612   -1.5174   -6.7590 F   0  0  0  0  0  0  0  0  0  0  0  0
    1.8761   -1.3416   -7.3855 F   0  0  0  0  0  0  0  0  0  0  0  0
   -3.1536   -1.6160   -4.3058 H   0  0  0  0  0  0  0  0  0  0  0  0
  1  7  1  0  0  0  0
  2  8  1  0  0  0  0
  2  1  2  0  0  0  0
  3  2  1  0  0  0  0
  4  3  2  0  0  0  0
  4  5  1  0  0  0  0
  5  6  2  0  0  0  0
  6  1  1  0  0  0  0
  6 21  1  0  0  0  0
  9  4  1  0  0  0  0
 10  5  1  0  0  0  0
 12 11  3  0  0  0  0
 13 15  2  0  0  0  0
 13 16  1  0  0  0  0
 14 19  1  0  0  0  0
 14 13  1  0  0  0  0
 17 13  2  0  0  0  0
 18 14  1  0  0  0  0
 20 14  1  0  0  0  0
M  RAD  2   3   2  16   2
M  END
