Coordinates from ORCA-job Ph-N2-OTf-B3LYPG-aug-cc-pVDZ-scan-d09-49-n400
 OpenBabel07022015323D

 21 20  0  0  0  0  0  0  0  0999 V2000
   -1.3304   -0.9474   -5.0915 C   0  0  0  0  0  0  0  0  0  0  0  0
   -0.7709   -0.0614   -6.0094 C   0  0  0  0  0  0  0  0  0  0  0  0
   -1.2040    1.2723   -5.9530 C   0  0  0  0  0  0  0  0  0  0  0  0
   -2.1221    1.7617   -4.9994 C   0  0  0  0  0  0  0  0  0  0  0  0
   -2.6349    0.8546   -4.0854 C   0  0  0  0  0  0  0  0  0  0  0  0
   -2.2454   -0.4954   -4.1385 C   0  0  0  0  0  0  0  0  0  0  0  0
   -1.0105   -1.9875   -5.0996 H   0  0  0  0  0  0  0  0  0  0  0  0
   -0.0214   -0.3678   -6.7317 H   0  0  0  0  0  0  0  0  0  0  0  0
   -2.4041    2.8128   -4.9895 H   0  0  0  0  0  0  0  0  0  0  0  0
   -3.3373    1.1955   -3.3262 H   0  0  0  0  0  0  0  0  0  0  0  0
   -0.7307    2.1806   -6.8797 N   0  0  0  0  0  0  0  0  0  0  0  0
   -0.5097    2.9743   -7.6284 N   0  0  0  0  0  0  0  0  0  0  0  0
    2.5262    0.8991   -5.6023 S   0  0  0  0  0  0  0  0  0  0  0  0
    3.3077   -0.3009   -6.8469 C   0  0  0  0  0  0  0  0  0  0  0  0
    3.6765    1.5813   -4.9602 O   0  0  0  0  0  0  0  0  0  0  0  0
    1.6936   -0.0073   -4.7367 O   0  0  0  0  0  0  0  0  0  0  0  0
    1.6707    1.7701   -6.5069 O   0  0  0  0  0  0  0  0  0  0  0  0
    4.0513    0.3514   -7.7551 F   0  0  0  0  0  0  0  0  0  0  0  0
    4.0813   -1.2061   -6.2276 F   0  0  0  0  0  0  0  0  0  0  0  0
    2.3317   -0.9760   -7.5169 F   0  0  0  0  0  0  0  0  0  0  0  0
   -2.6559   -1.1972   -3.4124 H   0  0  0  0  0  0  0  0  0  0  0  0
  1  6  2  0  0  0  0
  2  3  2  0  0  0  0
  2  1  1  0  0  0  0
  3  4  1  0  0  0  0
  4  9  1  0  0  0  0
  4  5  2  0  0  0  0
  5 10  1  0  0  0  0
  6  5  1  0  0  0  0
  6 21  1  0  0  0  0
  7  1  1  0  0  0  0
  8  2  1  0  0  0  0
 11  3  1  0  0  0  0
 12 11  1  0  0  0  0
 13 15  2  0  0  0  0
 13 16  1  0  0  0  0
 14 19  1  0  0  0  0
 14 13  1  0  0  0  0
 17 13  2  0  0  0  0
 18 14  1  0  0  0  0
 20 14  1  0  0  0  0
M  RAD  3  11   2  12   3  16   2
M  END
