Coordinates from ORCA-job Ph-N2-OTf-B3LYPG-aug-cc-pVDZ-scan-d09-49-n400
 OpenBabel07022015323D

 21 19  0  0  0  0  0  0  0  0999 V2000
   -1.1717   -0.7881   -4.4634 C   0  0  0  0  0  0  0  0  0  0  0  0
   -0.3653    0.3471   -4.8058 C   0  0  0  0  0  0  0  0  0  0  0  0
   -1.1906    1.2971   -5.1750 C   0  0  0  0  0  0  0  0  0  0  0  0
   -2.5008    1.5782   -5.3515 C   0  0  0  0  0  0  0  0  0  0  0  0
   -3.2285    0.4125   -4.9994 C   0  0  0  0  0  0  0  0  0  0  0  0
   -2.5656   -0.7418   -4.5604 C   0  0  0  0  0  0  0  0  0  0  0  0
   -0.6484   -1.6874   -4.1360 H   0  0  0  0  0  0  0  0  0  0  0  0
    0.8101    0.3054   -4.7998 H   0  0  0  0  0  0  0  0  0  0  0  0
   -2.9494    2.5040   -5.6954 H   0  0  0  0  0  0  0  0  0  0  0  0
   -4.3158    0.4498   -5.0795 H   0  0  0  0  0  0  0  0  0  0  0  0
   -0.1156    3.4058   -5.5941 N   0  0  0  0  0  0  0  0  0  0  0  0
    0.3965    4.3702   -5.7483 N   0  0  0  0  0  0  0  0  0  0  0  0
    2.8296    0.8392   -6.1535 S   0  0  0  0  0  0  0  0  0  0  0  0
    3.0341   -0.6751   -7.2749 C   0  0  0  0  0  0  0  0  0  0  0  0
    4.1887    1.4099   -6.0178 O   0  0  0  0  0  0  0  0  0  0  0  0
    2.2991    0.1994   -4.8534 O   0  0  0  0  0  0  0  0  0  0  0  0
    1.7748    1.6530   -6.8364 O   0  0  0  0  0  0  0  0  0  0  0  0
    3.4418   -0.2965   -8.4961 F   0  0  0  0  0  0  0  0  0  0  0  0
    3.9329   -1.5313   -6.7644 F   0  0  0  0  0  0  0  0  0  0  0  0
    1.8538   -1.3220   -7.4005 F   0  0  0  0  0  0  0  0  0  0  0  0
   -3.1480   -1.6226   -4.2918 H   0  0  0  0  0  0  0  0  0  0  0  0
  1  7  1  0  0  0  0
  2  8  1  0  0  0  0
  2  1  2  0  0  0  0
  3  2  1  0  0  0  0
  4  3  2  0  0  0  0
  4  5  1  0  0  0  0
  5  6  2  0  0  0  0
  6  1  1  0  0  0  0
  6 21  1  0  0  0  0
  9  4  1  0  0  0  0
 10  5  1  0  0  0  0
 12 11  3  0  0  0  0
 13 15  2  0  0  0  0
 13 16  1  0  0  0  0
 14 19  1  0  0  0  0
 14 13  1  0  0  0  0
 17 13  2  0  0  0  0
 18 14  1  0  0  0  0
 20 14  1  0  0  0  0
M  RAD  2   3   2  16   2
M  END
