Coordinates from ORCA-job Ph-N2-OTf-B3LYPG-aug-cc-pVDZ-scan-d09-49-n400
 OpenBabel07022015323D

 21 19  0  0  0  0  0  0  0  0999 V2000
   -1.1747   -0.7837   -4.4683 C   0  0  0  0  0  0  0  0  0  0  0  0
   -0.3675    0.3515   -4.8053 C   0  0  0  0  0  0  0  0  0  0  0  0
   -1.1911    1.3068   -5.1713 C   0  0  0  0  0  0  0  0  0  0  0  0
   -2.5029    1.5856   -5.3447 C   0  0  0  0  0  0  0  0  0  0  0  0
   -3.2312    0.4194   -4.9976 C   0  0  0  0  0  0  0  0  0  0  0  0
   -2.5686   -0.7369   -4.5641 C   0  0  0  0  0  0  0  0  0  0  0  0
   -0.6517   -1.6847   -4.1450 H   0  0  0  0  0  0  0  0  0  0  0  0
    0.8027    0.3102   -4.7982 H   0  0  0  0  0  0  0  0  0  0  0  0
   -2.9517    2.5126   -5.6848 H   0  0  0  0  0  0  0  0  0  0  0  0
   -4.3185    0.4575   -5.0773 H   0  0  0  0  0  0  0  0  0  0  0  0
   -0.1158    3.3701   -5.5875 N   0  0  0  0  0  0  0  0  0  0  0  0
    0.3900    4.3379   -5.7415 N   0  0  0  0  0  0  0  0  0  0  0  0
    2.8296    0.8410   -6.1579 S   0  0  0  0  0  0  0  0  0  0  0  0
    3.0432   -0.6766   -7.2732 C   0  0  0  0  0  0  0  0  0  0  0  0
    4.1844    1.4243   -6.0312 O   0  0  0  0  0  0  0  0  0  0  0  0
    2.3068    0.2051   -4.8546 O   0  0  0  0  0  0  0  0  0  0  0  0
    1.7669    1.6433   -6.8439 O   0  0  0  0  0  0  0  0  0  0  0  0
    3.4454   -0.3007   -8.4973 F   0  0  0  0  0  0  0  0  0  0  0  0
    3.9497   -1.5237   -6.7611 F   0  0  0  0  0  0  0  0  0  0  0  0
    1.8677   -1.3334   -7.3935 F   0  0  0  0  0  0  0  0  0  0  0  0
   -3.1510   -1.6188   -4.2990 H   0  0  0  0  0  0  0  0  0  0  0  0
  1  7  1  0  0  0  0
  2  8  1  0  0  0  0
  2  1  2  0  0  0  0
  3  2  1  0  0  0  0
  4  3  2  0  0  0  0
  4  5  1  0  0  0  0
  5  6  2  0  0  0  0
  6  1  1  0  0  0  0
  6 21  1  0  0  0  0
  9  4  1  0  0  0  0
 10  5  1  0  0  0  0
 12 11  3  0  0  0  0
 13 15  2  0  0  0  0
 13 16  1  0  0  0  0
 14 19  1  0  0  0  0
 14 13  1  0  0  0  0
 17 13  2  0  0  0  0
 18 14  1  0  0  0  0
 20 14  1  0  0  0  0
M  RAD  2   3   2  16   2
M  END
