Coordinates from ORCA-job Ph-N2-OTf-B3LYPG-aug-cc-pVDZ-scan-d09-49-n400
 OpenBabel07022015323D

 21 21  0  0  1  0  0  0  0  0999 V2000
   -0.8559   -0.7071   -5.4715 C   0  0  0  0  0  0  0  0  0  0  0  0
   -0.3317    0.5402   -6.0919 C   0  0  1  0  0  0  0  0  0  0  0  0
   -1.2062    1.8106   -5.8260 C   0  0  0  0  0  0  0  0  0  0  0  0
   -2.1025    1.7301   -4.6286 C   0  0  0  0  0  0  0  0  0  0  0  0
   -2.3588    0.5605   -4.0116 C   0  0  0  0  0  0  0  0  0  0  0  0
   -1.7770   -0.6839   -4.4886 C   0  0  0  0  0  0  0  0  0  0  0  0
   -0.4278   -1.6439   -5.8255 H   0  0  0  0  0  0  0  0  0  0  0  0
   -0.1757    0.4573   -7.1730 H   0  0  0  0  0  0  0  0  0  0  0  0
   -2.5433    2.6757   -4.3130 H   0  0  0  0  0  0  0  0  0  0  0  0
   -3.0275    0.5387   -3.1512 H   0  0  0  0  0  0  0  0  0  0  0  0
   -1.1248    2.5744   -6.3853 N   0  0  0  0  0  0  0  0  0  0  0  0
   -1.0192    3.5187   -7.0779 N   0  0  0  0  0  0  0  0  0  0  0  0
    2.3462    0.9456   -6.4466 S   0  0  0  0  0  0  0  0  0  0  0  0
    3.0831   -0.7810   -6.1448 C   0  0  0  0  0  0  0  0  0  0  0  0
    3.2559    1.9100   -5.8177 O   0  0  0  0  0  0  0  0  0  0  0  0
    1.0098    0.8362   -5.4864 O   0  0  0  0  0  0  0  0  0  0  0  0
    1.9602    0.9971   -7.8700 O   0  0  0  0  0  0  0  0  0  0  0  0
    4.2169   -0.8834   -6.8409 F   0  0  0  0  0  0  0  0  0  0  0  0
    3.3318   -0.9546   -4.8466 F   0  0  0  0  0  0  0  0  0  0  0  0
    2.2156   -1.7153   -6.5640 F   0  0  0  0  0  0  0  0  0  0  0  0
   -2.1075   -1.6191   -4.0363 H   0  0  0  0  0  0  0  0  0  0  0  0
  1  6  1  0  0  0  0
  2  8  1  6  0  0  0
  2  3  1  0  0  0  0
  2 16  1  0  0  0  0
  2  1  1  0  0  0  0
  3  4  2  0  0  0  0
  4  9  1  0  0  0  0
  4  5  1  0  0  0  0
  5 10  1  0  0  0  0
  6 21  1  0  0  0  0
  6  5  2  0  0  0  0
  7  1  1  0  0  0  0
 11  3  1  0  0  0  0
 12 11  1  0  0  0  0
 13 14  1  0  0  0  0
 13 15  2  0  0  0  0
 13 16  1  0  0  0  0
 14 19  1  0  0  0  0
 17 13  2  0  0  0  0
 18 14  1  0  0  0  0
 20 14  1  0  0  0  0
M  RAD  3   1   2  11   2  12   3
M  END
