Coordinates from ORCA-job Ph-N2-OTf-B3LYPG-aug-cc-pVDZ-scan-d09-49-n400
 OpenBabel07022015323D

 21 20  0  0  0  0  0  0  0  0999 V2000
   -1.3121   -0.9365   -5.1209 C   0  0  0  0  0  0  0  0  0  0  0  0
   -0.7817   -0.0462   -6.0501 C   0  0  0  0  0  0  0  0  0  0  0  0
   -1.2110    1.2989   -5.9917 C   0  0  0  0  0  0  0  0  0  0  0  0
   -2.1033    1.7710   -4.9911 C   0  0  0  0  0  0  0  0  0  0  0  0
   -2.5832    0.8626   -4.0665 C   0  0  0  0  0  0  0  0  0  0  0  0
   -2.1958   -0.4892   -4.1385 C   0  0  0  0  0  0  0  0  0  0  0  0
   -0.9890   -1.9753   -5.1420 H   0  0  0  0  0  0  0  0  0  0  0  0
   -0.0605   -0.3529   -6.8009 H   0  0  0  0  0  0  0  0  0  0  0  0
   -2.3872    2.8217   -4.9675 H   0  0  0  0  0  0  0  0  0  0  0  0
   -3.2599    1.1990   -3.2824 H   0  0  0  0  0  0  0  0  0  0  0  0
   -0.7995    2.1521   -6.8835 N   0  0  0  0  0  0  0  0  0  0  0  0
   -0.5525    2.9265   -7.6497 N   0  0  0  0  0  0  0  0  0  0  0  0
    2.4878    0.8979   -5.6005 S   0  0  0  0  0  0  0  0  0  0  0  0
    3.3046   -0.3065   -6.8173 C   0  0  0  0  0  0  0  0  0  0  0  0
    3.6188    1.5581   -4.9029 O   0  0  0  0  0  0  0  0  0  0  0  0
    1.6131   -0.0086   -4.7712 O   0  0  0  0  0  0  0  0  0  0  0  0
    1.6739    1.7792   -6.5265 O   0  0  0  0  0  0  0  0  0  0  0  0
    4.0883    0.3408   -7.6945 F   0  0  0  0  0  0  0  0  0  0  0  0
    4.0458   -1.2209   -6.1716 F   0  0  0  0  0  0  0  0  0  0  0  0
    2.3485   -0.9708   -7.5253 F   0  0  0  0  0  0  0  0  0  0  0  0
   -2.5831   -1.1941   -3.4027 H   0  0  0  0  0  0  0  0  0  0  0  0
  1  6  2  0  0  0  0
  2  3  2  0  0  0  0
  2  1  1  0  0  0  0
  3  4  1  0  0  0  0
  4  9  1  0  0  0  0
  4  5  2  0  0  0  0
  5 10  1  0  0  0  0
  6  5  1  0  0  0  0
  6 21  1  0  0  0  0
  7  1  1  0  0  0  0
  8  2  1  0  0  0  0
 11  3  1  0  0  0  0
 12 11  1  0  0  0  0
 13 15  2  0  0  0  0
 13 16  1  0  0  0  0
 14 19  1  0  0  0  0
 14 13  1  0  0  0  0
 17 13  2  0  0  0  0
 18 14  1  0  0  0  0
 20 14  1  0  0  0  0
M  RAD  3  11   2  12   3  16   2
M  END
