Coordinates from ORCA-job Ph-N2-OTf-B3LYPG-aug-cc-pVDZ-scan-d09-49-n400
 OpenBabel07022015323D

 21 20  0  0  0  0  0  0  0  0999 V2000
   -1.2931   -0.0892   -3.5844 C   0  0  0  0  0  0  0  0  0  0  0  0
   -0.0736    0.3888   -4.0715 C   0  0  0  0  0  0  0  0  0  0  0  0
    0.0216    0.7157   -5.4231 C   0  0  0  0  0  0  0  0  0  0  0  0
   -1.0593    0.5872   -6.2935 C   0  0  0  0  0  0  0  0  0  0  0  0
   -2.2756    0.1180   -5.7894 C   0  0  0  0  0  0  0  0  0  0  0  0
   -2.3930   -0.2236   -4.4381 C   0  0  0  0  0  0  0  0  0  0  0  0
   -1.3816   -0.3550   -2.5311 H   0  0  0  0  0  0  0  0  0  0  0  0
    0.7886    0.5073   -3.4188 H   0  0  0  0  0  0  0  0  0  0  0  0
   -0.9482    0.8631   -7.3408 H   0  0  0  0  0  0  0  0  0  0  0  0
   -3.1311    0.0145   -6.4571 H   0  0  0  0  0  0  0  0  0  0  0  0
   -0.5581    3.6637   -4.8675 N   0  0  0  0  0  0  0  0  0  0  0  0
   -1.4152    4.2099   -4.4354 N   0  0  0  0  0  0  0  0  0  0  0  0
    2.5946    0.3515   -6.0645 S   0  0  0  0  0  0  0  0  0  0  0  0
    2.3724   -0.3372   -7.8269 C   0  0  0  0  0  0  0  0  0  0  0  0
    3.6991    1.3157   -6.1212 O   0  0  0  0  0  0  0  0  0  0  0  0
    2.5592   -0.7976   -5.1451 O   0  0  0  0  0  0  0  0  0  0  0  0
    1.2112    1.2752   -5.9385 O   0  0  0  0  0  0  0  0  0  0  0  0
    2.2138    0.6683   -8.6898 F   0  0  0  0  0  0  0  0  0  0  0  0
    3.4675   -1.0335   -8.1412 F   0  0  0  0  0  0  0  0  0  0  0  0
    1.3027   -1.1386   -7.8690 F   0  0  0  0  0  0  0  0  0  0  0  0
   -3.3404   -0.5974   -4.0506 H   0  0  0  0  0  0  0  0  0  0  0  0
  1  7  1  0  0  0  0
  2  1  1  0  0  0  0
  2  8  1  0  0  0  0
  3  2  2  0  0  0  0
  4  5  2  0  0  0  0
  4  3  1  0  0  0  0
  5  6  1  0  0  0  0
  6 21  1  0  0  0  0
  6  1  2  0  0  0  0
  9  4  1  0  0  0  0
 10  5  1  0  0  0  0
 11 12  3  0  0  0  0
 13 17  1  0  0  0  0
 13 16  2  0  0  0  0
 14 13  1  0  0  0  0
 15 13  2  0  0  0  0
 17  3  1  0  0  0  0
 18 14  1  0  0  0  0
 19 14  1  0  0  0  0
 20 14  1  0  0  0  0
M  END
