Coordinates from ORCA-job Ph-N2-OTf-B3LYPG-aug-cc-pVDZ-scan-d09-49-n400
 OpenBabel07022015323D

 21 20  0  0  0  0  0  0  0  0999 V2000
   -1.3412   -0.9525   -5.0628 C   0  0  0  0  0  0  0  0  0  0  0  0
   -0.7588   -0.0689   -5.9711 C   0  0  0  0  0  0  0  0  0  0  0  0
   -1.2010    1.2546   -5.9192 C   0  0  0  0  0  0  0  0  0  0  0  0
   -2.1423    1.7556   -5.0054 C   0  0  0  0  0  0  0  0  0  0  0  0
   -2.6800    0.8483   -4.1018 C   0  0  0  0  0  0  0  0  0  0  0  0
   -2.2845   -0.4994   -4.1375 C   0  0  0  0  0  0  0  0  0  0  0  0
   -1.0194   -1.9921   -5.0590 H   0  0  0  0  0  0  0  0  0  0  0  0
    0.0125   -0.3741   -6.6701 H   0  0  0  0  0  0  0  0  0  0  0  0
   -2.4259    2.8061   -5.0087 H   0  0  0  0  0  0  0  0  0  0  0  0
   -3.4058    1.1907   -3.3656 H   0  0  0  0  0  0  0  0  0  0  0  0
   -0.6807    2.2038   -6.8710 N   0  0  0  0  0  0  0  0  0  0  0  0
   -0.4800    3.0101   -7.6088 N   0  0  0  0  0  0  0  0  0  0  0  0
    2.5572    0.8972   -5.6093 S   0  0  0  0  0  0  0  0  0  0  0  0
    3.3140   -0.2985   -6.8732 C   0  0  0  0  0  0  0  0  0  0  0  0
    3.7188    1.5917   -5.0020 O   0  0  0  0  0  0  0  0  0  0  0  0
    1.7522   -0.0103   -4.7223 O   0  0  0  0  0  0  0  0  0  0  0  0
    1.6759    1.7639   -6.4976 O   0  0  0  0  0  0  0  0  0  0  0  0
    4.0309    0.3578   -7.7999 F   0  0  0  0  0  0  0  0  0  0  0  0
    4.1077   -1.1989   -6.2733 F   0  0  0  0  0  0  0  0  0  0  0  0
    2.3249   -0.9788   -7.5184 F   0  0  0  0  0  0  0  0  0  0  0  0
   -2.7130   -1.1996   -3.4204 H   0  0  0  0  0  0  0  0  0  0  0  0
  1  7  1  0  0  0  0
  1  6  2  0  0  0  0
  2  3  2  0  0  0  0
  2  1  1  0  0  0  0
  3  4  1  0  0  0  0
  4  5  2  0  0  0  0
  5 10  1  0  0  0  0
  6  5  1  0  0  0  0
  6 21  1  0  0  0  0
  8  2  1  0  0  0  0
  9  4  1  0  0  0  0
 11  3  1  0  0  0  0
 12 11  1  0  0  0  0
 13 15  2  0  0  0  0
 13 16  1  0  0  0  0
 14 19  1  0  0  0  0
 14 13  1  0  0  0  0
 17 13  2  0  0  0  0
 18 14  1  0  0  0  0
 20 14  1  0  0  0  0
M  RAD  3  11   2  12   3  16   2
M  END
