Coordinates from ORCA-job Ph-N2-OTf-B3LYPG-aug-cc-pVDZ-scan-d09-49-n400
 OpenBabel07022015323D

 21 20  0  0  0  0  0  0  0  0999 V2000
   -1.2823   -0.1191   -3.5931 C   0  0  0  0  0  0  0  0  0  0  0  0
   -0.0612    0.3536   -4.0817 C   0  0  0  0  0  0  0  0  0  0  0  0
    0.0358    0.6721   -5.4353 C   0  0  0  0  0  0  0  0  0  0  0  0
   -1.0469    0.5492   -6.3045 C   0  0  0  0  0  0  0  0  0  0  0  0
   -2.2647    0.0853   -5.7986 C   0  0  0  0  0  0  0  0  0  0  0  0
   -2.3825   -0.2532   -4.4466 C   0  0  0  0  0  0  0  0  0  0  0  0
   -1.3718   -0.3803   -2.5387 H   0  0  0  0  0  0  0  0  0  0  0  0
    0.8013    0.4721   -3.4295 H   0  0  0  0  0  0  0  0  0  0  0  0
   -0.9355    0.8240   -7.3521 H   0  0  0  0  0  0  0  0  0  0  0  0
   -3.1212   -0.0155   -6.4654 H   0  0  0  0  0  0  0  0  0  0  0  0
   -0.6740    4.0193   -4.7664 N   0  0  0  0  0  0  0  0  0  0  0  0
   -1.5483    4.5297   -4.3257 N   0  0  0  0  0  0  0  0  0  0  0  0
    2.6096    0.3111   -6.0771 S   0  0  0  0  0  0  0  0  0  0  0  0
    2.3888   -0.3746   -7.8409 C   0  0  0  0  0  0  0  0  0  0  0  0
    3.7139    1.2756   -6.1313 O   0  0  0  0  0  0  0  0  0  0  0  0
    2.5729   -0.8394   -5.1595 O   0  0  0  0  0  0  0  0  0  0  0  0
    1.2251    1.2339   -5.9507 O   0  0  0  0  0  0  0  0  0  0  0  0
    2.2322    0.6324   -8.7023 F   0  0  0  0  0  0  0  0  0  0  0  0
    3.4833   -1.0718   -8.1551 F   0  0  0  0  0  0  0  0  0  0  0  0
    1.3181   -1.1747   -7.8852 F   0  0  0  0  0  0  0  0  0  0  0  0
   -3.3309   -0.6229   -4.0578 H   0  0  0  0  0  0  0  0  0  0  0  0
  1  7  1  0  0  0  0
  2  1  1  0  0  0  0
  2  8  1  0  0  0  0
  3  2  2  0  0  0  0
  4  5  2  0  0  0  0
  4  3  1  0  0  0  0
  5  6  1  0  0  0  0
  6 21  1  0  0  0  0
  6  1  2  0  0  0  0
  9  4  1  0  0  0  0
 10  5  1  0  0  0  0
 11 12  3  0  0  0  0
 13 17  1  0  0  0  0
 13 16  2  0  0  0  0
 14 13  1  0  0  0  0
 15 13  2  0  0  0  0
 17  3  1  0  0  0  0
 18 14  1  0  0  0  0
 19 14  1  0  0  0  0
 20 14  1  0  0  0  0
M  END
