Coordinates from ORCA-job Ph-N2-OTf-B3LYPG-aug-cc-pVDZ-scan-d09-49-n400
 OpenBabel07022015323D

 21 20  0  0  0  0  0  0  0  0999 V2000
   -1.2949   -0.0729   -3.5822 C   0  0  0  0  0  0  0  0  0  0  0  0
   -0.0759    0.4070   -4.0684 C   0  0  0  0  0  0  0  0  0  0  0  0
    0.0187    0.7386   -5.4188 C   0  0  0  0  0  0  0  0  0  0  0  0
   -1.0605    0.6055   -6.2905 C   0  0  0  0  0  0  0  0  0  0  0  0
   -2.2766    0.1344   -5.7875 C   0  0  0  0  0  0  0  0  0  0  0  0
   -2.3946   -0.2075   -4.4363 C   0  0  0  0  0  0  0  0  0  0  0  0
   -1.3833   -0.3403   -2.5293 H   0  0  0  0  0  0  0  0  0  0  0  0
    0.7859    0.5267   -3.4154 H   0  0  0  0  0  0  0  0  0  0  0  0
   -0.9489    0.8817   -7.3377 H   0  0  0  0  0  0  0  0  0  0  0  0
   -3.1312    0.0293   -6.4560 H   0  0  0  0  0  0  0  0  0  0  0  0
   -0.5288    3.5126   -4.8989 N   0  0  0  0  0  0  0  0  0  0  0  0
   -1.3788    4.0719   -4.4692 N   0  0  0  0  0  0  0  0  0  0  0  0
    2.5899    0.3646   -6.0602 S   0  0  0  0  0  0  0  0  0  0  0  0
    2.3645   -0.3261   -7.8215 C   0  0  0  0  0  0  0  0  0  0  0  0
    3.6973    1.3252   -6.1195 O   0  0  0  0  0  0  0  0  0  0  0  0
    2.5521   -0.7828   -5.1389 O   0  0  0  0  0  0  0  0  0  0  0  0
    1.2098    1.2934   -5.9346 O   0  0  0  0  0  0  0  0  0  0  0  0
    2.2055    0.6785   -8.6854 F   0  0  0  0  0  0  0  0  0  0  0  0
    3.4588   -1.0234   -8.1363 F   0  0  0  0  0  0  0  0  0  0  0  0
    1.2943   -1.1269   -7.8614 F   0  0  0  0  0  0  0  0  0  0  0  0
   -3.3416   -0.5826   -4.0495 H   0  0  0  0  0  0  0  0  0  0  0  0
  1  7  1  0  0  0  0
  2  1  1  0  0  0  0
  2  8  1  0  0  0  0
  3  2  2  0  0  0  0
  4  5  2  0  0  0  0
  4  3  1  0  0  0  0
  5  6  1  0  0  0  0
  6 21  1  0  0  0  0
  6  1  2  0  0  0  0
  9  4  1  0  0  0  0
 10  5  1  0  0  0  0
 11 12  3  0  0  0  0
 13 17  1  0  0  0  0
 13 16  2  0  0  0  0
 14 13  1  0  0  0  0
 15 13  2  0  0  0  0
 17  3  1  0  0  0  0
 18 14  1  0  0  0  0
 19 14  1  0  0  0  0
 20 14  1  0  0  0  0
M  END
