Coordinates from ORCA-job Ph-N2-OTf-B3LYPG-aug-cc-pVDZ-scan-d09-49-n400
 OpenBabel07022015323D

 21 19  0  0  0  0  0  0  0  0999 V2000
   -1.1642   -0.8063   -4.4186 C   0  0  0  0  0  0  0  0  0  0  0  0
   -0.3524    0.3158   -4.7988 C   0  0  0  0  0  0  0  0  0  0  0  0
   -1.1714    1.2470   -5.2052 C   0  0  0  0  0  0  0  0  0  0  0  0
   -2.4745    1.5370   -5.4082 C   0  0  0  0  0  0  0  0  0  0  0  0
   -3.2098    0.3865   -5.0184 C   0  0  0  0  0  0  0  0  0  0  0  0
   -2.5570   -0.7545   -4.5306 C   0  0  0  0  0  0  0  0  0  0  0  0
   -0.6490   -1.6963   -4.0549 H   0  0  0  0  0  0  0  0  0  0  0  0
    0.8461    0.2637   -4.7943 H   0  0  0  0  0  0  0  0  0  0  0  0
   -2.9144    2.4536   -5.7861 H   0  0  0  0  0  0  0  0  0  0  0  0
   -4.2965    0.4266   -5.1074 H   0  0  0  0  0  0  0  0  0  0  0  0
   -0.1226    3.5491   -5.6241 N   0  0  0  0  0  0  0  0  0  0  0  0
    0.4182    4.5004   -5.7636 N   0  0  0  0  0  0  0  0  0  0  0  0
    2.8260    0.8275   -6.1264 S   0  0  0  0  0  0  0  0  0  0  0  0
    2.9909   -0.6559   -7.2944 C   0  0  0  0  0  0  0  0  0  0  0  0
    4.1995    1.3505   -5.9601 O   0  0  0  0  0  0  0  0  0  0  0  0
    2.2764    0.1546   -4.8435 O   0  0  0  0  0  0  0  0  0  0  0  0
    1.7937    1.6920   -6.7757 O   0  0  0  0  0  0  0  0  0  0  0  0
    3.4120   -0.2480   -8.5011 F   0  0  0  0  0  0  0  0  0  0  0  0
    3.8644   -1.5510   -6.8090 F   0  0  0  0  0  0  0  0  0  0  0  0
    1.7935   -1.2639   -7.4417 F   0  0  0  0  0  0  0  0  0  0  0  0
   -3.1473   -1.6215   -4.2351 H   0  0  0  0  0  0  0  0  0  0  0  0
  1  7  1  0  0  0  0
  2  8  1  0  0  0  0
  2  1  2  0  0  0  0
  3  2  1  0  0  0  0
  4  3  2  0  0  0  0
  4  5  1  0  0  0  0
  5  6  2  0  0  0  0
  6  1  1  0  0  0  0
  6 21  1  0  0  0  0
  9  4  1  0  0  0  0
 10  5  1  0  0  0  0
 12 11  3  0  0  0  0
 13 15  2  0  0  0  0
 13 16  1  0  0  0  0
 14 19  1  0  0  0  0
 14 13  1  0  0  0  0
 17 13  2  0  0  0  0
 18 14  1  0  0  0  0
 20 14  1  0  0  0  0
M  RAD  2   3   2  16   2
M  END
