Coordinates from ORCA-job Ph-N2-OTf-B3LYPG-aug-cc-pVDZ-scan-d09-49-n400
 OpenBabel07022015323D

 21 20  0  0  0  0  0  0  0  0999 V2000
   -1.2936   -0.0473   -3.5807 C   0  0  0  0  0  0  0  0  0  0  0  0
   -0.0756    0.4359   -4.0652 C   0  0  0  0  0  0  0  0  0  0  0  0
    0.0168    0.7813   -5.4124 C   0  0  0  0  0  0  0  0  0  0  0  0
   -1.0581    0.6349   -6.2874 C   0  0  0  0  0  0  0  0  0  0  0  0
   -2.2734    0.1606   -5.7866 C   0  0  0  0  0  0  0  0  0  0  0  0
   -2.3931   -0.1808   -4.4354 C   0  0  0  0  0  0  0  0  0  0  0  0
   -1.3811   -0.3199   -2.5291 H   0  0  0  0  0  0  0  0  0  0  0  0
    0.7859    0.5540   -3.4117 H   0  0  0  0  0  0  0  0  0  0  0  0
   -0.9457    0.9088   -7.3351 H   0  0  0  0  0  0  0  0  0  0  0  0
   -3.1260    0.0507   -6.4570 H   0  0  0  0  0  0  0  0  0  0  0  0
   -0.4948    3.3213   -4.9366 N   0  0  0  0  0  0  0  0  0  0  0  0
   -1.3593    3.8581   -4.5061 N   0  0  0  0  0  0  0  0  0  0  0  0
    2.5837    0.3787   -6.0544 S   0  0  0  0  0  0  0  0  0  0  0  0
    2.3511   -0.3151   -7.8136 C   0  0  0  0  0  0  0  0  0  0  0  0
    3.6993    1.3296   -6.1179 O   0  0  0  0  0  0  0  0  0  0  0  0
    2.5380   -0.7656   -5.1297 O   0  0  0  0  0  0  0  0  0  0  0  0
    1.2132    1.3208   -5.9304 O   0  0  0  0  0  0  0  0  0  0  0  0
    2.1933    0.6882   -8.6793 F   0  0  0  0  0  0  0  0  0  0  0  0
    3.4425   -1.0165   -8.1294 F   0  0  0  0  0  0  0  0  0  0  0  0
    1.2784   -1.1127   -7.8494 F   0  0  0  0  0  0  0  0  0  0  0  0
   -3.3398   -0.5583   -4.0499 H   0  0  0  0  0  0  0  0  0  0  0  0
  1  7  1  0  0  0  0
  2  1  1  0  0  0  0
  2  8  1  0  0  0  0
  3  2  2  0  0  0  0
  4  5  2  0  0  0  0
  4  3  1  0  0  0  0
  5  6  1  0  0  0  0
  6 21  1  0  0  0  0
  6  1  2  0  0  0  0
  9  4  1  0  0  0  0
 10  5  1  0  0  0  0
 11 12  3  0  0  0  0
 13 17  1  0  0  0  0
 13 16  2  0  0  0  0
 14 13  1  0  0  0  0
 15 13  2  0  0  0  0
 17  3  1  0  0  0  0
 18 14  1  0  0  0  0
 19 14  1  0  0  0  0
 20 14  1  0  0  0  0
M  END
