Coordinates from ORCA-job Ph-N2-OTf-B3LYPG-aug-cc-pVDZ-scan-d09-49-n400
 OpenBabel07022015323D

 21 20  0  0  0  0  0  0  0  0999 V2000
   -1.2872   -0.1094   -3.5897 C   0  0  0  0  0  0  0  0  0  0  0  0
   -0.0666    0.3652   -4.0779 C   0  0  0  0  0  0  0  0  0  0  0  0
    0.0297    0.6859   -5.4310 C   0  0  0  0  0  0  0  0  0  0  0  0
   -1.0524    0.5610   -6.3005 C   0  0  0  0  0  0  0  0  0  0  0  0
   -2.2697    0.0952   -5.7951 C   0  0  0  0  0  0  0  0  0  0  0  0
   -2.3872   -0.2440   -4.4433 C   0  0  0  0  0  0  0  0  0  0  0  0
   -1.3764   -0.3718   -2.5356 H   0  0  0  0  0  0  0  0  0  0  0  0
    0.7958    0.4840   -3.4256 H   0  0  0  0  0  0  0  0  0  0  0  0
   -0.9411    0.8358   -7.3481 H   0  0  0  0  0  0  0  0  0  0  0  0
   -3.1259   -0.0066   -6.4622 H   0  0  0  0  0  0  0  0  0  0  0  0
   -0.6260    3.8963   -4.8043 N   0  0  0  0  0  0  0  0  0  0  0  0
   -1.4948    4.4178   -4.3658 N   0  0  0  0  0  0  0  0  0  0  0  0
    2.6038    0.3268   -6.0725 S   0  0  0  0  0  0  0  0  0  0  0  0
    2.3833   -0.3602   -7.8358 C   0  0  0  0  0  0  0  0  0  0  0  0
    3.7071    1.2923   -6.1273 O   0  0  0  0  0  0  0  0  0  0  0  0
    2.5685   -0.8233   -5.1543 O   0  0  0  0  0  0  0  0  0  0  0  0
    1.2186    1.2483   -5.9463 O   0  0  0  0  0  0  0  0  0  0  0  0
    2.2256    0.6462   -8.6978 F   0  0  0  0  0  0  0  0  0  0  0  0
    3.4786   -1.0563   -8.1498 F   0  0  0  0  0  0  0  0  0  0  0  0
    1.3134   -1.1614   -7.8796 F   0  0  0  0  0  0  0  0  0  0  0  0
   -3.3353   -0.6150   -4.0548 H   0  0  0  0  0  0  0  0  0  0  0  0
  1  7  1  0  0  0  0
  2  1  1  0  0  0  0
  2  8  1  0  0  0  0
  3  2  2  0  0  0  0
  4  5  2  0  0  0  0
  4  3  1  0  0  0  0
  5  6  1  0  0  0  0
  6 21  1  0  0  0  0
  6  1  2  0  0  0  0
  9  4  1  0  0  0  0
 10  5  1  0  0  0  0
 11 12  3  0  0  0  0
 13 17  1  0  0  0  0
 13 16  2  0  0  0  0
 14 13  1  0  0  0  0
 15 13  2  0  0  0  0
 17  3  1  0  0  0  0
 18 14  1  0  0  0  0
 19 14  1  0  0  0  0
 20 14  1  0  0  0  0
M  END
