Coordinates from ORCA-job Ph-N2-OTf-B3LYPG-aug-cc-pVDZ-scan-d09-49-n400
 OpenBabel07022015323D

 21 20  0  0  0  0  0  0  0  0999 V2000
   -1.3073   -0.7150   -4.3063 C   0  0  0  0  0  0  0  0  0  0  0  0
   -0.4586    0.2603   -4.8592 C   0  0  0  0  0  0  0  0  0  0  0  0
   -1.1383    1.3326   -5.3729 C   0  0  0  0  0  0  0  0  0  0  0  0
   -2.4958    1.5947   -5.4286 C   0  0  0  0  0  0  0  0  0  0  0  0
   -3.2903    0.5896   -4.8657 C   0  0  0  0  0  0  0  0  0  0  0  0
   -2.6961   -0.5530   -4.3113 C   0  0  0  0  0  0  0  0  0  0  0  0
   -0.8514   -1.6050   -3.8747 H   0  0  0  0  0  0  0  0  0  0  0  0
    0.6349    0.1473   -4.8688 H   0  0  0  0  0  0  0  0  0  0  0  0
   -2.9138    2.4952   -5.8699 H   0  0  0  0  0  0  0  0  0  0  0  0
   -4.3736    0.7085   -4.8679 H   0  0  0  0  0  0  0  0  0  0  0  0
   -0.2278    2.5838   -6.0574 N   0  0  0  0  0  0  0  0  0  0  0  0
    0.0176    3.5635   -6.5076 N   0  0  0  0  0  0  0  0  0  0  0  0
    3.0199    0.6540   -5.8363 S   0  0  0  0  0  0  0  0  0  0  0  0
    3.2100   -0.3510   -7.4333 C   0  0  0  0  0  0  0  0  0  0  0  0
    4.3688    1.2111   -5.5753 O   0  0  0  0  0  0  0  0  0  0  0  0
    2.4818   -0.3527   -4.8540 O   0  0  0  0  0  0  0  0  0  0  0  0
    1.9638    1.6816   -6.2309 O   0  0  0  0  0  0  0  0  0  0  0  0
    3.6312    0.4308   -8.4431 F   0  0  0  0  0  0  0  0  0  0  0  0
    4.0935   -1.3482   -7.2654 F   0  0  0  0  0  0  0  0  0  0  0  0
    2.0221   -0.8933   -7.7895 F   0  0  0  0  0  0  0  0  0  0  0  0
   -3.3290   -1.3280   -3.8790 H   0  0  0  0  0  0  0  0  0  0  0  0
  1  7  1  0  0  0  0
  2  1  2  0  0  0  0
  3  2  1  0  0  0  0
  4  3  2  0  0  0  0
  4  5  1  0  0  0  0
  5  6  2  0  0  0  0
  6  1  1  0  0  0  0
  6 21  1  0  0  0  0
  8  2  1  0  0  0  0
  9  4  1  0  0  0  0
 10  5  1  0  0  0  0
 11  3  1  0  0  0  0
 12 11  1  0  0  0  0
 13 15  2  0  0  0  0
 13 16  1  0  0  0  0
 14 19  1  0  0  0  0
 14 13  1  0  0  0  0
 17 13  2  0  0  0  0
 18 14  1  0  0  0  0
 20 14  1  0  0  0  0
M  RAD  3  11   2  12   3  16   2
M  END
