Coordinates from ORCA-job Ph-N2-OTf-B3LYPG-aug-cc-pVDZ-scan-d09-49-n400
 OpenBabel07022015323D

 21 20  0  0  0  0  0  0  0  0999 V2000
   -1.2941   -0.0542   -3.5813 C   0  0  0  0  0  0  0  0  0  0  0  0
   -0.0757    0.4278   -4.0663 C   0  0  0  0  0  0  0  0  0  0  0  0
    0.0178    0.7677   -5.4148 C   0  0  0  0  0  0  0  0  0  0  0  0
   -1.0587    0.6265   -6.2886 C   0  0  0  0  0  0  0  0  0  0  0  0
   -2.2744    0.1535   -5.7872 C   0  0  0  0  0  0  0  0  0  0  0  0
   -2.3935   -0.1882   -4.4360 C   0  0  0  0  0  0  0  0  0  0  0  0
   -1.3821   -0.3246   -2.5291 H   0  0  0  0  0  0  0  0  0  0  0  0
    0.7858    0.5472   -3.4129 H   0  0  0  0  0  0  0  0  0  0  0  0
   -0.9462    0.9020   -7.3360 H   0  0  0  0  0  0  0  0  0  0  0  0
   -3.1277    0.0457   -6.4569 H   0  0  0  0  0  0  0  0  0  0  0  0
   -0.5054    3.3753   -4.9239 N   0  0  0  0  0  0  0  0  0  0  0  0
   -1.3664    3.9173   -4.4935 N   0  0  0  0  0  0  0  0  0  0  0  0
    2.5860    0.3749   -6.0564 S   0  0  0  0  0  0  0  0  0  0  0  0
    2.3551   -0.3189   -7.8159 C   0  0  0  0  0  0  0  0  0  0  0  0
    3.6990    1.3289   -6.1195 O   0  0  0  0  0  0  0  0  0  0  0  0
    2.5432   -0.7699   -5.1322 O   0  0  0  0  0  0  0  0  0  0  0  0
    1.2123    1.3128   -5.9319 O   0  0  0  0  0  0  0  0  0  0  0  0
    2.1967    0.6843   -8.6815 F   0  0  0  0  0  0  0  0  0  0  0  0
    3.4473   -1.0192   -8.1313 F   0  0  0  0  0  0  0  0  0  0  0  0
    1.2832   -1.1175   -7.8522 F   0  0  0  0  0  0  0  0  0  0  0  0
   -3.3404   -0.5648   -4.0501 H   0  0  0  0  0  0  0  0  0  0  0  0
  1  7  1  0  0  0  0
  2  1  1  0  0  0  0
  2  8  1  0  0  0  0
  3  2  2  0  0  0  0
  4  5  2  0  0  0  0
  4  3  1  0  0  0  0
  5  6  1  0  0  0  0
  6 21  1  0  0  0  0
  6  1  2  0  0  0  0
  9  4  1  0  0  0  0
 10  5  1  0  0  0  0
 11 12  3  0  0  0  0
 13 17  1  0  0  0  0
 13 16  2  0  0  0  0
 14 13  1  0  0  0  0
 15 13  2  0  0  0  0
 17  3  1  0  0  0  0
 18 14  1  0  0  0  0
 19 14  1  0  0  0  0
 20 14  1  0  0  0  0
M  END
