Coordinates from ORCA-job Ph-N2-OTf-B3LYPG-aug-cc-pVDZ-scan-d09-49-n400
 OpenBabel07022015323D

 21 20  0  0  0  0  0  0  0  0999 V2000
   -1.2853   -0.1134   -3.5911 C   0  0  0  0  0  0  0  0  0  0  0  0
   -0.0645    0.3604   -4.0795 C   0  0  0  0  0  0  0  0  0  0  0  0
    0.0321    0.6801   -5.4328 C   0  0  0  0  0  0  0  0  0  0  0  0
   -1.0503    0.5563   -6.3021 C   0  0  0  0  0  0  0  0  0  0  0  0
   -2.2678    0.0913   -5.7965 C   0  0  0  0  0  0  0  0  0  0  0  0
   -2.3854   -0.2478   -4.4447 C   0  0  0  0  0  0  0  0  0  0  0  0
   -1.3746   -0.3753   -2.5369 H   0  0  0  0  0  0  0  0  0  0  0  0
    0.7979    0.4791   -3.4272 H   0  0  0  0  0  0  0  0  0  0  0  0
   -0.9390    0.8314   -7.3497 H   0  0  0  0  0  0  0  0  0  0  0  0
   -3.1241   -0.0099   -6.4634 H   0  0  0  0  0  0  0  0  0  0  0  0
   -0.6448    3.9454   -4.7892 N   0  0  0  0  0  0  0  0  0  0  0  0
   -1.5157    4.4624   -4.3497 N   0  0  0  0  0  0  0  0  0  0  0  0
    2.6062    0.3208   -6.0744 S   0  0  0  0  0  0  0  0  0  0  0  0
    2.3855   -0.3660   -7.8377 C   0  0  0  0  0  0  0  0  0  0  0  0
    3.7097    1.2861   -6.1292 O   0  0  0  0  0  0  0  0  0  0  0  0
    2.5707   -0.8294   -5.1563 O   0  0  0  0  0  0  0  0  0  0  0  0
    1.2211    1.2426   -5.9480 O   0  0  0  0  0  0  0  0  0  0  0  0
    2.2280    0.6405   -8.6996 F   0  0  0  0  0  0  0  0  0  0  0  0
    3.4805   -1.0625   -8.1518 F   0  0  0  0  0  0  0  0  0  0  0  0
    1.3154   -1.1669   -7.8815 F   0  0  0  0  0  0  0  0  0  0  0  0
   -3.3337   -0.6182   -4.0561 H   0  0  0  0  0  0  0  0  0  0  0  0
  1  7  1  0  0  0  0
  2  1  1  0  0  0  0
  2  8  1  0  0  0  0
  3  2  2  0  0  0  0
  4  5  2  0  0  0  0
  4  3  1  0  0  0  0
  5  6  1  0  0  0  0
  6 21  1  0  0  0  0
  6  1  2  0  0  0  0
  9  4  1  0  0  0  0
 10  5  1  0  0  0  0
 11 12  3  0  0  0  0
 13 17  1  0  0  0  0
 13 16  2  0  0  0  0
 14 13  1  0  0  0  0
 15 13  2  0  0  0  0
 17  3  1  0  0  0  0
 18 14  1  0  0  0  0
 19 14  1  0  0  0  0
 20 14  1  0  0  0  0
M  END
