Coordinates from ORCA-job Ph-N2-OTf-B3LYPG-aug-cc-pVDZ-scan-d09-49-n400
 OpenBabel07022015323D

 21 20  0  0  0  0  0  0  0  0999 V2000
   -1.2288   -0.1717   -3.6327 C   0  0  0  0  0  0  0  0  0  0  0  0
   -0.0006    0.2755   -4.1276 C   0  0  0  0  0  0  0  0  0  0  0  0
    0.1016    0.5712   -5.4860 C   0  0  0  0  0  0  0  0  0  0  0  0
   -0.9829    0.4533   -6.3537 C   0  0  0  0  0  0  0  0  0  0  0  0
   -2.2076    0.0153   -5.8415 C   0  0  0  0  0  0  0  0  0  0  0  0
   -2.3304   -0.3020   -4.4849 C   0  0  0  0  0  0  0  0  0  0  0  0
   -1.3226   -0.4154   -2.5744 H   0  0  0  0  0  0  0  0  0  0  0  0
    0.8634    0.3915   -3.4768 H   0  0  0  0  0  0  0  0  0  0  0  0
   -0.8672    0.7120   -7.4050 H   0  0  0  0  0  0  0  0  0  0  0  0
   -3.0656   -0.0816   -6.5069 H   0  0  0  0  0  0  0  0  0  0  0  0
   -1.1734    5.1110   -4.3518 N   0  0  0  0  0  0  0  0  0  0  0  0
   -2.1177    5.4395   -3.8832 N   0  0  0  0  0  0  0  0  0  0  0  0
    2.6690    0.1604   -6.1267 S   0  0  0  0  0  0  0  0  0  0  0  0
    2.4373   -0.5340   -7.8858 C   0  0  0  0  0  0  0  0  0  0  0  0
    3.7896    1.1055   -6.1868 O   0  0  0  0  0  0  0  0  0  0  0  0
    2.6108   -0.9821   -5.2003 O   0  0  0  0  0  0  0  0  0  0  0  0
    1.2999    1.1082   -6.0083 O   0  0  0  0  0  0  0  0  0  0  0  0
    2.2935    0.4698   -8.7532 F   0  0  0  0  0  0  0  0  0  0  0  0
    3.5220   -1.2477   -8.1965 F   0  0  0  0  0  0  0  0  0  0  0  0
    1.3558   -1.3196   -7.9239 F   0  0  0  0  0  0  0  0  0  0  0  0
   -3.2842   -0.6523   -4.0911 H   0  0  0  0  0  0  0  0  0  0  0  0
  1  7  1  0  0  0  0
  2  1  1  0  0  0  0
  2  8  1  0  0  0  0
  3  2  2  0  0  0  0
  4  5  2  0  0  0  0
  4  3  1  0  0  0  0
  5  6  1  0  0  0  0
  6 21  1  0  0  0  0
  6  1  2  0  0  0  0
  9  4  1  0  0  0  0
 10  5  1  0  0  0  0
 11 12  3  0  0  0  0
 13 17  1  0  0  0  0
 13 16  2  0  0  0  0
 14 13  1  0  0  0  0
 15 13  2  0  0  0  0
 17  3  1  0  0  0  0
 18 14  1  0  0  0  0
 19 14  1  0  0  0  0
 20 14  1  0  0  0  0
M  END
