Coordinates from ORCA-job Ph-N2-OTf-B3LYPG-aug-cc-pVDZ-scan-d09-49-n400
 OpenBabel07022015323D

 21 20  0  0  0  0  0  0  0  0999 V2000
   -1.2890   -0.1052   -3.5880 C   0  0  0  0  0  0  0  0  0  0  0  0
   -0.0688    0.3703   -4.0759 C   0  0  0  0  0  0  0  0  0  0  0  0
    0.0273    0.6928   -5.4285 C   0  0  0  0  0  0  0  0  0  0  0  0
   -1.0546    0.5671   -6.2983 C   0  0  0  0  0  0  0  0  0  0  0  0
   -2.2716    0.1004   -5.7932 C   0  0  0  0  0  0  0  0  0  0  0  0
   -2.3891   -0.2396   -4.4416 C   0  0  0  0  0  0  0  0  0  0  0  0
   -1.3780   -0.3685   -2.5341 H   0  0  0  0  0  0  0  0  0  0  0  0
    0.7937    0.4887   -3.4236 H   0  0  0  0  0  0  0  0  0  0  0  0
   -0.9433    0.8423   -7.3458 H   0  0  0  0  0  0  0  0  0  0  0  0
   -3.1276   -0.0017   -6.4604 H   0  0  0  0  0  0  0  0  0  0  0  0
   -0.6060    3.8389   -4.8225 N   0  0  0  0  0  0  0  0  0  0  0  0
   -1.4722    4.3668   -4.3866 N   0  0  0  0  0  0  0  0  0  0  0  0
    2.6012    0.3332   -6.0702 S   0  0  0  0  0  0  0  0  0  0  0  0
    2.3806   -0.3533   -7.8336 C   0  0  0  0  0  0  0  0  0  0  0  0
    3.7046    1.2987   -6.1249 O   0  0  0  0  0  0  0  0  0  0  0  0
    2.5661   -0.8171   -5.1523 O   0  0  0  0  0  0  0  0  0  0  0  0
    1.2162    1.2549   -5.9437 O   0  0  0  0  0  0  0  0  0  0  0  0
    2.2226    0.6532   -8.6954 F   0  0  0  0  0  0  0  0  0  0  0  0
    3.4759   -1.0493   -8.1479 F   0  0  0  0  0  0  0  0  0  0  0  0
    1.3108   -1.1547   -7.8775 F   0  0  0  0  0  0  0  0  0  0  0  0
   -3.3370   -0.6113   -4.0533 H   0  0  0  0  0  0  0  0  0  0  0  0
  1  7  1  0  0  0  0
  2  1  1  0  0  0  0
  2  8  1  0  0  0  0
  3  2  2  0  0  0  0
  4  5  2  0  0  0  0
  4  3  1  0  0  0  0
  5  6  1  0  0  0  0
  6 21  1  0  0  0  0
  6  1  2  0  0  0  0
  9  4  1  0  0  0  0
 10  5  1  0  0  0  0
 11 12  3  0  0  0  0
 13 17  1  0  0  0  0
 13 16  2  0  0  0  0
 14 13  1  0  0  0  0
 15 13  2  0  0  0  0
 17  3  1  0  0  0  0
 18 14  1  0  0  0  0
 19 14  1  0  0  0  0
 20 14  1  0  0  0  0
M  END
