Coordinates from ORCA-job Ph-N2-OTf-B3LYPG-aug-cc-pVDZ-scan-d09-49-n400
 OpenBabel07022015323D

 21 20  0  0  0  0  0  0  0  0999 V2000
   -1.2506   -0.1550   -3.6162 C   0  0  0  0  0  0  0  0  0  0  0  0
   -0.0253    0.3033   -4.1082 C   0  0  0  0  0  0  0  0  0  0  0  0
    0.0747    0.6091   -5.4645 C   0  0  0  0  0  0  0  0  0  0  0  0
   -1.0091    0.4903   -6.3328 C   0  0  0  0  0  0  0  0  0  0  0  0
   -2.2310    0.0412   -5.8235 C   0  0  0  0  0  0  0  0  0  0  0  0
   -2.3516   -0.2863   -4.4691 C   0  0  0  0  0  0  0  0  0  0  0  0
   -1.3426   -0.4070   -2.5598 H   0  0  0  0  0  0  0  0  0  0  0  0
    0.8380    0.4200   -3.4568 H   0  0  0  0  0  0  0  0  0  0  0  0
   -0.8953    0.7569   -7.3823 H   0  0  0  0  0  0  0  0  0  0  0  0
   -3.0885   -0.0565   -6.4895 H   0  0  0  0  0  0  0  0  0  0  0  0
   -0.9709    4.6815   -4.5234 N   0  0  0  0  0  0  0  0  0  0  0  0
   -1.8862    5.0950   -4.0646 N   0  0  0  0  0  0  0  0  0  0  0  0
    2.6451    0.2205   -6.1065 S   0  0  0  0  0  0  0  0  0  0  0  0
    2.4178   -0.4685   -7.8682 C   0  0  0  0  0  0  0  0  0  0  0  0
    3.7588    1.1740   -6.1632 O   0  0  0  0  0  0  0  0  0  0  0  0
    2.5961   -0.9263   -5.1849 O   0  0  0  0  0  0  0  0  0  0  0  0
    1.2693    1.1575   -5.9835 O   0  0  0  0  0  0  0  0  0  0  0  0
    2.2686    0.5375   -8.7320 F   0  0  0  0  0  0  0  0  0  0  0  0
    3.5068   -1.1750   -8.1811 F   0  0  0  0  0  0  0  0  0  0  0  0
    1.3409   -1.2603   -7.9096 F   0  0  0  0  0  0  0  0  0  0  0  0
   -3.3032   -0.6451   -4.0776 H   0  0  0  0  0  0  0  0  0  0  0  0
  1  7  1  0  0  0  0
  2  1  1  0  0  0  0
  2  8  1  0  0  0  0
  3  2  2  0  0  0  0
  4  5  2  0  0  0  0
  4  3  1  0  0  0  0
  5  6  1  0  0  0  0
  6 21  1  0  0  0  0
  6  1  2  0  0  0  0
  9  4  1  0  0  0  0
 10  5  1  0  0  0  0
 11 12  3  0  0  0  0
 13 17  1  0  0  0  0
 13 16  2  0  0  0  0
 14 13  1  0  0  0  0
 15 13  2  0  0  0  0
 17  3  1  0  0  0  0
 18 14  1  0  0  0  0
 19 14  1  0  0  0  0
 20 14  1  0  0  0  0
M  END
