Coordinates from ORCA-job Ph-N2-OTf-B3LYPG-aug-cc-pVDZ-scan-d09-49-n400
 OpenBabel07022015323D

 21 20  0  0  0  0  0  0  0  0999 V2000
   -1.2813   -0.1209   -3.5937 C   0  0  0  0  0  0  0  0  0  0  0  0
   -0.0600    0.3515   -4.0825 C   0  0  0  0  0  0  0  0  0  0  0  0
    0.0370    0.6695   -5.4361 C   0  0  0  0  0  0  0  0  0  0  0  0
   -1.0457    0.5467   -6.3053 C   0  0  0  0  0  0  0  0  0  0  0  0
   -2.2637    0.0833   -5.7993 C   0  0  0  0  0  0  0  0  0  0  0  0
   -2.3815   -0.2550   -4.4473 C   0  0  0  0  0  0  0  0  0  0  0  0
   -1.3709   -0.3817   -2.5393 H   0  0  0  0  0  0  0  0  0  0  0  0
    0.8025    0.4700   -3.4303 H   0  0  0  0  0  0  0  0  0  0  0  0
   -0.9342    0.8214   -7.3529 H   0  0  0  0  0  0  0  0  0  0  0  0
   -3.1201   -0.0174   -6.4661 H   0  0  0  0  0  0  0  0  0  0  0  0
   -0.6840    4.0439   -4.7585 N   0  0  0  0  0  0  0  0  0  0  0  0
   -1.5594    4.5520   -4.3174 N   0  0  0  0  0  0  0  0  0  0  0  0
    2.6108    0.3078   -6.0781 S   0  0  0  0  0  0  0  0  0  0  0  0
    2.3899   -0.3776   -7.8420 C   0  0  0  0  0  0  0  0  0  0  0  0
    3.7154    1.2720   -6.1319 O   0  0  0  0  0  0  0  0  0  0  0  0
    2.5736   -0.8428   -5.1607 O   0  0  0  0  0  0  0  0  0  0  0  0
    1.2265    1.2310   -5.9516 O   0  0  0  0  0  0  0  0  0  0  0  0
    2.2336    0.6297   -8.7032 F   0  0  0  0  0  0  0  0  0  0  0  0
    3.4843   -1.0749   -8.1563 F   0  0  0  0  0  0  0  0  0  0  0  0
    1.3189   -1.1773   -7.8865 F   0  0  0  0  0  0  0  0  0  0  0  0
   -3.3300   -0.6243   -4.0584 H   0  0  0  0  0  0  0  0  0  0  0  0
  1  7  1  0  0  0  0
  2  1  1  0  0  0  0
  2  8  1  0  0  0  0
  3  2  2  0  0  0  0
  4  5  2  0  0  0  0
  4  3  1  0  0  0  0
  5  6  1  0  0  0  0
  6 21  1  0  0  0  0
  6  1  2  0  0  0  0
  9  4  1  0  0  0  0
 10  5  1  0  0  0  0
 11 12  3  0  0  0  0
 13 17  1  0  0  0  0
 13 16  2  0  0  0  0
 14 13  1  0  0  0  0
 15 13  2  0  0  0  0
 17  3  1  0  0  0  0
 18 14  1  0  0  0  0
 19 14  1  0  0  0  0
 20 14  1  0  0  0  0
M  END
