Coordinates from ORCA-job Ph-N2-OTf-B3LYPG-aug-cc-pVDZ-scan-d09-49-n400
 OpenBabel07022015323D

 21 20  0  0  0  0  0  0  0  0999 V2000
   -1.2993   -0.6948   -4.3050 C   0  0  0  0  0  0  0  0  0  0  0  0
   -0.4600    0.2757   -4.8631 C   0  0  0  0  0  0  0  0  0  0  0  0
   -1.1063    1.3771   -5.4072 C   0  0  0  0  0  0  0  0  0  0  0  0
   -2.4888    1.5966   -5.4445 C   0  0  0  0  0  0  0  0  0  0  0  0
   -3.2833    0.6028   -4.8791 C   0  0  0  0  0  0  0  0  0  0  0  0
   -2.6885   -0.5358   -4.3134 C   0  0  0  0  0  0  0  0  0  0  0  0
   -0.8456   -1.5818   -3.8655 H   0  0  0  0  0  0  0  0  0  0  0  0
    0.6299    0.1620   -4.8693 H   0  0  0  0  0  0  0  0  0  0  0  0
   -2.9147    2.4914   -5.8930 H   0  0  0  0  0  0  0  0  0  0  0  0
   -4.3668    0.7170   -4.8828 H   0  0  0  0  0  0  0  0  0  0  0  0
   -0.2961    2.4922   -6.0275 N   0  0  0  0  0  0  0  0  0  0  0  0
    0.0168    3.4466   -6.4975 N   0  0  0  0  0  0  0  0  0  0  0  0
    3.0342    0.6426   -5.8183 S   0  0  0  0  0  0  0  0  0  0  0  0
    3.1976   -0.3329   -7.4363 C   0  0  0  0  0  0  0  0  0  0  0  0
    4.3841    1.2064   -5.5778 O   0  0  0  0  0  0  0  0  0  0  0  0
    2.5211   -0.3821   -4.8436 O   0  0  0  0  0  0  0  0  0  0  0  0
    1.9610    1.6679   -6.1726 O   0  0  0  0  0  0  0  0  0  0  0  0
    3.6003    0.4667   -8.4401 F   0  0  0  0  0  0  0  0  0  0  0  0
    4.0841   -1.3324   -7.3024 F   0  0  0  0  0  0  0  0  0  0  0  0
    2.0036   -0.8702   -7.7824 F   0  0  0  0  0  0  0  0  0  0  0  0
   -3.3215   -1.3082   -3.8759 H   0  0  0  0  0  0  0  0  0  0  0  0
  1  7  1  0  0  0  0
  2  1  2  0  0  0  0
  3  2  1  0  0  0  0
  4  3  2  0  0  0  0
  4  5  1  0  0  0  0
  5  6  2  0  0  0  0
  6  1  1  0  0  0  0
  6 21  1  0  0  0  0
  8  2  1  0  0  0  0
  9  4  1  0  0  0  0
 10  5  1  0  0  0  0
 11  3  1  0  0  0  0
 12 11  1  0  0  0  0
 13 15  2  0  0  0  0
 13 16  1  0  0  0  0
 14 19  1  0  0  0  0
 14 13  1  0  0  0  0
 17 13  2  0  0  0  0
 18 14  1  0  0  0  0
 20 14  1  0  0  0  0
M  RAD  3  11   2  12   3  16   2
M  END
