Coordinates from ORCA-job Ph-N2-OTf-B3LYPG-aug-cc-pVDZ-scan-d09-49-n400
 OpenBabel07022015323D

 21 19  0  0  0  0  0  0  0  0999 V2000
   -1.2950   -0.7806   -4.4303 C   0  0  0  0  0  0  0  0  0  0  0  0
   -0.4201    0.2819   -4.7711 C   0  0  0  0  0  0  0  0  0  0  0  0
   -1.1419    1.3453   -5.1606 C   0  0  0  0  0  0  0  0  0  0  0  0
   -2.4595    1.6550   -5.3200 C   0  0  0  0  0  0  0  0  0  0  0  0
   -3.2654    0.5517   -4.9705 C   0  0  0  0  0  0  0  0  0  0  0  0
   -2.6832   -0.6434   -4.5294 C   0  0  0  0  0  0  0  0  0  0  0  0
   -0.8431   -1.7141   -4.0951 H   0  0  0  0  0  0  0  0  0  0  0  0
    0.6971    0.2027   -4.7532 H   0  0  0  0  0  0  0  0  0  0  0  0
   -2.8549    2.6038   -5.6680 H   0  0  0  0  0  0  0  0  0  0  0  0
   -4.3473    0.6563   -5.0534 H   0  0  0  0  0  0  0  0  0  0  0  0
   -0.0512    2.9346   -5.5802 N   0  0  0  0  0  0  0  0  0  0  0  0
    0.3405    3.9592   -5.6946 N   0  0  0  0  0  0  0  0  0  0  0  0
    2.7774    0.8427   -6.1990 S   0  0  0  0  0  0  0  0  0  0  0  0
    3.2350   -0.6232   -7.3112 C   0  0  0  0  0  0  0  0  0  0  0  0
    3.9880    1.7003   -6.1717 O   0  0  0  0  0  0  0  0  0  0  0  0
    2.4222    0.1680   -4.8829 O   0  0  0  0  0  0  0  0  0  0  0  0
    1.5577    1.4190   -6.8816 O   0  0  0  0  0  0  0  0  0  0  0  0
    3.5363   -0.1997   -8.5503 F   0  0  0  0  0  0  0  0  0  0  0  0
    4.2938   -1.2821   -6.8130 F   0  0  0  0  0  0  0  0  0  0  0  0
    2.1997   -1.4873   -7.3985 F   0  0  0  0  0  0  0  0  0  0  0  0
   -3.3244   -1.4831   -4.2627 H   0  0  0  0  0  0  0  0  0  0  0  0
  1  7  1  0  0  0  0
  2  8  1  0  0  0  0
  2  1  2  0  0  0  0
  3  2  1  0  0  0  0
  4  3  2  0  0  0  0
  4  5  1  0  0  0  0
  5  6  2  0  0  0  0
  6  1  1  0  0  0  0
  6 21  1  0  0  0  0
  9  4  1  0  0  0  0
 10  5  1  0  0  0  0
 12 11  3  0  0  0  0
 13 15  2  0  0  0  0
 13 16  1  0  0  0  0
 14 19  1  0  0  0  0
 14 13  1  0  0  0  0
 17 13  2  0  0  0  0
 18 14  1  0  0  0  0
 20 14  1  0  0  0  0
M  RAD  2   3   2  16   2
M  END
