Coordinates from ORCA-job Ph-N2-OTf-B3LYPG-aug-cc-pVDZ-scan-d09-49-n400
 OpenBabel07022015323D

 21 19  0  0  0  0  0  0  0  0999 V2000
   -1.1688   -0.7924   -4.4566 C   0  0  0  0  0  0  0  0  0  0  0  0
   -0.3627    0.3420   -4.8054 C   0  0  0  0  0  0  0  0  0  0  0  0
   -1.1886    1.2870   -5.1800 C   0  0  0  0  0  0  0  0  0  0  0  0
   -2.4974    1.5699   -5.3607 C   0  0  0  0  0  0  0  0  0  0  0  0
   -3.2251    0.4055   -5.0023 C   0  0  0  0  0  0  0  0  0  0  0  0
   -2.5626   -0.7462   -4.5558 C   0  0  0  0  0  0  0  0  0  0  0  0
   -0.6458   -1.6898   -4.1235 H   0  0  0  0  0  0  0  0  0  0  0  0
    0.8181    0.2988   -4.8000 H   0  0  0  0  0  0  0  0  0  0  0  0
   -2.9453    2.4940   -5.7097 H   0  0  0  0  0  0  0  0  0  0  0  0
   -4.3123    0.4424   -5.0836 H   0  0  0  0  0  0  0  0  0  0  0  0
   -0.1160    3.4422   -5.6006 N   0  0  0  0  0  0  0  0  0  0  0  0
    0.4024    4.4034   -5.7546 N   0  0  0  0  0  0  0  0  0  0  0  0
    2.8294    0.8367   -6.1481 S   0  0  0  0  0  0  0  0  0  0  0  0
    3.0241   -0.6728   -7.2776 C   0  0  0  0  0  0  0  0  0  0  0  0
    4.1924    1.3951   -6.0043 O   0  0  0  0  0  0  0  0  0  0  0  0
    2.2924    0.1918   -4.8513 O   0  0  0  0  0  0  0  0  0  0  0  0
    1.7814    1.6625   -6.8259 O   0  0  0  0  0  0  0  0  0  0  0  0
    3.4365   -0.2898   -8.4958 F   0  0  0  0  0  0  0  0  0  0  0  0
    3.9157   -1.5383   -6.7705 F   0  0  0  0  0  0  0  0  0  0  0  0
    1.8392   -1.3098   -7.4084 F   0  0  0  0  0  0  0  0  0  0  0  0
   -3.1454   -1.6254   -4.2827 H   0  0  0  0  0  0  0  0  0  0  0  0
  1  7  1  0  0  0  0
  2  8  1  0  0  0  0
  2  1  2  0  0  0  0
  3  2  1  0  0  0  0
  4  3  2  0  0  0  0
  4  5  1  0  0  0  0
  5  6  2  0  0  0  0
  6  1  1  0  0  0  0
  6 21  1  0  0  0  0
  9  4  1  0  0  0  0
 10  5  1  0  0  0  0
 12 11  3  0  0  0  0
 13 15  2  0  0  0  0
 13 16  1  0  0  0  0
 14 19  1  0  0  0  0
 14 13  1  0  0  0  0
 17 13  2  0  0  0  0
 18 14  1  0  0  0  0
 20 14  1  0  0  0  0
M  RAD  2   3   2  16   2
M  END
