Coordinates from ORCA-job Ph-N2-OTf-B3LYPG-aug-cc-pVDZ-scan-d09-49-n400
 OpenBabel07022015323D

 21 20  0  0  0  0  0  0  0  0999 V2000
   -1.3480   -0.9566   -5.0426 C   0  0  0  0  0  0  0  0  0  0  0  0
   -0.7477   -0.0738   -5.9416 C   0  0  0  0  0  0  0  0  0  0  0  0
   -1.1972    1.2427   -5.8942 C   0  0  0  0  0  0  0  0  0  0  0  0
   -2.1559    1.7507   -5.0095 C   0  0  0  0  0  0  0  0  0  0  0  0
   -2.7126    0.8422   -4.1158 C   0  0  0  0  0  0  0  0  0  0  0  0
   -2.3129   -0.5038   -4.1393 C   0  0  0  0  0  0  0  0  0  0  0  0
   -1.0252   -1.9959   -5.0307 H   0  0  0  0  0  0  0  0  0  0  0  0
    0.0400   -0.3774   -6.6226 H   0  0  0  0  0  0  0  0  0  0  0  0
   -2.4405    2.8006   -5.0217 H   0  0  0  0  0  0  0  0  0  0  0  0
   -3.4561    1.1849   -3.3976 H   0  0  0  0  0  0  0  0  0  0  0  0
   -0.6421    2.2197   -6.8596 N   0  0  0  0  0  0  0  0  0  0  0  0
   -0.4637    3.0376   -7.5890 N   0  0  0  0  0  0  0  0  0  0  0  0
    2.5813    0.8997   -5.6166 S   0  0  0  0  0  0  0  0  0  0  0  0
    3.3158   -0.2987   -6.8911 C   0  0  0  0  0  0  0  0  0  0  0  0
    3.7525    1.6022   -5.0380 O   0  0  0  0  0  0  0  0  0  0  0  0
    1.7955   -0.0040   -4.7109 O   0  0  0  0  0  0  0  0  0  0  0  0
    1.6826    1.7628   -6.4943 O   0  0  0  0  0  0  0  0  0  0  0  0
    4.0149    0.3555   -7.8327 F   0  0  0  0  0  0  0  0  0  0  0  0
    4.1212   -1.1966   -6.3032 F   0  0  0  0  0  0  0  0  0  0  0  0
    2.3155   -0.9815   -7.5160 F   0  0  0  0  0  0  0  0  0  0  0  0
   -2.7555   -1.2035   -3.4303 H   0  0  0  0  0  0  0  0  0  0  0  0
  1  7  1  0  0  0  0
  1  6  2  0  0  0  0
  2  3  2  0  0  0  0
  2  1  1  0  0  0  0
  3  4  1  0  0  0  0
  4  5  2  0  0  0  0
  5 10  1  0  0  0  0
  6  5  1  0  0  0  0
  6 21  1  0  0  0  0
  8  2  1  0  0  0  0
  9  4  1  0  0  0  0
 11  3  1  0  0  0  0
 12 11  1  0  0  0  0
 13 15  2  0  0  0  0
 13 16  1  0  0  0  0
 14 19  1  0  0  0  0
 14 13  1  0  0  0  0
 17 13  2  0  0  0  0
 18 14  1  0  0  0  0
 20 14  1  0  0  0  0
M  RAD  3  11   2  12   3  16   2
M  END
