Coordinates from ORCA-job Ph-N2-OTf-B3LYPG-aug-cc-pVDZ-scan-d09-49-n400
 OpenBabel07022015323D

 21 20  0  0  0  0  0  0  0  0999 V2000
   -1.2648   -0.1445   -3.6062 C   0  0  0  0  0  0  0  0  0  0  0  0
   -0.0417    0.3212   -4.0967 C   0  0  0  0  0  0  0  0  0  0  0  0
    0.0567    0.6325   -5.4519 C   0  0  0  0  0  0  0  0  0  0  0  0
   -1.0267    0.5114   -6.3205 C   0  0  0  0  0  0  0  0  0  0  0  0
   -2.2465    0.0547   -5.8126 C   0  0  0  0  0  0  0  0  0  0  0  0
   -2.3654   -0.2779   -4.4593 C   0  0  0  0  0  0  0  0  0  0  0  0
   -1.3555   -0.4006   -2.5506 H   0  0  0  0  0  0  0  0  0  0  0  0
    0.8212    0.4394   -3.4450 H   0  0  0  0  0  0  0  0  0  0  0  0
   -0.9142    0.7819   -7.3692 H   0  0  0  0  0  0  0  0  0  0  0  0
   -3.1035   -0.0449   -6.4789 H   0  0  0  0  0  0  0  0  0  0  0  0
   -0.8403    4.4190   -4.6273 N   0  0  0  0  0  0  0  0  0  0  0  0
   -1.7360    4.8810   -4.1765 N   0  0  0  0  0  0  0  0  0  0  0  0
    2.6293    0.2589   -6.0938 S   0  0  0  0  0  0  0  0  0  0  0  0
    2.4065   -0.4272   -7.8571 C   0  0  0  0  0  0  0  0  0  0  0  0
    3.7379    1.2184   -6.1478 O   0  0  0  0  0  0  0  0  0  0  0  0
    2.5861   -0.8904   -5.1750 O   0  0  0  0  0  0  0  0  0  0  0  0
    1.2485    1.1881   -5.9693 O   0  0  0  0  0  0  0  0  0  0  0  0
    2.2542    0.5799   -8.7191 F   0  0  0  0  0  0  0  0  0  0  0  0
    3.4985   -1.1288   -8.1704 F   0  0  0  0  0  0  0  0  0  0  0  0
    1.3327   -1.2231   -7.9012 F   0  0  0  0  0  0  0  0  0  0  0  0
   -3.3153   -0.6422   -4.0689 H   0  0  0  0  0  0  0  0  0  0  0  0
  1  7  1  0  0  0  0
  2  1  1  0  0  0  0
  2  8  1  0  0  0  0
  3  2  2  0  0  0  0
  4  5  2  0  0  0  0
  4  3  1  0  0  0  0
  5  6  1  0  0  0  0
  6 21  1  0  0  0  0
  6  1  2  0  0  0  0
  9  4  1  0  0  0  0
 10  5  1  0  0  0  0
 11 12  3  0  0  0  0
 13 17  1  0  0  0  0
 13 16  2  0  0  0  0
 14 13  1  0  0  0  0
 15 13  2  0  0  0  0
 17  3  1  0  0  0  0
 18 14  1  0  0  0  0
 19 14  1  0  0  0  0
 20 14  1  0  0  0  0
M  END
