Coordinates from ORCA-job Ph-N2-OTf-B3LYPG-aug-cc-pVDZ-scan-d09-49-n400
 OpenBabel07022015323D

 21 21  0  0  1  0  0  0  0  0999 V2000
   -0.8958   -0.7658   -5.3288 C   0  0  0  0  0  0  0  0  0  0  0  0
   -0.3507    0.4235   -6.0214 C   0  0  1  0  0  0  0  0  0  0  0  0
   -1.1966    1.6405   -5.8268 C   0  0  0  0  0  0  0  0  0  0  0  0
   -2.1317    1.7300   -4.7213 C   0  0  0  0  0  0  0  0  0  0  0  0
   -2.4238    0.6184   -3.9981 C   0  0  0  0  0  0  0  0  0  0  0  0
   -1.8333   -0.6530   -4.3572 C   0  0  0  0  0  0  0  0  0  0  0  0
   -0.4727   -1.7324   -5.5958 H   0  0  0  0  0  0  0  0  0  0  0  0
   -0.0883    0.2599   -7.0684 H   0  0  0  0  0  0  0  0  0  0  0  0
   -2.5939    2.6940   -4.5123 H   0  0  0  0  0  0  0  0  0  0  0  0
   -3.1275    0.6730   -3.1691 H   0  0  0  0  0  0  0  0  0  0  0  0
   -1.0515    2.5882   -6.5987 N   0  0  0  0  0  0  0  0  0  0  0  0
   -0.9151    3.4664   -7.3145 N   0  0  0  0  0  0  0  0  0  0  0  0
    2.3557    1.0061   -6.2429 S   0  0  0  0  0  0  0  0  0  0  0  0
    3.1097   -0.7342   -6.3498 C   0  0  0  0  0  0  0  0  0  0  0  0
    3.2934    1.8224   -5.4577 O   0  0  0  0  0  0  0  0  0  0  0  0
    1.0532    0.6937   -5.3267 O   0  0  0  0  0  0  0  0  0  0  0  0
    1.9523    1.3641   -7.6213 O   0  0  0  0  0  0  0  0  0  0  0  0
    4.1899   -0.6935   -7.1343 F   0  0  0  0  0  0  0  0  0  0  0  0
    3.4535   -1.1651   -5.1343 F   0  0  0  0  0  0  0  0  0  0  0  0
    2.2083   -1.5801   -6.8808 F   0  0  0  0  0  0  0  0  0  0  0  0
   -2.1732   -1.5493   -3.8372 H   0  0  0  0  0  0  0  0  0  0  0  0
  1  6  2  0  0  0  0
  2  8  1  6  0  0  0
  2  3  1  0  0  0  0
  2  1  1  0  0  0  0
  2 16  1  0  0  0  0
  3  4  2  0  0  0  0
  4  9  1  0  0  0  0
  4  5  1  0  0  0  0
  5 10  1  0  0  0  0
  6  5  1  0  0  0  0
  6 21  1  0  0  0  0
  7  1  1  0  0  0  0
 11  3  1  0  0  0  0
 12 11  1  0  0  0  0
 13 15  2  0  0  0  0
 13 16  1  0  0  0  0
 14 13  1  0  0  0  0
 14 19  1  0  0  0  0
 17 13  2  0  0  0  0
 18 14  1  0  0  0  0
 20 14  1  0  0  0  0
M  RAD  3   5   2  11   2  12   3
M  END
