Coordinates from ORCA-job Ph-N2-OTf-B3LYPG-aug-cc-pVDZ-scan-d09-49-n400
 OpenBabel07022015323D

 21 21  0  0  1  0  0  0  0  0999 V2000
   -0.8553   -0.7046   -5.4747 C   0  0  0  0  0  0  0  0  0  0  0  0
   -0.3394    0.5453   -6.0955 C   0  0  1  0  0  0  0  0  0  0  0  0
   -1.2138    1.7900   -5.8197 C   0  0  0  0  0  0  0  0  0  0  0  0
   -2.1036    1.7263   -4.6311 C   0  0  0  0  0  0  0  0  0  0  0  0
   -2.3530    0.5579   -4.0042 C   0  0  0  0  0  0  0  0  0  0  0  0
   -1.7686   -0.6832   -4.4828 C   0  0  0  0  0  0  0  0  0  0  0  0
   -0.4273   -1.6402   -5.8313 H   0  0  0  0  0  0  0  0  0  0  0  0
   -0.1686    0.4585   -7.1735 H   0  0  0  0  0  0  0  0  0  0  0  0
   -2.5516    2.6688   -4.3164 H   0  0  0  0  0  0  0  0  0  0  0  0
   -3.0176    0.5366   -3.1410 H   0  0  0  0  0  0  0  0  0  0  0  0
   -1.1360    2.6028   -6.4145 N   0  0  0  0  0  0  0  0  0  0  0  0
   -1.0410    3.5397   -7.1026 N   0  0  0  0  0  0  0  0  0  0  0  0
    2.3496    0.9445   -6.4348 S   0  0  0  0  0  0  0  0  0  0  0  0
    3.0793   -0.7868   -6.1449 C   0  0  0  0  0  0  0  0  0  0  0  0
    3.2676    1.8998   -5.8027 O   0  0  0  0  0  0  0  0  0  0  0  0
    1.0146    0.8403   -5.4811 O   0  0  0  0  0  0  0  0  0  0  0  0
    1.9687    1.0071   -7.8600 O   0  0  0  0  0  0  0  0  0  0  0  0
    4.2137   -0.8897   -6.8404 F   0  0  0  0  0  0  0  0  0  0  0  0
    3.3263   -0.9714   -4.8476 F   0  0  0  0  0  0  0  0  0  0  0  0
    2.2089   -1.7155   -6.5714 F   0  0  0  0  0  0  0  0  0  0  0  0
   -2.0912   -1.6196   -4.0271 H   0  0  0  0  0  0  0  0  0  0  0  0
  1  6  2  0  0  0  0
  2  8  1  6  0  0  0
  2  3  1  0  0  0  0
  2 16  1  0  0  0  0
  2  1  1  0  0  0  0
  3  4  2  0  0  0  0
  4  9  1  0  0  0  0
  4  5  1  0  0  0  0
  5 10  1  0  0  0  0
  6 21  1  0  0  0  0
  6  5  1  0  0  0  0
  7  1  1  0  0  0  0
 11  3  1  0  0  0  0
 12 11  1  0  0  0  0
 13 14  1  0  0  0  0
 13 15  2  0  0  0  0
 13 16  1  0  0  0  0
 14 19  1  0  0  0  0
 17 13  2  0  0  0  0
 18 14  1  0  0  0  0
 20 14  1  0  0  0  0
M  RAD  3   5   2  11   2  12   3
M  END
