Coordinates from ORCA-job Ph-N2-OTf-B3LYPG-aug-cc-pVDZ-scan-d09-49-n400
 OpenBabel07022015323D

 21 21  0  0  1  0  0  0  0  0999 V2000
   -0.8542   -0.7042   -5.4727 C   0  0  0  0  0  0  0  0  0  0  0  0
   -0.3451    0.5463   -6.0965 C   0  0  1  0  0  0  0  0  0  0  0  0
   -1.2198    1.7727   -5.8142 C   0  0  0  0  0  0  0  0  0  0  0  0
   -2.1079    1.7229   -4.6349 C   0  0  0  0  0  0  0  0  0  0  0  0
   -2.3524    0.5560   -3.9993 C   0  0  0  0  0  0  0  0  0  0  0  0
   -1.7633   -0.6827   -4.4754 C   0  0  0  0  0  0  0  0  0  0  0  0
   -0.4246   -1.6393   -5.8280 H   0  0  0  0  0  0  0  0  0  0  0  0
   -0.1627    0.4564   -7.1717 H   0  0  0  0  0  0  0  0  0  0  0  0
   -2.5631    2.6631   -4.3244 H   0  0  0  0  0  0  0  0  0  0  0  0
   -3.0164    0.5355   -3.1359 H   0  0  0  0  0  0  0  0  0  0  0  0
   -1.1410    2.6269   -6.4376 N   0  0  0  0  0  0  0  0  0  0  0  0
   -1.0494    3.5590   -7.1211 N   0  0  0  0  0  0  0  0  0  0  0  0
    2.3526    0.9448   -6.4248 S   0  0  0  0  0  0  0  0  0  0  0  0
    3.0771   -0.7907   -6.1490 C   0  0  0  0  0  0  0  0  0  0  0  0
    3.2779    1.8917   -5.7896 O   0  0  0  0  0  0  0  0  0  0  0  0
    1.0197    0.8425   -5.4753 O   0  0  0  0  0  0  0  0  0  0  0  0
    1.9742    1.0189   -7.8508 O   0  0  0  0  0  0  0  0  0  0  0  0
    4.2109   -0.8929   -6.8459 F   0  0  0  0  0  0  0  0  0  0  0  0
    3.3246   -0.9865   -4.8531 F   0  0  0  0  0  0  0  0  0  0  0  0
    2.2036   -1.7142   -6.5817 F   0  0  0  0  0  0  0  0  0  0  0  0
   -2.0792   -1.6193   -4.0155 H   0  0  0  0  0  0  0  0  0  0  0  0
  1  6  2  0  0  0  0
  2  8  1  6  0  0  0
  2  3  1  0  0  0  0
  2 16  1  0  0  0  0
  2  1  1  0  0  0  0
  3  4  2  0  0  0  0
  4  9  1  0  0  0  0
  4  5  1  0  0  0  0
  5 10  1  0  0  0  0
  6 21  1  0  0  0  0
  6  5  1  0  0  0  0
  7  1  1  0  0  0  0
 11  3  1  0  0  0  0
 12 11  1  0  0  0  0
 13 14  1  0  0  0  0
 13 15  2  0  0  0  0
 13 16  1  0  0  0  0
 14 19  1  0  0  0  0
 17 13  2  0  0  0  0
 18 14  1  0  0  0  0
 20 14  1  0  0  0  0
M  RAD  3   5   2  11   2  12   3
M  END
