Coordinates from ORCA-job Ph-N2-OTf-B3LYPG-aug-cc-pVDZ-scan-d09-49-n400
 OpenBabel07022015323D

 21 20  0  0  0  0  0  0  0  0999 V2000
   -1.3349   -0.9496   -5.0789 C   0  0  0  0  0  0  0  0  0  0  0  0
   -0.7659   -0.0645   -5.9930 C   0  0  0  0  0  0  0  0  0  0  0  0
   -1.2034    1.2640   -5.9374 C   0  0  0  0  0  0  0  0  0  0  0  0
   -2.1315    1.7589   -5.0018 C   0  0  0  0  0  0  0  0  0  0  0  0
   -2.6548    0.8515   -4.0920 C   0  0  0  0  0  0  0  0  0  0  0  0
   -2.2622   -0.4974   -4.1376 C   0  0  0  0  0  0  0  0  0  0  0  0
   -1.0136   -1.9893   -5.0818 H   0  0  0  0  0  0  0  0  0  0  0  0
   -0.0070   -0.3702   -6.7056 H   0  0  0  0  0  0  0  0  0  0  0  0
   -2.4145    2.8096   -4.9978 H   0  0  0  0  0  0  0  0  0  0  0  0
   -3.3674    1.1929   -3.3425 H   0  0  0  0  0  0  0  0  0  0  0  0
   -0.7090    2.1928   -6.8779 N   0  0  0  0  0  0  0  0  0  0  0  0
   -0.4950    2.9914   -7.6218 N   0  0  0  0  0  0  0  0  0  0  0  0
    2.5395    0.8980   -5.6052 S   0  0  0  0  0  0  0  0  0  0  0  0
    3.3105   -0.3000   -6.8582 C   0  0  0  0  0  0  0  0  0  0  0  0
    3.6949    1.5858   -4.9784 O   0  0  0  0  0  0  0  0  0  0  0  0
    1.7191   -0.0089   -4.7300 O   0  0  0  0  0  0  0  0  0  0  0  0
    1.6727    1.7670   -6.5028 O   0  0  0  0  0  0  0  0  0  0  0  0
    4.0429    0.3539   -7.7743 F   0  0  0  0  0  0  0  0  0  0  0  0
    4.0925   -1.2034   -6.2472 F   0  0  0  0  0  0  0  0  0  0  0  0
    2.3287   -0.9772   -7.5178 F   0  0  0  0  0  0  0  0  0  0  0  0
   -2.6801   -1.1986   -3.4152 H   0  0  0  0  0  0  0  0  0  0  0  0
  1  6  2  0  0  0  0
  2  3  2  0  0  0  0
  2  1  1  0  0  0  0
  3  4  1  0  0  0  0
  4  9  1  0  0  0  0
  4  5  2  0  0  0  0
  5 10  1  0  0  0  0
  6  5  1  0  0  0  0
  6 21  1  0  0  0  0
  7  1  1  0  0  0  0
  8  2  1  0  0  0  0
 11  3  1  0  0  0  0
 12 11  1  0  0  0  0
 13 15  2  0  0  0  0
 13 16  1  0  0  0  0
 14 19  1  0  0  0  0
 14 13  1  0  0  0  0
 17 13  2  0  0  0  0
 18 14  1  0  0  0  0
 20 14  1  0  0  0  0
M  RAD  3  11   2  12   3  16   2
M  END
