Coordinates from ORCA-job Ph-N2-OTf-B3LYPG-aug-cc-pVDZ-scan-d09-49-n400
 OpenBabel07022015323D

 21 19  0  0  0  0  0  0  0  0999 V2000
   -1.2112   -0.7729   -4.4640 C   0  0  0  0  0  0  0  0  0  0  0  0
   -0.3750    0.3388   -4.7678 C   0  0  0  0  0  0  0  0  0  0  0  0
   -1.1525    1.3502   -5.1493 C   0  0  0  0  0  0  0  0  0  0  0  0
   -2.4684    1.6260   -5.3380 C   0  0  0  0  0  0  0  0  0  0  0  0
   -3.2296    0.4776   -5.0226 C   0  0  0  0  0  0  0  0  0  0  0  0
   -2.6018   -0.6970   -4.5886 C   0  0  0  0  0  0  0  0  0  0  0  0
   -0.7197   -1.6903   -4.1391 H   0  0  0  0  0  0  0  0  0  0  0  0
    0.7585    0.2964   -4.7383 H   0  0  0  0  0  0  0  0  0  0  0  0
   -2.8950    2.5635   -5.6788 H   0  0  0  0  0  0  0  0  0  0  0  0
   -4.3133    0.5371   -5.1268 H   0  0  0  0  0  0  0  0  0  0  0  0
   -0.0803    3.1089   -5.5207 N   0  0  0  0  0  0  0  0  0  0  0  0
    0.3710    4.1081   -5.6349 N   0  0  0  0  0  0  0  0  0  0  0  0
    2.7978    0.8688   -6.1977 S   0  0  0  0  0  0  0  0  0  0  0  0
    3.0926   -0.6694   -7.2657 C   0  0  0  0  0  0  0  0  0  0  0  0
    4.0918    1.5925   -6.1977 O   0  0  0  0  0  0  0  0  0  0  0  0
    2.4012    0.2618   -4.8526 O   0  0  0  0  0  0  0  0  0  0  0  0
    1.6309    1.5393   -6.8727 O   0  0  0  0  0  0  0  0  0  0  0  0
    3.4027   -0.3171   -8.5243 F   0  0  0  0  0  0  0  0  0  0  0  0
    4.0940   -1.4128   -6.7680 F   0  0  0  0  0  0  0  0  0  0  0  0
    1.9764   -1.4334   -7.3022 F   0  0  0  0  0  0  0  0  0  0  0  0
   -3.2084   -1.5693   -4.3475 H   0  0  0  0  0  0  0  0  0  0  0  0
  1  7  1  0  0  0  0
  2  8  1  0  0  0  0
  2  1  2  0  0  0  0
  3  2  1  0  0  0  0
  4  3  2  0  0  0  0
  4  5  1  0  0  0  0
  5  6  2  0  0  0  0
  6  1  1  0  0  0  0
  6 21  1  0  0  0  0
  9  4  1  0  0  0  0
 10  5  1  0  0  0  0
 12 11  3  0  0  0  0
 13 15  2  0  0  0  0
 13 16  1  0  0  0  0
 14 19  1  0  0  0  0
 14 13  1  0  0  0  0
 17 13  2  0  0  0  0
 18 14  1  0  0  0  0
 20 14  1  0  0  0  0
M  RAD  2   3   2  16   2
M  END
