Coordinates from ORCA-job Ph-N2-OTf-B3LYPG-aug-cc-pVDZ-scan-d09-49-n400
 OpenBabel07022015323D

 21 20  0  0  0  0  0  0  0  0999 V2000
   -1.3359   -0.9503   -5.0771 C   0  0  0  0  0  0  0  0  0  0  0  0
   -0.7664   -0.0655   -5.9916 C   0  0  0  0  0  0  0  0  0  0  0  0
   -1.2050    1.2613   -5.9344 C   0  0  0  0  0  0  0  0  0  0  0  0
   -2.1331    1.7584   -5.0018 C   0  0  0  0  0  0  0  0  0  0  0  0
   -2.6573    0.8507   -4.0921 C   0  0  0  0  0  0  0  0  0  0  0  0
   -2.2642   -0.4979   -4.1368 C   0  0  0  0  0  0  0  0  0  0  0  0
   -1.0144   -1.9900   -5.0795 H   0  0  0  0  0  0  0  0  0  0  0  0
   -0.0068   -0.3709   -6.7034 H   0  0  0  0  0  0  0  0  0  0  0  0
   -2.4159    2.8092   -4.9985 H   0  0  0  0  0  0  0  0  0  0  0  0
   -3.3707    1.1922   -3.3435 H   0  0  0  0  0  0  0  0  0  0  0  0
   -0.7049    2.1967   -6.8805 N   0  0  0  0  0  0  0  0  0  0  0  0
   -0.4902    2.9953   -7.6236 N   0  0  0  0  0  0  0  0  0  0  0  0
    2.5411    0.8978   -5.6052 S   0  0  0  0  0  0  0  0  0  0  0  0
    3.3109   -0.2997   -6.8595 C   0  0  0  0  0  0  0  0  0  0  0  0
    3.6969    1.5864   -4.9802 O   0  0  0  0  0  0  0  0  0  0  0  0
    1.7223   -0.0094   -4.7292 O   0  0  0  0  0  0  0  0  0  0  0  0
    1.6730    1.7667   -6.5021 O   0  0  0  0  0  0  0  0  0  0  0  0
    4.0416    0.3547   -7.7767 F   0  0  0  0  0  0  0  0  0  0  0  0
    4.0945   -1.2026   -6.2496 F   0  0  0  0  0  0  0  0  0  0  0  0
    2.3286   -0.9774   -7.5176 F   0  0  0  0  0  0  0  0  0  0  0  0
   -2.6825   -1.1989   -3.4145 H   0  0  0  0  0  0  0  0  0  0  0  0
  1  6  2  0  0  0  0
  2  3  2  0  0  0  0
  2  1  1  0  0  0  0
  3  4  1  0  0  0  0
  4  9  1  0  0  0  0
  4  5  2  0  0  0  0
  5 10  1  0  0  0  0
  6  5  1  0  0  0  0
  6 21  1  0  0  0  0
  7  1  1  0  0  0  0
  8  2  1  0  0  0  0
 11  3  1  0  0  0  0
 12 11  1  0  0  0  0
 13 15  2  0  0  0  0
 13 16  1  0  0  0  0
 14 19  1  0  0  0  0
 14 13  1  0  0  0  0
 17 13  2  0  0  0  0
 18 14  1  0  0  0  0
 20 14  1  0  0  0  0
M  RAD  3  11   2  12   3  16   2
M  END
