Coordinates from ORCA-job Ph-N2-OTf-B3LYPG-aug-cc-pVDZ-scan-d09-49-n400
 OpenBabel07022015323D

 21 20  0  0  0  0  0  0  0  0999 V2000
   -1.2328   -0.1689   -3.6297 C   0  0  0  0  0  0  0  0  0  0  0  0
   -0.0052    0.2805   -4.1240 C   0  0  0  0  0  0  0  0  0  0  0  0
    0.0966    0.5783   -5.4820 C   0  0  0  0  0  0  0  0  0  0  0  0
   -0.9877    0.4603   -6.3498 C   0  0  0  0  0  0  0  0  0  0  0  0
   -2.2119    0.0199   -5.8382 C   0  0  0  0  0  0  0  0  0  0  0  0
   -2.3343   -0.2995   -4.4821 C   0  0  0  0  0  0  0  0  0  0  0  0
   -1.3263   -0.4143   -2.5718 H   0  0  0  0  0  0  0  0  0  0  0  0
    0.8587    0.3966   -3.4731 H   0  0  0  0  0  0  0  0  0  0  0  0
   -0.8725    0.7206   -7.4007 H   0  0  0  0  0  0  0  0  0  0  0  0
   -3.0698   -0.0771   -6.5038 H   0  0  0  0  0  0  0  0  0  0  0  0
   -1.1359    5.0317   -4.3837 N   0  0  0  0  0  0  0  0  0  0  0  0
   -2.0748    5.3776   -3.9166 N   0  0  0  0  0  0  0  0  0  0  0  0
    2.6646    0.1716   -6.1230 S   0  0  0  0  0  0  0  0  0  0  0  0
    2.4336   -0.5219   -7.8825 C   0  0  0  0  0  0  0  0  0  0  0  0
    3.7839    1.1183   -6.1826 O   0  0  0  0  0  0  0  0  0  0  0  0
    2.6081   -0.9716   -5.1974 O   0  0  0  0  0  0  0  0  0  0  0  0
    1.2942    1.1174   -6.0037 O   0  0  0  0  0  0  0  0  0  0  0  0
    2.2887    0.4822   -8.7493 F   0  0  0  0  0  0  0  0  0  0  0  0
    3.5191   -1.2344   -8.1936 F   0  0  0  0  0  0  0  0  0  0  0  0
    1.3530   -1.3088   -7.9210 F   0  0  0  0  0  0  0  0  0  0  0  0
   -3.2876   -0.6516   -4.0888 H   0  0  0  0  0  0  0  0  0  0  0  0
  1  7  1  0  0  0  0
  2  1  1  0  0  0  0
  2  8  1  0  0  0  0
  3  2  2  0  0  0  0
  4  5  2  0  0  0  0
  4  3  1  0  0  0  0
  5  6  1  0  0  0  0
  6 21  1  0  0  0  0
  6  1  2  0  0  0  0
  9  4  1  0  0  0  0
 10  5  1  0  0  0  0
 11 12  3  0  0  0  0
 13 17  1  0  0  0  0
 13 16  2  0  0  0  0
 14 13  1  0  0  0  0
 15 13  2  0  0  0  0
 17  3  1  0  0  0  0
 18 14  1  0  0  0  0
 19 14  1  0  0  0  0
 20 14  1  0  0  0  0
M  END
