Coordinates from ORCA-job Ph-N2-OTf-B3LYPG-aug-cc-pVDZ-scan-d09-49-n400
 OpenBabel07022015323D

 21 20  0  0  0  0  0  0  0  0999 V2000
   -1.3133   -0.7788   -4.4122 C   0  0  0  0  0  0  0  0  0  0  0  0
   -0.4292    0.2689   -4.7631 C   0  0  0  0  0  0  0  0  0  0  0  0
   -1.1291    1.3482   -5.1684 C   0  0  0  0  0  0  0  0  0  0  0  0
   -2.4498    1.6585   -5.3282 C   0  0  0  0  0  0  0  0  0  0  0  0
   -3.2682    0.5698   -4.9692 C   0  0  0  0  0  0  0  0  0  0  0  0
   -2.6999   -0.6273   -4.5151 C   0  0  0  0  0  0  0  0  0  0  0  0
   -0.8744   -1.7140   -4.0652 H   0  0  0  0  0  0  0  0  0  0  0  0
    0.6817    0.1817   -4.7393 H   0  0  0  0  0  0  0  0  0  0  0  0
   -2.8368    2.6071   -5.6863 H   0  0  0  0  0  0  0  0  0  0  0  0
   -4.3488    0.6836   -5.0547 H   0  0  0  0  0  0  0  0  0  0  0  0
   -0.0493    2.8681   -5.5950 N   0  0  0  0  0  0  0  0  0  0  0  0
    0.3212    3.9011   -5.7089 N   0  0  0  0  0  0  0  0  0  0  0  0
    2.7807    0.8358   -6.1891 S   0  0  0  0  0  0  0  0  0  0  0  0
    3.2562   -0.6045   -7.3270 C   0  0  0  0  0  0  0  0  0  0  0  0
    3.9724    1.7202   -6.1647 O   0  0  0  0  0  0  0  0  0  0  0  0
    2.4462    0.1410   -4.8817 O   0  0  0  0  0  0  0  0  0  0  0  0
    1.5447    1.3981   -6.8608 O   0  0  0  0  0  0  0  0  0  0  0  0
    3.5431   -0.1571   -8.5612 F   0  0  0  0  0  0  0  0  0  0  0  0
    4.3293   -1.2516   -6.8443 F   0  0  0  0  0  0  0  0  0  0  0  0
    2.2360   -1.4851   -7.4219 F   0  0  0  0  0  0  0  0  0  0  0  0
   -3.3511   -1.4570   -4.2411 H   0  0  0  0  0  0  0  0  0  0  0  0
  1  7  1  0  0  0  0
  2  8  1  0  0  0  0
  2  1  2  0  0  0  0
  3  2  1  0  0  0  0
  4  3  2  0  0  0  0
  4  5  1  0  0  0  0
  5  6  2  0  0  0  0
  6  1  1  0  0  0  0
  6 21  1  0  0  0  0
  9  4  1  0  0  0  0
 10  5  1  0  0  0  0
 11  3  1  0  0  0  0
 12 11  1  0  0  0  0
 13 15  2  0  0  0  0
 13 16  1  0  0  0  0
 14 19  1  0  0  0  0
 14 13  1  0  0  0  0
 17 13  2  0  0  0  0
 18 14  1  0  0  0  0
 20 14  1  0  0  0  0
M  RAD  3  11   2  12   3  16   2
M  END
