Coordinates from ORCA-job Ph-N2-OTf-B3LYPG-aug-cc-pVDZ-scan-d09-49-n400
 OpenBabel07022015323D

 21 21  0  0  1  0  0  0  0  0999 V2000
   -0.8556   -0.7106   -5.4637 C   0  0  0  0  0  0  0  0  0  0  0  0
   -0.3258    0.5329   -6.0867 C   0  0  1  0  0  0  0  0  0  0  0  0
   -1.2007    1.8242   -5.8302 C   0  0  0  0  0  0  0  0  0  0  0  0
   -2.1055    1.7323   -4.6296 C   0  0  0  0  0  0  0  0  0  0  0  0
   -2.3675    0.5627   -4.0183 C   0  0  0  0  0  0  0  0  0  0  0  0
   -1.7845   -0.6843   -4.4893 C   0  0  0  0  0  0  0  0  0  0  0  0
   -0.4255   -1.6492   -5.8116 H   0  0  0  0  0  0  0  0  0  0  0  0
   -0.1803    0.4524   -7.1698 H   0  0  0  0  0  0  0  0  0  0  0  0
   -2.5432    2.6804   -4.3169 H   0  0  0  0  0  0  0  0  0  0  0  0
   -3.0423    0.5415   -3.1623 H   0  0  0  0  0  0  0  0  0  0  0  0
   -1.1120    2.5555   -6.3644 N   0  0  0  0  0  0  0  0  0  0  0  0
   -0.9926    3.5059   -7.0590 N   0  0  0  0  0  0  0  0  0  0  0  0
    2.3438    0.9478   -6.4540 S   0  0  0  0  0  0  0  0  0  0  0  0
    3.0867   -0.7760   -6.1497 C   0  0  0  0  0  0  0  0  0  0  0  0
    3.2482    1.9170   -5.8258 O   0  0  0  0  0  0  0  0  0  0  0  0
    1.0078    0.8315   -5.4880 O   0  0  0  0  0  0  0  0  0  0  0  0
    1.9524    0.9954   -7.8755 O   0  0  0  0  0  0  0  0  0  0  0  0
    4.2186   -0.8763   -6.8487 F   0  0  0  0  0  0  0  0  0  0  0  0
    3.3392   -0.9453   -4.8519 F   0  0  0  0  0  0  0  0  0  0  0  0
    2.2205   -1.7133   -6.5644 F   0  0  0  0  0  0  0  0  0  0  0  0
   -2.1202   -1.6177   -4.0374 H   0  0  0  0  0  0  0  0  0  0  0  0
  1  6  1  0  0  0  0
  2  8  1  6  0  0  0
  2  3  1  0  0  0  0
  2 16  1  0  0  0  0
  2  1  1  0  0  0  0
  3  4  2  0  0  0  0
  4  9  1  0  0  0  0
  4  5  1  0  0  0  0
  5 10  1  0  0  0  0
  6 21  1  0  0  0  0
  6  5  2  0  0  0  0
  7  1  1  0  0  0  0
 11  3  1  0  0  0  0
 12 11  1  0  0  0  0
 13 14  1  0  0  0  0
 13 15  2  0  0  0  0
 13 16  1  0  0  0  0
 14 19  1  0  0  0  0
 17 13  2  0  0  0  0
 18 14  1  0  0  0  0
 20 14  1  0  0  0  0
M  RAD  3   1   2  11   2  12   3
M  END
