Coordinates from ORCA-job Ph-N2-OTf-B3LYPG-aug-cc-pVDZ-scan-d09-49-n400
 OpenBabel07022015323D

 21 19  0  0  0  0  0  0  0  0999 V2000
   -1.1665   -0.8002   -4.4369 C   0  0  0  0  0  0  0  0  0  0  0  0
   -0.3581    0.3281   -4.8041 C   0  0  0  0  0  0  0  0  0  0  0  0
   -1.1817    1.2646   -5.1945 C   0  0  0  0  0  0  0  0  0  0  0  0
   -2.4875    1.5522   -5.3849 C   0  0  0  0  0  0  0  0  0  0  0  0
   -3.2184    0.3948   -5.0082 C   0  0  0  0  0  0  0  0  0  0  0  0
   -2.5600   -0.7512   -4.5405 C   0  0  0  0  0  0  0  0  0  0  0  0
   -0.6468   -1.6935   -4.0880 H   0  0  0  0  0  0  0  0  0  0  0  0
    0.8329    0.2795   -4.8000 H   0  0  0  0  0  0  0  0  0  0  0  0
   -2.9318    2.4723   -5.7488 H   0  0  0  0  0  0  0  0  0  0  0  0
   -4.3055    0.4331   -5.0916 H   0  0  0  0  0  0  0  0  0  0  0  0
   -0.1213    3.5043   -5.6183 N   0  0  0  0  0  0  0  0  0  0  0  0
    0.4117    4.4588   -5.7643 N   0  0  0  0  0  0  0  0  0  0  0  0
    2.8292    0.8305   -6.1348 S   0  0  0  0  0  0  0  0  0  0  0  0
    3.0080   -0.6633   -7.2875 C   0  0  0  0  0  0  0  0  0  0  0  0
    4.1986    1.3667   -5.9737 O   0  0  0  0  0  0  0  0  0  0  0  0
    2.2808    0.1685   -4.8480 O   0  0  0  0  0  0  0  0  0  0  0  0
    1.7930    1.6806   -6.7980 O   0  0  0  0  0  0  0  0  0  0  0  0
    3.4282   -0.2652   -8.4979 F   0  0  0  0  0  0  0  0  0  0  0  0
    3.8875   -1.5472   -6.7918 F   0  0  0  0  0  0  0  0  0  0  0  0
    1.8156   -1.2827   -7.4310 F   0  0  0  0  0  0  0  0  0  0  0  0
   -3.1462   -1.6240   -4.2543 H   0  0  0  0  0  0  0  0  0  0  0  0
  1  7  1  0  0  0  0
  2  8  1  0  0  0  0
  2  1  2  0  0  0  0
  3  2  1  0  0  0  0
  4  3  2  0  0  0  0
  4  5  1  0  0  0  0
  5  6  2  0  0  0  0
  6  1  1  0  0  0  0
  6 21  1  0  0  0  0
  9  4  1  0  0  0  0
 10  5  1  0  0  0  0
 12 11  3  0  0  0  0
 13 15  2  0  0  0  0
 13 16  1  0  0  0  0
 14 19  1  0  0  0  0
 14 13  1  0  0  0  0
 17 13  2  0  0  0  0
 18 14  1  0  0  0  0
 20 14  1  0  0  0  0
M  RAD  2   3   2  16   2
M  END
