Coordinates from ORCA-job Ph-N2-OTf-B3LYPG-aug-cc-pVDZ-scan-d09-49-n400
 OpenBabel07022015323D

 21 20  0  0  0  0  0  0  0  0999 V2000
   -1.2704   -0.1378   -3.6021 C   0  0  0  0  0  0  0  0  0  0  0  0
   -0.0480    0.3302   -4.0921 C   0  0  0  0  0  0  0  0  0  0  0  0
    0.0500    0.6431   -5.4469 C   0  0  0  0  0  0  0  0  0  0  0  0
   -1.0330    0.5208   -6.3158 C   0  0  0  0  0  0  0  0  0  0  0  0
   -2.2521    0.0618   -5.8084 C   0  0  0  0  0  0  0  0  0  0  0  0
   -2.3707   -0.2721   -4.4554 C   0  0  0  0  0  0  0  0  0  0  0  0
   -1.3608   -0.3951   -2.5468 H   0  0  0  0  0  0  0  0  0  0  0  0
    0.8147    0.4489   -3.4402 H   0  0  0  0  0  0  0  0  0  0  0  0
   -0.9209    0.7924   -7.3642 H   0  0  0  0  0  0  0  0  0  0  0  0
   -3.1088   -0.0387   -6.4749 H   0  0  0  0  0  0  0  0  0  0  0  0
   -0.7896    4.3057   -4.6684 N   0  0  0  0  0  0  0  0  0  0  0  0
   -1.6778    4.7848   -4.2207 N   0  0  0  0  0  0  0  0  0  0  0  0
    2.6231    0.2742   -6.0888 S   0  0  0  0  0  0  0  0  0  0  0  0
    2.4016   -0.4110   -7.8527 C   0  0  0  0  0  0  0  0  0  0  0  0
    3.7303    1.2354   -6.1420 O   0  0  0  0  0  0  0  0  0  0  0  0
    2.5818   -0.8760   -5.1710 O   0  0  0  0  0  0  0  0  0  0  0  0
    1.2409    1.2011   -5.9636 O   0  0  0  0  0  0  0  0  0  0  0  0
    2.2481    0.5966   -8.7140 F   0  0  0  0  0  0  0  0  0  0  0  0
    3.4945   -1.1108   -8.1663 F   0  0  0  0  0  0  0  0  0  0  0  0
    1.3288   -1.2083   -7.8976 F   0  0  0  0  0  0  0  0  0  0  0  0
   -3.3201   -0.6382   -4.0655 H   0  0  0  0  0  0  0  0  0  0  0  0
  1  7  1  0  0  0  0
  2  1  1  0  0  0  0
  2  8  1  0  0  0  0
  3  2  2  0  0  0  0
  4  5  2  0  0  0  0
  4  3  1  0  0  0  0
  5  6  1  0  0  0  0
  6 21  1  0  0  0  0
  6  1  2  0  0  0  0
  9  4  1  0  0  0  0
 10  5  1  0  0  0  0
 11 12  3  0  0  0  0
 13 17  1  0  0  0  0
 13 16  2  0  0  0  0
 14 13  1  0  0  0  0
 15 13  2  0  0  0  0
 17  3  1  0  0  0  0
 18 14  1  0  0  0  0
 19 14  1  0  0  0  0
 20 14  1  0  0  0  0
M  END
