Coordinates from ORCA-job Ph-N2-OTf-B3LYPG-aug-cc-pVDZ-scan-d09-49-n400
 OpenBabel07022015323D

 21 20  0  0  0  0  0  0  0  0999 V2000
   -1.2344   -0.1678   -3.6285 C   0  0  0  0  0  0  0  0  0  0  0  0
   -0.0070    0.2825   -4.1226 C   0  0  0  0  0  0  0  0  0  0  0  0
    0.0946    0.5811   -5.4804 C   0  0  0  0  0  0  0  0  0  0  0  0
   -0.9897    0.4631   -6.3483 C   0  0  0  0  0  0  0  0  0  0  0  0
   -2.2137    0.0218   -5.8369 C   0  0  0  0  0  0  0  0  0  0  0  0
   -2.3358   -0.2985   -4.4809 C   0  0  0  0  0  0  0  0  0  0  0  0
   -1.3277   -0.4139   -2.5708 H   0  0  0  0  0  0  0  0  0  0  0  0
    0.8568    0.3987   -3.4716 H   0  0  0  0  0  0  0  0  0  0  0  0
   -0.8746    0.7240   -7.3990 H   0  0  0  0  0  0  0  0  0  0  0  0
   -3.0715   -0.0753   -6.5025 H   0  0  0  0  0  0  0  0  0  0  0  0
   -1.1208    5.0001   -4.3964 N   0  0  0  0  0  0  0  0  0  0  0  0
   -2.0575    5.3526   -3.9300 N   0  0  0  0  0  0  0  0  0  0  0  0
    2.6628    0.1761   -6.1215 S   0  0  0  0  0  0  0  0  0  0  0  0
    2.4321   -0.5171   -7.8811 C   0  0  0  0  0  0  0  0  0  0  0  0
    3.7816    1.1234   -6.1809 O   0  0  0  0  0  0  0  0  0  0  0  0
    2.6071   -0.9674   -5.1962 O   0  0  0  0  0  0  0  0  0  0  0  0
    1.2919    1.1211   -6.0019 O   0  0  0  0  0  0  0  0  0  0  0  0
    2.2868    0.4871   -8.7477 F   0  0  0  0  0  0  0  0  0  0  0  0
    3.5179   -1.2290   -8.1924 F   0  0  0  0  0  0  0  0  0  0  0  0
    1.3519   -1.3044   -7.9199 F   0  0  0  0  0  0  0  0  0  0  0  0
   -3.2890   -0.6513   -4.0879 H   0  0  0  0  0  0  0  0  0  0  0  0
  1  7  1  0  0  0  0
  2  1  1  0  0  0  0
  2  8  1  0  0  0  0
  3  2  2  0  0  0  0
  4  5  2  0  0  0  0
  4  3  1  0  0  0  0
  5  6  1  0  0  0  0
  6 21  1  0  0  0  0
  6  1  2  0  0  0  0
  9  4  1  0  0  0  0
 10  5  1  0  0  0  0
 11 12  3  0  0  0  0
 13 17  1  0  0  0  0
 13 16  2  0  0  0  0
 14 13  1  0  0  0  0
 15 13  2  0  0  0  0
 17  3  1  0  0  0  0
 18 14  1  0  0  0  0
 19 14  1  0  0  0  0
 20 14  1  0  0  0  0
M  END
