Coordinates from ORCA-job Ph-N2-OTf-B3LYPG-aug-cc-pVDZ-scan-d09-49-n400
 OpenBabel07022015323D

 21 20  0  0  0  0  0  0  0  0999 V2000
   -1.2943   -0.0573   -3.5814 C   0  0  0  0  0  0  0  0  0  0  0  0
   -0.0757    0.4241   -4.0666 C   0  0  0  0  0  0  0  0  0  0  0  0
    0.0180    0.7622   -5.4156 C   0  0  0  0  0  0  0  0  0  0  0  0
   -1.0591    0.6228   -6.2889 C   0  0  0  0  0  0  0  0  0  0  0  0
   -2.2749    0.1503   -5.7871 C   0  0  0  0  0  0  0  0  0  0  0  0
   -2.3938   -0.1914   -4.4360 C   0  0  0  0  0  0  0  0  0  0  0  0
   -1.3825   -0.3271   -2.5291 H   0  0  0  0  0  0  0  0  0  0  0  0
    0.7858    0.5435   -3.4133 H   0  0  0  0  0  0  0  0  0  0  0  0
   -0.9467    0.8985   -7.3362 H   0  0  0  0  0  0  0  0  0  0  0  0
   -3.1285    0.0432   -6.4566 H   0  0  0  0  0  0  0  0  0  0  0  0
   -0.5097    3.3991   -4.9195 N   0  0  0  0  0  0  0  0  0  0  0  0
   -1.3690    3.9439   -4.4892 N   0  0  0  0  0  0  0  0  0  0  0  0
    2.5868    0.3731   -6.0571 S   0  0  0  0  0  0  0  0  0  0  0  0
    2.3570   -0.3202   -7.8169 C   0  0  0  0  0  0  0  0  0  0  0  0
    3.6987    1.3284   -6.1195 O   0  0  0  0  0  0  0  0  0  0  0  0
    2.5450   -0.7722   -5.1335 O   0  0  0  0  0  0  0  0  0  0  0  0
    1.2119    1.3092   -5.9324 O   0  0  0  0  0  0  0  0  0  0  0  0
    2.1984    0.6833   -8.6823 F   0  0  0  0  0  0  0  0  0  0  0  0
    3.4495   -1.0199   -8.1322 F   0  0  0  0  0  0  0  0  0  0  0  0
    1.2853   -1.1191   -7.8539 F   0  0  0  0  0  0  0  0  0  0  0  0
   -3.3407   -0.5675   -4.0498 H   0  0  0  0  0  0  0  0  0  0  0  0
  1  7  1  0  0  0  0
  2  1  1  0  0  0  0
  2  8  1  0  0  0  0
  3  2  2  0  0  0  0
  4  5  2  0  0  0  0
  4  3  1  0  0  0  0
  5  6  1  0  0  0  0
  6 21  1  0  0  0  0
  6  1  2  0  0  0  0
  9  4  1  0  0  0  0
 10  5  1  0  0  0  0
 11 12  3  0  0  0  0
 13 17  1  0  0  0  0
 13 16  2  0  0  0  0
 14 13  1  0  0  0  0
 15 13  2  0  0  0  0
 17  3  1  0  0  0  0
 18 14  1  0  0  0  0
 19 14  1  0  0  0  0
 20 14  1  0  0  0  0
M  END
