Coordinates from ORCA-job Ph-N2-OTf-B3LYPG-aug-cc-pVDZ-scan-d09-49-n400
 OpenBabel07022015323D

 21 20  0  0  0  0  0  0  0  0999 V2000
   -1.2946   -0.0638   -3.5816 C   0  0  0  0  0  0  0  0  0  0  0  0
   -0.0758    0.4167   -4.0673 C   0  0  0  0  0  0  0  0  0  0  0  0
    0.0184    0.7516   -5.4170 C   0  0  0  0  0  0  0  0  0  0  0  0
   -1.0598    0.6153   -6.2895 C   0  0  0  0  0  0  0  0  0  0  0  0
   -2.2757    0.1437   -5.7872 C   0  0  0  0  0  0  0  0  0  0  0  0
   -2.3942   -0.1980   -4.4360 C   0  0  0  0  0  0  0  0  0  0  0  0
   -1.3829   -0.3324   -2.5290 H   0  0  0  0  0  0  0  0  0  0  0  0
    0.7858    0.5361   -3.4142 H   0  0  0  0  0  0  0  0  0  0  0  0
   -0.9477    0.8912   -7.3368 H   0  0  0  0  0  0  0  0  0  0  0  0
   -3.1299    0.0376   -6.4561 H   0  0  0  0  0  0  0  0  0  0  0  0
   -0.5180    3.4473   -4.9108 N   0  0  0  0  0  0  0  0  0  0  0  0
   -1.3735    3.9981   -4.4809 N   0  0  0  0  0  0  0  0  0  0  0  0
    2.5882    0.3695   -6.0585 S   0  0  0  0  0  0  0  0  0  0  0  0
    2.3605   -0.3226   -7.8190 C   0  0  0  0  0  0  0  0  0  0  0  0
    3.6981    1.3272   -6.1194 O   0  0  0  0  0  0  0  0  0  0  0  0
    2.5482   -0.7769   -5.1360 O   0  0  0  0  0  0  0  0  0  0  0  0
    1.2110    1.3022   -5.9334 O   0  0  0  0  0  0  0  0  0  0  0  0
    2.2017    0.6814   -8.6837 F   0  0  0  0  0  0  0  0  0  0  0  0
    3.4538   -1.0213   -8.1341 F   0  0  0  0  0  0  0  0  0  0  0  0
    1.2894   -1.1224   -7.8574 F   0  0  0  0  0  0  0  0  0  0  0  0
   -3.3413   -0.5736   -4.0495 H   0  0  0  0  0  0  0  0  0  0  0  0
  1  7  1  0  0  0  0
  2  1  1  0  0  0  0
  2  8  1  0  0  0  0
  3  2  2  0  0  0  0
  4  5  2  0  0  0  0
  4  3  1  0  0  0  0
  5  6  1  0  0  0  0
  6 21  1  0  0  0  0
  6  1  2  0  0  0  0
  9  4  1  0  0  0  0
 10  5  1  0  0  0  0
 11 12  3  0  0  0  0
 13 17  1  0  0  0  0
 13 16  2  0  0  0  0
 14 13  1  0  0  0  0
 15 13  2  0  0  0  0
 17  3  1  0  0  0  0
 18 14  1  0  0  0  0
 19 14  1  0  0  0  0
 20 14  1  0  0  0  0
M  END
