Coordinates from ORCA-job Ph-N2-OTf-B3LYPG-aug-cc-pVDZ-scan-d09-49-n400
 OpenBabel07022015323D

 21 20  0  0  0  0  0  0  0  0999 V2000
   -1.2693   -0.1394   -3.6030 C   0  0  0  0  0  0  0  0  0  0  0  0
   -0.0467    0.3281   -4.0931 C   0  0  0  0  0  0  0  0  0  0  0  0
    0.0513    0.6408   -5.4480 C   0  0  0  0  0  0  0  0  0  0  0  0
   -1.0318    0.5187   -6.3168 C   0  0  0  0  0  0  0  0  0  0  0  0
   -2.2510    0.0601   -5.8093 C   0  0  0  0  0  0  0  0  0  0  0  0
   -2.3696   -0.2735   -4.4563 C   0  0  0  0  0  0  0  0  0  0  0  0
   -1.3597   -0.3964   -2.5476 H   0  0  0  0  0  0  0  0  0  0  0  0
    0.8160    0.4468   -3.4413 H   0  0  0  0  0  0  0  0  0  0  0  0
   -0.9196    0.7900   -7.3653 H   0  0  0  0  0  0  0  0  0  0  0  0
   -3.1078   -0.0402   -6.4758 H   0  0  0  0  0  0  0  0  0  0  0  0
   -0.7999    4.3301   -4.6597 N   0  0  0  0  0  0  0  0  0  0  0  0
   -1.6896    4.8059   -4.2113 N   0  0  0  0  0  0  0  0  0  0  0  0
    2.6244    0.2711   -6.0898 S   0  0  0  0  0  0  0  0  0  0  0  0
    2.4026   -0.4144   -7.8536 C   0  0  0  0  0  0  0  0  0  0  0  0
    3.7317    1.2321   -6.1433 O   0  0  0  0  0  0  0  0  0  0  0  0
    2.5828   -0.8789   -5.1717 O   0  0  0  0  0  0  0  0  0  0  0  0
    1.2424    1.1984   -5.9649 O   0  0  0  0  0  0  0  0  0  0  0  0
    2.2493    0.5930   -8.7151 F   0  0  0  0  0  0  0  0  0  0  0  0
    3.4955   -1.1145   -8.1671 F   0  0  0  0  0  0  0  0  0  0  0  0
    1.3298   -1.2115   -7.8983 F   0  0  0  0  0  0  0  0  0  0  0  0
   -3.3191   -0.6393   -4.0662 H   0  0  0  0  0  0  0  0  0  0  0  0
  1  7  1  0  0  0  0
  2  1  1  0  0  0  0
  2  8  1  0  0  0  0
  3  2  2  0  0  0  0
  4  5  2  0  0  0  0
  4  3  1  0  0  0  0
  5  6  1  0  0  0  0
  6 21  1  0  0  0  0
  6  1  2  0  0  0  0
  9  4  1  0  0  0  0
 10  5  1  0  0  0  0
 11 12  3  0  0  0  0
 13 17  1  0  0  0  0
 13 16  2  0  0  0  0
 14 13  1  0  0  0  0
 15 13  2  0  0  0  0
 17  3  1  0  0  0  0
 18 14  1  0  0  0  0
 19 14  1  0  0  0  0
 20 14  1  0  0  0  0
M  END
