Coordinates from ORCA-job Ph-N2-OTf-B3LYPG-aug-cc-pVDZ-scan-d09-49-n400
 OpenBabel07022015323D

 21 20  0  0  0  0  0  0  0  0999 V2000
   -1.2600   -0.1482   -3.6095 C   0  0  0  0  0  0  0  0  0  0  0  0
   -0.0361    0.3149   -4.1005 C   0  0  0  0  0  0  0  0  0  0  0  0
    0.0629    0.6247   -5.4560 C   0  0  0  0  0  0  0  0  0  0  0  0
   -1.0207    0.5047   -6.3245 C   0  0  0  0  0  0  0  0  0  0  0  0
   -2.2413    0.0506   -5.8161 C   0  0  0  0  0  0  0  0  0  0  0  0
   -2.3607   -0.2806   -4.4625 C   0  0  0  0  0  0  0  0  0  0  0  0
   -1.3511   -0.4030   -2.5537 H   0  0  0  0  0  0  0  0  0  0  0  0
    0.8270    0.4325   -3.4489 H   0  0  0  0  0  0  0  0  0  0  0  0
   -0.9078    0.7741   -7.3733 H   0  0  0  0  0  0  0  0  0  0  0  0
   -3.0984   -0.0482   -6.4823 H   0  0  0  0  0  0  0  0  0  0  0  0
   -0.8845    4.5066   -4.5931 N   0  0  0  0  0  0  0  0  0  0  0  0
   -1.7871    4.9525   -4.1397 N   0  0  0  0  0  0  0  0  0  0  0  0
    2.6347    0.2459   -6.0980 S   0  0  0  0  0  0  0  0  0  0  0  0
    2.4102   -0.4411   -7.8608 C   0  0  0  0  0  0  0  0  0  0  0  0
    3.7451    1.2033   -6.1530 O   0  0  0  0  0  0  0  0  0  0  0  0
    2.5896   -0.9027   -5.1784 O   0  0  0  0  0  0  0  0  0  0  0  0
    1.2556    1.1778   -5.9739 O   0  0  0  0  0  0  0  0  0  0  0  0
    2.2590    0.5658   -8.7234 F   0  0  0  0  0  0  0  0  0  0  0  0
    3.5011   -1.1443   -8.1741 F   0  0  0  0  0  0  0  0  0  0  0  0
    1.3353   -1.2355   -7.9040 F   0  0  0  0  0  0  0  0  0  0  0  0
   -3.3112   -0.6430   -4.0718 H   0  0  0  0  0  0  0  0  0  0  0  0
  1  7  1  0  0  0  0
  2  1  1  0  0  0  0
  2  8  1  0  0  0  0
  3  2  2  0  0  0  0
  4  5  2  0  0  0  0
  4  3  1  0  0  0  0
  5  6  1  0  0  0  0
  6 21  1  0  0  0  0
  6  1  2  0  0  0  0
  9  4  1  0  0  0  0
 10  5  1  0  0  0  0
 11 12  3  0  0  0  0
 13 17  1  0  0  0  0
 13 16  2  0  0  0  0
 14 13  1  0  0  0  0
 15 13  2  0  0  0  0
 17  3  1  0  0  0  0
 18 14  1  0  0  0  0
 19 14  1  0  0  0  0
 20 14  1  0  0  0  0
M  END
