Coordinates from ORCA-job Ph-N2-OTf-B3LYPG-aug-cc-pVDZ-scan-d09-49-n400
 OpenBabel07022015323D

 21 20  0  0  0  0  0  0  0  0999 V2000
   -1.2949   -0.0747   -3.5822 C   0  0  0  0  0  0  0  0  0  0  0  0
   -0.0758    0.4048   -4.0686 C   0  0  0  0  0  0  0  0  0  0  0  0
    0.0188    0.7360   -5.4192 C   0  0  0  0  0  0  0  0  0  0  0  0
   -1.0607    0.6031   -6.2906 C   0  0  0  0  0  0  0  0  0  0  0  0
   -2.2768    0.1324   -5.7874 C   0  0  0  0  0  0  0  0  0  0  0  0
   -2.3947   -0.2091   -4.4361 C   0  0  0  0  0  0  0  0  0  0  0  0
   -1.3832   -0.3421   -2.5292 H   0  0  0  0  0  0  0  0  0  0  0  0
    0.7860    0.5235   -3.4157 H   0  0  0  0  0  0  0  0  0  0  0  0
   -0.9493    0.8785   -7.3381 H   0  0  0  0  0  0  0  0  0  0  0  0
   -3.1315    0.0273   -6.4557 H   0  0  0  0  0  0  0  0  0  0  0  0
   -0.5311    3.5298   -4.8963 N   0  0  0  0  0  0  0  0  0  0  0  0
   -1.3818    4.0877   -4.4665 N   0  0  0  0  0  0  0  0  0  0  0  0
    2.5903    0.3632   -6.0606 S   0  0  0  0  0  0  0  0  0  0  0  0
    2.3658   -0.3268   -7.8223 C   0  0  0  0  0  0  0  0  0  0  0  0
    3.6972    1.3245   -6.1190 O   0  0  0  0  0  0  0  0  0  0  0  0
    2.5528   -0.7848   -5.1400 O   0  0  0  0  0  0  0  0  0  0  0  0
    1.2097    1.2909   -5.9351 O   0  0  0  0  0  0  0  0  0  0  0  0
    2.2072    0.6782   -8.6859 F   0  0  0  0  0  0  0  0  0  0  0  0
    3.4602   -1.0241   -8.1369 F   0  0  0  0  0  0  0  0  0  0  0  0
    1.2955   -1.1275   -7.8630 F   0  0  0  0  0  0  0  0  0  0  0  0
   -3.3418   -0.5839   -4.0491 H   0  0  0  0  0  0  0  0  0  0  0  0
  1  7  1  0  0  0  0
  2  1  1  0  0  0  0
  2  8  1  0  0  0  0
  3  2  2  0  0  0  0
  4  5  2  0  0  0  0
  4  3  1  0  0  0  0
  5  6  1  0  0  0  0
  6 21  1  0  0  0  0
  6  1  2  0  0  0  0
  9  4  1  0  0  0  0
 10  5  1  0  0  0  0
 11 12  3  0  0  0  0
 13 17  1  0  0  0  0
 13 16  2  0  0  0  0
 14 13  1  0  0  0  0
 15 13  2  0  0  0  0
 17  3  1  0  0  0  0
 18 14  1  0  0  0  0
 19 14  1  0  0  0  0
 20 14  1  0  0  0  0
M  END
