Coordinates from ORCA-job Ph-N2-OTf-B3LYPG-aug-cc-pVDZ-scan-d09-49-n400
 OpenBabel07022015323D

 21 21  0  0  1  0  0  0  0  0999 V2000
   -0.8837   -0.7548   -5.3483 C   0  0  0  0  0  0  0  0  0  0  0  0
   -0.3427    0.4459   -6.0299 C   0  0  1  0  0  0  0  0  0  0  0  0
   -1.1986    1.6656   -5.8276 C   0  0  0  0  0  0  0  0  0  0  0  0
   -2.1290    1.7301   -4.7091 C   0  0  0  0  0  0  0  0  0  0  0  0
   -2.4129    0.6095   -3.9998 C   0  0  0  0  0  0  0  0  0  0  0  0
   -1.8197   -0.6573   -4.3755 C   0  0  0  0  0  0  0  0  0  0  0  0
   -0.4572   -1.7165   -5.6275 H   0  0  0  0  0  0  0  0  0  0  0  0
   -0.0967    0.2919   -7.0830 H   0  0  0  0  0  0  0  0  0  0  0  0
   -2.5927    2.6900   -4.4846 H   0  0  0  0  0  0  0  0  0  0  0  0
   -3.1119    0.6518   -3.1659 H   0  0  0  0  0  0  0  0  0  0  0  0
   -1.0695    2.5871   -6.5706 N   0  0  0  0  0  0  0  0  0  0  0  0
   -0.9421    3.4721   -7.2857 N   0  0  0  0  0  0  0  0  0  0  0  0
    2.3569    1.0008   -6.2710 S   0  0  0  0  0  0  0  0  0  0  0  0
    3.1011   -0.7466   -6.3208 C   0  0  0  0  0  0  0  0  0  0  0  0
    3.2902    1.8341   -5.4997 O   0  0  0  0  0  0  0  0  0  0  0  0
    1.0450    0.7217   -5.3491 O   0  0  0  0  0  0  0  0  0  0  0  0
    1.9620    1.3197   -7.6604 O   0  0  0  0  0  0  0  0  0  0  0  0
    4.1886   -0.7319   -7.0956 F   0  0  0  0  0  0  0  0  0  0  0  0
    3.4309   -1.1447   -5.0907 F   0  0  0  0  0  0  0  0  0  0  0  0
    2.2000   -1.6011   -6.8370 F   0  0  0  0  0  0  0  0  0  0  0  0
   -2.1563   -1.5605   -3.8654 H   0  0  0  0  0  0  0  0  0  0  0  0
  1  6  2  0  0  0  0
  2  8  1  6  0  0  0
  2  3  1  0  0  0  0
  2 16  1  0  0  0  0
  2  1  1  0  0  0  0
  3  4  2  0  0  0  0
  4  9  1  0  0  0  0
  4  5  1  0  0  0  0
  5 10  1  0  0  0  0
  6  5  1  0  0  0  0
  6 21  1  0  0  0  0
  7  1  1  0  0  0  0
 11  3  1  0  0  0  0
 12 11  1  0  0  0  0
 13 15  2  0  0  0  0
 13 16  1  0  0  0  0
 14 13  1  0  0  0  0
 14 19  1  0  0  0  0
 17 13  2  0  0  0  0
 18 14  1  0  0  0  0
 20 14  1  0  0  0  0
M  RAD  3   5   2  11   2  12   3
M  END
