Coordinates from ORCA-job Ph-N2-OTf-B3LYPG-aug-cc-pVDZ-scan-d09-49-n400
 OpenBabel07022015323D

 21 19  0  0  0  0  0  0  0  0999 V2000
   -1.1666   -0.7917   -4.4509 C   0  0  0  0  0  0  0  0  0  0  0  0
   -0.3614    0.3419   -4.8052 C   0  0  0  0  0  0  0  0  0  0  0  0
   -1.1866    1.2839   -5.1854 C   0  0  0  0  0  0  0  0  0  0  0  0
   -2.4952    1.5648   -5.3693 C   0  0  0  0  0  0  0  0  0  0  0  0
   -3.2228    0.4025   -5.0053 C   0  0  0  0  0  0  0  0  0  0  0  0
   -2.5601   -0.7467   -4.5516 C   0  0  0  0  0  0  0  0  0  0  0  0
   -0.6432   -1.6870   -4.1129 H   0  0  0  0  0  0  0  0  0  0  0  0
    0.8225    0.2955   -4.7998 H   0  0  0  0  0  0  0  0  0  0  0  0
   -2.9426    2.4873   -5.7234 H   0  0  0  0  0  0  0  0  0  0  0  0
   -4.3100    0.4388   -5.0876 H   0  0  0  0  0  0  0  0  0  0  0  0
   -0.1187    3.4533   -5.6036 N   0  0  0  0  0  0  0  0  0  0  0  0
    0.4056    4.4121   -5.7520 N   0  0  0  0  0  0  0  0  0  0  0  0
    2.8287    0.8346   -6.1443 S   0  0  0  0  0  0  0  0  0  0  0  0
    3.0183   -0.6704   -7.2805 C   0  0  0  0  0  0  0  0  0  0  0  0
    4.1937    1.3865   -5.9961 O   0  0  0  0  0  0  0  0  0  0  0  0
    2.2890    0.1851   -4.8496 O   0  0  0  0  0  0  0  0  0  0  0  0
    1.7833    1.6670   -6.8172 O   0  0  0  0  0  0  0  0  0  0  0  0
    3.4328   -0.2827   -8.4965 F   0  0  0  0  0  0  0  0  0  0  0  0
    3.9064   -1.5414   -6.7770 F   0  0  0  0  0  0  0  0  0  0  0  0
    1.8311   -1.3020   -7.4150 F   0  0  0  0  0  0  0  0  0  0  0  0
   -3.1427   -1.6247   -4.2742 H   0  0  0  0  0  0  0  0  0  0  0  0
  1  7  1  0  0  0  0
  2  8  1  0  0  0  0
  2  1  2  0  0  0  0
  3  2  1  0  0  0  0
  4  3  2  0  0  0  0
  4  5  1  0  0  0  0
  5  6  2  0  0  0  0
  6  1  1  0  0  0  0
  6 21  1  0  0  0  0
  9  4  1  0  0  0  0
 10  5  1  0  0  0  0
 12 11  3  0  0  0  0
 13 15  2  0  0  0  0
 13 16  1  0  0  0  0
 14 19  1  0  0  0  0
 14 13  1  0  0  0  0
 17 13  2  0  0  0  0
 18 14  1  0  0  0  0
 20 14  1  0  0  0  0
M  RAD  2   3   2  16   2
M  END
