Coordinates from ORCA-job Ph-N2-OTf-B3LYPG-aug-cc-pVDZ-scan-d09-49-n400
 OpenBabel07022015323D

 21 20  0  0  0  0  0  0  0  0999 V2000
   -1.2564   -0.1509   -3.6121 C   0  0  0  0  0  0  0  0  0  0  0  0
   -0.0320    0.3105   -4.1034 C   0  0  0  0  0  0  0  0  0  0  0  0
    0.0673    0.6191   -5.4592 C   0  0  0  0  0  0  0  0  0  0  0  0
   -1.0164    0.4999   -6.3275 C   0  0  0  0  0  0  0  0  0  0  0  0
   -2.2375    0.0476   -5.8189 C   0  0  0  0  0  0  0  0  0  0  0  0
   -2.3573   -0.2825   -4.4651 C   0  0  0  0  0  0  0  0  0  0  0  0
   -1.3478   -0.4050   -2.5561 H   0  0  0  0  0  0  0  0  0  0  0  0
    0.8312    0.4276   -3.4519 H   0  0  0  0  0  0  0  0  0  0  0  0
   -0.9032    0.7685   -7.3766 H   0  0  0  0  0  0  0  0  0  0  0  0
   -3.0948   -0.0505   -6.4850 H   0  0  0  0  0  0  0  0  0  0  0  0
   -0.9165    4.5701   -4.5675 N   0  0  0  0  0  0  0  0  0  0  0  0
   -1.8239    5.0042   -4.1121 N   0  0  0  0  0  0  0  0  0  0  0  0
    2.6387    0.2368   -6.1011 S   0  0  0  0  0  0  0  0  0  0  0  0
    2.4129   -0.4515   -7.8633 C   0  0  0  0  0  0  0  0  0  0  0  0
    3.7501    1.1930   -6.1573 O   0  0  0  0  0  0  0  0  0  0  0  0
    2.5924   -0.9108   -5.1804 O   0  0  0  0  0  0  0  0  0  0  0  0
    1.2607    1.1706   -5.9774 O   0  0  0  0  0  0  0  0  0  0  0  0
    2.2621    0.5547   -8.7266 F   0  0  0  0  0  0  0  0  0  0  0  0
    3.5031   -1.1559   -8.1764 F   0  0  0  0  0  0  0  0  0  0  0  0
    1.3373   -1.2451   -7.9053 F   0  0  0  0  0  0  0  0  0  0  0  0
   -3.3082   -0.6437   -4.0741 H   0  0  0  0  0  0  0  0  0  0  0  0
  1  7  1  0  0  0  0
  2  1  1  0  0  0  0
  2  8  1  0  0  0  0
  3  2  2  0  0  0  0
  4  5  2  0  0  0  0
  4  3  1  0  0  0  0
  5  6  1  0  0  0  0
  6 21  1  0  0  0  0
  6  1  2  0  0  0  0
  9  4  1  0  0  0  0
 10  5  1  0  0  0  0
 11 12  3  0  0  0  0
 13 17  1  0  0  0  0
 13 16  2  0  0  0  0
 14 13  1  0  0  0  0
 15 13  2  0  0  0  0
 17  3  1  0  0  0  0
 18 14  1  0  0  0  0
 19 14  1  0  0  0  0
 20 14  1  0  0  0  0
M  END
