Coordinates from ORCA-job Ph-N2-OTf-B3LYPG-aug-cc-pVDZ-scan-d09-49-n400
 OpenBabel07022015323D

 21 20  0  0  0  0  0  0  0  0999 V2000
   -1.2948   -0.0672   -3.5817 C   0  0  0  0  0  0  0  0  0  0  0  0
   -0.0759    0.4130   -4.0677 C   0  0  0  0  0  0  0  0  0  0  0  0
    0.0185    0.7465   -5.4177 C   0  0  0  0  0  0  0  0  0  0  0  0
   -1.0601    0.6116   -6.2898 C   0  0  0  0  0  0  0  0  0  0  0  0
   -2.2761    0.1402   -5.7872 C   0  0  0  0  0  0  0  0  0  0  0  0
   -2.3944   -0.2015   -4.4360 C   0  0  0  0  0  0  0  0  0  0  0  0
   -1.3831   -0.3353   -2.5290 H   0  0  0  0  0  0  0  0  0  0  0  0
    0.7858    0.5326   -3.4146 H   0  0  0  0  0  0  0  0  0  0  0  0
   -0.9482    0.8876   -7.3371 H   0  0  0  0  0  0  0  0  0  0  0  0
   -3.1305    0.0346   -6.4560 H   0  0  0  0  0  0  0  0  0  0  0  0
   -0.5220    3.4716   -4.9064 N   0  0  0  0  0  0  0  0  0  0  0  0
   -1.3755    4.0256   -4.4767 N   0  0  0  0  0  0  0  0  0  0  0  0
    2.5889    0.3676   -6.0591 S   0  0  0  0  0  0  0  0  0  0  0  0
    2.3621   -0.3238   -7.8200 C   0  0  0  0  0  0  0  0  0  0  0  0
    3.6978    1.3265   -6.1193 O   0  0  0  0  0  0  0  0  0  0  0  0
    2.5497   -0.7792   -5.1372 O   0  0  0  0  0  0  0  0  0  0  0  0
    1.2105    1.2988   -5.9339 O   0  0  0  0  0  0  0  0  0  0  0  0
    2.2033    0.6805   -8.6843 F   0  0  0  0  0  0  0  0  0  0  0  0
    3.4558   -1.0220   -8.1349 F   0  0  0  0  0  0  0  0  0  0  0  0
    1.2913   -1.1240   -7.8591 F   0  0  0  0  0  0  0  0  0  0  0  0
   -3.3415   -0.5768   -4.0493 H   0  0  0  0  0  0  0  0  0  0  0  0
  1  7  1  0  0  0  0
  2  1  1  0  0  0  0
  2  8  1  0  0  0  0
  3  2  2  0  0  0  0
  4  5  2  0  0  0  0
  4  3  1  0  0  0  0
  5  6  1  0  0  0  0
  6 21  1  0  0  0  0
  6  1  2  0  0  0  0
  9  4  1  0  0  0  0
 10  5  1  0  0  0  0
 11 12  3  0  0  0  0
 13 17  1  0  0  0  0
 13 16  2  0  0  0  0
 14 13  1  0  0  0  0
 15 13  2  0  0  0  0
 17  3  1  0  0  0  0
 18 14  1  0  0  0  0
 19 14  1  0  0  0  0
 20 14  1  0  0  0  0
M  END
