Coordinates from ORCA-job Ph-N2-OTf-B3LYPG-aug-cc-pVDZ-scan-d09-49-n400
 OpenBabel07022015323D

 21 20  0  0  0  0  0  0  0  0999 V2000
   -1.2934   -0.0465   -3.5805 C   0  0  0  0  0  0  0  0  0  0  0  0
   -0.0755    0.4368   -4.0650 C   0  0  0  0  0  0  0  0  0  0  0  0
    0.0164    0.7835   -5.4119 C   0  0  0  0  0  0  0  0  0  0  0  0
   -1.0582    0.6360   -6.2870 C   0  0  0  0  0  0  0  0  0  0  0  0
   -2.2734    0.1616   -5.7863 C   0  0  0  0  0  0  0  0  0  0  0  0
   -2.3931   -0.1797   -4.4350 C   0  0  0  0  0  0  0  0  0  0  0  0
   -1.3807   -0.3198   -2.5291 H   0  0  0  0  0  0  0  0  0  0  0  0
    0.7862    0.5536   -3.4116 H   0  0  0  0  0  0  0  0  0  0  0  0
   -0.9455    0.9098   -7.3348 H   0  0  0  0  0  0  0  0  0  0  0  0
   -3.1259    0.0514   -6.4567 H   0  0  0  0  0  0  0  0  0  0  0  0
   -0.4934    3.3141   -4.9393 N   0  0  0  0  0  0  0  0  0  0  0  0
   -1.3582    3.8505   -4.5089 N   0  0  0  0  0  0  0  0  0  0  0  0
    2.5833    0.3792   -6.0540 S   0  0  0  0  0  0  0  0  0  0  0  0
    2.3507   -0.3144   -7.8133 C   0  0  0  0  0  0  0  0  0  0  0  0
    3.6990    1.3299   -6.1175 O   0  0  0  0  0  0  0  0  0  0  0  0
    2.5372   -0.7651   -5.1295 O   0  0  0  0  0  0  0  0  0  0  0  0
    1.2132    1.3216   -5.9301 O   0  0  0  0  0  0  0  0  0  0  0  0
    2.1933    0.6890   -8.6789 F   0  0  0  0  0  0  0  0  0  0  0  0
    3.4419   -1.0161   -8.1289 F   0  0  0  0  0  0  0  0  0  0  0  0
    1.2777   -1.1116   -7.8493 F   0  0  0  0  0  0  0  0  0  0  0  0
   -3.3398   -0.5572   -4.0496 H   0  0  0  0  0  0  0  0  0  0  0  0
  1  7  1  0  0  0  0
  2  1  1  0  0  0  0
  2  8  1  0  0  0  0
  3  2  2  0  0  0  0
  4  5  2  0  0  0  0
  4  3  1  0  0  0  0
  5  6  1  0  0  0  0
  6 21  1  0  0  0  0
  6  1  2  0  0  0  0
  9  4  1  0  0  0  0
 10  5  1  0  0  0  0
 11 12  3  0  0  0  0
 13 17  1  0  0  0  0
 13 16  2  0  0  0  0
 14 13  1  0  0  0  0
 15 13  2  0  0  0  0
 17  3  1  0  0  0  0
 18 14  1  0  0  0  0
 19 14  1  0  0  0  0
 20 14  1  0  0  0  0
M  END
