Coordinates from ORCA-job Ph-N2-OTf-B3LYPG-aug-cc-pVDZ-scan-d09-49-n400
 OpenBabel07022015323D

 21 19  0  0  0  0  0  0  0  0999 V2000
   -1.1736   -0.7858   -4.4661 C   0  0  0  0  0  0  0  0  0  0  0  0
   -0.3668    0.3494   -4.8060 C   0  0  0  0  0  0  0  0  0  0  0  0
   -1.1912    1.3022   -5.1732 C   0  0  0  0  0  0  0  0  0  0  0  0
   -2.5024    1.5820   -5.3476 C   0  0  0  0  0  0  0  0  0  0  0  0
   -3.2303    0.4162   -4.9977 C   0  0  0  0  0  0  0  0  0  0  0  0
   -2.5674   -0.7392   -4.5619 C   0  0  0  0  0  0  0  0  0  0  0  0
   -0.6504   -1.6860   -4.1410 H   0  0  0  0  0  0  0  0  0  0  0  0
    0.8061    0.3075   -4.7996 H   0  0  0  0  0  0  0  0  0  0  0  0
   -2.9511    2.5085   -5.6893 H   0  0  0  0  0  0  0  0  0  0  0  0
   -4.3176    0.4541   -5.0772 H   0  0  0  0  0  0  0  0  0  0  0  0
   -0.1156    3.3879   -5.5913 N   0  0  0  0  0  0  0  0  0  0  0  0
    0.3934    4.3538   -5.7461 N   0  0  0  0  0  0  0  0  0  0  0  0
    2.8295    0.8397   -6.1556 S   0  0  0  0  0  0  0  0  0  0  0  0
    3.0397   -0.6758   -7.2743 C   0  0  0  0  0  0  0  0  0  0  0  0
    4.1862    1.4170   -6.0234 O   0  0  0  0  0  0  0  0  0  0  0  0
    2.3023    0.2014   -4.8543 O   0  0  0  0  0  0  0  0  0  0  0  0
    1.7708    1.6476   -6.8403 O   0  0  0  0  0  0  0  0  0  0  0  0
    3.4452   -0.2979   -8.4967 F   0  0  0  0  0  0  0  0  0  0  0  0
    3.9425   -1.5272   -6.7628 F   0  0  0  0  0  0  0  0  0  0  0  0
    1.8622   -1.3282   -7.3982 F   0  0  0  0  0  0  0  0  0  0  0  0
   -3.1498   -1.6205   -4.2948 H   0  0  0  0  0  0  0  0  0  0  0  0
  1  7  1  0  0  0  0
  2  8  1  0  0  0  0
  2  1  2  0  0  0  0
  3  2  1  0  0  0  0
  4  3  2  0  0  0  0
  4  5  1  0  0  0  0
  5  6  2  0  0  0  0
  6  1  1  0  0  0  0
  6 21  1  0  0  0  0
  9  4  1  0  0  0  0
 10  5  1  0  0  0  0
 12 11  3  0  0  0  0
 13 15  2  0  0  0  0
 13 16  1  0  0  0  0
 14 19  1  0  0  0  0
 14 13  1  0  0  0  0
 17 13  2  0  0  0  0
 18 14  1  0  0  0  0
 20 14  1  0  0  0  0
M  RAD  2   3   2  16   2
M  END
