Coordinates from ORCA-job Ph-N2-OTf-B3LYPG-aug-cc-pVDZ-scan-d09-49-n400
 OpenBabel07022015323D

 21 20  0  0  0  0  0  0  0  0999 V2000
   -1.2530   -0.1534   -3.6146 C   0  0  0  0  0  0  0  0  0  0  0  0
   -0.0281    0.3063   -4.1062 C   0  0  0  0  0  0  0  0  0  0  0  0
    0.0716    0.6135   -5.4622 C   0  0  0  0  0  0  0  0  0  0  0  0
   -1.0122    0.4946   -6.3306 C   0  0  0  0  0  0  0  0  0  0  0  0
   -2.2337    0.0441   -5.8216 C   0  0  0  0  0  0  0  0  0  0  0  0
   -2.3540   -0.2846   -4.4675 C   0  0  0  0  0  0  0  0  0  0  0  0
   -1.3448   -0.4064   -2.5583 H   0  0  0  0  0  0  0  0  0  0  0  0
    0.8352    0.4230   -3.4547 H   0  0  0  0  0  0  0  0  0  0  0  0
   -0.8986    0.7622   -7.3798 H   0  0  0  0  0  0  0  0  0  0  0  0
   -3.0911   -0.0537   -6.4876 H   0  0  0  0  0  0  0  0  0  0  0  0
   -0.9479    4.6338   -4.5422 N   0  0  0  0  0  0  0  0  0  0  0  0
   -1.8598    5.0562   -4.0848 N   0  0  0  0  0  0  0  0  0  0  0  0
    2.6424    0.2276   -6.1042 S   0  0  0  0  0  0  0  0  0  0  0  0
    2.4156   -0.4614   -7.8660 C   0  0  0  0  0  0  0  0  0  0  0  0
    3.7551    1.1822   -6.1610 O   0  0  0  0  0  0  0  0  0  0  0  0
    2.5948   -0.9195   -5.1828 O   0  0  0  0  0  0  0  0  0  0  0  0
    1.2657    1.1632   -5.9808 O   0  0  0  0  0  0  0  0  0  0  0  0
    2.2655    0.5446   -8.7297 F   0  0  0  0  0  0  0  0  0  0  0  0
    3.5050   -1.1670   -8.1790 F   0  0  0  0  0  0  0  0  0  0  0  0
    1.3393   -1.2540   -7.9074 F   0  0  0  0  0  0  0  0  0  0  0  0
   -3.3053   -0.6444   -4.0763 H   0  0  0  0  0  0  0  0  0  0  0  0
  1  7  1  0  0  0  0
  2  1  1  0  0  0  0
  2  8  1  0  0  0  0
  3  2  2  0  0  0  0
  4  5  2  0  0  0  0
  4  3  1  0  0  0  0
  5  6  1  0  0  0  0
  6 21  1  0  0  0  0
  6  1  2  0  0  0  0
  9  4  1  0  0  0  0
 10  5  1  0  0  0  0
 11 12  3  0  0  0  0
 13 17  1  0  0  0  0
 13 16  2  0  0  0  0
 14 13  1  0  0  0  0
 15 13  2  0  0  0  0
 17  3  1  0  0  0  0
 18 14  1  0  0  0  0
 19 14  1  0  0  0  0
 20 14  1  0  0  0  0
M  END
