Coordinates from ORCA-job Ph-N2-OTf-B3LYPG-aug-cc-pVDZ-scan-d09-49-n400
 OpenBabel07022015323D

 21 20  0  0  0  0  0  0  0  0999 V2000
   -1.2942   -0.0563   -3.5814 C   0  0  0  0  0  0  0  0  0  0  0  0
   -0.0757    0.4253   -4.0665 C   0  0  0  0  0  0  0  0  0  0  0  0
    0.0179    0.7640   -5.4153 C   0  0  0  0  0  0  0  0  0  0  0  0
   -1.0589    0.6241   -6.2888 C   0  0  0  0  0  0  0  0  0  0  0  0
   -2.2747    0.1514   -5.7872 C   0  0  0  0  0  0  0  0  0  0  0  0
   -2.3937   -0.1903   -4.4360 C   0  0  0  0  0  0  0  0  0  0  0  0
   -1.3824   -0.3262   -2.5291 H   0  0  0  0  0  0  0  0  0  0  0  0
    0.7858    0.5447   -3.4132 H   0  0  0  0  0  0  0  0  0  0  0  0
   -0.9465    0.8997   -7.3361 H   0  0  0  0  0  0  0  0  0  0  0  0
   -3.1282    0.0440   -6.4567 H   0  0  0  0  0  0  0  0  0  0  0  0
   -0.5083    3.3911   -4.9210 N   0  0  0  0  0  0  0  0  0  0  0  0
   -1.3682    3.9350   -4.4906 N   0  0  0  0  0  0  0  0  0  0  0  0
    2.5866    0.3737   -6.0569 S   0  0  0  0  0  0  0  0  0  0  0  0
    2.3563   -0.3198   -7.8166 C   0  0  0  0  0  0  0  0  0  0  0  0
    3.6988    1.3286   -6.1196 O   0  0  0  0  0  0  0  0  0  0  0  0
    2.5444   -0.7714   -5.1331 O   0  0  0  0  0  0  0  0  0  0  0  0
    1.2120    1.3104   -5.9322 O   0  0  0  0  0  0  0  0  0  0  0  0
    2.1978    0.6836   -8.6820 F   0  0  0  0  0  0  0  0  0  0  0  0
    3.4488   -1.0197   -8.1319 F   0  0  0  0  0  0  0  0  0  0  0  0
    1.2846   -1.1186   -7.8533 F   0  0  0  0  0  0  0  0  0  0  0  0
   -3.3406   -0.5666   -4.0499 H   0  0  0  0  0  0  0  0  0  0  0  0
  1  7  1  0  0  0  0
  2  1  1  0  0  0  0
  2  8  1  0  0  0  0
  3  2  2  0  0  0  0
  4  5  2  0  0  0  0
  4  3  1  0  0  0  0
  5  6  1  0  0  0  0
  6 21  1  0  0  0  0
  6  1  2  0  0  0  0
  9  4  1  0  0  0  0
 10  5  1  0  0  0  0
 11 12  3  0  0  0  0
 13 17  1  0  0  0  0
 13 16  2  0  0  0  0
 14 13  1  0  0  0  0
 15 13  2  0  0  0  0
 17  3  1  0  0  0  0
 18 14  1  0  0  0  0
 19 14  1  0  0  0  0
 20 14  1  0  0  0  0
M  END
