Coordinates from ORCA-job Ph-N2-OTf-B3LYPG-aug-cc-pVDZ-scan-d09-49-n400
 OpenBabel07022015323D

 21 20  0  0  0  0  0  0  0  0999 V2000
   -1.2420   -0.1619   -3.6226 C   0  0  0  0  0  0  0  0  0  0  0  0
   -0.0157    0.2924   -4.1157 C   0  0  0  0  0  0  0  0  0  0  0  0
    0.0851    0.5945   -5.4727 C   0  0  0  0  0  0  0  0  0  0  0  0
   -0.9990    0.4760   -6.3408 C   0  0  0  0  0  0  0  0  0  0  0  0
   -2.2219    0.0309   -5.8304 C   0  0  0  0  0  0  0  0  0  0  0  0
   -2.3433   -0.2930   -4.4752 C   0  0  0  0  0  0  0  0  0  0  0  0
   -1.3347   -0.4110   -2.5655 H   0  0  0  0  0  0  0  0  0  0  0  0
    0.8479    0.4089   -3.4645 H   0  0  0  0  0  0  0  0  0  0  0  0
   -0.8845    0.7396   -7.3910 H   0  0  0  0  0  0  0  0  0  0  0  0
   -3.0796   -0.0667   -6.4962 H   0  0  0  0  0  0  0  0  0  0  0  0
   -1.0498    4.8492   -4.4572 N   0  0  0  0  0  0  0  0  0  0  0  0
   -1.9762    5.2319   -3.9941 N   0  0  0  0  0  0  0  0  0  0  0  0
    2.6543    0.1969   -6.1143 S   0  0  0  0  0  0  0  0  0  0  0  0
    2.4254   -0.4939   -7.8751 C   0  0  0  0  0  0  0  0  0  0  0  0
    3.7708    1.1470   -6.1720 O   0  0  0  0  0  0  0  0  0  0  0  0
    2.6014   -0.9484   -5.1910 O   0  0  0  0  0  0  0  0  0  0  0  0
    1.2812    1.1383   -5.9931 O   0  0  0  0  0  0  0  0  0  0  0  0
    2.2786    0.5115   -8.7402 F   0  0  0  0  0  0  0  0  0  0  0  0
    3.5127   -1.2033   -8.1872 F   0  0  0  0  0  0  0  0  0  0  0  0
    1.3466   -1.2831   -7.9155 F   0  0  0  0  0  0  0  0  0  0  0  0
   -3.2955   -0.6490   -4.0829 H   0  0  0  0  0  0  0  0  0  0  0  0
  1  7  1  0  0  0  0
  2  1  1  0  0  0  0
  2  8  1  0  0  0  0
  3  2  2  0  0  0  0
  4  5  2  0  0  0  0
  4  3  1  0  0  0  0
  5  6  1  0  0  0  0
  6 21  1  0  0  0  0
  6  1  2  0  0  0  0
  9  4  1  0  0  0  0
 10  5  1  0  0  0  0
 11 12  3  0  0  0  0
 13 17  1  0  0  0  0
 13 16  2  0  0  0  0
 14 13  1  0  0  0  0
 15 13  2  0  0  0  0
 17  3  1  0  0  0  0
 18 14  1  0  0  0  0
 19 14  1  0  0  0  0
 20 14  1  0  0  0  0
M  END
