Coordinates from ORCA-job Ph-N2-OTf-B3LYPG-aug-cc-pVDZ-scan-d09-49-n400
 OpenBabel07022015323D

 21 20  0  0  0  0  0  0  0  0999 V2000
   -1.2940   -0.0831   -3.5833 C   0  0  0  0  0  0  0  0  0  0  0  0
   -0.0747    0.3955   -4.0701 C   0  0  0  0  0  0  0  0  0  0  0  0
    0.0202    0.7241   -5.4213 C   0  0  0  0  0  0  0  0  0  0  0  0
   -1.0602    0.5941   -6.2921 C   0  0  0  0  0  0  0  0  0  0  0  0
   -2.2764    0.1243   -5.7883 C   0  0  0  0  0  0  0  0  0  0  0  0
   -2.3940   -0.2174   -4.4371 C   0  0  0  0  0  0  0  0  0  0  0  0
   -1.3824   -0.3495   -2.5301 H   0  0  0  0  0  0  0  0  0  0  0  0
    0.7873    0.5140   -3.4174 H   0  0  0  0  0  0  0  0  0  0  0  0
   -0.9490    0.8698   -7.3395 H   0  0  0  0  0  0  0  0  0  0  0  0
   -3.1317    0.0203   -6.4562 H   0  0  0  0  0  0  0  0  0  0  0  0
   -0.5453    3.6050   -4.8809 N   0  0  0  0  0  0  0  0  0  0  0  0
   -1.3996    4.1563   -4.4500 N   0  0  0  0  0  0  0  0  0  0  0  0
    2.5927    0.3568   -6.0627 S   0  0  0  0  0  0  0  0  0  0  0  0
    2.3697   -0.3323   -7.8249 C   0  0  0  0  0  0  0  0  0  0  0  0
    3.6980    1.3200   -6.1201 O   0  0  0  0  0  0  0  0  0  0  0  0
    2.5566   -0.7919   -5.1429 O   0  0  0  0  0  0  0  0  0  0  0  0
    1.2102    1.2819   -5.9369 O   0  0  0  0  0  0  0  0  0  0  0  0
    2.2110    0.6730   -8.6880 F   0  0  0  0  0  0  0  0  0  0  0  0
    3.4646   -1.0289   -8.1393 F   0  0  0  0  0  0  0  0  0  0  0  0
    1.2998   -1.1336   -7.8665 F   0  0  0  0  0  0  0  0  0  0  0  0
   -3.3412   -0.5915   -4.0497 H   0  0  0  0  0  0  0  0  0  0  0  0
  1  7  1  0  0  0  0
  2  1  1  0  0  0  0
  2  8  1  0  0  0  0
  3  2  2  0  0  0  0
  4  5  2  0  0  0  0
  4  3  1  0  0  0  0
  5  6  1  0  0  0  0
  6 21  1  0  0  0  0
  6  1  2  0  0  0  0
  9  4  1  0  0  0  0
 10  5  1  0  0  0  0
 11 12  3  0  0  0  0
 13 17  1  0  0  0  0
 13 16  2  0  0  0  0
 14 13  1  0  0  0  0
 15 13  2  0  0  0  0
 17  3  1  0  0  0  0
 18 14  1  0  0  0  0
 19 14  1  0  0  0  0
 20 14  1  0  0  0  0
M  END
