Coordinates from ORCA-job Ph-N2-OTf-B3LYPG-aug-cc-pVDZ-scan-d09-49-n400
 OpenBabel07022015323D

 21 20  0  0  0  0  0  0  0  0999 V2000
   -1.3024   -0.7190   -4.3137 C   0  0  0  0  0  0  0  0  0  0  0  0
   -0.4560    0.2675   -4.8619 C   0  0  0  0  0  0  0  0  0  0  0  0
   -1.1650    1.3189   -5.3529 C   0  0  0  0  0  0  0  0  0  0  0  0
   -2.5117    1.5950   -5.4143 C   0  0  0  0  0  0  0  0  0  0  0  0
   -3.2968    0.5753   -4.8548 C   0  0  0  0  0  0  0  0  0  0  0  0
   -2.6921   -0.5667   -4.3124 C   0  0  0  0  0  0  0  0  0  0  0  0
   -0.8353   -1.6083   -3.8917 H   0  0  0  0  0  0  0  0  0  0  0  0
    0.6424    0.1572   -4.8756 H   0  0  0  0  0  0  0  0  0  0  0  0
   -2.9330    2.4970   -5.8477 H   0  0  0  0  0  0  0  0  0  0  0  0
   -4.3807    0.6892   -4.8533 H   0  0  0  0  0  0  0  0  0  0  0  0
   -0.2138    2.6577   -6.0704 N   0  0  0  0  0  0  0  0  0  0  0  0
    0.0231    3.6431   -6.5093 N   0  0  0  0  0  0  0  0  0  0  0  0
    3.0097    0.6574   -5.8496 S   0  0  0  0  0  0  0  0  0  0  0  0
    3.2205   -0.3706   -7.4292 C   0  0  0  0  0  0  0  0  0  0  0  0
    4.3616    1.1940   -5.5622 O   0  0  0  0  0  0  0  0  0  0  0  0
    2.4398   -0.3352   -4.8663 O   0  0  0  0  0  0  0  0  0  0  0  0
    1.9747    1.6898   -6.2740 O   0  0  0  0  0  0  0  0  0  0  0  0
    3.6688    0.3946   -8.4399 F   0  0  0  0  0  0  0  0  0  0  0  0
    4.0907   -1.3742   -7.2324 F   0  0  0  0  0  0  0  0  0  0  0  0
    2.0345   -0.9058   -7.8017 F   0  0  0  0  0  0  0  0  0  0  0  0
   -3.3173   -1.3499   -3.8840 H   0  0  0  0  0  0  0  0  0  0  0  0
  1  6  1  0  0  0  0
  1  7  1  0  0  0  0
  2  1  2  0  0  0  0
  3  2  1  0  0  0  0
  4  3  2  0  0  0  0
  4  5  1  0  0  0  0
  5 10  1  0  0  0  0
  5  6  2  0  0  0  0
  6 21  1  0  0  0  0
  8  2  1  0  0  0  0
  9  4  1  0  0  0  0
 11  3  1  0  0  0  0
 12 11  1  0  0  0  0
 13 15  2  0  0  0  0
 13 16  1  0  0  0  0
 14 19  1  0  0  0  0
 14 13  1  0  0  0  0
 17 13  2  0  0  0  0
 18 14  1  0  0  0  0
 20 14  1  0  0  0  0
M  RAD  3  11   2  12   3  16   2
M  END
