Coordinates from ORCA-job Ph-N2-OTf-B3LYPG-aug-cc-pVDZ-scan-d09-49-n400
 OpenBabel07022015323D

 21 20  0  0  0  0  0  0  0  0999 V2000
   -1.2376   -0.1656   -3.6261 C   0  0  0  0  0  0  0  0  0  0  0  0
   -0.0107    0.2865   -4.1197 C   0  0  0  0  0  0  0  0  0  0  0  0
    0.0906    0.5867   -5.4771 C   0  0  0  0  0  0  0  0  0  0  0  0
   -0.9937    0.4687   -6.3451 C   0  0  0  0  0  0  0  0  0  0  0  0
   -2.2172    0.0256   -5.8342 C   0  0  0  0  0  0  0  0  0  0  0  0
   -2.3389   -0.2964   -4.4786 C   0  0  0  0  0  0  0  0  0  0  0  0
   -1.3306   -0.4131   -2.5686 H   0  0  0  0  0  0  0  0  0  0  0  0
    0.8530    0.4028   -3.4686 H   0  0  0  0  0  0  0  0  0  0  0  0
   -0.8789    0.7309   -7.3956 H   0  0  0  0  0  0  0  0  0  0  0  0
   -3.0749   -0.0716   -6.4999 H   0  0  0  0  0  0  0  0  0  0  0  0
   -1.0908    4.9367   -4.4222 N   0  0  0  0  0  0  0  0  0  0  0  0
   -2.0231    5.3023   -3.9572 N   0  0  0  0  0  0  0  0  0  0  0  0
    2.6592    0.1850   -6.1184 S   0  0  0  0  0  0  0  0  0  0  0  0
    2.4292   -0.5074   -7.8785 C   0  0  0  0  0  0  0  0  0  0  0  0
    3.7770    1.1336   -6.1773 O   0  0  0  0  0  0  0  0  0  0  0  0
    2.6049   -0.9592   -5.1939 O   0  0  0  0  0  0  0  0  0  0  0  0
    1.2874    1.1284   -5.9981 O   0  0  0  0  0  0  0  0  0  0  0  0
    2.2831    0.4972   -8.7445 F   0  0  0  0  0  0  0  0  0  0  0  0
    3.5157   -1.2182   -8.1901 F   0  0  0  0  0  0  0  0  0  0  0  0
    1.3496   -1.2955   -7.9178 F   0  0  0  0  0  0  0  0  0  0  0  0
   -3.2917   -0.6507   -4.0859 H   0  0  0  0  0  0  0  0  0  0  0  0
  1  7  1  0  0  0  0
  2  1  1  0  0  0  0
  2  8  1  0  0  0  0
  3  2  2  0  0  0  0
  4  5  2  0  0  0  0
  4  3  1  0  0  0  0
  5  6  1  0  0  0  0
  6 21  1  0  0  0  0
  6  1  2  0  0  0  0
  9  4  1  0  0  0  0
 10  5  1  0  0  0  0
 11 12  3  0  0  0  0
 13 17  1  0  0  0  0
 13 16  2  0  0  0  0
 14 13  1  0  0  0  0
 15 13  2  0  0  0  0
 17  3  1  0  0  0  0
 18 14  1  0  0  0  0
 19 14  1  0  0  0  0
 20 14  1  0  0  0  0
M  END
