Coordinates from ORCA-job Ph-N2-OTf-B3LYPG-aug-cc-pVDZ-scan-d09-49-n400
 OpenBabel07022015323D

 21 20  0  0  0  0  0  0  0  0999 V2000
   -1.2518   -0.1542   -3.6154 C   0  0  0  0  0  0  0  0  0  0  0  0
   -0.0267    0.3048   -4.1072 C   0  0  0  0  0  0  0  0  0  0  0  0
    0.0732    0.6113   -5.4633 C   0  0  0  0  0  0  0  0  0  0  0  0
   -1.0106    0.4925   -6.3317 C   0  0  0  0  0  0  0  0  0  0  0  0
   -2.2324    0.0426   -5.8225 C   0  0  0  0  0  0  0  0  0  0  0  0
   -2.3528   -0.2855   -4.4683 C   0  0  0  0  0  0  0  0  0  0  0  0
   -1.3437   -0.4068   -2.5591 H   0  0  0  0  0  0  0  0  0  0  0  0
    0.8366    0.4215   -3.4557 H   0  0  0  0  0  0  0  0  0  0  0  0
   -0.8969    0.7596   -7.3811 H   0  0  0  0  0  0  0  0  0  0  0  0
   -3.0898   -0.0551   -6.4886 H   0  0  0  0  0  0  0  0  0  0  0  0
   -0.9595    4.6576   -4.5327 N   0  0  0  0  0  0  0  0  0  0  0  0
   -1.8731    5.0756   -4.0747 N   0  0  0  0  0  0  0  0  0  0  0  0
    2.6438    0.2241   -6.1054 S   0  0  0  0  0  0  0  0  0  0  0  0
    2.4167   -0.4650   -7.8670 C   0  0  0  0  0  0  0  0  0  0  0  0
    3.7570    1.1781   -6.1622 O   0  0  0  0  0  0  0  0  0  0  0  0
    2.5955   -0.9228   -5.1839 O   0  0  0  0  0  0  0  0  0  0  0  0
    1.2675    1.1604   -5.9821 O   0  0  0  0  0  0  0  0  0  0  0  0
    2.2670    0.5410   -8.7309 F   0  0  0  0  0  0  0  0  0  0  0  0
    3.5059   -1.1710   -8.1801 F   0  0  0  0  0  0  0  0  0  0  0  0
    1.3401   -1.2572   -7.9084 F   0  0  0  0  0  0  0  0  0  0  0  0
   -3.3043   -0.6447   -4.0770 H   0  0  0  0  0  0  0  0  0  0  0  0
  1  7  1  0  0  0  0
  2  1  1  0  0  0  0
  2  8  1  0  0  0  0
  3  2  2  0  0  0  0
  4  5  2  0  0  0  0
  4  3  1  0  0  0  0
  5  6  1  0  0  0  0
  6 21  1  0  0  0  0
  6  1  2  0  0  0  0
  9  4  1  0  0  0  0
 10  5  1  0  0  0  0
 11 12  3  0  0  0  0
 13 17  1  0  0  0  0
 13 16  2  0  0  0  0
 14 13  1  0  0  0  0
 15 13  2  0  0  0  0
 17  3  1  0  0  0  0
 18 14  1  0  0  0  0
 19 14  1  0  0  0  0
 20 14  1  0  0  0  0
M  END
