Coordinates from ORCA-job Ph-N2-OTf-B3LYPG-aug-cc-pVDZ-scan-d09-49-n400
 OpenBabel07022015323D

 21 20  0  0  0  0  0  0  0  0999 V2000
   -1.2595   -0.1485   -3.6098 C   0  0  0  0  0  0  0  0  0  0  0  0
   -0.0356    0.3144   -4.1008 C   0  0  0  0  0  0  0  0  0  0  0  0
    0.0635    0.6240   -5.4564 C   0  0  0  0  0  0  0  0  0  0  0  0
   -1.0202    0.5041   -6.3248 C   0  0  0  0  0  0  0  0  0  0  0  0
   -2.2408    0.0502   -5.8164 C   0  0  0  0  0  0  0  0  0  0  0  0
   -2.3603   -0.2808   -4.4628 C   0  0  0  0  0  0  0  0  0  0  0  0
   -1.3507   -0.4032   -2.5540 H   0  0  0  0  0  0  0  0  0  0  0  0
    0.8275    0.4319   -3.4492 H   0  0  0  0  0  0  0  0  0  0  0  0
   -0.9072    0.7734   -7.3737 H   0  0  0  0  0  0  0  0  0  0  0  0
   -3.0980   -0.0485   -6.4826 H   0  0  0  0  0  0  0  0  0  0  0  0
   -0.8885    4.5145   -4.5899 N   0  0  0  0  0  0  0  0  0  0  0  0
   -1.7918    4.9588   -4.1362 N   0  0  0  0  0  0  0  0  0  0  0  0
    2.6352    0.2447   -6.0984 S   0  0  0  0  0  0  0  0  0  0  0  0
    2.4106   -0.4424   -7.8611 C   0  0  0  0  0  0  0  0  0  0  0  0
    3.7457    1.2020   -6.1535 O   0  0  0  0  0  0  0  0  0  0  0  0
    2.5899   -0.9037   -5.1787 O   0  0  0  0  0  0  0  0  0  0  0  0
    1.2563    1.1769   -5.9743 O   0  0  0  0  0  0  0  0  0  0  0  0
    2.2594    0.5644   -8.7238 F   0  0  0  0  0  0  0  0  0  0  0  0
    3.5014   -1.1458   -8.1745 F   0  0  0  0  0  0  0  0  0  0  0  0
    1.3356   -1.2367   -7.9042 F   0  0  0  0  0  0  0  0  0  0  0  0
   -3.3108   -0.6431   -4.0721 H   0  0  0  0  0  0  0  0  0  0  0  0
  1  7  1  0  0  0  0
  2  1  1  0  0  0  0
  2  8  1  0  0  0  0
  3  2  2  0  0  0  0
  4  5  2  0  0  0  0
  4  3  1  0  0  0  0
  5  6  1  0  0  0  0
  6 21  1  0  0  0  0
  6  1  2  0  0  0  0
  9  4  1  0  0  0  0
 10  5  1  0  0  0  0
 11 12  3  0  0  0  0
 13 17  1  0  0  0  0
 13 16  2  0  0  0  0
 14 13  1  0  0  0  0
 15 13  2  0  0  0  0
 17  3  1  0  0  0  0
 18 14  1  0  0  0  0
 19 14  1  0  0  0  0
 20 14  1  0  0  0  0
M  END
