Coordinates from ORCA-job Ph-N2-OTf-B3LYPG-aug-cc-pVDZ-scan-d09-49-n400
 OpenBabel07022015323D

 21 19  0  0  0  0  0  0  0  0999 V2000
   -1.1659   -0.8034   -4.4337 C   0  0  0  0  0  0  0  0  0  0  0  0
   -0.3570    0.3238   -4.8035 C   0  0  0  0  0  0  0  0  0  0  0  0
   -1.1797    1.2591   -5.1964 C   0  0  0  0  0  0  0  0  0  0  0  0
   -2.4847    1.5484   -5.3886 C   0  0  0  0  0  0  0  0  0  0  0  0
   -3.2165    0.3921   -5.0095 C   0  0  0  0  0  0  0  0  0  0  0  0
   -2.5594   -0.7532   -4.5386 C   0  0  0  0  0  0  0  0  0  0  0  0
   -0.6472   -1.6962   -4.0821 H   0  0  0  0  0  0  0  0  0  0  0  0
    0.8364    0.2749   -4.7991 H   0  0  0  0  0  0  0  0  0  0  0  0
   -2.9279    2.4681   -5.7548 H   0  0  0  0  0  0  0  0  0  0  0  0
   -4.3036    0.4312   -5.0937 H   0  0  0  0  0  0  0  0  0  0  0  0
   -0.1208    3.5217   -5.6218 N   0  0  0  0  0  0  0  0  0  0  0  0
    0.4141    4.4750   -5.7697 N   0  0  0  0  0  0  0  0  0  0  0  0
    2.8285    0.8295   -6.1322 S   0  0  0  0  0  0  0  0  0  0  0  0
    3.0038   -0.6617   -7.2887 C   0  0  0  0  0  0  0  0  0  0  0  0
    4.1990    1.3616   -5.9685 O   0  0  0  0  0  0  0  0  0  0  0  0
    2.2787    0.1646   -4.8466 O   0  0  0  0  0  0  0  0  0  0  0  0
    1.7941    1.6838   -6.7924 O   0  0  0  0  0  0  0  0  0  0  0  0
    3.4250   -0.2612   -8.4979 F   0  0  0  0  0  0  0  0  0  0  0  0
    3.8812   -1.5488   -6.7952 F   0  0  0  0  0  0  0  0  0  0  0  0
    1.8100   -1.2778   -7.4338 F   0  0  0  0  0  0  0  0  0  0  0  0
   -3.1465   -1.6248   -4.2506 H   0  0  0  0  0  0  0  0  0  0  0  0
  1  7  1  0  0  0  0
  2  8  1  0  0  0  0
  2  1  2  0  0  0  0
  3  2  1  0  0  0  0
  4  3  2  0  0  0  0
  4  5  1  0  0  0  0
  5  6  2  0  0  0  0
  6  1  1  0  0  0  0
  6 21  1  0  0  0  0
  9  4  1  0  0  0  0
 10  5  1  0  0  0  0
 12 11  3  0  0  0  0
 13 15  2  0  0  0  0
 13 16  1  0  0  0  0
 14 19  1  0  0  0  0
 14 13  1  0  0  0  0
 17 13  2  0  0  0  0
 18 14  1  0  0  0  0
 20 14  1  0  0  0  0
M  RAD  2   3   2  16   2
M  END
