Coordinates from ORCA-job Ph-N2-OTf-B3LYPG-aug-cc-pVDZ-scan-d09-49-n400
 OpenBabel07022015323D

 21 20  0  0  0  0  0  0  0  0999 V2000
   -1.2803   -0.1225   -3.5944 C   0  0  0  0  0  0  0  0  0  0  0  0
   -0.0589    0.3494   -4.0832 C   0  0  0  0  0  0  0  0  0  0  0  0
    0.0383    0.6669   -5.4370 C   0  0  0  0  0  0  0  0  0  0  0  0
   -1.0445    0.5443   -6.3062 C   0  0  0  0  0  0  0  0  0  0  0  0
   -2.2626    0.0812   -5.8000 C   0  0  0  0  0  0  0  0  0  0  0  0
   -2.3804   -0.2566   -4.4479 C   0  0  0  0  0  0  0  0  0  0  0  0
   -1.3700   -0.3830   -2.5398 H   0  0  0  0  0  0  0  0  0  0  0  0
    0.8036    0.4680   -3.4311 H   0  0  0  0  0  0  0  0  0  0  0  0
   -0.9330    0.8187   -7.3538 H   0  0  0  0  0  0  0  0  0  0  0  0
   -3.1191   -0.0194   -6.4668 H   0  0  0  0  0  0  0  0  0  0  0  0
   -0.6940    4.0685   -4.7505 N   0  0  0  0  0  0  0  0  0  0  0  0
   -1.5706    4.5742   -4.3090 N   0  0  0  0  0  0  0  0  0  0  0  0
    2.6120    0.3044   -6.0791 S   0  0  0  0  0  0  0  0  0  0  0  0
    2.3910   -0.3805   -7.8431 C   0  0  0  0  0  0  0  0  0  0  0  0
    3.7169    1.2683   -6.1326 O   0  0  0  0  0  0  0  0  0  0  0  0
    2.5742   -0.8463   -5.1618 O   0  0  0  0  0  0  0  0  0  0  0  0
    1.2279    1.2281   -5.9526 O   0  0  0  0  0  0  0  0  0  0  0  0
    2.2352    0.6269   -8.7041 F   0  0  0  0  0  0  0  0  0  0  0  0
    3.4852   -1.0781   -8.1574 F   0  0  0  0  0  0  0  0  0  0  0  0
    1.3198   -1.1799   -7.8879 F   0  0  0  0  0  0  0  0  0  0  0  0
   -3.3291   -0.6257   -4.0590 H   0  0  0  0  0  0  0  0  0  0  0  0
  1  7  1  0  0  0  0
  2  1  1  0  0  0  0
  2  8  1  0  0  0  0
  3  2  2  0  0  0  0
  4  5  2  0  0  0  0
  4  3  1  0  0  0  0
  5  6  1  0  0  0  0
  6 21  1  0  0  0  0
  6  1  2  0  0  0  0
  9  4  1  0  0  0  0
 10  5  1  0  0  0  0
 11 12  3  0  0  0  0
 13 17  1  0  0  0  0
 13 16  2  0  0  0  0
 14 13  1  0  0  0  0
 15 13  2  0  0  0  0
 17  3  1  0  0  0  0
 18 14  1  0  0  0  0
 19 14  1  0  0  0  0
 20 14  1  0  0  0  0
M  END
