Coordinates from ORCA-job Ph-N2-OTf-B3LYPG-aug-cc-pVDZ-scan-d09-49-n400
 OpenBabel07022015323D

 21 20  0  0  0  0  0  0  0  0999 V2000
   -1.2899   -0.1031   -3.5873 C   0  0  0  0  0  0  0  0  0  0  0  0
   -0.0698    0.3729   -4.0751 C   0  0  0  0  0  0  0  0  0  0  0  0
    0.0261    0.6957   -5.4277 C   0  0  0  0  0  0  0  0  0  0  0  0
   -1.0556    0.5695   -6.2976 C   0  0  0  0  0  0  0  0  0  0  0  0
   -2.2725    0.1024   -5.7926 C   0  0  0  0  0  0  0  0  0  0  0  0
   -2.3899   -0.2378   -4.4410 C   0  0  0  0  0  0  0  0  0  0  0  0
   -1.3788   -0.3666   -2.5334 H   0  0  0  0  0  0  0  0  0  0  0  0
    0.7926    0.4915   -3.4228 H   0  0  0  0  0  0  0  0  0  0  0  0
   -0.9443    0.8448   -7.3451 H   0  0  0  0  0  0  0  0  0  0  0  0
   -3.1284   -0.0001   -6.4598 H   0  0  0  0  0  0  0  0  0  0  0  0
   -0.5973    3.8140   -4.8296 N   0  0  0  0  0  0  0  0  0  0  0  0
   -1.4619    4.3452   -4.3942 N   0  0  0  0  0  0  0  0  0  0  0  0
    2.6000    0.3361   -6.0693 S   0  0  0  0  0  0  0  0  0  0  0  0
    2.3795   -0.3506   -7.8327 C   0  0  0  0  0  0  0  0  0  0  0  0
    3.7034    1.3016   -6.1241 O   0  0  0  0  0  0  0  0  0  0  0  0
    2.5650   -0.8141   -5.1513 O   0  0  0  0  0  0  0  0  0  0  0  0
    1.2150    1.2577   -5.9429 O   0  0  0  0  0  0  0  0  0  0  0  0
    2.2214    0.6559   -8.6945 F   0  0  0  0  0  0  0  0  0  0  0  0
    3.4749   -1.0464   -8.1470 F   0  0  0  0  0  0  0  0  0  0  0  0
    1.3098   -1.1521   -7.8765 F   0  0  0  0  0  0  0  0  0  0  0  0
   -3.3377   -0.6098   -4.0528 H   0  0  0  0  0  0  0  0  0  0  0  0
  1  7  1  0  0  0  0
  2  1  1  0  0  0  0
  2  8  1  0  0  0  0
  3  2  2  0  0  0  0
  4  5  2  0  0  0  0
  4  3  1  0  0  0  0
  5  6  1  0  0  0  0
  6 21  1  0  0  0  0
  6  1  2  0  0  0  0
  9  4  1  0  0  0  0
 10  5  1  0  0  0  0
 11 12  3  0  0  0  0
 13 17  1  0  0  0  0
 13 16  2  0  0  0  0
 14 13  1  0  0  0  0
 15 13  2  0  0  0  0
 17  3  1  0  0  0  0
 18 14  1  0  0  0  0
 19 14  1  0  0  0  0
 20 14  1  0  0  0  0
M  END
