Coordinates from ORCA-job Ph-N2-OTf-B3LYPG-aug-cc-pVDZ-scan-d09-49-n400
 OpenBabel07022015323D

 21 20  0  0  0  0  0  0  0  0999 V2000
   -1.2796   -0.1236   -3.5948 C   0  0  0  0  0  0  0  0  0  0  0  0
   -0.0582    0.3480   -4.0837 C   0  0  0  0  0  0  0  0  0  0  0  0
    0.0391    0.6652   -5.4376 C   0  0  0  0  0  0  0  0  0  0  0  0
   -1.0437    0.5426   -6.3067 C   0  0  0  0  0  0  0  0  0  0  0  0
   -2.2618    0.0799   -5.8005 C   0  0  0  0  0  0  0  0  0  0  0  0
   -2.3798   -0.2578   -4.4484 C   0  0  0  0  0  0  0  0  0  0  0  0
   -1.3693   -0.3839   -2.5402 H   0  0  0  0  0  0  0  0  0  0  0  0
    0.8044    0.4666   -3.4316 H   0  0  0  0  0  0  0  0  0  0  0  0
   -0.9321    0.8169   -7.3545 H   0  0  0  0  0  0  0  0  0  0  0  0
   -3.1184   -0.0207   -6.4673 H   0  0  0  0  0  0  0  0  0  0  0  0
   -0.7007    4.0849   -4.7451 N   0  0  0  0  0  0  0  0  0  0  0  0
   -1.5780    4.5889   -4.3033 N   0  0  0  0  0  0  0  0  0  0  0  0
    2.6127    0.3022   -6.0797 S   0  0  0  0  0  0  0  0  0  0  0  0
    2.3918   -0.3825   -7.8438 C   0  0  0  0  0  0  0  0  0  0  0  0
    3.7178    1.2658   -6.1330 O   0  0  0  0  0  0  0  0  0  0  0  0
    2.5746   -0.8486   -5.1626 O   0  0  0  0  0  0  0  0  0  0  0  0
    1.2289    1.2261   -5.9533 O   0  0  0  0  0  0  0  0  0  0  0  0
    2.2362    0.6251   -8.7048 F   0  0  0  0  0  0  0  0  0  0  0  0
    3.4858   -1.0803   -8.1581 F   0  0  0  0  0  0  0  0  0  0  0  0
    1.3204   -1.1816   -7.8888 F   0  0  0  0  0  0  0  0  0  0  0  0
   -3.3285   -0.6266   -4.0593 H   0  0  0  0  0  0  0  0  0  0  0  0
  1  7  1  0  0  0  0
  2  1  1  0  0  0  0
  2  8  1  0  0  0  0
  3  2  2  0  0  0  0
  4  5  2  0  0  0  0
  4  3  1  0  0  0  0
  5  6  1  0  0  0  0
  6 21  1  0  0  0  0
  6  1  2  0  0  0  0
  9  4  1  0  0  0  0
 10  5  1  0  0  0  0
 11 12  3  0  0  0  0
 13 17  1  0  0  0  0
 13 16  2  0  0  0  0
 14 13  1  0  0  0  0
 15 13  2  0  0  0  0
 17  3  1  0  0  0  0
 18 14  1  0  0  0  0
 19 14  1  0  0  0  0
 20 14  1  0  0  0  0
M  END
