Coordinates from ORCA-job Ph-N2-OTf-B3LYPG-aug-cc-pVDZ-scan-d09-49-n400
 OpenBabel07022015323D

 21 19  0  0  0  0  0  0  0  0999 V2000
   -1.1721   -0.7866   -4.4646 C   0  0  0  0  0  0  0  0  0  0  0  0
   -0.3659    0.3488   -4.8060 C   0  0  0  0  0  0  0  0  0  0  0  0
   -1.1908    1.2999   -5.1745 C   0  0  0  0  0  0  0  0  0  0  0  0
   -2.5017    1.5798   -5.3501 C   0  0  0  0  0  0  0  0  0  0  0  0
   -3.2292    0.4140   -4.9988 C   0  0  0  0  0  0  0  0  0  0  0  0
   -2.5660   -0.7405   -4.5611 C   0  0  0  0  0  0  0  0  0  0  0  0
   -0.6486   -1.6861   -4.1382 H   0  0  0  0  0  0  0  0  0  0  0  0
    0.8086    0.3067   -4.7998 H   0  0  0  0  0  0  0  0  0  0  0  0
   -2.9505    2.5057   -5.6931 H   0  0  0  0  0  0  0  0  0  0  0  0
   -4.3165    0.4513   -5.0787 H   0  0  0  0  0  0  0  0  0  0  0  0
   -0.1162    3.3976   -5.5925 N   0  0  0  0  0  0  0  0  0  0  0  0
    0.3950    4.3626   -5.7465 N   0  0  0  0  0  0  0  0  0  0  0  0
    2.8296    0.8392   -6.1543 S   0  0  0  0  0  0  0  0  0  0  0  0
    3.0362   -0.6756   -7.2746 C   0  0  0  0  0  0  0  0  0  0  0  0
    4.1877    1.4125   -6.0200 O   0  0  0  0  0  0  0  0  0  0  0  0
    2.3004    0.2001   -4.8536 O   0  0  0  0  0  0  0  0  0  0  0  0
    1.7731    1.6506   -6.8379 O   0  0  0  0  0  0  0  0  0  0  0  0
    3.4431   -0.2972   -8.4963 F   0  0  0  0  0  0  0  0  0  0  0  0
    3.9366   -1.5299   -6.7638 F   0  0  0  0  0  0  0  0  0  0  0  0
    1.8570   -1.3245   -7.3996 F   0  0  0  0  0  0  0  0  0  0  0  0
   -3.1481   -1.6217   -4.2930 H   0  0  0  0  0  0  0  0  0  0  0  0
  1  7  1  0  0  0  0
  2  8  1  0  0  0  0
  2  1  2  0  0  0  0
  3  2  1  0  0  0  0
  4  3  2  0  0  0  0
  4  5  1  0  0  0  0
  5  6  2  0  0  0  0
  6  1  1  0  0  0  0
  6 21  1  0  0  0  0
  9  4  1  0  0  0  0
 10  5  1  0  0  0  0
 12 11  3  0  0  0  0
 13 15  2  0  0  0  0
 13 16  1  0  0  0  0
 14 19  1  0  0  0  0
 14 13  1  0  0  0  0
 17 13  2  0  0  0  0
 18 14  1  0  0  0  0
 20 14  1  0  0  0  0
M  RAD  2   3   2  16   2
M  END
