Coordinates from ORCA-job Ph-N2-OTf-B3LYPG-aug-cc-pVDZ-scan-d09-49-n400
 OpenBabel07022015323D

 21 20  0  0  0  0  0  0  0  0999 V2000
   -1.2639   -0.1452   -3.6068 C   0  0  0  0  0  0  0  0  0  0  0  0
   -0.0407    0.3200   -4.0974 C   0  0  0  0  0  0  0  0  0  0  0  0
    0.0578    0.6311   -5.4526 C   0  0  0  0  0  0  0  0  0  0  0  0
   -1.0257    0.5102   -6.3212 C   0  0  0  0  0  0  0  0  0  0  0  0
   -2.2455    0.0539   -5.8132 C   0  0  0  0  0  0  0  0  0  0  0  0
   -2.3645   -0.2785   -4.4599 C   0  0  0  0  0  0  0  0  0  0  0  0
   -1.3547   -0.4011   -2.5511 H   0  0  0  0  0  0  0  0  0  0  0  0
    0.8222    0.4382   -3.4457 H   0  0  0  0  0  0  0  0  0  0  0  0
   -0.9131    0.7805   -7.3699 H   0  0  0  0  0  0  0  0  0  0  0  0
   -3.1026   -0.0456   -6.4795 H   0  0  0  0  0  0  0  0  0  0  0  0
   -0.8482    4.4350   -4.6213 N   0  0  0  0  0  0  0  0  0  0  0  0
   -1.7451    4.8942   -4.1700 N   0  0  0  0  0  0  0  0  0  0  0  0
    2.6302    0.2565   -6.0945 S   0  0  0  0  0  0  0  0  0  0  0  0
    2.4072   -0.4297   -7.8578 C   0  0  0  0  0  0  0  0  0  0  0  0
    3.7392    1.2157   -6.1486 O   0  0  0  0  0  0  0  0  0  0  0  0
    2.5867   -0.8927   -5.1756 O   0  0  0  0  0  0  0  0  0  0  0  0
    1.2497    1.1863   -5.9701 O   0  0  0  0  0  0  0  0  0  0  0  0
    2.2551    0.5774   -8.7198 F   0  0  0  0  0  0  0  0  0  0  0  0
    3.4990   -1.1316   -8.1711 F   0  0  0  0  0  0  0  0  0  0  0  0
    1.3332   -1.2253   -7.9018 F   0  0  0  0  0  0  0  0  0  0  0  0
   -3.3145   -0.6425   -4.0695 H   0  0  0  0  0  0  0  0  0  0  0  0
  1  7  1  0  0  0  0
  2  1  1  0  0  0  0
  2  8  1  0  0  0  0
  3  2  2  0  0  0  0
  4  5  2  0  0  0  0
  4  3  1  0  0  0  0
  5  6  1  0  0  0  0
  6 21  1  0  0  0  0
  6  1  2  0  0  0  0
  9  4  1  0  0  0  0
 10  5  1  0  0  0  0
 11 12  3  0  0  0  0
 13 17  1  0  0  0  0
 13 16  2  0  0  0  0
 14 13  1  0  0  0  0
 15 13  2  0  0  0  0
 17  3  1  0  0  0  0
 18 14  1  0  0  0  0
 19 14  1  0  0  0  0
 20 14  1  0  0  0  0
M  END
