Coordinates from ORCA-job Ph-N2-OTf-B3LYPG-aug-cc-pVDZ-scan-d09-49-n400
 OpenBabel07022015323D

 21 20  0  0  0  0  0  0  0  0999 V2000
   -1.2815   -0.7289   -4.3615 C   0  0  0  0  0  0  0  0  0  0  0  0
   -0.4377    0.2940   -4.8440 C   0  0  0  0  0  0  0  0  0  0  0  0
   -1.1545    1.3524   -5.3055 C   0  0  0  0  0  0  0  0  0  0  0  0
   -2.5023    1.6119   -5.3930 C   0  0  0  0  0  0  0  0  0  0  0  0
   -3.2837    0.5546   -4.9012 C   0  0  0  0  0  0  0  0  0  0  0  0
   -2.6732   -0.5994   -4.3916 C   0  0  0  0  0  0  0  0  0  0  0  0
   -0.8113   -1.6285   -3.9656 H   0  0  0  0  0  0  0  0  0  0  0  0
    0.6643    0.2040   -4.8435 H   0  0  0  0  0  0  0  0  0  0  0  0
   -2.9273    2.5252   -5.7982 H   0  0  0  0  0  0  0  0  0  0  0  0
   -4.3691    0.6501   -4.9258 H   0  0  0  0  0  0  0  0  0  0  0  0
   -0.1998    2.7493   -5.9261 N   0  0  0  0  0  0  0  0  0  0  0  0
    0.0593    3.7643   -6.2750 N   0  0  0  0  0  0  0  0  0  0  0  0
    2.9843    0.7175   -5.9215 S   0  0  0  0  0  0  0  0  0  0  0  0
    3.1894   -0.4650   -7.3897 C   0  0  0  0  0  0  0  0  0  0  0  0
    4.3258    1.3179   -5.7246 O   0  0  0  0  0  0  0  0  0  0  0  0
    2.4703   -0.1838   -4.8234 O   0  0  0  0  0  0  0  0  0  0  0  0
    1.9075    1.6676   -6.4227 O   0  0  0  0  0  0  0  0  0  0  0  0
    3.5735    0.2040   -8.4910 F   0  0  0  0  0  0  0  0  0  0  0  0
    4.1070   -1.4074   -7.1189 F   0  0  0  0  0  0  0  0  0  0  0  0
    2.0162   -1.0828   -7.6603 F   0  0  0  0  0  0  0  0  0  0  0  0
   -3.2954   -1.4106   -4.0141 H   0  0  0  0  0  0  0  0  0  0  0  0
  1  7  1  0  0  0  0
  2  8  1  0  0  0  0
  2  1  2  0  0  0  0
  3  2  1  0  0  0  0
  4  3  2  0  0  0  0
  4  5  1  0  0  0  0
  5  6  2  0  0  0  0
  6  1  1  0  0  0  0
  6 21  1  0  0  0  0
  9  4  1  0  0  0  0
 10  5  1  0  0  0  0
 11  3  1  0  0  0  0
 12 11  1  0  0  0  0
 13 15  2  0  0  0  0
 13 16  1  0  0  0  0
 14 19  1  0  0  0  0
 14 13  1  0  0  0  0
 17 13  2  0  0  0  0
 18 14  1  0  0  0  0
 20 14  1  0  0  0  0
M  RAD  3  11   2  12   3  16   2
M  END
