Coordinates from ORCA-job Ph-N2-OTf-B3LYPG-aug-cc-pVDZ-scan-d09-49-n400
 OpenBabel07022015323D

 21 20  0  0  0  0  0  0  0  0999 V2000
   -1.3261   -0.9452   -5.1010 C   0  0  0  0  0  0  0  0  0  0  0  0
   -0.7747   -0.0582   -6.0222 C   0  0  0  0  0  0  0  0  0  0  0  0
   -1.2053    1.2787   -5.9641 C   0  0  0  0  0  0  0  0  0  0  0  0
   -2.1151    1.7639   -4.9970 C   0  0  0  0  0  0  0  0  0  0  0  0
   -2.6189    0.8567   -4.0796 C   0  0  0  0  0  0  0  0  0  0  0  0
   -2.2312   -0.4941   -4.1387 C   0  0  0  0  0  0  0  0  0  0  0  0
   -1.0064   -1.9853   -5.1134 H   0  0  0  0  0  0  0  0  0  0  0  0
   -0.0333   -0.3649   -6.7529 H   0  0  0  0  0  0  0  0  0  0  0  0
   -2.3968    2.8151   -4.9828 H   0  0  0  0  0  0  0  0  0  0  0  0
   -3.3133    1.1967   -3.3127 H   0  0  0  0  0  0  0  0  0  0  0  0
   -0.7488    2.1733   -6.8828 N   0  0  0  0  0  0  0  0  0  0  0  0
   -0.5210    2.9620   -7.6360 N   0  0  0  0  0  0  0  0  0  0  0  0
    2.5149    0.8995   -5.6006 S   0  0  0  0  0  0  0  0  0  0  0  0
    3.3057   -0.3021   -6.8376 C   0  0  0  0  0  0  0  0  0  0  0  0
    3.6605    1.5767   -4.9448 O   0  0  0  0  0  0  0  0  0  0  0  0
    1.6716   -0.0065   -4.7436 O   0  0  0  0  0  0  0  0  0  0  0  0
    1.6698    1.7725   -6.5113 O   0  0  0  0  0  0  0  0  0  0  0  0
    4.0595    0.3486   -7.7384 F   0  0  0  0  0  0  0  0  0  0  0  0
    4.0713   -1.2091   -6.2109 F   0  0  0  0  0  0  0  0  0  0  0  0
    2.3347   -0.9750   -7.5171 F   0  0  0  0  0  0  0  0  0  0  0  0
   -2.6353   -1.1967   -3.4098 H   0  0  0  0  0  0  0  0  0  0  0  0
  1  6  2  0  0  0  0
  2  3  2  0  0  0  0
  2  1  1  0  0  0  0
  3  4  1  0  0  0  0
  4  9  1  0  0  0  0
  4  5  2  0  0  0  0
  5 10  1  0  0  0  0
  6  5  1  0  0  0  0
  6 21  1  0  0  0  0
  7  1  1  0  0  0  0
  8  2  1  0  0  0  0
 11  3  1  0  0  0  0
 12 11  1  0  0  0  0
 13 15  2  0  0  0  0
 13 16  1  0  0  0  0
 14 19  1  0  0  0  0
 14 13  1  0  0  0  0
 17 13  2  0  0  0  0
 18 14  1  0  0  0  0
 20 14  1  0  0  0  0
M  RAD  3  11   2  12   3  16   2
M  END
