Coordinates from ORCA-job Ph-N2-OTf-B3LYPG-aug-cc-pVDZ-scan-d09-49-n400
 OpenBabel07022015323D

 21 20  0  0  0  0  0  0  0  0999 V2000
   -1.2429   -0.1612   -3.6219 C   0  0  0  0  0  0  0  0  0  0  0  0
   -0.0166    0.2935   -4.1149 C   0  0  0  0  0  0  0  0  0  0  0  0
    0.0841    0.5959   -5.4720 C   0  0  0  0  0  0  0  0  0  0  0  0
   -1.0000    0.4773   -6.3401 C   0  0  0  0  0  0  0  0  0  0  0  0
   -2.2228    0.0318   -5.8297 C   0  0  0  0  0  0  0  0  0  0  0  0
   -2.3441   -0.2923   -4.4746 C   0  0  0  0  0  0  0  0  0  0  0  0
   -1.3354   -0.4105   -2.5649 H   0  0  0  0  0  0  0  0  0  0  0  0
    0.8469    0.4101   -3.4637 H   0  0  0  0  0  0  0  0  0  0  0  0
   -0.8855    0.7412   -7.3902 H   0  0  0  0  0  0  0  0  0  0  0  0
   -3.0804   -0.0658   -6.4955 H   0  0  0  0  0  0  0  0  0  0  0  0
   -1.0424    4.8332   -4.4634 N   0  0  0  0  0  0  0  0  0  0  0  0
   -1.9678    5.2189   -4.0008 N   0  0  0  0  0  0  0  0  0  0  0  0
    2.6534    0.1990   -6.1136 S   0  0  0  0  0  0  0  0  0  0  0  0
    2.4248   -0.4914   -7.8745 C   0  0  0  0  0  0  0  0  0  0  0  0
    3.7697    1.1494   -6.1711 O   0  0  0  0  0  0  0  0  0  0  0  0
    2.6008   -0.9464   -5.1905 O   0  0  0  0  0  0  0  0  0  0  0  0
    1.2801    1.1401   -5.9922 O   0  0  0  0  0  0  0  0  0  0  0  0
    2.2778    0.5140   -8.7394 F   0  0  0  0  0  0  0  0  0  0  0  0
    3.5121   -1.2006   -8.1867 F   0  0  0  0  0  0  0  0  0  0  0  0
    1.3461   -1.2808   -7.9151 F   0  0  0  0  0  0  0  0  0  0  0  0
   -3.2963   -0.6485   -4.0824 H   0  0  0  0  0  0  0  0  0  0  0  0
  1  7  1  0  0  0  0
  2  1  1  0  0  0  0
  2  8  1  0  0  0  0
  3  2  2  0  0  0  0
  4  5  2  0  0  0  0
  4  3  1  0  0  0  0
  5  6  1  0  0  0  0
  6 21  1  0  0  0  0
  6  1  2  0  0  0  0
  9  4  1  0  0  0  0
 10  5  1  0  0  0  0
 11 12  3  0  0  0  0
 13 17  1  0  0  0  0
 13 16  2  0  0  0  0
 14 13  1  0  0  0  0
 15 13  2  0  0  0  0
 17  3  1  0  0  0  0
 18 14  1  0  0  0  0
 19 14  1  0  0  0  0
 20 14  1  0  0  0  0
M  END
