Coordinates from ORCA-job Ph-N2-OTf-B3LYPG-aug-cc-pVDZ-scan-d09-49-n400
 OpenBabel07022015323D

 21 20  0  0  0  0  0  0  0  0999 V2000
   -1.2840   -0.1161   -3.5920 C   0  0  0  0  0  0  0  0  0  0  0  0
   -0.0630    0.3573   -4.0805 C   0  0  0  0  0  0  0  0  0  0  0  0
    0.0337    0.6765   -5.4339 C   0  0  0  0  0  0  0  0  0  0  0  0
   -1.0488    0.5532   -6.3032 C   0  0  0  0  0  0  0  0  0  0  0  0
   -2.2665    0.0887   -5.7974 C   0  0  0  0  0  0  0  0  0  0  0  0
   -2.3841   -0.2503   -4.4455 C   0  0  0  0  0  0  0  0  0  0  0  0
   -1.3734   -0.3776   -2.5377 H   0  0  0  0  0  0  0  0  0  0  0  0
    0.7994    0.4759   -3.4283 H   0  0  0  0  0  0  0  0  0  0  0  0
   -0.9375    0.8282   -7.3507 H   0  0  0  0  0  0  0  0  0  0  0  0
   -3.1229   -0.0123   -6.4643 H   0  0  0  0  0  0  0  0  0  0  0  0
   -0.6576    3.9783   -4.7792 N   0  0  0  0  0  0  0  0  0  0  0  0
   -1.5301    4.4924   -4.3392 N   0  0  0  0  0  0  0  0  0  0  0  0
    2.6077    0.3165   -6.0756 S   0  0  0  0  0  0  0  0  0  0  0  0
    2.3869   -0.3698   -7.8391 C   0  0  0  0  0  0  0  0  0  0  0  0
    3.7115    1.2816   -6.1301 O   0  0  0  0  0  0  0  0  0  0  0  0
    2.5718   -0.8337   -5.1577 O   0  0  0  0  0  0  0  0  0  0  0  0
    1.2228    1.2387   -5.9492 O   0  0  0  0  0  0  0  0  0  0  0  0
    2.2298    0.6369   -8.7008 F   0  0  0  0  0  0  0  0  0  0  0  0
    3.4818   -1.0666   -8.1532 F   0  0  0  0  0  0  0  0  0  0  0  0
    1.3166   -1.1704   -7.8830 F   0  0  0  0  0  0  0  0  0  0  0  0
   -3.3325   -0.6203   -4.0568 H   0  0  0  0  0  0  0  0  0  0  0  0
  1  7  1  0  0  0  0
  2  1  1  0  0  0  0
  2  8  1  0  0  0  0
  3  2  2  0  0  0  0
  4  5  2  0  0  0  0
  4  3  1  0  0  0  0
  5  6  1  0  0  0  0
  6 21  1  0  0  0  0
  6  1  2  0  0  0  0
  9  4  1  0  0  0  0
 10  5  1  0  0  0  0
 11 12  3  0  0  0  0
 13 17  1  0  0  0  0
 13 16  2  0  0  0  0
 14 13  1  0  0  0  0
 15 13  2  0  0  0  0
 17  3  1  0  0  0  0
 18 14  1  0  0  0  0
 19 14  1  0  0  0  0
 20 14  1  0  0  0  0
M  END
