Coordinates from ORCA-job Ph-N2-OTf-B3LYPG-aug-cc-pVDZ-scan-d09-49-n400
 OpenBabel07022015323D

 21 20  0  0  0  0  0  0  0  0999 V2000
   -1.2591   -0.1488   -3.6101 C   0  0  0  0  0  0  0  0  0  0  0  0
   -0.0351    0.3138   -4.1012 C   0  0  0  0  0  0  0  0  0  0  0  0
    0.0640    0.6233   -5.4568 C   0  0  0  0  0  0  0  0  0  0  0  0
   -1.0196    0.5035   -6.3252 C   0  0  0  0  0  0  0  0  0  0  0  0
   -2.2403    0.0498   -5.8168 C   0  0  0  0  0  0  0  0  0  0  0  0
   -2.3599   -0.2810   -4.4631 C   0  0  0  0  0  0  0  0  0  0  0  0
   -1.3503   -0.4034   -2.5542 H   0  0  0  0  0  0  0  0  0  0  0  0
    0.8281    0.4313   -3.4496 H   0  0  0  0  0  0  0  0  0  0  0  0
   -0.9066    0.7727   -7.3741 H   0  0  0  0  0  0  0  0  0  0  0  0
   -3.0975   -0.0488   -6.4829 H   0  0  0  0  0  0  0  0  0  0  0  0
   -0.8926    4.5225   -4.5867 N   0  0  0  0  0  0  0  0  0  0  0  0
   -1.7964    4.9652   -4.1328 N   0  0  0  0  0  0  0  0  0  0  0  0
    2.6357    0.2436   -6.0988 S   0  0  0  0  0  0  0  0  0  0  0  0
    2.4109   -0.4437   -7.8615 C   0  0  0  0  0  0  0  0  0  0  0  0
    3.7464    1.2006   -6.1540 O   0  0  0  0  0  0  0  0  0  0  0  0
    2.5903   -0.9048   -5.1789 O   0  0  0  0  0  0  0  0  0  0  0  0
    1.2569    1.1760   -5.9747 O   0  0  0  0  0  0  0  0  0  0  0  0
    2.2598    0.5631   -8.7242 F   0  0  0  0  0  0  0  0  0  0  0  0
    3.5016   -1.1472   -8.1748 F   0  0  0  0  0  0  0  0  0  0  0  0
    1.3358   -1.2378   -7.9044 F   0  0  0  0  0  0  0  0  0  0  0  0
   -3.3105   -0.6431   -4.0724 H   0  0  0  0  0  0  0  0  0  0  0  0
  1  7  1  0  0  0  0
  2  1  1  0  0  0  0
  2  8  1  0  0  0  0
  3  2  2  0  0  0  0
  4  5  2  0  0  0  0
  4  3  1  0  0  0  0
  5  6  1  0  0  0  0
  6 21  1  0  0  0  0
  6  1  2  0  0  0  0
  9  4  1  0  0  0  0
 10  5  1  0  0  0  0
 11 12  3  0  0  0  0
 13 17  1  0  0  0  0
 13 16  2  0  0  0  0
 14 13  1  0  0  0  0
 15 13  2  0  0  0  0
 17  3  1  0  0  0  0
 18 14  1  0  0  0  0
 19 14  1  0  0  0  0
 20 14  1  0  0  0  0
M  END
