Coordinates from ORCA-job Ph-N2-OTf-B3LYPG-aug-cc-pVDZ-scan-d09-49-n400
 OpenBabel07022015323D

 21 20  0  0  0  0  0  0  0  0999 V2000
   -1.3407   -0.9519   -5.0642 C   0  0  0  0  0  0  0  0  0  0  0  0
   -0.7583   -0.0683   -5.9720 C   0  0  0  0  0  0  0  0  0  0  0  0
   -1.1992    1.2569   -5.9220 C   0  0  0  0  0  0  0  0  0  0  0  0
   -2.1407    1.7561   -5.0056 C   0  0  0  0  0  0  0  0  0  0  0  0
   -2.6781    0.8492   -4.1021 C   0  0  0  0  0  0  0  0  0  0  0  0
   -2.2833   -0.4988   -4.1384 C   0  0  0  0  0  0  0  0  0  0  0  0
   -1.0194   -1.9917   -5.0608 H   0  0  0  0  0  0  0  0  0  0  0  0
    0.0125   -0.3740   -6.6715 H   0  0  0  0  0  0  0  0  0  0  0  0
   -2.4242    2.8066   -5.0082 H   0  0  0  0  0  0  0  0  0  0  0  0
   -3.4032    1.1916   -3.3652 H   0  0  0  0  0  0  0  0  0  0  0  0
   -0.6837    2.1995   -6.8678 N   0  0  0  0  0  0  0  0  0  0  0  0
   -0.4845    3.0062   -7.6061 N   0  0  0  0  0  0  0  0  0  0  0  0
    2.5561    0.8974   -5.6093 S   0  0  0  0  0  0  0  0  0  0  0  0
    3.3137   -0.2985   -6.8725 C   0  0  0  0  0  0  0  0  0  0  0  0
    3.7174    1.5914   -5.0008 O   0  0  0  0  0  0  0  0  0  0  0  0
    1.7501   -0.0100   -4.7229 O   0  0  0  0  0  0  0  0  0  0  0  0
    1.6755    1.7641   -6.4979 O   0  0  0  0  0  0  0  0  0  0  0  0
    4.0312    0.3576   -7.7987 F   0  0  0  0  0  0  0  0  0  0  0  0
    4.1070   -1.1989   -6.2718 F   0  0  0  0  0  0  0  0  0  0  0  0
    2.3251   -0.9789   -7.5182 F   0  0  0  0  0  0  0  0  0  0  0  0
   -2.7118   -1.1990   -3.4212 H   0  0  0  0  0  0  0  0  0  0  0  0
  1  7  1  0  0  0  0
  1  6  2  0  0  0  0
  2  3  2  0  0  0  0
  2  1  1  0  0  0  0
  3  4  1  0  0  0  0
  4  5  2  0  0  0  0
  5 10  1  0  0  0  0
  6  5  1  0  0  0  0
  6 21  1  0  0  0  0
  8  2  1  0  0  0  0
  9  4  1  0  0  0  0
 11  3  1  0  0  0  0
 12 11  1  0  0  0  0
 13 15  2  0  0  0  0
 13 16  1  0  0  0  0
 14 19  1  0  0  0  0
 14 13  1  0  0  0  0
 17 13  2  0  0  0  0
 18 14  1  0  0  0  0
 20 14  1  0  0  0  0
M  RAD  3  11   2  12   3  16   2
M  END
