Coordinates from ORCA-job Ph-N2-OTf-B3LYPG-aug-cc-pVDZ-scan-d09-49-n400
 OpenBabel07022015323D

 21 20  0  0  0  0  0  0  0  0999 V2000
   -1.2905   -0.1017   -3.5869 C   0  0  0  0  0  0  0  0  0  0  0  0
   -0.0705    0.3746   -4.0746 C   0  0  0  0  0  0  0  0  0  0  0  0
    0.0254    0.6977   -5.4271 C   0  0  0  0  0  0  0  0  0  0  0  0
   -1.0562    0.5711   -6.2971 C   0  0  0  0  0  0  0  0  0  0  0  0
   -2.2730    0.1036   -5.7922 C   0  0  0  0  0  0  0  0  0  0  0  0
   -2.3904   -0.2367   -4.4406 C   0  0  0  0  0  0  0  0  0  0  0  0
   -1.3794   -0.3654   -2.5331 H   0  0  0  0  0  0  0  0  0  0  0  0
    0.7918    0.4934   -3.4222 H   0  0  0  0  0  0  0  0  0  0  0  0
   -0.9450    0.8464   -7.3446 H   0  0  0  0  0  0  0  0  0  0  0  0
   -3.1288    0.0008   -6.4595 H   0  0  0  0  0  0  0  0  0  0  0  0
   -0.5913    3.7976   -4.8343 N   0  0  0  0  0  0  0  0  0  0  0  0
   -1.4547    4.3310   -4.3993 N   0  0  0  0  0  0  0  0  0  0  0  0
    2.5992    0.3380   -6.0686 S   0  0  0  0  0  0  0  0  0  0  0  0
    2.3787   -0.3487   -7.8321 C   0  0  0  0  0  0  0  0  0  0  0  0
    3.7026    1.3035   -6.1235 O   0  0  0  0  0  0  0  0  0  0  0  0
    2.5642   -0.8122   -5.1506 O   0  0  0  0  0  0  0  0  0  0  0  0
    1.2143    1.2597   -5.9423 O   0  0  0  0  0  0  0  0  0  0  0  0
    2.2204    0.6577   -8.6939 F   0  0  0  0  0  0  0  0  0  0  0  0
    3.4742   -1.0444   -8.1463 F   0  0  0  0  0  0  0  0  0  0  0  0
    1.3091   -1.1503   -7.8758 F   0  0  0  0  0  0  0  0  0  0  0  0
   -3.3381   -0.6091   -4.0525 H   0  0  0  0  0  0  0  0  0  0  0  0
  1  7  1  0  0  0  0
  2  1  1  0  0  0  0
  2  8  1  0  0  0  0
  3  2  2  0  0  0  0
  4  5  2  0  0  0  0
  4  3  1  0  0  0  0
  5  6  1  0  0  0  0
  6 21  1  0  0  0  0
  6  1  2  0  0  0  0
  9  4  1  0  0  0  0
 10  5  1  0  0  0  0
 11 12  3  0  0  0  0
 13 17  1  0  0  0  0
 13 16  2  0  0  0  0
 14 13  1  0  0  0  0
 15 13  2  0  0  0  0
 17  3  1  0  0  0  0
 18 14  1  0  0  0  0
 19 14  1  0  0  0  0
 20 14  1  0  0  0  0
M  END
