Coordinates from ORCA-job Ph-N2-OTf-B3LYPG-aug-cc-pVDZ-scan-d09-49-n400
 OpenBabel07022015323D

 21 20  0  0  0  0  0  0  0  0999 V2000
   -1.2332   -0.1686   -3.6294 C   0  0  0  0  0  0  0  0  0  0  0  0
   -0.0056    0.2810   -4.1237 C   0  0  0  0  0  0  0  0  0  0  0  0
    0.0961    0.5789   -5.4816 C   0  0  0  0  0  0  0  0  0  0  0  0
   -0.9882    0.4610   -6.3494 C   0  0  0  0  0  0  0  0  0  0  0  0
   -2.2124    0.0204   -5.8379 C   0  0  0  0  0  0  0  0  0  0  0  0
   -2.3347   -0.2993   -4.4818 C   0  0  0  0  0  0  0  0  0  0  0  0
   -1.3267   -0.4142   -2.5716 H   0  0  0  0  0  0  0  0  0  0  0  0
    0.8582    0.3972   -3.4727 H   0  0  0  0  0  0  0  0  0  0  0  0
   -0.8730    0.7215   -7.4003 H   0  0  0  0  0  0  0  0  0  0  0  0
   -3.0702   -0.0767   -6.5035 H   0  0  0  0  0  0  0  0  0  0  0  0
   -1.1322    5.0238   -4.3869 N   0  0  0  0  0  0  0  0  0  0  0  0
   -2.0704    5.3714   -3.9199 N   0  0  0  0  0  0  0  0  0  0  0  0
    2.6641    0.1727   -6.1226 S   0  0  0  0  0  0  0  0  0  0  0  0
    2.4332   -0.5207   -7.8821 C   0  0  0  0  0  0  0  0  0  0  0  0
    3.7833    1.1196   -6.1822 O   0  0  0  0  0  0  0  0  0  0  0  0
    2.6079   -0.9706   -5.1971 O   0  0  0  0  0  0  0  0  0  0  0  0
    1.2937    1.1183   -6.0032 O   0  0  0  0  0  0  0  0  0  0  0  0
    2.2882    0.4834   -8.7489 F   0  0  0  0  0  0  0  0  0  0  0  0
    3.5188   -1.2330   -8.1933 F   0  0  0  0  0  0  0  0  0  0  0  0
    1.3527   -1.3077   -7.9208 F   0  0  0  0  0  0  0  0  0  0  0  0
   -3.2879   -0.6515   -4.0886 H   0  0  0  0  0  0  0  0  0  0  0  0
  1  7  1  0  0  0  0
  2  1  1  0  0  0  0
  2  8  1  0  0  0  0
  3  2  2  0  0  0  0
  4  5  2  0  0  0  0
  4  3  1  0  0  0  0
  5  6  1  0  0  0  0
  6 21  1  0  0  0  0
  6  1  2  0  0  0  0
  9  4  1  0  0  0  0
 10  5  1  0  0  0  0
 11 12  3  0  0  0  0
 13 17  1  0  0  0  0
 13 16  2  0  0  0  0
 14 13  1  0  0  0  0
 15 13  2  0  0  0  0
 17  3  1  0  0  0  0
 18 14  1  0  0  0  0
 19 14  1  0  0  0  0
 20 14  1  0  0  0  0
M  END
