Coordinates from ORCA-job Ph-N2-OTf-B3LYPG-aug-cc-pVDZ-scan-d09-49-n400
 OpenBabel07022015323D

 21 20  0  0  0  0  0  0  0  0999 V2000
   -1.2404   -0.1634   -3.6239 C   0  0  0  0  0  0  0  0  0  0  0  0
   -0.0139    0.2901   -4.1171 C   0  0  0  0  0  0  0  0  0  0  0  0
    0.0870    0.5917   -5.4743 C   0  0  0  0  0  0  0  0  0  0  0  0
   -0.9971    0.4734   -6.3423 C   0  0  0  0  0  0  0  0  0  0  0  0
   -2.2202    0.0290   -5.8317 C   0  0  0  0  0  0  0  0  0  0  0  0
   -2.3417   -0.2944   -4.4764 C   0  0  0  0  0  0  0  0  0  0  0  0
   -1.3331   -0.4121   -2.5667 H   0  0  0  0  0  0  0  0  0  0  0  0
    0.8498    0.4065   -3.4660 H   0  0  0  0  0  0  0  0  0  0  0  0
   -0.8825    0.7366   -7.3926 H   0  0  0  0  0  0  0  0  0  0  0  0
   -3.0779   -0.0684   -6.4975 H   0  0  0  0  0  0  0  0  0  0  0  0
   -1.0646    4.8811   -4.4447 N   0  0  0  0  0  0  0  0  0  0  0  0
   -1.9931    5.2577   -3.9809 N   0  0  0  0  0  0  0  0  0  0  0  0
    2.6561    0.1926   -6.1158 S   0  0  0  0  0  0  0  0  0  0  0  0
    2.4268   -0.4988   -7.8763 C   0  0  0  0  0  0  0  0  0  0  0  0
    3.7730    1.1422   -6.1740 O   0  0  0  0  0  0  0  0  0  0  0  0
    2.6027   -0.9522   -5.1920 O   0  0  0  0  0  0  0  0  0  0  0  0
    1.2834    1.1347   -5.9949 O   0  0  0  0  0  0  0  0  0  0  0  0
    2.2802    0.5063   -8.7417 F   0  0  0  0  0  0  0  0  0  0  0  0
    3.5137   -1.2087   -8.1882 F   0  0  0  0  0  0  0  0  0  0  0  0
    1.3477   -1.2876   -7.9162 F   0  0  0  0  0  0  0  0  0  0  0  0
   -3.2941   -0.6498   -4.0841 H   0  0  0  0  0  0  0  0  0  0  0  0
  1  7  1  0  0  0  0
  2  1  1  0  0  0  0
  2  8  1  0  0  0  0
  3  2  2  0  0  0  0
  4  5  2  0  0  0  0
  4  3  1  0  0  0  0
  5  6  1  0  0  0  0
  6 21  1  0  0  0  0
  6  1  2  0  0  0  0
  9  4  1  0  0  0  0
 10  5  1  0  0  0  0
 11 12  3  0  0  0  0
 13 17  1  0  0  0  0
 13 16  2  0  0  0  0
 14 13  1  0  0  0  0
 15 13  2  0  0  0  0
 17  3  1  0  0  0  0
 18 14  1  0  0  0  0
 19 14  1  0  0  0  0
 20 14  1  0  0  0  0
M  END
