Coordinates from ORCA-job Ph-N2-OTf-B3LYPG-aug-cc-pVDZ-scan-d09-49-n400
 OpenBabel07022015323D

 21 20  0  0  0  0  0  0  0  0999 V2000
   -1.3043   -0.7041   -4.3058 C   0  0  0  0  0  0  0  0  0  0  0  0
   -0.4600    0.2680   -4.8598 C   0  0  0  0  0  0  0  0  0  0  0  0
   -1.1175    1.3593   -5.3917 C   0  0  0  0  0  0  0  0  0  0  0  0
   -2.4896    1.5970   -5.4379 C   0  0  0  0  0  0  0  0  0  0  0  0
   -3.2860    0.5988   -4.8756 C   0  0  0  0  0  0  0  0  0  0  0  0
   -2.6933   -0.5424   -4.3148 C   0  0  0  0  0  0  0  0  0  0  0  0
   -0.8517   -1.5933   -3.8694 H   0  0  0  0  0  0  0  0  0  0  0  0
    0.6309    0.1551   -4.8667 H   0  0  0  0  0  0  0  0  0  0  0  0
   -2.9110    2.4949   -5.8829 H   0  0  0  0  0  0  0  0  0  0  0  0
   -4.3693    0.7156   -4.8800 H   0  0  0  0  0  0  0  0  0  0  0  0
   -0.2662    2.5275   -6.0340 N   0  0  0  0  0  0  0  0  0  0  0  0
    0.0200    3.4940   -6.4927 N   0  0  0  0  0  0  0  0  0  0  0  0
    3.0278    0.6488   -5.8280 S   0  0  0  0  0  0  0  0  0  0  0  0
    3.2031   -0.3423   -7.4351 C   0  0  0  0  0  0  0  0  0  0  0  0
    4.3746    1.2190   -5.5852 O   0  0  0  0  0  0  0  0  0  0  0  0
    2.5121   -0.3674   -4.8455 O   0  0  0  0  0  0  0  0  0  0  0  0
    1.9552    1.6692   -6.1994 O   0  0  0  0  0  0  0  0  0  0  0  0
    3.6057    0.4495   -8.4450 F   0  0  0  0  0  0  0  0  0  0  0  0
    4.0950   -1.3351   -7.2867 F   0  0  0  0  0  0  0  0  0  0  0  0
    2.0139   -0.8898   -7.7802 F   0  0  0  0  0  0  0  0  0  0  0  0
   -3.3276   -1.3157   -3.8810 H   0  0  0  0  0  0  0  0  0  0  0  0
  1  7  1  0  0  0  0
  2  1  2  0  0  0  0
  3  2  1  0  0  0  0
  4  3  2  0  0  0  0
  4  5  1  0  0  0  0
  5  6  2  0  0  0  0
  6  1  1  0  0  0  0
  6 21  1  0  0  0  0
  8  2  1  0  0  0  0
  9  4  1  0  0  0  0
 10  5  1  0  0  0  0
 11  3  1  0  0  0  0
 12 11  1  0  0  0  0
 13 15  2  0  0  0  0
 13 16  1  0  0  0  0
 14 19  1  0  0  0  0
 14 13  1  0  0  0  0
 17 13  2  0  0  0  0
 18 14  1  0  0  0  0
 20 14  1  0  0  0  0
M  RAD  3  11   2  12   3  16   2
M  END
