Coordinates from ORCA-job Ph-N2-OTf-B3LYPG-aug-cc-pVDZ-scan-d09-49-n400
 OpenBabel07022015323D

 21 20  0  0  0  0  0  0  0  0999 V2000
   -1.3078   -0.7111   -4.3063 C   0  0  0  0  0  0  0  0  0  0  0  0
   -0.4595    0.2605   -4.8588 C   0  0  0  0  0  0  0  0  0  0  0  0
   -1.1214    1.3473   -5.3838 C   0  0  0  0  0  0  0  0  0  0  0  0
   -2.4877    1.5967   -5.4338 C   0  0  0  0  0  0  0  0  0  0  0  0
   -3.2863    0.5976   -4.8727 C   0  0  0  0  0  0  0  0  0  0  0  0
   -2.6963   -0.5460   -4.3146 C   0  0  0  0  0  0  0  0  0  0  0  0
   -0.8567   -1.6021   -3.8718 H   0  0  0  0  0  0  0  0  0  0  0  0
    0.6321    0.1451   -4.8657 H   0  0  0  0  0  0  0  0  0  0  0  0
   -2.9057    2.4969   -5.8770 H   0  0  0  0  0  0  0  0  0  0  0  0
   -4.3693    0.7178   -4.8769 H   0  0  0  0  0  0  0  0  0  0  0  0
   -0.2455    2.5444   -6.0395 N   0  0  0  0  0  0  0  0  0  0  0  0
    0.0126    3.5208   -6.4927 N   0  0  0  0  0  0  0  0  0  0  0  0
    3.0237    0.6544   -5.8335 S   0  0  0  0  0  0  0  0  0  0  0  0
    3.2059   -0.3463   -7.4340 C   0  0  0  0  0  0  0  0  0  0  0  0
    4.3697    1.2250   -5.5871 O   0  0  0  0  0  0  0  0  0  0  0  0
    2.5032   -0.3559   -4.8474 O   0  0  0  0  0  0  0  0  0  0  0  0
    1.9547    1.6746   -6.2171 O   0  0  0  0  0  0  0  0  0  0  0  0
    3.6118    0.4398   -8.4467 F   0  0  0  0  0  0  0  0  0  0  0  0
    4.0981   -1.3373   -7.2758 F   0  0  0  0  0  0  0  0  0  0  0  0
    2.0186   -0.8968   -7.7798 F   0  0  0  0  0  0  0  0  0  0  0  0
   -3.3324   -1.3186   -3.8824 H   0  0  0  0  0  0  0  0  0  0  0  0
  1  7  1  0  0  0  0
  2  1  2  0  0  0  0
  3  2  1  0  0  0  0
  4  3  2  0  0  0  0
  4  5  1  0  0  0  0
  5  6  2  0  0  0  0
  6  1  1  0  0  0  0
  6 21  1  0  0  0  0
  8  2  1  0  0  0  0
  9  4  1  0  0  0  0
 10  5  1  0  0  0  0
 11  3  1  0  0  0  0
 12 11  1  0  0  0  0
 13 15  2  0  0  0  0
 13 16  1  0  0  0  0
 14 19  1  0  0  0  0
 14 13  1  0  0  0  0
 17 13  2  0  0  0  0
 18 14  1  0  0  0  0
 20 14  1  0  0  0  0
M  RAD  3  11   2  12   3  16   2
M  END
