Coordinates from ORCA-job Ph-N2-OTf-B3LYPG-aug-cc-pVDZ-scan-d09-49-n400
 OpenBabel07022015323D

 21 20  0  0  0  0  0  0  0  0999 V2000
   -1.2800   -0.1230   -3.5946 C   0  0  0  0  0  0  0  0  0  0  0  0
   -0.0585    0.3487   -4.0835 C   0  0  0  0  0  0  0  0  0  0  0  0
    0.0387    0.6660   -5.4373 C   0  0  0  0  0  0  0  0  0  0  0  0
   -1.0441    0.5435   -6.3064 C   0  0  0  0  0  0  0  0  0  0  0  0
   -2.2622    0.0806   -5.8003 C   0  0  0  0  0  0  0  0  0  0  0  0
   -2.3801   -0.2572   -4.4482 C   0  0  0  0  0  0  0  0  0  0  0  0
   -1.3697   -0.3835   -2.5400 H   0  0  0  0  0  0  0  0  0  0  0  0
    0.8040    0.4673   -3.4314 H   0  0  0  0  0  0  0  0  0  0  0  0
   -0.9326    0.8178   -7.3541 H   0  0  0  0  0  0  0  0  0  0  0  0
   -3.1187   -0.0200   -6.4670 H   0  0  0  0  0  0  0  0  0  0  0  0
   -0.6973    4.0767   -4.7478 N   0  0  0  0  0  0  0  0  0  0  0  0
   -1.5743    4.5815   -4.3061 N   0  0  0  0  0  0  0  0  0  0  0  0
    2.6123    0.3033   -6.0794 S   0  0  0  0  0  0  0  0  0  0  0  0
    2.3914   -0.3815   -7.8435 C   0  0  0  0  0  0  0  0  0  0  0  0
    3.7173    1.2671   -6.1328 O   0  0  0  0  0  0  0  0  0  0  0  0
    2.5744   -0.8475   -5.1622 O   0  0  0  0  0  0  0  0  0  0  0  0
    1.2284    1.2271   -5.9529 O   0  0  0  0  0  0  0  0  0  0  0  0
    2.2357    0.6260   -8.7044 F   0  0  0  0  0  0  0  0  0  0  0  0
    3.4856   -1.0792   -8.1578 F   0  0  0  0  0  0  0  0  0  0  0  0
    1.3201   -1.1808   -7.8883 F   0  0  0  0  0  0  0  0  0  0  0  0
   -3.3288   -0.6261   -4.0591 H   0  0  0  0  0  0  0  0  0  0  0  0
  1  7  1  0  0  0  0
  2  1  1  0  0  0  0
  2  8  1  0  0  0  0
  3  2  2  0  0  0  0
  4  5  2  0  0  0  0
  4  3  1  0  0  0  0
  5  6  1  0  0  0  0
  6 21  1  0  0  0  0
  6  1  2  0  0  0  0
  9  4  1  0  0  0  0
 10  5  1  0  0  0  0
 11 12  3  0  0  0  0
 13 17  1  0  0  0  0
 13 16  2  0  0  0  0
 14 13  1  0  0  0  0
 15 13  2  0  0  0  0
 17  3  1  0  0  0  0
 18 14  1  0  0  0  0
 19 14  1  0  0  0  0
 20 14  1  0  0  0  0
M  END
