Coordinates from ORCA-job Ph-N2-OTf-B3LYPG-aug-cc-pVDZ-scan-d09-49-n400
 OpenBabel07022015323D

 21 20  0  0  0  0  0  0  0  0999 V2000
   -1.2935   -0.0866   -3.5839 C   0  0  0  0  0  0  0  0  0  0  0  0
   -0.0741    0.3917   -4.0709 C   0  0  0  0  0  0  0  0  0  0  0  0
    0.0210    0.7193   -5.4223 C   0  0  0  0  0  0  0  0  0  0  0  0
   -1.0597    0.5902   -6.2929 C   0  0  0  0  0  0  0  0  0  0  0  0
   -2.2760    0.1207   -5.7889 C   0  0  0  0  0  0  0  0  0  0  0  0
   -2.3934   -0.2210   -4.4377 C   0  0  0  0  0  0  0  0  0  0  0  0
   -1.3819   -0.3527   -2.5307 H   0  0  0  0  0  0  0  0  0  0  0  0
    0.7880    0.5101   -3.4182 H   0  0  0  0  0  0  0  0  0  0  0  0
   -0.9486    0.8660   -7.3402 H   0  0  0  0  0  0  0  0  0  0  0  0
   -3.1314    0.0170   -6.4567 H   0  0  0  0  0  0  0  0  0  0  0  0
   -0.5525    3.6385   -4.8733 N   0  0  0  0  0  0  0  0  0  0  0  0
   -1.4084    4.1869   -4.4418 N   0  0  0  0  0  0  0  0  0  0  0  0
    2.5938    0.3538   -6.0637 S   0  0  0  0  0  0  0  0  0  0  0  0
    2.3713   -0.3351   -7.8260 C   0  0  0  0  0  0  0  0  0  0  0  0
    3.6986    1.3176   -6.1207 O   0  0  0  0  0  0  0  0  0  0  0  0
    2.5581   -0.7951   -5.1441 O   0  0  0  0  0  0  0  0  0  0  0  0
    1.2107    1.2780   -5.9378 O   0  0  0  0  0  0  0  0  0  0  0  0
    2.2127    0.6703   -8.6890 F   0  0  0  0  0  0  0  0  0  0  0  0
    3.4663   -1.0315   -8.1403 F   0  0  0  0  0  0  0  0  0  0  0  0
    1.3014   -1.1364   -7.8679 F   0  0  0  0  0  0  0  0  0  0  0  0
   -3.3408   -0.5949   -4.0502 H   0  0  0  0  0  0  0  0  0  0  0  0
  1  7  1  0  0  0  0
  2  1  1  0  0  0  0
  2  8  1  0  0  0  0
  3  2  2  0  0  0  0
  4  5  2  0  0  0  0
  4  3  1  0  0  0  0
  5  6  1  0  0  0  0
  6 21  1  0  0  0  0
  6  1  2  0  0  0  0
  9  4  1  0  0  0  0
 10  5  1  0  0  0  0
 11 12  3  0  0  0  0
 13 17  1  0  0  0  0
 13 16  2  0  0  0  0
 14 13  1  0  0  0  0
 15 13  2  0  0  0  0
 17  3  1  0  0  0  0
 18 14  1  0  0  0  0
 19 14  1  0  0  0  0
 20 14  1  0  0  0  0
M  END
