Coordinates from ORCA-job Ph-N2-OTf-B3LYPG-aug-cc-pVDZ-scan-d09-49-n400
 OpenBabel07022015323D

 21 21  0  0  1  0  0  0  0  0999 V2000
   -0.8539   -0.7044   -5.4711 C   0  0  0  0  0  0  0  0  0  0  0  0
   -0.3460    0.5458   -6.0959 C   0  0  1  0  0  0  0  0  0  0  0  0
   -1.2207    1.7690   -5.8130 C   0  0  0  0  0  0  0  0  0  0  0  0
   -2.1094    1.7223   -4.6362 C   0  0  0  0  0  0  0  0  0  0  0  0
   -2.3532    0.5558   -3.9986 C   0  0  0  0  0  0  0  0  0  0  0  0
   -1.7627   -0.6824   -4.4732 C   0  0  0  0  0  0  0  0  0  0  0  0
   -0.4238   -1.6397   -5.8253 H   0  0  0  0  0  0  0  0  0  0  0  0
   -0.1612    0.4550   -7.1706 H   0  0  0  0  0  0  0  0  0  0  0  0
   -2.5663    2.6621   -4.3273 H   0  0  0  0  0  0  0  0  0  0  0  0
   -3.0177    0.5358   -3.1356 H   0  0  0  0  0  0  0  0  0  0  0  0
   -1.1411    2.6313   -6.4422 N   0  0  0  0  0  0  0  0  0  0  0  0
   -1.0494    3.5623   -7.1251 N   0  0  0  0  0  0  0  0  0  0  0  0
    2.3533    0.9453   -6.4224 S   0  0  0  0  0  0  0  0  0  0  0  0
    3.0770   -0.7913   -6.1511 C   0  0  0  0  0  0  0  0  0  0  0  0
    3.2801    1.8900   -5.7858 O   0  0  0  0  0  0  0  0  0  0  0  0
    1.0210    0.8423   -5.4734 O   0  0  0  0  0  0  0  0  0  0  0  0
    1.9750    1.0229   -7.8483 O   0  0  0  0  0  0  0  0  0  0  0  0
    4.2103   -0.8928   -6.8490 F   0  0  0  0  0  0  0  0  0  0  0  0
    3.3252   -0.9904   -4.8558 F   0  0  0  0  0  0  0  0  0  0  0  0
    2.2026   -1.7133   -6.5852 F   0  0  0  0  0  0  0  0  0  0  0  0
   -2.0774   -1.6189   -4.0121 H   0  0  0  0  0  0  0  0  0  0  0  0
  1  6  2  0  0  0  0
  2  8  1  6  0  0  0
  2  3  1  0  0  0  0
  2 16  1  0  0  0  0
  2  1  1  0  0  0  0
  3  4  2  0  0  0  0
  4  9  1  0  0  0  0
  4  5  1  0  0  0  0
  5 10  1  0  0  0  0
  6 21  1  0  0  0  0
  6  5  1  0  0  0  0
  7  1  1  0  0  0  0
 11  3  1  0  0  0  0
 12 11  1  0  0  0  0
 13 14  1  0  0  0  0
 13 15  2  0  0  0  0
 13 16  1  0  0  0  0
 14 19  1  0  0  0  0
 17 13  2  0  0  0  0
 18 14  1  0  0  0  0
 20 14  1  0  0  0  0
M  RAD  3   5   2  11   2  12   3
M  END
