Coordinates from ORCA-job Ph-N2-OTf-B3LYPG-aug-cc-pVDZ-scan-d09-49-n400
 OpenBabel07022015323D

 21 20  0  0  0  0  0  0  0  0999 V2000
   -1.2786   -0.1252   -3.5956 C   0  0  0  0  0  0  0  0  0  0  0  0
   -0.0571    0.3460   -4.0846 C   0  0  0  0  0  0  0  0  0  0  0  0
    0.0403    0.6626   -5.4386 C   0  0  0  0  0  0  0  0  0  0  0  0
   -1.0425    0.5401   -6.3077 C   0  0  0  0  0  0  0  0  0  0  0  0
   -2.2608    0.0778   -5.8013 C   0  0  0  0  0  0  0  0  0  0  0  0
   -2.3788   -0.2594   -4.4491 C   0  0  0  0  0  0  0  0  0  0  0  0
   -1.3684   -0.3851   -2.5409 H   0  0  0  0  0  0  0  0  0  0  0  0
    0.8055    0.4646   -3.4325 H   0  0  0  0  0  0  0  0  0  0  0  0
   -0.9309    0.8141   -7.3555 H   0  0  0  0  0  0  0  0  0  0  0  0
   -3.1174   -0.0227   -6.4680 H   0  0  0  0  0  0  0  0  0  0  0  0
   -0.7105    4.1094   -4.7369 N   0  0  0  0  0  0  0  0  0  0  0  0
   -1.5889    4.6110   -4.2944 N   0  0  0  0  0  0  0  0  0  0  0  0
    2.6139    0.2990   -6.0807 S   0  0  0  0  0  0  0  0  0  0  0  0
    2.3929   -0.3855   -7.8449 C   0  0  0  0  0  0  0  0  0  0  0  0
    3.7192    1.2624   -6.1339 O   0  0  0  0  0  0  0  0  0  0  0  0
    2.5754   -0.8518   -5.1636 O   0  0  0  0  0  0  0  0  0  0  0  0
    1.2302    1.2233   -5.9544 O   0  0  0  0  0  0  0  0  0  0  0  0
    2.2376    0.6222   -8.7057 F   0  0  0  0  0  0  0  0  0  0  0  0
    3.4869   -1.0835   -8.1592 F   0  0  0  0  0  0  0  0  0  0  0  0
    1.3214   -1.1844   -7.8900 F   0  0  0  0  0  0  0  0  0  0  0  0
   -3.3276   -0.6279   -4.0599 H   0  0  0  0  0  0  0  0  0  0  0  0
  1  7  1  0  0  0  0
  2  1  1  0  0  0  0
  2  8  1  0  0  0  0
  3  2  2  0  0  0  0
  4  5  2  0  0  0  0
  4  3  1  0  0  0  0
  5  6  1  0  0  0  0
  6 21  1  0  0  0  0
  6  1  2  0  0  0  0
  9  4  1  0  0  0  0
 10  5  1  0  0  0  0
 11 12  3  0  0  0  0
 13 17  1  0  0  0  0
 13 16  2  0  0  0  0
 14 13  1  0  0  0  0
 15 13  2  0  0  0  0
 17  3  1  0  0  0  0
 18 14  1  0  0  0  0
 19 14  1  0  0  0  0
 20 14  1  0  0  0  0
M  END
