Coordinates from ORCA-job Ph-N2-OTf-B3LYPG-aug-cc-pVDZ-scan-d09-49-n400
 OpenBabel07022015323D

 21 20  0  0  0  0  0  0  0  0999 V2000
   -1.2804   -0.7312   -4.3672 C   0  0  0  0  0  0  0  0  0  0  0  0
   -0.4365    0.2959   -4.8433 C   0  0  0  0  0  0  0  0  0  0  0  0
   -1.1583    1.3516   -5.2971 C   0  0  0  0  0  0  0  0  0  0  0  0
   -2.5036    1.6145   -5.3865 C   0  0  0  0  0  0  0  0  0  0  0  0
   -3.2840    0.5525   -4.9011 C   0  0  0  0  0  0  0  0  0  0  0  0
   -2.6723   -0.6034   -4.3976 C   0  0  0  0  0  0  0  0  0  0  0  0
   -0.8084   -1.6321   -3.9761 H   0  0  0  0  0  0  0  0  0  0  0  0
    0.6668    0.2060   -4.8430 H   0  0  0  0  0  0  0  0  0  0  0  0
   -2.9285    2.5298   -5.7871 H   0  0  0  0  0  0  0  0  0  0  0  0
   -4.3695    0.6472   -4.9263 H   0  0  0  0  0  0  0  0  0  0  0  0
   -0.1953    2.7700   -5.9148 N   0  0  0  0  0  0  0  0  0  0  0  0
    0.0645    3.7878   -6.2541 N   0  0  0  0  0  0  0  0  0  0  0  0
    2.9764    0.7227   -5.9332 S   0  0  0  0  0  0  0  0  0  0  0  0
    3.1933   -0.4766   -7.3859 C   0  0  0  0  0  0  0  0  0  0  0  0
    4.3147    1.3306   -5.7365 O   0  0  0  0  0  0  0  0  0  0  0  0
    2.4624   -0.1686   -4.8261 O   0  0  0  0  0  0  0  0  0  0  0  0
    1.8969    1.6607   -6.4490 O   0  0  0  0  0  0  0  0  0  0  0  0
    3.5797    0.1810   -8.4932 F   0  0  0  0  0  0  0  0  0  0  0  0
    4.1136   -1.4115   -7.0996 F   0  0  0  0  0  0  0  0  0  0  0  0
    2.0241   -1.1025   -7.6545 F   0  0  0  0  0  0  0  0  0  0  0  0
   -3.2937   -1.4176   -4.0251 H   0  0  0  0  0  0  0  0  0  0  0  0
  1  7  1  0  0  0  0
  2  8  1  0  0  0  0
  2  1  2  0  0  0  0
  3  2  1  0  0  0  0
  4  3  2  0  0  0  0
  4  5  1  0  0  0  0
  5  6  2  0  0  0  0
  6  1  1  0  0  0  0
  6 21  1  0  0  0  0
  9  4  1  0  0  0  0
 10  5  1  0  0  0  0
 11  3  1  0  0  0  0
 12 11  1  0  0  0  0
 13 15  2  0  0  0  0
 13 16  1  0  0  0  0
 14 19  1  0  0  0  0
 14 13  1  0  0  0  0
 17 13  2  0  0  0  0
 18 14  1  0  0  0  0
 20 14  1  0  0  0  0
M  RAD  3  11   2  12   3  16   2
M  END
