Coordinates from ORCA-job Ph-N2-OTf-B3LYPG-aug-cc-pVDZ-scan-d09-49-n400
 OpenBabel07022015323D

 21 20  0  0  0  0  0  0  0  0999 V2000
   -1.2936   -0.0857   -3.5837 C   0  0  0  0  0  0  0  0  0  0  0  0
   -0.0743    0.3926   -4.0707 C   0  0  0  0  0  0  0  0  0  0  0  0
    0.0208    0.7205   -5.4221 C   0  0  0  0  0  0  0  0  0  0  0  0
   -1.0598    0.5911   -6.2927 C   0  0  0  0  0  0  0  0  0  0  0  0
   -2.2761    0.1216   -5.7888 C   0  0  0  0  0  0  0  0  0  0  0  0
   -2.3936   -0.2201   -4.4375 C   0  0  0  0  0  0  0  0  0  0  0  0
   -1.3820   -0.3519   -2.5305 H   0  0  0  0  0  0  0  0  0  0  0  0
    0.7879    0.5111   -3.4180 H   0  0  0  0  0  0  0  0  0  0  0  0
   -0.9487    0.8670   -7.3400 H   0  0  0  0  0  0  0  0  0  0  0  0
   -3.1315    0.0178   -6.4565 H   0  0  0  0  0  0  0  0  0  0  0  0
   -0.5506    3.6302   -4.8752 N   0  0  0  0  0  0  0  0  0  0  0  0
   -1.4061    4.1793   -4.4439 N   0  0  0  0  0  0  0  0  0  0  0  0
    2.5935    0.3546   -6.0634 S   0  0  0  0  0  0  0  0  0  0  0  0
    2.3709   -0.3344   -7.8258 C   0  0  0  0  0  0  0  0  0  0  0  0
    3.6984    1.3182   -6.1206 O   0  0  0  0  0  0  0  0  0  0  0  0
    2.5578   -0.7942   -5.1438 O   0  0  0  0  0  0  0  0  0  0  0  0
    1.2106    1.2790   -5.9376 O   0  0  0  0  0  0  0  0  0  0  0  0
    2.2123    0.6710   -8.6888 F   0  0  0  0  0  0  0  0  0  0  0  0
    3.4659   -1.0309   -8.1401 F   0  0  0  0  0  0  0  0  0  0  0  0
    1.3010   -1.1357   -7.8676 F   0  0  0  0  0  0  0  0  0  0  0  0
   -3.3409   -0.5941   -4.0500 H   0  0  0  0  0  0  0  0  0  0  0  0
  1  7  1  0  0  0  0
  2  1  1  0  0  0  0
  2  8  1  0  0  0  0
  3  2  2  0  0  0  0
  4  5  2  0  0  0  0
  4  3  1  0  0  0  0
  5  6  1  0  0  0  0
  6 21  1  0  0  0  0
  6  1  2  0  0  0  0
  9  4  1  0  0  0  0
 10  5  1  0  0  0  0
 11 12  3  0  0  0  0
 13 17  1  0  0  0  0
 13 16  2  0  0  0  0
 14 13  1  0  0  0  0
 15 13  2  0  0  0  0
 17  3  1  0  0  0  0
 18 14  1  0  0  0  0
 19 14  1  0  0  0  0
 20 14  1  0  0  0  0
M  END
