Coordinates from ORCA-job Ph-N2-OTf-B3LYPG-aug-cc-pVDZ-scan-d09-49-n400
 OpenBabel07022015323D

 21 19  0  0  0  0  0  0  0  0999 V2000
   -1.1657   -0.7960   -4.4382 C   0  0  0  0  0  0  0  0  0  0  0  0
   -0.3589    0.3334   -4.8042 C   0  0  0  0  0  0  0  0  0  0  0  0
   -1.1824    1.2704   -5.1944 C   0  0  0  0  0  0  0  0  0  0  0  0
   -2.4891    1.5544   -5.3843 C   0  0  0  0  0  0  0  0  0  0  0  0
   -3.2189    0.3968   -5.0087 C   0  0  0  0  0  0  0  0  0  0  0  0
   -2.5591   -0.7489   -4.5417 C   0  0  0  0  0  0  0  0  0  0  0  0
   -0.6445   -1.6889   -4.0904 H   0  0  0  0  0  0  0  0  0  0  0  0
    0.8310    0.2831   -4.7999 H   0  0  0  0  0  0  0  0  0  0  0  0
   -2.9340    2.4744   -5.7478 H   0  0  0  0  0  0  0  0  0  0  0  0
   -4.3060    0.4341   -5.0922 H   0  0  0  0  0  0  0  0  0  0  0  0
   -0.1226    3.4886   -5.6142 N   0  0  0  0  0  0  0  0  0  0  0  0
    0.4103    4.4436   -5.7573 N   0  0  0  0  0  0  0  0  0  0  0  0
    2.8285    0.8306   -6.1363 S   0  0  0  0  0  0  0  0  0  0  0  0
    3.0098   -0.6643   -7.2872 C   0  0  0  0  0  0  0  0  0  0  0  0
    4.1969    1.3699   -5.9773 O   0  0  0  0  0  0  0  0  0  0  0  0
    2.2820    0.1697   -4.8482 O   0  0  0  0  0  0  0  0  0  0  0  0
    1.7898    1.6774   -6.8002 O   0  0  0  0  0  0  0  0  0  0  0  0
    3.4289   -0.2666   -8.4982 F   0  0  0  0  0  0  0  0  0  0  0  0
    3.8912   -1.5459   -6.7908 F   0  0  0  0  0  0  0  0  0  0  0  0
    1.8186   -1.2862   -7.4298 F   0  0  0  0  0  0  0  0  0  0  0  0
   -3.1439   -1.6228   -4.2559 H   0  0  0  0  0  0  0  0  0  0  0  0
  1  7  1  0  0  0  0
  2  8  1  0  0  0  0
  2  1  2  0  0  0  0
  3  2  1  0  0  0  0
  4  3  2  0  0  0  0
  4  5  1  0  0  0  0
  5  6  2  0  0  0  0
  6  1  1  0  0  0  0
  6 21  1  0  0  0  0
  9  4  1  0  0  0  0
 10  5  1  0  0  0  0
 12 11  3  0  0  0  0
 13 15  2  0  0  0  0
 13 16  1  0  0  0  0
 14 19  1  0  0  0  0
 14 13  1  0  0  0  0
 17 13  2  0  0  0  0
 18 14  1  0  0  0  0
 20 14  1  0  0  0  0
M  RAD  2   3   2  16   2
M  END
