Coordinates from ORCA-job Ph-N2-OTf-B3LYPG-aug-cc-pVDZ-scan-d09-49-n400
 OpenBabel07022015323D

 21 20  0  0  0  0  0  0  0  0999 V2000
   -1.2945   -0.0606   -3.5815 C   0  0  0  0  0  0  0  0  0  0  0  0
   -0.0757    0.4203   -4.0670 C   0  0  0  0  0  0  0  0  0  0  0  0
    0.0182    0.7568   -5.4163 C   0  0  0  0  0  0  0  0  0  0  0  0
   -1.0594    0.6191   -6.2892 C   0  0  0  0  0  0  0  0  0  0  0  0
   -2.2753    0.1471   -5.7872 C   0  0  0  0  0  0  0  0  0  0  0  0
   -2.3940   -0.1947   -4.4360 C   0  0  0  0  0  0  0  0  0  0  0  0
   -1.3827   -0.3297   -2.5290 H   0  0  0  0  0  0  0  0  0  0  0  0
    0.7858    0.5398   -3.4137 H   0  0  0  0  0  0  0  0  0  0  0  0
   -0.9472    0.8949   -7.3365 H   0  0  0  0  0  0  0  0  0  0  0  0
   -3.1292    0.0405   -6.4564 H   0  0  0  0  0  0  0  0  0  0  0  0
   -0.5139    3.4231   -4.9151 N   0  0  0  0  0  0  0  0  0  0  0  0
   -1.3713    3.9708   -4.4850 N   0  0  0  0  0  0  0  0  0  0  0  0
    2.5876    0.3713   -6.0578 S   0  0  0  0  0  0  0  0  0  0  0  0
    2.3587   -0.3214   -7.8180 C   0  0  0  0  0  0  0  0  0  0  0  0
    3.6984    1.3278   -6.1196 O   0  0  0  0  0  0  0  0  0  0  0  0
    2.5467   -0.7745   -5.1347 O   0  0  0  0  0  0  0  0  0  0  0  0
    1.2114    1.3057   -5.9329 O   0  0  0  0  0  0  0  0  0  0  0  0
    2.1999    0.6823   -8.6829 F   0  0  0  0  0  0  0  0  0  0  0  0
    3.4517   -1.0205   -8.1332 F   0  0  0  0  0  0  0  0  0  0  0  0
    1.2874   -1.1209   -7.8555 F   0  0  0  0  0  0  0  0  0  0  0  0
   -3.3410   -0.5705   -4.0497 H   0  0  0  0  0  0  0  0  0  0  0  0
  1  7  1  0  0  0  0
  2  1  1  0  0  0  0
  2  8  1  0  0  0  0
  3  2  2  0  0  0  0
  4  5  2  0  0  0  0
  4  3  1  0  0  0  0
  5  6  1  0  0  0  0
  6 21  1  0  0  0  0
  6  1  2  0  0  0  0
  9  4  1  0  0  0  0
 10  5  1  0  0  0  0
 11 12  3  0  0  0  0
 13 17  1  0  0  0  0
 13 16  2  0  0  0  0
 14 13  1  0  0  0  0
 15 13  2  0  0  0  0
 17  3  1  0  0  0  0
 18 14  1  0  0  0  0
 19 14  1  0  0  0  0
 20 14  1  0  0  0  0
M  END
