Coordinates from ORCA-job Ph-N2-OTf-B3LYPG-aug-cc-pVDZ-scan-d09-49-n400
 OpenBabel07022015323D

 21 20  0  0  0  0  0  0  0  0999 V2000
   -1.2748   -0.1316   -3.5986 C   0  0  0  0  0  0  0  0  0  0  0  0
   -0.0528    0.3381   -4.0881 C   0  0  0  0  0  0  0  0  0  0  0  0
    0.0450    0.6525   -5.4426 C   0  0  0  0  0  0  0  0  0  0  0  0
   -1.0379    0.5299   -6.3116 C   0  0  0  0  0  0  0  0  0  0  0  0
   -2.2566    0.0692   -5.8047 C   0  0  0  0  0  0  0  0  0  0  0  0
   -2.3749   -0.2661   -4.4521 C   0  0  0  0  0  0  0  0  0  0  0  0
   -1.3649   -0.3900   -2.5435 H   0  0  0  0  0  0  0  0  0  0  0  0
    0.8099    0.4569   -3.4361 H   0  0  0  0  0  0  0  0  0  0  0  0
   -0.9260    0.8026   -7.3597 H   0  0  0  0  0  0  0  0  0  0  0  0
   -3.1132   -0.0315   -6.4714 H   0  0  0  0  0  0  0  0  0  0  0  0
   -0.7490    4.2077   -4.7034 N   0  0  0  0  0  0  0  0  0  0  0  0
   -1.6321    4.6989   -4.2584 N   0  0  0  0  0  0  0  0  0  0  0  0
    2.6183    0.2865   -6.0847 S   0  0  0  0  0  0  0  0  0  0  0  0
    2.3973   -0.3976   -7.8490 C   0  0  0  0  0  0  0  0  0  0  0  0
    3.7246    1.2488   -6.1374 O   0  0  0  0  0  0  0  0  0  0  0  0
    2.5783   -0.8643   -5.1677 O   0  0  0  0  0  0  0  0  0  0  0  0
    1.2353    1.2120   -5.9588 O   0  0  0  0  0  0  0  0  0  0  0  0
    2.2430    0.6103   -8.7097 F   0  0  0  0  0  0  0  0  0  0  0  0
    3.4908   -1.0965   -8.1630 F   0  0  0  0  0  0  0  0  0  0  0  0
    1.3252   -1.1958   -7.8944 F   0  0  0  0  0  0  0  0  0  0  0  0
   -3.3240   -0.6335   -4.0625 H   0  0  0  0  0  0  0  0  0  0  0  0
  1  7  1  0  0  0  0
  2  1  1  0  0  0  0
  2  8  1  0  0  0  0
  3  2  2  0  0  0  0
  4  5  2  0  0  0  0
  4  3  1  0  0  0  0
  5  6  1  0  0  0  0
  6 21  1  0  0  0  0
  6  1  2  0  0  0  0
  9  4  1  0  0  0  0
 10  5  1  0  0  0  0
 11 12  3  0  0  0  0
 13 17  1  0  0  0  0
 13 16  2  0  0  0  0
 14 13  1  0  0  0  0
 15 13  2  0  0  0  0
 17  3  1  0  0  0  0
 18 14  1  0  0  0  0
 19 14  1  0  0  0  0
 20 14  1  0  0  0  0
M  END
