Coordinates from ORCA-job Ph-N2-OTf-B3LYPG-aug-cc-pVDZ-scan-d09-49-n400
 OpenBabel07022015323D

 21 21  0  0  1  0  0  0  0  0999 V2000
   -0.8562   -0.7059   -5.4739 C   0  0  0  0  0  0  0  0  0  0  0  0
   -0.3361    0.5429   -6.0944 C   0  0  1  0  0  0  0  0  0  0  0  0
   -1.2103    1.7999   -5.8234 C   0  0  0  0  0  0  0  0  0  0  0  0
   -2.1024    1.7283   -4.6296 C   0  0  0  0  0  0  0  0  0  0  0  0
   -2.3554    0.5592   -4.0077 C   0  0  0  0  0  0  0  0  0  0  0  0
   -1.7730   -0.6836   -4.4861 C   0  0  0  0  0  0  0  0  0  0  0  0
   -0.4284   -1.6421   -5.8296 H   0  0  0  0  0  0  0  0  0  0  0  0
   -0.1722    0.4577   -7.1738 H   0  0  0  0  0  0  0  0  0  0  0  0
   -2.5463    2.6723   -4.3138 H   0  0  0  0  0  0  0  0  0  0  0  0
   -3.0215    0.5378   -3.1455 H   0  0  0  0  0  0  0  0  0  0  0  0
   -1.1304    2.5886   -6.3999 N   0  0  0  0  0  0  0  0  0  0  0  0
   -1.0299    3.5296   -7.0895 N   0  0  0  0  0  0  0  0  0  0  0  0
    2.3475    0.9448   -6.4408 S   0  0  0  0  0  0  0  0  0  0  0  0
    3.0814   -0.7837   -6.1442 C   0  0  0  0  0  0  0  0  0  0  0  0
    3.2611    1.9053   -5.8107 O   0  0  0  0  0  0  0  0  0  0  0  0
    1.0118    0.8381   -5.4841 O   0  0  0  0  0  0  0  0  0  0  0  0
    1.9642    1.0012   -7.8652 O   0  0  0  0  0  0  0  0  0  0  0  0
    4.2155   -0.8862   -6.8399 F   0  0  0  0  0  0  0  0  0  0  0  0
    3.3292   -0.9621   -4.8463 F   0  0  0  0  0  0  0  0  0  0  0  0
    2.2128   -1.7158   -6.5667 F   0  0  0  0  0  0  0  0  0  0  0  0
   -2.0995   -1.6195   -4.0322 H   0  0  0  0  0  0  0  0  0  0  0  0
  1  6  2  0  0  0  0
  2  8  1  6  0  0  0
  2  3  1  0  0  0  0
  2 16  1  0  0  0  0
  2  1  1  0  0  0  0
  3  4  2  0  0  0  0
  4  9  1  0  0  0  0
  4  5  1  0  0  0  0
  5 10  1  0  0  0  0
  6 21  1  0  0  0  0
  6  5  1  0  0  0  0
  7  1  1  0  0  0  0
 11  3  1  0  0  0  0
 12 11  1  0  0  0  0
 13 14  1  0  0  0  0
 13 15  2  0  0  0  0
 13 16  1  0  0  0  0
 14 19  1  0  0  0  0
 17 13  2  0  0  0  0
 18 14  1  0  0  0  0
 20 14  1  0  0  0  0
M  RAD  3   5   2  11   2  12   3
M  END
