Coordinates from ORCA-job Ph-N2-OTf-B3LYPG-aug-cc-pVDZ-scan-d09-49-n400
 OpenBabel07022015323D

 21 20  0  0  0  0  0  0  0  0999 V2000
   -1.2860   -0.1121   -3.5906 C   0  0  0  0  0  0  0  0  0  0  0  0
   -0.0653    0.3620   -4.0790 C   0  0  0  0  0  0  0  0  0  0  0  0
    0.0313    0.6819   -5.4322 C   0  0  0  0  0  0  0  0  0  0  0  0
   -1.0511    0.5578   -6.3016 C   0  0  0  0  0  0  0  0  0  0  0  0
   -2.2685    0.0926   -5.7960 C   0  0  0  0  0  0  0  0  0  0  0  0
   -2.3861   -0.2466   -4.4442 C   0  0  0  0  0  0  0  0  0  0  0  0
   -1.3753   -0.3740   -2.5364 H   0  0  0  0  0  0  0  0  0  0  0  0
    0.7971    0.4808   -3.4267 H   0  0  0  0  0  0  0  0  0  0  0  0
   -0.9398    0.8329   -7.3492 H   0  0  0  0  0  0  0  0  0  0  0  0
   -3.1248   -0.0088   -6.4630 H   0  0  0  0  0  0  0  0  0  0  0  0
   -0.6383    3.9289   -4.7942 N   0  0  0  0  0  0  0  0  0  0  0  0
   -1.5085    4.4474   -4.3550 N   0  0  0  0  0  0  0  0  0  0  0  0
    2.6054    0.3228   -6.0737 S   0  0  0  0  0  0  0  0  0  0  0  0
    2.3848   -0.3640   -7.8371 C   0  0  0  0  0  0  0  0  0  0  0  0
    3.7088    1.2883   -6.1286 O   0  0  0  0  0  0  0  0  0  0  0  0
    2.5700   -0.8273   -5.1556 O   0  0  0  0  0  0  0  0  0  0  0  0
    1.2202    1.2444   -5.9475 O   0  0  0  0  0  0  0  0  0  0  0  0
    2.2272    0.6424   -8.6990 F   0  0  0  0  0  0  0  0  0  0  0  0
    3.4800   -1.0604   -8.1511 F   0  0  0  0  0  0  0  0  0  0  0  0
    1.3148   -1.1651   -7.8809 F   0  0  0  0  0  0  0  0  0  0  0  0
   -3.3343   -0.6171   -4.0556 H   0  0  0  0  0  0  0  0  0  0  0  0
  1  7  1  0  0  0  0
  2  1  1  0  0  0  0
  2  8  1  0  0  0  0
  3  2  2  0  0  0  0
  4  5  2  0  0  0  0
  4  3  1  0  0  0  0
  5  6  1  0  0  0  0
  6 21  1  0  0  0  0
  6  1  2  0  0  0  0
  9  4  1  0  0  0  0
 10  5  1  0  0  0  0
 11 12  3  0  0  0  0
 13 17  1  0  0  0  0
 13 16  2  0  0  0  0
 14 13  1  0  0  0  0
 15 13  2  0  0  0  0
 17  3  1  0  0  0  0
 18 14  1  0  0  0  0
 19 14  1  0  0  0  0
 20 14  1  0  0  0  0
M  END
