Coordinates from ORCA-job Ph-N2-OTf-B3LYPG-aug-cc-pVDZ-scan-d09-49-n400
 OpenBabel07022015323D

 21 20  0  0  0  0  0  0  0  0999 V2000
   -1.3048   -0.7059   -4.3056 C   0  0  0  0  0  0  0  0  0  0  0  0
   -0.4603    0.2669   -4.8594 C   0  0  0  0  0  0  0  0  0  0  0  0
   -1.1210    1.3552   -5.3889 C   0  0  0  0  0  0  0  0  0  0  0  0
   -2.4910    1.5958   -5.4366 C   0  0  0  0  0  0  0  0  0  0  0  0
   -3.2870    0.5967   -4.8743 C   0  0  0  0  0  0  0  0  0  0  0  0
   -2.6938   -0.5446   -4.3141 C   0  0  0  0  0  0  0  0  0  0  0  0
   -0.8516   -1.5951   -3.8697 H   0  0  0  0  0  0  0  0  0  0  0  0
    0.6310    0.1544   -4.8667 H   0  0  0  0  0  0  0  0  0  0  0  0
   -2.9122    2.4940   -5.8812 H   0  0  0  0  0  0  0  0  0  0  0  0
   -4.3703    0.7134   -4.8784 H   0  0  0  0  0  0  0  0  0  0  0  0
   -0.2581    2.5379   -6.0388 N   0  0  0  0  0  0  0  0  0  0  0  0
    0.0228    3.5061   -6.4963 N   0  0  0  0  0  0  0  0  0  0  0  0
    3.0269    0.6495   -5.8288 S   0  0  0  0  0  0  0  0  0  0  0  0
    3.2033   -0.3434   -7.4348 C   0  0  0  0  0  0  0  0  0  0  0  0
    4.3743    1.2174   -5.5839 O   0  0  0  0  0  0  0  0  0  0  0  0
    2.5081   -0.3652   -4.8464 O   0  0  0  0  0  0  0  0  0  0  0  0
    1.9571    1.6717   -6.2031 O   0  0  0  0  0  0  0  0  0  0  0  0
    3.6085    0.4470   -8.4447 F   0  0  0  0  0  0  0  0  0  0  0  0
    4.0936   -1.3372   -7.2841 F   0  0  0  0  0  0  0  0  0  0  0  0
    2.0139   -0.8895   -7.7811 F   0  0  0  0  0  0  0  0  0  0  0  0
   -3.3278   -1.3182   -3.8806 H   0  0  0  0  0  0  0  0  0  0  0  0
  1  7  1  0  0  0  0
  2  1  2  0  0  0  0
  3  2  1  0  0  0  0
  4  3  2  0  0  0  0
  4  5  1  0  0  0  0
  5  6  2  0  0  0  0
  6  1  1  0  0  0  0
  6 21  1  0  0  0  0
  8  2  1  0  0  0  0
  9  4  1  0  0  0  0
 10  5  1  0  0  0  0
 11  3  1  0  0  0  0
 12 11  1  0  0  0  0
 13 15  2  0  0  0  0
 13 16  1  0  0  0  0
 14 19  1  0  0  0  0
 14 13  1  0  0  0  0
 17 13  2  0  0  0  0
 18 14  1  0  0  0  0
 20 14  1  0  0  0  0
M  RAD  3  11   2  12   3  16   2
M  END
