Coordinates from ORCA-job Ph-N2-OTf-B3LYPG-aug-cc-pVDZ-scan-d09-49-n400
 OpenBabel07022015323D

 21 20  0  0  0  0  0  0  0  0999 V2000
   -1.2697   -0.1389   -3.6027 C   0  0  0  0  0  0  0  0  0  0  0  0
   -0.0471    0.3288   -4.0928 C   0  0  0  0  0  0  0  0  0  0  0  0
    0.0509    0.6416   -5.4477 C   0  0  0  0  0  0  0  0  0  0  0  0
   -1.0322    0.5194   -6.3165 C   0  0  0  0  0  0  0  0  0  0  0  0
   -2.2514    0.0607   -5.8090 C   0  0  0  0  0  0  0  0  0  0  0  0
   -2.3700   -0.2731   -4.4560 C   0  0  0  0  0  0  0  0  0  0  0  0
   -1.3601   -0.3960   -2.5473 H   0  0  0  0  0  0  0  0  0  0  0  0
    0.8156    0.4475   -3.4409 H   0  0  0  0  0  0  0  0  0  0  0  0
   -0.9200    0.7908   -7.3649 H   0  0  0  0  0  0  0  0  0  0  0  0
   -3.1082   -0.0397   -6.4755 H   0  0  0  0  0  0  0  0  0  0  0  0
   -0.7964    4.3219   -4.6626 N   0  0  0  0  0  0  0  0  0  0  0  0
   -1.6856    4.7988   -4.2144 N   0  0  0  0  0  0  0  0  0  0  0  0
    2.6240    0.2721   -6.0895 S   0  0  0  0  0  0  0  0  0  0  0  0
    2.4023   -0.4132   -7.8533 C   0  0  0  0  0  0  0  0  0  0  0  0
    3.7313    1.2332   -6.1429 O   0  0  0  0  0  0  0  0  0  0  0  0
    2.5825   -0.8779   -5.1715 O   0  0  0  0  0  0  0  0  0  0  0  0
    1.2419    1.1993   -5.9645 O   0  0  0  0  0  0  0  0  0  0  0  0
    2.2489    0.5942   -8.7147 F   0  0  0  0  0  0  0  0  0  0  0  0
    3.4952   -1.1133   -8.1668 F   0  0  0  0  0  0  0  0  0  0  0  0
    1.3294   -1.2104   -7.8981 F   0  0  0  0  0  0  0  0  0  0  0  0
   -3.3195   -0.6390   -4.0660 H   0  0  0  0  0  0  0  0  0  0  0  0
  1  7  1  0  0  0  0
  2  1  1  0  0  0  0
  2  8  1  0  0  0  0
  3  2  2  0  0  0  0
  4  5  2  0  0  0  0
  4  3  1  0  0  0  0
  5  6  1  0  0  0  0
  6 21  1  0  0  0  0
  6  1  2  0  0  0  0
  9  4  1  0  0  0  0
 10  5  1  0  0  0  0
 11 12  3  0  0  0  0
 13 17  1  0  0  0  0
 13 16  2  0  0  0  0
 14 13  1  0  0  0  0
 15 13  2  0  0  0  0
 17  3  1  0  0  0  0
 18 14  1  0  0  0  0
 19 14  1  0  0  0  0
 20 14  1  0  0  0  0
M  END
