Coordinates from ORCA-job Ph-N2-OTf-B3LYPG-aug-cc-pVDZ-scan-d09-49-n400
 OpenBabel07022015323D

 21 20  0  0  0  0  0  0  0  0999 V2000
   -1.2917   -0.0968   -3.5859 C   0  0  0  0  0  0  0  0  0  0  0  0
   -0.0720    0.3807   -4.0732 C   0  0  0  0  0  0  0  0  0  0  0  0
    0.0236    0.7057   -5.4252 C   0  0  0  0  0  0  0  0  0  0  0  0
   -1.0577    0.5785   -6.2954 C   0  0  0  0  0  0  0  0  0  0  0  0
   -2.2742    0.1098   -5.7910 C   0  0  0  0  0  0  0  0  0  0  0  0
   -2.3915   -0.2315   -4.4397 C   0  0  0  0  0  0  0  0  0  0  0  0
   -1.3803   -0.3618   -2.5324 H   0  0  0  0  0  0  0  0  0  0  0  0
    0.7902    0.4992   -3.4206 H   0  0  0  0  0  0  0  0  0  0  0  0
   -0.9466    0.8543   -7.3428 H   0  0  0  0  0  0  0  0  0  0  0  0
   -3.1299    0.0067   -6.4585 H   0  0  0  0  0  0  0  0  0  0  0  0
   -0.5758    3.7395   -4.8494 N   0  0  0  0  0  0  0  0  0  0  0  0
   -1.4363    4.2789   -4.4159 N   0  0  0  0  0  0  0  0  0  0  0  0
    2.5971    0.3443   -6.0667 S   0  0  0  0  0  0  0  0  0  0  0  0
    2.3757   -0.3437   -7.8296 C   0  0  0  0  0  0  0  0  0  0  0  0
    3.7009    1.3093   -6.1227 O   0  0  0  0  0  0  0  0  0  0  0  0
    2.5622   -0.8053   -5.1479 O   0  0  0  0  0  0  0  0  0  0  0  0
    1.2127    1.2667   -5.9404 O   0  0  0  0  0  0  0  0  0  0  0  0
    2.2171    0.6622   -8.6920 F   0  0  0  0  0  0  0  0  0  0  0  0
    3.4710   -1.0396   -8.1438 F   0  0  0  0  0  0  0  0  0  0  0  0
    1.3061   -1.1453   -7.8723 F   0  0  0  0  0  0  0  0  0  0  0  0
   -3.3390   -0.6049   -4.0519 H   0  0  0  0  0  0  0  0  0  0  0  0
  1  7  1  0  0  0  0
  2  1  1  0  0  0  0
  2  8  1  0  0  0  0
  3  2  2  0  0  0  0
  4  5  2  0  0  0  0
  4  3  1  0  0  0  0
  5  6  1  0  0  0  0
  6 21  1  0  0  0  0
  6  1  2  0  0  0  0
  9  4  1  0  0  0  0
 10  5  1  0  0  0  0
 11 12  3  0  0  0  0
 13 17  1  0  0  0  0
 13 16  2  0  0  0  0
 14 13  1  0  0  0  0
 15 13  2  0  0  0  0
 17  3  1  0  0  0  0
 18 14  1  0  0  0  0
 19 14  1  0  0  0  0
 20 14  1  0  0  0  0
M  END
