Coordinates from ORCA-job Ph-N2-OTf-B3LYPG-aug-cc-pVDZ-scan-d09-49-n400
 OpenBabel07022015323D

 21 20  0  0  0  0  0  0  0  0999 V2000
   -1.2751   -0.1311   -3.5983 C   0  0  0  0  0  0  0  0  0  0  0  0
   -0.0531    0.3387   -4.0878 C   0  0  0  0  0  0  0  0  0  0  0  0
    0.0446    0.6533   -5.4422 C   0  0  0  0  0  0  0  0  0  0  0  0
   -1.0383    0.5307   -6.3113 C   0  0  0  0  0  0  0  0  0  0  0  0
   -2.2569    0.0699   -5.8044 C   0  0  0  0  0  0  0  0  0  0  0  0
   -2.3753   -0.2656   -4.4518 C   0  0  0  0  0  0  0  0  0  0  0  0
   -1.3652   -0.3896   -2.5433 H   0  0  0  0  0  0  0  0  0  0  0  0
    0.8095    0.4576   -3.4358 H   0  0  0  0  0  0  0  0  0  0  0  0
   -0.9264    0.8035   -7.3593 H   0  0  0  0  0  0  0  0  0  0  0  0
   -3.1135   -0.0308   -6.4711 H   0  0  0  0  0  0  0  0  0  0  0  0
   -0.7457    4.1996   -4.7063 N   0  0  0  0  0  0  0  0  0  0  0  0
   -1.6283    4.6917   -4.2615 N   0  0  0  0  0  0  0  0  0  0  0  0
    2.6179    0.2876   -6.0843 S   0  0  0  0  0  0  0  0  0  0  0  0
    2.3969   -0.3966   -7.8487 C   0  0  0  0  0  0  0  0  0  0  0  0
    3.7241    1.2499   -6.1370 O   0  0  0  0  0  0  0  0  0  0  0  0
    2.5780   -0.8633   -5.1674 O   0  0  0  0  0  0  0  0  0  0  0  0
    1.2349    1.2130   -5.9584 O   0  0  0  0  0  0  0  0  0  0  0  0
    2.2426    0.6114   -8.7094 F   0  0  0  0  0  0  0  0  0  0  0  0
    3.4905   -1.0953   -8.1628 F   0  0  0  0  0  0  0  0  0  0  0  0
    1.3249   -1.1948   -7.8941 F   0  0  0  0  0  0  0  0  0  0  0  0
   -3.3243   -0.6331   -4.0623 H   0  0  0  0  0  0  0  0  0  0  0  0
  1  7  1  0  0  0  0
  2  1  1  0  0  0  0
  2  8  1  0  0  0  0
  3  2  2  0  0  0  0
  4  5  2  0  0  0  0
  4  3  1  0  0  0  0
  5  6  1  0  0  0  0
  6 21  1  0  0  0  0
  6  1  2  0  0  0  0
  9  4  1  0  0  0  0
 10  5  1  0  0  0  0
 11 12  3  0  0  0  0
 13 17  1  0  0  0  0
 13 16  2  0  0  0  0
 14 13  1  0  0  0  0
 15 13  2  0  0  0  0
 17  3  1  0  0  0  0
 18 14  1  0  0  0  0
 19 14  1  0  0  0  0
 20 14  1  0  0  0  0
M  END
