Coordinates from ORCA-job Ph-N2-OTf-B3LYPG-aug-cc-pVDZ-scan-d09-49-n400
 OpenBabel07022015323D

 21 19  0  0  0  0  0  0  0  0999 V2000
   -1.2020   -0.7757   -4.4723 C   0  0  0  0  0  0  0  0  0  0  0  0
   -0.3731    0.3434   -4.7801 C   0  0  0  0  0  0  0  0  0  0  0  0
   -1.1638    1.3419   -5.1523 C   0  0  0  0  0  0  0  0  0  0  0  0
   -2.4785    1.6193   -5.3344 C   0  0  0  0  0  0  0  0  0  0  0  0
   -3.2310    0.4648   -5.0151 C   0  0  0  0  0  0  0  0  0  0  0  0
   -2.5936   -0.7071   -4.5874 C   0  0  0  0  0  0  0  0  0  0  0  0
   -0.7015   -1.6903   -4.1528 H   0  0  0  0  0  0  0  0  0  0  0  0
    0.7675    0.3032   -4.7581 H   0  0  0  0  0  0  0  0  0  0  0  0
   -2.9113    2.5556   -5.6705 H   0  0  0  0  0  0  0  0  0  0  0  0
   -4.3159    0.5194   -5.1115 H   0  0  0  0  0  0  0  0  0  0  0  0
   -0.0835    3.1657   -5.5301 N   0  0  0  0  0  0  0  0  0  0  0  0
    0.3738    4.1618   -5.6482 N   0  0  0  0  0  0  0  0  0  0  0  0
    2.8042    0.8658   -6.1944 S   0  0  0  0  0  0  0  0  0  0  0  0
    3.0824   -0.6758   -7.2619 C   0  0  0  0  0  0  0  0  0  0  0  0
    4.1136    1.5598   -6.1694 O   0  0  0  0  0  0  0  0  0  0  0  0
    2.3789    0.2596   -4.8542 O   0  0  0  0  0  0  0  0  0  0  0  0
    1.6599    1.5615   -6.8782 O   0  0  0  0  0  0  0  0  0  0  0  0
    3.4130   -0.3259   -8.5157 F   0  0  0  0  0  0  0  0  0  0  0  0
    4.0639   -1.4389   -6.7548 F   0  0  0  0  0  0  0  0  0  0  0  0
    1.9523   -1.4181   -7.3124 F   0  0  0  0  0  0  0  0  0  0  0  0
   -3.1936   -1.5832   -4.3434 H   0  0  0  0  0  0  0  0  0  0  0  0
  1  7  1  0  0  0  0
  2  8  1  0  0  0  0
  2  1  2  0  0  0  0
  3  2  1  0  0  0  0
  4  3  2  0  0  0  0
  4  5  1  0  0  0  0
  5  6  2  0  0  0  0
  6  1  1  0  0  0  0
  6 21  1  0  0  0  0
  9  4  1  0  0  0  0
 10  5  1  0  0  0  0
 12 11  3  0  0  0  0
 13 15  2  0  0  0  0
 13 16  1  0  0  0  0
 14 19  1  0  0  0  0
 14 13  1  0  0  0  0
 17 13  2  0  0  0  0
 18 14  1  0  0  0  0
 20 14  1  0  0  0  0
M  RAD  2   3   2  16   2
M  END
