Coordinates from ORCA-job Ph-N2-OTf-B3LYPG-aug-cc-pVDZ-scan-d09-49-n400
 OpenBabel07022015323D

 21 20  0  0  0  0  0  0  0  0999 V2000
   -1.2490   -0.1562   -3.6173 C   0  0  0  0  0  0  0  0  0  0  0  0
   -0.0235    0.3013   -4.1095 C   0  0  0  0  0  0  0  0  0  0  0  0
    0.0767    0.6062   -5.4660 C   0  0  0  0  0  0  0  0  0  0  0  0
   -1.0071    0.4874   -6.3343 C   0  0  0  0  0  0  0  0  0  0  0  0
   -2.2293    0.0391   -5.8247 C   0  0  0  0  0  0  0  0  0  0  0  0
   -2.3500   -0.2875   -4.4702 C   0  0  0  0  0  0  0  0  0  0  0  0
   -1.3412   -0.4075   -2.5607 H   0  0  0  0  0  0  0  0  0  0  0  0
    0.8399    0.4180   -3.4582 H   0  0  0  0  0  0  0  0  0  0  0  0
   -0.8932    0.7534   -7.3839 H   0  0  0  0  0  0  0  0  0  0  0  0
   -3.0868   -0.0586   -6.4907 H   0  0  0  0  0  0  0  0  0  0  0  0
   -0.9862    4.7134   -4.5108 N   0  0  0  0  0  0  0  0  0  0  0  0
   -1.9035    5.1212   -4.0513 N   0  0  0  0  0  0  0  0  0  0  0  0
    2.6469    0.2158   -6.1080 S   0  0  0  0  0  0  0  0  0  0  0  0
    2.4194   -0.4732   -7.8696 C   0  0  0  0  0  0  0  0  0  0  0  0
    3.7611    1.1686   -6.1647 O   0  0  0  0  0  0  0  0  0  0  0  0
    2.5970   -0.9309   -5.1863 O   0  0  0  0  0  0  0  0  0  0  0  0
    1.2716    1.1537   -5.9853 O   0  0  0  0  0  0  0  0  0  0  0  0
    2.2707    0.5328   -8.7336 F   0  0  0  0  0  0  0  0  0  0  0  0
    3.5079   -1.1802   -8.1825 F   0  0  0  0  0  0  0  0  0  0  0  0
    1.3420   -1.2644   -7.9111 F   0  0  0  0  0  0  0  0  0  0  0  0
   -3.3018   -0.6456   -4.0785 H   0  0  0  0  0  0  0  0  0  0  0  0
  1  7  1  0  0  0  0
  2  1  1  0  0  0  0
  2  8  1  0  0  0  0
  3  2  2  0  0  0  0
  4  5  2  0  0  0  0
  4  3  1  0  0  0  0
  5  6  1  0  0  0  0
  6 21  1  0  0  0  0
  6  1  2  0  0  0  0
  9  4  1  0  0  0  0
 10  5  1  0  0  0  0
 11 12  3  0  0  0  0
 13 17  1  0  0  0  0
 13 16  2  0  0  0  0
 14 13  1  0  0  0  0
 15 13  2  0  0  0  0
 17  3  1  0  0  0  0
 18 14  1  0  0  0  0
 19 14  1  0  0  0  0
 20 14  1  0  0  0  0
M  END
