Coordinates from ORCA-job Ph-N2-OTf-B3LYPG-aug-cc-pVDZ-scan-d09-49-n400
 OpenBabel07022015323D

 21 19  0  0  0  0  0  0  0  0999 V2000
   -1.1799   -0.7791   -4.4735 C   0  0  0  0  0  0  0  0  0  0  0  0
   -0.3699    0.3547   -4.8019 C   0  0  0  0  0  0  0  0  0  0  0  0
   -1.1892    1.3193   -5.1651 C   0  0  0  0  0  0  0  0  0  0  0  0
   -2.5024    1.5961   -5.3365 C   0  0  0  0  0  0  0  0  0  0  0  0
   -3.2336    0.4302   -4.9977 C   0  0  0  0  0  0  0  0  0  0  0  0
   -2.5737   -0.7298   -4.5706 C   0  0  0  0  0  0  0  0  0  0  0  0
   -0.6595   -1.6830   -4.1547 H   0  0  0  0  0  0  0  0  0  0  0  0
    0.7917    0.3159   -4.7918 H   0  0  0  0  0  0  0  0  0  0  0  0
   -2.9501    2.5253   -5.6723 H   0  0  0  0  0  0  0  0  0  0  0  0
   -4.3206    0.4703   -5.0790 H   0  0  0  0  0  0  0  0  0  0  0  0
   -0.1145    3.3147   -5.5766 N   0  0  0  0  0  0  0  0  0  0  0  0
    0.3811    4.2877   -5.7294 N   0  0  0  0  0  0  0  0  0  0  0  0
    2.8291    0.8458   -6.1648 S   0  0  0  0  0  0  0  0  0  0  0  0
    3.0543   -0.6774   -7.2701 C   0  0  0  0  0  0  0  0  0  0  0  0
    4.1769    1.4500   -6.0575 O   0  0  0  0  0  0  0  0  0  0  0  0
    2.3230    0.2166   -4.8549 O   0  0  0  0  0  0  0  0  0  0  0  0
    1.7520    1.6289   -6.8533 O   0  0  0  0  0  0  0  0  0  0  0  0
    3.4443   -0.3072   -8.5002 F   0  0  0  0  0  0  0  0  0  0  0  0
    3.9744   -1.5099   -6.7576 F   0  0  0  0  0  0  0  0  0  0  0  0
    1.8863   -1.3501   -7.3782 F   0  0  0  0  0  0  0  0  0  0  0  0
   -3.1579   -1.6123   -4.3116 H   0  0  0  0  0  0  0  0  0  0  0  0
  1  7  1  0  0  0  0
  2  8  1  0  0  0  0
  2  1  2  0  0  0  0
  3  2  1  0  0  0  0
  4  3  2  0  0  0  0
  4  5  1  0  0  0  0
  5  6  2  0  0  0  0
  6  1  1  0  0  0  0
  6 21  1  0  0  0  0
  9  4  1  0  0  0  0
 10  5  1  0  0  0  0
 12 11  3  0  0  0  0
 13 15  2  0  0  0  0
 13 16  1  0  0  0  0
 14 19  1  0  0  0  0
 14 13  1  0  0  0  0
 17 13  2  0  0  0  0
 18 14  1  0  0  0  0
 20 14  1  0  0  0  0
M  RAD  2   3   2  16   2
M  END
