Coordinates from ORCA-job Ph-N2-OTf-B3LYPG-aug-cc-pVDZ-scan-d09-49-n400
 OpenBabel07022015323D

 21 20  0  0  0  0  0  0  0  0999 V2000
   -1.3073   -0.7134   -4.3064 C   0  0  0  0  0  0  0  0  0  0  0  0
   -0.4586    0.2604   -4.8587 C   0  0  0  0  0  0  0  0  0  0  0  0
   -1.1307    1.3389   -5.3773 C   0  0  0  0  0  0  0  0  0  0  0  0
   -2.4919    1.5956   -5.4311 C   0  0  0  0  0  0  0  0  0  0  0  0
   -3.2883    0.5929   -4.8693 C   0  0  0  0  0  0  0  0  0  0  0  0
   -2.6960   -0.5501   -4.3133 C   0  0  0  0  0  0  0  0  0  0  0  0
   -0.8536   -1.6039   -3.8735 H   0  0  0  0  0  0  0  0  0  0  0  0
    0.6341    0.1467   -4.8670 H   0  0  0  0  0  0  0  0  0  0  0  0
   -2.9099    2.4959   -5.8732 H   0  0  0  0  0  0  0  0  0  0  0  0
   -4.3714    0.7122   -4.8727 H   0  0  0  0  0  0  0  0  0  0  0  0
   -0.2349    2.5669   -6.0492 N   0  0  0  0  0  0  0  0  0  0  0  0
    0.0158    3.5454   -6.5003 N   0  0  0  0  0  0  0  0  0  0  0  0
    3.0215    0.6545   -5.8351 S   0  0  0  0  0  0  0  0  0  0  0  0
    3.2073   -0.3492   -7.4333 C   0  0  0  0  0  0  0  0  0  0  0  0
    4.3693    1.2177   -5.5814 O   0  0  0  0  0  0  0  0  0  0  0  0
    2.4917   -0.3534   -4.8504 O   0  0  0  0  0  0  0  0  0  0  0  0
    1.9595    1.6787   -6.2247 O   0  0  0  0  0  0  0  0  0  0  0  0
    3.6211    0.4341   -8.4449 F   0  0  0  0  0  0  0  0  0  0  0  0
    4.0947   -1.3436   -7.2698 F   0  0  0  0  0  0  0  0  0  0  0  0
    2.0194   -0.8953   -7.7841 F   0  0  0  0  0  0  0  0  0  0  0  0
   -3.3303   -1.3242   -3.8814 H   0  0  0  0  0  0  0  0  0  0  0  0
  1  7  1  0  0  0  0
  2  1  2  0  0  0  0
  3  2  1  0  0  0  0
  4  3  2  0  0  0  0
  4  5  1  0  0  0  0
  5  6  2  0  0  0  0
  6  1  1  0  0  0  0
  6 21  1  0  0  0  0
  8  2  1  0  0  0  0
  9  4  1  0  0  0  0
 10  5  1  0  0  0  0
 11  3  1  0  0  0  0
 12 11  1  0  0  0  0
 13 15  2  0  0  0  0
 13 16  1  0  0  0  0
 14 19  1  0  0  0  0
 14 13  1  0  0  0  0
 17 13  2  0  0  0  0
 18 14  1  0  0  0  0
 20 14  1  0  0  0  0
M  RAD  3  11   2  12   3  16   2
M  END
