Coordinates from ORCA-job Ph-N2-OTf-B3LYPG-aug-cc-pVDZ-scan-d09-49-n400
 OpenBabel07022015323D

 21 20  0  0  0  0  0  0  0  0999 V2000
   -1.2449   -0.1594   -3.6204 C   0  0  0  0  0  0  0  0  0  0  0  0
   -0.0189    0.2961   -4.1131 C   0  0  0  0  0  0  0  0  0  0  0  0
    0.0817    0.5992   -5.4700 C   0  0  0  0  0  0  0  0  0  0  0  0
   -1.0023    0.4805   -6.3382 C   0  0  0  0  0  0  0  0  0  0  0  0
   -2.2250    0.0342   -5.8280 C   0  0  0  0  0  0  0  0  0  0  0  0
   -2.3461   -0.2905   -4.4730 C   0  0  0  0  0  0  0  0  0  0  0  0
   -1.3374   -0.4091   -2.5634 H   0  0  0  0  0  0  0  0  0  0  0  0
    0.8446    0.4128   -3.4619 H   0  0  0  0  0  0  0  0  0  0  0  0
   -0.8880    0.7449   -7.3882 H   0  0  0  0  0  0  0  0  0  0  0  0
   -3.0825   -0.0634   -6.4939 H   0  0  0  0  0  0  0  0  0  0  0  0
   -1.0239    4.7931   -4.4791 N   0  0  0  0  0  0  0  0  0  0  0  0
   -1.9465    5.1862   -4.0174 N   0  0  0  0  0  0  0  0  0  0  0  0
    2.6513    0.2045   -6.1117 S   0  0  0  0  0  0  0  0  0  0  0  0
    2.4231   -0.4853   -7.8730 C   0  0  0  0  0  0  0  0  0  0  0  0
    3.7669    1.1557   -6.1689 O   0  0  0  0  0  0  0  0  0  0  0  0
    2.5995   -0.9414   -5.1892 O   0  0  0  0  0  0  0  0  0  0  0  0
    1.2773    1.1445   -5.9899 O   0  0  0  0  0  0  0  0  0  0  0  0
    2.2756    0.5204   -8.7375 F   0  0  0  0  0  0  0  0  0  0  0  0
    3.5109   -1.1937   -8.1854 F   0  0  0  0  0  0  0  0  0  0  0  0
    1.3448   -1.2753   -7.9140 F   0  0  0  0  0  0  0  0  0  0  0  0
   -3.2982   -0.6471   -4.0810 H   0  0  0  0  0  0  0  0  0  0  0  0
  1  7  1  0  0  0  0
  2  1  1  0  0  0  0
  2  8  1  0  0  0  0
  3  2  2  0  0  0  0
  4  5  2  0  0  0  0
  4  3  1  0  0  0  0
  5  6  1  0  0  0  0
  6 21  1  0  0  0  0
  6  1  2  0  0  0  0
  9  4  1  0  0  0  0
 10  5  1  0  0  0  0
 11 12  3  0  0  0  0
 13 17  1  0  0  0  0
 13 16  2  0  0  0  0
 14 13  1  0  0  0  0
 15 13  2  0  0  0  0
 17  3  1  0  0  0  0
 18 14  1  0  0  0  0
 19 14  1  0  0  0  0
 20 14  1  0  0  0  0
M  END
