Coordinates from ORCA-job Ph-N2-OTf-B3LYPG-aug-cc-pVDZ-scan-d09-49-n400
 OpenBabel07022015323D

 21 20  0  0  0  0  0  0  0  0999 V2000
   -1.2929   -0.0900   -3.5845 C   0  0  0  0  0  0  0  0  0  0  0  0
   -0.0734    0.3880   -4.0716 C   0  0  0  0  0  0  0  0  0  0  0  0
    0.0219    0.7146   -5.4233 C   0  0  0  0  0  0  0  0  0  0  0  0
   -1.0591    0.5863   -6.2937 C   0  0  0  0  0  0  0  0  0  0  0  0
   -2.2755    0.1171   -5.7896 C   0  0  0  0  0  0  0  0  0  0  0  0
   -2.3928   -0.2245   -4.4383 C   0  0  0  0  0  0  0  0  0  0  0  0
   -1.3814   -0.3557   -2.5312 H   0  0  0  0  0  0  0  0  0  0  0  0
    0.7887    0.5064   -3.4190 H   0  0  0  0  0  0  0  0  0  0  0  0
   -0.9480    0.8621   -7.3410 H   0  0  0  0  0  0  0  0  0  0  0  0
   -3.1310    0.0136   -6.4572 H   0  0  0  0  0  0  0  0  0  0  0  0
   -0.5602    3.6721   -4.8655 N   0  0  0  0  0  0  0  0  0  0  0  0
   -1.4176    4.2175   -4.4333 N   0  0  0  0  0  0  0  0  0  0  0  0
    2.5949    0.3506   -6.0647 S   0  0  0  0  0  0  0  0  0  0  0  0
    2.3728   -0.3379   -7.8272 C   0  0  0  0  0  0  0  0  0  0  0  0
    3.6993    1.3149   -6.1214 O   0  0  0  0  0  0  0  0  0  0  0  0
    2.5595   -0.7985   -5.1454 O   0  0  0  0  0  0  0  0  0  0  0  0
    1.2114    1.2742   -5.9387 O   0  0  0  0  0  0  0  0  0  0  0  0
    2.2142    0.6676   -8.6900 F   0  0  0  0  0  0  0  0  0  0  0  0
    3.4679   -1.0342   -8.1415 F   0  0  0  0  0  0  0  0  0  0  0  0
    1.3031   -1.1393   -7.8694 F   0  0  0  0  0  0  0  0  0  0  0  0
   -3.3402   -0.5982   -4.0507 H   0  0  0  0  0  0  0  0  0  0  0  0
  1  7  1  0  0  0  0
  2  1  1  0  0  0  0
  2  8  1  0  0  0  0
  3  2  2  0  0  0  0
  4  5  2  0  0  0  0
  4  3  1  0  0  0  0
  5  6  1  0  0  0  0
  6 21  1  0  0  0  0
  6  1  2  0  0  0  0
  9  4  1  0  0  0  0
 10  5  1  0  0  0  0
 11 12  3  0  0  0  0
 13 17  1  0  0  0  0
 13 16  2  0  0  0  0
 14 13  1  0  0  0  0
 15 13  2  0  0  0  0
 17  3  1  0  0  0  0
 18 14  1  0  0  0  0
 19 14  1  0  0  0  0
 20 14  1  0  0  0  0
M  END
