Coordinates from ORCA-job Ph-N2-OTf-B3LYPG-aug-cc-pVDZ-scan-d09-49-n400
 OpenBabel07022015323D

 21 21  0  0  1  0  0  0  0  0999 V2000
   -0.8562   -0.7117   -5.4625 C   0  0  0  0  0  0  0  0  0  0  0  0
   -0.3248    0.5307   -6.0859 C   0  0  1  0  0  0  0  0  0  0  0  0
   -1.1985    1.8280   -5.8311 C   0  0  0  0  0  0  0  0  0  0  0  0
   -2.1057    1.7330   -4.6294 C   0  0  0  0  0  0  0  0  0  0  0  0
   -2.3692    0.5634   -4.0196 C   0  0  0  0  0  0  0  0  0  0  0  0
   -1.7864   -0.6843   -4.4896 C   0  0  0  0  0  0  0  0  0  0  0  0
   -0.4267   -1.6510   -5.8096 H   0  0  0  0  0  0  0  0  0  0  0  0
   -0.1810    0.4512   -7.1693 H   0  0  0  0  0  0  0  0  0  0  0  0
   -2.5426    2.6817   -4.3172 H   0  0  0  0  0  0  0  0  0  0  0  0
   -3.0453    0.5423   -3.1646 H   0  0  0  0  0  0  0  0  0  0  0  0
   -1.1091    2.5511   -6.3595 N   0  0  0  0  0  0  0  0  0  0  0  0
   -0.9876    3.5030   -7.0553 N   0  0  0  0  0  0  0  0  0  0  0  0
    2.3431    0.9481   -6.4554 S   0  0  0  0  0  0  0  0  0  0  0  0
    3.0881   -0.7746   -6.1505 C   0  0  0  0  0  0  0  0  0  0  0  0
    3.2460    1.9189   -5.8279 O   0  0  0  0  0  0  0  0  0  0  0  0
    1.0074    0.8296   -5.4882 O   0  0  0  0  0  0  0  0  0  0  0  0
    1.9503    0.9946   -7.8765 O   0  0  0  0  0  0  0  0  0  0  0  0
    4.2195   -0.8742   -6.8505 F   0  0  0  0  0  0  0  0  0  0  0  0
    3.3418   -0.9426   -4.8528 F   0  0  0  0  0  0  0  0  0  0  0  0
    2.2225   -1.7131   -6.5638 F   0  0  0  0  0  0  0  0  0  0  0  0
   -2.1238   -1.6174   -4.0381 H   0  0  0  0  0  0  0  0  0  0  0  0
  1  6  1  0  0  0  0
  2  8  1  6  0  0  0
  2  3  1  0  0  0  0
  2 16  1  0  0  0  0
  2  1  1  0  0  0  0
  3  4  2  0  0  0  0
  4  9  1  0  0  0  0
  4  5  1  0  0  0  0
  5 10  1  0  0  0  0
  6 21  1  0  0  0  0
  6  5  2  0  0  0  0
  7  1  1  0  0  0  0
 11  3  1  0  0  0  0
 12 11  1  0  0  0  0
 13 14  1  0  0  0  0
 13 15  2  0  0  0  0
 13 16  1  0  0  0  0
 14 19  1  0  0  0  0
 17 13  2  0  0  0  0
 18 14  1  0  0  0  0
 20 14  1  0  0  0  0
M  RAD  3   1   2  11   2  12   3
M  END
