Coordinates from ORCA-job Ph-N2-OTf-B3LYPG-aug-cc-pVDZ-scan-d09-49-n400
 OpenBabel07022015323D

 21 20  0  0  0  0  0  0  0  0999 V2000
   -1.2551   -0.1518   -3.6131 C   0  0  0  0  0  0  0  0  0  0  0  0
   -0.0305    0.3089   -4.1045 C   0  0  0  0  0  0  0  0  0  0  0  0
    0.0690    0.6170   -5.4603 C   0  0  0  0  0  0  0  0  0  0  0  0
   -1.0149    0.4980   -6.3287 C   0  0  0  0  0  0  0  0  0  0  0  0
   -2.2361    0.0463   -5.8199 C   0  0  0  0  0  0  0  0  0  0  0  0
   -2.3561   -0.2833   -4.4660 C   0  0  0  0  0  0  0  0  0  0  0  0
   -1.3467   -0.4056   -2.5570 H   0  0  0  0  0  0  0  0  0  0  0  0
    0.8327    0.4258   -3.4530 H   0  0  0  0  0  0  0  0  0  0  0  0
   -0.9015    0.7662   -7.3778 H   0  0  0  0  0  0  0  0  0  0  0  0
   -3.0935   -0.0516   -6.4860 H   0  0  0  0  0  0  0  0  0  0  0  0
   -0.9283    4.5940   -4.5580 N   0  0  0  0  0  0  0  0  0  0  0  0
   -1.8374    5.0237   -4.1019 N   0  0  0  0  0  0  0  0  0  0  0  0
    2.6401    0.2334   -6.1023 S   0  0  0  0  0  0  0  0  0  0  0  0
    2.4139   -0.4553   -7.8643 C   0  0  0  0  0  0  0  0  0  0  0  0
    3.7520    1.1890   -6.1587 O   0  0  0  0  0  0  0  0  0  0  0  0
    2.5934   -0.9140   -5.1813 O   0  0  0  0  0  0  0  0  0  0  0  0
    1.2626    1.1678   -5.9787 O   0  0  0  0  0  0  0  0  0  0  0  0
    2.2633    0.5508   -8.7278 F   0  0  0  0  0  0  0  0  0  0  0  0
    3.5038   -1.1601   -8.1774 F   0  0  0  0  0  0  0  0  0  0  0  0
    1.3381   -1.2485   -7.9060 F   0  0  0  0  0  0  0  0  0  0  0  0
   -3.3071   -0.6439   -4.0749 H   0  0  0  0  0  0  0  0  0  0  0  0
  1  7  1  0  0  0  0
  2  1  1  0  0  0  0
  2  8  1  0  0  0  0
  3  2  2  0  0  0  0
  4  5  2  0  0  0  0
  4  3  1  0  0  0  0
  5  6  1  0  0  0  0
  6 21  1  0  0  0  0
  6  1  2  0  0  0  0
  9  4  1  0  0  0  0
 10  5  1  0  0  0  0
 11 12  3  0  0  0  0
 13 17  1  0  0  0  0
 13 16  2  0  0  0  0
 14 13  1  0  0  0  0
 15 13  2  0  0  0  0
 17  3  1  0  0  0  0
 18 14  1  0  0  0  0
 19 14  1  0  0  0  0
 20 14  1  0  0  0  0
M  END
