Coordinates from ORCA-job Ph-N2-OTf-B3LYPG-aug-cc-pVDZ-scan-d09-49-n400
 OpenBabel07022015323D

 21 20  0  0  0  0  0  0  0  0999 V2000
   -1.2466   -0.1581   -3.6191 C   0  0  0  0  0  0  0  0  0  0  0  0
   -0.0208    0.2982   -4.1117 C   0  0  0  0  0  0  0  0  0  0  0  0
    0.0797    0.6020   -5.4684 C   0  0  0  0  0  0  0  0  0  0  0  0
   -1.0042    0.4832   -6.3366 C   0  0  0  0  0  0  0  0  0  0  0  0
   -2.2267    0.0361   -5.8267 C   0  0  0  0  0  0  0  0  0  0  0  0
   -2.3477   -0.2893   -4.4719 C   0  0  0  0  0  0  0  0  0  0  0  0
   -1.3389   -0.4084   -2.5623 H   0  0  0  0  0  0  0  0  0  0  0  0
    0.8427    0.4149   -3.4604 H   0  0  0  0  0  0  0  0  0  0  0  0
   -0.8901    0.7482   -7.3865 H   0  0  0  0  0  0  0  0  0  0  0  0
   -3.0842   -0.0616   -6.4926 H   0  0  0  0  0  0  0  0  0  0  0  0
   -1.0088    4.7612   -4.4918 N   0  0  0  0  0  0  0  0  0  0  0  0
   -1.9293    5.1604   -4.0310 N   0  0  0  0  0  0  0  0  0  0  0  0
    2.6495    0.2090   -6.1102 S   0  0  0  0  0  0  0  0  0  0  0  0
    2.4216   -0.4804   -7.8717 C   0  0  0  0  0  0  0  0  0  0  0  0
    3.7646    1.1608   -6.1671 O   0  0  0  0  0  0  0  0  0  0  0  0
    2.5984   -0.9373   -5.1881 O   0  0  0  0  0  0  0  0  0  0  0  0
    1.2750    1.1482   -5.9880 O   0  0  0  0  0  0  0  0  0  0  0  0
    2.2737    0.5255   -8.7359 F   0  0  0  0  0  0  0  0  0  0  0  0
    3.5097   -1.1883   -8.1843 F   0  0  0  0  0  0  0  0  0  0  0  0
    1.3437   -1.2708   -7.9130 F   0  0  0  0  0  0  0  0  0  0  0  0
   -3.2997   -0.6465   -4.0799 H   0  0  0  0  0  0  0  0  0  0  0  0
  1  7  1  0  0  0  0
  2  1  1  0  0  0  0
  2  8  1  0  0  0  0
  3  2  2  0  0  0  0
  4  5  2  0  0  0  0
  4  3  1  0  0  0  0
  5  6  1  0  0  0  0
  6 21  1  0  0  0  0
  6  1  2  0  0  0  0
  9  4  1  0  0  0  0
 10  5  1  0  0  0  0
 11 12  3  0  0  0  0
 13 17  1  0  0  0  0
 13 16  2  0  0  0  0
 14 13  1  0  0  0  0
 15 13  2  0  0  0  0
 17  3  1  0  0  0  0
 18 14  1  0  0  0  0
 19 14  1  0  0  0  0
 20 14  1  0  0  0  0
M  END
