Coordinates from ORCA-job Ph-N2-OTf-B3LYPG-aug-cc-pVDZ-scan-d09-49-n400
 OpenBabel07022015323D

 21 20  0  0  0  0  0  0  0  0999 V2000
   -1.2918   -0.0959   -3.5857 C   0  0  0  0  0  0  0  0  0  0  0  0
   -0.0722    0.3816   -4.0730 C   0  0  0  0  0  0  0  0  0  0  0  0
    0.0234    0.7068   -5.4250 C   0  0  0  0  0  0  0  0  0  0  0  0
   -1.0579    0.5795   -6.2952 C   0  0  0  0  0  0  0  0  0  0  0  0
   -2.2744    0.1107   -5.7908 C   0  0  0  0  0  0  0  0  0  0  0  0
   -2.3917   -0.2306   -4.4395 C   0  0  0  0  0  0  0  0  0  0  0  0
   -1.3804   -0.3611   -2.5322 H   0  0  0  0  0  0  0  0  0  0  0  0
    0.7901    0.5001   -3.4204 H   0  0  0  0  0  0  0  0  0  0  0  0
   -0.9468    0.8553   -7.3425 H   0  0  0  0  0  0  0  0  0  0  0  0
   -3.1300    0.0076   -6.4583 H   0  0  0  0  0  0  0  0  0  0  0  0
   -0.5739    3.7310   -4.8513 N   0  0  0  0  0  0  0  0  0  0  0  0
   -1.4340    4.2712   -4.4180 N   0  0  0  0  0  0  0  0  0  0  0  0
    2.5968    0.3451   -6.0665 S   0  0  0  0  0  0  0  0  0  0  0  0
    2.3754   -0.3430   -7.8293 C   0  0  0  0  0  0  0  0  0  0  0  0
    3.7007    1.3100   -6.1226 O   0  0  0  0  0  0  0  0  0  0  0  0
    2.5619   -0.8044   -5.1476 O   0  0  0  0  0  0  0  0  0  0  0  0
    1.2126    1.2677   -5.9402 O   0  0  0  0  0  0  0  0  0  0  0  0
    2.2168    0.6627   -8.6918 F   0  0  0  0  0  0  0  0  0  0  0  0
    3.4707   -1.0390   -8.1435 F   0  0  0  0  0  0  0  0  0  0  0  0
    1.3058   -1.1447   -7.8720 F   0  0  0  0  0  0  0  0  0  0  0  0
   -3.3391   -0.6040   -4.0518 H   0  0  0  0  0  0  0  0  0  0  0  0
  1  7  1  0  0  0  0
  2  1  1  0  0  0  0
  2  8  1  0  0  0  0
  3  2  2  0  0  0  0
  4  5  2  0  0  0  0
  4  3  1  0  0  0  0
  5  6  1  0  0  0  0
  6 21  1  0  0  0  0
  6  1  2  0  0  0  0
  9  4  1  0  0  0  0
 10  5  1  0  0  0  0
 11 12  3  0  0  0  0
 13 17  1  0  0  0  0
 13 16  2  0  0  0  0
 14 13  1  0  0  0  0
 15 13  2  0  0  0  0
 17  3  1  0  0  0  0
 18 14  1  0  0  0  0
 19 14  1  0  0  0  0
 20 14  1  0  0  0  0
M  END
