Coordinates from ORCA-job Ph-N2-OTf-B3LYPG-aug-cc-pVDZ-scan-d09-49-n400
 OpenBabel07022015323D

 21 20  0  0  0  0  0  0  0  0999 V2000
   -1.2733   -0.1337   -3.5997 C   0  0  0  0  0  0  0  0  0  0  0  0
   -0.0512    0.3354   -4.0894 C   0  0  0  0  0  0  0  0  0  0  0  0
    0.0467    0.6494   -5.4440 C   0  0  0  0  0  0  0  0  0  0  0  0
   -1.0363    0.5268   -6.3130 C   0  0  0  0  0  0  0  0  0  0  0  0
   -2.2551    0.0667   -5.8060 C   0  0  0  0  0  0  0  0  0  0  0  0
   -2.3735   -0.2682   -4.4532 C   0  0  0  0  0  0  0  0  0  0  0  0
   -1.3636   -0.3917   -2.5446 H   0  0  0  0  0  0  0  0  0  0  0  0
    0.8114    0.4543   -3.4374 H   0  0  0  0  0  0  0  0  0  0  0  0
   -0.9243    0.7991   -7.3612 H   0  0  0  0  0  0  0  0  0  0  0  0
   -3.1117   -0.0340   -6.4726 H   0  0  0  0  0  0  0  0  0  0  0  0
   -0.7625    4.2404   -4.6917 N   0  0  0  0  0  0  0  0  0  0  0  0
   -1.6472    4.7278   -4.2458 N   0  0  0  0  0  0  0  0  0  0  0  0
    2.6199    0.2824   -6.0860 S   0  0  0  0  0  0  0  0  0  0  0  0
    2.3987   -0.4020   -7.8502 C   0  0  0  0  0  0  0  0  0  0  0  0
    3.7265    1.2443   -6.1389 O   0  0  0  0  0  0  0  0  0  0  0  0
    2.5794   -0.8682   -5.1688 O   0  0  0  0  0  0  0  0  0  0  0  0
    1.2372    1.2084   -5.9604 O   0  0  0  0  0  0  0  0  0  0  0  0
    2.2447    0.6058   -8.7111 F   0  0  0  0  0  0  0  0  0  0  0  0
    3.4921   -1.1012   -8.1642 F   0  0  0  0  0  0  0  0  0  0  0  0
    1.3264   -1.1999   -7.8955 F   0  0  0  0  0  0  0  0  0  0  0  0
   -3.3227   -0.6351   -4.0635 H   0  0  0  0  0  0  0  0  0  0  0  0
  1  7  1  0  0  0  0
  2  1  1  0  0  0  0
  2  8  1  0  0  0  0
  3  2  2  0  0  0  0
  4  5  2  0  0  0  0
  4  3  1  0  0  0  0
  5  6  1  0  0  0  0
  6 21  1  0  0  0  0
  6  1  2  0  0  0  0
  9  4  1  0  0  0  0
 10  5  1  0  0  0  0
 11 12  3  0  0  0  0
 13 17  1  0  0  0  0
 13 16  2  0  0  0  0
 14 13  1  0  0  0  0
 15 13  2  0  0  0  0
 17  3  1  0  0  0  0
 18 14  1  0  0  0  0
 19 14  1  0  0  0  0
 20 14  1  0  0  0  0
M  END
