Coordinates from ORCA-job Ph-N2-OTf-B3LYPG-aug-cc-pVDZ-scan-d09-49-n400
 OpenBabel07022015323D

 21 20  0  0  0  0  0  0  0  0999 V2000
   -1.2719   -0.1358   -3.6009 C   0  0  0  0  0  0  0  0  0  0  0  0
   -0.0496    0.3328   -4.0907 C   0  0  0  0  0  0  0  0  0  0  0  0
    0.0483    0.6462   -5.4455 C   0  0  0  0  0  0  0  0  0  0  0  0
   -1.0346    0.5237   -6.3144 C   0  0  0  0  0  0  0  0  0  0  0  0
   -2.2536    0.0642   -5.8072 C   0  0  0  0  0  0  0  0  0  0  0  0
   -2.3721   -0.2702   -4.4543 C   0  0  0  0  0  0  0  0  0  0  0  0
   -1.3622   -0.3934   -2.5457 H   0  0  0  0  0  0  0  0  0  0  0  0
    0.8131    0.4516   -3.4388 H   0  0  0  0  0  0  0  0  0  0  0  0
   -0.9226    0.7957   -7.3627 H   0  0  0  0  0  0  0  0  0  0  0  0
   -3.1103   -0.0364   -6.4738 H   0  0  0  0  0  0  0  0  0  0  0  0
   -0.7759    4.2730   -4.6800 N   0  0  0  0  0  0  0  0  0  0  0  0
   -1.6623    4.7564   -4.2332 N   0  0  0  0  0  0  0  0  0  0  0  0
    2.6215    0.2783   -6.0874 S   0  0  0  0  0  0  0  0  0  0  0  0
    2.4001   -0.4065   -7.8514 C   0  0  0  0  0  0  0  0  0  0  0  0
    3.7284    1.2399   -6.1405 O   0  0  0  0  0  0  0  0  0  0  0  0
    2.5806   -0.8721   -5.1699 O   0  0  0  0  0  0  0  0  0  0  0  0
    1.2390    1.2048   -5.9620 O   0  0  0  0  0  0  0  0  0  0  0  0
    2.2463    0.6012   -8.7126 F   0  0  0  0  0  0  0  0  0  0  0  0
    3.4933   -1.1060   -8.1652 F   0  0  0  0  0  0  0  0  0  0  0  0
    1.3276   -1.2041   -7.8965 F   0  0  0  0  0  0  0  0  0  0  0  0
   -3.3214   -0.6367   -4.0645 H   0  0  0  0  0  0  0  0  0  0  0  0
  1  7  1  0  0  0  0
  2  1  1  0  0  0  0
  2  8  1  0  0  0  0
  3  2  2  0  0  0  0
  4  5  2  0  0  0  0
  4  3  1  0  0  0  0
  5  6  1  0  0  0  0
  6 21  1  0  0  0  0
  6  1  2  0  0  0  0
  9  4  1  0  0  0  0
 10  5  1  0  0  0  0
 11 12  3  0  0  0  0
 13 17  1  0  0  0  0
 13 16  2  0  0  0  0
 14 13  1  0  0  0  0
 15 13  2  0  0  0  0
 17  3  1  0  0  0  0
 18 14  1  0  0  0  0
 19 14  1  0  0  0  0
 20 14  1  0  0  0  0
M  END
