Coordinates from ORCA-job Ph-N2-OTf-B3LYPG-aug-cc-pVDZ-scan-d09-49-n400
 OpenBabel07022015323D

 21 20  0  0  0  0  0  0  0  0999 V2000
   -1.3040   -0.7017   -4.3062 C   0  0  0  0  0  0  0  0  0  0  0  0
   -0.4605    0.2691   -4.8608 C   0  0  0  0  0  0  0  0  0  0  0  0
   -1.1112    1.3665   -5.3969 C   0  0  0  0  0  0  0  0  0  0  0  0
   -2.4875    1.5979   -5.4393 C   0  0  0  0  0  0  0  0  0  0  0  0
   -3.2847    0.6021   -4.8772 C   0  0  0  0  0  0  0  0  0  0  0  0
   -2.6929   -0.5394   -4.3152 C   0  0  0  0  0  0  0  0  0  0  0  0
   -0.8525   -1.5911   -3.8691 H   0  0  0  0  0  0  0  0  0  0  0  0
    0.6297    0.1545   -4.8669 H   0  0  0  0  0  0  0  0  0  0  0  0
   -2.9096    2.4956   -5.8848 H   0  0  0  0  0  0  0  0  0  0  0  0
   -4.3679    0.7192   -4.8815 H   0  0  0  0  0  0  0  0  0  0  0  0
   -0.2760    2.5120   -6.0275 N   0  0  0  0  0  0  0  0  0  0  0  0
    0.0158    3.4768   -6.4881 N   0  0  0  0  0  0  0  0  0  0  0  0
    3.0290    0.6481   -5.8268 S   0  0  0  0  0  0  0  0  0  0  0  0
    3.2031   -0.3405   -7.4357 C   0  0  0  0  0  0  0  0  0  0  0  0
    4.3747    1.2219   -5.5867 O   0  0  0  0  0  0  0  0  0  0  0  0
    2.5180   -0.3702   -4.8446 O   0  0  0  0  0  0  0  0  0  0  0  0
    1.9526    1.6661   -6.1945 O   0  0  0  0  0  0  0  0  0  0  0  0
    3.6020    0.4534   -8.4454 F   0  0  0  0  0  0  0  0  0  0  0  0
    4.0973   -1.3317   -7.2903 F   0  0  0  0  0  0  0  0  0  0  0  0
    2.0143   -0.8900   -7.7791 F   0  0  0  0  0  0  0  0  0  0  0  0
   -3.3279   -1.3119   -3.8810 H   0  0  0  0  0  0  0  0  0  0  0  0
  1  7  1  0  0  0  0
  2  1  2  0  0  0  0
  3  2  1  0  0  0  0
  4  3  2  0  0  0  0
  4  5  1  0  0  0  0
  5  6  2  0  0  0  0
  6  1  1  0  0  0  0
  6 21  1  0  0  0  0
  8  2  1  0  0  0  0
  9  4  1  0  0  0  0
 10  5  1  0  0  0  0
 11  3  1  0  0  0  0
 12 11  1  0  0  0  0
 13 15  2  0  0  0  0
 13 16  1  0  0  0  0
 14 19  1  0  0  0  0
 14 13  1  0  0  0  0
 17 13  2  0  0  0  0
 18 14  1  0  0  0  0
 20 14  1  0  0  0  0
M  RAD  3  11   2  12   3  16   2
M  END
