Coordinates from ORCA-job Ph-N2-OTf-B3LYPG-aug-cc-pVDZ-scan-d09-49-n400
 OpenBabel07022015323D

 21 20  0  0  0  0  0  0  0  0999 V2000
   -1.2320   -0.1695   -3.6303 C   0  0  0  0  0  0  0  0  0  0  0  0
   -0.0042    0.2795   -4.1247 C   0  0  0  0  0  0  0  0  0  0  0  0
    0.0976    0.5769   -5.4828 C   0  0  0  0  0  0  0  0  0  0  0  0
   -0.9868    0.4589   -6.3506 C   0  0  0  0  0  0  0  0  0  0  0  0
   -2.2111    0.0190   -5.8389 C   0  0  0  0  0  0  0  0  0  0  0  0
   -2.3335   -0.3000   -4.4826 C   0  0  0  0  0  0  0  0  0  0  0  0
   -1.3256   -0.4146   -2.5724 H   0  0  0  0  0  0  0  0  0  0  0  0
    0.8596    0.3956   -3.4738 H   0  0  0  0  0  0  0  0  0  0  0  0
   -0.8714    0.7189   -7.4016 H   0  0  0  0  0  0  0  0  0  0  0  0
   -3.0689   -0.0780   -6.5044 H   0  0  0  0  0  0  0  0  0  0  0  0
   -1.1435    5.0476   -4.3773 N   0  0  0  0  0  0  0  0  0  0  0  0
   -2.0834    5.3900   -3.9099 N   0  0  0  0  0  0  0  0  0  0  0  0
    2.6655    0.1693   -6.1237 S   0  0  0  0  0  0  0  0  0  0  0  0
    2.4343   -0.5244   -7.8831 C   0  0  0  0  0  0  0  0  0  0  0  0
    3.7851    1.1157   -6.1835 O   0  0  0  0  0  0  0  0  0  0  0  0
    2.6087   -0.9737   -5.1980 O   0  0  0  0  0  0  0  0  0  0  0  0
    1.2954    1.1156   -6.0046 O   0  0  0  0  0  0  0  0  0  0  0  0
    2.2896    0.4797   -8.7501 F   0  0  0  0  0  0  0  0  0  0  0  0
    3.5196   -1.2371   -8.1942 F   0  0  0  0  0  0  0  0  0  0  0  0
    1.3535   -1.3109   -7.9216 F   0  0  0  0  0  0  0  0  0  0  0  0
   -3.2869   -0.6518   -4.0893 H   0  0  0  0  0  0  0  0  0  0  0  0
  1  7  1  0  0  0  0
  2  1  1  0  0  0  0
  2  8  1  0  0  0  0
  3  2  2  0  0  0  0
  4  5  2  0  0  0  0
  4  3  1  0  0  0  0
  5  6  1  0  0  0  0
  6 21  1  0  0  0  0
  6  1  2  0  0  0  0
  9  4  1  0  0  0  0
 10  5  1  0  0  0  0
 11 12  3  0  0  0  0
 13 17  1  0  0  0  0
 13 16  2  0  0  0  0
 14 13  1  0  0  0  0
 15 13  2  0  0  0  0
 17  3  1  0  0  0  0
 18 14  1  0  0  0  0
 19 14  1  0  0  0  0
 20 14  1  0  0  0  0
M  END
