Coordinates from ORCA-job Ph-N2-OTf-B3LYPG-aug-cc-pVDZ-scan-d09-49-n400
 OpenBabel07022015323D

 21 20  0  0  0  0  0  0  0  0999 V2000
   -1.3072   -0.7160   -4.3064 C   0  0  0  0  0  0  0  0  0  0  0  0
   -0.4585    0.2602   -4.8598 C   0  0  0  0  0  0  0  0  0  0  0  0
   -1.1434    1.3285   -5.3698 C   0  0  0  0  0  0  0  0  0  0  0  0
   -2.4985    1.5945   -5.4265 C   0  0  0  0  0  0  0  0  0  0  0  0
   -3.2918    0.5876   -4.8628 C   0  0  0  0  0  0  0  0  0  0  0  0
   -2.6961   -0.5547   -4.3098 C   0  0  0  0  0  0  0  0  0  0  0  0
   -0.8497   -1.6058   -3.8760 H   0  0  0  0  0  0  0  0  0  0  0  0
    0.6359    0.1473   -4.8705 H   0  0  0  0  0  0  0  0  0  0  0  0
   -2.9168    2.4951   -5.8669 H   0  0  0  0  0  0  0  0  0  0  0  0
   -4.3750    0.7063   -4.8639 H   0  0  0  0  0  0  0  0  0  0  0  0
   -0.2237    2.5953   -6.0628 N   0  0  0  0  0  0  0  0  0  0  0  0
    0.0175    3.5762   -6.5121 N   0  0  0  0  0  0  0  0  0  0  0  0
    3.0181    0.6537   -5.8378 S   0  0  0  0  0  0  0  0  0  0  0  0
    3.2128   -0.3526   -7.4333 C   0  0  0  0  0  0  0  0  0  0  0  0
    4.3676    1.2065   -5.5703 O   0  0  0  0  0  0  0  0  0  0  0  0
    2.4735   -0.3520   -4.8573 O   0  0  0  0  0  0  0  0  0  0  0  0
    1.9664    1.6834   -6.2368 O   0  0  0  0  0  0  0  0  0  0  0  0
    3.6400    0.4278   -8.4416 F   0  0  0  0  0  0  0  0  0  0  0  0
    4.0933   -1.3517   -7.2613 F   0  0  0  0  0  0  0  0  0  0  0  0
    2.0252   -0.8924   -7.7944 F   0  0  0  0  0  0  0  0  0  0  0  0
   -3.3279   -1.3304   -3.8772 H   0  0  0  0  0  0  0  0  0  0  0  0
  1  7  1  0  0  0  0
  2  1  2  0  0  0  0
  3  2  1  0  0  0  0
  4  3  2  0  0  0  0
  4  5  1  0  0  0  0
  5  6  2  0  0  0  0
  6  1  1  0  0  0  0
  6 21  1  0  0  0  0
  8  2  1  0  0  0  0
  9  4  1  0  0  0  0
 10  5  1  0  0  0  0
 11  3  1  0  0  0  0
 12 11  1  0  0  0  0
 13 15  2  0  0  0  0
 13 16  1  0  0  0  0
 14 19  1  0  0  0  0
 14 13  1  0  0  0  0
 17 13  2  0  0  0  0
 18 14  1  0  0  0  0
 20 14  1  0  0  0  0
M  RAD  3  11   2  12   3  16   2
M  END
