Coordinates from ORCA-job Ph-N2-OTf-B3LYPG-aug-cc-pVDZ-scan-d09-49-n400
 OpenBabel07022015323D

 21 20  0  0  0  0  0  0  0  0999 V2000
   -1.2617   -0.1469   -3.6083 C   0  0  0  0  0  0  0  0  0  0  0  0
   -0.0381    0.3172   -4.0991 C   0  0  0  0  0  0  0  0  0  0  0  0
    0.0606    0.6275   -5.4545 C   0  0  0  0  0  0  0  0  0  0  0  0
   -1.0229    0.5071   -6.3230 C   0  0  0  0  0  0  0  0  0  0  0  0
   -2.2432    0.0520   -5.8148 C   0  0  0  0  0  0  0  0  0  0  0  0
   -2.3624   -0.2797   -4.4613 C   0  0  0  0  0  0  0  0  0  0  0  0
   -1.3527   -0.4023   -2.5525 H   0  0  0  0  0  0  0  0  0  0  0  0
    0.8249    0.4350   -3.4474 H   0  0  0  0  0  0  0  0  0  0  0  0
   -0.9102    0.7770   -7.3717 H   0  0  0  0  0  0  0  0  0  0  0  0
   -3.1003   -0.0471   -6.4810 H   0  0  0  0  0  0  0  0  0  0  0  0
   -0.8683    4.4748   -4.6058 N   0  0  0  0  0  0  0  0  0  0  0  0
   -1.7684    4.9268   -4.1533 N   0  0  0  0  0  0  0  0  0  0  0  0
    2.6327    0.2506   -6.0964 S   0  0  0  0  0  0  0  0  0  0  0  0
    2.4089   -0.4359   -7.8595 C   0  0  0  0  0  0  0  0  0  0  0  0
    3.7425    1.2088   -6.1510 O   0  0  0  0  0  0  0  0  0  0  0  0
    2.5882   -0.8983   -5.1772 O   0  0  0  0  0  0  0  0  0  0  0  0
    1.2530    1.1816   -5.9722 O   0  0  0  0  0  0  0  0  0  0  0  0
    2.2573    0.5711   -8.7218 F   0  0  0  0  0  0  0  0  0  0  0  0
    3.5002   -1.1386   -8.1728 F   0  0  0  0  0  0  0  0  0  0  0  0
    1.3344   -1.2309   -7.9031 F   0  0  0  0  0  0  0  0  0  0  0  0
   -3.3127   -0.6429   -4.0707 H   0  0  0  0  0  0  0  0  0  0  0  0
  1  7  1  0  0  0  0
  2  1  1  0  0  0  0
  2  8  1  0  0  0  0
  3  2  2  0  0  0  0
  4  5  2  0  0  0  0
  4  3  1  0  0  0  0
  5  6  1  0  0  0  0
  6 21  1  0  0  0  0
  6  1  2  0  0  0  0
  9  4  1  0  0  0  0
 10  5  1  0  0  0  0
 11 12  3  0  0  0  0
 13 17  1  0  0  0  0
 13 16  2  0  0  0  0
 14 13  1  0  0  0  0
 15 13  2  0  0  0  0
 17  3  1  0  0  0  0
 18 14  1  0  0  0  0
 19 14  1  0  0  0  0
 20 14  1  0  0  0  0
M  END
