Coordinates from ORCA-job Ph-N2-OTf-B3LYPG-aug-cc-pVDZ-scan-d09-49-n400
 OpenBabel07022015323D

 21 20  0  0  0  0  0  0  0  0999 V2000
   -1.3037   -0.7187   -4.3119 C   0  0  0  0  0  0  0  0  0  0  0  0
   -0.4568    0.2657   -4.8618 C   0  0  0  0  0  0  0  0  0  0  0  0
   -1.1625    1.3192   -5.3557 C   0  0  0  0  0  0  0  0  0  0  0  0
   -2.5101    1.5947   -5.4161 C   0  0  0  0  0  0  0  0  0  0  0  0
   -3.2964    0.5775   -4.8548 C   0  0  0  0  0  0  0  0  0  0  0  0
   -2.6932   -0.5645   -4.3106 C   0  0  0  0  0  0  0  0  0  0  0  0
   -0.8382   -1.6080   -3.8884 H   0  0  0  0  0  0  0  0  0  0  0  0
    0.6410    0.1546   -4.8756 H   0  0  0  0  0  0  0  0  0  0  0  0
   -2.9308    2.4965   -5.8508 H   0  0  0  0  0  0  0  0  0  0  0  0
   -4.3802    0.6925   -4.8533 H   0  0  0  0  0  0  0  0  0  0  0  0
   -0.2145    2.6477   -6.0718 N   0  0  0  0  0  0  0  0  0  0  0  0
    0.0218    3.6322   -6.5134 N   0  0  0  0  0  0  0  0  0  0  0  0
    3.0110    0.6561   -5.8472 S   0  0  0  0  0  0  0  0  0  0  0  0
    3.2205   -0.3666   -7.4304 C   0  0  0  0  0  0  0  0  0  0  0  0
    4.3625    1.1942   -5.5609 O   0  0  0  0  0  0  0  0  0  0  0  0
    2.4437   -0.3396   -4.8661 O   0  0  0  0  0  0  0  0  0  0  0  0
    1.9742    1.6891   -6.2675 O   0  0  0  0  0  0  0  0  0  0  0  0
    3.6670    0.4020   -8.4393 F   0  0  0  0  0  0  0  0  0  0  0  0
    4.0917   -1.3702   -7.2378 F   0  0  0  0  0  0  0  0  0  0  0  0
    2.0343   -0.9014   -7.8031 F   0  0  0  0  0  0  0  0  0  0  0  0
   -3.3195   -1.3461   -3.8808 H   0  0  0  0  0  0  0  0  0  0  0  0
  1  6  1  0  0  0  0
  1  7  1  0  0  0  0
  2  1  2  0  0  0  0
  3  2  1  0  0  0  0
  4  3  2  0  0  0  0
  4  5  1  0  0  0  0
  5 10  1  0  0  0  0
  5  6  2  0  0  0  0
  6 21  1  0  0  0  0
  8  2  1  0  0  0  0
  9  4  1  0  0  0  0
 11  3  1  0  0  0  0
 12 11  1  0  0  0  0
 13 15  2  0  0  0  0
 13 16  1  0  0  0  0
 14 19  1  0  0  0  0
 14 13  1  0  0  0  0
 17 13  2  0  0  0  0
 18 14  1  0  0  0  0
 20 14  1  0  0  0  0
M  RAD  3  11   2  12   3  16   2
M  END
