Coordinates from ORCA-job Ph-N2-OTf-B3LYPG-aug-cc-pVDZ-scan-d09-49-n400
 OpenBabel07022015323D

 21 19  0  0  0  0  0  0  0  0999 V2000
   -1.1814   -0.7759   -4.4747 C   0  0  0  0  0  0  0  0  0  0  0  0
   -0.3704    0.3570   -4.7999 C   0  0  0  0  0  0  0  0  0  0  0  0
   -1.1872    1.3257   -5.1638 C   0  0  0  0  0  0  0  0  0  0  0  0
   -2.5015    1.5999   -5.3354 C   0  0  0  0  0  0  0  0  0  0  0  0
   -3.2339    0.4346   -4.9995 C   0  0  0  0  0  0  0  0  0  0  0  0
   -2.5750   -0.7263   -4.5732 C   0  0  0  0  0  0  0  0  0  0  0  0
   -0.6621   -1.6807   -4.1565 H   0  0  0  0  0  0  0  0  0  0  0  0
    0.7877    0.3185   -4.7878 H   0  0  0  0  0  0  0  0  0  0  0  0
   -2.9488    2.5296   -5.6706 H   0  0  0  0  0  0  0  0  0  0  0  0
   -4.3207    0.4752   -5.0822 H   0  0  0  0  0  0  0  0  0  0  0  0
   -0.1148    3.2886   -5.5709 N   0  0  0  0  0  0  0  0  0  0  0  0
    0.3788    4.2631   -5.7206 N   0  0  0  0  0  0  0  0  0  0  0  0
    2.8284    0.8478   -6.1671 S   0  0  0  0  0  0  0  0  0  0  0  0
    3.0573   -0.6773   -7.2691 C   0  0  0  0  0  0  0  0  0  0  0  0
    4.1731    1.4611   -6.0699 O   0  0  0  0  0  0  0  0  0  0  0  0
    2.3311    0.2214   -4.8541 O   0  0  0  0  0  0  0  0  0  0  0  0
    1.7440    1.6226   -6.8550 O   0  0  0  0  0  0  0  0  0  0  0  0
    3.4408   -0.3089   -8.5019 F   0  0  0  0  0  0  0  0  0  0  0  0
    3.9837   -1.5036   -6.7578 F   0  0  0  0  0  0  0  0  0  0  0  0
    1.8925   -1.3566   -7.3709 F   0  0  0  0  0  0  0  0  0  0  0  0
   -3.1598   -1.6089   -4.3162 H   0  0  0  0  0  0  0  0  0  0  0  0
  1  7  1  0  0  0  0
  2  8  1  0  0  0  0
  2  1  2  0  0  0  0
  3  2  1  0  0  0  0
  4  3  2  0  0  0  0
  4  5  1  0  0  0  0
  5  6  2  0  0  0  0
  6  1  1  0  0  0  0
  6 21  1  0  0  0  0
  9  4  1  0  0  0  0
 10  5  1  0  0  0  0
 12 11  3  0  0  0  0
 13 15  2  0  0  0  0
 13 16  1  0  0  0  0
 14 19  1  0  0  0  0
 14 13  1  0  0  0  0
 17 13  2  0  0  0  0
 18 14  1  0  0  0  0
 20 14  1  0  0  0  0
M  RAD  2   3   2  16   2
M  END
