Coordinates from ORCA-job Ph-N2-OTf-B3LYPG-aug-cc-pVDZ-scan-d09-49-n400
 OpenBabel07022015323D

 21 20  0  0  0  0  0  0  0  0999 V2000
   -1.2850   -0.1141   -3.5913 C   0  0  0  0  0  0  0  0  0  0  0  0
   -0.0642    0.3596   -4.0797 C   0  0  0  0  0  0  0  0  0  0  0  0
    0.0325    0.6792   -5.4330 C   0  0  0  0  0  0  0  0  0  0  0  0
   -1.0499    0.5555   -6.3024 C   0  0  0  0  0  0  0  0  0  0  0  0
   -2.2675    0.0907   -5.7967 C   0  0  0  0  0  0  0  0  0  0  0  0
   -2.3851   -0.2484   -4.4449 C   0  0  0  0  0  0  0  0  0  0  0  0
   -1.3743   -0.3759   -2.5371 H   0  0  0  0  0  0  0  0  0  0  0  0
    0.7983    0.4783   -3.4275 H   0  0  0  0  0  0  0  0  0  0  0  0
   -0.9386    0.8306   -7.3499 H   0  0  0  0  0  0  0  0  0  0  0  0
   -3.1238   -0.0105   -6.4637 H   0  0  0  0  0  0  0  0  0  0  0  0
   -0.6480    3.9536   -4.7867 N   0  0  0  0  0  0  0  0  0  0  0  0
   -1.5193    4.4699   -4.3471 N   0  0  0  0  0  0  0  0  0  0  0  0
    2.6066    0.3197   -6.0747 S   0  0  0  0  0  0  0  0  0  0  0  0
    2.3858   -0.3670   -7.8381 C   0  0  0  0  0  0  0  0  0  0  0  0
    3.7101    1.2850   -6.1294 O   0  0  0  0  0  0  0  0  0  0  0  0
    2.5710   -0.8304   -5.1566 O   0  0  0  0  0  0  0  0  0  0  0  0
    1.2215    1.2416   -5.9483 O   0  0  0  0  0  0  0  0  0  0  0  0
    2.2284    0.6395   -8.6999 F   0  0  0  0  0  0  0  0  0  0  0  0
    3.4808   -1.0635   -8.1521 F   0  0  0  0  0  0  0  0  0  0  0  0
    1.3157   -1.1678   -7.8818 F   0  0  0  0  0  0  0  0  0  0  0  0
   -3.3334   -0.6188   -4.0563 H   0  0  0  0  0  0  0  0  0  0  0  0
  1  7  1  0  0  0  0
  2  1  1  0  0  0  0
  2  8  1  0  0  0  0
  3  2  2  0  0  0  0
  4  5  2  0  0  0  0
  4  3  1  0  0  0  0
  5  6  1  0  0  0  0
  6 21  1  0  0  0  0
  6  1  2  0  0  0  0
  9  4  1  0  0  0  0
 10  5  1  0  0  0  0
 11 12  3  0  0  0  0
 13 17  1  0  0  0  0
 13 16  2  0  0  0  0
 14 13  1  0  0  0  0
 15 13  2  0  0  0  0
 17  3  1  0  0  0  0
 18 14  1  0  0  0  0
 19 14  1  0  0  0  0
 20 14  1  0  0  0  0
M  END
