Coordinates from ORCA-job Ph-N2-OTf-B3LYPG-aug-cc-pVDZ-scan-d09-49-n400
 OpenBabel07022015323D

 21 19  0  0  0  0  0  0  0  0999 V2000
   -1.3003   -0.7795   -4.4249 C   0  0  0  0  0  0  0  0  0  0  0  0
   -0.4227    0.2786   -4.7692 C   0  0  0  0  0  0  0  0  0  0  0  0
   -1.1386    1.3464   -5.1635 C   0  0  0  0  0  0  0  0  0  0  0  0
   -2.4573    1.6563   -5.3224 C   0  0  0  0  0  0  0  0  0  0  0  0
   -3.2666    0.5573   -4.9694 C   0  0  0  0  0  0  0  0  0  0  0  0
   -2.6881   -0.6383   -4.5244 C   0  0  0  0  0  0  0  0  0  0  0  0
   -0.8520   -1.7135   -4.0862 H   0  0  0  0  0  0  0  0  0  0  0  0
    0.6928    0.1965   -4.7502 H   0  0  0  0  0  0  0  0  0  0  0  0
   -2.8505    2.6048   -5.6735 H   0  0  0  0  0  0  0  0  0  0  0  0
   -4.3482    0.6644   -5.0527 H   0  0  0  0  0  0  0  0  0  0  0  0
   -0.0529    2.9136   -5.5854 N   0  0  0  0  0  0  0  0  0  0  0  0
    0.3344    3.9399   -5.7004 N   0  0  0  0  0  0  0  0  0  0  0  0
    2.7788    0.8404   -6.1956 S   0  0  0  0  0  0  0  0  0  0  0  0
    3.2419   -0.6173   -7.3163 C   0  0  0  0  0  0  0  0  0  0  0  0
    3.9848    1.7048   -6.1669 O   0  0  0  0  0  0  0  0  0  0  0  0
    2.4278    0.1585   -4.8831 O   0  0  0  0  0  0  0  0  0  0  0  0
    1.5554    1.4143   -6.8753 O   0  0  0  0  0  0  0  0  0  0  0  0
    3.5401   -0.1860   -8.5534 F   0  0  0  0  0  0  0  0  0  0  0  0
    4.3042   -1.2738   -6.8224 F   0  0  0  0  0  0  0  0  0  0  0  0
    2.2106   -1.4857   -7.4072 F   0  0  0  0  0  0  0  0  0  0  0  0
   -3.3320   -1.4750   -4.2548 H   0  0  0  0  0  0  0  0  0  0  0  0
  1  7  1  0  0  0  0
  2  8  1  0  0  0  0
  2  1  2  0  0  0  0
  3  2  1  0  0  0  0
  4  3  2  0  0  0  0
  4  5  1  0  0  0  0
  5  6  2  0  0  0  0
  6  1  1  0  0  0  0
  6 21  1  0  0  0  0
  9  4  1  0  0  0  0
 10  5  1  0  0  0  0
 12 11  3  0  0  0  0
 13 15  2  0  0  0  0
 13 16  1  0  0  0  0
 14 19  1  0  0  0  0
 14 13  1  0  0  0  0
 17 13  2  0  0  0  0
 18 14  1  0  0  0  0
 20 14  1  0  0  0  0
M  RAD  2   3   2  16   2
M  END
