Coordinates from ORCA-job Ph-N2-OTf-B3LYPG-aug-cc-pVDZ-scan-d09-49-n400
 OpenBabel07022015323D

 21 20  0  0  0  0  0  0  0  0999 V2000
   -1.2681   -0.1409   -3.6038 C   0  0  0  0  0  0  0  0  0  0  0  0
   -0.0454    0.3261   -4.0941 C   0  0  0  0  0  0  0  0  0  0  0  0
    0.0527    0.6385   -5.4491 C   0  0  0  0  0  0  0  0  0  0  0  0
   -1.0305    0.5166   -6.3178 C   0  0  0  0  0  0  0  0  0  0  0  0
   -2.2498    0.0585   -5.8102 C   0  0  0  0  0  0  0  0  0  0  0  0
   -2.3685   -0.2749   -4.4571 C   0  0  0  0  0  0  0  0  0  0  0  0
   -1.3586   -0.3977   -2.5484 H   0  0  0  0  0  0  0  0  0  0  0  0
    0.8174    0.4448   -3.4423 H   0  0  0  0  0  0  0  0  0  0  0  0
   -0.9182    0.7876   -7.3663 H   0  0  0  0  0  0  0  0  0  0  0  0
   -3.1067   -0.0417   -6.4766 H   0  0  0  0  0  0  0  0  0  0  0  0
   -0.8104    4.3545   -4.6510 N   0  0  0  0  0  0  0  0  0  0  0  0
   -1.7017    4.8268   -4.2019 N   0  0  0  0  0  0  0  0  0  0  0  0
    2.6256    0.2679   -6.0909 S   0  0  0  0  0  0  0  0  0  0  0  0
    2.4037   -0.4178   -7.8545 C   0  0  0  0  0  0  0  0  0  0  0  0
    3.7333    1.2285   -6.1445 O   0  0  0  0  0  0  0  0  0  0  0  0
    2.5837   -0.8819   -5.1726 O   0  0  0  0  0  0  0  0  0  0  0  0
    1.2439    1.1956   -5.9661 O   0  0  0  0  0  0  0  0  0  0  0  0
    2.2506    0.5896   -8.7162 F   0  0  0  0  0  0  0  0  0  0  0  0
    3.4964   -1.1182   -8.1679 F   0  0  0  0  0  0  0  0  0  0  0  0
    1.3306   -1.2146   -7.8991 F   0  0  0  0  0  0  0  0  0  0  0  0
   -3.3181   -0.6403   -4.0669 H   0  0  0  0  0  0  0  0  0  0  0  0
  1  7  1  0  0  0  0
  2  1  1  0  0  0  0
  2  8  1  0  0  0  0
  3  2  2  0  0  0  0
  4  5  2  0  0  0  0
  4  3  1  0  0  0  0
  5  6  1  0  0  0  0
  6 21  1  0  0  0  0
  6  1  2  0  0  0  0
  9  4  1  0  0  0  0
 10  5  1  0  0  0  0
 11 12  3  0  0  0  0
 13 17  1  0  0  0  0
 13 16  2  0  0  0  0
 14 13  1  0  0  0  0
 15 13  2  0  0  0  0
 17  3  1  0  0  0  0
 18 14  1  0  0  0  0
 19 14  1  0  0  0  0
 20 14  1  0  0  0  0
M  END
