Coordinates from ORCA-job p-CH3O-Ph-N2-NO3-B3LYPG-aug-cc-pVDZ-scan-d09-49-n400
 OpenBabel11111914563D

 21 20  0  0  0  0  0  0  0  0999 V2000
   -0.4674   -0.5089   -0.4793 C   0  0  0  0  0  0  0  0  0  0  0  0
    0.9186   -0.5940   -0.4323 C   0  0  0  0  0  0  0  0  0  0  0  0
    1.6146    0.0387    0.6034 C   0  0  0  0  0  0  0  0  0  0  0  0
    0.9352    0.7564    1.5836 C   0  0  0  0  0  0  0  0  0  0  0  0
   -0.4586    0.8524    1.5377 C   0  0  0  0  0  0  0  0  0  0  0  0
   -1.1636    0.2187    0.5025 C   0  0  0  0  0  0  0  0  0  0  0  0
   -1.0345   -0.9996   -1.2688 H   0  0  0  0  0  0  0  0  0  0  0  0
    1.4689   -1.1586   -1.1840 H   0  0  0  0  0  0  0  0  0  0  0  0
    1.4937    1.2368    2.3860 H   0  0  0  0  0  0  0  0  0  0  0  0
   -0.9759    1.4156    2.3100 H   0  0  0  0  0  0  0  0  0  0  0  0
    0.8935    2.2928   -2.7176 N   0  0  0  0  0  0  0  0  0  0  0  0
    1.5248    2.1631   -3.6145 N   0  0  0  0  0  0  0  0  0  0  0  0
   -2.5188    0.2451    0.3649 O   0  0  0  0  0  0  0  0  0  0  0  0
   -3.2841    0.9693    1.3250 C   0  0  0  0  0  0  0  0  0  0  0  0
   -4.3278    0.8573    1.0168 H   0  0  0  0  0  0  0  0  0  0  0  0
   -3.0138    2.0361    1.3258 H   0  0  0  0  0  0  0  0  0  0  0  0
   -3.1529    0.5519    2.3349 H   0  0  0  0  0  0  0  0  0  0  0  0
    4.9768    0.7282    0.1907 O   0  0  0  0  0  0  0  0  0  0  0  0
    3.8024    0.9587    0.1209 N   0  0  0  0  0  0  0  0  0  0  0  0
    2.9936   -0.1440    0.7001 O   0  0  0  0  0  0  0  0  0  0  0  0
    3.2057    1.9069   -0.3175 O   0  0  0  0  0  0  0  0  0  0  0  0
  1  2  2  0  0  0  0
  1  6  1  0  0  0  0
  2  3  1  0  0  0  0
  3 20  1  0  0  0  0
  3  4  2  0  0  0  0
  4  9  1  0  0  0  0
  5  4  1  0  0  0  0
  5 10  1  0  0  0  0
  6  5  2  0  0  0  0
  7  1  1  0  0  0  0
  8  2  1  0  0  0  0
 12 11  3  0  0  0  0
 13  6  1  0  0  0  0
 13 14  1  0  0  0  0
 14 16  1  0  0  0  0
 14 17  1  0  0  0  0
 15 14  1  0  0  0  0
 19 18  2  0  0  0  0
 19 20  1  0  0  0  0
 21 19  2  0  0  0  0
M  END
