Coordinates from ORCA-job p-CH3O-Ph-N2-NO3-B3LYPG-aug-cc-pVDZ-scan-d09-49-n400
 OpenBabel11111914563D

 21 20  0  0  0  0  0  0  0  0999 V2000
   -0.6166   -0.6648   -0.4964 C   0  0  0  0  0  0  0  0  0  0  0  0
    0.7669   -0.6693   -0.6108 C   0  0  0  0  0  0  0  0  0  0  0  0
    1.5348    0.1537    0.2220 C   0  0  0  0  0  0  0  0  0  0  0  0
    0.9312    0.9474    1.1931 C   0  0  0  0  0  0  0  0  0  0  0  0
   -0.4647    0.9721    1.2898 C   0  0  0  0  0  0  0  0  0  0  0  0
   -1.2442    0.1692    0.4449 C   0  0  0  0  0  0  0  0  0  0  0  0
   -1.2323   -1.2985   -1.1329 H   0  0  0  0  0  0  0  0  0  0  0  0
    1.2663   -1.3072   -1.3386 H   0  0  0  0  0  0  0  0  0  0  0  0
    1.5269    1.5578    1.8653 H   0  0  0  0  0  0  0  0  0  0  0  0
   -0.9237    1.6122    2.0387 H   0  0  0  0  0  0  0  0  0  0  0  0
    1.2174    1.9250   -1.8901 N   0  0  0  0  0  0  0  0  0  0  0  0
    2.0399    1.9695   -2.6277 N   0  0  0  0  0  0  0  0  0  0  0  0
   -2.6065    0.1176    0.4663 O   0  0  0  0  0  0  0  0  0  0  0  0
   -3.2990    0.9349    1.4061 C   0  0  0  0  0  0  0  0  0  0  0  0
   -4.3627    0.7386    1.2424 H   0  0  0  0  0  0  0  0  0  0  0  0
   -3.0916    2.0020    1.2339 H   0  0  0  0  0  0  0  0  0  0  0  0
   -3.0314    0.6672    2.4397 H   0  0  0  0  0  0  0  0  0  0  0  0
    4.9509    0.7613   -0.0386 O   0  0  0  0  0  0  0  0  0  0  0  0
    3.8108    1.0982    0.1310 N   0  0  0  0  0  0  0  0  0  0  0  0
    2.9189   -0.0543    0.1220 O   0  0  0  0  0  0  0  0  0  0  0  0
    3.3392    2.1902    0.3282 O   0  0  0  0  0  0  0  0  0  0  0  0
  1  6  1  0  0  0  0
  2  1  2  0  0  0  0
  2  3  1  0  0  0  0
  3  4  2  0  0  0  0
  4  5  1  0  0  0  0
  4  9  1  0  0  0  0
  5 10  1  0  0  0  0
  6 13  1  0  0  0  0
  6  5  2  0  0  0  0
  7  1  1  0  0  0  0
  8  2  1  0  0  0  0
 12 11  3  0  0  0  0
 13 14  1  0  0  0  0
 14 17  1  0  0  0  0
 15 14  1  0  0  0  0
 16 14  1  0  0  0  0
 18 19  2  0  0  0  0
 19 21  2  0  0  0  0
 20 19  1  0  0  0  0
 20  3  1  0  0  0  0
M  END
