Coordinates from ORCA-job p-CH3O-Ph-N2-NO3-B3LYPG-aug-cc-pVDZ-scan-d09-49-n400
 OpenBabel11111914563D

 21 20  0  0  0  0  0  0  0  0999 V2000
   -1.1588   -0.3946   -0.9289 C   0  0  0  0  0  0  0  0  0  0  0  0
    0.0870   -0.1769   -1.5246 C   0  0  0  0  0  0  0  0  0  0  0  0
    0.8775    0.6860   -0.8095 C   0  0  0  0  0  0  0  0  0  0  0  0
    0.6680    1.3510    0.3564 C   0  0  0  0  0  0  0  0  0  0  0  0
   -0.5948    1.1094    0.9224 C   0  0  0  0  0  0  0  0  0  0  0  0
   -1.5000    0.2404    0.2839 C   0  0  0  0  0  0  0  0  0  0  0  0
   -1.8782   -1.0641   -1.3977 H   0  0  0  0  0  0  0  0  0  0  0  0
    0.3851   -0.6549   -2.4534 H   0  0  0  0  0  0  0  0  0  0  0  0
    1.4334    1.9919    0.7907 H   0  0  0  0  0  0  0  0  0  0  0  0
   -0.8411    1.5993    1.8604 H   0  0  0  0  0  0  0  0  0  0  0  0
    2.5446    1.0387   -1.5857 N   0  0  0  0  0  0  0  0  0  0  0  0
    3.1807    0.8943   -2.4863 N   0  0  0  0  0  0  0  0  0  0  0  0
   -2.7338   -0.0553    0.7586 O   0  0  0  0  0  0  0  0  0  0  0  0
   -3.1519    0.5300    1.9952 C   0  0  0  0  0  0  0  0  0  0  0  0
   -4.1598    0.1460    2.1739 H   0  0  0  0  0  0  0  0  0  0  0  0
   -3.1825    1.6268    1.9207 H   0  0  0  0  0  0  0  0  0  0  0  0
   -2.4889    0.2255    2.8179 H   0  0  0  0  0  0  0  0  0  0  0  0
    4.8864    1.4634    1.7168 O   0  0  0  0  0  0  0  0  0  0  0  0
    4.0019    1.1596    0.9182 N   0  0  0  0  0  0  0  0  0  0  0  0
    3.5250    0.0116    0.8165 O   0  0  0  0  0  0  0  0  0  0  0  0
    3.5308    2.0947    0.1429 O   0  0  0  0  0  0  0  0  0  0  0  0
  1  6  1  0  0  0  0
  2  1  2  0  0  0  0
  2  3  1  0  0  0  0
  3  4  2  0  0  0  0
  4  9  1  0  0  0  0
  4  5  1  0  0  0  0
  5 10  1  0  0  0  0
  6 13  1  0  0  0  0
  6  5  2  0  0  0  0
  7  1  1  0  0  0  0
  8  2  1  0  0  0  0
 11  3  1  0  0  0  0
 12 11  2  0  0  0  0
 13 14  1  0  0  0  0
 14 15  1  0  0  0  0
 14 17  1  0  0  0  0
 16 14  1  0  0  0  0
 19 18  2  0  0  0  0
 20 19  1  0  0  0  0
 21 19  2  0  0  0  0
M  RAD  2  12   2  20   2
M  END
