Coordinates from ORCA-job p-CH3O-Ph-N2-NO3-B3LYPG-aug-cc-pVDZ-scan-d09-49-n400
 OpenBabel11111914563D

 21 20  0  0  0  0  0  0  0  0999 V2000
   -0.6245   -0.6720   -0.4972 C   0  0  0  0  0  0  0  0  0  0  0  0
    0.7575   -0.6684   -0.6236 C   0  0  0  0  0  0  0  0  0  0  0  0
    1.5272    0.1745    0.1876 C   0  0  0  0  0  0  0  0  0  0  0  0
    0.9280    0.9675    1.1620 C   0  0  0  0  0  0  0  0  0  0  0  0
   -0.4672    0.9820    1.2717 C   0  0  0  0  0  0  0  0  0  0  0  0
   -1.2496    0.1675    0.4411 C   0  0  0  0  0  0  0  0  0  0  0  0
   -1.2412   -1.3171   -1.1212 H   0  0  0  0  0  0  0  0  0  0  0  0
    1.2547   -1.3101   -1.3495 H   0  0  0  0  0  0  0  0  0  0  0  0
    1.5237    1.5884    1.8238 H   0  0  0  0  0  0  0  0  0  0  0  0
   -0.9232    1.6241    2.0208 H   0  0  0  0  0  0  0  0  0  0  0  0
    1.2366    1.8933   -1.8275 N   0  0  0  0  0  0  0  0  0  0  0  0
    2.0669    1.9488   -2.5558 N   0  0  0  0  0  0  0  0  0  0  0  0
   -2.6113    0.1077    0.4749 O   0  0  0  0  0  0  0  0  0  0  0  0
   -3.3005    0.9298    1.4129 C   0  0  0  0  0  0  0  0  0  0  0  0
   -4.3644    0.7264    1.2596 H   0  0  0  0  0  0  0  0  0  0  0  0
   -3.1001    1.9964    1.2294 H   0  0  0  0  0  0  0  0  0  0  0  0
   -3.0231    0.6728    2.4466 H   0  0  0  0  0  0  0  0  0  0  0  0
    4.9527    0.7546   -0.0459 O   0  0  0  0  0  0  0  0  0  0  0  0
    3.8164    1.1003    0.1336 N   0  0  0  0  0  0  0  0  0  0  0  0
    2.9109   -0.0341    0.0680 O   0  0  0  0  0  0  0  0  0  0  0  0
    3.3611    2.1903    0.3771 O   0  0  0  0  0  0  0  0  0  0  0  0
  1  6  1  0  0  0  0
  2  1  2  0  0  0  0
  2  3  1  0  0  0  0
  3  4  2  0  0  0  0
  4  5  1  0  0  0  0
  4  9  1  0  0  0  0
  5 10  1  0  0  0  0
  6 13  1  0  0  0  0
  6  5  2  0  0  0  0
  7  1  1  0  0  0  0
  8  2  1  0  0  0  0
 12 11  3  0  0  0  0
 13 14  1  0  0  0  0
 14 17  1  0  0  0  0
 15 14  1  0  0  0  0
 16 14  1  0  0  0  0
 18 19  2  0  0  0  0
 19 21  2  0  0  0  0
 20 19  1  0  0  0  0
 20  3  1  0  0  0  0
M  END
