Coordinates from ORCA-job p-CH3O-Ph-N2-NO3-B3LYPG-aug-cc-pVDZ-scan-d09-49-n400
 OpenBabel11111914563D

 21 20  0  0  0  0  0  0  0  0999 V2000
   -0.5536   -0.6102   -0.4906 C   0  0  0  0  0  0  0  0  0  0  0  0
    0.8346   -0.6588   -0.5286 C   0  0  0  0  0  0  0  0  0  0  0  0
    1.5779    0.0690    0.4076 C   0  0  0  0  0  0  0  0  0  0  0  0
    0.9432    0.8448    1.3741 C   0  0  0  0  0  0  0  0  0  0  0  0
   -0.4525    0.9161    1.3999 C   0  0  0  0  0  0  0  0  0  0  0  0
   -1.2053    0.1852    0.4677 C   0  0  0  0  0  0  0  0  0  0  0  0
   -1.1546   -1.1788   -1.1987 H   0  0  0  0  0  0  0  0  0  0  0  0
    1.3534   -1.2711   -1.2652 H   0  0  0  0  0  0  0  0  0  0  0  0
    1.5309    1.3971    2.1047 H   0  0  0  0  0  0  0  0  0  0  0  0
   -0.9343    1.5332    2.1537 H   0  0  0  0  0  0  0  0  0  0  0  0
    1.0598    2.0821   -2.2400 N   0  0  0  0  0  0  0  0  0  0  0  0
    1.8156    2.0958   -3.0459 N   0  0  0  0  0  0  0  0  0  0  0  0
   -2.5674    0.1761    0.4145 O   0  0  0  0  0  0  0  0  0  0  0  0
   -3.2877    0.9619    1.3605 C   0  0  0  0  0  0  0  0  0  0  0  0
   -4.3457    0.8064    1.1301 H   0  0  0  0  0  0  0  0  0  0  0  0
   -3.0429    2.0301    1.2586 H   0  0  0  0  0  0  0  0  0  0  0  0
   -3.0839    0.6309    2.3902 H   0  0  0  0  0  0  0  0  0  0  0  0
    4.9520    0.7639    0.0351 O   0  0  0  0  0  0  0  0  0  0  0  0
    3.7917    1.0562    0.1179 N   0  0  0  0  0  0  0  0  0  0  0  0
    2.9607   -0.1291    0.4129 O   0  0  0  0  0  0  0  0  0  0  0  0
    3.2388    2.1218    0.0297 O   0  0  0  0  0  0  0  0  0  0  0  0
  1  6  1  0  0  0  0
  2  1  2  0  0  0  0
  2  3  1  0  0  0  0
  3 20  1  0  0  0  0
  3  4  2  0  0  0  0
  4  5  1  0  0  0  0
  4  9  1  0  0  0  0
  5 10  1  0  0  0  0
  6  5  2  0  0  0  0
  7  1  1  0  0  0  0
  8  2  1  0  0  0  0
 12 11  3  0  0  0  0
 13  6  1  0  0  0  0
 13 14  1  0  0  0  0
 14 17  1  0  0  0  0
 15 14  1  0  0  0  0
 16 14  1  0  0  0  0
 18 19  2  0  0  0  0
 19 20  1  0  0  0  0
 21 19  2  0  0  0  0
M  END
