Coordinates from ORCA-job p-CH3O-Ph-N2-NO3-B3LYPG-aug-cc-pVDZ-scan-d09-49-n400
 OpenBabel11111914563D

 21 21  0  0  1  0  0  0  0  0999 V2000
   -0.9644   -0.3324   -1.1380 C   0  0  0  0  0  0  0  0  0  0  0  0
    0.0803    0.0504   -1.9236 C   0  0  0  0  0  0  0  0  0  0  0  0
    1.0318    0.9522   -1.3723 C   0  0  1  0  0  0  0  0  0  0  0  0
    1.1128    1.3438    0.0408 C   0  0  1  0  0  0  0  0  0  0  0  0
   -0.1608    1.0640    0.7364 C   0  0  0  0  0  0  0  0  0  0  0  0
   -1.0946    0.2247    0.1935 C   0  0  0  0  0  0  0  0  0  0  0  0
   -1.7287   -1.0186   -1.4945 H   0  0  0  0  0  0  0  0  0  0  0  0
    0.1906   -0.3048   -2.9466 H   0  0  0  0  0  0  0  0  0  0  0  0
    1.5032    2.3468    0.2217 H   0  0  0  0  0  0  0  0  0  0  0  0
   -0.2848    1.5125    1.7161 H   0  0  0  0  0  0  0  0  0  0  0  0
    2.1160    1.4292   -2.2452 N   0  0  0  0  0  0  0  0  0  0  0  0
    2.9509    1.8072   -2.9032 N   0  0  0  0  0  0  0  0  0  0  0  0
   -2.2500   -0.1464    0.8042 O   0  0  0  0  0  0  0  0  0  0  0  0
   -2.4925    0.3266    2.1287 C   0  0  0  0  0  0  0  0  0  0  0  0
   -3.4438   -0.1192    2.4331 H   0  0  0  0  0  0  0  0  0  0  0  0
   -2.5745    1.4235    2.1451 H   0  0  0  0  0  0  0  0  0  0  0  0
   -1.6928    0.0045    2.8117 H   0  0  0  0  0  0  0  0  0  0  0  0
    2.3657    1.8673    2.3388 O   0  0  0  0  0  0  0  0  0  0  0  0
    2.8072    0.8429    1.8384 N   0  0  0  0  0  0  0  0  0  0  0  0
    3.6745    0.1195    2.2757 O   0  0  0  0  0  0  0  0  0  0  0  0
    2.2845    0.4290    0.6274 O   0  0  0  0  0  0  0  0  0  0  0  0
  1  6  1  0  0  0  0
  2  3  1  0  0  0  0
  2  1  2  0  0  0  0
  3 11  1  1  0  0  0
  3  4  1  0  0  0  0
  4  9  1  1  0  0  0
  4 21  1  0  0  0  0
  4  5  1  0  0  0  0
  5 10  1  0  0  0  0
  6  5  2  0  0  0  0
  6 13  1  0  0  0  0
  7  1  1  0  0  0  0
  8  2  1  0  0  0  0
 12 11  1  0  0  0  0
 13 14  1  0  0  0  0
 14 16  1  0  0  0  0
 14 15  1  0  0  0  0
 14 17  1  0  0  0  0
 19 20  2  0  0  0  0
 19 18  2  0  0  0  0
 21 19  1  0  0  0  0
M  RAD  3   3   2  11   2  12   3
M  END
