Coordinates from ORCA-job p-CH3O-Ph-N2-NO3-B3LYPG-aug-cc-pVDZ-scan-d09-49-n400
 OpenBabel11111914563D

 21 20  0  0  0  0  0  0  0  0999 V2000
   -0.5779   -0.6323   -0.4937 C   0  0  0  0  0  0  0  0  0  0  0  0
    0.8096   -0.6680   -0.5585 C   0  0  0  0  0  0  0  0  0  0  0  0
    1.5642    0.0881    0.3459 C   0  0  0  0  0  0  0  0  0  0  0  0
    0.9415    0.8734    1.3125 C   0  0  0  0  0  0  0  0  0  0  0  0
   -0.4544    0.9337    1.3613 C   0  0  0  0  0  0  0  0  0  0  0  0
   -1.2189    0.1780    0.4592 C   0  0  0  0  0  0  0  0  0  0  0  0
   -1.1863   -1.2221   -1.1777 H   0  0  0  0  0  0  0  0  0  0  0  0
    1.3201   -1.2893   -1.2932 H   0  0  0  0  0  0  0  0  0  0  0  0
    1.5344    1.4447    2.0232 H   0  0  0  0  0  0  0  0  0  0  0  0
   -0.9264    1.5615    2.1125 H   0  0  0  0  0  0  0  0  0  0  0  0
    1.1183    2.0273   -2.1163 N   0  0  0  0  0  0  0  0  0  0  0  0
    1.9002    2.0496   -2.8968 N   0  0  0  0  0  0  0  0  0  0  0  0
   -2.5818    0.1569    0.4320 O   0  0  0  0  0  0  0  0  0  0  0  0
   -3.2901    0.9560    1.3756 C   0  0  0  0  0  0  0  0  0  0  0  0
   -4.3512    0.7879    1.1688 H   0  0  0  0  0  0  0  0  0  0  0  0
   -3.0558    2.0237    1.2480 H   0  0  0  0  0  0  0  0  0  0  0  0
   -3.0642    0.6473    2.4077 H   0  0  0  0  0  0  0  0  0  0  0  0
    4.9474    0.7766    0.0043 O   0  0  0  0  0  0  0  0  0  0  0  0
    3.7927    1.0802    0.1219 N   0  0  0  0  0  0  0  0  0  0  0  0
    2.9481   -0.1110    0.3162 O   0  0  0  0  0  0  0  0  0  0  0  0
    3.2609    2.1606    0.1355 O   0  0  0  0  0  0  0  0  0  0  0  0
  1  6  1  0  0  0  0
  2  1  2  0  0  0  0
  2  3  1  0  0  0  0
  3  4  2  0  0  0  0
  4  5  1  0  0  0  0
  4  9  1  0  0  0  0
  5 10  1  0  0  0  0
  6  5  2  0  0  0  0
  7  1  1  0  0  0  0
  8  2  1  0  0  0  0
 12 11  3  0  0  0  0
 13  6  1  0  0  0  0
 13 14  1  0  0  0  0
 14 17  1  0  0  0  0
 15 14  1  0  0  0  0
 16 14  1  0  0  0  0
 18 19  2  0  0  0  0
 19 21  2  0  0  0  0
 19 20  1  0  0  0  0
 20  3  1  0  0  0  0
M  END
