Coordinates from ORCA-job p-CH3O-Ph-N2-NO3-B3LYPG-aug-cc-pVDZ-scan-d09-49-n400
 OpenBabel11111914563D

 21 20  0  0  0  0  0  0  0  0999 V2000
   -0.4906   -0.5383   -0.4849 C   0  0  0  0  0  0  0  0  0  0  0  0
    0.8967   -0.6138   -0.4601 C   0  0  0  0  0  0  0  0  0  0  0  0
    1.6062    0.0451    0.5495 C   0  0  0  0  0  0  0  0  0  0  0  0
    0.9394    0.7804    1.5255 C   0  0  0  0  0  0  0  0  0  0  0  0
   -0.4550    0.8713    1.4981 C   0  0  0  0  0  0  0  0  0  0  0  0
   -1.1740    0.2097    0.4901 C   0  0  0  0  0  0  0  0  0  0  0  0
   -1.0679   -1.0514   -1.2524 H   0  0  0  0  0  0  0  0  0  0  0  0
    1.4381   -1.1937   -1.2066 H   0  0  0  0  0  0  0  0  0  0  0  0
    1.5072    1.2805    2.3089 H   0  0  0  0  0  0  0  0  0  0  0  0
   -0.9622    1.4507    2.2650 H   0  0  0  0  0  0  0  0  0  0  0  0
    0.9306    2.2161   -2.5542 N   0  0  0  0  0  0  0  0  0  0  0  0
    1.6038    2.1471   -3.4271 N   0  0  0  0  0  0  0  0  0  0  0  0
   -2.5315    0.2270    0.3747 O   0  0  0  0  0  0  0  0  0  0  0  0
   -3.2842    0.9699    1.3304 C   0  0  0  0  0  0  0  0  0  0  0  0
   -4.3323    0.8461    1.0425 H   0  0  0  0  0  0  0  0  0  0  0  0
   -3.0191    2.0376    1.3019 H   0  0  0  0  0  0  0  0  0  0  0  0
   -3.1341    0.5768    2.3474 H   0  0  0  0  0  0  0  0  0  0  0  0
    4.9693    0.7384    0.1386 O   0  0  0  0  0  0  0  0  0  0  0  0
    3.7971    0.9887    0.1122 N   0  0  0  0  0  0  0  0  0  0  0  0
    2.9865   -0.1428    0.6249 O   0  0  0  0  0  0  0  0  0  0  0  0
    3.2064    1.9774   -0.2360 O   0  0  0  0  0  0  0  0  0  0  0  0
  1  2  2  0  0  0  0
  1  6  1  0  0  0  0
  2  3  1  0  0  0  0
  3 20  1  0  0  0  0
  3  4  2  0  0  0  0
  4  9  1  0  0  0  0
  5  4  1  0  0  0  0
  5 10  1  0  0  0  0
  6  5  2  0  0  0  0
  7  1  1  0  0  0  0
  8  2  1  0  0  0  0
 12 11  3  0  0  0  0
 13  6  1  0  0  0  0
 13 14  1  0  0  0  0
 14 17  1  0  0  0  0
 15 14  1  0  0  0  0
 16 14  1  0  0  0  0
 19 18  2  0  0  0  0
 19 20  1  0  0  0  0
 21 19  2  0  0  0  0
M  END
