Coordinates from ORCA-job p-CH3O-Ph-N2-NO3-B3LYPG-aug-cc-pVDZ-scan-d09-49-n400
 OpenBabel11111914563D

 21 19  0  0  0  0  0  0  0  0999 V2000
   -1.1497   -0.4309   -0.9079 C   0  0  0  0  0  0  0  0  0  0  0  0
    0.0882   -0.2092   -1.5254 C   0  0  0  0  0  0  0  0  0  0  0  0
    0.8500    0.6863   -0.8301 C   0  0  0  0  0  0  0  0  0  0  0  0
    0.6598    1.3834    0.3133 C   0  0  0  0  0  0  0  0  0  0  0  0
   -0.5952    1.1333    0.8980 C   0  0  0  0  0  0  0  0  0  0  0  0
   -1.4901    0.2310    0.2906 C   0  0  0  0  0  0  0  0  0  0  0  0
   -1.8606   -1.1256   -1.3527 H   0  0  0  0  0  0  0  0  0  0  0  0
    0.3889   -0.7061   -2.4432 H   0  0  0  0  0  0  0  0  0  0  0  0
    1.4316    2.0379    0.7208 H   0  0  0  0  0  0  0  0  0  0  0  0
   -0.8387    1.6409    1.8274 H   0  0  0  0  0  0  0  0  0  0  0  0
    2.5855    1.1181   -1.6626 N   0  0  0  0  0  0  0  0  0  0  0  0
    3.2486    1.0172   -2.5467 N   0  0  0  0  0  0  0  0  0  0  0  0
   -2.7141   -0.0741    0.7855 O   0  0  0  0  0  0  0  0  0  0  0  0
   -3.1288    0.5338    2.0122 C   0  0  0  0  0  0  0  0  0  0  0  0
   -4.1279    0.1372    2.2115 H   0  0  0  0  0  0  0  0  0  0  0  0
   -3.1793    1.6279    1.9116 H   0  0  0  0  0  0  0  0  0  0  0  0
   -2.4517    0.2608    2.8345 H   0  0  0  0  0  0  0  0  0  0  0  0
    4.8398    1.3224    1.7726 O   0  0  0  0  0  0  0  0  0  0  0  0
    3.9421    1.1203    0.9556 N   0  0  0  0  0  0  0  0  0  0  0  0
    3.3910    0.0083    0.8032 O   0  0  0  0  0  0  0  0  0  0  0  0
    3.5412    2.1098    0.2202 O   0  0  0  0  0  0  0  0  0  0  0  0
  1  6  1  0  0  0  0
  2  1  2  0  0  0  0
  2  3  1  0  0  0  0
  3  4  2  0  0  0  0
  4  9  1  0  0  0  0
  4  5  1  0  0  0  0
  5 10  1  0  0  0  0
  6 13  1  0  0  0  0
  6  5  2  0  0  0  0
  7  1  1  0  0  0  0
  8  2  1  0  0  0  0
 12 11  3  0  0  0  0
 13 14  1  0  0  0  0
 14 15  1  0  0  0  0
 14 17  1  0  0  0  0
 16 14  1  0  0  0  0
 19 18  2  0  0  0  0
 20 19  1  0  0  0  0
 21 19  2  0  0  0  0
M  RAD  2   3   2  20   2
M  END
