Coordinates from ORCA-job p-CH3O-Ph-N2-NO3-B3LYPG-aug-cc-pVDZ-scan-d09-49-n400
 OpenBabel11111914563D

 21 20  0  0  0  0  0  0  0  0999 V2000
   -0.4255   -0.4692   -0.4484 C   0  0  0  0  0  0  0  0  0  0  0  0
    0.9570   -0.5717   -0.3622 C   0  0  0  0  0  0  0  0  0  0  0  0
    1.6273    0.0170    0.7159 C   0  0  0  0  0  0  0  0  0  0  0  0
    0.9250    0.7062    1.7002 C   0  0  0  0  0  0  0  0  0  0  0  0
   -0.4670    0.8123    1.6201 C   0  0  0  0  0  0  0  0  0  0  0  0
   -1.1455    0.2254    0.5409 C   0  0  0  0  0  0  0  0  0  0  0  0
   -0.9727   -0.9218   -1.2739 H   0  0  0  0  0  0  0  0  0  0  0  0
    1.5240   -1.1109   -1.1202 H   0  0  0  0  0  0  0  0  0  0  0  0
    1.4650    1.1533    2.5339 H   0  0  0  0  0  0  0  0  0  0  0  0
   -1.0025    1.3492    2.3986 H   0  0  0  0  0  0  0  0  0  0  0  0
    0.8214    2.5515   -3.2314 N   0  0  0  0  0  0  0  0  0  0  0  0
    1.3610    2.2736   -4.1541 N   0  0  0  0  0  0  0  0  0  0  0  0
   -2.4956    0.2686    0.3642 O   0  0  0  0  0  0  0  0  0  0  0  0
   -3.2839    0.9627    1.3280 C   0  0  0  0  0  0  0  0  0  0  0  0
   -4.3186    0.8713    0.9850 H   0  0  0  0  0  0  0  0  0  0  0  0
   -3.0057    2.0263    1.3772 H   0  0  0  0  0  0  0  0  0  0  0  0
   -3.1859    0.5065    2.3248 H   0  0  0  0  0  0  0  0  0  0  0  0
    4.9957    0.6823    0.3274 O   0  0  0  0  0  0  0  0  0  0  0  0
    3.8224    0.8857    0.1888 N   0  0  0  0  0  0  0  0  0  0  0  0
    3.0028   -0.1631    0.8511 O   0  0  0  0  0  0  0  0  0  0  0  0
    3.2318    1.7674   -0.3775 O   0  0  0  0  0  0  0  0  0  0  0  0
  1  2  2  0  0  0  0
  1  6  1  0  0  0  0
  2  3  1  0  0  0  0
  3 20  1  0  0  0  0
  3  4  2  0  0  0  0
  4  9  1  0  0  0  0
  5  4  1  0  0  0  0
  5 10  1  0  0  0  0
  6  5  2  0  0  0  0
  7  1  1  0  0  0  0
  8  2  1  0  0  0  0
 12 11  3  0  0  0  0
 13  6  1  0  0  0  0
 13 14  1  0  0  0  0
 14 16  1  0  0  0  0
 14 17  1  0  0  0  0
 15 14  1  0  0  0  0
 19 18  2  0  0  0  0
 19 20  1  0  0  0  0
 21 19  2  0  0  0  0
M  END
