Coordinates from ORCA-job p-CH3O-Ph-N2-NO3-B3LYPG-aug-cc-pVDZ-scan-d09-49-n400
 OpenBabel11111914563D

 21 20  0  0  0  0  0  0  0  0999 V2000
   -0.4279   -0.4704   -0.4509 C   0  0  0  0  0  0  0  0  0  0  0  0
    0.9549   -0.5719   -0.3669 C   0  0  0  0  0  0  0  0  0  0  0  0
    1.6265    0.0191    0.7092 C   0  0  0  0  0  0  0  0  0  0  0  0
    0.9254    0.7095    1.6934 C   0  0  0  0  0  0  0  0  0  0  0  0
   -0.4667    0.8147    1.6154 C   0  0  0  0  0  0  0  0  0  0  0  0
   -1.1467    0.2255    0.5383 C   0  0  0  0  0  0  0  0  0  0  0  0
   -0.9762   -0.9249   -1.2747 H   0  0  0  0  0  0  0  0  0  0  0  0
    1.5210   -1.1121   -1.1247 H   0  0  0  0  0  0  0  0  0  0  0  0
    1.4664    1.1582    2.5256 H   0  0  0  0  0  0  0  0  0  0  0  0
   -1.0013    1.3527    2.3938 H   0  0  0  0  0  0  0  0  0  0  0  0
    0.8284    2.5325   -3.1928 N   0  0  0  0  0  0  0  0  0  0  0  0
    1.3727    2.2631   -4.1152 N   0  0  0  0  0  0  0  0  0  0  0  0
   -2.4971    0.2676    0.3638 O   0  0  0  0  0  0  0  0  0  0  0  0
   -3.2842    0.9630    1.3276 C   0  0  0  0  0  0  0  0  0  0  0  0
   -4.3195    0.8704    0.9865 H   0  0  0  0  0  0  0  0  0  0  0  0
   -3.0065    2.0268    1.3745 H   0  0  0  0  0  0  0  0  0  0  0  0
   -3.1844    0.5085    2.3250 H   0  0  0  0  0  0  0  0  0  0  0  0
    4.9941    0.6865    0.3172 O   0  0  0  0  0  0  0  0  0  0  0  0
    3.8205    0.8904    0.1816 N   0  0  0  0  0  0  0  0  0  0  0  0
    3.0023   -0.1605    0.8423 O   0  0  0  0  0  0  0  0  0  0  0  0
    3.2288    1.7740   -0.3805 O   0  0  0  0  0  0  0  0  0  0  0  0
  1  2  2  0  0  0  0
  1  6  1  0  0  0  0
  2  3  1  0  0  0  0
  3 20  1  0  0  0  0
  3  4  2  0  0  0  0
  4  9  1  0  0  0  0
  5  4  1  0  0  0  0
  5 10  1  0  0  0  0
  6  5  2  0  0  0  0
  7  1  1  0  0  0  0
  8  2  1  0  0  0  0
 12 11  3  0  0  0  0
 13  6  1  0  0  0  0
 13 14  1  0  0  0  0
 14 16  1  0  0  0  0
 14 17  1  0  0  0  0
 15 14  1  0  0  0  0
 19 18  2  0  0  0  0
 19 20  1  0  0  0  0
 21 19  2  0  0  0  0
M  END
