Coordinates from ORCA-job p-CH3O-Ph-N2-NO3-B3LYPG-aug-cc-pVDZ-scan-d09-49-n400
 OpenBabel11111914563D

 21 20  0  0  0  0  0  0  0  0999 V2000
   -0.6019   -0.6510   -0.4959 C   0  0  0  0  0  0  0  0  0  0  0  0
    0.7836   -0.6676   -0.5903 C   0  0  0  0  0  0  0  0  0  0  0  0
    1.5467    0.1271    0.2731 C   0  0  0  0  0  0  0  0  0  0  0  0
    0.9354    0.9181    1.2419 C   0  0  0  0  0  0  0  0  0  0  0  0
   -0.4608    0.9570    1.3189 C   0  0  0  0  0  0  0  0  0  0  0  0
   -1.2347    0.1730    0.4505 C   0  0  0  0  0  0  0  0  0  0  0  0
   -1.2150   -1.2665   -1.1524 H   0  0  0  0  0  0  0  0  0  0  0  0
    1.2874   -1.2986   -1.3211 H   0  0  0  0  0  0  0  0  0  0  0  0
    1.5304    1.5122    1.9303 H   0  0  0  0  0  0  0  0  0  0  0  0
   -0.9253    1.5920    2.0688 H   0  0  0  0  0  0  0  0  0  0  0  0
    1.1819    1.9691   -1.9827 N   0  0  0  0  0  0  0  0  0  0  0  0
    1.9877    1.9962   -2.7388 N   0  0  0  0  0  0  0  0  0  0  0  0
   -2.5976    0.1336    0.4522 O   0  0  0  0  0  0  0  0  0  0  0  0
   -3.2963    0.9424    1.3947 C   0  0  0  0  0  0  0  0  0  0  0  0
   -4.3592    0.7572    1.2135 H   0  0  0  0  0  0  0  0  0  0  0  0
   -3.0783    2.0103    1.2413 H   0  0  0  0  0  0  0  0  0  0  0  0
   -3.0451    0.6571    2.4276 H   0  0  0  0  0  0  0  0  0  0  0  0
    4.9493    0.7670   -0.0242 O   0  0  0  0  0  0  0  0  0  0  0  0
    3.8036    1.0916    0.1268 N   0  0  0  0  0  0  0  0  0  0  0  0
    2.9309   -0.0805    0.2046 O   0  0  0  0  0  0  0  0  0  0  0  0
    3.3079    2.1831    0.2496 O   0  0  0  0  0  0  0  0  0  0  0  0
  1  6  1  0  0  0  0
  2  1  2  0  0  0  0
  2  3  1  0  0  0  0
  3  4  2  0  0  0  0
  4  5  1  0  0  0  0
  4  9  1  0  0  0  0
  5 10  1  0  0  0  0
  6 13  1  0  0  0  0
  6  5  2  0  0  0  0
  7  1  1  0  0  0  0
  8  2  1  0  0  0  0
 12 11  3  0  0  0  0
 13 14  1  0  0  0  0
 14 17  1  0  0  0  0
 15 14  1  0  0  0  0
 16 14  1  0  0  0  0
 18 19  2  0  0  0  0
 19 20  1  0  0  0  0
 19 21  2  0  0  0  0
 20  3  1  0  0  0  0
M  END
