Coordinates from ORCA-job p-CH3O-Ph-N2-NO3-B3LYPG-aug-cc-pVDZ-scan-d09-49-n400
 OpenBabel11111914563D

 21 21  0  0  1  0  0  0  0  0999 V2000
   -0.9625   -0.3326   -1.1376 C   0  0  0  0  0  0  0  0  0  0  0  0
    0.0818    0.0491   -1.9230 C   0  0  0  0  0  0  0  0  0  0  0  0
    1.0376    0.9506   -1.3742 C   0  0  1  0  0  0  0  0  0  0  0  0
    1.1150    1.3411    0.0418 C   0  0  1  0  0  0  0  0  0  0  0  0
   -0.1592    1.0625    0.7377 C   0  0  0  0  0  0  0  0  0  0  0  0
   -1.0933    0.2247    0.1943 C   0  0  0  0  0  0  0  0  0  0  0  0
   -1.7273   -1.0181   -1.4939 H   0  0  0  0  0  0  0  0  0  0  0  0
    0.1911   -0.3065   -2.9460 H   0  0  0  0  0  0  0  0  0  0  0  0
    1.5036    2.3453    0.2211 H   0  0  0  0  0  0  0  0  0  0  0  0
   -0.2831    1.5111    1.7173 H   0  0  0  0  0  0  0  0  0  0  0  0
    2.1108    1.4301   -2.2425 N   0  0  0  0  0  0  0  0  0  0  0  0
    2.9437    1.8121   -2.9022 N   0  0  0  0  0  0  0  0  0  0  0  0
   -2.2496   -0.1455    0.8036 O   0  0  0  0  0  0  0  0  0  0  0  0
   -2.4933    0.3277    2.1278 C   0  0  0  0  0  0  0  0  0  0  0  0
   -3.4454   -0.1170    2.4311 H   0  0  0  0  0  0  0  0  0  0  0  0
   -2.5740    1.4247    2.1440 H   0  0  0  0  0  0  0  0  0  0  0  0
   -1.6948    0.0047    2.8117 H   0  0  0  0  0  0  0  0  0  0  0  0
    2.3671    1.8687    2.3372 O   0  0  0  0  0  0  0  0  0  0  0  0
    2.8053    0.8421    1.8391 N   0  0  0  0  0  0  0  0  0  0  0  0
    3.6740    0.1194    2.2741 O   0  0  0  0  0  0  0  0  0  0  0  0
    2.2828    0.4285    0.6267 O   0  0  0  0  0  0  0  0  0  0  0  0
  1  6  1  0  0  0  0
  2  3  1  0  0  0  0
  2  1  2  0  0  0  0
  3 11  1  1  0  0  0
  3  4  1  0  0  0  0
  4  9  1  1  0  0  0
  4 21  1  0  0  0  0
  4  5  1  0  0  0  0
  5 10  1  0  0  0  0
  6  5  2  0  0  0  0
  6 13  1  0  0  0  0
  7  1  1  0  0  0  0
  8  2  1  0  0  0  0
 12 11  1  0  0  0  0
 13 14  1  0  0  0  0
 14 16  1  0  0  0  0
 14 15  1  0  0  0  0
 14 17  1  0  0  0  0
 19 20  2  0  0  0  0
 19 18  2  0  0  0  0
 21 19  1  0  0  0  0
M  RAD  3   3   2  11   2  12   3
M  END
