Coordinates from ORCA-job p-CH3O-Ph-N2-NO3-B3LYPG-aug-cc-pVDZ-scan-d09-49-n400
 OpenBabel11111914563D

 21 20  0  0  0  0  0  0  0  0999 V2000
   -0.4590   -0.4991   -0.4759 C   0  0  0  0  0  0  0  0  0  0  0  0
    0.9263   -0.5876   -0.4210 C   0  0  0  0  0  0  0  0  0  0  0  0
    1.6173    0.0360    0.6237 C   0  0  0  0  0  0  0  0  0  0  0  0
    0.9333    0.7475    1.6052 C   0  0  0  0  0  0  0  0  0  0  0  0
   -0.4602    0.8452    1.5527 C   0  0  0  0  0  0  0  0  0  0  0  0
   -1.1600    0.2213    0.5081 C   0  0  0  0  0  0  0  0  0  0  0  0
   -1.0224   -0.9820   -1.2729 H   0  0  0  0  0  0  0  0  0  0  0  0
    1.4800   -1.1467   -1.1744 H   0  0  0  0  0  0  0  0  0  0  0  0
    1.4884    1.2209    2.4141 H   0  0  0  0  0  0  0  0  0  0  0  0
   -0.9811    1.4027    2.3267 H   0  0  0  0  0  0  0  0  0  0  0  0
    0.8808    2.3287   -2.7908 N   0  0  0  0  0  0  0  0  0  0  0  0
    1.4953    2.1739   -3.6952 N   0  0  0  0  0  0  0  0  0  0  0  0
   -2.5143    0.2509    0.3627 O   0  0  0  0  0  0  0  0  0  0  0  0
   -3.2842    0.9686    1.3240 C   0  0  0  0  0  0  0  0  0  0  0  0
   -4.3262    0.8607    1.0087 H   0  0  0  0  0  0  0  0  0  0  0  0
   -3.0122    2.0349    1.3350 H   0  0  0  0  0  0  0  0  0  0  0  0
   -3.1596    0.5429    2.3313 H   0  0  0  0  0  0  0  0  0  0  0  0
    4.9798    0.7228    0.2118 O   0  0  0  0  0  0  0  0  0  0  0  0
    3.8050    0.9465    0.1274 N   0  0  0  0  0  0  0  0  0  0  0  0
    2.9958   -0.1451    0.7279 O   0  0  0  0  0  0  0  0  0  0  0  0
    3.2076    1.8799   -0.3407 O   0  0  0  0  0  0  0  0  0  0  0  0
  1  2  2  0  0  0  0
  1  6  1  0  0  0  0
  2  3  1  0  0  0  0
  3 20  1  0  0  0  0
  3  4  2  0  0  0  0
  4  9  1  0  0  0  0
  5  4  1  0  0  0  0
  5 10  1  0  0  0  0
  6  5  2  0  0  0  0
  7  1  1  0  0  0  0
  8  2  1  0  0  0  0
 12 11  3  0  0  0  0
 13  6  1  0  0  0  0
 13 14  1  0  0  0  0
 14 16  1  0  0  0  0
 14 17  1  0  0  0  0
 15 14  1  0  0  0  0
 19 18  2  0  0  0  0
 19 20  1  0  0  0  0
 21 19  2  0  0  0  0
M  END
