Coordinates from ORCA-job p-CH3O-Ph-N2-NO3-B3LYPG-aug-cc-pVDZ-scan-d09-49-n400
 OpenBabel11111914563D

 21 20  0  0  0  0  0  0  0  0999 V2000
   -0.4701   -0.5121   -0.4803 C   0  0  0  0  0  0  0  0  0  0  0  0
    0.9160   -0.5962   -0.4358 C   0  0  0  0  0  0  0  0  0  0  0  0
    1.6137    0.0395    0.5969 C   0  0  0  0  0  0  0  0  0  0  0  0
    0.9357    0.7593    1.5767 C   0  0  0  0  0  0  0  0  0  0  0  0
   -0.4582    0.8547    1.5330 C   0  0  0  0  0  0  0  0  0  0  0  0
   -1.1648    0.2178    0.5008 C   0  0  0  0  0  0  0  0  0  0  0  0
   -1.0384   -1.0054   -1.2673 H   0  0  0  0  0  0  0  0  0  0  0  0
    1.4654   -1.1625   -1.1869 H   0  0  0  0  0  0  0  0  0  0  0  0
    1.4954    1.2418    2.3770 H   0  0  0  0  0  0  0  0  0  0  0  0
   -0.9742    1.4197    2.3047 H   0  0  0  0  0  0  0  0  0  0  0  0
    0.8977    2.2822   -2.6959 N   0  0  0  0  0  0  0  0  0  0  0  0
    1.5342    2.1602   -3.5902 N   0  0  0  0  0  0  0  0  0  0  0  0
   -2.5203    0.2432    0.3658 O   0  0  0  0  0  0  0  0  0  0  0  0
   -3.2841    0.9695    1.3254 C   0  0  0  0  0  0  0  0  0  0  0  0
   -4.3283    0.8561    1.0195 H   0  0  0  0  0  0  0  0  0  0  0  0
   -3.0143    2.0364    1.3230 H   0  0  0  0  0  0  0  0  0  0  0  0
   -3.1508    0.5548    2.3362 H   0  0  0  0  0  0  0  0  0  0  0  0
    4.9759    0.7297    0.1843 O   0  0  0  0  0  0  0  0  0  0  0  0
    3.8017    0.9625    0.1193 N   0  0  0  0  0  0  0  0  0  0  0  0
    2.9928   -0.1437    0.6913 O   0  0  0  0  0  0  0  0  0  0  0  0
    3.2054    1.9155   -0.3093 O   0  0  0  0  0  0  0  0  0  0  0  0
  1  2  2  0  0  0  0
  1  6  1  0  0  0  0
  2  3  1  0  0  0  0
  3 20  1  0  0  0  0
  3  4  2  0  0  0  0
  4  9  1  0  0  0  0
  5  4  1  0  0  0  0
  5 10  1  0  0  0  0
  6  5  2  0  0  0  0
  7  1  1  0  0  0  0
  8  2  1  0  0  0  0
 12 11  3  0  0  0  0
 13  6  1  0  0  0  0
 13 14  1  0  0  0  0
 14 17  1  0  0  0  0
 15 14  1  0  0  0  0
 16 14  1  0  0  0  0
 19 18  2  0  0  0  0
 19 20  1  0  0  0  0
 21 19  2  0  0  0  0
M  END
