Coordinates from ORCA-job p-CH3O-Ph-N2-NO3-B3LYPG-aug-cc-pVDZ-scan-d09-49-n400
 OpenBabel11111914563D

 21 20  0  0  0  0  0  0  0  0999 V2000
   -1.1431   -0.3626   -0.9394 C   0  0  0  0  0  0  0  0  0  0  0  0
    0.1116   -0.1452   -1.4977 C   0  0  0  0  0  0  0  0  0  0  0  0
    0.9503    0.6939   -0.7793 C   0  0  0  0  0  0  0  0  0  0  0  0
    0.6766    1.3233    0.4097 C   0  0  0  0  0  0  0  0  0  0  0  0
   -0.5928    1.0928    0.9496 C   0  0  0  0  0  0  0  0  0  0  0  0
   -1.5003    0.2507    0.2805 C   0  0  0  0  0  0  0  0  0  0  0  0
   -1.8636   -1.0117   -1.4338 H   0  0  0  0  0  0  0  0  0  0  0  0
    0.4121   -0.6106   -2.4330 H   0  0  0  0  0  0  0  0  0  0  0  0
    1.4258    1.9540    0.8814 H   0  0  0  0  0  0  0  0  0  0  0  0
   -0.8516    1.5691    1.8909 H   0  0  0  0  0  0  0  0  0  0  0  0
    2.4473    0.9608   -1.4743 N   0  0  0  0  0  0  0  0  0  0  0  0
    3.0748    0.8055   -2.3854 N   0  0  0  0  0  0  0  0  0  0  0  0
   -2.7446   -0.0364    0.7265 O   0  0  0  0  0  0  0  0  0  0  0  0
   -3.1804    0.5319    1.9656 C   0  0  0  0  0  0  0  0  0  0  0  0
   -4.1965    0.1577    2.1165 H   0  0  0  0  0  0  0  0  0  0  0  0
   -3.1950    1.6300    1.9105 H   0  0  0  0  0  0  0  0  0  0  0  0
   -2.5379    0.2036    2.7952 H   0  0  0  0  0  0  0  0  0  0  0  0
    4.9403    1.5742    1.6014 O   0  0  0  0  0  0  0  0  0  0  0  0
    4.0544    1.1797    0.8479 N   0  0  0  0  0  0  0  0  0  0  0  0
    3.6780   -0.0046    0.7707 O   0  0  0  0  0  0  0  0  0  0  0  0
    3.4653    2.0668    0.0850 O   0  0  0  0  0  0  0  0  0  0  0  0
  1  6  1  0  0  0  0
  2  1  2  0  0  0  0
  2  3  1  0  0  0  0
  3  4  2  0  0  0  0
  4  9  1  0  0  0  0
  4  5  1  0  0  0  0
  5 10  1  0  0  0  0
  6 13  1  0  0  0  0
  6  5  2  0  0  0  0
  7  1  1  0  0  0  0
  8  2  1  0  0  0  0
 11  3  1  0  0  0  0
 12 11  2  0  0  0  0
 13 14  1  0  0  0  0
 14 15  1  0  0  0  0
 14 17  1  0  0  0  0
 16 14  1  0  0  0  0
 19 18  2  0  0  0  0
 20 19  1  0  0  0  0
 21 19  2  0  0  0  0
M  RAD  2  12   2  20   2
M  END
