Coordinates from ORCA-job p-CH3O-Ph-N2-NO3-B3LYPG-aug-cc-pVDZ-scan-d09-49-n400
 OpenBabel11111914563D

 21 20  0  0  0  0  0  0  0  0999 V2000
   -0.4237   -0.4684   -0.4463 C   0  0  0  0  0  0  0  0  0  0  0  0
    0.9587   -0.5718   -0.3585 C   0  0  0  0  0  0  0  0  0  0  0  0
    1.6279    0.0153    0.7211 C   0  0  0  0  0  0  0  0  0  0  0  0
    0.9247    0.7036    1.7054 C   0  0  0  0  0  0  0  0  0  0  0  0
   -0.4671    0.8104    1.6238 C   0  0  0  0  0  0  0  0  0  0  0  0
   -1.1446    0.2252    0.5430 C   0  0  0  0  0  0  0  0  0  0  0  0
   -0.9701   -0.9196   -1.2732 H   0  0  0  0  0  0  0  0  0  0  0  0
    1.5263   -1.1102   -1.1166 H   0  0  0  0  0  0  0  0  0  0  0  0
    1.4639    1.1495    2.5403 H   0  0  0  0  0  0  0  0  0  0  0  0
   -1.0034    1.3465    2.4024 H   0  0  0  0  0  0  0  0  0  0  0  0
    0.8158    2.5668   -3.2624 N   0  0  0  0  0  0  0  0  0  0  0  0
    1.3518    2.2822   -4.1851 N   0  0  0  0  0  0  0  0  0  0  0  0
   -2.4945    0.2693    0.3647 O   0  0  0  0  0  0  0  0  0  0  0  0
   -3.2836    0.9625    1.3283 C   0  0  0  0  0  0  0  0  0  0  0  0
   -4.3180    0.8721    0.9840 H   0  0  0  0  0  0  0  0  0  0  0  0
   -3.0050    2.0260    1.3792 H   0  0  0  0  0  0  0  0  0  0  0  0
   -3.1871    0.5050    2.3247 H   0  0  0  0  0  0  0  0  0  0  0  0
    4.9969    0.6789    0.3355 O   0  0  0  0  0  0  0  0  0  0  0  0
    3.8239    0.8821    0.1947 N   0  0  0  0  0  0  0  0  0  0  0  0
    3.0032   -0.1652    0.8580 O   0  0  0  0  0  0  0  0  0  0  0  0
    3.2342    1.7624   -0.3747 O   0  0  0  0  0  0  0  0  0  0  0  0
  1  2  2  0  0  0  0
  1  6  1  0  0  0  0
  2  3  1  0  0  0  0
  3 20  1  0  0  0  0
  3  4  2  0  0  0  0
  4  9  1  0  0  0  0
  5  4  1  0  0  0  0
  5 10  1  0  0  0  0
  6  5  2  0  0  0  0
  7  1  1  0  0  0  0
  8  2  1  0  0  0  0
 12 11  3  0  0  0  0
 13  6  1  0  0  0  0
 13 14  1  0  0  0  0
 14 16  1  0  0  0  0
 14 17  1  0  0  0  0
 15 14  1  0  0  0  0
 19 18  2  0  0  0  0
 19 20  1  0  0  0  0
 21 19  2  0  0  0  0
M  END
