Coordinates from ORCA-job p-CH3O-Ph-N2-NO3-B3LYPG-aug-cc-pVDZ-scan-d09-49-n400
 OpenBabel11111914563D

 21 20  0  0  0  0  0  0  0  0999 V2000
   -0.5390   -0.5946   -0.4892 C   0  0  0  0  0  0  0  0  0  0  0  0
    0.8494   -0.6501   -0.5119 C   0  0  0  0  0  0  0  0  0  0  0  0
    1.5851    0.0604    0.4426 C   0  0  0  0  0  0  0  0  0  0  0  0
    0.9430    0.8275    1.4115 C   0  0  0  0  0  0  0  0  0  0  0  0
   -0.4523    0.9048    1.4240 C   0  0  0  0  0  0  0  0  0  0  0  0
   -1.1978    0.1904    0.4732 C   0  0  0  0  0  0  0  0  0  0  0  0
   -1.1350   -1.1497   -1.2120 H   0  0  0  0  0  0  0  0  0  0  0  0
    1.3733   -1.2555   -1.2507 H   0  0  0  0  0  0  0  0  0  0  0  0
    1.5267    1.3672    2.1550 H   0  0  0  0  0  0  0  0  0  0  0  0
   -0.9397    1.5140    2.1806 H   0  0  0  0  0  0  0  0  0  0  0  0
    1.0283    2.1151   -2.3186 N   0  0  0  0  0  0  0  0  0  0  0  0
    1.7675    2.1119   -3.1399 N   0  0  0  0  0  0  0  0  0  0  0  0
   -2.5591    0.1884    0.4047 O   0  0  0  0  0  0  0  0  0  0  0  0
   -3.2866    0.9648    1.3530 C   0  0  0  0  0  0  0  0  0  0  0  0
   -4.3426    0.8170    1.1086 H   0  0  0  0  0  0  0  0  0  0  0  0
   -3.0361    2.0331    1.2682 H   0  0  0  0  0  0  0  0  0  0  0  0
   -3.0959    0.6191    2.3804 H   0  0  0  0  0  0  0  0  0  0  0  0
    4.9554    0.7588    0.0585 O   0  0  0  0  0  0  0  0  0  0  0  0
    3.7916    1.0419    0.1168 N   0  0  0  0  0  0  0  0  0  0  0  0
    2.9677   -0.1359    0.4663 O   0  0  0  0  0  0  0  0  0  0  0  0
    3.2266    2.0940   -0.0330 O   0  0  0  0  0  0  0  0  0  0  0  0
  1  6  1  0  0  0  0
  2  1  2  0  0  0  0
  2  3  1  0  0  0  0
  3 20  1  0  0  0  0
  3  4  2  0  0  0  0
  4  5  1  0  0  0  0
  4  9  1  0  0  0  0
  5 10  1  0  0  0  0
  6  5  2  0  0  0  0
  7  1  1  0  0  0  0
  8  2  1  0  0  0  0
 12 11  3  0  0  0  0
 13  6  1  0  0  0  0
 13 14  1  0  0  0  0
 14 17  1  0  0  0  0
 15 14  1  0  0  0  0
 16 14  1  0  0  0  0
 18 19  2  0  0  0  0
 19 20  1  0  0  0  0
 21 19  2  0  0  0  0
M  END
