Coordinates from ORCA-job p-CH3O-Ph-N2-NO3-B3LYPG-aug-cc-pVDZ-scan-d09-49-n400
 OpenBabel11111914563D

 21 20  0  0  0  0  0  0  0  0999 V2000
   -0.4393   -0.4787   -0.4617 C   0  0  0  0  0  0  0  0  0  0  0  0
    0.9445   -0.5755   -0.3880 C   0  0  0  0  0  0  0  0  0  0  0  0
    1.6231    0.0269    0.6773 C   0  0  0  0  0  0  0  0  0  0  0  0
    0.9279    0.7241    1.6610 C   0  0  0  0  0  0  0  0  0  0  0  0
   -0.4648    0.8261    1.5923 C   0  0  0  0  0  0  0  0  0  0  0  0
   -1.1518    0.2250    0.5263 C   0  0  0  0  0  0  0  0  0  0  0  0
   -0.9930   -0.9430   -1.2764 H   0  0  0  0  0  0  0  0  0  0  0  0
    1.5062   -1.1219   -1.1447 H   0  0  0  0  0  0  0  0  0  0  0  0
    1.4740    1.1816    2.4851 H   0  0  0  0  0  0  0  0  0  0  0  0
   -0.9946    1.3704    2.3697 H   0  0  0  0  0  0  0  0  0  0  0  0
    0.8540    2.4481   -3.0237 N   0  0  0  0  0  0  0  0  0  0  0  0
    1.4233    2.2213   -3.9425 N   0  0  0  0  0  0  0  0  0  0  0  0
   -2.5037    0.2625    0.3621 O   0  0  0  0  0  0  0  0  0  0  0  0
   -3.2848    0.9649    1.3256 C   0  0  0  0  0  0  0  0  0  0  0  0
   -4.3225    0.8668    0.9935 H   0  0  0  0  0  0  0  0  0  0  0  0
   -3.0093    2.0298    1.3604 H   0  0  0  0  0  0  0  0  0  0  0  0
   -3.1762    0.5199    2.3264 H   0  0  0  0  0  0  0  0  0  0  0  0
    4.9875    0.7040    0.2732 O   0  0  0  0  0  0  0  0  0  0  0  0
    3.8130    0.9122    0.1539 N   0  0  0  0  0  0  0  0  0  0  0  0
    3.0001   -0.1515    0.7998 O   0  0  0  0  0  0  0  0  0  0  0  0
    3.2171    1.8098   -0.3813 O   0  0  0  0  0  0  0  0  0  0  0  0
  1  2  2  0  0  0  0
  1  6  1  0  0  0  0
  2  3  1  0  0  0  0
  3 20  1  0  0  0  0
  3  4  2  0  0  0  0
  4  9  1  0  0  0  0
  5  4  1  0  0  0  0
  5 10  1  0  0  0  0
  6  5  2  0  0  0  0
  7  1  1  0  0  0  0
  8  2  1  0  0  0  0
 12 11  3  0  0  0  0
 13  6  1  0  0  0  0
 13 14  1  0  0  0  0
 14 16  1  0  0  0  0
 14 17  1  0  0  0  0
 15 14  1  0  0  0  0
 19 18  2  0  0  0  0
 19 20  1  0  0  0  0
 21 19  2  0  0  0  0
M  END
