Coordinates from ORCA-job p-CH3O-Ph-N2-NO3-B3LYPG-aug-cc-pVDZ-scan-d09-49-n400
 OpenBabel11111914563D

 21 20  0  0  0  0  0  0  0  0999 V2000
   -0.6078   -0.6565   -0.4960 C   0  0  0  0  0  0  0  0  0  0  0  0
    0.7770   -0.6686   -0.5982 C   0  0  0  0  0  0  0  0  0  0  0  0
    1.5421    0.1366    0.2538 C   0  0  0  0  0  0  0  0  0  0  0  0
    0.9338    0.9290    1.2233 C   0  0  0  0  0  0  0  0  0  0  0  0
   -0.4623    0.9627    1.3078 C   0  0  0  0  0  0  0  0  0  0  0  0
   -1.2385    0.1714    0.4484 C   0  0  0  0  0  0  0  0  0  0  0  0
   -1.2221   -1.2789   -1.1449 H   0  0  0  0  0  0  0  0  0  0  0  0
    1.2790   -1.3022   -1.3279 H   0  0  0  0  0  0  0  0  0  0  0  0
    1.5292    1.5293    1.9055 H   0  0  0  0  0  0  0  0  0  0  0  0
   -0.9246    1.5998    2.0572 H   0  0  0  0  0  0  0  0  0  0  0  0
    1.1967    1.9527   -1.9480 N   0  0  0  0  0  0  0  0  0  0  0  0
    2.0092    1.9864   -2.6967 N   0  0  0  0  0  0  0  0  0  0  0  0
   -2.6012    0.1274    0.4578 O   0  0  0  0  0  0  0  0  0  0  0  0
   -3.2974    0.9396    1.3992 C   0  0  0  0  0  0  0  0  0  0  0  0
   -4.3607    0.7501    1.2248 H   0  0  0  0  0  0  0  0  0  0  0  0
   -3.0834    2.0072    1.2385 H   0  0  0  0  0  0  0  0  0  0  0  0
   -3.0399    0.6610    2.4325 H   0  0  0  0  0  0  0  0  0  0  0  0
    4.9497    0.7655   -0.0300 O   0  0  0  0  0  0  0  0  0  0  0  0
    3.8060    1.0946    0.1283 N   0  0  0  0  0  0  0  0  0  0  0  0
    2.9263   -0.0712    0.1735 O   0  0  0  0  0  0  0  0  0  0  0  0
    3.3193    2.1868    0.2795 O   0  0  0  0  0  0  0  0  0  0  0  0
  1  6  1  0  0  0  0
  2  1  2  0  0  0  0
  2  3  1  0  0  0  0
  3  4  2  0  0  0  0
  4  5  1  0  0  0  0
  4  9  1  0  0  0  0
  5 10  1  0  0  0  0
  6 13  1  0  0  0  0
  6  5  2  0  0  0  0
  7  1  1  0  0  0  0
  8  2  1  0  0  0  0
 12 11  3  0  0  0  0
 13 14  1  0  0  0  0
 14 17  1  0  0  0  0
 15 14  1  0  0  0  0
 16 14  1  0  0  0  0
 18 19  2  0  0  0  0
 19 20  1  0  0  0  0
 19 21  2  0  0  0  0
 20  3  1  0  0  0  0
M  END
