Coordinates from ORCA-job p-CH3O-Ph-N2-NO3-B3LYPG-aug-cc-pVDZ-scan-d09-49-n400
 OpenBabel11111914563D

 21 20  0  0  0  0  0  0  0  0999 V2000
   -0.5907   -0.6428   -0.4954 C   0  0  0  0  0  0  0  0  0  0  0  0
    0.7960   -0.6695   -0.5756 C   0  0  0  0  0  0  0  0  0  0  0  0
    1.5556    0.1055    0.3087 C   0  0  0  0  0  0  0  0  0  0  0  0
    0.9391    0.8947    1.2759 C   0  0  0  0  0  0  0  0  0  0  0  0
   -0.4570    0.9455    1.3387 C   0  0  0  0  0  0  0  0  0  0  0  0
   -1.2267    0.1750    0.4543 C   0  0  0  0  0  0  0  0  0  0  0  0
   -1.2021   -1.2456   -1.1652 H   0  0  0  0  0  0  0  0  0  0  0  0
    1.3027   -1.2958   -1.3084 H   0  0  0  0  0  0  0  0  0  0  0  0
    1.5337    1.4774    1.9751 H   0  0  0  0  0  0  0  0  0  0  0  0
   -0.9245    1.5779    2.0889 H   0  0  0  0  0  0  0  0  0  0  0  0
    1.1500    1.9966   -2.0437 N   0  0  0  0  0  0  0  0  0  0  0  0
    1.9444    2.0209   -2.8116 N   0  0  0  0  0  0  0  0  0  0  0  0
   -2.5898    0.1450    0.4423 O   0  0  0  0  0  0  0  0  0  0  0  0
   -3.2926    0.9501    1.3849 C   0  0  0  0  0  0  0  0  0  0  0  0
   -4.3548    0.7734    1.1916 H   0  0  0  0  0  0  0  0  0  0  0  0
   -3.0662    2.0178    1.2430 H   0  0  0  0  0  0  0  0  0  0  0  0
   -3.0535    0.6542    2.4177 H   0  0  0  0  0  0  0  0  0  0  0  0
    4.9475    0.7753   -0.0119 O   0  0  0  0  0  0  0  0  0  0  0  0
    3.7972    1.0885    0.1243 N   0  0  0  0  0  0  0  0  0  0  0  0
    2.9398   -0.0967    0.2594 O   0  0  0  0  0  0  0  0  0  0  0  0
    3.2824    2.1752    0.1954 O   0  0  0  0  0  0  0  0  0  0  0  0
  1  6  1  0  0  0  0
  2  1  2  0  0  0  0
  2  3  1  0  0  0  0
  3  4  2  0  0  0  0
  4  5  1  0  0  0  0
  4  9  1  0  0  0  0
  5 10  1  0  0  0  0
  6  5  2  0  0  0  0
  7  1  1  0  0  0  0
  8  2  1  0  0  0  0
 12 11  3  0  0  0  0
 13  6  1  0  0  0  0
 13 14  1  0  0  0  0
 14 17  1  0  0  0  0
 15 14  1  0  0  0  0
 16 14  1  0  0  0  0
 18 19  2  0  0  0  0
 19 21  2  0  0  0  0
 19 20  1  0  0  0  0
 20  3  1  0  0  0  0
M  END
