Coordinates from ORCA-job p-CH3O-Ph-N2-NO3-B3LYPG-aug-cc-pVDZ-scan-d09-49-n400
 OpenBabel11111914563D

 21 21  0  0  1  0  0  0  0  0999 V2000
   -0.8657   -0.3601   -1.1095 C   0  0  0  0  0  0  0  0  0  0  0  0
    0.1571    0.0008   -1.9004 C   0  0  0  0  0  0  0  0  0  0  0  0
    1.1803    1.0100   -1.4654 C   0  0  0  0  0  0  0  0  0  0  0  0
    1.1682    1.3151    0.0743 C   0  0  1  0  0  0  0  0  0  0  0  0
   -0.1232    1.0587    0.7594 C   0  0  0  0  0  0  0  0  0  0  0  0
   -1.0477    0.2311    0.2135 C   0  0  0  0  0  0  0  0  0  0  0  0
   -1.6088   -1.0813   -1.4471 H   0  0  0  0  0  0  0  0  0  0  0  0
    0.2943   -0.3979   -2.9057 H   0  0  0  0  0  0  0  0  0  0  0  0
    1.5276    2.3387    0.2181 H   0  0  0  0  0  0  0  0  0  0  0  0
   -0.2603    1.5334    1.7262 H   0  0  0  0  0  0  0  0  0  0  0  0
    1.8073    1.4204   -2.0331 N   0  0  0  0  0  0  0  0  0  0  0  0
    2.5932    1.9393   -2.7436 N   0  0  0  0  0  0  0  0  0  0  0  0
   -2.2279   -0.1239    0.7757 O   0  0  0  0  0  0  0  0  0  0  0  0
   -2.5238    0.3815    2.0788 C   0  0  0  0  0  0  0  0  0  0  0  0
   -3.4941   -0.0440    2.3490 H   0  0  0  0  0  0  0  0  0  0  0  0
   -2.5884    1.4794    2.0652 H   0  0  0  0  0  0  0  0  0  0  0  0
   -1.7592    0.0625    2.8019 H   0  0  0  0  0  0  0  0  0  0  0  0
    2.4353    1.8205    2.3102 O   0  0  0  0  0  0  0  0  0  0  0  0
    2.8338    0.7968    1.7920 N   0  0  0  0  0  0  0  0  0  0  0  0
    3.6777    0.0270    2.1711 O   0  0  0  0  0  0  0  0  0  0  0  0
    2.2547    0.4147    0.5580 O   0  0  0  0  0  0  0  0  0  0  0  0
  1  6  2  0  0  0  0
  2  3  2  0  0  0  0
  2  1  1  0  0  0  0
  3  4  1  0  0  0  0
  4  9  1  1  0  0  0
  4 21  1  0  0  0  0
  4  5  1  0  0  0  0
  5 10  1  0  0  0  0
  6  5  1  0  0  0  0
  6 13  1  0  0  0  0
  7  1  1  0  0  0  0
  8  2  1  0  0  0  0
 11  3  1  0  0  0  0
 12 11  1  0  0  0  0
 13 14  1  0  0  0  0
 14 15  1  0  0  0  0
 14 17  1  0  0  0  0
 16 14  1  0  0  0  0
 19 20  2  0  0  0  0
 19 18  2  0  0  0  0
 21 19  1  0  0  0  0
M  RAD  3   5   2  11   2  12   3
M  END
