Coordinates from ORCA-job p-CH3O-Ph-N2-NO3-B3LYPG-aug-cc-pVDZ-scan-d09-49-n400
 OpenBabel11111914563D

 21 20  0  0  0  0  0  0  0  0999 V2000
   -0.6059   -0.6547   -0.4960 C   0  0  0  0  0  0  0  0  0  0  0  0
    0.7792   -0.6683   -0.5956 C   0  0  0  0  0  0  0  0  0  0  0  0
    1.5436    0.1334    0.2602 C   0  0  0  0  0  0  0  0  0  0  0  0
    0.9344    0.9253    1.2294 C   0  0  0  0  0  0  0  0  0  0  0  0
   -0.4618    0.9608    1.3115 C   0  0  0  0  0  0  0  0  0  0  0  0
   -1.2373    0.1719    0.4491 C   0  0  0  0  0  0  0  0  0  0  0  0
   -1.2198   -1.2749   -1.1474 H   0  0  0  0  0  0  0  0  0  0  0  0
    1.2817   -1.3010   -1.3257 H   0  0  0  0  0  0  0  0  0  0  0  0
    1.5296    1.5236    1.9138 H   0  0  0  0  0  0  0  0  0  0  0  0
   -0.9248    1.5972    2.0611 H   0  0  0  0  0  0  0  0  0  0  0  0
    1.1919    1.9582   -1.9596 N   0  0  0  0  0  0  0  0  0  0  0  0
    2.0022    1.9897   -2.7107 N   0  0  0  0  0  0  0  0  0  0  0  0
   -2.6000    0.1295    0.4559 O   0  0  0  0  0  0  0  0  0  0  0  0
   -3.2971    0.9405    1.3977 C   0  0  0  0  0  0  0  0  0  0  0  0
   -4.3602    0.7525    1.2211 H   0  0  0  0  0  0  0  0  0  0  0  0
   -3.0817    2.0082    1.2394 H   0  0  0  0  0  0  0  0  0  0  0  0
   -3.0416    0.6597    2.4309 H   0  0  0  0  0  0  0  0  0  0  0  0
    4.9496    0.7660   -0.0282 O   0  0  0  0  0  0  0  0  0  0  0  0
    3.8052    1.0937    0.1278 N   0  0  0  0  0  0  0  0  0  0  0  0
    2.9279   -0.0744    0.1839 O   0  0  0  0  0  0  0  0  0  0  0  0
    3.3154    2.1857    0.2696 O   0  0  0  0  0  0  0  0  0  0  0  0
  1  6  1  0  0  0  0
  2  1  2  0  0  0  0
  2  3  1  0  0  0  0
  3  4  2  0  0  0  0
  4  5  1  0  0  0  0
  4  9  1  0  0  0  0
  5 10  1  0  0  0  0
  6 13  1  0  0  0  0
  6  5  2  0  0  0  0
  7  1  1  0  0  0  0
  8  2  1  0  0  0  0
 12 11  3  0  0  0  0
 13 14  1  0  0  0  0
 14 17  1  0  0  0  0
 15 14  1  0  0  0  0
 16 14  1  0  0  0  0
 18 19  2  0  0  0  0
 19 20  1  0  0  0  0
 19 21  2  0  0  0  0
 20  3  1  0  0  0  0
M  END
