Coordinates from ORCA-job p-CH3O-Ph-N2-NO3-B3LYPG-aug-cc-pVDZ-scan-d09-49-n400
 OpenBabel11111914563D

 21 21  0  0  1  0  0  0  0  0999 V2000
   -0.9392   -0.3370   -1.1336 C   0  0  0  0  0  0  0  0  0  0  0  0
    0.0998    0.0396   -1.9199 C   0  0  0  0  0  0  0  0  0  0  0  0
    1.0799    0.9511   -1.3951 C   0  0  0  0  0  0  0  0  0  0  0  0
    1.1353    1.3277    0.0449 C   0  0  1  0  0  0  0  0  0  0  0  0
   -0.1440    1.0571    0.7429 C   0  0  0  0  0  0  0  0  0  0  0  0
   -1.0778    0.2254    0.1994 C   0  0  0  0  0  0  0  0  0  0  0  0
   -1.7039   -1.0249   -1.4866 H   0  0  0  0  0  0  0  0  0  0  0  0
    0.2046   -0.3231   -2.9415 H   0  0  0  0  0  0  0  0  0  0  0  0
    1.5096    2.3403    0.2135 H   0  0  0  0  0  0  0  0  0  0  0  0
   -0.2677    1.5099    1.7208 H   0  0  0  0  0  0  0  0  0  0  0  0
    2.0398    1.4303   -2.1998 N   0  0  0  0  0  0  0  0  0  0  0  0
    2.8570    1.8450   -2.8727 N   0  0  0  0  0  0  0  0  0  0  0  0
   -2.2404   -0.1402    0.7982 O   0  0  0  0  0  0  0  0  0  0  0  0
   -2.4941    0.3399    2.1182 C   0  0  0  0  0  0  0  0  0  0  0  0
   -3.4516   -0.0978    2.4143 H   0  0  0  0  0  0  0  0  0  0  0  0
   -2.5680    1.4374    2.1286 H   0  0  0  0  0  0  0  0  0  0  0  0
   -1.7037    0.0151    2.8106 H   0  0  0  0  0  0  0  0  0  0  0  0
    2.3664    1.8628    2.3330 O   0  0  0  0  0  0  0  0  0  0  0  0
    2.7995    0.8368    1.8348 N   0  0  0  0  0  0  0  0  0  0  0  0
    3.6543    0.0992    2.2668 O   0  0  0  0  0  0  0  0  0  0  0  0
    2.2750    0.4280    0.6116 O   0  0  0  0  0  0  0  0  0  0  0  0
  1  6  2  0  0  0  0
  2  3  2  0  0  0  0
  2  1  1  0  0  0  0
  3  4  1  0  0  0  0
  4  9  1  1  0  0  0
  4 21  1  0  0  0  0
  4  5  1  0  0  0  0
  5 10  1  0  0  0  0
  6  5  1  0  0  0  0
  6 13  1  0  0  0  0
  7  1  1  0  0  0  0
  8  2  1  0  0  0  0
 11  3  1  0  0  0  0
 12 11  1  0  0  0  0
 13 14  1  0  0  0  0
 14 16  1  0  0  0  0
 14 15  1  0  0  0  0
 14 17  1  0  0  0  0
 19 20  2  0  0  0  0
 19 18  2  0  0  0  0
 21 19  1  0  0  0  0
M  RAD  3   5   2  11   2  12   3
M  END
