Coordinates from ORCA-job p-CH3O-Ph-N2-NO3-B3LYPG-aug-cc-pVDZ-scan-d09-49-n400
 OpenBabel11111914563D

 21 20  0  0  0  0  0  0  0  0999 V2000
   -0.4504   -0.4894   -0.4710 C   0  0  0  0  0  0  0  0  0  0  0  0
    0.9343   -0.5815   -0.4079 C   0  0  0  0  0  0  0  0  0  0  0  0
    1.6200    0.0326    0.6459 C   0  0  0  0  0  0  0  0  0  0  0  0
    0.9312    0.7377    1.6286 C   0  0  0  0  0  0  0  0  0  0  0  0
   -0.4621    0.8373    1.5691 C   0  0  0  0  0  0  0  0  0  0  0  0
   -1.1564    0.2235    0.5150 C   0  0  0  0  0  0  0  0  0  0  0  0
   -1.0096   -0.9641   -1.2758 H   0  0  0  0  0  0  0  0  0  0  0  0
    1.4914   -1.1350   -1.1629 H   0  0  0  0  0  0  0  0  0  0  0  0
    1.4824    1.2041    2.4442 H   0  0  0  0  0  0  0  0  0  0  0  0
   -0.9868    1.3888    2.3448 H   0  0  0  0  0  0  0  0  0  0  0  0
    0.8686    2.3735   -2.8801 N   0  0  0  0  0  0  0  0  0  0  0  0
    1.4645    2.1897   -3.7917 N   0  0  0  0  0  0  0  0  0  0  0  0
   -2.5097    0.2565    0.3614 O   0  0  0  0  0  0  0  0  0  0  0  0
   -3.2844    0.9673    1.3240 C   0  0  0  0  0  0  0  0  0  0  0  0
   -4.3246    0.8637    1.0014 H   0  0  0  0  0  0  0  0  0  0  0  0
   -3.0109    2.0331    1.3455 H   0  0  0  0  0  0  0  0  0  0  0  0
   -3.1667    0.5330    2.3284 H   0  0  0  0  0  0  0  0  0  0  0  0
    4.9830    0.7159    0.2363 O   0  0  0  0  0  0  0  0  0  0  0  0
    3.8081    0.9326    0.1366 N   0  0  0  0  0  0  0  0  0  0  0  0
    2.9979   -0.1470    0.7579 O   0  0  0  0  0  0  0  0  0  0  0  0
    3.2108    1.8504   -0.3614 O   0  0  0  0  0  0  0  0  0  0  0  0
  1  2  2  0  0  0  0
  1  6  1  0  0  0  0
  2  3  1  0  0  0  0
  3 20  1  0  0  0  0
  3  4  2  0  0  0  0
  4  9  1  0  0  0  0
  5  4  1  0  0  0  0
  5 10  1  0  0  0  0
  6  5  2  0  0  0  0
  7  1  1  0  0  0  0
  8  2  1  0  0  0  0
 12 11  3  0  0  0  0
 13  6  1  0  0  0  0
 13 14  1  0  0  0  0
 14 16  1  0  0  0  0
 14 17  1  0  0  0  0
 15 14  1  0  0  0  0
 19 18  2  0  0  0  0
 19 20  1  0  0  0  0
 21 19  2  0  0  0  0
M  END
