Coordinates from ORCA-job p-CH3O-Ph-N2-NO3-B3LYPG-aug-cc-pVDZ-scan-d09-49-n400
 OpenBabel11111914563D

 21 20  0  0  0  0  0  0  0  0999 V2000
   -0.5052   -0.5597   -0.4854 C   0  0  0  0  0  0  0  0  0  0  0  0
    0.8825   -0.6295   -0.4749 C   0  0  0  0  0  0  0  0  0  0  0  0
    1.6005    0.0471    0.5168 C   0  0  0  0  0  0  0  0  0  0  0  0
    0.9417    0.7957    1.4885 C   0  0  0  0  0  0  0  0  0  0  0  0
   -0.4530    0.8834    1.4728 C   0  0  0  0  0  0  0  0  0  0  0  0
   -1.1807    0.2026    0.4840 C   0  0  0  0  0  0  0  0  0  0  0  0
   -1.0888   -1.0873   -1.2383 H   0  0  0  0  0  0  0  0  0  0  0  0
    1.4183   -1.2191   -1.2180 H   0  0  0  0  0  0  0  0  0  0  0  0
    1.5152    1.3102    2.2581 H   0  0  0  0  0  0  0  0  0  0  0  0
   -0.9538    1.4749    2.2347 H   0  0  0  0  0  0  0  0  0  0  0  0
    0.9551    2.1827   -2.4688 N   0  0  0  0  0  0  0  0  0  0  0  0
    1.6515    2.1472   -3.3255 N   0  0  0  0  0  0  0  0  0  0  0  0
   -2.5396    0.2138    0.3829 O   0  0  0  0  0  0  0  0  0  0  0  0
   -3.2841    0.9696    1.3347 C   0  0  0  0  0  0  0  0  0  0  0  0
   -4.3350    0.8374    1.0607 H   0  0  0  0  0  0  0  0  0  0  0  0
   -3.0234    2.0377    1.2858 H   0  0  0  0  0  0  0  0  0  0  0  0
   -3.1212    0.5938    2.3563 H   0  0  0  0  0  0  0  0  0  0  0  0
    4.9644    0.7422    0.1056 O   0  0  0  0  0  0  0  0  0  0  0  0
    3.7946    1.0052    0.1117 N   0  0  0  0  0  0  0  0  0  0  0  0
    2.9815   -0.1436    0.5770 O   0  0  0  0  0  0  0  0  0  0  0  0
    3.2101    2.0184   -0.1704 O   0  0  0  0  0  0  0  0  0  0  0  0
  1  2  2  0  0  0  0
  1  6  1  0  0  0  0
  2  3  1  0  0  0  0
  3 20  1  0  0  0  0
  3  4  2  0  0  0  0
  4  9  1  0  0  0  0
  5  4  1  0  0  0  0
  5 10  1  0  0  0  0
  6  5  2  0  0  0  0
  7  1  1  0  0  0  0
  8  2  1  0  0  0  0
 12 11  3  0  0  0  0
 13  6  1  0  0  0  0
 13 14  1  0  0  0  0
 14 17  1  0  0  0  0
 15 14  1  0  0  0  0
 16 14  1  0  0  0  0
 18 19  2  0  0  0  0
 19 20  1  0  0  0  0
 21 19  2  0  0  0  0
M  END
