Coordinates from ORCA-job p-CH3O-Ph-N2-NO3-B3LYPG-aug-cc-pVDZ-scan-d09-49-n400
 OpenBabel11111914563D

 21 20  0  0  0  0  0  0  0  0999 V2000
   -1.1280   -0.3616   -0.9382 C   0  0  0  0  0  0  0  0  0  0  0  0
    0.1255   -0.1392   -1.4903 C   0  0  0  0  0  0  0  0  0  0  0  0
    0.9780    0.7051   -0.7816 C   0  0  0  0  0  0  0  0  0  0  0  0
    0.6805    1.3302    0.4109 C   0  0  0  0  0  0  0  0  0  0  0  0
   -0.5872    1.0983    0.9482 C   0  0  0  0  0  0  0  0  0  0  0  0
   -1.4913    0.2523    0.2798 C   0  0  0  0  0  0  0  0  0  0  0  0
   -1.8449   -1.0142   -1.4333 H   0  0  0  0  0  0  0  0  0  0  0  0
    0.4268   -0.6068   -2.4247 H   0  0  0  0  0  0  0  0  0  0  0  0
    1.4214    1.9652    0.8889 H   0  0  0  0  0  0  0  0  0  0  0  0
   -0.8500    1.5757    1.8879 H   0  0  0  0  0  0  0  0  0  0  0  0
    2.3997    0.9539   -1.4529 N   0  0  0  0  0  0  0  0  0  0  0  0
    3.0318    0.8044   -2.3642 N   0  0  0  0  0  0  0  0  0  0  0  0
   -2.7345   -0.0379    0.7233 O   0  0  0  0  0  0  0  0  0  0  0  0
   -3.1766    0.5315    1.9602 C   0  0  0  0  0  0  0  0  0  0  0  0
   -4.1918    0.1539    2.1081 H   0  0  0  0  0  0  0  0  0  0  0  0
   -3.1948    1.6293    1.9024 H   0  0  0  0  0  0  0  0  0  0  0  0
   -2.5356    0.2070    2.7922 H   0  0  0  0  0  0  0  0  0  0  0  0
    4.9396    1.5649    1.5828 O   0  0  0  0  0  0  0  0  0  0  0  0
    4.0456    1.1698    0.8395 N   0  0  0  0  0  0  0  0  0  0  0  0
    3.6726   -0.0159    0.7629 O   0  0  0  0  0  0  0  0  0  0  0  0
    3.4434    2.0567    0.0863 O   0  0  0  0  0  0  0  0  0  0  0  0
  1  6  1  0  0  0  0
  2  1  2  0  0  0  0
  2  3  1  0  0  0  0
  3  4  2  0  0  0  0
  4  9  1  0  0  0  0
  4  5  1  0  0  0  0
  5 10  1  0  0  0  0
  6 13  1  0  0  0  0
  6  5  2  0  0  0  0
  7  1  1  0  0  0  0
  8  2  1  0  0  0  0
 11  3  1  0  0  0  0
 12 11  2  0  0  0  0
 13 14  1  0  0  0  0
 14 15  1  0  0  0  0
 14 17  1  0  0  0  0
 16 14  1  0  0  0  0
 19 18  2  0  0  0  0
 20 19  1  0  0  0  0
 21 19  2  0  0  0  0
M  RAD  2  12   2  20   2
M  END
