Coordinates from ORCA-job p-CH3O-Ph-N2-NO3-B3LYPG-aug-cc-pVDZ-scan-d09-49-n400
 OpenBabel11111914563D

 21 20  0  0  0  0  0  0  0  0999 V2000
   -0.4309   -0.4722   -0.4539 C   0  0  0  0  0  0  0  0  0  0  0  0
    0.9522   -0.5724   -0.3725 C   0  0  0  0  0  0  0  0  0  0  0  0
    1.6256    0.0214    0.7009 C   0  0  0  0  0  0  0  0  0  0  0  0
    0.9259    0.7134    1.6851 C   0  0  0  0  0  0  0  0  0  0  0  0
   -0.4664    0.8177    1.6095 C   0  0  0  0  0  0  0  0  0  0  0  0
   -1.1481    0.2255    0.5351 C   0  0  0  0  0  0  0  0  0  0  0  0
   -0.9805   -0.9292   -1.2753 H   0  0  0  0  0  0  0  0  0  0  0  0
    1.5172   -1.1141   -1.1301 H   0  0  0  0  0  0  0  0  0  0  0  0
    1.4683    1.1644    2.5153 H   0  0  0  0  0  0  0  0  0  0  0  0
   -0.9998    1.3572    2.3877 H   0  0  0  0  0  0  0  0  0  0  0  0
    0.8364    2.5098   -3.1464 N   0  0  0  0  0  0  0  0  0  0  0  0
    1.3869    2.2511   -4.0683 N   0  0  0  0  0  0  0  0  0  0  0  0
   -2.4989    0.2664    0.3632 O   0  0  0  0  0  0  0  0  0  0  0  0
   -3.2845    0.9633    1.3271 C   0  0  0  0  0  0  0  0  0  0  0  0
   -4.3204    0.8693    0.9882 H   0  0  0  0  0  0  0  0  0  0  0  0
   -3.0075    2.0275    1.3709 H   0  0  0  0  0  0  0  0  0  0  0  0
   -3.1824    0.5113    2.3253 H   0  0  0  0  0  0  0  0  0  0  0  0
    4.9922    0.6916    0.3050 O   0  0  0  0  0  0  0  0  0  0  0  0
    3.8183    0.8961    0.1733 N   0  0  0  0  0  0  0  0  0  0  0  0
    3.0017   -0.1576    0.8313 O   0  0  0  0  0  0  0  0  0  0  0  0
    3.2253    1.7826   -0.3830 O   0  0  0  0  0  0  0  0  0  0  0  0
  1  2  2  0  0  0  0
  1  6  1  0  0  0  0
  2  3  1  0  0  0  0
  3 20  1  0  0  0  0
  3  4  2  0  0  0  0
  4  9  1  0  0  0  0
  5  4  1  0  0  0  0
  5 10  1  0  0  0  0
  6  5  2  0  0  0  0
  7  1  1  0  0  0  0
  8  2  1  0  0  0  0
 12 11  3  0  0  0  0
 13  6  1  0  0  0  0
 13 14  1  0  0  0  0
 14 16  1  0  0  0  0
 14 17  1  0  0  0  0
 15 14  1  0  0  0  0
 19 18  2  0  0  0  0
 19 20  1  0  0  0  0
 21 19  2  0  0  0  0
M  END
