Coordinates from ORCA-job p-CH3O-Ph-N2-NO3-B3LYPG-aug-cc-pVDZ-scan-d09-49-n400
 OpenBabel11111914563D

 21 20  0  0  0  0  0  0  0  0999 V2000
   -1.1465   -0.3635   -0.9394 C   0  0  0  0  0  0  0  0  0  0  0  0
    0.1081   -0.1471   -1.4998 C   0  0  0  0  0  0  0  0  0  0  0  0
    0.9432    0.6915   -0.7796 C   0  0  0  0  0  0  0  0  0  0  0  0
    0.6756    1.3224    0.4083 C   0  0  0  0  0  0  0  0  0  0  0  0
   -0.5940    1.0919    0.9493 C   0  0  0  0  0  0  0  0  0  0  0  0
   -1.5022    0.2501    0.2807 C   0  0  0  0  0  0  0  0  0  0  0  0
   -1.8678   -1.0124   -1.4332 H   0  0  0  0  0  0  0  0  0  0  0  0
    0.4084   -0.6124   -2.4351 H   0  0  0  0  0  0  0  0  0  0  0  0
    1.4268    1.9524    0.8781 H   0  0  0  0  0  0  0  0  0  0  0  0
   -0.8517    1.5683    1.8908 H   0  0  0  0  0  0  0  0  0  0  0  0
    2.4588    0.9637   -1.4807 N   0  0  0  0  0  0  0  0  0  0  0  0
    3.0852    0.8078   -2.3920 N   0  0  0  0  0  0  0  0  0  0  0  0
   -2.7465   -0.0365    0.7279 O   0  0  0  0  0  0  0  0  0  0  0  0
   -3.1806    0.5320    1.9673 C   0  0  0  0  0  0  0  0  0  0  0  0
   -4.1968    0.1584    2.1193 H   0  0  0  0  0  0  0  0  0  0  0  0
   -3.1948    1.6301    1.9122 H   0  0  0  0  0  0  0  0  0  0  0  0
   -2.5375    0.2034    2.7963 H   0  0  0  0  0  0  0  0  0  0  0  0
    4.9394    1.5740    1.6078 O   0  0  0  0  0  0  0  0  0  0  0  0
    4.0554    1.1813    0.8511 N   0  0  0  0  0  0  0  0  0  0  0  0
    3.6767   -0.0022    0.7730 O   0  0  0  0  0  0  0  0  0  0  0  0
    3.4711    2.0695    0.0860 O   0  0  0  0  0  0  0  0  0  0  0  0
  1  6  1  0  0  0  0
  2  1  2  0  0  0  0
  2  3  1  0  0  0  0
  3  4  2  0  0  0  0
  4  9  1  0  0  0  0
  4  5  1  0  0  0  0
  5 10  1  0  0  0  0
  6 13  1  0  0  0  0
  6  5  2  0  0  0  0
  7  1  1  0  0  0  0
  8  2  1  0  0  0  0
 11  3  1  0  0  0  0
 12 11  2  0  0  0  0
 13 14  1  0  0  0  0
 14 15  1  0  0  0  0
 14 17  1  0  0  0  0
 16 14  1  0  0  0  0
 19 18  2  0  0  0  0
 20 19  1  0  0  0  0
 21 19  2  0  0  0  0
M  RAD  2  12   2  20   2
M  END
