Coordinates from ORCA-job p-CH3O-Ph-N2-NO3-B3LYPG-aug-cc-pVDZ-scan-d09-49-n400
 OpenBabel11111914563D

 21 20  0  0  0  0  0  0  0  0999 V2000
   -0.5896   -0.6420   -0.4953 C   0  0  0  0  0  0  0  0  0  0  0  0
    0.7971   -0.6695   -0.5741 C   0  0  0  0  0  0  0  0  0  0  0  0
    1.5563    0.1039    0.3118 C   0  0  0  0  0  0  0  0  0  0  0  0
    0.9394    0.8928    1.2790 C   0  0  0  0  0  0  0  0  0  0  0  0
   -0.4567    0.9444    1.3406 C   0  0  0  0  0  0  0  0  0  0  0  0
   -1.2261    0.1752    0.4547 C   0  0  0  0  0  0  0  0  0  0  0  0
   -1.2008   -1.2437   -1.1662 H   0  0  0  0  0  0  0  0  0  0  0  0
    1.3041   -1.2954   -1.3072 H   0  0  0  0  0  0  0  0  0  0  0  0
    1.5338    1.4745    1.9791 H   0  0  0  0  0  0  0  0  0  0  0  0
   -0.9245    1.5765    2.0909 H   0  0  0  0  0  0  0  0  0  0  0  0
    1.1473    1.9992   -2.0495 N   0  0  0  0  0  0  0  0  0  0  0  0
    1.9407    2.0233   -2.8185 N   0  0  0  0  0  0  0  0  0  0  0  0
   -2.5891    0.1460    0.4414 O   0  0  0  0  0  0  0  0  0  0  0  0
   -3.2924    0.9507    1.3841 C   0  0  0  0  0  0  0  0  0  0  0  0
   -4.3545    0.7747    1.1897 H   0  0  0  0  0  0  0  0  0  0  0  0
   -3.0653    2.0184    1.2433 H   0  0  0  0  0  0  0  0  0  0  0  0
   -3.0544    0.6538    2.4169 H   0  0  0  0  0  0  0  0  0  0  0  0
    4.9475    0.7757   -0.0107 O   0  0  0  0  0  0  0  0  0  0  0  0
    3.7967    1.0880    0.1240 N   0  0  0  0  0  0  0  0  0  0  0  0
    2.9406   -0.0980    0.2642 O   0  0  0  0  0  0  0  0  0  0  0  0
    3.2803    2.1743    0.1903 O   0  0  0  0  0  0  0  0  0  0  0  0
  1  6  1  0  0  0  0
  2  1  2  0  0  0  0
  2  3  1  0  0  0  0
  3  4  2  0  0  0  0
  4  5  1  0  0  0  0
  4  9  1  0  0  0  0
  5 10  1  0  0  0  0
  6  5  2  0  0  0  0
  7  1  1  0  0  0  0
  8  2  1  0  0  0  0
 12 11  3  0  0  0  0
 13  6  1  0  0  0  0
 13 14  1  0  0  0  0
 14 17  1  0  0  0  0
 15 14  1  0  0  0  0
 16 14  1  0  0  0  0
 18 19  2  0  0  0  0
 19 21  2  0  0  0  0
 19 20  1  0  0  0  0
 20  3  1  0  0  0  0
M  END
