Coordinates from ORCA-job p-CH3O-Ph-N2-NO3-B3LYPG-aug-cc-pVDZ-scan-d09-49-n400
 OpenBabel11111914563D

 21 20  0  0  0  0  0  0  0  0999 V2000
   -0.5305   -0.5841   -0.4891 C   0  0  0  0  0  0  0  0  0  0  0  0
    0.8578   -0.6432   -0.5031 C   0  0  0  0  0  0  0  0  0  0  0  0
    1.5891    0.0577    0.4618 C   0  0  0  0  0  0  0  0  0  0  0  0
    0.9426    0.8192    1.4321 C   0  0  0  0  0  0  0  0  0  0  0  0
   -0.4526    0.8992    1.4373 C   0  0  0  0  0  0  0  0  0  0  0  0
   -1.1936    0.1941    0.4758 C   0  0  0  0  0  0  0  0  0  0  0  0
   -1.1234   -1.1317   -1.2202 H   0  0  0  0  0  0  0  0  0  0  0  0
    1.3848   -1.2441   -1.2434 H   0  0  0  0  0  0  0  0  0  0  0  0
    1.5239    1.3516    2.1830 H   0  0  0  0  0  0  0  0  0  0  0  0
   -0.9435    1.5031    2.1959 H   0  0  0  0  0  0  0  0  0  0  0  0
    1.0113    2.1296   -2.3581 N   0  0  0  0  0  0  0  0  0  0  0  0
    1.7401    2.1169   -3.1884 N   0  0  0  0  0  0  0  0  0  0  0  0
   -2.5543    0.1955    0.3989 O   0  0  0  0  0  0  0  0  0  0  0  0
   -3.2862    0.9656    1.3489 C   0  0  0  0  0  0  0  0  0  0  0  0
   -4.3410    0.8221    1.0966 H   0  0  0  0  0  0  0  0  0  0  0  0
   -3.0330    2.0341    1.2744 H   0  0  0  0  0  0  0  0  0  0  0  0
   -3.1028    0.6111    2.3746 H   0  0  0  0  0  0  0  0  0  0  0  0
    4.9574    0.7546    0.0706 O   0  0  0  0  0  0  0  0  0  0  0  0
    3.7918    1.0331    0.1151 N   0  0  0  0  0  0  0  0  0  0  0  0
    2.9711   -0.1379    0.4959 O   0  0  0  0  0  0  0  0  0  0  0  0
    3.2214    2.0765   -0.0703 O   0  0  0  0  0  0  0  0  0  0  0  0
  1  6  1  0  0  0  0
  2  1  2  0  0  0  0
  2  3  1  0  0  0  0
  3 20  1  0  0  0  0
  3  4  2  0  0  0  0
  4  5  1  0  0  0  0
  4  9  1  0  0  0  0
  5 10  1  0  0  0  0
  6  5  2  0  0  0  0
  7  1  1  0  0  0  0
  8  2  1  0  0  0  0
 12 11  3  0  0  0  0
 13  6  1  0  0  0  0
 13 14  1  0  0  0  0
 14 17  1  0  0  0  0
 15 14  1  0  0  0  0
 16 14  1  0  0  0  0
 18 19  2  0  0  0  0
 19 20  1  0  0  0  0
 21 19  2  0  0  0  0
M  END
