Coordinates from ORCA-job p-CH3O-Ph-N2-NO3-B3LYPG-aug-cc-pVDZ-scan-d09-49-n400
 OpenBabel11111914563D

 21 21  0  0  1  0  0  0  0  0999 V2000
   -0.9603   -0.3321   -1.1384 C   0  0  0  0  0  0  0  0  0  0  0  0
    0.0837    0.0487   -1.9240 C   0  0  0  0  0  0  0  0  0  0  0  0
    1.0431    0.9503   -1.3770 C   0  0  1  0  0  0  0  0  0  0  0  0
    1.1179    1.3402    0.0414 C   0  0  1  0  0  0  0  0  0  0  0  0
   -0.1567    1.0618    0.7377 C   0  0  0  0  0  0  0  0  0  0  0  0
   -1.0910    0.2251    0.1939 C   0  0  0  0  0  0  0  0  0  0  0  0
   -1.7260   -1.0170   -1.4946 H   0  0  0  0  0  0  0  0  0  0  0  0
    0.1917   -0.3069   -2.9470 H   0  0  0  0  0  0  0  0  0  0  0  0
    1.5050    2.3451    0.2201 H   0  0  0  0  0  0  0  0  0  0  0  0
   -0.2806    1.5101    1.7175 H   0  0  0  0  0  0  0  0  0  0  0  0
    2.0994    1.4267   -2.2342 N   0  0  0  0  0  0  0  0  0  0  0  0
    2.9315    1.8116   -2.8953 N   0  0  0  0  0  0  0  0  0  0  0  0
   -2.2479   -0.1446    0.8025 O   0  0  0  0  0  0  0  0  0  0  0  0
   -2.4920    0.3286    2.1266 C   0  0  0  0  0  0  0  0  0  0  0  0
   -3.4446   -0.1155    2.4293 H   0  0  0  0  0  0  0  0  0  0  0  0
   -2.5720    1.4257    2.1429 H   0  0  0  0  0  0  0  0  0  0  0  0
   -1.6941    0.0051    2.8110 H   0  0  0  0  0  0  0  0  0  0  0  0
    2.3645    1.8684    2.3372 O   0  0  0  0  0  0  0  0  0  0  0  0
    2.8053    0.8436    1.8382 N   0  0  0  0  0  0  0  0  0  0  0  0
    3.6704    0.1184    2.2754 O   0  0  0  0  0  0  0  0  0  0  0  0
    2.2832    0.4293    0.6251 O   0  0  0  0  0  0  0  0  0  0  0  0
  1  6  1  0  0  0  0
  2  3  1  0  0  0  0
  2  1  2  0  0  0  0
  3 11  1  1  0  0  0
  3  4  1  0  0  0  0
  4  9  1  1  0  0  0
  4 21  1  0  0  0  0
  4  5  1  0  0  0  0
  5 10  1  0  0  0  0
  6  5  2  0  0  0  0
  6 13  1  0  0  0  0
  7  1  1  0  0  0  0
  8  2  1  0  0  0  0
 12 11  1  0  0  0  0
 13 14  1  0  0  0  0
 14 16  1  0  0  0  0
 14 15  1  0  0  0  0
 14 17  1  0  0  0  0
 19 20  2  0  0  0  0
 19 18  2  0  0  0  0
 21 19  1  0  0  0  0
M  RAD  3   3   2  11   2  12   3
M  END
