Coordinates from ORCA-job p-CH3O-Ph-N2-NO3-B3LYPG-aug-cc-pVDZ-scan-d09-49-n400
 OpenBabel11111914563D

 21 20  0  0  0  0  0  0  0  0999 V2000
   -0.6318   -0.6801   -0.4990 C   0  0  0  0  0  0  0  0  0  0  0  0
    0.7481   -0.6666   -0.6394 C   0  0  0  0  0  0  0  0  0  0  0  0
    1.5185    0.2047    0.1418 C   0  0  0  0  0  0  0  0  0  0  0  0
    0.9248    0.9915    1.1249 C   0  0  0  0  0  0  0  0  0  0  0  0
   -0.4693    0.9939    1.2500 C   0  0  0  0  0  0  0  0  0  0  0  0
   -1.2544    0.1670    0.4347 C   0  0  0  0  0  0  0  0  0  0  0  0
   -1.2493   -1.3405   -1.1060 H   0  0  0  0  0  0  0  0  0  0  0  0
    1.2434   -1.3136   -1.3618 H   0  0  0  0  0  0  0  0  0  0  0  0
    1.5205    1.6235    1.7750 H   0  0  0  0  0  0  0  0  0  0  0  0
   -0.9220    1.6364    2.0007 H   0  0  0  0  0  0  0  0  0  0  0  0
    1.2524    1.8453   -1.7311 N   0  0  0  0  0  0  0  0  0  0  0  0
    2.0846    1.9205   -2.4565 N   0  0  0  0  0  0  0  0  0  0  0  0
   -2.6150    0.0977    0.4823 O   0  0  0  0  0  0  0  0  0  0  0  0
   -3.3012    0.9254    1.4177 C   0  0  0  0  0  0  0  0  0  0  0  0
   -4.3652    0.7146    1.2751 H   0  0  0  0  0  0  0  0  0  0  0  0
   -3.1081    1.9911    1.2216 H   0  0  0  0  0  0  0  0  0  0  0  0
   -3.0140    0.6804    2.4516 H   0  0  0  0  0  0  0  0  0  0  0  0
    4.9550    0.7465   -0.0591 O   0  0  0  0  0  0  0  0  0  0  0  0
    3.8239    1.1030    0.1327 N   0  0  0  0  0  0  0  0  0  0  0  0
    2.9013   -0.0061    0.0029 O   0  0  0  0  0  0  0  0  0  0  0  0
    3.3881    2.1882    0.4302 O   0  0  0  0  0  0  0  0  0  0  0  0
  1  6  1  0  0  0  0
  2  1  2  0  0  0  0
  2  3  1  0  0  0  0
  3  4  2  0  0  0  0
  4  5  1  0  0  0  0
  4  9  1  0  0  0  0
  5 10  1  0  0  0  0
  6 13  1  0  0  0  0
  6  5  2  0  0  0  0
  7  1  1  0  0  0  0
  8  2  1  0  0  0  0
 12 11  3  0  0  0  0
 13 14  1  0  0  0  0
 14 17  1  0  0  0  0
 15 14  1  0  0  0  0
 16 14  1  0  0  0  0
 18 19  2  0  0  0  0
 19 21  2  0  0  0  0
 20 19  1  0  0  0  0
 20  3  1  0  0  0  0
M  END
