Coordinates from ORCA-job p-CH3O-Ph-N2-NO3-B3LYPG-aug-cc-pVDZ-scan-d09-49-n400
 OpenBabel11111914563D

 21 20  0  0  0  0  0  0  0  0999 V2000
   -0.6097   -0.6583   -0.4961 C   0  0  0  0  0  0  0  0  0  0  0  0
    0.7749   -0.6688   -0.6008 C   0  0  0  0  0  0  0  0  0  0  0  0
    1.5406    0.1399    0.2474 C   0  0  0  0  0  0  0  0  0  0  0  0
    0.9333    0.9327    1.2171 C   0  0  0  0  0  0  0  0  0  0  0  0
   -0.4628    0.9646    1.3041 C   0  0  0  0  0  0  0  0  0  0  0  0
   -1.2397    0.1709    0.4477 C   0  0  0  0  0  0  0  0  0  0  0  0
   -1.2243   -1.2830   -1.1425 H   0  0  0  0  0  0  0  0  0  0  0  0
    1.2763   -1.3033   -1.3302 H   0  0  0  0  0  0  0  0  0  0  0  0
    1.5288    1.5350    1.8973 H   0  0  0  0  0  0  0  0  0  0  0  0
   -0.9244    1.6024    2.0534 H   0  0  0  0  0  0  0  0  0  0  0  0
    1.2013    1.9472   -1.9364 N   0  0  0  0  0  0  0  0  0  0  0  0
    2.0159    1.9831   -2.6828 N   0  0  0  0  0  0  0  0  0  0  0  0
   -2.6024    0.1254    0.4596 O   0  0  0  0  0  0  0  0  0  0  0  0
   -3.2978    0.9386    1.4007 C   0  0  0  0  0  0  0  0  0  0  0  0
   -4.3611    0.7478    1.2285 H   0  0  0  0  0  0  0  0  0  0  0  0
   -3.0851    2.0061    1.2376 H   0  0  0  0  0  0  0  0  0  0  0  0
   -3.0381    0.6623    2.4340 H   0  0  0  0  0  0  0  0  0  0  0  0
    4.9499    0.7648   -0.0318 O   0  0  0  0  0  0  0  0  0  0  0  0
    3.8069    1.0955    0.1288 N   0  0  0  0  0  0  0  0  0  0  0  0
    2.9248   -0.0679    0.1631 O   0  0  0  0  0  0  0  0  0  0  0  0
    3.3231    2.1878    0.2894 O   0  0  0  0  0  0  0  0  0  0  0  0
  1  6  1  0  0  0  0
  2  1  2  0  0  0  0
  2  3  1  0  0  0  0
  3  4  2  0  0  0  0
  4  5  1  0  0  0  0
  4  9  1  0  0  0  0
  5 10  1  0  0  0  0
  6 13  1  0  0  0  0
  6  5  2  0  0  0  0
  7  1  1  0  0  0  0
  8  2  1  0  0  0  0
 12 11  3  0  0  0  0
 13 14  1  0  0  0  0
 14 17  1  0  0  0  0
 15 14  1  0  0  0  0
 16 14  1  0  0  0  0
 18 19  2  0  0  0  0
 19 20  1  0  0  0  0
 19 21  2  0  0  0  0
 20  3  1  0  0  0  0
M  END
