Coordinates from ORCA-job p-CH3O-Ph-N2-NO3-B3LYPG-aug-cc-pVDZ-scan-d09-49-n400
 OpenBabel11111914563D

 21 20  0  0  0  0  0  0  0  0999 V2000
   -0.5977   -0.6481   -0.4957 C   0  0  0  0  0  0  0  0  0  0  0  0
    0.7882   -0.6682   -0.5850 C   0  0  0  0  0  0  0  0  0  0  0  0
    1.5501    0.1192    0.2860 C   0  0  0  0  0  0  0  0  0  0  0  0
    0.9369    0.9094    1.2543 C   0  0  0  0  0  0  0  0  0  0  0  0
   -0.4593    0.9529    1.3260 C   0  0  0  0  0  0  0  0  0  0  0  0
   -1.2319    0.1737    0.4518 C   0  0  0  0  0  0  0  0  0  0  0  0
   -1.2102   -1.2589   -1.1572 H   0  0  0  0  0  0  0  0  0  0  0  0
    1.2931   -1.2972   -1.3168 H   0  0  0  0  0  0  0  0  0  0  0  0
    1.5318    1.4994    1.9466 H   0  0  0  0  0  0  0  0  0  0  0  0
   -0.9247    1.5873    2.0759 H   0  0  0  0  0  0  0  0  0  0  0  0
    1.1697    1.9793   -2.0046 N   0  0  0  0  0  0  0  0  0  0  0  0
    1.9711    2.0042   -2.7653 N   0  0  0  0  0  0  0  0  0  0  0  0
   -2.5948    0.1379    0.4483 O   0  0  0  0  0  0  0  0  0  0  0  0
   -3.2950    0.9452    1.3910 C   0  0  0  0  0  0  0  0  0  0  0  0
   -4.3577    0.7631    1.2055 H   0  0  0  0  0  0  0  0  0  0  0  0
   -3.0740    2.0131    1.2420 H   0  0  0  0  0  0  0  0  0  0  0  0
   -3.0481    0.6559    2.4239 H   0  0  0  0  0  0  0  0  0  0  0  0
    4.9488    0.7701   -0.0199 O   0  0  0  0  0  0  0  0  0  0  0  0
    3.8013    1.0905    0.1261 N   0  0  0  0  0  0  0  0  0  0  0  0
    2.9343   -0.0867    0.2249 O   0  0  0  0  0  0  0  0  0  0  0  0
    3.2986    2.1805    0.2304 O   0  0  0  0  0  0  0  0  0  0  0  0
  1  6  1  0  0  0  0
  2  1  2  0  0  0  0
  2  3  1  0  0  0  0
  3  4  2  0  0  0  0
  4  5  1  0  0  0  0
  4  9  1  0  0  0  0
  5 10  1  0  0  0  0
  6  5  2  0  0  0  0
  7  1  1  0  0  0  0
  8  2  1  0  0  0  0
 12 11  3  0  0  0  0
 13  6  1  0  0  0  0
 13 14  1  0  0  0  0
 14 17  1  0  0  0  0
 15 14  1  0  0  0  0
 16 14  1  0  0  0  0
 18 19  2  0  0  0  0
 19 20  1  0  0  0  0
 19 21  2  0  0  0  0
 20  3  1  0  0  0  0
M  END
