Coordinates from ORCA-job p-CH3O-Ph-N2-NO3-B3LYPG-aug-cc-pVDZ-scan-d09-49-n400
 OpenBabel11111914563D

 21 20  0  0  0  0  0  0  0  0999 V2000
   -0.5937   -0.6451   -0.4957 C   0  0  0  0  0  0  0  0  0  0  0  0
    0.7927   -0.6692   -0.5797 C   0  0  0  0  0  0  0  0  0  0  0  0
    1.5533    0.1109    0.2991 C   0  0  0  0  0  0  0  0  0  0  0  0
    0.9383    0.9008    1.2666 C   0  0  0  0  0  0  0  0  0  0  0  0
   -0.4579    0.9487    1.3330 C   0  0  0  0  0  0  0  0  0  0  0  0
   -1.2288    0.1745    0.4530 C   0  0  0  0  0  0  0  0  0  0  0  0
   -1.2056   -1.2514   -1.1619 H   0  0  0  0  0  0  0  0  0  0  0  0
    1.2986   -1.2967   -1.3121 H   0  0  0  0  0  0  0  0  0  0  0  0
    1.5330    1.4866    1.9629 H   0  0  0  0  0  0  0  0  0  0  0  0
   -0.9244    1.5821    2.0830 H   0  0  0  0  0  0  0  0  0  0  0  0
    1.1579    1.9891   -2.0264 N   0  0  0  0  0  0  0  0  0  0  0  0
    1.9552    2.0137   -2.7913 N   0  0  0  0  0  0  0  0  0  0  0  0
   -2.5919    0.1420    0.4448 O   0  0  0  0  0  0  0  0  0  0  0  0
   -3.2935    0.9482    1.3874 C   0  0  0  0  0  0  0  0  0  0  0  0
   -4.3559    0.7691    1.1976 H   0  0  0  0  0  0  0  0  0  0  0  0
   -3.0694    2.0159    1.2423 H   0  0  0  0  0  0  0  0  0  0  0  0
   -3.0508    0.6552    2.4203 H   0  0  0  0  0  0  0  0  0  0  0  0
    4.9480    0.7735   -0.0154 O   0  0  0  0  0  0  0  0  0  0  0  0
    3.7988    1.0896    0.1252 N   0  0  0  0  0  0  0  0  0  0  0  0
    2.9376   -0.0926    0.2448 O   0  0  0  0  0  0  0  0  0  0  0  0
    3.2890    2.1778    0.2107 O   0  0  0  0  0  0  0  0  0  0  0  0
  1  6  1  0  0  0  0
  2  1  2  0  0  0  0
  2  3  1  0  0  0  0
  3  4  2  0  0  0  0
  4  5  1  0  0  0  0
  4  9  1  0  0  0  0
  5 10  1  0  0  0  0
  6  5  2  0  0  0  0
  7  1  1  0  0  0  0
  8  2  1  0  0  0  0
 12 11  3  0  0  0  0
 13  6  1  0  0  0  0
 13 14  1  0  0  0  0
 14 17  1  0  0  0  0
 15 14  1  0  0  0  0
 16 14  1  0  0  0  0
 18 19  2  0  0  0  0
 19 21  2  0  0  0  0
 19 20  1  0  0  0  0
 20  3  1  0  0  0  0
M  END
