Coordinates from ORCA-job p-CH3O-Ph-N2-NO3-B3LYPG-aug-cc-pVDZ-scan-d09-49-n400
 OpenBabel11111914563D

 21 20  0  0  0  0  0  0  0  0999 V2000
   -0.5598   -0.6168   -0.4912 C   0  0  0  0  0  0  0  0  0  0  0  0
    0.8284   -0.6626   -0.5362 C   0  0  0  0  0  0  0  0  0  0  0  0
    1.5747    0.0719    0.3924 C   0  0  0  0  0  0  0  0  0  0  0  0
    0.9432    0.8507    1.3586 C   0  0  0  0  0  0  0  0  0  0  0  0
   -0.4524    0.9206    1.3897 C   0  0  0  0  0  0  0  0  0  0  0  0
   -1.2086    0.1830    0.4654 C   0  0  0  0  0  0  0  0  0  0  0  0
   -1.1629   -1.1906   -1.1932 H   0  0  0  0  0  0  0  0  0  0  0  0
    1.3448   -1.2770   -1.2725 H   0  0  0  0  0  0  0  0  0  0  0  0
    1.5327    1.4078    2.0840 H   0  0  0  0  0  0  0  0  0  0  0  0
   -0.9312    1.5414    2.1424 H   0  0  0  0  0  0  0  0  0  0  0  0
    1.0731    2.0677   -2.2078 N   0  0  0  0  0  0  0  0  0  0  0  0
    1.8357    2.0867   -3.0072 N   0  0  0  0  0  0  0  0  0  0  0  0
   -2.5709    0.1713    0.4187 O   0  0  0  0  0  0  0  0  0  0  0  0
   -3.2878    0.9612    1.3638 C   0  0  0  0  0  0  0  0  0  0  0  0
   -4.3467    0.8025    1.1396 H   0  0  0  0  0  0  0  0  0  0  0  0
   -3.0454    2.0292    1.2547 H   0  0  0  0  0  0  0  0  0  0  0  0
   -3.0783    0.6364    2.3943 H   0  0  0  0  0  0  0  0  0  0  0  0
    4.9503    0.7689    0.0271 O   0  0  0  0  0  0  0  0  0  0  0  0
    3.7912    1.0632    0.1192 N   0  0  0  0  0  0  0  0  0  0  0  0
    2.9580   -0.1257    0.3895 O   0  0  0  0  0  0  0  0  0  0  0  0
    3.2423    2.1328    0.0571 O   0  0  0  0  0  0  0  0  0  0  0  0
  1  6  1  0  0  0  0
  2  1  2  0  0  0  0
  2  3  1  0  0  0  0
  3  4  2  0  0  0  0
  4  5  1  0  0  0  0
  4  9  1  0  0  0  0
  5 10  1  0  0  0  0
  6  5  2  0  0  0  0
  7  1  1  0  0  0  0
  8  2  1  0  0  0  0
 12 11  3  0  0  0  0
 13  6  1  0  0  0  0
 13 14  1  0  0  0  0
 14 17  1  0  0  0  0
 15 14  1  0  0  0  0
 16 14  1  0  0  0  0
 18 19  2  0  0  0  0
 19 20  1  0  0  0  0
 20  3  1  0  0  0  0
 21 19  2  0  0  0  0
M  END
