Coordinates from ORCA-job p-CH3O-Ph-N2-NO3-B3LYPG-aug-cc-pVDZ-scan-d09-49-n400
 OpenBabel11111914563D

 21 20  0  0  0  0  0  0  0  0999 V2000
   -0.6328   -0.6817   -0.4994 C   0  0  0  0  0  0  0  0  0  0  0  0
    0.7466   -0.6661   -0.6428 C   0  0  0  0  0  0  0  0  0  0  0  0
    1.5166    0.2126    0.1309 C   0  0  0  0  0  0  0  0  0  0  0  0
    0.9241    0.9966    1.1172 C   0  0  0  0  0  0  0  0  0  0  0  0
   -0.4695    0.9965    1.2454 C   0  0  0  0  0  0  0  0  0  0  0  0
   -1.2551    0.1672    0.4330 C   0  0  0  0  0  0  0  0  0  0  0  0
   -1.2502   -1.3458   -1.1024 H   0  0  0  0  0  0  0  0  0  0  0  0
    1.2416   -1.3146   -1.3639 H   0  0  0  0  0  0  0  0  0  0  0  0
    1.5201    1.6305    1.7651 H   0  0  0  0  0  0  0  0  0  0  0  0
   -0.9216    1.6386    1.9969 H   0  0  0  0  0  0  0  0  0  0  0  0
    1.2543    1.8330   -1.7066 N   0  0  0  0  0  0  0  0  0  0  0  0
    2.0855    1.9139   -2.4329 N   0  0  0  0  0  0  0  0  0  0  0  0
   -2.6154    0.0960    0.4832 O   0  0  0  0  0  0  0  0  0  0  0  0
   -3.3012    0.9249    1.4179 C   0  0  0  0  0  0  0  0  0  0  0  0
   -4.3651    0.7127    1.2772 H   0  0  0  0  0  0  0  0  0  0  0  0
   -3.1093    1.9903    1.2194 H   0  0  0  0  0  0  0  0  0  0  0  0
   -3.0124    0.6822    2.4519 H   0  0  0  0  0  0  0  0  0  0  0  0
    4.9554    0.7449   -0.0642 O   0  0  0  0  0  0  0  0  0  0  0  0
    3.8255    1.1035    0.1317 N   0  0  0  0  0  0  0  0  0  0  0  0
    2.8993    0.0004   -0.0105 O   0  0  0  0  0  0  0  0  0  0  0  0
    3.3941    2.1873    0.4413 O   0  0  0  0  0  0  0  0  0  0  0  0
  1  6  1  0  0  0  0
  2  1  2  0  0  0  0
  2  3  1  0  0  0  0
  3  4  2  0  0  0  0
  4  5  1  0  0  0  0
  4  9  1  0  0  0  0
  5 10  1  0  0  0  0
  6 13  1  0  0  0  0
  6  5  2  0  0  0  0
  7  1  1  0  0  0  0
  8  2  1  0  0  0  0
 12 11  3  0  0  0  0
 13 14  1  0  0  0  0
 14 17  1  0  0  0  0
 15 14  1  0  0  0  0
 16 14  1  0  0  0  0
 18 19  2  0  0  0  0
 19 21  2  0  0  0  0
 20  3  1  0  0  0  0
 20 19  1  0  0  0  0
M  END
