Coordinates from ORCA-job p-CH3O-Ph-N2-NO3-B3LYPG-aug-cc-pVDZ-scan-d09-49-n400
 OpenBabel11111914563D

 21 20  0  0  0  0  0  0  0  0999 V2000
   -1.1563   -0.4082   -0.9214 C   0  0  0  0  0  0  0  0  0  0  0  0
    0.0863   -0.1884   -1.5258 C   0  0  0  0  0  0  0  0  0  0  0  0
    0.8660    0.6870   -0.8180 C   0  0  0  0  0  0  0  0  0  0  0  0
    0.6641    1.3642    0.3395 C   0  0  0  0  0  0  0  0  0  0  0  0
   -0.5956    1.1189    0.9129 C   0  0  0  0  0  0  0  0  0  0  0  0
   -1.4969    0.2368    0.2863 C   0  0  0  0  0  0  0  0  0  0  0  0
   -1.8725   -1.0875   -1.3809 H   0  0  0  0  0  0  0  0  0  0  0  0
    0.3852   -0.6733   -2.4507 H   0  0  0  0  0  0  0  0  0  0  0  0
    1.4318    2.0110    0.7632 H   0  0  0  0  0  0  0  0  0  0  0  0
   -0.8408    1.6156    1.8476 H   0  0  0  0  0  0  0  0  0  0  0  0
    2.5628    1.0678   -1.6140 N   0  0  0  0  0  0  0  0  0  0  0  0
    3.2077    0.9412   -2.5101 N   0  0  0  0  0  0  0  0  0  0  0  0
   -2.7268   -0.0629    0.7691 O   0  0  0  0  0  0  0  0  0  0  0  0
   -3.1433    0.5307    2.0022 C   0  0  0  0  0  0  0  0  0  0  0  0
   -4.1477    0.1415    2.1890 H   0  0  0  0  0  0  0  0  0  0  0  0
   -3.1818    1.6266    1.9179 H   0  0  0  0  0  0  0  0  0  0  0  0
   -2.4745    0.2383    2.8246 H   0  0  0  0  0  0  0  0  0  0  0  0
    4.8700    1.4123    1.7396 O   0  0  0  0  0  0  0  0  0  0  0  0
    3.9804    1.1442    0.9334 N   0  0  0  0  0  0  0  0  0  0  0  0
    3.4748    0.0089    0.8157 O   0  0  0  0  0  0  0  0  0  0  0  0
    3.5377    2.0980    0.1682 O   0  0  0  0  0  0  0  0  0  0  0  0
  1  6  1  0  0  0  0
  2  1  2  0  0  0  0
  2  3  1  0  0  0  0
  3  4  2  0  0  0  0
  4  9  1  0  0  0  0
  4  5  1  0  0  0  0
  5 10  1  0  0  0  0
  6 13  1  0  0  0  0
  6  5  2  0  0  0  0
  7  1  1  0  0  0  0
  8  2  1  0  0  0  0
 11  3  1  0  0  0  0
 12 11  2  0  0  0  0
 13 14  1  0  0  0  0
 14 15  1  0  0  0  0
 14 17  1  0  0  0  0
 16 14  1  0  0  0  0
 19 18  2  0  0  0  0
 20 19  1  0  0  0  0
 21 19  2  0  0  0  0
M  RAD  2  12   2  20   2
M  END
