Coordinates from ORCA-job p-CH3O-Ph-N2-NO3-B3LYPG-aug-cc-pVDZ-scan-d09-49-n400
 OpenBabel11111914563D

 21 20  0  0  0  0  0  0  0  0999 V2000
   -0.4728   -0.5155   -0.4812 C   0  0  0  0  0  0  0  0  0  0  0  0
    0.9134   -0.5985   -0.4394 C   0  0  0  0  0  0  0  0  0  0  0  0
    1.6127    0.0403    0.5904 C   0  0  0  0  0  0  0  0  0  0  0  0
    0.9363    0.7622    1.5697 C   0  0  0  0  0  0  0  0  0  0  0  0
   -0.4577    0.8570    1.5282 C   0  0  0  0  0  0  0  0  0  0  0  0
   -1.1660    0.2168    0.4992 C   0  0  0  0  0  0  0  0  0  0  0  0
   -1.0425   -1.0115   -1.2656 H   0  0  0  0  0  0  0  0  0  0  0  0
    1.4617   -1.1666   -1.1899 H   0  0  0  0  0  0  0  0  0  0  0  0
    1.4971    1.2470    2.3677 H   0  0  0  0  0  0  0  0  0  0  0  0
   -0.9725    1.4240    2.2993 H   0  0  0  0  0  0  0  0  0  0  0  0
    0.9020    2.2717   -2.6744 N   0  0  0  0  0  0  0  0  0  0  0  0
    1.5439    2.1575   -3.5659 N   0  0  0  0  0  0  0  0  0  0  0  0
   -2.5218    0.2411    0.3668 O   0  0  0  0  0  0  0  0  0  0  0  0
   -3.2841    0.9696    1.3260 C   0  0  0  0  0  0  0  0  0  0  0  0
   -4.3288    0.8549    1.0225 H   0  0  0  0  0  0  0  0  0  0  0  0
   -3.0149    2.0367    1.3200 H   0  0  0  0  0  0  0  0  0  0  0  0
   -3.1485    0.5578    2.3376 H   0  0  0  0  0  0  0  0  0  0  0  0
    4.9750    0.7313    0.1778 O   0  0  0  0  0  0  0  0  0  0  0  0
    3.8009    0.9663    0.1178 N   0  0  0  0  0  0  0  0  0  0  0  0
    2.9920   -0.1435    0.6822 O   0  0  0  0  0  0  0  0  0  0  0  0
    3.2051    1.9242   -0.3004 O   0  0  0  0  0  0  0  0  0  0  0  0
  1  2  2  0  0  0  0
  1  6  1  0  0  0  0
  2  3  1  0  0  0  0
  3 20  1  0  0  0  0
  3  4  2  0  0  0  0
  4  9  1  0  0  0  0
  5  4  1  0  0  0  0
  5 10  1  0  0  0  0
  6  5  2  0  0  0  0
  7  1  1  0  0  0  0
  8  2  1  0  0  0  0
 12 11  3  0  0  0  0
 13  6  1  0  0  0  0
 13 14  1  0  0  0  0
 14 17  1  0  0  0  0
 15 14  1  0  0  0  0
 16 14  1  0  0  0  0
 19 18  2  0  0  0  0
 19 20  1  0  0  0  0
 21 19  2  0  0  0  0
M  END
