Coordinates from ORCA-job p-CH3O-Ph-N2-NO3-B3LYPG-aug-cc-pVDZ-scan-d09-49-n400
 OpenBabel11111914563D

 21 20  0  0  0  0  0  0  0  0999 V2000
   -0.6039   -0.6529   -0.4959 C   0  0  0  0  0  0  0  0  0  0  0  0
    0.7814   -0.6680   -0.5929 C   0  0  0  0  0  0  0  0  0  0  0  0
    1.5452    0.1302    0.2666 C   0  0  0  0  0  0  0  0  0  0  0  0
    0.9349    0.9217    1.2356 C   0  0  0  0  0  0  0  0  0  0  0  0
   -0.4613    0.9589    1.3152 C   0  0  0  0  0  0  0  0  0  0  0  0
   -1.2360    0.1724    0.4498 C   0  0  0  0  0  0  0  0  0  0  0  0
   -1.2174   -1.2707   -1.1499 H   0  0  0  0  0  0  0  0  0  0  0  0
    1.2845   -1.2998   -1.3234 H   0  0  0  0  0  0  0  0  0  0  0  0
    1.5300    1.5179    1.9220 H   0  0  0  0  0  0  0  0  0  0  0  0
   -0.9250    1.5946    2.0649 H   0  0  0  0  0  0  0  0  0  0  0  0
    1.1870    1.9637   -1.9712 N   0  0  0  0  0  0  0  0  0  0  0  0
    1.9950    1.9929   -2.7247 N   0  0  0  0  0  0  0  0  0  0  0  0
   -2.5988    0.1315    0.4541 O   0  0  0  0  0  0  0  0  0  0  0  0
   -3.2967    0.9415    1.3962 C   0  0  0  0  0  0  0  0  0  0  0  0
   -4.3597    0.7548    1.2173 H   0  0  0  0  0  0  0  0  0  0  0  0
   -3.0800    2.0092    1.2403 H   0  0  0  0  0  0  0  0  0  0  0  0
   -3.0434    0.6585    2.4293 H   0  0  0  0  0  0  0  0  0  0  0  0
    4.9494    0.7665   -0.0262 O   0  0  0  0  0  0  0  0  0  0  0  0
    3.8044    1.0927    0.1273 N   0  0  0  0  0  0  0  0  0  0  0  0
    2.9294   -0.0775    0.1943 O   0  0  0  0  0  0  0  0  0  0  0  0
    3.3116    2.1845    0.2596 O   0  0  0  0  0  0  0  0  0  0  0  0
  1  6  1  0  0  0  0
  2  1  2  0  0  0  0
  2  3  1  0  0  0  0
  3  4  2  0  0  0  0
  4  5  1  0  0  0  0
  4  9  1  0  0  0  0
  5 10  1  0  0  0  0
  6 13  1  0  0  0  0
  6  5  2  0  0  0  0
  7  1  1  0  0  0  0
  8  2  1  0  0  0  0
 12 11  3  0  0  0  0
 13 14  1  0  0  0  0
 14 17  1  0  0  0  0
 15 14  1  0  0  0  0
 16 14  1  0  0  0  0
 18 19  2  0  0  0  0
 19 20  1  0  0  0  0
 19 21  2  0  0  0  0
 20  3  1  0  0  0  0
M  END
