Coordinates from ORCA-job p-CH3O-Ph-N2-NO3-B3LYPG-aug-cc-pVDZ-scan-d09-49-n400
 OpenBabel11111914563D

 21 20  0  0  0  0  0  0  0  0999 V2000
   -1.1233   -0.3625   -0.9371 C   0  0  0  0  0  0  0  0  0  0  0  0
    0.1298   -0.1382   -1.4880 C   0  0  0  0  0  0  0  0  0  0  0  0
    0.9847    0.7088   -0.7823 C   0  0  0  0  0  0  0  0  0  0  0  0
    0.6813    1.3337    0.4106 C   0  0  0  0  0  0  0  0  0  0  0  0
   -0.5860    1.1008    0.9473 C   0  0  0  0  0  0  0  0  0  0  0  0
   -1.4886    0.2524    0.2798 C   0  0  0  0  0  0  0  0  0  0  0  0
   -1.8386   -1.0171   -1.4317 H   0  0  0  0  0  0  0  0  0  0  0  0
    0.4318   -0.6070   -2.4217 H   0  0  0  0  0  0  0  0  0  0  0  0
    1.4194    1.9706    0.8902 H   0  0  0  0  0  0  0  0  0  0  0  0
   -0.8503    1.5789    1.8861 H   0  0  0  0  0  0  0  0  0  0  0  0
    2.3871    0.9544   -1.4480 N   0  0  0  0  0  0  0  0  0  0  0  0
    3.0188    0.8076   -2.3606 N   0  0  0  0  0  0  0  0  0  0  0  0
   -2.7312   -0.0391    0.7231 O   0  0  0  0  0  0  0  0  0  0  0  0
   -3.1754    0.5315    1.9587 C   0  0  0  0  0  0  0  0  0  0  0  0
   -4.1902    0.1525    2.1061 H   0  0  0  0  0  0  0  0  0  0  0  0
   -3.1952    1.6291    1.8992 H   0  0  0  0  0  0  0  0  0  0  0  0
   -2.5347    0.2092    2.7918 H   0  0  0  0  0  0  0  0  0  0  0  0
    4.9397    1.5587    1.5789 O   0  0  0  0  0  0  0  0  0  0  0  0
    4.0431    1.1653    0.8377 N   0  0  0  0  0  0  0  0  0  0  0  0
    3.6702   -0.0204    0.7595 O   0  0  0  0  0  0  0  0  0  0  0  0
    3.4381    2.0537    0.0887 O   0  0  0  0  0  0  0  0  0  0  0  0
  1  6  1  0  0  0  0
  2  1  2  0  0  0  0
  2  3  1  0  0  0  0
  3  4  2  0  0  0  0
  4  9  1  0  0  0  0
  4  5  1  0  0  0  0
  5 10  1  0  0  0  0
  6 13  1  0  0  0  0
  6  5  2  0  0  0  0
  7  1  1  0  0  0  0
  8  2  1  0  0  0  0
 11  3  1  0  0  0  0
 12 11  2  0  0  0  0
 13 14  1  0  0  0  0
 14 15  1  0  0  0  0
 14 17  1  0  0  0  0
 16 14  1  0  0  0  0
 19 18  2  0  0  0  0
 20 19  1  0  0  0  0
 21 19  2  0  0  0  0
M  RAD  2  12   2  20   2
M  END
