Coordinates from ORCA-job p-CH3O-Ph-N2-NO3-B3LYPG-aug-cc-pVDZ-scan-d09-49-n400
 OpenBabel11111914563D

 21 20  0  0  0  0  0  0  0  0999 V2000
   -0.6382   -0.6898   -0.5007 C   0  0  0  0  0  0  0  0  0  0  0  0
    0.7375   -0.6617   -0.6607 C   0  0  0  0  0  0  0  0  0  0  0  0
    1.5042    0.2631    0.0656 C   0  0  0  0  0  0  0  0  0  0  0  0
    0.9199    1.0219    1.0784 C   0  0  0  0  0  0  0  0  0  0  0  0
   -0.4711    1.0081    1.2245 C   0  0  0  0  0  0  0  0  0  0  0  0
   -1.2595    0.1691    0.4245 C   0  0  0  0  0  0  0  0  0  0  0  0
   -1.2547   -1.3759   -1.0795 H   0  0  0  0  0  0  0  0  0  0  0  0
    1.2317   -1.3185   -1.3747 H   0  0  0  0  0  0  0  0  0  0  0  0
    1.5172    1.6626    1.7171 H   0  0  0  0  0  0  0  0  0  0  0  0
   -0.9194    1.6434    1.9839 H   0  0  0  0  0  0  0  0  0  0  0  0
    1.2623    1.7550   -1.5922 N   0  0  0  0  0  0  0  0  0  0  0  0
    2.1055    1.8792   -2.3015 N   0  0  0  0  0  0  0  0  0  0  0  0
   -2.6176    0.0880    0.4883 O   0  0  0  0  0  0  0  0  0  0  0  0
   -3.3018    0.9231    1.4192 C   0  0  0  0  0  0  0  0  0  0  0  0
   -4.3656    0.7059    1.2855 H   0  0  0  0  0  0  0  0  0  0  0  0
   -3.1140    1.9871    1.2099 H   0  0  0  0  0  0  0  0  0  0  0  0
   -3.0070    0.6903    2.4537 H   0  0  0  0  0  0  0  0  0  0  0  0
    4.9558    0.7385   -0.0908 O   0  0  0  0  0  0  0  0  0  0  0  0
    3.8332    1.1105    0.1218 N   0  0  0  0  0  0  0  0  0  0  0  0
    2.8856    0.0409   -0.0855 O   0  0  0  0  0  0  0  0  0  0  0  0
    3.4266    2.1820    0.5017 O   0  0  0  0  0  0  0  0  0  0  0  0
  1  6  1  0  0  0  0
  2  1  2  0  0  0  0
  2  3  1  0  0  0  0
  3  4  2  0  0  0  0
  4  5  1  0  0  0  0
  4  9  1  0  0  0  0
  5 10  1  0  0  0  0
  6 13  1  0  0  0  0
  6  5  2  0  0  0  0
  7  1  1  0  0  0  0
  8  2  1  0  0  0  0
 12 11  3  0  0  0  0
 13 14  1  0  0  0  0
 14 17  1  0  0  0  0
 15 14  1  0  0  0  0
 16 14  1  0  0  0  0
 18 19  2  0  0  0  0
 19 21  2  0  0  0  0
 20  3  1  0  0  0  0
 20 19  1  0  0  0  0
M  END
