Coordinates from ORCA-job p-CH3O-Ph-N2-NO3-B3LYPG-aug-cc-pVDZ-scan-d09-49-n400
 OpenBabel11111914563D

 21 20  0  0  0  0  0  0  0  0999 V2000
   -0.4208   -0.4675   -0.4425 C   0  0  0  0  0  0  0  0  0  0  0  0
    0.9613   -0.5723   -0.3522 C   0  0  0  0  0  0  0  0  0  0  0  0
    1.6288    0.0123    0.7299 C   0  0  0  0  0  0  0  0  0  0  0  0
    0.9242    0.6995    1.7140 C   0  0  0  0  0  0  0  0  0  0  0  0
   -0.4674    0.8073    1.6300 C   0  0  0  0  0  0  0  0  0  0  0  0
   -1.1432    0.2247    0.5468 C   0  0  0  0  0  0  0  0  0  0  0  0
   -0.9660   -0.9167   -1.2713 H   0  0  0  0  0  0  0  0  0  0  0  0
    1.5300   -1.1096   -1.1102 H   0  0  0  0  0  0  0  0  0  0  0  0
    1.4622    1.1433    2.5508 H   0  0  0  0  0  0  0  0  0  0  0  0
   -1.0048    1.3424    2.4085 H   0  0  0  0  0  0  0  0  0  0  0  0
    0.8070    2.5939   -3.3169 N   0  0  0  0  0  0  0  0  0  0  0  0
    1.3373    2.2987   -4.2396 N   0  0  0  0  0  0  0  0  0  0  0  0
   -2.4927    0.2701    0.3659 O   0  0  0  0  0  0  0  0  0  0  0  0
   -3.2832    0.9621    1.3293 C   0  0  0  0  0  0  0  0  0  0  0  0
   -4.3170    0.8729    0.9828 H   0  0  0  0  0  0  0  0  0  0  0  0
   -3.0039    2.0252    1.3828 H   0  0  0  0  0  0  0  0  0  0  0  0
   -3.1889    0.5026    2.3250 H   0  0  0  0  0  0  0  0  0  0  0  0
    4.9990    0.6728    0.3498 O   0  0  0  0  0  0  0  0  0  0  0  0
    3.8264    0.8758    0.2051 N   0  0  0  0  0  0  0  0  0  0  0  0
    3.0037   -0.1691    0.8696 O   0  0  0  0  0  0  0  0  0  0  0  0
    3.2384    1.7542   -0.3690 O   0  0  0  0  0  0  0  0  0  0  0  0
  1  2  2  0  0  0  0
  1  6  1  0  0  0  0
  2  3  1  0  0  0  0
  3 20  1  0  0  0  0
  3  4  2  0  0  0  0
  4  9  1  0  0  0  0
  5  4  1  0  0  0  0
  5 10  1  0  0  0  0
  6  5  2  0  0  0  0
  7  1  1  0  0  0  0
  8  2  1  0  0  0  0
 12 11  3  0  0  0  0
 13  6  1  0  0  0  0
 13 14  1  0  0  0  0
 14 16  1  0  0  0  0
 14 17  1  0  0  0  0
 15 14  1  0  0  0  0
 19 18  2  0  0  0  0
 19 20  1  0  0  0  0
 21 19  2  0  0  0  0
M  END
