Coordinates from ORCA-job p-CH3O-Ph-N2-NO3-B3LYPG-aug-cc-pVDZ-scan-d09-49-n400
 OpenBabel11111914563D

 21 20  0  0  0  0  0  0  0  0999 V2000
   -0.4461   -0.4849   -0.4677 C   0  0  0  0  0  0  0  0  0  0  0  0
    0.9383   -0.5789   -0.4005 C   0  0  0  0  0  0  0  0  0  0  0  0
    1.6212    0.0306    0.6579 C   0  0  0  0  0  0  0  0  0  0  0  0
    0.9299    0.7325    1.6411 C   0  0  0  0  0  0  0  0  0  0  0  0
   -0.4631    0.8330    1.5781 C   0  0  0  0  0  0  0  0  0  0  0  0
   -1.1546    0.2243    0.5192 C   0  0  0  0  0  0  0  0  0  0  0  0
   -1.0031   -0.9554   -1.2765 H   0  0  0  0  0  0  0  0  0  0  0  0
    1.4972   -1.1295   -1.1561 H   0  0  0  0  0  0  0  0  0  0  0  0
    1.4792    1.1953    2.4601 H   0  0  0  0  0  0  0  0  0  0  0  0
   -0.9899    1.3815    2.3545 H   0  0  0  0  0  0  0  0  0  0  0  0
    0.8632    2.4007   -2.9328 N   0  0  0  0  0  0  0  0  0  0  0  0
    1.4488    2.2005   -3.8475 N   0  0  0  0  0  0  0  0  0  0  0  0
   -2.5074    0.2591    0.3614 O   0  0  0  0  0  0  0  0  0  0  0  0
   -3.2846    0.9664    1.3244 C   0  0  0  0  0  0  0  0  0  0  0  0
   -4.3238    0.8650    0.9981 H   0  0  0  0  0  0  0  0  0  0  0  0
   -3.0103    2.0319    1.3514 H   0  0  0  0  0  0  0  0  0  0  0  0
   -3.1704    0.5278    2.3274 H   0  0  0  0  0  0  0  0  0  0  0  0
    4.9846    0.7118    0.2501 O   0  0  0  0  0  0  0  0  0  0  0  0
    3.8098    0.9249    0.1425 N   0  0  0  0  0  0  0  0  0  0  0  0
    2.9988   -0.1484    0.7740 O   0  0  0  0  0  0  0  0  0  0  0  0
    3.2128    1.8346   -0.3706 O   0  0  0  0  0  0  0  0  0  0  0  0
  1  2  2  0  0  0  0
  1  6  1  0  0  0  0
  2  3  1  0  0  0  0
  3 20  1  0  0  0  0
  3  4  2  0  0  0  0
  4  9  1  0  0  0  0
  5  4  1  0  0  0  0
  5 10  1  0  0  0  0
  6  5  2  0  0  0  0
  7  1  1  0  0  0  0
  8  2  1  0  0  0  0
 12 11  3  0  0  0  0
 13  6  1  0  0  0  0
 13 14  1  0  0  0  0
 14 16  1  0  0  0  0
 14 17  1  0  0  0  0
 15 14  1  0  0  0  0
 19 18  2  0  0  0  0
 19 20  1  0  0  0  0
 21 19  2  0  0  0  0
M  END
