Coordinates from ORCA-job p-CH3O-Ph-N2-NO3-B3LYPG-aug-cc-pVDZ-scan-d09-49-n400
 OpenBabel11111914563D

 21 20  0  0  0  0  0  0  0  0999 V2000
   -0.6378   -0.6890   -0.5008 C   0  0  0  0  0  0  0  0  0  0  0  0
    0.7383   -0.6623   -0.6590 C   0  0  0  0  0  0  0  0  0  0  0  0
    1.5056    0.2575    0.0724 C   0  0  0  0  0  0  0  0  0  0  0  0
    0.9203    1.0193    1.0821 C   0  0  0  0  0  0  0  0  0  0  0  0
   -0.4709    1.0069    1.2263 C   0  0  0  0  0  0  0  0  0  0  0  0
   -1.2591    0.1689    0.4253 C   0  0  0  0  0  0  0  0  0  0  0  0
   -1.2545   -1.3728   -1.0821 H   0  0  0  0  0  0  0  0  0  0  0  0
    1.2323   -1.3184   -1.3738 H   0  0  0  0  0  0  0  0  0  0  0  0
    1.5175    1.6596    1.7216 H   0  0  0  0  0  0  0  0  0  0  0  0
   -0.9196    1.6432    1.9848 H   0  0  0  0  0  0  0  0  0  0  0  0
    1.2633    1.7620   -1.6012 N   0  0  0  0  0  0  0  0  0  0  0  0
    2.1041    1.8819   -2.3138 N   0  0  0  0  0  0  0  0  0  0  0  0
   -2.6175    0.0889    0.4877 O   0  0  0  0  0  0  0  0  0  0  0  0
   -3.3018    0.9234    1.4191 C   0  0  0  0  0  0  0  0  0  0  0  0
   -4.3656    0.7067    1.2847 H   0  0  0  0  0  0  0  0  0  0  0  0
   -3.1136    1.9875    1.2108 H   0  0  0  0  0  0  0  0  0  0  0  0
   -3.0074    0.6896    2.4535 H   0  0  0  0  0  0  0  0  0  0  0  0
    4.9552    0.7410   -0.0918 O   0  0  0  0  0  0  0  0  0  0  0  0
    3.8323    1.1092    0.1256 N   0  0  0  0  0  0  0  0  0  0  0  0
    2.8870    0.0368   -0.0785 O   0  0  0  0  0  0  0  0  0  0  0  0
    3.4223    2.1830    0.4954 O   0  0  0  0  0  0  0  0  0  0  0  0
  1  6  1  0  0  0  0
  2  1  2  0  0  0  0
  2  3  1  0  0  0  0
  3  4  2  0  0  0  0
  4  5  1  0  0  0  0
  4  9  1  0  0  0  0
  5 10  1  0  0  0  0
  6 13  1  0  0  0  0
  6  5  2  0  0  0  0
  7  1  1  0  0  0  0
  8  2  1  0  0  0  0
 12 11  3  0  0  0  0
 13 14  1  0  0  0  0
 14 17  1  0  0  0  0
 15 14  1  0  0  0  0
 16 14  1  0  0  0  0
 18 19  2  0  0  0  0
 19 21  2  0  0  0  0
 20  3  1  0  0  0  0
 20 19  1  0  0  0  0
M  END
