Coordinates from ORCA-job p-CH3O-Ph-N2-NO3-B3LYPG-aug-cc-pVDZ-scan-d09-49-n400
 OpenBabel11111914563D

 21 20  0  0  0  0  0  0  0  0999 V2000
   -0.6211   -0.6689   -0.4968 C   0  0  0  0  0  0  0  0  0  0  0  0
    0.7617   -0.6690   -0.6177 C   0  0  0  0  0  0  0  0  0  0  0  0
    1.5306    0.1651    0.2030 C   0  0  0  0  0  0  0  0  0  0  0  0
    0.9294    0.9587    1.1757 C   0  0  0  0  0  0  0  0  0  0  0  0
   -0.4661    0.9776    1.2796 C   0  0  0  0  0  0  0  0  0  0  0  0
   -1.2473    0.1681    0.4428 C   0  0  0  0  0  0  0  0  0  0  0  0
   -1.2373   -1.3089   -1.1265 H   0  0  0  0  0  0  0  0  0  0  0  0
    1.2598   -1.3091   -1.3444 H   0  0  0  0  0  0  0  0  0  0  0  0
    1.5251    1.5750    1.8422 H   0  0  0  0  0  0  0  0  0  0  0  0
   -0.9234    1.6190    2.0286 H   0  0  0  0  0  0  0  0  0  0  0  0
    1.2278    1.9080   -1.8559 N   0  0  0  0  0  0  0  0  0  0  0  0
    2.0551    1.9586   -2.5879 N   0  0  0  0  0  0  0  0  0  0  0  0
   -2.6093    0.1120    0.4712 O   0  0  0  0  0  0  0  0  0  0  0  0
   -3.2999    0.9320    1.4099 C   0  0  0  0  0  0  0  0  0  0  0  0
   -4.3637    0.7317    1.2521 H   0  0  0  0  0  0  0  0  0  0  0  0
   -3.0964    1.9988    1.2312 H   0  0  0  0  0  0  0  0  0  0  0  0
   -3.0267    0.6704    2.4436 H   0  0  0  0  0  0  0  0  0  0  0  0
    4.9519    0.7574   -0.0431 O   0  0  0  0  0  0  0  0  0  0  0  0
    3.8140    1.0992    0.1325 N   0  0  0  0  0  0  0  0  0  0  0  0
    2.9145   -0.0435    0.0921 O   0  0  0  0  0  0  0  0  0  0  0  0
    3.3516    2.1903    0.3560 O   0  0  0  0  0  0  0  0  0  0  0  0
  1  6  1  0  0  0  0
  2  1  2  0  0  0  0
  2  3  1  0  0  0  0
  3  4  2  0  0  0  0
  4  5  1  0  0  0  0
  4  9  1  0  0  0  0
  5 10  1  0  0  0  0
  6 13  1  0  0  0  0
  6  5  2  0  0  0  0
  7  1  1  0  0  0  0
  8  2  1  0  0  0  0
 12 11  3  0  0  0  0
 13 14  1  0  0  0  0
 14 17  1  0  0  0  0
 15 14  1  0  0  0  0
 16 14  1  0  0  0  0
 18 19  2  0  0  0  0
 19 21  2  0  0  0  0
 20 19  1  0  0  0  0
 20  3  1  0  0  0  0
M  END
