Coordinates from ORCA-job p-CH3O-Ph-N2-NO3-B3LYPG-aug-cc-pVDZ-scan-d09-49-n400
 OpenBabel11111914563D

 21 20  0  0  0  0  0  0  0  0999 V2000
   -0.4473   -0.4861   -0.4687 C   0  0  0  0  0  0  0  0  0  0  0  0
    0.9372   -0.5795   -0.4026 C   0  0  0  0  0  0  0  0  0  0  0  0
    1.6208    0.0312    0.6545 C   0  0  0  0  0  0  0  0  0  0  0  0
    0.9303    0.7340    1.6376 C   0  0  0  0  0  0  0  0  0  0  0  0
   -0.4628    0.8342    1.5756 C   0  0  0  0  0  0  0  0  0  0  0  0
   -1.1551    0.2241    0.5180 C   0  0  0  0  0  0  0  0  0  0  0  0
   -1.0049   -0.9577   -1.2764 H   0  0  0  0  0  0  0  0  0  0  0  0
    1.4956   -1.1310   -1.1581 H   0  0  0  0  0  0  0  0  0  0  0  0
    1.4801    1.1977    2.4557 H   0  0  0  0  0  0  0  0  0  0  0  0
   -0.9890    1.3836    2.3518 H   0  0  0  0  0  0  0  0  0  0  0  0
    0.8647    2.3928   -2.9178 N   0  0  0  0  0  0  0  0  0  0  0  0
    1.4532    2.1973   -3.8316 N   0  0  0  0  0  0  0  0  0  0  0  0
   -2.5080    0.2584    0.3614 O   0  0  0  0  0  0  0  0  0  0  0  0
   -3.2845    0.9667    1.3243 C   0  0  0  0  0  0  0  0  0  0  0  0
   -4.3240    0.8646    0.9989 H   0  0  0  0  0  0  0  0  0  0  0  0
   -3.0105    2.0322    1.3498 H   0  0  0  0  0  0  0  0  0  0  0  0
   -3.1694    0.5292    2.3276 H   0  0  0  0  0  0  0  0  0  0  0  0
    4.9842    0.7130    0.2462 O   0  0  0  0  0  0  0  0  0  0  0  0
    3.8094    0.9271    0.1408 N   0  0  0  0  0  0  0  0  0  0  0  0
    2.9985   -0.1480    0.7695 O   0  0  0  0  0  0  0  0  0  0  0  0
    3.2122    1.8390   -0.3682 O   0  0  0  0  0  0  0  0  0  0  0  0
  1  2  2  0  0  0  0
  1  6  1  0  0  0  0
  2  3  1  0  0  0  0
  3 20  1  0  0  0  0
  3  4  2  0  0  0  0
  4  9  1  0  0  0  0
  5  4  1  0  0  0  0
  5 10  1  0  0  0  0
  6  5  2  0  0  0  0
  7  1  1  0  0  0  0
  8  2  1  0  0  0  0
 12 11  3  0  0  0  0
 13  6  1  0  0  0  0
 13 14  1  0  0  0  0
 14 16  1  0  0  0  0
 14 17  1  0  0  0  0
 15 14  1  0  0  0  0
 19 18  2  0  0  0  0
 19 20  1  0  0  0  0
 21 19  2  0  0  0  0
M  END
