Coordinates from ORCA-job p-CH3O-Ph-N2-NO3-B3LYPG-aug-cc-pVDZ-scan-d09-49-n400
 OpenBabel11111914563D

 21 21  0  0  1  0  0  0  0  0999 V2000
   -0.9232   -0.3405   -1.1303 C   0  0  0  0  0  0  0  0  0  0  0  0
    0.1129    0.0326   -1.9166 C   0  0  0  0  0  0  0  0  0  0  0  0
    1.1052    0.9585   -1.4089 C   0  0  0  0  0  0  0  0  0  0  0  0
    1.1445    1.3222    0.0483 C   0  0  1  0  0  0  0  0  0  0  0  0
   -0.1375    1.0561    0.7456 C   0  0  0  0  0  0  0  0  0  0  0  0
   -1.0700    0.2267    0.2018 C   0  0  0  0  0  0  0  0  0  0  0  0
   -1.6851   -1.0331   -1.4814 H   0  0  0  0  0  0  0  0  0  0  0  0
    0.2194   -0.3375   -2.9356 H   0  0  0  0  0  0  0  0  0  0  0  0
    1.5142    2.3375    0.2137 H   0  0  0  0  0  0  0  0  0  0  0  0
   -0.2621    1.5117    1.7221 H   0  0  0  0  0  0  0  0  0  0  0  0
    1.9868    1.4280   -2.1620 N   0  0  0  0  0  0  0  0  0  0  0  0
    2.7954    1.8646   -2.8423 N   0  0  0  0  0  0  0  0  0  0  0  0
   -2.2365   -0.1364    0.7929 O   0  0  0  0  0  0  0  0  0  0  0  0
   -2.4985    0.3485    2.1098 C   0  0  0  0  0  0  0  0  0  0  0  0
   -3.4592   -0.0858    2.4005 H   0  0  0  0  0  0  0  0  0  0  0  0
   -2.5693    1.4462    2.1158 H   0  0  0  0  0  0  0  0  0  0  0  0
   -1.7136    0.0236    2.8084 H   0  0  0  0  0  0  0  0  0  0  0  0
    2.3812    1.8605    2.3238 O   0  0  0  0  0  0  0  0  0  0  0  0
    2.8008    0.8286    1.8289 N   0  0  0  0  0  0  0  0  0  0  0  0
    3.6551    0.0867    2.2515 O   0  0  0  0  0  0  0  0  0  0  0  0
    2.2700    0.4240    0.6022 O   0  0  0  0  0  0  0  0  0  0  0  0
  1  6  2  0  0  0  0
  2  3  2  0  0  0  0
  2  1  1  0  0  0  0
  3  4  1  0  0  0  0
  4  9  1  1  0  0  0
  4 21  1  0  0  0  0
  4  5  1  0  0  0  0
  5 10  1  0  0  0  0
  6  5  1  0  0  0  0
  6 13  1  0  0  0  0
  7  1  1  0  0  0  0
  8  2  1  0  0  0  0
 11  3  1  0  0  0  0
 12 11  1  0  0  0  0
 13 14  1  0  0  0  0
 14 16  1  0  0  0  0
 14 15  1  0  0  0  0
 14 17  1  0  0  0  0
 19 20  2  0  0  0  0
 19 18  2  0  0  0  0
 21 19  1  0  0  0  0
M  RAD  3   5   2  11   2  12   3
M  END
