Coordinates from ORCA-job p-CH3O-Ph-N2-NO3-B3LYPG-aug-cc-pVDZ-scan-d09-49-n400
 OpenBabel11111914563D

 21 20  0  0  0  0  0  0  0  0999 V2000
   -0.4224   -0.4679   -0.4447 C   0  0  0  0  0  0  0  0  0  0  0  0
    0.9598   -0.5719   -0.3558 C   0  0  0  0  0  0  0  0  0  0  0  0
    1.6283    0.0141    0.7248 C   0  0  0  0  0  0  0  0  0  0  0  0
    0.9245    0.7018    1.7091 C   0  0  0  0  0  0  0  0  0  0  0  0
   -0.4672    0.8091    1.6265 C   0  0  0  0  0  0  0  0  0  0  0  0
   -1.1440    0.2250    0.5446 C   0  0  0  0  0  0  0  0  0  0  0  0
   -0.9683   -0.9183   -1.2724 H   0  0  0  0  0  0  0  0  0  0  0  0
    1.5279   -1.1098   -1.1139 H   0  0  0  0  0  0  0  0  0  0  0  0
    1.4632    1.1468    2.5448 H   0  0  0  0  0  0  0  0  0  0  0  0
   -1.0040    1.3447    2.4050 H   0  0  0  0  0  0  0  0  0  0  0  0
    0.8120    2.5784   -3.2858 N   0  0  0  0  0  0  0  0  0  0  0  0
    1.3455    2.2892   -4.2085 N   0  0  0  0  0  0  0  0  0  0  0  0
   -2.4937    0.2697    0.3652 O   0  0  0  0  0  0  0  0  0  0  0  0
   -3.2834    0.9623    1.3288 C   0  0  0  0  0  0  0  0  0  0  0  0
   -4.3175    0.8724    0.9835 H   0  0  0  0  0  0  0  0  0  0  0  0
   -3.0045    2.0256    1.3808 H   0  0  0  0  0  0  0  0  0  0  0  0
   -3.1879    0.5039    2.3248 H   0  0  0  0  0  0  0  0  0  0  0  0
    4.9978    0.6763    0.3417 O   0  0  0  0  0  0  0  0  0  0  0  0
    3.8250    0.8793    0.1991 N   0  0  0  0  0  0  0  0  0  0  0  0
    3.0034   -0.1668    0.8630 O   0  0  0  0  0  0  0  0  0  0  0  0
    3.2360    1.7588   -0.3724 O   0  0  0  0  0  0  0  0  0  0  0  0
  1  2  2  0  0  0  0
  1  6  1  0  0  0  0
  2  3  1  0  0  0  0
  3 20  1  0  0  0  0
  3  4  2  0  0  0  0
  4  9  1  0  0  0  0
  5  4  1  0  0  0  0
  5 10  1  0  0  0  0
  6  5  2  0  0  0  0
  7  1  1  0  0  0  0
  8  2  1  0  0  0  0
 12 11  3  0  0  0  0
 13  6  1  0  0  0  0
 13 14  1  0  0  0  0
 14 16  1  0  0  0  0
 14 17  1  0  0  0  0
 15 14  1  0  0  0  0
 19 18  2  0  0  0  0
 19 20  1  0  0  0  0
 21 19  2  0  0  0  0
M  END
