Coordinates from ORCA-job p-CH3O-Ph-N2-NO3-B3LYPG-aug-cc-pVDZ-scan-d09-49-n400
 OpenBabel11111914563D

 21 20  0  0  0  0  0  0  0  0999 V2000
   -0.5289   -0.5823   -0.4891 C   0  0  0  0  0  0  0  0  0  0  0  0
    0.8594   -0.6419   -0.5016 C   0  0  0  0  0  0  0  0  0  0  0  0
    1.5896    0.0576    0.4650 C   0  0  0  0  0  0  0  0  0  0  0  0
    0.9425    0.8181    1.4355 C   0  0  0  0  0  0  0  0  0  0  0  0
   -0.4527    0.8986    1.4394 C   0  0  0  0  0  0  0  0  0  0  0  0
   -1.1928    0.1948    0.4762 C   0  0  0  0  0  0  0  0  0  0  0  0
   -1.1212   -1.1287   -1.2214 H   0  0  0  0  0  0  0  0  0  0  0  0
    1.3869   -1.2422   -1.2420 H   0  0  0  0  0  0  0  0  0  0  0  0
    1.5232    1.3493    2.1877 H   0  0  0  0  0  0  0  0  0  0  0  0
   -0.9443    1.5016    2.1982 H   0  0  0  0  0  0  0  0  0  0  0  0
    1.0078    2.1325   -2.3645 N   0  0  0  0  0  0  0  0  0  0  0  0
    1.7347    2.1183   -3.1965 N   0  0  0  0  0  0  0  0  0  0  0  0
   -2.5534    0.1965    0.3979 O   0  0  0  0  0  0  0  0  0  0  0  0
   -3.2862    0.9656    1.3481 C   0  0  0  0  0  0  0  0  0  0  0  0
   -4.3407    0.8225    1.0945 H   0  0  0  0  0  0  0  0  0  0  0  0
   -3.0327    2.0341    1.2752 H   0  0  0  0  0  0  0  0  0  0  0  0
   -3.1038    0.6098    2.3735 H   0  0  0  0  0  0  0  0  0  0  0  0
    4.9580    0.7529    0.0723 O   0  0  0  0  0  0  0  0  0  0  0  0
    3.7923    1.0310    0.1148 N   0  0  0  0  0  0  0  0  0  0  0  0
    2.9715   -0.1381    0.5016 O   0  0  0  0  0  0  0  0  0  0  0  0
    3.2214    2.0729   -0.0765 O   0  0  0  0  0  0  0  0  0  0  0  0
  1  6  1  0  0  0  0
  2  1  2  0  0  0  0
  2  3  1  0  0  0  0
  3 20  1  0  0  0  0
  3  4  2  0  0  0  0
  4  5  1  0  0  0  0
  4  9  1  0  0  0  0
  5 10  1  0  0  0  0
  6  5  2  0  0  0  0
  7  1  1  0  0  0  0
  8  2  1  0  0  0  0
 12 11  3  0  0  0  0
 13  6  1  0  0  0  0
 13 14  1  0  0  0  0
 14 17  1  0  0  0  0
 15 14  1  0  0  0  0
 16 14  1  0  0  0  0
 18 19  2  0  0  0  0
 19 20  1  0  0  0  0
 21 19  2  0  0  0  0
M  END
