Coordinates from ORCA-job p-CH3O-Ph-N2-NO3-B3LYPG-aug-cc-pVDZ-scan-d09-49-n400
 OpenBabel11111914563D

 21 20  0  0  0  0  0  0  0  0999 V2000
   -0.6356   -0.6849   -0.5004 C   0  0  0  0  0  0  0  0  0  0  0  0
    0.7425   -0.6642   -0.6508 C   0  0  0  0  0  0  0  0  0  0  0  0
    1.5117    0.2321    0.1047 C   0  0  0  0  0  0  0  0  0  0  0  0
    0.9223    1.0079    1.1001 C   0  0  0  0  0  0  0  0  0  0  0  0
   -0.4703    1.0019    1.2359 C   0  0  0  0  0  0  0  0  0  0  0  0
   -1.2571    0.1679    0.4294 C   0  0  0  0  0  0  0  0  0  0  0  0
   -1.2528   -1.3577   -1.0938 H   0  0  0  0  0  0  0  0  0  0  0  0
    1.2365   -1.3164   -1.3692 H   0  0  0  0  0  0  0  0  0  0  0  0
    1.5186    1.6455    1.7435 H   0  0  0  0  0  0  0  0  0  0  0  0
   -0.9208    1.6420    1.9899 H   0  0  0  0  0  0  0  0  0  0  0  0
    1.2603    1.8026   -1.6573 N   0  0  0  0  0  0  0  0  0  0  0  0
    2.0944    1.8967   -2.3799 N   0  0  0  0  0  0  0  0  0  0  0  0
   -2.6166    0.0923    0.4858 O   0  0  0  0  0  0  0  0  0  0  0  0
   -3.3015    0.9236    1.4192 C   0  0  0  0  0  0  0  0  0  0  0  0
   -4.3654    0.7087    1.2823 H   0  0  0  0  0  0  0  0  0  0  0  0
   -3.1122    1.9885    1.2158 H   0  0  0  0  0  0  0  0  0  0  0  0
   -3.0092    0.6854    2.4533 H   0  0  0  0  0  0  0  0  0  0  0  0
    4.9557    0.7430   -0.0756 O   0  0  0  0  0  0  0  0  0  0  0  0
    3.8288    1.1060    0.1296 N   0  0  0  0  0  0  0  0  0  0  0  0
    2.8941    0.0168   -0.0425 O   0  0  0  0  0  0  0  0  0  0  0  0
    3.4072    2.1851    0.4684 O   0  0  0  0  0  0  0  0  0  0  0  0
  1  6  1  0  0  0  0
  2  1  2  0  0  0  0
  2  3  1  0  0  0  0
  3  4  2  0  0  0  0
  4  5  1  0  0  0  0
  4  9  1  0  0  0  0
  5 10  1  0  0  0  0
  6 13  1  0  0  0  0
  6  5  2  0  0  0  0
  7  1  1  0  0  0  0
  8  2  1  0  0  0  0
 12 11  3  0  0  0  0
 13 14  1  0  0  0  0
 14 17  1  0  0  0  0
 15 14  1  0  0  0  0
 16 14  1  0  0  0  0
 18 19  2  0  0  0  0
 19 21  2  0  0  0  0
 20  3  1  0  0  0  0
 20 19  1  0  0  0  0
M  END
