Coordinates from ORCA-job p-CH3O-Ph-N2-NO3-B3LYPG-aug-cc-pVDZ-scan-d09-49-n400
 OpenBabel11111914563D

 21 20  0  0  0  0  0  0  0  0999 V2000
   -0.4350   -0.4753   -0.4578 C   0  0  0  0  0  0  0  0  0  0  0  0
    0.9484   -0.5737   -0.3801 C   0  0  0  0  0  0  0  0  0  0  0  0
    1.6243    0.0242    0.6894 C   0  0  0  0  0  0  0  0  0  0  0  0
    0.9268    0.7187    1.6734 C   0  0  0  0  0  0  0  0  0  0  0  0
   -0.4657    0.8218    1.6012 C   0  0  0  0  0  0  0  0  0  0  0  0
   -1.1500    0.2253    0.5308 C   0  0  0  0  0  0  0  0  0  0  0  0
   -0.9866   -0.9358   -1.2760 H   0  0  0  0  0  0  0  0  0  0  0  0
    1.5118   -1.1176   -1.1373 H   0  0  0  0  0  0  0  0  0  0  0  0
    1.4710    1.1729    2.5006 H   0  0  0  0  0  0  0  0  0  0  0  0
   -0.9974    1.3636    2.3790 H   0  0  0  0  0  0  0  0  0  0  0  0
    0.8460    2.4792   -3.0848 N   0  0  0  0  0  0  0  0  0  0  0  0
    1.4054    2.2359   -4.0054 N   0  0  0  0  0  0  0  0  0  0  0  0
   -2.5013    0.2645    0.3626 O   0  0  0  0  0  0  0  0  0  0  0  0
   -3.2848    0.9640    1.3263 C   0  0  0  0  0  0  0  0  0  0  0  0
   -4.3216    0.8680    0.9908 H   0  0  0  0  0  0  0  0  0  0  0  0
   -3.0085    2.0286    1.3659 H   0  0  0  0  0  0  0  0  0  0  0  0
   -3.1795    0.5154    2.3258 H   0  0  0  0  0  0  0  0  0  0  0  0
    4.9897    0.6980    0.2889 O   0  0  0  0  0  0  0  0  0  0  0  0
    3.8155    0.9040    0.1630 N   0  0  0  0  0  0  0  0  0  0  0  0
    3.0009   -0.1542    0.8160 O   0  0  0  0  0  0  0  0  0  0  0  0
    3.2209    1.7954   -0.3839 O   0  0  0  0  0  0  0  0  0  0  0  0
  1  2  2  0  0  0  0
  1  6  1  0  0  0  0
  2  3  1  0  0  0  0
  3 20  1  0  0  0  0
  3  4  2  0  0  0  0
  4  9  1  0  0  0  0
  5  4  1  0  0  0  0
  5 10  1  0  0  0  0
  6  5  2  0  0  0  0
  7  1  1  0  0  0  0
  8  2  1  0  0  0  0
 12 11  3  0  0  0  0
 13  6  1  0  0  0  0
 13 14  1  0  0  0  0
 14 16  1  0  0  0  0
 14 17  1  0  0  0  0
 15 14  1  0  0  0  0
 19 18  2  0  0  0  0
 19 20  1  0  0  0  0
 21 19  2  0  0  0  0
M  END
