Coordinates from ORCA-job p-CH3O-Ph-N2-NO3-B3LYPG-aug-cc-pVDZ-scan-d09-49-n400
 OpenBabel11111914563D

 21 20  0  0  0  0  0  0  0  0999 V2000
   -0.4382   -0.4779   -0.4607 C   0  0  0  0  0  0  0  0  0  0  0  0
    0.9455   -0.5750   -0.3860 C   0  0  0  0  0  0  0  0  0  0  0  0
    1.6234    0.0262    0.6803 C   0  0  0  0  0  0  0  0  0  0  0  0
    0.9276    0.7228    1.6642 C   0  0  0  0  0  0  0  0  0  0  0  0
   -0.4651    0.8250    1.5946 C   0  0  0  0  0  0  0  0  0  0  0  0
   -1.1514    0.2251    0.5274 C   0  0  0  0  0  0  0  0  0  0  0  0
   -0.9914   -0.9411   -1.2763 H   0  0  0  0  0  0  0  0  0  0  0  0
    1.5076   -1.1208   -1.1428 H   0  0  0  0  0  0  0  0  0  0  0  0
    1.4732    1.1794    2.4891 H   0  0  0  0  0  0  0  0  0  0  0  0
   -0.9954    1.3686    2.3721 H   0  0  0  0  0  0  0  0  0  0  0  0
    0.8522    2.4559   -3.0389 N   0  0  0  0  0  0  0  0  0  0  0  0
    1.4189    2.2249   -3.9582 N   0  0  0  0  0  0  0  0  0  0  0  0
   -2.5031    0.2630    0.3622 O   0  0  0  0  0  0  0  0  0  0  0  0
   -3.2848    0.9646    1.3258 C   0  0  0  0  0  0  0  0  0  0  0  0
   -4.3223    0.8670    0.9928 H   0  0  0  0  0  0  0  0  0  0  0  0
   -3.0092    2.0294    1.3618 H   0  0  0  0  0  0  0  0  0  0  0  0
   -3.1770    0.5187    2.3262 H   0  0  0  0  0  0  0  0  0  0  0  0
    4.9881    0.7026    0.2771 O   0  0  0  0  0  0  0  0  0  0  0  0
    3.8136    0.9101    0.1561 N   0  0  0  0  0  0  0  0  0  0  0  0
    3.0003   -0.1521    0.8039 O   0  0  0  0  0  0  0  0  0  0  0  0
    3.2180    1.8061   -0.3822 O   0  0  0  0  0  0  0  0  0  0  0  0
  1  2  2  0  0  0  0
  1  6  1  0  0  0  0
  2  3  1  0  0  0  0
  3 20  1  0  0  0  0
  3  4  2  0  0  0  0
  4  9  1  0  0  0  0
  5  4  1  0  0  0  0
  5 10  1  0  0  0  0
  6  5  2  0  0  0  0
  7  1  1  0  0  0  0
  8  2  1  0  0  0  0
 12 11  3  0  0  0  0
 13  6  1  0  0  0  0
 13 14  1  0  0  0  0
 14 16  1  0  0  0  0
 14 17  1  0  0  0  0
 15 14  1  0  0  0  0
 19 18  2  0  0  0  0
 19 20  1  0  0  0  0
 21 19  2  0  0  0  0
M  END
