Coordinates from ORCA-job p-CH3O-Ph-N2-NO3-B3LYPG-aug-cc-pVDZ-scan-d09-49-n400
 OpenBabel11111914563D

 21 20  0  0  0  0  0  0  0  0999 V2000
   -0.4455   -0.4844   -0.4672 C   0  0  0  0  0  0  0  0  0  0  0  0
    0.9388   -0.5785   -0.3994 C   0  0  0  0  0  0  0  0  0  0  0  0
    1.6214    0.0303    0.6596 C   0  0  0  0  0  0  0  0  0  0  0  0
    0.9297    0.7318    1.6429 C   0  0  0  0  0  0  0  0  0  0  0  0
   -0.4633    0.8324    1.5793 C   0  0  0  0  0  0  0  0  0  0  0  0
   -1.1544    0.2244    0.5198 C   0  0  0  0  0  0  0  0  0  0  0  0
   -1.0022   -0.9543   -1.2765 H   0  0  0  0  0  0  0  0  0  0  0  0
    1.4980   -1.1288   -1.1552 H   0  0  0  0  0  0  0  0  0  0  0  0
    1.4787    1.1941    2.4623 H   0  0  0  0  0  0  0  0  0  0  0  0
   -0.9903    1.3806    2.3558 H   0  0  0  0  0  0  0  0  0  0  0  0
    0.8624    2.4046   -2.9404 N   0  0  0  0  0  0  0  0  0  0  0  0
    1.4466    2.2022   -3.8555 N   0  0  0  0  0  0  0  0  0  0  0  0
   -2.5070    0.2594    0.3614 O   0  0  0  0  0  0  0  0  0  0  0  0
   -3.2846    0.9663    1.3245 C   0  0  0  0  0  0  0  0  0  0  0  0
   -4.3237    0.8652    0.9976 H   0  0  0  0  0  0  0  0  0  0  0  0
   -3.0102    2.0317    1.3522 H   0  0  0  0  0  0  0  0  0  0  0  0
   -3.1709    0.5271    2.3273 H   0  0  0  0  0  0  0  0  0  0  0  0
    4.9849    0.7112    0.2520 O   0  0  0  0  0  0  0  0  0  0  0  0
    3.8101    0.9239    0.1434 N   0  0  0  0  0  0  0  0  0  0  0  0
    2.9989   -0.1486    0.7762 O   0  0  0  0  0  0  0  0  0  0  0  0
    3.2131    1.8324   -0.3718 O   0  0  0  0  0  0  0  0  0  0  0  0
  1  2  2  0  0  0  0
  1  6  1  0  0  0  0
  2  3  1  0  0  0  0
  3 20  1  0  0  0  0
  3  4  2  0  0  0  0
  4  9  1  0  0  0  0
  5  4  1  0  0  0  0
  5 10  1  0  0  0  0
  6  5  2  0  0  0  0
  7  1  1  0  0  0  0
  8  2  1  0  0  0  0
 12 11  3  0  0  0  0
 13  6  1  0  0  0  0
 13 14  1  0  0  0  0
 14 16  1  0  0  0  0
 14 17  1  0  0  0  0
 15 14  1  0  0  0  0
 19 18  2  0  0  0  0
 19 20  1  0  0  0  0
 21 19  2  0  0  0  0
M  END
