Coordinates from ORCA-job p-CH3O-Ph-N2-NO3-B3LYPG-aug-cc-pVDZ-scan-d09-49-n400
 OpenBabel11111914563D

 21 20  0  0  0  0  0  0  0  0999 V2000
   -0.6275   -0.6749   -0.4977 C   0  0  0  0  0  0  0  0  0  0  0  0
    0.7539   -0.6677   -0.6288 C   0  0  0  0  0  0  0  0  0  0  0  0
    1.5241    0.1843    0.1726 C   0  0  0  0  0  0  0  0  0  0  0  0
    0.9267    0.9761    1.1492 C   0  0  0  0  0  0  0  0  0  0  0  0
   -0.4682    0.9861    1.2644 C   0  0  0  0  0  0  0  0  0  0  0  0
   -1.2516    0.1670    0.4392 C   0  0  0  0  0  0  0  0  0  0  0  0
   -1.2447   -1.3247   -1.1163 H   0  0  0  0  0  0  0  0  0  0  0  0
    1.2504   -1.3110   -1.3538 H   0  0  0  0  0  0  0  0  0  0  0  0
    1.5222    1.6013    1.8067 H   0  0  0  0  0  0  0  0  0  0  0  0
   -0.9231    1.6287    2.0137 H   0  0  0  0  0  0  0  0  0  0  0  0
    1.2437    1.8787   -1.7984 N   0  0  0  0  0  0  0  0  0  0  0  0
    2.0760    1.9396   -2.5244 N   0  0  0  0  0  0  0  0  0  0  0  0
   -2.6130    0.1039    0.4780 O   0  0  0  0  0  0  0  0  0  0  0  0
   -3.3010    0.9277    1.4153 C   0  0  0  0  0  0  0  0  0  0  0  0
   -4.3650    0.7216    1.2660 H   0  0  0  0  0  0  0  0  0  0  0  0
   -3.1034    1.9941    1.2274 H   0  0  0  0  0  0  0  0  0  0  0  0
   -3.0199    0.6749    2.4490 H   0  0  0  0  0  0  0  0  0  0  0  0
    4.9536    0.7513   -0.0495 O   0  0  0  0  0  0  0  0  0  0  0  0
    3.8191    1.1009    0.1339 N   0  0  0  0  0  0  0  0  0  0  0  0
    2.9075   -0.0249    0.0457 O   0  0  0  0  0  0  0  0  0  0  0  0
    3.3707    2.1898    0.3960 O   0  0  0  0  0  0  0  0  0  0  0  0
  1  6  1  0  0  0  0
  2  1  2  0  0  0  0
  2  3  1  0  0  0  0
  3  4  2  0  0  0  0
  4  5  1  0  0  0  0
  4  9  1  0  0  0  0
  5 10  1  0  0  0  0
  6 13  1  0  0  0  0
  6  5  2  0  0  0  0
  7  1  1  0  0  0  0
  8  2  1  0  0  0  0
 12 11  3  0  0  0  0
 13 14  1  0  0  0  0
 14 17  1  0  0  0  0
 15 14  1  0  0  0  0
 16 14  1  0  0  0  0
 18 19  2  0  0  0  0
 19 21  2  0  0  0  0
 20 19  1  0  0  0  0
 20  3  1  0  0  0  0
M  END
