Coordinates from ORCA-job p-CH3O-Ph-N2-NO3-B3LYPG-aug-cc-pVDZ-scan-d09-49-n400
 OpenBabel11111914563D

 21 20  0  0  0  0  0  0  0  0999 V2000
   -0.5014   -0.5536   -0.4855 C   0  0  0  0  0  0  0  0  0  0  0  0
    0.8864   -0.6245   -0.4713 C   0  0  0  0  0  0  0  0  0  0  0  0
    1.6020    0.0477    0.5251 C   0  0  0  0  0  0  0  0  0  0  0  0
    0.9410    0.7917    1.4985 C   0  0  0  0  0  0  0  0  0  0  0  0
   -0.4537    0.8798    1.4799 C   0  0  0  0  0  0  0  0  0  0  0  0
   -1.1790    0.2047    0.4855 C   0  0  0  0  0  0  0  0  0  0  0  0
   -1.0833   -1.0778   -1.2420 H   0  0  0  0  0  0  0  0  0  0  0  0
    1.4237   -1.2120   -1.2147 H   0  0  0  0  0  0  0  0  0  0  0  0
    1.5127    1.3017    2.2725 H   0  0  0  0  0  0  0  0  0  0  0  0
   -0.9563    1.4674    2.2436 H   0  0  0  0  0  0  0  0  0  0  0  0
    0.9490    2.1907   -2.4911 N   0  0  0  0  0  0  0  0  0  0  0  0
    1.6394    2.1462   -3.3522 N   0  0  0  0  0  0  0  0  0  0  0  0
   -2.5375    0.2176    0.3806 O   0  0  0  0  0  0  0  0  0  0  0  0
   -3.2843    0.9697    1.3336 C   0  0  0  0  0  0  0  0  0  0  0  0
   -4.3344    0.8401    1.0555 H   0  0  0  0  0  0  0  0  0  0  0  0
   -3.0221    2.0377    1.2907 H   0  0  0  0  0  0  0  0  0  0  0  0
   -3.1252    0.5888    2.3539 H   0  0  0  0  0  0  0  0  0  0  0  0
    4.9659    0.7410    0.1144 O   0  0  0  0  0  0  0  0  0  0  0  0
    3.7954    1.0009    0.1112 N   0  0  0  0  0  0  0  0  0  0  0  0
    2.9828   -0.1428    0.5899 O   0  0  0  0  0  0  0  0  0  0  0  0
    3.2094    2.0077   -0.1898 O   0  0  0  0  0  0  0  0  0  0  0  0
  1  2  2  0  0  0  0
  1  6  1  0  0  0  0
  2  3  1  0  0  0  0
  3 20  1  0  0  0  0
  3  4  2  0  0  0  0
  4  9  1  0  0  0  0
  5  4  1  0  0  0  0
  5 10  1  0  0  0  0
  6  5  2  0  0  0  0
  7  1  1  0  0  0  0
  8  2  1  0  0  0  0
 12 11  3  0  0  0  0
 13  6  1  0  0  0  0
 13 14  1  0  0  0  0
 14 17  1  0  0  0  0
 15 14  1  0  0  0  0
 16 14  1  0  0  0  0
 19 18  2  0  0  0  0
 19 20  1  0  0  0  0
 21 19  2  0  0  0  0
M  END
