Coordinates from ORCA-job p-CH3O-Ph-N2-NO3-B3LYPG-aug-cc-pVDZ-scan-d09-49-n400
 OpenBabel11111914563D

 21 20  0  0  0  0  0  0  0  0999 V2000
   -0.6069   -0.6556   -0.4960 C   0  0  0  0  0  0  0  0  0  0  0  0
    0.7781   -0.6684   -0.5969 C   0  0  0  0  0  0  0  0  0  0  0  0
    1.5429    0.1350    0.2570 C   0  0  0  0  0  0  0  0  0  0  0  0
    0.9341    0.9272    1.2263 C   0  0  0  0  0  0  0  0  0  0  0  0
   -0.4621    0.9617    1.3096 C   0  0  0  0  0  0  0  0  0  0  0  0
   -1.2379    0.1716    0.4488 C   0  0  0  0  0  0  0  0  0  0  0  0
   -1.2210   -1.2769   -1.1462 H   0  0  0  0  0  0  0  0  0  0  0  0
    1.2803   -1.3016   -1.3268 H   0  0  0  0  0  0  0  0  0  0  0  0
    1.5294    1.5265    1.9096 H   0  0  0  0  0  0  0  0  0  0  0  0
   -0.9247    1.5985    2.0591 H   0  0  0  0  0  0  0  0  0  0  0  0
    1.1943    1.9554   -1.9538 N   0  0  0  0  0  0  0  0  0  0  0  0
    2.0058    1.9880   -2.7037 N   0  0  0  0  0  0  0  0  0  0  0  0
   -2.6006    0.1284    0.4568 O   0  0  0  0  0  0  0  0  0  0  0  0
   -3.2972    0.9400    1.3985 C   0  0  0  0  0  0  0  0  0  0  0  0
   -4.3605    0.7513    1.2229 H   0  0  0  0  0  0  0  0  0  0  0  0
   -3.0825    2.0077    1.2390 H   0  0  0  0  0  0  0  0  0  0  0  0
   -3.0407    0.6604    2.4317 H   0  0  0  0  0  0  0  0  0  0  0  0
    4.9496    0.7658   -0.0291 O   0  0  0  0  0  0  0  0  0  0  0  0
    3.8056    1.0942    0.1280 N   0  0  0  0  0  0  0  0  0  0  0  0
    2.9271   -0.0728    0.1787 O   0  0  0  0  0  0  0  0  0  0  0  0
    3.3173    2.1863    0.2746 O   0  0  0  0  0  0  0  0  0  0  0  0
  1  6  1  0  0  0  0
  2  1  2  0  0  0  0
  2  3  1  0  0  0  0
  3  4  2  0  0  0  0
  4  5  1  0  0  0  0
  4  9  1  0  0  0  0
  5 10  1  0  0  0  0
  6 13  1  0  0  0  0
  6  5  2  0  0  0  0
  7  1  1  0  0  0  0
  8  2  1  0  0  0  0
 12 11  3  0  0  0  0
 13 14  1  0  0  0  0
 14 17  1  0  0  0  0
 15 14  1  0  0  0  0
 16 14  1  0  0  0  0
 18 19  2  0  0  0  0
 19 20  1  0  0  0  0
 19 21  2  0  0  0  0
 20  3  1  0  0  0  0
M  END
