Coordinates from ORCA-job p-CH3O-Ph-N2-NO3-B3LYPG-aug-cc-pVDZ-scan-d09-49-n400
 OpenBabel11111914563D

 21 20  0  0  0  0  0  0  0  0999 V2000
   -0.6298   -0.6775   -0.4983 C   0  0  0  0  0  0  0  0  0  0  0  0
    0.7509   -0.6674   -0.6339 C   0  0  0  0  0  0  0  0  0  0  0  0
    1.5214    0.1934    0.1584 C   0  0  0  0  0  0  0  0  0  0  0  0
    0.9257    0.9834    1.1375 C   0  0  0  0  0  0  0  0  0  0  0  0
   -0.4688    0.9898    1.2574 C   0  0  0  0  0  0  0  0  0  0  0  0
   -1.2531    0.1668    0.4372 C   0  0  0  0  0  0  0  0  0  0  0  0
   -1.2472   -1.3322   -1.1114 H   0  0  0  0  0  0  0  0  0  0  0  0
    1.2467   -1.3124   -1.3577 H   0  0  0  0  0  0  0  0  0  0  0  0
    1.5214    1.6120    1.7914 H   0  0  0  0  0  0  0  0  0  0  0  0
   -0.9226    1.6326    2.0073 H   0  0  0  0  0  0  0  0  0  0  0  0
    1.2487    1.8636   -1.7680 N   0  0  0  0  0  0  0  0  0  0  0  0
    2.0816    1.9308   -2.4930 N   0  0  0  0  0  0  0  0  0  0  0  0
   -2.6141    0.1008    0.4803 O   0  0  0  0  0  0  0  0  0  0  0  0
   -3.3012    0.9265    1.4167 C   0  0  0  0  0  0  0  0  0  0  0  0
   -4.3652    0.7181    1.2708 H   0  0  0  0  0  0  0  0  0  0  0  0
   -3.1058    1.9925    1.2249 H   0  0  0  0  0  0  0  0  0  0  0  0
   -3.0170    0.6775    2.4506 H   0  0  0  0  0  0  0  0  0  0  0  0
    4.9543    0.7491   -0.0535 O   0  0  0  0  0  0  0  0  0  0  0  0
    3.8213    1.1021    0.1337 N   0  0  0  0  0  0  0  0  0  0  0  0
    2.9045   -0.0161    0.0250 O   0  0  0  0  0  0  0  0  0  0  0  0
    3.3790    2.1893    0.4128 O   0  0  0  0  0  0  0  0  0  0  0  0
  1  6  1  0  0  0  0
  2  1  2  0  0  0  0
  2  3  1  0  0  0  0
  3  4  2  0  0  0  0
  4  5  1  0  0  0  0
  4  9  1  0  0  0  0
  5 10  1  0  0  0  0
  6 13  1  0  0  0  0
  6  5  2  0  0  0  0
  7  1  1  0  0  0  0
  8  2  1  0  0  0  0
 12 11  3  0  0  0  0
 13 14  1  0  0  0  0
 14 17  1  0  0  0  0
 15 14  1  0  0  0  0
 16 14  1  0  0  0  0
 18 19  2  0  0  0  0
 19 21  2  0  0  0  0
 20 19  1  0  0  0  0
 20  3  1  0  0  0  0
M  END
