Coordinates from ORCA-job p-CH3O-Ph-N2-NO3-B3LYPG-aug-cc-pVDZ-scan-d09-49-n400
 OpenBabel11111914563D

 21 20  0  0  0  0  0  0  0  0999 V2000
   -0.6309   -0.6789   -0.4986 C   0  0  0  0  0  0  0  0  0  0  0  0
    0.7494   -0.6671   -0.6367 C   0  0  0  0  0  0  0  0  0  0  0  0
    1.5199    0.1989    0.1500 C   0  0  0  0  0  0  0  0  0  0  0  0
    0.9252    0.9875    1.1311 C   0  0  0  0  0  0  0  0  0  0  0  0
   -0.4691    0.9919    1.2536 C   0  0  0  0  0  0  0  0  0  0  0  0
   -1.2538    0.1669    0.4360 C   0  0  0  0  0  0  0  0  0  0  0  0
   -1.2484   -1.3364   -1.1087 H   0  0  0  0  0  0  0  0  0  0  0  0
    1.2449   -1.3130   -1.3599 H   0  0  0  0  0  0  0  0  0  0  0  0
    1.5210    1.6179    1.7830 H   0  0  0  0  0  0  0  0  0  0  0  0
   -0.9223    1.6346    2.0038 H   0  0  0  0  0  0  0  0  0  0  0  0
    1.2507    1.8544   -1.7495 N   0  0  0  0  0  0  0  0  0  0  0  0
    2.0834    1.9256   -2.4745 N   0  0  0  0  0  0  0  0  0  0  0  0
   -2.6146    0.0992    0.4814 O   0  0  0  0  0  0  0  0  0  0  0  0
   -3.3012    0.9259    1.4173 C   0  0  0  0  0  0  0  0  0  0  0  0
   -4.3652    0.7163    1.2731 H   0  0  0  0  0  0  0  0  0  0  0  0
   -3.1070    1.9918    1.2232 H   0  0  0  0  0  0  0  0  0  0  0  0
   -3.0154    0.6790    2.4512 H   0  0  0  0  0  0  0  0  0  0  0  0
    4.9547    0.7478   -0.0561 O   0  0  0  0  0  0  0  0  0  0  0  0
    3.8226    1.1027    0.1332 N   0  0  0  0  0  0  0  0  0  0  0  0
    2.9029   -0.0110    0.0136 O   0  0  0  0  0  0  0  0  0  0  0  0
    3.3837    2.1889    0.4218 O   0  0  0  0  0  0  0  0  0  0  0  0
  1  6  1  0  0  0  0
  2  1  2  0  0  0  0
  2  3  1  0  0  0  0
  3  4  2  0  0  0  0
  4  5  1  0  0  0  0
  4  9  1  0  0  0  0
  5 10  1  0  0  0  0
  6 13  1  0  0  0  0
  6  5  2  0  0  0  0
  7  1  1  0  0  0  0
  8  2  1  0  0  0  0
 12 11  3  0  0  0  0
 13 14  1  0  0  0  0
 14 17  1  0  0  0  0
 15 14  1  0  0  0  0
 16 14  1  0  0  0  0
 18 19  2  0  0  0  0
 19 21  2  0  0  0  0
 20 19  1  0  0  0  0
 20  3  1  0  0  0  0
M  END
