Coordinates from ORCA-job p-CH3O-Ph-N2-NO3-B3LYPG-aug-cc-pVDZ-scan-d09-49-n400
 OpenBabel11111914563D

 21 20  0  0  0  0  0  0  0  0999 V2000
   -0.6393   -0.6933   -0.5014 C   0  0  0  0  0  0  0  0  0  0  0  0
    0.7345   -0.6602   -0.6678 C   0  0  0  0  0  0  0  0  0  0  0  0
    1.4979    0.2912    0.0320 C   0  0  0  0  0  0  0  0  0  0  0  0
    0.9183    1.0294    1.0660 C   0  0  0  0  0  0  0  0  0  0  0  0
   -0.4707    1.0109    1.2189 C   0  0  0  0  0  0  0  0  0  0  0  0
   -1.2603    0.1710    0.4201 C   0  0  0  0  0  0  0  0  0  0  0  0
   -1.2552   -1.3899   -1.0681 H   0  0  0  0  0  0  0  0  0  0  0  0
    1.2299   -1.3203   -1.3778 H   0  0  0  0  0  0  0  0  0  0  0  0
    1.5184    1.6684    1.7036 H   0  0  0  0  0  0  0  0  0  0  0  0
   -0.9176    1.6391    1.9851 H   0  0  0  0  0  0  0  0  0  0  0  0
    1.2615    1.7159   -1.5378 N   0  0  0  0  0  0  0  0  0  0  0  0
    2.1152    1.8589   -2.2341 N   0  0  0  0  0  0  0  0  0  0  0  0
   -2.6173    0.0875    0.4876 O   0  0  0  0  0  0  0  0  0  0  0  0
   -3.3018    0.9250    1.4167 C   0  0  0  0  0  0  0  0  0  0  0  0
   -4.3655    0.7086    1.2820 H   0  0  0  0  0  0  0  0  0  0  0  0
   -3.1123    1.9883    1.2054 H   0  0  0  0  0  0  0  0  0  0  0  0
   -3.0083    0.6934    2.4517 H   0  0  0  0  0  0  0  0  0  0  0  0
    4.9534    0.7429   -0.1146 O   0  0  0  0  0  0  0  0  0  0  0  0
    3.8347    1.1156    0.1161 N   0  0  0  0  0  0  0  0  0  0  0  0
    2.8791    0.0570   -0.1104 O   0  0  0  0  0  0  0  0  0  0  0  0
    3.4358    2.1832    0.5153 O   0  0  0  0  0  0  0  0  0  0  0  0
  1  6  1  0  0  0  0
  2  1  2  0  0  0  0
  2  3  1  0  0  0  0
  3  4  2  0  0  0  0
  4  5  1  0  0  0  0
  4  9  1  0  0  0  0
  5 10  1  0  0  0  0
  6 13  1  0  0  0  0
  6  5  2  0  0  0  0
  7  1  1  0  0  0  0
  8  2  1  0  0  0  0
 12 11  3  0  0  0  0
 13 14  1  0  0  0  0
 14 17  1  0  0  0  0
 15 14  1  0  0  0  0
 16 14  1  0  0  0  0
 18 19  2  0  0  0  0
 19 21  2  0  0  0  0
 20  3  1  0  0  0  0
 20 19  1  0  0  0  0
M  END
