Coordinates from ORCA-job p-CH3O-Ph-N2-NO3-B3LYPG-aug-cc-pVDZ-scan-d09-49-n400
 OpenBabel11111914563D

 21 21  0  0  1  0  0  0  0  0999 V2000
   -0.9379   -0.3370   -1.1336 C   0  0  0  0  0  0  0  0  0  0  0  0
    0.1010    0.0393   -1.9198 C   0  0  0  0  0  0  0  0  0  0  0  0
    1.0821    0.9515   -1.3960 C   0  0  0  0  0  0  0  0  0  0  0  0
    1.1363    1.3270    0.0454 C   0  0  1  0  0  0  0  0  0  0  0  0
   -0.1435    1.0569    0.7431 C   0  0  0  0  0  0  0  0  0  0  0  0
   -1.0771    0.2255    0.1993 C   0  0  0  0  0  0  0  0  0  0  0  0
   -1.7025   -1.0251   -1.4868 H   0  0  0  0  0  0  0  0  0  0  0  0
    0.2058   -0.3237   -2.9413 H   0  0  0  0  0  0  0  0  0  0  0  0
    1.5101    2.3399    0.2138 H   0  0  0  0  0  0  0  0  0  0  0  0
   -0.2673    1.5097    1.7209 H   0  0  0  0  0  0  0  0  0  0  0  0
    2.0338    1.4290   -2.1947 N   0  0  0  0  0  0  0  0  0  0  0  0
    2.8505    1.8455   -2.8681 N   0  0  0  0  0  0  0  0  0  0  0  0
   -2.2402   -0.1399    0.7974 O   0  0  0  0  0  0  0  0  0  0  0  0
   -2.4946    0.3405    2.1172 C   0  0  0  0  0  0  0  0  0  0  0  0
   -3.4524   -0.0969    2.4128 H   0  0  0  0  0  0  0  0  0  0  0  0
   -2.5681    1.4380    2.1274 H   0  0  0  0  0  0  0  0  0  0  0  0
   -1.7047    0.0155    2.8101 H   0  0  0  0  0  0  0  0  0  0  0  0
    2.3695    1.8642    2.3308 O   0  0  0  0  0  0  0  0  0  0  0  0
    2.8006    0.8369    1.8338 N   0  0  0  0  0  0  0  0  0  0  0  0
    3.6545    0.0984    2.2658 O   0  0  0  0  0  0  0  0  0  0  0  0
    2.2746    0.4274    0.6110 O   0  0  0  0  0  0  0  0  0  0  0  0
  1  6  2  0  0  0  0
  2  3  2  0  0  0  0
  2  1  1  0  0  0  0
  3  4  1  0  0  0  0
  4  9  1  1  0  0  0
  4 21  1  0  0  0  0
  4  5  1  0  0  0  0
  5 10  1  0  0  0  0
  6  5  1  0  0  0  0
  6 13  1  0  0  0  0
  7  1  1  0  0  0  0
  8  2  1  0  0  0  0
 11  3  1  0  0  0  0
 12 11  1  0  0  0  0
 13 14  1  0  0  0  0
 14 16  1  0  0  0  0
 14 15  1  0  0  0  0
 14 17  1  0  0  0  0
 19 20  2  0  0  0  0
 19 18  2  0  0  0  0
 21 19  1  0  0  0  0
M  RAD  3   5   2  11   2  12   3
M  END
