Coordinates from ORCA-job p-CH3O-Ph-N2-NO3-B3LYPG-aug-cc-pVDZ-scan-d09-49-n400
 OpenBabel11111914563D

 21 20  0  0  0  0  0  0  0  0999 V2000
   -0.5660   -0.6218   -0.4922 C   0  0  0  0  0  0  0  0  0  0  0  0
    0.8220   -0.6641   -0.5439 C   0  0  0  0  0  0  0  0  0  0  0  0
    1.5711    0.0775    0.3767 C   0  0  0  0  0  0  0  0  0  0  0  0
    0.9426    0.8585    1.3431 C   0  0  0  0  0  0  0  0  0  0  0  0
   -0.4532    0.9251    1.3802 C   0  0  0  0  0  0  0  0  0  0  0  0
   -1.2121    0.1814    0.4633 C   0  0  0  0  0  0  0  0  0  0  0  0
   -1.1710   -1.2010   -1.1881 H   0  0  0  0  0  0  0  0  0  0  0  0
    1.3364   -1.2809   -1.2797 H   0  0  0  0  0  0  0  0  0  0  0  0
    1.5333    1.4202    2.0636 H   0  0  0  0  0  0  0  0  0  0  0  0
   -0.9296    1.5483    2.1324 H   0  0  0  0  0  0  0  0  0  0  0  0
    1.0890    2.0542   -2.1781 N   0  0  0  0  0  0  0  0  0  0  0  0
    1.8583    2.0742   -2.9710 N   0  0  0  0  0  0  0  0  0  0  0  0
   -2.5747    0.1663    0.4234 O   0  0  0  0  0  0  0  0  0  0  0  0
   -3.2887    0.9592    1.3681 C   0  0  0  0  0  0  0  0  0  0  0  0
   -4.3484    0.7972    1.1497 H   0  0  0  0  0  0  0  0  0  0  0  0
   -3.0492    2.0272    1.2528 H   0  0  0  0  0  0  0  0  0  0  0  0
   -3.0736    0.6397    2.3992 H   0  0  0  0  0  0  0  0  0  0  0  0
    4.9494    0.7711    0.0194 O   0  0  0  0  0  0  0  0  0  0  0  0
    3.7917    1.0688    0.1203 N   0  0  0  0  0  0  0  0  0  0  0  0
    2.9546   -0.1210    0.3660 O   0  0  0  0  0  0  0  0  0  0  0  0
    3.2486    2.1427    0.0833 O   0  0  0  0  0  0  0  0  0  0  0  0
  1  6  1  0  0  0  0
  2  1  2  0  0  0  0
  2  3  1  0  0  0  0
  3  4  2  0  0  0  0
  4  5  1  0  0  0  0
  4  9  1  0  0  0  0
  5 10  1  0  0  0  0
  6  5  2  0  0  0  0
  7  1  1  0  0  0  0
  8  2  1  0  0  0  0
 12 11  3  0  0  0  0
 13  6  1  0  0  0  0
 13 14  1  0  0  0  0
 14 17  1  0  0  0  0
 15 14  1  0  0  0  0
 16 14  1  0  0  0  0
 18 19  2  0  0  0  0
 19 20  1  0  0  0  0
 20  3  1  0  0  0  0
 21 19  2  0  0  0  0
M  END
