Coordinates from ORCA-job p-CH3O-Ph-N2-NO3-B3LYPG-aug-cc-pVDZ-scan-d09-49-n400
 OpenBabel11111914563D

 21 20  0  0  0  0  0  0  0  0999 V2000
   -1.1598   -0.3696   -0.9392 C   0  0  0  0  0  0  0  0  0  0  0  0
    0.0939   -0.1568   -1.5098 C   0  0  0  0  0  0  0  0  0  0  0  0
    0.9147    0.6823   -0.7850 C   0  0  0  0  0  0  0  0  0  0  0  0
    0.6723    1.3207    0.3979 C   0  0  0  0  0  0  0  0  0  0  0  0
   -0.5970    1.0902    0.9451 C   0  0  0  0  0  0  0  0  0  0  0  0
   -1.5080    0.2472    0.2813 C   0  0  0  0  0  0  0  0  0  0  0  0
   -1.8837   -1.0191   -1.4283 H   0  0  0  0  0  0  0  0  0  0  0  0
    0.3925   -0.6228   -2.4450 H   0  0  0  0  0  0  0  0  0  0  0  0
    1.4318    1.9493    0.8577 H   0  0  0  0  0  0  0  0  0  0  0  0
   -0.8494    1.5681    1.8875 H   0  0  0  0  0  0  0  0  0  0  0  0
    2.5033    0.9788   -1.5123 N   0  0  0  0  0  0  0  0  0  0  0  0
    3.1282    0.8252   -2.4228 N   0  0  0  0  0  0  0  0  0  0  0  0
   -2.7511   -0.0382    0.7353 O   0  0  0  0  0  0  0  0  0  0  0  0
   -3.1779    0.5325    1.9759 C   0  0  0  0  0  0  0  0  0  0  0  0
   -4.1935    0.1602    2.1343 H   0  0  0  0  0  0  0  0  0  0  0  0
   -3.1916    1.6307    1.9194 H   0  0  0  0  0  0  0  0  0  0  0  0
   -2.5306    0.2049    2.8022 H   0  0  0  0  0  0  0  0  0  0  0  0
    4.9296    1.5648    1.6424 O   0  0  0  0  0  0  0  0  0  0  0  0
    4.0527    1.1856    0.8698 N   0  0  0  0  0  0  0  0  0  0  0  0
    3.6587    0.0073    0.7857 O   0  0  0  0  0  0  0  0  0  0  0  0
    3.4951    2.0815    0.0963 O   0  0  0  0  0  0  0  0  0  0  0  0
  1  6  1  0  0  0  0
  2  1  2  0  0  0  0
  2  3  1  0  0  0  0
  3  4  2  0  0  0  0
  4  9  1  0  0  0  0
  4  5  1  0  0  0  0
  5 10  1  0  0  0  0
  6 13  1  0  0  0  0
  6  5  2  0  0  0  0
  7  1  1  0  0  0  0
  8  2  1  0  0  0  0
 11  3  1  0  0  0  0
 12 11  2  0  0  0  0
 13 14  1  0  0  0  0
 14 15  1  0  0  0  0
 14 17  1  0  0  0  0
 16 14  1  0  0  0  0
 19 18  2  0  0  0  0
 20 19  1  0  0  0  0
 21 19  2  0  0  0  0
M  RAD  2  12   2  20   2
M  END
