Coordinates from ORCA-job p-CH3O-Ph-N2-NO3-B3LYPG-aug-cc-pVDZ-scan-d09-49-n400
 OpenBabel11111914563D

 21 20  0  0  0  0  0  0  0  0999 V2000
   -0.5185   -0.5721   -0.4879 C   0  0  0  0  0  0  0  0  0  0  0  0
    0.8696   -0.6363   -0.4902 C   0  0  0  0  0  0  0  0  0  0  0  0
    1.5946    0.0530    0.4878 C   0  0  0  0  0  0  0  0  0  0  0  0
    0.9422    0.8084    1.4587 C   0  0  0  0  0  0  0  0  0  0  0  0
   -0.4528    0.8922    1.4538 C   0  0  0  0  0  0  0  0  0  0  0  0
   -1.1874    0.1984    0.4792 C   0  0  0  0  0  0  0  0  0  0  0  0
   -1.1070   -1.1103   -1.2294 H   0  0  0  0  0  0  0  0  0  0  0  0
    1.4008   -1.2318   -1.2318 H   0  0  0  0  0  0  0  0  0  0  0  0
    1.5199    1.3322    2.2186 H   0  0  0  0  0  0  0  0  0  0  0  0
   -0.9485    1.4902    2.2140 H   0  0  0  0  0  0  0  0  0  0  0  0
    0.9844    2.1518   -2.4065 N   0  0  0  0  0  0  0  0  0  0  0  0
    1.6986    2.1291   -3.2490 N   0  0  0  0  0  0  0  0  0  0  0  0
   -2.5473    0.2042    0.3909 O   0  0  0  0  0  0  0  0  0  0  0  0
   -3.2854    0.9674    1.3419 C   0  0  0  0  0  0  0  0  0  0  0  0
   -4.3383    0.8290    1.0793 H   0  0  0  0  0  0  0  0  0  0  0  0
   -3.0287    2.0358    1.2795 H   0  0  0  0  0  0  0  0  0  0  0  0
   -3.1115    0.6028    2.3657 H   0  0  0  0  0  0  0  0  0  0  0  0
    4.9605    0.7479    0.0838 O   0  0  0  0  0  0  0  0  0  0  0  0
    3.7931    1.0203    0.1124 N   0  0  0  0  0  0  0  0  0  0  0  0
    2.9760   -0.1406    0.5350 O   0  0  0  0  0  0  0  0  0  0  0  0
    3.2161    2.0509   -0.1174 O   0  0  0  0  0  0  0  0  0  0  0  0
  1  6  1  0  0  0  0
  2  1  2  0  0  0  0
  2  3  1  0  0  0  0
  3 20  1  0  0  0  0
  3  4  2  0  0  0  0
  4  9  1  0  0  0  0
  5  4  1  0  0  0  0
  5 10  1  0  0  0  0
  6  5  2  0  0  0  0
  7  1  1  0  0  0  0
  8  2  1  0  0  0  0
 12 11  3  0  0  0  0
 13  6  1  0  0  0  0
 13 14  1  0  0  0  0
 14 17  1  0  0  0  0
 15 14  1  0  0  0  0
 16 14  1  0  0  0  0
 18 19  2  0  0  0  0
 19 20  1  0  0  0  0
 21 19  2  0  0  0  0
M  END
