Coordinates from ORCA-job p-CH3O-Ph-N2-NO3-B3LYPG-aug-cc-pVDZ-scan-d09-49-n400
 OpenBabel11111914563D

 21 20  0  0  0  0  0  0  0  0999 V2000
   -0.4289   -0.4710   -0.4519 C   0  0  0  0  0  0  0  0  0  0  0  0
    0.9540   -0.5720   -0.3687 C   0  0  0  0  0  0  0  0  0  0  0  0
    1.6262    0.0198    0.7064 C   0  0  0  0  0  0  0  0  0  0  0  0
    0.9256    0.7108    1.6907 C   0  0  0  0  0  0  0  0  0  0  0  0
   -0.4666    0.8157    1.6134 C   0  0  0  0  0  0  0  0  0  0  0  0
   -1.1471    0.2255    0.5373 C   0  0  0  0  0  0  0  0  0  0  0  0
   -0.9776   -0.9263   -1.2749 H   0  0  0  0  0  0  0  0  0  0  0  0
    1.5198   -1.1127   -1.1265 H   0  0  0  0  0  0  0  0  0  0  0  0
    1.4670    1.1603    2.5223 H   0  0  0  0  0  0  0  0  0  0  0  0
   -1.0008    1.3542    2.3918 H   0  0  0  0  0  0  0  0  0  0  0  0
    0.8312    2.5249   -3.1773 N   0  0  0  0  0  0  0  0  0  0  0  0
    1.3774    2.2590   -4.0996 N   0  0  0  0  0  0  0  0  0  0  0  0
   -2.4977    0.2672    0.3636 O   0  0  0  0  0  0  0  0  0  0  0  0
   -3.2843    0.9631    1.3274 C   0  0  0  0  0  0  0  0  0  0  0  0
   -4.3198    0.8700    0.9870 H   0  0  0  0  0  0  0  0  0  0  0  0
   -3.0069    2.0270    1.3733 H   0  0  0  0  0  0  0  0  0  0  0  0
   -3.1838    0.5094    2.3251 H   0  0  0  0  0  0  0  0  0  0  0  0
    4.9935    0.6882    0.3131 O   0  0  0  0  0  0  0  0  0  0  0  0
    3.8198    0.8923    0.1788 N   0  0  0  0  0  0  0  0  0  0  0  0
    3.0021   -0.1595    0.8387 O   0  0  0  0  0  0  0  0  0  0  0  0
    3.2276    1.7768   -0.3815 O   0  0  0  0  0  0  0  0  0  0  0  0
  1  2  2  0  0  0  0
  1  6  1  0  0  0  0
  2  3  1  0  0  0  0
  3 20  1  0  0  0  0
  3  4  2  0  0  0  0
  4  9  1  0  0  0  0
  5  4  1  0  0  0  0
  5 10  1  0  0  0  0
  6  5  2  0  0  0  0
  7  1  1  0  0  0  0
  8  2  1  0  0  0  0
 12 11  3  0  0  0  0
 13  6  1  0  0  0  0
 13 14  1  0  0  0  0
 14 16  1  0  0  0  0
 14 17  1  0  0  0  0
 15 14  1  0  0  0  0
 19 18  2  0  0  0  0
 19 20  1  0  0  0  0
 21 19  2  0  0  0  0
M  END
