Coordinates from ORCA-job p-CH3O-Ph-N2-NO3-B3LYPG-aug-cc-pVDZ-scan-d09-49-n400
 OpenBabel11111914563D

 21 20  0  0  0  0  0  0  0  0999 V2000
   -0.4545   -0.4940   -0.4735 C   0  0  0  0  0  0  0  0  0  0  0  0
    0.9305   -0.5843   -0.4144 C   0  0  0  0  0  0  0  0  0  0  0  0
    1.6187    0.0343    0.6350 C   0  0  0  0  0  0  0  0  0  0  0  0
    0.9323    0.7425    1.6172 C   0  0  0  0  0  0  0  0  0  0  0  0
   -0.4611    0.8412    1.5611 C   0  0  0  0  0  0  0  0  0  0  0  0
   -1.1581    0.2225    0.5115 C   0  0  0  0  0  0  0  0  0  0  0  0
   -1.0157   -0.9726   -1.2746 H   0  0  0  0  0  0  0  0  0  0  0  0
    1.4860   -1.1405   -1.1686 H   0  0  0  0  0  0  0  0  0  0  0  0
    1.4853    1.2122    2.4296 H   0  0  0  0  0  0  0  0  0  0  0  0
   -0.9840    1.3955    2.3359 H   0  0  0  0  0  0  0  0  0  0  0  0
    0.8742    2.3508   -2.8352 N   0  0  0  0  0  0  0  0  0  0  0  0
    1.4792    2.1814   -3.7435 N   0  0  0  0  0  0  0  0  0  0  0  0
   -2.5119    0.2539    0.3619 O   0  0  0  0  0  0  0  0  0  0  0  0
   -3.2843    0.9680    1.3238 C   0  0  0  0  0  0  0  0  0  0  0  0
   -4.3253    0.8623    1.0047 H   0  0  0  0  0  0  0  0  0  0  0  0
   -3.0115    2.0340    1.3403 H   0  0  0  0  0  0  0  0  0  0  0  0
   -3.1633    0.5378    2.3296 H   0  0  0  0  0  0  0  0  0  0  0  0
    4.9814    0.7194    0.2242 O   0  0  0  0  0  0  0  0  0  0  0  0
    3.8066    0.9394    0.1319 N   0  0  0  0  0  0  0  0  0  0  0  0
    2.9969   -0.1460    0.7433 O   0  0  0  0  0  0  0  0  0  0  0  0
    3.2091    1.8648   -0.3518 O   0  0  0  0  0  0  0  0  0  0  0  0
  1  2  2  0  0  0  0
  1  6  1  0  0  0  0
  2  3  1  0  0  0  0
  3 20  1  0  0  0  0
  3  4  2  0  0  0  0
  4  9  1  0  0  0  0
  5  4  1  0  0  0  0
  5 10  1  0  0  0  0
  6  5  2  0  0  0  0
  7  1  1  0  0  0  0
  8  2  1  0  0  0  0
 12 11  3  0  0  0  0
 13  6  1  0  0  0  0
 13 14  1  0  0  0  0
 14 16  1  0  0  0  0
 14 17  1  0  0  0  0
 15 14  1  0  0  0  0
 19 18  2  0  0  0  0
 19 20  1  0  0  0  0
 21 19  2  0  0  0  0
M  END
