Coordinates from ORCA-job p-CH3O-Ph-N2-NO3-B3LYPG-aug-cc-pVDZ-scan-d09-49-n400
 OpenBabel11111914563D

 21 20  0  0  0  0  0  0  0  0999 V2000
   -0.4748   -0.5179   -0.4817 C   0  0  0  0  0  0  0  0  0  0  0  0
    0.9116   -0.6000   -0.4418 C   0  0  0  0  0  0  0  0  0  0  0  0
    1.6120    0.0409    0.5859 C   0  0  0  0  0  0  0  0  0  0  0  0
    0.9367    0.7641    1.5649 C   0  0  0  0  0  0  0  0  0  0  0  0
   -0.4573    0.8585    1.5249 C   0  0  0  0  0  0  0  0  0  0  0  0
   -1.1669    0.2161    0.4981 C   0  0  0  0  0  0  0  0  0  0  0  0
   -1.0452   -1.0156   -1.2644 H   0  0  0  0  0  0  0  0  0  0  0  0
    1.4591   -1.1694   -1.1919 H   0  0  0  0  0  0  0  0  0  0  0  0
    1.4982    1.2506    2.3613 H   0  0  0  0  0  0  0  0  0  0  0  0
   -0.9714    1.4269    2.2956 H   0  0  0  0  0  0  0  0  0  0  0  0
    0.9050    2.2648   -2.6601 N   0  0  0  0  0  0  0  0  0  0  0  0
    1.5505    2.1558   -3.5497 N   0  0  0  0  0  0  0  0  0  0  0  0
   -2.5229    0.2397    0.3675 O   0  0  0  0  0  0  0  0  0  0  0  0
   -3.2841    0.9697    1.3264 C   0  0  0  0  0  0  0  0  0  0  0  0
   -4.3292    0.8540    1.0245 H   0  0  0  0  0  0  0  0  0  0  0  0
   -3.0153    2.0368    1.3181 H   0  0  0  0  0  0  0  0  0  0  0  0
   -3.1470    0.5598    2.3386 H   0  0  0  0  0  0  0  0  0  0  0  0
    4.9744    0.7322    0.1734 O   0  0  0  0  0  0  0  0  0  0  0  0
    3.8004    0.9689    0.1169 N   0  0  0  0  0  0  0  0  0  0  0  0
    2.9915   -0.1434    0.6759 O   0  0  0  0  0  0  0  0  0  0  0  0
    3.2050    1.9302   -0.2940 O   0  0  0  0  0  0  0  0  0  0  0  0
  1  2  2  0  0  0  0
  1  6  1  0  0  0  0
  2  3  1  0  0  0  0
  3 20  1  0  0  0  0
  3  4  2  0  0  0  0
  4  9  1  0  0  0  0
  5  4  1  0  0  0  0
  5 10  1  0  0  0  0
  6  5  2  0  0  0  0
  7  1  1  0  0  0  0
  8  2  1  0  0  0  0
 12 11  3  0  0  0  0
 13  6  1  0  0  0  0
 13 14  1  0  0  0  0
 14 17  1  0  0  0  0
 15 14  1  0  0  0  0
 16 14  1  0  0  0  0
 19 18  2  0  0  0  0
 19 20  1  0  0  0  0
 21 19  2  0  0  0  0
M  END
