Coordinates from ORCA-job p-CH3O-Ph-N2-NO3-B3LYPG-aug-cc-pVDZ-scan-d09-49-n400
 OpenBabel11111914563D

 21 21  0  0  1  0  0  0  0  0999 V2000
   -0.9217   -0.3407   -1.1304 C   0  0  0  0  0  0  0  0  0  0  0  0
    0.1140    0.0323   -1.9171 C   0  0  0  0  0  0  0  0  0  0  0  0
    1.1073    0.9593   -1.4109 C   0  0  0  0  0  0  0  0  0  0  0  0
    1.1458    1.3226    0.0474 C   0  0  1  0  0  0  0  0  0  0  0  0
   -0.1361    1.0565    0.7450 C   0  0  0  0  0  0  0  0  0  0  0  0
   -1.0685    0.2269    0.2016 C   0  0  0  0  0  0  0  0  0  0  0  0
   -1.6834   -1.0337   -1.4810 H   0  0  0  0  0  0  0  0  0  0  0  0
    0.2203   -0.3383   -2.9360 H   0  0  0  0  0  0  0  0  0  0  0  0
    1.5150    2.3382    0.2124 H   0  0  0  0  0  0  0  0  0  0  0  0
   -0.2606    1.5125    1.7214 H   0  0  0  0  0  0  0  0  0  0  0  0
    1.9805    1.4267   -2.1584 N   0  0  0  0  0  0  0  0  0  0  0  0
    2.7883    1.8649   -2.8397 N   0  0  0  0  0  0  0  0  0  0  0  0
   -2.2350   -0.1361    0.7927 O   0  0  0  0  0  0  0  0  0  0  0  0
   -2.4970    0.3493    2.1094 C   0  0  0  0  0  0  0  0  0  0  0  0
   -3.4577   -0.0849    2.4003 H   0  0  0  0  0  0  0  0  0  0  0  0
   -2.5678    1.4470    2.1150 H   0  0  0  0  0  0  0  0  0  0  0  0
   -1.7122    0.0247    2.8082 H   0  0  0  0  0  0  0  0  0  0  0  0
    2.3763    1.8573    2.3262 O   0  0  0  0  0  0  0  0  0  0  0  0
    2.8019    0.8299    1.8275 N   0  0  0  0  0  0  0  0  0  0  0  0
    3.6501    0.0835    2.2541 O   0  0  0  0  0  0  0  0  0  0  0  0
    2.2709    0.4250    0.6006 O   0  0  0  0  0  0  0  0  0  0  0  0
  1  6  2  0  0  0  0
  2  3  2  0  0  0  0
  2  1  1  0  0  0  0
  3  4  1  0  0  0  0
  4  9  1  1  0  0  0
  4 21  1  0  0  0  0
  4  5  1  0  0  0  0
  5 10  1  0  0  0  0
  6  5  1  0  0  0  0
  6 13  1  0  0  0  0
  7  1  1  0  0  0  0
  8  2  1  0  0  0  0
 11  3  1  0  0  0  0
 12 11  1  0  0  0  0
 13 14  1  0  0  0  0
 14 16  1  0  0  0  0
 14 15  1  0  0  0  0
 14 17  1  0  0  0  0
 19 20  2  0  0  0  0
 19 18  2  0  0  0  0
 21 19  1  0  0  0  0
M  RAD  3   5   2  11   2  12   3
M  END
