Coordinates from ORCA-job p-CH3O-Ph-N2-NO3-B3LYPG-aug-cc-pVDZ-scan-d09-49-n400
 OpenBabel11111914563D

 21 21  0  0  1  0  0  0  0  0999 V2000
   -0.9411   -0.3367   -1.1337 C   0  0  0  0  0  0  0  0  0  0  0  0
    0.0985    0.0402   -1.9198 C   0  0  0  0  0  0  0  0  0  0  0  0
    1.0771    0.9504   -1.3930 C   0  0  0  0  0  0  0  0  0  0  0  0
    1.1340    1.3277    0.0455 C   0  0  1  0  0  0  0  0  0  0  0  0
   -0.1454    1.0569    0.7431 C   0  0  0  0  0  0  0  0  0  0  0  0
   -1.0793    0.2251    0.1993 C   0  0  0  0  0  0  0  0  0  0  0  0
   -1.7059   -1.0242   -1.4873 H   0  0  0  0  0  0  0  0  0  0  0  0
    0.2035   -0.3217   -2.9415 H   0  0  0  0  0  0  0  0  0  0  0  0
    1.5089    2.3399    0.2146 H   0  0  0  0  0  0  0  0  0  0  0  0
   -0.2692    1.5093    1.7211 H   0  0  0  0  0  0  0  0  0  0  0  0
    2.0459    1.4309   -2.2031 N   0  0  0  0  0  0  0  0  0  0  0  0
    2.8641    1.8435   -2.8750 N   0  0  0  0  0  0  0  0  0  0  0  0
   -2.2417   -0.1406    0.7984 O   0  0  0  0  0  0  0  0  0  0  0  0
   -2.4950    0.3390    2.1187 C   0  0  0  0  0  0  0  0  0  0  0  0
   -3.4524   -0.0989    2.4150 H   0  0  0  0  0  0  0  0  0  0  0  0
   -2.5690    1.4365    2.1295 H   0  0  0  0  0  0  0  0  0  0  0  0
   -1.7043    0.0140    2.8107 H   0  0  0  0  0  0  0  0  0  0  0  0
    2.3699    1.8655    2.3312 O   0  0  0  0  0  0  0  0  0  0  0  0
    2.7997    0.8369    1.8354 N   0  0  0  0  0  0  0  0  0  0  0  0
    3.6575    0.1017    2.2660 O   0  0  0  0  0  0  0  0  0  0  0  0
    2.2747    0.4273    0.6132 O   0  0  0  0  0  0  0  0  0  0  0  0
  1  6  2  0  0  0  0
  2  3  2  0  0  0  0
  2  1  1  0  0  0  0
  3  4  1  0  0  0  0
  4  9  1  1  0  0  0
  4 21  1  0  0  0  0
  4  5  1  0  0  0  0
  5 10  1  0  0  0  0
  6  5  1  0  0  0  0
  6 13  1  0  0  0  0
  7  1  1  0  0  0  0
  8  2  1  0  0  0  0
 11  3  1  0  0  0  0
 12 11  1  0  0  0  0
 13 14  1  0  0  0  0
 14 16  1  0  0  0  0
 14 15  1  0  0  0  0
 14 17  1  0  0  0  0
 19 20  2  0  0  0  0
 19 18  2  0  0  0  0
 21 19  1  0  0  0  0
M  RAD  3   5   2  11   2  12   3
M  END
