Coordinates from ORCA-job p-CH3O-Ph-N2-NO3-B3LYPG-aug-cc-pVDZ-scan-d09-49-n400
 OpenBabel11111914563D

 21 20  0  0  0  0  0  0  0  0999 V2000
   -1.1414   -0.3622   -0.9394 C   0  0  0  0  0  0  0  0  0  0  0  0
    0.1132   -0.1443   -1.4968 C   0  0  0  0  0  0  0  0  0  0  0  0
    0.9538    0.6952   -0.7794 C   0  0  0  0  0  0  0  0  0  0  0  0
    0.6771    1.3239    0.4102 C   0  0  0  0  0  0  0  0  0  0  0  0
   -0.5922    1.0932    0.9496 C   0  0  0  0  0  0  0  0  0  0  0  0
   -1.4993    0.2509    0.2803 C   0  0  0  0  0  0  0  0  0  0  0  0
   -1.8615   -1.0116   -1.4340 H   0  0  0  0  0  0  0  0  0  0  0  0
    0.4138   -0.6099   -2.4320 H   0  0  0  0  0  0  0  0  0  0  0  0
    1.4253    1.9549    0.8828 H   0  0  0  0  0  0  0  0  0  0  0  0
   -0.8514    1.5695    1.8908 H   0  0  0  0  0  0  0  0  0  0  0  0
    2.4415    0.9595   -1.4713 N   0  0  0  0  0  0  0  0  0  0  0  0
    3.0696    0.8046   -2.3823 N   0  0  0  0  0  0  0  0  0  0  0  0
   -2.7436   -0.0364    0.7260 O   0  0  0  0  0  0  0  0  0  0  0  0
   -3.1801    0.5318    1.9648 C   0  0  0  0  0  0  0  0  0  0  0  0
   -4.1962    0.1574    2.1153 H   0  0  0  0  0  0  0  0  0  0  0  0
   -3.1951    1.6299    1.9096 H   0  0  0  0  0  0  0  0  0  0  0  0
   -2.5379    0.2038    2.7947 H   0  0  0  0  0  0  0  0  0  0  0  0
    4.9406    1.5739    1.5985 O   0  0  0  0  0  0  0  0  0  0  0  0
    4.0537    1.1788    0.8465 N   0  0  0  0  0  0  0  0  0  0  0  0
    3.6782   -0.0058    0.7697 O   0  0  0  0  0  0  0  0  0  0  0  0
    3.4624    2.0655    0.0847 O   0  0  0  0  0  0  0  0  0  0  0  0
  1  6  1  0  0  0  0
  2  1  2  0  0  0  0
  2  3  1  0  0  0  0
  3  4  2  0  0  0  0
  4  9  1  0  0  0  0
  4  5  1  0  0  0  0
  5 10  1  0  0  0  0
  6 13  1  0  0  0  0
  6  5  2  0  0  0  0
  7  1  1  0  0  0  0
  8  2  1  0  0  0  0
 11  3  1  0  0  0  0
 12 11  2  0  0  0  0
 13 14  1  0  0  0  0
 14 15  1  0  0  0  0
 14 17  1  0  0  0  0
 16 14  1  0  0  0  0
 19 18  2  0  0  0  0
 20 19  1  0  0  0  0
 21 19  2  0  0  0  0
M  RAD  2  12   2  20   2
M  END
