Coordinates from ORCA-job p-CH3O-Ph-N2-NO3-B3LYPG-aug-cc-pVDZ-scan-d09-49-n400
 OpenBabel11111914563D

 21 20  0  0  0  0  0  0  0  0999 V2000
   -0.5026   -0.5555   -0.4854 C   0  0  0  0  0  0  0  0  0  0  0  0
    0.8851   -0.6259   -0.4725 C   0  0  0  0  0  0  0  0  0  0  0  0
    1.6015    0.0479    0.5223 C   0  0  0  0  0  0  0  0  0  0  0  0
    0.9412    0.7931    1.4953 C   0  0  0  0  0  0  0  0  0  0  0  0
   -0.4535    0.8809    1.4777 C   0  0  0  0  0  0  0  0  0  0  0  0
   -1.1796    0.2040    0.4850 C   0  0  0  0  0  0  0  0  0  0  0  0
   -1.0851   -1.0810   -1.2407 H   0  0  0  0  0  0  0  0  0  0  0  0
    1.4220   -1.2143   -1.2156 H   0  0  0  0  0  0  0  0  0  0  0  0
    1.5133    1.3042    2.2681 H   0  0  0  0  0  0  0  0  0  0  0  0
   -0.9556    1.4694    2.2410 H   0  0  0  0  0  0  0  0  0  0  0  0
    0.9511    2.1881   -2.4840 N   0  0  0  0  0  0  0  0  0  0  0  0
    1.6435    2.1464   -3.3437 N   0  0  0  0  0  0  0  0  0  0  0  0
   -2.5382    0.2164    0.3813 O   0  0  0  0  0  0  0  0  0  0  0  0
   -3.2843    0.9697    1.3339 C   0  0  0  0  0  0  0  0  0  0  0  0
   -4.3346    0.8394    1.0571 H   0  0  0  0  0  0  0  0  0  0  0  0
   -3.0225    2.0377    1.2892 H   0  0  0  0  0  0  0  0  0  0  0  0
   -3.1241    0.5903    2.3546 H   0  0  0  0  0  0  0  0  0  0  0  0
    4.9655    0.7413    0.1115 O   0  0  0  0  0  0  0  0  0  0  0  0
    3.7952    1.0023    0.1112 N   0  0  0  0  0  0  0  0  0  0  0  0
    2.9823   -0.1428    0.5857 O   0  0  0  0  0  0  0  0  0  0  0  0
    3.2098    2.0113   -0.1838 O   0  0  0  0  0  0  0  0  0  0  0  0
  1  2  2  0  0  0  0
  1  6  1  0  0  0  0
  2  3  1  0  0  0  0
  3 20  1  0  0  0  0
  3  4  2  0  0  0  0
  4  9  1  0  0  0  0
  5  4  1  0  0  0  0
  5 10  1  0  0  0  0
  6  5  2  0  0  0  0
  7  1  1  0  0  0  0
  8  2  1  0  0  0  0
 12 11  3  0  0  0  0
 13  6  1  0  0  0  0
 13 14  1  0  0  0  0
 14 17  1  0  0  0  0
 15 14  1  0  0  0  0
 16 14  1  0  0  0  0
 19 18  2  0  0  0  0
 19 20  1  0  0  0  0
 21 19  2  0  0  0  0
M  END
