Coordinates from ORCA-job p-CH3O-Ph-N2-NO3-B3LYPG-aug-cc-pVDZ-scan-d09-49-n400
 OpenBabel11111914563D

 21 20  0  0  0  0  0  0  0  0999 V2000
   -0.4606   -0.5009   -0.4766 C   0  0  0  0  0  0  0  0  0  0  0  0
    0.9248   -0.5887   -0.4233 C   0  0  0  0  0  0  0  0  0  0  0  0
    1.6168    0.0365    0.6197 C   0  0  0  0  0  0  0  0  0  0  0  0
    0.9337    0.7492    1.6010 C   0  0  0  0  0  0  0  0  0  0  0  0
   -0.4599    0.8466    1.5498 C   0  0  0  0  0  0  0  0  0  0  0  0
   -1.1607    0.2208    0.5070 C   0  0  0  0  0  0  0  0  0  0  0  0
   -1.0247   -0.9853   -1.2722 H   0  0  0  0  0  0  0  0  0  0  0  0
    1.4779   -1.1489   -1.1763 H   0  0  0  0  0  0  0  0  0  0  0  0
    1.4894    1.2240    2.4087 H   0  0  0  0  0  0  0  0  0  0  0  0
   -0.9801    1.4051    2.3235 H   0  0  0  0  0  0  0  0  0  0  0  0
    0.8832    2.3214   -2.7760 N   0  0  0  0  0  0  0  0  0  0  0  0
    1.5010    2.1716   -3.6791 N   0  0  0  0  0  0  0  0  0  0  0  0
   -2.5152    0.2498    0.3631 O   0  0  0  0  0  0  0  0  0  0  0  0
   -3.2842    0.9687    1.3241 C   0  0  0  0  0  0  0  0  0  0  0  0
   -4.3265    0.8600    1.0102 H   0  0  0  0  0  0  0  0  0  0  0  0
   -3.0125    2.0351    1.3332 H   0  0  0  0  0  0  0  0  0  0  0  0
   -3.1584    0.5446    2.3319 H   0  0  0  0  0  0  0  0  0  0  0  0
    4.9792    0.7239    0.2076 O   0  0  0  0  0  0  0  0  0  0  0  0
    3.8045    0.9489    0.1260 N   0  0  0  0  0  0  0  0  0  0  0  0
    2.9954   -0.1448    0.7225 O   0  0  0  0  0  0  0  0  0  0  0  0
    3.2072    1.8851   -0.3365 O   0  0  0  0  0  0  0  0  0  0  0  0
  1  2  2  0  0  0  0
  1  6  1  0  0  0  0
  2  3  1  0  0  0  0
  3 20  1  0  0  0  0
  3  4  2  0  0  0  0
  4  9  1  0  0  0  0
  5  4  1  0  0  0  0
  5 10  1  0  0  0  0
  6  5  2  0  0  0  0
  7  1  1  0  0  0  0
  8  2  1  0  0  0  0
 12 11  3  0  0  0  0
 13  6  1  0  0  0  0
 13 14  1  0  0  0  0
 14 16  1  0  0  0  0
 14 17  1  0  0  0  0
 15 14  1  0  0  0  0
 19 18  2  0  0  0  0
 19 20  1  0  0  0  0
 21 19  2  0  0  0  0
M  END
