Coordinates from ORCA-job p-CH3O-Ph-N2-NO3-B3LYPG-aug-cc-pVDZ-scan-d09-49-n400
 OpenBabel11111914563D

 21 21  0  0  1  0  0  0  0  0999 V2000
   -0.9767   -0.3320   -1.1385 C   0  0  0  0  0  0  0  0  0  0  0  0
    0.0701    0.0558   -1.9244 C   0  0  0  0  0  0  0  0  0  0  0  0
    0.9941    0.9691   -1.3637 C   0  0  1  0  0  0  0  0  0  0  0  0
    1.0852    1.3682    0.0313 C   0  0  1  0  0  0  0  0  0  0  0  0
   -0.1778    1.0795    0.7271 C   0  0  0  0  0  0  0  0  0  0  0  0
   -1.1077    0.2270    0.1885 C   0  0  0  0  0  0  0  0  0  0  0  0
   -1.7352   -1.0244   -1.4948 H   0  0  0  0  0  0  0  0  0  0  0  0
    0.1900   -0.3023   -2.9448 H   0  0  0  0  0  0  0  0  0  0  0  0
    1.5003    2.3563    0.2295 H   0  0  0  0  0  0  0  0  0  0  0  0
   -0.3011    1.5257    1.7079 H   0  0  0  0  0  0  0  0  0  0  0  0
    2.1577    1.4278   -2.2650 N   0  0  0  0  0  0  0  0  0  0  0  0
    3.0055    1.7820   -2.9114 N   0  0  0  0  0  0  0  0  0  0  0  0
   -2.2548   -0.1524    0.8086 O   0  0  0  0  0  0  0  0  0  0  0  0
   -2.4924    0.3190    2.1349 C   0  0  0  0  0  0  0  0  0  0  0  0
   -3.4371   -0.1362    2.4459 H   0  0  0  0  0  0  0  0  0  0  0  0
   -2.5856    1.4149    2.1513 H   0  0  0  0  0  0  0  0  0  0  0  0
   -1.6850    0.0051    2.8123 H   0  0  0  0  0  0  0  0  0  0  0  0
    2.3700    1.8567    2.3445 O   0  0  0  0  0  0  0  0  0  0  0  0
    2.8177    0.8351    1.8366 N   0  0  0  0  0  0  0  0  0  0  0  0
    3.6966    0.1231    2.2760 O   0  0  0  0  0  0  0  0  0  0  0  0
    2.2968    0.4248    0.6365 O   0  0  0  0  0  0  0  0  0  0  0  0
  1  6  1  0  0  0  0
  2  3  1  0  0  0  0
  2  1  2  0  0  0  0
  3 11  1  1  0  0  0
  3  4  1  0  0  0  0
  4  9  1  1  0  0  0
  4 21  1  0  0  0  0
  4  5  1  0  0  0  0
  5 10  1  0  0  0  0
  6  5  2  0  0  0  0
  6 13  1  0  0  0  0
  7  1  1  0  0  0  0
  8  2  1  0  0  0  0
 12 11  1  0  0  0  0
 13 14  1  0  0  0  0
 14 16  1  0  0  0  0
 14 15  1  0  0  0  0
 14 17  1  0  0  0  0
 19 20  2  0  0  0  0
 19 18  2  0  0  0  0
 21 19  1  0  0  0  0
M  RAD  3   3   2  11   2  12   3
M  END
