Coordinates from ORCA-job p-CH3O-Ph-N2-NO3-B3LYPG-aug-cc-pVDZ-scan-d09-49-n400
 OpenBabel11111914563D

 21 20  0  0  0  0  0  0  0  0999 V2000
   -0.5967   -0.6474   -0.4955 C   0  0  0  0  0  0  0  0  0  0  0  0
    0.7894   -0.6686   -0.5835 C   0  0  0  0  0  0  0  0  0  0  0  0
    1.5509    0.1171    0.2893 C   0  0  0  0  0  0  0  0  0  0  0  0
    0.9373    0.9072    1.2575 C   0  0  0  0  0  0  0  0  0  0  0  0
   -0.4589    0.9518    1.3279 C   0  0  0  0  0  0  0  0  0  0  0  0
   -1.2311    0.1739    0.4521 C   0  0  0  0  0  0  0  0  0  0  0  0
   -1.2089   -1.2571   -1.1583 H   0  0  0  0  0  0  0  0  0  0  0  0
    1.2945   -1.2971   -1.3156 H   0  0  0  0  0  0  0  0  0  0  0  0
    1.5321    1.4961    1.9508 H   0  0  0  0  0  0  0  0  0  0  0  0
   -0.9246    1.5860    2.0777 H   0  0  0  0  0  0  0  0  0  0  0  0
    1.1664    1.9818   -2.0099 N   0  0  0  0  0  0  0  0  0  0  0  0
    1.9667    2.0066   -2.7718 N   0  0  0  0  0  0  0  0  0  0  0  0
   -2.5940    0.1391    0.4473 O   0  0  0  0  0  0  0  0  0  0  0  0
   -3.2946    0.9461    1.3900 C   0  0  0  0  0  0  0  0  0  0  0  0
   -4.3572    0.7648    1.2033 H   0  0  0  0  0  0  0  0  0  0  0  0
   -3.0727    2.0139    1.2421 H   0  0  0  0  0  0  0  0  0  0  0  0
   -3.0489    0.6557    2.4229 H   0  0  0  0  0  0  0  0  0  0  0  0
    4.9486    0.7709   -0.0190 O   0  0  0  0  0  0  0  0  0  0  0  0
    3.8007    1.0902    0.1258 N   0  0  0  0  0  0  0  0  0  0  0  0
    2.9352   -0.0882    0.2298 O   0  0  0  0  0  0  0  0  0  0  0  0
    3.2962    2.1798    0.2256 O   0  0  0  0  0  0  0  0  0  0  0  0
  1  6  1  0  0  0  0
  2  1  2  0  0  0  0
  2  3  1  0  0  0  0
  3  4  2  0  0  0  0
  4  5  1  0  0  0  0
  4  9  1  0  0  0  0
  5 10  1  0  0  0  0
  6  5  2  0  0  0  0
  7  1  1  0  0  0  0
  8  2  1  0  0  0  0
 12 11  3  0  0  0  0
 13  6  1  0  0  0  0
 13 14  1  0  0  0  0
 14 17  1  0  0  0  0
 15 14  1  0  0  0  0
 16 14  1  0  0  0  0
 18 19  2  0  0  0  0
 19 21  2  0  0  0  0
 19 20  1  0  0  0  0
 20  3  1  0  0  0  0
M  END
