Coordinates from ORCA-job p-CH3O-Ph-N2-NO3-B3LYPG-aug-cc-pVDZ-scan-d09-49-n400
 OpenBabel11111914563D

 21 20  0  0  0  0  0  0  0  0999 V2000
   -0.6203   -0.6683   -0.4967 C   0  0  0  0  0  0  0  0  0  0  0  0
    0.7626   -0.6690   -0.6165 C   0  0  0  0  0  0  0  0  0  0  0  0
    1.5313    0.1633    0.2061 C   0  0  0  0  0  0  0  0  0  0  0  0
    0.9297    0.9569    1.1786 C   0  0  0  0  0  0  0  0  0  0  0  0
   -0.4659    0.9768    1.2813 C   0  0  0  0  0  0  0  0  0  0  0  0
   -1.2468    0.1683    0.4431 C   0  0  0  0  0  0  0  0  0  0  0  0
   -1.2364   -1.3072   -1.1276 H   0  0  0  0  0  0  0  0  0  0  0  0
    1.2610   -1.3088   -1.3433 H   0  0  0  0  0  0  0  0  0  0  0  0
    1.5253    1.5723    1.8459 H   0  0  0  0  0  0  0  0  0  0  0  0
   -0.9235    1.6180    2.0302 H   0  0  0  0  0  0  0  0  0  0  0  0
    1.2259    1.9110   -1.8616 N   0  0  0  0  0  0  0  0  0  0  0  0
    2.0525    1.9605   -2.5944 N   0  0  0  0  0  0  0  0  0  0  0  0
   -2.6088    0.1129    0.4704 O   0  0  0  0  0  0  0  0  0  0  0  0
   -3.2997    0.9325    1.4093 C   0  0  0  0  0  0  0  0  0  0  0  0
   -4.3636    0.7328    1.2505 H   0  0  0  0  0  0  0  0  0  0  0  0
   -3.0956    1.9993    1.2317 H   0  0  0  0  0  0  0  0  0  0  0  0
   -3.0275    0.6698    2.4430 H   0  0  0  0  0  0  0  0  0  0  0  0
    4.9518    0.7579   -0.0424 O   0  0  0  0  0  0  0  0  0  0  0  0
    3.8136    1.0989    0.1323 N   0  0  0  0  0  0  0  0  0  0  0  0
    2.9152   -0.0453    0.0971 O   0  0  0  0  0  0  0  0  0  0  0  0
    3.3497    2.1902    0.3515 O   0  0  0  0  0  0  0  0  0  0  0  0
  1  6  1  0  0  0  0
  2  1  2  0  0  0  0
  2  3  1  0  0  0  0
  3  4  2  0  0  0  0
  4  5  1  0  0  0  0
  4  9  1  0  0  0  0
  5 10  1  0  0  0  0
  6 13  1  0  0  0  0
  6  5  2  0  0  0  0
  7  1  1  0  0  0  0
  8  2  1  0  0  0  0
 12 11  3  0  0  0  0
 13 14  1  0  0  0  0
 14 17  1  0  0  0  0
 15 14  1  0  0  0  0
 16 14  1  0  0  0  0
 18 19  2  0  0  0  0
 19 21  2  0  0  0  0
 20 19  1  0  0  0  0
 20  3  1  0  0  0  0
M  END
