Coordinates from ORCA-job p-CH3O-Ph-N2-NO3-B3LYPG-aug-cc-pVDZ-scan-d09-49-n400
 OpenBabel11111914563D

 21 20  0  0  0  0  0  0  0  0999 V2000
   -0.4220   -0.4678   -0.4441 C   0  0  0  0  0  0  0  0  0  0  0  0
    0.9602   -0.5720   -0.3549 C   0  0  0  0  0  0  0  0  0  0  0  0
    1.6284    0.0137    0.7261 C   0  0  0  0  0  0  0  0  0  0  0  0
    0.9244    0.7013    1.7103 C   0  0  0  0  0  0  0  0  0  0  0  0
   -0.4673    0.8086    1.6274 C   0  0  0  0  0  0  0  0  0  0  0  0
   -1.1438    0.2249    0.5452 C   0  0  0  0  0  0  0  0  0  0  0  0
   -0.9677   -0.9179   -1.2721 H   0  0  0  0  0  0  0  0  0  0  0  0
    1.5284   -1.1098   -1.1129 H   0  0  0  0  0  0  0  0  0  0  0  0
    1.4629    1.1460    2.5463 H   0  0  0  0  0  0  0  0  0  0  0  0
   -1.0042    1.3441    2.4059 H   0  0  0  0  0  0  0  0  0  0  0  0
    0.8108    2.5823   -3.2936 N   0  0  0  0  0  0  0  0  0  0  0  0
    1.3435    2.2915   -4.2163 N   0  0  0  0  0  0  0  0  0  0  0  0
   -2.4935    0.2698    0.3654 O   0  0  0  0  0  0  0  0  0  0  0  0
   -3.2834    0.9622    1.3289 C   0  0  0  0  0  0  0  0  0  0  0  0
   -4.3174    0.8725    0.9833 H   0  0  0  0  0  0  0  0  0  0  0  0
   -3.0044    2.0255    1.3813 H   0  0  0  0  0  0  0  0  0  0  0  0
   -3.1882    0.5036    2.3249 H   0  0  0  0  0  0  0  0  0  0  0  0
    4.9981    0.6754    0.3437 O   0  0  0  0  0  0  0  0  0  0  0  0
    3.8253    0.8784    0.2006 N   0  0  0  0  0  0  0  0  0  0  0  0
    3.0035   -0.1674    0.8646 O   0  0  0  0  0  0  0  0  0  0  0  0
    3.2366    1.7576   -0.3716 O   0  0  0  0  0  0  0  0  0  0  0  0
  1  2  2  0  0  0  0
  1  6  1  0  0  0  0
  2  3  1  0  0  0  0
  3 20  1  0  0  0  0
  3  4  2  0  0  0  0
  4  9  1  0  0  0  0
  5  4  1  0  0  0  0
  5 10  1  0  0  0  0
  6  5  2  0  0  0  0
  7  1  1  0  0  0  0
  8  2  1  0  0  0  0
 12 11  3  0  0  0  0
 13  6  1  0  0  0  0
 13 14  1  0  0  0  0
 14 16  1  0  0  0  0
 14 17  1  0  0  0  0
 15 14  1  0  0  0  0
 19 18  2  0  0  0  0
 19 20  1  0  0  0  0
 21 19  2  0  0  0  0
M  END
