Coordinates from ORCA-job p-CH3O-Ph-N2-NO3-B3LYPG-aug-cc-pVDZ-scan-d09-49-n400
 OpenBabel11111914563D

 21 20  0  0  0  0  0  0  0  0999 V2000
   -0.4787   -0.5228   -0.4828 C   0  0  0  0  0  0  0  0  0  0  0  0
    0.9079   -0.6033   -0.4466 C   0  0  0  0  0  0  0  0  0  0  0  0
    1.6106    0.0420    0.5766 C   0  0  0  0  0  0  0  0  0  0  0  0
    0.9374    0.7682    1.5550 C   0  0  0  0  0  0  0  0  0  0  0  0
   -0.4567    0.8618    1.5181 C   0  0  0  0  0  0  0  0  0  0  0  0
   -1.1686    0.2146    0.4959 C   0  0  0  0  0  0  0  0  0  0  0  0
   -1.0509   -1.0243   -1.2618 H   0  0  0  0  0  0  0  0  0  0  0  0
    1.4539   -1.1754   -1.1959 H   0  0  0  0  0  0  0  0  0  0  0  0
    1.5006    1.2580    2.3482 H   0  0  0  0  0  0  0  0  0  0  0  0
   -0.9690    1.4328    2.2879 H   0  0  0  0  0  0  0  0  0  0  0  0
    0.9112    2.2512   -2.6316 N   0  0  0  0  0  0  0  0  0  0  0  0
    1.5639    2.1528   -3.5172 N   0  0  0  0  0  0  0  0  0  0  0  0
   -2.5250    0.2367    0.3691 O   0  0  0  0  0  0  0  0  0  0  0  0
   -3.2841    0.9698    1.3272 C   0  0  0  0  0  0  0  0  0  0  0  0
   -4.3299    0.8521    1.0288 H   0  0  0  0  0  0  0  0  0  0  0  0
   -3.0162    2.0372    1.3140 H   0  0  0  0  0  0  0  0  0  0  0  0
   -3.1437    0.5640    2.3407 H   0  0  0  0  0  0  0  0  0  0  0  0
    4.9731    0.7341    0.1645 O   0  0  0  0  0  0  0  0  0  0  0  0
    3.7995    0.9741    0.1153 N   0  0  0  0  0  0  0  0  0  0  0  0
    2.9903   -0.1432    0.6631 O   0  0  0  0  0  0  0  0  0  0  0  0
    3.2050    1.9424   -0.2804 O   0  0  0  0  0  0  0  0  0  0  0  0
  1  2  2  0  0  0  0
  1  6  1  0  0  0  0
  2  3  1  0  0  0  0
  3 20  1  0  0  0  0
  3  4  2  0  0  0  0
  4  9  1  0  0  0  0
  5  4  1  0  0  0  0
  5 10  1  0  0  0  0
  6  5  2  0  0  0  0
  7  1  1  0  0  0  0
  8  2  1  0  0  0  0
 12 11  3  0  0  0  0
 13  6  1  0  0  0  0
 13 14  1  0  0  0  0
 14 17  1  0  0  0  0
 15 14  1  0  0  0  0
 16 14  1  0  0  0  0
 19 18  2  0  0  0  0
 19 20  1  0  0  0  0
 21 19  2  0  0  0  0
M  END
