Coordinates from ORCA-job p-CH3O-Ph-N2-NO3-B3LYPG-aug-cc-pVDZ-scan-d09-49-n400
 OpenBabel11111914563D

 21 20  0  0  0  0  0  0  0  0999 V2000
   -0.4329   -0.4737   -0.4558 C   0  0  0  0  0  0  0  0  0  0  0  0
    0.9503   -0.5730   -0.3762 C   0  0  0  0  0  0  0  0  0  0  0  0
    1.6249    0.0228    0.6952 C   0  0  0  0  0  0  0  0  0  0  0  0
    0.9264    0.7161    1.6794 C   0  0  0  0  0  0  0  0  0  0  0  0
   -0.4661    0.8197    1.6054 C   0  0  0  0  0  0  0  0  0  0  0  0
   -1.1490    0.2254    0.5330 C   0  0  0  0  0  0  0  0  0  0  0  0
   -0.9835   -0.9324   -1.2757 H   0  0  0  0  0  0  0  0  0  0  0  0
    1.5146   -1.1158   -1.1337 H   0  0  0  0  0  0  0  0  0  0  0  0
    1.4696    1.1686    2.5081 H   0  0  0  0  0  0  0  0  0  0  0  0
   -0.9986    1.3603    2.3834 H   0  0  0  0  0  0  0  0  0  0  0  0
    0.8414    2.4945   -3.1156 N   0  0  0  0  0  0  0  0  0  0  0  0
    1.3962    2.2434   -4.0369 N   0  0  0  0  0  0  0  0  0  0  0  0
   -2.5001    0.2654    0.3629 O   0  0  0  0  0  0  0  0  0  0  0  0
   -3.2847    0.9637    1.3267 C   0  0  0  0  0  0  0  0  0  0  0  0
   -4.3210    0.8686    0.9895 H   0  0  0  0  0  0  0  0  0  0  0  0
   -3.0080    2.0280    1.3685 H   0  0  0  0  0  0  0  0  0  0  0  0
   -3.1810    0.5132    2.3256 H   0  0  0  0  0  0  0  0  0  0  0  0
    4.9910    0.6948    0.2969 O   0  0  0  0  0  0  0  0  0  0  0  0
    3.8169    0.9000    0.1680 N   0  0  0  0  0  0  0  0  0  0  0  0
    3.0013   -0.1558    0.8237 O   0  0  0  0  0  0  0  0  0  0  0  0
    3.2230    1.7888   -0.3839 O   0  0  0  0  0  0  0  0  0  0  0  0
  1  2  2  0  0  0  0
  1  6  1  0  0  0  0
  2  3  1  0  0  0  0
  3 20  1  0  0  0  0
  3  4  2  0  0  0  0
  4  9  1  0  0  0  0
  5  4  1  0  0  0  0
  5 10  1  0  0  0  0
  6  5  2  0  0  0  0
  7  1  1  0  0  0  0
  8  2  1  0  0  0  0
 12 11  3  0  0  0  0
 13  6  1  0  0  0  0
 13 14  1  0  0  0  0
 14 16  1  0  0  0  0
 14 17  1  0  0  0  0
 15 14  1  0  0  0  0
 19 18  2  0  0  0  0
 19 20  1  0  0  0  0
 21 19  2  0  0  0  0
M  END
