Coordinates from ORCA-job p-CH3O-Ph-N2-NO3-B3LYPG-aug-cc-pVDZ-scan-d09-49-n400
 OpenBabel11111914563D

 21 20  0  0  0  0  0  0  0  0999 V2000
   -0.5886   -0.6411   -0.4952 C   0  0  0  0  0  0  0  0  0  0  0  0
    0.7983   -0.6694   -0.5727 C   0  0  0  0  0  0  0  0  0  0  0  0
    1.5571    0.1023    0.3150 C   0  0  0  0  0  0  0  0  0  0  0  0
    0.9396    0.8909    1.2820 C   0  0  0  0  0  0  0  0  0  0  0  0
   -0.4565    0.9434    1.3425 C   0  0  0  0  0  0  0  0  0  0  0  0
   -1.2254    0.1754    0.4551 C   0  0  0  0  0  0  0  0  0  0  0  0
   -1.1996   -1.2418   -1.1673 H   0  0  0  0  0  0  0  0  0  0  0  0
    1.3056   -1.2950   -1.3059 H   0  0  0  0  0  0  0  0  0  0  0  0
    1.5340    1.4716    1.9832 H   0  0  0  0  0  0  0  0  0  0  0  0
   -0.9247    1.5751    2.0928 H   0  0  0  0  0  0  0  0  0  0  0  0
    1.1447    2.0017   -2.0555 N   0  0  0  0  0  0  0  0  0  0  0  0
    1.9371    2.0258   -2.8255 N   0  0  0  0  0  0  0  0  0  0  0  0
   -2.5885    0.1470    0.4406 O   0  0  0  0  0  0  0  0  0  0  0  0
   -3.2922    0.9512    1.3832 C   0  0  0  0  0  0  0  0  0  0  0  0
   -4.3542    0.7760    1.1877 H   0  0  0  0  0  0  0  0  0  0  0  0
   -3.0643    2.0189    1.2437 H   0  0  0  0  0  0  0  0  0  0  0  0
   -3.0553    0.6532    2.4160 H   0  0  0  0  0  0  0  0  0  0  0  0
    4.9474    0.7760   -0.0094 O   0  0  0  0  0  0  0  0  0  0  0  0
    3.7962    1.0875    0.1238 N   0  0  0  0  0  0  0  0  0  0  0  0
    2.9413   -0.0992    0.2691 O   0  0  0  0  0  0  0  0  0  0  0  0
    3.2784    2.1732    0.1852 O   0  0  0  0  0  0  0  0  0  0  0  0
  1  6  1  0  0  0  0
  2  1  2  0  0  0  0
  2  3  1  0  0  0  0
  3  4  2  0  0  0  0
  4  5  1  0  0  0  0
  4  9  1  0  0  0  0
  5 10  1  0  0  0  0
  6  5  2  0  0  0  0
  7  1  1  0  0  0  0
  8  2  1  0  0  0  0
 12 11  3  0  0  0  0
 13  6  1  0  0  0  0
 13 14  1  0  0  0  0
 14 17  1  0  0  0  0
 15 14  1  0  0  0  0
 16 14  1  0  0  0  0
 18 19  2  0  0  0  0
 19 21  2  0  0  0  0
 19 20  1  0  0  0  0
 20  3  1  0  0  0  0
M  END
