Coordinates from ORCA-job p-CH3O-Ph-N2-NO3-B3LYPG-aug-cc-pVDZ-scan-d09-49-n400
 OpenBabel11111914563D

 21 20  0  0  0  0  0  0  0  0999 V2000
   -0.4818   -0.5267   -0.4835 C   0  0  0  0  0  0  0  0  0  0  0  0
    0.9050   -0.6060   -0.4503 C   0  0  0  0  0  0  0  0  0  0  0  0
    1.6095    0.0428    0.5695 C   0  0  0  0  0  0  0  0  0  0  0  0
    0.9380    0.7714    1.5473 C   0  0  0  0  0  0  0  0  0  0  0  0
   -0.4562    0.8642    1.5129 C   0  0  0  0  0  0  0  0  0  0  0  0
   -1.1700    0.2134    0.4943 C   0  0  0  0  0  0  0  0  0  0  0  0
   -1.0554   -1.0313   -1.2595 H   0  0  0  0  0  0  0  0  0  0  0  0
    1.4498   -1.1800   -1.1988 H   0  0  0  0  0  0  0  0  0  0  0  0
    1.5024    1.2638    2.3380 H   0  0  0  0  0  0  0  0  0  0  0  0
   -0.9672    1.4375    2.2819 H   0  0  0  0  0  0  0  0  0  0  0  0
    0.9162    2.2413   -2.6104 N   0  0  0  0  0  0  0  0  0  0  0  0
    1.5743    2.1508   -3.4927 N   0  0  0  0  0  0  0  0  0  0  0  0
   -2.5267    0.2342    0.3705 O   0  0  0  0  0  0  0  0  0  0  0  0
   -3.2841    0.9699    1.3280 C   0  0  0  0  0  0  0  0  0  0  0  0
   -4.3305    0.8506    1.0323 H   0  0  0  0  0  0  0  0  0  0  0  0
   -3.0169    2.0373    1.3108 H   0  0  0  0  0  0  0  0  0  0  0  0
   -3.1412    0.5674    2.3424 H   0  0  0  0  0  0  0  0  0  0  0  0
    4.9721    0.7354    0.1577 O   0  0  0  0  0  0  0  0  0  0  0  0
    3.7988    0.9780    0.1143 N   0  0  0  0  0  0  0  0  0  0  0  0
    2.9893   -0.1431    0.6531 O   0  0  0  0  0  0  0  0  0  0  0  0
    3.2052    1.9517   -0.2694 O   0  0  0  0  0  0  0  0  0  0  0  0
  1  2  2  0  0  0  0
  1  6  1  0  0  0  0
  2  3  1  0  0  0  0
  3 20  1  0  0  0  0
  3  4  2  0  0  0  0
  4  9  1  0  0  0  0
  5  4  1  0  0  0  0
  5 10  1  0  0  0  0
  6  5  2  0  0  0  0
  7  1  1  0  0  0  0
  8  2  1  0  0  0  0
 12 11  3  0  0  0  0
 13  6  1  0  0  0  0
 13 14  1  0  0  0  0
 14 17  1  0  0  0  0
 15 14  1  0  0  0  0
 16 14  1  0  0  0  0
 19 18  2  0  0  0  0
 19 20  1  0  0  0  0
 21 19  2  0  0  0  0
M  END
