Coordinates from ORCA-job p-CH3O-Ph-N2-NO3-B3LYPG-aug-cc-pVDZ-scan-d09-49-n400
 OpenBabel11111914563D

 21 21  0  0  1  0  0  0  0  0999 V2000
   -0.8647   -0.3601   -1.1096 C   0  0  0  0  0  0  0  0  0  0  0  0
    0.1580    0.0006   -1.9006 C   0  0  0  0  0  0  0  0  0  0  0  0
    1.1816    1.0119   -1.4669 C   0  0  0  0  0  0  0  0  0  0  0  0
    1.1686    1.3157    0.0748 C   0  0  1  0  0  0  0  0  0  0  0  0
   -0.1229    1.0589    0.7595 C   0  0  0  0  0  0  0  0  0  0  0  0
   -1.0472    0.2313    0.2133 C   0  0  0  0  0  0  0  0  0  0  0  0
   -1.6076   -1.0816   -1.4470 H   0  0  0  0  0  0  0  0  0  0  0  0
    0.2957   -0.3984   -2.9057 H   0  0  0  0  0  0  0  0  0  0  0  0
    1.5280    2.3394    0.2185 H   0  0  0  0  0  0  0  0  0  0  0  0
   -0.2604    1.5337    1.7263 H   0  0  0  0  0  0  0  0  0  0  0  0
    1.8020    1.4181   -2.0283 N   0  0  0  0  0  0  0  0  0  0  0  0
    2.5888    1.9378   -2.7394 N   0  0  0  0  0  0  0  0  0  0  0  0
   -2.2275   -0.1237    0.7751 O   0  0  0  0  0  0  0  0  0  0  0  0
   -2.5240    0.3819    2.0780 C   0  0  0  0  0  0  0  0  0  0  0  0
   -3.4944   -0.0437    2.3479 H   0  0  0  0  0  0  0  0  0  0  0  0
   -2.5887    1.4797    2.0643 H   0  0  0  0  0  0  0  0  0  0  0  0
   -1.7596    0.0630    2.8014 H   0  0  0  0  0  0  0  0  0  0  0  0
    2.4368    1.8202    2.3097 O   0  0  0  0  0  0  0  0  0  0  0  0
    2.8358    0.7973    1.7903 N   0  0  0  0  0  0  0  0  0  0  0  0
    3.6775    0.0257    2.1699 O   0  0  0  0  0  0  0  0  0  0  0  0
    2.2549    0.4151    0.5569 O   0  0  0  0  0  0  0  0  0  0  0  0
  1  6  2  0  0  0  0
  2  3  2  0  0  0  0
  2  1  1  0  0  0  0
  3  4  1  0  0  0  0
  4  9  1  1  0  0  0
  4 21  1  0  0  0  0
  4  5  1  0  0  0  0
  5 10  1  0  0  0  0
  6  5  1  0  0  0  0
  6 13  1  0  0  0  0
  7  1  1  0  0  0  0
  8  2  1  0  0  0  0
 11  3  1  0  0  0  0
 12 11  1  0  0  0  0
 13 14  1  0  0  0  0
 14 15  1  0  0  0  0
 14 17  1  0  0  0  0
 16 14  1  0  0  0  0
 19 20  2  0  0  0  0
 19 18  2  0  0  0  0
 21 19  1  0  0  0  0
M  RAD  3   5   2  11   2  12   3
M  END
