Coordinates from ORCA-job p-CH3O-Ph-N2-NO3-B3LYPG-aug-cc-pVDZ-scan-d09-49-n400
 OpenBabel11111914563D

 21 21  0  0  1  0  0  0  0  0999 V2000
   -0.9296   -0.3395   -1.1312 C   0  0  0  0  0  0  0  0  0  0  0  0
    0.1075    0.0353   -1.9175 C   0  0  0  0  0  0  0  0  0  0  0  0
    1.0948    0.9550   -1.4030 C   0  0  0  0  0  0  0  0  0  0  0  0
    1.1409    1.3237    0.0473 C   0  0  1  0  0  0  0  0  0  0  0  0
   -0.1403    1.0562    0.7448 C   0  0  0  0  0  0  0  0  0  0  0  0
   -1.0733    0.2258    0.2013 C   0  0  0  0  0  0  0  0  0  0  0  0
   -1.6925   -1.0303   -1.4830 H   0  0  0  0  0  0  0  0  0  0  0  0
    0.2133   -0.3318   -2.9376 H   0  0  0  0  0  0  0  0  0  0  0  0
    1.5121    2.3382    0.2136 H   0  0  0  0  0  0  0  0  0  0  0  0
   -0.2645    1.5110    1.7218 H   0  0  0  0  0  0  0  0  0  0  0  0
    2.0101    1.4307   -2.1792 N   0  0  0  0  0  0  0  0  0  0  0  0
    2.8217    1.8586   -2.8566 N   0  0  0  0  0  0  0  0  0  0  0  0
   -2.2384   -0.1381    0.7953 O   0  0  0  0  0  0  0  0  0  0  0  0
   -2.4972    0.3452    2.1133 C   0  0  0  0  0  0  0  0  0  0  0  0
   -3.4568   -0.0902    2.4061 H   0  0  0  0  0  0  0  0  0  0  0  0
   -2.5690    1.4428    2.1208 H   0  0  0  0  0  0  0  0  0  0  0  0
   -1.7103    0.0203    2.8096 H   0  0  0  0  0  0  0  0  0  0  0  0
    2.3762    1.8619    2.3270 O   0  0  0  0  0  0  0  0  0  0  0  0
    2.7991    0.8309    1.8321 N   0  0  0  0  0  0  0  0  0  0  0  0
    3.6553    0.0919    2.2570 O   0  0  0  0  0  0  0  0  0  0  0  0
    2.2712    0.4251    0.6062 O   0  0  0  0  0  0  0  0  0  0  0  0
  1  6  2  0  0  0  0
  2  3  2  0  0  0  0
  2  1  1  0  0  0  0
  3  4  1  0  0  0  0
  4  9  1  1  0  0  0
  4 21  1  0  0  0  0
  4  5  1  0  0  0  0
  5 10  1  0  0  0  0
  6  5  1  0  0  0  0
  6 13  1  0  0  0  0
  7  1  1  0  0  0  0
  8  2  1  0  0  0  0
 11  3  1  0  0  0  0
 12 11  1  0  0  0  0
 13 14  1  0  0  0  0
 14 16  1  0  0  0  0
 14 15  1  0  0  0  0
 14 17  1  0  0  0  0
 19 20  2  0  0  0  0
 19 18  2  0  0  0  0
 21 19  1  0  0  0  0
M  RAD  3   5   2  11   2  12   3
M  END
