Coordinates from ORCA-job p-CH3O-Ph-N2-NO3-B3LYPG-aug-cc-pVDZ-scan-d09-49-n400
 OpenBabel11111914563D

 21 21  0  0  1  0  0  0  0  0999 V2000
   -0.9320   -0.3385   -1.1322 C   0  0  0  0  0  0  0  0  0  0  0  0
    0.1056    0.0367   -1.9187 C   0  0  0  0  0  0  0  0  0  0  0  0
    1.0912    0.9539   -1.4012 C   0  0  0  0  0  0  0  0  0  0  0  0
    1.1399    1.3250    0.0461 C   0  0  1  0  0  0  0  0  0  0  0  0
   -0.1408    1.0566    0.7440 C   0  0  0  0  0  0  0  0  0  0  0  0
   -1.0740    0.2258    0.2004 C   0  0  0  0  0  0  0  0  0  0  0  0
   -1.6956   -1.0284   -1.4844 H   0  0  0  0  0  0  0  0  0  0  0  0
    0.2107   -0.3289   -2.9393 H   0  0  0  0  0  0  0  0  0  0  0  0
    1.5118    2.3391    0.2131 H   0  0  0  0  0  0  0  0  0  0  0  0
   -0.2647    1.5106    1.7213 H   0  0  0  0  0  0  0  0  0  0  0  0
    2.0159    1.4292   -2.1831 N   0  0  0  0  0  0  0  0  0  0  0  0
    2.8291    1.8536   -2.8594 N   0  0  0  0  0  0  0  0  0  0  0  0
   -2.2383   -0.1386    0.7960 O   0  0  0  0  0  0  0  0  0  0  0  0
   -2.4955    0.3437    2.1146 C   0  0  0  0  0  0  0  0  0  0  0  0
   -3.4544   -0.0925    2.4085 H   0  0  0  0  0  0  0  0  0  0  0  0
   -2.5679    1.4413    2.1230 H   0  0  0  0  0  0  0  0  0  0  0  0
   -1.7075    0.0188    2.8097 H   0  0  0  0  0  0  0  0  0  0  0  0
    2.3717    1.8619    2.3290 O   0  0  0  0  0  0  0  0  0  0  0  0
    2.8004    0.8342    1.8318 N   0  0  0  0  0  0  0  0  0  0  0  0
    3.6520    0.0927    2.2620 O   0  0  0  0  0  0  0  0  0  0  0  0
    2.2730    0.4265    0.6072 O   0  0  0  0  0  0  0  0  0  0  0  0
  1  6  2  0  0  0  0
  2  3  2  0  0  0  0
  2  1  1  0  0  0  0
  3  4  1  0  0  0  0
  4  9  1  1  0  0  0
  4 21  1  0  0  0  0
  4  5  1  0  0  0  0
  5 10  1  0  0  0  0
  6  5  1  0  0  0  0
  6 13  1  0  0  0  0
  7  1  1  0  0  0  0
  8  2  1  0  0  0  0
 11  3  1  0  0  0  0
 12 11  1  0  0  0  0
 13 14  1  0  0  0  0
 14 16  1  0  0  0  0
 14 15  1  0  0  0  0
 14 17  1  0  0  0  0
 19 20  2  0  0  0  0
 19 18  2  0  0  0  0
 21 19  1  0  0  0  0
M  RAD  3   5   2  11   2  12   3
M  END
