Coordinates from ORCA-job p-CH3O-Ph-N2-NO3-B3LYPG-aug-cc-pVDZ-scan-d09-49-n400
 OpenBabel11111914563D

 21 20  0  0  0  0  0  0  0  0999 V2000
   -0.6306   -0.6784   -0.4985 C   0  0  0  0  0  0  0  0  0  0  0  0
    0.7499   -0.6672   -0.6358 C   0  0  0  0  0  0  0  0  0  0  0  0
    1.5204    0.1970    0.1528 C   0  0  0  0  0  0  0  0  0  0  0  0
    0.9254    0.9862    1.1332 C   0  0  0  0  0  0  0  0  0  0  0  0
   -0.4690    0.9912    1.2549 C   0  0  0  0  0  0  0  0  0  0  0  0
   -1.2536    0.1668    0.4364 C   0  0  0  0  0  0  0  0  0  0  0  0
   -1.2480   -1.3350   -1.1096 H   0  0  0  0  0  0  0  0  0  0  0  0
    1.2455   -1.3128   -1.3592 H   0  0  0  0  0  0  0  0  0  0  0  0
    1.5211    1.6159    1.7857 H   0  0  0  0  0  0  0  0  0  0  0  0
   -0.9224    1.6339    2.0049 H   0  0  0  0  0  0  0  0  0  0  0  0
    1.2501    1.8575   -1.7557 N   0  0  0  0  0  0  0  0  0  0  0  0
    2.0829    1.9273   -2.4806 N   0  0  0  0  0  0  0  0  0  0  0  0
   -2.6145    0.0997    0.4811 O   0  0  0  0  0  0  0  0  0  0  0  0
   -3.3012    0.9261    1.4171 C   0  0  0  0  0  0  0  0  0  0  0  0
   -4.3652    0.7169    1.2724 H   0  0  0  0  0  0  0  0  0  0  0  0
   -3.1066    1.9920    1.2238 H   0  0  0  0  0  0  0  0  0  0  0  0
   -3.0159    0.6785    2.4510 H   0  0  0  0  0  0  0  0  0  0  0  0
    4.9546    0.7482   -0.0552 O   0  0  0  0  0  0  0  0  0  0  0  0
    3.8222    1.1025    0.1334 N   0  0  0  0  0  0  0  0  0  0  0  0
    2.9034   -0.0127    0.0173 O   0  0  0  0  0  0  0  0  0  0  0  0
    3.3822    2.1891    0.4189 O   0  0  0  0  0  0  0  0  0  0  0  0
  1  6  1  0  0  0  0
  2  1  2  0  0  0  0
  2  3  1  0  0  0  0
  3  4  2  0  0  0  0
  4  5  1  0  0  0  0
  4  9  1  0  0  0  0
  5 10  1  0  0  0  0
  6 13  1  0  0  0  0
  6  5  2  0  0  0  0
  7  1  1  0  0  0  0
  8  2  1  0  0  0  0
 12 11  3  0  0  0  0
 13 14  1  0  0  0  0
 14 17  1  0  0  0  0
 15 14  1  0  0  0  0
 16 14  1  0  0  0  0
 18 19  2  0  0  0  0
 19 21  2  0  0  0  0
 20 19  1  0  0  0  0
 20  3  1  0  0  0  0
M  END
