Coordinates from ORCA-job p-CH3O-Ph-N2-NO3-B3LYPG-aug-cc-pVDZ-scan-d09-49-n400
 OpenBabel11111914563D

 21 20  0  0  0  0  0  0  0  0999 V2000
   -1.1257   -0.3619   -0.9378 C   0  0  0  0  0  0  0  0  0  0  0  0
    0.1276   -0.1387   -1.4892 C   0  0  0  0  0  0  0  0  0  0  0  0
    0.9814    0.7069   -0.7820 C   0  0  0  0  0  0  0  0  0  0  0  0
    0.6809    1.3318    0.4108 C   0  0  0  0  0  0  0  0  0  0  0  0
   -0.5866    1.0995    0.9478 C   0  0  0  0  0  0  0  0  0  0  0  0
   -1.4900    0.2524    0.2798 C   0  0  0  0  0  0  0  0  0  0  0  0
   -1.8419   -1.0155   -1.4326 H   0  0  0  0  0  0  0  0  0  0  0  0
    0.4291   -0.6068   -2.4233 H   0  0  0  0  0  0  0  0  0  0  0  0
    1.4205    1.9676    0.8896 H   0  0  0  0  0  0  0  0  0  0  0  0
   -0.8500    1.5772    1.8870 H   0  0  0  0  0  0  0  0  0  0  0  0
    2.3935    0.9540   -1.4505 N   0  0  0  0  0  0  0  0  0  0  0  0
    3.0256    0.8058   -2.3623 N   0  0  0  0  0  0  0  0  0  0  0  0
   -2.7329   -0.0384    0.7232 O   0  0  0  0  0  0  0  0  0  0  0  0
   -3.1760    0.5315    1.9595 C   0  0  0  0  0  0  0  0  0  0  0  0
   -4.1910    0.1532    2.1071 H   0  0  0  0  0  0  0  0  0  0  0  0
   -3.1949    1.6292    1.9009 H   0  0  0  0  0  0  0  0  0  0  0  0
   -2.5351    0.2080    2.7920 H   0  0  0  0  0  0  0  0  0  0  0  0
    4.9395    1.5621    1.5809 O   0  0  0  0  0  0  0  0  0  0  0  0
    4.0443    1.1677    0.8386 N   0  0  0  0  0  0  0  0  0  0  0  0
    3.6713   -0.0180    0.7614 O   0  0  0  0  0  0  0  0  0  0  0  0
    3.4408    2.0553    0.0873 O   0  0  0  0  0  0  0  0  0  0  0  0
  1  6  1  0  0  0  0
  2  1  2  0  0  0  0
  2  3  1  0  0  0  0
  3  4  2  0  0  0  0
  4  9  1  0  0  0  0
  4  5  1  0  0  0  0
  5 10  1  0  0  0  0
  6 13  1  0  0  0  0
  6  5  2  0  0  0  0
  7  1  1  0  0  0  0
  8  2  1  0  0  0  0
 11  3  1  0  0  0  0
 12 11  2  0  0  0  0
 13 14  1  0  0  0  0
 14 15  1  0  0  0  0
 14 17  1  0  0  0  0
 16 14  1  0  0  0  0
 19 18  2  0  0  0  0
 20 19  1  0  0  0  0
 21 19  2  0  0  0  0
M  RAD  2  12   2  20   2
M  END
