Coordinates from ORCA-job p-CH3O-Ph-N2-NO3-B3LYPG-aug-cc-pVDZ-scan-d09-49-n400
 OpenBabel11111914563D

 21 20  0  0  0  0  0  0  0  0999 V2000
   -0.4648   -0.5058   -0.4783 C   0  0  0  0  0  0  0  0  0  0  0  0
    0.9210   -0.5919   -0.4289 C   0  0  0  0  0  0  0  0  0  0  0  0
    1.6155    0.0379    0.6096 C   0  0  0  0  0  0  0  0  0  0  0  0
    0.9346    0.7537    1.5903 C   0  0  0  0  0  0  0  0  0  0  0  0
   -0.4591    0.8502    1.5423 C   0  0  0  0  0  0  0  0  0  0  0  0
   -1.1625    0.2195    0.5042 C   0  0  0  0  0  0  0  0  0  0  0  0
   -1.0307   -0.9941   -1.2702 H   0  0  0  0  0  0  0  0  0  0  0  0
    1.4724   -1.1548   -1.1811 H   0  0  0  0  0  0  0  0  0  0  0  0
    1.4921    1.2318    2.3947 H   0  0  0  0  0  0  0  0  0  0  0  0
   -0.9775    1.4116    2.3152 H   0  0  0  0  0  0  0  0  0  0  0  0
    0.8895    2.3034   -2.7394 N   0  0  0  0  0  0  0  0  0  0  0  0
    1.5157    2.1661   -3.6387 N   0  0  0  0  0  0  0  0  0  0  0  0
   -2.5174    0.2469    0.3642 O   0  0  0  0  0  0  0  0  0  0  0  0
   -3.2841    0.9691    1.3246 C   0  0  0  0  0  0  0  0  0  0  0  0
   -4.3273    0.8584    1.0141 H   0  0  0  0  0  0  0  0  0  0  0  0
   -3.0133    2.0357    1.3286 H   0  0  0  0  0  0  0  0  0  0  0  0
   -3.1550    0.5491    2.3337 H   0  0  0  0  0  0  0  0  0  0  0  0
    4.9777    0.7266    0.1971 O   0  0  0  0  0  0  0  0  0  0  0  0
    3.8032    0.9550    0.1227 N   0  0  0  0  0  0  0  0  0  0  0  0
    2.9943   -0.1442    0.7087 O   0  0  0  0  0  0  0  0  0  0  0  0
    3.2062    1.8986   -0.3251 O   0  0  0  0  0  0  0  0  0  0  0  0
  1  2  2  0  0  0  0
  1  6  1  0  0  0  0
  2  3  1  0  0  0  0
  3 20  1  0  0  0  0
  3  4  2  0  0  0  0
  4  9  1  0  0  0  0
  5  4  1  0  0  0  0
  5 10  1  0  0  0  0
  6  5  2  0  0  0  0
  7  1  1  0  0  0  0
  8  2  1  0  0  0  0
 12 11  3  0  0  0  0
 13  6  1  0  0  0  0
 13 14  1  0  0  0  0
 14 16  1  0  0  0  0
 14 17  1  0  0  0  0
 15 14  1  0  0  0  0
 19 18  2  0  0  0  0
 19 20  1  0  0  0  0
 21 19  2  0  0  0  0
M  END
