Coordinates from ORCA-job p-CH3O-Ph-N2-NO3-B3LYPG-aug-cc-pVDZ-scan-d09-49-n400
 OpenBabel11111914563D

 21 20  0  0  0  0  0  0  0  0999 V2000
   -0.5243   -0.5776   -0.4887 C   0  0  0  0  0  0  0  0  0  0  0  0
    0.8640   -0.6391   -0.4967 C   0  0  0  0  0  0  0  0  0  0  0  0
    1.5918    0.0559    0.4751 C   0  0  0  0  0  0  0  0  0  0  0  0
    0.9423    0.8141    1.4457 C   0  0  0  0  0  0  0  0  0  0  0  0
   -0.4528    0.8960    1.4457 C   0  0  0  0  0  0  0  0  0  0  0  0
   -1.1905    0.1966    0.4775 C   0  0  0  0  0  0  0  0  0  0  0  0
   -1.1149   -1.1204   -1.2250 H   0  0  0  0  0  0  0  0  0  0  0  0
    1.3931   -1.2373   -1.2376 H   0  0  0  0  0  0  0  0  0  0  0  0
    1.5217    1.3420    2.2014 H   0  0  0  0  0  0  0  0  0  0  0  0
   -0.9463    1.4967    2.2051 H   0  0  0  0  0  0  0  0  0  0  0  0
    0.9976    2.1406   -2.3824 N   0  0  0  0  0  0  0  0  0  0  0  0
    1.7189    2.1227   -3.2190 N   0  0  0  0  0  0  0  0  0  0  0  0
   -2.5508    0.1999    0.3948 O   0  0  0  0  0  0  0  0  0  0  0  0
   -3.2859    0.9662    1.3454 C   0  0  0  0  0  0  0  0  0  0  0  0
   -4.3398    0.8250    1.0879 H   0  0  0  0  0  0  0  0  0  0  0  0
   -3.0312    2.0347    1.2771 H   0  0  0  0  0  0  0  0  0  0  0  0
   -3.1072    0.6065    2.3701 H   0  0  0  0  0  0  0  0  0  0  0  0
    4.9592    0.7501    0.0768 O   0  0  0  0  0  0  0  0  0  0  0  0
    3.7928    1.0261    0.1135 N   0  0  0  0  0  0  0  0  0  0  0  0
    2.9735   -0.1392    0.5167 O   0  0  0  0  0  0  0  0  0  0  0  0
    3.2193    2.0633   -0.0949 O   0  0  0  0  0  0  0  0  0  0  0  0
  1  6  1  0  0  0  0
  2  1  2  0  0  0  0
  2  3  1  0  0  0  0
  3 20  1  0  0  0  0
  3  4  2  0  0  0  0
  4  9  1  0  0  0  0
  5  4  1  0  0  0  0
  5 10  1  0  0  0  0
  6  5  2  0  0  0  0
  7  1  1  0  0  0  0
  8  2  1  0  0  0  0
 12 11  3  0  0  0  0
 13  6  1  0  0  0  0
 13 14  1  0  0  0  0
 14 17  1  0  0  0  0
 15 14  1  0  0  0  0
 16 14  1  0  0  0  0
 18 19  2  0  0  0  0
 19 20  1  0  0  0  0
 21 19  2  0  0  0  0
M  END
