Coordinates from ORCA-job p-CH3O-Ph-N2-NO3-B3LYPG-aug-cc-pVDZ-scan-d09-49-n400
 OpenBabel11111914563D

 21 20  0  0  0  0  0  0  0  0999 V2000
   -0.4195   -0.4672   -0.4409 C   0  0  0  0  0  0  0  0  0  0  0  0
    0.9624   -0.5725   -0.3494 C   0  0  0  0  0  0  0  0  0  0  0  0
    1.6292    0.0110    0.7336 C   0  0  0  0  0  0  0  0  0  0  0  0
    0.9240    0.6977    1.7176 C   0  0  0  0  0  0  0  0  0  0  0  0
   -0.4675    0.8060    1.6326 C   0  0  0  0  0  0  0  0  0  0  0  0
   -1.1425    0.2245    0.5483 C   0  0  0  0  0  0  0  0  0  0  0  0
   -0.9642   -0.9154   -1.2705 H   0  0  0  0  0  0  0  0  0  0  0  0
    1.5315   -1.1094   -1.1074 H   0  0  0  0  0  0  0  0  0  0  0  0
    1.4615    1.1407    2.5552 H   0  0  0  0  0  0  0  0  0  0  0  0
   -1.0053    1.3407    2.4111 H   0  0  0  0  0  0  0  0  0  0  0  0
    0.8029    2.6054   -3.3403 N   0  0  0  0  0  0  0  0  0  0  0  0
    1.3309    2.3058   -4.2628 N   0  0  0  0  0  0  0  0  0  0  0  0
   -2.4919    0.2705    0.3663 O   0  0  0  0  0  0  0  0  0  0  0  0
   -3.2830    0.9619    1.3297 C   0  0  0  0  0  0  0  0  0  0  0  0
   -4.3165    0.8733    0.9823 H   0  0  0  0  0  0  0  0  0  0  0  0
   -3.0035    2.0249    1.3842 H   0  0  0  0  0  0  0  0  0  0  0  0
   -3.1897    0.5016    2.3251 H   0  0  0  0  0  0  0  0  0  0  0  0
    4.9999    0.6701    0.3558 O   0  0  0  0  0  0  0  0  0  0  0  0
    3.8275    0.8731    0.2096 N   0  0  0  0  0  0  0  0  0  0  0  0
    3.0039   -0.1709    0.8745 O   0  0  0  0  0  0  0  0  0  0  0  0
    3.2402    1.7509   -0.3662 O   0  0  0  0  0  0  0  0  0  0  0  0
  1  2  2  0  0  0  0
  1  6  1  0  0  0  0
  2  3  1  0  0  0  0
  3 20  1  0  0  0  0
  3  4  2  0  0  0  0
  4  9  1  0  0  0  0
  5  4  1  0  0  0  0
  5 10  1  0  0  0  0
  6  5  2  0  0  0  0
  7  1  1  0  0  0  0
  8  2  1  0  0  0  0
 12 11  3  0  0  0  0
 13  6  1  0  0  0  0
 13 14  1  0  0  0  0
 14 16  1  0  0  0  0
 14 17  1  0  0  0  0
 15 14  1  0  0  0  0
 19 18  2  0  0  0  0
 19 20  1  0  0  0  0
 21 19  2  0  0  0  0
M  END
