Coordinates from ORCA-job p-CH3O-Ph-N2-NO3-B3LYPG-aug-cc-pVDZ-scan-d09-49-n400
 OpenBabel11111914563D

 21 20  0  0  0  0  0  0  0  0999 V2000
   -0.5747   -0.6296   -0.4932 C   0  0  0  0  0  0  0  0  0  0  0  0
    0.8130   -0.6674   -0.5543 C   0  0  0  0  0  0  0  0  0  0  0  0
    1.5662    0.0843    0.3550 C   0  0  0  0  0  0  0  0  0  0  0  0
    0.9420    0.8685    1.3215 C   0  0  0  0  0  0  0  0  0  0  0  0
   -0.4539    0.9308    1.3669 C   0  0  0  0  0  0  0  0  0  0  0  0
   -1.2169    0.1788    0.4605 C   0  0  0  0  0  0  0  0  0  0  0  0
   -1.1822   -1.2161   -1.1807 H   0  0  0  0  0  0  0  0  0  0  0  0
    1.3245   -1.2873   -1.2894 H   0  0  0  0  0  0  0  0  0  0  0  0
    1.5344    1.4369    2.0350 H   0  0  0  0  0  0  0  0  0  0  0  0
   -0.9270    1.5573    2.1184 H   0  0  0  0  0  0  0  0  0  0  0  0
    1.1103    2.0351   -2.1349 N   0  0  0  0  0  0  0  0  0  0  0  0
    1.8890    2.0566   -2.9186 N   0  0  0  0  0  0  0  0  0  0  0  0
   -2.5798    0.1598    0.4295 O   0  0  0  0  0  0  0  0  0  0  0  0
   -3.2896    0.9573    1.3734 C   0  0  0  0  0  0  0  0  0  0  0  0
   -4.3503    0.7912    1.1632 H   0  0  0  0  0  0  0  0  0  0  0  0
   -3.0534    2.0250    1.2494 H   0  0  0  0  0  0  0  0  0  0  0  0
   -3.0669    0.6454    2.4053 H   0  0  0  0  0  0  0  0  0  0  0  0
    4.9476    0.7764    0.0088 O   0  0  0  0  0  0  0  0  0  0  0  0
    3.7919    1.0778    0.1215 N   0  0  0  0  0  0  0  0  0  0  0  0
    2.9500   -0.1141    0.3299 O   0  0  0  0  0  0  0  0  0  0  0  0
    3.2562    2.1562    0.1209 O   0  0  0  0  0  0  0  0  0  0  0  0
  1  6  1  0  0  0  0
  2  1  2  0  0  0  0
  2  3  1  0  0  0  0
  3  4  2  0  0  0  0
  4  5  1  0  0  0  0
  4  9  1  0  0  0  0
  5 10  1  0  0  0  0
  6  5  2  0  0  0  0
  7  1  1  0  0  0  0
  8  2  1  0  0  0  0
 12 11  3  0  0  0  0
 13  6  1  0  0  0  0
 13 14  1  0  0  0  0
 14 17  1  0  0  0  0
 15 14  1  0  0  0  0
 16 14  1  0  0  0  0
 18 19  2  0  0  0  0
 19 20  1  0  0  0  0
 20  3  1  0  0  0  0
 21 19  2  0  0  0  0
M  END
