Coordinates from ORCA-job p-CH3O-Ph-N2-NO3-B3LYPG-aug-cc-pVDZ-scan-d09-49-n400
 OpenBabel11111914563D

 21 20  0  0  0  0  0  0  0  0999 V2000
   -0.4575   -0.4973   -0.4751 C   0  0  0  0  0  0  0  0  0  0  0  0
    0.9277   -0.5864   -0.4188 C   0  0  0  0  0  0  0  0  0  0  0  0
    1.6178    0.0354    0.6275 C   0  0  0  0  0  0  0  0  0  0  0  0
    0.9330    0.7458    1.6093 C   0  0  0  0  0  0  0  0  0  0  0  0
   -0.4605    0.8438    1.5555 C   0  0  0  0  0  0  0  0  0  0  0  0
   -1.1594    0.2217    0.5092 C   0  0  0  0  0  0  0  0  0  0  0  0
   -1.0201   -0.9787   -1.2735 H   0  0  0  0  0  0  0  0  0  0  0  0
    1.4820   -1.1446   -1.1725 H   0  0  0  0  0  0  0  0  0  0  0  0
    1.4873    1.2180    2.4194 H   0  0  0  0  0  0  0  0  0  0  0  0
   -0.9821    1.4002    2.3298 H   0  0  0  0  0  0  0  0  0  0  0  0
    0.8785    2.3360   -2.8055 N   0  0  0  0  0  0  0  0  0  0  0  0
    1.4898    2.1763   -3.7113 N   0  0  0  0  0  0  0  0  0  0  0  0
   -2.5135    0.2519    0.3624 O   0  0  0  0  0  0  0  0  0  0  0  0
   -3.2842    0.9684    1.3239 C   0  0  0  0  0  0  0  0  0  0  0  0
   -4.3259    0.8612    1.0073 H   0  0  0  0  0  0  0  0  0  0  0  0
   -3.0120    2.0346    1.3367 H   0  0  0  0  0  0  0  0  0  0  0  0
   -3.1609    0.5412    2.3307 H   0  0  0  0  0  0  0  0  0  0  0  0
    4.9803    0.7217    0.2160 O   0  0  0  0  0  0  0  0  0  0  0  0
    3.8056    0.9441    0.1288 N   0  0  0  0  0  0  0  0  0  0  0  0
    2.9962   -0.1454    0.7331 O   0  0  0  0  0  0  0  0  0  0  0  0
    3.2081    1.8748   -0.3446 O   0  0  0  0  0  0  0  0  0  0  0  0
  1  2  2  0  0  0  0
  1  6  1  0  0  0  0
  2  3  1  0  0  0  0
  3 20  1  0  0  0  0
  3  4  2  0  0  0  0
  4  9  1  0  0  0  0
  5  4  1  0  0  0  0
  5 10  1  0  0  0  0
  6  5  2  0  0  0  0
  7  1  1  0  0  0  0
  8  2  1  0  0  0  0
 12 11  3  0  0  0  0
 13  6  1  0  0  0  0
 13 14  1  0  0  0  0
 14 16  1  0  0  0  0
 14 17  1  0  0  0  0
 15 14  1  0  0  0  0
 19 18  2  0  0  0  0
 19 20  1  0  0  0  0
 21 19  2  0  0  0  0
M  END
