Coordinates from ORCA-job p-CH3O-Ph-N2-NO3-B3LYPG-aug-cc-pVDZ-scan-d09-49-n400
 OpenBabel11111914563D

 21 21  0  0  1  0  0  0  0  0999 V2000
   -0.9606   -0.3327   -1.1377 C   0  0  0  0  0  0  0  0  0  0  0  0
    0.0831    0.0486   -1.9237 C   0  0  0  0  0  0  0  0  0  0  0  0
    1.0408    0.9507   -1.3769 C   0  0  1  0  0  0  0  0  0  0  0  0
    1.1170    1.3415    0.0403 C   0  0  1  0  0  0  0  0  0  0  0  0
   -0.1570    1.0629    0.7371 C   0  0  0  0  0  0  0  0  0  0  0  0
   -1.0911    0.2251    0.1943 C   0  0  0  0  0  0  0  0  0  0  0  0
   -1.7258   -1.0182   -1.4933 H   0  0  0  0  0  0  0  0  0  0  0  0
    0.1913   -0.3075   -2.9467 H   0  0  0  0  0  0  0  0  0  0  0  0
    1.5045    2.3462    0.2187 H   0  0  0  0  0  0  0  0  0  0  0  0
   -0.2807    1.5117    1.7167 H   0  0  0  0  0  0  0  0  0  0  0  0
    2.1048    1.4290   -2.2404 N   0  0  0  0  0  0  0  0  0  0  0  0
    2.9366    1.8128   -2.9014 N   0  0  0  0  0  0  0  0  0  0  0  0
   -2.2474   -0.1450    0.8038 O   0  0  0  0  0  0  0  0  0  0  0  0
   -2.4910    0.3286    2.1278 C   0  0  0  0  0  0  0  0  0  0  0  0
   -3.4432   -0.1159    2.4312 H   0  0  0  0  0  0  0  0  0  0  0  0
   -2.5717    1.4256    2.1436 H   0  0  0  0  0  0  0  0  0  0  0  0
   -1.6926    0.0059    2.8118 H   0  0  0  0  0  0  0  0  0  0  0  0
    2.3580    1.8636    2.3420 O   0  0  0  0  0  0  0  0  0  0  0  0
    2.8026    0.8419    1.8399 N   0  0  0  0  0  0  0  0  0  0  0  0
    3.6691    0.1176    2.2763 O   0  0  0  0  0  0  0  0  0  0  0  0
    2.2838    0.4304    0.6247 O   0  0  0  0  0  0  0  0  0  0  0  0
  1  6  1  0  0  0  0
  2  3  1  0  0  0  0
  2  1  2  0  0  0  0
  3 11  1  1  0  0  0
  3  4  1  0  0  0  0
  4  9  1  1  0  0  0
  4 21  1  0  0  0  0
  4  5  1  0  0  0  0
  5 10  1  0  0  0  0
  6  5  2  0  0  0  0
  6 13  1  0  0  0  0
  7  1  1  0  0  0  0
  8  2  1  0  0  0  0
 12 11  1  0  0  0  0
 13 14  1  0  0  0  0
 14 16  1  0  0  0  0
 14 15  1  0  0  0  0
 14 17  1  0  0  0  0
 19 20  2  0  0  0  0
 19 18  2  0  0  0  0
 21 19  1  0  0  0  0
M  RAD  3   3   2  11   2  12   3
M  END
