Coordinates from ORCA-job p-CH3O-Ph-N2-NO3-B3LYPG-aug-cc-pVDZ-scan-d09-49-n400
 OpenBabel11111914563D

 21 21  0  0  1  0  0  0  0  0999 V2000
   -0.8720   -0.3570   -1.1133 C   0  0  0  0  0  0  0  0  0  0  0  0
    0.1528    0.0054   -1.9032 C   0  0  0  0  0  0  0  0  0  0  0  0
    1.1733    1.0023   -1.4582 C   0  0  0  0  0  0  0  0  0  0  0  0
    1.1670    1.3150    0.0688 C   0  0  1  0  0  0  0  0  0  0  0  0
   -0.1233    1.0579    0.7565 C   0  0  0  0  0  0  0  0  0  0  0  0
   -1.0494    0.2308    0.2111 C   0  0  0  0  0  0  0  0  0  0  0  0
   -1.6176   -1.0742   -1.4532 H   0  0  0  0  0  0  0  0  0  0  0  0
    0.2846   -0.3906   -2.9102 H   0  0  0  0  0  0  0  0  0  0  0  0
    1.5267    2.3378    0.2170 H   0  0  0  0  0  0  0  0  0  0  0  0
   -0.2574    1.5295    1.7250 H   0  0  0  0  0  0  0  0  0  0  0  0
    1.8233    1.4201   -2.0449 N   0  0  0  0  0  0  0  0  0  0  0  0
    2.6101    1.9296   -2.7519 N   0  0  0  0  0  0  0  0  0  0  0  0
   -2.2278   -0.1248    0.7771 O   0  0  0  0  0  0  0  0  0  0  0  0
   -2.5189    0.3779    2.0822 C   0  0  0  0  0  0  0  0  0  0  0  0
   -3.4883   -0.0481    2.3551 H   0  0  0  0  0  0  0  0  0  0  0  0
   -2.5835    1.4758    2.0714 H   0  0  0  0  0  0  0  0  0  0  0  0
   -1.7518    0.0573    2.8020 H   0  0  0  0  0  0  0  0  0  0  0  0
    2.4262    1.8267    2.3112 O   0  0  0  0  0  0  0  0  0  0  0  0
    2.8287    0.8020    1.7968 N   0  0  0  0  0  0  0  0  0  0  0  0
    3.6704    0.0338    2.1853 O   0  0  0  0  0  0  0  0  0  0  0  0
    2.2575    0.4156    0.5637 O   0  0  0  0  0  0  0  0  0  0  0  0
  1  6  2  0  0  0  0
  2  3  2  0  0  0  0
  2  1  1  0  0  0  0
  3  4  1  0  0  0  0
  4  9  1  1  0  0  0
  4 21  1  0  0  0  0
  4  5  1  0  0  0  0
  5 10  1  0  0  0  0
  6  5  1  0  0  0  0
  6 13  1  0  0  0  0
  7  1  1  0  0  0  0
  8  2  1  0  0  0  0
 11  3  1  0  0  0  0
 12 11  1  0  0  0  0
 13 14  1  0  0  0  0
 14 15  1  0  0  0  0
 14 17  1  0  0  0  0
 16 14  1  0  0  0  0
 19 20  2  0  0  0  0
 19 18  2  0  0  0  0
 21 19  1  0  0  0  0
M  RAD  3   5   2  11   2  12   3
M  END
