Coordinates from ORCA-job p-CH3O-Ph-N2-NO3-B3LYPG-aug-cc-pVDZ-scan-d09-49-n400
 OpenBabel11111914563D

 21 20  0  0  0  0  0  0  0  0999 V2000
   -1.1701   -0.3762   -0.9390 C   0  0  0  0  0  0  0  0  0  0  0  0
    0.0818   -0.1662   -1.5193 C   0  0  0  0  0  0  0  0  0  0  0  0
    0.8926    0.6747   -0.7932 C   0  0  0  0  0  0  0  0  0  0  0  0
    0.6703    1.3200    0.3853 C   0  0  0  0  0  0  0  0  0  0  0  0
   -0.5980    1.0896    0.9394 C   0  0  0  0  0  0  0  0  0  0  0  0
   -1.5115    0.2444    0.2816 C   0  0  0  0  0  0  0  0  0  0  0  0
   -1.8963   -1.0272   -1.4229 H   0  0  0  0  0  0  0  0  0  0  0  0
    0.3781   -0.6340   -2.4542 H   0  0  0  0  0  0  0  0  0  0  0  0
    1.4372    1.9477    0.8356 H   0  0  0  0  0  0  0  0  0  0  0  0
   -0.8450    1.5697    1.8821 H   0  0  0  0  0  0  0  0  0  0  0  0
    2.5350    0.9932   -1.5406 N   0  0  0  0  0  0  0  0  0  0  0  0
    3.1640    0.8461   -2.4477 N   0  0  0  0  0  0  0  0  0  0  0  0
   -2.7527   -0.0401    0.7425 O   0  0  0  0  0  0  0  0  0  0  0  0
   -3.1726    0.5335    1.9840 C   0  0  0  0  0  0  0  0  0  0  0  0
   -4.1874    0.1617    2.1489 H   0  0  0  0  0  0  0  0  0  0  0  0
   -3.1866    1.6316    1.9251 H   0  0  0  0  0  0  0  0  0  0  0  0
   -2.5210    0.2076    2.8076 H   0  0  0  0  0  0  0  0  0  0  0  0
    4.9182    1.5519    1.6748 O   0  0  0  0  0  0  0  0  0  0  0  0
    4.0461    1.1879    0.8888 N   0  0  0  0  0  0  0  0  0  0  0  0
    3.6361    0.0150    0.7985 O   0  0  0  0  0  0  0  0  0  0  0  0
    3.5121    2.0919    0.1109 O   0  0  0  0  0  0  0  0  0  0  0  0
  1  6  1  0  0  0  0
  2  1  2  0  0  0  0
  2  3  1  0  0  0  0
  3  4  2  0  0  0  0
  4  9  1  0  0  0  0
  4  5  1  0  0  0  0
  5 10  1  0  0  0  0
  6 13  1  0  0  0  0
  6  5  2  0  0  0  0
  7  1  1  0  0  0  0
  8  2  1  0  0  0  0
 11  3  1  0  0  0  0
 12 11  2  0  0  0  0
 13 14  1  0  0  0  0
 14 15  1  0  0  0  0
 14 17  1  0  0  0  0
 16 14  1  0  0  0  0
 19 18  2  0  0  0  0
 20 19  1  0  0  0  0
 21 19  2  0  0  0  0
M  RAD  2  12   2  20   2
M  END
