Coordinates from ORCA-job p-CH3O-Ph-N2-NO3-B3LYPG-aug-cc-pVDZ-scan-d09-49-n400
 OpenBabel11111914563D

 21 20  0  0  0  0  0  0  0  0999 V2000
   -0.4614   -0.5019   -0.4769 C   0  0  0  0  0  0  0  0  0  0  0  0
    0.9241   -0.5894   -0.4244 C   0  0  0  0  0  0  0  0  0  0  0  0
    1.6166    0.0368    0.6178 C   0  0  0  0  0  0  0  0  0  0  0  0
    0.9339    0.7501    1.5989 C   0  0  0  0  0  0  0  0  0  0  0  0
   -0.4597    0.8473    1.5483 C   0  0  0  0  0  0  0  0  0  0  0  0
   -1.1611    0.2205    0.5064 C   0  0  0  0  0  0  0  0  0  0  0  0
   -1.0259   -0.9870   -1.2718 H   0  0  0  0  0  0  0  0  0  0  0  0
    1.4768   -1.1501   -1.1772 H   0  0  0  0  0  0  0  0  0  0  0  0
    1.4899    1.2255    2.4060 H   0  0  0  0  0  0  0  0  0  0  0  0
   -0.9796    1.4064    2.3218 H   0  0  0  0  0  0  0  0  0  0  0  0
    0.8844    2.3178   -2.7687 N   0  0  0  0  0  0  0  0  0  0  0  0
    1.5039    2.1704   -3.6710 N   0  0  0  0  0  0  0  0  0  0  0  0
   -2.5156    0.2493    0.3633 O   0  0  0  0  0  0  0  0  0  0  0  0
   -3.2842    0.9688    1.3242 C   0  0  0  0  0  0  0  0  0  0  0  0
   -4.3266    0.8597    1.0109 H   0  0  0  0  0  0  0  0  0  0  0  0
   -3.0127    2.0353    1.3323 H   0  0  0  0  0  0  0  0  0  0  0  0
   -3.1577    0.5455    2.3323 H   0  0  0  0  0  0  0  0  0  0  0  0
    4.9789    0.7244    0.2055 O   0  0  0  0  0  0  0  0  0  0  0  0
    3.8042    0.9501    0.1253 N   0  0  0  0  0  0  0  0  0  0  0  0
    2.9952   -0.1447    0.7198 O   0  0  0  0  0  0  0  0  0  0  0  0
    3.2069    1.8878   -0.3344 O   0  0  0  0  0  0  0  0  0  0  0  0
  1  2  2  0  0  0  0
  1  6  1  0  0  0  0
  2  3  1  0  0  0  0
  3 20  1  0  0  0  0
  3  4  2  0  0  0  0
  4  9  1  0  0  0  0
  5  4  1  0  0  0  0
  5 10  1  0  0  0  0
  6  5  2  0  0  0  0
  7  1  1  0  0  0  0
  8  2  1  0  0  0  0
 12 11  3  0  0  0  0
 13  6  1  0  0  0  0
 13 14  1  0  0  0  0
 14 16  1  0  0  0  0
 14 17  1  0  0  0  0
 15 14  1  0  0  0  0
 19 18  2  0  0  0  0
 19 20  1  0  0  0  0
 21 19  2  0  0  0  0
M  END
