Coordinates from ORCA-job p-CH3O-Ph-N2-NO3-B3LYPG-aug-cc-pVDZ-scan-d09-49-n400
 OpenBabel11111914563D

 21 20  0  0  0  0  0  0  0  0999 V2000
   -0.5736   -0.6287   -0.4930 C   0  0  0  0  0  0  0  0  0  0  0  0
    0.8141   -0.6672   -0.5528 C   0  0  0  0  0  0  0  0  0  0  0  0
    1.5669    0.0830    0.3580 C   0  0  0  0  0  0  0  0  0  0  0  0
    0.9422    0.8668    1.3245 C   0  0  0  0  0  0  0  0  0  0  0  0
   -0.4537    0.9298    1.3688 C   0  0  0  0  0  0  0  0  0  0  0  0
   -1.2163    0.1790    0.4609 C   0  0  0  0  0  0  0  0  0  0  0  0
   -1.1808   -1.2141   -1.1817 H   0  0  0  0  0  0  0  0  0  0  0  0
    1.3260   -1.2866   -1.2881 H   0  0  0  0  0  0  0  0  0  0  0  0
    1.5344    1.4344    2.0389 H   0  0  0  0  0  0  0  0  0  0  0  0
   -0.9272    1.5560    2.1204 H   0  0  0  0  0  0  0  0  0  0  0  0
    1.1076    2.0376   -2.1411 N   0  0  0  0  0  0  0  0  0  0  0  0
    1.8853    2.0590   -2.9259 N   0  0  0  0  0  0  0  0  0  0  0  0
   -2.5791    0.1607    0.4287 O   0  0  0  0  0  0  0  0  0  0  0  0
   -3.2894    0.9577    1.3727 C   0  0  0  0  0  0  0  0  0  0  0  0
   -4.3500    0.7923    1.1613 H   0  0  0  0  0  0  0  0  0  0  0  0
   -3.0527    2.0255    1.2499 H   0  0  0  0  0  0  0  0  0  0  0  0
   -3.0678    0.6447    2.4045 H   0  0  0  0  0  0  0  0  0  0  0  0
    4.9476    0.7763    0.0103 O   0  0  0  0  0  0  0  0  0  0  0  0
    3.7916    1.0769    0.1214 N   0  0  0  0  0  0  0  0  0  0  0  0
    2.9507   -0.1151    0.3344 O   0  0  0  0  0  0  0  0  0  0  0  0
    3.2547    2.1547    0.1161 O   0  0  0  0  0  0  0  0  0  0  0  0
  1  6  1  0  0  0  0
  2  1  2  0  0  0  0
  2  3  1  0  0  0  0
  3  4  2  0  0  0  0
  4  5  1  0  0  0  0
  4  9  1  0  0  0  0
  5 10  1  0  0  0  0
  6  5  2  0  0  0  0
  7  1  1  0  0  0  0
  8  2  1  0  0  0  0
 12 11  3  0  0  0  0
 13  6  1  0  0  0  0
 13 14  1  0  0  0  0
 14 17  1  0  0  0  0
 15 14  1  0  0  0  0
 16 14  1  0  0  0  0
 18 19  2  0  0  0  0
 19 20  1  0  0  0  0
 20  3  1  0  0  0  0
 21 19  2  0  0  0  0
M  END
