Coordinates from ORCA-job p-CH3O-Ph-N2-NO3-B3LYPG-aug-cc-pVDZ-scan-d09-49-n400
 OpenBabel11111914563D

 21 20  0  0  0  0  0  0  0  0999 V2000
   -0.4710   -0.5133   -0.4806 C   0  0  0  0  0  0  0  0  0  0  0  0
    0.9152   -0.5969   -0.4370 C   0  0  0  0  0  0  0  0  0  0  0  0
    1.6134    0.0398    0.5948 C   0  0  0  0  0  0  0  0  0  0  0  0
    0.9359    0.7602    1.5744 C   0  0  0  0  0  0  0  0  0  0  0  0
   -0.4580    0.8554    1.5314 C   0  0  0  0  0  0  0  0  0  0  0  0
   -1.1652    0.2174    0.5003 C   0  0  0  0  0  0  0  0  0  0  0  0
   -1.0397   -1.0074   -1.2668 H   0  0  0  0  0  0  0  0  0  0  0  0
    1.4642   -1.1639   -1.1879 H   0  0  0  0  0  0  0  0  0  0  0  0
    1.4959    1.2435    2.3739 H   0  0  0  0  0  0  0  0  0  0  0  0
   -0.9736    1.4211    2.3029 H   0  0  0  0  0  0  0  0  0  0  0  0
    0.8991    2.2787   -2.6887 N   0  0  0  0  0  0  0  0  0  0  0  0
    1.5374    2.1593   -3.5821 N   0  0  0  0  0  0  0  0  0  0  0  0
   -2.5208    0.2425    0.3661 O   0  0  0  0  0  0  0  0  0  0  0  0
   -3.2841    0.9695    1.3256 C   0  0  0  0  0  0  0  0  0  0  0  0
   -4.3285    0.8557    1.0205 H   0  0  0  0  0  0  0  0  0  0  0  0
   -3.0145    2.0365    1.3220 H   0  0  0  0  0  0  0  0  0  0  0  0
   -3.1500    0.5558    2.3367 H   0  0  0  0  0  0  0  0  0  0  0  0
    4.9756    0.7303    0.1821 O   0  0  0  0  0  0  0  0  0  0  0  0
    3.8014    0.9637    0.1188 N   0  0  0  0  0  0  0  0  0  0  0  0
    2.9926   -0.1436    0.6883 O   0  0  0  0  0  0  0  0  0  0  0  0
    3.2053    1.9184   -0.3064 O   0  0  0  0  0  0  0  0  0  0  0  0
  1  2  2  0  0  0  0
  1  6  1  0  0  0  0
  2  3  1  0  0  0  0
  3 20  1  0  0  0  0
  3  4  2  0  0  0  0
  4  9  1  0  0  0  0
  5  4  1  0  0  0  0
  5 10  1  0  0  0  0
  6  5  2  0  0  0  0
  7  1  1  0  0  0  0
  8  2  1  0  0  0  0
 12 11  3  0  0  0  0
 13  6  1  0  0  0  0
 13 14  1  0  0  0  0
 14 17  1  0  0  0  0
 15 14  1  0  0  0  0
 16 14  1  0  0  0  0
 19 18  2  0  0  0  0
 19 20  1  0  0  0  0
 21 19  2  0  0  0  0
M  END
