Coordinates from ORCA-job p-CH3O-Ph-N2-NO3-B3LYPG-aug-cc-pVDZ-scan-d09-49-n400
 OpenBabel11111914563D

 21 19  0  0  0  0  0  0  0  0999 V2000
   -1.1050   -0.4731   -0.8645 C   0  0  0  0  0  0  0  0  0  0  0  0
    0.1303   -0.2389   -1.4864 C   0  0  0  0  0  0  0  0  0  0  0  0
    0.8544    0.7034   -0.8184 C   0  0  0  0  0  0  0  0  0  0  0  0
    0.6454    1.4386    0.2952 C   0  0  0  0  0  0  0  0  0  0  0  0
   -0.6054    1.1730    0.8836 C   0  0  0  0  0  0  0  0  0  0  0  0
   -1.4709    0.2231    0.3062 C   0  0  0  0  0  0  0  0  0  0  0  0
   -1.7924   -1.2046   -1.2869 H   0  0  0  0  0  0  0  0  0  0  0  0
    0.4509   -0.7615   -2.3828 H   0  0  0  0  0  0  0  0  0  0  0  0
    1.4040    2.1180    0.6879 H   0  0  0  0  0  0  0  0  0  0  0  0
   -0.8659    1.7043    1.7951 H   0  0  0  0  0  0  0  0  0  0  0  0
    2.5858    1.2158   -1.7078 N   0  0  0  0  0  0  0  0  0  0  0  0
    3.2527    1.1654   -2.5919 N   0  0  0  0  0  0  0  0  0  0  0  0
   -2.6886   -0.0986    0.8074 O   0  0  0  0  0  0  0  0  0  0  0  0
   -3.1247    0.5401    2.0105 C   0  0  0  0  0  0  0  0  0  0  0  0
   -4.1133    0.1233    2.2208 H   0  0  0  0  0  0  0  0  0  0  0  0
   -3.2052    1.6283    1.8715 H   0  0  0  0  0  0  0  0  0  0  0  0
   -2.4438    0.3149    2.8440 H   0  0  0  0  0  0  0  0  0  0  0  0
    4.8087    1.1224    1.7602 O   0  0  0  0  0  0  0  0  0  0  0  0
    3.8932    1.0458    0.9417 N   0  0  0  0  0  0  0  0  0  0  0  0
    3.2718   -0.0202    0.7159 O   0  0  0  0  0  0  0  0  0  0  0  0
    3.5486    2.1034    0.2872 O   0  0  0  0  0  0  0  0  0  0  0  0
  1  6  1  0  0  0  0
  2  1  2  0  0  0  0
  2  3  1  0  0  0  0
  3  4  2  0  0  0  0
  4  9  1  0  0  0  0
  4  5  1  0  0  0  0
  5 10  1  0  0  0  0
  6 13  1  0  0  0  0
  6  5  2  0  0  0  0
  7  1  1  0  0  0  0
  8  2  1  0  0  0  0
 12 11  3  0  0  0  0
 13 14  1  0  0  0  0
 14 15  1  0  0  0  0
 14 17  1  0  0  0  0
 16 14  1  0  0  0  0
 19 18  2  0  0  0  0
 20 19  1  0  0  0  0
 21 19  2  0  0  0  0
M  RAD  2   3   2  20   2
M  END
