Coordinates from ORCA-job p-CH3O-Ph-N2-NO3-B3LYPG-aug-cc-pVDZ-scan-d09-49-n400
 OpenBabel11111914563D

 21 20  0  0  0  0  0  0  0  0999 V2000
   -0.5768   -0.6314   -0.4935 C   0  0  0  0  0  0  0  0  0  0  0  0
    0.8107   -0.6678   -0.5571 C   0  0  0  0  0  0  0  0  0  0  0  0
    1.5649    0.0868    0.3489 C   0  0  0  0  0  0  0  0  0  0  0  0
    0.9417    0.8718    1.3155 C   0  0  0  0  0  0  0  0  0  0  0  0
   -0.4542    0.9327    1.3632 C   0  0  0  0  0  0  0  0  0  0  0  0
   -1.2182    0.1782    0.4596 C   0  0  0  0  0  0  0  0  0  0  0  0
   -1.1849   -1.2201   -1.1787 H   0  0  0  0  0  0  0  0  0  0  0  0
    1.3216   -1.2886   -1.2919 H   0  0  0  0  0  0  0  0  0  0  0  0
    1.5344    1.4421    2.0271 H   0  0  0  0  0  0  0  0  0  0  0  0
   -0.9266    1.5601    2.1145 H   0  0  0  0  0  0  0  0  0  0  0  0
    1.1156    2.0299   -2.1225 N   0  0  0  0  0  0  0  0  0  0  0  0
    1.8965    2.0519   -2.9041 N   0  0  0  0  0  0  0  0  0  0  0  0
   -2.5811    0.1578    0.4312 O   0  0  0  0  0  0  0  0  0  0  0  0
   -3.2900    0.9564    1.3749 C   0  0  0  0  0  0  0  0  0  0  0  0
   -4.3509    0.7890    1.1669 H   0  0  0  0  0  0  0  0  0  0  0  0
   -3.0550    2.0242    1.2485 H   0  0  0  0  0  0  0  0  0  0  0  0
   -3.0651    0.6466    2.4069 H   0  0  0  0  0  0  0  0  0  0  0  0
    4.9475    0.7766    0.0058 O   0  0  0  0  0  0  0  0  0  0  0  0
    3.7924    1.0794    0.1217 N   0  0  0  0  0  0  0  0  0  0  0  0
    2.9487   -0.1120    0.3208 O   0  0  0  0  0  0  0  0  0  0  0  0
    3.2593    2.1591    0.1306 O   0  0  0  0  0  0  0  0  0  0  0  0
  1  6  1  0  0  0  0
  2  1  2  0  0  0  0
  2  3  1  0  0  0  0
  3  4  2  0  0  0  0
  4  5  1  0  0  0  0
  4  9  1  0  0  0  0
  5 10  1  0  0  0  0
  6  5  2  0  0  0  0
  7  1  1  0  0  0  0
  8  2  1  0  0  0  0
 12 11  3  0  0  0  0
 13  6  1  0  0  0  0
 13 14  1  0  0  0  0
 14 17  1  0  0  0  0
 15 14  1  0  0  0  0
 16 14  1  0  0  0  0
 18 19  2  0  0  0  0
 19 21  2  0  0  0  0
 19 20  1  0  0  0  0
 20  3  1  0  0  0  0
M  END
