Coordinates from ORCA-job p-CH3O-Ph-N2-NO3-B3LYPG-aug-cc-pVDZ-scan-d09-49-n400
 OpenBabel11111914563D

 21 20  0  0  0  0  0  0  0  0999 V2000
   -0.4665   -0.5078   -0.4790 C   0  0  0  0  0  0  0  0  0  0  0  0
    0.9194   -0.5933   -0.4312 C   0  0  0  0  0  0  0  0  0  0  0  0
    1.6149    0.0384    0.6055 C   0  0  0  0  0  0  0  0  0  0  0  0
    0.9350    0.7555    1.5859 C   0  0  0  0  0  0  0  0  0  0  0  0
   -0.4588    0.8517    1.5393 C   0  0  0  0  0  0  0  0  0  0  0  0
   -1.1632    0.2190    0.5031 C   0  0  0  0  0  0  0  0  0  0  0  0
   -1.0332   -0.9978   -1.2693 H   0  0  0  0  0  0  0  0  0  0  0  0
    1.4701   -1.1573   -1.1830 H   0  0  0  0  0  0  0  0  0  0  0  0
    1.4932    1.2351    2.3889 H   0  0  0  0  0  0  0  0  0  0  0  0
   -0.9764    1.4142    2.3118 H   0  0  0  0  0  0  0  0  0  0  0  0
    0.8922    2.2963   -2.7248 N   0  0  0  0  0  0  0  0  0  0  0  0
    1.5218    2.1641   -3.6226 N   0  0  0  0  0  0  0  0  0  0  0  0
   -2.5184    0.2457    0.3647 O   0  0  0  0  0  0  0  0  0  0  0  0
   -3.2841    0.9692    1.3248 C   0  0  0  0  0  0  0  0  0  0  0  0
   -4.3276    0.8576    1.0159 H   0  0  0  0  0  0  0  0  0  0  0  0
   -3.0136    2.0360    1.3267 H   0  0  0  0  0  0  0  0  0  0  0  0
   -3.1536    0.5510    2.3345 H   0  0  0  0  0  0  0  0  0  0  0  0
    4.9771    0.7277    0.1928 O   0  0  0  0  0  0  0  0  0  0  0  0
    3.8027    0.9574    0.1215 N   0  0  0  0  0  0  0  0  0  0  0  0
    2.9938   -0.1441    0.7030 O   0  0  0  0  0  0  0  0  0  0  0  0
    3.2059    1.9041   -0.3201 O   0  0  0  0  0  0  0  0  0  0  0  0
  1  2  2  0  0  0  0
  1  6  1  0  0  0  0
  2  3  1  0  0  0  0
  3 20  1  0  0  0  0
  3  4  2  0  0  0  0
  4  9  1  0  0  0  0
  5  4  1  0  0  0  0
  5 10  1  0  0  0  0
  6  5  2  0  0  0  0
  7  1  1  0  0  0  0
  8  2  1  0  0  0  0
 12 11  3  0  0  0  0
 13  6  1  0  0  0  0
 13 14  1  0  0  0  0
 14 16  1  0  0  0  0
 14 17  1  0  0  0  0
 15 14  1  0  0  0  0
 19 18  2  0  0  0  0
 19 20  1  0  0  0  0
 21 19  2  0  0  0  0
M  END
