Coordinates from ORCA-job p-CH3O-Ph-N2-NO3-B3LYPG-aug-cc-pVDZ-scan-d09-49-n400
 OpenBabel11111914563D

 21 21  0  0  1  0  0  0  0  0999 V2000
   -0.9720   -0.3297   -1.1406 C   0  0  0  0  0  0  0  0  0  0  0  0
    0.0749    0.0540   -1.9253 C   0  0  0  0  0  0  0  0  0  0  0  0
    1.0155    0.9616   -1.3695 C   0  0  1  0  0  0  0  0  0  0  0  0
    1.0948    1.3594    0.0339 C   0  0  1  0  0  0  0  0  0  0  0  0
   -0.1704    1.0734    0.7303 C   0  0  0  0  0  0  0  0  0  0  0  0
   -1.1022    0.2276    0.1888 C   0  0  0  0  0  0  0  0  0  0  0  0
   -1.7348   -1.0169   -1.4980 H   0  0  0  0  0  0  0  0  0  0  0  0
    0.1891   -0.3027   -2.9470 H   0  0  0  0  0  0  0  0  0  0  0  0
    1.5038    2.3512    0.2286 H   0  0  0  0  0  0  0  0  0  0  0  0
   -0.2942    1.5177    1.7118 H   0  0  0  0  0  0  0  0  0  0  0  0
    2.1314    1.4210   -2.2460 N   0  0  0  0  0  0  0  0  0  0  0  0
    2.9755    1.7854   -2.8970 N   0  0  0  0  0  0  0  0  0  0  0  0
   -2.2527   -0.1483    0.8048 O   0  0  0  0  0  0  0  0  0  0  0  0
   -2.4924    0.3211    2.1313 C   0  0  0  0  0  0  0  0  0  0  0  0
   -3.4397   -0.1310    2.4385 H   0  0  0  0  0  0  0  0  0  0  0  0
   -2.5812    1.4174    2.1498 H   0  0  0  0  0  0  0  0  0  0  0  0
   -1.6882    0.0027    2.8104 H   0  0  0  0  0  0  0  0  0  0  0  0
    2.3720    1.8657    2.3379 O   0  0  0  0  0  0  0  0  0  0  0  0
    2.8162    0.8410    1.8351 N   0  0  0  0  0  0  0  0  0  0  0  0
    3.6920    0.1267    2.2754 O   0  0  0  0  0  0  0  0  0  0  0  0
    2.2930    0.4253    0.6351 O   0  0  0  0  0  0  0  0  0  0  0  0
  1  6  1  0  0  0  0
  2  3  1  0  0  0  0
  2  1  2  0  0  0  0
  3 11  1  1  0  0  0
  3  4  1  0  0  0  0
  4  9  1  1  0  0  0
  4 21  1  0  0  0  0
  4  5  1  0  0  0  0
  5 10  1  0  0  0  0
  6  5  2  0  0  0  0
  6 13  1  0  0  0  0
  7  1  1  0  0  0  0
  8  2  1  0  0  0  0
 12 11  1  0  0  0  0
 13 14  1  0  0  0  0
 14 16  1  0  0  0  0
 14 15  1  0  0  0  0
 14 17  1  0  0  0  0
 19 20  2  0  0  0  0
 19 18  2  0  0  0  0
 21 19  1  0  0  0  0
M  RAD  3   3   2  11   2  12   3
M  END
