Coordinates from ORCA-job p-CH3O-Ph-N2-NO3-B3LYPG-aug-cc-pVDZ-scan-d09-49-n400
 OpenBabel11111914563D

 21 20  0  0  0  0  0  0  0  0999 V2000
   -1.1396   -0.3619   -0.9393 C   0  0  0  0  0  0  0  0  0  0  0  0
    0.1149   -0.1435   -1.4958 C   0  0  0  0  0  0  0  0  0  0  0  0
    0.9572    0.6964   -0.7795 C   0  0  0  0  0  0  0  0  0  0  0  0
    0.6776    1.3244    0.4106 C   0  0  0  0  0  0  0  0  0  0  0  0
   -0.5915    1.0938    0.9496 C   0  0  0  0  0  0  0  0  0  0  0  0
   -1.4983    0.2512    0.2802 C   0  0  0  0  0  0  0  0  0  0  0  0
   -1.8594   -1.0115   -1.4342 H   0  0  0  0  0  0  0  0  0  0  0  0
    0.4156   -0.6092   -2.4310 H   0  0  0  0  0  0  0  0  0  0  0  0
    1.4249    1.9559    0.8840 H   0  0  0  0  0  0  0  0  0  0  0  0
   -0.8513    1.5701    1.8906 H   0  0  0  0  0  0  0  0  0  0  0  0
    2.4356    0.9582   -1.4684 N   0  0  0  0  0  0  0  0  0  0  0  0
    3.0644    0.8039   -2.3793 N   0  0  0  0  0  0  0  0  0  0  0  0
   -2.7425   -0.0364    0.7254 O   0  0  0  0  0  0  0  0  0  0  0  0
   -3.1798    0.5318    1.9641 C   0  0  0  0  0  0  0  0  0  0  0  0
   -4.1958    0.1570    2.1141 H   0  0  0  0  0  0  0  0  0  0  0  0
   -3.1950    1.6299    1.9087 H   0  0  0  0  0  0  0  0  0  0  0  0
   -2.5378    0.2040    2.7942 H   0  0  0  0  0  0  0  0  0  0  0  0
    4.9407    1.5735    1.5958 O   0  0  0  0  0  0  0  0  0  0  0  0
    4.0528    1.1779    0.8452 N   0  0  0  0  0  0  0  0  0  0  0  0
    3.6781   -0.0071    0.7688 O   0  0  0  0  0  0  0  0  0  0  0  0
    3.4596    2.0642    0.0845 O   0  0  0  0  0  0  0  0  0  0  0  0
  1  6  1  0  0  0  0
  2  1  2  0  0  0  0
  2  3  1  0  0  0  0
  3  4  2  0  0  0  0
  4  9  1  0  0  0  0
  4  5  1  0  0  0  0
  5 10  1  0  0  0  0
  6 13  1  0  0  0  0
  6  5  2  0  0  0  0
  7  1  1  0  0  0  0
  8  2  1  0  0  0  0
 11  3  1  0  0  0  0
 12 11  2  0  0  0  0
 13 14  1  0  0  0  0
 14 15  1  0  0  0  0
 14 17  1  0  0  0  0
 16 14  1  0  0  0  0
 19 18  2  0  0  0  0
 20 19  1  0  0  0  0
 21 19  2  0  0  0  0
M  RAD  2  12   2  20   2
M  END
