Coordinates from ORCA-job p-CH3O-Ph-N2-NO3-B3LYPG-aug-cc-pVDZ-scan-d09-49-n400
 OpenBabel11111914563D

 21 20  0  0  0  0  0  0  0  0999 V2000
   -0.4200   -0.4673   -0.4414 C   0  0  0  0  0  0  0  0  0  0  0  0
    0.9620   -0.5724   -0.3503 C   0  0  0  0  0  0  0  0  0  0  0  0
    1.6291    0.0115    0.7323 C   0  0  0  0  0  0  0  0  0  0  0  0
    0.9241    0.6983    1.7164 C   0  0  0  0  0  0  0  0  0  0  0  0
   -0.4674    0.8065    1.6317 C   0  0  0  0  0  0  0  0  0  0  0  0
   -1.1427    0.2245    0.5478 C   0  0  0  0  0  0  0  0  0  0  0  0
   -0.9648   -0.9159   -1.2707 H   0  0  0  0  0  0  0  0  0  0  0  0
    1.5310   -1.1094   -1.1083 H   0  0  0  0  0  0  0  0  0  0  0  0
    1.4617    1.1416    2.5537 H   0  0  0  0  0  0  0  0  0  0  0  0
   -1.0051    1.3412    2.4103 H   0  0  0  0  0  0  0  0  0  0  0  0
    0.8043    2.6016   -3.3325 N   0  0  0  0  0  0  0  0  0  0  0  0
    1.3330    2.3034   -4.2551 N   0  0  0  0  0  0  0  0  0  0  0  0
   -2.4922    0.2704    0.3662 O   0  0  0  0  0  0  0  0  0  0  0  0
   -3.2830    0.9619    1.3296 C   0  0  0  0  0  0  0  0  0  0  0  0
   -4.3167    0.8732    0.9824 H   0  0  0  0  0  0  0  0  0  0  0  0
   -3.0036    2.0250    1.3837 H   0  0  0  0  0  0  0  0  0  0  0  0
   -3.1894    0.5019    2.3251 H   0  0  0  0  0  0  0  0  0  0  0  0
    4.9996    0.6710    0.3538 O   0  0  0  0  0  0  0  0  0  0  0  0
    3.8271    0.8740    0.2081 N   0  0  0  0  0  0  0  0  0  0  0  0
    3.0039   -0.1703    0.8728 O   0  0  0  0  0  0  0  0  0  0  0  0
    3.2396    1.7520   -0.3672 O   0  0  0  0  0  0  0  0  0  0  0  0
  1  2  2  0  0  0  0
  1  6  1  0  0  0  0
  2  3  1  0  0  0  0
  3 20  1  0  0  0  0
  3  4  2  0  0  0  0
  4  9  1  0  0  0  0
  5  4  1  0  0  0  0
  5 10  1  0  0  0  0
  6  5  2  0  0  0  0
  7  1  1  0  0  0  0
  8  2  1  0  0  0  0
 12 11  3  0  0  0  0
 13  6  1  0  0  0  0
 13 14  1  0  0  0  0
 14 16  1  0  0  0  0
 14 17  1  0  0  0  0
 15 14  1  0  0  0  0
 19 18  2  0  0  0  0
 19 20  1  0  0  0  0
 21 19  2  0  0  0  0
M  END
