Coordinates from ORCA-job p-CH3O-Ph-N2-NO3-B3LYPG-aug-cc-pVDZ-scan-d09-49-n400
 OpenBabel11111914563D

 21 20  0  0  0  0  0  0  0  0999 V2000
   -0.6347   -0.6840   -0.5000 C   0  0  0  0  0  0  0  0  0  0  0  0
    0.7438   -0.6649   -0.6482 C   0  0  0  0  0  0  0  0  0  0  0  0
    1.5134    0.2255    0.1134 C   0  0  0  0  0  0  0  0  0  0  0  0
    0.9229    1.0044    1.1054 C   0  0  0  0  0  0  0  0  0  0  0  0
   -0.4701    1.0002    1.2388 C   0  0  0  0  0  0  0  0  0  0  0  0
   -1.2565    0.1676    0.4306 C   0  0  0  0  0  0  0  0  0  0  0  0
   -1.2520   -1.3540   -1.0965 H   0  0  0  0  0  0  0  0  0  0  0  0
    1.2380   -1.3162   -1.3673 H   0  0  0  0  0  0  0  0  0  0  0  0
    1.5190    1.6410    1.7501 H   0  0  0  0  0  0  0  0  0  0  0  0
   -0.9211    1.6412    1.9918 H   0  0  0  0  0  0  0  0  0  0  0  0
    1.2586    1.8134   -1.6731 N   0  0  0  0  0  0  0  0  0  0  0  0
    2.0916    1.9028   -2.3970 N   0  0  0  0  0  0  0  0  0  0  0  0
   -2.6163    0.0933    0.4850 O   0  0  0  0  0  0  0  0  0  0  0  0
   -3.3015    0.9239    1.4188 C   0  0  0  0  0  0  0  0  0  0  0  0
   -4.3653    0.7098    1.2808 H   0  0  0  0  0  0  0  0  0  0  0  0
   -3.1114    1.9890    1.2169 H   0  0  0  0  0  0  0  0  0  0  0  0
   -3.0102    0.6845    2.4529 H   0  0  0  0  0  0  0  0  0  0  0  0
    4.9557    0.7434   -0.0723 O   0  0  0  0  0  0  0  0  0  0  0  0
    3.8278    1.1050    0.1303 N   0  0  0  0  0  0  0  0  0  0  0  0
    2.8959    0.0112   -0.0320 O   0  0  0  0  0  0  0  0  0  0  0  0
    3.4031    2.1856    0.4599 O   0  0  0  0  0  0  0  0  0  0  0  0
  1  6  1  0  0  0  0
  2  1  2  0  0  0  0
  2  3  1  0  0  0  0
  3  4  2  0  0  0  0
  4  5  1  0  0  0  0
  4  9  1  0  0  0  0
  5 10  1  0  0  0  0
  6 13  1  0  0  0  0
  6  5  2  0  0  0  0
  7  1  1  0  0  0  0
  8  2  1  0  0  0  0
 12 11  3  0  0  0  0
 13 14  1  0  0  0  0
 14 17  1  0  0  0  0
 15 14  1  0  0  0  0
 16 14  1  0  0  0  0
 18 19  2  0  0  0  0
 19 21  2  0  0  0  0
 20  3  1  0  0  0  0
 20 19  1  0  0  0  0
M  END
