Coordinates from ORCA-job p-CH3O-Ph-N2-NO3-B3LYPG-aug-cc-pVDZ-scan-d09-49-n400
 OpenBabel11111914563D

 21 20  0  0  0  0  0  0  0  0999 V2000
   -0.6225   -0.6702   -0.4969 C   0  0  0  0  0  0  0  0  0  0  0  0
    0.7600   -0.6688   -0.6201 C   0  0  0  0  0  0  0  0  0  0  0  0
    1.5293    0.1687    0.1968 C   0  0  0  0  0  0  0  0  0  0  0  0
    0.9289    0.9621    1.1702 C   0  0  0  0  0  0  0  0  0  0  0  0
   -0.4666    0.9794    1.2764 C   0  0  0  0  0  0  0  0  0  0  0  0
   -1.2482    0.1678    0.4421 C   0  0  0  0  0  0  0  0  0  0  0  0
   -1.2389   -1.3123   -1.1244 H   0  0  0  0  0  0  0  0  0  0  0  0
    1.2577   -1.3096   -1.3465 H   0  0  0  0  0  0  0  0  0  0  0  0
    1.5245    1.5803    1.8348 H   0  0  0  0  0  0  0  0  0  0  0  0
   -0.9233    1.6210    2.0254 H   0  0  0  0  0  0  0  0  0  0  0  0
    1.2315    1.9021   -1.8445 N   0  0  0  0  0  0  0  0  0  0  0  0
    2.0601    1.9548   -2.5749 N   0  0  0  0  0  0  0  0  0  0  0  0
   -2.6101    0.1103    0.4727 O   0  0  0  0  0  0  0  0  0  0  0  0
   -3.3001    0.9312    1.4111 C   0  0  0  0  0  0  0  0  0  0  0  0
   -4.3640    0.7297    1.2552 H   0  0  0  0  0  0  0  0  0  0  0  0
   -3.0978    1.9979    1.2305 H   0  0  0  0  0  0  0  0  0  0  0  0
   -3.0253    0.6714    2.4449 H   0  0  0  0  0  0  0  0  0  0  0  0
    4.9522    0.7565   -0.0443 O   0  0  0  0  0  0  0  0  0  0  0  0
    3.8149    1.0998    0.1329 N   0  0  0  0  0  0  0  0  0  0  0  0
    2.9130   -0.0397    0.0823 O   0  0  0  0  0  0  0  0  0  0  0  0
    3.3553    2.1904    0.3646 O   0  0  0  0  0  0  0  0  0  0  0  0
  1  6  1  0  0  0  0
  2  1  2  0  0  0  0
  2  3  1  0  0  0  0
  3  4  2  0  0  0  0
  4  5  1  0  0  0  0
  4  9  1  0  0  0  0
  5 10  1  0  0  0  0
  6 13  1  0  0  0  0
  6  5  2  0  0  0  0
  7  1  1  0  0  0  0
  8  2  1  0  0  0  0
 12 11  3  0  0  0  0
 13 14  1  0  0  0  0
 14 17  1  0  0  0  0
 15 14  1  0  0  0  0
 16 14  1  0  0  0  0
 18 19  2  0  0  0  0
 19 21  2  0  0  0  0
 20 19  1  0  0  0  0
 20  3  1  0  0  0  0
M  END
