Coordinates from ORCA-job p-CH3O-Ph-N2-NO3-B3LYPG-aug-cc-pVDZ-scan-d09-49-n400
 OpenBabel11111914563D

 21 20  0  0  0  0  0  0  0  0999 V2000
   -0.5757   -0.6305   -0.4933 C   0  0  0  0  0  0  0  0  0  0  0  0
    0.8119   -0.6676   -0.5557 C   0  0  0  0  0  0  0  0  0  0  0  0
    1.5655    0.0856    0.3520 C   0  0  0  0  0  0  0  0  0  0  0  0
    0.9419    0.8701    1.3185 C   0  0  0  0  0  0  0  0  0  0  0  0
   -0.4540    0.9317    1.3651 C   0  0  0  0  0  0  0  0  0  0  0  0
   -1.2176    0.1785    0.4601 C   0  0  0  0  0  0  0  0  0  0  0  0
   -1.1835   -1.2181   -1.1797 H   0  0  0  0  0  0  0  0  0  0  0  0
    1.3231   -1.2880   -1.2906 H   0  0  0  0  0  0  0  0  0  0  0  0
    1.5344    1.4395    2.0311 H   0  0  0  0  0  0  0  0  0  0  0  0
   -0.9268    1.5587    2.1165 H   0  0  0  0  0  0  0  0  0  0  0  0
    1.1130    2.0325   -2.1287 N   0  0  0  0  0  0  0  0  0  0  0  0
    1.8928    2.0543   -2.9113 N   0  0  0  0  0  0  0  0  0  0  0  0
   -2.5804    0.1588    0.4303 O   0  0  0  0  0  0  0  0  0  0  0  0
   -3.2898    0.9568    1.3742 C   0  0  0  0  0  0  0  0  0  0  0  0
   -4.3506    0.7901    1.1650 H   0  0  0  0  0  0  0  0  0  0  0  0
   -3.0542    2.0246    1.2489 H   0  0  0  0  0  0  0  0  0  0  0  0
   -3.0660    0.6460    2.4061 H   0  0  0  0  0  0  0  0  0  0  0  0
    4.9475    0.7765    0.0073 O   0  0  0  0  0  0  0  0  0  0  0  0
    3.7921    1.0786    0.1216 N   0  0  0  0  0  0  0  0  0  0  0  0
    2.9494   -0.1131    0.3253 O   0  0  0  0  0  0  0  0  0  0  0  0
    3.2577    2.1577    0.1258 O   0  0  0  0  0  0  0  0  0  0  0  0
  1  6  1  0  0  0  0
  2  1  2  0  0  0  0
  2  3  1  0  0  0  0
  3  4  2  0  0  0  0
  4  5  1  0  0  0  0
  4  9  1  0  0  0  0
  5 10  1  0  0  0  0
  6  5  2  0  0  0  0
  7  1  1  0  0  0  0
  8  2  1  0  0  0  0
 12 11  3  0  0  0  0
 13  6  1  0  0  0  0
 13 14  1  0  0  0  0
 14 17  1  0  0  0  0
 15 14  1  0  0  0  0
 16 14  1  0  0  0  0
 18 19  2  0  0  0  0
 19 21  2  0  0  0  0
 19 20  1  0  0  0  0
 20  3  1  0  0  0  0
M  END
