Coordinates from ORCA-job p-CH3O-Ph-N2-NO3-B3LYPG-aug-cc-pVDZ-scan-d09-49-n400
 OpenBabel11111914563D

 21 20  0  0  0  0  0  0  0  0999 V2000
   -0.5500   -0.6063   -0.4903 C   0  0  0  0  0  0  0  0  0  0  0  0
    0.8383   -0.6567   -0.5244 C   0  0  0  0  0  0  0  0  0  0  0  0
    1.5797    0.0667    0.4166 C   0  0  0  0  0  0  0  0  0  0  0  0
    0.9432    0.8406    1.3834 C   0  0  0  0  0  0  0  0  0  0  0  0
   -0.4524    0.9134    1.4058 C   0  0  0  0  0  0  0  0  0  0  0  0
   -1.2035    0.1865    0.4689 C   0  0  0  0  0  0  0  0  0  0  0  0
   -1.1497   -1.1715   -1.2021 H   0  0  0  0  0  0  0  0  0  0  0  0
    1.3583   -1.2672   -1.2615 H   0  0  0  0  0  0  0  0  0  0  0  0
    1.5300    1.3900    2.1172 H   0  0  0  0  0  0  0  0  0  0  0  0
   -0.9357    1.5286    2.1603 H   0  0  0  0  0  0  0  0  0  0  0  0
    1.0520    2.0904   -2.2593 N   0  0  0  0  0  0  0  0  0  0  0  0
    1.8037    2.0999   -3.0689 N   0  0  0  0  0  0  0  0  0  0  0  0
   -2.5654    0.1791    0.4120 O   0  0  0  0  0  0  0  0  0  0  0  0
   -3.2874    0.9625    1.3586 C   0  0  0  0  0  0  0  0  0  0  0  0
   -4.3450    0.8088    1.1247 H   0  0  0  0  0  0  0  0  0  0  0  0
   -3.0413    2.0308    1.2610 H   0  0  0  0  0  0  0  0  0  0  0  0
   -3.0868    0.6278    2.3878 H   0  0  0  0  0  0  0  0  0  0  0  0
    4.9528    0.7623    0.0407 O   0  0  0  0  0  0  0  0  0  0  0  0
    3.7916    1.0526    0.1175 N   0  0  0  0  0  0  0  0  0  0  0  0
    2.9623   -0.1311    0.4264 O   0  0  0  0  0  0  0  0  0  0  0  0
    3.2358    2.1153    0.0139 O   0  0  0  0  0  0  0  0  0  0  0  0
  1  6  1  0  0  0  0
  2  1  2  0  0  0  0
  2  3  1  0  0  0  0
  3 20  1  0  0  0  0
  3  4  2  0  0  0  0
  4  5  1  0  0  0  0
  4  9  1  0  0  0  0
  5 10  1  0  0  0  0
  6  5  2  0  0  0  0
  7  1  1  0  0  0  0
  8  2  1  0  0  0  0
 12 11  3  0  0  0  0
 13  6  1  0  0  0  0
 13 14  1  0  0  0  0
 14 17  1  0  0  0  0
 15 14  1  0  0  0  0
 16 14  1  0  0  0  0
 18 19  2  0  0  0  0
 19 20  1  0  0  0  0
 21 19  2  0  0  0  0
M  END
