Coordinates from ORCA-job p-CH3O-Ph-N2-NO3-B3LYPG-aug-cc-pVDZ-scan-d09-49-n400
 OpenBabel11111914563D

 21 21  0  0  1  0  0  0  0  0999 V2000
   -0.8813   -0.3532   -1.1175 C   0  0  0  0  0  0  0  0  0  0  0  0
    0.1459    0.0117   -1.9061 C   0  0  0  0  0  0  0  0  0  0  0  0
    1.1608    0.9936   -1.4483 C   0  0  0  0  0  0  0  0  0  0  0  0
    1.1634    1.3163    0.0623 C   0  0  1  0  0  0  0  0  0  0  0  0
   -0.1250    1.0577    0.7532 C   0  0  0  0  0  0  0  0  0  0  0  0
   -1.0526    0.2306    0.2087 C   0  0  0  0  0  0  0  0  0  0  0  0
   -1.6299   -1.0657   -1.4599 H   0  0  0  0  0  0  0  0  0  0  0  0
    0.2712   -0.3805   -2.9153 H   0  0  0  0  0  0  0  0  0  0  0  0
    1.5245    2.3376    0.2162 H   0  0  0  0  0  0  0  0  0  0  0  0
   -0.2557    1.5252    1.7240 H   0  0  0  0  0  0  0  0  0  0  0  0
    1.8516    1.4213   -2.0655 N   0  0  0  0  0  0  0  0  0  0  0  0
    2.6425    1.9148   -2.7668 N   0  0  0  0  0  0  0  0  0  0  0  0
   -2.2285   -0.1268    0.7801 O   0  0  0  0  0  0  0  0  0  0  0  0
   -2.5133    0.3722    2.0877 C   0  0  0  0  0  0  0  0  0  0  0  0
   -3.4809   -0.0552    2.3645 H   0  0  0  0  0  0  0  0  0  0  0  0
   -2.5789    1.4701    2.0804 H   0  0  0  0  0  0  0  0  0  0  0  0
   -1.7424    0.0506    2.8031 H   0  0  0  0  0  0  0  0  0  0  0  0
    2.4149    1.8342    2.3127 O   0  0  0  0  0  0  0  0  0  0  0  0
    2.8213    0.8078    1.8027 N   0  0  0  0  0  0  0  0  0  0  0  0
    3.6627    0.0431    2.2013 O   0  0  0  0  0  0  0  0  0  0  0  0
    2.2600    0.4172    0.5707 O   0  0  0  0  0  0  0  0  0  0  0  0
  1  6  2  0  0  0  0
  2  3  2  0  0  0  0
  2  1  1  0  0  0  0
  3  4  1  0  0  0  0
  4  9  1  1  0  0  0
  4 21  1  0  0  0  0
  4  5  1  0  0  0  0
  5 10  1  0  0  0  0
  6  5  1  0  0  0  0
  6 13  1  0  0  0  0
  7  1  1  0  0  0  0
  8  2  1  0  0  0  0
 11  3  1  0  0  0  0
 12 11  1  0  0  0  0
 13 14  1  0  0  0  0
 14 15  1  0  0  0  0
 14 17  1  0  0  0  0
 16 14  1  0  0  0  0
 19 20  2  0  0  0  0
 19 18  2  0  0  0  0
 21 19  1  0  0  0  0
M  RAD  3   5   2  11   2  12   3
M  END
