Coordinates from ORCA-job p-CH3O-Ph-N2-NO3-B3LYPG-aug-cc-pVDZ-scan-d09-49-n400
 OpenBabel11111914563D

 21 19  0  0  0  0  0  0  0  0999 V2000
   -1.1577   -0.4101   -0.9207 C   0  0  0  0  0  0  0  0  0  0  0  0
    0.0844   -0.1906   -1.5264 C   0  0  0  0  0  0  0  0  0  0  0  0
    0.8631    0.6860   -0.8196 C   0  0  0  0  0  0  0  0  0  0  0  0
    0.6629    1.3645    0.3369 C   0  0  0  0  0  0  0  0  0  0  0  0
   -0.5962    1.1193    0.9117 C   0  0  0  0  0  0  0  0  0  0  0  0
   -1.4976    0.2361    0.2867 C   0  0  0  0  0  0  0  0  0  0  0  0
   -1.8740   -1.0903   -1.3789 H   0  0  0  0  0  0  0  0  0  0  0  0
    0.3830   -0.6763   -2.4510 H   0  0  0  0  0  0  0  0  0  0  0  0
    1.4317    2.0117    0.7586 H   0  0  0  0  0  0  0  0  0  0  0  0
   -0.8408    1.6169    1.8461 H   0  0  0  0  0  0  0  0  0  0  0  0
    2.5682    1.0724   -1.6194 N   0  0  0  0  0  0  0  0  0  0  0  0
    3.2152    0.9480   -2.5141 N   0  0  0  0  0  0  0  0  0  0  0  0
   -2.7270   -0.0637    0.7707 O   0  0  0  0  0  0  0  0  0  0  0  0
   -3.1427    0.5310    2.0035 C   0  0  0  0  0  0  0  0  0  0  0  0
   -4.1468    0.1416    2.1916 H   0  0  0  0  0  0  0  0  0  0  0  0
   -3.1818    1.6269    1.9182 H   0  0  0  0  0  0  0  0  0  0  0  0
   -2.4731    0.2397    2.8257 H   0  0  0  0  0  0  0  0  0  0  0  0
    4.8683    1.4073    1.7447 O   0  0  0  0  0  0  0  0  0  0  0  0
    3.9801    1.1431    0.9357 N   0  0  0  0  0  0  0  0  0  0  0  0
    3.4709    0.0095    0.8157 O   0  0  0  0  0  0  0  0  0  0  0  0
    3.5402    2.0996    0.1726 O   0  0  0  0  0  0  0  0  0  0  0  0
  1  6  1  0  0  0  0
  2  1  2  0  0  0  0
  2  3  1  0  0  0  0
  3  4  2  0  0  0  0
  4  9  1  0  0  0  0
  4  5  1  0  0  0  0
  5 10  1  0  0  0  0
  6 13  1  0  0  0  0
  6  5  2  0  0  0  0
  7  1  1  0  0  0  0
  8  2  1  0  0  0  0
 12 11  3  0  0  0  0
 13 14  1  0  0  0  0
 14 15  1  0  0  0  0
 14 17  1  0  0  0  0
 16 14  1  0  0  0  0
 19 18  2  0  0  0  0
 20 19  1  0  0  0  0
 21 19  2  0  0  0  0
M  RAD  2   3   2  20   2
M  END
