Coordinates from ORCA-job p-CH3O-Ph-N2-NO3-B3LYPG-aug-cc-pVDZ-scan-d09-49-n400
 OpenBabel11111914563D

 21 21  0  0  1  0  0  0  0  0999 V2000
   -0.9276   -0.3399   -1.1308 C   0  0  0  0  0  0  0  0  0  0  0  0
    0.1089    0.0345   -1.9174 C   0  0  0  0  0  0  0  0  0  0  0  0
    1.0975    0.9560   -1.4051 C   0  0  0  0  0  0  0  0  0  0  0  0
    1.1420    1.3238    0.0468 C   0  0  1  0  0  0  0  0  0  0  0  0
   -0.1391    1.0565    0.7447 C   0  0  0  0  0  0  0  0  0  0  0  0
   -1.0719    0.2261    0.2015 C   0  0  0  0  0  0  0  0  0  0  0  0
   -1.6902   -1.0314   -1.4822 H   0  0  0  0  0  0  0  0  0  0  0  0
    0.2147   -0.3335   -2.9372 H   0  0  0  0  0  0  0  0  0  0  0  0
    1.5127    2.3386    0.2126 H   0  0  0  0  0  0  0  0  0  0  0  0
   -0.2632    1.5116    1.7215 H   0  0  0  0  0  0  0  0  0  0  0  0
    2.0040    1.4303   -2.1758 N   0  0  0  0  0  0  0  0  0  0  0  0
    2.8146    1.8604   -2.8542 N   0  0  0  0  0  0  0  0  0  0  0  0
   -2.2372   -0.1378    0.7951 O   0  0  0  0  0  0  0  0  0  0  0  0
   -2.4965    0.3461    2.1128 C   0  0  0  0  0  0  0  0  0  0  0  0
   -3.4562   -0.0892    2.4054 H   0  0  0  0  0  0  0  0  0  0  0  0
   -2.5683    1.4437    2.1198 H   0  0  0  0  0  0  0  0  0  0  0  0
   -1.7099    0.0215    2.8096 H   0  0  0  0  0  0  0  0  0  0  0  0
    2.3733    1.8593    2.3284 O   0  0  0  0  0  0  0  0  0  0  0  0
    2.8007    0.8319    1.8300 N   0  0  0  0  0  0  0  0  0  0  0  0
    3.6507    0.0880    2.2585 O   0  0  0  0  0  0  0  0  0  0  0  0
    2.2716    0.4258    0.6044 O   0  0  0  0  0  0  0  0  0  0  0  0
  1  6  2  0  0  0  0
  2  3  2  0  0  0  0
  2  1  1  0  0  0  0
  3  4  1  0  0  0  0
  4  9  1  1  0  0  0
  4 21  1  0  0  0  0
  4  5  1  0  0  0  0
  5 10  1  0  0  0  0
  6  5  1  0  0  0  0
  6 13  1  0  0  0  0
  7  1  1  0  0  0  0
  8  2  1  0  0  0  0
 11  3  1  0  0  0  0
 12 11  1  0  0  0  0
 13 14  1  0  0  0  0
 14 16  1  0  0  0  0
 14 15  1  0  0  0  0
 14 17  1  0  0  0  0
 19 20  2  0  0  0  0
 19 18  2  0  0  0  0
 21 19  1  0  0  0  0
M  RAD  3   5   2  11   2  12   3
M  END
