Coordinates from ORCA-job p-CH3O-Ph-N2-NO3-B3LYPG-aug-cc-pVDZ-scan-d09-49-n400
 OpenBabel11111914563D

 21 20  0  0  0  0  0  0  0  0999 V2000
   -0.4989   -0.5499   -0.4855 C   0  0  0  0  0  0  0  0  0  0  0  0
    0.8887   -0.6219   -0.4688 C   0  0  0  0  0  0  0  0  0  0  0  0
    1.6030    0.0472    0.5307 C   0  0  0  0  0  0  0  0  0  0  0  0
    0.9406    0.7891    1.5048 C   0  0  0  0  0  0  0  0  0  0  0  0
   -0.4540    0.8779    1.4841 C   0  0  0  0  0  0  0  0  0  0  0  0
   -1.1778    0.2059    0.4865 C   0  0  0  0  0  0  0  0  0  0  0  0
   -1.0797   -1.0715   -1.2446 H   0  0  0  0  0  0  0  0  0  0  0  0
    1.4270   -1.2076   -1.2130 H   0  0  0  0  0  0  0  0  0  0  0  0
    1.5114    1.2967    2.2810 H   0  0  0  0  0  0  0  0  0  0  0  0
   -0.9577    1.4635    2.2486 H   0  0  0  0  0  0  0  0  0  0  0  0
    0.9448    2.1960   -2.5052 N   0  0  0  0  0  0  0  0  0  0  0  0
    1.6314    2.1460   -3.3690 N   0  0  0  0  0  0  0  0  0  0  0  0
   -2.5361    0.2198    0.3792 O   0  0  0  0  0  0  0  0  0  0  0  0
   -3.2843    0.9697    1.3329 C   0  0  0  0  0  0  0  0  0  0  0  0
   -4.3339    0.8415    1.0525 H   0  0  0  0  0  0  0  0  0  0  0  0
   -3.0214    2.0377    1.2934 H   0  0  0  0  0  0  0  0  0  0  0  0
   -3.1273    0.5859    2.3524 H   0  0  0  0  0  0  0  0  0  0  0  0
    4.9667    0.7404    0.1201 O   0  0  0  0  0  0  0  0  0  0  0  0
    3.7957    0.9981    0.1113 N   0  0  0  0  0  0  0  0  0  0  0  0
    2.9836   -0.1427    0.5980 O   0  0  0  0  0  0  0  0  0  0  0  0
    3.2086    2.0008   -0.2011 O   0  0  0  0  0  0  0  0  0  0  0  0
  1  2  2  0  0  0  0
  1  6  1  0  0  0  0
  2  3  1  0  0  0  0
  3 20  1  0  0  0  0
  3  4  2  0  0  0  0
  4  9  1  0  0  0  0
  5  4  1  0  0  0  0
  5 10  1  0  0  0  0
  6  5  2  0  0  0  0
  7  1  1  0  0  0  0
  8  2  1  0  0  0  0
 12 11  3  0  0  0  0
 13  6  1  0  0  0  0
 13 14  1  0  0  0  0
 14 17  1  0  0  0  0
 15 14  1  0  0  0  0
 16 14  1  0  0  0  0
 19 18  2  0  0  0  0
 19 20  1  0  0  0  0
 21 19  2  0  0  0  0
M  END
