Coordinates from ORCA-job p-CH3O-Ph-N2-NO3-B3LYPG-aug-cc-pVDZ-scan-d09-49-n400
 OpenBabel11111914563D

 21 20  0  0  0  0  0  0  0  0999 V2000
   -0.4216   -0.4677   -0.4436 C   0  0  0  0  0  0  0  0  0  0  0  0
    0.9606   -0.5721   -0.3540 C   0  0  0  0  0  0  0  0  0  0  0  0
    1.6286    0.0132    0.7274 C   0  0  0  0  0  0  0  0  0  0  0  0
    0.9244    0.7007    1.7115 C   0  0  0  0  0  0  0  0  0  0  0  0
   -0.4673    0.8082    1.6282 C   0  0  0  0  0  0  0  0  0  0  0  0
   -1.1436    0.2249    0.5457 C   0  0  0  0  0  0  0  0  0  0  0  0
   -0.9672   -0.9175   -1.2718 H   0  0  0  0  0  0  0  0  0  0  0  0
    1.5290   -1.1097   -1.1120 H   0  0  0  0  0  0  0  0  0  0  0  0
    1.4627    1.1451    2.5478 H   0  0  0  0  0  0  0  0  0  0  0  0
   -1.0044    1.3435    2.4068 H   0  0  0  0  0  0  0  0  0  0  0  0
    0.8095    2.5862   -3.3014 N   0  0  0  0  0  0  0  0  0  0  0  0
    1.3414    2.2939   -4.2240 N   0  0  0  0  0  0  0  0  0  0  0  0
   -2.4932    0.2699    0.3655 O   0  0  0  0  0  0  0  0  0  0  0  0
   -3.2833    0.9622    1.3290 C   0  0  0  0  0  0  0  0  0  0  0  0
   -4.3173    0.8727    0.9832 H   0  0  0  0  0  0  0  0  0  0  0  0
   -3.0043    2.0254    1.3818 H   0  0  0  0  0  0  0  0  0  0  0  0
   -3.1884    0.5032    2.3249 H   0  0  0  0  0  0  0  0  0  0  0  0
    4.9984    0.6745    0.3457 O   0  0  0  0  0  0  0  0  0  0  0  0
    3.8257    0.8776    0.2021 N   0  0  0  0  0  0  0  0  0  0  0  0
    3.0036   -0.1680    0.8663 O   0  0  0  0  0  0  0  0  0  0  0  0
    3.2372    1.7565   -0.3708 O   0  0  0  0  0  0  0  0  0  0  0  0
  1  2  2  0  0  0  0
  1  6  1  0  0  0  0
  2  3  1  0  0  0  0
  3 20  1  0  0  0  0
  3  4  2  0  0  0  0
  4  9  1  0  0  0  0
  5  4  1  0  0  0  0
  5 10  1  0  0  0  0
  6  5  2  0  0  0  0
  7  1  1  0  0  0  0
  8  2  1  0  0  0  0
 12 11  3  0  0  0  0
 13  6  1  0  0  0  0
 13 14  1  0  0  0  0
 14 16  1  0  0  0  0
 14 17  1  0  0  0  0
 15 14  1  0  0  0  0
 19 18  2  0  0  0  0
 19 20  1  0  0  0  0
 21 19  2  0  0  0  0
M  END
