Coordinates from ORCA-job p-CH3O-Ph-N2-NO3-B3LYPG-aug-cc-pVDZ-scan-d09-49-n400
 OpenBabel11111914563D

 21 19  0  0  0  0  0  0  0  0999 V2000
   -1.1038   -0.4691   -0.8668 C   0  0  0  0  0  0  0  0  0  0  0  0
    0.1324   -0.2345   -1.4864 C   0  0  0  0  0  0  0  0  0  0  0  0
    0.8584    0.7052   -0.8158 C   0  0  0  0  0  0  0  0  0  0  0  0
    0.6471    1.4378    0.2999 C   0  0  0  0  0  0  0  0  0  0  0  0
   -0.6048    1.1722    0.8855 C   0  0  0  0  0  0  0  0  0  0  0  0
   -1.4706    0.2247    0.3049 C   0  0  0  0  0  0  0  0  0  0  0  0
   -1.7913   -1.1992   -1.2914 H   0  0  0  0  0  0  0  0  0  0  0  0
    0.4532   -0.7559   -2.3833 H   0  0  0  0  0  0  0  0  0  0  0  0
    1.4049    2.1151    0.6970 H   0  0  0  0  0  0  0  0  0  0  0  0
   -0.8662    1.7015    1.7979 H   0  0  0  0  0  0  0  0  0  0  0  0
    2.5760    1.2029   -1.6951 N   0  0  0  0  0  0  0  0  0  0  0  0
    3.2369    1.1543   -2.5841 N   0  0  0  0  0  0  0  0  0  0  0  0
   -2.6895   -0.0967    0.8037 O   0  0  0  0  0  0  0  0  0  0  0  0
   -3.1266    0.5397    2.0076 C   0  0  0  0  0  0  0  0  0  0  0  0
   -4.1159    0.1234    2.2155 H   0  0  0  0  0  0  0  0  0  0  0  0
   -3.2057    1.6282    1.8711 H   0  0  0  0  0  0  0  0  0  0  0  0
   -2.4470    0.3118    2.8416 H   0  0  0  0  0  0  0  0  0  0  0  0
    4.8184    1.1361    1.7500 O   0  0  0  0  0  0  0  0  0  0  0  0
    3.8988    1.0483    0.9371 N   0  0  0  0  0  0  0  0  0  0  0  0
    3.2823   -0.0227    0.7215 O   0  0  0  0  0  0  0  0  0  0  0  0
    3.5434    2.0998    0.2781 O   0  0  0  0  0  0  0  0  0  0  0  0
  1  6  1  0  0  0  0
  2  1  2  0  0  0  0
  2  3  1  0  0  0  0
  3  4  2  0  0  0  0
  4  9  1  0  0  0  0
  4  5  1  0  0  0  0
  5 10  1  0  0  0  0
  6 13  1  0  0  0  0
  6  5  2  0  0  0  0
  7  1  1  0  0  0  0
  8  2  1  0  0  0  0
 12 11  3  0  0  0  0
 13 14  1  0  0  0  0
 14 15  1  0  0  0  0
 14 17  1  0  0  0  0
 16 14  1  0  0  0  0
 19 18  2  0  0  0  0
 20 19  1  0  0  0  0
 21 19  2  0  0  0  0
M  RAD  2   3   2  20   2
M  END
