Coordinates from ORCA-job p-CH3O-Ph-N2-NO3-B3LYPG-aug-cc-pVDZ-scan-d09-49-n400
 OpenBabel11111914563D

 21 21  0  0  1  0  0  0  0  0999 V2000
   -0.9708   -0.3317   -1.1391 C   0  0  0  0  0  0  0  0  0  0  0  0
    0.0749    0.0534   -1.9253 C   0  0  0  0  0  0  0  0  0  0  0  0
    1.0110    0.9634   -1.3699 C   0  0  1  0  0  0  0  0  0  0  0  0
    1.0932    1.3626    0.0311 C   0  0  1  0  0  0  0  0  0  0  0  0
   -0.1707    1.0764    0.7283 C   0  0  0  0  0  0  0  0  0  0  0  0
   -1.1017    0.2273    0.1892 C   0  0  0  0  0  0  0  0  0  0  0  0
   -1.7316   -1.0219   -1.4949 H   0  0  0  0  0  0  0  0  0  0  0  0
    0.1907   -0.3046   -2.9463 H   0  0  0  0  0  0  0  0  0  0  0  0
    1.5041    2.3535    0.2253 H   0  0  0  0  0  0  0  0  0  0  0  0
   -0.2938    1.5230    1.7090 H   0  0  0  0  0  0  0  0  0  0  0  0
    2.1342    1.4255   -2.2527 N   0  0  0  0  0  0  0  0  0  0  0  0
    2.9766    1.7903   -2.9042 N   0  0  0  0  0  0  0  0  0  0  0  0
   -2.2508   -0.1497    0.8067 O   0  0  0  0  0  0  0  0  0  0  0  0
   -2.4900    0.3223    2.1324 C   0  0  0  0  0  0  0  0  0  0  0  0
   -3.4364   -0.1306    2.4415 H   0  0  0  0  0  0  0  0  0  0  0  0
   -2.5805    1.4185    2.1485 H   0  0  0  0  0  0  0  0  0  0  0  0
   -1.6847    0.0065    2.8115 H   0  0  0  0  0  0  0  0  0  0  0  0
    2.3612    1.8553    2.3461 O   0  0  0  0  0  0  0  0  0  0  0  0
    2.8121    0.8357    1.8382 N   0  0  0  0  0  0  0  0  0  0  0  0
    3.6880    0.1216    2.2789 O   0  0  0  0  0  0  0  0  0  0  0  0
    2.2955    0.4259    0.6339 O   0  0  0  0  0  0  0  0  0  0  0  0
  1  6  1  0  0  0  0
  2  3  1  0  0  0  0
  2  1  2  0  0  0  0
  3 11  1  1  0  0  0
  3  4  1  0  0  0  0
  4  9  1  1  0  0  0
  4 21  1  0  0  0  0
  4  5  1  0  0  0  0
  5 10  1  0  0  0  0
  6  5  2  0  0  0  0
  6 13  1  0  0  0  0
  7  1  1  0  0  0  0
  8  2  1  0  0  0  0
 12 11  1  0  0  0  0
 13 14  1  0  0  0  0
 14 16  1  0  0  0  0
 14 15  1  0  0  0  0
 14 17  1  0  0  0  0
 19 20  2  0  0  0  0
 19 18  2  0  0  0  0
 21 19  1  0  0  0  0
M  RAD  3   3   2  11   2  12   3
M  END
