Coordinates from ORCA-job p-CH3O-Ph-N2-NO3-B3LYPG-aug-cc-pVDZ-scan-d09-49-n400
 OpenBabel11111914563D

 21 20  0  0  0  0  0  0  0  0999 V2000
   -0.6280   -0.6754   -0.4978 C   0  0  0  0  0  0  0  0  0  0  0  0
    0.7533   -0.6677   -0.6298 C   0  0  0  0  0  0  0  0  0  0  0  0
    1.5235    0.1861    0.1697 C   0  0  0  0  0  0  0  0  0  0  0  0
    0.9265    0.9776    1.1468 C   0  0  0  0  0  0  0  0  0  0  0  0
   -0.4684    0.9869    1.2629 C   0  0  0  0  0  0  0  0  0  0  0  0
   -1.2519    0.1670    0.4388 C   0  0  0  0  0  0  0  0  0  0  0  0
   -1.2452   -1.3263   -1.1153 H   0  0  0  0  0  0  0  0  0  0  0  0
    1.2496   -1.3113   -1.3546 H   0  0  0  0  0  0  0  0  0  0  0  0
    1.5221    1.6035    1.8035 H   0  0  0  0  0  0  0  0  0  0  0  0
   -0.9230    1.6295    2.0124 H   0  0  0  0  0  0  0  0  0  0  0  0
    1.2449    1.8757   -1.7924 N   0  0  0  0  0  0  0  0  0  0  0  0
    2.0773    1.9378   -2.5181 N   0  0  0  0  0  0  0  0  0  0  0  0
   -2.6132    0.1032    0.4785 O   0  0  0  0  0  0  0  0  0  0  0  0
   -3.3011    0.9275    1.4156 C   0  0  0  0  0  0  0  0  0  0  0  0
   -4.3650    0.7209    1.2670 H   0  0  0  0  0  0  0  0  0  0  0  0
   -3.1039    1.9937    1.2269 H   0  0  0  0  0  0  0  0  0  0  0  0
   -3.0193    0.6755    2.4494 H   0  0  0  0  0  0  0  0  0  0  0  0
    4.9538    0.7508   -0.0502 O   0  0  0  0  0  0  0  0  0  0  0  0
    3.8195    1.1012    0.1339 N   0  0  0  0  0  0  0  0  0  0  0  0
    2.9069   -0.0231    0.0414 O   0  0  0  0  0  0  0  0  0  0  0  0
    3.3724    2.1897    0.3996 O   0  0  0  0  0  0  0  0  0  0  0  0
  1  6  1  0  0  0  0
  2  1  2  0  0  0  0
  2  3  1  0  0  0  0
  3  4  2  0  0  0  0
  4  5  1  0  0  0  0
  4  9  1  0  0  0  0
  5 10  1  0  0  0  0
  6 13  1  0  0  0  0
  6  5  2  0  0  0  0
  7  1  1  0  0  0  0
  8  2  1  0  0  0  0
 12 11  3  0  0  0  0
 13 14  1  0  0  0  0
 14 17  1  0  0  0  0
 15 14  1  0  0  0  0
 16 14  1  0  0  0  0
 18 19  2  0  0  0  0
 19 21  2  0  0  0  0
 20 19  1  0  0  0  0
 20  3  1  0  0  0  0
M  END
