Coordinates from ORCA-job p-CH3O-Ph-N2-NO3-B3LYPG-aug-cc-pVDZ-scan-d09-49-n400
 OpenBabel11111914563D

 21 21  0  0  1  0  0  0  0  0999 V2000
   -0.9504   -0.3348   -1.1356 C   0  0  0  0  0  0  0  0  0  0  0  0
    0.0910    0.0442   -1.9217 C   0  0  0  0  0  0  0  0  0  0  0  0
    1.0605    0.9489   -1.3851 C   0  0  1  0  0  0  0  0  0  0  0  0
    1.1272    1.3330    0.0433 C   0  0  1  0  0  0  0  0  0  0  0  0
   -0.1501    1.0588    0.7407 C   0  0  0  0  0  0  0  0  0  0  0  0
   -1.0844    0.2247    0.1973 C   0  0  0  0  0  0  0  0  0  0  0  0
   -1.7159   -1.0209   -1.4901 H   0  0  0  0  0  0  0  0  0  0  0  0
    0.1968   -0.3143   -2.9444 H   0  0  0  0  0  0  0  0  0  0  0  0
    1.5065    2.3426    0.2156 H   0  0  0  0  0  0  0  0  0  0  0  0
   -0.2737    1.5097    1.7194 H   0  0  0  0  0  0  0  0  0  0  0  0
    2.0751    1.4309   -2.2229 N   0  0  0  0  0  0  0  0  0  0  0  0
    2.8992    1.8303   -2.8900 N   0  0  0  0  0  0  0  0  0  0  0  0
   -2.2442   -0.1427    0.8013 O   0  0  0  0  0  0  0  0  0  0  0  0
   -2.4927    0.3341    2.1233 C   0  0  0  0  0  0  0  0  0  0  0  0
   -3.4478   -0.1065    2.4230 H   0  0  0  0  0  0  0  0  0  0  0  0
   -2.5693    1.4314    2.1365 H   0  0  0  0  0  0  0  0  0  0  0  0
   -1.6984    0.0098    2.8115 H   0  0  0  0  0  0  0  0  0  0  0  0
    2.3621    1.8648    2.3371 O   0  0  0  0  0  0  0  0  0  0  0  0
    2.8003    0.8403    1.8380 N   0  0  0  0  0  0  0  0  0  0  0  0
    3.6602    0.1089    2.2727 O   0  0  0  0  0  0  0  0  0  0  0  0
    2.2786    0.4294    0.6184 O   0  0  0  0  0  0  0  0  0  0  0  0
  1  6  1  0  0  0  0
  2  3  1  0  0  0  0
  2  1  2  0  0  0  0
  3 11  1  1  0  0  0
  3  4  1  0  0  0  0
  4  9  1  1  0  0  0
  4 21  1  0  0  0  0
  4  5  1  0  0  0  0
  5 10  1  0  0  0  0
  6  5  2  0  0  0  0
  6 13  1  0  0  0  0
  7  1  1  0  0  0  0
  8  2  1  0  0  0  0
 12 11  1  0  0  0  0
 13 14  1  0  0  0  0
 14 16  1  0  0  0  0
 14 15  1  0  0  0  0
 14 17  1  0  0  0  0
 19 20  2  0  0  0  0
 19 18  2  0  0  0  0
 21 19  1  0  0  0  0
M  RAD  3   3   2  11   2  12   3
M  END
