Coordinates from ORCA-job p-CH3O-Ph-N2-NO3-B3LYPG-aug-cc-pVDZ-scan-d09-49-n400
 OpenBabel11111914563D

 21 20  0  0  0  0  0  0  0  0999 V2000
   -0.5822   -0.6359   -0.4943 C   0  0  0  0  0  0  0  0  0  0  0  0
    0.8051   -0.6688   -0.5642 C   0  0  0  0  0  0  0  0  0  0  0  0
    1.5614    0.0935    0.3336 C   0  0  0  0  0  0  0  0  0  0  0  0
    0.9408    0.8802    1.3004 C   0  0  0  0  0  0  0  0  0  0  0  0
   -0.4551    0.9375    1.3538 C   0  0  0  0  0  0  0  0  0  0  0  0
   -1.2215    0.1769    0.4575 C   0  0  0  0  0  0  0  0  0  0  0  0
   -1.1917   -1.2300   -1.1736 H   0  0  0  0  0  0  0  0  0  0  0  0
    1.3142   -1.2918   -1.2983 H   0  0  0  0  0  0  0  0  0  0  0  0
    1.5344    1.4552    2.0073 H   0  0  0  0  0  0  0  0  0  0  0  0
   -0.9256    1.5669    2.1046 H   0  0  0  0  0  0  0  0  0  0  0  0
    1.1289    2.0171   -2.0917 N   0  0  0  0  0  0  0  0  0  0  0  0
    1.9151    2.0401   -2.8680 N   0  0  0  0  0  0  0  0  0  0  0  0
   -2.5845    0.1529    0.4354 O   0  0  0  0  0  0  0  0  0  0  0  0
   -3.2909    0.9542    1.3786 C   0  0  0  0  0  0  0  0  0  0  0  0
   -4.3524    0.7833    1.1762 H   0  0  0  0  0  0  0  0  0  0  0  0
   -3.0591    2.0219    1.2462 H   0  0  0  0  0  0  0  0  0  0  0  0
   -3.0607    0.6498    2.4110 H   0  0  0  0  0  0  0  0  0  0  0  0
    4.9473    0.7767   -0.0015 O   0  0  0  0  0  0  0  0  0  0  0  0
    3.7940    1.0834    0.1225 N   0  0  0  0  0  0  0  0  0  0  0  0
    2.9454   -0.1065    0.2976 O   0  0  0  0  0  0  0  0  0  0  0  0
    3.2675    2.1660    0.1551 O   0  0  0  0  0  0  0  0  0  0  0  0
  1  6  1  0  0  0  0
  2  1  2  0  0  0  0
  2  3  1  0  0  0  0
  3  4  2  0  0  0  0
  4  5  1  0  0  0  0
  4  9  1  0  0  0  0
  5 10  1  0  0  0  0
  6  5  2  0  0  0  0
  7  1  1  0  0  0  0
  8  2  1  0  0  0  0
 12 11  3  0  0  0  0
 13  6  1  0  0  0  0
 13 14  1  0  0  0  0
 14 17  1  0  0  0  0
 15 14  1  0  0  0  0
 16 14  1  0  0  0  0
 18 19  2  0  0  0  0
 19 21  2  0  0  0  0
 19 20  1  0  0  0  0
 20  3  1  0  0  0  0
M  END
