Coordinates from ORCA-job p-CH3O-Ph-N2-NO3-B3LYPG-aug-cc-pVDZ-scan-d09-49-n400
 OpenBabel11111914563D

 21 21  0  0  1  0  0  0  0  0999 V2000
   -0.9068   -0.3449   -1.1265 C   0  0  0  0  0  0  0  0  0  0  0  0
    0.1259    0.0254   -1.9136 C   0  0  0  0  0  0  0  0  0  0  0  0
    1.1275    0.9695   -1.4237 C   0  0  0  0  0  0  0  0  0  0  0  0
    1.1533    1.3193    0.0512 C   0  0  1  0  0  0  0  0  0  0  0  0
   -0.1311    1.0567    0.7472 C   0  0  0  0  0  0  0  0  0  0  0  0
   -1.0620    0.2282    0.2038 C   0  0  0  0  0  0  0  0  0  0  0  0
   -1.6643   -1.0442   -1.4746 H   0  0  0  0  0  0  0  0  0  0  0  0
    0.2367   -0.3529   -2.9294 H   0  0  0  0  0  0  0  0  0  0  0  0
    1.5189    2.3372    0.2131 H   0  0  0  0  0  0  0  0  0  0  0  0
   -0.2570    1.5163    1.7219 H   0  0  0  0  0  0  0  0  0  0  0  0
    1.9327    1.4251   -2.1246 N   0  0  0  0  0  0  0  0  0  0  0  0
    2.7331    1.8832   -2.8128 N   0  0  0  0  0  0  0  0  0  0  0  0
   -2.2318   -0.1328    0.7882 O   0  0  0  0  0  0  0  0  0  0  0  0
   -2.5015    0.3575    2.1017 C   0  0  0  0  0  0  0  0  0  0  0  0
   -3.4648   -0.0740    2.3879 H   0  0  0  0  0  0  0  0  0  0  0  0
   -2.5702    1.4553    2.1027 H   0  0  0  0  0  0  0  0  0  0  0  0
   -1.7215    0.0338    2.8063 H   0  0  0  0  0  0  0  0  0  0  0  0
    2.3887    1.8507    2.3206 O   0  0  0  0  0  0  0  0  0  0  0  0
    2.8067    0.8223    1.8198 N   0  0  0  0  0  0  0  0  0  0  0  0
    3.6511    0.0688    2.2386 O   0  0  0  0  0  0  0  0  0  0  0  0
    2.2671    0.4219    0.5905 O   0  0  0  0  0  0  0  0  0  0  0  0
  1  6  2  0  0  0  0
  2  3  2  0  0  0  0
  2  1  1  0  0  0  0
  3  4  1  0  0  0  0
  4  9  1  1  0  0  0
  4 21  1  0  0  0  0
  4  5  1  0  0  0  0
  5 10  1  0  0  0  0
  6  5  1  0  0  0  0
  6 13  1  0  0  0  0
  7  1  1  0  0  0  0
  8  2  1  0  0  0  0
 11  3  1  0  0  0  0
 12 11  1  0  0  0  0
 13 14  1  0  0  0  0
 14 16  1  0  0  0  0
 14 15  1  0  0  0  0
 14 17  1  0  0  0  0
 19 20  2  0  0  0  0
 19 18  2  0  0  0  0
 21 19  1  0  0  0  0
M  RAD  3   5   2  11   2  12   3
M  END
