Coordinates from ORCA-job p-CH3O-Ph-N2-NO3-B3LYPG-aug-cc-pVDZ-scan-d09-49-n400
 OpenBabel11111914563D

 21 19  0  0  0  0  0  0  0  0999 V2000
   -1.1589   -0.4118   -0.9202 C   0  0  0  0  0  0  0  0  0  0  0  0
    0.0826   -0.1927   -1.5277 C   0  0  0  0  0  0  0  0  0  0  0  0
    0.8602    0.6849   -0.8217 C   0  0  0  0  0  0  0  0  0  0  0  0
    0.6625    1.3646    0.3340 C   0  0  0  0  0  0  0  0  0  0  0  0
   -0.5961    1.1195    0.9103 C   0  0  0  0  0  0  0  0  0  0  0  0
   -1.4978    0.2355    0.2869 C   0  0  0  0  0  0  0  0  0  0  0  0
   -1.8755   -1.0926   -1.3773 H   0  0  0  0  0  0  0  0  0  0  0  0
    0.3808   -0.6790   -2.4520 H   0  0  0  0  0  0  0  0  0  0  0  0
    1.4326    2.0118    0.7539 H   0  0  0  0  0  0  0  0  0  0  0  0
   -0.8396    1.6177    1.8447 H   0  0  0  0  0  0  0  0  0  0  0  0
    2.5734    1.0768   -1.6256 N   0  0  0  0  0  0  0  0  0  0  0  0
    3.2230    0.9533   -2.5183 N   0  0  0  0  0  0  0  0  0  0  0  0
   -2.7266   -0.0642    0.7724 O   0  0  0  0  0  0  0  0  0  0  0  0
   -3.1412    0.5314    2.0052 C   0  0  0  0  0  0  0  0  0  0  0  0
   -4.1450    0.1418    2.1946 H   0  0  0  0  0  0  0  0  0  0  0  0
   -3.1806    1.6271    1.9190 H   0  0  0  0  0  0  0  0  0  0  0  0
   -2.4706    0.2408    2.8269 H   0  0  0  0  0  0  0  0  0  0  0  0
    4.8645    1.4023    1.7503 O   0  0  0  0  0  0  0  0  0  0  0  0
    3.9762    1.1430    0.9398 N   0  0  0  0  0  0  0  0  0  0  0  0
    3.4643    0.0109    0.8163 O   0  0  0  0  0  0  0  0  0  0  0  0
    3.5421    2.1018    0.1768 O   0  0  0  0  0  0  0  0  0  0  0  0
  1  6  1  0  0  0  0
  2  1  2  0  0  0  0
  2  3  1  0  0  0  0
  3  4  2  0  0  0  0
  4  9  1  0  0  0  0
  4  5  1  0  0  0  0
  5 10  1  0  0  0  0
  6 13  1  0  0  0  0
  6  5  2  0  0  0  0
  7  1  1  0  0  0  0
  8  2  1  0  0  0  0
 12 11  3  0  0  0  0
 13 14  1  0  0  0  0
 14 15  1  0  0  0  0
 14 17  1  0  0  0  0
 16 14  1  0  0  0  0
 19 18  2  0  0  0  0
 20 19  1  0  0  0  0
 21 19  2  0  0  0  0
M  RAD  2   3   2  20   2
M  END
