Coordinates from ORCA-job p-CH3O-Ph-N2-NO3-B3LYPG-aug-cc-pVDZ-scan-d09-49-n400
 OpenBabel11111914563D

 21 20  0  0  0  0  0  0  0  0999 V2000
   -0.5811   -0.6350   -0.4941 C   0  0  0  0  0  0  0  0  0  0  0  0
    0.8062   -0.6686   -0.5628 C   0  0  0  0  0  0  0  0  0  0  0  0
    1.5621    0.0921    0.3367 C   0  0  0  0  0  0  0  0  0  0  0  0
    0.9410    0.8785    1.3034 C   0  0  0  0  0  0  0  0  0  0  0  0
   -0.4550    0.9365    1.3557 C   0  0  0  0  0  0  0  0  0  0  0  0
   -1.2208    0.1772    0.4579 C   0  0  0  0  0  0  0  0  0  0  0  0
   -1.1904   -1.2280   -1.1746 H   0  0  0  0  0  0  0  0  0  0  0  0
    1.3157   -1.2912   -1.2970 H   0  0  0  0  0  0  0  0  0  0  0  0
    1.5344    1.4525    2.0112 H   0  0  0  0  0  0  0  0  0  0  0  0
   -0.9258    1.5656    2.1066 H   0  0  0  0  0  0  0  0  0  0  0  0
    1.1263    2.0196   -2.0978 N   0  0  0  0  0  0  0  0  0  0  0  0
    1.9114    2.0424   -2.8752 N   0  0  0  0  0  0  0  0  0  0  0  0
   -2.5838    0.1539    0.4345 O   0  0  0  0  0  0  0  0  0  0  0  0
   -3.2907    0.9546    1.3779 C   0  0  0  0  0  0  0  0  0  0  0  0
   -4.3521    0.7845    1.1744 H   0  0  0  0  0  0  0  0  0  0  0  0
   -3.0583    2.0224    1.2466 H   0  0  0  0  0  0  0  0  0  0  0  0
   -3.0615    0.6491    2.4102 H   0  0  0  0  0  0  0  0  0  0  0  0
    4.9473    0.7767   -0.0001 O   0  0  0  0  0  0  0  0  0  0  0  0
    3.7936    1.0826    0.1223 N   0  0  0  0  0  0  0  0  0  0  0  0
    2.9461   -0.1076    0.3023 O   0  0  0  0  0  0  0  0  0  0  0  0
    3.2658    2.1647    0.1502 O   0  0  0  0  0  0  0  0  0  0  0  0
  1  6  1  0  0  0  0
  2  1  2  0  0  0  0
  2  3  1  0  0  0  0
  3  4  2  0  0  0  0
  4  5  1  0  0  0  0
  4  9  1  0  0  0  0
  5 10  1  0  0  0  0
  6  5  2  0  0  0  0
  7  1  1  0  0  0  0
  8  2  1  0  0  0  0
 12 11  3  0  0  0  0
 13  6  1  0  0  0  0
 13 14  1  0  0  0  0
 14 17  1  0  0  0  0
 15 14  1  0  0  0  0
 16 14  1  0  0  0  0
 18 19  2  0  0  0  0
 19 21  2  0  0  0  0
 19 20  1  0  0  0  0
 20  3  1  0  0  0  0
M  END
