Coordinates from ORCA-job p-CH3O-Ph-N2-NO3-B3LYPG-aug-cc-pVDZ-scan-d09-49-n400
 OpenBabel11111914563D

 21 20  0  0  0  0  0  0  0  0999 V2000
   -1.1566   -0.3677   -0.9393 C   0  0  0  0  0  0  0  0  0  0  0  0
    0.0975   -0.1540   -1.5071 C   0  0  0  0  0  0  0  0  0  0  0  0
    0.9219    0.6845   -0.7830 C   0  0  0  0  0  0  0  0  0  0  0  0
    0.6731    1.3208    0.4013 C   0  0  0  0  0  0  0  0  0  0  0  0
   -0.5965    1.0903    0.9467 C   0  0  0  0  0  0  0  0  0  0  0  0
   -1.5068    0.2480    0.2812 C   0  0  0  0  0  0  0  0  0  0  0  0
   -1.8798   -1.0167   -1.4299 H   0  0  0  0  0  0  0  0  0  0  0  0
    0.3967   -0.6196   -2.4423 H   0  0  0  0  0  0  0  0  0  0  0  0
    1.4304    1.9495    0.8640 H   0  0  0  0  0  0  0  0  0  0  0  0
   -0.8504    1.5677    1.8888 H   0  0  0  0  0  0  0  0  0  0  0  0
    2.4925    0.9745   -1.5035 N   0  0  0  0  0  0  0  0  0  0  0  0
    3.1171    0.8195   -2.4145 N   0  0  0  0  0  0  0  0  0  0  0  0
   -2.7504   -0.0376    0.7331 O   0  0  0  0  0  0  0  0  0  0  0  0
   -3.1792    0.5323    1.9735 C   0  0  0  0  0  0  0  0  0  0  0  0
   -4.1950    0.1598    2.1300 H   0  0  0  0  0  0  0  0  0  0  0  0
   -3.1928    1.6305    1.9176 H   0  0  0  0  0  0  0  0  0  0  0  0
   -2.5332    0.2041    2.8005 H   0  0  0  0  0  0  0  0  0  0  0  0
    4.9331    1.5685    1.6324 O   0  0  0  0  0  0  0  0  0  0  0  0
    4.0545    1.1849    0.8642 N   0  0  0  0  0  0  0  0  0  0  0  0
    3.6653    0.0049    0.7821 O   0  0  0  0  0  0  0  0  0  0  0  0
    3.4892    2.0783    0.0927 O   0  0  0  0  0  0  0  0  0  0  0  0
  1  6  1  0  0  0  0
  2  1  2  0  0  0  0
  2  3  1  0  0  0  0
  3  4  2  0  0  0  0
  4  9  1  0  0  0  0
  4  5  1  0  0  0  0
  5 10  1  0  0  0  0
  6 13  1  0  0  0  0
  6  5  2  0  0  0  0
  7  1  1  0  0  0  0
  8  2  1  0  0  0  0
 11  3  1  0  0  0  0
 12 11  2  0  0  0  0
 13 14  1  0  0  0  0
 14 15  1  0  0  0  0
 14 17  1  0  0  0  0
 16 14  1  0  0  0  0
 19 18  2  0  0  0  0
 20 19  1  0  0  0  0
 21 19  2  0  0  0  0
M  RAD  2  12   2  20   2
M  END
