Coordinates from ORCA-job p-CH3O-Ph-N2-NO3-B3LYPG-aug-cc-pVDZ-scan-d09-49-n400
 OpenBabel11111914563D

 21 20  0  0  0  0  0  0  0  0999 V2000
   -0.6340   -0.6833   -0.4998 C   0  0  0  0  0  0  0  0  0  0  0  0
    0.7448   -0.6654   -0.6463 C   0  0  0  0  0  0  0  0  0  0  0  0
    1.5145    0.2211    0.1193 C   0  0  0  0  0  0  0  0  0  0  0  0
    0.9233    1.0018    1.1093 C   0  0  0  0  0  0  0  0  0  0  0  0
   -0.4699    0.9990    1.2409 C   0  0  0  0  0  0  0  0  0  0  0  0
   -1.2560    0.1675    0.4313 C   0  0  0  0  0  0  0  0  0  0  0  0
   -1.2513   -1.3514   -1.0984 H   0  0  0  0  0  0  0  0  0  0  0  0
    1.2391   -1.3161   -1.3659 H   0  0  0  0  0  0  0  0  0  0  0  0
    1.5193    1.6376    1.7550 H   0  0  0  0  0  0  0  0  0  0  0  0
   -0.9213    1.6404    1.9933 H   0  0  0  0  0  0  0  0  0  0  0  0
    1.2570    1.8206   -1.6835 N   0  0  0  0  0  0  0  0  0  0  0  0
    2.0889    1.9069   -2.4089 N   0  0  0  0  0  0  0  0  0  0  0  0
   -2.6159    0.0942    0.4843 O   0  0  0  0  0  0  0  0  0  0  0  0
   -3.3014    0.9242    1.4184 C   0  0  0  0  0  0  0  0  0  0  0  0
   -4.3653    0.7107    1.2795 H   0  0  0  0  0  0  0  0  0  0  0  0
   -3.1107    1.9894    1.2176 H   0  0  0  0  0  0  0  0  0  0  0  0
   -3.0109    0.6837    2.4524 H   0  0  0  0  0  0  0  0  0  0  0  0
    4.9557    0.7438   -0.0700 O   0  0  0  0  0  0  0  0  0  0  0  0
    3.8272    1.1043    0.1307 N   0  0  0  0  0  0  0  0  0  0  0  0
    2.8972    0.0074   -0.0245 O   0  0  0  0  0  0  0  0  0  0  0  0
    3.4002    2.1860    0.4536 O   0  0  0  0  0  0  0  0  0  0  0  0
  1  6  1  0  0  0  0
  2  1  2  0  0  0  0
  2  3  1  0  0  0  0
  3  4  2  0  0  0  0
  4  5  1  0  0  0  0
  4  9  1  0  0  0  0
  5 10  1  0  0  0  0
  6 13  1  0  0  0  0
  6  5  2  0  0  0  0
  7  1  1  0  0  0  0
  8  2  1  0  0  0  0
 12 11  3  0  0  0  0
 13 14  1  0  0  0  0
 14 17  1  0  0  0  0
 15 14  1  0  0  0  0
 16 14  1  0  0  0  0
 18 19  2  0  0  0  0
 19 21  2  0  0  0  0
 20  3  1  0  0  0  0
 20 19  1  0  0  0  0
M  END
