Coordinates from ORCA-job p-CH3O-Ph-N2-NO3-B3LYPG-aug-cc-pVDZ-scan-d09-49-n400
 OpenBabel11111914563D

 21 20  0  0  0  0  0  0  0  0999 V2000
   -0.5332   -0.5872   -0.4892 C   0  0  0  0  0  0  0  0  0  0  0  0
    0.8552   -0.6450   -0.5060 C   0  0  0  0  0  0  0  0  0  0  0  0
    1.5877    0.0591    0.4555 C   0  0  0  0  0  0  0  0  0  0  0  0
    0.9427    0.8222    1.4255 C   0  0  0  0  0  0  0  0  0  0  0  0
   -0.4526    0.9012    1.4330 C   0  0  0  0  0  0  0  0  0  0  0  0
   -1.1950    0.1931    0.4749 C   0  0  0  0  0  0  0  0  0  0  0  0
   -1.1271   -1.1373   -1.2176 H   0  0  0  0  0  0  0  0  0  0  0  0
    1.3811   -1.2475   -1.2457 H   0  0  0  0  0  0  0  0  0  0  0  0
    1.5247    1.3568    2.1741 H   0  0  0  0  0  0  0  0  0  0  0  0
   -0.9425    1.5066    2.1911 H   0  0  0  0  0  0  0  0  0  0  0  0
    1.0170    2.1247   -2.3453 N   0  0  0  0  0  0  0  0  0  0  0  0
    1.7492    2.1150   -3.1727 N   0  0  0  0  0  0  0  0  0  0  0  0
   -2.5559    0.1932    0.4007 O   0  0  0  0  0  0  0  0  0  0  0  0
   -3.2865    0.9651    1.3503 C   0  0  0  0  0  0  0  0  0  0  0  0
   -4.3416    0.8201    1.1005 H   0  0  0  0  0  0  0  0  0  0  0  0
   -3.0342    2.0336    1.2726 H   0  0  0  0  0  0  0  0  0  0  0  0
   -3.1006    0.6133    2.3765 H   0  0  0  0  0  0  0  0  0  0  0  0
    4.9568    0.7553    0.0666 O   0  0  0  0  0  0  0  0  0  0  0  0
    3.7919    1.0356    0.1156 N   0  0  0  0  0  0  0  0  0  0  0  0
    2.9700   -0.1372    0.4867 O   0  0  0  0  0  0  0  0  0  0  0  0
    3.2234    2.0820   -0.0587 O   0  0  0  0  0  0  0  0  0  0  0  0
  1  6  1  0  0  0  0
  2  1  2  0  0  0  0
  2  3  1  0  0  0  0
  3 20  1  0  0  0  0
  3  4  2  0  0  0  0
  4  5  1  0  0  0  0
  4  9  1  0  0  0  0
  5 10  1  0  0  0  0
  6  5  2  0  0  0  0
  7  1  1  0  0  0  0
  8  2  1  0  0  0  0
 12 11  3  0  0  0  0
 13  6  1  0  0  0  0
 13 14  1  0  0  0  0
 14 17  1  0  0  0  0
 15 14  1  0  0  0  0
 16 14  1  0  0  0  0
 18 19  2  0  0  0  0
 19 20  1  0  0  0  0
 21 19  2  0  0  0  0
M  END
