Coordinates from ORCA-job p-CH3O-Ph-N2-NO3-B3LYPG-aug-cc-pVDZ-scan-d09-49-n400
 OpenBabel11111914563D

 21 20  0  0  0  0  0  0  0  0999 V2000
   -0.4415   -0.4807   -0.4637 C   0  0  0  0  0  0  0  0  0  0  0  0
    0.9425   -0.5765   -0.3921 C   0  0  0  0  0  0  0  0  0  0  0  0
    1.6224    0.0281    0.6710 C   0  0  0  0  0  0  0  0  0  0  0  0
    0.9286    0.7269    1.6546 C   0  0  0  0  0  0  0  0  0  0  0  0
   -0.4643    0.8283    1.5877 C   0  0  0  0  0  0  0  0  0  0  0  0
   -1.1527    0.2248    0.5239 C   0  0  0  0  0  0  0  0  0  0  0  0
   -0.9962   -0.9469   -1.2765 H   0  0  0  0  0  0  0  0  0  0  0  0
    1.5033   -1.1243   -1.1484 H   0  0  0  0  0  0  0  0  0  0  0  0
    1.4757    1.1860    2.4771 H   0  0  0  0  0  0  0  0  0  0  0  0
   -0.9931    1.3739    2.3648 H   0  0  0  0  0  0  0  0  0  0  0  0
    0.8572    2.4323   -2.9933 N   0  0  0  0  0  0  0  0  0  0  0  0
    1.4318    2.2142   -3.9109 N   0  0  0  0  0  0  0  0  0  0  0  0
   -2.5049    0.2614    0.3618 O   0  0  0  0  0  0  0  0  0  0  0  0
   -3.2848    0.9654    1.3252 C   0  0  0  0  0  0  0  0  0  0  0  0
   -4.3230    0.8662    0.9949 H   0  0  0  0  0  0  0  0  0  0  0  0
   -3.0097    2.0305    1.3575 H   0  0  0  0  0  0  0  0  0  0  0  0
   -3.1744    0.5224    2.3266 H   0  0  0  0  0  0  0  0  0  0  0  0
    4.9865    0.7068    0.2655 O   0  0  0  0  0  0  0  0  0  0  0  0
    3.8119    0.9164    0.1499 N   0  0  0  0  0  0  0  0  0  0  0  0
    2.9997   -0.1504    0.7914 O   0  0  0  0  0  0  0  0  0  0  0  0
    3.2155    1.8177   -0.3785 O   0  0  0  0  0  0  0  0  0  0  0  0
  1  2  2  0  0  0  0
  1  6  1  0  0  0  0
  2  3  1  0  0  0  0
  3 20  1  0  0  0  0
  3  4  2  0  0  0  0
  4  9  1  0  0  0  0
  5  4  1  0  0  0  0
  5 10  1  0  0  0  0
  6  5  2  0  0  0  0
  7  1  1  0  0  0  0
  8  2  1  0  0  0  0
 12 11  3  0  0  0  0
 13  6  1  0  0  0  0
 13 14  1  0  0  0  0
 14 16  1  0  0  0  0
 14 17  1  0  0  0  0
 15 14  1  0  0  0  0
 19 18  2  0  0  0  0
 19 20  1  0  0  0  0
 21 19  2  0  0  0  0
M  END
