Coordinates from ORCA-job p-CH3O-Ph-N2-NO3-B3LYPG-aug-cc-pVDZ-scan-d09-49-n400
 OpenBabel11111914563D

 21 20  0  0  0  0  0  0  0  0999 V2000
   -0.6331   -0.6821   -0.4995 C   0  0  0  0  0  0  0  0  0  0  0  0
    0.7462   -0.6659   -0.6436 C   0  0  0  0  0  0  0  0  0  0  0  0
    1.5161    0.2146    0.1281 C   0  0  0  0  0  0  0  0  0  0  0  0
    0.9240    0.9979    1.1153 C   0  0  0  0  0  0  0  0  0  0  0  0
   -0.4696    0.9971    1.2443 C   0  0  0  0  0  0  0  0  0  0  0  0
   -1.2553    0.1673    0.4325 C   0  0  0  0  0  0  0  0  0  0  0  0
   -1.2504   -1.3472   -1.1015 H   0  0  0  0  0  0  0  0  0  0  0  0
    1.2411   -1.3150   -1.3644 H   0  0  0  0  0  0  0  0  0  0  0  0
    1.5199    1.6323    1.7626 H   0  0  0  0  0  0  0  0  0  0  0  0
   -0.9215    1.6391    1.9959 H   0  0  0  0  0  0  0  0  0  0  0  0
    1.2547    1.8300   -1.7005 N   0  0  0  0  0  0  0  0  0  0  0  0
    2.0857    1.9123   -2.4270 N   0  0  0  0  0  0  0  0  0  0  0  0
   -2.6155    0.0955    0.4834 O   0  0  0  0  0  0  0  0  0  0  0  0
   -3.3012    0.9247    1.4179 C   0  0  0  0  0  0  0  0  0  0  0  0
   -4.3651    0.7122    1.2776 H   0  0  0  0  0  0  0  0  0  0  0  0
   -3.1096    1.9901    1.2189 H   0  0  0  0  0  0  0  0  0  0  0  0
   -3.0120    0.6826    2.4520 H   0  0  0  0  0  0  0  0  0  0  0  0
    4.9555    0.7445   -0.0656 O   0  0  0  0  0  0  0  0  0  0  0  0
    3.8260    1.1036    0.1314 N   0  0  0  0  0  0  0  0  0  0  0  0
    2.8988    0.0020   -0.0137 O   0  0  0  0  0  0  0  0  0  0  0  0
    3.3958    2.1869    0.4442 O   0  0  0  0  0  0  0  0  0  0  0  0
  1  6  1  0  0  0  0
  2  1  2  0  0  0  0
  2  3  1  0  0  0  0
  3  4  2  0  0  0  0
  4  5  1  0  0  0  0
  4  9  1  0  0  0  0
  5 10  1  0  0  0  0
  6 13  1  0  0  0  0
  6  5  2  0  0  0  0
  7  1  1  0  0  0  0
  8  2  1  0  0  0  0
 12 11  3  0  0  0  0
 13 14  1  0  0  0  0
 14 17  1  0  0  0  0
 15 14  1  0  0  0  0
 16 14  1  0  0  0  0
 18 19  2  0  0  0  0
 19 21  2  0  0  0  0
 20  3  1  0  0  0  0
 20 19  1  0  0  0  0
M  END
