Coordinates from ORCA-job p-CH3O-Ph-N2-NO3-B3LYPG-aug-cc-pVDZ-scan-d09-49-n400
 OpenBabel11111914563D

 21 20  0  0  0  0  0  0  0  0999 V2000
   -0.5549   -0.6116   -0.4907 C   0  0  0  0  0  0  0  0  0  0  0  0
    0.8334   -0.6597   -0.5300 C   0  0  0  0  0  0  0  0  0  0  0  0
    1.5773    0.0695    0.4046 C   0  0  0  0  0  0  0  0  0  0  0  0
    0.9432    0.8461    1.3710 C   0  0  0  0  0  0  0  0  0  0  0  0
   -0.4525    0.9169    1.3979 C   0  0  0  0  0  0  0  0  0  0  0  0
   -1.2059    0.1847    0.4672 C   0  0  0  0  0  0  0  0  0  0  0  0
   -1.1563   -1.1812   -1.1975 H   0  0  0  0  0  0  0  0  0  0  0  0
    1.3517   -1.2725   -1.2665 H   0  0  0  0  0  0  0  0  0  0  0  0
    1.5313    1.3993    2.1006 H   0  0  0  0  0  0  0  0  0  0  0  0
   -0.9337    1.5347    2.1515 H   0  0  0  0  0  0  0  0  0  0  0  0
    1.0624    2.0793   -2.2335 N   0  0  0  0  0  0  0  0  0  0  0  0
    1.8194    2.0944   -3.0381 N   0  0  0  0  0  0  0  0  0  0  0  0
   -2.5681    0.1752    0.4153 O   0  0  0  0  0  0  0  0  0  0  0  0
   -3.2877    0.9619    1.3610 C   0  0  0  0  0  0  0  0  0  0  0  0
   -4.3459    0.8057    1.1318 H   0  0  0  0  0  0  0  0  0  0  0  0
   -3.0433    2.0300    1.2577 H   0  0  0  0  0  0  0  0  0  0  0  0
   -3.0828    0.6321    2.3910 H   0  0  0  0  0  0  0  0  0  0  0  0
    4.9517    0.7649    0.0333 O   0  0  0  0  0  0  0  0  0  0  0  0
    3.7916    1.0576    0.1181 N   0  0  0  0  0  0  0  0  0  0  0  0
    2.9601   -0.1285    0.4082 O   0  0  0  0  0  0  0  0  0  0  0  0
    3.2395    2.1241    0.0352 O   0  0  0  0  0  0  0  0  0  0  0  0
  1  6  1  0  0  0  0
  2  1  2  0  0  0  0
  2  3  1  0  0  0  0
  3 20  1  0  0  0  0
  3  4  2  0  0  0  0
  4  5  1  0  0  0  0
  4  9  1  0  0  0  0
  5 10  1  0  0  0  0
  6  5  2  0  0  0  0
  7  1  1  0  0  0  0
  8  2  1  0  0  0  0
 12 11  3  0  0  0  0
 13  6  1  0  0  0  0
 13 14  1  0  0  0  0
 14 17  1  0  0  0  0
 15 14  1  0  0  0  0
 16 14  1  0  0  0  0
 18 19  2  0  0  0  0
 19 20  1  0  0  0  0
 21 19  2  0  0  0  0
M  END
