Coordinates from ORCA-job p-CH3O-Ph-N2-NO3-B3LYPG-aug-cc-pVDZ-scan-d09-49-n400
 OpenBabel11111914563D

 21 20  0  0  0  0  0  0  0  0999 V2000
   -1.1593   -0.3971   -0.9273 C   0  0  0  0  0  0  0  0  0  0  0  0
    0.0860   -0.1791   -1.5240 C   0  0  0  0  0  0  0  0  0  0  0  0
    0.8755    0.6858   -0.8102 C   0  0  0  0  0  0  0  0  0  0  0  0
    0.6663    1.3527    0.3543 C   0  0  0  0  0  0  0  0  0  0  0  0
   -0.5960    1.1108    0.9214 C   0  0  0  0  0  0  0  0  0  0  0  0
   -1.5006    0.2396    0.2847 C   0  0  0  0  0  0  0  0  0  0  0  0
   -1.8782   -1.0681   -1.3946 H   0  0  0  0  0  0  0  0  0  0  0  0
    0.3844   -0.6582   -2.4521 H   0  0  0  0  0  0  0  0  0  0  0  0
    1.4324    1.9947    0.7867 H   0  0  0  0  0  0  0  0  0  0  0  0
   -0.8423    1.6020    1.8587 H   0  0  0  0  0  0  0  0  0  0  0  0
    2.5513    1.0437   -1.5892 N   0  0  0  0  0  0  0  0  0  0  0  0
    3.1892    0.9045   -2.4895 N   0  0  0  0  0  0  0  0  0  0  0  0
   -2.7339   -0.0565    0.7605 O   0  0  0  0  0  0  0  0  0  0  0  0
   -3.1520    0.5303    1.9963 C   0  0  0  0  0  0  0  0  0  0  0  0
   -4.1594    0.1456    2.1761 H   0  0  0  0  0  0  0  0  0  0  0  0
   -3.1837    1.6270    1.9201 H   0  0  0  0  0  0  0  0  0  0  0  0
   -2.4883    0.2278    2.8192 H   0  0  0  0  0  0  0  0  0  0  0  0
    4.8846    1.4566    1.7197 O   0  0  0  0  0  0  0  0  0  0  0  0
    4.0005    1.1568    0.9190 N   0  0  0  0  0  0  0  0  0  0  0  0
    3.5223    0.0096    0.8130 O   0  0  0  0  0  0  0  0  0  0  0  0
    3.5318    2.0944    0.1457 O   0  0  0  0  0  0  0  0  0  0  0  0
  1  6  1  0  0  0  0
  2  1  2  0  0  0  0
  2  3  1  0  0  0  0
  3  4  2  0  0  0  0
  4  9  1  0  0  0  0
  4  5  1  0  0  0  0
  5 10  1  0  0  0  0
  6 13  1  0  0  0  0
  6  5  2  0  0  0  0
  7  1  1  0  0  0  0
  8  2  1  0  0  0  0
 11  3  1  0  0  0  0
 12 11  2  0  0  0  0
 13 14  1  0  0  0  0
 14 15  1  0  0  0  0
 14 17  1  0  0  0  0
 16 14  1  0  0  0  0
 19 18  2  0  0  0  0
 20 19  1  0  0  0  0
 21 19  2  0  0  0  0
M  RAD  2  12   2  20   2
M  END
