Coordinates from ORCA-job p-CH3O-Ph-N2-NO3-B3LYPG-aug-cc-pVDZ-scan-d09-49-n400
 OpenBabel11111914563D

 21 20  0  0  0  0  0  0  0  0999 V2000
   -0.4691   -0.5110   -0.4800 C   0  0  0  0  0  0  0  0  0  0  0  0
    0.9169   -0.5954   -0.4347 C   0  0  0  0  0  0  0  0  0  0  0  0
    1.6140    0.0392    0.5991 C   0  0  0  0  0  0  0  0  0  0  0  0
    0.9355    0.7583    1.5790 C   0  0  0  0  0  0  0  0  0  0  0  0
   -0.4583    0.8539    1.5346 C   0  0  0  0  0  0  0  0  0  0  0  0
   -1.1644    0.2181    0.5014 C   0  0  0  0  0  0  0  0  0  0  0  0
   -1.0371   -1.0035   -1.2678 H   0  0  0  0  0  0  0  0  0  0  0  0
    1.4666   -1.1612   -1.1860 H   0  0  0  0  0  0  0  0  0  0  0  0
    1.4948    1.2401    2.3800 H   0  0  0  0  0  0  0  0  0  0  0  0
   -0.9748    1.4183    2.3065 H   0  0  0  0  0  0  0  0  0  0  0  0
    0.8963    2.2857   -2.7031 N   0  0  0  0  0  0  0  0  0  0  0  0
    1.5311    2.1611   -3.5983 N   0  0  0  0  0  0  0  0  0  0  0  0
   -2.5198    0.2438    0.3655 O   0  0  0  0  0  0  0  0  0  0  0  0
   -3.2841    0.9694    1.3253 C   0  0  0  0  0  0  0  0  0  0  0  0
   -4.3281    0.8565    1.0186 H   0  0  0  0  0  0  0  0  0  0  0  0
   -3.0142    2.0363    1.3239 H   0  0  0  0  0  0  0  0  0  0  0  0
   -3.1515    0.5538    2.3358 H   0  0  0  0  0  0  0  0  0  0  0  0
    4.9762    0.7292    0.1864 O   0  0  0  0  0  0  0  0  0  0  0  0
    3.8019    0.9612    0.1198 N   0  0  0  0  0  0  0  0  0  0  0  0
    2.9931   -0.1438    0.6943 O   0  0  0  0  0  0  0  0  0  0  0  0
    3.2055    1.9126   -0.3121 O   0  0  0  0  0  0  0  0  0  0  0  0
  1  2  2  0  0  0  0
  1  6  1  0  0  0  0
  2  3  1  0  0  0  0
  3 20  1  0  0  0  0
  3  4  2  0  0  0  0
  4  9  1  0  0  0  0
  5  4  1  0  0  0  0
  5 10  1  0  0  0  0
  6  5  2  0  0  0  0
  7  1  1  0  0  0  0
  8  2  1  0  0  0  0
 12 11  3  0  0  0  0
 13  6  1  0  0  0  0
 13 14  1  0  0  0  0
 14 17  1  0  0  0  0
 15 14  1  0  0  0  0
 16 14  1  0  0  0  0
 19 18  2  0  0  0  0
 19 20  1  0  0  0  0
 21 19  2  0  0  0  0
M  END
