Coordinates from ORCA-job p-CH3O-Ph-N2-NO3-B3LYPG-aug-cc-pVDZ-scan-d09-49-n400
 OpenBabel11111914563D

 21 20  0  0  0  0  0  0  0  0999 V2000
   -0.6181   -0.6662   -0.4965 C   0  0  0  0  0  0  0  0  0  0  0  0
    0.7651   -0.6693   -0.6132 C   0  0  0  0  0  0  0  0  0  0  0  0
    1.5334    0.1573    0.2156 C   0  0  0  0  0  0  0  0  0  0  0  0
    0.9306    0.9511    1.1872 C   0  0  0  0  0  0  0  0  0  0  0  0
   -0.4651    0.9740    1.2863 C   0  0  0  0  0  0  0  0  0  0  0  0
   -1.2452    0.1688    0.4442 C   0  0  0  0  0  0  0  0  0  0  0  0
   -1.2341   -1.3022   -1.1306 H   0  0  0  0  0  0  0  0  0  0  0  0
    1.2640   -1.3079   -1.3407 H   0  0  0  0  0  0  0  0  0  0  0  0
    1.5264    1.5634    1.8575 H   0  0  0  0  0  0  0  0  0  0  0  0
   -0.9235    1.6146    2.0352 H   0  0  0  0  0  0  0  0  0  0  0  0
    1.2209    1.9193   -1.8786 N   0  0  0  0  0  0  0  0  0  0  0  0
    2.0451    1.9659   -2.6141 N   0  0  0  0  0  0  0  0  0  0  0  0
   -2.6075    0.1158    0.4680 O   0  0  0  0  0  0  0  0  0  0  0  0
   -3.2993    0.9340    1.4074 C   0  0  0  0  0  0  0  0  0  0  0  0
   -4.3630    0.7363    1.2457 H   0  0  0  0  0  0  0  0  0  0  0  0
   -3.0932    2.0010    1.2329 H   0  0  0  0  0  0  0  0  0  0  0  0
   -3.0298    0.6684    2.4410 H   0  0  0  0  0  0  0  0  0  0  0  0
    4.9512    0.7602   -0.0401 O   0  0  0  0  0  0  0  0  0  0  0  0
    3.8119    1.0987    0.1315 N   0  0  0  0  0  0  0  0  0  0  0  0
    2.9174   -0.0508    0.1120 O   0  0  0  0  0  0  0  0  0  0  0  0
    3.3433    2.1904    0.3377 O   0  0  0  0  0  0  0  0  0  0  0  0
  1  6  1  0  0  0  0
  2  1  2  0  0  0  0
  2  3  1  0  0  0  0
  3  4  2  0  0  0  0
  4  5  1  0  0  0  0
  4  9  1  0  0  0  0
  5 10  1  0  0  0  0
  6 13  1  0  0  0  0
  6  5  2  0  0  0  0
  7  1  1  0  0  0  0
  8  2  1  0  0  0  0
 12 11  3  0  0  0  0
 13 14  1  0  0  0  0
 14 17  1  0  0  0  0
 15 14  1  0  0  0  0
 16 14  1  0  0  0  0
 18 19  2  0  0  0  0
 19 21  2  0  0  0  0
 20 19  1  0  0  0  0
 20  3  1  0  0  0  0
M  END
