Coordinates from ORCA-job p-CH3O-Ph-N2-NO3-B3LYPG-aug-cc-pVDZ-scan-d09-49-n400
 OpenBabel11111914563D

 21 20  0  0  0  0  0  0  0  0999 V2000
   -0.6377   -0.6883   -0.5012 C   0  0  0  0  0  0  0  0  0  0  0  0
    0.7386   -0.6624   -0.6589 C   0  0  0  0  0  0  0  0  0  0  0  0
    1.5063    0.2548    0.0749 C   0  0  0  0  0  0  0  0  0  0  0  0
    0.9209    1.0183    1.0833 C   0  0  0  0  0  0  0  0  0  0  0  0
   -0.4704    1.0066    1.2269 C   0  0  0  0  0  0  0  0  0  0  0  0
   -1.2586    0.1691    0.4254 C   0  0  0  0  0  0  0  0  0  0  0  0
   -1.2546   -1.3707   -1.0838 H   0  0  0  0  0  0  0  0  0  0  0  0
    1.2322   -1.3181   -1.3743 H   0  0  0  0  0  0  0  0  0  0  0  0
    1.5181    1.6582    1.7232 H   0  0  0  0  0  0  0  0  0  0  0  0
   -0.9190    1.6434    1.9850 H   0  0  0  0  0  0  0  0  0  0  0  0
    1.2636    1.7651   -1.6069 N   0  0  0  0  0  0  0  0  0  0  0  0
    2.1020    1.8812   -2.3228 N   0  0  0  0  0  0  0  0  0  0  0  0
   -2.6171    0.0894    0.4877 O   0  0  0  0  0  0  0  0  0  0  0  0
   -3.3013    0.9234    1.4195 C   0  0  0  0  0  0  0  0  0  0  0  0
   -4.3651    0.7066    1.2854 H   0  0  0  0  0  0  0  0  0  0  0  0
   -3.1135    1.9877    1.2116 H   0  0  0  0  0  0  0  0  0  0  0  0
   -3.0066    0.6894    2.4538 H   0  0  0  0  0  0  0  0  0  0  0  0
    4.9550    0.7428   -0.0879 O   0  0  0  0  0  0  0  0  0  0  0  0
    3.8310    1.1093    0.1271 N   0  0  0  0  0  0  0  0  0  0  0  0
    2.8882    0.0344   -0.0753 O   0  0  0  0  0  0  0  0  0  0  0  0
    3.4185    2.1824    0.4957 O   0  0  0  0  0  0  0  0  0  0  0  0
  1  6  1  0  0  0  0
  2  1  2  0  0  0  0
  2  3  1  0  0  0  0
  3  4  2  0  0  0  0
  4  5  1  0  0  0  0
  4  9  1  0  0  0  0
  5 10  1  0  0  0  0
  6 13  1  0  0  0  0
  6  5  2  0  0  0  0
  7  1  1  0  0  0  0
  8  2  1  0  0  0  0
 12 11  3  0  0  0  0
 13 14  1  0  0  0  0
 14 17  1  0  0  0  0
 15 14  1  0  0  0  0
 16 14  1  0  0  0  0
 18 19  2  0  0  0  0
 19 21  2  0  0  0  0
 20  3  1  0  0  0  0
 20 19  1  0  0  0  0
M  END
