Coordinates from ORCA-job p-CH3O-Ph-N2-NO3-B3LYPG-aug-cc-pVDZ-scan-d09-49-n400
 OpenBabel11111914563D

 21 20  0  0  0  0  0  0  0  0999 V2000
   -0.4319   -0.4729   -0.4548 C   0  0  0  0  0  0  0  0  0  0  0  0
    0.9512   -0.5727   -0.3744 C   0  0  0  0  0  0  0  0  0  0  0  0
    1.6253    0.0221    0.6981 C   0  0  0  0  0  0  0  0  0  0  0  0
    0.9261    0.7147    1.6823 C   0  0  0  0  0  0  0  0  0  0  0  0
   -0.4662    0.8187    1.6074 C   0  0  0  0  0  0  0  0  0  0  0  0
   -1.1486    0.2255    0.5341 C   0  0  0  0  0  0  0  0  0  0  0  0
   -0.9820   -0.9308   -1.2755 H   0  0  0  0  0  0  0  0  0  0  0  0
    1.5159   -1.1149   -1.1319 H   0  0  0  0  0  0  0  0  0  0  0  0
    1.4689    1.1665    2.5117 H   0  0  0  0  0  0  0  0  0  0  0  0
   -0.9992    1.3587    2.3856 H   0  0  0  0  0  0  0  0  0  0  0  0
    0.8390    2.5021   -3.1310 N   0  0  0  0  0  0  0  0  0  0  0  0
    1.3915    2.2472   -4.0526 N   0  0  0  0  0  0  0  0  0  0  0  0
   -2.4995    0.2659    0.3631 O   0  0  0  0  0  0  0  0  0  0  0  0
   -3.2846    0.9635    1.3269 C   0  0  0  0  0  0  0  0  0  0  0  0
   -4.3207    0.8689    0.9888 H   0  0  0  0  0  0  0  0  0  0  0  0
   -3.0078    2.0277    1.3697 H   0  0  0  0  0  0  0  0  0  0  0  0
   -3.1817    0.5122    2.3255 H   0  0  0  0  0  0  0  0  0  0  0  0
    4.9916    0.6932    0.3009 O   0  0  0  0  0  0  0  0  0  0  0  0
    3.8176    0.8980    0.1706 N   0  0  0  0  0  0  0  0  0  0  0  0
    3.0015   -0.1567    0.8275 O   0  0  0  0  0  0  0  0  0  0  0  0
    3.2241    1.7856   -0.3835 O   0  0  0  0  0  0  0  0  0  0  0  0
  1  2  2  0  0  0  0
  1  6  1  0  0  0  0
  2  3  1  0  0  0  0
  3 20  1  0  0  0  0
  3  4  2  0  0  0  0
  4  9  1  0  0  0  0
  5  4  1  0  0  0  0
  5 10  1  0  0  0  0
  6  5  2  0  0  0  0
  7  1  1  0  0  0  0
  8  2  1  0  0  0  0
 12 11  3  0  0  0  0
 13  6  1  0  0  0  0
 13 14  1  0  0  0  0
 14 16  1  0  0  0  0
 14 17  1  0  0  0  0
 15 14  1  0  0  0  0
 19 18  2  0  0  0  0
 19 20  1  0  0  0  0
 21 19  2  0  0  0  0
M  END
