Coordinates from ORCA-job p-CH3O-Ph-N2-NO3-B3LYPG-aug-cc-pVDZ-scan-d09-49-n400
 OpenBabel11111914563D

 21 20  0  0  0  0  0  0  0  0999 V2000
   -1.1499   -0.3647   -0.9394 C   0  0  0  0  0  0  0  0  0  0  0  0
    0.1047   -0.1492   -1.5020 C   0  0  0  0  0  0  0  0  0  0  0  0
    0.9362    0.6891   -0.7803 C   0  0  0  0  0  0  0  0  0  0  0  0
    0.6747    1.3217    0.4065 C   0  0  0  0  0  0  0  0  0  0  0  0
   -0.5950    1.0912    0.9487 C   0  0  0  0  0  0  0  0  0  0  0  0
   -1.5039    0.2495    0.2808 C   0  0  0  0  0  0  0  0  0  0  0  0
   -1.8719   -1.0134   -1.4323 H   0  0  0  0  0  0  0  0  0  0  0  0
    0.4047   -0.6144   -2.4374 H   0  0  0  0  0  0  0  0  0  0  0  0
    1.4279    1.9511    0.8742 H   0  0  0  0  0  0  0  0  0  0  0  0
   -0.8515    1.5678    1.8905 H   0  0  0  0  0  0  0  0  0  0  0  0
    2.4702    0.9670   -1.4877 N   0  0  0  0  0  0  0  0  0  0  0  0
    3.0956    0.8108   -2.3991 N   0  0  0  0  0  0  0  0  0  0  0  0
   -2.7480   -0.0367    0.7294 O   0  0  0  0  0  0  0  0  0  0  0  0
   -3.1805    0.5321    1.9692 C   0  0  0  0  0  0  0  0  0  0  0  0
   -4.1966    0.1590    2.1225 H   0  0  0  0  0  0  0  0  0  0  0  0
   -3.1944    1.6303    1.9140 H   0  0  0  0  0  0  0  0  0  0  0  0
   -2.5366    0.2035    2.7975 H   0  0  0  0  0  0  0  0  0  0  0  0
    4.9380    1.5731    1.6151 O   0  0  0  0  0  0  0  0  0  0  0  0
    4.0557    1.1827    0.8549 N   0  0  0  0  0  0  0  0  0  0  0  0
    3.6742    0.0002    0.7757 O   0  0  0  0  0  0  0  0  0  0  0  0
    3.4771    2.0723    0.0876 O   0  0  0  0  0  0  0  0  0  0  0  0
  1  6  1  0  0  0  0
  2  1  2  0  0  0  0
  2  3  1  0  0  0  0
  3  4  2  0  0  0  0
  4  9  1  0  0  0  0
  4  5  1  0  0  0  0
  5 10  1  0  0  0  0
  6 13  1  0  0  0  0
  6  5  2  0  0  0  0
  7  1  1  0  0  0  0
  8  2  1  0  0  0  0
 11  3  1  0  0  0  0
 12 11  2  0  0  0  0
 13 14  1  0  0  0  0
 14 15  1  0  0  0  0
 14 17  1  0  0  0  0
 16 14  1  0  0  0  0
 19 18  2  0  0  0  0
 20 19  1  0  0  0  0
 21 19  2  0  0  0  0
M  RAD  2  12   2  20   2
M  END
