Coordinates from ORCA-job p-CH3O-Ph-N2-NO3-B3LYPG-aug-cc-pVDZ-scan-d09-49-n400
 OpenBabel11111914563D

 21 20  0  0  0  0  0  0  0  0999 V2000
   -0.4314   -0.4726   -0.4544 C   0  0  0  0  0  0  0  0  0  0  0  0
    0.9517   -0.5725   -0.3734 C   0  0  0  0  0  0  0  0  0  0  0  0
    1.6254    0.0217    0.6995 C   0  0  0  0  0  0  0  0  0  0  0  0
    0.9260    0.7140    1.6837 C   0  0  0  0  0  0  0  0  0  0  0  0
   -0.4663    0.8182    1.6085 C   0  0  0  0  0  0  0  0  0  0  0  0
   -1.1483    0.2255    0.5346 C   0  0  0  0  0  0  0  0  0  0  0  0
   -0.9813   -0.9300   -1.2755 H   0  0  0  0  0  0  0  0  0  0  0  0
    1.5165   -1.1145   -1.1310 H   0  0  0  0  0  0  0  0  0  0  0  0
    1.4686    1.1654    2.5135 H   0  0  0  0  0  0  0  0  0  0  0  0
   -0.9995    1.3579    2.3866 H   0  0  0  0  0  0  0  0  0  0  0  0
    0.8377    2.5059   -3.1387 N   0  0  0  0  0  0  0  0  0  0  0  0
    1.3892    2.2491   -4.0605 N   0  0  0  0  0  0  0  0  0  0  0  0
   -2.4992    0.2661    0.3632 O   0  0  0  0  0  0  0  0  0  0  0  0
   -3.2846    0.9634    1.3270 C   0  0  0  0  0  0  0  0  0  0  0  0
   -4.3206    0.8691    0.9885 H   0  0  0  0  0  0  0  0  0  0  0  0
   -3.0076    2.0276    1.3703 H   0  0  0  0  0  0  0  0  0  0  0  0
   -3.1821    0.5117    2.3254 H   0  0  0  0  0  0  0  0  0  0  0  0
    4.9919    0.6924    0.3029 O   0  0  0  0  0  0  0  0  0  0  0  0
    3.8179    0.8971    0.1719 N   0  0  0  0  0  0  0  0  0  0  0  0
    3.0016   -0.1571    0.8294 O   0  0  0  0  0  0  0  0  0  0  0  0
    3.2247    1.7841   -0.3833 O   0  0  0  0  0  0  0  0  0  0  0  0
  1  2  2  0  0  0  0
  1  6  1  0  0  0  0
  2  3  1  0  0  0  0
  3 20  1  0  0  0  0
  3  4  2  0  0  0  0
  4  9  1  0  0  0  0
  5  4  1  0  0  0  0
  5 10  1  0  0  0  0
  6  5  2  0  0  0  0
  7  1  1  0  0  0  0
  8  2  1  0  0  0  0
 12 11  3  0  0  0  0
 13  6  1  0  0  0  0
 13 14  1  0  0  0  0
 14 16  1  0  0  0  0
 14 17  1  0  0  0  0
 15 14  1  0  0  0  0
 19 18  2  0  0  0  0
 19 20  1  0  0  0  0
 21 19  2  0  0  0  0
M  END
