Coordinates from ORCA-job p-CH3O-Ph-N2-NO3-B3LYPG-aug-cc-pVDZ-scan-d09-49-n400
 OpenBabel11111914563D

 21 20  0  0  0  0  0  0  0  0999 V2000
   -0.6302   -0.6780   -0.4984 C   0  0  0  0  0  0  0  0  0  0  0  0
    0.7504   -0.6673   -0.6348 C   0  0  0  0  0  0  0  0  0  0  0  0
    1.5209    0.1952    0.1556 C   0  0  0  0  0  0  0  0  0  0  0  0
    0.9255    0.9848    1.1353 C   0  0  0  0  0  0  0  0  0  0  0  0
   -0.4689    0.9905    1.2561 C   0  0  0  0  0  0  0  0  0  0  0  0
   -1.2533    0.1668    0.4368 C   0  0  0  0  0  0  0  0  0  0  0  0
   -1.2476   -1.3336   -1.1105 H   0  0  0  0  0  0  0  0  0  0  0  0
    1.2461   -1.3126   -1.3585 H   0  0  0  0  0  0  0  0  0  0  0  0
    1.5212    1.6140    1.7885 H   0  0  0  0  0  0  0  0  0  0  0  0
   -0.9225    1.6333    2.0061 H   0  0  0  0  0  0  0  0  0  0  0  0
    1.2494    1.8605   -1.7618 N   0  0  0  0  0  0  0  0  0  0  0  0
    2.0823    1.9291   -2.4868 N   0  0  0  0  0  0  0  0  0  0  0  0
   -2.6143    0.1002    0.4807 O   0  0  0  0  0  0  0  0  0  0  0  0
   -3.3012    0.9263    1.4170 C   0  0  0  0  0  0  0  0  0  0  0  0
   -4.3652    0.7175    1.2716 H   0  0  0  0  0  0  0  0  0  0  0  0
   -3.1062    1.9923    1.2243 H   0  0  0  0  0  0  0  0  0  0  0  0
   -3.0165    0.6780    2.4508 H   0  0  0  0  0  0  0  0  0  0  0  0
    4.9544    0.7487   -0.0544 O   0  0  0  0  0  0  0  0  0  0  0  0
    3.8217    1.1023    0.1335 N   0  0  0  0  0  0  0  0  0  0  0  0
    2.9040   -0.0144    0.0211 O   0  0  0  0  0  0  0  0  0  0  0  0
    3.3806    2.1892    0.4159 O   0  0  0  0  0  0  0  0  0  0  0  0
  1  6  1  0  0  0  0
  2  1  2  0  0  0  0
  2  3  1  0  0  0  0
  3  4  2  0  0  0  0
  4  5  1  0  0  0  0
  4  9  1  0  0  0  0
  5 10  1  0  0  0  0
  6 13  1  0  0  0  0
  6  5  2  0  0  0  0
  7  1  1  0  0  0  0
  8  2  1  0  0  0  0
 12 11  3  0  0  0  0
 13 14  1  0  0  0  0
 14 17  1  0  0  0  0
 15 14  1  0  0  0  0
 16 14  1  0  0  0  0
 18 19  2  0  0  0  0
 19 21  2  0  0  0  0
 20 19  1  0  0  0  0
 20  3  1  0  0  0  0
M  END
