Coordinates from ORCA-job p-CH3O-Ph-N2-NO3-B3LYPG-aug-cc-pVDZ-scan-d09-49-n400
 OpenBabel11111914563D

 21 20  0  0  0  0  0  0  0  0999 V2000
   -0.5144   -0.5683   -0.4873 C   0  0  0  0  0  0  0  0  0  0  0  0
    0.8736   -0.6343   -0.4855 C   0  0  0  0  0  0  0  0  0  0  0  0
    1.5965    0.0510    0.4968 C   0  0  0  0  0  0  0  0  0  0  0  0
    0.9421    0.8044    1.4679 C   0  0  0  0  0  0  0  0  0  0  0  0
   -0.4528    0.8894    1.4596 C   0  0  0  0  0  0  0  0  0  0  0  0
   -1.1853    0.1997    0.4806 C   0  0  0  0  0  0  0  0  0  0  0  0
   -1.1014   -1.1032   -1.2323 H   0  0  0  0  0  0  0  0  0  0  0  0
    1.4062   -1.2280   -1.2276 H   0  0  0  0  0  0  0  0  0  0  0  0
    1.5186    1.3252    2.2308 H   0  0  0  0  0  0  0  0  0  0  0  0
   -0.9500    1.4855    2.2203 H   0  0  0  0  0  0  0  0  0  0  0  0
    0.9751    2.1606   -2.4249 N   0  0  0  0  0  0  0  0  0  0  0  0
    1.6841    2.1343   -3.2717 N   0  0  0  0  0  0  0  0  0  0  0  0
   -2.5449    0.2073    0.3883 O   0  0  0  0  0  0  0  0  0  0  0  0
   -3.2849    0.9682    1.3395 C   0  0  0  0  0  0  0  0  0  0  0  0
   -4.3372    0.8318    1.0734 H   0  0  0  0  0  0  0  0  0  0  0  0
   -3.0269    2.0365    1.2814 H   0  0  0  0  0  0  0  0  0  0  0  0
   -3.1145    0.6001    2.3627 H   0  0  0  0  0  0  0  0  0  0  0  0
    4.9616    0.7463    0.0896 O   0  0  0  0  0  0  0  0  0  0  0  0
    3.7935    1.0160    0.1120 N   0  0  0  0  0  0  0  0  0  0  0  0
    2.9778   -0.1416    0.5479 O   0  0  0  0  0  0  0  0  0  0  0  0
    3.2140    2.0417   -0.1333 O   0  0  0  0  0  0  0  0  0  0  0  0
  1  2  2  0  0  0  0
  1  6  1  0  0  0  0
  2  3  1  0  0  0  0
  3 20  1  0  0  0  0
  3  4  2  0  0  0  0
  4  9  1  0  0  0  0
  5  4  1  0  0  0  0
  5 10  1  0  0  0  0
  6  5  2  0  0  0  0
  7  1  1  0  0  0  0
  8  2  1  0  0  0  0
 12 11  3  0  0  0  0
 13  6  1  0  0  0  0
 13 14  1  0  0  0  0
 14 17  1  0  0  0  0
 15 14  1  0  0  0  0
 16 14  1  0  0  0  0
 18 19  2  0  0  0  0
 19 20  1  0  0  0  0
 21 19  2  0  0  0  0
M  END
