Coordinates from ORCA-job p-CH3O-Ph-N2-NO3-B3LYPG-aug-cc-pVDZ-scan-d09-49-n400
 OpenBabel11111914563D

 21 20  0  0  0  0  0  0  0  0999 V2000
   -0.5228   -0.5762   -0.4885 C   0  0  0  0  0  0  0  0  0  0  0  0
    0.8654   -0.6384   -0.4950 C   0  0  0  0  0  0  0  0  0  0  0  0
    1.5925    0.0552    0.4783 C   0  0  0  0  0  0  0  0  0  0  0  0
    0.9423    0.8127    1.4490 C   0  0  0  0  0  0  0  0  0  0  0  0
   -0.4528    0.8950    1.4478 C   0  0  0  0  0  0  0  0  0  0  0  0
   -1.1897    0.1970    0.4779 C   0  0  0  0  0  0  0  0  0  0  0  0
   -1.1129   -1.1178   -1.2262 H   0  0  0  0  0  0  0  0  0  0  0  0
    1.3951   -1.2358   -1.2361 H   0  0  0  0  0  0  0  0  0  0  0  0
    1.5213    1.3395    2.2058 H   0  0  0  0  0  0  0  0  0  0  0  0
   -0.9468    1.4950    2.2074 H   0  0  0  0  0  0  0  0  0  0  0  0
    0.9942    2.1434   -2.3884 N   0  0  0  0  0  0  0  0  0  0  0  0
    1.7137    2.1243   -3.2265 N   0  0  0  0  0  0  0  0  0  0  0  0
   -2.5499    0.2010    0.3938 O   0  0  0  0  0  0  0  0  0  0  0  0
   -3.2858    0.9665    1.3445 C   0  0  0  0  0  0  0  0  0  0  0  0
   -4.3394    0.8260    1.0856 H   0  0  0  0  0  0  0  0  0  0  0  0
   -3.0306    2.0350    1.2777 H   0  0  0  0  0  0  0  0  0  0  0  0
   -3.1083    0.6055    2.3690 H   0  0  0  0  0  0  0  0  0  0  0  0
    4.9595    0.7495    0.0785 O   0  0  0  0  0  0  0  0  0  0  0  0
    3.7929    1.0246    0.1131 N   0  0  0  0  0  0  0  0  0  0  0  0
    2.9741   -0.1396    0.5214 O   0  0  0  0  0  0  0  0  0  0  0  0
    3.2185    2.0602   -0.1007 O   0  0  0  0  0  0  0  0  0  0  0  0
  1  6  1  0  0  0  0
  2  1  2  0  0  0  0
  2  3  1  0  0  0  0
  3 20  1  0  0  0  0
  3  4  2  0  0  0  0
  4  9  1  0  0  0  0
  5  4  1  0  0  0  0
  5 10  1  0  0  0  0
  6  5  2  0  0  0  0
  7  1  1  0  0  0  0
  8  2  1  0  0  0  0
 12 11  3  0  0  0  0
 13  6  1  0  0  0  0
 13 14  1  0  0  0  0
 14 17  1  0  0  0  0
 15 14  1  0  0  0  0
 16 14  1  0  0  0  0
 18 19  2  0  0  0  0
 19 20  1  0  0  0  0
 21 19  2  0  0  0  0
M  END
