Coordinates from ORCA-job p-CH3O-Ph-N2-NO3-B3LYPG-aug-cc-pVDZ-scan-d09-49-n400
 OpenBabel11111914563D

 21 21  0  0  1  0  0  0  0  0999 V2000
   -0.9177   -0.3419   -1.1293 C   0  0  0  0  0  0  0  0  0  0  0  0
    0.1171    0.0306   -1.9160 C   0  0  0  0  0  0  0  0  0  0  0  0
    1.1124    0.9616   -1.4138 C   0  0  0  0  0  0  0  0  0  0  0  0
    1.1479    1.3214    0.0486 C   0  0  1  0  0  0  0  0  0  0  0  0
   -0.1349    1.0564    0.7457 C   0  0  0  0  0  0  0  0  0  0  0  0
   -1.0669    0.2271    0.2022 C   0  0  0  0  0  0  0  0  0  0  0  0
   -1.6783   -1.0366   -1.4794 H   0  0  0  0  0  0  0  0  0  0  0  0
    0.2245   -0.3419   -2.9342 H   0  0  0  0  0  0  0  0  0  0  0  0
    1.5160    2.3376    0.2127 H   0  0  0  0  0  0  0  0  0  0  0  0
   -0.2598    1.5134    1.7217 H   0  0  0  0  0  0  0  0  0  0  0  0
    1.9682    1.4267   -2.1497 N   0  0  0  0  0  0  0  0  0  0  0  0
    2.7739    1.8702   -2.8326 N   0  0  0  0  0  0  0  0  0  0  0  0
   -2.2343   -0.1354    0.7915 O   0  0  0  0  0  0  0  0  0  0  0  0
   -2.4985    0.3514    2.1073 C   0  0  0  0  0  0  0  0  0  0  0  0
   -3.4599   -0.0820    2.3969 H   0  0  0  0  0  0  0  0  0  0  0  0
   -2.5687    1.4492    2.1116 H   0  0  0  0  0  0  0  0  0  0  0  0
   -1.7150    0.0270    2.8077 H   0  0  0  0  0  0  0  0  0  0  0  0
    2.3812    1.8566    2.3237 O   0  0  0  0  0  0  0  0  0  0  0  0
    2.8034    0.8279    1.8254 N   0  0  0  0  0  0  0  0  0  0  0  0
    3.6504    0.0795    2.2500 O   0  0  0  0  0  0  0  0  0  0  0  0
    2.2697    0.4239    0.5981 O   0  0  0  0  0  0  0  0  0  0  0  0
  1  6  2  0  0  0  0
  2  3  2  0  0  0  0
  2  1  1  0  0  0  0
  3  4  1  0  0  0  0
  4  9  1  1  0  0  0
  4 21  1  0  0  0  0
  4  5  1  0  0  0  0
  5 10  1  0  0  0  0
  6  5  1  0  0  0  0
  6 13  1  0  0  0  0
  7  1  1  0  0  0  0
  8  2  1  0  0  0  0
 11  3  1  0  0  0  0
 12 11  1  0  0  0  0
 13 14  1  0  0  0  0
 14 16  1  0  0  0  0
 14 15  1  0  0  0  0
 14 17  1  0  0  0  0
 19 20  2  0  0  0  0
 19 18  2  0  0  0  0
 21 19  1  0  0  0  0
M  RAD  3   5   2  11   2  12   3
M  END
