Coordinates from ORCA-job p-CH3O-Ph-N2-NO3-B3LYPG-aug-cc-pVDZ-scan-d09-49-n400
 OpenBabel11111914563D

 21 21  0  0  1  0  0  0  0  0999 V2000
   -0.8761   -0.3553   -1.1154 C   0  0  0  0  0  0  0  0  0  0  0  0
    0.1498    0.0079   -1.9046 C   0  0  0  0  0  0  0  0  0  0  0  0
    1.1693    0.9974   -1.4538 C   0  0  0  0  0  0  0  0  0  0  0  0
    1.1658    1.3148    0.0662 C   0  0  1  0  0  0  0  0  0  0  0  0
   -0.1238    1.0572    0.7551 C   0  0  0  0  0  0  0  0  0  0  0  0
   -1.0507    0.2305    0.2100 C   0  0  0  0  0  0  0  0  0  0  0  0
   -1.6235   -1.0699   -1.4567 H   0  0  0  0  0  0  0  0  0  0  0  0
    0.2785   -0.3862   -2.9127 H   0  0  0  0  0  0  0  0  0  0  0  0
    1.5261    2.3370    0.2168 H   0  0  0  0  0  0  0  0  0  0  0  0
   -0.2564    1.5270    1.7247 H   0  0  0  0  0  0  0  0  0  0  0  0
    1.8346    1.4203   -2.0530 N   0  0  0  0  0  0  0  0  0  0  0  0
    2.6221    1.9246   -2.7580 N   0  0  0  0  0  0  0  0  0  0  0  0
   -2.2283   -0.1255    0.7781 O   0  0  0  0  0  0  0  0  0  0  0  0
   -2.5166    0.3756    2.0843 C   0  0  0  0  0  0  0  0  0  0  0  0
   -3.4855   -0.0506    2.3587 H   0  0  0  0  0  0  0  0  0  0  0  0
   -2.5810    1.4735    2.0752 H   0  0  0  0  0  0  0  0  0  0  0  0
   -1.7481    0.0540    2.8023 H   0  0  0  0  0  0  0  0  0  0  0  0
    2.4222    1.8312    2.3110 O   0  0  0  0  0  0  0  0  0  0  0  0
    2.8261    0.8050    1.7995 N   0  0  0  0  0  0  0  0  0  0  0  0
    3.6672    0.0383    2.1933 O   0  0  0  0  0  0  0  0  0  0  0  0
    2.2588    0.4158    0.5674 O   0  0  0  0  0  0  0  0  0  0  0  0
  1  6  2  0  0  0  0
  2  3  2  0  0  0  0
  2  1  1  0  0  0  0
  3  4  1  0  0  0  0
  4  9  1  1  0  0  0
  4 21  1  0  0  0  0
  4  5  1  0  0  0  0
  5 10  1  0  0  0  0
  6  5  1  0  0  0  0
  6 13  1  0  0  0  0
  7  1  1  0  0  0  0
  8  2  1  0  0  0  0
 11  3  1  0  0  0  0
 12 11  1  0  0  0  0
 13 14  1  0  0  0  0
 14 15  1  0  0  0  0
 14 17  1  0  0  0  0
 16 14  1  0  0  0  0
 19 20  2  0  0  0  0
 19 18  2  0  0  0  0
 21 19  1  0  0  0  0
M  RAD  3   5   2  11   2  12   3
M  END
