Coordinates from ORCA-job p-CH3O-Ph-N2-NO3-B3LYPG-aug-cc-pVDZ-scan-d09-49-n400
 OpenBabel11111914563D

 21 20  0  0  0  0  0  0  0  0999 V2000
   -0.4828   -0.5281   -0.4837 C   0  0  0  0  0  0  0  0  0  0  0  0
    0.9040   -0.6069   -0.4515 C   0  0  0  0  0  0  0  0  0  0  0  0
    1.6091    0.0431    0.5671 C   0  0  0  0  0  0  0  0  0  0  0  0
    0.9382    0.7725    1.5446 C   0  0  0  0  0  0  0  0  0  0  0  0
   -0.4561    0.8651    1.5111 C   0  0  0  0  0  0  0  0  0  0  0  0
   -1.1705    0.2130    0.4938 C   0  0  0  0  0  0  0  0  0  0  0  0
   -1.0569   -1.0336   -1.2587 H   0  0  0  0  0  0  0  0  0  0  0  0
    1.4484   -1.1817   -1.1998 H   0  0  0  0  0  0  0  0  0  0  0  0
    1.5029    1.2658    2.3345 H   0  0  0  0  0  0  0  0  0  0  0  0
   -0.9666    1.4391    2.2799 H   0  0  0  0  0  0  0  0  0  0  0  0
    0.9179    2.2380   -2.6034 N   0  0  0  0  0  0  0  0  0  0  0  0
    1.5779    2.1502   -3.4846 N   0  0  0  0  0  0  0  0  0  0  0  0
   -2.5273    0.2334    0.3709 O   0  0  0  0  0  0  0  0  0  0  0  0
   -3.2841    0.9699    1.3283 C   0  0  0  0  0  0  0  0  0  0  0  0
   -4.3307    0.8501    1.0335 H   0  0  0  0  0  0  0  0  0  0  0  0
   -3.0171    2.0374    1.3098 H   0  0  0  0  0  0  0  0  0  0  0  0
   -3.1404    0.5685    2.3429 H   0  0  0  0  0  0  0  0  0  0  0  0
    4.9718    0.7358    0.1554 O   0  0  0  0  0  0  0  0  0  0  0  0
    3.7986    0.9794    0.1140 N   0  0  0  0  0  0  0  0  0  0  0  0
    2.9890   -0.1430    0.6497 O   0  0  0  0  0  0  0  0  0  0  0  0
    3.2053    1.9548   -0.2655 O   0  0  0  0  0  0  0  0  0  0  0  0
  1  2  2  0  0  0  0
  1  6  1  0  0  0  0
  2  3  1  0  0  0  0
  3 20  1  0  0  0  0
  3  4  2  0  0  0  0
  4  9  1  0  0  0  0
  5  4  1  0  0  0  0
  5 10  1  0  0  0  0
  6  5  2  0  0  0  0
  7  1  1  0  0  0  0
  8  2  1  0  0  0  0
 12 11  3  0  0  0  0
 13  6  1  0  0  0  0
 13 14  1  0  0  0  0
 14 17  1  0  0  0  0
 15 14  1  0  0  0  0
 16 14  1  0  0  0  0
 19 18  2  0  0  0  0
 19 20  1  0  0  0  0
 21 19  2  0  0  0  0
M  END
