Coordinates from ORCA-job p-CH3O-Ph-N2-NO3-B3LYPG-aug-cc-pVDZ-scan-d09-49-n400
 OpenBabel11111914563D

 21 20  0  0  0  0  0  0  0  0999 V2000
   -0.5865   -0.6394   -0.4949 C   0  0  0  0  0  0  0  0  0  0  0  0
    0.8005   -0.6693   -0.5699 C   0  0  0  0  0  0  0  0  0  0  0  0
    1.5585    0.0992    0.3212 C   0  0  0  0  0  0  0  0  0  0  0  0
    0.9400    0.8872    1.2882 C   0  0  0  0  0  0  0  0  0  0  0  0
   -0.4560    0.9414    1.3463 C   0  0  0  0  0  0  0  0  0  0  0  0
   -1.2241    0.1759    0.4559 C   0  0  0  0  0  0  0  0  0  0  0  0
   -1.1970   -1.2379   -1.1694 H   0  0  0  0  0  0  0  0  0  0  0  0
    1.3084   -1.2940   -1.3034 H   0  0  0  0  0  0  0  0  0  0  0  0
    1.5342    1.4660    1.9913 H   0  0  0  0  0  0  0  0  0  0  0  0
   -0.9249    1.5723    2.0968 H   0  0  0  0  0  0  0  0  0  0  0  0
    1.1395    2.0068   -2.0674 N   0  0  0  0  0  0  0  0  0  0  0  0
    1.9298    2.0305   -2.8395 N   0  0  0  0  0  0  0  0  0  0  0  0
   -2.5871    0.1490    0.4388 O   0  0  0  0  0  0  0  0  0  0  0  0
   -3.2917    0.9523    1.3817 C   0  0  0  0  0  0  0  0  0  0  0  0
   -4.3536    0.7785    1.1838 H   0  0  0  0  0  0  0  0  0  0  0  0
   -3.0625    2.0200    1.2445 H   0  0  0  0  0  0  0  0  0  0  0  0
   -3.0571    0.6521    2.4143 H   0  0  0  0  0  0  0  0  0  0  0  0
    4.9473    0.7764   -0.0069 O   0  0  0  0  0  0  0  0  0  0  0  0
    3.7954    1.0862    0.1233 N   0  0  0  0  0  0  0  0  0  0  0  0
    2.9427   -0.1017    0.2787 O   0  0  0  0  0  0  0  0  0  0  0  0
    3.2746    2.1710    0.1751 O   0  0  0  0  0  0  0  0  0  0  0  0
  1  6  1  0  0  0  0
  2  1  2  0  0  0  0
  2  3  1  0  0  0  0
  3  4  2  0  0  0  0
  4  5  1  0  0  0  0
  4  9  1  0  0  0  0
  5 10  1  0  0  0  0
  6  5  2  0  0  0  0
  7  1  1  0  0  0  0
  8  2  1  0  0  0  0
 12 11  3  0  0  0  0
 13  6  1  0  0  0  0
 13 14  1  0  0  0  0
 14 17  1  0  0  0  0
 15 14  1  0  0  0  0
 16 14  1  0  0  0  0
 18 19  2  0  0  0  0
 19 21  2  0  0  0  0
 19 20  1  0  0  0  0
 20  3  1  0  0  0  0
M  END
