Coordinates from ORCA-job p-CH3O-Ph-N2-NO3-B3LYPG-aug-cc-pVDZ-scan-d09-49-n400
 OpenBabel11111914563D

 21 20  0  0  0  0  0  0  0  0999 V2000
   -0.4797   -0.5241   -0.4830 C   0  0  0  0  0  0  0  0  0  0  0  0
    0.9070   -0.6042   -0.4478 C   0  0  0  0  0  0  0  0  0  0  0  0
    1.6103    0.0422    0.5743 C   0  0  0  0  0  0  0  0  0  0  0  0
    0.9376    0.7693    1.5524 C   0  0  0  0  0  0  0  0  0  0  0  0
   -0.4565    0.8626    1.5164 C   0  0  0  0  0  0  0  0  0  0  0  0
   -1.1691    0.2142    0.4954 C   0  0  0  0  0  0  0  0  0  0  0  0
   -1.0524   -1.0266   -1.2610 H   0  0  0  0  0  0  0  0  0  0  0  0
    1.4525   -1.1769   -1.1969 H   0  0  0  0  0  0  0  0  0  0  0  0
    1.5012    1.2599    2.3449 H   0  0  0  0  0  0  0  0  0  0  0  0
   -0.9684    1.4344    2.2859 H   0  0  0  0  0  0  0  0  0  0  0  0
    0.9129    2.2479   -2.6246 N   0  0  0  0  0  0  0  0  0  0  0  0
    1.5673    2.1521   -3.5090 N   0  0  0  0  0  0  0  0  0  0  0  0
   -2.5256    0.2359    0.3695 O   0  0  0  0  0  0  0  0  0  0  0  0
   -3.2841    0.9699    1.3275 C   0  0  0  0  0  0  0  0  0  0  0  0
   -4.3301    0.8517    1.0300 H   0  0  0  0  0  0  0  0  0  0  0  0
   -3.0164    2.0372    1.3130 H   0  0  0  0  0  0  0  0  0  0  0  0
   -3.1429    0.5651    2.3412 H   0  0  0  0  0  0  0  0  0  0  0  0
    4.9728    0.7345    0.1623 O   0  0  0  0  0  0  0  0  0  0  0  0
    3.7993    0.9754    0.1149 N   0  0  0  0  0  0  0  0  0  0  0  0
    2.9899   -0.1432    0.6598 O   0  0  0  0  0  0  0  0  0  0  0  0
    3.2051    1.9455   -0.2768 O   0  0  0  0  0  0  0  0  0  0  0  0
  1  2  2  0  0  0  0
  1  6  1  0  0  0  0
  2  3  1  0  0  0  0
  3 20  1  0  0  0  0
  3  4  2  0  0  0  0
  4  9  1  0  0  0  0
  5  4  1  0  0  0  0
  5 10  1  0  0  0  0
  6  5  2  0  0  0  0
  7  1  1  0  0  0  0
  8  2  1  0  0  0  0
 12 11  3  0  0  0  0
 13  6  1  0  0  0  0
 13 14  1  0  0  0  0
 14 17  1  0  0  0  0
 15 14  1  0  0  0  0
 16 14  1  0  0  0  0
 19 18  2  0  0  0  0
 19 20  1  0  0  0  0
 21 19  2  0  0  0  0
M  END
