Coordinates from ORCA-job p-CH3O-Ph-N2-NO3-B3LYPG-aug-cc-pVDZ-scan-d09-49-n400
 OpenBabel11111914563D

 21 20  0  0  0  0  0  0  0  0999 V2000
   -1.1623   -0.3887   -0.9318 C   0  0  0  0  0  0  0  0  0  0  0  0
    0.0852   -0.1727   -1.5227 C   0  0  0  0  0  0  0  0  0  0  0  0
    0.8827    0.6837   -0.8044 C   0  0  0  0  0  0  0  0  0  0  0  0
    0.6679    1.3426    0.3653 C   0  0  0  0  0  0  0  0  0  0  0  0
   -0.5963    1.1040    0.9278 C   0  0  0  0  0  0  0  0  0  0  0  0
   -1.5038    0.2417    0.2835 C   0  0  0  0  0  0  0  0  0  0  0  0
   -1.8836   -1.0529   -1.4051 H   0  0  0  0  0  0  0  0  0  0  0  0
    0.3826   -0.6473   -2.4535 H   0  0  0  0  0  0  0  0  0  0  0  0
    1.4337    1.9799    0.8045 H   0  0  0  0  0  0  0  0  0  0  0  0
   -0.8431    1.5909    1.8671 H   0  0  0  0  0  0  0  0  0  0  0  0
    2.5447    1.0262   -1.5719 N   0  0  0  0  0  0  0  0  0  0  0  0
    3.1795    0.8763   -2.4733 N   0  0  0  0  0  0  0  0  0  0  0  0
   -2.7397   -0.0512    0.7542 O   0  0  0  0  0  0  0  0  0  0  0  0
   -3.1585    0.5304    1.9922 C   0  0  0  0  0  0  0  0  0  0  0  0
   -4.1684    0.1497    2.1668 H   0  0  0  0  0  0  0  0  0  0  0  0
   -3.1846    1.6277    1.9225 H   0  0  0  0  0  0  0  0  0  0  0  0
   -2.4988    0.2198    2.8152 H   0  0  0  0  0  0  0  0  0  0  0  0
    4.8941    1.4904    1.7045 O   0  0  0  0  0  0  0  0  0  0  0  0
    4.0143    1.1678    0.9085 N   0  0  0  0  0  0  0  0  0  0  0  0
    3.5594    0.0113    0.8085 O   0  0  0  0  0  0  0  0  0  0  0  0
    3.5258    2.0933    0.1303 O   0  0  0  0  0  0  0  0  0  0  0  0
  1  6  1  0  0  0  0
  2  1  2  0  0  0  0
  2  3  1  0  0  0  0
  3  4  2  0  0  0  0
  4  9  1  0  0  0  0
  4  5  1  0  0  0  0
  5 10  1  0  0  0  0
  6 13  1  0  0  0  0
  6  5  2  0  0  0  0
  7  1  1  0  0  0  0
  8  2  1  0  0  0  0
 11  3  1  0  0  0  0
 12 11  2  0  0  0  0
 13 14  1  0  0  0  0
 14 15  1  0  0  0  0
 14 17  1  0  0  0  0
 16 14  1  0  0  0  0
 19 18  2  0  0  0  0
 20 19  1  0  0  0  0
 21 19  2  0  0  0  0
M  RAD  2  12   2  20   2
M  END
