Coordinates from ORCA-job p-CH3O-Ph-N2-NO3-B3LYPG-aug-cc-pVDZ-scan-d09-49-n400
 OpenBabel11111914563D

 21 20  0  0  0  0  0  0  0  0999 V2000
   -0.4538   -0.4932   -0.4731 C   0  0  0  0  0  0  0  0  0  0  0  0
    0.9311   -0.5838   -0.4133 C   0  0  0  0  0  0  0  0  0  0  0  0
    1.6190    0.0340    0.6369 C   0  0  0  0  0  0  0  0  0  0  0  0
    0.9321    0.7417    1.6191 C   0  0  0  0  0  0  0  0  0  0  0  0
   -0.4613    0.8405    1.5624 C   0  0  0  0  0  0  0  0  0  0  0  0
   -1.1578    0.2227    0.5121 C   0  0  0  0  0  0  0  0  0  0  0  0
   -1.0147   -0.9711   -1.2749 H   0  0  0  0  0  0  0  0  0  0  0  0
    1.4869   -1.1396   -1.1677 H   0  0  0  0  0  0  0  0  0  0  0  0
    1.4848    1.2108    2.4321 H   0  0  0  0  0  0  0  0  0  0  0  0
   -0.9845    1.3944    2.3375 H   0  0  0  0  0  0  0  0  0  0  0  0
    0.8732    2.3546   -2.8427 N   0  0  0  0  0  0  0  0  0  0  0  0
    1.4767    2.1827   -3.7516 N   0  0  0  0  0  0  0  0  0  0  0  0
   -2.5115    0.2544    0.3618 O   0  0  0  0  0  0  0  0  0  0  0  0
   -3.2843    0.9679    1.3238 C   0  0  0  0  0  0  0  0  0  0  0  0
   -4.3252    0.8626    1.0041 H   0  0  0  0  0  0  0  0  0  0  0  0
   -3.0114    2.0339    1.3412 H   0  0  0  0  0  0  0  0  0  0  0  0
   -3.1639    0.5370    2.3294 H   0  0  0  0  0  0  0  0  0  0  0  0
    4.9817    0.7188    0.2262 O   0  0  0  0  0  0  0  0  0  0  0  0
    3.8069    0.9383    0.1326 N   0  0  0  0  0  0  0  0  0  0  0  0
    2.9971   -0.1462    0.7458 O   0  0  0  0  0  0  0  0  0  0  0  0
    3.2094    1.8624   -0.3535 O   0  0  0  0  0  0  0  0  0  0  0  0
  1  2  2  0  0  0  0
  1  6  1  0  0  0  0
  2  3  1  0  0  0  0
  3 20  1  0  0  0  0
  3  4  2  0  0  0  0
  4  9  1  0  0  0  0
  5  4  1  0  0  0  0
  5 10  1  0  0  0  0
  6  5  2  0  0  0  0
  7  1  1  0  0  0  0
  8  2  1  0  0  0  0
 12 11  3  0  0  0  0
 13  6  1  0  0  0  0
 13 14  1  0  0  0  0
 14 16  1  0  0  0  0
 14 17  1  0  0  0  0
 15 14  1  0  0  0  0
 19 18  2  0  0  0  0
 19 20  1  0  0  0  0
 21 19  2  0  0  0  0
M  END
