Coordinates from ORCA-job p-CH3O-Ph-N2-NO3-B3LYPG-aug-cc-pVDZ-scan-d09-49-n400
 OpenBabel11111914563D

 21 21  0  0  1  0  0  0  0  0999 V2000
   -0.8952   -0.3497   -1.1215 C   0  0  0  0  0  0  0  0  0  0  0  0
    0.1346    0.0191   -1.9095 C   0  0  0  0  0  0  0  0  0  0  0  0
    1.1407    0.9789   -1.4336 C   0  0  0  0  0  0  0  0  0  0  0  0
    1.1578    1.3174    0.0550 C   0  0  1  0  0  0  0  0  0  0  0  0
   -0.1284    1.0573    0.7496 C   0  0  0  0  0  0  0  0  0  0  0  0
   -1.0576    0.2287    0.2067 C   0  0  0  0  0  0  0  0  0  0  0  0
   -1.6482   -1.0555   -1.4668 H   0  0  0  0  0  0  0  0  0  0  0  0
    0.2511   -0.3658   -2.9224 H   0  0  0  0  0  0  0  0  0  0  0  0
    1.5211    2.3369    0.2134 H   0  0  0  0  0  0  0  0  0  0  0  0
   -0.2558    1.5211    1.7224 H   0  0  0  0  0  0  0  0  0  0  0  0
    1.9020    1.4286   -2.1054 N   0  0  0  0  0  0  0  0  0  0  0  0
    2.6963    1.9022   -2.7990 N   0  0  0  0  0  0  0  0  0  0  0  0
   -2.2299   -0.1307    0.7859 O   0  0  0  0  0  0  0  0  0  0  0  0
   -2.5061    0.3644    2.0965 C   0  0  0  0  0  0  0  0  0  0  0  0
   -3.4712   -0.0653    2.3791 H   0  0  0  0  0  0  0  0  0  0  0  0
   -2.5737    1.4622    2.0930 H   0  0  0  0  0  0  0  0  0  0  0  0
   -1.7299    0.0423    2.8059 H   0  0  0  0  0  0  0  0  0  0  0  0
    2.3965    1.8414    2.3189 O   0  0  0  0  0  0  0  0  0  0  0  0
    2.8108    0.8148    1.8134 N   0  0  0  0  0  0  0  0  0  0  0  0
    3.6520    0.0550    2.2248 O   0  0  0  0  0  0  0  0  0  0  0  0
    2.2634    0.4195    0.5817 O   0  0  0  0  0  0  0  0  0  0  0  0
  1  6  2  0  0  0  0
  2  3  2  0  0  0  0
  2  1  1  0  0  0  0
  3  4  1  0  0  0  0
  4  9  1  1  0  0  0
  4 21  1  0  0  0  0
  4  5  1  0  0  0  0
  5 10  1  0  0  0  0
  6  5  1  0  0  0  0
  6 13  1  0  0  0  0
  7  1  1  0  0  0  0
  8  2  1  0  0  0  0
 11  3  1  0  0  0  0
 12 11  1  0  0  0  0
 13 14  1  0  0  0  0
 14 15  1  0  0  0  0
 14 17  1  0  0  0  0
 16 14  1  0  0  0  0
 19 20  2  0  0  0  0
 19 18  2  0  0  0  0
 21 19  1  0  0  0  0
M  RAD  3   5   2  11   2  12   3
M  END
