Coordinates from ORCA-job p-CH3O-Ph-N2-NO3-B3LYPG-aug-cc-pVDZ-scan-d09-49-n400
 OpenBabel11111914563D

 21 20  0  0  0  0  0  0  0  0999 V2000
   -0.6326   -0.6813   -0.4993 C   0  0  0  0  0  0  0  0  0  0  0  0
    0.7470   -0.6662   -0.6419 C   0  0  0  0  0  0  0  0  0  0  0  0
    1.5171    0.2106    0.1336 C   0  0  0  0  0  0  0  0  0  0  0  0
    0.9243    0.9953    1.1191 C   0  0  0  0  0  0  0  0  0  0  0  0
   -0.4694    0.9958    1.2465 C   0  0  0  0  0  0  0  0  0  0  0  0
   -1.2549    0.1671    0.4334 C   0  0  0  0  0  0  0  0  0  0  0  0
   -1.2500   -1.3445   -1.1033 H   0  0  0  0  0  0  0  0  0  0  0  0
    1.2420   -1.3144   -1.3634 H   0  0  0  0  0  0  0  0  0  0  0  0
    1.5202    1.6288    1.7676 H   0  0  0  0  0  0  0  0  0  0  0  0
   -0.9217    1.6380    1.9978 H   0  0  0  0  0  0  0  0  0  0  0  0
    1.2538    1.8361   -1.7127 N   0  0  0  0  0  0  0  0  0  0  0  0
    2.0852    1.9156   -2.4388 N   0  0  0  0  0  0  0  0  0  0  0  0
   -2.6153    0.0964    0.4830 O   0  0  0  0  0  0  0  0  0  0  0  0
   -3.3012    0.9250    1.4179 C   0  0  0  0  0  0  0  0  0  0  0  0
   -4.3651    0.7132    1.2767 H   0  0  0  0  0  0  0  0  0  0  0  0
   -3.1090    1.9905    1.2200 H   0  0  0  0  0  0  0  0  0  0  0  0
   -3.0128    0.6817    2.4518 H   0  0  0  0  0  0  0  0  0  0  0  0
    4.9553    0.7453   -0.0627 O   0  0  0  0  0  0  0  0  0  0  0  0
    3.8251    1.1034    0.1320 N   0  0  0  0  0  0  0  0  0  0  0  0
    2.8998   -0.0013   -0.0072 O   0  0  0  0  0  0  0  0  0  0  0  0
    3.3926    2.1875    0.4383 O   0  0  0  0  0  0  0  0  0  0  0  0
  1  6  1  0  0  0  0
  2  1  2  0  0  0  0
  2  3  1  0  0  0  0
  3  4  2  0  0  0  0
  4  5  1  0  0  0  0
  4  9  1  0  0  0  0
  5 10  1  0  0  0  0
  6 13  1  0  0  0  0
  6  5  2  0  0  0  0
  7  1  1  0  0  0  0
  8  2  1  0  0  0  0
 12 11  3  0  0  0  0
 13 14  1  0  0  0  0
 14 17  1  0  0  0  0
 15 14  1  0  0  0  0
 16 14  1  0  0  0  0
 18 19  2  0  0  0  0
 19 21  2  0  0  0  0
 20 19  1  0  0  0  0
 20  3  1  0  0  0  0
M  END
