Coordinates from ORCA-job p-CH3O-Ph-N2-NO3-B3LYPG-aug-cc-pVDZ-scan-d09-49-n400
 OpenBabel11111914563D

 21 20  0  0  0  0  0  0  0  0999 V2000
   -0.5465   -0.6025   -0.4900 C   0  0  0  0  0  0  0  0  0  0  0  0
    0.8419   -0.6548   -0.5202 C   0  0  0  0  0  0  0  0  0  0  0  0
    1.5816    0.0641    0.4256 C   0  0  0  0  0  0  0  0  0  0  0  0
    0.9433    0.8362    1.3927 C   0  0  0  0  0  0  0  0  0  0  0  0
   -0.4523    0.9106    1.4118 C   0  0  0  0  0  0  0  0  0  0  0  0
   -1.2015    0.1877    0.4703 C   0  0  0  0  0  0  0  0  0  0  0  0
   -1.1450   -1.1644   -1.2055 H   0  0  0  0  0  0  0  0  0  0  0  0
    1.3631   -1.2636   -1.2579 H   0  0  0  0  0  0  0  0  0  0  0  0
    1.5292    1.3825    2.1295 H   0  0  0  0  0  0  0  0  0  0  0  0
   -0.9369    1.5240    2.1668 H   0  0  0  0  0  0  0  0  0  0  0  0
    1.0441    2.0986   -2.2784 N   0  0  0  0  0  0  0  0  0  0  0  0
    1.7917    2.1040   -3.0918 N   0  0  0  0  0  0  0  0  0  0  0  0
   -2.5632    0.1822    0.4095 O   0  0  0  0  0  0  0  0  0  0  0  0
   -3.2870    0.9634    1.3566 C   0  0  0  0  0  0  0  0  0  0  0  0
   -4.3441    0.8116    1.1193 H   0  0  0  0  0  0  0  0  0  0  0  0
   -3.0394    2.0316    1.2632 H   0  0  0  0  0  0  0  0  0  0  0  0
   -3.0897    0.6251    2.3853 H   0  0  0  0  0  0  0  0  0  0  0  0
    4.9534    0.7613    0.0464 O   0  0  0  0  0  0  0  0  0  0  0  0
    3.7913    1.0493    0.1171 N   0  0  0  0  0  0  0  0  0  0  0  0
    2.9641   -0.1329    0.4396 O   0  0  0  0  0  0  0  0  0  0  0  0
    3.2324    2.1087   -0.0016 O   0  0  0  0  0  0  0  0  0  0  0  0
  1  6  1  0  0  0  0
  2  1  2  0  0  0  0
  2  3  1  0  0  0  0
  3 20  1  0  0  0  0
  3  4  2  0  0  0  0
  4  5  1  0  0  0  0
  4  9  1  0  0  0  0
  5 10  1  0  0  0  0
  6  5  2  0  0  0  0
  7  1  1  0  0  0  0
  8  2  1  0  0  0  0
 12 11  3  0  0  0  0
 13  6  1  0  0  0  0
 13 14  1  0  0  0  0
 14 17  1  0  0  0  0
 15 14  1  0  0  0  0
 16 14  1  0  0  0  0
 18 19  2  0  0  0  0
 19 20  1  0  0  0  0
 21 19  2  0  0  0  0
M  END
