Coordinates from ORCA-job p-CH3O-Ph-N2-NO3-B3LYPG-aug-cc-pVDZ-scan-d09-49-n400
 OpenBabel11111914563D

 21 20  0  0  0  0  0  0  0  0999 V2000
   -0.5441   -0.6001   -0.4897 C   0  0  0  0  0  0  0  0  0  0  0  0
    0.8442   -0.6536   -0.5174 C   0  0  0  0  0  0  0  0  0  0  0  0
    1.5829    0.0624    0.4315 C   0  0  0  0  0  0  0  0  0  0  0  0
    0.9434    0.8332    1.3988 C   0  0  0  0  0  0  0  0  0  0  0  0
   -0.4522    0.9087    1.4157 C   0  0  0  0  0  0  0  0  0  0  0  0
   -1.2003    0.1885    0.4712 C   0  0  0  0  0  0  0  0  0  0  0  0
   -1.1418   -1.1597   -1.2077 H   0  0  0  0  0  0  0  0  0  0  0  0
    1.3663   -1.2612   -1.2555 H   0  0  0  0  0  0  0  0  0  0  0  0
    1.5286    1.3776    2.1376 H   0  0  0  0  0  0  0  0  0  0  0  0
   -0.9377    1.5208    2.1711 H   0  0  0  0  0  0  0  0  0  0  0  0
    1.0388    2.1040   -2.2912 N   0  0  0  0  0  0  0  0  0  0  0  0
    1.7839    2.1067   -3.1070 N   0  0  0  0  0  0  0  0  0  0  0  0
   -2.5618    0.1842    0.4079 O   0  0  0  0  0  0  0  0  0  0  0  0
   -3.2868    0.9639    1.3554 C   0  0  0  0  0  0  0  0  0  0  0  0
   -4.3436    0.8135    1.1158 H   0  0  0  0  0  0  0  0  0  0  0  0
   -3.0381    2.0322    1.2647 H   0  0  0  0  0  0  0  0  0  0  0  0
   -3.0916    0.6233    2.3836 H   0  0  0  0  0  0  0  0  0  0  0  0
    4.9538    0.7608    0.0503 O   0  0  0  0  0  0  0  0  0  0  0  0
    3.7911    1.0472    0.1170 N   0  0  0  0  0  0  0  0  0  0  0  0
    2.9652   -0.1341    0.4481 O   0  0  0  0  0  0  0  0  0  0  0  0
    3.2302    2.1043   -0.0117 O   0  0  0  0  0  0  0  0  0  0  0  0
  1  6  1  0  0  0  0
  2  1  2  0  0  0  0
  2  3  1  0  0  0  0
  3 20  1  0  0  0  0
  3  4  2  0  0  0  0
  4  5  1  0  0  0  0
  4  9  1  0  0  0  0
  5 10  1  0  0  0  0
  6  5  2  0  0  0  0
  7  1  1  0  0  0  0
  8  2  1  0  0  0  0
 12 11  3  0  0  0  0
 13  6  1  0  0  0  0
 13 14  1  0  0  0  0
 14 17  1  0  0  0  0
 15 14  1  0  0  0  0
 16 14  1  0  0  0  0
 18 19  2  0  0  0  0
 19 20  1  0  0  0  0
 21 19  2  0  0  0  0
M  END
