Coordinates from ORCA-job p-CH3O-Ph-N2-NO3-B3LYPG-aug-cc-pVDZ-scan-d09-49-n400
 OpenBabel11111914563D

 21 20  0  0  0  0  0  0  0  0999 V2000
   -0.4757   -0.5191   -0.4820 C   0  0  0  0  0  0  0  0  0  0  0  0
    0.9107   -0.6008   -0.4430 C   0  0  0  0  0  0  0  0  0  0  0  0
    1.6117    0.0411    0.5836 C   0  0  0  0  0  0  0  0  0  0  0  0
    0.9369    0.7652    1.5624 C   0  0  0  0  0  0  0  0  0  0  0  0
   -0.4572    0.8593    1.5232 C   0  0  0  0  0  0  0  0  0  0  0  0
   -1.1673    0.2157    0.4976 C   0  0  0  0  0  0  0  0  0  0  0  0
   -1.0466   -1.0177   -1.2638 H   0  0  0  0  0  0  0  0  0  0  0  0
    1.4578   -1.1709   -1.1929 H   0  0  0  0  0  0  0  0  0  0  0  0
    1.4988    1.2524    2.3581 H   0  0  0  0  0  0  0  0  0  0  0  0
   -0.9708    1.4283    2.2937 H   0  0  0  0  0  0  0  0  0  0  0  0
    0.9066    2.2614   -2.6530 N   0  0  0  0  0  0  0  0  0  0  0  0
    1.5538    2.1550   -3.5416 N   0  0  0  0  0  0  0  0  0  0  0  0
   -2.5234    0.2390    0.3679 O   0  0  0  0  0  0  0  0  0  0  0  0
   -3.2841    0.9697    1.3266 C   0  0  0  0  0  0  0  0  0  0  0  0
   -4.3294    0.8535    1.0256 H   0  0  0  0  0  0  0  0  0  0  0  0
   -3.0155    2.0369    1.3171 H   0  0  0  0  0  0  0  0  0  0  0  0
   -3.1462    0.5608    2.3391 H   0  0  0  0  0  0  0  0  0  0  0  0
    4.9740    0.7327    0.1712 O   0  0  0  0  0  0  0  0  0  0  0  0
    3.8002    0.9702    0.1165 N   0  0  0  0  0  0  0  0  0  0  0  0
    2.9912   -0.1433    0.6728 O   0  0  0  0  0  0  0  0  0  0  0  0
    3.2050    1.9332   -0.2908 O   0  0  0  0  0  0  0  0  0  0  0  0
  1  2  2  0  0  0  0
  1  6  1  0  0  0  0
  2  3  1  0  0  0  0
  3 20  1  0  0  0  0
  3  4  2  0  0  0  0
  4  9  1  0  0  0  0
  5  4  1  0  0  0  0
  5 10  1  0  0  0  0
  6  5  2  0  0  0  0
  7  1  1  0  0  0  0
  8  2  1  0  0  0  0
 12 11  3  0  0  0  0
 13  6  1  0  0  0  0
 13 14  1  0  0  0  0
 14 17  1  0  0  0  0
 15 14  1  0  0  0  0
 16 14  1  0  0  0  0
 19 18  2  0  0  0  0
 19 20  1  0  0  0  0
 21 19  2  0  0  0  0
M  END
