Coordinates from ORCA-job p-CH3O-Ph-N2-NO3-B3LYPG-aug-cc-pVDZ-scan-d09-49-n400
 OpenBabel11111914563D

 21 20  0  0  0  0  0  0  0  0999 V2000
   -0.6368   -0.6862   -0.5010 C   0  0  0  0  0  0  0  0  0  0  0  0
    0.7406   -0.6634   -0.6550 C   0  0  0  0  0  0  0  0  0  0  0  0
    1.5101    0.2399    0.0931 C   0  0  0  0  0  0  0  0  0  0  0  0
    0.9220    1.0128    1.0924 C   0  0  0  0  0  0  0  0  0  0  0  0
   -0.4702    1.0043    1.2318 C   0  0  0  0  0  0  0  0  0  0  0  0
   -1.2576    0.1681    0.4281 C   0  0  0  0  0  0  0  0  0  0  0  0
   -1.2543   -1.3623   -1.0904 H   0  0  0  0  0  0  0  0  0  0  0  0
    1.2339   -1.3169   -1.3728 H   0  0  0  0  0  0  0  0  0  0  0  0
    1.5186    1.6520    1.7339 H   0  0  0  0  0  0  0  0  0  0  0  0
   -0.9199    1.6438    1.9869 H   0  0  0  0  0  0  0  0  0  0  0  0
    1.2590    1.7913   -1.6455 N   0  0  0  0  0  0  0  0  0  0  0  0
    2.0943    1.8909   -2.3685 N   0  0  0  0  0  0  0  0  0  0  0  0
   -2.6168    0.0906    0.4877 O   0  0  0  0  0  0  0  0  0  0  0  0
   -3.3009    0.9228    1.4209 C   0  0  0  0  0  0  0  0  0  0  0  0
   -4.3648    0.7067    1.2861 H   0  0  0  0  0  0  0  0  0  0  0  0
   -3.1128    1.9876    1.2153 H   0  0  0  0  0  0  0  0  0  0  0  0
   -3.0066    0.6867    2.4548 H   0  0  0  0  0  0  0  0  0  0  0  0
    4.9576    0.7397   -0.0647 O   0  0  0  0  0  0  0  0  0  0  0  0
    3.8298    1.1091    0.1233 N   0  0  0  0  0  0  0  0  0  0  0  0
    2.8929    0.0236   -0.0562 O   0  0  0  0  0  0  0  0  0  0  0  0
    3.4123    2.1815    0.4881 O   0  0  0  0  0  0  0  0  0  0  0  0
  1  6  1  0  0  0  0
  2  1  2  0  0  0  0
  2  3  1  0  0  0  0
  3  4  2  0  0  0  0
  4  5  1  0  0  0  0
  4  9  1  0  0  0  0
  5 10  1  0  0  0  0
  6 13  1  0  0  0  0
  6  5  2  0  0  0  0
  7  1  1  0  0  0  0
  8  2  1  0  0  0  0
 12 11  3  0  0  0  0
 13 14  1  0  0  0  0
 14 17  1  0  0  0  0
 15 14  1  0  0  0  0
 16 14  1  0  0  0  0
 18 19  2  0  0  0  0
 19 21  2  0  0  0  0
 20  3  1  0  0  0  0
 20 19  1  0  0  0  0
M  END
