Coordinates from ORCA-job p-CH3O-Ph-N2-NO3-B3LYPG-aug-cc-pVDZ-scan-d09-49-n400
 OpenBabel11111914563D

 21 20  0  0  0  0  0  0  0  0999 V2000
   -1.1599   -0.3882   -0.9312 C   0  0  0  0  0  0  0  0  0  0  0  0
    0.0877   -0.1710   -1.5211 C   0  0  0  0  0  0  0  0  0  0  0  0
    0.8853    0.6862   -0.8029 C   0  0  0  0  0  0  0  0  0  0  0  0
    0.6676    1.3451    0.3667 C   0  0  0  0  0  0  0  0  0  0  0  0
   -0.5968    1.1054    0.9282 C   0  0  0  0  0  0  0  0  0  0  0  0
   -1.5029    0.2421    0.2836 C   0  0  0  0  0  0  0  0  0  0  0  0
   -1.8802   -1.0532   -1.4049 H   0  0  0  0  0  0  0  0  0  0  0  0
    0.3861   -0.6457   -2.4516 H   0  0  0  0  0  0  0  0  0  0  0  0
    1.4315    1.9838    0.8069 H   0  0  0  0  0  0  0  0  0  0  0  0
   -0.8449    1.5924    1.8672 H   0  0  0  0  0  0  0  0  0  0  0  0
    2.5384    1.0249   -1.5670 N   0  0  0  0  0  0  0  0  0  0  0  0
    3.1715    0.8736   -2.4696 N   0  0  0  0  0  0  0  0  0  0  0  0
   -2.7389   -0.0517    0.7533 O   0  0  0  0  0  0  0  0  0  0  0  0
   -3.1594    0.5299    1.9908 C   0  0  0  0  0  0  0  0  0  0  0  0
   -4.1691    0.1482    2.1646 H   0  0  0  0  0  0  0  0  0  0  0  0
   -3.1864    1.6271    1.9207 H   0  0  0  0  0  0  0  0  0  0  0  0
   -2.5001    0.2201    2.8145 H   0  0  0  0  0  0  0  0  0  0  0  0
    4.8967    1.4900    1.7003 O   0  0  0  0  0  0  0  0  0  0  0  0
    4.0173    1.1651    0.9046 N   0  0  0  0  0  0  0  0  0  0  0  0
    3.5639    0.0080    0.8057 O   0  0  0  0  0  0  0  0  0  0  0  0
    3.5233    2.0904    0.1295 O   0  0  0  0  0  0  0  0  0  0  0  0
  1  6  1  0  0  0  0
  2  1  2  0  0  0  0
  2  3  1  0  0  0  0
  3  4  2  0  0  0  0
  4  9  1  0  0  0  0
  4  5  1  0  0  0  0
  5 10  1  0  0  0  0
  6 13  1  0  0  0  0
  6  5  2  0  0  0  0
  7  1  1  0  0  0  0
  8  2  1  0  0  0  0
 11  3  1  0  0  0  0
 12 11  2  0  0  0  0
 13 14  1  0  0  0  0
 14 15  1  0  0  0  0
 14 17  1  0  0  0  0
 16 14  1  0  0  0  0
 19 18  2  0  0  0  0
 20 19  1  0  0  0  0
 21 19  2  0  0  0  0
M  RAD  2  12   2  20   2
M  END
