Coordinates from ORCA-job p-CH3O-Ph-N2-NO3-B3LYPG-aug-cc-pVDZ-scan-d09-49-n400
 OpenBabel11111914563D

 21 20  0  0  0  0  0  0  0  0999 V2000
   -0.5833   -0.6368   -0.4944 C   0  0  0  0  0  0  0  0  0  0  0  0
    0.8039   -0.6689   -0.5656 C   0  0  0  0  0  0  0  0  0  0  0  0
    1.5607    0.0949    0.3305 C   0  0  0  0  0  0  0  0  0  0  0  0
    0.9406    0.8820    1.2973 C   0  0  0  0  0  0  0  0  0  0  0  0
   -0.4553    0.9385    1.3519 C   0  0  0  0  0  0  0  0  0  0  0  0
   -1.2221    0.1767    0.4571 C   0  0  0  0  0  0  0  0  0  0  0  0
   -1.1930   -1.2320   -1.1726 H   0  0  0  0  0  0  0  0  0  0  0  0
    1.3128   -1.2923   -1.2996 H   0  0  0  0  0  0  0  0  0  0  0  0
    1.5344    1.4579    2.0033 H   0  0  0  0  0  0  0  0  0  0  0  0
   -0.9254    1.5683    2.1027 H   0  0  0  0  0  0  0  0  0  0  0  0
    1.1316    2.0145   -2.0856 N   0  0  0  0  0  0  0  0  0  0  0  0
    1.9188    2.0377   -2.8609 N   0  0  0  0  0  0  0  0  0  0  0  0
   -2.5851    0.1520    0.4362 O   0  0  0  0  0  0  0  0  0  0  0  0
   -3.2911    0.9537    1.3794 C   0  0  0  0  0  0  0  0  0  0  0  0
   -4.3527    0.7821    1.1781 H   0  0  0  0  0  0  0  0  0  0  0  0
   -3.0600    2.0214    1.2457 H   0  0  0  0  0  0  0  0  0  0  0  0
   -3.0598    0.6504    2.4118 H   0  0  0  0  0  0  0  0  0  0  0  0
    4.9473    0.7767   -0.0029 O   0  0  0  0  0  0  0  0  0  0  0  0
    3.7943    1.0841    0.1227 N   0  0  0  0  0  0  0  0  0  0  0  0
    2.9447   -0.1053    0.2929 O   0  0  0  0  0  0  0  0  0  0  0  0
    3.2692    2.1673    0.1601 O   0  0  0  0  0  0  0  0  0  0  0  0
  1  6  1  0  0  0  0
  2  1  2  0  0  0  0
  2  3  1  0  0  0  0
  3  4  2  0  0  0  0
  4  5  1  0  0  0  0
  4  9  1  0  0  0  0
  5 10  1  0  0  0  0
  6  5  2  0  0  0  0
  7  1  1  0  0  0  0
  8  2  1  0  0  0  0
 12 11  3  0  0  0  0
 13  6  1  0  0  0  0
 13 14  1  0  0  0  0
 14 17  1  0  0  0  0
 15 14  1  0  0  0  0
 16 14  1  0  0  0  0
 18 19  2  0  0  0  0
 19 21  2  0  0  0  0
 19 20  1  0  0  0  0
 20  3  1  0  0  0  0
M  END
