Coordinates from ORCA-job p-CH3O-Ph-N2-NO3-B3LYPG-aug-cc-pVDZ-scan-d09-49-n400
 OpenBabel11111914563D

 21 21  0  0  1  0  0  0  0  0999 V2000
   -0.9720   -0.3319   -1.1387 C   0  0  0  0  0  0  0  0  0  0  0  0
    0.0739    0.0535   -1.9247 C   0  0  0  0  0  0  0  0  0  0  0  0
    1.0083    0.9637   -1.3684 C   0  0  1  0  0  0  0  0  0  0  0  0
    1.0917    1.3628    0.0317 C   0  0  1  0  0  0  0  0  0  0  0  0
   -0.1722    1.0765    0.7286 C   0  0  0  0  0  0  0  0  0  0  0  0
   -1.1030    0.2271    0.1895 C   0  0  0  0  0  0  0  0  0  0  0  0
   -1.7325   -1.0224   -1.4946 H   0  0  0  0  0  0  0  0  0  0  0  0
    0.1903   -0.3045   -2.9457 H   0  0  0  0  0  0  0  0  0  0  0  0
    1.5032    2.3534    0.2263 H   0  0  0  0  0  0  0  0  0  0  0  0
   -0.2953    1.5231    1.7092 H   0  0  0  0  0  0  0  0  0  0  0  0
    2.1402    1.4272   -2.2565 N   0  0  0  0  0  0  0  0  0  0  0  0
    2.9832    1.7908   -2.9073 N   0  0  0  0  0  0  0  0  0  0  0  0
   -2.2519   -0.1502    0.8071 O   0  0  0  0  0  0  0  0  0  0  0  0
   -2.4911    0.3217    2.1329 C   0  0  0  0  0  0  0  0  0  0  0  0
   -3.4374   -0.1313    2.4421 H   0  0  0  0  0  0  0  0  0  0  0  0
   -2.5818    1.4179    2.1491 H   0  0  0  0  0  0  0  0  0  0  0  0
   -1.6856    0.0061    2.8119 H   0  0  0  0  0  0  0  0  0  0  0  0
    2.3645    1.8566    2.3449 O   0  0  0  0  0  0  0  0  0  0  0  0
    2.8134    0.8357    1.8379 N   0  0  0  0  0  0  0  0  0  0  0  0
    3.6896    0.1217    2.2783 O   0  0  0  0  0  0  0  0  0  0  0  0
    2.2951    0.4253    0.6347 O   0  0  0  0  0  0  0  0  0  0  0  0
  1  6  1  0  0  0  0
  2  3  1  0  0  0  0
  2  1  2  0  0  0  0
  3 11  1  1  0  0  0
  3  4  1  0  0  0  0
  4  9  1  1  0  0  0
  4 21  1  0  0  0  0
  4  5  1  0  0  0  0
  5 10  1  0  0  0  0
  6  5  2  0  0  0  0
  6 13  1  0  0  0  0
  7  1  1  0  0  0  0
  8  2  1  0  0  0  0
 12 11  1  0  0  0  0
 13 14  1  0  0  0  0
 14 16  1  0  0  0  0
 14 15  1  0  0  0  0
 14 17  1  0  0  0  0
 19 20  2  0  0  0  0
 19 18  2  0  0  0  0
 21 19  1  0  0  0  0
M  RAD  3   3   2  11   2  12   3
M  END
