Coordinates from ORCA-job p-CH3O-Ph-N2-NO3-B3LYPG-aug-cc-pVDZ-scan-d09-49-n400
 OpenBabel11111914563D

 21 20  0  0  0  0  0  0  0  0999 V2000
   -0.4808   -0.5254   -0.4833 C   0  0  0  0  0  0  0  0  0  0  0  0
    0.9060   -0.6051   -0.4490 C   0  0  0  0  0  0  0  0  0  0  0  0
    1.6099    0.0425    0.5719 C   0  0  0  0  0  0  0  0  0  0  0  0
    0.9378    0.7703    1.5498 C   0  0  0  0  0  0  0  0  0  0  0  0
   -0.4564    0.8634    1.5146 C   0  0  0  0  0  0  0  0  0  0  0  0
   -1.1695    0.2138    0.4949 C   0  0  0  0  0  0  0  0  0  0  0  0
   -1.0539   -1.0289   -1.2603 H   0  0  0  0  0  0  0  0  0  0  0  0
    1.4512   -1.1785   -1.1979 H   0  0  0  0  0  0  0  0  0  0  0  0
    1.5018    1.2619    2.3414 H   0  0  0  0  0  0  0  0  0  0  0  0
   -0.9678    1.4359    2.2840 H   0  0  0  0  0  0  0  0  0  0  0  0
    0.9145    2.2446   -2.6175 N   0  0  0  0  0  0  0  0  0  0  0  0
    1.5708    2.1514   -3.5009 N   0  0  0  0  0  0  0  0  0  0  0  0
   -2.5261    0.2351    0.3700 O   0  0  0  0  0  0  0  0  0  0  0  0
   -3.2841    0.9699    1.3277 C   0  0  0  0  0  0  0  0  0  0  0  0
   -4.3303    0.8512    1.0311 H   0  0  0  0  0  0  0  0  0  0  0  0
   -3.0166    2.0373    1.3119 H   0  0  0  0  0  0  0  0  0  0  0  0
   -3.1421    0.5662    2.3418 H   0  0  0  0  0  0  0  0  0  0  0  0
    4.9724    0.7350    0.1600 O   0  0  0  0  0  0  0  0  0  0  0  0
    3.7990    0.9767    0.1146 N   0  0  0  0  0  0  0  0  0  0  0  0
    2.9896   -0.1431    0.6565 O   0  0  0  0  0  0  0  0  0  0  0  0
    3.2051    1.9486   -0.2731 O   0  0  0  0  0  0  0  0  0  0  0  0
  1  2  2  0  0  0  0
  1  6  1  0  0  0  0
  2  3  1  0  0  0  0
  3 20  1  0  0  0  0
  3  4  2  0  0  0  0
  4  9  1  0  0  0  0
  5  4  1  0  0  0  0
  5 10  1  0  0  0  0
  6  5  2  0  0  0  0
  7  1  1  0  0  0  0
  8  2  1  0  0  0  0
 12 11  3  0  0  0  0
 13  6  1  0  0  0  0
 13 14  1  0  0  0  0
 14 17  1  0  0  0  0
 15 14  1  0  0  0  0
 16 14  1  0  0  0  0
 19 18  2  0  0  0  0
 19 20  1  0  0  0  0
 21 19  2  0  0  0  0
M  END
