Coordinates from ORCA-job p-CH3O-Ph-N2-NO3-B3LYPG-aug-cc-pVDZ-scan-d09-49-n400
 OpenBabel11111914563D

 21 20  0  0  0  0  0  0  0  0999 V2000
   -0.4567   -0.4965   -0.4747 C   0  0  0  0  0  0  0  0  0  0  0  0
    0.9284   -0.5859   -0.4177 C   0  0  0  0  0  0  0  0  0  0  0  0
    1.6181    0.0351    0.6294 C   0  0  0  0  0  0  0  0  0  0  0  0
    0.9328    0.7450    1.6113 C   0  0  0  0  0  0  0  0  0  0  0  0
   -0.4607    0.8432    1.5569 C   0  0  0  0  0  0  0  0  0  0  0  0
   -1.1590    0.2219    0.5098 C   0  0  0  0  0  0  0  0  0  0  0  0
   -1.0190   -0.9772   -1.2738 H   0  0  0  0  0  0  0  0  0  0  0  0
    1.4830   -1.1435   -1.1715 H   0  0  0  0  0  0  0  0  0  0  0  0
    1.4868    1.2165    2.4220 H   0  0  0  0  0  0  0  0  0  0  0  0
   -0.9825    1.3990    2.3314 H   0  0  0  0  0  0  0  0  0  0  0  0
    0.8774    2.3397   -2.8129 N   0  0  0  0  0  0  0  0  0  0  0  0
    1.4871    2.1776   -3.7194 N   0  0  0  0  0  0  0  0  0  0  0  0
   -2.5131    0.2524    0.3623 O   0  0  0  0  0  0  0  0  0  0  0  0
   -3.2842    0.9683    1.3239 C   0  0  0  0  0  0  0  0  0  0  0  0
   -4.3257    0.8615    1.0066 H   0  0  0  0  0  0  0  0  0  0  0  0
   -3.0118    2.0345    1.3376 H   0  0  0  0  0  0  0  0  0  0  0  0
   -3.1615    0.5403    2.3304 H   0  0  0  0  0  0  0  0  0  0  0  0
    4.9806    0.7211    0.2180 O   0  0  0  0  0  0  0  0  0  0  0  0
    3.8058    0.9429    0.1296 N   0  0  0  0  0  0  0  0  0  0  0  0
    2.9964   -0.1455    0.7357 O   0  0  0  0  0  0  0  0  0  0  0  0
    3.2083    1.8723   -0.3465 O   0  0  0  0  0  0  0  0  0  0  0  0
  1  2  2  0  0  0  0
  1  6  1  0  0  0  0
  2  3  1  0  0  0  0
  3 20  1  0  0  0  0
  3  4  2  0  0  0  0
  4  9  1  0  0  0  0
  5  4  1  0  0  0  0
  5 10  1  0  0  0  0
  6  5  2  0  0  0  0
  7  1  1  0  0  0  0
  8  2  1  0  0  0  0
 12 11  3  0  0  0  0
 13  6  1  0  0  0  0
 13 14  1  0  0  0  0
 14 16  1  0  0  0  0
 14 17  1  0  0  0  0
 15 14  1  0  0  0  0
 19 18  2  0  0  0  0
 19 20  1  0  0  0  0
 21 19  2  0  0  0  0
M  END
