Coordinates from ORCA-job p-CH3O-Ph-N2-NO3-B3LYPG-aug-cc-pVDZ-scan-d09-49-n400
 OpenBabel11111914563D

 21 20  0  0  0  0  0  0  0  0999 V2000
   -0.4917   -0.5398   -0.4850 C   0  0  0  0  0  0  0  0  0  0  0  0
    0.8956   -0.6149   -0.4614 C   0  0  0  0  0  0  0  0  0  0  0  0
    1.6058    0.0454    0.5469 C   0  0  0  0  0  0  0  0  0  0  0  0
    0.9396    0.7816    1.5226 C   0  0  0  0  0  0  0  0  0  0  0  0
   -0.4548    0.8722    1.4962 C   0  0  0  0  0  0  0  0  0  0  0  0
   -1.1745    0.2092    0.4896 C   0  0  0  0  0  0  0  0  0  0  0  0
   -1.0695   -1.0541   -1.2514 H   0  0  0  0  0  0  0  0  0  0  0  0
    1.4366   -1.1956   -1.2075 H   0  0  0  0  0  0  0  0  0  0  0  0
    1.5077    1.2827    2.3051 H   0  0  0  0  0  0  0  0  0  0  0  0
   -0.9616    1.4525    2.2628 H   0  0  0  0  0  0  0  0  0  0  0  0
    0.9326    2.2131   -2.5472 N   0  0  0  0  0  0  0  0  0  0  0  0
    1.6076    2.1468   -3.4189 N   0  0  0  0  0  0  0  0  0  0  0  0
   -2.5322    0.2261    0.3753 O   0  0  0  0  0  0  0  0  0  0  0  0
   -3.2842    0.9699    1.3307 C   0  0  0  0  0  0  0  0  0  0  0  0
   -4.3325    0.8455    1.0438 H   0  0  0  0  0  0  0  0  0  0  0  0
   -3.0194    2.0377    1.3008 H   0  0  0  0  0  0  0  0  0  0  0  0
   -3.1332    0.5780    2.3481 H   0  0  0  0  0  0  0  0  0  0  0  0
    4.9690    0.7387    0.1361 O   0  0  0  0  0  0  0  0  0  0  0  0
    3.7969    0.9900    0.1120 N   0  0  0  0  0  0  0  0  0  0  0  0
    2.9861   -0.1428    0.6212 O   0  0  0  0  0  0  0  0  0  0  0  0
    3.2067    1.9806   -0.2314 O   0  0  0  0  0  0  0  0  0  0  0  0
  1  2  2  0  0  0  0
  1  6  1  0  0  0  0
  2  3  1  0  0  0  0
  3 20  1  0  0  0  0
  3  4  2  0  0  0  0
  4  9  1  0  0  0  0
  5  4  1  0  0  0  0
  5 10  1  0  0  0  0
  6  5  2  0  0  0  0
  7  1  1  0  0  0  0
  8  2  1  0  0  0  0
 12 11  3  0  0  0  0
 13  6  1  0  0  0  0
 13 14  1  0  0  0  0
 14 17  1  0  0  0  0
 15 14  1  0  0  0  0
 16 14  1  0  0  0  0
 19 18  2  0  0  0  0
 19 20  1  0  0  0  0
 21 19  2  0  0  0  0
M  END
