Coordinates from ORCA-job p-CH3O-Ph-N2-NO3-B3LYPG-aug-cc-pVDZ-scan-d09-49-n400
 OpenBabel11111914563D

 21 21  0  0  1  0  0  0  0  0999 V2000
   -0.9725   -0.3325   -1.1381 C   0  0  0  0  0  0  0  0  0  0  0  0
    0.0731    0.0536   -1.9248 C   0  0  0  0  0  0  0  0  0  0  0  0
    1.0048    0.9650   -1.3682 C   0  0  1  0  0  0  0  0  0  0  0  0
    1.0907    1.3648    0.0304 C   0  0  1  0  0  0  0  0  0  0  0  0
   -0.1726    1.0778    0.7277 C   0  0  0  0  0  0  0  0  0  0  0  0
   -1.1031    0.2271    0.1896 C   0  0  0  0  0  0  0  0  0  0  0  0
   -1.7323   -1.0240   -1.4934 H   0  0  0  0  0  0  0  0  0  0  0  0
    0.1900   -0.3048   -2.9455 H   0  0  0  0  0  0  0  0  0  0  0  0
    1.5025    2.3552    0.2250 H   0  0  0  0  0  0  0  0  0  0  0  0
   -0.2955    1.5249    1.7082 H   0  0  0  0  0  0  0  0  0  0  0  0
    2.1454    1.4289   -2.2621 N   0  0  0  0  0  0  0  0  0  0  0  0
    2.9888    1.7906   -2.9125 N   0  0  0  0  0  0  0  0  0  0  0  0
   -2.2512   -0.1509    0.8084 O   0  0  0  0  0  0  0  0  0  0  0  0
   -2.4897    0.3216    2.1342 C   0  0  0  0  0  0  0  0  0  0  0  0
   -3.4353   -0.1322    2.4445 H   0  0  0  0  0  0  0  0  0  0  0  0
   -2.5813    1.4176    2.1499 H   0  0  0  0  0  0  0  0  0  0  0  0
   -1.6834    0.0069    2.8126 H   0  0  0  0  0  0  0  0  0  0  0  0
    2.3571    1.8512    2.3499 O   0  0  0  0  0  0  0  0  0  0  0  0
    2.8127    0.8356    1.8380 N   0  0  0  0  0  0  0  0  0  0  0  0
    3.6859    0.1192    2.2808 O   0  0  0  0  0  0  0  0  0  0  0  0
    2.2963    0.4269    0.6338 O   0  0  0  0  0  0  0  0  0  0  0  0
  1  6  1  0  0  0  0
  2  3  1  0  0  0  0
  2  1  2  0  0  0  0
  3 11  1  1  0  0  0
  3  4  1  0  0  0  0
  4  9  1  1  0  0  0
  4 21  1  0  0  0  0
  4  5  1  0  0  0  0
  5 10  1  0  0  0  0
  6  5  2  0  0  0  0
  6 13  1  0  0  0  0
  7  1  1  0  0  0  0
  8  2  1  0  0  0  0
 12 11  1  0  0  0  0
 13 14  1  0  0  0  0
 14 16  1  0  0  0  0
 14 15  1  0  0  0  0
 14 17  1  0  0  0  0
 19 20  2  0  0  0  0
 19 18  2  0  0  0  0
 21 19  1  0  0  0  0
M  RAD  3   3   2  11   2  12   3
M  END
