Coordinates from ORCA-job p-CH3O-Ph-N2-NO3-B3LYPG-aug-cc-pVDZ-scan-d09-49-n400
 OpenBabel11111914563D

 21 21  0  0  1  0  0  0  0  0999 V2000
   -0.8821   -0.3534   -1.1172 C   0  0  0  0  0  0  0  0  0  0  0  0
    0.1450    0.0117   -1.9060 C   0  0  0  0  0  0  0  0  0  0  0  0
    1.1597    0.9916   -1.4471 C   0  0  0  0  0  0  0  0  0  0  0  0
    1.1631    1.3157    0.0619 C   0  0  1  0  0  0  0  0  0  0  0  0
   -0.1252    1.0575    0.7531 C   0  0  0  0  0  0  0  0  0  0  0  0
   -1.0530    0.2301    0.2090 C   0  0  0  0  0  0  0  0  0  0  0  0
   -1.6310   -1.0655   -1.4598 H   0  0  0  0  0  0  0  0  0  0  0  0
    0.2697   -0.3800   -2.9154 H   0  0  0  0  0  0  0  0  0  0  0  0
    1.5243    2.3370    0.2156 H   0  0  0  0  0  0  0  0  0  0  0  0
   -0.2556    1.5251    1.7238 H   0  0  0  0  0  0  0  0  0  0  0  0
    1.8568    1.4238   -2.0707 N   0  0  0  0  0  0  0  0  0  0  0  0
    2.6466    1.9171   -2.7717 N   0  0  0  0  0  0  0  0  0  0  0  0
   -2.2287   -0.1271    0.7808 O   0  0  0  0  0  0  0  0  0  0  0  0
   -2.5130    0.3720    2.0885 C   0  0  0  0  0  0  0  0  0  0  0  0
   -3.4806   -0.0553    2.3656 H   0  0  0  0  0  0  0  0  0  0  0  0
   -2.5785    1.4699    2.0812 H   0  0  0  0  0  0  0  0  0  0  0  0
   -1.7419    0.0503    2.8036 H   0  0  0  0  0  0  0  0  0  0  0  0
    2.4128    1.8339    2.3138 O   0  0  0  0  0  0  0  0  0  0  0  0
    2.8197    0.8074    1.8044 N   0  0  0  0  0  0  0  0  0  0  0  0
    3.6623    0.0440    2.2029 O   0  0  0  0  0  0  0  0  0  0  0  0
    2.2600    0.4169    0.5718 O   0  0  0  0  0  0  0  0  0  0  0  0
  1  6  2  0  0  0  0
  2  3  2  0  0  0  0
  2  1  1  0  0  0  0
  3  4  1  0  0  0  0
  4  9  1  1  0  0  0
  4 21  1  0  0  0  0
  4  5  1  0  0  0  0
  5 10  1  0  0  0  0
  6  5  1  0  0  0  0
  6 13  1  0  0  0  0
  7  1  1  0  0  0  0
  8  2  1  0  0  0  0
 11  3  1  0  0  0  0
 12 11  1  0  0  0  0
 13 14  1  0  0  0  0
 14 15  1  0  0  0  0
 14 17  1  0  0  0  0
 16 14  1  0  0  0  0
 19 20  2  0  0  0  0
 19 18  2  0  0  0  0
 21 19  1  0  0  0  0
M  RAD  3   5   2  11   2  12   3
M  END
