Coordinates from ORCA-job p-CH3O-Ph-N2-NO3-B3LYPG-aug-cc-pVDZ-scan-d09-49-n400
 OpenBabel11111914563D

 21 20  0  0  0  0  0  0  0  0999 V2000
   -0.4387   -0.4783   -0.4612 C   0  0  0  0  0  0  0  0  0  0  0  0
    0.9450   -0.5752   -0.3870 C   0  0  0  0  0  0  0  0  0  0  0  0
    1.6232    0.0265    0.6788 C   0  0  0  0  0  0  0  0  0  0  0  0
    0.9278    0.7235    1.6626 C   0  0  0  0  0  0  0  0  0  0  0  0
   -0.4650    0.8256    1.5935 C   0  0  0  0  0  0  0  0  0  0  0  0
   -1.1516    0.2251    0.5268 C   0  0  0  0  0  0  0  0  0  0  0  0
   -0.9922   -0.9421   -1.2764 H   0  0  0  0  0  0  0  0  0  0  0  0
    1.5069   -1.1214   -1.1437 H   0  0  0  0  0  0  0  0  0  0  0  0
    1.4736    1.1805    2.4871 H   0  0  0  0  0  0  0  0  0  0  0  0
   -0.9950    1.3695    2.3709 H   0  0  0  0  0  0  0  0  0  0  0  0
    0.8531    2.4520   -3.0313 N   0  0  0  0  0  0  0  0  0  0  0  0
    1.4211    2.2231   -3.9504 N   0  0  0  0  0  0  0  0  0  0  0  0
   -2.5034    0.2627    0.3621 O   0  0  0  0  0  0  0  0  0  0  0  0
   -3.2848    0.9648    1.3257 C   0  0  0  0  0  0  0  0  0  0  0  0
   -4.3224    0.8669    0.9932 H   0  0  0  0  0  0  0  0  0  0  0  0
   -3.0092    2.0296    1.3611 H   0  0  0  0  0  0  0  0  0  0  0  0
   -3.1766    0.5193    2.3263 H   0  0  0  0  0  0  0  0  0  0  0  0
    4.9878    0.7033    0.2752 O   0  0  0  0  0  0  0  0  0  0  0  0
    3.8133    0.9112    0.1550 N   0  0  0  0  0  0  0  0  0  0  0  0
    3.0002   -0.1518    0.8018 O   0  0  0  0  0  0  0  0  0  0  0  0
    3.2176    1.8079   -0.3818 O   0  0  0  0  0  0  0  0  0  0  0  0
  1  2  2  0  0  0  0
  1  6  1  0  0  0  0
  2  3  1  0  0  0  0
  3 20  1  0  0  0  0
  3  4  2  0  0  0  0
  4  9  1  0  0  0  0
  5  4  1  0  0  0  0
  5 10  1  0  0  0  0
  6  5  2  0  0  0  0
  7  1  1  0  0  0  0
  8  2  1  0  0  0  0
 12 11  3  0  0  0  0
 13  6  1  0  0  0  0
 13 14  1  0  0  0  0
 14 16  1  0  0  0  0
 14 17  1  0  0  0  0
 15 14  1  0  0  0  0
 19 18  2  0  0  0  0
 19 20  1  0  0  0  0
 21 19  2  0  0  0  0
M  END
