Coordinates from ORCA-job p-CH3O-Ph-N2-NO3-B3LYPG-aug-cc-pVDZ-scan-d09-49-n400
 OpenBabel11111914563D

 21 20  0  0  0  0  0  0  0  0999 V2000
   -0.6389   -0.6908   -0.5013 C   0  0  0  0  0  0  0  0  0  0  0  0
    0.7361   -0.6611   -0.6637 C   0  0  0  0  0  0  0  0  0  0  0  0
    1.5020    0.2727    0.0535 C   0  0  0  0  0  0  0  0  0  0  0  0
    0.9193    1.0254    1.0733 C   0  0  0  0  0  0  0  0  0  0  0  0
   -0.4709    1.0097    1.2218 C   0  0  0  0  0  0  0  0  0  0  0  0
   -1.2598    0.1700    0.4227 C   0  0  0  0  0  0  0  0  0  0  0  0
   -1.2553   -1.3803   -1.0760 H   0  0  0  0  0  0  0  0  0  0  0  0
    1.2303   -1.3191   -1.3765 H   0  0  0  0  0  0  0  0  0  0  0  0
    1.5173    1.6660    1.7113 H   0  0  0  0  0  0  0  0  0  0  0  0
   -0.9187    1.6431    1.9832 H   0  0  0  0  0  0  0  0  0  0  0  0
    1.2628    1.7402   -1.5724 N   0  0  0  0  0  0  0  0  0  0  0  0
    2.1104    1.8708   -2.2765 N   0  0  0  0  0  0  0  0  0  0  0  0
   -2.6175    0.0877    0.4883 O   0  0  0  0  0  0  0  0  0  0  0  0
   -3.3018    0.9233    1.4189 C   0  0  0  0  0  0  0  0  0  0  0  0
   -4.3655    0.7056    1.2856 H   0  0  0  0  0  0  0  0  0  0  0  0
   -3.1144    1.9872    1.2084 H   0  0  0  0  0  0  0  0  0  0  0  0
   -3.0066    0.6915    2.4534 H   0  0  0  0  0  0  0  0  0  0  0  0
    4.9550    0.7408   -0.0998 O   0  0  0  0  0  0  0  0  0  0  0  0
    3.8337    1.1118    0.1213 N   0  0  0  0  0  0  0  0  0  0  0  0
    2.8838    0.0464   -0.0953 O   0  0  0  0  0  0  0  0  0  0  0  0
    3.4292    2.1818    0.5080 O   0  0  0  0  0  0  0  0  0  0  0  0
  1  6  1  0  0  0  0
  2  1  2  0  0  0  0
  2  3  1  0  0  0  0
  3  4  2  0  0  0  0
  4  5  1  0  0  0  0
  4  9  1  0  0  0  0
  5 10  1  0  0  0  0
  6 13  1  0  0  0  0
  6  5  2  0  0  0  0
  7  1  1  0  0  0  0
  8  2  1  0  0  0  0
 12 11  3  0  0  0  0
 13 14  1  0  0  0  0
 14 17  1  0  0  0  0
 15 14  1  0  0  0  0
 16 14  1  0  0  0  0
 18 19  2  0  0  0  0
 19 21  2  0  0  0  0
 20  3  1  0  0  0  0
 20 19  1  0  0  0  0
M  END
