Coordinates from ORCA-job p-CH3O-Ph-N2-NO3-B3LYPG-aug-cc-pVDZ-scan-d09-49-n400
 OpenBabel11111914563D

 21 20  0  0  0  0  0  0  0  0999 V2000
   -0.4250   -0.4690   -0.4479 C   0  0  0  0  0  0  0  0  0  0  0  0
    0.9574   -0.5717   -0.3613 C   0  0  0  0  0  0  0  0  0  0  0  0
    1.6275    0.0166    0.7172 C   0  0  0  0  0  0  0  0  0  0  0  0
    0.9249    0.7056    1.7015 C   0  0  0  0  0  0  0  0  0  0  0  0
   -0.4670    0.8118    1.6210 C   0  0  0  0  0  0  0  0  0  0  0  0
   -1.1453    0.2253    0.5414 C   0  0  0  0  0  0  0  0  0  0  0  0
   -0.9720   -0.9212   -1.2737 H   0  0  0  0  0  0  0  0  0  0  0  0
    1.5246   -1.1107   -1.1193 H   0  0  0  0  0  0  0  0  0  0  0  0
    1.4647    1.1523    2.5355 H   0  0  0  0  0  0  0  0  0  0  0  0
   -1.0027    1.3485    2.3996 H   0  0  0  0  0  0  0  0  0  0  0  0
    0.8200    2.5553   -3.2391 N   0  0  0  0  0  0  0  0  0  0  0  0
    1.3587    2.2757   -4.1618 N   0  0  0  0  0  0  0  0  0  0  0  0
   -2.4954    0.2688    0.3643 O   0  0  0  0  0  0  0  0  0  0  0  0
   -3.2838    0.9627    1.3281 C   0  0  0  0  0  0  0  0  0  0  0  0
   -4.3185    0.8715    0.9848 H   0  0  0  0  0  0  0  0  0  0  0  0
   -3.0055    2.0263    1.3777 H   0  0  0  0  0  0  0  0  0  0  0  0
   -3.1863    0.5061    2.3248 H   0  0  0  0  0  0  0  0  0  0  0  0
    4.9960    0.6814    0.3294 O   0  0  0  0  0  0  0  0  0  0  0  0
    3.8228    0.8848    0.1903 N   0  0  0  0  0  0  0  0  0  0  0  0
    3.0029   -0.1636    0.8529 O   0  0  0  0  0  0  0  0  0  0  0  0
    3.2324    1.7662   -0.3769 O   0  0  0  0  0  0  0  0  0  0  0  0
  1  2  2  0  0  0  0
  1  6  1  0  0  0  0
  2  3  1  0  0  0  0
  3 20  1  0  0  0  0
  3  4  2  0  0  0  0
  4  9  1  0  0  0  0
  5  4  1  0  0  0  0
  5 10  1  0  0  0  0
  6  5  2  0  0  0  0
  7  1  1  0  0  0  0
  8  2  1  0  0  0  0
 12 11  3  0  0  0  0
 13  6  1  0  0  0  0
 13 14  1  0  0  0  0
 14 16  1  0  0  0  0
 14 17  1  0  0  0  0
 15 14  1  0  0  0  0
 19 18  2  0  0  0  0
 19 20  1  0  0  0  0
 21 19  2  0  0  0  0
M  END
