Coordinates from ORCA-job p-CH3O-Ph-N2-NO3-B3LYPG-aug-cc-pVDZ-scan-d09-49-n400
 OpenBabel11111914563D

 21 20  0  0  0  0  0  0  0  0999 V2000
   -0.5453   -0.6013   -0.4899 C   0  0  0  0  0  0  0  0  0  0  0  0
    0.8431   -0.6542   -0.5188 C   0  0  0  0  0  0  0  0  0  0  0  0
    1.5822    0.0632    0.4286 C   0  0  0  0  0  0  0  0  0  0  0  0
    0.9434    0.8347    1.3958 C   0  0  0  0  0  0  0  0  0  0  0  0
   -0.4522    0.9096    1.4137 C   0  0  0  0  0  0  0  0  0  0  0  0
   -1.2009    0.1881    0.4707 C   0  0  0  0  0  0  0  0  0  0  0  0
   -1.1434   -1.1620   -1.2066 H   0  0  0  0  0  0  0  0  0  0  0  0
    1.3647   -1.2624   -1.2567 H   0  0  0  0  0  0  0  0  0  0  0  0
    1.5289    1.3800    2.1336 H   0  0  0  0  0  0  0  0  0  0  0  0
   -0.9373    1.5224    2.1690 H   0  0  0  0  0  0  0  0  0  0  0  0
    1.0414    2.1013   -2.2848 N   0  0  0  0  0  0  0  0  0  0  0  0
    1.7878    2.1054   -3.0994 N   0  0  0  0  0  0  0  0  0  0  0  0
   -2.5625    0.1832    0.4087 O   0  0  0  0  0  0  0  0  0  0  0  0
   -3.2869    0.9637    1.3560 C   0  0  0  0  0  0  0  0  0  0  0  0
   -4.3439    0.8126    1.1175 H   0  0  0  0  0  0  0  0  0  0  0  0
   -3.0388    2.0319    1.2640 H   0  0  0  0  0  0  0  0  0  0  0  0
   -3.0907    0.6241    2.3844 H   0  0  0  0  0  0  0  0  0  0  0  0
    4.9536    0.7611    0.0483 O   0  0  0  0  0  0  0  0  0  0  0  0
    3.7912    1.0482    0.1171 N   0  0  0  0  0  0  0  0  0  0  0  0
    2.9646   -0.1335    0.4439 O   0  0  0  0  0  0  0  0  0  0  0  0
    3.2313    2.1065   -0.0067 O   0  0  0  0  0  0  0  0  0  0  0  0
  1  6  1  0  0  0  0
  2  1  2  0  0  0  0
  2  3  1  0  0  0  0
  3 20  1  0  0  0  0
  3  4  2  0  0  0  0
  4  5  1  0  0  0  0
  4  9  1  0  0  0  0
  5 10  1  0  0  0  0
  6  5  2  0  0  0  0
  7  1  1  0  0  0  0
  8  2  1  0  0  0  0
 12 11  3  0  0  0  0
 13  6  1  0  0  0  0
 13 14  1  0  0  0  0
 14 17  1  0  0  0  0
 15 14  1  0  0  0  0
 16 14  1  0  0  0  0
 18 19  2  0  0  0  0
 19 20  1  0  0  0  0
 21 19  2  0  0  0  0
M  END
