Coordinates from ORCA-job p-CH3O-Ph-N2-NO3-B3LYPG-aug-cc-pVDZ-scan-d09-49-n400
 OpenBabel11111914563D

 21 20  0  0  0  0  0  0  0  0999 V2000
   -0.4467   -0.4855   -0.4682 C   0  0  0  0  0  0  0  0  0  0  0  0
    0.9377   -0.5792   -0.4015 C   0  0  0  0  0  0  0  0  0  0  0  0
    1.6210    0.0309    0.6562 C   0  0  0  0  0  0  0  0  0  0  0  0
    0.9301    0.7332    1.6394 C   0  0  0  0  0  0  0  0  0  0  0  0
   -0.4630    0.8336    1.5768 C   0  0  0  0  0  0  0  0  0  0  0  0
   -1.1549    0.2242    0.5186 C   0  0  0  0  0  0  0  0  0  0  0  0
   -1.0040   -0.9566   -1.2765 H   0  0  0  0  0  0  0  0  0  0  0  0
    1.4964   -1.1303   -1.1571 H   0  0  0  0  0  0  0  0  0  0  0  0
    1.4796    1.1965    2.4579 H   0  0  0  0  0  0  0  0  0  0  0  0
   -0.9894    1.3825    2.3531 H   0  0  0  0  0  0  0  0  0  0  0  0
    0.8639    2.3968   -2.9253 N   0  0  0  0  0  0  0  0  0  0  0  0
    1.4510    2.1989   -3.8396 N   0  0  0  0  0  0  0  0  0  0  0  0
   -2.5077    0.2587    0.3614 O   0  0  0  0  0  0  0  0  0  0  0  0
   -3.2846    0.9666    1.3244 C   0  0  0  0  0  0  0  0  0  0  0  0
   -4.3239    0.8648    0.9985 H   0  0  0  0  0  0  0  0  0  0  0  0
   -3.0103    2.0320    1.3506 H   0  0  0  0  0  0  0  0  0  0  0  0
   -3.1699    0.5285    2.3275 H   0  0  0  0  0  0  0  0  0  0  0  0
    4.9844    0.7124    0.2482 O   0  0  0  0  0  0  0  0  0  0  0  0
    3.8096    0.9260    0.1417 N   0  0  0  0  0  0  0  0  0  0  0  0
    2.9987   -0.1482    0.7718 O   0  0  0  0  0  0  0  0  0  0  0  0
    3.2125    1.8368   -0.3694 O   0  0  0  0  0  0  0  0  0  0  0  0
  1  2  2  0  0  0  0
  1  6  1  0  0  0  0
  2  3  1  0  0  0  0
  3 20  1  0  0  0  0
  3  4  2  0  0  0  0
  4  9  1  0  0  0  0
  5  4  1  0  0  0  0
  5 10  1  0  0  0  0
  6  5  2  0  0  0  0
  7  1  1  0  0  0  0
  8  2  1  0  0  0  0
 12 11  3  0  0  0  0
 13  6  1  0  0  0  0
 13 14  1  0  0  0  0
 14 16  1  0  0  0  0
 14 17  1  0  0  0  0
 15 14  1  0  0  0  0
 19 18  2  0  0  0  0
 19 20  1  0  0  0  0
 21 19  2  0  0  0  0
M  END
