21
Coordinates from ORCA-job p-CH3O-Ph-N2-OOCH-B3LYPG-aug-cc-pVDZ-scan-d09-49-n400
  C   11.82413307112187      7.88438283595187     -1.41623180051693
  C   10.62183418892153      7.24776305977747     -1.01153370925345
  C   10.90198121851058      6.25556430377026     -0.07026994659167
  C   11.27733920162523      4.92420149751699     -0.40206113627101
  C   12.39964488749208      6.08850650154020     -0.02927755704623
  C   12.88748333509826      7.14215178360149     -0.89313328147348
  H   11.89668062479753      8.72424889876247     -2.10249682014155
  H   9.66262958014761      7.36328057295642     -1.51328652756545
  H   11.38954844203976      4.12231338172764      0.32688223198958
  H   12.98822997889025      5.77249270975778      0.82900717654373
  N   7.14111459172727      4.73405581193715      2.67761900419821
  N   7.79926428978878      5.20272642063796      3.43031946235506
  O   14.21329714327541      7.40040139558816     -0.94124185024356
  C   14.60467271634907      8.60849649222600     -1.59517758791489
  H   15.68980501119439      8.68038308007367     -1.47683049896622
  H   14.11634862639652      9.47704015126620     -1.12813085494586
  H   14.35082644641185      8.57310827149879     -2.66507898396390
  O   12.07734448970934      2.44776095632363     -1.23021769165505
  C   11.50039394142058      3.18286020381479     -1.98801675761421
  O   11.05536590778847      4.43621615101678     -1.70699355027111
  H   11.24076230729286      2.94284552025413     -3.03294932065204
