21
Coordinates from ORCA-job p-CH3O-Ph-N2-OOCH-B3LYPG-aug-cc-pVDZ-scan-d09-49-n400
  C   11.75855468122846      7.54212219421691     -1.09418280771959
  C   10.48725178650816      7.15565535935225     -0.81540853641675
  C   10.25264116130248      5.95904310656167     -0.05497608692514
  C   11.34576545004681      4.98590717701237      0.28107999827384
  C   12.68538181547692      5.59189043363335      0.08553914952571
  C   12.87362149858478      6.75584240491853     -0.59277491105340
  H   11.92703109767197      8.43717781169073     -1.68444428434826
  H   9.63157322755078      7.73431079761694     -1.16074096599545
  H   11.22306601412028      4.58523742707654      1.29386160266785
  H   13.54631179229700      5.05583786889712      0.48033324529095
  N   9.02687484004256      5.66531543767485      0.34049961972282
  N   7.97722968836496      5.38873638341621      0.68956744846190
  O   14.16664885605010      7.16691840244710     -0.75827009391408
  C   14.43293646217196      8.42611324486747     -1.37193459325865
  H   15.52111572197011      8.53905199045834     -1.34289996769827
  H   13.96761276514680      9.25342390383187     -0.81557233486722
  H   14.09695470927188      8.44352117678280     -2.41928693064346
  O   11.20119282911138      4.60569378392019     -2.55488855410961
  C   11.18331968046126      3.65289740340061     -1.81227111489965
  O   11.20118335181155      3.66311101289527     -0.47259211144256
  H   11.13243257080987      2.60299267932885     -2.15973777065100
