21
Coordinates from ORCA-job p-CH3O-Ph-N2-OOCH-B3LYPG-aug-cc-pVDZ-scan-d09-49-n400
  C   11.75692519675156      7.84521843208613     -1.38830256401139
  C   10.55410722769077      7.18707304956442     -1.02192925339075
  C   10.82462027333088      6.18670166872229     -0.08610099817245
  C   11.22610145733595      4.86489064685256     -0.42481460141251
  C   12.32327067444538      6.04005644923775     -0.00973452988298
  C   12.81731596521273      7.11136085757620     -0.84760600064839
  H   11.83466489069933      8.69479992547211     -2.06189038146784
  H   9.60628922885334      7.29556728049115     -1.54631418685813
  H   11.33220110049575      4.05584874998677      0.29708545042922
  H   12.89538729160495      5.72053917911962      0.85829535681563
  N   7.75410549789541      5.08410550054745      2.37717292750234
  N   8.19383748232393      5.51646142183975      3.29307494598447
  O   14.14011923290771      7.38887551096852     -0.85882184224252
  C   14.53047334558074      8.61068142242284     -1.48739971366234
  H   15.61113317583428      8.69623854786026     -1.34066980117841
  H   14.01815896238663      9.46620963555229     -1.02203823304955
  H   14.30420355114449      8.58556253163302     -2.56375681048877
  O   12.08004449016022      2.40966719499759     -1.26171564531872
  C   11.51164401486879      3.14590805455886     -2.02481591139643
  O   11.04320729317228      4.38998840180602     -1.74029160145119
  H   11.28088964730460      2.91504553870431     -3.07852660609934
