31
Coordinates from ORCA-job Ph-N2-OTs-B3LYPG-6-31G_dp-MTMO-d009-169-n800
  C   -0.89303761207682     -1.09909714554567     -1.28966735689506
  C   0.40720158934333     -0.89462306895410     -1.75301495027803
  C   0.74614653744036      0.35226606227552     -2.27526622723725
  C   -0.17539720227277      1.39584406302486     -2.33763480475004
  C   -1.47223203806680      1.17734193619666     -1.87132403179328
  C   -1.83245009732286     -0.06694582271057     -1.34839169579560
  H   -1.17028745374688     -2.06606287500976     -0.88089495241489
  H   1.15510250876364     -1.67857414090083     -1.71429175396660
  H   0.12975155102888      2.35322715582166     -2.74417333408235
  H   -2.20033443052977      1.98187856761915     -1.91622300110223
  N   15.17176529436467      6.48402500772779     -8.59294424885009
  N   14.22716645595586      5.95413556532537     -8.37249164057778
  C   4.80038724327237      2.35669132060532     -3.59221367159158
  C   5.85528718673488      2.40095782614564     -4.50106217556076
  C   6.65009557545848      1.27201197368346     -4.74616931511427
  C   6.37029620228017      0.08871659797820     -4.04503584858763
  C   5.32181903396545      0.02357454500200     -3.13174685026815
  C   4.54187290317834      1.16196486935648     -2.92025438122757
  H   4.19368678518214      3.23275285893945     -3.39194938878549
  H   6.06869559938158      3.32874500449843     -5.02435377634563
  H   6.98587305314023     -0.79105090233959     -4.21286331374776
  H   5.11529673476586     -0.88618459132827     -2.57884411464002
  S   3.20311464085160      1.09508135446411     -1.74952446915564
  O   3.45501260624469      0.04831707051227     -0.76187414196256
  O   2.03147975560674      0.54378901299725     -2.81020664360093
  O   2.84252258240421      2.44645207302065     -1.32710179816478
  C   7.77090138815407      1.32047236634810     -5.75567700840569
  H   8.12900060664028      2.34171823067522     -5.90923641252551
  H   8.61837194838398      0.70357491113153     -5.44282141086278
  H   7.43507457799174      0.94104749982140     -6.72866062125517
  H   -2.84258352651782     -0.23134732638184     -0.98578666045462
