31
Coordinates from ORCA-job Ph-N2-OTs-B3LYPG-6-31G_dp-MTMO-d009-169-n800
  C   -0.57073965804527      0.13881614275992     -2.09270277150806
  C   0.75722045137419      0.06589438406311     -2.51463699741004
  C   1.51402372884077      1.23505017943089     -2.56006100603001
  C   0.98134004855558      2.46797527016232     -2.18645512046370
  C   -0.34734117654360      2.52564722349466     -1.76351400592990
  C   -1.12385760290218      1.36541850622681     -1.71696936036829
  H   -1.17133733872326     -0.76513149829360     -2.05505127734080
  H   1.21088074914604     -0.87424616310315     -2.80705502795762
  H   1.60477411394838      3.35381604575717     -2.22715222940427
  H   -0.77416647508782      3.47964374929056     -1.46903040404759
  N   2.30778505583853      3.02066804049602     -6.00875042965374
  N   3.17077687364862      3.40991165358120     -5.43858753278463
  C   6.00353732406842      2.06632606887432     -3.54255884554049
  C   7.07297216481830      1.94478290239967     -4.42657052243059
  C   7.55133810685834      0.68604145086285     -4.81891474465179
  C   6.93529128171452     -0.45971615128046     -4.29368582734671
  C   5.86340024589803     -0.36092001093153     -3.41028689942988
  C   5.40553001437518      0.90660051991412     -3.04793029922567
  H   5.64333074787414      3.03967544615383     -3.22965998192262
  H   7.54788169437038      2.84181752286664     -4.81358840160921
  H   7.30342947119412     -1.44213728894757     -4.57618236852432
  H   5.39514262286729     -1.24520974950092     -2.99304892735383
  S   4.04555787865840      1.04519420450556     -1.90884374962189
  O   3.86819836080549     -0.21213027015986     -1.18652692933683
  O   2.82831959102630      1.17045370510213     -3.05356614083336
  O   4.12564645227055      2.31367627697032     -1.18835139957004
  C   8.69112205696747      0.56425437828332     -5.80032218145272
  H   8.31329568881633      0.45696241205108     -6.82470959373445
  H   9.33433952624617      1.44869777455290     -5.78085562430277
  H   9.30878448082566     -0.31369702930995     -5.58903574232941
  H   -2.15687647970518      1.41656430372753     -1.38709565788457
