31
Coordinates from ORCA-job Ph-N2-OTs-B3LYPG-6-31G_dp-MTMO-d009-169-n800
  C   -0.26830886496884      0.26373060610995     -1.78382539135153
  C   0.87020186022294      1.01026180195334     -2.10442241723225
  C   0.62667567166978      2.23255722007669     -2.69915690024695
  C   -0.61574926700557      2.77370739632849     -3.00565401056466
  C   -1.72348921984236      1.98994220424065     -2.68398270304266
  C   -1.54770846530078      0.74287341358763     -2.07585163163592
  H   -0.14169929530868     -0.70217216270709     -1.30687160562022
  H   1.87865012650098      0.66375628763756     -1.89007405308338
  H   -0.71347395158470      3.74694826190789     -3.47050637588504
  H   -2.71875805492867      2.35836026038754     -2.90964936036988
  N   1.84405891605554      3.17857448899323     -3.04861283541441
  N   2.15417092986961      4.24499152417841     -3.20330180165150
  C   6.66833417730499      2.04675064550393     -3.84964081927341
  C   7.79198774600546      1.63602637565639     -4.56414257295952
  C   8.05877149794970      0.27560803275023     -4.77723549066434
  C   7.17202349774042     -0.66913325250695     -4.24184257332187
  C   6.04375825221300     -0.27410952434746     -3.52487792834453
  C   5.79612956301454      1.08595113715264     -3.33579720666063
  H   6.47323302423135      3.09805534543779     -3.66716010690484
  H   8.47783978989501      2.38274701256777     -4.95648277388248
  H   7.37167439704568     -1.72866661496291     -4.38284313166339
  H   5.36825775834758     -1.00506679455937     -3.09426750846893
  S   4.33441339118245      1.60963539712310     -2.43868072020359
  O   3.97458837780594      0.51030392973503     -1.51102918756425
  O   3.27372533248982      1.72999746770927     -3.55527635008052
  O   4.61455561343835      2.92629868898664     -1.83379763195923
  C   9.26231980224239     -0.15909861209862     -5.57915673406002
  H   9.02644045805528     -0.20775679362982     -6.65003749006825
  H   10.09620788227141      0.54028834582678     -5.46251314453309
  H   9.60741805065258     -1.15227351707024     -5.27723084886598
  H   -2.41664899726522      0.14161142803152     -1.82777869442259
