Coordinates from ORCA-job 4-NO2-Ph-N2-OTs-B3LYPG-6-31G_dp-MTMO-d009-169-n800
 OpenBabel09051908313D

 33 33  0  0  0  0  0  0  0  0999 V2000
   -0.1243    1.5433   -0.1429 C   0  0  0  0  0  0  0  0  0  0  0  0
   -0.0627    0.5423   -1.1069 C   0  0  0  0  0  0  0  0  0  0  0  0
    0.4095    0.8563   -2.3856 C   0  0  0  0  0  0  0  0  0  0  0  0
    0.8102    2.1544   -2.7159 C   0  0  0  0  0  0  0  0  0  0  0  0
    0.7406    3.1584   -1.7561 C   0  0  0  0  0  0  0  0  0  0  0  0
    0.2776    2.8351   -0.4813 C   0  0  0  0  0  0  0  0  0  0  0  0
   -0.4835    1.3432    0.8584 H   0  0  0  0  0  0  0  0  0  0  0  0
   -0.3694   -0.4711   -0.8821 H   0  0  0  0  0  0  0  0  0  0  0  0
    1.1616    2.3609   -3.7204 H   0  0  0  0  0  0  0  0  0  0  0  0
    1.0385    4.1762   -1.9732 H   0  0  0  0  0  0  0  0  0  0  0  0
    0.2089    3.8927    0.5379 N   0  0  0  0  0  0  0  0  0  0  0  0
    0.5645    5.0245    0.2102 O   0  0  0  0  0  0  0  0  0  0  0  0
   -0.1979    3.5818    1.6567 O   0  0  0  0  0  0  0  0  0  0  0  0
   15.1328    3.5731   -9.6924 N   0  0  0  0  0  0  0  0  0  0  0  0
   15.9705    3.6161  -10.4121 N   0  0  0  0  0  0  0  0  0  0  0  0
    3.9284   -0.2325   -2.8180 C   0  0  0  0  0  0  0  0  0  0  0  0
    5.1245    0.3669   -3.2097 C   0  0  0  0  0  0  0  0  0  0  0  0
    5.4332    0.5548   -4.5641 C   0  0  0  0  0  0  0  0  0  0  0  0
    4.5081    0.1251   -5.5296 C   0  0  0  0  0  0  0  0  0  0  0  0
    3.3080   -0.4756   -5.1620 C   0  0  0  0  0  0  0  0  0  0  0  0
    3.0301   -0.6468   -3.8028 C   0  0  0  0  0  0  0  0  0  0  0  0
    3.6974   -0.3904   -1.7705 H   0  0  0  0  0  0  0  0  0  0  0  0
    5.8300    0.6915   -2.4500 H   0  0  0  0  0  0  0  0  0  0  0  0
    4.7339    0.2607   -6.5840 H   0  0  0  0  0  0  0  0  0  0  0  0
    2.6007   -0.8190   -5.9089 H   0  0  0  0  0  0  0  0  0  0  0  0
    1.4893   -1.3972   -3.3234 S   0  0  0  0  0  0  0  0  0  0  0  0
    0.4203   -0.0949   -3.3959 O   0  0  0  0  0  0  0  0  0  0  0  0
    1.5818   -1.8365   -1.9350 O   0  0  0  0  0  0  0  0  0  0  0  0
    1.0055   -2.2603   -4.3871 O   0  0  0  0  0  0  0  0  0  0  0  0
    6.7426    1.1783   -4.9805 C   0  0  0  0  0  0  0  0  0  0  0  0
    7.4790    0.4051   -5.2313 H   0  0  0  0  0  0  0  0  0  0  0  0
    6.6202    1.8092   -5.8660 H   0  0  0  0  0  0  0  0  0  0  0  0
    7.1684    1.7891   -4.1798 H   0  0  0  0  0  0  0  0  0  0  0  0
  1  7  1  0  0  0  0
  2  8  1  0  0  0  0
  2  1  2  0  0  0  0
  3  2  1  0  0  0  0
  4  3  2  0  0  0  0
  4  5  1  0  0  0  0
  5  6  2  0  0  0  0
  6  1  1  0  0  0  0
  6 11  1  0  0  0  0
  9  4  1  0  0  0  0
 10  5  1  0  0  0  0
 11 13  2  0  0  0  0
 12 11  2  0  0  0  0
 15 14  3  0  0  0  0
 16 22  1  0  0  0  0
 17 16  1  0  0  0  0
 17 23  1  0  0  0  0
 18 17  2  0  0  0  0
 19 20  2  0  0  0  0
 19 18  1  0  0  0  0
 20 21  1  0  0  0  0
 21 26  1  0  0  0  0
 21 16  2  0  0  0  0
 24 19  1  0  0  0  0
 25 20  1  0  0  0  0
 26 28  2  0  0  0  0
 27 26  1  0  0  0  0
 27  3  1  0  0  0  0
 29 26  2  0  0  0  0
 30 18  1  0  0  0  0
 30 33  1  0  0  0  0
 31 30  1  0  0  0  0
 32 30  1  0  0  0  0
M  END
