Coordinates from ORCA-job 4-NO2-Ph-N2-OTs-B3LYPG-6-31G_dp-MTMO-d009-169-n800
 OpenBabel09051908313D

 33 33  0  0  0  0  0  0  0  0999 V2000
   -0.0277    1.1956   -0.7535 C   0  0  0  0  0  0  0  0  0  0  0  0
    0.3748    0.2524   -1.6935 C   0  0  0  0  0  0  0  0  0  0  0  0
    0.9982    0.6850   -2.8689 C   0  0  0  0  0  0  0  0  0  0  0  0
    1.2150    2.0430   -3.1208 C   0  0  0  0  0  0  0  0  0  0  0  0
    0.8047    2.9878   -2.1864 C   0  0  0  0  0  0  0  0  0  0  0  0
    0.1926    2.5479   -1.0132 C   0  0  0  0  0  0  0  0  0  0  0  0
   -0.5126    0.9027    0.1690 H   0  0  0  0  0  0  0  0  0  0  0  0
    0.2178   -0.8059   -1.5276 H   0  0  0  0  0  0  0  0  0  0  0  0
    1.6927    2.3398   -4.0476 H   0  0  0  0  0  0  0  0  0  0  0  0
    0.9519    4.0486   -2.3460 H   0  0  0  0  0  0  0  0  0  0  0  0
   -0.2362    3.5438   -0.0201 N   0  0  0  0  0  0  0  0  0  0  0  0
   -0.0274    4.7297   -0.2747 O   0  0  0  0  0  0  0  0  0  0  0  0
   -0.7754    3.1314    1.0062 O   0  0  0  0  0  0  0  0  0  0  0  0
    6.4760    0.6958   -8.8751 N   0  0  0  0  0  0  0  0  0  0  0  0
    6.6577    0.3659   -9.9140 N   0  0  0  0  0  0  0  0  0  0  0  0
    4.6626    0.1708   -2.5905 C   0  0  0  0  0  0  0  0  0  0  0  0
    5.7925    0.9767   -2.7196 C   0  0  0  0  0  0  0  0  0  0  0  0
    6.3102    1.3053   -3.9801 C   0  0  0  0  0  0  0  0  0  0  0  0
    5.6657    0.8055   -5.1236 C   0  0  0  0  0  0  0  0  0  0  0  0
    4.5373   -0.0016   -5.0179 C   0  0  0  0  0  0  0  0  0  0  0  0
    4.0454   -0.3100   -3.7463 C   0  0  0  0  0  0  0  0  0  0  0  0
    4.2712   -0.0939   -1.6149 H   0  0  0  0  0  0  0  0  0  0  0  0
    6.2810    1.3537   -1.8256 H   0  0  0  0  0  0  0  0  0  0  0  0
    6.0544    1.0466   -6.1087 H   0  0  0  0  0  0  0  0  0  0  0  0
    4.0488   -0.3987   -5.9008 H   0  0  0  0  0  0  0  0  0  0  0  0
    2.5920   -1.3265   -3.6046 S   0  0  0  0  0  0  0  0  0  0  0  0
    1.3513   -0.2143   -3.8649 O   0  0  0  0  0  0  0  0  0  0  0  0
    2.4841   -1.8214   -2.2360 O   0  0  0  0  0  0  0  0  0  0  0  0
    2.4792   -2.1977   -4.7618 O   0  0  0  0  0  0  0  0  0  0  0  0
    7.5519    2.1526   -4.1086 C   0  0  0  0  0  0  0  0  0  0  0  0
    7.4932    2.8188   -4.9745 H   0  0  0  0  0  0  0  0  0  0  0  0
    7.7157    2.7627   -3.2162 H   0  0  0  0  0  0  0  0  0  0  0  0
    8.4395    1.5226   -4.2436 H   0  0  0  0  0  0  0  0  0  0  0  0
  1  7  1  0  0  0  0
  2  8  1  0  0  0  0
  2  1  2  0  0  0  0
  3  2  1  0  0  0  0
  4  3  2  0  0  0  0
  4  5  1  0  0  0  0
  5  6  2  0  0  0  0
  6  1  1  0  0  0  0
  6 11  1  0  0  0  0
  9  4  1  0  0  0  0
 10  5  1  0  0  0  0
 11 13  2  0  0  0  0
 12 11  2  0  0  0  0
 15 14  3  0  0  0  0
 16 22  1  0  0  0  0
 17 16  1  0  0  0  0
 17 23  1  0  0  0  0
 18 17  2  0  0  0  0
 19 20  2  0  0  0  0
 19 18  1  0  0  0  0
 20 21  1  0  0  0  0
 21 26  1  0  0  0  0
 21 16  2  0  0  0  0
 24 19  1  0  0  0  0
 25 20  1  0  0  0  0
 26 28  2  0  0  0  0
 27 26  1  0  0  0  0
 27  3  1  0  0  0  0
 29 26  2  0  0  0  0
 30 18  1  0  0  0  0
 30 32  1  0  0  0  0
 31 30  1  0  0  0  0
 33 30  1  0  0  0  0
M  END
