Coordinates from ORCA-job 4-NO2-Ph-N2-OTs-B3LYPG-6-31G_dp-MTMO-d009-169-n800
 OpenBabel09051908313D

 33 33  0  0  0  0  0  0  0  0999 V2000
    0.0402    0.8346   -1.6555 C   0  0  0  0  0  0  0  0  0  0  0  0
    0.7094    0.0133   -2.5571 C   0  0  0  0  0  0  0  0  0  0  0  0
    1.5429    0.5943   -3.5182 C   0  0  0  0  0  0  0  0  0  0  0  0
    1.7095    1.9800   -3.5969 C   0  0  0  0  0  0  0  0  0  0  0  0
    1.0356    2.8030   -2.7013 C   0  0  0  0  0  0  0  0  0  0  0  0
    0.2137    2.2159   -1.7401 C   0  0  0  0  0  0  0  0  0  0  0  0
   -0.6140    0.4260   -0.8956 H   0  0  0  0  0  0  0  0  0  0  0  0
    0.5995   -1.0633   -2.5224 H   0  0  0  0  0  0  0  0  0  0  0  0
    2.3554    2.3936   -4.3631 H   0  0  0  0  0  0  0  0  0  0  0  0
    1.1364    3.8808   -2.7303 H   0  0  0  0  0  0  0  0  0  0  0  0
   -0.4940    3.0828   -0.7861 N   0  0  0  0  0  0  0  0  0  0  0  0
   -0.3171    4.2973   -0.8798 O   0  0  0  0  0  0  0  0  0  0  0  0
   -1.2177    2.5417    0.0489 O   0  0  0  0  0  0  0  0  0  0  0  0
   -0.2965    0.1725   -6.4459 N   0  0  0  0  0  0  0  0  0  0  0  0
   -0.5427   -0.7287   -7.0363 N   0  0  0  0  0  0  0  0  0  0  0  0
    5.1055    0.3402   -2.5161 C   0  0  0  0  0  0  0  0  0  0  0  0
    6.1651    1.2309   -2.3544 C   0  0  0  0  0  0  0  0  0  0  0  0
    6.9074    1.6845   -3.4540 C   0  0  0  0  0  0  0  0  0  0  0  0
    6.5614    1.2229   -4.7342 C   0  0  0  0  0  0  0  0  0  0  0  0
    5.5075    0.3334   -4.9196 C   0  0  0  0  0  0  0  0  0  0  0  0
    4.7871   -0.0987   -3.8025 C   0  0  0  0  0  0  0  0  0  0  0  0
    4.5420   -0.0211   -1.6635 H   0  0  0  0  0  0  0  0  0  0  0  0
    6.4206    1.5766   -1.3567 H   0  0  0  0  0  0  0  0  0  0  0  0
    7.1286    1.5624   -5.5963 H   0  0  0  0  0  0  0  0  0  0  0  0
    5.2503   -0.0326   -5.9074 H   0  0  0  0  0  0  0  0  0  0  0  0
    3.4271   -1.2230   -4.0335 S   0  0  0  0  0  0  0  0  0  0  0  0
    2.1747   -0.1848   -4.4780 O   0  0  0  0  0  0  0  0  0  0  0  0
    3.0842   -1.8299   -2.7517 O   0  0  0  0  0  0  0  0  0  0  0  0
    3.6282   -2.0051   -5.2412 O   0  0  0  0  0  0  0  0  0  0  0  0
    8.0730    2.6238   -3.2655 C   0  0  0  0  0  0  0  0  0  0  0  0
    8.1762    3.3089   -4.1122 H   0  0  0  0  0  0  0  0  0  0  0  0
    7.9656    3.2179   -2.3540 H   0  0  0  0  0  0  0  0  0  0  0  0
    9.0131    2.0645   -3.1838 H   0  0  0  0  0  0  0  0  0  0  0  0
  1  7  1  0  0  0  0
  2  8  1  0  0  0  0
  2  1  2  0  0  0  0
  3  2  1  0  0  0  0
  4  3  2  0  0  0  0
  4  5  1  0  0  0  0
  5  6  2  0  0  0  0
  6  1  1  0  0  0  0
  6 11  1  0  0  0  0
  9  4  1  0  0  0  0
 10  5  1  0  0  0  0
 11 13  2  0  0  0  0
 12 11  2  0  0  0  0
 15 14  3  0  0  0  0
 16 17  1  0  0  0  0
 16 22  1  0  0  0  0
 17 23  1  0  0  0  0
 18 30  1  0  0  0  0
 18 17  2  0  0  0  0
 19 18  1  0  0  0  0
 20 19  2  0  0  0  0
 20 21  1  0  0  0  0
 21 16  2  0  0  0  0
 24 19  1  0  0  0  0
 25 20  1  0  0  0  0
 26 21  1  0  0  0  0
 26 28  2  0  0  0  0
 27 26  1  0  0  0  0
 27  3  1  0  0  0  0
 29 26  2  0  0  0  0
 30 33  1  0  0  0  0
 30 32  1  0  0  0  0
 31 30  1  0  0  0  0
M  END
