Coordinates from ORCA-job 4-NO2-Ph-N2-OTs-B3LYPG-6-31G_dp-MTMO-d009-169-n800
 OpenBabel09051908313D

 33 33  0  0  0  0  0  0  0  0999 V2000
   -0.0553    0.8947   -1.2187 C   0  0  0  0  0  0  0  0  0  0  0  0
    0.5054    0.0970   -2.2109 C   0  0  0  0  0  0  0  0  0  0  0  0
    1.2773    0.6962   -3.2115 C   0  0  0  0  0  0  0  0  0  0  0  0
    1.4897    2.0777   -3.2393 C   0  0  0  0  0  0  0  0  0  0  0  0
    0.9245    2.8779   -2.2520 C   0  0  0  0  0  0  0  0  0  0  0  0
    0.1630    2.2718   -1.2536 C   0  0  0  0  0  0  0  0  0  0  0  0
   -0.6594    0.4716   -0.4260 H   0  0  0  0  0  0  0  0  0  0  0  0
    0.3572   -0.9756   -2.2182 H   0  0  0  0  0  0  0  0  0  0  0  0
    2.0864    2.5063   -4.0367 H   0  0  0  0  0  0  0  0  0  0  0  0
    1.0644    3.9515   -2.2384 H   0  0  0  0  0  0  0  0  0  0  0  0
   -0.4300    3.1139   -0.2039 N   0  0  0  0  0  0  0  0  0  0  0  0
   -0.2165    4.3250   -0.2564 O   0  0  0  0  0  0  0  0  0  0  0  0
   -1.1011    2.5567    0.6637 O   0  0  0  0  0  0  0  0  0  0  0  0
    3.3019   -0.7060   -8.2028 N   0  0  0  0  0  0  0  0  0  0  0  0
    2.5557   -1.3854   -8.6526 N   0  0  0  0  0  0  0  0  0  0  0  0
    4.9329    0.3395   -2.5991 C   0  0  0  0  0  0  0  0  0  0  0  0
    6.0195    1.2086   -2.5253 C   0  0  0  0  0  0  0  0  0  0  0  0
    6.6394    1.6962   -3.6845 C   0  0  0  0  0  0  0  0  0  0  0  0
    6.1417    1.2909   -4.9331 C   0  0  0  0  0  0  0  0  0  0  0  0
    5.0580    0.4234   -5.0324 C   0  0  0  0  0  0  0  0  0  0  0  0
    4.4626   -0.0430   -3.8568 C   0  0  0  0  0  0  0  0  0  0  0  0
    4.4626   -0.0477   -1.7024 H   0  0  0  0  0  0  0  0  0  0  0  0
    6.3928    1.5107   -1.5509 H   0  0  0  0  0  0  0  0  0  0  0  0
    6.6126    1.6579   -5.8407 H   0  0  0  0  0  0  0  0  0  0  0  0
    4.6837    0.1046   -5.9989 H   0  0  0  0  0  0  0  0  0  0  0  0
    3.0611   -1.1336   -3.9708 S   0  0  0  0  0  0  0  0  0  0  0  0
    1.7941   -0.0572   -4.2562 O   0  0  0  0  0  0  0  0  0  0  0  0
    2.8389   -1.7682   -2.6757 O   0  0  0  0  0  0  0  0  0  0  0  0
    3.1155   -1.8889   -5.2113 O   0  0  0  0  0  0  0  0  0  0  0  0
    7.8351    2.6117   -3.5943 C   0  0  0  0  0  0  0  0  0  0  0  0
    7.8782    3.2988   -4.4445 H   0  0  0  0  0  0  0  0  0  0  0  0
    7.8189    3.2035   -2.6750 H   0  0  0  0  0  0  0  0  0  0  0  0
    8.7674    2.0340   -3.5951 H   0  0  0  0  0  0  0  0  0  0  0  0
  1  7  1  0  0  0  0
  2  1  2  0  0  0  0
  3  2  1  0  0  0  0
  4  3  2  0  0  0  0
  4  5  1  0  0  0  0
  5 10  1  0  0  0  0
  5  6  2  0  0  0  0
  6  1  1  0  0  0  0
  6 11  1  0  0  0  0
  8  2  1  0  0  0  0
  9  4  1  0  0  0  0
 11 13  2  0  0  0  0
 12 11  2  0  0  0  0
 15 14  3  0  0  0  0
 16 17  1  0  0  0  0
 16 22  1  0  0  0  0
 17 23  1  0  0  0  0
 18 30  1  0  0  0  0
 18 17  2  0  0  0  0
 19 18  1  0  0  0  0
 20 19  2  0  0  0  0
 20 21  1  0  0  0  0
 21 16  2  0  0  0  0
 24 19  1  0  0  0  0
 25 20  1  0  0  0  0
 26 21  1  0  0  0  0
 26 28  2  0  0  0  0
 27 26  1  0  0  0  0
 27  3  1  0  0  0  0
 29 26  2  0  0  0  0
 30 32  1  0  0  0  0
 31 30  1  0  0  0  0
 33 30  1  0  0  0  0
M  END
