Coordinates from ORCA-job 4-NO2-Ph-N2-OTs-B3LYPG-6-31G_dp-MTMO-d009-169-n800
 OpenBabel09051908313D

 33 33  0  0  0  0  0  0  0  0999 V2000
    0.0042    1.2161   -0.4638 C   0  0  0  0  0  0  0  0  0  0  0  0
    0.3419    0.2399   -1.3956 C   0  0  0  0  0  0  0  0  0  0  0  0
    0.8684    0.6306   -2.6313 C   0  0  0  0  0  0  0  0  0  0  0  0
    1.0527    1.9792   -2.9508 C   0  0  0  0  0  0  0  0  0  0  0  0
    0.7071    2.9568   -2.0240 C   0  0  0  0  0  0  0  0  0  0  0  0
    0.1913    2.5587   -0.7913 C   0  0  0  0  0  0  0  0  0  0  0  0
   -0.4054    0.9564    0.5038 H   0  0  0  0  0  0  0  0  0  0  0  0
    0.2080   -0.8119   -1.1774 H   0  0  0  0  0  0  0  0  0  0  0  0
    1.4545    2.2428   -3.9225 H   0  0  0  0  0  0  0  0  0  0  0  0
    0.8312    4.0117   -2.2347 H   0  0  0  0  0  0  0  0  0  0  0  0
   -0.1691    3.5896    0.1935 N   0  0  0  0  0  0  0  0  0  0  0  0
    0.0090    4.7661   -0.1214 O   0  0  0  0  0  0  0  0  0  0  0  0
   -0.6252    3.2138    1.2727 O   0  0  0  0  0  0  0  0  0  0  0  0
    8.5156    1.2872   -8.4819 N   0  0  0  0  0  0  0  0  0  0  0  0
    9.2299    1.2271   -9.3230 N   0  0  0  0  0  0  0  0  0  0  0  0
    4.5571    0.2142   -2.7524 C   0  0  0  0  0  0  0  0  0  0  0  0
    5.6604    1.0046   -3.0648 C   0  0  0  0  0  0  0  0  0  0  0  0
    6.0578    1.2054   -4.3957 C   0  0  0  0  0  0  0  0  0  0  0  0
    5.3234    0.5828   -5.4164 C   0  0  0  0  0  0  0  0  0  0  0  0
    4.2160   -0.2109   -5.1276 C   0  0  0  0  0  0  0  0  0  0  0  0
    3.8427   -0.3849   -3.7928 C   0  0  0  0  0  0  0  0  0  0  0  0
    4.2626    0.0446   -1.7229 H   0  0  0  0  0  0  0  0  0  0  0  0
    6.2269    1.4668   -2.2612 H   0  0  0  0  0  0  0  0  0  0  0  0
    5.6298    0.7146   -6.4502 H   0  0  0  0  0  0  0  0  0  0  0  0
    3.6590   -0.7043   -5.9164 H   0  0  0  0  0  0  0  0  0  0  0  0
    2.4251   -1.3924   -3.4154 S   0  0  0  0  0  0  0  0  0  0  0  0
    1.1504   -0.3055   -3.6161 O   0  0  0  0  0  0  0  0  0  0  0  0
    2.4748   -1.7836   -2.0104 O   0  0  0  0  0  0  0  0  0  0  0  0
    2.1958   -2.3478   -4.4856 O   0  0  0  0  0  0  0  0  0  0  0  0
    7.2410    2.0835   -4.7205 C   0  0  0  0  0  0  0  0  0  0  0  0
    7.6288    1.8784   -5.7215 H   0  0  0  0  0  0  0  0  0  0  0  0
    6.9595    3.1434   -4.6863 H   0  0  0  0  0  0  0  0  0  0  0  0
    8.0530    1.9417   -4.0005 H   0  0  0  0  0  0  0  0  0  0  0  0
  1  7  1  0  0  0  0
  2  8  1  0  0  0  0
  2  1  2  0  0  0  0
  3  2  1  0  0  0  0
  4  3  2  0  0  0  0
  4  5  1  0  0  0  0
  5  6  2  0  0  0  0
  6  1  1  0  0  0  0
  6 11  1  0  0  0  0
  9  4  1  0  0  0  0
 10  5  1  0  0  0  0
 11 13  2  0  0  0  0
 12 11  2  0  0  0  0
 15 14  3  0  0  0  0
 16 22  1  0  0  0  0
 17 16  1  0  0  0  0
 17 23  1  0  0  0  0
 18 17  2  0  0  0  0
 19 20  2  0  0  0  0
 19 18  1  0  0  0  0
 20 21  1  0  0  0  0
 21 26  1  0  0  0  0
 21 16  2  0  0  0  0
 24 19  1  0  0  0  0
 25 20  1  0  0  0  0
 26 28  2  0  0  0  0
 27 26  1  0  0  0  0
 27  3  1  0  0  0  0
 29 26  2  0  0  0  0
 30 32  1  0  0  0  0
 30 18  1  0  0  0  0
 30 33  1  0  0  0  0
 31 30  1  0  0  0  0
M  END
