Coordinates from ORCA-job 4-NO2-Ph-N2-OTs-B3LYPG-6-31G_dp-MTMO-d009-169-n800
 OpenBabel09051908313D

 33 33  0  0  0  0  0  0  0  0999 V2000
    0.0308    0.8215   -1.7023 C   0  0  0  0  0  0  0  0  0  0  0  0
    0.7085    0.0024   -2.5994 C   0  0  0  0  0  0  0  0  0  0  0  0
    1.5540    0.5849   -3.5489 C   0  0  0  0  0  0  0  0  0  0  0  0
    1.7259    1.9703   -3.6192 C   0  0  0  0  0  0  0  0  0  0  0  0
    1.0439    2.7915   -2.7280 C   0  0  0  0  0  0  0  0  0  0  0  0
    0.2090    2.2027   -1.7791 C   0  0  0  0  0  0  0  0  0  0  0  0
   -0.6330    0.4115   -0.9516 H   0  0  0  0  0  0  0  0  0  0  0  0
    0.5959   -1.0742   -2.5701 H   0  0  0  0  0  0  0  0  0  0  0  0
    2.3819    2.3856   -4.3759 H   0  0  0  0  0  0  0  0  0  0  0  0
    1.1482    3.8690   -2.7511 H   0  0  0  0  0  0  0  0  0  0  0  0
   -0.5076    3.0676   -0.8299 N   0  0  0  0  0  0  0  0  0  0  0  0
   -0.3255    4.2820   -0.9159 O   0  0  0  0  0  0  0  0  0  0  0  0
   -1.2432    2.5252   -0.0063 O   0  0  0  0  0  0  0  0  0  0  0  0
   -0.3667    0.2320   -6.2128 N   0  0  0  0  0  0  0  0  0  0  0  0
   -0.6845   -0.6439   -6.8071 N   0  0  0  0  0  0  0  0  0  0  0  0
    5.1099    0.3426   -2.5192 C   0  0  0  0  0  0  0  0  0  0  0  0
    6.1664    1.2360   -2.3516 C   0  0  0  0  0  0  0  0  0  0  0  0
    6.9164    1.6882   -3.4465 C   0  0  0  0  0  0  0  0  0  0  0  0
    6.5815    1.2223   -4.7282 C   0  0  0  0  0  0  0  0  0  0  0  0
    5.5310    0.3300   -4.9194 C   0  0  0  0  0  0  0  0  0  0  0  0
    4.8026   -0.1005   -3.8068 C   0  0  0  0  0  0  0  0  0  0  0  0
    4.5404   -0.0175   -1.6701 H   0  0  0  0  0  0  0  0  0  0  0  0
    6.4133    1.5849   -1.3529 H   0  0  0  0  0  0  0  0  0  0  0  0
    7.1548    1.5607   -5.5867 H   0  0  0  0  0  0  0  0  0  0  0  0
    5.2823   -0.0391   -5.9083 H   0  0  0  0  0  0  0  0  0  0  0  0
    3.4465   -1.2278   -4.0456 S   0  0  0  0  0  0  0  0  0  0  0  0
    2.1958   -0.1929   -4.5028 O   0  0  0  0  0  0  0  0  0  0  0  0
    3.0941   -1.8317   -2.7649 O   0  0  0  0  0  0  0  0  0  0  0  0
    3.6589   -2.0129   -5.2495 O   0  0  0  0  0  0  0  0  0  0  0  0
    8.0785    2.6305   -3.2514 C   0  0  0  0  0  0  0  0  0  0  0  0
    8.1862    3.3142   -4.0987 H   0  0  0  0  0  0  0  0  0  0  0  0
    7.9630    3.2262   -2.3420 H   0  0  0  0  0  0  0  0  0  0  0  0
    9.0192    2.0736   -3.1619 H   0  0  0  0  0  0  0  0  0  0  0  0
  1  7  1  0  0  0  0
  2  8  1  0  0  0  0
  2  1  2  0  0  0  0
  3  2  1  0  0  0  0
  4  3  2  0  0  0  0
  4  5  1  0  0  0  0
  5  6  2  0  0  0  0
  6  1  1  0  0  0  0
  6 11  1  0  0  0  0
  9  4  1  0  0  0  0
 10  5  1  0  0  0  0
 11 13  2  0  0  0  0
 12 11  2  0  0  0  0
 15 14  3  0  0  0  0
 16 17  1  0  0  0  0
 16 22  1  0  0  0  0
 17 23  1  0  0  0  0
 18 30  1  0  0  0  0
 18 17  2  0  0  0  0
 19 18  1  0  0  0  0
 20 19  2  0  0  0  0
 20 21  1  0  0  0  0
 21 16  2  0  0  0  0
 24 19  1  0  0  0  0
 25 20  1  0  0  0  0
 26 21  1  0  0  0  0
 26 28  2  0  0  0  0
 27 26  1  0  0  0  0
 27  3  1  0  0  0  0
 29 26  2  0  0  0  0
 30 33  1  0  0  0  0
 30 32  1  0  0  0  0
 31 30  1  0  0  0  0
M  END
