Coordinates from ORCA-job 4-NO2-Ph-N2-OTs-B3LYPG-6-31G_dp-MTMO-d009-169-n800
 OpenBabel09051908313D

 33 33  0  0  0  0  0  0  0  0999 V2000
    0.0455    1.1919   -0.3333 C   0  0  0  0  0  0  0  0  0  0  0  0
    0.3472    0.2191   -1.2807 C   0  0  0  0  0  0  0  0  0  0  0  0
    0.8234    0.6141   -2.5352 C   0  0  0  0  0  0  0  0  0  0  0  0
    0.9938    1.9639   -2.8577 C   0  0  0  0  0  0  0  0  0  0  0  0
    0.6847    2.9382   -1.9146 C   0  0  0  0  0  0  0  0  0  0  0  0
    0.2183    2.5357   -0.6639 C   0  0  0  0  0  0  0  0  0  0  0  0
   -0.3255    0.9290    0.6489 H   0  0  0  0  0  0  0  0  0  0  0  0
    0.2233   -0.8337   -1.0606 H   0  0  0  0  0  0  0  0  0  0  0  0
    1.3568    2.2307   -3.8436 H   0  0  0  0  0  0  0  0  0  0  0  0
    0.7995    3.9938   -2.1266 H   0  0  0  0  0  0  0  0  0  0  0  0
   -0.1040    3.5632    0.3376 N   0  0  0  0  0  0  0  0  0  0  0  0
    0.0622    4.7408    0.0203 O   0  0  0  0  0  0  0  0  0  0  0  0
   -0.5186    3.1837    1.4321 O   0  0  0  0  0  0  0  0  0  0  0  0
    9.5438    1.2229   -8.0798 N   0  0  0  0  0  0  0  0  0  0  0  0
   10.3735    1.1685   -8.8078 N   0  0  0  0  0  0  0  0  0  0  0  0
    4.5117    0.2429   -2.8690 C   0  0  0  0  0  0  0  0  0  0  0  0
    5.5855    1.0452   -3.2533 C   0  0  0  0  0  0  0  0  0  0  0  0
    5.8997    1.2406   -4.6052 C   0  0  0  0  0  0  0  0  0  0  0  0
    5.1115    0.6011   -5.5764 C   0  0  0  0  0  0  0  0  0  0  0  0
    4.0347   -0.2026   -5.2168 C   0  0  0  0  0  0  0  0  0  0  0  0
    3.7443   -0.3716   -3.8594 C   0  0  0  0  0  0  0  0  0  0  0  0
    4.2822    0.0780   -1.8222 H   0  0  0  0  0  0  0  0  0  0  0  0
    6.1931    1.5211   -2.4888 H   0  0  0  0  0  0  0  0  0  0  0  0
    5.3512    0.7295   -6.6287 H   0  0  0  0  0  0  0  0  0  0  0  0
    3.4367   -0.7080   -5.9671 H   0  0  0  0  0  0  0  0  0  0  0  0
    2.3627   -1.3911   -3.3920 S   0  0  0  0  0  0  0  0  0  0  0  0
    1.0664   -0.3201   -3.5321 O   0  0  0  0  0  0  0  0  0  0  0  0
    2.4951   -1.7657   -1.9880 O   0  0  0  0  0  0  0  0  0  0  0  0
    2.0858   -2.3602   -4.4384 O   0  0  0  0  0  0  0  0  0  0  0  0
    7.0508    2.1253   -5.0163 C   0  0  0  0  0  0  0  0  0  0  0  0
    7.6421    1.6665   -5.8147 H   0  0  0  0  0  0  0  0  0  0  0  0
    6.6856    3.0869   -5.3965 H   0  0  0  0  0  0  0  0  0  0  0  0
    7.7155    2.3352   -4.1744 H   0  0  0  0  0  0  0  0  0  0  0  0
  1  7  1  0  0  0  0
  2  8  1  0  0  0  0
  2  1  2  0  0  0  0
  3  2  1  0  0  0  0
  4  3  2  0  0  0  0
  4  5  1  0  0  0  0
  5  6  2  0  0  0  0
  6  1  1  0  0  0  0
  6 11  1  0  0  0  0
  9  4  1  0  0  0  0
 10  5  1  0  0  0  0
 11 13  2  0  0  0  0
 12 11  2  0  0  0  0
 15 14  3  0  0  0  0
 16 22  1  0  0  0  0
 17 16  1  0  0  0  0
 17 23  1  0  0  0  0
 18 17  2  0  0  0  0
 19 20  2  0  0  0  0
 19 18  1  0  0  0  0
 20 21  1  0  0  0  0
 21 26  1  0  0  0  0
 21 16  2  0  0  0  0
 24 19  1  0  0  0  0
 25 20  1  0  0  0  0
 26 28  2  0  0  0  0
 27 26  1  0  0  0  0
 27  3  1  0  0  0  0
 29 26  2  0  0  0  0
 30 18  1  0  0  0  0
 30 33  1  0  0  0  0
 31 30  1  0  0  0  0
 32 30  1  0  0  0  0
M  END
