Coordinates from ORCA-job 4-NO2-Ph-N2-OTs-B3LYPG-6-31G_dp-MTMO-d009-169-n800
 OpenBabel09051908313D

 33 33  0  0  0  0  0  0  0  0999 V2000
   -0.0802    0.9251   -1.1072 C   0  0  0  0  0  0  0  0  0  0  0  0
    0.4169    0.1996   -2.1850 C   0  0  0  0  0  0  0  0  0  0  0  0
    1.1714    0.8598   -3.1604 C   0  0  0  0  0  0  0  0  0  0  0  0
    1.4271    2.2320   -3.0793 C   0  0  0  0  0  0  0  0  0  0  0  0
    0.9246    2.9604   -2.0062 C   0  0  0  0  0  0  0  0  0  0  0  0
    0.1814    2.2932   -1.0335 C   0  0  0  0  0  0  0  0  0  0  0  0
   -0.6683    0.4531   -0.3300 H   0  0  0  0  0  0  0  0  0  0  0  0
    0.2330   -0.8632   -2.2776 H   0  0  0  0  0  0  0  0  0  0  0  0
    2.0076    2.7095   -3.8607 H   0  0  0  0  0  0  0  0  0  0  0  0
    1.0994    4.0242   -1.9073 H   0  0  0  0  0  0  0  0  0  0  0  0
   -0.3444    3.0588    0.1065 N   0  0  0  0  0  0  0  0  0  0  0  0
   -0.0926    4.2630    0.1489 O   0  0  0  0  0  0  0  0  0  0  0  0
   -1.0014    2.4492    0.9493 O   0  0  0  0  0  0  0  0  0  0  0  0
    4.3110   -1.4393   -8.4005 N   0  0  0  0  0  0  0  0  0  0  0  0
    3.7987   -2.3184   -8.8313 N   0  0  0  0  0  0  0  0  0  0  0  0
    4.7836    0.3971   -2.7260 C   0  0  0  0  0  0  0  0  0  0  0  0
    5.9071    1.2146   -2.6269 C   0  0  0  0  0  0  0  0  0  0  0  0
    6.5607    1.6932   -3.7719 C   0  0  0  0  0  0  0  0  0  0  0  0
    6.0591    1.3309   -5.0316 C   0  0  0  0  0  0  0  0  0  0  0  0
    4.9366    0.5169   -5.1560 C   0  0  0  0  0  0  0  0  0  0  0  0
    4.3078    0.0592   -3.9951 C   0  0  0  0  0  0  0  0  0  0  0  0
    4.2901    0.0144   -1.8400 H   0  0  0  0  0  0  0  0  0  0  0  0
    6.2839    1.4825   -1.6438 H   0  0  0  0  0  0  0  0  0  0  0  0
    6.5573    1.6885   -5.9283 H   0  0  0  0  0  0  0  0  0  0  0  0
    4.5623    0.2261   -6.1312 H   0  0  0  0  0  0  0  0  0  0  0  0
    2.8568   -0.9603   -4.1416 S   0  0  0  0  0  0  0  0  0  0  0  0
    1.6264    0.1858   -4.2856 O   0  0  0  0  0  0  0  0  0  0  0  0
    2.6538   -1.6905   -2.8948 O   0  0  0  0  0  0  0  0  0  0  0  0
    2.8364   -1.6116   -5.4408 O   0  0  0  0  0  0  0  0  0  0  0  0
    7.7957    2.5515   -3.6526 C   0  0  0  0  0  0  0  0  0  0  0  0
    7.9025    3.2213   -4.5106 H   0  0  0  0  0  0  0  0  0  0  0  0
    7.7756    3.1587   -2.7432 H   0  0  0  0  0  0  0  0  0  0  0  0
    8.6981    1.9294   -3.6099 H   0  0  0  0  0  0  0  0  0  0  0  0
  1  6  1  0  0  0  0
  1  7  1  0  0  0  0
  2  1  2  0  0  0  0
  3  4  2  0  0  0  0
  3  2  1  0  0  0  0
  4  5  1  0  0  0  0
  5 10  1  0  0  0  0
  5  6  2  0  0  0  0
  6 11  1  0  0  0  0
  8  2  1  0  0  0  0
  9  4  1  0  0  0  0
 11 12  2  0  0  0  0
 11 13  2  0  0  0  0
 15 14  3  0  0  0  0
 16 17  1  0  0  0  0
 16 22  1  0  0  0  0
 17 23  1  0  0  0  0
 18 30  1  0  0  0  0
 18 17  2  0  0  0  0
 19 18  1  0  0  0  0
 20 19  2  0  0  0  0
 20 21  1  0  0  0  0
 21 16  2  0  0  0  0
 24 19  1  0  0  0  0
 25 20  1  0  0  0  0
 26 21  1  0  0  0  0
 26 28  2  0  0  0  0
 27 26  1  0  0  0  0
 27  3  1  0  0  0  0
 29 26  2  0  0  0  0
 30 33  1  0  0  0  0
 30 32  1  0  0  0  0
 31 30  1  0  0  0  0
M  END
