Coordinates from ORCA-job 4-NO2-Ph-N2-OTs-B3LYPG-6-31G_dp-MTMO-d009-169-n800
 OpenBabel09051908313D

 33 32  0  0  0  0  0  0  0  0999 V2000
    0.8895    1.1488   -1.7783 C   0  0  0  0  0  0  0  0  0  0  0  0
    0.8190    0.7209   -3.1149 C   0  0  0  0  0  0  0  0  0  0  0  0
   -0.0561    1.2862   -3.8302 C   0  0  0  0  0  0  0  0  0  0  0  0
   -1.0106    2.2555   -3.6857 C   0  0  0  0  0  0  0  0  0  0  0  0
   -0.9605    2.7067   -2.3539 C   0  0  0  0  0  0  0  0  0  0  0  0
   -0.0334    2.1577   -1.4480 C   0  0  0  0  0  0  0  0  0  0  0  0
    1.5792    0.7676   -1.0354 H   0  0  0  0  0  0  0  0  0  0  0  0
    2.1163   -0.5655   -3.7784 H   0  0  0  0  0  0  0  0  0  0  0  0
   -1.6975    2.6338   -4.4310 H   0  0  0  0  0  0  0  0  0  0  0  0
   -1.6354    3.4816   -2.0098 H   0  0  0  0  0  0  0  0  0  0  0  0
   -0.0301    2.6786   -0.0667 N   0  0  0  0  0  0  0  0  0  0  0  0
   -0.8422    3.5579    0.2163 O   0  0  0  0  0  0  0  0  0  0  0  0
    0.7884    2.1992    0.7147 O   0  0  0  0  0  0  0  0  0  0  0  0
   -0.2877    0.6242   -6.1274 N   0  0  0  0  0  0  0  0  0  0  0  0
    0.0698   -0.0277   -6.9453 N   0  0  0  0  0  0  0  0  0  0  0  0
    5.0853    1.4688   -4.1451 C   0  0  0  0  0  0  0  0  0  0  0  0
    6.1640    2.0462   -3.4759 C   0  0  0  0  0  0  0  0  0  0  0  0
    7.2579    1.2745   -3.0623 C   0  0  0  0  0  0  0  0  0  0  0  0
    7.2489   -0.1019   -3.3390 C   0  0  0  0  0  0  0  0  0  0  0  0
    6.1822   -0.6963   -4.0069 C   0  0  0  0  0  0  0  0  0  0  0  0
    5.1032    0.0982   -4.4018 C   0  0  0  0  0  0  0  0  0  0  0  0
    4.2456    2.0695   -4.4775 H   0  0  0  0  0  0  0  0  0  0  0  0
    6.1565    3.1140   -3.2741 H   0  0  0  0  0  0  0  0  0  0  0  0
    8.0910   -0.7153   -3.0291 H   0  0  0  0  0  0  0  0  0  0  0  0
    6.1838   -1.7569   -4.2334 H   0  0  0  0  0  0  0  0  0  0  0  0
    3.7182   -0.6610   -5.2341 S   0  0  0  0  0  0  0  0  0  0  0  0
    2.9441    0.3900   -5.9012 O   0  0  0  0  0  0  0  0  0  0  0  0
    2.8182   -1.2305   -4.0028 O   0  0  0  0  0  0  0  0  0  0  0  0
    4.1942   -1.8341   -5.9530 O   0  0  0  0  0  0  0  0  0  0  0  0
    8.4339    1.9078   -2.3585 C   0  0  0  0  0  0  0  0  0  0  0  0
    9.2810    2.0309   -3.0444 H   0  0  0  0  0  0  0  0  0  0  0  0
    8.1815    2.8964   -1.9667 H   0  0  0  0  0  0  0  0  0  0  0  0
    8.7803    1.2892   -1.5247 H   0  0  0  0  0  0  0  0  0  0  0  0
  1  6  1  0  0  0  0
  1  7  1  0  0  0  0
  2  1  2  0  0  0  0
  3  4  2  0  0  0  0
  3  2  1  0  0  0  0
  4  5  1  0  0  0  0
  5 10  1  0  0  0  0
  5  6  2  0  0  0  0
  6 11  1  0  0  0  0
  9  4  1  0  0  0  0
 11 12  2  0  0  0  0
 11 13  2  0  0  0  0
 15 14  3  0  0  0  0
 16 17  1  0  0  0  0
 17 23  1  0  0  0  0
 17 18  2  0  0  0  0
 18 30  1  0  0  0  0
 19 18  1  0  0  0  0
 19 24  1  0  0  0  0
 20 19  2  0  0  0  0
 21 16  2  0  0  0  0
 21 20  1  0  0  0  0
 22 16  1  0  0  0  0
 25 20  1  0  0  0  0
 26 21  1  0  0  0  0
 26 28  1  0  0  0  0
 27 26  2  0  0  0  0
 28  8  1  0  0  0  0
 29 26  2  0  0  0  0
 30 32  1  0  0  0  0
 30 33  1  0  0  0  0
 31 30  1  0  0  0  0
M  RAD  2   2   2   3   2
M  END
