Coordinates from ORCA-job 4-NO2-Ph-N2-OTs-B3LYPG-6-31G_dp-MTMO-d009-169-n800
 OpenBabel09051908313D

 33 33  0  0  0  0  0  0  0  0999 V2000
    0.0072    1.2181   -0.4658 C   0  0  0  0  0  0  0  0  0  0  0  0
    0.3437    0.2404   -1.3963 C   0  0  0  0  0  0  0  0  0  0  0  0
    0.8698    0.6289   -2.6330 C   0  0  0  0  0  0  0  0  0  0  0  0
    1.0547    1.9769   -2.9546 C   0  0  0  0  0  0  0  0  0  0  0  0
    0.7102    2.9561   -2.0290 C   0  0  0  0  0  0  0  0  0  0  0  0
    0.1949    2.5602   -0.7954 C   0  0  0  0  0  0  0  0  0  0  0  0
   -0.4021    0.9602    0.5024 H   0  0  0  0  0  0  0  0  0  0  0  0
    0.2093   -0.8111   -1.1766 H   0  0  0  0  0  0  0  0  0  0  0  0
    1.4561    2.2388   -3.9269 H   0  0  0  0  0  0  0  0  0  0  0  0
    0.8348    4.0106   -2.2414 H   0  0  0  0  0  0  0  0  0  0  0  0
   -0.1644    3.5928    0.1880 N   0  0  0  0  0  0  0  0  0  0  0  0
    0.0144    4.7686   -0.1287 O   0  0  0  0  0  0  0  0  0  0  0  0
   -0.6201    3.2189    1.2680 O   0  0  0  0  0  0  0  0  0  0  0  0
    8.5009    1.2951   -8.4704 N   0  0  0  0  0  0  0  0  0  0  0  0
    9.2132    1.2394   -9.3135 N   0  0  0  0  0  0  0  0  0  0  0  0
    4.5583    0.2096   -2.7510 C   0  0  0  0  0  0  0  0  0  0  0  0
    5.6612    1.0007   -3.0629 C   0  0  0  0  0  0  0  0  0  0  0  0
    6.0570    1.2045   -4.3938 C   0  0  0  0  0  0  0  0  0  0  0  0
    5.3214    0.5840   -5.4150 C   0  0  0  0  0  0  0  0  0  0  0  0
    4.2145   -0.2106   -5.1266 C   0  0  0  0  0  0  0  0  0  0  0  0
    3.8428   -0.3874   -3.7918 C   0  0  0  0  0  0  0  0  0  0  0  0
    4.2649    0.0379   -1.7214 H   0  0  0  0  0  0  0  0  0  0  0  0
    6.2285    1.4613   -2.2591 H   0  0  0  0  0  0  0  0  0  0  0  0
    5.6263    0.7179   -6.4489 H   0  0  0  0  0  0  0  0  0  0  0  0
    3.6567   -0.7023   -5.9158 H   0  0  0  0  0  0  0  0  0  0  0  0
    2.4255   -1.3955   -3.4148 S   0  0  0  0  0  0  0  0  0  0  0  0
    1.1505   -0.3089   -3.6164 O   0  0  0  0  0  0  0  0  0  0  0  0
    2.4746   -1.7865   -2.0098 O   0  0  0  0  0  0  0  0  0  0  0  0
    2.1969   -2.3512   -4.4850 O   0  0  0  0  0  0  0  0  0  0  0  0
    7.2397    2.0834   -4.7182 C   0  0  0  0  0  0  0  0  0  0  0  0
    7.6257    1.8811   -5.7203 H   0  0  0  0  0  0  0  0  0  0  0  0
    6.9584    3.1433   -4.6805 H   0  0  0  0  0  0  0  0  0  0  0  0
    8.0528    1.9396   -3.9998 H   0  0  0  0  0  0  0  0  0  0  0  0
  1  7  1  0  0  0  0
  2  8  1  0  0  0  0
  2  1  2  0  0  0  0
  3  2  1  0  0  0  0
  4  3  2  0  0  0  0
  4  5  1  0  0  0  0
  5  6  2  0  0  0  0
  6  1  1  0  0  0  0
  6 11  1  0  0  0  0
  9  4  1  0  0  0  0
 10  5  1  0  0  0  0
 11 13  2  0  0  0  0
 12 11  2  0  0  0  0
 15 14  3  0  0  0  0
 16 22  1  0  0  0  0
 17 16  1  0  0  0  0
 17 23  1  0  0  0  0
 18 17  2  0  0  0  0
 19 20  2  0  0  0  0
 19 18  1  0  0  0  0
 20 21  1  0  0  0  0
 21 26  1  0  0  0  0
 21 16  2  0  0  0  0
 24 19  1  0  0  0  0
 25 20  1  0  0  0  0
 26 28  2  0  0  0  0
 27 26  1  0  0  0  0
 27  3  1  0  0  0  0
 29 26  2  0  0  0  0
 30 32  1  0  0  0  0
 30 18  1  0  0  0  0
 30 33  1  0  0  0  0
 31 30  1  0  0  0  0
M  END
