Coordinates from ORCA-job 4-NO2-Ph-N2-OTs-B3LYPG-6-31G_dp-MTMO-d009-169-n800
 OpenBabel09051908313D

 33 33  0  0  0  0  0  0  0  0999 V2000
    0.0196    1.1860   -0.0866 C   0  0  0  0  0  0  0  0  0  0  0  0
    0.2163    0.2118   -1.0597 C   0  0  0  0  0  0  0  0  0  0  0  0
    0.5872    0.6029   -2.3503 C   0  0  0  0  0  0  0  0  0  0  0  0
    0.7571    1.9502   -2.6829 C   0  0  0  0  0  0  0  0  0  0  0  0
    0.5536    2.9262   -1.7133 C   0  0  0  0  0  0  0  0  0  0  0  0
    0.1907    2.5275   -0.4276 C   0  0  0  0  0  0  0  0  0  0  0  0
   -0.2692    0.9267    0.9238 H   0  0  0  0  0  0  0  0  0  0  0  0
    0.0908   -0.8396   -0.8334 H   0  0  0  0  0  0  0  0  0  0  0  0
    1.0378    2.2142   -3.6961 H   0  0  0  0  0  0  0  0  0  0  0  0
    0.6717    3.9802   -1.9315 H   0  0  0  0  0  0  0  0  0  0  0  0
   -0.0206    3.5569    0.6013 N   0  0  0  0  0  0  0  0  0  0  0  0
    0.1416    4.7322    0.2736 O   0  0  0  0  0  0  0  0  0  0  0  0
   -0.3449    3.1810    1.7270 O   0  0  0  0  0  0  0  0  0  0  0  0
   13.6736    1.4029   -8.6297 N   0  0  0  0  0  0  0  0  0  0  0  0
   14.6240    1.2025   -9.1573 N   0  0  0  0  0  0  0  0  0  0  0  0
    4.2306    0.1806   -2.9747 C   0  0  0  0  0  0  0  0  0  0  0  0
    5.2664    0.9974   -3.4264 C   0  0  0  0  0  0  0  0  0  0  0  0
    5.4450    1.2557   -4.7925 C   0  0  0  0  0  0  0  0  0  0  0  0
    4.5545    0.6714   -5.7083 C   0  0  0  0  0  0  0  0  0  0  0  0
    3.5143   -0.1476   -5.2805 C   0  0  0  0  0  0  0  0  0  0  0  0
    3.3625   -0.3830   -3.9106 C   0  0  0  0  0  0  0  0  0  0  0  0
    4.1027   -0.0298   -1.9187 H   0  0  0  0  0  0  0  0  0  0  0  0
    5.9481    1.4381   -2.7045 H   0  0  0  0  0  0  0  0  0  0  0  0
    4.6809    0.8590   -6.7712 H   0  0  0  0  0  0  0  0  0  0  0  0
    2.8359   -0.6087   -5.9899 H   0  0  0  0  0  0  0  0  0  0  0  0
    2.0196   -1.4099   -3.3540 S   0  0  0  0  0  0  0  0  0  0  0  0
    0.7213   -0.3333   -3.3659 O   0  0  0  0  0  0  0  0  0  0  0  0
    2.2652   -1.8144   -1.9737 O   0  0  0  0  0  0  0  0  0  0  0  0
    1.6536   -2.3556   -4.3942 O   0  0  0  0  0  0  0  0  0  0  0  0
    6.5847    2.1183   -5.2759 C   0  0  0  0  0  0  0  0  0  0  0  0
    7.4152    1.4992   -5.6368 H   0  0  0  0  0  0  0  0  0  0  0  0
    6.2760    2.7603   -6.1068 H   0  0  0  0  0  0  0  0  0  0  0  0
    6.9726    2.7554   -4.4770 H   0  0  0  0  0  0  0  0  0  0  0  0
  1  7  1  0  0  0  0
  2  8  1  0  0  0  0
  2  1  2  0  0  0  0
  3  2  1  0  0  0  0
  4  3  2  0  0  0  0
  4  5  1  0  0  0  0
  5  6  2  0  0  0  0
  6  1  1  0  0  0  0
  6 11  1  0  0  0  0
  9  4  1  0  0  0  0
 10  5  1  0  0  0  0
 11 13  2  0  0  0  0
 12 11  2  0  0  0  0
 15 14  3  0  0  0  0
 16 22  1  0  0  0  0
 17 16  1  0  0  0  0
 17 23  1  0  0  0  0
 18 17  2  0  0  0  0
 19 20  2  0  0  0  0
 19 18  1  0  0  0  0
 20 21  1  0  0  0  0
 21 26  1  0  0  0  0
 21 16  2  0  0  0  0
 24 19  1  0  0  0  0
 25 20  1  0  0  0  0
 26 28  2  0  0  0  0
 27 26  1  0  0  0  0
 27  3  1  0  0  0  0
 29 26  2  0  0  0  0
 30 18  1  0  0  0  0
 30 33  1  0  0  0  0
 31 30  1  0  0  0  0
 32 30  1  0  0  0  0
M  END
