Coordinates from ORCA-job 4-NO2-Ph-N2-OTs-B3LYPG-6-31G_dp-MTMO-d009-169-n800
 OpenBabel09051908313D

 33 33  0  0  0  0  0  0  0  0999 V2000
   -0.0155    1.2564   -0.6141 C   0  0  0  0  0  0  0  0  0  0  0  0
    0.3553    0.2661   -1.5179 C   0  0  0  0  0  0  0  0  0  0  0  0
    0.9318    0.6376   -2.7372 C   0  0  0  0  0  0  0  0  0  0  0  0
    1.1332    1.9809   -3.0682 C   0  0  0  0  0  0  0  0  0  0  0  0
    0.7543    2.9727   -2.1699 C   0  0  0  0  0  0  0  0  0  0  0  0
    0.1889    2.5938   -0.9530 C   0  0  0  0  0  0  0  0  0  0  0  0
   -0.4637    1.0118    0.3402 H   0  0  0  0  0  0  0  0  0  0  0  0
    0.2095   -0.7822   -1.2906 H   0  0  0  0  0  0  0  0  0  0  0  0
    1.5736    2.2296   -4.0270 H   0  0  0  0  0  0  0  0  0  0  0  0
    0.8902    4.0240   -2.3906 H   0  0  0  0  0  0  0  0  0  0  0  0
   -0.2072    3.6396    0.0017 N   0  0  0  0  0  0  0  0  0  0  0  0
   -0.0139    4.8110   -0.3230 O   0  0  0  0  0  0  0  0  0  0  0  0
   -0.7062    3.2807    1.0676 O   0  0  0  0  0  0  0  0  0  0  0  0
    7.4079    1.4010   -8.6312 N   0  0  0  0  0  0  0  0  0  0  0  0
    7.8152    1.4702   -9.6561 N   0  0  0  0  0  0  0  0  0  0  0  0
    4.6189    0.1629   -2.6380 C   0  0  0  0  0  0  0  0  0  0  0  0
    5.7427    0.9465   -2.8852 C   0  0  0  0  0  0  0  0  0  0  0  0
    6.2035    1.1650   -4.1931 C   0  0  0  0  0  0  0  0  0  0  0  0
    5.5072    0.5749   -5.2583 C   0  0  0  0  0  0  0  0  0  0  0  0
    4.3805   -0.2134   -5.0340 C   0  0  0  0  0  0  0  0  0  0  0  0
    3.9471   -0.4101   -3.7211 C   0  0  0  0  0  0  0  0  0  0  0  0
    4.2727   -0.0183   -1.6268 H   0  0  0  0  0  0  0  0  0  0  0  0
    6.2743    1.3916   -2.0488 H   0  0  0  0  0  0  0  0  0  0  0  0
    5.8559    0.7311   -6.2747 H   0  0  0  0  0  0  0  0  0  0  0  0
    3.8518   -0.6814   -5.8569 H   0  0  0  0  0  0  0  0  0  0  0  0
    2.5033   -1.4081   -3.4277 S   0  0  0  0  0  0  0  0  0  0  0  0
    1.2492   -0.3127   -3.6972 O   0  0  0  0  0  0  0  0  0  0  0  0
    2.4713   -1.8039   -2.0235 O   0  0  0  0  0  0  0  0  0  0  0  0
    2.3273   -2.3590   -4.5120 O   0  0  0  0  0  0  0  0  0  0  0  0
    7.4351    2.0017   -4.4408 C   0  0  0  0  0  0  0  0  0  0  0  0
    7.5821    2.1917   -5.5065 H   0  0  0  0  0  0  0  0  0  0  0  0
    7.3702    2.9661   -3.9271 H   0  0  0  0  0  0  0  0  0  0  0  0
    8.3320    1.4970   -4.0632 H   0  0  0  0  0  0  0  0  0  0  0  0
  1  7  1  0  0  0  0
  2  8  1  0  0  0  0
  2  1  2  0  0  0  0
  3  2  1  0  0  0  0
  4  3  2  0  0  0  0
  4  5  1  0  0  0  0
  5  6  2  0  0  0  0
  6  1  1  0  0  0  0
  6 11  1  0  0  0  0
  9  4  1  0  0  0  0
 10  5  1  0  0  0  0
 11 13  2  0  0  0  0
 12 11  2  0  0  0  0
 15 14  3  0  0  0  0
 16 22  1  0  0  0  0
 17 16  1  0  0  0  0
 17 23  1  0  0  0  0
 18 17  2  0  0  0  0
 19 20  2  0  0  0  0
 19 18  1  0  0  0  0
 20 21  1  0  0  0  0
 21 26  1  0  0  0  0
 21 16  2  0  0  0  0
 24 19  1  0  0  0  0
 25 20  1  0  0  0  0
 26 28  2  0  0  0  0
 27 26  1  0  0  0  0
 27  3  1  0  0  0  0
 29 26  2  0  0  0  0
 30 18  1  0  0  0  0
 30 33  1  0  0  0  0
 30 32  1  0  0  0  0
 31 30  1  0  0  0  0
M  END
