Coordinates from ORCA-job 4-NO2-Ph-N2-OTs-B3LYPG-6-31G_dp-MTMO-d009-169-n800
 OpenBabel09051908313D

 33 33  0  0  0  0  0  0  0  0999 V2000
    0.0166    1.1866   -0.0849 C   0  0  0  0  0  0  0  0  0  0  0  0
    0.2129    0.2123   -1.0580 C   0  0  0  0  0  0  0  0  0  0  0  0
    0.5838    0.6033   -2.3486 C   0  0  0  0  0  0  0  0  0  0  0  0
    0.7542    1.9505   -2.6813 C   0  0  0  0  0  0  0  0  0  0  0  0
    0.5510    2.9266   -1.7118 C   0  0  0  0  0  0  0  0  0  0  0  0
    0.1881    2.5281   -0.4260 C   0  0  0  0  0  0  0  0  0  0  0  0
   -0.2723    0.9275    0.9256 H   0  0  0  0  0  0  0  0  0  0  0  0
    0.0870   -0.8390   -0.8316 H   0  0  0  0  0  0  0  0  0  0  0  0
    1.0349    2.2143   -3.6945 H   0  0  0  0  0  0  0  0  0  0  0  0
    0.6695    3.9805   -1.9300 H   0  0  0  0  0  0  0  0  0  0  0  0
   -0.0227    3.5576    0.6028 N   0  0  0  0  0  0  0  0  0  0  0  0
    0.1398    4.7328    0.2751 O   0  0  0  0  0  0  0  0  0  0  0  0
   -0.3470    3.1819    1.7286 O   0  0  0  0  0  0  0  0  0  0  0  0
   13.7240    1.4077   -8.6545 N   0  0  0  0  0  0  0  0  0  0  0  0
   14.6740    1.2075   -9.1827 N   0  0  0  0  0  0  0  0  0  0  0  0
    4.2271    0.1797   -2.9730 C   0  0  0  0  0  0  0  0  0  0  0  0
    5.2630    0.9962   -3.4248 C   0  0  0  0  0  0  0  0  0  0  0  0
    5.4416    1.2544   -4.7909 C   0  0  0  0  0  0  0  0  0  0  0  0
    4.5509    0.6705   -5.7066 C   0  0  0  0  0  0  0  0  0  0  0  0
    3.5105   -0.1482   -5.2788 C   0  0  0  0  0  0  0  0  0  0  0  0
    3.3586   -0.3836   -3.9090 C   0  0  0  0  0  0  0  0  0  0  0  0
    4.0991   -0.0307   -1.9171 H   0  0  0  0  0  0  0  0  0  0  0  0
    5.9449    1.4366   -2.7029 H   0  0  0  0  0  0  0  0  0  0  0  0
    4.6774    0.8580   -6.7696 H   0  0  0  0  0  0  0  0  0  0  0  0
    2.8319   -0.6092   -5.9882 H   0  0  0  0  0  0  0  0  0  0  0  0
    2.0154   -1.4101   -3.3523 S   0  0  0  0  0  0  0  0  0  0  0  0
    0.7175   -0.3331   -3.3641 O   0  0  0  0  0  0  0  0  0  0  0  0
    2.2610   -1.8146   -1.9720 O   0  0  0  0  0  0  0  0  0  0  0  0
    1.6491   -2.3557   -4.3925 O   0  0  0  0  0  0  0  0  0  0  0  0
    6.5816    2.1167   -5.2743 C   0  0  0  0  0  0  0  0  0  0  0  0
    7.4119    1.4973   -5.6352 H   0  0  0  0  0  0  0  0  0  0  0  0
    6.2732    2.7587   -6.1053 H   0  0  0  0  0  0  0  0  0  0  0  0
    6.9696    2.7538   -4.4755 H   0  0  0  0  0  0  0  0  0  0  0  0
  1  7  1  0  0  0  0
  2  8  1  0  0  0  0
  2  1  2  0  0  0  0
  3  2  1  0  0  0  0
  4  3  2  0  0  0  0
  4  5  1  0  0  0  0
  5  6  2  0  0  0  0
  6  1  1  0  0  0  0
  6 11  1  0  0  0  0
  9  4  1  0  0  0  0
 10  5  1  0  0  0  0
 11 13  2  0  0  0  0
 12 11  2  0  0  0  0
 15 14  3  0  0  0  0
 16 22  1  0  0  0  0
 17 16  1  0  0  0  0
 17 23  1  0  0  0  0
 18 17  2  0  0  0  0
 19 20  2  0  0  0  0
 19 18  1  0  0  0  0
 20 21  1  0  0  0  0
 21 26  1  0  0  0  0
 21 16  2  0  0  0  0
 24 19  1  0  0  0  0
 25 20  1  0  0  0  0
 26 28  2  0  0  0  0
 27 26  1  0  0  0  0
 27  3  1  0  0  0  0
 29 26  2  0  0  0  0
 30 18  1  0  0  0  0
 30 33  1  0  0  0  0
 31 30  1  0  0  0  0
 32 30  1  0  0  0  0
M  END
