Coordinates from ORCA-job 4-NO2-Ph-N2-OTs-B3LYPG-6-31G_dp-MTMO-d009-169-n800
 OpenBabel09051908313D

 33 33  0  0  0  0  0  0  0  0999 V2000
   -0.0610    1.5482   -0.1694 C   0  0  0  0  0  0  0  0  0  0  0  0
    0.0022    0.5464   -1.1324 C   0  0  0  0  0  0  0  0  0  0  0  0
    0.4699    0.8607   -2.4127 C   0  0  0  0  0  0  0  0  0  0  0  0
    0.8644    2.1601   -2.7455 C   0  0  0  0  0  0  0  0  0  0  0  0
    0.7932    3.1649   -1.7867 C   0  0  0  0  0  0  0  0  0  0  0  0
    0.3349    2.8413   -0.5104 C   0  0  0  0  0  0  0  0  0  0  0  0
   -0.4168    1.3479    0.8330 H   0  0  0  0  0  0  0  0  0  0  0  0
   -0.2998   -0.4680   -0.9056 H   0  0  0  0  0  0  0  0  0  0  0  0
    1.2125    2.3669   -3.7511 H   0  0  0  0  0  0  0  0  0  0  0  0
    1.0865    4.1836   -2.0058 H   0  0  0  0  0  0  0  0  0  0  0  0
    0.2645    3.8998    0.5078 N   0  0  0  0  0  0  0  0  0  0  0  0
    0.6147    5.0326    0.1778 O   0  0  0  0  0  0  0  0  0  0  0  0
   -0.1382    3.5886    1.6279 O   0  0  0  0  0  0  0  0  0  0  0  0
   14.2218    3.3421   -9.1612 N   0  0  0  0  0  0  0  0  0  0  0  0
   15.0708    3.4074   -9.8659 N   0  0  0  0  0  0  0  0  0  0  0  0
    3.9929   -0.2109   -2.8560 C   0  0  0  0  0  0  0  0  0  0  0  0
    5.1846    0.3936   -3.2530 C   0  0  0  0  0  0  0  0  0  0  0  0
    5.4876    0.5806   -4.6088 C   0  0  0  0  0  0  0  0  0  0  0  0
    4.5612    0.1446   -5.5703 C   0  0  0  0  0  0  0  0  0  0  0  0
    3.3654   -0.4613   -5.1974 C   0  0  0  0  0  0  0  0  0  0  0  0
    3.0932   -0.6315   -3.8369 C   0  0  0  0  0  0  0  0  0  0  0  0
    3.7665   -0.3681   -1.8074 H   0  0  0  0  0  0  0  0  0  0  0  0
    5.8912    0.7230   -2.4964 H   0  0  0  0  0  0  0  0  0  0  0  0
    4.7826    0.2792   -6.6258 H   0  0  0  0  0  0  0  0  0  0  0  0
    2.6572   -0.8096   -5.9411 H   0  0  0  0  0  0  0  0  0  0  0  0
    1.5577   -1.3885   -3.3507 S   0  0  0  0  0  0  0  0  0  0  0  0
    0.4819   -0.0917   -3.4217 O   0  0  0  0  0  0  0  0  0  0  0  0
    1.6572   -1.8248   -1.9619 O   0  0  0  0  0  0  0  0  0  0  0  0
    1.0746   -2.2558   -4.4114 O   0  0  0  0  0  0  0  0  0  0  0  0
    6.7923    1.2100   -5.0312 C   0  0  0  0  0  0  0  0  0  0  0  0
    7.5297    0.4402   -5.2892 H   0  0  0  0  0  0  0  0  0  0  0  0
    6.6622    1.8434   -5.9138 H   0  0  0  0  0  0  0  0  0  0  0  0
    7.2209    1.8197   -4.2312 H   0  0  0  0  0  0  0  0  0  0  0  0
  1  7  1  0  0  0  0
  2  8  1  0  0  0  0
  2  1  2  0  0  0  0
  3  2  1  0  0  0  0
  4  3  2  0  0  0  0
  4  5  1  0  0  0  0
  5  6  2  0  0  0  0
  6  1  1  0  0  0  0
  6 11  1  0  0  0  0
  9  4  1  0  0  0  0
 10  5  1  0  0  0  0
 11 13  2  0  0  0  0
 12 11  2  0  0  0  0
 15 14  3  0  0  0  0
 16 22  1  0  0  0  0
 17 16  1  0  0  0  0
 17 23  1  0  0  0  0
 18 17  2  0  0  0  0
 19 20  2  0  0  0  0
 19 18  1  0  0  0  0
 20 21  1  0  0  0  0
 21 26  1  0  0  0  0
 21 16  2  0  0  0  0
 24 19  1  0  0  0  0
 25 20  1  0  0  0  0
 26 28  2  0  0  0  0
 27 26  1  0  0  0  0
 27  3  1  0  0  0  0
 29 26  2  0  0  0  0
 30 18  1  0  0  0  0
 30 33  1  0  0  0  0
 31 30  1  0  0  0  0
 32 30  1  0  0  0  0
M  END
