Coordinates from ORCA-job 4-NO2-Ph-N2-OTs-B3LYPG-6-31G_dp-MTMO-d009-169-n800
 OpenBabel09051908313D

 33 33  0  0  0  0  0  0  0  0999 V2000
   -1.8363    0.5897   -2.0874 C   0  0  0  0  0  0  0  0  0  0  0  0
   -1.2050    0.2517   -3.2783 C   0  0  0  0  0  0  0  0  0  0  0  0
   -0.0551    0.9646   -3.6143 C   0  0  0  0  0  0  0  0  0  0  0  0
    0.5096    1.9978   -2.8697 C   0  0  0  0  0  0  0  0  0  0  0  0
   -0.1525    2.3278   -1.6876 C   0  0  0  0  0  0  0  0  0  0  0  0
   -1.2966    1.6227   -1.3214 C   0  0  0  0  0  0  0  0  0  0  0  0
   -2.7288    0.0801   -1.7496 H   0  0  0  0  0  0  0  0  0  0  0  0
   -1.5823   -0.5366   -3.9187 H   0  0  0  0  0  0  0  0  0  0  0  0
    1.4245    2.5025   -3.1792 H   0  0  0  0  0  0  0  0  0  0  0  0
    0.2201    3.1174   -1.0469 H   0  0  0  0  0  0  0  0  0  0  0  0
   -1.9798    1.9860   -0.0577 N   0  0  0  0  0  0  0  0  0  0  0  0
   -1.5019    2.9078    0.5947 O   0  0  0  0  0  0  0  0  0  0  0  0
   -2.9785    1.3384    0.2449 O   0  0  0  0  0  0  0  0  0  0  0  0
    0.5754    0.5821   -4.9214 N   0  0  0  0  0  0  0  0  0  0  0  0
    1.2606    0.4457   -5.8064 N   0  0  0  0  0  0  0  0  0  0  0  0
    6.2751    2.2035   -4.3239 C   0  0  0  0  0  0  0  0  0  0  0  0
    7.6520    1.9986   -4.2749 C   0  0  0  0  0  0  0  0  0  0  0  0
    8.1878    0.7423   -3.9542 C   0  0  0  0  0  0  0  0  0  0  0  0
    7.3029   -0.3072   -3.6707 C   0  0  0  0  0  0  0  0  0  0  0  0
    5.9224   -0.1189   -3.7170 C   0  0  0  0  0  0  0  0  0  0  0  0
    5.4161    1.1387   -4.0454 C   0  0  0  0  0  0  0  0  0  0  0  0
    5.8619    3.1792   -4.5548 H   0  0  0  0  0  0  0  0  0  0  0  0
    8.3230    2.8283   -4.4832 H   0  0  0  0  0  0  0  0  0  0  0  0
    7.7004   -1.2831   -3.4031 H   0  0  0  0  0  0  0  0  0  0  0  0
    5.2377   -0.9257   -3.4800 H   0  0  0  0  0  0  0  0  0  0  0  0
    3.6456    1.3794   -4.1413 S   0  0  0  0  0  0  0  0  0  0  0  0
    3.2889    1.0999   -5.5997 O   0  0  0  0  0  0  0  0  0  0  0  0
    3.3803    2.7953   -3.7717 O   0  0  0  0  0  0  0  0  0  0  0  0
    2.9986    0.3822   -3.2482 O   0  0  0  0  0  0  0  0  0  0  0  0
    9.6821    0.5242   -3.9333 C   0  0  0  0  0  0  0  0  0  0  0  0
   10.0638    0.3128   -4.9400 H   0  0  0  0  0  0  0  0  0  0  0  0
   10.2113    1.4095   -3.5674 H   0  0  0  0  0  0  0  0  0  0  0  0
    9.9549   -0.3224   -3.2964 H   0  0  0  0  0  0  0  0  0  0  0  0
  1  7  1  0  0  0  0
  1  6  2  0  0  0  0
  2  1  1  0  0  0  0
  3  2  2  0  0  0  0
  3  4  1  0  0  0  0
  4  5  2  0  0  0  0
  5  6  1  0  0  0  0
  5 10  1  0  0  0  0
  6 11  1  0  0  0  0
  8  2  1  0  0  0  0
  9  4  1  0  0  0  0
 11 13  2  0  0  0  0
 11 12  2  0  0  0  0
 14  3  1  0  0  0  0
 15 14  1  0  0  0  0
 16 17  2  0  0  0  0
 16 21  1  0  0  0  0
 17 18  1  0  0  0  0
 18 30  1  0  0  0  0
 18 19  2  0  0  0  0
 19 24  1  0  0  0  0
 20 19  1  0  0  0  0
 20 25  1  0  0  0  0
 21 20  2  0  0  0  0
 22 16  1  0  0  0  0
 23 17  1  0  0  0  0
 26 21  1  0  0  0  0
 26 28  2  0  0  0  0
 26 29  1  0  0  0  0
 27 26  2  0  0  0  0
 30 32  1  0  0  0  0
 30 33  1  0  0  0  0
 31 30  1  0  0  0  0
M  RAD  3  14   2  15   3  29   2
M  END
