Coordinates from ORCA-job 4-NO2-Ph-N2-OTs-B3LYPG-6-31G_dp-MTMO-d009-169-n800
 OpenBabel09051908313D

 33 33  0  0  0  0  0  0  0  0999 V2000
    0.0038    1.2185   -0.4702 C   0  0  0  0  0  0  0  0  0  0  0  0
    0.3422    0.2409   -1.4001 C   0  0  0  0  0  0  0  0  0  0  0  0
    0.8711    0.6295   -2.6355 C   0  0  0  0  0  0  0  0  0  0  0  0
    1.0569    1.9776   -2.9565 C   0  0  0  0  0  0  0  0  0  0  0  0
    0.7105    2.9567   -2.0315 C   0  0  0  0  0  0  0  0  0  0  0  0
    0.1926    2.5606   -0.7991 C   0  0  0  0  0  0  0  0  0  0  0  0
   -0.4075    0.9605    0.4972 H   0  0  0  0  0  0  0  0  0  0  0  0
    0.2072   -0.8106   -1.1808 H   0  0  0  0  0  0  0  0  0  0  0  0
    1.4604    2.2396   -3.9279 H   0  0  0  0  0  0  0  0  0  0  0  0
    0.8358    4.0111   -2.2434 H   0  0  0  0  0  0  0  0  0  0  0  0
   -0.1687    3.5931    0.1838 N   0  0  0  0  0  0  0  0  0  0  0  0
    0.0110    4.7690   -0.1323 O   0  0  0  0  0  0  0  0  0  0  0  0
   -0.6268    3.2191    1.2627 O   0  0  0  0  0  0  0  0  0  0  0  0
    8.4596    1.3008   -8.4949 N   0  0  0  0  0  0  0  0  0  0  0  0
    9.1850    1.2409   -9.3264 N   0  0  0  0  0  0  0  0  0  0  0  0
    4.5559    0.2167   -2.7480 C   0  0  0  0  0  0  0  0  0  0  0  0
    5.6588    1.0077   -3.0585 C   0  0  0  0  0  0  0  0  0  0  0  0
    6.0618    1.2039   -4.3888 C   0  0  0  0  0  0  0  0  0  0  0  0
    5.3330    0.5763   -5.4100 C   0  0  0  0  0  0  0  0  0  0  0  0
    4.2255   -0.2183   -5.1229 C   0  0  0  0  0  0  0  0  0  0  0  0
    3.8468   -0.3877   -3.7893 C   0  0  0  0  0  0  0  0  0  0  0  0
    4.2569    0.0508   -1.7190 H   0  0  0  0  0  0  0  0  0  0  0  0
    6.2207    1.4746   -2.2544 H   0  0  0  0  0  0  0  0  0  0  0  0
    5.6434    0.7050   -6.4430 H   0  0  0  0  0  0  0  0  0  0  0  0
    3.6723   -0.7151   -5.9122 H   0  0  0  0  0  0  0  0  0  0  0  0
    2.4284   -1.3949   -3.4141 S   0  0  0  0  0  0  0  0  0  0  0  0
    1.1541   -0.3082   -3.6184 O   0  0  0  0  0  0  0  0  0  0  0  0
    2.4751   -1.7846   -2.0086 O   0  0  0  0  0  0  0  0  0  0  0  0
    2.2015   -2.3512   -4.4840 O   0  0  0  0  0  0  0  0  0  0  0  0
    7.2472    2.0806   -4.7098 C   0  0  0  0  0  0  0  0  0  0  0  0
    7.5925    1.9275   -5.7351 H   0  0  0  0  0  0  0  0  0  0  0  0
    6.9877    3.1411   -4.6015 H   0  0  0  0  0  0  0  0  0  0  0  0
    8.0835    1.8831   -4.0318 H   0  0  0  0  0  0  0  0  0  0  0  0
  1  7  1  0  0  0  0
  2  8  1  0  0  0  0
  2  1  2  0  0  0  0
  3  2  1  0  0  0  0
  4  3  2  0  0  0  0
  4  5  1  0  0  0  0
  5  6  2  0  0  0  0
  6  1  1  0  0  0  0
  6 11  1  0  0  0  0
  9  4  1  0  0  0  0
 10  5  1  0  0  0  0
 11 13  2  0  0  0  0
 12 11  2  0  0  0  0
 15 14  3  0  0  0  0
 16 22  1  0  0  0  0
 17 16  1  0  0  0  0
 17 23  1  0  0  0  0
 18 17  2  0  0  0  0
 19 20  2  0  0  0  0
 19 18  1  0  0  0  0
 20 21  1  0  0  0  0
 21 26  1  0  0  0  0
 21 16  2  0  0  0  0
 24 19  1  0  0  0  0
 25 20  1  0  0  0  0
 26 28  2  0  0  0  0
 27 26  1  0  0  0  0
 27  3  1  0  0  0  0
 29 26  2  0  0  0  0
 30 32  1  0  0  0  0
 30 18  1  0  0  0  0
 30 33  1  0  0  0  0
 31 30  1  0  0  0  0
M  END
