Coordinates from ORCA-job 4-NO2-Ph-N2-OTs-B3LYPG-6-31G_dp-MTMO-d009-169-n800
 OpenBabel09051908313D

 33 33  0  0  0  0  0  0  0  0999 V2000
   -0.0813    0.9271   -1.1014 C   0  0  0  0  0  0  0  0  0  0  0  0
    0.4110    0.2058   -2.1842 C   0  0  0  0  0  0  0  0  0  0  0  0
    1.1641    0.8693   -3.1584 C   0  0  0  0  0  0  0  0  0  0  0  0
    1.4230    2.2405   -3.0713 C   0  0  0  0  0  0  0  0  0  0  0  0
    0.9253    2.9647   -1.9932 C   0  0  0  0  0  0  0  0  0  0  0  0
    0.1835    2.2942   -1.0216 C   0  0  0  0  0  0  0  0  0  0  0  0
   -0.6681    0.4526   -0.3248 H   0  0  0  0  0  0  0  0  0  0  0  0
    0.2244   -0.8562   -2.2814 H   0  0  0  0  0  0  0  0  0  0  0  0
    2.0022    2.7206   -3.8521 H   0  0  0  0  0  0  0  0  0  0  0  0
    1.1027    4.0276   -1.8896 H   0  0  0  0  0  0  0  0  0  0  0  0
   -0.3375    3.0553    0.1237 N   0  0  0  0  0  0  0  0  0  0  0  0
   -0.0829    4.2587    0.1712 O   0  0  0  0  0  0  0  0  0  0  0  0
   -0.9934    2.4429    0.9652 O   0  0  0  0  0  0  0  0  0  0  0  0
    4.3826   -1.4707   -8.3827 N   0  0  0  0  0  0  0  0  0  0  0  0
    3.8900   -2.3619   -8.8117 N   0  0  0  0  0  0  0  0  0  0  0  0
    4.7752    0.3965   -2.7360 C   0  0  0  0  0  0  0  0  0  0  0  0
    5.9013    1.2103   -2.6355 C   0  0  0  0  0  0  0  0  0  0  0  0
    6.5544    1.6913   -3.7798 C   0  0  0  0  0  0  0  0  0  0  0  0
    6.0497    1.3353   -5.0400 C   0  0  0  0  0  0  0  0  0  0  0  0
    4.9244    0.5252   -5.1657 C   0  0  0  0  0  0  0  0  0  0  0  0
    4.2962    0.0650   -4.0055 C   0  0  0  0  0  0  0  0  0  0  0  0
    4.2822    0.0119   -1.8505 H   0  0  0  0  0  0  0  0  0  0  0  0
    6.2805    1.4733   -1.6520 H   0  0  0  0  0  0  0  0  0  0  0  0
    6.5475    1.6946   -5.9362 H   0  0  0  0  0  0  0  0  0  0  0  0
    4.5477    0.2387   -6.1412 H   0  0  0  0  0  0  0  0  0  0  0  0
    2.8422   -0.9500   -4.1534 S   0  0  0  0  0  0  0  0  0  0  0  0
    1.6144    0.2001   -4.2884 O   0  0  0  0  0  0  0  0  0  0  0  0
    2.6405   -1.6861   -2.9098 O   0  0  0  0  0  0  0  0  0  0  0  0
    2.8166   -1.5946   -5.4557 O   0  0  0  0  0  0  0  0  0  0  0  0
    7.7923    2.5454   -3.6594 C   0  0  0  0  0  0  0  0  0  0  0  0
    7.9009    3.2165   -4.5161 H   0  0  0  0  0  0  0  0  0  0  0  0
    7.7744    3.1507   -2.7487 H   0  0  0  0  0  0  0  0  0  0  0  0
    8.6926    1.9203   -3.6181 H   0  0  0  0  0  0  0  0  0  0  0  0
  1  6  1  0  0  0  0
  1  7  1  0  0  0  0
  2  1  2  0  0  0  0
  3  4  2  0  0  0  0
  3  2  1  0  0  0  0
  4  5  1  0  0  0  0
  5 10  1  0  0  0  0
  5  6  2  0  0  0  0
  6 11  1  0  0  0  0
  8  2  1  0  0  0  0
  9  4  1  0  0  0  0
 11 12  2  0  0  0  0
 11 13  2  0  0  0  0
 15 14  3  0  0  0  0
 16 17  1  0  0  0  0
 16 22  1  0  0  0  0
 17 23  1  0  0  0  0
 18 30  1  0  0  0  0
 18 17  2  0  0  0  0
 19 18  1  0  0  0  0
 20 19  2  0  0  0  0
 20 21  1  0  0  0  0
 21 16  2  0  0  0  0
 24 19  1  0  0  0  0
 25 20  1  0  0  0  0
 26 21  1  0  0  0  0
 26 28  2  0  0  0  0
 27 26  1  0  0  0  0
 27  3  1  0  0  0  0
 29 26  2  0  0  0  0
 30 33  1  0  0  0  0
 30 32  1  0  0  0  0
 31 30  1  0  0  0  0
M  END
