Coordinates from ORCA-job 4-NO2-Ph-N2-OTs-B3LYPG-6-31G_dp-MTMO-d009-169-n800
 OpenBabel09051908313D

 33 33  0  0  0  0  0  0  0  0999 V2000
    0.0999    1.1744   -0.1337 C   0  0  0  0  0  0  0  0  0  0  0  0
    0.3059    0.2027   -1.1074 C   0  0  0  0  0  0  0  0  0  0  0  0
    0.6757    0.5980   -2.3970 C   0  0  0  0  0  0  0  0  0  0  0  0
    0.8351    1.9469   -2.7282 C   0  0  0  0  0  0  0  0  0  0  0  0
    0.6221    2.9204   -1.7581 C   0  0  0  0  0  0  0  0  0  0  0  0
    0.2606    2.5176   -0.4732 C   0  0  0  0  0  0  0  0  0  0  0  0
   -0.1883    0.9118    0.8761 H   0  0  0  0  0  0  0  0  0  0  0  0
    0.1885   -0.8499   -0.8822 H   0  0  0  0  0  0  0  0  0  0  0  0
    1.1151    2.2142   -3.7407 H   0  0  0  0  0  0  0  0  0  0  0  0
    0.7319    3.9755   -1.9751 H   0  0  0  0  0  0  0  0  0  0  0  0
    0.0394    3.5443    0.5562 N   0  0  0  0  0  0  0  0  0  0  0  0
    0.1923    4.7212    0.2298 O   0  0  0  0  0  0  0  0  0  0  0  0
   -0.2834    3.1648    1.6812 O   0  0  0  0  0  0  0  0  0  0  0  0
   12.3218    1.3085   -7.9807 N   0  0  0  0  0  0  0  0  0  0  0  0
   13.2821    1.1000   -8.4866 N   0  0  0  0  0  0  0  0  0  0  0  0
    4.3245    0.1979   -3.0149 C   0  0  0  0  0  0  0  0  0  0  0  0
    5.3572    1.0198   -3.4643 C   0  0  0  0  0  0  0  0  0  0  0  0
    5.5378    1.2789   -4.8299 C   0  0  0  0  0  0  0  0  0  0  0  0
    4.6524    0.6901   -5.7478 C   0  0  0  0  0  0  0  0  0  0  0  0
    3.6154   -0.1341   -5.3225 C   0  0  0  0  0  0  0  0  0  0  0  0
    3.4615   -0.3702   -3.9529 C   0  0  0  0  0  0  0  0  0  0  0  0
    4.1952   -0.0133   -1.9593 H   0  0  0  0  0  0  0  0  0  0  0  0
    6.0350    1.4640   -2.7408 H   0  0  0  0  0  0  0  0  0  0  0  0
    4.7805    0.8782   -6.8105 H   0  0  0  0  0  0  0  0  0  0  0  0
    2.9411   -0.5988   -6.0335 H   0  0  0  0  0  0  0  0  0  0  0  0
    2.1233   -1.4050   -3.3995 S   0  0  0  0  0  0  0  0  0  0  0  0
    0.8187   -0.3360   -3.4135 O   0  0  0  0  0  0  0  0  0  0  0  0
    2.3685   -1.8088   -2.0190 O   0  0  0  0  0  0  0  0  0  0  0  0
    1.7649   -2.3523   -4.4409 O   0  0  0  0  0  0  0  0  0  0  0  0
    6.6742    2.1472   -5.3109 C   0  0  0  0  0  0  0  0  0  0  0  0
    7.5048    1.5325   -5.6791 H   0  0  0  0  0  0  0  0  0  0  0  0
    6.3614    2.7942   -6.1365 H   0  0  0  0  0  0  0  0  0  0  0  0
    7.0632    2.7798   -4.5090 H   0  0  0  0  0  0  0  0  0  0  0  0
  1  7  1  0  0  0  0
  2  8  1  0  0  0  0
  2  1  2  0  0  0  0
  3  2  1  0  0  0  0
  4  3  2  0  0  0  0
  4  5  1  0  0  0  0
  5  6  2  0  0  0  0
  6  1  1  0  0  0  0
  6 11  1  0  0  0  0
  9  4  1  0  0  0  0
 10  5  1  0  0  0  0
 11 13  2  0  0  0  0
 12 11  2  0  0  0  0
 15 14  3  0  0  0  0
 16 22  1  0  0  0  0
 17 16  1  0  0  0  0
 17 23  1  0  0  0  0
 18 17  2  0  0  0  0
 19 20  2  0  0  0  0
 19 18  1  0  0  0  0
 20 21  1  0  0  0  0
 21 26  1  0  0  0  0
 21 16  2  0  0  0  0
 24 19  1  0  0  0  0
 25 20  1  0  0  0  0
 26 28  2  0  0  0  0
 27 26  1  0  0  0  0
 27  3  1  0  0  0  0
 29 26  2  0  0  0  0
 30 18  1  0  0  0  0
 30 33  1  0  0  0  0
 31 30  1  0  0  0  0
 32 30  1  0  0  0  0
M  END
