Coordinates from ORCA-job 4-NO2-Ph-N2-OTs-B3LYPG-6-31G_dp-MTMO-d009-169-n800
 OpenBabel09051908313D

 33 33  0  0  0  0  0  0  0  0999 V2000
    0.1694    1.1473   -0.1816 C   0  0  0  0  0  0  0  0  0  0  0  0
    0.4061    0.1905   -1.1630 C   0  0  0  0  0  0  0  0  0  0  0  0
    0.7819    0.6072   -2.4442 C   0  0  0  0  0  0  0  0  0  0  0  0
    0.9169    1.9627   -2.7593 C   0  0  0  0  0  0  0  0  0  0  0  0
    0.6727    2.9210   -1.7815 C   0  0  0  0  0  0  0  0  0  0  0  0
    0.3056    2.4971   -0.5051 C   0  0  0  0  0  0  0  0  0  0  0  0
   -0.1243    0.8679    0.8221 H   0  0  0  0  0  0  0  0  0  0  0  0
    0.3082   -0.8665   -0.9497 H   0  0  0  0  0  0  0  0  0  0  0  0
    1.2018    2.2466   -3.7658 H   0  0  0  0  0  0  0  0  0  0  0  0
    0.7626    3.9805   -1.9865 H   0  0  0  0  0  0  0  0  0  0  0  0
    0.0517    3.5079    0.5326 N   0  0  0  0  0  0  0  0  0  0  0  0
    0.1830    4.6912    0.2202 O   0  0  0  0  0  0  0  0  0  0  0  0
   -0.2749    3.1096    1.6499 O   0  0  0  0  0  0  0  0  0  0  0  0
   10.6363    1.1149   -7.1973 N   0  0  0  0  0  0  0  0  0  0  0  0
   11.6278    0.9380   -7.6523 N   0  0  0  0  0  0  0  0  0  0  0  0
    4.4613    0.2474   -3.0765 C   0  0  0  0  0  0  0  0  0  0  0  0
    5.4956    1.0636   -3.5331 C   0  0  0  0  0  0  0  0  0  0  0  0
    5.6815    1.3050   -4.9012 C   0  0  0  0  0  0  0  0  0  0  0  0
    4.7984    0.7047   -5.8142 C   0  0  0  0  0  0  0  0  0  0  0  0
    3.7601   -0.1139   -5.3818 C   0  0  0  0  0  0  0  0  0  0  0  0
    3.6014   -0.3329   -4.0099 C   0  0  0  0  0  0  0  0  0  0  0  0
    4.3294    0.0490   -2.0187 H   0  0  0  0  0  0  0  0  0  0  0  0
    6.1711    1.5167   -2.8130 H   0  0  0  0  0  0  0  0  0  0  0  0
    4.9301    0.8790   -6.8788 H   0  0  0  0  0  0  0  0  0  0  0  0
    3.0887   -0.5883   -6.0892 H   0  0  0  0  0  0  0  0  0  0  0  0
    2.2684   -1.3703   -3.4485 S   0  0  0  0  0  0  0  0  0  0  0  0
    0.9553   -0.3113   -3.4700 O   0  0  0  0  0  0  0  0  0  0  0  0
    2.5160   -1.7629   -2.0651 O   0  0  0  0  0  0  0  0  0  0  0  0
    1.9173   -2.3274   -4.4834 O   0  0  0  0  0  0  0  0  0  0  0  0
    6.8183    2.1686   -5.3901 C   0  0  0  0  0  0  0  0  0  0  0  0
    7.6429    1.5541   -5.7716 H   0  0  0  0  0  0  0  0  0  0  0  0
    6.4992    2.8221   -6.2084 H   0  0  0  0  0  0  0  0  0  0  0  0
    7.2183    2.7956   -4.5892 H   0  0  0  0  0  0  0  0  0  0  0  0
  1  7  1  0  0  0  0
  2  8  1  0  0  0  0
  2  1  2  0  0  0  0
  3  2  1  0  0  0  0
  4  3  2  0  0  0  0
  4  5  1  0  0  0  0
  5  6  2  0  0  0  0
  6  1  1  0  0  0  0
  6 11  1  0  0  0  0
  9  4  1  0  0  0  0
 10  5  1  0  0  0  0
 11 13  2  0  0  0  0
 12 11  2  0  0  0  0
 15 14  3  0  0  0  0
 16 22  1  0  0  0  0
 17 16  1  0  0  0  0
 17 23  1  0  0  0  0
 18 17  2  0  0  0  0
 19 20  2  0  0  0  0
 19 18  1  0  0  0  0
 20 21  1  0  0  0  0
 21 26  1  0  0  0  0
 21 16  2  0  0  0  0
 24 19  1  0  0  0  0
 25 20  1  0  0  0  0
 26 28  2  0  0  0  0
 27 26  1  0  0  0  0
 27  3  1  0  0  0  0
 29 26  2  0  0  0  0
 30 18  1  0  0  0  0
 30 33  1  0  0  0  0
 31 30  1  0  0  0  0
 32 30  1  0  0  0  0
M  END
