Coordinates from ORCA-job 4-NO2-Ph-N2-OTs-B3LYPG-6-31G_dp-MTMO-d009-169-n800
 OpenBabel09051908313D

 33 33  0  0  0  0  0  0  0  0999 V2000
   -0.1139    1.1229   -0.8149 C   0  0  0  0  0  0  0  0  0  0  0  0
    0.3235    0.2485   -1.8044 C   0  0  0  0  0  0  0  0  0  0  0  0
    1.0171    0.7589   -2.9069 C   0  0  0  0  0  0  0  0  0  0  0  0
    1.2723    2.1274   -3.0372 C   0  0  0  0  0  0  0  0  0  0  0  0
    0.8287    3.0041   -2.0528 C   0  0  0  0  0  0  0  0  0  0  0  0
    0.1447    2.4864   -0.9535 C   0  0  0  0  0  0  0  0  0  0  0  0
   -0.6543    0.7693    0.0540 H   0  0  0  0  0  0  0  0  0  0  0  0
    0.1391   -0.8159   -1.7325 H   0  0  0  0  0  0  0  0  0  0  0  0
    1.8043    2.4859   -3.9112 H   0  0  0  0  0  0  0  0  0  0  0  0
    1.0038    4.0707   -2.1185 H   0  0  0  0  0  0  0  0  0  0  0  0
   -0.3215    3.4098    0.0916 N   0  0  0  0  0  0  0  0  0  0  0  0
   -0.0780    4.6073   -0.0554 O   0  0  0  0  0  0  0  0  0  0  0  0
   -0.9250    2.9292    1.0501 O   0  0  0  0  0  0  0  0  0  0  0  0
    6.1434    0.0880   -8.8388 N   0  0  0  0  0  0  0  0  0  0  0  0
    6.3259   -0.3909   -9.8179 N   0  0  0  0  0  0  0  0  0  0  0  0
    4.6849    0.2657   -2.6408 C   0  0  0  0  0  0  0  0  0  0  0  0
    5.8241    1.0630   -2.7336 C   0  0  0  0  0  0  0  0  0  0  0  0
    6.3809    1.3927   -3.9774 C   0  0  0  0  0  0  0  0  0  0  0  0
    5.7660    0.9021   -5.1405 C   0  0  0  0  0  0  0  0  0  0  0  0
    4.6273    0.1053   -5.0716 C   0  0  0  0  0  0  0  0  0  0  0  0
    4.0962   -0.2040   -3.8163 C   0  0  0  0  0  0  0  0  0  0  0  0
    4.2652   -0.0017   -1.6776 H   0  0  0  0  0  0  0  0  0  0  0  0
    6.2897    1.4319   -1.8241 H   0  0  0  0  0  0  0  0  0  0  0  0
    6.1856    1.1407   -6.1134 H   0  0  0  0  0  0  0  0  0  0  0  0
    4.1621   -0.2831   -5.9706 H   0  0  0  0  0  0  0  0  0  0  0  0
    2.6294   -1.2065   -3.7213 S   0  0  0  0  0  0  0  0  0  0  0  0
    1.4042   -0.0694   -3.9506 O   0  0  0  0  0  0  0  0  0  0  0  0
    2.5027   -1.7470   -2.3718 O   0  0  0  0  0  0  0  0  0  0  0  0
    2.5177   -2.0350   -4.9096 O   0  0  0  0  0  0  0  0  0  0  0  0
    7.6328    2.2300   -4.0656 C   0  0  0  0  0  0  0  0  0  0  0  0
    7.6194    2.8775   -4.9473 H   0  0  0  0  0  0  0  0  0  0  0  0
    7.7584    2.8587   -3.1798 H   0  0  0  0  0  0  0  0  0  0  0  0
    8.5217    1.5924   -4.1442 H   0  0  0  0  0  0  0  0  0  0  0  0
  1  7  1  0  0  0  0
  2  8  1  0  0  0  0
  2  1  2  0  0  0  0
  3  2  1  0  0  0  0
  4  3  2  0  0  0  0
  4  5  1  0  0  0  0
  5  6  2  0  0  0  0
  6  1  1  0  0  0  0
  6 11  1  0  0  0  0
  9  4  1  0  0  0  0
 10  5  1  0  0  0  0
 11 13  2  0  0  0  0
 12 11  2  0  0  0  0
 15 14  3  0  0  0  0
 16 22  1  0  0  0  0
 17 16  1  0  0  0  0
 17 23  1  0  0  0  0
 18 17  2  0  0  0  0
 19 20  2  0  0  0  0
 19 18  1  0  0  0  0
 20 21  1  0  0  0  0
 21 26  1  0  0  0  0
 21 16  2  0  0  0  0
 24 19  1  0  0  0  0
 25 20  1  0  0  0  0
 26 28  2  0  0  0  0
 27 26  1  0  0  0  0
 27  3  1  0  0  0  0
 29 26  2  0  0  0  0
 30 18  1  0  0  0  0
 30 32  1  0  0  0  0
 31 30  1  0  0  0  0
 33 30  1  0  0  0  0
M  END
