Coordinates from ORCA-job 4-NO2-Ph-N2-OTs-B3LYPG-6-31G_dp-MTMO-d009-169-n800
 OpenBabel09051908313D

 33 33  0  0  0  0  0  0  0  0999 V2000
    0.1420    1.1675   -0.1646 C   0  0  0  0  0  0  0  0  0  0  0  0
    0.3576    0.1996   -1.1400 C   0  0  0  0  0  0  0  0  0  0  0  0
    0.7327    0.6005   -2.4264 C   0  0  0  0  0  0  0  0  0  0  0  0
    0.8881    1.9511   -2.7526 C   0  0  0  0  0  0  0  0  0  0  0  0
    0.6655    2.9207   -1.7808 C   0  0  0  0  0  0  0  0  0  0  0  0
    0.2987    2.5124   -0.4992 C   0  0  0  0  0  0  0  0  0  0  0  0
   -0.1506    0.9006    0.8428 H   0  0  0  0  0  0  0  0  0  0  0  0
    0.2436   -0.8540   -0.9185 H   0  0  0  0  0  0  0  0  0  0  0  0
    1.1723    2.2226   -3.7628 H   0  0  0  0  0  0  0  0  0  0  0  0
    0.7718    3.9769   -1.9941 H   0  0  0  0  0  0  0  0  0  0  0  0
    0.0675    3.5350    0.5322 N   0  0  0  0  0  0  0  0  0  0  0  0
    0.2171    4.7135    0.2102 O   0  0  0  0  0  0  0  0  0  0  0  0
   -0.2598    3.1507    1.6542 O   0  0  0  0  0  0  0  0  0  0  0  0
   11.4142    1.2514   -7.5710 N   0  0  0  0  0  0  0  0  0  0  0  0
   12.3964    1.0606   -8.0405 N   0  0  0  0  0  0  0  0  0  0  0  0
    4.3904    0.2106   -3.0425 C   0  0  0  0  0  0  0  0  0  0  0  0
    5.4239    1.0314   -3.4924 C   0  0  0  0  0  0  0  0  0  0  0  0
    5.6075    1.2859   -4.8584 C   0  0  0  0  0  0  0  0  0  0  0  0
    4.7240    0.6939   -5.7762 C   0  0  0  0  0  0  0  0  0  0  0  0
    3.6864   -0.1291   -5.3504 C   0  0  0  0  0  0  0  0  0  0  0  0
    3.5295   -0.3608   -3.9804 C   0  0  0  0  0  0  0  0  0  0  0  0
    4.2590    0.0027   -1.9864 H   0  0  0  0  0  0  0  0  0  0  0  0
    6.1001    1.4780   -2.7689 H   0  0  0  0  0  0  0  0  0  0  0  0
    4.8544    0.8785   -6.8392 H   0  0  0  0  0  0  0  0  0  0  0  0
    3.0138   -0.5965   -6.0613 H   0  0  0  0  0  0  0  0  0  0  0  0
    2.1919   -1.3961   -3.4266 S   0  0  0  0  0  0  0  0  0  0  0  0
    0.8854   -0.3294   -3.4452 O   0  0  0  0  0  0  0  0  0  0  0  0
    2.4354   -1.7966   -2.0448 O   0  0  0  0  0  0  0  0  0  0  0  0
    1.8369   -2.3466   -4.4663 O   0  0  0  0  0  0  0  0  0  0  0  0
    6.7441    2.1536   -5.3403 C   0  0  0  0  0  0  0  0  0  0  0  0
    7.5703    1.5393   -5.7186 H   0  0  0  0  0  0  0  0  0  0  0  0
    6.4282    2.8077   -6.1591 H   0  0  0  0  0  0  0  0  0  0  0  0
    7.1402    2.7792   -4.5364 H   0  0  0  0  0  0  0  0  0  0  0  0
  1  7  1  0  0  0  0
  2  8  1  0  0  0  0
  2  1  2  0  0  0  0
  3  2  1  0  0  0  0
  4  3  2  0  0  0  0
  4  5  1  0  0  0  0
  5  6  2  0  0  0  0
  6  1  1  0  0  0  0
  6 11  1  0  0  0  0
  9  4  1  0  0  0  0
 10  5  1  0  0  0  0
 11 13  2  0  0  0  0
 12 11  2  0  0  0  0
 15 14  3  0  0  0  0
 16 22  1  0  0  0  0
 17 16  1  0  0  0  0
 17 23  1  0  0  0  0
 18 17  2  0  0  0  0
 19 20  2  0  0  0  0
 19 18  1  0  0  0  0
 20 21  1  0  0  0  0
 21 26  1  0  0  0  0
 21 16  2  0  0  0  0
 24 19  1  0  0  0  0
 25 20  1  0  0  0  0
 26 28  2  0  0  0  0
 27 26  1  0  0  0  0
 27  3  1  0  0  0  0
 29 26  2  0  0  0  0
 30 18  1  0  0  0  0
 30 33  1  0  0  0  0
 31 30  1  0  0  0  0
 32 30  1  0  0  0  0
M  END
