Coordinates from ORCA-job 4-NO2-Ph-N2-OTs-B3LYPG-6-31G_dp-MTMO-d009-169-n800
 OpenBabel09051908313D

 33 33  0  0  0  0  0  0  0  0999 V2000
    0.1989    1.1298   -0.1845 C   0  0  0  0  0  0  0  0  0  0  0  0
    0.4413    0.1742   -1.1657 C   0  0  0  0  0  0  0  0  0  0  0  0
    0.8016    0.5934   -2.4506 C   0  0  0  0  0  0  0  0  0  0  0  0
    0.9153    1.9500   -2.7694 C   0  0  0  0  0  0  0  0  0  0  0  0
    0.6652    2.9069   -1.7918 C   0  0  0  0  0  0  0  0  0  0  0  0
    0.3138    2.4807   -0.5117 C   0  0  0  0  0  0  0  0  0  0  0  0
   -0.0833    0.8486    0.8219 H   0  0  0  0  0  0  0  0  0  0  0  0
    0.3597   -0.8835   -0.9496 H   0  0  0  0  0  0  0  0  0  0  0  0
    1.1885    2.2358   -3.7787 H   0  0  0  0  0  0  0  0  0  0  0  0
    0.7385    3.9671   -1.9997 H   0  0  0  0  0  0  0  0  0  0  0  0
    0.0537    3.4900    0.5258 N   0  0  0  0  0  0  0  0  0  0  0  0
    0.1651    4.6744    0.2098 O   0  0  0  0  0  0  0  0  0  0  0  0
   -0.2579    3.0896    1.6466 O   0  0  0  0  0  0  0  0  0  0  0  0
   10.4539    0.9381   -7.0838 N   0  0  0  0  0  0  0  0  0  0  0  0
   11.4456    0.7287   -7.5244 N   0  0  0  0  0  0  0  0  0  0  0  0
    4.4812    0.2704   -3.0862 C   0  0  0  0  0  0  0  0  0  0  0  0
    5.5044    1.1013   -3.5412 C   0  0  0  0  0  0  0  0  0  0  0  0
    5.6827    1.3534   -4.9085 C   0  0  0  0  0  0  0  0  0  0  0  0
    4.8034    0.7487   -5.8222 C   0  0  0  0  0  0  0  0  0  0  0  0
    3.7760   -0.0846   -5.3914 C   0  0  0  0  0  0  0  0  0  0  0  0
    3.6248   -0.3138   -4.0203 C   0  0  0  0  0  0  0  0  0  0  0  0
    4.3550    0.0641   -2.0292 H   0  0  0  0  0  0  0  0  0  0  0  0
    6.1772    1.5577   -2.8207 H   0  0  0  0  0  0  0  0  0  0  0  0
    4.9292    0.9312   -6.8861 H   0  0  0  0  0  0  0  0  0  0  0  0
    3.1075   -0.5622   -6.0993 H   0  0  0  0  0  0  0  0  0  0  0  0
    2.3049   -1.3687   -3.4606 S   0  0  0  0  0  0  0  0  0  0  0  0
    0.9800   -0.3245   -3.4761 O   0  0  0  0  0  0  0  0  0  0  0  0
    2.5595   -1.7638   -2.0792 O   0  0  0  0  0  0  0  0  0  0  0  0
    1.9624   -2.3261   -4.4981 O   0  0  0  0  0  0  0  0  0  0  0  0
    6.8083    2.2325   -5.3956 C   0  0  0  0  0  0  0  0  0  0  0  0
    7.6434    1.6288   -5.7716 H   0  0  0  0  0  0  0  0  0  0  0  0
    6.4829    2.8786   -6.2171 H   0  0  0  0  0  0  0  0  0  0  0  0
    7.1955    2.8677   -4.5949 H   0  0  0  0  0  0  0  0  0  0  0  0
  1  7  1  0  0  0  0
  2  8  1  0  0  0  0
  2  1  2  0  0  0  0
  3  2  1  0  0  0  0
  4  3  2  0  0  0  0
  4  5  1  0  0  0  0
  5  6  2  0  0  0  0
  6  1  1  0  0  0  0
  6 11  1  0  0  0  0
  9  4  1  0  0  0  0
 10  5  1  0  0  0  0
 11 13  2  0  0  0  0
 12 11  2  0  0  0  0
 15 14  3  0  0  0  0
 16 22  1  0  0  0  0
 17 16  1  0  0  0  0
 17 23  1  0  0  0  0
 18 17  2  0  0  0  0
 19 20  2  0  0  0  0
 19 18  1  0  0  0  0
 20 21  1  0  0  0  0
 21 26  1  0  0  0  0
 21 16  2  0  0  0  0
 24 19  1  0  0  0  0
 25 20  1  0  0  0  0
 26 28  2  0  0  0  0
 27 26  1  0  0  0  0
 27  3  1  0  0  0  0
 29 26  2  0  0  0  0
 30 18  1  0  0  0  0
 30 33  1  0  0  0  0
 31 30  1  0  0  0  0
 32 30  1  0  0  0  0
M  END
