Coordinates from ORCA-job 4-NO2-Ph-N2-OTs-B3LYPG-6-31G_dp-MTMO-d009-169-n800
 OpenBabel09051908313D

 33 33  0  0  0  0  0  0  0  0999 V2000
    0.0764    1.1776   -0.1194 C   0  0  0  0  0  0  0  0  0  0  0  0
    0.2795    0.2051   -1.0929 C   0  0  0  0  0  0  0  0  0  0  0  0
    0.6493    0.5992   -2.3829 C   0  0  0  0  0  0  0  0  0  0  0  0
    0.8116    1.9476   -2.7146 C   0  0  0  0  0  0  0  0  0  0  0  0
    0.6014    2.9218   -1.7447 C   0  0  0  0  0  0  0  0  0  0  0  0
    0.2398    2.5203   -0.4595 C   0  0  0  0  0  0  0  0  0  0  0  0
   -0.2118    0.9160    0.8907 H   0  0  0  0  0  0  0  0  0  0  0  0
    0.1599   -0.8471   -0.8672 H   0  0  0  0  0  0  0  0  0  0  0  0
    1.0914    2.2139   -3.7274 H   0  0  0  0  0  0  0  0  0  0  0  0
    0.7135    3.9766   -1.9622 H   0  0  0  0  0  0  0  0  0  0  0  0
    0.0216    3.5478    0.5698 N   0  0  0  0  0  0  0  0  0  0  0  0
    0.1770    4.7243    0.2429 O   0  0  0  0  0  0  0  0  0  0  0  0
   -0.3012    3.1694    1.6951 O   0  0  0  0  0  0  0  0  0  0  0  0
   12.7287    1.3358   -8.1728 N   0  0  0  0  0  0  0  0  0  0  0  0
   13.6844    1.1284   -8.6879 N   0  0  0  0  0  0  0  0  0  0  0  0
    4.2963    0.1930   -3.0031 C   0  0  0  0  0  0  0  0  0  0  0  0
    5.3297    1.0137   -3.4532 C   0  0  0  0  0  0  0  0  0  0  0  0
    5.5095    1.2726   -4.8189 C   0  0  0  0  0  0  0  0  0  0  0  0
    4.6226    0.6851   -5.7361 C   0  0  0  0  0  0  0  0  0  0  0  0
    3.5849   -0.1379   -5.3100 C   0  0  0  0  0  0  0  0  0  0  0  0
    3.4318   -0.3739   -3.9404 C   0  0  0  0  0  0  0  0  0  0  0  0
    4.1676   -0.0180   -1.9474 H   0  0  0  0  0  0  0  0  0  0  0  0
    6.0086    1.4569   -2.7302 H   0  0  0  0  0  0  0  0  0  0  0  0
    4.7501    0.8731   -6.7989 H   0  0  0  0  0  0  0  0  0  0  0  0
    2.9094   -0.6016   -6.0205 H   0  0  0  0  0  0  0  0  0  0  0  0
    2.0925   -1.4066   -3.3859 S   0  0  0  0  0  0  0  0  0  0  0  0
    0.7896   -0.3355   -3.3991 O   0  0  0  0  0  0  0  0  0  0  0  0
    2.3380   -1.8106   -2.0055 O   0  0  0  0  0  0  0  0  0  0  0  0
    1.7318   -2.3535   -4.4270 O   0  0  0  0  0  0  0  0  0  0  0  0
    6.6467    2.1395   -5.3007 C   0  0  0  0  0  0  0  0  0  0  0  0
    7.4777    1.5236   -5.6660 H   0  0  0  0  0  0  0  0  0  0  0  0
    6.3352    2.7844   -6.1283 H   0  0  0  0  0  0  0  0  0  0  0  0
    7.0347    2.7740   -4.4999 H   0  0  0  0  0  0  0  0  0  0  0  0
  1  7  1  0  0  0  0
  2  8  1  0  0  0  0
  2  1  2  0  0  0  0
  3  2  1  0  0  0  0
  4  3  2  0  0  0  0
  4  5  1  0  0  0  0
  5  6  2  0  0  0  0
  6  1  1  0  0  0  0
  6 11  1  0  0  0  0
  9  4  1  0  0  0  0
 10  5  1  0  0  0  0
 11 13  2  0  0  0  0
 12 11  2  0  0  0  0
 15 14  3  0  0  0  0
 16 22  1  0  0  0  0
 17 16  1  0  0  0  0
 17 23  1  0  0  0  0
 18 17  2  0  0  0  0
 19 20  2  0  0  0  0
 19 18  1  0  0  0  0
 20 21  1  0  0  0  0
 21 26  1  0  0  0  0
 21 16  2  0  0  0  0
 24 19  1  0  0  0  0
 25 20  1  0  0  0  0
 26 28  2  0  0  0  0
 27 26  1  0  0  0  0
 27  3  1  0  0  0  0
 29 26  2  0  0  0  0
 30 18  1  0  0  0  0
 30 33  1  0  0  0  0
 31 30  1  0  0  0  0
 32 30  1  0  0  0  0
M  END
