Coordinates from ORCA-job 4-NO2-Ph-N2-OTs-B3LYPG-6-31G_dp-MTMO-d009-169-n800
 OpenBabel09051908313D

 33 33  0  0  0  0  0  0  0  0999 V2000
   -0.0811    1.5455   -0.1621 C   0  0  0  0  0  0  0  0  0  0  0  0
   -0.0176    0.5443   -1.1257 C   0  0  0  0  0  0  0  0  0  0  0  0
    0.4519    0.8591   -2.4052 C   0  0  0  0  0  0  0  0  0  0  0  0
    0.8481    2.1584   -2.7367 C   0  0  0  0  0  0  0  0  0  0  0  0
    0.7766    3.1626   -1.7772 C   0  0  0  0  0  0  0  0  0  0  0  0
    0.3164    2.8385   -0.5017 C   0  0  0  0  0  0  0  0  0  0  0  0
   -0.4382    1.3448    0.8397 H   0  0  0  0  0  0  0  0  0  0  0  0
   -0.3208   -0.4700   -0.9001 H   0  0  0  0  0  0  0  0  0  0  0  0
    1.1975    2.3655   -3.7417 H   0  0  0  0  0  0  0  0  0  0  0  0
    1.0710    4.1812   -1.9953 H   0  0  0  0  0  0  0  0  0  0  0  0
    0.2457    3.8963    0.5171 N   0  0  0  0  0  0  0  0  0  0  0  0
    0.5973    5.0291    0.1884 O   0  0  0  0  0  0  0  0  0  0  0  0
   -0.1586    3.5847    1.6366 O   0  0  0  0  0  0  0  0  0  0  0  0
   14.4925    3.4061   -9.3244 N   0  0  0  0  0  0  0  0  0  0  0  0
   15.3376    3.4626  -10.0344 N   0  0  0  0  0  0  0  0  0  0  0  0
    3.9743   -0.2171   -2.8442 C   0  0  0  0  0  0  0  0  0  0  0  0
    5.1673    0.3863   -3.2389 C   0  0  0  0  0  0  0  0  0  0  0  0
    5.4723    0.5747   -4.5941 C   0  0  0  0  0  0  0  0  0  0  0  0
    4.5466    0.1411   -5.5573 C   0  0  0  0  0  0  0  0  0  0  0  0
    3.3495   -0.4637   -5.1867 C   0  0  0  0  0  0  0  0  0  0  0  0
    3.0753   -0.6352   -3.8267 C   0  0  0  0  0  0  0  0  0  0  0  0
    3.7463   -0.3754   -1.7960 H   0  0  0  0  0  0  0  0  0  0  0  0
    5.8734    0.7138   -2.4810 H   0  0  0  0  0  0  0  0  0  0  0  0
    4.7694    0.2769   -6.6123 H   0  0  0  0  0  0  0  0  0  0  0  0
    2.6417   -0.8101   -5.9317 H   0  0  0  0  0  0  0  0  0  0  0  0
    1.5382   -1.3909   -3.3435 S   0  0  0  0  0  0  0  0  0  0  0  0
    0.4643   -0.0926   -3.4150 O   0  0  0  0  0  0  0  0  0  0  0  0
    1.6352   -1.8286   -1.9549 O   0  0  0  0  0  0  0  0  0  0  0  0
    1.0555   -2.2568   -4.4054 O   0  0  0  0  0  0  0  0  0  0  0  0
    6.7784    1.2029   -5.0139 C   0  0  0  0  0  0  0  0  0  0  0  0
    7.5160    0.4323   -5.2691 H   0  0  0  0  0  0  0  0  0  0  0  0
    6.6510    1.8352   -5.8975 H   0  0  0  0  0  0  0  0  0  0  0  0
    7.2054    1.8132   -4.2135 H   0  0  0  0  0  0  0  0  0  0  0  0
  1  7  1  0  0  0  0
  2  8  1  0  0  0  0
  2  1  2  0  0  0  0
  3  2  1  0  0  0  0
  4  3  2  0  0  0  0
  4  5  1  0  0  0  0
  5  6  2  0  0  0  0
  6  1  1  0  0  0  0
  6 11  1  0  0  0  0
  9  4  1  0  0  0  0
 10  5  1  0  0  0  0
 11 13  2  0  0  0  0
 12 11  2  0  0  0  0
 15 14  3  0  0  0  0
 16 22  1  0  0  0  0
 17 16  1  0  0  0  0
 17 23  1  0  0  0  0
 18 17  2  0  0  0  0
 19 20  2  0  0  0  0
 19 18  1  0  0  0  0
 20 21  1  0  0  0  0
 21 26  1  0  0  0  0
 21 16  2  0  0  0  0
 24 19  1  0  0  0  0
 25 20  1  0  0  0  0
 26 28  2  0  0  0  0
 27 26  1  0  0  0  0
 27  3  1  0  0  0  0
 29 26  2  0  0  0  0
 30 18  1  0  0  0  0
 30 33  1  0  0  0  0
 31 30  1  0  0  0  0
 32 30  1  0  0  0  0
M  END
