Coordinates from ORCA-job 4-NO2-Ph-N2-OTs-B3LYPG-6-31G_dp-MTMO-d009-169-n800
 OpenBabel09051908313D

 33 33  0  0  0  0  0  0  0  0999 V2000
   -0.1408    1.0864   -0.9222 C   0  0  0  0  0  0  0  0  0  0  0  0
    0.3302    0.2398   -1.9203 C   0  0  0  0  0  0  0  0  0  0  0  0
    1.0712    0.7786   -2.9773 C   0  0  0  0  0  0  0  0  0  0  0  0
    1.3417    2.1482   -3.0539 C   0  0  0  0  0  0  0  0  0  0  0  0
    0.8656    2.9974   -2.0605 C   0  0  0  0  0  0  0  0  0  0  0  0
    0.1335    2.4514   -1.0069 C   0  0  0  0  0  0  0  0  0  0  0  0
   -0.7188    0.7108   -0.0873 H   0  0  0  0  0  0  0  0  0  0  0  0
    0.1353   -0.8248   -1.8898 H   0  0  0  0  0  0  0  0  0  0  0  0
    1.9111    2.5294   -3.8941 H   0  0  0  0  0  0  0  0  0  0  0  0
    1.0514    4.0639   -2.0849 H   0  0  0  0  0  0  0  0  0  0  0  0
   -0.3674    3.3453    0.0477 N   0  0  0  0  0  0  0  0  0  0  0  0
   -0.1076    4.5444   -0.0503 O   0  0  0  0  0  0  0  0  0  0  0  0
   -1.0139    2.8402    0.9646 O   0  0  0  0  0  0  0  0  0  0  0  0
    5.4837   -0.2177   -8.7170 N   0  0  0  0  0  0  0  0  0  0  0  0
    5.4224   -0.6736   -9.7217 N   0  0  0  0  0  0  0  0  0  0  0  0
    4.7342    0.2958   -2.6303 C   0  0  0  0  0  0  0  0  0  0  0  0
    5.8735    1.0964   -2.6796 C   0  0  0  0  0  0  0  0  0  0  0  0
    6.4652    1.4440   -3.9025 C   0  0  0  0  0  0  0  0  0  0  0  0
    5.8852    0.9669   -5.0886 C   0  0  0  0  0  0  0  0  0  0  0  0
    4.7470    0.1669   -5.0637 C   0  0  0  0  0  0  0  0  0  0  0  0
    4.1805   -0.1593   -3.8286 C   0  0  0  0  0  0  0  0  0  0  0  0
    4.2876    0.0148   -1.6833 H   0  0  0  0  0  0  0  0  0  0  0  0
    6.3116    1.4544   -1.7522 H   0  0  0  0  0  0  0  0  0  0  0  0
    6.3315    1.2205   -6.0459 H   0  0  0  0  0  0  0  0  0  0  0  0
    4.3113   -0.2100   -5.9819 H   0  0  0  0  0  0  0  0  0  0  0  0
    2.7121   -1.1630   -3.7894 S   0  0  0  0  0  0  0  0  0  0  0  0
    1.4931   -0.0212   -4.0297 O   0  0  0  0  0  0  0  0  0  0  0  0
    2.5497   -1.7270   -2.4534 O   0  0  0  0  0  0  0  0  0  0  0  0
    2.6317   -1.9703   -4.9948 O   0  0  0  0  0  0  0  0  0  0  0  0
    7.7164    2.2859   -3.9429 C   0  0  0  0  0  0  0  0  0  0  0  0
    7.7426    2.9212   -4.8331 H   0  0  0  0  0  0  0  0  0  0  0  0
    7.7971    2.9274   -3.0609 H   0  0  0  0  0  0  0  0  0  0  0  0
    8.6107    1.6515   -3.9696 H   0  0  0  0  0  0  0  0  0  0  0  0
  1  7  1  0  0  0  0
  2  8  1  0  0  0  0
  2  1  2  0  0  0  0
  3  2  1  0  0  0  0
  4  3  2  0  0  0  0
  4  5  1  0  0  0  0
  5  6  2  0  0  0  0
  6  1  1  0  0  0  0
  6 11  1  0  0  0  0
  9  4  1  0  0  0  0
 10  5  1  0  0  0  0
 11 13  2  0  0  0  0
 12 11  2  0  0  0  0
 15 14  3  0  0  0  0
 16 22  1  0  0  0  0
 17 16  1  0  0  0  0
 17 23  1  0  0  0  0
 18 17  2  0  0  0  0
 19 20  2  0  0  0  0
 19 18  1  0  0  0  0
 20 21  1  0  0  0  0
 21 26  1  0  0  0  0
 21 16  2  0  0  0  0
 24 19  1  0  0  0  0
 25 20  1  0  0  0  0
 26 28  2  0  0  0  0
 27 26  1  0  0  0  0
 27  3  1  0  0  0  0
 29 26  2  0  0  0  0
 30 18  1  0  0  0  0
 30 32  1  0  0  0  0
 31 30  1  0  0  0  0
 33 30  1  0  0  0  0
M  END
