Coordinates from ORCA-job 4-NO2-Ph-N2-OTs-B3LYPG-6-31G_dp-MTMO-d009-169-n800
 OpenBabel09051908313D

 33 33  0  0  0  0  0  0  0  0999 V2000
    0.1123    1.1727   -0.1416 C   0  0  0  0  0  0  0  0  0  0  0  0
    0.3200    0.2014   -1.1153 C   0  0  0  0  0  0  0  0  0  0  0  0
    0.6899    0.5975   -2.4047 C   0  0  0  0  0  0  0  0  0  0  0  0
    0.8480    1.9467   -2.7355 C   0  0  0  0  0  0  0  0  0  0  0  0
    0.6334    2.9196   -1.7652 C   0  0  0  0  0  0  0  0  0  0  0  0
    0.2716    2.5161   -0.4807 C   0  0  0  0  0  0  0  0  0  0  0  0
   -0.1761    0.9096    0.8680 H   0  0  0  0  0  0  0  0  0  0  0  0
    0.2037   -0.8513   -0.8904 H   0  0  0  0  0  0  0  0  0  0  0  0
    1.1282    2.2145   -3.7478 H   0  0  0  0  0  0  0  0  0  0  0  0
    0.7421    3.9749   -1.9820 H   0  0  0  0  0  0  0  0  0  0  0  0
    0.0487    3.5424    0.5489 N   0  0  0  0  0  0  0  0  0  0  0  0
    0.2004    4.7195    0.2229 O   0  0  0  0  0  0  0  0  0  0  0  0
   -0.2742    3.1622    1.6736 O   0  0  0  0  0  0  0  0  0  0  0  0
   12.1006    1.2933   -7.8784 N   0  0  0  0  0  0  0  0  0  0  0  0
   13.0647    1.0855   -8.3773 N   0  0  0  0  0  0  0  0  0  0  0  0
    4.3398    0.2006   -3.0213 C   0  0  0  0  0  0  0  0  0  0  0  0
    5.3722    1.0232   -3.4702 C   0  0  0  0  0  0  0  0  0  0  0  0
    5.5533    1.2822   -4.8357 C   0  0  0  0  0  0  0  0  0  0  0  0
    4.6687    0.6927   -5.7540 C   0  0  0  0  0  0  0  0  0  0  0  0
    3.6321   -0.1321   -5.3291 C   0  0  0  0  0  0  0  0  0  0  0  0
    3.4777   -0.3682   -3.9596 C   0  0  0  0  0  0  0  0  0  0  0  0
    4.2101   -0.0106   -1.9657 H   0  0  0  0  0  0  0  0  0  0  0  0
    6.0493    1.4678   -2.7464 H   0  0  0  0  0  0  0  0  0  0  0  0
    4.7973    0.8808   -6.8167 H   0  0  0  0  0  0  0  0  0  0  0  0
    2.9585   -0.5974   -6.0404 H   0  0  0  0  0  0  0  0  0  0  0  0
    2.1400   -1.4040   -3.4068 S   0  0  0  0  0  0  0  0  0  0  0  0
    0.8346   -0.3361   -3.4214 O   0  0  0  0  0  0  0  0  0  0  0  0
    2.3849   -1.8076   -2.0261 O   0  0  0  0  0  0  0  0  0  0  0  0
    1.7828   -2.3516   -4.4483 O   0  0  0  0  0  0  0  0  0  0  0  0
    6.6893    2.1512   -5.3164 C   0  0  0  0  0  0  0  0  0  0  0  0
    7.5194    1.5372   -5.6867 H   0  0  0  0  0  0  0  0  0  0  0  0
    6.3757    2.7999   -6.1404 H   0  0  0  0  0  0  0  0  0  0  0  0
    7.0793    2.7823   -4.5137 H   0  0  0  0  0  0  0  0  0  0  0  0
  1  7  1  0  0  0  0
  2  8  1  0  0  0  0
  2  1  2  0  0  0  0
  3  2  1  0  0  0  0
  4  3  2  0  0  0  0
  4  5  1  0  0  0  0
  5  6  2  0  0  0  0
  6  1  1  0  0  0  0
  6 11  1  0  0  0  0
  9  4  1  0  0  0  0
 10  5  1  0  0  0  0
 11 13  2  0  0  0  0
 12 11  2  0  0  0  0
 15 14  3  0  0  0  0
 16 22  1  0  0  0  0
 17 16  1  0  0  0  0
 17 23  1  0  0  0  0
 18 17  2  0  0  0  0
 19 20  2  0  0  0  0
 19 18  1  0  0  0  0
 20 21  1  0  0  0  0
 21 26  1  0  0  0  0
 21 16  2  0  0  0  0
 24 19  1  0  0  0  0
 25 20  1  0  0  0  0
 26 28  2  0  0  0  0
 27 26  1  0  0  0  0
 27  3  1  0  0  0  0
 29 26  2  0  0  0  0
 30 18  1  0  0  0  0
 30 33  1  0  0  0  0
 31 30  1  0  0  0  0
 32 30  1  0  0  0  0
M  END
