Coordinates from ORCA-job 4-NO2-Ph-N2-OTs-B3LYPG-6-31G_dp-MTMO-d009-169-n800
 OpenBabel09051908313D

 33 32  0  0  0  0  0  0  0  0999 V2000
    0.9409    1.1663   -1.8773 C   0  0  0  0  0  0  0  0  0  0  0  0
    0.8558    0.7016   -3.2071 C   0  0  0  0  0  0  0  0  0  0  0  0
   -0.0695    1.2650   -3.8840 C   0  0  0  0  0  0  0  0  0  0  0  0
   -1.0346    2.2188   -3.6985 C   0  0  0  0  0  0  0  0  0  0  0  0
   -0.9520    2.6863   -2.3781 C   0  0  0  0  0  0  0  0  0  0  0  0
    0.0192    2.1582   -1.5089 C   0  0  0  0  0  0  0  0  0  0  0  0
    1.6640    0.8039   -1.1561 H   0  0  0  0  0  0  0  0  0  0  0  0
    2.0914   -0.5315   -3.7927 H   0  0  0  0  0  0  0  0  0  0  0  0
   -1.7534    2.5757   -4.4247 H   0  0  0  0  0  0  0  0  0  0  0  0
   -1.6281    3.4513   -2.0162 H   0  0  0  0  0  0  0  0  0  0  0  0
    0.0680    2.6857   -0.1304 N   0  0  0  0  0  0  0  0  0  0  0  0
   -0.7474    3.5532    0.1791 O   0  0  0  0  0  0  0  0  0  0  0  0
    0.9233    2.2239    0.6212 O   0  0  0  0  0  0  0  0  0  0  0  0
   -0.2532    0.6223   -5.8764 N   0  0  0  0  0  0  0  0  0  0  0  0
    0.1282   -0.0066   -6.7027 N   0  0  0  0  0  0  0  0  0  0  0  0
    5.0532    1.4718   -4.1267 C   0  0  0  0  0  0  0  0  0  0  0  0
    6.1256    2.0441   -3.4430 C   0  0  0  0  0  0  0  0  0  0  0  0
    7.2216    1.2716   -3.0364 C   0  0  0  0  0  0  0  0  0  0  0  0
    7.2207   -0.1002   -3.3350 C   0  0  0  0  0  0  0  0  0  0  0  0
    6.1600   -0.6892   -4.0174 C   0  0  0  0  0  0  0  0  0  0  0  0
    5.0788    0.1055   -4.4052 C   0  0  0  0  0  0  0  0  0  0  0  0
    4.2121    2.0736   -4.4533 H   0  0  0  0  0  0  0  0  0  0  0  0
    6.1115    3.1085   -3.2241 H   0  0  0  0  0  0  0  0  0  0  0  0
    8.0645   -0.7143   -3.0309 H   0  0  0  0  0  0  0  0  0  0  0  0
    6.1676   -1.7460   -4.2605 H   0  0  0  0  0  0  0  0  0  0  0  0
    3.6998   -0.6492   -5.2534 S   0  0  0  0  0  0  0  0  0  0  0  0
    2.9435    0.4091   -5.9332 O   0  0  0  0  0  0  0  0  0  0  0  0
    2.7846   -1.2149   -4.0424 O   0  0  0  0  0  0  0  0  0  0  0  0
    4.1830   -1.8185   -5.9750 O   0  0  0  0  0  0  0  0  0  0  0  0
    8.3908    1.8997   -2.3169 C   0  0  0  0  0  0  0  0  0  0  0  0
    9.2413    2.0365   -2.9959 H   0  0  0  0  0  0  0  0  0  0  0  0
    8.1318    2.8814   -1.9121 H   0  0  0  0  0  0  0  0  0  0  0  0
    8.7353    1.2707   -1.4900 H   0  0  0  0  0  0  0  0  0  0  0  0
  1  6  1  0  0  0  0
  1  7  1  0  0  0  0
  2  1  2  0  0  0  0
  3  4  2  0  0  0  0
  3  2  1  0  0  0  0
  4  5  1  0  0  0  0
  5 10  1  0  0  0  0
  5  6  2  0  0  0  0
  6 11  1  0  0  0  0
  9  4  1  0  0  0  0
 11 12  2  0  0  0  0
 11 13  2  0  0  0  0
 15 14  3  0  0  0  0
 16 17  1  0  0  0  0
 17 23  1  0  0  0  0
 17 18  2  0  0  0  0
 18 30  1  0  0  0  0
 19 18  1  0  0  0  0
 19 24  1  0  0  0  0
 20 19  2  0  0  0  0
 21 16  2  0  0  0  0
 21 20  1  0  0  0  0
 22 16  1  0  0  0  0
 25 20  1  0  0  0  0
 26 21  1  0  0  0  0
 26 28  1  0  0  0  0
 27 26  2  0  0  0  0
 28  8  1  0  0  0  0
 29 26  2  0  0  0  0
 30 32  1  0  0  0  0
 30 33  1  0  0  0  0
 31 30  1  0  0  0  0
M  RAD  2   2   2   3   2
M  END
