Coordinates from ORCA-job 4-NO2-Ph-N2-OTs-B3LYPG-6-31G_dp-MTMO-d009-169-n800
 OpenBabel09051908313D

 33 33  0  0  0  0  0  0  0  0999 V2000
   -0.0898    0.9323   -1.0854 C   0  0  0  0  0  0  0  0  0  0  0  0
    0.3929    0.2247   -2.1815 C   0  0  0  0  0  0  0  0  0  0  0  0
    1.1461    0.8983   -3.1487 C   0  0  0  0  0  0  0  0  0  0  0  0
    1.4143    2.2663   -3.0416 C   0  0  0  0  0  0  0  0  0  0  0  0
    0.9261    2.9769   -1.9501 C   0  0  0  0  0  0  0  0  0  0  0  0
    0.1844    2.2962   -0.9856 C   0  0  0  0  0  0  0  0  0  0  0  0
   -0.6762    0.4495   -0.3135 H   0  0  0  0  0  0  0  0  0  0  0  0
    0.1990   -0.8343   -2.2943 H   0  0  0  0  0  0  0  0  0  0  0  0
    1.9932    2.7548   -3.8175 H   0  0  0  0  0  0  0  0  0  0  0  0
    1.1108    4.0369   -1.8308 H   0  0  0  0  0  0  0  0  0  0  0  0
   -0.3263    3.0428    0.1737 N   0  0  0  0  0  0  0  0  0  0  0  0
   -0.0638    4.2437    0.2386 O   0  0  0  0  0  0  0  0  0  0  0  0
   -0.9821    2.4216    1.0089 O   0  0  0  0  0  0  0  0  0  0  0  0
    4.5553   -1.6078   -8.4301 N   0  0  0  0  0  0  0  0  0  0  0  0
    4.0987   -2.5280   -8.8371 N   0  0  0  0  0  0  0  0  0  0  0  0
    4.7530    0.4073   -2.7561 C   0  0  0  0  0  0  0  0  0  0  0  0
    5.8856    1.2114   -2.6525 C   0  0  0  0  0  0  0  0  0  0  0  0
    6.5426    1.6917   -3.7949 C   0  0  0  0  0  0  0  0  0  0  0  0
    6.0349    1.3448   -5.0564 C   0  0  0  0  0  0  0  0  0  0  0  0
    4.9029    0.5445   -5.1851 C   0  0  0  0  0  0  0  0  0  0  0  0
    4.2708    0.0850   -4.0270 C   0  0  0  0  0  0  0  0  0  0  0  0
    4.2572    0.0229   -1.8720 H   0  0  0  0  0  0  0  0  0  0  0  0
    6.2671    1.4672   -1.6679 H   0  0  0  0  0  0  0  0  0  0  0  0
    6.5357    1.7034   -5.9512 H   0  0  0  0  0  0  0  0  0  0  0  0
    4.5246    0.2653   -6.1622 H   0  0  0  0  0  0  0  0  0  0  0  0
    2.8082   -0.9170   -4.1782 S   0  0  0  0  0  0  0  0  0  0  0  0
    1.5876    0.2437   -4.2908 O   0  0  0  0  0  0  0  0  0  0  0  0
    2.6082   -1.6665   -2.9424 O   0  0  0  0  0  0  0  0  0  0  0  0
    2.7711   -1.5456   -5.4881 O   0  0  0  0  0  0  0  0  0  0  0  0
    7.7875    2.5350   -3.6708 C   0  0  0  0  0  0  0  0  0  0  0  0
    7.9079    3.2007   -4.5300 H   0  0  0  0  0  0  0  0  0  0  0  0
    7.7692    3.1451   -2.7632 H   0  0  0  0  0  0  0  0  0  0  0  0
    8.6817    1.9018   -3.6202 H   0  0  0  0  0  0  0  0  0  0  0  0
  1  6  1  0  0  0  0
  1  7  1  0  0  0  0
  2  1  2  0  0  0  0
  3  4  2  0  0  0  0
  3  2  1  0  0  0  0
  4  5  1  0  0  0  0
  5 10  1  0  0  0  0
  5  6  2  0  0  0  0
  6 11  1  0  0  0  0
  8  2  1  0  0  0  0
  9  4  1  0  0  0  0
 11 12  2  0  0  0  0
 11 13  2  0  0  0  0
 15 14  3  0  0  0  0
 16 17  1  0  0  0  0
 16 22  1  0  0  0  0
 17 23  1  0  0  0  0
 18 30  1  0  0  0  0
 18 17  2  0  0  0  0
 19 18  1  0  0  0  0
 20 19  2  0  0  0  0
 20 21  1  0  0  0  0
 21 16  2  0  0  0  0
 24 19  1  0  0  0  0
 25 20  1  0  0  0  0
 26 21  1  0  0  0  0
 26 28  2  0  0  0  0
 27 26  1  0  0  0  0
 27  3  1  0  0  0  0
 29 26  2  0  0  0  0
 30 33  1  0  0  0  0
 30 32  1  0  0  0  0
 31 30  1  0  0  0  0
M  END
