Coordinates from ORCA-job 4-NO2-Ph-N2-OTs-B3LYPG-6-31G_dp-MTMO-d009-169-n800
 OpenBabel09051908313D

 33 33  0  0  0  0  0  0  0  0999 V2000
   -0.0890    1.5448   -0.1590 C   0  0  0  0  0  0  0  0  0  0  0  0
   -0.0257    0.5438   -1.1228 C   0  0  0  0  0  0  0  0  0  0  0  0
    0.4445    0.8585   -2.4020 C   0  0  0  0  0  0  0  0  0  0  0  0
    0.8415    2.1576   -2.7331 C   0  0  0  0  0  0  0  0  0  0  0  0
    0.7702    3.1617   -1.7735 C   0  0  0  0  0  0  0  0  0  0  0  0
    0.3093    2.8376   -0.4982 C   0  0  0  0  0  0  0  0  0  0  0  0
   -0.4467    1.3441    0.8427 H   0  0  0  0  0  0  0  0  0  0  0  0
   -0.3296   -0.4704   -0.8974 H   0  0  0  0  0  0  0  0  0  0  0  0
    1.1914    2.3648   -3.7380 H   0  0  0  0  0  0  0  0  0  0  0  0
    1.0652    4.1802   -1.9912 H   0  0  0  0  0  0  0  0  0  0  0  0
    0.2388    3.8953    0.5208 N   0  0  0  0  0  0  0  0  0  0  0  0
    0.5911    5.0280    0.1924 O   0  0  0  0  0  0  0  0  0  0  0  0
   -0.1661    3.5837    1.6400 O   0  0  0  0  0  0  0  0  0  0  0  0
   14.6041    3.4343   -9.3902 N   0  0  0  0  0  0  0  0  0  0  0  0
   15.4477    3.4878  -10.1023 N   0  0  0  0  0  0  0  0  0  0  0  0
    3.9664   -0.2198   -2.8394 C   0  0  0  0  0  0  0  0  0  0  0  0
    5.1599    0.3831   -3.2333 C   0  0  0  0  0  0  0  0  0  0  0  0
    5.4657    0.5716   -4.5883 C   0  0  0  0  0  0  0  0  0  0  0  0
    4.5402    0.1389   -5.5521 C   0  0  0  0  0  0  0  0  0  0  0  0
    3.3426   -0.4654   -5.1823 C   0  0  0  0  0  0  0  0  0  0  0  0
    3.0676   -0.6371   -3.8226 C   0  0  0  0  0  0  0  0  0  0  0  0
    3.7377   -0.3781   -1.7914 H   0  0  0  0  0  0  0  0  0  0  0  0
    5.8657    0.7100   -2.4750 H   0  0  0  0  0  0  0  0  0  0  0  0
    4.7637    0.2748   -6.6070 H   0  0  0  0  0  0  0  0  0  0  0  0
    2.6350   -0.8111   -5.9278 H   0  0  0  0  0  0  0  0  0  0  0  0
    1.5298   -1.3919   -3.3402 S   0  0  0  0  0  0  0  0  0  0  0  0
    0.4568   -0.0929   -3.4120 O   0  0  0  0  0  0  0  0  0  0  0  0
    1.6258   -1.8301   -1.9517 O   0  0  0  0  0  0  0  0  0  0  0  0
    1.0472   -2.2572   -4.4027 O   0  0  0  0  0  0  0  0  0  0  0  0
    6.7724    1.1991   -5.0073 C   0  0  0  0  0  0  0  0  0  0  0  0
    7.5100    0.4282   -5.2616 H   0  0  0  0  0  0  0  0  0  0  0  0
    6.6460    1.8312   -5.8913 H   0  0  0  0  0  0  0  0  0  0  0  0
    7.1990    1.8096   -4.2067 H   0  0  0  0  0  0  0  0  0  0  0  0
  1  7  1  0  0  0  0
  2  8  1  0  0  0  0
  2  1  2  0  0  0  0
  3  2  1  0  0  0  0
  4  3  2  0  0  0  0
  4  5  1  0  0  0  0
  5  6  2  0  0  0  0
  6  1  1  0  0  0  0
  6 11  1  0  0  0  0
  9  4  1  0  0  0  0
 10  5  1  0  0  0  0
 11 13  2  0  0  0  0
 12 11  2  0  0  0  0
 15 14  3  0  0  0  0
 16 22  1  0  0  0  0
 17 16  1  0  0  0  0
 17 23  1  0  0  0  0
 18 17  2  0  0  0  0
 19 20  2  0  0  0  0
 19 18  1  0  0  0  0
 20 21  1  0  0  0  0
 21 26  1  0  0  0  0
 21 16  2  0  0  0  0
 24 19  1  0  0  0  0
 25 20  1  0  0  0  0
 26 28  2  0  0  0  0
 27 26  1  0  0  0  0
 27  3  1  0  0  0  0
 29 26  2  0  0  0  0
 30 18  1  0  0  0  0
 30 33  1  0  0  0  0
 31 30  1  0  0  0  0
 32 30  1  0  0  0  0
M  END
