Coordinates from ORCA-job 4-NO2-Ph-N2-OTs-B3LYPG-6-31G_dp-MTMO-d009-169-n800
 OpenBabel09051908313D

 33 33  0  0  0  0  0  0  0  0999 V2000
   -0.0438    0.8654   -1.3141 C   0  0  0  0  0  0  0  0  0  0  0  0
    0.5526    0.0425   -2.2638 C   0  0  0  0  0  0  0  0  0  0  0  0
    1.3367    0.6188   -3.2683 C   0  0  0  0  0  0  0  0  0  0  0  0
    1.5265    2.0019   -3.3419 C   0  0  0  0  0  0  0  0  0  0  0  0
    0.9255    2.8270   -2.3971 C   0  0  0  0  0  0  0  0  0  0  0  0
    0.1519    2.2440   -1.3944 C   0  0  0  0  0  0  0  0  0  0  0  0
   -0.6583    0.4605   -0.5198 H   0  0  0  0  0  0  0  0  0  0  0  0
    0.4233   -1.0322   -2.2350 H   0  0  0  0  0  0  0  0  0  0  0  0
    2.1339    2.4121   -4.1408 H   0  0  0  0  0  0  0  0  0  0  0  0
    1.0469    3.9028   -2.4197 H   0  0  0  0  0  0  0  0  0  0  0  0
   -0.4787    3.1129   -0.3893 N   0  0  0  0  0  0  0  0  0  0  0  0
   -0.2855    4.3250   -0.4817 O   0  0  0  0  0  0  0  0  0  0  0  0
   -1.1588    2.5754    0.4837 O   0  0  0  0  0  0  0  0  0  0  0  0
    2.7123   -0.3184   -7.8397 N   0  0  0  0  0  0  0  0  0  0  0  0
    1.8115   -0.8686   -8.1660 N   0  0  0  0  0  0  0  0  0  0  0  0
    5.0171    0.3070   -2.5547 C   0  0  0  0  0  0  0  0  0  0  0  0
    6.0887    1.1953   -2.4852 C   0  0  0  0  0  0  0  0  0  0  0  0
    6.6929    1.6966   -3.6467 C   0  0  0  0  0  0  0  0  0  0  0  0
    6.1941    1.2864   -4.8936 C   0  0  0  0  0  0  0  0  0  0  0  0
    5.1263    0.3993   -4.9883 C   0  0  0  0  0  0  0  0  0  0  0  0
    4.5471   -0.0816   -3.8103 C   0  0  0  0  0  0  0  0  0  0  0  0
    4.5577   -0.0898   -1.6567 H   0  0  0  0  0  0  0  0  0  0  0  0
    6.4621    1.5019   -1.5123 H   0  0  0  0  0  0  0  0  0  0  0  0
    6.6517    1.6656   -5.8030 H   0  0  0  0  0  0  0  0  0  0  0  0
    4.7488    0.0800   -5.9536 H   0  0  0  0  0  0  0  0  0  0  0  0
    3.1701   -1.2037   -3.9183 S   0  0  0  0  0  0  0  0  0  0  0  0
    1.8903   -0.1634   -4.2725 O   0  0  0  0  0  0  0  0  0  0  0  0
    2.9293   -1.7966   -2.6070 O   0  0  0  0  0  0  0  0  0  0  0  0
    3.2680   -2.0006   -5.1296 O   0  0  0  0  0  0  0  0  0  0  0  0
    7.8726    2.6328   -3.5619 C   0  0  0  0  0  0  0  0  0  0  0  0
    7.8870    3.3357   -4.4001 H   0  0  0  0  0  0  0  0  0  0  0  0
    7.8629    3.2078   -2.6319 H   0  0  0  0  0  0  0  0  0  0  0  0
    8.8154    2.0729   -3.5908 H   0  0  0  0  0  0  0  0  0  0  0  0
  1  7  1  0  0  0  0
  2  8  1  0  0  0  0
  2  1  2  0  0  0  0
  3  2  1  0  0  0  0
  4  3  2  0  0  0  0
  4  5  1  0  0  0  0
  5  6  2  0  0  0  0
  6  1  1  0  0  0  0
  6 11  1  0  0  0  0
  9  4  1  0  0  0  0
 10  5  1  0  0  0  0
 11 13  2  0  0  0  0
 12 11  2  0  0  0  0
 15 14  3  0  0  0  0
 16 17  1  0  0  0  0
 16 22  1  0  0  0  0
 17 23  1  0  0  0  0
 18 30  1  0  0  0  0
 18 17  2  0  0  0  0
 19 18  1  0  0  0  0
 20 19  2  0  0  0  0
 20 21  1  0  0  0  0
 21 16  2  0  0  0  0
 24 19  1  0  0  0  0
 25 20  1  0  0  0  0
 26 21  1  0  0  0  0
 26 28  2  0  0  0  0
 27 26  1  0  0  0  0
 27  3  1  0  0  0  0
 29 26  2  0  0  0  0
 30 32  1  0  0  0  0
 31 30  1  0  0  0  0
 33 30  1  0  0  0  0
M  END
