Coordinates from ORCA-job 4-NO2-Ph-N2-OTs-B3LYPG-6-31G_dp-MTMO-d009-169-n800
 OpenBabel09051908313D

 33 33  0  0  0  0  0  0  0  0999 V2000
    0.0919    1.1758   -0.1290 C   0  0  0  0  0  0  0  0  0  0  0  0
    0.2968    0.2038   -1.1026 C   0  0  0  0  0  0  0  0  0  0  0  0
    0.6668    0.5986   -2.3924 C   0  0  0  0  0  0  0  0  0  0  0  0
    0.8276    1.9473   -2.7237 C   0  0  0  0  0  0  0  0  0  0  0  0
    0.6157    2.9211   -1.7537 C   0  0  0  0  0  0  0  0  0  0  0  0
    0.2538    2.5188   -0.4688 C   0  0  0  0  0  0  0  0  0  0  0  0
   -0.1965    0.9137    0.8808 H   0  0  0  0  0  0  0  0  0  0  0  0
    0.1784   -0.8486   -0.8773 H   0  0  0  0  0  0  0  0  0  0  0  0
    1.1076    2.2142   -3.7363 H   0  0  0  0  0  0  0  0  0  0  0  0
    0.7265    3.9760   -1.9709 H   0  0  0  0  0  0  0  0  0  0  0  0
    0.0338    3.5459    0.5606 N   0  0  0  0  0  0  0  0  0  0  0  0
    0.1879    4.7226    0.2341 O   0  0  0  0  0  0  0  0  0  0  0  0
   -0.2892    3.1668    1.6856 O   0  0  0  0  0  0  0  0  0  0  0  0
   12.4572    1.3205   -8.0447 N   0  0  0  0  0  0  0  0  0  0  0  0
   13.4158    1.1121   -8.5539 N   0  0  0  0  0  0  0  0  0  0  0  0
    4.3149    0.1958   -3.0109 C   0  0  0  0  0  0  0  0  0  0  0  0
    5.3480    1.0171   -3.4605 C   0  0  0  0  0  0  0  0  0  0  0  0
    5.5285    1.2760   -4.8262 C   0  0  0  0  0  0  0  0  0  0  0  0
    4.6425    0.6878   -5.7438 C   0  0  0  0  0  0  0  0  0  0  0  0
    3.6051   -0.1358   -5.3183 C   0  0  0  0  0  0  0  0  0  0  0  0
    3.4514   -0.3718   -3.9487 C   0  0  0  0  0  0  0  0  0  0  0  0
    4.1857   -0.0153   -1.9553 H   0  0  0  0  0  0  0  0  0  0  0  0
    6.0263    1.4608   -2.7372 H   0  0  0  0  0  0  0  0  0  0  0  0
    4.7705    0.8758   -6.8066 H   0  0  0  0  0  0  0  0  0  0  0  0
    2.9303   -0.6001   -6.0291 H   0  0  0  0  0  0  0  0  0  0  0  0
    2.1126   -1.4056   -3.3949 S   0  0  0  0  0  0  0  0  0  0  0  0
    0.8088   -0.3356   -3.4087 O   0  0  0  0  0  0  0  0  0  0  0  0
    2.3577   -1.8094   -2.0144 O   0  0  0  0  0  0  0  0  0  0  0  0
    1.7533   -2.3527   -4.4362 O   0  0  0  0  0  0  0  0  0  0  0  0
    6.6653    2.1437   -5.3074 C   0  0  0  0  0  0  0  0  0  0  0  0
    7.4959    1.5284   -5.6746 H   0  0  0  0  0  0  0  0  0  0  0  0
    6.3531    2.7901   -6.1337 H   0  0  0  0  0  0  0  0  0  0  0  0
    7.0541    2.7768   -4.5059 H   0  0  0  0  0  0  0  0  0  0  0  0
  1  7  1  0  0  0  0
  2  8  1  0  0  0  0
  2  1  2  0  0  0  0
  3  2  1  0  0  0  0
  4  3  2  0  0  0  0
  4  5  1  0  0  0  0
  5  6  2  0  0  0  0
  6  1  1  0  0  0  0
  6 11  1  0  0  0  0
  9  4  1  0  0  0  0
 10  5  1  0  0  0  0
 11 13  2  0  0  0  0
 12 11  2  0  0  0  0
 15 14  3  0  0  0  0
 16 22  1  0  0  0  0
 17 16  1  0  0  0  0
 17 23  1  0  0  0  0
 18 17  2  0  0  0  0
 19 20  2  0  0  0  0
 19 18  1  0  0  0  0
 20 21  1  0  0  0  0
 21 26  1  0  0  0  0
 21 16  2  0  0  0  0
 24 19  1  0  0  0  0
 25 20  1  0  0  0  0
 26 28  2  0  0  0  0
 27 26  1  0  0  0  0
 27  3  1  0  0  0  0
 29 26  2  0  0  0  0
 30 18  1  0  0  0  0
 30 33  1  0  0  0  0
 31 30  1  0  0  0  0
 32 30  1  0  0  0  0
M  END
