Coordinates from ORCA-job 4-NO2-Ph-N2-OTs-B3LYPG-6-31G_dp-MTMO-d009-169-n800
 OpenBabel09051908313D

 33 33  0  0  0  0  0  0  0  0999 V2000
   -0.0577    0.8962   -1.2101 C   0  0  0  0  0  0  0  0  0  0  0  0
    0.5000    0.1010   -2.2059 C   0  0  0  0  0  0  0  0  0  0  0  0
    1.2715    0.7025   -3.2055 C   0  0  0  0  0  0  0  0  0  0  0  0
    1.4864    2.0837   -3.2286 C   0  0  0  0  0  0  0  0  0  0  0  0
    0.9241    2.8813   -2.2376 C   0  0  0  0  0  0  0  0  0  0  0  0
    0.1630    2.2730   -1.2403 C   0  0  0  0  0  0  0  0  0  0  0  0
   -0.6614    0.4713   -0.4180 H   0  0  0  0  0  0  0  0  0  0  0  0
    0.3498   -0.9712   -2.2168 H   0  0  0  0  0  0  0  0  0  0  0  0
    2.0827    2.5140   -4.0255 H   0  0  0  0  0  0  0  0  0  0  0  0
    1.0660    3.9546   -2.2204 H   0  0  0  0  0  0  0  0  0  0  0  0
   -0.4270    3.1124   -0.1867 N   0  0  0  0  0  0  0  0  0  0  0  0
   -0.2113    4.3233   -0.2352 O   0  0  0  0  0  0  0  0  0  0  0  0
   -1.0978    2.5533    0.6798 O   0  0  0  0  0  0  0  0  0  0  0  0
    3.3635   -0.7293   -8.2279 N   0  0  0  0  0  0  0  0  0  0  0  0
    2.6247   -1.4103   -8.6872 N   0  0  0  0  0  0  0  0  0  0  0  0
    4.9219    0.3474   -2.6041 C   0  0  0  0  0  0  0  0  0  0  0  0
    6.0100    1.2147   -2.5310 C   0  0  0  0  0  0  0  0  0  0  0  0
    6.6348    1.6951   -3.6907 C   0  0  0  0  0  0  0  0  0  0  0  0
    6.1407    1.2842   -4.9388 C   0  0  0  0  0  0  0  0  0  0  0  0
    5.0554    0.4184   -5.0373 C   0  0  0  0  0  0  0  0  0  0  0  0
    4.4550   -0.0405   -3.8615 C   0  0  0  0  0  0  0  0  0  0  0  0
    4.4481   -0.0345   -1.7069 H   0  0  0  0  0  0  0  0  0  0  0  0
    6.3805    1.5210   -1.5569 H   0  0  0  0  0  0  0  0  0  0  0  0
    6.6157    1.6452   -5.8467 H   0  0  0  0  0  0  0  0  0  0  0  0
    4.6845    0.0947   -6.0035 H   0  0  0  0  0  0  0  0  0  0  0  0
    3.0509   -1.1279   -3.9743 S   0  0  0  0  0  0  0  0  0  0  0  0
    1.7853   -0.0481   -4.2538 O   0  0  0  0  0  0  0  0  0  0  0  0
    2.8307   -1.7646   -2.6800 O   0  0  0  0  0  0  0  0  0  0  0  0
    3.1004   -1.8809   -5.2164 O   0  0  0  0  0  0  0  0  0  0  0  0
    7.8319    2.6088   -3.6011 C   0  0  0  0  0  0  0  0  0  0  0  0
    7.8785    3.2923   -4.4540 H   0  0  0  0  0  0  0  0  0  0  0  0
    7.8145    3.2043   -2.6842 H   0  0  0  0  0  0  0  0  0  0  0  0
    8.7632    2.0293   -3.5972 H   0  0  0  0  0  0  0  0  0  0  0  0
  1  7  1  0  0  0  0
  2  1  2  0  0  0  0
  3  2  1  0  0  0  0
  4  3  2  0  0  0  0
  4  5  1  0  0  0  0
  5 10  1  0  0  0  0
  5  6  2  0  0  0  0
  6  1  1  0  0  0  0
  6 11  1  0  0  0  0
  8  2  1  0  0  0  0
  9  4  1  0  0  0  0
 11 13  2  0  0  0  0
 12 11  2  0  0  0  0
 15 14  3  0  0  0  0
 16 17  1  0  0  0  0
 16 22  1  0  0  0  0
 17 23  1  0  0  0  0
 18 30  1  0  0  0  0
 18 17  2  0  0  0  0
 19 18  1  0  0  0  0
 20 19  2  0  0  0  0
 20 21  1  0  0  0  0
 21 16  2  0  0  0  0
 24 19  1  0  0  0  0
 25 20  1  0  0  0  0
 26 21  1  0  0  0  0
 26 28  2  0  0  0  0
 27 26  1  0  0  0  0
 27  3  1  0  0  0  0
 29 26  2  0  0  0  0
 30 33  1  0  0  0  0
 30 32  1  0  0  0  0
 31 30  1  0  0  0  0
M  END
