Coordinates from ORCA-job 4-NO2-Ph-N2-OTs-B3LYPG-6-31G_dp-MTMO-d009-169-n800
 OpenBabel09051908313D

 33 33  0  0  0  0  0  0  0  0999 V2000
   -0.0281    0.8530   -1.3477 C   0  0  0  0  0  0  0  0  0  0  0  0
    0.5788    0.0197   -2.2816 C   0  0  0  0  0  0  0  0  0  0  0  0
    1.3593    0.5864   -3.2944 C   0  0  0  0  0  0  0  0  0  0  0  0
    1.5348    1.9699   -3.3919 C   0  0  0  0  0  0  0  0  0  0  0  0
    0.9230    2.8052   -2.4633 C   0  0  0  0  0  0  0  0  0  0  0  0
    0.1533    2.2320   -1.4520 C   0  0  0  0  0  0  0  0  0  0  0  0
   -0.6402    0.4558   -0.5478 H   0  0  0  0  0  0  0  0  0  0  0  0
    0.4606   -1.0556   -2.2340 H   0  0  0  0  0  0  0  0  0  0  0  0
    2.1398    2.3721   -4.1967 H   0  0  0  0  0  0  0  0  0  0  0  0
    1.0331    3.8817   -2.5047 H   0  0  0  0  0  0  0  0  0  0  0  0
   -0.4888    3.1117   -0.4637 N   0  0  0  0  0  0  0  0  0  0  0  0
   -0.3087    4.3240   -0.5776 O   0  0  0  0  0  0  0  0  0  0  0  0
   -1.1645    2.5825    0.4177 O   0  0  0  0  0  0  0  0  0  0  0  0
    2.4916   -0.1378   -7.6357 N   0  0  0  0  0  0  0  0  0  0  0  0
    1.5506   -0.6417   -7.9208 N   0  0  0  0  0  0  0  0  0  0  0  0
    5.0397    0.2950   -2.5434 C   0  0  0  0  0  0  0  0  0  0  0  0
    6.1047    1.1912   -2.4728 C   0  0  0  0  0  0  0  0  0  0  0  0
    6.7078    1.6952   -3.6335 C   0  0  0  0  0  0  0  0  0  0  0  0
    6.2147    1.2799   -4.8811 C   0  0  0  0  0  0  0  0  0  0  0  0
    5.1537    0.3848   -4.9767 C   0  0  0  0  0  0  0  0  0  0  0  0
    4.5755   -0.0989   -3.7994 C   0  0  0  0  0  0  0  0  0  0  0  0
    4.5809   -0.1037   -1.6458 H   0  0  0  0  0  0  0  0  0  0  0  0
    6.4737    1.5019   -1.4994 H   0  0  0  0  0  0  0  0  0  0  0  0
    6.6713    1.6614   -5.7900 H   0  0  0  0  0  0  0  0  0  0  0  0
    4.7800    0.0617   -5.9421 H   0  0  0  0  0  0  0  0  0  0  0  0
    3.2088   -1.2335   -3.9088 S   0  0  0  0  0  0  0  0  0  0  0  0
    1.9233   -0.2071   -4.2839 O   0  0  0  0  0  0  0  0  0  0  0  0
    2.9617   -1.8161   -2.5942 O   0  0  0  0  0  0  0  0  0  0  0  0
    3.3228   -2.0402   -5.1121 O   0  0  0  0  0  0  0  0  0  0  0  0
    7.8807    2.6399   -3.5476 C   0  0  0  0  0  0  0  0  0  0  0  0
    7.8881    3.3459   -4.3833 H   0  0  0  0  0  0  0  0  0  0  0  0
    7.8685    3.2113   -2.6155 H   0  0  0  0  0  0  0  0  0  0  0  0
    8.8276    2.0872   -3.5806 H   0  0  0  0  0  0  0  0  0  0  0  0
  1  7  1  0  0  0  0
  2  8  1  0  0  0  0
  2  1  2  0  0  0  0
  3  2  1  0  0  0  0
  4  3  2  0  0  0  0
  4  5  1  0  0  0  0
  5  6  2  0  0  0  0
  6  1  1  0  0  0  0
  6 11  1  0  0  0  0
  9  4  1  0  0  0  0
 10  5  1  0  0  0  0
 11 13  2  0  0  0  0
 12 11  2  0  0  0  0
 15 14  3  0  0  0  0
 16 17  1  0  0  0  0
 16 22  1  0  0  0  0
 17 23  1  0  0  0  0
 18 30  1  0  0  0  0
 18 17  2  0  0  0  0
 19 18  1  0  0  0  0
 20 19  2  0  0  0  0
 20 21  1  0  0  0  0
 21 16  2  0  0  0  0
 24 19  1  0  0  0  0
 25 20  1  0  0  0  0
 26 21  1  0  0  0  0
 26 28  2  0  0  0  0
 27 26  1  0  0  0  0
 27  3  1  0  0  0  0
 29 26  2  0  0  0  0
 30 32  1  0  0  0  0
 31 30  1  0  0  0  0
 33 30  1  0  0  0  0
M  END
