Coordinates from ORCA-job 4-NO2-Ph-N2-OTs-B3LYPG-6-31G_dp-MTMO-d009-169-n800
 OpenBabel09051908313D

 33 33  0  0  0  0  0  0  0  0999 V2000
   -0.0657    0.9119   -1.1545 C   0  0  0  0  0  0  0  0  0  0  0  0
    0.4606    0.1509   -2.1932 C   0  0  0  0  0  0  0  0  0  0  0  0
    1.2230    0.7821   -3.1814 C   0  0  0  0  0  0  0  0  0  0  0  0
    1.4588    2.1599   -3.1513 C   0  0  0  0  0  0  0  0  0  0  0  0
    0.9276    2.9236   -2.1174 C   0  0  0  0  0  0  0  0  0  0  0  0
    0.1759    2.2854   -1.1317 C   0  0  0  0  0  0  0  0  0  0  0  0
   -0.6613    0.4633   -0.3693 H   0  0  0  0  0  0  0  0  0  0  0  0
    0.2930   -0.9175   -2.2458 H   0  0  0  0  0  0  0  0  0  0  0  0
    2.0467    2.6139   -3.9412 H   0  0  0  0  0  0  0  0  0  0  0  0
    1.0864    3.9929   -2.0584 H   0  0  0  0  0  0  0  0  0  0  0  0
   -0.3809    3.0887   -0.0329 N   0  0  0  0  0  0  0  0  0  0  0  0
   -0.1463    4.2970   -0.0347 O   0  0  0  0  0  0  0  0  0  0  0  0
   -1.0448    2.5040    0.8221 O   0  0  0  0  0  0  0  0  0  0  0  0
    3.8212   -1.1132   -8.3724 N   0  0  0  0  0  0  0  0  0  0  0  0
    3.1998   -1.9076   -8.8233 N   0  0  0  0  0  0  0  0  0  0  0  0
    4.8473    0.3764   -2.6639 C   0  0  0  0  0  0  0  0  0  0  0  0
    5.9516    1.2211   -2.5742 C   0  0  0  0  0  0  0  0  0  0  0  0
    6.5958    1.6987   -3.7246 C   0  0  0  0  0  0  0  0  0  0  0  0
    6.1047    1.3072   -4.9799 C   0  0  0  0  0  0  0  0  0  0  0  0
    5.0024    0.4649   -5.0952 C   0  0  0  0  0  0  0  0  0  0  0  0
    4.3824    0.0090   -3.9286 C   0  0  0  0  0  0  0  0  0  0  0  0
    4.3598   -0.0042   -1.7736 H   0  0  0  0  0  0  0  0  0  0  0  0
    6.3199    1.5116   -1.5943 H   0  0  0  0  0  0  0  0  0  0  0  0
    6.5956    1.6646   -5.8807 H   0  0  0  0  0  0  0  0  0  0  0  0
    4.6376    0.1546   -6.0681 H   0  0  0  0  0  0  0  0  0  0  0  0
    2.9549   -1.0453   -4.0601 S   0  0  0  0  0  0  0  0  0  0  0  0
    1.7059    0.0695   -4.2703 O   0  0  0  0  0  0  0  0  0  0  0  0
    2.7448   -1.7308   -2.7892 O   0  0  0  0  0  0  0  0  0  0  0  0
    2.9681   -1.7472   -5.3325 O   0  0  0  0  0  0  0  0  0  0  0  0
    7.8101    2.5875   -3.6169 C   0  0  0  0  0  0  0  0  0  0  0  0
    7.8872    3.2654   -4.4718 H   0  0  0  0  0  0  0  0  0  0  0  0
    7.7878    3.1880   -2.7032 H   0  0  0  0  0  0  0  0  0  0  0  0
    8.7286    1.9885   -3.5920 H   0  0  0  0  0  0  0  0  0  0  0  0
  1  6  1  0  0  0  0
  1  7  1  0  0  0  0
  2  1  2  0  0  0  0
  3  4  2  0  0  0  0
  3  2  1  0  0  0  0
  4  5  1  0  0  0  0
  5 10  1  0  0  0  0
  5  6  2  0  0  0  0
  6 11  1  0  0  0  0
  8  2  1  0  0  0  0
  9  4  1  0  0  0  0
 11 13  2  0  0  0  0
 12 11  2  0  0  0  0
 15 14  3  0  0  0  0
 16 17  1  0  0  0  0
 16 22  1  0  0  0  0
 17 23  1  0  0  0  0
 18 30  1  0  0  0  0
 18 17  2  0  0  0  0
 19 18  1  0  0  0  0
 20 19  2  0  0  0  0
 20 21  1  0  0  0  0
 21 16  2  0  0  0  0
 24 19  1  0  0  0  0
 25 20  1  0  0  0  0
 26 21  1  0  0  0  0
 26 28  2  0  0  0  0
 27 26  1  0  0  0  0
 27  3  1  0  0  0  0
 29 26  2  0  0  0  0
 30 33  1  0  0  0  0
 30 32  1  0  0  0  0
 31 30  1  0  0  0  0
M  END
