Coordinates from ORCA-job 4-NO2-Ph-N2-OTs-B3LYPG-6-31G_dp-MTMO-d009-169-n800
 OpenBabel09051908313D

 33 32  0  0  0  0  0  0  0  0999 V2000
    0.6128    1.0509   -1.3427 C   0  0  0  0  0  0  0  0  0  0  0  0
    0.8323    0.6285   -2.6561 C   0  0  0  0  0  0  0  0  0  0  0  0
    0.2583    1.2280   -3.5983 C   0  0  0  0  0  0  0  0  0  0  0  0
   -0.5973    2.2941   -3.7072 C   0  0  0  0  0  0  0  0  0  0  0  0
   -0.8515    2.7669   -2.4046 C   0  0  0  0  0  0  0  0  0  0  0  0
   -0.2595    2.1566   -1.2810 C   0  0  0  0  0  0  0  0  0  0  0  0
    1.0396    0.6237   -0.4448 H   0  0  0  0  0  0  0  0  0  0  0  0
    2.2132   -0.7078   -3.5018 H   0  0  0  0  0  0  0  0  0  0  0  0
   -1.0281    2.7202   -4.6026 H   0  0  0  0  0  0  0  0  0  0  0  0
   -1.5124    3.6114   -2.2482 H   0  0  0  0  0  0  0  0  0  0  0  0
   -0.5717    2.7144    0.0498 N   0  0  0  0  0  0  0  0  0  0  0  0
   -1.3341    3.6777    0.1040 O   0  0  0  0  0  0  0  0  0  0  0  0
   -0.0459    2.1777    1.0226 O   0  0  0  0  0  0  0  0  0  0  0  0
   -0.1626    0.6728   -6.6013 N   0  0  0  0  0  0  0  0  0  0  0  0
    0.0552    0.0816   -7.5088 N   0  0  0  0  0  0  0  0  0  0  0  0
    5.0827    1.4474   -4.0430 C   0  0  0  0  0  0  0  0  0  0  0  0
    6.2103    2.0293   -3.4643 C   0  0  0  0  0  0  0  0  0  0  0  0
    7.3649    1.2774   -3.2107 C   0  0  0  0  0  0  0  0  0  0  0  0
    7.3671   -0.0838   -3.5558 C   0  0  0  0  0  0  0  0  0  0  0  0
    6.2526   -0.6825   -4.1355 C   0  0  0  0  0  0  0  0  0  0  0  0
    5.1140    0.0923   -4.3708 C   0  0  0  0  0  0  0  0  0  0  0  0
    4.1947    2.0339   -4.2523 H   0  0  0  0  0  0  0  0  0  0  0  0
    6.1930    3.0850   -3.2081 H   0  0  0  0  0  0  0  0  0  0  0  0
    8.2560   -0.6812   -3.3701 H   0  0  0  0  0  0  0  0  0  0  0  0
    6.2613   -1.7299   -4.4155 H   0  0  0  0  0  0  0  0  0  0  0  0
    3.6723   -0.6732   -5.0912 S   0  0  0  0  0  0  0  0  0  0  0  0
    2.7994    0.3779   -5.6225 O   0  0  0  0  0  0  0  0  0  0  0  0
    2.9200   -1.3252   -3.7972 O   0  0  0  0  0  0  0  0  0  0  0  0
    4.1010   -1.7987   -5.9078 O   0  0  0  0  0  0  0  0  0  0  0  0
    8.5906    1.9142   -2.6012 C   0  0  0  0  0  0  0  0  0  0  0  0
    9.3811    2.0399   -3.3510 H   0  0  0  0  0  0  0  0  0  0  0  0
    8.3668    2.9010   -2.1884 H   0  0  0  0  0  0  0  0  0  0  0  0
    9.0025    1.2945   -1.7982 H   0  0  0  0  0  0  0  0  0  0  0  0
  1  6  1  0  0  0  0
  1  7  1  0  0  0  0
  2  1  2  0  0  0  0
  3  2  1  0  0  0  0
  4  3  2  0  0  0  0
  4  5  1  0  0  0  0
  5 10  1  0  0  0  0
  5  6  2  0  0  0  0
  6 11  1  0  0  0  0
  9  4  1  0  0  0  0
 11 12  2  0  0  0  0
 11 13  2  0  0  0  0
 15 14  3  0  0  0  0
 16 17  2  0  0  0  0
 17 18  1  0  0  0  0
 17 23  1  0  0  0  0
 18 30  1  0  0  0  0
 19 24  1  0  0  0  0
 19 18  2  0  0  0  0
 20 19  1  0  0  0  0
 21 20  2  0  0  0  0
 21 16  1  0  0  0  0
 22 16  1  0  0  0  0
 25 20  1  0  0  0  0
 26 21  1  0  0  0  0
 26 28  1  0  0  0  0
 27 26  2  0  0  0  0
 28  8  1  0  0  0  0
 29 26  2  0  0  0  0
 30 32  1  0  0  0  0
 30 33  1  0  0  0  0
 31 30  1  0  0  0  0
M  RAD  2   2   2   3   2
M  END
