Coordinates from ORCA-job 4-NO2-Ph-N2-OTs-B3LYPG-6-31G_dp-MTMO-d009-169-n800
 OpenBabel09051908313D

 33 33  0  0  0  0  0  0  0  0999 V2000
   -0.0406    0.8582   -1.3352 C   0  0  0  0  0  0  0  0  0  0  0  0
    0.5620    0.0310   -2.2772 C   0  0  0  0  0  0  0  0  0  0  0  0
    1.3486    0.6031   -3.2820 C   0  0  0  0  0  0  0  0  0  0  0  0
    1.5348    1.9862   -3.3638 C   0  0  0  0  0  0  0  0  0  0  0  0
    0.9276    2.8157   -2.4269 C   0  0  0  0  0  0  0  0  0  0  0  0
    0.1515    2.2369   -1.4236 C   0  0  0  0  0  0  0  0  0  0  0  0
   -0.6573    0.4568   -0.5409 H   0  0  0  0  0  0  0  0  0  0  0  0
    0.4357   -1.0439   -2.2419 H   0  0  0  0  0  0  0  0  0  0  0  0
    2.1443    2.3929   -4.1629 H   0  0  0  0  0  0  0  0  0  0  0  0
    1.0460    3.8916   -2.4559 H   0  0  0  0  0  0  0  0  0  0  0  0
   -0.4858    3.1103   -0.4267 N   0  0  0  0  0  0  0  0  0  0  0  0
   -0.2957    4.3224   -0.5262 O   0  0  0  0  0  0  0  0  0  0  0  0
   -1.1679    2.5765    0.4470 O   0  0  0  0  0  0  0  0  0  0  0  0
    2.5967   -0.2361   -7.7400 N   0  0  0  0  0  0  0  0  0  0  0  0
    1.6673   -0.7561   -8.0341 N   0  0  0  0  0  0  0  0  0  0  0  0
    5.0298    0.3030   -2.5488 C   0  0  0  0  0  0  0  0  0  0  0  0
    6.0983    1.1951   -2.4793 C   0  0  0  0  0  0  0  0  0  0  0  0
    6.7021    1.6968   -3.6407 C   0  0  0  0  0  0  0  0  0  0  0  0
    6.2061    1.2832   -4.8877 C   0  0  0  0  0  0  0  0  0  0  0  0
    5.1416    0.3922   -4.9823 C   0  0  0  0  0  0  0  0  0  0  0  0
    4.5627   -0.0891   -3.8043 C   0  0  0  0  0  0  0  0  0  0  0  0
    4.5705   -0.0941   -1.6507 H   0  0  0  0  0  0  0  0  0  0  0  0
    6.4695    1.5044   -1.5063 H   0  0  0  0  0  0  0  0  0  0  0  0
    6.6633    1.6629   -5.7971 H   0  0  0  0  0  0  0  0  0  0  0  0
    4.7661    0.0704   -5.9474 H   0  0  0  0  0  0  0  0  0  0  0  0
    3.1906   -1.2173   -3.9124 S   0  0  0  0  0  0  0  0  0  0  0  0
    1.9084   -0.1839   -4.2789 O   0  0  0  0  0  0  0  0  0  0  0  0
    2.9457   -1.8033   -2.5988 O   0  0  0  0  0  0  0  0  0  0  0  0
    3.2975   -2.0209   -5.1184 O   0  0  0  0  0  0  0  0  0  0  0  0
    7.8785    2.6372   -3.5559 C   0  0  0  0  0  0  0  0  0  0  0  0
    7.8894    3.3412   -4.3932 H   0  0  0  0  0  0  0  0  0  0  0  0
    7.8678    3.2107   -2.6251 H   0  0  0  0  0  0  0  0  0  0  0  0
    8.8233    2.0807   -3.5868 H   0  0  0  0  0  0  0  0  0  0  0  0
  1  7  1  0  0  0  0
  2  8  1  0  0  0  0
  2  1  2  0  0  0  0
  3  2  1  0  0  0  0
  4  3  2  0  0  0  0
  4  5  1  0  0  0  0
  5  6  2  0  0  0  0
  6  1  1  0  0  0  0
  6 11  1  0  0  0  0
  9  4  1  0  0  0  0
 10  5  1  0  0  0  0
 11 13  2  0  0  0  0
 12 11  2  0  0  0  0
 15 14  3  0  0  0  0
 16 17  1  0  0  0  0
 16 22  1  0  0  0  0
 17 23  1  0  0  0  0
 18 30  1  0  0  0  0
 18 17  2  0  0  0  0
 19 18  1  0  0  0  0
 20 19  2  0  0  0  0
 20 21  1  0  0  0  0
 21 16  2  0  0  0  0
 24 19  1  0  0  0  0
 25 20  1  0  0  0  0
 26 21  1  0  0  0  0
 26 28  2  0  0  0  0
 27 26  1  0  0  0  0
 27  3  1  0  0  0  0
 29 26  2  0  0  0  0
 30 32  1  0  0  0  0
 31 30  1  0  0  0  0
 33 30  1  0  0  0  0
M  END
