Coordinates from ORCA-job 4-NO2-Ph-N2-OTs-B3LYPG-6-31G_dp-MTMO-d009-169-n800
 OpenBabel09051908313D

 33 33  0  0  0  0  0  0  0  0999 V2000
   -0.1143    1.1193   -0.8339 C   0  0  0  0  0  0  0  0  0  0  0  0
    0.3284    0.2465   -1.8224 C   0  0  0  0  0  0  0  0  0  0  0  0
    1.0278    0.7587   -2.9203 C   0  0  0  0  0  0  0  0  0  0  0  0
    1.2836    2.1274   -3.0472 C   0  0  0  0  0  0  0  0  0  0  0  0
    0.8348    3.0026   -2.0637 C   0  0  0  0  0  0  0  0  0  0  0  0
    0.1449    2.4831   -0.9689 C   0  0  0  0  0  0  0  0  0  0  0  0
   -0.6593    0.7644    0.0317 H   0  0  0  0  0  0  0  0  0  0  0  0
    0.1437   -0.8180   -1.7531 H   0  0  0  0  0  0  0  0  0  0  0  0
    1.8202    2.4873   -3.9178 H   0  0  0  0  0  0  0  0  0  0  0  0
    1.0101    4.0692   -2.1268 H   0  0  0  0  0  0  0  0  0  0  0  0
   -0.3269    3.4048    0.0751 N   0  0  0  0  0  0  0  0  0  0  0  0
   -0.0829    4.6025   -0.0688 O   0  0  0  0  0  0  0  0  0  0  0  0
   -0.9351    2.9226    1.0299 O   0  0  0  0  0  0  0  0  0  0  0  0
    6.0170    0.0580   -8.8074 N   0  0  0  0  0  0  0  0  0  0  0  0
    6.1549   -0.4127   -9.7976 N   0  0  0  0  0  0  0  0  0  0  0  0
    4.6968    0.2627   -2.6356 C   0  0  0  0  0  0  0  0  0  0  0  0
    5.8355    1.0615   -2.7211 C   0  0  0  0  0  0  0  0  0  0  0  0
    6.3951    1.3988   -3.9617 C   0  0  0  0  0  0  0  0  0  0  0  0
    5.7834    0.9143   -5.1290 C   0  0  0  0  0  0  0  0  0  0  0  0
    4.6454    0.1159   -5.0675 C   0  0  0  0  0  0  0  0  0  0  0  0
    4.1114   -0.2008   -3.8152 C   0  0  0  0  0  0  0  0  0  0  0  0
    4.2747   -0.0103   -1.6751 H   0  0  0  0  0  0  0  0  0  0  0  0
    6.2985    1.4257   -1.8084 H   0  0  0  0  0  0  0  0  0  0  0  0
    6.2045    1.1592   -6.0996 H   0  0  0  0  0  0  0  0  0  0  0  0
    4.1830   -0.2677   -5.9699 H   0  0  0  0  0  0  0  0  0  0  0  0
    2.6450   -1.2046   -3.7297 S   0  0  0  0  0  0  0  0  0  0  0  0
    1.4203   -0.0680   -3.9634 O   0  0  0  0  0  0  0  0  0  0  0  0
    2.5116   -1.7478   -2.3818 O   0  0  0  0  0  0  0  0  0  0  0  0
    2.5399   -2.0311   -4.9200 O   0  0  0  0  0  0  0  0  0  0  0  0
    7.6463    2.2379   -4.0418 C   0  0  0  0  0  0  0  0  0  0  0  0
    7.6387    2.8840   -4.9246 H   0  0  0  0  0  0  0  0  0  0  0  0
    7.7644    2.8680   -3.1560 H   0  0  0  0  0  0  0  0  0  0  0  0
    8.5368    1.6015   -4.1127 H   0  0  0  0  0  0  0  0  0  0  0  0
  1  7  1  0  0  0  0
  2  8  1  0  0  0  0
  2  1  2  0  0  0  0
  3  2  1  0  0  0  0
  4  3  2  0  0  0  0
  4  5  1  0  0  0  0
  5  6  2  0  0  0  0
  6  1  1  0  0  0  0
  6 11  1  0  0  0  0
  9  4  1  0  0  0  0
 10  5  1  0  0  0  0
 11 13  2  0  0  0  0
 12 11  2  0  0  0  0
 15 14  3  0  0  0  0
 16 22  1  0  0  0  0
 17 16  1  0  0  0  0
 17 23  1  0  0  0  0
 18 17  2  0  0  0  0
 19 20  2  0  0  0  0
 19 18  1  0  0  0  0
 20 21  1  0  0  0  0
 21 26  1  0  0  0  0
 21 16  2  0  0  0  0
 24 19  1  0  0  0  0
 25 20  1  0  0  0  0
 26 28  2  0  0  0  0
 27 26  1  0  0  0  0
 27  3  1  0  0  0  0
 29 26  2  0  0  0  0
 30 18  1  0  0  0  0
 30 32  1  0  0  0  0
 31 30  1  0  0  0  0
 33 30  1  0  0  0  0
M  END
