Coordinates from ORCA-job 4-NO2-Ph-N2-OTs-B3LYPG-6-31G_dp-MTMO-d009-169-n800
 OpenBabel09051908313D

 33 33  0  0  0  0  0  0  0  0999 V2000
   -0.0809    1.1447   -0.7929 C   0  0  0  0  0  0  0  0  0  0  0  0
    0.3422    0.2480   -1.7686 C   0  0  0  0  0  0  0  0  0  0  0  0
    1.0105    0.7343   -2.8974 C   0  0  0  0  0  0  0  0  0  0  0  0
    1.2536    2.1005   -3.0677 C   0  0  0  0  0  0  0  0  0  0  0  0
    0.8237    2.9994   -2.0973 C   0  0  0  0  0  0  0  0  0  0  0  0
    0.1655    2.5058   -0.9713 C   0  0  0  0  0  0  0  0  0  0  0  0
   -0.6012    0.8099    0.0954 H   0  0  0  0  0  0  0  0  0  0  0  0
    0.1664   -0.8153   -1.6661 H   0  0  0  0  0  0  0  0  0  0  0  0
    1.7660    2.4400   -3.9608 H   0  0  0  0  0  0  0  0  0  0  0  0
    0.9900    4.0650   -2.1937 H   0  0  0  0  0  0  0  0  0  0  0  0
   -0.2855    3.4528    0.0591 N   0  0  0  0  0  0  0  0  0  0  0  0
   -0.0535    4.6476   -0.1236 O   0  0  0  0  0  0  0  0  0  0  0  0
   -0.8658    2.9933    1.0421 O   0  0  0  0  0  0  0  0  0  0  0  0
    6.2580    0.2718   -8.8500 N   0  0  0  0  0  0  0  0  0  0  0  0
    6.4564   -0.2015   -9.8287 N   0  0  0  0  0  0  0  0  0  0  0  0
    4.6782    0.2276   -2.6266 C   0  0  0  0  0  0  0  0  0  0  0  0
    5.8134    1.0296   -2.7285 C   0  0  0  0  0  0  0  0  0  0  0  0
    6.3526    1.3706   -3.9769 C   0  0  0  0  0  0  0  0  0  0  0  0
    5.7239    0.8868   -5.1356 C   0  0  0  0  0  0  0  0  0  0  0  0
    4.5896    0.0848   -5.0575 C   0  0  0  0  0  0  0  0  0  0  0  0
    4.0763   -0.2361   -3.7976 C   0  0  0  0  0  0  0  0  0  0  0  0
    4.2712   -0.0477   -1.6603 H   0  0  0  0  0  0  0  0  0  0  0  0
    6.2895    1.3937   -1.8225 H   0  0  0  0  0  0  0  0  0  0  0  0
    6.1288    1.1353   -6.1124 H   0  0  0  0  0  0  0  0  0  0  0  0
    4.1139   -0.2990   -5.9531 H   0  0  0  0  0  0  0  0  0  0  0  0
    2.6151   -1.2456   -3.6911 S   0  0  0  0  0  0  0  0  0  0  0  0
    1.3836   -0.1173   -3.9275 O   0  0  0  0  0  0  0  0  0  0  0  0
    2.4950   -1.7759   -2.3369 O   0  0  0  0  0  0  0  0  0  0  0  0
    2.5039   -2.0846   -4.8720 O   0  0  0  0  0  0  0  0  0  0  0  0
    7.6001    2.2133   -4.0753 C   0  0  0  0  0  0  0  0  0  0  0  0
    7.5700    2.8717   -4.9485 H   0  0  0  0  0  0  0  0  0  0  0  0
    7.7384    2.8312   -3.1839 H   0  0  0  0  0  0  0  0  0  0  0  0
    8.4896    1.5798   -4.1768 H   0  0  0  0  0  0  0  0  0  0  0  0
  1  7  1  0  0  0  0
  2  8  1  0  0  0  0
  2  1  2  0  0  0  0
  3  2  1  0  0  0  0
  4  3  2  0  0  0  0
  4  5  1  0  0  0  0
  5  6  2  0  0  0  0
  6  1  1  0  0  0  0
  6 11  1  0  0  0  0
  9  4  1  0  0  0  0
 10  5  1  0  0  0  0
 11 13  2  0  0  0  0
 12 11  2  0  0  0  0
 15 14  3  0  0  0  0
 16 22  1  0  0  0  0
 17 16  1  0  0  0  0
 17 23  1  0  0  0  0
 18 17  2  0  0  0  0
 19 20  2  0  0  0  0
 19 18  1  0  0  0  0
 20 21  1  0  0  0  0
 21 26  1  0  0  0  0
 21 16  2  0  0  0  0
 24 19  1  0  0  0  0
 25 20  1  0  0  0  0
 26 28  2  0  0  0  0
 27 26  1  0  0  0  0
 27  3  1  0  0  0  0
 29 26  2  0  0  0  0
 30 18  1  0  0  0  0
 30 32  1  0  0  0  0
 31 30  1  0  0  0  0
 33 30  1  0  0  0  0
M  END
