Coordinates from ORCA-job 4-NO2-Ph-N2-OTs-B3LYPG-6-31G_dp-MTMO-d009-169-n800
 OpenBabel09051908313D

 33 33  0  0  0  0  0  0  0  0999 V2000
   -1.8138    0.5835   -2.0994 C   0  0  0  0  0  0  0  0  0  0  0  0
   -1.1780    0.2690   -3.2905 C   0  0  0  0  0  0  0  0  0  0  0  0
   -0.0168    0.9819   -3.6345 C   0  0  0  0  0  0  0  0  0  0  0  0
    0.5300    2.0053   -2.8423 C   0  0  0  0  0  0  0  0  0  0  0  0
   -0.1362    2.3179   -1.6612 C   0  0  0  0  0  0  0  0  0  0  0  0
   -1.2799    1.6046   -1.3123 C   0  0  0  0  0  0  0  0  0  0  0  0
   -2.7067    0.0663   -1.7743 H   0  0  0  0  0  0  0  0  0  0  0  0
   -1.5557   -0.5110   -3.9419 H   0  0  0  0  0  0  0  0  0  0  0  0
    1.4428    2.5179   -3.1437 H   0  0  0  0  0  0  0  0  0  0  0  0
    0.2312    3.0974   -1.0054 H   0  0  0  0  0  0  0  0  0  0  0  0
   -1.9700    1.9439   -0.0452 N   0  0  0  0  0  0  0  0  0  0  0  0
   -1.4969    2.8551    0.6252 O   0  0  0  0  0  0  0  0  0  0  0  0
   -2.9685    1.2885    0.2409 O   0  0  0  0  0  0  0  0  0  0  0  0
    0.5835    0.6552   -4.8341 N   0  0  0  0  0  0  0  0  0  0  0  0
    1.1830    0.4778   -5.7725 N   0  0  0  0  0  0  0  0  0  0  0  0
    6.2752    2.1992   -4.3726 C   0  0  0  0  0  0  0  0  0  0  0  0
    7.6506    1.9908   -4.2992 C   0  0  0  0  0  0  0  0  0  0  0  0
    8.1769    0.7410   -3.9404 C   0  0  0  0  0  0  0  0  0  0  0  0
    7.2838   -0.2981   -3.6433 C   0  0  0  0  0  0  0  0  0  0  0  0
    5.9051   -0.1058   -3.7135 C   0  0  0  0  0  0  0  0  0  0  0  0
    5.4079    1.1451   -4.0802 C   0  0  0  0  0  0  0  0  0  0  0  0
    5.8687    3.1702   -4.6335 H   0  0  0  0  0  0  0  0  0  0  0  0
    8.3278    2.8126   -4.5185 H   0  0  0  0  0  0  0  0  0  0  0  0
    7.6738   -1.2685   -3.3465 H   0  0  0  0  0  0  0  0  0  0  0  0
    5.2141   -0.9042   -3.4662 H   0  0  0  0  0  0  0  0  0  0  0  0
    3.6402    1.3895   -4.2109 S   0  0  0  0  0  0  0  0  0  0  0  0
    3.2897    1.0484   -5.6521 O   0  0  0  0  0  0  0  0  0  0  0  0
    3.3743    2.8193   -3.8973 O   0  0  0  0  0  0  0  0  0  0  0  0
    2.9807    0.4349   -3.2763 O   0  0  0  0  0  0  0  0  0  0  0  0
    9.6697    0.5167   -3.8945 C   0  0  0  0  0  0  0  0  0  0  0  0
   10.0587    0.2495   -4.8851 H   0  0  0  0  0  0  0  0  0  0  0  0
   10.2008    1.4174   -3.5717 H   0  0  0  0  0  0  0  0  0  0  0  0
    9.9323   -0.2965   -3.2112 H   0  0  0  0  0  0  0  0  0  0  0  0
  1  7  1  0  0  0  0
  1  6  2  0  0  0  0
  2  1  1  0  0  0  0
  3  2  2  0  0  0  0
  3  4  1  0  0  0  0
  4  5  2  0  0  0  0
  5  6  1  0  0  0  0
  5 10  1  0  0  0  0
  6 11  1  0  0  0  0
  8  2  1  0  0  0  0
  9  4  1  0  0  0  0
 11 13  2  0  0  0  0
 11 12  2  0  0  0  0
 14  3  1  0  0  0  0
 15 14  1  0  0  0  0
 16 17  2  0  0  0  0
 16 21  1  0  0  0  0
 17 18  1  0  0  0  0
 18 30  1  0  0  0  0
 18 19  2  0  0  0  0
 19 24  1  0  0  0  0
 20 19  1  0  0  0  0
 20 25  1  0  0  0  0
 21 20  2  0  0  0  0
 22 16  1  0  0  0  0
 23 17  1  0  0  0  0
 26 21  1  0  0  0  0
 26 28  2  0  0  0  0
 26 29  1  0  0  0  0
 27 26  2  0  0  0  0
 30 32  1  0  0  0  0
 30 33  1  0  0  0  0
 31 30  1  0  0  0  0
M  RAD  3  14   2  15   3  29   2
M  END
