Coordinates from ORCA-job 4-NO2-Ph-N2-OTs-B3LYPG-6-31G_dp-MTMO-d009-169-n800
 OpenBabel09051908313D

 33 33  0  0  0  0  0  0  0  0999 V2000
    0.0058    1.2166   -0.4405 C   0  0  0  0  0  0  0  0  0  0  0  0
    0.3379    0.2395   -1.3732 C   0  0  0  0  0  0  0  0  0  0  0  0
    0.8576    0.6288   -2.6123 C   0  0  0  0  0  0  0  0  0  0  0  0
    1.0407    1.9771   -2.9341 C   0  0  0  0  0  0  0  0  0  0  0  0
    0.7006    2.9557   -2.0061 C   0  0  0  0  0  0  0  0  0  0  0  0
    0.1916    2.5589   -0.7703 C   0  0  0  0  0  0  0  0  0  0  0  0
   -0.3985    0.9580    0.5296 H   0  0  0  0  0  0  0  0  0  0  0  0
    0.2049   -0.8121   -1.1533 H   0  0  0  0  0  0  0  0  0  0  0  0
    1.4371    2.2396   -3.9082 H   0  0  0  0  0  0  0  0  0  0  0  0
    0.8240    4.0103   -2.2185 H   0  0  0  0  0  0  0  0  0  0  0  0
   -0.1631    3.5908    0.2155 N   0  0  0  0  0  0  0  0  0  0  0  0
    0.0140    4.7669   -0.1013 O   0  0  0  0  0  0  0  0  0  0  0  0
   -0.6136    3.2162    1.2974 O   0  0  0  0  0  0  0  0  0  0  0  0
    8.7115    1.3102   -8.4527 N   0  0  0  0  0  0  0  0  0  0  0  0
    9.4571    1.2646   -9.2671 N   0  0  0  0  0  0  0  0  0  0  0  0
    4.5488    0.2153   -2.7680 C   0  0  0  0  0  0  0  0  0  0  0  0
    5.6491    1.0047   -3.0941 C   0  0  0  0  0  0  0  0  0  0  0  0
    6.0330    1.2013   -4.4294 C   0  0  0  0  0  0  0  0  0  0  0  0
    5.2880    0.5754   -5.4406 C   0  0  0  0  0  0  0  0  0  0  0  0
    4.1837   -0.2172   -5.1382 C   0  0  0  0  0  0  0  0  0  0  0  0
    3.8239   -0.3870   -3.7990 C   0  0  0  0  0  0  0  0  0  0  0  0
    4.2649    0.0489   -1.7349 H   0  0  0  0  0  0  0  0  0  0  0  0
    6.2238    1.4692   -2.2977 H   0  0  0  0  0  0  0  0  0  0  0  0
    5.5836    0.7040   -6.4780 H   0  0  0  0  0  0  0  0  0  0  0  0
    3.6188   -0.7133   -5.9197 H   0  0  0  0  0  0  0  0  0  0  0  0
    2.4106   -1.3939   -3.4041 S   0  0  0  0  0  0  0  0  0  0  0  0
    1.1334   -0.3085   -3.5976 O   0  0  0  0  0  0  0  0  0  0  0  0
    2.4735   -1.7790   -1.9980 O   0  0  0  0  0  0  0  0  0  0  0  0
    2.1722   -2.3539   -4.4682 O   0  0  0  0  0  0  0  0  0  0  0  0
    7.2122    2.0786   -4.7701 C   0  0  0  0  0  0  0  0  0  0  0  0
    7.6175    1.8394   -5.7566 H   0  0  0  0  0  0  0  0  0  0  0  0
    6.9191    3.1359   -4.7821 H   0  0  0  0  0  0  0  0  0  0  0  0
    8.0145    1.9738   -4.0332 H   0  0  0  0  0  0  0  0  0  0  0  0
  1  7  1  0  0  0  0
  2  8  1  0  0  0  0
  2  1  2  0  0  0  0
  3  2  1  0  0  0  0
  4  3  2  0  0  0  0
  4  5  1  0  0  0  0
  5  6  2  0  0  0  0
  6  1  1  0  0  0  0
  6 11  1  0  0  0  0
  9  4  1  0  0  0  0
 10  5  1  0  0  0  0
 11 13  2  0  0  0  0
 12 11  2  0  0  0  0
 15 14  3  0  0  0  0
 16 22  1  0  0  0  0
 17 16  1  0  0  0  0
 17 23  1  0  0  0  0
 18 17  2  0  0  0  0
 19 20  2  0  0  0  0
 19 18  1  0  0  0  0
 20 21  1  0  0  0  0
 21 26  1  0  0  0  0
 21 16  2  0  0  0  0
 24 19  1  0  0  0  0
 25 20  1  0  0  0  0
 26 28  2  0  0  0  0
 27 26  1  0  0  0  0
 27  3  1  0  0  0  0
 29 26  2  0  0  0  0
 30 18  1  0  0  0  0
 30 33  1  0  0  0  0
 31 30  1  0  0  0  0
 32 30  1  0  0  0  0
M  END
