Coordinates from ORCA-job 4-NO2-Ph-N2-OTs-B3LYPG-6-31G_dp-MTMO-d009-169-n800
 OpenBabel09051908313D

 33 32  0  0  0  0  0  0  0  0999 V2000
    0.9062    1.1513   -1.8097 C   0  0  0  0  0  0  0  0  0  0  0  0
    0.8256    0.7163   -3.1450 C   0  0  0  0  0  0  0  0  0  0  0  0
   -0.0635    1.2827   -3.8462 C   0  0  0  0  0  0  0  0  0  0  0  0
   -1.0192    2.2489   -3.6889 C   0  0  0  0  0  0  0  0  0  0  0  0
   -0.9552    2.7027   -2.3593 C   0  0  0  0  0  0  0  0  0  0  0  0
   -0.0144    2.1570   -1.4660 C   0  0  0  0  0  0  0  0  0  0  0  0
    1.6065    0.7732   -1.0750 H   0  0  0  0  0  0  0  0  0  0  0  0
    2.1094   -0.5593   -3.7869 H   0  0  0  0  0  0  0  0  0  0  0  0
   -1.7160    2.6231   -4.4270 H   0  0  0  0  0  0  0  0  0  0  0  0
   -1.6282    3.4757   -2.0076 H   0  0  0  0  0  0  0  0  0  0  0  0
    0.0059    2.6785   -0.0851 N   0  0  0  0  0  0  0  0  0  0  0  0
   -0.8048    3.5559    0.2080 O   0  0  0  0  0  0  0  0  0  0  0  0
    0.8358    2.2019    0.6857 O   0  0  0  0  0  0  0  0  0  0  0  0
   -0.2856    0.6254   -6.0619 N   0  0  0  0  0  0  0  0  0  0  0  0
    0.0761   -0.0269   -6.8779 N   0  0  0  0  0  0  0  0  0  0  0  0
    5.0760    1.4694   -4.1420 C   0  0  0  0  0  0  0  0  0  0  0  0
    6.1517    2.0463   -3.4677 C   0  0  0  0  0  0  0  0  0  0  0  0
    7.2455    1.2751   -3.0529 C   0  0  0  0  0  0  0  0  0  0  0  0
    7.2394   -0.1005   -3.3339 C   0  0  0  0  0  0  0  0  0  0  0  0
    6.1756   -0.6944   -4.0070 C   0  0  0  0  0  0  0  0  0  0  0  0
    5.0967    0.0995   -4.4029 C   0  0  0  0  0  0  0  0  0  0  0  0
    4.2365    2.0698   -4.4751 H   0  0  0  0  0  0  0  0  0  0  0  0
    6.1419    3.1135   -3.2625 H   0  0  0  0  0  0  0  0  0  0  0  0
    8.0815   -0.7136   -3.0233 H   0  0  0  0  0  0  0  0  0  0  0  0
    6.1794   -1.7543   -4.2367 H   0  0  0  0  0  0  0  0  0  0  0  0
    3.7149   -0.6596   -5.2410 S   0  0  0  0  0  0  0  0  0  0  0  0
    2.9454    0.3923   -5.9128 O   0  0  0  0  0  0  0  0  0  0  0  0
    2.8096   -1.2280   -4.0151 O   0  0  0  0  0  0  0  0  0  0  0  0
    4.1940   -1.8321   -5.9589 O   0  0  0  0  0  0  0  0  0  0  0  0
    8.4183    1.9080   -2.3435 C   0  0  0  0  0  0  0  0  0  0  0  0
    9.2675    2.0342   -3.0262 H   0  0  0  0  0  0  0  0  0  0  0  0
    8.1632    2.8952   -1.9497 H   0  0  0  0  0  0  0  0  0  0  0  0
    8.7628    1.2876   -1.5103 H   0  0  0  0  0  0  0  0  0  0  0  0
  1  6  1  0  0  0  0
  1  7  1  0  0  0  0
  2  1  2  0  0  0  0
  3  4  2  0  0  0  0
  3  2  1  0  0  0  0
  4  5  1  0  0  0  0
  5 10  1  0  0  0  0
  5  6  2  0  0  0  0
  6 11  1  0  0  0  0
  9  4  1  0  0  0  0
 11 12  2  0  0  0  0
 11 13  2  0  0  0  0
 15 14  3  0  0  0  0
 16 17  1  0  0  0  0
 17 23  1  0  0  0  0
 17 18  2  0  0  0  0
 18 30  1  0  0  0  0
 19 18  1  0  0  0  0
 19 24  1  0  0  0  0
 20 19  2  0  0  0  0
 21 16  2  0  0  0  0
 21 20  1  0  0  0  0
 22 16  1  0  0  0  0
 25 20  1  0  0  0  0
 26 21  1  0  0  0  0
 26 28  1  0  0  0  0
 27 26  2  0  0  0  0
 28  8  1  0  0  0  0
 29 26  2  0  0  0  0
 30 32  1  0  0  0  0
 30 33  1  0  0  0  0
 31 30  1  0  0  0  0
M  RAD  2   2   2   3   2
M  END
