Coordinates from ORCA-job 4-NO2-Ph-N2-OTs-B3LYPG-6-31G_dp-MTMO-d009-169-n800
 OpenBabel09051908313D

 33 33  0  0  0  0  0  0  0  0999 V2000
    0.1231    1.1712   -0.1486 C   0  0  0  0  0  0  0  0  0  0  0  0
    0.3325    0.2006   -1.1226 C   0  0  0  0  0  0  0  0  0  0  0  0
    0.7029    0.5975   -2.4115 C   0  0  0  0  0  0  0  0  0  0  0  0
    0.8598    1.9470   -2.7417 C   0  0  0  0  0  0  0  0  0  0  0  0
    0.6434    2.9194   -1.7713 C   0  0  0  0  0  0  0  0  0  0  0  0
    0.2811    2.5150   -0.4872 C   0  0  0  0  0  0  0  0  0  0  0  0
   -0.1658    0.9074    0.8607 H   0  0  0  0  0  0  0  0  0  0  0  0
    0.2172   -0.8524   -0.8981 H   0  0  0  0  0  0  0  0  0  0  0  0
    1.1403    2.2154   -3.7538 H   0  0  0  0  0  0  0  0  0  0  0  0
    0.7510    3.9748   -1.9876 H   0  0  0  0  0  0  0  0  0  0  0  0
    0.0564    3.5406    0.5427 N   0  0  0  0  0  0  0  0  0  0  0  0
    0.2070    4.7180    0.2171 O   0  0  0  0  0  0  0  0  0  0  0  0
   -0.2669    3.1597    1.6670 O   0  0  0  0  0  0  0  0  0  0  0  0
   11.8955    1.2808   -7.7849 N   0  0  0  0  0  0  0  0  0  0  0  0
   12.8645    1.0744   -8.2749 N   0  0  0  0  0  0  0  0  0  0  0  0
    4.3545    0.2028   -3.0274 C   0  0  0  0  0  0  0  0  0  0  0  0
    5.3869    1.0255   -3.4762 C   0  0  0  0  0  0  0  0  0  0  0  0
    5.5683    1.2844   -4.8417 C   0  0  0  0  0  0  0  0  0  0  0  0
    4.6840    0.6946   -5.7601 C   0  0  0  0  0  0  0  0  0  0  0  0
    3.6475   -0.1303   -5.3353 C   0  0  0  0  0  0  0  0  0  0  0  0
    3.4927   -0.3663   -3.9658 C   0  0  0  0  0  0  0  0  0  0  0  0
    4.2246   -0.0082   -1.9718 H   0  0  0  0  0  0  0  0  0  0  0  0
    6.0638    1.4704   -2.7523 H   0  0  0  0  0  0  0  0  0  0  0  0
    4.8128    0.8825   -6.8228 H   0  0  0  0  0  0  0  0  0  0  0  0
    2.9741   -0.5959   -6.0467 H   0  0  0  0  0  0  0  0  0  0  0  0
    2.1554   -1.4027   -3.4131 S   0  0  0  0  0  0  0  0  0  0  0  0
    0.8493   -0.3355   -3.4285 O   0  0  0  0  0  0  0  0  0  0  0  0
    2.4000   -1.8059   -2.0323 O   0  0  0  0  0  0  0  0  0  0  0  0
    1.7992   -2.3508   -4.4545 O   0  0  0  0  0  0  0  0  0  0  0  0
    6.7042    2.1537   -5.3223 C   0  0  0  0  0  0  0  0  0  0  0  0
    7.5335    1.5400   -5.6948 H   0  0  0  0  0  0  0  0  0  0  0  0
    6.3898    2.8038   -6.1448 H   0  0  0  0  0  0  0  0  0  0  0  0
    7.0954    2.7832   -4.5192 H   0  0  0  0  0  0  0  0  0  0  0  0
  1  7  1  0  0  0  0
  2  8  1  0  0  0  0
  2  1  2  0  0  0  0
  3  2  1  0  0  0  0
  4  3  2  0  0  0  0
  4  5  1  0  0  0  0
  5  6  2  0  0  0  0
  6  1  1  0  0  0  0
  6 11  1  0  0  0  0
  9  4  1  0  0  0  0
 10  5  1  0  0  0  0
 11 13  2  0  0  0  0
 12 11  2  0  0  0  0
 15 14  3  0  0  0  0
 16 22  1  0  0  0  0
 17 16  1  0  0  0  0
 17 23  1  0  0  0  0
 18 17  2  0  0  0  0
 19 20  2  0  0  0  0
 19 18  1  0  0  0  0
 20 21  1  0  0  0  0
 21 26  1  0  0  0  0
 21 16  2  0  0  0  0
 24 19  1  0  0  0  0
 25 20  1  0  0  0  0
 26 28  2  0  0  0  0
 27 26  1  0  0  0  0
 27  3  1  0  0  0  0
 29 26  2  0  0  0  0
 30 18  1  0  0  0  0
 30 33  1  0  0  0  0
 31 30  1  0  0  0  0
 32 30  1  0  0  0  0
M  END
