Coordinates from ORCA-job 4-NO2-Ph-N2-OTs-B3LYPG-6-31G_dp-MTMO-d009-169-n800
 OpenBabel09051908313D

 33 33  0  0  0  0  0  0  0  0999 V2000
   -0.0579    0.8976   -1.1974 C   0  0  0  0  0  0  0  0  0  0  0  0
    0.4957    0.1068   -2.1989 C   0  0  0  0  0  0  0  0  0  0  0  0
    1.2642    0.7125   -3.1983 C   0  0  0  0  0  0  0  0  0  0  0  0
    1.4800    2.0937   -3.2156 C   0  0  0  0  0  0  0  0  0  0  0  0
    0.9217    2.8870   -2.2189 C   0  0  0  0  0  0  0  0  0  0  0  0
    0.1636    2.2745   -1.2218 C   0  0  0  0  0  0  0  0  0  0  0  0
   -0.6592    0.4694   -0.4053 H   0  0  0  0  0  0  0  0  0  0  0  0
    0.3446   -0.9653   -2.2145 H   0  0  0  0  0  0  0  0  0  0  0  0
    2.0737    2.5273   -4.0125 H   0  0  0  0  0  0  0  0  0  0  0  0
    1.0643    3.9601   -2.1971 H   0  0  0  0  0  0  0  0  0  0  0  0
   -0.4221    3.1093   -0.1622 N   0  0  0  0  0  0  0  0  0  0  0  0
   -0.2056    4.3202   -0.2056 O   0  0  0  0  0  0  0  0  0  0  0  0
   -1.0906    2.5465    0.7037 O   0  0  0  0  0  0  0  0  0  0  0  0
    3.4383   -0.7669   -8.2622 N   0  0  0  0  0  0  0  0  0  0  0  0
    2.7108   -1.4541   -8.7304 N   0  0  0  0  0  0  0  0  0  0  0  0
    4.9051    0.3598   -2.6117 C   0  0  0  0  0  0  0  0  0  0  0  0
    5.9954    1.2242   -2.5383 C   0  0  0  0  0  0  0  0  0  0  0  0
    6.6292    1.6938   -3.6976 C   0  0  0  0  0  0  0  0  0  0  0  0
    6.1421    1.2745   -4.9457 C   0  0  0  0  0  0  0  0  0  0  0  0
    5.0546    0.4116   -5.0446 C   0  0  0  0  0  0  0  0  0  0  0  0
    4.4450   -0.0361   -3.8692 C   0  0  0  0  0  0  0  0  0  0  0  0
    4.4249   -0.0140   -1.7146 H   0  0  0  0  0  0  0  0  0  0  0  0
    6.3608    1.5368   -1.5642 H   0  0  0  0  0  0  0  0  0  0  0  0
    6.6245    1.6266   -5.8532 H   0  0  0  0  0  0  0  0  0  0  0  0
    4.6894    0.0797   -6.0101 H   0  0  0  0  0  0  0  0  0  0  0  0
    3.0369   -1.1181   -3.9835 S   0  0  0  0  0  0  0  0  0  0  0  0
    1.7738   -0.0326   -4.2525 O   0  0  0  0  0  0  0  0  0  0  0  0
    2.8185   -1.7617   -2.6922 O   0  0  0  0  0  0  0  0  0  0  0  0
    3.0804   -1.8637   -5.2303 O   0  0  0  0  0  0  0  0  0  0  0  0
    7.8285    2.6045   -3.6072 C   0  0  0  0  0  0  0  0  0  0  0  0
    7.8824    3.2817   -4.4646 H   0  0  0  0  0  0  0  0  0  0  0  0
    7.8073    3.2067   -2.6946 H   0  0  0  0  0  0  0  0  0  0  0  0
    8.7580    2.0223   -3.5933 H   0  0  0  0  0  0  0  0  0  0  0  0
  1  7  1  0  0  0  0
  2  1  2  0  0  0  0
  3  2  1  0  0  0  0
  4  3  2  0  0  0  0
  4  5  1  0  0  0  0
  5 10  1  0  0  0  0
  5  6  2  0  0  0  0
  6  1  1  0  0  0  0
  6 11  1  0  0  0  0
  8  2  1  0  0  0  0
  9  4  1  0  0  0  0
 11 13  2  0  0  0  0
 12 11  2  0  0  0  0
 15 14  3  0  0  0  0
 16 17  1  0  0  0  0
 16 22  1  0  0  0  0
 17 23  1  0  0  0  0
 18 30  1  0  0  0  0
 18 17  2  0  0  0  0
 19 18  1  0  0  0  0
 20 19  2  0  0  0  0
 20 21  1  0  0  0  0
 21 16  2  0  0  0  0
 24 19  1  0  0  0  0
 25 20  1  0  0  0  0
 26 21  1  0  0  0  0
 26 28  2  0  0  0  0
 27 26  1  0  0  0  0
 27  3  1  0  0  0  0
 29 26  2  0  0  0  0
 30 33  1  0  0  0  0
 30 32  1  0  0  0  0
 31 30  1  0  0  0  0
M  END
