Coordinates from ORCA-job 4-NO2-Ph-N2-OTs-B3LYPG-6-31G_dp-MTMO-d009-169-n800
 OpenBabel09051908313D

 33 33  0  0  0  0  0  0  0  0999 V2000
   -0.0298    1.2191   -0.0741 C   0  0  0  0  0  0  0  0  0  0  0  0
    0.1521    0.2403   -1.0455 C   0  0  0  0  0  0  0  0  0  0  0  0
    0.5369    0.6229   -2.3346 C   0  0  0  0  0  0  0  0  0  0  0  0
    0.7354    1.9662   -2.6674 C   0  0  0  0  0  0  0  0  0  0  0  0
    0.5469    2.9469   -1.6995 C   0  0  0  0  0  0  0  0  0  0  0  0
    0.1699    2.5566   -0.4153 C   0  0  0  0  0  0  0  0  0  0  0  0
   -0.3285    0.9665    0.9351 H   0  0  0  0  0  0  0  0  0  0  0  0
    0.0043   -0.8081   -0.8191 H   0  0  0  0  0  0  0  0  0  0  0  0
    1.0264    2.2236   -3.6794 H   0  0  0  0  0  0  0  0  0  0  0  0
    0.6875    3.9981   -1.9177 H   0  0  0  0  0  0  0  0  0  0  0  0
   -0.0255    3.5909    0.6119 N   0  0  0  0  0  0  0  0  0  0  0  0
    0.1619    4.7624    0.2842 O   0  0  0  0  0  0  0  0  0  0  0  0
   -0.3627    3.2225    1.7363 O   0  0  0  0  0  0  0  0  0  0  0  0
   14.3080    1.6095   -8.9696 N   0  0  0  0  0  0  0  0  0  0  0  0
   15.2507    1.4173   -9.5137 N   0  0  0  0  0  0  0  0  0  0  0  0
    4.1725    0.1401   -2.9456 C   0  0  0  0  0  0  0  0  0  0  0  0
    5.2223    0.9403   -3.3946 C   0  0  0  0  0  0  0  0  0  0  0  0
    5.4096    1.1943   -4.7603 C   0  0  0  0  0  0  0  0  0  0  0  0
    4.5136    0.6224   -5.6785 C   0  0  0  0  0  0  0  0  0  0  0  0
    3.4594   -0.1800   -5.2535 C   0  0  0  0  0  0  0  0  0  0  0  0
    3.2990   -0.4112   -3.8839 C   0  0  0  0  0  0  0  0  0  0  0  0
    4.0377   -0.0670   -1.8899 H   0  0  0  0  0  0  0  0  0  0  0  0
    5.9081    1.3715   -2.6708 H   0  0  0  0  0  0  0  0  0  0  0  0
    4.6467    0.8066   -6.7413 H   0  0  0  0  0  0  0  0  0  0  0  0
    2.7765   -0.6315   -5.9648 H   0  0  0  0  0  0  0  0  0  0  0  0
    1.9373   -1.4152   -3.3308 S   0  0  0  0  0  0  0  0  0  0  0  0
    0.6573   -0.3170   -3.3484 O   0  0  0  0  0  0  0  0  0  0  0  0
    2.1712   -1.8219   -1.9492 O   0  0  0  0  0  0  0  0  0  0  0  0
    1.5594   -2.3560   -4.3712 O   0  0  0  0  0  0  0  0  0  0  0  0
    6.5634    2.0396   -5.2407 C   0  0  0  0  0  0  0  0  0  0  0  0
    7.3858    1.4081   -5.5987 H   0  0  0  0  0  0  0  0  0  0  0  0
    6.2666    2.6857   -6.0728 H   0  0  0  0  0  0  0  0  0  0  0  0
    6.9582    2.6715   -4.4410 H   0  0  0  0  0  0  0  0  0  0  0  0
  1  7  1  0  0  0  0
  2  8  1  0  0  0  0
  2  1  2  0  0  0  0
  3  2  1  0  0  0  0
  4  3  2  0  0  0  0
  4  5  1  0  0  0  0
  5  6  2  0  0  0  0
  6  1  1  0  0  0  0
  6 11  1  0  0  0  0
  9  4  1  0  0  0  0
 10  5  1  0  0  0  0
 11 13  2  0  0  0  0
 12 11  2  0  0  0  0
 15 14  3  0  0  0  0
 16 22  1  0  0  0  0
 17 16  1  0  0  0  0
 17 23  1  0  0  0  0
 18 17  2  0  0  0  0
 19 20  2  0  0  0  0
 19 18  1  0  0  0  0
 20 21  1  0  0  0  0
 21 26  1  0  0  0  0
 21 16  2  0  0  0  0
 24 19  1  0  0  0  0
 25 20  1  0  0  0  0
 26 28  2  0  0  0  0
 27 26  1  0  0  0  0
 27  3  1  0  0  0  0
 29 26  2  0  0  0  0
 30 18  1  0  0  0  0
 30 33  1  0  0  0  0
 31 30  1  0  0  0  0
 32 30  1  0  0  0  0
M  END
