Coordinates from ORCA-job 4-NO2-Ph-N2-OTs-B3LYPG-6-31G_dp-MTMO-d009-169-n800
 OpenBabel09051908313D

 33 33  0  0  0  0  0  0  0  0999 V2000
    0.1802    1.1377   -0.1828 C   0  0  0  0  0  0  0  0  0  0  0  0
    0.4218    0.1825   -1.1646 C   0  0  0  0  0  0  0  0  0  0  0  0
    0.7915    0.6017   -2.4467 C   0  0  0  0  0  0  0  0  0  0  0  0
    0.9157    1.9581   -2.7623 C   0  0  0  0  0  0  0  0  0  0  0  0
    0.6666    2.9148   -1.7842 C   0  0  0  0  0  0  0  0  0  0  0  0
    0.3056    2.4884   -0.5068 C   0  0  0  0  0  0  0  0  0  0  0  0
   -0.1090    0.8563    0.8216 H   0  0  0  0  0  0  0  0  0  0  0  0
    0.3323   -0.8752   -0.9509 H   0  0  0  0  0  0  0  0  0  0  0  0
    1.1961    2.2441   -3.7695 H   0  0  0  0  0  0  0  0  0  0  0  0
    0.7479    3.9749   -1.9896 H   0  0  0  0  0  0  0  0  0  0  0  0
    0.0466    3.4974    0.5313 N   0  0  0  0  0  0  0  0  0  0  0  0
    0.1678    4.6816    0.2183 O   0  0  0  0  0  0  0  0  0  0  0  0
   -0.2742    3.0969    1.6495 O   0  0  0  0  0  0  0  0  0  0  0  0
   10.5425    1.0237   -7.1458 N   0  0  0  0  0  0  0  0  0  0  0  0
   11.5337    0.8308   -7.5949 N   0  0  0  0  0  0  0  0  0  0  0  0
    4.4736    0.2607   -3.0815 C   0  0  0  0  0  0  0  0  0  0  0  0
    5.5029    1.0831   -3.5379 C   0  0  0  0  0  0  0  0  0  0  0  0
    5.6853    1.3285   -4.9059 C   0  0  0  0  0  0  0  0  0  0  0  0
    4.8038    0.7258   -5.8187 C   0  0  0  0  0  0  0  0  0  0  0  0
    3.7703   -0.0991   -5.3864 C   0  0  0  0  0  0  0  0  0  0  0  0
    3.6151   -0.3219   -4.0147 C   0  0  0  0  0  0  0  0  0  0  0  0
    4.3443    0.0593   -2.0239 H   0  0  0  0  0  0  0  0  0  0  0  0
    6.1773    1.5381   -2.8180 H   0  0  0  0  0  0  0  0  0  0  0  0
    4.9327    0.9032   -6.8832 H   0  0  0  0  0  0  0  0  0  0  0  0
    3.1001   -0.5753   -6.0937 H   0  0  0  0  0  0  0  0  0  0  0  0
    2.2882   -1.3672   -3.4533 S   0  0  0  0  0  0  0  0  0  0  0  0
    0.9693   -0.3154   -3.4730 O   0  0  0  0  0  0  0  0  0  0  0  0
    2.5390   -1.7600   -2.0706 O   0  0  0  0  0  0  0  0  0  0  0  0
    1.9415   -2.3255   -4.4888 O   0  0  0  0  0  0  0  0  0  0  0  0
    6.8171    2.1989   -5.3947 C   0  0  0  0  0  0  0  0  0  0  0  0
    7.6460    1.5891   -5.7746 H   0  0  0  0  0  0  0  0  0  0  0  0
    6.4947    2.8494   -6.2140 H   0  0  0  0  0  0  0  0  0  0  0  0
    7.2122    2.8293   -4.5940 H   0  0  0  0  0  0  0  0  0  0  0  0
  1  7  1  0  0  0  0
  2  8  1  0  0  0  0
  2  1  2  0  0  0  0
  3  2  1  0  0  0  0
  4  3  2  0  0  0  0
  4  5  1  0  0  0  0
  5  6  2  0  0  0  0
  6  1  1  0  0  0  0
  6 11  1  0  0  0  0
  9  4  1  0  0  0  0
 10  5  1  0  0  0  0
 11 13  2  0  0  0  0
 12 11  2  0  0  0  0
 15 14  3  0  0  0  0
 16 22  1  0  0  0  0
 17 16  1  0  0  0  0
 17 23  1  0  0  0  0
 18 17  2  0  0  0  0
 19 20  2  0  0  0  0
 19 18  1  0  0  0  0
 20 21  1  0  0  0  0
 21 26  1  0  0  0  0
 21 16  2  0  0  0  0
 24 19  1  0  0  0  0
 25 20  1  0  0  0  0
 26 28  2  0  0  0  0
 27 26  1  0  0  0  0
 27  3  1  0  0  0  0
 29 26  2  0  0  0  0
 30 18  1  0  0  0  0
 30 33  1  0  0  0  0
 31 30  1  0  0  0  0
 32 30  1  0  0  0  0
M  END
