Coordinates from ORCA-job 4-NO2-Ph-N2-OTs-B3LYPG-6-31G_dp-MTMO-d009-169-n800
 OpenBabel09051908313D

 33 33  0  0  0  0  0  0  0  0999 V2000
    0.0062    1.1916   -0.0818 C   0  0  0  0  0  0  0  0  0  0  0  0
    0.2003    0.2166   -1.0546 C   0  0  0  0  0  0  0  0  0  0  0  0
    0.5740    0.6063   -2.3448 C   0  0  0  0  0  0  0  0  0  0  0  0
    0.7495    1.9529   -2.6773 C   0  0  0  0  0  0  0  0  0  0  0  0
    0.5487    2.9297   -1.7080 C   0  0  0  0  0  0  0  0  0  0  0  0
    0.1828    2.5324   -0.4227 C   0  0  0  0  0  0  0  0  0  0  0  0
   -0.2847    0.9335    0.9283 H   0  0  0  0  0  0  0  0  0  0  0  0
    0.0704   -0.8342   -0.8284 H   0  0  0  0  0  0  0  0  0  0  0  0
    1.0324    2.2157   -3.6902 H   0  0  0  0  0  0  0  0  0  0  0  0
    0.6712    3.9832   -1.9261 H   0  0  0  0  0  0  0  0  0  0  0  0
   -0.0256    3.5627    0.6059 N   0  0  0  0  0  0  0  0  0  0  0  0
    0.1416    4.7373    0.2784 O   0  0  0  0  0  0  0  0  0  0  0  0
   -0.3528    3.1882    1.7312 O   0  0  0  0  0  0  0  0  0  0  0  0
   13.8559    1.4409   -8.7224 N   0  0  0  0  0  0  0  0  0  0  0  0
   14.8039    1.2411   -9.2544 N   0  0  0  0  0  0  0  0  0  0  0  0
    4.2162    0.1735   -2.9677 C   0  0  0  0  0  0  0  0  0  0  0  0
    5.2542    0.9874   -3.4194 C   0  0  0  0  0  0  0  0  0  0  0  0
    5.4338    1.2449   -4.7855 C   0  0  0  0  0  0  0  0  0  0  0  0
    4.5421    0.6627   -5.7014 C   0  0  0  0  0  0  0  0  0  0  0  0
    3.4997   -0.1535   -5.2737 C   0  0  0  0  0  0  0  0  0  0  0  0
    3.3468   -0.3881   -3.9038 C   0  0  0  0  0  0  0  0  0  0  0  0
    4.0874   -0.0364   -1.9118 H   0  0  0  0  0  0  0  0  0  0  0  0
    5.9368    1.4266   -2.6974 H   0  0  0  0  0  0  0  0  0  0  0  0
    4.6693    0.8497   -6.7644 H   0  0  0  0  0  0  0  0  0  0  0  0
    2.8203   -0.6130   -5.9832 H   0  0  0  0  0  0  0  0  0  0  0  0
    2.0007   -1.4110   -3.3473 S   0  0  0  0  0  0  0  0  0  0  0  0
    0.7056   -0.3306   -3.3601 O   0  0  0  0  0  0  0  0  0  0  0  0
    2.2446   -1.8156   -1.9668 O   0  0  0  0  0  0  0  0  0  0  0  0
    1.6325   -2.3561   -4.3873 O   0  0  0  0  0  0  0  0  0  0  0  0
    6.5758    2.1046   -5.2688 C   0  0  0  0  0  0  0  0  0  0  0  0
    7.4051    1.4833   -5.6285 H   0  0  0  0  0  0  0  0  0  0  0  0
    6.2692    2.7467   -6.1004 H   0  0  0  0  0  0  0  0  0  0  0  0
    6.9645    2.7416   -4.4701 H   0  0  0  0  0  0  0  0  0  0  0  0
  1  7  1  0  0  0  0
  2  8  1  0  0  0  0
  2  1  2  0  0  0  0
  3  2  1  0  0  0  0
  4  3  2  0  0  0  0
  4  5  1  0  0  0  0
  5  6  2  0  0  0  0
  6  1  1  0  0  0  0
  6 11  1  0  0  0  0
  9  4  1  0  0  0  0
 10  5  1  0  0  0  0
 11 13  2  0  0  0  0
 12 11  2  0  0  0  0
 15 14  3  0  0  0  0
 16 22  1  0  0  0  0
 17 16  1  0  0  0  0
 17 23  1  0  0  0  0
 18 17  2  0  0  0  0
 19 20  2  0  0  0  0
 19 18  1  0  0  0  0
 20 21  1  0  0  0  0
 21 26  1  0  0  0  0
 21 16  2  0  0  0  0
 24 19  1  0  0  0  0
 25 20  1  0  0  0  0
 26 28  2  0  0  0  0
 27 26  1  0  0  0  0
 27  3  1  0  0  0  0
 29 26  2  0  0  0  0
 30 18  1  0  0  0  0
 30 33  1  0  0  0  0
 31 30  1  0  0  0  0
 32 30  1  0  0  0  0
M  END
