Coordinates from ORCA-job 4-NO2-Ph-N2-OTs-B3LYPG-6-31G_dp-MTMO-d009-169-n800
 OpenBabel09051908313D

 33 33  0  0  0  0  0  0  0  0999 V2000
    0.0301    1.1840   -0.0922 C   0  0  0  0  0  0  0  0  0  0  0  0
    0.2281    0.2101   -1.0654 C   0  0  0  0  0  0  0  0  0  0  0  0
    0.5984    0.6020   -2.3559 C   0  0  0  0  0  0  0  0  0  0  0  0
    0.7664    1.9495   -2.6885 C   0  0  0  0  0  0  0  0  0  0  0  0
    0.5615    2.9251   -1.7188 C   0  0  0  0  0  0  0  0  0  0  0  0
    0.1992    2.5258   -0.4331 C   0  0  0  0  0  0  0  0  0  0  0  0
   -0.2584    0.9242    0.9182 H   0  0  0  0  0  0  0  0  0  0  0  0
    0.1040   -0.8414   -0.8392 H   0  0  0  0  0  0  0  0  0  0  0  0
    1.0467    2.2140   -3.7017 H   0  0  0  0  0  0  0  0  0  0  0  0
    0.6781    3.9793   -1.9369 H   0  0  0  0  0  0  0  0  0  0  0  0
   -0.0134    3.5548    0.5959 N   0  0  0  0  0  0  0  0  0  0  0  0
    0.1470    4.7304    0.2683 O   0  0  0  0  0  0  0  0  0  0  0  0
   -0.3371    3.1784    1.7215 O   0  0  0  0  0  0  0  0  0  0  0  0
   13.5055    1.3876   -8.5474 N   0  0  0  0  0  0  0  0  0  0  0  0
   14.4568    1.1864   -9.0729 N   0  0  0  0  0  0  0  0  0  0  0  0
    4.2426    0.1834   -2.9799 C   0  0  0  0  0  0  0  0  0  0  0  0
    5.2777    1.0011   -3.4314 C   0  0  0  0  0  0  0  0  0  0  0  0
    5.4563    1.2596   -4.7974 C   0  0  0  0  0  0  0  0  0  0  0  0
    4.5665    0.6746   -5.7134 C   0  0  0  0  0  0  0  0  0  0  0  0
    3.5270   -0.1453   -5.2859 C   0  0  0  0  0  0  0  0  0  0  0  0
    3.3751   -0.3809   -3.9161 C   0  0  0  0  0  0  0  0  0  0  0  0
    4.1147   -0.0272   -1.9240 H   0  0  0  0  0  0  0  0  0  0  0  0
    5.9589    1.4424   -2.7094 H   0  0  0  0  0  0  0  0  0  0  0  0
    4.6930    0.8624   -6.7764 H   0  0  0  0  0  0  0  0  0  0  0  0
    2.8491   -0.6071   -5.9955 H   0  0  0  0  0  0  0  0  0  0  0  0
    2.0331   -1.4092   -3.3597 S   0  0  0  0  0  0  0  0  0  0  0  0
    0.7337   -0.3340   -3.3717 O   0  0  0  0  0  0  0  0  0  0  0  0
    2.2790   -1.8136   -1.9795 O   0  0  0  0  0  0  0  0  0  0  0  0
    1.6682   -2.3552   -4.4001 O   0  0  0  0  0  0  0  0  0  0  0  0
    6.5954    2.1232   -5.2806 C   0  0  0  0  0  0  0  0  0  0  0  0
    7.4261    1.5048   -5.6421 H   0  0  0  0  0  0  0  0  0  0  0  0
    6.2861    2.7655   -6.1111 H   0  0  0  0  0  0  0  0  0  0  0  0
    6.9830    2.7602   -4.4815 H   0  0  0  0  0  0  0  0  0  0  0  0
  1  7  1  0  0  0  0
  2  8  1  0  0  0  0
  2  1  2  0  0  0  0
  3  2  1  0  0  0  0
  4  3  2  0  0  0  0
  4  5  1  0  0  0  0
  5  6  2  0  0  0  0
  6  1  1  0  0  0  0
  6 11  1  0  0  0  0
  9  4  1  0  0  0  0
 10  5  1  0  0  0  0
 11 13  2  0  0  0  0
 12 11  2  0  0  0  0
 15 14  3  0  0  0  0
 16 22  1  0  0  0  0
 17 16  1  0  0  0  0
 17 23  1  0  0  0  0
 18 17  2  0  0  0  0
 19 20  2  0  0  0  0
 19 18  1  0  0  0  0
 20 21  1  0  0  0  0
 21 26  1  0  0  0  0
 21 16  2  0  0  0  0
 24 19  1  0  0  0  0
 25 20  1  0  0  0  0
 26 28  2  0  0  0  0
 27 26  1  0  0  0  0
 27  3  1  0  0  0  0
 29 26  2  0  0  0  0
 30 18  1  0  0  0  0
 30 33  1  0  0  0  0
 31 30  1  0  0  0  0
 32 30  1  0  0  0  0
M  END
