Coordinates from ORCA-job 4-NO2-Ph-N2-OTs-B3LYPG-6-31G_dp-MTMO-d009-169-n800
 OpenBabel09051908313D

 33 33  0  0  0  0  0  0  0  0999 V2000
   -0.0245    1.2535   -0.5323 C   0  0  0  0  0  0  0  0  0  0  0  0
    0.3353    0.2643   -1.4418 C   0  0  0  0  0  0  0  0  0  0  0  0
    0.8913    0.6378   -2.6699 C   0  0  0  0  0  0  0  0  0  0  0  0
    1.0830    1.9819   -3.0040 C   0  0  0  0  0  0  0  0  0  0  0  0
    0.7149    2.9724   -2.0997 C   0  0  0  0  0  0  0  0  0  0  0  0
    0.1700    2.5915   -0.8741 C   0  0  0  0  0  0  0  0  0  0  0  0
   -0.4570    1.0073    0.4289 H   0  0  0  0  0  0  0  0  0  0  0  0
    0.1964   -0.7843   -1.2120 H   0  0  0  0  0  0  0  0  0  0  0  0
    1.5074    2.2319   -3.9695 H   0  0  0  0  0  0  0  0  0  0  0  0
    0.8438    4.0241   -2.3225 H   0  0  0  0  0  0  0  0  0  0  0  0
   -0.2144    3.6360    0.0869 N   0  0  0  0  0  0  0  0  0  0  0  0
   -0.0301    4.8080   -0.2407 O   0  0  0  0  0  0  0  0  0  0  0  0
   -0.6954    3.2752    1.1604 O   0  0  0  0  0  0  0  0  0  0  0  0
    8.0040    1.5250   -8.6433 N   0  0  0  0  0  0  0  0  0  0  0  0
    8.5604    1.6083   -9.5945 N   0  0  0  0  0  0  0  0  0  0  0  0
    4.5797    0.1983   -2.6862 C   0  0  0  0  0  0  0  0  0  0  0  0
    5.6996    0.9718   -2.9775 C   0  0  0  0  0  0  0  0  0  0  0  0
    6.1444    1.1395   -4.2988 C   0  0  0  0  0  0  0  0  0  0  0  0
    5.4361    0.5067   -5.3306 C   0  0  0  0  0  0  0  0  0  0  0  0
    4.3113   -0.2710   -5.0625 C   0  0  0  0  0  0  0  0  0  0  0  0
    3.8939   -0.4158   -3.7380 C   0  0  0  0  0  0  0  0  0  0  0  0
    4.2483    0.0542   -1.6640 H   0  0  0  0  0  0  0  0  0  0  0  0
    6.2423    1.4475   -2.1654 H   0  0  0  0  0  0  0  0  0  0  0  0
    5.7756    0.6188   -6.3563 H   0  0  0  0  0  0  0  0  0  0  0  0
    3.7735   -0.7721   -5.8598 H   0  0  0  0  0  0  0  0  0  0  0  0
    2.4566   -1.4049   -3.3868 S   0  0  0  0  0  0  0  0  0  0  0  0
    1.1967   -0.3109   -3.6354 O   0  0  0  0  0  0  0  0  0  0  0  0
    2.4651   -1.7784   -1.9761 O   0  0  0  0  0  0  0  0  0  0  0  0
    2.2482   -2.3720   -4.4508 O   0  0  0  0  0  0  0  0  0  0  0  0
    7.3648    1.9769   -4.5943 C   0  0  0  0  0  0  0  0  0  0  0  0
    7.5845    2.0009   -5.6643 H   0  0  0  0  0  0  0  0  0  0  0  0
    7.2267    3.0090   -4.2530 H   0  0  0  0  0  0  0  0  0  0  0  0
    8.2461    1.5835   -4.0762 H   0  0  0  0  0  0  0  0  0  0  0  0
  1  7  1  0  0  0  0
  2  8  1  0  0  0  0
  2  1  2  0  0  0  0
  3  2  1  0  0  0  0
  4  3  2  0  0  0  0
  4  5  1  0  0  0  0
  5  6  2  0  0  0  0
  6  1  1  0  0  0  0
  6 11  1  0  0  0  0
  9  4  1  0  0  0  0
 10  5  1  0  0  0  0
 11 13  2  0  0  0  0
 12 11  2  0  0  0  0
 15 14  3  0  0  0  0
 16 22  1  0  0  0  0
 17 16  1  0  0  0  0
 17 23  1  0  0  0  0
 18 17  2  0  0  0  0
 19 20  2  0  0  0  0
 19 18  1  0  0  0  0
 20 21  1  0  0  0  0
 21 26  1  0  0  0  0
 21 16  2  0  0  0  0
 24 19  1  0  0  0  0
 25 20  1  0  0  0  0
 26 28  2  0  0  0  0
 27 26  1  0  0  0  0
 27  3  1  0  0  0  0
 29 26  2  0  0  0  0
 30 18  1  0  0  0  0
 30 32  1  0  0  0  0
 30 33  1  0  0  0  0
 31 30  1  0  0  0  0
M  END
