Coordinates from ORCA-job 4-NO2-Ph-N2-OTs-B3LYPG-6-31G_dp-MTMO-d009-169-n800
 OpenBabel09051908313D

 33 34  0  0  0  0  0  0  0  0999 V2000
   -1.5538    0.8793   -2.1885 C   0  0  0  0  0  0  0  0  0  0  0  0
   -0.5381   -0.0001   -2.5635 C   0  0  0  0  0  0  0  0  0  0  0  0
    0.5659    0.5233   -3.2175 C   0  0  0  0  0  0  0  0  0  0  0  0
    0.7058    1.8612   -3.5579 C   0  0  0  0  0  0  0  0  0  0  0  0
   -0.3152    2.7357   -3.1904 C   0  0  0  0  0  0  0  0  0  0  0  0
   -1.4236    2.2289   -2.5113 C   0  0  0  0  0  0  0  0  0  0  0  0
   -2.4374    0.5383   -1.6641 H   0  0  0  0  0  0  0  0  0  0  0  0
   -0.6040   -1.0598   -2.3451 H   0  0  0  0  0  0  0  0  0  0  0  0
    1.5870    2.2181   -4.0772 H   0  0  0  0  0  0  0  0  0  0  0  0
   -0.2673    3.7933   -3.4173 H   0  0  0  0  0  0  0  0  0  0  0  0
   -2.5017    3.1568   -2.1261 N   0  0  0  0  0  0  0  0  0  0  0  0
   -2.3644    4.3420   -2.4233 O   0  0  0  0  0  0  0  0  0  0  0  0
   -3.4714    2.6869   -1.5338 O   0  0  0  0  0  0  0  0  0  0  0  0
    1.6898   -0.5942   -3.7776 N   0  0  0  0  0  0  0  0  0  0  0  0
    2.7921   -0.6287   -3.2853 N   0  0  0  0  0  0  0  0  0  0  0  0
    6.0908    1.8349   -2.8529 C   0  0  0  0  0  0  0  0  0  0  0  0
    7.0348    2.1219   -3.8336 C   0  0  0  0  0  0  0  0  0  0  0  0
    7.5703    1.1091   -4.6462 C   0  0  0  0  0  0  0  0  0  0  0  0
    7.1331   -0.2081   -4.4511 C   0  0  0  0  0  0  0  0  0  0  0  0
    6.1883   -0.5189   -3.4741 C   0  0  0  0  0  0  0  0  0  0  0  0
    5.6747    0.5110   -2.6856 C   0  0  0  0  0  0  0  0  0  0  0  0
    5.6899    2.6139   -2.2140 H   0  0  0  0  0  0  0  0  0  0  0  0
    7.3683    3.1476   -3.9671 H   0  0  0  0  0  0  0  0  0  0  0  0
    7.5407   -1.0039   -5.0680 H   0  0  0  0  0  0  0  0  0  0  0  0
    5.8588   -1.5392   -3.3162 H   0  0  0  0  0  0  0  0  0  0  0  0
    4.4748    0.1347   -1.4262 S   0  0  0  0  0  0  0  0  0  0  0  0
    2.9990    0.3800   -2.2150 O   0  0  0  0  0  0  0  0  0  0  0  0
    4.4570    1.1975   -0.4317 O   0  0  0  0  0  0  0  0  0  0  0  0
    4.5676   -1.2744   -1.0729 O   0  0  0  0  0  0  0  0  0  0  0  0
    8.6095    1.4379   -5.6903 C   0  0  0  0  0  0  0  0  0  0  0  0
    8.2844    2.2671   -6.3279 H   0  0  0  0  0  0  0  0  0  0  0  0
    9.5517    1.7440   -5.2212 H   0  0  0  0  0  0  0  0  0  0  0  0
    8.8208    0.5786   -6.3314 H   0  0  0  0  0  0  0  0  0  0  0  0
  1  7  1  0  0  0  0
  2  8  1  0  0  0  0
  2  1  2  0  0  0  0
  3  2  1  0  0  0  0
  4  3  2  0  0  0  0
  4  5  1  0  0  0  0
  5  6  2  0  0  0  0
  6  1  1  0  0  0  0
  6 11  1  0  0  0  0
  9  4  1  0  0  0  0
 10  5  1  0  0  0  0
 11 13  2  0  0  0  0
 12 11  2  0  0  0  0
 14 15  1  0  0  0  0
 14  3  1  0  0  0  0
 15 27  1  0  0  0  0
 16 21  1  0  0  0  0
 16 22  1  0  0  0  0
 17 16  2  0  0  0  0
 18 19  2  0  0  0  0
 18 17  1  0  0  0  0
 19 20  1  0  0  0  0
 20 25  1  0  0  0  0
 20 21  2  0  0  0  0
 21 26  1  0  0  0  0
 23 17  1  0  0  0  0
 24 19  1  0  0  0  0
 26 29  2  0  0  0  0
 26 28  2  0  0  0  0
 27 26  1  0  0  0  0
 30 32  1  0  0  0  0
 30 18  1  0  0  0  0
 31 30  1  0  0  0  0
 33 30  1  0  0  0  0
M  RAD  2  14   2  15   2
M  END
