Coordinates from ORCA-job 4-NO2-Ph-N2-OTs-B3LYPG-6-31G_dp-MTMO-d009-169-n800
 OpenBabel09051908313D

 33 33  0  0  0  0  0  0  0  0999 V2000
   -0.0944    1.5444   -0.1566 C   0  0  0  0  0  0  0  0  0  0  0  0
   -0.0312    0.5434   -1.1205 C   0  0  0  0  0  0  0  0  0  0  0  0
    0.4392    0.8581   -2.3996 C   0  0  0  0  0  0  0  0  0  0  0  0
    0.8366    2.1572   -2.7306 C   0  0  0  0  0  0  0  0  0  0  0  0
    0.7654    3.1612   -1.7709 C   0  0  0  0  0  0  0  0  0  0  0  0
    0.3043    2.8372   -0.4957 C   0  0  0  0  0  0  0  0  0  0  0  0
   -0.4522    1.3438    0.8450 H   0  0  0  0  0  0  0  0  0  0  0  0
   -0.3354   -0.4707   -0.8952 H   0  0  0  0  0  0  0  0  0  0  0  0
    1.1866    2.3643   -3.7354 H   0  0  0  0  0  0  0  0  0  0  0  0
    1.0607    4.1796   -1.9885 H   0  0  0  0  0  0  0  0  0  0  0  0
    0.2340    3.8948    0.5234 N   0  0  0  0  0  0  0  0  0  0  0  0
    0.5865    5.0274    0.1950 O   0  0  0  0  0  0  0  0  0  0  0  0
   -0.1712    3.5833    1.6425 O   0  0  0  0  0  0  0  0  0  0  0  0
   14.6841    3.4546   -9.4366 N   0  0  0  0  0  0  0  0  0  0  0  0
   15.5267    3.5063  -10.1501 N   0  0  0  0  0  0  0  0  0  0  0  0
    3.9607   -0.2218   -2.8361 C   0  0  0  0  0  0  0  0  0  0  0  0
    5.1547    0.3806   -3.2295 C   0  0  0  0  0  0  0  0  0  0  0  0
    5.4609    0.5693   -4.5844 C   0  0  0  0  0  0  0  0  0  0  0  0
    4.5355    0.1373   -5.5485 C   0  0  0  0  0  0  0  0  0  0  0  0
    3.3375   -0.4665   -5.1792 C   0  0  0  0  0  0  0  0  0  0  0  0
    3.0621   -0.6385   -3.8196 C   0  0  0  0  0  0  0  0  0  0  0  0
    3.7317   -0.3804   -1.7882 H   0  0  0  0  0  0  0  0  0  0  0  0
    5.8605    0.7069   -2.4709 H   0  0  0  0  0  0  0  0  0  0  0  0
    4.7594    0.2734   -6.6033 H   0  0  0  0  0  0  0  0  0  0  0  0
    2.6300   -0.8117   -5.9250 H   0  0  0  0  0  0  0  0  0  0  0  0
    1.5238   -1.3927   -3.3379 S   0  0  0  0  0  0  0  0  0  0  0  0
    0.4513   -0.0932   -3.4097 O   0  0  0  0  0  0  0  0  0  0  0  0
    1.6192   -1.8312   -1.9494 O   0  0  0  0  0  0  0  0  0  0  0  0
    1.0410   -2.2577   -4.4006 O   0  0  0  0  0  0  0  0  0  0  0  0
    6.7681    1.1962   -5.0028 C   0  0  0  0  0  0  0  0  0  0  0  0
    7.5055    0.4250   -5.2567 H   0  0  0  0  0  0  0  0  0  0  0  0
    6.6423    1.8283   -5.8869 H   0  0  0  0  0  0  0  0  0  0  0  0
    7.1945    1.8066   -4.2021 H   0  0  0  0  0  0  0  0  0  0  0  0
  1  7  1  0  0  0  0
  2  8  1  0  0  0  0
  2  1  2  0  0  0  0
  3  2  1  0  0  0  0
  4  3  2  0  0  0  0
  4  5  1  0  0  0  0
  5  6  2  0  0  0  0
  6  1  1  0  0  0  0
  6 11  1  0  0  0  0
  9  4  1  0  0  0  0
 10  5  1  0  0  0  0
 11 13  2  0  0  0  0
 12 11  2  0  0  0  0
 15 14  3  0  0  0  0
 16 22  1  0  0  0  0
 17 16  1  0  0  0  0
 17 23  1  0  0  0  0
 18 17  2  0  0  0  0
 19 20  2  0  0  0  0
 19 18  1  0  0  0  0
 20 21  1  0  0  0  0
 21 26  1  0  0  0  0
 21 16  2  0  0  0  0
 24 19  1  0  0  0  0
 25 20  1  0  0  0  0
 26 28  2  0  0  0  0
 27 26  1  0  0  0  0
 27  3  1  0  0  0  0
 29 26  2  0  0  0  0
 30 18  1  0  0  0  0
 30 33  1  0  0  0  0
 31 30  1  0  0  0  0
 32 30  1  0  0  0  0
M  END
