Coordinates from ORCA-job 4-NO2-Ph-N2-OTs-B3LYPG-6-31G_dp-MTMO-d009-169-n800
 OpenBabel09051908313D

 33 33  0  0  0  0  0  0  0  0999 V2000
   -0.0397    0.8716   -1.2961 C   0  0  0  0  0  0  0  0  0  0  0  0
    0.5500    0.0497   -2.2509 C   0  0  0  0  0  0  0  0  0  0  0  0
    1.3281    0.6270   -3.2595 C   0  0  0  0  0  0  0  0  0  0  0  0
    1.5182    2.0100   -3.3323 C   0  0  0  0  0  0  0  0  0  0  0  0
    0.9238    2.8342   -2.3825 C   0  0  0  0  0  0  0  0  0  0  0  0
    0.1564    2.2502   -1.3756 C   0  0  0  0  0  0  0  0  0  0  0  0
   -0.6493    0.4660   -0.4985 H   0  0  0  0  0  0  0  0  0  0  0  0
    0.4201   -1.0249   -2.2227 H   0  0  0  0  0  0  0  0  0  0  0  0
    2.1208    2.4210   -4.1345 H   0  0  0  0  0  0  0  0  0  0  0  0
    1.0458    3.9099   -2.4044 H   0  0  0  0  0  0  0  0  0  0  0  0
   -0.4672    3.1179   -0.3652 N   0  0  0  0  0  0  0  0  0  0  0  0
   -0.2743    4.3301   -0.4574 O   0  0  0  0  0  0  0  0  0  0  0  0
   -1.1414    2.5796    0.5118 O   0  0  0  0  0  0  0  0  0  0  0  0
    2.8028   -0.3631   -7.8960 N   0  0  0  0  0  0  0  0  0  0  0  0
    1.9311   -0.9371   -8.2586 N   0  0  0  0  0  0  0  0  0  0  0  0
    5.0064    0.3053   -2.5588 C   0  0  0  0  0  0  0  0  0  0  0  0
    6.0793    1.1919   -2.4888 C   0  0  0  0  0  0  0  0  0  0  0  0
    6.6817    1.6960   -3.6499 C   0  0  0  0  0  0  0  0  0  0  0  0
    6.1799    1.2905   -4.8970 C   0  0  0  0  0  0  0  0  0  0  0  0
    5.1106    0.4051   -4.9923 C   0  0  0  0  0  0  0  0  0  0  0  0
    4.5332   -0.0786   -3.8147 C   0  0  0  0  0  0  0  0  0  0  0  0
    4.5482   -0.0937   -1.6611 H   0  0  0  0  0  0  0  0  0  0  0  0
    6.4551    1.4950   -1.5156 H   0  0  0  0  0  0  0  0  0  0  0  0
    6.6362    1.6718   -5.8062 H   0  0  0  0  0  0  0  0  0  0  0  0
    4.7307    0.0892   -5.9577 H   0  0  0  0  0  0  0  0  0  0  0  0
    3.1539   -1.1979   -3.9235 S   0  0  0  0  0  0  0  0  0  0  0  0
    1.8748   -0.1538   -4.2685 O   0  0  0  0  0  0  0  0  0  0  0  0
    2.9167   -1.7968   -2.6143 O   0  0  0  0  0  0  0  0  0  0  0  0
    3.2461   -1.9894   -5.1389 O   0  0  0  0  0  0  0  0  0  0  0  0
    7.8630    2.6304   -3.5645 C   0  0  0  0  0  0  0  0  0  0  0  0
    7.8787    3.3334   -4.4026 H   0  0  0  0  0  0  0  0  0  0  0  0
    7.8537    3.2052   -2.6344 H   0  0  0  0  0  0  0  0  0  0  0  0
    8.8049    2.0691   -3.5931 H   0  0  0  0  0  0  0  0  0  0  0  0
  1  7  1  0  0  0  0
  2  8  1  0  0  0  0
  2  1  2  0  0  0  0
  3  2  1  0  0  0  0
  4  3  2  0  0  0  0
  4  5  1  0  0  0  0
  5  6  2  0  0  0  0
  6  1  1  0  0  0  0
  6 11  1  0  0  0  0
  9  4  1  0  0  0  0
 10  5  1  0  0  0  0
 11 13  2  0  0  0  0
 12 11  2  0  0  0  0
 15 14  3  0  0  0  0
 16 17  1  0  0  0  0
 16 22  1  0  0  0  0
 17 23  1  0  0  0  0
 18 30  1  0  0  0  0
 18 17  2  0  0  0  0
 19 18  1  0  0  0  0
 20 19  2  0  0  0  0
 20 21  1  0  0  0  0
 21 16  2  0  0  0  0
 24 19  1  0  0  0  0
 25 20  1  0  0  0  0
 26 21  1  0  0  0  0
 26 28  2  0  0  0  0
 27 26  1  0  0  0  0
 27  3  1  0  0  0  0
 29 26  2  0  0  0  0
 30 32  1  0  0  0  0
 31 30  1  0  0  0  0
 33 30  1  0  0  0  0
M  END
