Coordinates from ORCA-job 4-NO2-Ph-N2-OTs-B3LYPG-6-31G_dp-MTMO-d009-169-n800
 OpenBabel09051908313D

 33 33  0  0  0  0  0  0  0  0999 V2000
   -0.0304    1.2366   -0.7016 C   0  0  0  0  0  0  0  0  0  0  0  0
    0.3659    0.2625   -1.6123 C   0  0  0  0  0  0  0  0  0  0  0  0
    0.9717    0.6560   -2.8103 C   0  0  0  0  0  0  0  0  0  0  0  0
    1.1770    2.0053   -3.1136 C   0  0  0  0  0  0  0  0  0  0  0  0
    0.7725    2.9808   -2.2087 C   0  0  0  0  0  0  0  0  0  0  0  0
    0.1781    2.5800   -1.0127 C   0  0  0  0  0  0  0  0  0  0  0  0
   -0.5016    0.9745    0.2370 H   0  0  0  0  0  0  0  0  0  0  0  0
    0.2177   -0.7899   -1.4062 H   0  0  0  0  0  0  0  0  0  0  0  0
    1.6408    2.2712   -4.0566 H   0  0  0  0  0  0  0  0  0  0  0  0
    0.9108    4.0360   -2.4084 H   0  0  0  0  0  0  0  0  0  0  0  0
   -0.2449    3.6085   -0.0508 N   0  0  0  0  0  0  0  0  0  0  0  0
   -0.0482    4.7858   -0.3514 O   0  0  0  0  0  0  0  0  0  0  0  0
   -0.7680    3.2303    0.9967 O   0  0  0  0  0  0  0  0  0  0  0  0
    6.7857    1.0504   -8.8733 N   0  0  0  0  0  0  0  0  0  0  0  0
    7.1355    1.0074   -9.9206 N   0  0  0  0  0  0  0  0  0  0  0  0
    4.6492    0.1637   -2.5805 C   0  0  0  0  0  0  0  0  0  0  0  0
    5.7793    0.9594   -2.7633 C   0  0  0  0  0  0  0  0  0  0  0  0
    6.2791    1.2278   -4.0448 C   0  0  0  0  0  0  0  0  0  0  0  0
    5.6167    0.6775   -5.1549 C   0  0  0  0  0  0  0  0  0  0  0  0
    4.4879   -0.1199   -4.9955 C   0  0  0  0  0  0  0  0  0  0  0  0
    4.0140   -0.3679   -3.7035 C   0  0  0  0  0  0  0  0  0  0  0  0
    4.2721   -0.0552   -1.5879 H   0  0  0  0  0  0  0  0  0  0  0  0
    6.2825    1.3748   -1.8949 H   0  0  0  0  0  0  0  0  0  0  0  0
    5.9937    0.8715   -6.1551 H   0  0  0  0  0  0  0  0  0  0  0  0
    3.9855   -0.5566   -5.8515 H   0  0  0  0  0  0  0  0  0  0  0  0
    2.5633   -1.3766   -3.4935 S   0  0  0  0  0  0  0  0  0  0  0  0
    1.3173   -0.2763   -3.7782 O   0  0  0  0  0  0  0  0  0  0  0  0
    2.4800   -1.8137   -2.1037 O   0  0  0  0  0  0  0  0  0  0  0  0
    2.4305   -2.2956   -4.6109 O   0  0  0  0  0  0  0  0  0  0  0  0
    7.5191    2.0664   -4.2331 C   0  0  0  0  0  0  0  0  0  0  0  0
    7.4072    2.7603   -5.0721 H   0  0  0  0  0  0  0  0  0  0  0  0
    7.7513    2.6470   -3.3368 H   0  0  0  0  0  0  0  0  0  0  0  0
    8.3873    1.4329   -4.4512 H   0  0  0  0  0  0  0  0  0  0  0  0
  1  7  1  0  0  0  0
  2  8  1  0  0  0  0
  2  1  2  0  0  0  0
  3  2  1  0  0  0  0
  4  3  2  0  0  0  0
  4  5  1  0  0  0  0
  5  6  2  0  0  0  0
  6  1  1  0  0  0  0
  6 11  1  0  0  0  0
  9  4  1  0  0  0  0
 10  5  1  0  0  0  0
 11 13  2  0  0  0  0
 12 11  2  0  0  0  0
 15 14  3  0  0  0  0
 16 22  1  0  0  0  0
 17 16  1  0  0  0  0
 17 23  1  0  0  0  0
 18 17  2  0  0  0  0
 19 20  2  0  0  0  0
 19 18  1  0  0  0  0
 20 21  1  0  0  0  0
 21 26  1  0  0  0  0
 21 16  2  0  0  0  0
 24 19  1  0  0  0  0
 25 20  1  0  0  0  0
 26 28  2  0  0  0  0
 27 26  1  0  0  0  0
 27  3  1  0  0  0  0
 29 26  2  0  0  0  0
 30 18  1  0  0  0  0
 30 32  1  0  0  0  0
 31 30  1  0  0  0  0
 33 30  1  0  0  0  0
M  END
