Coordinates from ORCA-job 4-NO2-Ph-N2-OTs-B3LYPG-6-31G_dp-MTMO-d009-169-n800
 OpenBabel09051908313D

 33 33  0  0  0  0  0  0  0  0999 V2000
    0.1751    1.1457   -0.1829 C   0  0  0  0  0  0  0  0  0  0  0  0
    0.4122    0.1889   -1.1642 C   0  0  0  0  0  0  0  0  0  0  0  0
    0.7855    0.6057   -2.4461 C   0  0  0  0  0  0  0  0  0  0  0  0
    0.9175    1.9613   -2.7620 C   0  0  0  0  0  0  0  0  0  0  0  0
    0.6727    2.9197   -1.7843 C   0  0  0  0  0  0  0  0  0  0  0  0
    0.3082    2.4956   -0.5072 C   0  0  0  0  0  0  0  0  0  0  0  0
   -0.1167    0.8663    0.8213 H   0  0  0  0  0  0  0  0  0  0  0  0
    0.3167   -0.8682   -0.9503 H   0  0  0  0  0  0  0  0  0  0  0  0
    1.2004    2.2453   -3.7690 H   0  0  0  0  0  0  0  0  0  0  0  0
    0.7602    3.9792   -1.9899 H   0  0  0  0  0  0  0  0  0  0  0  0
    0.0538    3.5064    0.5303 N   0  0  0  0  0  0  0  0  0  0  0  0
    0.1820    4.6898    0.2171 O   0  0  0  0  0  0  0  0  0  0  0  0
   -0.2701    3.1080    1.6484 O   0  0  0  0  0  0  0  0  0  0  0  0
   10.5869    1.0992   -7.1722 N   0  0  0  0  0  0  0  0  0  0  0  0
   11.5781    0.9178   -7.6261 N   0  0  0  0  0  0  0  0  0  0  0  0
    4.4651    0.2494   -3.0780 C   0  0  0  0  0  0  0  0  0  0  0  0
    5.4986    1.0669   -3.5341 C   0  0  0  0  0  0  0  0  0  0  0  0
    5.6842    1.3095   -4.9021 C   0  0  0  0  0  0  0  0  0  0  0  0
    4.8014    0.7093   -5.8154 C   0  0  0  0  0  0  0  0  0  0  0  0
    3.7638   -0.1106   -5.3835 C   0  0  0  0  0  0  0  0  0  0  0  0
    3.6056   -0.3309   -4.0117 C   0  0  0  0  0  0  0  0  0  0  0  0
    4.3335    0.0500   -2.0204 H   0  0  0  0  0  0  0  0  0  0  0  0
    6.1739    1.5199   -2.8137 H   0  0  0  0  0  0  0  0  0  0  0  0
    4.9327    0.8846   -6.8799 H   0  0  0  0  0  0  0  0  0  0  0  0
    3.0927   -0.5850   -6.0912 H   0  0  0  0  0  0  0  0  0  0  0  0
    2.2737   -1.3702   -3.4510 S   0  0  0  0  0  0  0  0  0  0  0  0
    0.9593   -0.3129   -3.4717 O   0  0  0  0  0  0  0  0  0  0  0  0
    2.5219   -1.7635   -2.0680 O   0  0  0  0  0  0  0  0  0  0  0  0
    1.9237   -2.3270   -4.4866 O   0  0  0  0  0  0  0  0  0  0  0  0
    6.8202    2.1744   -5.3904 C   0  0  0  0  0  0  0  0  0  0  0  0
    7.6454    1.5609   -5.7722 H   0  0  0  0  0  0  0  0  0  0  0  0
    6.5006    2.8280   -6.2084 H   0  0  0  0  0  0  0  0  0  0  0  0
    7.2195    2.8013   -4.5891 H   0  0  0  0  0  0  0  0  0  0  0  0
  1  7  1  0  0  0  0
  2  8  1  0  0  0  0
  2  1  2  0  0  0  0
  3  2  1  0  0  0  0
  4  3  2  0  0  0  0
  4  5  1  0  0  0  0
  5  6  2  0  0  0  0
  6  1  1  0  0  0  0
  6 11  1  0  0  0  0
  9  4  1  0  0  0  0
 10  5  1  0  0  0  0
 11 13  2  0  0  0  0
 12 11  2  0  0  0  0
 15 14  3  0  0  0  0
 16 22  1  0  0  0  0
 17 16  1  0  0  0  0
 17 23  1  0  0  0  0
 18 17  2  0  0  0  0
 19 20  2  0  0  0  0
 19 18  1  0  0  0  0
 20 21  1  0  0  0  0
 21 26  1  0  0  0  0
 21 16  2  0  0  0  0
 24 19  1  0  0  0  0
 25 20  1  0  0  0  0
 26 28  2  0  0  0  0
 27 26  1  0  0  0  0
 27  3  1  0  0  0  0
 29 26  2  0  0  0  0
 30 18  1  0  0  0  0
 30 33  1  0  0  0  0
 31 30  1  0  0  0  0
 32 30  1  0  0  0  0
M  END
