Coordinates from ORCA-job 4-NO2-Ph-N2-OTs-B3LYPG-6-31G_dp-MTMO-d009-169-n800
 OpenBabel09051908313D

 33 33  0  0  0  0  0  0  0  0999 V2000
   -0.0215    1.2118   -0.0752 C   0  0  0  0  0  0  0  0  0  0  0  0
    0.1634    0.2340   -1.0470 C   0  0  0  0  0  0  0  0  0  0  0  0
    0.5452    0.6184   -2.3363 C   0  0  0  0  0  0  0  0  0  0  0  0
    0.7377    1.9626   -2.6692 C   0  0  0  0  0  0  0  0  0  0  0  0
    0.5461    2.9423   -1.7009 C   0  0  0  0  0  0  0  0  0  0  0  0
    0.1721    2.5502   -0.4164 C   0  0  0  0  0  0  0  0  0  0  0  0
   -0.3181    0.9578    0.9343 H   0  0  0  0  0  0  0  0  0  0  0  0
    0.0203   -0.8151   -0.8205 H   0  0  0  0  0  0  0  0  0  0  0  0
    1.0265    2.2213   -3.6814 H   0  0  0  0  0  0  0  0  0  0  0  0
    0.6820    3.9941   -1.9192 H   0  0  0  0  0  0  0  0  0  0  0  0
   -0.0265    3.5835    0.6111 N   0  0  0  0  0  0  0  0  0  0  0  0
    0.1557    4.7559    0.2835 O   0  0  0  0  0  0  0  0  0  0  0  0
   -0.3610    3.2136    1.7358 O   0  0  0  0  0  0  0  0  0  0  0  0
   14.2127    1.5660   -8.9149 N   0  0  0  0  0  0  0  0  0  0  0  0
   15.1564    1.3716   -9.4564 N   0  0  0  0  0  0  0  0  0  0  0  0
    4.1825    0.1487   -2.9509 C   0  0  0  0  0  0  0  0  0  0  0  0
    5.2291    0.9526   -3.4007 C   0  0  0  0  0  0  0  0  0  0  0  0
    5.4142    1.2076   -4.7665 C   0  0  0  0  0  0  0  0  0  0  0  0
    4.5191    0.6330   -5.6840 C   0  0  0  0  0  0  0  0  0  0  0  0
    3.4682   -0.1731   -5.2582 C   0  0  0  0  0  0  0  0  0  0  0  0
    3.3099   -0.4052   -3.8885 C   0  0  0  0  0  0  0  0  0  0  0  0
    4.0494   -0.0592   -1.8951 H   0  0  0  0  0  0  0  0  0  0  0  0
    5.9141    1.3859   -2.6774 H   0  0  0  0  0  0  0  0  0  0  0  0
    4.6505    0.8181   -6.7469 H   0  0  0  0  0  0  0  0  0  0  0  0
    2.7861   -0.6267   -5.9689 H   0  0  0  0  0  0  0  0  0  0  0  0
    1.9525   -1.4143   -3.3343 S   0  0  0  0  0  0  0  0  0  0  0  0
    0.6684   -0.3208   -3.3506 O   0  0  0  0  0  0  0  0  0  0  0  0
    2.1892   -1.8205   -1.9530 O   0  0  0  0  0  0  0  0  0  0  0  0
    1.5770   -2.3562   -4.3746 O   0  0  0  0  0  0  0  0  0  0  0  0
    6.5648    2.0568   -5.2478 C   0  0  0  0  0  0  0  0  0  0  0  0
    7.3891    1.4280   -5.6061 H   0  0  0  0  0  0  0  0  0  0  0  0
    6.2654    2.7017   -6.0799 H   0  0  0  0  0  0  0  0  0  0  0  0
    6.9579    2.6902   -4.4484 H   0  0  0  0  0  0  0  0  0  0  0  0
  1  7  1  0  0  0  0
  2  8  1  0  0  0  0
  2  1  2  0  0  0  0
  3  2  1  0  0  0  0
  4  3  2  0  0  0  0
  4  5  1  0  0  0  0
  5  6  2  0  0  0  0
  6  1  1  0  0  0  0
  6 11  1  0  0  0  0
  9  4  1  0  0  0  0
 10  5  1  0  0  0  0
 11 13  2  0  0  0  0
 12 11  2  0  0  0  0
 15 14  3  0  0  0  0
 16 22  1  0  0  0  0
 17 16  1  0  0  0  0
 17 23  1  0  0  0  0
 18 17  2  0  0  0  0
 19 20  2  0  0  0  0
 19 18  1  0  0  0  0
 20 21  1  0  0  0  0
 21 26  1  0  0  0  0
 21 16  2  0  0  0  0
 24 19  1  0  0  0  0
 25 20  1  0  0  0  0
 26 28  2  0  0  0  0
 27 26  1  0  0  0  0
 27  3  1  0  0  0  0
 29 26  2  0  0  0  0
 30 18  1  0  0  0  0
 30 33  1  0  0  0  0
 31 30  1  0  0  0  0
 32 30  1  0  0  0  0
M  END
