Coordinates from ORCA-job 4-NO2-Ph-N2-OTs-B3LYPG-6-31G_dp-MTMO-d009-169-n800
 OpenBabel09051908313D

 33 33  0  0  0  0  0  0  0  0999 V2000
    0.1611    1.1507   -0.1761 C   0  0  0  0  0  0  0  0  0  0  0  0
    0.3946    0.1923   -1.1568 C   0  0  0  0  0  0  0  0  0  0  0  0
    0.7699    0.6069   -2.4389 C   0  0  0  0  0  0  0  0  0  0  0  0
    0.9076    1.9617   -2.7554 C   0  0  0  0  0  0  0  0  0  0  0  0
    0.6667    2.9216   -1.7784 C   0  0  0  0  0  0  0  0  0  0  0  0
    0.3000    2.4998   -0.5011 C   0  0  0  0  0  0  0  0  0  0  0  0
   -0.1322    0.8730    0.8281 H   0  0  0  0  0  0  0  0  0  0  0  0
    0.2945   -0.8643   -0.9424 H   0  0  0  0  0  0  0  0  0  0  0  0
    1.1921    2.2440   -3.7626 H   0  0  0  0  0  0  0  0  0  0  0  0
    0.7587    3.9806   -1.9845 H   0  0  0  0  0  0  0  0  0  0  0  0
    0.0495    3.5122    0.5358 N   0  0  0  0  0  0  0  0  0  0  0  0
    0.1831    4.6949    0.2221 O   0  0  0  0  0  0  0  0  0  0  0  0
   -0.2769    3.1158    1.6538 O   0  0  0  0  0  0  0  0  0  0  0  0
   10.8217    1.1528   -7.2861 N   0  0  0  0  0  0  0  0  0  0  0  0
   11.8071    0.9491   -7.7433 N   0  0  0  0  0  0  0  0  0  0  0  0
    4.4463    0.2419   -3.0698 C   0  0  0  0  0  0  0  0  0  0  0  0
    5.4810    1.0580   -3.5257 C   0  0  0  0  0  0  0  0  0  0  0  0
    5.6668    1.3005   -4.8937 C   0  0  0  0  0  0  0  0  0  0  0  0
    4.7834    0.7015   -5.8071 C   0  0  0  0  0  0  0  0  0  0  0  0
    3.7447   -0.1170   -5.3754 C   0  0  0  0  0  0  0  0  0  0  0  0
    3.5861   -0.3371   -4.0036 C   0  0  0  0  0  0  0  0  0  0  0  0
    4.3143    0.0427   -2.0121 H   0  0  0  0  0  0  0  0  0  0  0  0
    6.1568    1.5100   -2.8052 H   0  0  0  0  0  0  0  0  0  0  0  0
    4.9151    0.8767   -6.8716 H   0  0  0  0  0  0  0  0  0  0  0  0
    3.0729   -0.5904   -6.0831 H   0  0  0  0  0  0  0  0  0  0  0  0
    2.2519   -1.3736   -3.4430 S   0  0  0  0  0  0  0  0  0  0  0  0
    0.9401   -0.3131   -3.4638 O   0  0  0  0  0  0  0  0  0  0  0  0
    2.4992   -1.7673   -2.0599 O   0  0  0  0  0  0  0  0  0  0  0  0
    1.8998   -2.3295   -4.4787 O   0  0  0  0  0  0  0  0  0  0  0  0
    6.8041    2.1638   -5.3818 C   0  0  0  0  0  0  0  0  0  0  0  0
    7.6284    1.5487   -5.7630 H   0  0  0  0  0  0  0  0  0  0  0  0
    6.4858    2.8175   -6.2001 H   0  0  0  0  0  0  0  0  0  0  0  0
    7.2043    2.7903   -4.5806 H   0  0  0  0  0  0  0  0  0  0  0  0
  1  7  1  0  0  0  0
  2  8  1  0  0  0  0
  2  1  2  0  0  0  0
  3  2  1  0  0  0  0
  4  3  2  0  0  0  0
  4  5  1  0  0  0  0
  5  6  2  0  0  0  0
  6  1  1  0  0  0  0
  6 11  1  0  0  0  0
  9  4  1  0  0  0  0
 10  5  1  0  0  0  0
 11 13  2  0  0  0  0
 12 11  2  0  0  0  0
 15 14  3  0  0  0  0
 16 22  1  0  0  0  0
 17 16  1  0  0  0  0
 17 23  1  0  0  0  0
 18 17  2  0  0  0  0
 19 20  2  0  0  0  0
 19 18  1  0  0  0  0
 20 21  1  0  0  0  0
 21 26  1  0  0  0  0
 21 16  2  0  0  0  0
 24 19  1  0  0  0  0
 25 20  1  0  0  0  0
 26 28  2  0  0  0  0
 27 26  1  0  0  0  0
 27  3  1  0  0  0  0
 29 26  2  0  0  0  0
 30 18  1  0  0  0  0
 30 33  1  0  0  0  0
 31 30  1  0  0  0  0
 32 30  1  0  0  0  0
M  END
