Coordinates from ORCA-job 4-NO2-Ph-N2-OTs-B3LYPG-6-31G_dp-MTMO-d009-169-n800
 OpenBabel09051908313D

 33 33  0  0  0  0  0  0  0  0999 V2000
   -1.6583    0.4908   -2.0903 C   0  0  0  0  0  0  0  0  0  0  0  0
   -1.0861    0.2354   -3.3169 C   0  0  0  0  0  0  0  0  0  0  0  0
    0.0309    1.0150   -3.7745 C   0  0  0  0  0  0  0  0  0  0  0  0
    0.5372    2.0703   -2.9404 C   0  0  0  0  0  0  0  0  0  0  0  0
   -0.0740    2.3255   -1.7226 C   0  0  0  0  0  0  0  0  0  0  0  0
   -1.1444    1.5359   -1.3158 C   0  0  0  0  0  0  0  0  0  0  0  0
   -2.4938   -0.0891   -1.7200 H   0  0  0  0  0  0  0  0  0  0  0  0
   -1.4520   -0.5651   -3.9517 H   0  0  0  0  0  0  0  0  0  0  0  0
    1.3861    2.6553   -3.2888 H   0  0  0  0  0  0  0  0  0  0  0  0
    0.2846    3.1189   -1.0785 H   0  0  0  0  0  0  0  0  0  0  0  0
   -1.7765    1.8124   -0.0059 N   0  0  0  0  0  0  0  0  0  0  0  0
   -1.3230    2.7438    0.6505 O   0  0  0  0  0  0  0  0  0  0  0  0
   -2.7125    1.0892    0.3263 O   0  0  0  0  0  0  0  0  0  0  0  0
    0.5036    0.7855   -4.7864 N   0  0  0  0  0  0  0  0  0  0  0  0
    1.0113    0.5826   -5.7837 N   0  0  0  0  0  0  0  0  0  0  0  0
    6.2586    2.2138   -4.4272 C   0  0  0  0  0  0  0  0  0  0  0  0
    7.6249    1.9664   -4.3097 C   0  0  0  0  0  0  0  0  0  0  0  0
    8.1018    0.7204   -3.8779 C   0  0  0  0  0  0  0  0  0  0  0  0
    7.1684   -0.2743   -3.5523 C   0  0  0  0  0  0  0  0  0  0  0  0
    5.7991   -0.0426   -3.6655 C   0  0  0  0  0  0  0  0  0  0  0  0
    5.3508    1.2038   -4.1051 C   0  0  0  0  0  0  0  0  0  0  0  0
    5.8900    3.1829   -4.7452 H   0  0  0  0  0  0  0  0  0  0  0  0
    8.3332    2.7547   -4.5523 H   0  0  0  0  0  0  0  0  0  0  0  0
    7.5198   -1.2408   -3.1996 H   0  0  0  0  0  0  0  0  0  0  0  0
    5.0776   -0.8061   -3.3964 H   0  0  0  0  0  0  0  0  0  0  0  0
    3.5960    1.4992   -4.2982 S   0  0  0  0  0  0  0  0  0  0  0  0
    3.2516    1.0690   -5.7071 O   0  0  0  0  0  0  0  0  0  0  0  0
    3.3714    2.9522   -4.0755 O   0  0  0  0  0  0  0  0  0  0  0  0
    2.8891    0.6341   -3.3028 O   0  0  0  0  0  0  0  0  0  0  0  0
    9.5846    0.4493   -3.7857 C   0  0  0  0  0  0  0  0  0  0  0  0
    9.9728    0.0566   -4.7342 H   0  0  0  0  0  0  0  0  0  0  0  0
   10.1461    1.3606   -3.5593 H   0  0  0  0  0  0  0  0  0  0  0  0
    9.8095   -0.2909   -3.0117 H   0  0  0  0  0  0  0  0  0  0  0  0
  1  7  1  0  0  0  0
  1  6  2  0  0  0  0
  2  1  1  0  0  0  0
  3  2  2  0  0  0  0
  3  4  1  0  0  0  0
  4  5  2  0  0  0  0
  5  6  1  0  0  0  0
  5 10  1  0  0  0  0
  6 11  1  0  0  0  0
  8  2  1  0  0  0  0
  9  4  1  0  0  0  0
 11 13  2  0  0  0  0
 11 12  2  0  0  0  0
 14  3  1  0  0  0  0
 15 14  1  0  0  0  0
 16 17  2  0  0  0  0
 16 21  1  0  0  0  0
 17 18  1  0  0  0  0
 18 30  1  0  0  0  0
 18 19  2  0  0  0  0
 19 24  1  0  0  0  0
 20 19  1  0  0  0  0
 20 25  1  0  0  0  0
 21 20  2  0  0  0  0
 22 16  1  0  0  0  0
 23 17  1  0  0  0  0
 26 21  1  0  0  0  0
 26 28  2  0  0  0  0
 26 29  1  0  0  0  0
 27 26  2  0  0  0  0
 30 32  1  0  0  0  0
 30 33  1  0  0  0  0
 31 30  1  0  0  0  0
M  RAD  3  14   2  15   3  29   2
M  END
