Coordinates from ORCA-job 4-NO2-Ph-N2-OTs-B3LYPG-6-31G_dp-MTMO-d009-169-n800
 OpenBabel09051908313D

 33 33  0  0  0  0  0  0  0  0999 V2000
   -0.1103    1.1244   -0.8166 C   0  0  0  0  0  0  0  0  0  0  0  0
    0.3264    0.2479   -1.8045 C   0  0  0  0  0  0  0  0  0  0  0  0
    1.0186    0.7561   -2.9089 C   0  0  0  0  0  0  0  0  0  0  0  0
    1.2730    2.1244   -3.0427 C   0  0  0  0  0  0  0  0  0  0  0  0
    0.8301    3.0032   -2.0598 C   0  0  0  0  0  0  0  0  0  0  0  0
    0.1475    2.4877   -0.9585 C   0  0  0  0  0  0  0  0  0  0  0  0
   -0.6496    0.7725    0.0538 H   0  0  0  0  0  0  0  0  0  0  0  0
    0.1425   -0.8164   -1.7300 H   0  0  0  0  0  0  0  0  0  0  0  0
    1.8039    2.4812   -3.9180 H   0  0  0  0  0  0  0  0  0  0  0  0
    1.0045    4.0697   -2.1281 H   0  0  0  0  0  0  0  0  0  0  0  0
   -0.3179    3.4132    0.0850 N   0  0  0  0  0  0  0  0  0  0  0  0
   -0.0752    4.6105   -0.0650 O   0  0  0  0  0  0  0  0  0  0  0  0
   -0.9201    2.9346    1.0453 O   0  0  0  0  0  0  0  0  0  0  0  0
    6.1281    0.0980   -8.8302 N   0  0  0  0  0  0  0  0  0  0  0  0
    6.3079   -0.3771   -9.8116 N   0  0  0  0  0  0  0  0  0  0  0  0
    4.6867    0.2605   -2.6386 C   0  0  0  0  0  0  0  0  0  0  0  0
    5.8253    1.0588   -2.7306 C   0  0  0  0  0  0  0  0  0  0  0  0
    6.3804    1.3921   -3.9743 C   0  0  0  0  0  0  0  0  0  0  0  0
    5.7643    0.9042   -5.1379 C   0  0  0  0  0  0  0  0  0  0  0  0
    4.6263    0.1063   -5.0697 C   0  0  0  0  0  0  0  0  0  0  0  0
    4.0969   -0.2066   -3.8145 C   0  0  0  0  0  0  0  0  0  0  0  0
    4.2681   -0.0095   -1.6757 H   0  0  0  0  0  0  0  0  0  0  0  0
    6.2917    1.4257   -1.8208 H   0  0  0  0  0  0  0  0  0  0  0  0
    6.1822    1.1459   -6.1108 H   0  0  0  0  0  0  0  0  0  0  0  0
    4.1603   -0.2801   -5.9692 H   0  0  0  0  0  0  0  0  0  0  0  0
    2.6309   -1.2102   -3.7204 S   0  0  0  0  0  0  0  0  0  0  0  0
    1.4050   -0.0744   -3.9512 O   0  0  0  0  0  0  0  0  0  0  0  0
    2.5037   -1.7505   -2.3708 O   0  0  0  0  0  0  0  0  0  0  0  0
    2.5208   -2.0392   -4.9086 O   0  0  0  0  0  0  0  0  0  0  0  0
    7.6314    2.2306   -4.0619 C   0  0  0  0  0  0  0  0  0  0  0  0
    7.6166    2.8803   -4.9420 H   0  0  0  0  0  0  0  0  0  0  0  0
    7.7577    2.8572   -3.1747 H   0  0  0  0  0  0  0  0  0  0  0  0
    8.5208    1.5939   -4.1431 H   0  0  0  0  0  0  0  0  0  0  0  0
  1  7  1  0  0  0  0
  2  8  1  0  0  0  0
  2  1  2  0  0  0  0
  3  2  1  0  0  0  0
  4  3  2  0  0  0  0
  4  5  1  0  0  0  0
  5  6  2  0  0  0  0
  6  1  1  0  0  0  0
  6 11  1  0  0  0  0
  9  4  1  0  0  0  0
 10  5  1  0  0  0  0
 11 13  2  0  0  0  0
 12 11  2  0  0  0  0
 15 14  3  0  0  0  0
 16 22  1  0  0  0  0
 17 16  1  0  0  0  0
 17 23  1  0  0  0  0
 18 17  2  0  0  0  0
 19 20  2  0  0  0  0
 19 18  1  0  0  0  0
 20 21  1  0  0  0  0
 21 26  1  0  0  0  0
 21 16  2  0  0  0  0
 24 19  1  0  0  0  0
 25 20  1  0  0  0  0
 26 28  2  0  0  0  0
 27 26  1  0  0  0  0
 27  3  1  0  0  0  0
 29 26  2  0  0  0  0
 30 18  1  0  0  0  0
 30 32  1  0  0  0  0
 31 30  1  0  0  0  0
 33 30  1  0  0  0  0
M  END
