Coordinates from ORCA-job 4-NO2-Ph-N2-OTs-B3LYPG-6-31G_dp-MTMO-d009-169-n800
 OpenBabel09051908313D

 33 33  0  0  0  0  0  0  0  0999 V2000
    0.1313    1.1699   -0.1534 C   0  0  0  0  0  0  0  0  0  0  0  0
    0.3420    0.1999   -1.1277 C   0  0  0  0  0  0  0  0  0  0  0  0
    0.7126    0.5977   -2.4164 C   0  0  0  0  0  0  0  0  0  0  0  0
    0.8684    1.9474   -2.7459 C   0  0  0  0  0  0  0  0  0  0  0  0
    0.6507    2.9192   -1.7751 C   0  0  0  0  0  0  0  0  0  0  0  0
    0.2882    2.5140   -0.4913 C   0  0  0  0  0  0  0  0  0  0  0  0
   -0.1577    0.9054    0.8556 H   0  0  0  0  0  0  0  0  0  0  0  0
    0.2276   -0.8533   -0.9037 H   0  0  0  0  0  0  0  0  0  0  0  0
    1.1491    2.2166   -3.7577 H   0  0  0  0  0  0  0  0  0  0  0  0
    0.7574    3.9749   -1.9910 H   0  0  0  0  0  0  0  0  0  0  0  0
    0.0621    3.5389    0.5388 N   0  0  0  0  0  0  0  0  0  0  0  0
    0.2118    4.7166    0.2139 O   0  0  0  0  0  0  0  0  0  0  0  0
   -0.2613    3.1572    1.6629 O   0  0  0  0  0  0  0  0  0  0  0  0
   11.7421    1.2702   -7.7138 N   0  0  0  0  0  0  0  0  0  0  0  0
   12.7163    1.0666   -8.1945 N   0  0  0  0  0  0  0  0  0  0  0  0
    4.3653    0.2053   -3.0325 C   0  0  0  0  0  0  0  0  0  0  0  0
    5.3976    1.0280   -3.4816 C   0  0  0  0  0  0  0  0  0  0  0  0
    5.5795    1.2860   -4.8472 C   0  0  0  0  0  0  0  0  0  0  0  0
    4.6955    0.6954   -5.7655 C   0  0  0  0  0  0  0  0  0  0  0  0
    3.6590   -0.1295   -5.3405 C   0  0  0  0  0  0  0  0  0  0  0  0
    3.5039   -0.3646   -3.9709 C   0  0  0  0  0  0  0  0  0  0  0  0
    4.2351   -0.0050   -1.9769 H   0  0  0  0  0  0  0  0  0  0  0  0
    6.0742    1.4735   -2.7578 H   0  0  0  0  0  0  0  0  0  0  0  0
    4.8246    0.8827   -6.8282 H   0  0  0  0  0  0  0  0  0  0  0  0
    2.9860   -0.5957   -6.0518 H   0  0  0  0  0  0  0  0  0  0  0  0
    2.1669   -1.4013   -3.4180 S   0  0  0  0  0  0  0  0  0  0  0  0
    0.8603   -0.3347   -3.4336 O   0  0  0  0  0  0  0  0  0  0  0  0
    2.4116   -1.8041   -2.0371 O   0  0  0  0  0  0  0  0  0  0  0  0
    1.8112   -2.3499   -4.4592 O   0  0  0  0  0  0  0  0  0  0  0  0
    6.7152    2.1553   -5.3281 C   0  0  0  0  0  0  0  0  0  0  0  0
    7.5441    1.5416   -5.7017 H   0  0  0  0  0  0  0  0  0  0  0  0
    6.4003    2.8062   -6.1498 H   0  0  0  0  0  0  0  0  0  0  0  0
    7.1073    2.7841   -4.5247 H   0  0  0  0  0  0  0  0  0  0  0  0
  1  7  1  0  0  0  0
  2  8  1  0  0  0  0
  2  1  2  0  0  0  0
  3  2  1  0  0  0  0
  4  3  2  0  0  0  0
  4  5  1  0  0  0  0
  5  6  2  0  0  0  0
  6  1  1  0  0  0  0
  6 11  1  0  0  0  0
  9  4  1  0  0  0  0
 10  5  1  0  0  0  0
 11 13  2  0  0  0  0
 12 11  2  0  0  0  0
 15 14  3  0  0  0  0
 16 22  1  0  0  0  0
 17 16  1  0  0  0  0
 17 23  1  0  0  0  0
 18 17  2  0  0  0  0
 19 20  2  0  0  0  0
 19 18  1  0  0  0  0
 20 21  1  0  0  0  0
 21 26  1  0  0  0  0
 21 16  2  0  0  0  0
 24 19  1  0  0  0  0
 25 20  1  0  0  0  0
 26 28  2  0  0  0  0
 27 26  1  0  0  0  0
 27  3  1  0  0  0  0
 29 26  2  0  0  0  0
 30 18  1  0  0  0  0
 30 33  1  0  0  0  0
 31 30  1  0  0  0  0
 32 30  1  0  0  0  0
M  END
