Coordinates from ORCA-job 4-NO2-Ph-N2-OTs-B3LYPG-6-31G_dp-MTMO-d009-169-n800
 OpenBabel09051908313D

 33 32  0  0  0  0  0  0  0  0999 V2000
    0.5763    1.0260   -1.2926 C   0  0  0  0  0  0  0  0  0  0  0  0
    0.8538    0.5985   -2.5930 C   0  0  0  0  0  0  0  0  0  0  0  0
    0.3509    1.2144   -3.5647 C   0  0  0  0  0  0  0  0  0  0  0  0
   -0.4632    2.3076   -3.7175 C   0  0  0  0  0  0  0  0  0  0  0  0
   -0.7729    2.7876   -2.4298 C   0  0  0  0  0  0  0  0  0  0  0  0
   -0.2627    2.1589   -1.2766 C   0  0  0  0  0  0  0  0  0  0  0  0
    0.9398    0.5853   -0.3735 H   0  0  0  0  0  0  0  0  0  0  0  0
    2.2338   -0.7461   -3.4495 H   0  0  0  0  0  0  0  0  0  0  0  0
   -0.8324    2.7457   -4.6342 H   0  0  0  0  0  0  0  0  0  0  0  0
   -1.4151    3.6519   -2.3081 H   0  0  0  0  0  0  0  0  0  0  0  0
   -0.6293    2.7262    0.0362 N   0  0  0  0  0  0  0  0  0  0  0  0
   -1.3637    3.7122    0.0508 O   0  0  0  0  0  0  0  0  0  0  0  0
   -0.1732    2.1739    1.0353 O   0  0  0  0  0  0  0  0  0  0  0  0
   -0.1627    0.6822   -6.6192 N   0  0  0  0  0  0  0  0  0  0  0  0
    0.0336    0.0708   -7.5182 N   0  0  0  0  0  0  0  0  0  0  0  0
    5.0534    1.4351   -4.0119 C   0  0  0  0  0  0  0  0  0  0  0  0
    6.1820    2.0221   -3.4417 C   0  0  0  0  0  0  0  0  0  0  0  0
    7.3517    1.2817   -3.2217 C   0  0  0  0  0  0  0  0  0  0  0  0
    7.3662   -0.0725   -3.5906 C   0  0  0  0  0  0  0  0  0  0  0  0
    6.2499   -0.6766   -4.1623 C   0  0  0  0  0  0  0  0  0  0  0  0
    5.0975    0.0861   -4.3647 C   0  0  0  0  0  0  0  0  0  0  0  0
    4.1537    2.0126   -4.1947 H   0  0  0  0  0  0  0  0  0  0  0  0
    6.1543    3.0724   -3.1652 H   0  0  0  0  0  0  0  0  0  0  0  0
    8.2658   -0.6610   -3.4298 H   0  0  0  0  0  0  0  0  0  0  0  0
    6.2678   -1.7190   -4.4600 H   0  0  0  0  0  0  0  0  0  0  0  0
    3.6539   -0.6873   -5.0727 S   0  0  0  0  0  0  0  0  0  0  0  0
    2.7630    0.3608   -5.5804 O   0  0  0  0  0  0  0  0  0  0  0  0
    2.9266   -1.3630   -3.7772 O   0  0  0  0  0  0  0  0  0  0  0  0
    4.0821   -1.7989   -5.9081 O   0  0  0  0  0  0  0  0  0  0  0  0
    8.5795    1.9296   -2.6289 C   0  0  0  0  0  0  0  0  0  0  0  0
    9.2868    2.2191   -3.4157 H   0  0  0  0  0  0  0  0  0  0  0  0
    8.3252    2.8328   -2.0677 H   0  0  0  0  0  0  0  0  0  0  0  0
    9.1058    1.2456   -1.9560 H   0  0  0  0  0  0  0  0  0  0  0  0
  1  6  1  0  0  0  0
  1  7  1  0  0  0  0
  2  1  2  0  0  0  0
  3  2  1  0  0  0  0
  4  3  2  0  0  0  0
  4  5  1  0  0  0  0
  5 10  1  0  0  0  0
  5  6  2  0  0  0  0
  6 11  1  0  0  0  0
  9  4  1  0  0  0  0
 11 12  2  0  0  0  0
 11 13  2  0  0  0  0
 15 14  3  0  0  0  0
 16 17  2  0  0  0  0
 17 18  1  0  0  0  0
 17 23  1  0  0  0  0
 18 30  1  0  0  0  0
 19 24  1  0  0  0  0
 19 18  2  0  0  0  0
 20 19  1  0  0  0  0
 21 20  2  0  0  0  0
 21 16  1  0  0  0  0
 22 16  1  0  0  0  0
 25 20  1  0  0  0  0
 26 21  1  0  0  0  0
 26 28  1  0  0  0  0
 27 26  2  0  0  0  0
 28  8  1  0  0  0  0
 29 26  2  0  0  0  0
 30 32  1  0  0  0  0
 30 33  1  0  0  0  0
 31 30  1  0  0  0  0
M  RAD  2   2   2   3   2
M  END
