Coordinates from ORCA-job 4-NO2-Ph-N2-OTs-B3LYPG-6-31G_dp-MTMO-d009-169-n800
 OpenBabel09051908313D

 33 33  0  0  0  0  0  0  0  0999 V2000
   -0.0252    1.2519   -0.5788 C   0  0  0  0  0  0  0  0  0  0  0  0
    0.3445    0.2653   -1.4871 C   0  0  0  0  0  0  0  0  0  0  0  0
    0.9135    0.6422   -2.7083 C   0  0  0  0  0  0  0  0  0  0  0  0
    1.1083    1.9873   -3.0366 C   0  0  0  0  0  0  0  0  0  0  0  0
    0.7303    2.9752   -2.1336 C   0  0  0  0  0  0  0  0  0  0  0  0
    0.1725    2.5909   -0.9149 C   0  0  0  0  0  0  0  0  0  0  0  0
   -0.4677    1.0029    0.3771 H   0  0  0  0  0  0  0  0  0  0  0  0
    0.2035   -0.7841   -1.2617 H   0  0  0  0  0  0  0  0  0  0  0  0
    1.5429    2.2401   -3.9969 H   0  0  0  0  0  0  0  0  0  0  0  0
    0.8612    4.0276   -2.3522 H   0  0  0  0  0  0  0  0  0  0  0  0
   -0.2225    3.6326    0.0447 N   0  0  0  0  0  0  0  0  0  0  0  0
   -0.0356    4.8056   -0.2780 O   0  0  0  0  0  0  0  0  0  0  0  0
   -0.7143    3.2689    1.1123 O   0  0  0  0  0  0  0  0  0  0  0  0
    7.6603    1.4426   -8.6567 N   0  0  0  0  0  0  0  0  0  0  0  0
    8.1142    1.5037   -9.6624 N   0  0  0  0  0  0  0  0  0  0  0  0
    4.6021    0.1865   -2.6592 C   0  0  0  0  0  0  0  0  0  0  0  0
    5.7263    0.9637   -2.9237 C   0  0  0  0  0  0  0  0  0  0  0  0
    6.1859    1.1549   -4.2366 C   0  0  0  0  0  0  0  0  0  0  0  0
    5.4876    0.5437   -5.2882 C   0  0  0  0  0  0  0  0  0  0  0  0
    4.3595   -0.2378   -5.0467 C   0  0  0  0  0  0  0  0  0  0  0  0
    3.9277   -0.4073   -3.7297 C   0  0  0  0  0  0  0  0  0  0  0  0
    4.2583    0.0251   -1.6437 H   0  0  0  0  0  0  0  0  0  0  0  0
    6.2599    1.4243   -2.0972 H   0  0  0  0  0  0  0  0  0  0  0  0
    5.8367    0.6766   -6.3080 H   0  0  0  0  0  0  0  0  0  0  0  0
    3.8293   -0.7222   -5.8592 H   0  0  0  0  0  0  0  0  0  0  0  0
    2.4849   -1.3999   -3.4131 S   0  0  0  0  0  0  0  0  0  0  0  0
    1.2295   -0.3035   -3.6732 O   0  0  0  0  0  0  0  0  0  0  0  0
    2.4691   -1.7877   -2.0064 O   0  0  0  0  0  0  0  0  0  0  0  0
    2.2946   -2.3566   -4.4899 O   0  0  0  0  0  0  0  0  0  0  0  0
    7.4163    1.9878   -4.5023 C   0  0  0  0  0  0  0  0  0  0  0  0
    7.5907    2.1144   -5.5733 H   0  0  0  0  0  0  0  0  0  0  0  0
    7.3270    2.9816   -4.0513 H   0  0  0  0  0  0  0  0  0  0  0  0
    8.3070    1.5185   -4.0694 H   0  0  0  0  0  0  0  0  0  0  0  0
  1  7  1  0  0  0  0
  2  8  1  0  0  0  0
  2  1  2  0  0  0  0
  3  2  1  0  0  0  0
  4  3  2  0  0  0  0
  4  5  1  0  0  0  0
  5  6  2  0  0  0  0
  6  1  1  0  0  0  0
  6 11  1  0  0  0  0
  9  4  1  0  0  0  0
 10  5  1  0  0  0  0
 11 13  2  0  0  0  0
 12 11  2  0  0  0  0
 15 14  3  0  0  0  0
 16 22  1  0  0  0  0
 17 16  1  0  0  0  0
 17 23  1  0  0  0  0
 18 17  2  0  0  0  0
 19 20  2  0  0  0  0
 19 18  1  0  0  0  0
 20 21  1  0  0  0  0
 21 26  1  0  0  0  0
 21 16  2  0  0  0  0
 24 19  1  0  0  0  0
 25 20  1  0  0  0  0
 26 28  2  0  0  0  0
 27 26  1  0  0  0  0
 27  3  1  0  0  0  0
 29 26  2  0  0  0  0
 30 18  1  0  0  0  0
 30 33  1  0  0  0  0
 30 32  1  0  0  0  0
 31 30  1  0  0  0  0
M  END
