Coordinates from ORCA-job 4-NO2-Ph-N2-OTs-B3LYPG-6-31G_dp-MTMO-d009-169-n800
 OpenBabel09051908313D

 33 33  0  0  0  0  0  0  0  0999 V2000
   -1.8342    0.5911   -2.0899 C   0  0  0  0  0  0  0  0  0  0  0  0
   -1.2020    0.2583   -3.2812 C   0  0  0  0  0  0  0  0  0  0  0  0
   -0.0487    0.9695   -3.6161 C   0  0  0  0  0  0  0  0  0  0  0  0
    0.5148    1.9981   -2.8610 C   0  0  0  0  0  0  0  0  0  0  0  0
   -0.1479    2.3241   -1.6787 C   0  0  0  0  0  0  0  0  0  0  0  0
   -1.2937    1.6192   -1.3178 C   0  0  0  0  0  0  0  0  0  0  0  0
   -2.7280    0.0813   -1.7558 H   0  0  0  0  0  0  0  0  0  0  0  0
   -1.5808   -0.5264   -3.9254 H   0  0  0  0  0  0  0  0  0  0  0  0
    1.4306    2.5025   -3.1682 H   0  0  0  0  0  0  0  0  0  0  0  0
    0.2250    3.1098   -1.0335 H   0  0  0  0  0  0  0  0  0  0  0  0
   -1.9781    1.9771   -0.0531 N   0  0  0  0  0  0  0  0  0  0  0  0
   -1.4996    2.8949    0.6045 O   0  0  0  0  0  0  0  0  0  0  0  0
   -2.9783    1.3295    0.2448 O   0  0  0  0  0  0  0  0  0  0  0  0
    0.5774    0.5989   -4.9058 N   0  0  0  0  0  0  0  0  0  0  0  0
    1.2442    0.4548   -5.8032 N   0  0  0  0  0  0  0  0  0  0  0  0
    6.2747    2.2011   -4.3373 C   0  0  0  0  0  0  0  0  0  0  0  0
    7.6514    1.9969   -4.2819 C   0  0  0  0  0  0  0  0  0  0  0  0
    8.1862    0.7429   -3.9507 C   0  0  0  0  0  0  0  0  0  0  0  0
    7.3004   -0.3049   -3.6634 C   0  0  0  0  0  0  0  0  0  0  0  0
    5.9201   -0.1171   -3.7161 C   0  0  0  0  0  0  0  0  0  0  0  0
    5.4147    1.1382   -4.0550 C   0  0  0  0  0  0  0  0  0  0  0  0
    5.8621    3.1752   -4.5764 H   0  0  0  0  0  0  0  0  0  0  0  0
    8.3231    2.8252   -4.4932 H   0  0  0  0  0  0  0  0  0  0  0  0
    7.6970   -1.2789   -3.3878 H   0  0  0  0  0  0  0  0  0  0  0  0
    5.2345   -0.9224   -3.4762 H   0  0  0  0  0  0  0  0  0  0  0  0
    3.6446    1.3778   -4.1599 S   0  0  0  0  0  0  0  0  0  0  0  0
    3.2911    1.0850   -5.6153 O   0  0  0  0  0  0  0  0  0  0  0  0
    3.3772    2.7966   -3.8022 O   0  0  0  0  0  0  0  0  0  0  0  0
    2.9951    0.3889   -3.2585 O   0  0  0  0  0  0  0  0  0  0  0  0
    9.6804    0.5250   -3.9229 C   0  0  0  0  0  0  0  0  0  0  0  0
   10.0652    0.3035   -4.9262 H   0  0  0  0  0  0  0  0  0  0  0  0
   10.2085    1.4140   -3.5642 H   0  0  0  0  0  0  0  0  0  0  0  0
    9.9512   -0.3152   -3.2768 H   0  0  0  0  0  0  0  0  0  0  0  0
  1  7  1  0  0  0  0
  1  6  2  0  0  0  0
  2  1  1  0  0  0  0
  3  2  2  0  0  0  0
  3  4  1  0  0  0  0
  4  5  2  0  0  0  0
  5  6  1  0  0  0  0
  5 10  1  0  0  0  0
  6 11  1  0  0  0  0
  8  2  1  0  0  0  0
  9  4  1  0  0  0  0
 11 13  2  0  0  0  0
 11 12  2  0  0  0  0
 14  3  1  0  0  0  0
 15 14  1  0  0  0  0
 16 17  2  0  0  0  0
 16 21  1  0  0  0  0
 17 18  1  0  0  0  0
 18 30  1  0  0  0  0
 18 19  2  0  0  0  0
 19 24  1  0  0  0  0
 20 19  1  0  0  0  0
 20 25  1  0  0  0  0
 21 20  2  0  0  0  0
 22 16  1  0  0  0  0
 23 17  1  0  0  0  0
 26 21  1  0  0  0  0
 26 28  2  0  0  0  0
 26 29  1  0  0  0  0
 27 26  2  0  0  0  0
 30 32  1  0  0  0  0
 30 33  1  0  0  0  0
 31 30  1  0  0  0  0
M  RAD  3  14   2  15   3  29   2
M  END
