Coordinates from ORCA-job 4-NO2-Ph-N2-OTs-B3LYPG-6-31G_dp-MTMO-d009-169-n800
 OpenBabel09051908313D

 33 33  0  0  0  0  0  0  0  0999 V2000
   -0.0245    1.2534   -0.5564 C   0  0  0  0  0  0  0  0  0  0  0  0
    0.3404    0.2651   -1.4648 C   0  0  0  0  0  0  0  0  0  0  0  0
    0.9028    0.6397   -2.6897 C   0  0  0  0  0  0  0  0  0  0  0  0
    1.0956    1.9842   -3.0217 C   0  0  0  0  0  0  0  0  0  0  0  0
    0.7224    2.9738   -2.1186 C   0  0  0  0  0  0  0  0  0  0  0  0
    0.1713    2.5917   -0.8961 C   0  0  0  0  0  0  0  0  0  0  0  0
   -0.4619    1.0063    0.4023 H   0  0  0  0  0  0  0  0  0  0  0  0
    0.2007   -0.7838   -1.2366 H   0  0  0  0  0  0  0  0  0  0  0  0
    1.5250    2.2352   -3.9848 H   0  0  0  0  0  0  0  0  0  0  0  0
    0.8520    4.0258   -2.3399 H   0  0  0  0  0  0  0  0  0  0  0  0
   -0.2187    3.6353    0.0636 N   0  0  0  0  0  0  0  0  0  0  0  0
   -0.0336    4.8077   -0.2623 O   0  0  0  0  0  0  0  0  0  0  0  0
   -0.7047    3.2735    1.1345 O   0  0  0  0  0  0  0  0  0  0  0  0
    7.8231    1.4944   -8.6457 N   0  0  0  0  0  0  0  0  0  0  0  0
    8.3260    1.5576   -9.6277 N   0  0  0  0  0  0  0  0  0  0  0  0
    4.5914    0.1920   -2.6720 C   0  0  0  0  0  0  0  0  0  0  0  0
    5.7137    0.9672   -2.9498 C   0  0  0  0  0  0  0  0  0  0  0  0
    6.1663    1.1463   -4.2669 C   0  0  0  0  0  0  0  0  0  0  0  0
    5.4630    0.5242   -5.3087 C   0  0  0  0  0  0  0  0  0  0  0  0
    4.3364   -0.2552   -5.0541 C   0  0  0  0  0  0  0  0  0  0  0  0
    3.9115   -0.4121   -3.7333 C   0  0  0  0  0  0  0  0  0  0  0  0
    4.2535    0.0396   -1.6532 H   0  0  0  0  0  0  0  0  0  0  0  0
    6.2517    1.4355   -2.1304 H   0  0  0  0  0  0  0  0  0  0  0  0
    5.8075    0.6466   -6.3315 H   0  0  0  0  0  0  0  0  0  0  0  0
    3.8025   -0.7480   -5.8590 H   0  0  0  0  0  0  0  0  0  0  0  0
    2.4713   -1.4029   -3.3995 S   0  0  0  0  0  0  0  0  0  0  0  0
    1.2136   -0.3080   -3.6544 O   0  0  0  0  0  0  0  0  0  0  0  0
    2.4673   -1.7832   -1.9906 O   0  0  0  0  0  0  0  0  0  0  0  0
    2.2722   -2.3651   -4.4697 O   0  0  0  0  0  0  0  0  0  0  0  0
    7.3925    1.9805   -4.5472 C   0  0  0  0  0  0  0  0  0  0  0  0
    7.5859    2.0606   -5.6195 H   0  0  0  0  0  0  0  0  0  0  0  0
    7.2822    2.9932   -4.1446 H   0  0  0  0  0  0  0  0  0  0  0  0
    8.2798    1.5435   -4.0758 H   0  0  0  0  0  0  0  0  0  0  0  0
  1  7  1  0  0  0  0
  2  8  1  0  0  0  0
  2  1  2  0  0  0  0
  3  2  1  0  0  0  0
  4  3  2  0  0  0  0
  4  5  1  0  0  0  0
  5  6  2  0  0  0  0
  6  1  1  0  0  0  0
  6 11  1  0  0  0  0
  9  4  1  0  0  0  0
 10  5  1  0  0  0  0
 11 13  2  0  0  0  0
 12 11  2  0  0  0  0
 15 14  3  0  0  0  0
 16 22  1  0  0  0  0
 17 16  1  0  0  0  0
 17 23  1  0  0  0  0
 18 17  2  0  0  0  0
 19 20  2  0  0  0  0
 19 18  1  0  0  0  0
 20 21  1  0  0  0  0
 21 26  1  0  0  0  0
 21 16  2  0  0  0  0
 24 19  1  0  0  0  0
 25 20  1  0  0  0  0
 26 28  2  0  0  0  0
 27 26  1  0  0  0  0
 27  3  1  0  0  0  0
 29 26  2  0  0  0  0
 30 18  1  0  0  0  0
 30 32  1  0  0  0  0
 30 33  1  0  0  0  0
 31 30  1  0  0  0  0
M  END
