Coordinates from ORCA-job 4-NO2-Ph-N2-OTs-B3LYPG-6-31G_dp-MTMO-d009-169-n800
 OpenBabel09051908313D

 33 33  0  0  0  0  0  0  0  0999 V2000
   -0.0450    0.8730   -1.2914 C   0  0  0  0  0  0  0  0  0  0  0  0
    0.5426    0.0537   -2.2497 C   0  0  0  0  0  0  0  0  0  0  0  0
    1.3241    0.6331   -3.2544 C   0  0  0  0  0  0  0  0  0  0  0  0
    1.5199    2.0157   -3.3199 C   0  0  0  0  0  0  0  0  0  0  0  0
    0.9278    2.8373   -2.3665 C   0  0  0  0  0  0  0  0  0  0  0  0
    0.1568    2.2512   -1.3636 C   0  0  0  0  0  0  0  0  0  0  0  0
   -0.6573    0.4657   -0.4967 H   0  0  0  0  0  0  0  0  0  0  0  0
    0.4083   -1.0206   -2.2273 H   0  0  0  0  0  0  0  0  0  0  0  0
    2.1251    2.4283   -4.1193 H   0  0  0  0  0  0  0  0  0  0  0  0
    1.0541    3.9126   -2.3825 H   0  0  0  0  0  0  0  0  0  0  0  0
   -0.4646    3.1162   -0.3494 N   0  0  0  0  0  0  0  0  0  0  0  0
   -0.2664    4.3280   -0.4350 O   0  0  0  0  0  0  0  0  0  0  0  0
   -1.1428    2.5761    0.5234 O   0  0  0  0  0  0  0  0  0  0  0  0
    2.8389   -0.3964   -7.9339 N   0  0  0  0  0  0  0  0  0  0  0  0
    1.9776   -0.9803   -8.3052 N   0  0  0  0  0  0  0  0  0  0  0  0
    4.9991    0.3123   -2.5616 C   0  0  0  0  0  0  0  0  0  0  0  0
    6.0731    1.1976   -2.4919 C   0  0  0  0  0  0  0  0  0  0  0  0
    6.6788    1.6972   -3.6533 C   0  0  0  0  0  0  0  0  0  0  0  0
    6.1793    1.2882   -4.9002 C   0  0  0  0  0  0  0  0  0  0  0  0
    5.1090    0.4041   -4.9952 C   0  0  0  0  0  0  0  0  0  0  0  0
    4.5281   -0.0749   -3.8173 C   0  0  0  0  0  0  0  0  0  0  0  0
    4.5385   -0.0833   -1.6635 H   0  0  0  0  0  0  0  0  0  0  0  0
    6.4472    1.5032   -1.5188 H   0  0  0  0  0  0  0  0  0  0  0  0
    6.6383    1.6658   -5.8095 H   0  0  0  0  0  0  0  0  0  0  0  0
    4.7314    0.0850   -5.9604 H   0  0  0  0  0  0  0  0  0  0  0  0
    3.1467   -1.1916   -3.9256 S   0  0  0  0  0  0  0  0  0  0  0  0
    1.8688   -0.1449   -4.2668 O   0  0  0  0  0  0  0  0  0  0  0  0
    2.9103   -1.7921   -2.6170 O   0  0  0  0  0  0  0  0  0  0  0  0
    3.2365   -1.9815   -5.1422 O   0  0  0  0  0  0  0  0  0  0  0  0
    7.8612    2.6302   -3.5682 C   0  0  0  0  0  0  0  0  0  0  0  0
    7.8800    3.3301   -4.4088 H   0  0  0  0  0  0  0  0  0  0  0  0
    7.8504    3.2083   -2.6402 H   0  0  0  0  0  0  0  0  0  0  0  0
    8.8024    2.0674   -3.5925 H   0  0  0  0  0  0  0  0  0  0  0  0
  1  7  1  0  0  0  0
  2  8  1  0  0  0  0
  2  1  2  0  0  0  0
  3  2  1  0  0  0  0
  4  3  2  0  0  0  0
  4  5  1  0  0  0  0
  5  6  2  0  0  0  0
  6  1  1  0  0  0  0
  6 11  1  0  0  0  0
  9  4  1  0  0  0  0
 10  5  1  0  0  0  0
 11 13  2  0  0  0  0
 12 11  2  0  0  0  0
 15 14  3  0  0  0  0
 16 17  1  0  0  0  0
 16 22  1  0  0  0  0
 17 23  1  0  0  0  0
 18 30  1  0  0  0  0
 18 17  2  0  0  0  0
 19 18  1  0  0  0  0
 20 19  2  0  0  0  0
 20 21  1  0  0  0  0
 21 16  2  0  0  0  0
 24 19  1  0  0  0  0
 25 20  1  0  0  0  0
 26 21  1  0  0  0  0
 26 28  2  0  0  0  0
 27 26  1  0  0  0  0
 27  3  1  0  0  0  0
 29 26  2  0  0  0  0
 30 32  1  0  0  0  0
 31 30  1  0  0  0  0
 33 30  1  0  0  0  0
M  END
