Coordinates from ORCA-job 4-NO2-Ph-N2-OTs-B3LYPG-6-31G_dp-MTMO-d009-169-n800
 OpenBabel09051908313D

 33 33  0  0  0  0  0  0  0  0999 V2000
   -0.0386    0.8577   -1.3365 C   0  0  0  0  0  0  0  0  0  0  0  0
    0.5644    0.0297   -2.2776 C   0  0  0  0  0  0  0  0  0  0  0  0
    1.3499    0.6012   -3.2837 C   0  0  0  0  0  0  0  0  0  0  0  0
    1.5345    1.9844   -3.3676 C   0  0  0  0  0  0  0  0  0  0  0  0
    0.9269    2.8145   -2.4316 C   0  0  0  0  0  0  0  0  0  0  0  0
    0.1520    2.2364   -1.4270 C   0  0  0  0  0  0  0  0  0  0  0  0
   -0.6544    0.4567   -0.5413 H   0  0  0  0  0  0  0  0  0  0  0  0
    0.4392   -1.0453   -2.2407 H   0  0  0  0  0  0  0  0  0  0  0  0
    2.1432    2.3906   -4.1676 H   0  0  0  0  0  0  0  0  0  0  0  0
    1.0441    3.8906   -2.4622 H   0  0  0  0  0  0  0  0  0  0  0  0
   -0.4857    3.1106   -0.4310 N   0  0  0  0  0  0  0  0  0  0  0  0
   -0.2971    4.3227   -0.5325 O   0  0  0  0  0  0  0  0  0  0  0  0
   -1.1666    2.5773    0.4439 O   0  0  0  0  0  0  0  0  0  0  0  0
    2.5838   -0.2245   -7.7270 N   0  0  0  0  0  0  0  0  0  0  0  0
    1.6537   -0.7441   -8.0198 N   0  0  0  0  0  0  0  0  0  0  0  0
    5.0308    0.3018   -2.5483 C   0  0  0  0  0  0  0  0  0  0  0  0
    6.0989    1.1944   -2.4784 C   0  0  0  0  0  0  0  0  0  0  0  0
    6.7026    1.6966   -3.6396 C   0  0  0  0  0  0  0  0  0  0  0  0
    6.2070    1.2831   -4.8868 C   0  0  0  0  0  0  0  0  0  0  0  0
    5.1429    0.3917   -4.9817 C   0  0  0  0  0  0  0  0  0  0  0  0
    4.5641   -0.0902   -3.8039 C   0  0  0  0  0  0  0  0  0  0  0  0
    4.5715   -0.0956   -1.6504 H   0  0  0  0  0  0  0  0  0  0  0  0
    6.4698    1.5036   -1.5053 H   0  0  0  0  0  0  0  0  0  0  0  0
    6.6642    1.6632   -5.7960 H   0  0  0  0  0  0  0  0  0  0  0  0
    4.7676    0.0699   -5.9470 H   0  0  0  0  0  0  0  0  0  0  0  0
    3.1926   -1.2192   -3.9124 S   0  0  0  0  0  0  0  0  0  0  0  0
    1.9100   -0.1865   -4.2799 O   0  0  0  0  0  0  0  0  0  0  0  0
    2.9474   -1.8050   -2.5988 O   0  0  0  0  0  0  0  0  0  0  0  0
    3.3004   -2.0230   -5.1182 O   0  0  0  0  0  0  0  0  0  0  0  0
    7.8787    2.6374   -3.5545 C   0  0  0  0  0  0  0  0  0  0  0  0
    7.8892    3.3418   -4.3915 H   0  0  0  0  0  0  0  0  0  0  0  0
    7.8676    3.2107   -2.6235 H   0  0  0  0  0  0  0  0  0  0  0  0
    8.8237    2.0814   -3.5856 H   0  0  0  0  0  0  0  0  0  0  0  0
  1  7  1  0  0  0  0
  2  8  1  0  0  0  0
  2  1  2  0  0  0  0
  3  2  1  0  0  0  0
  4  3  2  0  0  0  0
  4  5  1  0  0  0  0
  5  6  2  0  0  0  0
  6  1  1  0  0  0  0
  6 11  1  0  0  0  0
  9  4  1  0  0  0  0
 10  5  1  0  0  0  0
 11 13  2  0  0  0  0
 12 11  2  0  0  0  0
 15 14  3  0  0  0  0
 16 17  1  0  0  0  0
 16 22  1  0  0  0  0
 17 23  1  0  0  0  0
 18 30  1  0  0  0  0
 18 17  2  0  0  0  0
 19 18  1  0  0  0  0
 20 19  2  0  0  0  0
 20 21  1  0  0  0  0
 21 16  2  0  0  0  0
 24 19  1  0  0  0  0
 25 20  1  0  0  0  0
 26 21  1  0  0  0  0
 26 28  2  0  0  0  0
 27 26  1  0  0  0  0
 27  3  1  0  0  0  0
 29 26  2  0  0  0  0
 30 32  1  0  0  0  0
 31 30  1  0  0  0  0
 33 30  1  0  0  0  0
M  END
