Coordinates from ORCA-job 4-NO2-Ph-N2-OTs-B3LYPG-6-31G_dp-MTMO-d009-169-n800
 OpenBabel09051908313D

 33 33  0  0  0  0  0  0  0  0999 V2000
   -0.0216    1.2505   -0.6286 C   0  0  0  0  0  0  0  0  0  0  0  0
    0.3554    0.2657   -1.5358 C   0  0  0  0  0  0  0  0  0  0  0  0
    0.9380    0.6449   -2.7499 C   0  0  0  0  0  0  0  0  0  0  0  0
    1.1391    1.9904   -3.0723 C   0  0  0  0  0  0  0  0  0  0  0  0
    0.7539    2.9766   -2.1705 C   0  0  0  0  0  0  0  0  0  0  0  0
    0.1826    2.5900   -0.9588 C   0  0  0  0  0  0  0  0  0  0  0  0
   -0.4745    0.9998    0.3220 H   0  0  0  0  0  0  0  0  0  0  0  0
    0.2099   -0.7840   -1.3151 H   0  0  0  0  0  0  0  0  0  0  0  0
    1.5843    2.2450   -4.0273 H   0  0  0  0  0  0  0  0  0  0  0  0
    0.8894    4.0293   -2.3847 H   0  0  0  0  0  0  0  0  0  0  0  0
   -0.2202    3.6299   -0.0004 N   0  0  0  0  0  0  0  0  0  0  0  0
   -0.0276    4.8034   -0.3178 O   0  0  0  0  0  0  0  0  0  0  0  0
   -0.7236    3.2643    1.0612 O   0  0  0  0  0  0  0  0  0  0  0  0
    7.2867    1.3287   -8.7027 N   0  0  0  0  0  0  0  0  0  0  0  0
    7.6722    1.3992   -9.7359 N   0  0  0  0  0  0  0  0  0  0  0  0
    4.6225    0.1691   -2.6289 C   0  0  0  0  0  0  0  0  0  0  0  0
    5.7495    0.9522   -2.8629 C   0  0  0  0  0  0  0  0  0  0  0  0
    6.2234    1.1737   -4.1656 C   0  0  0  0  0  0  0  0  0  0  0  0
    5.5366    0.5879   -5.2393 C   0  0  0  0  0  0  0  0  0  0  0  0
    4.4067   -0.1994   -5.0282 C   0  0  0  0  0  0  0  0  0  0  0  0
    3.9605   -0.3997   -3.7202 C   0  0  0  0  0  0  0  0  0  0  0  0
    4.2665   -0.0148   -1.6215 H   0  0  0  0  0  0  0  0  0  0  0  0
    6.2734    1.3943   -2.0201 H   0  0  0  0  0  0  0  0  0  0  0  0
    5.8952    0.7465   -6.2520 H   0  0  0  0  0  0  0  0  0  0  0  0
    3.8852   -0.6640   -5.8576 H   0  0  0  0  0  0  0  0  0  0  0  0
    2.5133   -1.3974   -3.4434 S   0  0  0  0  0  0  0  0  0  0  0  0
    1.2622   -0.2989   -3.7140 O   0  0  0  0  0  0  0  0  0  0  0  0
    2.4712   -1.8026   -2.0421 O   0  0  0  0  0  0  0  0  0  0  0  0
    2.3437   -2.3407   -4.5353 O   0  0  0  0  0  0  0  0  0  0  0  0
    7.4600    2.0073   -4.3983 C   0  0  0  0  0  0  0  0  0  0  0  0
    7.6012    2.2276   -5.4589 H   0  0  0  0  0  0  0  0  0  0  0  0
    7.4078    2.9563   -3.8556 H   0  0  0  0  0  0  0  0  0  0  0  0
    8.3554    1.4835   -4.0436 H   0  0  0  0  0  0  0  0  0  0  0  0
  1  7  1  0  0  0  0
  2  8  1  0  0  0  0
  2  1  2  0  0  0  0
  3  2  1  0  0  0  0
  4  3  2  0  0  0  0
  4  5  1  0  0  0  0
  5  6  2  0  0  0  0
  6  1  1  0  0  0  0
  6 11  1  0  0  0  0
  9  4  1  0  0  0  0
 10  5  1  0  0  0  0
 11 13  2  0  0  0  0
 12 11  2  0  0  0  0
 15 14  3  0  0  0  0
 16 22  1  0  0  0  0
 17 16  1  0  0  0  0
 17 23  1  0  0  0  0
 18 17  2  0  0  0  0
 19 20  2  0  0  0  0
 19 18  1  0  0  0  0
 20 21  1  0  0  0  0
 21 26  1  0  0  0  0
 21 16  2  0  0  0  0
 24 19  1  0  0  0  0
 25 20  1  0  0  0  0
 26 28  2  0  0  0  0
 27 26  1  0  0  0  0
 27  3  1  0  0  0  0
 29 26  2  0  0  0  0
 30 18  1  0  0  0  0
 30 33  1  0  0  0  0
 30 32  1  0  0  0  0
 31 30  1  0  0  0  0
M  END
