Coordinates from ORCA-job 4-NO2-Ph-N2-OTs-B3LYPG-6-31G_dp-MTMO-d009-169-n800
 OpenBabel09051908313D

 33 33  0  0  0  0  0  0  0  0999 V2000
   -0.0247    1.2515   -0.5846 C   0  0  0  0  0  0  0  0  0  0  0  0
    0.3462    0.2654   -1.4930 C   0  0  0  0  0  0  0  0  0  0  0  0
    0.9165    0.6429   -2.7134 C   0  0  0  0  0  0  0  0  0  0  0  0
    1.1113    1.9881   -3.0409 C   0  0  0  0  0  0  0  0  0  0  0  0
    0.7321    2.9756   -2.1380 C   0  0  0  0  0  0  0  0  0  0  0  0
    0.1731    2.5907   -0.9200 C   0  0  0  0  0  0  0  0  0  0  0  0
   -0.4682    1.0021    0.3707 H   0  0  0  0  0  0  0  0  0  0  0  0
    0.2052   -0.7841   -1.2682 H   0  0  0  0  0  0  0  0  0  0  0  0
    1.5469    2.2415   -4.0006 H   0  0  0  0  0  0  0  0  0  0  0  0
    0.8630    4.0281   -2.3560 H   0  0  0  0  0  0  0  0  0  0  0  0
   -0.2232    3.6320    0.0396 N   0  0  0  0  0  0  0  0  0  0  0  0
   -0.0363    4.8051   -0.2824 O   0  0  0  0  0  0  0  0  0  0  0  0
   -0.7160    3.2677    1.1065 O   0  0  0  0  0  0  0  0  0  0  0  0
    7.6149    1.4278   -8.6579 N   0  0  0  0  0  0  0  0  0  0  0  0
    8.0580    1.4885   -9.6684 N   0  0  0  0  0  0  0  0  0  0  0  0
    4.6051    0.1847   -2.6560 C   0  0  0  0  0  0  0  0  0  0  0  0
    5.7297    0.9624   -2.9168 C   0  0  0  0  0  0  0  0  0  0  0  0
    6.1910    1.1573   -4.2285 C   0  0  0  0  0  0  0  0  0  0  0  0
    5.4940    0.5493   -5.2828 C   0  0  0  0  0  0  0  0  0  0  0  0
    4.3655   -0.2328   -5.0450 C   0  0  0  0  0  0  0  0  0  0  0  0
    3.9320   -0.4060   -3.7290 C   0  0  0  0  0  0  0  0  0  0  0  0
    4.2597    0.0206   -1.6415 H   0  0  0  0  0  0  0  0  0  0  0  0
    6.2622    1.4207   -2.0883 H   0  0  0  0  0  0  0  0  0  0  0  0
    5.8444    0.6853   -6.3018 H   0  0  0  0  0  0  0  0  0  0  0  0
    3.8363   -0.7147   -5.8596 H   0  0  0  0  0  0  0  0  0  0  0  0
    2.4885   -1.3991   -3.4172 S   0  0  0  0  0  0  0  0  0  0  0  0
    1.2337   -0.3023   -3.6784 O   0  0  0  0  0  0  0  0  0  0  0  0
    2.4696   -1.7892   -2.0111 O   0  0  0  0  0  0  0  0  0  0  0  0
    2.3005   -2.3541   -4.4959 O   0  0  0  0  0  0  0  0  0  0  0  0
    7.4225    1.9899   -4.4903 C   0  0  0  0  0  0  0  0  0  0  0  0
    7.5920    2.1285   -5.5607 H   0  0  0  0  0  0  0  0  0  0  0  0
    7.3386    2.9785   -4.0272 H   0  0  0  0  0  0  0  0  0  0  0  0
    8.3140    1.5128   -4.0676 H   0  0  0  0  0  0  0  0  0  0  0  0
  1  7  1  0  0  0  0
  2  8  1  0  0  0  0
  2  1  2  0  0  0  0
  3  2  1  0  0  0  0
  4  3  2  0  0  0  0
  4  5  1  0  0  0  0
  5  6  2  0  0  0  0
  6  1  1  0  0  0  0
  6 11  1  0  0  0  0
  9  4  1  0  0  0  0
 10  5  1  0  0  0  0
 11 13  2  0  0  0  0
 12 11  2  0  0  0  0
 15 14  3  0  0  0  0
 16 22  1  0  0  0  0
 17 16  1  0  0  0  0
 17 23  1  0  0  0  0
 18 17  2  0  0  0  0
 19 20  2  0  0  0  0
 19 18  1  0  0  0  0
 20 21  1  0  0  0  0
 21 26  1  0  0  0  0
 21 16  2  0  0  0  0
 24 19  1  0  0  0  0
 25 20  1  0  0  0  0
 26 28  2  0  0  0  0
 27 26  1  0  0  0  0
 27  3  1  0  0  0  0
 29 26  2  0  0  0  0
 30 18  1  0  0  0  0
 30 33  1  0  0  0  0
 30 32  1  0  0  0  0
 31 30  1  0  0  0  0
M  END
