Coordinates from ORCA-job 4-NO2-Ph-N2-OTs-B3LYPG-6-31G_dp-MTMO-d009-169-n800
 OpenBabel09051908313D

 33 33  0  0  0  0  0  0  0  0999 V2000
   -0.0381    1.2403   -0.6819 C   0  0  0  0  0  0  0  0  0  0  0  0
    0.3578    0.2639   -1.5903 C   0  0  0  0  0  0  0  0  0  0  0  0
    0.9609    0.6547   -2.7906 C   0  0  0  0  0  0  0  0  0  0  0  0
    1.1638    2.0033   -3.0984 C   0  0  0  0  0  0  0  0  0  0  0  0
    0.7598    2.9810   -2.1956 C   0  0  0  0  0  0  0  0  0  0  0  0
    0.1680    2.5830   -0.9974 C   0  0  0  0  0  0  0  0  0  0  0  0
   -0.5072    0.9805    0.2584 H   0  0  0  0  0  0  0  0  0  0  0  0
    0.2114   -0.7880   -1.3808 H   0  0  0  0  0  0  0  0  0  0  0  0
    1.6253    2.2671   -4.0431 H   0  0  0  0  0  0  0  0  0  0  0  0
    0.8962    4.0358   -2.3987 H   0  0  0  0  0  0  0  0  0  0  0  0
   -0.2546    3.6139   -0.0379 N   0  0  0  0  0  0  0  0  0  0  0  0
   -0.0600    4.7905   -0.3424 O   0  0  0  0  0  0  0  0  0  0  0  0
   -0.7756    3.2382    1.0116 O   0  0  0  0  0  0  0  0  0  0  0  0
    6.9311    1.1209   -8.8645 N   0  0  0  0  0  0  0  0  0  0  0  0
    7.2905    1.1185   -9.9094 N   0  0  0  0  0  0  0  0  0  0  0  0
    4.6408    0.1764   -2.5892 C   0  0  0  0  0  0  0  0  0  0  0  0
    5.7716    0.9674   -2.7875 C   0  0  0  0  0  0  0  0  0  0  0  0
    6.2704    1.2120   -4.0742 C   0  0  0  0  0  0  0  0  0  0  0  0
    5.6059    0.6428   -5.1735 C   0  0  0  0  0  0  0  0  0  0  0  0
    4.4760   -0.1498   -4.9987 C   0  0  0  0  0  0  0  0  0  0  0  0
    4.0034   -0.3741   -3.7019 C   0  0  0  0  0  0  0  0  0  0  0  0
    4.2653   -0.0247   -1.5923 H   0  0  0  0  0  0  0  0  0  0  0  0
    6.2764    1.3975   -1.9273 H   0  0  0  0  0  0  0  0  0  0  0  0
    5.9835    0.8181   -6.1770 H   0  0  0  0  0  0  0  0  0  0  0  0
    3.9717   -0.6011   -5.8459 H   0  0  0  0  0  0  0  0  0  0  0  0
    2.5528   -1.3788   -3.4717 S   0  0  0  0  0  0  0  0  0  0  0  0
    1.3054   -0.2800   -3.7566 O   0  0  0  0  0  0  0  0  0  0  0  0
    2.4796   -1.8029   -2.0773 O   0  0  0  0  0  0  0  0  0  0  0  0
    2.4111   -2.3078   -4.5797 O   0  0  0  0  0  0  0  0  0  0  0  0
    7.5115    2.0450   -4.2793 C   0  0  0  0  0  0  0  0  0  0  0  0
    7.4002    2.7223   -5.1317 H   0  0  0  0  0  0  0  0  0  0  0  0
    7.7448    2.6428   -3.3945 H   0  0  0  0  0  0  0  0  0  0  0  0
    8.3787    1.4061   -4.4852 H   0  0  0  0  0  0  0  0  0  0  0  0
  1  7  1  0  0  0  0
  2  8  1  0  0  0  0
  2  1  2  0  0  0  0
  3  2  1  0  0  0  0
  4  3  2  0  0  0  0
  4  5  1  0  0  0  0
  5  6  2  0  0  0  0
  6  1  1  0  0  0  0
  6 11  1  0  0  0  0
  9  4  1  0  0  0  0
 10  5  1  0  0  0  0
 11 13  2  0  0  0  0
 12 11  2  0  0  0  0
 15 14  3  0  0  0  0
 16 22  1  0  0  0  0
 17 16  1  0  0  0  0
 17 23  1  0  0  0  0
 18 17  2  0  0  0  0
 19 20  2  0  0  0  0
 19 18  1  0  0  0  0
 20 21  1  0  0  0  0
 21 26  1  0  0  0  0
 21 16  2  0  0  0  0
 24 19  1  0  0  0  0
 25 20  1  0  0  0  0
 26 28  2  0  0  0  0
 27 26  1  0  0  0  0
 27  3  1  0  0  0  0
 29 26  2  0  0  0  0
 30 18  1  0  0  0  0
 30 32  1  0  0  0  0
 31 30  1  0  0  0  0
 33 30  1  0  0  0  0
M  END
