Coordinates from ORCA-job 4-NO2-Ph-N2-OTs-B3LYPG-6-31G_dp-MTMO-d009-169-n800
 OpenBabel09051908313D

 33 33  0  0  0  0  0  0  0  0999 V2000
   -0.1199    1.5433   -0.1449 C   0  0  0  0  0  0  0  0  0  0  0  0
   -0.0581    0.5424   -1.1089 C   0  0  0  0  0  0  0  0  0  0  0  0
    0.4138    0.8564   -2.3877 C   0  0  0  0  0  0  0  0  0  0  0  0
    0.8139    2.1547   -2.7181 C   0  0  0  0  0  0  0  0  0  0  0  0
    0.7440    3.1587   -1.7583 C   0  0  0  0  0  0  0  0  0  0  0  0
    0.2815    2.8353   -0.4835 C   0  0  0  0  0  0  0  0  0  0  0  0
   -0.4787    1.3432    0.8565 H   0  0  0  0  0  0  0  0  0  0  0  0
   -0.3644   -0.4712   -0.8840 H   0  0  0  0  0  0  0  0  0  0  0  0
    1.1649    2.3614   -3.7227 H   0  0  0  0  0  0  0  0  0  0  0  0
    1.0415    4.1766   -1.9756 H   0  0  0  0  0  0  0  0  0  0  0  0
    0.2126    3.8929    0.5357 N   0  0  0  0  0  0  0  0  0  0  0  0
    0.5676    5.0249    0.2078 O   0  0  0  0  0  0  0  0  0  0  0  0
   -0.1937    3.5819    1.6546 O   0  0  0  0  0  0  0  0  0  0  0  0
   15.0686    3.5559   -9.6562 N   0  0  0  0  0  0  0  0  0  0  0  0
   15.9070    3.6000  -10.3751 N   0  0  0  0  0  0  0  0  0  0  0  0
    3.9329   -0.2310   -2.8205 C   0  0  0  0  0  0  0  0  0  0  0  0
    5.1287    0.3689   -3.2123 C   0  0  0  0  0  0  0  0  0  0  0  0
    5.4371    0.5570   -4.5667 C   0  0  0  0  0  0  0  0  0  0  0  0
    4.5121    0.1271   -5.5322 C   0  0  0  0  0  0  0  0  0  0  0  0
    3.3122   -0.4741   -5.1644 C   0  0  0  0  0  0  0  0  0  0  0  0
    3.0347   -0.6456   -3.8052 C   0  0  0  0  0  0  0  0  0  0  0  0
    3.7022   -0.3891   -1.7729 H   0  0  0  0  0  0  0  0  0  0  0  0
    5.8341    0.6937   -2.4527 H   0  0  0  0  0  0  0  0  0  0  0  0
    4.7376    0.2628   -6.5866 H   0  0  0  0  0  0  0  0  0  0  0  0
    2.6050   -0.8178   -5.9112 H   0  0  0  0  0  0  0  0  0  0  0  0
    1.4942   -1.3966   -3.3256 S   0  0  0  0  0  0  0  0  0  0  0  0
    0.4247   -0.0947   -3.3980 O   0  0  0  0  0  0  0  0  0  0  0  0
    1.5870   -1.8360   -1.9373 O   0  0  0  0  0  0  0  0  0  0  0  0
    1.0106   -2.2599   -4.3893 O   0  0  0  0  0  0  0  0  0  0  0  0
    6.7462    1.1811   -4.9833 C   0  0  0  0  0  0  0  0  0  0  0  0
    7.4828    0.4083   -5.2345 H   0  0  0  0  0  0  0  0  0  0  0  0
    6.6234    1.8122   -5.8685 H   0  0  0  0  0  0  0  0  0  0  0  0
    7.1720    1.7919   -4.1825 H   0  0  0  0  0  0  0  0  0  0  0  0
  1  7  1  0  0  0  0
  2  8  1  0  0  0  0
  2  1  2  0  0  0  0
  3  2  1  0  0  0  0
  4  3  2  0  0  0  0
  4  5  1  0  0  0  0
  5  6  2  0  0  0  0
  6  1  1  0  0  0  0
  6 11  1  0  0  0  0
  9  4  1  0  0  0  0
 10  5  1  0  0  0  0
 11 13  2  0  0  0  0
 12 11  2  0  0  0  0
 15 14  3  0  0  0  0
 16 22  1  0  0  0  0
 17 16  1  0  0  0  0
 17 23  1  0  0  0  0
 18 17  2  0  0  0  0
 19 20  2  0  0  0  0
 19 18  1  0  0  0  0
 20 21  1  0  0  0  0
 21 26  1  0  0  0  0
 21 16  2  0  0  0  0
 24 19  1  0  0  0  0
 25 20  1  0  0  0  0
 26 28  2  0  0  0  0
 27 26  1  0  0  0  0
 27  3  1  0  0  0  0
 29 26  2  0  0  0  0
 30 18  1  0  0  0  0
 30 33  1  0  0  0  0
 31 30  1  0  0  0  0
 32 30  1  0  0  0  0
M  END
