Coordinates from ORCA-job 4-NO2-Ph-N2-OTs-B3LYPG-6-31G_dp-MTMO-d009-169-n800
 OpenBabel09051908313D

 33 33  0  0  0  0  0  0  0  0999 V2000
   -0.0368    0.8676   -1.3068 C   0  0  0  0  0  0  0  0  0  0  0  0
    0.5570    0.0436   -2.2572 C   0  0  0  0  0  0  0  0  0  0  0  0
    1.3350    0.6193   -3.2668 C   0  0  0  0  0  0  0  0  0  0  0  0
    1.5210    2.0026   -3.3448 C   0  0  0  0  0  0  0  0  0  0  0  0
    0.9224    2.8287   -2.3995 C   0  0  0  0  0  0  0  0  0  0  0  0
    0.1550    2.2465   -1.3915 C   0  0  0  0  0  0  0  0  0  0  0  0
   -0.6466    0.4633   -0.5086 H   0  0  0  0  0  0  0  0  0  0  0  0
    0.4303   -1.0313   -2.2249 H   0  0  0  0  0  0  0  0  0  0  0  0
    2.1237    2.4121   -4.1477 H   0  0  0  0  0  0  0  0  0  0  0  0
    1.0410    3.9048   -2.4255 H   0  0  0  0  0  0  0  0  0  0  0  0
   -0.4730    3.1163   -0.3857 N   0  0  0  0  0  0  0  0  0  0  0  0
   -0.2843    4.3287   -0.4829 O   0  0  0  0  0  0  0  0  0  0  0  0
   -1.1466    2.5793    0.4926 O   0  0  0  0  0  0  0  0  0  0  0  0
    2.7346   -0.3225   -7.8513 N   0  0  0  0  0  0  0  0  0  0  0  0
    1.8397   -0.8766   -8.1870 N   0  0  0  0  0  0  0  0  0  0  0  0
    5.0138    0.3037   -2.5554 C   0  0  0  0  0  0  0  0  0  0  0  0
    6.0853    1.1920   -2.4848 C   0  0  0  0  0  0  0  0  0  0  0  0
    6.6886    1.6958   -3.6456 C   0  0  0  0  0  0  0  0  0  0  0  0
    6.1890    1.2882   -4.8930 C   0  0  0  0  0  0  0  0  0  0  0  0
    5.1213    0.4011   -4.9889 C   0  0  0  0  0  0  0  0  0  0  0  0
    4.5430   -0.0823   -3.8115 C   0  0  0  0  0  0  0  0  0  0  0  0
    4.5550   -0.0951   -1.6579 H   0  0  0  0  0  0  0  0  0  0  0  0
    6.4593    1.4967   -1.5114 H   0  0  0  0  0  0  0  0  0  0  0  0
    6.6459    1.6694   -5.8019 H   0  0  0  0  0  0  0  0  0  0  0  0
    4.7432    0.0837   -5.9545 H   0  0  0  0  0  0  0  0  0  0  0  0
    3.1660   -1.2045   -3.9208 S   0  0  0  0  0  0  0  0  0  0  0  0
    1.8859   -0.1635   -4.2720 O   0  0  0  0  0  0  0  0  0  0  0  0
    2.9266   -1.8002   -2.6105 O   0  0  0  0  0  0  0  0  0  0  0  0
    3.2628   -1.9990   -5.1337 O   0  0  0  0  0  0  0  0  0  0  0  0
    7.8682    2.6321   -3.5597 C   0  0  0  0  0  0  0  0  0  0  0  0
    7.8824    3.3361   -4.3969 H   0  0  0  0  0  0  0  0  0  0  0  0
    7.8585    3.2057   -2.6288 H   0  0  0  0  0  0  0  0  0  0  0  0
    8.8111    2.0723   -3.5895 H   0  0  0  0  0  0  0  0  0  0  0  0
  1  7  1  0  0  0  0
  2  8  1  0  0  0  0
  2  1  2  0  0  0  0
  3  2  1  0  0  0  0
  4  3  2  0  0  0  0
  4  5  1  0  0  0  0
  5  6  2  0  0  0  0
  6  1  1  0  0  0  0
  6 11  1  0  0  0  0
  9  4  1  0  0  0  0
 10  5  1  0  0  0  0
 11 13  2  0  0  0  0
 12 11  2  0  0  0  0
 15 14  3  0  0  0  0
 16 17  1  0  0  0  0
 16 22  1  0  0  0  0
 17 23  1  0  0  0  0
 18 30  1  0  0  0  0
 18 17  2  0  0  0  0
 19 18  1  0  0  0  0
 20 19  2  0  0  0  0
 20 21  1  0  0  0  0
 21 16  2  0  0  0  0
 24 19  1  0  0  0  0
 25 20  1  0  0  0  0
 26 21  1  0  0  0  0
 26 28  2  0  0  0  0
 27 26  1  0  0  0  0
 27  3  1  0  0  0  0
 29 26  2  0  0  0  0
 30 32  1  0  0  0  0
 31 30  1  0  0  0  0
 33 30  1  0  0  0  0
M  END
