Coordinates from ORCA-job 4-NO2-Ph-N2-OTs-B3LYPG-6-31G_dp-MTMO-d009-169-n800
 OpenBabel09051908313D

 33 33  0  0  0  0  0  0  0  0999 V2000
   -0.0886    0.9316   -1.0873 C   0  0  0  0  0  0  0  0  0  0  0  0
    0.3940    0.2230   -2.1828 C   0  0  0  0  0  0  0  0  0  0  0  0
    1.1469    0.8957   -3.1509 C   0  0  0  0  0  0  0  0  0  0  0  0
    1.4149    2.2639   -3.0453 C   0  0  0  0  0  0  0  0  0  0  0  0
    0.9268    2.9755   -1.9545 C   0  0  0  0  0  0  0  0  0  0  0  0
    0.1853    2.2957   -0.9891 C   0  0  0  0  0  0  0  0  0  0  0  0
   -0.6747    0.4495   -0.3149 H   0  0  0  0  0  0  0  0  0  0  0  0
    0.2003   -0.8362   -2.2945 H   0  0  0  0  0  0  0  0  0  0  0  0
    1.9935    2.7516   -3.8218 H   0  0  0  0  0  0  0  0  0  0  0  0
    1.1112    4.0356   -1.8363 H   0  0  0  0  0  0  0  0  0  0  0  0
   -0.3253    3.0434    0.1696 N   0  0  0  0  0  0  0  0  0  0  0  0
   -0.0630    4.2444    0.2330 O   0  0  0  0  0  0  0  0  0  0  0  0
   -0.9808    2.4230    1.0055 O   0  0  0  0  0  0  0  0  0  0  0  0
    4.5442   -1.5851   -8.4007 N   0  0  0  0  0  0  0  0  0  0  0  0
    4.0918   -2.5057   -8.8116 N   0  0  0  0  0  0  0  0  0  0  0  0
    4.7545    0.4042   -2.7567 C   0  0  0  0  0  0  0  0  0  0  0  0
    5.8868    1.2088   -2.6532 C   0  0  0  0  0  0  0  0  0  0  0  0
    6.5426    1.6905   -3.7957 C   0  0  0  0  0  0  0  0  0  0  0  0
    6.0340    1.3447   -5.0572 C   0  0  0  0  0  0  0  0  0  0  0  0
    4.9022    0.5440   -5.1857 C   0  0  0  0  0  0  0  0  0  0  0  0
    4.2714    0.0829   -4.0275 C   0  0  0  0  0  0  0  0  0  0  0  0
    4.2596    0.0186   -1.8726 H   0  0  0  0  0  0  0  0  0  0  0  0
    6.2690    1.4637   -1.6688 H   0  0  0  0  0  0  0  0  0  0  0  0
    6.5337    1.7045   -5.9521 H   0  0  0  0  0  0  0  0  0  0  0  0
    4.5231    0.2654   -6.1627 H   0  0  0  0  0  0  0  0  0  0  0  0
    2.8094   -0.9200   -4.1787 S   0  0  0  0  0  0  0  0  0  0  0  0
    1.5883    0.2399   -4.2924 O   0  0  0  0  0  0  0  0  0  0  0  0
    2.6096   -1.6691   -2.9425 O   0  0  0  0  0  0  0  0  0  0  0  0
    2.7728   -1.5493   -5.4882 O   0  0  0  0  0  0  0  0  0  0  0  0
    7.7871    2.5343   -3.6718 C   0  0  0  0  0  0  0  0  0  0  0  0
    7.9062    3.2012   -4.5303 H   0  0  0  0  0  0  0  0  0  0  0  0
    7.7696    3.1432   -2.7635 H   0  0  0  0  0  0  0  0  0  0  0  0
    8.6817    1.9015   -3.6231 H   0  0  0  0  0  0  0  0  0  0  0  0
  1  6  1  0  0  0  0
  1  7  1  0  0  0  0
  2  1  2  0  0  0  0
  3  4  2  0  0  0  0
  3  2  1  0  0  0  0
  4  5  1  0  0  0  0
  5 10  1  0  0  0  0
  5  6  2  0  0  0  0
  6 11  1  0  0  0  0
  8  2  1  0  0  0  0
  9  4  1  0  0  0  0
 11 12  2  0  0  0  0
 11 13  2  0  0  0  0
 15 14  3  0  0  0  0
 16 17  1  0  0  0  0
 16 22  1  0  0  0  0
 17 23  1  0  0  0  0
 18 30  1  0  0  0  0
 18 17  2  0  0  0  0
 19 18  1  0  0  0  0
 20 19  2  0  0  0  0
 20 21  1  0  0  0  0
 21 16  2  0  0  0  0
 24 19  1  0  0  0  0
 25 20  1  0  0  0  0
 26 21  1  0  0  0  0
 26 28  2  0  0  0  0
 27 26  1  0  0  0  0
 27  3  1  0  0  0  0
 29 26  2  0  0  0  0
 30 33  1  0  0  0  0
 30 32  1  0  0  0  0
 31 30  1  0  0  0  0
M  END
