Coordinates from ORCA-job 4-NO2-Ph-N2-OTs-B3LYPG-6-31G_dp-MTMO-d009-169-n800
 OpenBabel09051908313D

 33 33  0  0  0  0  0  0  0  0999 V2000
    0.1242    1.1711   -0.1491 C   0  0  0  0  0  0  0  0  0  0  0  0
    0.3337    0.2005   -1.1231 C   0  0  0  0  0  0  0  0  0  0  0  0
    0.7040    0.5975   -2.4121 C   0  0  0  0  0  0  0  0  0  0  0  0
    0.8606    1.9470   -2.7422 C   0  0  0  0  0  0  0  0  0  0  0  0
    0.6441    2.9193   -1.7718 C   0  0  0  0  0  0  0  0  0  0  0  0
    0.2820    2.5149   -0.4876 C   0  0  0  0  0  0  0  0  0  0  0  0
   -0.1646    0.9072    0.8602 H   0  0  0  0  0  0  0  0  0  0  0  0
    0.2186   -0.8525   -0.8986 H   0  0  0  0  0  0  0  0  0  0  0  0
    1.1411    2.2155   -3.7543 H   0  0  0  0  0  0  0  0  0  0  0  0
    0.7516    3.9748   -1.9881 H   0  0  0  0  0  0  0  0  0  0  0  0
    0.0571    3.5404    0.5422 N   0  0  0  0  0  0  0  0  0  0  0  0
    0.2074    4.7179    0.2167 O   0  0  0  0  0  0  0  0  0  0  0  0
   -0.2660    3.1594    1.6665 O   0  0  0  0  0  0  0  0  0  0  0  0
   11.8786    1.2795   -7.7768 N   0  0  0  0  0  0  0  0  0  0  0  0
   12.8481    1.0733   -8.2658 N   0  0  0  0  0  0  0  0  0  0  0  0
    4.3557    0.2030   -3.0279 C   0  0  0  0  0  0  0  0  0  0  0  0
    5.3881    1.0258   -3.4768 C   0  0  0  0  0  0  0  0  0  0  0  0
    5.5695    1.2846   -4.8423 C   0  0  0  0  0  0  0  0  0  0  0  0
    4.6852    0.6948   -5.7607 C   0  0  0  0  0  0  0  0  0  0  0  0
    3.6487   -0.1302   -5.3359 C   0  0  0  0  0  0  0  0  0  0  0  0
    3.4939   -0.3661   -3.9664 C   0  0  0  0  0  0  0  0  0  0  0  0
    4.2258   -0.0079   -1.9724 H   0  0  0  0  0  0  0  0  0  0  0  0
    6.0649    1.4707   -2.7529 H   0  0  0  0  0  0  0  0  0  0  0  0
    4.8140    0.8827   -6.8234 H   0  0  0  0  0  0  0  0  0  0  0  0
    2.9754   -0.5958   -6.0473 H   0  0  0  0  0  0  0  0  0  0  0  0
    2.1567   -1.4025   -3.4137 S   0  0  0  0  0  0  0  0  0  0  0  0
    0.8505   -0.3355   -3.4290 O   0  0  0  0  0  0  0  0  0  0  0  0
    2.4013   -1.8057   -2.0329 O   0  0  0  0  0  0  0  0  0  0  0  0
    1.8005   -2.3507   -4.4551 O   0  0  0  0  0  0  0  0  0  0  0  0
    6.7054    2.1539   -5.3230 C   0  0  0  0  0  0  0  0  0  0  0  0
    7.5346    1.5402   -5.6955 H   0  0  0  0  0  0  0  0  0  0  0  0
    6.3909    2.8042   -6.1454 H   0  0  0  0  0  0  0  0  0  0  0  0
    7.0967    2.7834   -4.5197 H   0  0  0  0  0  0  0  0  0  0  0  0
  1  7  1  0  0  0  0
  2  8  1  0  0  0  0
  2  1  2  0  0  0  0
  3  2  1  0  0  0  0
  4  3  2  0  0  0  0
  4  5  1  0  0  0  0
  5  6  2  0  0  0  0
  6  1  1  0  0  0  0
  6 11  1  0  0  0  0
  9  4  1  0  0  0  0
 10  5  1  0  0  0  0
 11 13  2  0  0  0  0
 12 11  2  0  0  0  0
 15 14  3  0  0  0  0
 16 22  1  0  0  0  0
 17 16  1  0  0  0  0
 17 23  1  0  0  0  0
 18 17  2  0  0  0  0
 19 20  2  0  0  0  0
 19 18  1  0  0  0  0
 20 21  1  0  0  0  0
 21 26  1  0  0  0  0
 21 16  2  0  0  0  0
 24 19  1  0  0  0  0
 25 20  1  0  0  0  0
 26 28  2  0  0  0  0
 27 26  1  0  0  0  0
 27  3  1  0  0  0  0
 29 26  2  0  0  0  0
 30 18  1  0  0  0  0
 30 33  1  0  0  0  0
 31 30  1  0  0  0  0
 32 30  1  0  0  0  0
M  END
