Coordinates from ORCA-job 4-NO2-Ph-N2-OTs-B3LYPG-6-31G_dp-MTMO-d009-169-n800
 OpenBabel09051908313D

 33 33  0  0  0  0  0  0  0  0999 V2000
    0.0019    1.1948   -0.0803 C   0  0  0  0  0  0  0  0  0  0  0  0
    0.1943    0.2192   -1.0529 C   0  0  0  0  0  0  0  0  0  0  0  0
    0.5689    0.6080   -2.3432 C   0  0  0  0  0  0  0  0  0  0  0  0
    0.7467    1.9543   -2.6760 C   0  0  0  0  0  0  0  0  0  0  0  0
    0.5474    2.9316   -1.7068 C   0  0  0  0  0  0  0  0  0  0  0  0
    0.1808    2.5352   -0.4215 C   0  0  0  0  0  0  0  0  0  0  0  0
   -0.2895    0.9374    0.9299 H   0  0  0  0  0  0  0  0  0  0  0  0
    0.0627   -0.8313   -0.8265 H   0  0  0  0  0  0  0  0  0  0  0  0
    1.0301    2.2164   -3.6889 H   0  0  0  0  0  0  0  0  0  0  0  0
    0.6718    3.9848   -1.9251 H   0  0  0  0  0  0  0  0  0  0  0  0
   -0.0259    3.5661    0.6069 N   0  0  0  0  0  0  0  0  0  0  0  0
    0.1433    4.7403    0.2792 O   0  0  0  0  0  0  0  0  0  0  0  0
   -0.3536    3.1923    1.7323 O   0  0  0  0  0  0  0  0  0  0  0  0
   13.9214    1.4608   -8.7565 N   0  0  0  0  0  0  0  0  0  0  0  0
   14.8684    1.2613   -9.2904 N   0  0  0  0  0  0  0  0  0  0  0  0
    4.2102    0.1695   -2.9648 C   0  0  0  0  0  0  0  0  0  0  0  0
    5.2495    0.9819   -3.4162 C   0  0  0  0  0  0  0  0  0  0  0  0
    5.4299    1.2392   -4.7822 C   0  0  0  0  0  0  0  0  0  0  0  0
    4.5376    0.6583   -5.6984 C   0  0  0  0  0  0  0  0  0  0  0  0
    3.4939   -0.1564   -5.2710 C   0  0  0  0  0  0  0  0  0  0  0  0
    3.3402   -0.3908   -3.9012 C   0  0  0  0  0  0  0  0  0  0  0  0
    4.0808   -0.0402   -1.9089 H   0  0  0  0  0  0  0  0  0  0  0  0
    5.9325    1.4201   -2.6939 H   0  0  0  0  0  0  0  0  0  0  0  0
    4.6655    0.8451   -6.7613 H   0  0  0  0  0  0  0  0  0  0  0  0
    2.8140   -0.6149   -5.9807 H   0  0  0  0  0  0  0  0  0  0  0  0
    1.9925   -1.4117   -3.3451 S   0  0  0  0  0  0  0  0  0  0  0  0
    0.6990   -0.3293   -3.3583 O   0  0  0  0  0  0  0  0  0  0  0  0
    2.2353   -1.8167   -1.9645 O   0  0  0  0  0  0  0  0  0  0  0  0
    1.6231   -2.3562   -4.3852 O   0  0  0  0  0  0  0  0  0  0  0  0
    6.5733    2.0973   -5.2651 C   0  0  0  0  0  0  0  0  0  0  0  0
    7.4019    1.4749   -5.6245 H   0  0  0  0  0  0  0  0  0  0  0  0
    6.2678    2.7397   -6.0969 H   0  0  0  0  0  0  0  0  0  0  0  0
    6.9625    2.7338   -4.4663 H   0  0  0  0  0  0  0  0  0  0  0  0
  1  7  1  0  0  0  0
  2  8  1  0  0  0  0
  2  1  2  0  0  0  0
  3  2  1  0  0  0  0
  4  3  2  0  0  0  0
  4  5  1  0  0  0  0
  5  6  2  0  0  0  0
  6  1  1  0  0  0  0
  6 11  1  0  0  0  0
  9  4  1  0  0  0  0
 10  5  1  0  0  0  0
 11 13  2  0  0  0  0
 12 11  2  0  0  0  0
 15 14  3  0  0  0  0
 16 22  1  0  0  0  0
 17 16  1  0  0  0  0
 17 23  1  0  0  0  0
 18 17  2  0  0  0  0
 19 20  2  0  0  0  0
 19 18  1  0  0  0  0
 20 21  1  0  0  0  0
 21 26  1  0  0  0  0
 21 16  2  0  0  0  0
 24 19  1  0  0  0  0
 25 20  1  0  0  0  0
 26 28  2  0  0  0  0
 27 26  1  0  0  0  0
 27  3  1  0  0  0  0
 29 26  2  0  0  0  0
 30 18  1  0  0  0  0
 30 33  1  0  0  0  0
 31 30  1  0  0  0  0
 32 30  1  0  0  0  0
M  END
