Coordinates from ORCA-job 4-NO2-Ph-N2-OTs-B3LYPG-6-31G_dp-MTMO-d009-169-n800
 OpenBabel09051908313D

 33 33  0  0  0  0  0  0  0  0999 V2000
    0.0372    1.1925   -0.3541 C   0  0  0  0  0  0  0  0  0  0  0  0
    0.3457    0.2197   -1.2992 C   0  0  0  0  0  0  0  0  0  0  0  0
    0.8302    0.6146   -2.5506 C   0  0  0  0  0  0  0  0  0  0  0  0
    1.0023    1.9643   -2.8721 C   0  0  0  0  0  0  0  0  0  0  0  0
    0.6863    2.9388   -1.9314 C   0  0  0  0  0  0  0  0  0  0  0  0
    0.2116    2.5364   -0.6838 C   0  0  0  0  0  0  0  0  0  0  0  0
   -0.3403    0.9298    0.6257 H   0  0  0  0  0  0  0  0  0  0  0  0
    0.2207   -0.8331   -1.0798 H   0  0  0  0  0  0  0  0  0  0  0  0
    1.3718    2.2312   -3.8556 H   0  0  0  0  0  0  0  0  0  0  0  0
    0.8021    3.9944   -2.1429 H   0  0  0  0  0  0  0  0  0  0  0  0
   -0.1178    3.5640    0.3153 N   0  0  0  0  0  0  0  0  0  0  0  0
    0.0496    4.7415   -0.0014 O   0  0  0  0  0  0  0  0  0  0  0  0
   -0.5393    3.1845    1.4071 O   0  0  0  0  0  0  0  0  0  0  0  0
    9.3976    1.2110   -8.1490 N   0  0  0  0  0  0  0  0  0  0  0  0
   10.1901    1.1361   -8.9155 N   0  0  0  0  0  0  0  0  0  0  0  0
    4.5207    0.2407   -2.8488 C   0  0  0  0  0  0  0  0  0  0  0  0
    5.5984    1.0429   -3.2209 C   0  0  0  0  0  0  0  0  0  0  0  0
    5.9248    1.2423   -4.5696 C   0  0  0  0  0  0  0  0  0  0  0  0
    5.1451    0.6063   -5.5496 C   0  0  0  0  0  0  0  0  0  0  0  0
    4.0642   -0.1977   -5.2020 C   0  0  0  0  0  0  0  0  0  0  0  0
    3.7616   -0.3704   -3.8479 C   0  0  0  0  0  0  0  0  0  0  0  0
    4.2817    0.0724   -1.8046 H   0  0  0  0  0  0  0  0  0  0  0  0
    6.1998    1.5155   -2.4495 H   0  0  0  0  0  0  0  0  0  0  0  0
    5.3950    0.7372   -6.5991 H   0  0  0  0  0  0  0  0  0  0  0  0
    3.4730   -0.7008   -5.9591 H   0  0  0  0  0  0  0  0  0  0  0  0
    2.3756   -1.3910   -3.3956 S   0  0  0  0  0  0  0  0  0  0  0  0
    1.0804   -0.3198   -3.5455 O   0  0  0  0  0  0  0  0  0  0  0  0
    2.4951   -1.7685   -1.9912 O   0  0  0  0  0  0  0  0  0  0  0  0
    2.1084   -2.3582   -4.4462 O   0  0  0  0  0  0  0  0  0  0  0  0
    7.0787    2.1300   -4.9663 C   0  0  0  0  0  0  0  0  0  0  0  0
    7.6370    1.7083   -5.8074 H   0  0  0  0  0  0  0  0  0  0  0  0
    6.7192    3.1178   -5.2792 H   0  0  0  0  0  0  0  0  0  0  0  0
    7.7718    2.2819   -4.1346 H   0  0  0  0  0  0  0  0  0  0  0  0
  1  7  1  0  0  0  0
  2  8  1  0  0  0  0
  2  1  2  0  0  0  0
  3  2  1  0  0  0  0
  4  3  2  0  0  0  0
  4  5  1  0  0  0  0
  5  6  2  0  0  0  0
  6  1  1  0  0  0  0
  6 11  1  0  0  0  0
  9  4  1  0  0  0  0
 10  5  1  0  0  0  0
 11 13  2  0  0  0  0
 12 11  2  0  0  0  0
 15 14  3  0  0  0  0
 16 22  1  0  0  0  0
 17 16  1  0  0  0  0
 17 23  1  0  0  0  0
 18 17  2  0  0  0  0
 19 20  2  0  0  0  0
 19 18  1  0  0  0  0
 20 21  1  0  0  0  0
 21 26  1  0  0  0  0
 21 16  2  0  0  0  0
 24 19  1  0  0  0  0
 25 20  1  0  0  0  0
 26 28  2  0  0  0  0
 27 26  1  0  0  0  0
 27  3  1  0  0  0  0
 29 26  2  0  0  0  0
 30 18  1  0  0  0  0
 30 33  1  0  0  0  0
 31 30  1  0  0  0  0
 32 30  1  0  0  0  0
M  END
