Coordinates from ORCA-job 4-NO2-Ph-N2-OTs-B3LYPG-6-31G_dp-MTMO-d009-169-n800
 OpenBabel09051908313D

 33 34  0  0  0  0  0  0  0  0999 V2000
   -1.1757   -0.1981   -2.6009 C   0  0  0  0  0  0  0  0  0  0  0  0
   -0.3084    0.3826   -3.4888 C   0  0  0  0  0  0  0  0  0  0  0  0
    0.3671    1.6702   -3.1962 C   0  0  0  0  0  0  0  0  0  0  0  0
    0.0110    2.2379   -1.8727 C   0  0  0  0  0  0  0  0  0  0  0  0
   -0.8636    1.6076   -1.0269 C   0  0  0  0  0  0  0  0  0  0  0  0
   -1.4669    0.3926   -1.3671 C   0  0  0  0  0  0  0  0  0  0  0  0
   -1.6493   -1.1396   -2.8562 H   0  0  0  0  0  0  0  0  0  0  0  0
   -0.0740   -0.0603   -4.4497 H   0  0  0  0  0  0  0  0  0  0  0  0
    0.4843    3.1807   -1.6258 H   0  0  0  0  0  0  0  0  0  0  0  0
   -1.0980    2.0579   -0.0687 H   0  0  0  0  0  0  0  0  0  0  0  0
   -2.3797   -0.2441   -0.4556 N   0  0  0  0  0  0  0  0  0  0  0  0
   -2.6053    0.3150    0.6254 O   0  0  0  0  0  0  0  0  0  0  0  0
   -2.8902   -1.3176   -0.8003 O   0  0  0  0  0  0  0  0  0  0  0  0
    1.0008    2.1136   -3.8303 N   0  0  0  0  0  0  0  0  0  0  0  0
    1.7749    2.6405   -4.5895 N   0  0  0  0  0  0  0  0  0  0  0  0
    6.0400    0.7644   -5.2762 C   0  0  0  0  0  0  0  0  0  0  0  0
    7.1513    0.0926   -4.7749 C   0  0  0  0  0  0  0  0  0  0  0  0
    7.8937    0.6138   -3.7043 C   0  0  0  0  0  0  0  0  0  0  0  0
    7.5017    1.8414   -3.1474 C   0  0  0  0  0  0  0  0  0  0  0  0
    6.3944    2.5314   -3.6316 C   0  0  0  0  0  0  0  0  0  0  0  0
    5.6720    1.9784   -4.6916 C   0  0  0  0  0  0  0  0  0  0  0  0
    5.4746    0.3692   -6.1128 H   0  0  0  0  0  0  0  0  0  0  0  0
    7.4515   -0.8490   -5.2246 H   0  0  0  0  0  0  0  0  0  0  0  0
    8.0746    2.2642   -2.3269 H   0  0  0  0  0  0  0  0  0  0  0  0
    6.0992    3.4861   -3.2116 H   0  0  0  0  0  0  0  0  0  0  0  0
    4.2643    2.8511   -5.3280 S   0  0  0  0  0  0  0  0  0  0  0  0
    3.1258    2.1190   -4.2756 O   0  0  0  0  0  0  0  0  0  0  0  0
    3.9500    2.4072   -6.6791 O   0  0  0  0  0  0  0  0  0  0  0  0
    4.3300    4.2627   -4.9749 O   0  0  0  0  0  0  0  0  0  0  0  0
    9.0777   -0.1382   -3.1494 C   0  0  0  0  0  0  0  0  0  0  0  0
    8.7715   -0.7829   -2.3161 H   0  0  0  0  0  0  0  0  0  0  0  0
    9.5364   -0.7800   -3.9069 H   0  0  0  0  0  0  0  0  0  0  0  0
    9.8425    0.5445   -2.7689 H   0  0  0  0  0  0  0  0  0  0  0  0
  1  6  2  0  0  0  0
  2  3  2  0  0  0  0
  2  1  1  0  0  0  0
  3  4  1  0  0  0  0
  4  9  1  0  0  0  0
  4  5  2  0  0  0  0
  5 10  1  0  0  0  0
  6  5  1  0  0  0  0
  6 11  1  0  0  0  0
  7  1  1  0  0  0  0
  8  2  1  0  0  0  0
 11 12  2  0  0  0  0
 13 11  2  0  0  0  0
 14  3  1  0  0  0  0
 15 27  1  0  0  0  0
 15 14  1  0  0  0  0
 16 17  2  0  0  0  0
 16 21  1  0  0  0  0
 17 18  1  0  0  0  0
 18 30  1  0  0  0  0
 18 19  2  0  0  0  0
 19 24  1  0  0  0  0
 20 25  1  0  0  0  0
 20 19  1  0  0  0  0
 21 20  2  0  0  0  0
 22 16  1  0  0  0  0
 23 17  1  0  0  0  0
 26 29  2  0  0  0  0
 26 21  1  0  0  0  0
 26 27  1  0  0  0  0
 28 26  2  0  0  0  0
 30 33  1  0  0  0  0
 30 31  1  0  0  0  0
 32 30  1  0  0  0  0
M  RAD  2  14   2  15   2
M  END
