Coordinates from ORCA-job 4-NO2-Ph-N2-OTs-B3LYPG-6-31G_dp-MTMO-d009-169-n800
 OpenBabel09051908313D

 33 33  0  0  0  0  0  0  0  0999 V2000
   -0.1080    0.9712   -1.0155 C   0  0  0  0  0  0  0  0  0  0  0  0
    0.3528    0.2569   -2.1167 C   0  0  0  0  0  0  0  0  0  0  0  0
    1.0997    0.9211   -3.0953 C   0  0  0  0  0  0  0  0  0  0  0  0
    1.3833    2.2865   -2.9941 C   0  0  0  0  0  0  0  0  0  0  0  0
    0.9169    3.0039   -1.8976 C   0  0  0  0  0  0  0  0  0  0  0  0
    0.1813    2.3324   -0.9220 C   0  0  0  0  0  0  0  0  0  0  0  0
   -0.6888    0.4958   -0.2350 H   0  0  0  0  0  0  0  0  0  0  0  0
    0.1466   -0.8002   -2.2250 H   0  0  0  0  0  0  0  0  0  0  0  0
    1.9564    2.7678   -3.7787 H   0  0  0  0  0  0  0  0  0  0  0  0
    1.1139    4.0621   -1.7828 H   0  0  0  0  0  0  0  0  0  0  0  0
   -0.3065    3.0862    0.2426 N   0  0  0  0  0  0  0  0  0  0  0  0
   -0.0317    4.2846    0.3013 O   0  0  0  0  0  0  0  0  0  0  0  0
   -0.9569    2.4730    1.0878 O   0  0  0  0  0  0  0  0  0  0  0  0
    5.0327   -1.5705   -8.5977 N   0  0  0  0  0  0  0  0  0  0  0  0
    4.8155   -2.5212   -9.1176 N   0  0  0  0  0  0  0  0  0  0  0  0
    4.7088    0.3966   -2.7632 C   0  0  0  0  0  0  0  0  0  0  0  0
    5.8521    1.1881   -2.6834 C   0  0  0  0  0  0  0  0  0  0  0  0
    6.4973    1.6514   -3.8396 C   0  0  0  0  0  0  0  0  0  0  0  0
    5.9668    1.3000   -5.0903 C   0  0  0  0  0  0  0  0  0  0  0  0
    4.8237    0.5121   -5.1951 C   0  0  0  0  0  0  0  0  0  0  0  0
    4.2035    0.0697   -4.0239 C   0  0  0  0  0  0  0  0  0  0  0  0
    4.2222    0.0253   -1.8685 H   0  0  0  0  0  0  0  0  0  0  0  0
    6.2514    1.4475   -1.7069 H   0  0  0  0  0  0  0  0  0  0  0  0
    6.4580    1.6451   -5.9957 H   0  0  0  0  0  0  0  0  0  0  0  0
    4.4270    0.2292   -6.1637 H   0  0  0  0  0  0  0  0  0  0  0  0
    2.7265   -0.9150   -4.1456 S   0  0  0  0  0  0  0  0  0  0  0  0
    1.5184    0.2603   -4.2421 O   0  0  0  0  0  0  0  0  0  0  0  0
    2.5388   -1.6568   -2.9032 O   0  0  0  0  0  0  0  0  0  0  0  0
    2.6593   -1.5473   -5.4522 O   0  0  0  0  0  0  0  0  0  0  0  0
    7.7531    2.4816   -3.7410 C   0  0  0  0  0  0  0  0  0  0  0  0
    7.8695    3.1367   -4.6089 H   0  0  0  0  0  0  0  0  0  0  0  0
    7.7537    3.1018   -2.8400 H   0  0  0  0  0  0  0  0  0  0  0  0
    8.6408    1.8390   -3.6951 H   0  0  0  0  0  0  0  0  0  0  0  0
  1  6  1  0  0  0  0
  1  7  1  0  0  0  0
  2  1  2  0  0  0  0
  3  4  2  0  0  0  0
  3  2  1  0  0  0  0
  4  5  1  0  0  0  0
  5 10  1  0  0  0  0
  5  6  2  0  0  0  0
  6 11  1  0  0  0  0
  8  2  1  0  0  0  0
  9  4  1  0  0  0  0
 11 12  2  0  0  0  0
 11 13  2  0  0  0  0
 15 14  3  0  0  0  0
 16 17  1  0  0  0  0
 16 22  1  0  0  0  0
 17 23  1  0  0  0  0
 18 30  1  0  0  0  0
 18 17  2  0  0  0  0
 19 18  1  0  0  0  0
 20 19  2  0  0  0  0
 20 21  1  0  0  0  0
 21 16  2  0  0  0  0
 24 19  1  0  0  0  0
 25 20  1  0  0  0  0
 26 21  1  0  0  0  0
 26 28  2  0  0  0  0
 27 26  1  0  0  0  0
 27  3  1  0  0  0  0
 29 26  2  0  0  0  0
 30 33  1  0  0  0  0
 30 32  1  0  0  0  0
 31 30  1  0  0  0  0
M  END
