Coordinates from ORCA-job 4-NO2-Ph-N2-OTs-B3LYPG-6-31G_dp-MTMO-d009-169-n800
 OpenBabel09051908313D

 33 33  0  0  0  0  0  0  0  0999 V2000
   -0.1028    0.9616   -1.0335 C   0  0  0  0  0  0  0  0  0  0  0  0
    0.3623    0.2489   -2.1339 C   0  0  0  0  0  0  0  0  0  0  0  0
    1.1108    0.9150   -3.1099 C   0  0  0  0  0  0  0  0  0  0  0  0
    1.3917    2.2808   -3.0071 C   0  0  0  0  0  0  0  0  0  0  0  0
    0.9210    2.9967   -1.9115 C   0  0  0  0  0  0  0  0  0  0  0  0
    0.1838    2.3233   -0.9384 C   0  0  0  0  0  0  0  0  0  0  0  0
   -0.6850    0.4847   -0.2549 H   0  0  0  0  0  0  0  0  0  0  0  0
    0.1583   -0.8086   -2.2434 H   0  0  0  0  0  0  0  0  0  0  0  0
    1.9663    2.7636   -3.7898 H   0  0  0  0  0  0  0  0  0  0  0  0
    1.1158    4.0552   -1.7954 H   0  0  0  0  0  0  0  0  0  0  0  0
   -0.3085    3.0755    0.2253 N   0  0  0  0  0  0  0  0  0  0  0  0
   -0.0358    4.2743    0.2857 O   0  0  0  0  0  0  0  0  0  0  0  0
   -0.9603    2.4607    1.0683 O   0  0  0  0  0  0  0  0  0  0  0  0
    4.8957   -1.5665   -8.5385 N   0  0  0  0  0  0  0  0  0  0  0  0
    4.6564   -2.5228   -9.0379 N   0  0  0  0  0  0  0  0  0  0  0  0
    4.7192    0.3978   -2.7625 C   0  0  0  0  0  0  0  0  0  0  0  0
    5.8601    1.1922   -2.6766 C   0  0  0  0  0  0  0  0  0  0  0  0
    6.5077    1.6607   -3.8293 C   0  0  0  0  0  0  0  0  0  0  0  0
    5.9822    1.3117   -5.0828 C   0  0  0  0  0  0  0  0  0  0  0  0
    4.8416    0.5210   -5.1937 C   0  0  0  0  0  0  0  0  0  0  0  0
    4.2190    0.0733   -4.0258 C   0  0  0  0  0  0  0  0  0  0  0  0
    4.2307    0.0224   -1.8705 H   0  0  0  0  0  0  0  0  0  0  0  0
    6.2554    1.4497   -1.6980 H   0  0  0  0  0  0  0  0  0  0  0  0
    6.4754    1.6610   -5.9854 H   0  0  0  0  0  0  0  0  0  0  0  0
    4.4490    0.2397   -6.1645 H   0  0  0  0  0  0  0  0  0  0  0  0
    2.7457   -0.9160   -4.1556 S   0  0  0  0  0  0  0  0  0  0  0  0
    1.5343    0.2555   -4.2558 O   0  0  0  0  0  0  0  0  0  0  0  0
    2.5549   -1.6604   -2.9152 O   0  0  0  0  0  0  0  0  0  0  0  0
    2.6865   -1.5466   -5.4634 O   0  0  0  0  0  0  0  0  0  0  0  0
    7.7611    2.4939   -3.7239 C   0  0  0  0  0  0  0  0  0  0  0  0
    7.8835    3.1454   -4.5937 H   0  0  0  0  0  0  0  0  0  0  0  0
    7.7529    3.1179   -2.8256 H   0  0  0  0  0  0  0  0  0  0  0  0
    8.6495    1.8532   -3.6676 H   0  0  0  0  0  0  0  0  0  0  0  0
  1  6  1  0  0  0  0
  1  7  1  0  0  0  0
  2  1  2  0  0  0  0
  3  4  2  0  0  0  0
  3  2  1  0  0  0  0
  4  5  1  0  0  0  0
  5 10  1  0  0  0  0
  5  6  2  0  0  0  0
  6 11  1  0  0  0  0
  8  2  1  0  0  0  0
  9  4  1  0  0  0  0
 11 12  2  0  0  0  0
 11 13  2  0  0  0  0
 15 14  3  0  0  0  0
 16 17  1  0  0  0  0
 16 22  1  0  0  0  0
 17 23  1  0  0  0  0
 18 30  1  0  0  0  0
 18 17  2  0  0  0  0
 19 18  1  0  0  0  0
 20 19  2  0  0  0  0
 20 21  1  0  0  0  0
 21 16  2  0  0  0  0
 24 19  1  0  0  0  0
 25 20  1  0  0  0  0
 26 21  1  0  0  0  0
 26 28  2  0  0  0  0
 27 26  1  0  0  0  0
 27  3  1  0  0  0  0
 29 26  2  0  0  0  0
 30 33  1  0  0  0  0
 30 32  1  0  0  0  0
 31 30  1  0  0  0  0
M  END
