Coordinates from ORCA-job 4-NO2-Ph-N2-OTs-B3LYPG-6-31G_dp-MTMO-d009-169-n800
 OpenBabel09051908313D

 33 33  0  0  0  0  0  0  0  0999 V2000
    0.1087    1.1731   -0.1390 C   0  0  0  0  0  0  0  0  0  0  0  0
    0.3159    0.2017   -1.1128 C   0  0  0  0  0  0  0  0  0  0  0  0
    0.6855    0.5977   -2.4023 C   0  0  0  0  0  0  0  0  0  0  0  0
    0.8438    1.9468   -2.7331 C   0  0  0  0  0  0  0  0  0  0  0  0
    0.6296    2.9199   -1.7629 C   0  0  0  0  0  0  0  0  0  0  0  0
    0.2681    2.5165   -0.4782 C   0  0  0  0  0  0  0  0  0  0  0  0
   -0.1795    0.9101    0.8707 H   0  0  0  0  0  0  0  0  0  0  0  0
    0.1995   -0.8510   -0.8878 H   0  0  0  0  0  0  0  0  0  0  0  0
    1.1237    2.2145   -3.7456 H   0  0  0  0  0  0  0  0  0  0  0  0
    0.7384    3.9751   -1.9798 H   0  0  0  0  0  0  0  0  0  0  0  0
    0.0457    3.5428    0.5514 N   0  0  0  0  0  0  0  0  0  0  0  0
    0.1974    4.7199    0.2252 O   0  0  0  0  0  0  0  0  0  0  0  0
   -0.2769    3.1628    1.6762 O   0  0  0  0  0  0  0  0  0  0  0  0
   12.1688    1.2972   -7.9095 N   0  0  0  0  0  0  0  0  0  0  0  0
   13.1317    1.0891   -8.4106 N   0  0  0  0  0  0  0  0  0  0  0  0
    4.3350    0.2000   -3.0194 C   0  0  0  0  0  0  0  0  0  0  0  0
    5.3675    1.0224   -3.4685 C   0  0  0  0  0  0  0  0  0  0  0  0
    5.5486    1.2813   -4.8341 C   0  0  0  0  0  0  0  0  0  0  0  0
    4.6638    0.6919   -5.7522 C   0  0  0  0  0  0  0  0  0  0  0  0
    3.6271   -0.1327   -5.3272 C   0  0  0  0  0  0  0  0  0  0  0  0
    3.4727   -0.3687   -3.9577 C   0  0  0  0  0  0  0  0  0  0  0  0
    4.2054   -0.0110   -1.9639 H   0  0  0  0  0  0  0  0  0  0  0  0
    6.0448    1.4670   -2.7448 H   0  0  0  0  0  0  0  0  0  0  0  0
    4.7923    0.8799   -6.8149 H   0  0  0  0  0  0  0  0  0  0  0  0
    2.9533   -0.5979   -6.0384 H   0  0  0  0  0  0  0  0  0  0  0  0
    2.1350   -1.4042   -3.4046 S   0  0  0  0  0  0  0  0  0  0  0  0
    0.8298   -0.3359   -3.4189 O   0  0  0  0  0  0  0  0  0  0  0  0
    2.3800   -1.8079   -2.0241 O   0  0  0  0  0  0  0  0  0  0  0  0
    1.7773   -2.3517   -4.4462 O   0  0  0  0  0  0  0  0  0  0  0  0
    6.6847    2.1502   -5.3149 C   0  0  0  0  0  0  0  0  0  0  0  0
    7.5150    1.5359   -5.6844 H   0  0  0  0  0  0  0  0  0  0  0  0
    6.3713    2.7982   -6.1394 H   0  0  0  0  0  0  0  0  0  0  0  0
    7.0742    2.7818   -4.5125 H   0  0  0  0  0  0  0  0  0  0  0  0
  1  7  1  0  0  0  0
  2  8  1  0  0  0  0
  2  1  2  0  0  0  0
  3  2  1  0  0  0  0
  4  3  2  0  0  0  0
  4  5  1  0  0  0  0
  5  6  2  0  0  0  0
  6  1  1  0  0  0  0
  6 11  1  0  0  0  0
  9  4  1  0  0  0  0
 10  5  1  0  0  0  0
 11 13  2  0  0  0  0
 12 11  2  0  0  0  0
 15 14  3  0  0  0  0
 16 22  1  0  0  0  0
 17 16  1  0  0  0  0
 17 23  1  0  0  0  0
 18 17  2  0  0  0  0
 19 20  2  0  0  0  0
 19 18  1  0  0  0  0
 20 21  1  0  0  0  0
 21 26  1  0  0  0  0
 21 16  2  0  0  0  0
 24 19  1  0  0  0  0
 25 20  1  0  0  0  0
 26 28  2  0  0  0  0
 27 26  1  0  0  0  0
 27  3  1  0  0  0  0
 29 26  2  0  0  0  0
 30 18  1  0  0  0  0
 30 33  1  0  0  0  0
 31 30  1  0  0  0  0
 32 30  1  0  0  0  0
M  END
