Coordinates from ORCA-job 4-NO2-Ph-N2-OTs-B3LYPG-6-31G_dp-MTMO-d009-169-n800
 OpenBabel09051908313D

 33 33  0  0  0  0  0  0  0  0999 V2000
    0.1261    1.1707   -0.1499 C   0  0  0  0  0  0  0  0  0  0  0  0
    0.3359    0.2003   -1.1240 C   0  0  0  0  0  0  0  0  0  0  0  0
    0.7061    0.5976   -2.4130 C   0  0  0  0  0  0  0  0  0  0  0  0
    0.8623    1.9472   -2.7429 C   0  0  0  0  0  0  0  0  0  0  0  0
    0.6454    2.9193   -1.7723 C   0  0  0  0  0  0  0  0  0  0  0  0
    0.2834    2.5146   -0.4883 C   0  0  0  0  0  0  0  0  0  0  0  0
   -0.1626    0.9066    0.8593 H   0  0  0  0  0  0  0  0  0  0  0  0
    0.2212   -0.8527   -0.8997 H   0  0  0  0  0  0  0  0  0  0  0  0
    1.1426    2.2160   -3.7549 H   0  0  0  0  0  0  0  0  0  0  0  0
    0.7525    3.9749   -1.9885 H   0  0  0  0  0  0  0  0  0  0  0  0
    0.0582    3.5399    0.5417 N   0  0  0  0  0  0  0  0  0  0  0  0
    0.2081    4.7175    0.2163 O   0  0  0  0  0  0  0  0  0  0  0  0
   -0.2648    3.1587    1.6660 O   0  0  0  0  0  0  0  0  0  0  0  0
   11.8446    1.2769   -7.7605 N   0  0  0  0  0  0  0  0  0  0  0  0
   12.8156    1.0715   -8.2469 N   0  0  0  0  0  0  0  0  0  0  0  0
    4.3580    0.2039   -3.0293 C   0  0  0  0  0  0  0  0  0  0  0  0
    5.3904    1.0266   -3.4783 C   0  0  0  0  0  0  0  0  0  0  0  0
    5.5721    1.2849   -4.8439 C   0  0  0  0  0  0  0  0  0  0  0  0
    4.6879    0.6947   -5.7622 C   0  0  0  0  0  0  0  0  0  0  0  0
    3.6514   -0.1302   -5.3373 C   0  0  0  0  0  0  0  0  0  0  0  0
    3.4964   -0.3656   -3.9677 C   0  0  0  0  0  0  0  0  0  0  0  0
    4.2280   -0.0067   -1.9737 H   0  0  0  0  0  0  0  0  0  0  0  0
    6.0672    1.4717   -2.7545 H   0  0  0  0  0  0  0  0  0  0  0  0
    4.8169    0.8822   -6.8249 H   0  0  0  0  0  0  0  0  0  0  0  0
    2.9782   -0.5960   -6.0486 H   0  0  0  0  0  0  0  0  0  0  0  0
    2.1592   -1.4020   -3.4149 S   0  0  0  0  0  0  0  0  0  0  0  0
    0.8529   -0.3351   -3.4301 O   0  0  0  0  0  0  0  0  0  0  0  0
    2.4040   -1.8051   -2.0341 O   0  0  0  0  0  0  0  0  0  0  0  0
    1.8030   -2.3501   -4.4563 O   0  0  0  0  0  0  0  0  0  0  0  0
    6.7079    2.1541   -5.3247 C   0  0  0  0  0  0  0  0  0  0  0  0
    7.5372    1.5404   -5.6973 H   0  0  0  0  0  0  0  0  0  0  0  0
    6.3934    2.8043   -6.1471 H   0  0  0  0  0  0  0  0  0  0  0  0
    7.0993    2.7836   -4.5215 H   0  0  0  0  0  0  0  0  0  0  0  0
  1  7  1  0  0  0  0
  2  8  1  0  0  0  0
  2  1  2  0  0  0  0
  3  2  1  0  0  0  0
  4  3  2  0  0  0  0
  4  5  1  0  0  0  0
  5  6  2  0  0  0  0
  6  1  1  0  0  0  0
  6 11  1  0  0  0  0
  9  4  1  0  0  0  0
 10  5  1  0  0  0  0
 11 13  2  0  0  0  0
 12 11  2  0  0  0  0
 15 14  3  0  0  0  0
 16 22  1  0  0  0  0
 17 16  1  0  0  0  0
 17 23  1  0  0  0  0
 18 17  2  0  0  0  0
 19 20  2  0  0  0  0
 19 18  1  0  0  0  0
 20 21  1  0  0  0  0
 21 26  1  0  0  0  0
 21 16  2  0  0  0  0
 24 19  1  0  0  0  0
 25 20  1  0  0  0  0
 26 28  2  0  0  0  0
 27 26  1  0  0  0  0
 27  3  1  0  0  0  0
 29 26  2  0  0  0  0
 30 18  1  0  0  0  0
 30 33  1  0  0  0  0
 31 30  1  0  0  0  0
 32 30  1  0  0  0  0
M  END
