Coordinates from ORCA-job 4-NO2-Ph-N2-OTs-B3LYPG-6-31G_dp-MTMO-d009-169-n800
 OpenBabel09051908313D

 33 34  0  0  0  0  0  0  0  0999 V2000
   -1.7164    0.8021   -2.5355 C   0  0  0  0  0  0  0  0  0  0  0  0
   -0.6456   -0.0291   -2.8560 C   0  0  0  0  0  0  0  0  0  0  0  0
    0.5934    0.5472   -3.1121 C   0  0  0  0  0  0  0  0  0  0  0  0
    0.8058    1.9233   -3.1144 C   0  0  0  0  0  0  0  0  0  0  0  0
   -0.2710    2.7540   -2.8133 C   0  0  0  0  0  0  0  0  0  0  0  0
   -1.5082    2.1800   -2.5232 C   0  0  0  0  0  0  0  0  0  0  0  0
   -2.6992    0.4074   -2.3113 H   0  0  0  0  0  0  0  0  0  0  0  0
   -0.7649   -1.1057   -2.9058 H   0  0  0  0  0  0  0  0  0  0  0  0
    1.7817    2.3368   -3.3300 H   0  0  0  0  0  0  0  0  0  0  0  0
   -0.1659    3.8317   -2.7918 H   0  0  0  0  0  0  0  0  0  0  0  0
   -2.6422    3.0658   -2.2017 N   0  0  0  0  0  0  0  0  0  0  0  0
   -2.4346    4.2775   -2.2035 O   0  0  0  0  0  0  0  0  0  0  0  0
   -3.7237    2.5360   -1.9542 O   0  0  0  0  0  0  0  0  0  0  0  0
    1.7141   -0.4968   -3.5779 N   0  0  0  0  0  0  0  0  0  0  0  0
    2.8357   -0.5146   -3.1271 N   0  0  0  0  0  0  0  0  0  0  0  0
    6.1950    1.8867   -2.9033 C   0  0  0  0  0  0  0  0  0  0  0  0
    7.1088    2.1057   -3.9293 C   0  0  0  0  0  0  0  0  0  0  0  0
    7.5819    1.0457   -4.7202 C   0  0  0  0  0  0  0  0  0  0  0  0
    7.1183   -0.2493   -4.4519 C   0  0  0  0  0  0  0  0  0  0  0  0
    6.2037   -0.4921   -3.4281 C   0  0  0  0  0  0  0  0  0  0  0  0
    5.7481    0.5837   -2.6660 C   0  0  0  0  0  0  0  0  0  0  0  0
    5.8431    2.7021   -2.2811 H   0  0  0  0  0  0  0  0  0  0  0  0
    7.4676    3.1145   -4.1156 H   0  0  0  0  0  0  0  0  0  0  0  0
    7.4819   -1.0813   -5.0480 H   0  0  0  0  0  0  0  0  0  0  0  0
    5.8545   -1.4953   -3.2136 H   0  0  0  0  0  0  0  0  0  0  0  0
    4.5840    0.2941   -1.3506 S   0  0  0  0  0  0  0  0  0  0  0  0
    3.0920    0.5409   -2.0969 O   0  0  0  0  0  0  0  0  0  0  0  0
    4.6290    1.3995   -0.4040 O   0  0  0  0  0  0  0  0  0  0  0  0
    4.6572   -1.0998   -0.9373 O   0  0  0  0  0  0  0  0  0  0  0  0
    8.5700    1.3048   -5.8314 C   0  0  0  0  0  0  0  0  0  0  0  0
    8.1266    1.9318   -6.6140 H   0  0  0  0  0  0  0  0  0  0  0  0
    9.4541    1.8330   -5.4588 H   0  0  0  0  0  0  0  0  0  0  0  0
    8.9035    0.3745   -6.2967 H   0  0  0  0  0  0  0  0  0  0  0  0
  1  6  1  0  0  0  0
  1  7  1  0  0  0  0
  2  1  2  0  0  0  0
  3  2  1  0  0  0  0
  4  3  2  0  0  0  0
  4  5  1  0  0  0  0
  5 10  1  0  0  0  0
  5  6  2  0  0  0  0
  6 11  1  0  0  0  0
  8  2  1  0  0  0  0
  9  4  1  0  0  0  0
 11 13  2  0  0  0  0
 12 11  2  0  0  0  0
 14 15  1  0  0  0  0
 14  3  1  0  0  0  0
 15 27  1  0  0  0  0
 16 21  1  0  0  0  0
 16 22  1  0  0  0  0
 17 16  2  0  0  0  0
 18 19  2  0  0  0  0
 18 17  1  0  0  0  0
 19 20  1  0  0  0  0
 20 25  1  0  0  0  0
 20 21  2  0  0  0  0
 21 26  1  0  0  0  0
 23 17  1  0  0  0  0
 24 19  1  0  0  0  0
 26 29  2  0  0  0  0
 26 28  2  0  0  0  0
 27 26  1  0  0  0  0
 30 32  1  0  0  0  0
 30 18  1  0  0  0  0
 31 30  1  0  0  0  0
 33 30  1  0  0  0  0
M  RAD  2  14   2  15   2
M  END
