Coordinates from ORCA-job 4-NO2-Ph-N2-OTs-B3LYPG-6-31G_dp-MTMO-d009-169-n800
 OpenBabel09051908313D

 33 33  0  0  0  0  0  0  0  0999 V2000
    0.0632    1.1790   -0.1115 C   0  0  0  0  0  0  0  0  0  0  0  0
    0.2651    0.2062   -1.0850 C   0  0  0  0  0  0  0  0  0  0  0  0
    0.6350    0.5998   -2.3751 C   0  0  0  0  0  0  0  0  0  0  0  0
    0.7988    1.9480   -2.7070 C   0  0  0  0  0  0  0  0  0  0  0  0
    0.5900    2.9226   -1.7371 C   0  0  0  0  0  0  0  0  0  0  0  0
    0.2281    2.5215   -0.4518 C   0  0  0  0  0  0  0  0  0  0  0  0
   -0.2251    0.9179    0.8986 H   0  0  0  0  0  0  0  0  0  0  0  0
    0.1443   -0.8458   -0.8593 H   0  0  0  0  0  0  0  0  0  0  0  0
    1.0788    2.2139   -3.7199 H   0  0  0  0  0  0  0  0  0  0  0  0
    0.7033    3.9772   -1.9546 H   0  0  0  0  0  0  0  0  0  0  0  0
    0.0114    3.5494    0.5775 N   0  0  0  0  0  0  0  0  0  0  0  0
    0.1681    4.7256    0.2505 O   0  0  0  0  0  0  0  0  0  0  0  0
   -0.3118    3.1715    1.7028 O   0  0  0  0  0  0  0  0  0  0  0  0
   12.9487    1.3480   -8.2781 N   0  0  0  0  0  0  0  0  0  0  0  0
   13.9034    1.1432   -8.7960 N   0  0  0  0  0  0  0  0  0  0  0  0
    4.2813    0.1908   -2.9968 C   0  0  0  0  0  0  0  0  0  0  0  0
    5.3150    1.0108   -3.4474 C   0  0  0  0  0  0  0  0  0  0  0  0
    5.4943    1.2695   -4.8132 C   0  0  0  0  0  0  0  0  0  0  0  0
    4.6066    0.6825   -5.7300 C   0  0  0  0  0  0  0  0  0  0  0  0
    3.5686   -0.1398   -5.3034 C   0  0  0  0  0  0  0  0  0  0  0  0
    3.4160   -0.3756   -3.9337 C   0  0  0  0  0  0  0  0  0  0  0  0
    4.1529   -0.0201   -1.9410 H   0  0  0  0  0  0  0  0  0  0  0  0
    5.9945    1.4536   -2.7248 H   0  0  0  0  0  0  0  0  0  0  0  0
    4.7337    0.8703   -6.7929 H   0  0  0  0  0  0  0  0  0  0  0  0
    2.8924   -0.6031   -6.0135 H   0  0  0  0  0  0  0  0  0  0  0  0
    2.0761   -1.4072   -3.3785 S   0  0  0  0  0  0  0  0  0  0  0  0
    0.7740   -0.3352   -3.3912 O   0  0  0  0  0  0  0  0  0  0  0  0
    2.3219   -1.8113   -1.9981 O   0  0  0  0  0  0  0  0  0  0  0  0
    1.7143   -2.3539   -4.4193 O   0  0  0  0  0  0  0  0  0  0  0  0
    6.6319    2.1356   -5.2956 C   0  0  0  0  0  0  0  0  0  0  0  0
    7.4630    1.5192   -5.6594 H   0  0  0  0  0  0  0  0  0  0  0  0
    6.3210    2.7794   -6.1243 H   0  0  0  0  0  0  0  0  0  0  0  0
    7.0195    2.7712   -4.4954 H   0  0  0  0  0  0  0  0  0  0  0  0
  1  7  1  0  0  0  0
  2  8  1  0  0  0  0
  2  1  2  0  0  0  0
  3  2  1  0  0  0  0
  4  3  2  0  0  0  0
  4  5  1  0  0  0  0
  5  6  2  0  0  0  0
  6  1  1  0  0  0  0
  6 11  1  0  0  0  0
  9  4  1  0  0  0  0
 10  5  1  0  0  0  0
 11 13  2  0  0  0  0
 12 11  2  0  0  0  0
 15 14  3  0  0  0  0
 16 22  1  0  0  0  0
 17 16  1  0  0  0  0
 17 23  1  0  0  0  0
 18 17  2  0  0  0  0
 19 20  2  0  0  0  0
 19 18  1  0  0  0  0
 20 21  1  0  0  0  0
 21 26  1  0  0  0  0
 21 16  2  0  0  0  0
 24 19  1  0  0  0  0
 25 20  1  0  0  0  0
 26 28  2  0  0  0  0
 27 26  1  0  0  0  0
 27  3  1  0  0  0  0
 29 26  2  0  0  0  0
 30 18  1  0  0  0  0
 30 33  1  0  0  0  0
 31 30  1  0  0  0  0
 32 30  1  0  0  0  0
M  END
