Coordinates from ORCA-job 4-NO2-Ph-N2-OTs-B3LYPG-6-31G_dp-MTMO-d009-169-n800
 OpenBabel09051908313D

 33 32  0  0  0  0  0  0  0  0999 V2000
    0.9391    1.1646   -1.8675 C   0  0  0  0  0  0  0  0  0  0  0  0
    0.8520    0.7052   -3.1981 C   0  0  0  0  0  0  0  0  0  0  0  0
   -0.0682    1.2686   -3.8771 C   0  0  0  0  0  0  0  0  0  0  0  0
   -1.0319    2.2240   -3.6964 C   0  0  0  0  0  0  0  0  0  0  0  0
   -0.9499    2.6894   -2.3744 C   0  0  0  0  0  0  0  0  0  0  0  0
    0.0177    2.1589   -1.5023 C   0  0  0  0  0  0  0  0  0  0  0  0
    1.6595    0.7999   -1.1450 H   0  0  0  0  0  0  0  0  0  0  0  0
    2.0970   -0.5390   -3.7928 H   0  0  0  0  0  0  0  0  0  0  0  0
   -1.7483    2.5835   -4.4234 H   0  0  0  0  0  0  0  0  0  0  0  0
   -1.6251    3.4557   -2.0133 H   0  0  0  0  0  0  0  0  0  0  0  0
    0.0638    2.6861   -0.1238 N   0  0  0  0  0  0  0  0  0  0  0  0
   -0.7506    3.5550    0.1841 O   0  0  0  0  0  0  0  0  0  0  0  0
    0.9163    2.2224    0.6299 O   0  0  0  0  0  0  0  0  0  0  0  0
   -0.2610    0.6223   -5.9096 N   0  0  0  0  0  0  0  0  0  0  0  0
    0.1150   -0.0135   -6.7329 N   0  0  0  0  0  0  0  0  0  0  0  0
    5.0547    1.4707   -4.1291 C   0  0  0  0  0  0  0  0  0  0  0  0
    6.1265    2.0442   -3.4457 C   0  0  0  0  0  0  0  0  0  0  0  0
    7.2225    1.2725   -3.0373 C   0  0  0  0  0  0  0  0  0  0  0  0
    7.2223   -0.0997   -3.3341 C   0  0  0  0  0  0  0  0  0  0  0  0
    6.1621   -0.6900   -4.0162 C   0  0  0  0  0  0  0  0  0  0  0  0
    5.0809    0.1040   -4.4058 C   0  0  0  0  0  0  0  0  0  0  0  0
    4.2136    2.0718   -4.4571 H   0  0  0  0  0  0  0  0  0  0  0  0
    6.1120    3.1088   -3.2281 H   0  0  0  0  0  0  0  0  0  0  0  0
    8.0660   -0.7131   -3.0287 H   0  0  0  0  0  0  0  0  0  0  0  0
    6.1702   -1.7471   -4.2579 H   0  0  0  0  0  0  0  0  0  0  0  0
    3.7029   -0.6520   -5.2540 S   0  0  0  0  0  0  0  0  0  0  0  0
    2.9438    0.4049   -5.9320 O   0  0  0  0  0  0  0  0  0  0  0  0
    2.7889   -1.2204   -4.0413 O   0  0  0  0  0  0  0  0  0  0  0  0
    4.1867   -1.8212   -5.9750 O   0  0  0  0  0  0  0  0  0  0  0  0
    8.3911    1.9019   -2.3180 C   0  0  0  0  0  0  0  0  0  0  0  0
    9.2419    2.0380   -2.9967 H   0  0  0  0  0  0  0  0  0  0  0  0
    8.1316    2.8841   -1.9147 H   0  0  0  0  0  0  0  0  0  0  0  0
    8.7353    1.2741   -1.4901 H   0  0  0  0  0  0  0  0  0  0  0  0
  1  6  1  0  0  0  0
  1  7  1  0  0  0  0
  2  1  2  0  0  0  0
  3  4  2  0  0  0  0
  3  2  1  0  0  0  0
  4  5  1  0  0  0  0
  5 10  1  0  0  0  0
  5  6  2  0  0  0  0
  6 11  1  0  0  0  0
  9  4  1  0  0  0  0
 11 12  2  0  0  0  0
 11 13  2  0  0  0  0
 15 14  3  0  0  0  0
 16 17  1  0  0  0  0
 17 23  1  0  0  0  0
 17 18  2  0  0  0  0
 18 30  1  0  0  0  0
 19 18  1  0  0  0  0
 19 24  1  0  0  0  0
 20 19  2  0  0  0  0
 21 16  2  0  0  0  0
 21 20  1  0  0  0  0
 22 16  1  0  0  0  0
 25 20  1  0  0  0  0
 26 21  1  0  0  0  0
 26 28  1  0  0  0  0
 27 26  2  0  0  0  0
 28  8  1  0  0  0  0
 29 26  2  0  0  0  0
 30 32  1  0  0  0  0
 30 33  1  0  0  0  0
 31 30  1  0  0  0  0
M  RAD  2   2   2   3   2
M  END
