Coordinates from ORCA-job 4-NO2-Ph-N2-OTs-B3LYPG-6-31G_dp-MTMO-d009-169-n800
 OpenBabel09051908313D

 33 33  0  0  0  0  0  0  0  0999 V2000
    0.0939    1.1755   -0.1302 C   0  0  0  0  0  0  0  0  0  0  0  0
    0.2991    0.2035   -1.1038 C   0  0  0  0  0  0  0  0  0  0  0  0
    0.6690    0.5985   -2.3935 C   0  0  0  0  0  0  0  0  0  0  0  0
    0.8294    1.9472   -2.7248 C   0  0  0  0  0  0  0  0  0  0  0  0
    0.6173    2.9209   -1.7548 C   0  0  0  0  0  0  0  0  0  0  0  0
    0.2555    2.5185   -0.4699 C   0  0  0  0  0  0  0  0  0  0  0  0
   -0.1945    0.9132    0.8796 H   0  0  0  0  0  0  0  0  0  0  0  0
    0.1810   -0.8489   -0.8785 H   0  0  0  0  0  0  0  0  0  0  0  0
    1.1095    2.2142   -3.7374 H   0  0  0  0  0  0  0  0  0  0  0  0
    0.7278    3.9759   -1.9719 H   0  0  0  0  0  0  0  0  0  0  0  0
    0.0352    3.5455    0.5595 N   0  0  0  0  0  0  0  0  0  0  0  0
    0.1889    4.7222    0.2330 O   0  0  0  0  0  0  0  0  0  0  0  0
   -0.2877    3.1663    1.6845 O   0  0  0  0  0  0  0  0  0  0  0  0
   12.4234    1.3174   -8.0287 N   0  0  0  0  0  0  0  0  0  0  0  0
   13.3824    1.1089   -8.5371 N   0  0  0  0  0  0  0  0  0  0  0  0
    4.3173    0.1963   -3.0119 C   0  0  0  0  0  0  0  0  0  0  0  0
    5.3503    1.0178   -3.4614 C   0  0  0  0  0  0  0  0  0  0  0  0
    5.5308    1.2768   -4.8271 C   0  0  0  0  0  0  0  0  0  0  0  0
    4.6450    0.6884   -5.7448 C   0  0  0  0  0  0  0  0  0  0  0  0
    3.6077   -0.1353   -5.3193 C   0  0  0  0  0  0  0  0  0  0  0  0
    3.4539   -0.3714   -3.9498 C   0  0  0  0  0  0  0  0  0  0  0  0
    4.1881   -0.0147   -1.9563 H   0  0  0  0  0  0  0  0  0  0  0  0
    6.0284    1.4617   -2.7381 H   0  0  0  0  0  0  0  0  0  0  0  0
    4.7730    0.8764   -6.8075 H   0  0  0  0  0  0  0  0  0  0  0  0
    2.9330   -0.5998   -6.0302 H   0  0  0  0  0  0  0  0  0  0  0  0
    2.1153   -1.4054   -3.3961 S   0  0  0  0  0  0  0  0  0  0  0  0
    0.8113   -0.3357   -3.4099 O   0  0  0  0  0  0  0  0  0  0  0  0
    2.3604   -1.8093   -2.0155 O   0  0  0  0  0  0  0  0  0  0  0  0
    1.7562   -2.3526   -4.4373 O   0  0  0  0  0  0  0  0  0  0  0  0
    6.6675    2.1446   -5.3083 C   0  0  0  0  0  0  0  0  0  0  0  0
    7.4981    1.5295   -5.6757 H   0  0  0  0  0  0  0  0  0  0  0  0
    6.3552    2.7911   -6.1344 H   0  0  0  0  0  0  0  0  0  0  0  0
    7.0564    2.7776   -4.5067 H   0  0  0  0  0  0  0  0  0  0  0  0
  1  7  1  0  0  0  0
  2  8  1  0  0  0  0
  2  1  2  0  0  0  0
  3  2  1  0  0  0  0
  4  3  2  0  0  0  0
  4  5  1  0  0  0  0
  5  6  2  0  0  0  0
  6  1  1  0  0  0  0
  6 11  1  0  0  0  0
  9  4  1  0  0  0  0
 10  5  1  0  0  0  0
 11 13  2  0  0  0  0
 12 11  2  0  0  0  0
 15 14  3  0  0  0  0
 16 22  1  0  0  0  0
 17 16  1  0  0  0  0
 17 23  1  0  0  0  0
 18 17  2  0  0  0  0
 19 20  2  0  0  0  0
 19 18  1  0  0  0  0
 20 21  1  0  0  0  0
 21 26  1  0  0  0  0
 21 16  2  0  0  0  0
 24 19  1  0  0  0  0
 25 20  1  0  0  0  0
 26 28  2  0  0  0  0
 27 26  1  0  0  0  0
 27  3  1  0  0  0  0
 29 26  2  0  0  0  0
 30 18  1  0  0  0  0
 30 33  1  0  0  0  0
 31 30  1  0  0  0  0
 32 30  1  0  0  0  0
M  END
