Coordinates from ORCA-job 4-NO2-Ph-N2-OTs-B3LYPG-6-31G_dp-MTMO-d009-169-n800
 OpenBabel09051908313D

 33 33  0  0  0  0  0  0  0  0999 V2000
   -0.0663    0.9113   -1.1528 C   0  0  0  0  0  0  0  0  0  0  0  0
    0.4602    0.1523   -2.1929 C   0  0  0  0  0  0  0  0  0  0  0  0
    1.2221    0.7855   -3.1802 C   0  0  0  0  0  0  0  0  0  0  0  0
    1.4572    2.1633   -3.1479 C   0  0  0  0  0  0  0  0  0  0  0  0
    0.9259    2.9250   -2.1126 C   0  0  0  0  0  0  0  0  0  0  0  0
    0.1747    2.2849   -1.1277 C   0  0  0  0  0  0  0  0  0  0  0  0
   -0.6615    0.4610   -0.3683 H   0  0  0  0  0  0  0  0  0  0  0  0
    0.2931   -0.9161   -2.2474 H   0  0  0  0  0  0  0  0  0  0  0  0
    2.0447    2.6191   -3.9371 H   0  0  0  0  0  0  0  0  0  0  0  0
    1.0841    3.9943   -2.0519 H   0  0  0  0  0  0  0  0  0  0  0  0
   -0.3822    3.0861   -0.0275 N   0  0  0  0  0  0  0  0  0  0  0  0
   -0.1476    4.2944   -0.0270 O   0  0  0  0  0  0  0  0  0  0  0  0
   -1.0462    2.4998    0.8263 O   0  0  0  0  0  0  0  0  0  0  0  0
    3.8274   -1.1291   -8.3841 N   0  0  0  0  0  0  0  0  0  0  0  0
    3.2047   -1.9242   -8.8322 N   0  0  0  0  0  0  0  0  0  0  0  0
    4.8443    0.3815   -2.6651 C   0  0  0  0  0  0  0  0  0  0  0  0
    5.9495    1.2250   -2.5752 C   0  0  0  0  0  0  0  0  0  0  0  0
    6.5968    1.6989   -3.7253 C   0  0  0  0  0  0  0  0  0  0  0  0
    6.1081    1.3050   -4.9808 C   0  0  0  0  0  0  0  0  0  0  0  0
    5.0049    0.4639   -5.0963 C   0  0  0  0  0  0  0  0  0  0  0  0
    4.3817    0.0116   -3.9299 C   0  0  0  0  0  0  0  0  0  0  0  0
    4.3546    0.0035   -1.7749 H   0  0  0  0  0  0  0  0  0  0  0  0
    6.3161    1.5174   -1.5952 H   0  0  0  0  0  0  0  0  0  0  0  0
    6.6014    1.6595   -5.8814 H   0  0  0  0  0  0  0  0  0  0  0  0
    4.6415    0.1511   -6.0689 H   0  0  0  0  0  0  0  0  0  0  0  0
    2.9532   -1.0410   -4.0630 S   0  0  0  0  0  0  0  0  0  0  0  0
    1.7052    0.0753   -4.2706 O   0  0  0  0  0  0  0  0  0  0  0  0
    2.7424   -1.7290   -2.7936 O   0  0  0  0  0  0  0  0  0  0  0  0
    2.9664   -1.7399   -5.3371 O   0  0  0  0  0  0  0  0  0  0  0  0
    7.8120    2.5864   -3.6169 C   0  0  0  0  0  0  0  0  0  0  0  0
    7.8921    3.2619   -4.4735 H   0  0  0  0  0  0  0  0  0  0  0  0
    7.7882    3.1894   -2.7049 H   0  0  0  0  0  0  0  0  0  0  0  0
    8.7297    1.9864   -3.5882 H   0  0  0  0  0  0  0  0  0  0  0  0
  1  6  1  0  0  0  0
  1  7  1  0  0  0  0
  2  1  2  0  0  0  0
  3  4  2  0  0  0  0
  3  2  1  0  0  0  0
  4  5  1  0  0  0  0
  5 10  1  0  0  0  0
  5  6  2  0  0  0  0
  6 11  1  0  0  0  0
  8  2  1  0  0  0  0
  9  4  1  0  0  0  0
 11 12  2  0  0  0  0
 11 13  2  0  0  0  0
 15 14  3  0  0  0  0
 16 17  1  0  0  0  0
 16 22  1  0  0  0  0
 17 23  1  0  0  0  0
 18 30  1  0  0  0  0
 18 17  2  0  0  0  0
 19 18  1  0  0  0  0
 20 19  2  0  0  0  0
 20 21  1  0  0  0  0
 21 16  2  0  0  0  0
 24 19  1  0  0  0  0
 25 20  1  0  0  0  0
 26 21  1  0  0  0  0
 26 28  2  0  0  0  0
 27 26  1  0  0  0  0
 27  3  1  0  0  0  0
 29 26  2  0  0  0  0
 30 33  1  0  0  0  0
 30 32  1  0  0  0  0
 31 30  1  0  0  0  0
M  END
