Coordinates from ORCA-job 4-NO2-Ph-N2-OTs-B3LYPG-6-31G_dp-MTMO-d009-169-n800
 OpenBabel09051908313D

 33 33  0  0  0  0  0  0  0  0999 V2000
    0.0979    1.1747   -0.1326 C   0  0  0  0  0  0  0  0  0  0  0  0
    0.3037    0.2029   -1.1062 C   0  0  0  0  0  0  0  0  0  0  0  0
    0.6734    0.5982   -2.3959 C   0  0  0  0  0  0  0  0  0  0  0  0
    0.8333    1.9470   -2.7271 C   0  0  0  0  0  0  0  0  0  0  0  0
    0.6205    2.9205   -1.7570 C   0  0  0  0  0  0  0  0  0  0  0  0
    0.2589    2.5179   -0.4721 C   0  0  0  0  0  0  0  0  0  0  0  0
   -0.1904    0.9123    0.8772 H   0  0  0  0  0  0  0  0  0  0  0  0
    0.1860   -0.8496   -0.8809 H   0  0  0  0  0  0  0  0  0  0  0  0
    1.1132    2.2142   -3.7396 H   0  0  0  0  0  0  0  0  0  0  0  0
    0.7306    3.9756   -1.9741 H   0  0  0  0  0  0  0  0  0  0  0  0
    0.0380    3.5447    0.5573 N   0  0  0  0  0  0  0  0  0  0  0  0
    0.1912    4.7215    0.2309 O   0  0  0  0  0  0  0  0  0  0  0  0
   -0.2848    3.1653    1.6823 O   0  0  0  0  0  0  0  0  0  0  0  0
   12.3557    1.3114   -7.9967 N   0  0  0  0  0  0  0  0  0  0  0  0
   13.3155    1.1029   -8.5035 N   0  0  0  0  0  0  0  0  0  0  0  0
    4.3221    0.1974   -3.0139 C   0  0  0  0  0  0  0  0  0  0  0  0
    5.3549    1.0192   -3.4633 C   0  0  0  0  0  0  0  0  0  0  0  0
    5.5355    1.2782   -4.8289 C   0  0  0  0  0  0  0  0  0  0  0  0
    4.6499    0.6896   -5.7468 C   0  0  0  0  0  0  0  0  0  0  0  0
    3.6129   -0.1345   -5.3214 C   0  0  0  0  0  0  0  0  0  0  0  0
    3.4590   -0.3706   -3.9519 C   0  0  0  0  0  0  0  0  0  0  0  0
    4.1928   -0.0138   -1.9583 H   0  0  0  0  0  0  0  0  0  0  0  0
    6.0328    1.4632   -2.7399 H   0  0  0  0  0  0  0  0  0  0  0  0
    4.7780    0.8776   -6.8095 H   0  0  0  0  0  0  0  0  0  0  0  0
    2.9384   -0.5991   -6.0324 H   0  0  0  0  0  0  0  0  0  0  0  0
    2.1206   -1.4051   -3.3983 S   0  0  0  0  0  0  0  0  0  0  0  0
    0.8163   -0.3359   -3.4123 O   0  0  0  0  0  0  0  0  0  0  0  0
    2.3658   -1.8089   -2.0178 O   0  0  0  0  0  0  0  0  0  0  0  0
    1.7620   -2.3524   -4.4397 O   0  0  0  0  0  0  0  0  0  0  0  0
    6.6720    2.1464   -5.3101 C   0  0  0  0  0  0  0  0  0  0  0  0
    7.5025    1.5316   -5.6779 H   0  0  0  0  0  0  0  0  0  0  0  0
    6.3593    2.7932   -6.1358 H   0  0  0  0  0  0  0  0  0  0  0  0
    7.0609    2.7791   -4.5082 H   0  0  0  0  0  0  0  0  0  0  0  0
  1  7  1  0  0  0  0
  2  8  1  0  0  0  0
  2  1  2  0  0  0  0
  3  2  1  0  0  0  0
  4  3  2  0  0  0  0
  4  5  1  0  0  0  0
  5  6  2  0  0  0  0
  6  1  1  0  0  0  0
  6 11  1  0  0  0  0
  9  4  1  0  0  0  0
 10  5  1  0  0  0  0
 11 13  2  0  0  0  0
 12 11  2  0  0  0  0
 15 14  3  0  0  0  0
 16 22  1  0  0  0  0
 17 16  1  0  0  0  0
 17 23  1  0  0  0  0
 18 17  2  0  0  0  0
 19 20  2  0  0  0  0
 19 18  1  0  0  0  0
 20 21  1  0  0  0  0
 21 26  1  0  0  0  0
 21 16  2  0  0  0  0
 24 19  1  0  0  0  0
 25 20  1  0  0  0  0
 26 28  2  0  0  0  0
 27 26  1  0  0  0  0
 27  3  1  0  0  0  0
 29 26  2  0  0  0  0
 30 18  1  0  0  0  0
 30 33  1  0  0  0  0
 31 30  1  0  0  0  0
 32 30  1  0  0  0  0
M  END
