Coordinates from ORCA-job 4-NO2-Ph-N2-OTs-B3LYPG-6-31G_dp-MTMO-d009-169-n800
 OpenBabel09051908313D

 33 33  0  0  0  0  0  0  0  0999 V2000
   -0.0845    1.5452   -0.1608 C   0  0  0  0  0  0  0  0  0  0  0  0
   -0.0210    0.5441   -1.1245 C   0  0  0  0  0  0  0  0  0  0  0  0
    0.4488    0.8589   -2.4039 C   0  0  0  0  0  0  0  0  0  0  0  0
    0.8452    2.1581   -2.7352 C   0  0  0  0  0  0  0  0  0  0  0  0
    0.7737    3.1622   -1.7756 C   0  0  0  0  0  0  0  0  0  0  0  0
    0.3133    2.8381   -0.5002 C   0  0  0  0  0  0  0  0  0  0  0  0
   -0.4418    1.3445    0.8410 H   0  0  0  0  0  0  0  0  0  0  0  0
   -0.3245   -0.4702   -0.8989 H   0  0  0  0  0  0  0  0  0  0  0  0
    1.1947    2.3653   -3.7402 H   0  0  0  0  0  0  0  0  0  0  0  0
    1.0683    4.1808   -1.9936 H   0  0  0  0  0  0  0  0  0  0  0  0
    0.2426    3.8959    0.5187 N   0  0  0  0  0  0  0  0  0  0  0  0
    0.5944    5.0287    0.1901 O   0  0  0  0  0  0  0  0  0  0  0  0
   -0.1619    3.5843    1.6380 O   0  0  0  0  0  0  0  0  0  0  0  0
   14.5403    3.4181   -9.3527 N   0  0  0  0  0  0  0  0  0  0  0  0
   15.3847    3.4732  -10.0637 N   0  0  0  0  0  0  0  0  0  0  0  0
    3.9710   -0.2184   -2.8421 C   0  0  0  0  0  0  0  0  0  0  0  0
    5.1642    0.3848   -3.2364 C   0  0  0  0  0  0  0  0  0  0  0  0
    5.4695    0.5734   -4.5915 C   0  0  0  0  0  0  0  0  0  0  0  0
    4.5439    0.1403   -5.5550 C   0  0  0  0  0  0  0  0  0  0  0  0
    3.3465   -0.4643   -5.1848 C   0  0  0  0  0  0  0  0  0  0  0  0
    3.0720   -0.6360   -3.8249 C   0  0  0  0  0  0  0  0  0  0  0  0
    3.7427   -0.3768   -1.7940 H   0  0  0  0  0  0  0  0  0  0  0  0
    5.8702    0.7120   -2.4783 H   0  0  0  0  0  0  0  0  0  0  0  0
    4.7670    0.2763   -6.6099 H   0  0  0  0  0  0  0  0  0  0  0  0
    2.6388   -0.8103   -5.9301 H   0  0  0  0  0  0  0  0  0  0  0  0
    1.5346   -1.3913   -3.3421 S   0  0  0  0  0  0  0  0  0  0  0  0
    0.4611   -0.0927   -3.4137 O   0  0  0  0  0  0  0  0  0  0  0  0
    1.6311   -1.8293   -1.9535 O   0  0  0  0  0  0  0  0  0  0  0  0
    1.0520   -2.2570   -4.4043 O   0  0  0  0  0  0  0  0  0  0  0  0
    6.7759    1.2013   -5.0109 C   0  0  0  0  0  0  0  0  0  0  0  0
    7.5135    0.4306   -5.2659 H   0  0  0  0  0  0  0  0  0  0  0  0
    6.6489    1.8336   -5.8947 H   0  0  0  0  0  0  0  0  0  0  0  0
    7.2028    1.8116   -4.2104 H   0  0  0  0  0  0  0  0  0  0  0  0
  1  7  1  0  0  0  0
  2  8  1  0  0  0  0
  2  1  2  0  0  0  0
  3  2  1  0  0  0  0
  4  3  2  0  0  0  0
  4  5  1  0  0  0  0
  5  6  2  0  0  0  0
  6  1  1  0  0  0  0
  6 11  1  0  0  0  0
  9  4  1  0  0  0  0
 10  5  1  0  0  0  0
 11 13  2  0  0  0  0
 12 11  2  0  0  0  0
 15 14  3  0  0  0  0
 16 22  1  0  0  0  0
 17 16  1  0  0  0  0
 17 23  1  0  0  0  0
 18 17  2  0  0  0  0
 19 20  2  0  0  0  0
 19 18  1  0  0  0  0
 20 21  1  0  0  0  0
 21 26  1  0  0  0  0
 21 16  2  0  0  0  0
 24 19  1  0  0  0  0
 25 20  1  0  0  0  0
 26 28  2  0  0  0  0
 27 26  1  0  0  0  0
 27  3  1  0  0  0  0
 29 26  2  0  0  0  0
 30 18  1  0  0  0  0
 30 33  1  0  0  0  0
 31 30  1  0  0  0  0
 32 30  1  0  0  0  0
M  END
