Coordinates from ORCA-job 4-NO2-Ph-N2-OTs-B3LYPG-6-31G_dp-MTMO-d009-169-n800
 OpenBabel09051908313D

 33 33  0  0  0  0  0  0  0  0999 V2000
   -0.0231    0.8521   -1.3497 C   0  0  0  0  0  0  0  0  0  0  0  0
    0.5843    0.0170   -2.2816 C   0  0  0  0  0  0  0  0  0  0  0  0
    1.3620    0.5819   -3.2975 C   0  0  0  0  0  0  0  0  0  0  0  0
    1.5341    1.9654   -3.4000 C   0  0  0  0  0  0  0  0  0  0  0  0
    0.9218    2.8026   -2.4734 C   0  0  0  0  0  0  0  0  0  0  0  0
    0.1549    2.2311   -1.4590 C   0  0  0  0  0  0  0  0  0  0  0  0
   -0.6330    0.4563   -0.5474 H   0  0  0  0  0  0  0  0  0  0  0  0
    0.4686   -1.0585   -2.2301 H   0  0  0  0  0  0  0  0  0  0  0  0
    2.1369    2.3662   -4.2072 H   0  0  0  0  0  0  0  0  0  0  0  0
    1.0293    3.8792   -2.5189 H   0  0  0  0  0  0  0  0  0  0  0  0
   -0.4877    3.1127   -0.4728 N   0  0  0  0  0  0  0  0  0  0  0  0
   -0.3108    4.3251   -0.5913 O   0  0  0  0  0  0  0  0  0  0  0  0
   -1.1607    2.5850    0.4116 O   0  0  0  0  0  0  0  0  0  0  0  0
    2.4644   -0.1120   -7.6096 N   0  0  0  0  0  0  0  0  0  0  0  0
    1.5242   -0.6158   -7.8977 N   0  0  0  0  0  0  0  0  0  0  0  0
    5.0413    0.2926   -2.5420 C   0  0  0  0  0  0  0  0  0  0  0  0
    6.1053    1.1899   -2.4707 C   0  0  0  0  0  0  0  0  0  0  0  0
    6.7083    1.6949   -3.6311 C   0  0  0  0  0  0  0  0  0  0  0  0
    6.2162    1.2794   -4.8789 C   0  0  0  0  0  0  0  0  0  0  0  0
    5.1562    0.3832   -4.9753 C   0  0  0  0  0  0  0  0  0  0  0  0
    4.5781   -0.1015   -3.7983 C   0  0  0  0  0  0  0  0  0  0  0  0
    4.5825   -0.1069   -1.6448 H   0  0  0  0  0  0  0  0  0  0  0  0
    6.4735    1.5007   -1.4971 H   0  0  0  0  0  0  0  0  0  0  0  0
    6.6728    1.6617   -5.7875 H   0  0  0  0  0  0  0  0  0  0  0  0
    4.7833    0.0600   -5.9409 H   0  0  0  0  0  0  0  0  0  0  0  0
    3.2129   -1.2378   -3.9088 S   0  0  0  0  0  0  0  0  0  0  0  0
    1.9263   -0.2134   -4.2852 O   0  0  0  0  0  0  0  0  0  0  0  0
    2.9655   -1.8205   -2.5941 O   0  0  0  0  0  0  0  0  0  0  0  0
    3.3289   -2.0448   -5.1117 O   0  0  0  0  0  0  0  0  0  0  0  0
    7.8802    2.6408   -3.5443 C   0  0  0  0  0  0  0  0  0  0  0  0
    7.8870    3.3474   -4.3796 H   0  0  0  0  0  0  0  0  0  0  0  0
    7.8673    3.2115   -2.6118 H   0  0  0  0  0  0  0  0  0  0  0  0
    8.8277    2.0891   -3.5776 H   0  0  0  0  0  0  0  0  0  0  0  0
  1  7  1  0  0  0  0
  2  8  1  0  0  0  0
  2  1  2  0  0  0  0
  3  2  1  0  0  0  0
  4  3  2  0  0  0  0
  4  5  1  0  0  0  0
  5  6  2  0  0  0  0
  6  1  1  0  0  0  0
  6 11  1  0  0  0  0
  9  4  1  0  0  0  0
 10  5  1  0  0  0  0
 11 13  2  0  0  0  0
 12 11  2  0  0  0  0
 15 14  3  0  0  0  0
 16 17  1  0  0  0  0
 16 22  1  0  0  0  0
 17 23  1  0  0  0  0
 18 30  1  0  0  0  0
 18 17  2  0  0  0  0
 19 18  1  0  0  0  0
 20 19  2  0  0  0  0
 20 21  1  0  0  0  0
 21 16  2  0  0  0  0
 24 19  1  0  0  0  0
 25 20  1  0  0  0  0
 26 21  1  0  0  0  0
 26 28  2  0  0  0  0
 27 26  1  0  0  0  0
 27  3  1  0  0  0  0
 29 26  2  0  0  0  0
 30 32  1  0  0  0  0
 31 30  1  0  0  0  0
 33 30  1  0  0  0  0
M  END
