Coordinates from ORCA-job 4-NO2-Ph-N2-OTs-B3LYPG-6-31G_dp-MTMO-d009-169-n800
 OpenBabel09051908313D

 33 33  0  0  0  0  0  0  0  0999 V2000
   -0.1366    1.1005   -0.8696 C   0  0  0  0  0  0  0  0  0  0  0  0
    0.3205    0.2456   -1.8671 C   0  0  0  0  0  0  0  0  0  0  0  0
    1.0430    0.7761   -2.9409 C   0  0  0  0  0  0  0  0  0  0  0  0
    1.3086    2.1456   -3.0348 C   0  0  0  0  0  0  0  0  0  0  0  0
    0.8460    3.0031   -2.0421 C   0  0  0  0  0  0  0  0  0  0  0  0
    0.1325    2.4652   -0.9716 C   0  0  0  0  0  0  0  0  0  0  0  0
   -0.7000    0.7313   -0.0220 H   0  0  0  0  0  0  0  0  0  0  0  0
    0.1288   -0.8191   -1.8233 H   0  0  0  0  0  0  0  0  0  0  0  0
    1.8634    2.5203   -3.8877 H   0  0  0  0  0  0  0  0  0  0  0  0
    1.0284    4.0697   -2.0797 H   0  0  0  0  0  0  0  0  0  0  0  0
   -0.3541    3.3680    0.0821 N   0  0  0  0  0  0  0  0  0  0  0  0
   -0.0999    4.5669   -0.0317 O   0  0  0  0  0  0  0  0  0  0  0  0
   -0.9840    2.8699    1.0144 O   0  0  0  0  0  0  0  0  0  0  0  0
    5.8067   -0.1330   -8.7774 N   0  0  0  0  0  0  0  0  0  0  0  0
    5.8887   -0.5635   -9.7918 N   0  0  0  0  0  0  0  0  0  0  0  0
    4.7097    0.2901   -2.6399 C   0  0  0  0  0  0  0  0  0  0  0  0
    5.8506    1.0872   -2.7099 C   0  0  0  0  0  0  0  0  0  0  0  0
    6.4282    1.4226   -3.9427 C   0  0  0  0  0  0  0  0  0  0  0  0
    5.8324    0.9374   -5.1178 C   0  0  0  0  0  0  0  0  0  0  0  0
    4.6924    0.1409   -5.0721 C   0  0  0  0  0  0  0  0  0  0  0  0
    4.1401   -0.1735   -3.8273 C   0  0  0  0  0  0  0  0  0  0  0  0
    4.2741    0.0183   -1.6851 H   0  0  0  0  0  0  0  0  0  0  0  0
    6.3011    1.4515   -1.7910 H   0  0  0  0  0  0  0  0  0  0  0  0
    6.2678    1.1808   -6.0826 H   0  0  0  0  0  0  0  0  0  0  0  0
    4.2434   -0.2429   -5.9811 H   0  0  0  0  0  0  0  0  0  0  0  0
    2.6705   -1.1740   -3.7612 S   0  0  0  0  0  0  0  0  0  0  0  0
    1.4502   -0.0319   -3.9929 O   0  0  0  0  0  0  0  0  0  0  0  0
    2.5255   -1.7286   -2.4192 O   0  0  0  0  0  0  0  0  0  0  0  0
    2.5724   -1.9895   -4.9598 O   0  0  0  0  0  0  0  0  0  0  0  0
    7.6813    2.2603   -4.0060 C   0  0  0  0  0  0  0  0  0  0  0  0
    7.6882    2.9033   -4.8910 H   0  0  0  0  0  0  0  0  0  0  0  0
    7.7860    2.8934   -3.1207 H   0  0  0  0  0  0  0  0  0  0  0  0
    8.5722    1.6228   -4.0606 H   0  0  0  0  0  0  0  0  0  0  0  0
  1  7  1  0  0  0  0
  2  8  1  0  0  0  0
  2  1  2  0  0  0  0
  3  2  1  0  0  0  0
  4  3  2  0  0  0  0
  4  5  1  0  0  0  0
  5  6  2  0  0  0  0
  6  1  1  0  0  0  0
  6 11  1  0  0  0  0
  9  4  1  0  0  0  0
 10  5  1  0  0  0  0
 11 13  2  0  0  0  0
 12 11  2  0  0  0  0
 15 14  3  0  0  0  0
 16 22  1  0  0  0  0
 17 16  1  0  0  0  0
 17 23  1  0  0  0  0
 18 17  2  0  0  0  0
 19 20  2  0  0  0  0
 19 18  1  0  0  0  0
 20 21  1  0  0  0  0
 21 26  1  0  0  0  0
 21 16  2  0  0  0  0
 24 19  1  0  0  0  0
 25 20  1  0  0  0  0
 26 28  2  0  0  0  0
 27 26  1  0  0  0  0
 27  3  1  0  0  0  0
 29 26  2  0  0  0  0
 30 18  1  0  0  0  0
 30 32  1  0  0  0  0
 31 30  1  0  0  0  0
 33 30  1  0  0  0  0
M  END
