Coordinates from ORCA-job 4-NO2-Ph-N2-OTs-B3LYPG-6-31G_dp-MTMO-d009-169-n800
 OpenBabel09051908313D

 33 33  0  0  0  0  0  0  0  0999 V2000
    0.1144    1.1725   -0.1427 C   0  0  0  0  0  0  0  0  0  0  0  0
    0.3222    0.2013   -1.1165 C   0  0  0  0  0  0  0  0  0  0  0  0
    0.6921    0.5974   -2.4059 C   0  0  0  0  0  0  0  0  0  0  0  0
    0.8500    1.9467   -2.7366 C   0  0  0  0  0  0  0  0  0  0  0  0
    0.6351    2.9196   -1.7663 C   0  0  0  0  0  0  0  0  0  0  0  0
    0.2734    2.5159   -0.4818 C   0  0  0  0  0  0  0  0  0  0  0  0
   -0.1741    0.9093    0.8668 H   0  0  0  0  0  0  0  0  0  0  0  0
    0.2061   -0.8515   -0.8916 H   0  0  0  0  0  0  0  0  0  0  0  0
    1.1300    2.2145   -3.7489 H   0  0  0  0  0  0  0  0  0  0  0  0
    0.7436    3.9749   -1.9831 H   0  0  0  0  0  0  0  0  0  0  0  0
    0.0502    3.5421    0.5478 N   0  0  0  0  0  0  0  0  0  0  0  0
    0.2017    4.7193    0.2218 O   0  0  0  0  0  0  0  0  0  0  0  0
   -0.2726    3.1618    1.6725 O   0  0  0  0  0  0  0  0  0  0  0  0
   12.0666    1.2914   -7.8625 N   0  0  0  0  0  0  0  0  0  0  0  0
   13.0314    1.0836   -8.3601 N   0  0  0  0  0  0  0  0  0  0  0  0
    4.3421    0.2009   -3.0223 C   0  0  0  0  0  0  0  0  0  0  0  0
    5.3744    1.0236   -3.4711 C   0  0  0  0  0  0  0  0  0  0  0  0
    5.5557    1.2826   -4.8367 C   0  0  0  0  0  0  0  0  0  0  0  0
    4.6712    0.6930   -5.7550 C   0  0  0  0  0  0  0  0  0  0  0  0
    3.6346   -0.1319   -5.3302 C   0  0  0  0  0  0  0  0  0  0  0  0
    3.4801   -0.3679   -3.9607 C   0  0  0  0  0  0  0  0  0  0  0  0
    4.2123   -0.0102   -1.9667 H   0  0  0  0  0  0  0  0  0  0  0  0
    6.0515    1.4683   -2.7473 H   0  0  0  0  0  0  0  0  0  0  0  0
    4.7999    0.8810   -6.8177 H   0  0  0  0  0  0  0  0  0  0  0  0
    2.9611   -0.5973   -6.0415 H   0  0  0  0  0  0  0  0  0  0  0  0
    2.1425   -1.4038   -3.4079 S   0  0  0  0  0  0  0  0  0  0  0  0
    0.8370   -0.3360   -3.4226 O   0  0  0  0  0  0  0  0  0  0  0  0
    2.3874   -1.8075   -2.0273 O   0  0  0  0  0  0  0  0  0  0  0  0
    1.7855   -2.3515   -4.4495 O   0  0  0  0  0  0  0  0  0  0  0  0
    6.6917    2.1517   -5.3173 C   0  0  0  0  0  0  0  0  0  0  0  0
    7.5216    1.5377   -5.6878 H   0  0  0  0  0  0  0  0  0  0  0  0
    6.3779    2.8005   -6.1410 H   0  0  0  0  0  0  0  0  0  0  0  0
    7.0818    2.7825   -4.5145 H   0  0  0  0  0  0  0  0  0  0  0  0
  1  7  1  0  0  0  0
  2  8  1  0  0  0  0
  2  1  2  0  0  0  0
  3  2  1  0  0  0  0
  4  3  2  0  0  0  0
  4  5  1  0  0  0  0
  5  6  2  0  0  0  0
  6  1  1  0  0  0  0
  6 11  1  0  0  0  0
  9  4  1  0  0  0  0
 10  5  1  0  0  0  0
 11 13  2  0  0  0  0
 12 11  2  0  0  0  0
 15 14  3  0  0  0  0
 16 22  1  0  0  0  0
 17 16  1  0  0  0  0
 17 23  1  0  0  0  0
 18 17  2  0  0  0  0
 19 20  2  0  0  0  0
 19 18  1  0  0  0  0
 20 21  1  0  0  0  0
 21 26  1  0  0  0  0
 21 16  2  0  0  0  0
 24 19  1  0  0  0  0
 25 20  1  0  0  0  0
 26 28  2  0  0  0  0
 27 26  1  0  0  0  0
 27  3  1  0  0  0  0
 29 26  2  0  0  0  0
 30 18  1  0  0  0  0
 30 33  1  0  0  0  0
 31 30  1  0  0  0  0
 32 30  1  0  0  0  0
M  END
