Coordinates from ORCA-job 4-NO2-Ph-N2-OTs-B3LYPG-6-31G_dp-MTMO-d009-169-n800
 OpenBabel09051908313D

 33 33  0  0  0  0  0  0  0  0999 V2000
    0.0254    1.1850   -0.0893 C   0  0  0  0  0  0  0  0  0  0  0  0
    0.2226    0.2109   -1.0624 C   0  0  0  0  0  0  0  0  0  0  0  0
    0.5928    0.6024   -2.3531 C   0  0  0  0  0  0  0  0  0  0  0  0
    0.7614    1.9498   -2.6859 C   0  0  0  0  0  0  0  0  0  0  0  0
    0.5572    2.9256   -1.7163 C   0  0  0  0  0  0  0  0  0  0  0  0
    0.1951    2.5266   -0.4305 C   0  0  0  0  0  0  0  0  0  0  0  0
   -0.2629    0.9255    0.9212 H   0  0  0  0  0  0  0  0  0  0  0  0
    0.0981   -0.8406   -0.8360 H   0  0  0  0  0  0  0  0  0  0  0  0
    1.0415    2.2140   -3.6992 H   0  0  0  0  0  0  0  0  0  0  0  0
    0.6744    3.9797   -1.9346 H   0  0  0  0  0  0  0  0  0  0  0  0
   -0.0167    3.5559    0.5985 N   0  0  0  0  0  0  0  0  0  0  0  0
    0.1442    4.7313    0.2707 O   0  0  0  0  0  0  0  0  0  0  0  0
   -0.3402    3.1798    1.7243 O   0  0  0  0  0  0  0  0  0  0  0  0
   13.5897    1.3950   -8.5882 N   0  0  0  0  0  0  0  0  0  0  0  0
   14.5405    1.1943   -9.1148 N   0  0  0  0  0  0  0  0  0  0  0  0
    4.2365    0.1820   -2.9773 C   0  0  0  0  0  0  0  0  0  0  0  0
    5.2719    0.9993   -3.4289 C   0  0  0  0  0  0  0  0  0  0  0  0
    5.4505    1.2577   -4.7949 C   0  0  0  0  0  0  0  0  0  0  0  0
    4.5603    0.6732   -5.7108 C   0  0  0  0  0  0  0  0  0  0  0  0
    3.5205   -0.1463   -5.2832 C   0  0  0  0  0  0  0  0  0  0  0  0
    3.3686   -0.3819   -3.9134 C   0  0  0  0  0  0  0  0  0  0  0  0
    4.1086   -0.0287   -1.9214 H   0  0  0  0  0  0  0  0  0  0  0  0
    5.9533    1.4402   -2.7069 H   0  0  0  0  0  0  0  0  0  0  0  0
    4.6868    0.8609   -6.7738 H   0  0  0  0  0  0  0  0  0  0  0  0
    2.8424   -0.6077   -5.9928 H   0  0  0  0  0  0  0  0  0  0  0  0
    2.0262   -1.4097   -3.3570 S   0  0  0  0  0  0  0  0  0  0  0  0
    0.7273   -0.3338   -3.3687 O   0  0  0  0  0  0  0  0  0  0  0  0
    2.2720   -1.8142   -1.9768 O   0  0  0  0  0  0  0  0  0  0  0  0
    1.6608   -2.3554   -4.3974 O   0  0  0  0  0  0  0  0  0  0  0  0
    6.5900    2.1208   -5.2781 C   0  0  0  0  0  0  0  0  0  0  0  0
    7.4206    1.5021   -5.6393 H   0  0  0  0  0  0  0  0  0  0  0  0
    6.2810    2.7631   -6.1088 H   0  0  0  0  0  0  0  0  0  0  0  0
    6.9777    2.7579   -4.4791 H   0  0  0  0  0  0  0  0  0  0  0  0
  1  7  1  0  0  0  0
  2  8  1  0  0  0  0
  2  1  2  0  0  0  0
  3  2  1  0  0  0  0
  4  3  2  0  0  0  0
  4  5  1  0  0  0  0
  5  6  2  0  0  0  0
  6  1  1  0  0  0  0
  6 11  1  0  0  0  0
  9  4  1  0  0  0  0
 10  5  1  0  0  0  0
 11 13  2  0  0  0  0
 12 11  2  0  0  0  0
 15 14  3  0  0  0  0
 16 22  1  0  0  0  0
 17 16  1  0  0  0  0
 17 23  1  0  0  0  0
 18 17  2  0  0  0  0
 19 20  2  0  0  0  0
 19 18  1  0  0  0  0
 20 21  1  0  0  0  0
 21 26  1  0  0  0  0
 21 16  2  0  0  0  0
 24 19  1  0  0  0  0
 25 20  1  0  0  0  0
 26 28  2  0  0  0  0
 27 26  1  0  0  0  0
 27  3  1  0  0  0  0
 29 26  2  0  0  0  0
 30 18  1  0  0  0  0
 30 33  1  0  0  0  0
 31 30  1  0  0  0  0
 32 30  1  0  0  0  0
M  END
