Coordinates from ORCA-job 4-NO2-Ph-N2-OTs-B3LYPG-6-31G_dp-MTMO-d009-169-n800
 OpenBabel09051908313D

 33 33  0  0  0  0  0  0  0  0999 V2000
    0.1655    1.1497   -0.1775 C   0  0  0  0  0  0  0  0  0  0  0  0
    0.3996    0.1915   -1.1582 C   0  0  0  0  0  0  0  0  0  0  0  0
    0.7734    0.6063   -2.4405 C   0  0  0  0  0  0  0  0  0  0  0  0
    0.9092    1.9613   -2.7574 C   0  0  0  0  0  0  0  0  0  0  0  0
    0.6676    2.9211   -1.7803 C   0  0  0  0  0  0  0  0  0  0  0  0
    0.3024    2.4989   -0.5027 C   0  0  0  0  0  0  0  0  0  0  0  0
   -0.1266    0.8717    0.8271 H   0  0  0  0  0  0  0  0  0  0  0  0
    0.3010   -0.8652   -0.9435 H   0  0  0  0  0  0  0  0  0  0  0  0
    1.1926    2.2439   -3.7648 H   0  0  0  0  0  0  0  0  0  0  0  0
    0.7580    3.9802   -1.9867 H   0  0  0  0  0  0  0  0  0  0  0  0
    0.0513    3.5111    0.5342 N   0  0  0  0  0  0  0  0  0  0  0  0
    0.1828    4.6940    0.2201 O   0  0  0  0  0  0  0  0  0  0  0  0
   -0.2735    3.1145    1.6526 O   0  0  0  0  0  0  0  0  0  0  0  0
   10.7723    1.1460   -7.2597 N   0  0  0  0  0  0  0  0  0  0  0  0
   11.7569    0.9362   -7.7158 N   0  0  0  0  0  0  0  0  0  0  0  0
    4.4503    0.2430   -3.0717 C   0  0  0  0  0  0  0  0  0  0  0  0
    5.4845    1.0597   -3.5274 C   0  0  0  0  0  0  0  0  0  0  0  0
    5.6700    1.3028   -4.8954 C   0  0  0  0  0  0  0  0  0  0  0  0
    4.7867    0.7039   -5.8089 C   0  0  0  0  0  0  0  0  0  0  0  0
    3.7483   -0.1152   -5.3773 C   0  0  0  0  0  0  0  0  0  0  0  0
    3.5900   -0.3359   -4.0056 C   0  0  0  0  0  0  0  0  0  0  0  0
    4.3186    0.0433   -2.0141 H   0  0  0  0  0  0  0  0  0  0  0  0
    6.1603    1.5117   -2.8070 H   0  0  0  0  0  0  0  0  0  0  0  0
    4.9180    0.8795   -6.8733 H   0  0  0  0  0  0  0  0  0  0  0  0
    3.0766   -0.5886   -6.0850 H   0  0  0  0  0  0  0  0  0  0  0  0
    2.2565   -1.3732   -3.4451 S   0  0  0  0  0  0  0  0  0  0  0  0
    0.9441   -0.3135   -3.4655 O   0  0  0  0  0  0  0  0  0  0  0  0
    2.5041   -1.7673   -2.0621 O   0  0  0  0  0  0  0  0  0  0  0  0
    1.9047   -2.3292   -4.4810 O   0  0  0  0  0  0  0  0  0  0  0  0
    6.8069    2.1668   -5.3834 C   0  0  0  0  0  0  0  0  0  0  0  0
    7.6316    1.5522   -5.7646 H   0  0  0  0  0  0  0  0  0  0  0  0
    6.4882    2.8204   -6.2017 H   0  0  0  0  0  0  0  0  0  0  0  0
    7.2066    2.7934   -4.5821 H   0  0  0  0  0  0  0  0  0  0  0  0
  1  7  1  0  0  0  0
  2  8  1  0  0  0  0
  2  1  2  0  0  0  0
  3  2  1  0  0  0  0
  4  3  2  0  0  0  0
  4  5  1  0  0  0  0
  5  6  2  0  0  0  0
  6  1  1  0  0  0  0
  6 11  1  0  0  0  0
  9  4  1  0  0  0  0
 10  5  1  0  0  0  0
 11 13  2  0  0  0  0
 12 11  2  0  0  0  0
 15 14  3  0  0  0  0
 16 22  1  0  0  0  0
 17 16  1  0  0  0  0
 17 23  1  0  0  0  0
 18 17  2  0  0  0  0
 19 20  2  0  0  0  0
 19 18  1  0  0  0  0
 20 21  1  0  0  0  0
 21 26  1  0  0  0  0
 21 16  2  0  0  0  0
 24 19  1  0  0  0  0
 25 20  1  0  0  0  0
 26 28  2  0  0  0  0
 27 26  1  0  0  0  0
 27  3  1  0  0  0  0
 29 26  2  0  0  0  0
 30 18  1  0  0  0  0
 30 33  1  0  0  0  0
 31 30  1  0  0  0  0
 32 30  1  0  0  0  0
M  END
