Coordinates from ORCA-job 4-NO2-Ph-N2-OTs-B3LYPG-6-31G_dp-MTMO-d009-169-n800
 OpenBabel09051908313D

 33 33  0  0  0  0  0  0  0  0999 V2000
   -0.0857    0.9292   -1.0946 C   0  0  0  0  0  0  0  0  0  0  0  0
    0.4017    0.2146   -2.1841 C   0  0  0  0  0  0  0  0  0  0  0  0
    1.1553    0.8829   -3.1547 C   0  0  0  0  0  0  0  0  0  0  0  0
    1.4193    2.2524   -3.0574 C   0  0  0  0  0  0  0  0  0  0  0  0
    0.9265    2.9699   -1.9727 C   0  0  0  0  0  0  0  0  0  0  0  0
    0.1843    2.2946   -1.0047 C   0  0  0  0  0  0  0  0  0  0  0  0
   -0.6725    0.4507   -0.3205 H   0  0  0  0  0  0  0  0  0  0  0  0
    0.2111   -0.8458   -2.2892 H   0  0  0  0  0  0  0  0  0  0  0  0
    1.9987    2.7366   -3.8357 H   0  0  0  0  0  0  0  0  0  0  0  0
    1.1079    4.0313   -1.8610 H   0  0  0  0  0  0  0  0  0  0  0  0
   -0.3313    3.0486    0.1477 N   0  0  0  0  0  0  0  0  0  0  0  0
   -0.0722    4.2507    0.2040 O   0  0  0  0  0  0  0  0  0  0  0  0
   -0.9875    2.4320    0.9859 O   0  0  0  0  0  0  0  0  0  0  0  0
    4.4648   -1.5295   -8.3903 N   0  0  0  0  0  0  0  0  0  0  0  0
    3.9913   -2.4345   -8.8119 N   0  0  0  0  0  0  0  0  0  0  0  0
    4.7641    0.4016   -2.7467 C   0  0  0  0  0  0  0  0  0  0  0  0
    5.8934    1.2107   -2.6448 C   0  0  0  0  0  0  0  0  0  0  0  0
    6.5486    1.6911   -3.7883 C   0  0  0  0  0  0  0  0  0  0  0  0
    6.0425    1.3391   -5.0491 C   0  0  0  0  0  0  0  0  0  0  0  0
    4.9139    0.5338   -5.1761 C   0  0  0  0  0  0  0  0  0  0  0  0
    4.2837    0.0742   -4.0169 C   0  0  0  0  0  0  0  0  0  0  0  0
    4.2697    0.0173   -1.8619 H   0  0  0  0  0  0  0  0  0  0  0  0
    6.2736    1.4704   -1.6608 H   0  0  0  0  0  0  0  0  0  0  0  0
    6.5419    1.6979   -5.9446 H   0  0  0  0  0  0  0  0  0  0  0  0
    4.5366    0.2505   -6.1524 H   0  0  0  0  0  0  0  0  0  0  0  0
    2.8255   -0.9345   -4.1665 S   0  0  0  0  0  0  0  0  0  0  0  0
    1.6011    0.2206   -4.2906 O   0  0  0  0  0  0  0  0  0  0  0  0
    2.6248   -1.6771   -2.9265 O   0  0  0  0  0  0  0  0  0  0  0  0
    2.7943   -1.5715   -5.4724 O   0  0  0  0  0  0  0  0  0  0  0  0
    7.7898    2.5399   -3.6661 C   0  0  0  0  0  0  0  0  0  0  0  0
    7.9046    3.2079   -4.5244 H   0  0  0  0  0  0  0  0  0  0  0  0
    7.7714    3.1481   -2.7573 H   0  0  0  0  0  0  0  0  0  0  0  0
    8.6871    1.9108   -3.6195 H   0  0  0  0  0  0  0  0  0  0  0  0
  1  6  1  0  0  0  0
  1  7  1  0  0  0  0
  2  1  2  0  0  0  0
  3  4  2  0  0  0  0
  3  2  1  0  0  0  0
  4  5  1  0  0  0  0
  5 10  1  0  0  0  0
  5  6  2  0  0  0  0
  6 11  1  0  0  0  0
  8  2  1  0  0  0  0
  9  4  1  0  0  0  0
 11 12  2  0  0  0  0
 11 13  2  0  0  0  0
 15 14  3  0  0  0  0
 16 17  1  0  0  0  0
 16 22  1  0  0  0  0
 17 23  1  0  0  0  0
 18 30  1  0  0  0  0
 18 17  2  0  0  0  0
 19 18  1  0  0  0  0
 20 19  2  0  0  0  0
 20 21  1  0  0  0  0
 21 16  2  0  0  0  0
 24 19  1  0  0  0  0
 25 20  1  0  0  0  0
 26 21  1  0  0  0  0
 26 28  2  0  0  0  0
 27 26  1  0  0  0  0
 27  3  1  0  0  0  0
 29 26  2  0  0  0  0
 30 33  1  0  0  0  0
 30 32  1  0  0  0  0
 31 30  1  0  0  0  0
M  END
