Coordinates from ORCA-job 4-NO2-Ph-N2-OTs-B3LYPG-6-31G_dp-MTMO-d009-169-n800
 OpenBabel09051908313D

 33 33  0  0  0  0  0  0  0  0999 V2000
    0.0279    1.1844   -0.0911 C   0  0  0  0  0  0  0  0  0  0  0  0
    0.2257    0.2105   -1.0643 C   0  0  0  0  0  0  0  0  0  0  0  0
    0.5962    0.6022   -2.3548 C   0  0  0  0  0  0  0  0  0  0  0  0
    0.7647    1.9497   -2.6873 C   0  0  0  0  0  0  0  0  0  0  0  0
    0.5600    2.9253   -1.7176 C   0  0  0  0  0  0  0  0  0  0  0  0
    0.1975    2.5261   -0.4320 C   0  0  0  0  0  0  0  0  0  0  0  0
   -0.2607    0.9247    0.9193 H   0  0  0  0  0  0  0  0  0  0  0  0
    0.1012   -0.8411   -0.8381 H   0  0  0  0  0  0  0  0  0  0  0  0
    1.0451    2.2140   -3.7005 H   0  0  0  0  0  0  0  0  0  0  0  0
    0.6770    3.9794   -1.9357 H   0  0  0  0  0  0  0  0  0  0  0  0
   -0.0149    3.5552    0.5970 N   0  0  0  0  0  0  0  0  0  0  0  0
    0.1460    4.7307    0.2694 O   0  0  0  0  0  0  0  0  0  0  0  0
   -0.3388    3.1789    1.7226 O   0  0  0  0  0  0  0  0  0  0  0  0
   13.5391    1.3906   -8.5639 N   0  0  0  0  0  0  0  0  0  0  0  0
   14.4902    1.1896   -9.0898 N   0  0  0  0  0  0  0  0  0  0  0  0
    4.2402    0.1829   -2.9789 C   0  0  0  0  0  0  0  0  0  0  0  0
    5.2754    1.0004   -3.4305 C   0  0  0  0  0  0  0  0  0  0  0  0
    5.4540    1.2588   -4.7965 C   0  0  0  0  0  0  0  0  0  0  0  0
    4.5641    0.6739   -5.7124 C   0  0  0  0  0  0  0  0  0  0  0  0
    3.5245   -0.1458   -5.2848 C   0  0  0  0  0  0  0  0  0  0  0  0
    3.3726   -0.3813   -3.9150 C   0  0  0  0  0  0  0  0  0  0  0  0
    4.1123   -0.0277   -1.9230 H   0  0  0  0  0  0  0  0  0  0  0  0
    5.9567    1.4417   -2.7085 H   0  0  0  0  0  0  0  0  0  0  0  0
    4.6906    0.8616   -6.7754 H   0  0  0  0  0  0  0  0  0  0  0  0
    2.8465   -0.6075   -5.9943 H   0  0  0  0  0  0  0  0  0  0  0  0
    2.0304   -1.4094   -3.3586 S   0  0  0  0  0  0  0  0  0  0  0  0
    0.7313   -0.3338   -3.3705 O   0  0  0  0  0  0  0  0  0  0  0  0
    2.2762   -1.8137   -1.9783 O   0  0  0  0  0  0  0  0  0  0  0  0
    1.6653   -2.3553   -4.3989 O   0  0  0  0  0  0  0  0  0  0  0  0
    6.5932    2.1223   -5.2798 C   0  0  0  0  0  0  0  0  0  0  0  0
    7.4239    1.5038   -5.6411 H   0  0  0  0  0  0  0  0  0  0  0  0
    6.2841    2.7645   -6.1104 H   0  0  0  0  0  0  0  0  0  0  0  0
    6.9808    2.7593   -4.4807 H   0  0  0  0  0  0  0  0  0  0  0  0
  1  7  1  0  0  0  0
  2  8  1  0  0  0  0
  2  1  2  0  0  0  0
  3  2  1  0  0  0  0
  4  3  2  0  0  0  0
  4  5  1  0  0  0  0
  5  6  2  0  0  0  0
  6  1  1  0  0  0  0
  6 11  1  0  0  0  0
  9  4  1  0  0  0  0
 10  5  1  0  0  0  0
 11 13  2  0  0  0  0
 12 11  2  0  0  0  0
 15 14  3  0  0  0  0
 16 22  1  0  0  0  0
 17 16  1  0  0  0  0
 17 23  1  0  0  0  0
 18 17  2  0  0  0  0
 19 20  2  0  0  0  0
 19 18  1  0  0  0  0
 20 21  1  0  0  0  0
 21 26  1  0  0  0  0
 21 16  2  0  0  0  0
 24 19  1  0  0  0  0
 25 20  1  0  0  0  0
 26 28  2  0  0  0  0
 27 26  1  0  0  0  0
 27  3  1  0  0  0  0
 29 26  2  0  0  0  0
 30 18  1  0  0  0  0
 30 33  1  0  0  0  0
 31 30  1  0  0  0  0
 32 30  1  0  0  0  0
M  END
