Coordinates from ORCA-job 4-NO2-Ph-N2-OTs-B3LYPG-6-31G_dp-MTMO-d009-169-n800
 OpenBabel09051908313D

 33 33  0  0  0  0  0  0  0  0999 V2000
   -0.1381    1.0877   -0.9239 C   0  0  0  0  0  0  0  0  0  0  0  0
    0.3328    0.2389   -1.9202 C   0  0  0  0  0  0  0  0  0  0  0  0
    1.0728    0.7756   -2.9790 C   0  0  0  0  0  0  0  0  0  0  0  0
    1.3424    2.1452   -3.0591 C   0  0  0  0  0  0  0  0  0  0  0  0
    0.8663    2.9966   -2.0675 C   0  0  0  0  0  0  0  0  0  0  0  0
    0.1353    2.4526   -1.0121 C   0  0  0  0  0  0  0  0  0  0  0  0
   -0.7152    0.7137   -0.0876 H   0  0  0  0  0  0  0  0  0  0  0  0
    0.1387   -0.8257   -1.8870 H   0  0  0  0  0  0  0  0  0  0  0  0
    1.9109    2.5248   -3.9006 H   0  0  0  0  0  0  0  0  0  0  0  0
    1.0514    4.0631   -2.0946 H   0  0  0  0  0  0  0  0  0  0  0  0
   -0.3655    3.3488    0.0406 N   0  0  0  0  0  0  0  0  0  0  0  0
   -0.1068    4.5479   -0.0605 O   0  0  0  0  0  0  0  0  0  0  0  0
   -1.0108    2.8455    0.9594 O   0  0  0  0  0  0  0  0  0  0  0  0
    5.4699   -0.2043   -8.7078 N   0  0  0  0  0  0  0  0  0  0  0  0
    5.4047   -0.6576   -9.7135 N   0  0  0  0  0  0  0  0  0  0  0  0
    4.7372    0.2901   -2.6279 C   0  0  0  0  0  0  0  0  0  0  0  0
    5.8759    1.0918   -2.6770 C   0  0  0  0  0  0  0  0  0  0  0  0
    6.4650    1.4432   -3.9001 C   0  0  0  0  0  0  0  0  0  0  0  0
    5.8831    0.9690   -5.0864 C   0  0  0  0  0  0  0  0  0  0  0  0
    4.7456    0.1680   -5.0616 C   0  0  0  0  0  0  0  0  0  0  0  0
    4.1817   -0.1621   -3.8263 C   0  0  0  0  0  0  0  0  0  0  0  0
    4.2924    0.0063   -1.6808 H   0  0  0  0  0  0  0  0  0  0  0  0
    6.3154    1.4475   -1.7495 H   0  0  0  0  0  0  0  0  0  0  0  0
    6.3272    1.2257   -6.0439 H   0  0  0  0  0  0  0  0  0  0  0  0
    4.3086   -0.2066   -5.9801 H   0  0  0  0  0  0  0  0  0  0  0  0
    2.7141   -1.1670   -3.7874 S   0  0  0  0  0  0  0  0  0  0  0  0
    1.4945   -0.0264   -4.0298 O   0  0  0  0  0  0  0  0  0  0  0  0
    2.5512   -1.7300   -2.4510 O   0  0  0  0  0  0  0  0  0  0  0  0
    2.6352   -1.9755   -4.9921 O   0  0  0  0  0  0  0  0  0  0  0  0
    7.7154    2.2862   -3.9405 C   0  0  0  0  0  0  0  0  0  0  0  0
    7.7401    2.9231   -4.8296 H   0  0  0  0  0  0  0  0  0  0  0  0
    7.7967    2.9261   -3.0574 H   0  0  0  0  0  0  0  0  0  0  0  0
    8.6102    1.6526   -3.9693 H   0  0  0  0  0  0  0  0  0  0  0  0
  1  7  1  0  0  0  0
  2  8  1  0  0  0  0
  2  1  2  0  0  0  0
  3  2  1  0  0  0  0
  4  3  2  0  0  0  0
  4  5  1  0  0  0  0
  5  6  2  0  0  0  0
  6  1  1  0  0  0  0
  6 11  1  0  0  0  0
  9  4  1  0  0  0  0
 10  5  1  0  0  0  0
 11 13  2  0  0  0  0
 12 11  2  0  0  0  0
 15 14  3  0  0  0  0
 16 22  1  0  0  0  0
 17 16  1  0  0  0  0
 17 23  1  0  0  0  0
 18 17  2  0  0  0  0
 19 20  2  0  0  0  0
 19 18  1  0  0  0  0
 20 21  1  0  0  0  0
 21 26  1  0  0  0  0
 21 16  2  0  0  0  0
 24 19  1  0  0  0  0
 25 20  1  0  0  0  0
 26 28  2  0  0  0  0
 27 26  1  0  0  0  0
 27  3  1  0  0  0  0
 29 26  2  0  0  0  0
 30 18  1  0  0  0  0
 30 32  1  0  0  0  0
 31 30  1  0  0  0  0
 33 30  1  0  0  0  0
M  END
