Coordinates from ORCA-job 4-NO2-Ph-N2-OTs-B3LYPG-6-31G_dp-MTMO-d009-169-n800
 OpenBabel09051908313D

 33 33  0  0  0  0  0  0  0  0999 V2000
   -0.0844    0.9252   -1.1082 C   0  0  0  0  0  0  0  0  0  0  0  0
    0.4131    0.2009   -2.1866 C   0  0  0  0  0  0  0  0  0  0  0  0
    1.1709    0.8615   -3.1590 C   0  0  0  0  0  0  0  0  0  0  0  0
    1.4296    2.2329   -3.0746 C   0  0  0  0  0  0  0  0  0  0  0  0
    0.9268    2.9602   -2.0009 C   0  0  0  0  0  0  0  0  0  0  0  0
    0.1802    2.2925   -1.0310 C   0  0  0  0  0  0  0  0  0  0  0  0
   -0.6750    0.4529   -0.3331 H   0  0  0  0  0  0  0  0  0  0  0  0
    0.2270   -0.8614   -2.2817 H   0  0  0  0  0  0  0  0  0  0  0  0
    2.0125    2.7108   -3.8540 H   0  0  0  0  0  0  0  0  0  0  0  0
    1.1039    4.0233   -1.8993 H   0  0  0  0  0  0  0  0  0  0  0  0
   -0.3461    3.0569    0.1097 N   0  0  0  0  0  0  0  0  0  0  0  0
   -0.0912    4.2603    0.1553 O   0  0  0  0  0  0  0  0  0  0  0  0
   -1.0064    2.4471    0.9496 O   0  0  0  0  0  0  0  0  0  0  0  0
    4.3159   -1.4529   -8.4141 N   0  0  0  0  0  0  0  0  0  0  0  0
    3.8017   -2.3324   -8.8420 N   0  0  0  0  0  0  0  0  0  0  0  0
    4.7832    0.4002   -2.7264 C   0  0  0  0  0  0  0  0  0  0  0  0
    5.9070    1.2175   -2.6274 C   0  0  0  0  0  0  0  0  0  0  0  0
    6.5614    1.6945   -3.7726 C   0  0  0  0  0  0  0  0  0  0  0  0
    6.0603    1.3307   -5.0321 C   0  0  0  0  0  0  0  0  0  0  0  0
    4.9376    0.5169   -5.1563 C   0  0  0  0  0  0  0  0  0  0  0  0
    4.3079    0.0609   -3.9953 C   0  0  0  0  0  0  0  0  0  0  0  0
    4.2890    0.0188   -1.8401 H   0  0  0  0  0  0  0  0  0  0  0  0
    6.2832    1.4864   -1.6444 H   0  0  0  0  0  0  0  0  0  0  0  0
    6.5591    1.6870   -5.9290 H   0  0  0  0  0  0  0  0  0  0  0  0
    4.5644    0.2253   -6.1318 H   0  0  0  0  0  0  0  0  0  0  0  0
    2.8563   -0.9579   -4.1405 S   0  0  0  0  0  0  0  0  0  0  0  0
    1.6264    0.1888   -4.2849 O   0  0  0  0  0  0  0  0  0  0  0  0
    2.6530   -1.6870   -2.8930 O   0  0  0  0  0  0  0  0  0  0  0  0
    2.8357   -1.6106   -5.4389 O   0  0  0  0  0  0  0  0  0  0  0  0
    7.7965    2.5526   -3.6538 C   0  0  0  0  0  0  0  0  0  0  0  0
    7.9040    3.2212   -4.5127 H   0  0  0  0  0  0  0  0  0  0  0  0
    7.7761    3.1609   -2.7452 H   0  0  0  0  0  0  0  0  0  0  0  0
    8.6987    1.9303   -3.6097 H   0  0  0  0  0  0  0  0  0  0  0  0
  1  6  1  0  0  0  0
  1  7  1  0  0  0  0
  2  1  2  0  0  0  0
  3  4  2  0  0  0  0
  3  2  1  0  0  0  0
  4  5  1  0  0  0  0
  5 10  1  0  0  0  0
  5  6  2  0  0  0  0
  6 11  1  0  0  0  0
  8  2  1  0  0  0  0
  9  4  1  0  0  0  0
 11 12  2  0  0  0  0
 11 13  2  0  0  0  0
 15 14  3  0  0  0  0
 16 17  1  0  0  0  0
 16 22  1  0  0  0  0
 17 23  1  0  0  0  0
 18 30  1  0  0  0  0
 18 17  2  0  0  0  0
 19 18  1  0  0  0  0
 20 19  2  0  0  0  0
 20 21  1  0  0  0  0
 21 16  2  0  0  0  0
 24 19  1  0  0  0  0
 25 20  1  0  0  0  0
 26 21  1  0  0  0  0
 26 28  2  0  0  0  0
 27 26  1  0  0  0  0
 27  3  1  0  0  0  0
 29 26  2  0  0  0  0
 30 33  1  0  0  0  0
 30 32  1  0  0  0  0
 31 30  1  0  0  0  0
M  END
