Coordinates from ORCA-job 4-NO2-Ph-N2-OTs-B3LYPG-6-31G_dp-MTMO-d009-169-n800
 OpenBabel09051908313D

 33 33  0  0  0  0  0  0  0  0999 V2000
    0.0485    1.1811   -0.1026 C   0  0  0  0  0  0  0  0  0  0  0  0
    0.2487    0.2078   -1.0759 C   0  0  0  0  0  0  0  0  0  0  0  0
    0.6184    0.6006   -2.3664 C   0  0  0  0  0  0  0  0  0  0  0  0
    0.7838    1.9485   -2.6986 C   0  0  0  0  0  0  0  0  0  0  0  0
    0.5767    2.9235   -1.7288 C   0  0  0  0  0  0  0  0  0  0  0  0
    0.2150    2.5233   -0.4433 C   0  0  0  0  0  0  0  0  0  0  0  0
   -0.2395    0.9205    0.9077 H   0  0  0  0  0  0  0  0  0  0  0  0
    0.1267   -0.8440   -0.8499 H   0  0  0  0  0  0  0  0  0  0  0  0
    1.0636    2.2137   -3.7117 H   0  0  0  0  0  0  0  0  0  0  0  0
    0.6912    3.9780   -1.9467 H   0  0  0  0  0  0  0  0  0  0  0  0
    0.0001    3.5517    0.5859 N   0  0  0  0  0  0  0  0  0  0  0  0
    0.1582    4.7276    0.2585 O   0  0  0  0  0  0  0  0  0  0  0  0
   -0.3230    3.1744    1.7114 O   0  0  0  0  0  0  0  0  0  0  0  0
   13.2021    1.3643   -8.4001 N   0  0  0  0  0  0  0  0  0  0  0  0
   14.1553    1.1614   -8.9215 N   0  0  0  0  0  0  0  0  0  0  0  0
    4.2637    0.1877   -2.9892 C   0  0  0  0  0  0  0  0  0  0  0  0
    5.2979    1.0068   -3.4402 C   0  0  0  0  0  0  0  0  0  0  0  0
    5.4769    1.2655   -4.8061 C   0  0  0  0  0  0  0  0  0  0  0  0
    4.5882    0.6794   -5.7225 C   0  0  0  0  0  0  0  0  0  0  0  0
    3.5496   -0.1420   -5.2955 C   0  0  0  0  0  0  0  0  0  0  0  0
    3.3974   -0.3778   -3.9258 C   0  0  0  0  0  0  0  0  0  0  0  0
    4.1356   -0.0232   -1.9334 H   0  0  0  0  0  0  0  0  0  0  0  0
    5.9782    1.4489   -2.7179 H   0  0  0  0  0  0  0  0  0  0  0  0
    4.7150    0.8673   -6.7854 H   0  0  0  0  0  0  0  0  0  0  0  0
    2.8727   -0.6046   -6.0054 H   0  0  0  0  0  0  0  0  0  0  0  0
    2.0568   -1.4082   -3.3701 S   0  0  0  0  0  0  0  0  0  0  0  0
    0.7557   -0.3349   -3.3823 O   0  0  0  0  0  0  0  0  0  0  0  0
    2.3027   -1.8124   -1.9898 O   0  0  0  0  0  0  0  0  0  0  0  0
    1.6937   -2.3545   -4.4107 O   0  0  0  0  0  0  0  0  0  0  0  0
    6.6150    2.1306   -5.2888 C   0  0  0  0  0  0  0  0  0  0  0  0
    7.4461    1.5133   -5.6515 H   0  0  0  0  0  0  0  0  0  0  0  0
    6.3048    2.7736   -6.1184 H   0  0  0  0  0  0  0  0  0  0  0  0
    7.0025    2.7670   -4.4891 H   0  0  0  0  0  0  0  0  0  0  0  0
  1  7  1  0  0  0  0
  2  8  1  0  0  0  0
  2  1  2  0  0  0  0
  3  2  1  0  0  0  0
  4  3  2  0  0  0  0
  4  5  1  0  0  0  0
  5  6  2  0  0  0  0
  6  1  1  0  0  0  0
  6 11  1  0  0  0  0
  9  4  1  0  0  0  0
 10  5  1  0  0  0  0
 11 13  2  0  0  0  0
 12 11  2  0  0  0  0
 15 14  3  0  0  0  0
 16 22  1  0  0  0  0
 17 16  1  0  0  0  0
 17 23  1  0  0  0  0
 18 17  2  0  0  0  0
 19 20  2  0  0  0  0
 19 18  1  0  0  0  0
 20 21  1  0  0  0  0
 21 26  1  0  0  0  0
 21 16  2  0  0  0  0
 24 19  1  0  0  0  0
 25 20  1  0  0  0  0
 26 28  2  0  0  0  0
 27 26  1  0  0  0  0
 27  3  1  0  0  0  0
 29 26  2  0  0  0  0
 30 18  1  0  0  0  0
 30 33  1  0  0  0  0
 31 30  1  0  0  0  0
 32 30  1  0  0  0  0
M  END
