Coordinates from ORCA-job 4-NO2-Ph-N2-OTs-B3LYPG-6-31G_dp-MTMO-d009-169-n800
 OpenBabel09051908313D

 33 33  0  0  0  0  0  0  0  0999 V2000
   -0.0727    0.9160   -1.1502 C   0  0  0  0  0  0  0  0  0  0  0  0
    0.4512    0.1571   -2.1917 C   0  0  0  0  0  0  0  0  0  0  0  0
    1.2160    0.7893   -3.1775 C   0  0  0  0  0  0  0  0  0  0  0  0
    1.4569    2.1660   -3.1421 C   0  0  0  0  0  0  0  0  0  0  0  0
    0.9282    2.9276   -2.1053 C   0  0  0  0  0  0  0  0  0  0  0  0
    0.1740    2.2885   -1.1221 C   0  0  0  0  0  0  0  0  0  0  0  0
   -0.6698    0.4664   -0.3667 H   0  0  0  0  0  0  0  0  0  0  0  0
    0.2798   -0.9104   -2.2485 H   0  0  0  0  0  0  0  0  0  0  0  0
    2.0466    2.6209   -3.9301 H   0  0  0  0  0  0  0  0  0  0  0  0
    1.0908    3.9961   -2.0421 H   0  0  0  0  0  0  0  0  0  0  0  0
   -0.3801    3.0897   -0.0205 N   0  0  0  0  0  0  0  0  0  0  0  0
   -0.1419    4.2973   -0.0182 O   0  0  0  0  0  0  0  0  0  0  0  0
   -1.0456    2.5041    0.8326 O   0  0  0  0  0  0  0  0  0  0  0  0
    3.8840   -1.1363   -8.3692 N   0  0  0  0  0  0  0  0  0  0  0  0
    3.3010   -1.9536   -8.8306 N   0  0  0  0  0  0  0  0  0  0  0  0
    4.8493    0.3682   -2.6680 C   0  0  0  0  0  0  0  0  0  0  0  0
    5.9561    1.2100   -2.5807 C   0  0  0  0  0  0  0  0  0  0  0  0
    6.5913    1.6966   -3.7323 C   0  0  0  0  0  0  0  0  0  0  0  0
    6.0885    1.3175   -4.9868 C   0  0  0  0  0  0  0  0  0  0  0  0
    4.9836    0.4783   -5.0996 C   0  0  0  0  0  0  0  0  0  0  0  0
    4.3730    0.0130   -3.9318 C   0  0  0  0  0  0  0  0  0  0  0  0
    4.3686   -0.0193   -1.7770 H   0  0  0  0  0  0  0  0  0  0  0  0
    6.3334    1.4912   -1.6015 H   0  0  0  0  0  0  0  0  0  0  0  0
    6.5720    1.6822   -5.8887 H   0  0  0  0  0  0  0  0  0  0  0  0
    4.6081    0.1774   -6.0714 H   0  0  0  0  0  0  0  0  0  0  0  0
    2.9436   -1.0386   -4.0624 S   0  0  0  0  0  0  0  0  0  0  0  0
    1.6963    0.0786   -4.2686 O   0  0  0  0  0  0  0  0  0  0  0  0
    2.7343   -1.7262   -2.7925 O   0  0  0  0  0  0  0  0  0  0  0  0
    2.9539   -1.7378   -5.3365 O   0  0  0  0  0  0  0  0  0  0  0  0
    7.8081    2.5820   -3.6267 C   0  0  0  0  0  0  0  0  0  0  0  0
    7.8855    3.2600   -4.4815 H   0  0  0  0  0  0  0  0  0  0  0  0
    7.7892    3.1823   -2.7127 H   0  0  0  0  0  0  0  0  0  0  0  0
    8.7251    1.9806   -3.6035 H   0  0  0  0  0  0  0  0  0  0  0  0
  1  6  1  0  0  0  0
  1  7  1  0  0  0  0
  2  1  2  0  0  0  0
  3  4  2  0  0  0  0
  3  2  1  0  0  0  0
  4  5  1  0  0  0  0
  5 10  1  0  0  0  0
  5  6  2  0  0  0  0
  6 11  1  0  0  0  0
  8  2  1  0  0  0  0
  9  4  1  0  0  0  0
 11 12  2  0  0  0  0
 11 13  2  0  0  0  0
 15 14  3  0  0  0  0
 16 17  1  0  0  0  0
 16 22  1  0  0  0  0
 17 23  1  0  0  0  0
 18 30  1  0  0  0  0
 18 17  2  0  0  0  0
 19 18  1  0  0  0  0
 20 19  2  0  0  0  0
 20 21  1  0  0  0  0
 21 16  2  0  0  0  0
 24 19  1  0  0  0  0
 25 20  1  0  0  0  0
 26 21  1  0  0  0  0
 26 28  2  0  0  0  0
 27 26  1  0  0  0  0
 27  3  1  0  0  0  0
 29 26  2  0  0  0  0
 30 33  1  0  0  0  0
 30 32  1  0  0  0  0
 31 30  1  0  0  0  0
M  END
