Coordinates from ORCA-job 4-NO2-Ph-N2-OTs-B3LYPG-6-31G_dp-MTMO-d009-169-n800
 OpenBabel09051908313D

 33 33  0  0  0  0  0  0  0  0999 V2000
    0.0015    1.1954   -0.0795 C   0  0  0  0  0  0  0  0  0  0  0  0
    0.1934    0.2198   -1.0521 C   0  0  0  0  0  0  0  0  0  0  0  0
    0.5677    0.6084   -2.3425 C   0  0  0  0  0  0  0  0  0  0  0  0
    0.7457    1.9546   -2.6754 C   0  0  0  0  0  0  0  0  0  0  0  0
    0.5471    2.9320   -1.7062 C   0  0  0  0  0  0  0  0  0  0  0  0
    0.1807    2.5358   -0.4207 C   0  0  0  0  0  0  0  0  0  0  0  0
   -0.2897    0.9381    0.9308 H   0  0  0  0  0  0  0  0  0  0  0  0
    0.0615   -0.8308   -0.8257 H   0  0  0  0  0  0  0  0  0  0  0  0
    1.0289    2.2166   -3.6884 H   0  0  0  0  0  0  0  0  0  0  0  0
    0.6716    3.9852   -1.9245 H   0  0  0  0  0  0  0  0  0  0  0  0
   -0.0254    3.5667    0.6077 N   0  0  0  0  0  0  0  0  0  0  0  0
    0.1435    4.7409    0.2797 O   0  0  0  0  0  0  0  0  0  0  0  0
   -0.3533    3.1931    1.7331 O   0  0  0  0  0  0  0  0  0  0  0  0
   13.9385    1.4651   -8.7636 N   0  0  0  0  0  0  0  0  0  0  0  0
   14.8855    1.2659   -9.2975 N   0  0  0  0  0  0  0  0  0  0  0  0
    4.2082    0.1692   -2.9645 C   0  0  0  0  0  0  0  0  0  0  0  0
    5.2478    0.9812   -3.4159 C   0  0  0  0  0  0  0  0  0  0  0  0
    5.4286    1.2379   -4.7819 C   0  0  0  0  0  0  0  0  0  0  0  0
    4.5364    0.6569   -5.6981 C   0  0  0  0  0  0  0  0  0  0  0  0
    3.4924   -0.1574   -5.2708 C   0  0  0  0  0  0  0  0  0  0  0  0
    3.3384   -0.3912   -3.9009 C   0  0  0  0  0  0  0  0  0  0  0  0
    4.0785   -0.0401   -1.9086 H   0  0  0  0  0  0  0  0  0  0  0  0
    5.9307    1.4195   -2.6936 H   0  0  0  0  0  0  0  0  0  0  0  0
    4.6646    0.8432   -6.7611 H   0  0  0  0  0  0  0  0  0  0  0  0
    2.8126   -0.6161   -5.9805 H   0  0  0  0  0  0  0  0  0  0  0  0
    1.9903   -1.4117   -3.3448 S   0  0  0  0  0  0  0  0  0  0  0  0
    0.6972   -0.3290   -3.3576 O   0  0  0  0  0  0  0  0  0  0  0  0
    2.2332   -1.8169   -1.9643 O   0  0  0  0  0  0  0  0  0  0  0  0
    1.6205   -2.3558   -4.3851 O   0  0  0  0  0  0  0  0  0  0  0  0
    6.5723    2.0955   -5.2649 C   0  0  0  0  0  0  0  0  0  0  0  0
    7.4009    1.4729   -5.6238 H   0  0  0  0  0  0  0  0  0  0  0  0
    6.2671    2.7377   -6.0970 H   0  0  0  0  0  0  0  0  0  0  0  0
    6.9614    2.7323   -4.4662 H   0  0  0  0  0  0  0  0  0  0  0  0
  1  7  1  0  0  0  0
  2  8  1  0  0  0  0
  2  1  2  0  0  0  0
  3  2  1  0  0  0  0
  4  3  2  0  0  0  0
  4  5  1  0  0  0  0
  5  6  2  0  0  0  0
  6  1  1  0  0  0  0
  6 11  1  0  0  0  0
  9  4  1  0  0  0  0
 10  5  1  0  0  0  0
 11 13  2  0  0  0  0
 12 11  2  0  0  0  0
 15 14  3  0  0  0  0
 16 22  1  0  0  0  0
 17 16  1  0  0  0  0
 17 23  1  0  0  0  0
 18 17  2  0  0  0  0
 19 20  2  0  0  0  0
 19 18  1  0  0  0  0
 20 21  1  0  0  0  0
 21 26  1  0  0  0  0
 21 16  2  0  0  0  0
 24 19  1  0  0  0  0
 25 20  1  0  0  0  0
 26 28  2  0  0  0  0
 27 26  1  0  0  0  0
 27  3  1  0  0  0  0
 29 26  2  0  0  0  0
 30 18  1  0  0  0  0
 30 33  1  0  0  0  0
 31 30  1  0  0  0  0
 32 30  1  0  0  0  0
M  END
