Coordinates from ORCA-job 4-NO2-Ph-N2-OTs-B3LYPG-6-31G_dp-MTMO-d009-169-n800
 OpenBabel09051908313D

 33 33  0  0  0  0  0  0  0  0999 V2000
   -0.0203    1.2546   -0.5895 C   0  0  0  0  0  0  0  0  0  0  0  0
    0.3490    0.2658   -1.4956 C   0  0  0  0  0  0  0  0  0  0  0  0
    0.9192    0.6396   -2.7171 C   0  0  0  0  0  0  0  0  0  0  0  0
    1.1158    1.9838   -3.0480 C   0  0  0  0  0  0  0  0  0  0  0  0
    0.7382    2.9739   -2.1473 C   0  0  0  0  0  0  0  0  0  0  0  0
    0.1792    2.5927   -0.9282 C   0  0  0  0  0  0  0  0  0  0  0  0
   -0.4638    1.0081    0.3666 H   0  0  0  0  0  0  0  0  0  0  0  0
    0.2067   -0.7830   -1.2683 H   0  0  0  0  0  0  0  0  0  0  0  0
    1.5514    2.2342   -4.0085 H   0  0  0  0  0  0  0  0  0  0  0  0
    0.8705    4.0257   -2.3679 H   0  0  0  0  0  0  0  0  0  0  0  0
   -0.2154    3.6368    0.0290 N   0  0  0  0  0  0  0  0  0  0  0  0
   -0.0270    4.8089   -0.2959 O   0  0  0  0  0  0  0  0  0  0  0  0
   -0.7083    3.2757    1.0970 O   0  0  0  0  0  0  0  0  0  0  0  0
    7.5838    1.4379   -8.6374 N   0  0  0  0  0  0  0  0  0  0  0  0
    8.0210    1.5034   -9.6502 N   0  0  0  0  0  0  0  0  0  0  0  0
    4.6076    0.1772   -2.6527 C   0  0  0  0  0  0  0  0  0  0  0  0
    5.7314    0.9565   -2.9125 C   0  0  0  0  0  0  0  0  0  0  0  0
    6.1901    1.1569   -4.2242 C   0  0  0  0  0  0  0  0  0  0  0  0
    5.4914    0.5528   -5.2797 C   0  0  0  0  0  0  0  0  0  0  0  0
    4.3640   -0.2310   -5.0429 C   0  0  0  0  0  0  0  0  0  0  0  0
    3.9330   -0.4096   -3.7268 C   0  0  0  0  0  0  0  0  0  0  0  0
    4.2639    0.0091   -1.6383 H   0  0  0  0  0  0  0  0  0  0  0  0
    6.2652    1.4119   -2.0831 H   0  0  0  0  0  0  0  0  0  0  0  0
    5.8393    0.6935   -6.2989 H   0  0  0  0  0  0  0  0  0  0  0  0
    3.8336   -0.7099   -5.8584 H   0  0  0  0  0  0  0  0  0  0  0  0
    2.4902   -1.4042   -3.4166 S   0  0  0  0  0  0  0  0  0  0  0  0
    1.2348   -0.3086   -3.6797 O   0  0  0  0  0  0  0  0  0  0  0  0
    2.4699   -1.7938   -2.0104 O   0  0  0  0  0  0  0  0  0  0  0  0
    2.3043   -2.3596   -4.4953 O   0  0  0  0  0  0  0  0  0  0  0  0
    7.4207    1.9912   -4.4850 C   0  0  0  0  0  0  0  0  0  0  0  0
    7.5859    2.1374   -5.5550 H   0  0  0  0  0  0  0  0  0  0  0  0
    7.3390    2.9764   -4.0143 H   0  0  0  0  0  0  0  0  0  0  0  0
    8.3138    1.5107   -4.0694 H   0  0  0  0  0  0  0  0  0  0  0  0
  1  7  1  0  0  0  0
  2  8  1  0  0  0  0
  2  1  2  0  0  0  0
  3  2  1  0  0  0  0
  4  3  2  0  0  0  0
  4  5  1  0  0  0  0
  5  6  2  0  0  0  0
  6  1  1  0  0  0  0
  6 11  1  0  0  0  0
  9  4  1  0  0  0  0
 10  5  1  0  0  0  0
 11 13  2  0  0  0  0
 12 11  2  0  0  0  0
 15 14  3  0  0  0  0
 16 22  1  0  0  0  0
 17 16  1  0  0  0  0
 17 23  1  0  0  0  0
 18 17  2  0  0  0  0
 19 20  2  0  0  0  0
 19 18  1  0  0  0  0
 20 21  1  0  0  0  0
 21 26  1  0  0  0  0
 21 16  2  0  0  0  0
 24 19  1  0  0  0  0
 25 20  1  0  0  0  0
 26 28  2  0  0  0  0
 27 26  1  0  0  0  0
 27  3  1  0  0  0  0
 29 26  2  0  0  0  0
 30 18  1  0  0  0  0
 30 33  1  0  0  0  0
 30 32  1  0  0  0  0
 31 30  1  0  0  0  0
M  END
