Coordinates from ORCA-job 4-NO2-Ph-N2-OTs-B3LYPG-6-31G_dp-MTMO-d009-169-n800
 OpenBabel09051908313D

 33 33  0  0  0  0  0  0  0  0999 V2000
    0.0829    1.1769   -0.1236 C   0  0  0  0  0  0  0  0  0  0  0  0
    0.2868    0.2046   -1.0972 C   0  0  0  0  0  0  0  0  0  0  0  0
    0.6569    0.5990   -2.3870 C   0  0  0  0  0  0  0  0  0  0  0  0
    0.8189    1.9476   -2.7185 C   0  0  0  0  0  0  0  0  0  0  0  0
    0.6080    2.9216   -1.7484 C   0  0  0  0  0  0  0  0  0  0  0  0
    0.2460    2.5197   -0.4635 C   0  0  0  0  0  0  0  0  0  0  0  0
   -0.2056    0.9150    0.8863 H   0  0  0  0  0  0  0  0  0  0  0  0
    0.1675   -0.8477   -0.8718 H   0  0  0  0  0  0  0  0  0  0  0  0
    1.0990    2.2141   -3.7311 H   0  0  0  0  0  0  0  0  0  0  0  0
    0.7197    3.9764   -1.9657 H   0  0  0  0  0  0  0  0  0  0  0  0
    0.0270    3.5470    0.5659 N   0  0  0  0  0  0  0  0  0  0  0  0
    0.1821    4.7235    0.2393 O   0  0  0  0  0  0  0  0  0  0  0  0
   -0.2963    3.1683    1.6910 O   0  0  0  0  0  0  0  0  0  0  0  0
   12.6100    1.3296   -8.1166 N   0  0  0  0  0  0  0  0  0  0  0  0
   13.5669    1.1219   -8.6293 N   0  0  0  0  0  0  0  0  0  0  0  0
    4.3044    0.1943   -3.0065 C   0  0  0  0  0  0  0  0  0  0  0  0
    5.3377    1.0152   -3.4565 C   0  0  0  0  0  0  0  0  0  0  0  0
    5.5179    1.2739   -4.8222 C   0  0  0  0  0  0  0  0  0  0  0  0
    4.6314    0.6860   -5.7396 C   0  0  0  0  0  0  0  0  0  0  0  0
    3.5938   -0.1372   -5.3137 C   0  0  0  0  0  0  0  0  0  0  0  0
    3.4404   -0.3730   -3.9440 C   0  0  0  0  0  0  0  0  0  0  0  0
    4.1754   -0.0166   -1.9508 H   0  0  0  0  0  0  0  0  0  0  0  0
    6.0163    1.4587   -2.7334 H   0  0  0  0  0  0  0  0  0  0  0  0
    4.7591    0.8738   -6.8024 H   0  0  0  0  0  0  0  0  0  0  0  0
    2.9186   -0.6013   -6.0243 H   0  0  0  0  0  0  0  0  0  0  0  0
    2.1012   -1.4061   -3.3898 S   0  0  0  0  0  0  0  0  0  0  0  0
    0.7980   -0.3355   -3.4033 O   0  0  0  0  0  0  0  0  0  0  0  0
    2.3465   -1.8100   -2.0093 O   0  0  0  0  0  0  0  0  0  0  0  0
    1.7411   -2.3531   -4.4309 O   0  0  0  0  0  0  0  0  0  0  0  0
    6.6549    2.1411   -5.3038 C   0  0  0  0  0  0  0  0  0  0  0  0
    7.4857    1.5255   -5.6698 H   0  0  0  0  0  0  0  0  0  0  0  0
    6.3430    2.7866   -6.1309 H   0  0  0  0  0  0  0  0  0  0  0  0
    7.0432    2.7752   -4.5027 H   0  0  0  0  0  0  0  0  0  0  0  0
  1  7  1  0  0  0  0
  2  8  1  0  0  0  0
  2  1  2  0  0  0  0
  3  2  1  0  0  0  0
  4  3  2  0  0  0  0
  4  5  1  0  0  0  0
  5  6  2  0  0  0  0
  6  1  1  0  0  0  0
  6 11  1  0  0  0  0
  9  4  1  0  0  0  0
 10  5  1  0  0  0  0
 11 13  2  0  0  0  0
 12 11  2  0  0  0  0
 15 14  3  0  0  0  0
 16 22  1  0  0  0  0
 17 16  1  0  0  0  0
 17 23  1  0  0  0  0
 18 17  2  0  0  0  0
 19 20  2  0  0  0  0
 19 18  1  0  0  0  0
 20 21  1  0  0  0  0
 21 26  1  0  0  0  0
 21 16  2  0  0  0  0
 24 19  1  0  0  0  0
 25 20  1  0  0  0  0
 26 28  2  0  0  0  0
 27 26  1  0  0  0  0
 27  3  1  0  0  0  0
 29 26  2  0  0  0  0
 30 18  1  0  0  0  0
 30 33  1  0  0  0  0
 31 30  1  0  0  0  0
 32 30  1  0  0  0  0
M  END
