Coordinates from ORCA-job 4-NO2-Ph-N2-OTs-B3LYPG-6-31G_dp-MTMO-d009-169-n800
 OpenBabel09051908313D

 33 32  0  0  0  0  0  0  0  0999 V2000
    0.9384    1.1647   -1.8633 C   0  0  0  0  0  0  0  0  0  0  0  0
    0.8499    0.7068   -3.1941 C   0  0  0  0  0  0  0  0  0  0  0  0
   -0.0687    1.2696   -3.8735 C   0  0  0  0  0  0  0  0  0  0  0  0
   -1.0323    2.2252   -3.6948 C   0  0  0  0  0  0  0  0  0  0  0  0
   -0.9501    2.6903   -2.3724 C   0  0  0  0  0  0  0  0  0  0  0  0
    0.0168    2.1596   -1.4994 C   0  0  0  0  0  0  0  0  0  0  0  0
    1.6584    0.7997   -1.1406 H   0  0  0  0  0  0  0  0  0  0  0  0
    2.0990   -0.5412   -3.7933 H   0  0  0  0  0  0  0  0  0  0  0  0
   -1.7482    2.5850   -4.4221 H   0  0  0  0  0  0  0  0  0  0  0  0
   -1.6251    3.4570   -2.0117 H   0  0  0  0  0  0  0  0  0  0  0  0
    0.0623    2.6871   -0.1211 N   0  0  0  0  0  0  0  0  0  0  0  0
   -0.7519    3.5565    0.1860 O   0  0  0  0  0  0  0  0  0  0  0  0
    0.9143    2.2234    0.6331 O   0  0  0  0  0  0  0  0  0  0  0  0
   -0.2662    0.6192   -5.9254 N   0  0  0  0  0  0  0  0  0  0  0  0
    0.1084   -0.0192   -6.7471 N   0  0  0  0  0  0  0  0  0  0  0  0
    5.0561    1.4708   -4.1299 C   0  0  0  0  0  0  0  0  0  0  0  0
    6.1278    2.0443   -3.4463 C   0  0  0  0  0  0  0  0  0  0  0  0
    7.2235    1.2726   -3.0373 C   0  0  0  0  0  0  0  0  0  0  0  0
    7.2231   -0.0998   -3.3337 C   0  0  0  0  0  0  0  0  0  0  0  0
    6.1630   -0.6901   -4.0159 C   0  0  0  0  0  0  0  0  0  0  0  0
    5.0822    0.1040   -4.4060 C   0  0  0  0  0  0  0  0  0  0  0  0
    4.2152    2.0719   -4.4584 H   0  0  0  0  0  0  0  0  0  0  0  0
    6.1134    3.1090   -3.2292 H   0  0  0  0  0  0  0  0  0  0  0  0
    8.0666   -0.7132   -3.0277 H   0  0  0  0  0  0  0  0  0  0  0  0
    6.1710   -1.7473   -4.2572 H   0  0  0  0  0  0  0  0  0  0  0  0
    3.7043   -0.6519   -5.2546 S   0  0  0  0  0  0  0  0  0  0  0  0
    2.9443    0.4048   -5.9316 O   0  0  0  0  0  0  0  0  0  0  0  0
    2.7908   -1.2215   -4.0415 O   0  0  0  0  0  0  0  0  0  0  0  0
    4.1882   -1.8209   -5.9759 O   0  0  0  0  0  0  0  0  0  0  0  0
    8.3920    1.9020   -2.3179 C   0  0  0  0  0  0  0  0  0  0  0  0
    9.2431    2.0376   -2.9964 H   0  0  0  0  0  0  0  0  0  0  0  0
    8.1326    2.8844   -1.9151 H   0  0  0  0  0  0  0  0  0  0  0  0
    8.7359    1.2744   -1.4897 H   0  0  0  0  0  0  0  0  0  0  0  0
  1  6  1  0  0  0  0
  1  7  1  0  0  0  0
  2  1  2  0  0  0  0
  3  4  2  0  0  0  0
  3  2  1  0  0  0  0
  4  5  1  0  0  0  0
  5 10  1  0  0  0  0
  5  6  2  0  0  0  0
  6 11  1  0  0  0  0
  9  4  1  0  0  0  0
 11 12  2  0  0  0  0
 11 13  2  0  0  0  0
 15 14  3  0  0  0  0
 16 17  1  0  0  0  0
 17 23  1  0  0  0  0
 17 18  2  0  0  0  0
 18 30  1  0  0  0  0
 19 18  1  0  0  0  0
 19 24  1  0  0  0  0
 20 19  2  0  0  0  0
 21 16  2  0  0  0  0
 21 20  1  0  0  0  0
 22 16  1  0  0  0  0
 25 20  1  0  0  0  0
 26 21  1  0  0  0  0
 26 28  1  0  0  0  0
 27 26  2  0  0  0  0
 28  8  1  0  0  0  0
 29 26  2  0  0  0  0
 30 32  1  0  0  0  0
 30 33  1  0  0  0  0
 31 30  1  0  0  0  0
M  RAD  2   2   2   3   2
M  END
