Coordinates from ORCA-job 4-NO2-Ph-N2-OTs-B3LYPG-6-31G_dp-MTMO-d009-169-n800
 OpenBabel09051908313D

 33 33  0  0  0  0  0  0  0  0999 V2000
   -0.0763    1.5461   -0.1639 C   0  0  0  0  0  0  0  0  0  0  0  0
   -0.0128    0.5447   -1.1274 C   0  0  0  0  0  0  0  0  0  0  0  0
    0.4561    0.8594   -2.4071 C   0  0  0  0  0  0  0  0  0  0  0  0
    0.8518    2.1587   -2.7389 C   0  0  0  0  0  0  0  0  0  0  0  0
    0.7803    3.1631   -1.7796 C   0  0  0  0  0  0  0  0  0  0  0  0
    0.3207    2.8391   -0.5039 C   0  0  0  0  0  0  0  0  0  0  0  0
   -0.4330    1.3454    0.8381 H   0  0  0  0  0  0  0  0  0  0  0  0
   -0.3157   -0.4697   -0.9014 H   0  0  0  0  0  0  0  0  0  0  0  0
    1.2008    2.3658   -3.7441 H   0  0  0  0  0  0  0  0  0  0  0  0
    1.0744    4.1817   -1.9979 H   0  0  0  0  0  0  0  0  0  0  0  0
    0.2501    3.8971    0.5148 N   0  0  0  0  0  0  0  0  0  0  0  0
    0.6012    5.0299    0.1857 O   0  0  0  0  0  0  0  0  0  0  0  0
   -0.1537    3.5856    1.6345 O   0  0  0  0  0  0  0  0  0  0  0  0
   14.4287    3.3907   -9.2863 N   0  0  0  0  0  0  0  0  0  0  0  0
   15.2748    3.4490   -9.9951 N   0  0  0  0  0  0  0  0  0  0  0  0
    3.9788   -0.2158   -2.8469 C   0  0  0  0  0  0  0  0  0  0  0  0
    5.1715    0.3879   -3.2420 C   0  0  0  0  0  0  0  0  0  0  0  0
    5.4759    0.5762   -4.5974 C   0  0  0  0  0  0  0  0  0  0  0  0
    4.5500    0.1424   -5.5602 C   0  0  0  0  0  0  0  0  0  0  0  0
    3.3532   -0.4628   -5.1891 C   0  0  0  0  0  0  0  0  0  0  0  0
    3.0795   -0.6343   -3.8291 C   0  0  0  0  0  0  0  0  0  0  0  0
    3.7512   -0.3741   -1.7987 H   0  0  0  0  0  0  0  0  0  0  0  0
    5.8777    0.7157   -2.4844 H   0  0  0  0  0  0  0  0  0  0  0  0
    4.7724    0.2781   -6.6153 H   0  0  0  0  0  0  0  0  0  0  0  0
    2.6453   -0.8095   -5.9340 H   0  0  0  0  0  0  0  0  0  0  0  0
    1.5428   -1.3904   -3.3452 S   0  0  0  0  0  0  0  0  0  0  0  0
    0.4685   -0.0924   -3.4166 O   0  0  0  0  0  0  0  0  0  0  0  0
    1.6404   -1.8279   -1.9566 O   0  0  0  0  0  0  0  0  0  0  0  0
    1.0601   -2.2567   -4.4068 O   0  0  0  0  0  0  0  0  0  0  0  0
    6.7817    1.2048   -5.0177 C   0  0  0  0  0  0  0  0  0  0  0  0
    7.5193    0.4344   -5.2736 H   0  0  0  0  0  0  0  0  0  0  0  0
    6.6537    1.8374   -5.9011 H   0  0  0  0  0  0  0  0  0  0  0  0
    7.2090    1.8149   -4.2174 H   0  0  0  0  0  0  0  0  0  0  0  0
  1  7  1  0  0  0  0
  2  8  1  0  0  0  0
  2  1  2  0  0  0  0
  3  2  1  0  0  0  0
  4  3  2  0  0  0  0
  4  5  1  0  0  0  0
  5  6  2  0  0  0  0
  6  1  1  0  0  0  0
  6 11  1  0  0  0  0
  9  4  1  0  0  0  0
 10  5  1  0  0  0  0
 11 13  2  0  0  0  0
 12 11  2  0  0  0  0
 15 14  3  0  0  0  0
 16 22  1  0  0  0  0
 17 16  1  0  0  0  0
 17 23  1  0  0  0  0
 18 17  2  0  0  0  0
 19 20  2  0  0  0  0
 19 18  1  0  0  0  0
 20 21  1  0  0  0  0
 21 26  1  0  0  0  0
 21 16  2  0  0  0  0
 24 19  1  0  0  0  0
 25 20  1  0  0  0  0
 26 28  2  0  0  0  0
 27 26  1  0  0  0  0
 27  3  1  0  0  0  0
 29 26  2  0  0  0  0
 30 18  1  0  0  0  0
 30 33  1  0  0  0  0
 31 30  1  0  0  0  0
 32 30  1  0  0  0  0
M  END
