Coordinates from ORCA-job 4-NO2-Ph-N2-OTs-B3LYPG-6-31G_dp-MTMO-d009-169-n800
 OpenBabel09051908313D

 33 33  0  0  0  0  0  0  0  0999 V2000
   -0.0409    0.8730   -1.2911 C   0  0  0  0  0  0  0  0  0  0  0  0
    0.5470    0.0528   -2.2484 C   0  0  0  0  0  0  0  0  0  0  0  0
    1.3252    0.6315   -3.2561 C   0  0  0  0  0  0  0  0  0  0  0  0
    1.5171    2.0145   -3.3255 C   0  0  0  0  0  0  0  0  0  0  0  0
    0.9245    2.8371   -2.3733 C   0  0  0  0  0  0  0  0  0  0  0  0
    0.1569    2.2516   -1.3673 C   0  0  0  0  0  0  0  0  0  0  0  0
   -0.6506    0.4662   -0.4942 H   0  0  0  0  0  0  0  0  0  0  0  0
    0.4156   -1.0218   -2.2229 H   0  0  0  0  0  0  0  0  0  0  0  0
    2.1197    2.4266   -4.1271 H   0  0  0  0  0  0  0  0  0  0  0  0
    1.0478    3.9127   -2.3925 H   0  0  0  0  0  0  0  0  0  0  0  0
   -0.4649    3.1176   -0.3543 N   0  0  0  0  0  0  0  0  0  0  0  0
   -0.2703    4.3297   -0.4436 O   0  0  0  0  0  0  0  0  0  0  0  0
   -1.1394    2.5779    0.5217 O   0  0  0  0  0  0  0  0  0  0  0  0
    2.8317   -0.3855   -7.9195 N   0  0  0  0  0  0  0  0  0  0  0  0
    1.9684   -0.9669   -8.2900 N   0  0  0  0  0  0  0  0  0  0  0  0
    5.0012    0.3085   -2.5611 C   0  0  0  0  0  0  0  0  0  0  0  0
    6.0748    1.1942   -2.4908 C   0  0  0  0  0  0  0  0  0  0  0  0
    6.6791    1.6963   -3.6519 C   0  0  0  0  0  0  0  0  0  0  0  0
    6.1785    1.2894   -4.8991 C   0  0  0  0  0  0  0  0  0  0  0  0
    5.1085    0.4050   -4.9946 C   0  0  0  0  0  0  0  0  0  0  0  0
    4.5292   -0.0766   -3.8170 C   0  0  0  0  0  0  0  0  0  0  0  0
    4.5417   -0.0890   -1.6633 H   0  0  0  0  0  0  0  0  0  0  0  0
    6.4497    1.4981   -1.5176 H   0  0  0  0  0  0  0  0  0  0  0  0
    6.6364    1.6690   -5.8082 H   0  0  0  0  0  0  0  0  0  0  0  0
    4.7298    0.0875   -5.9599 H   0  0  0  0  0  0  0  0  0  0  0  0
    3.1483   -1.1939   -3.9262 S   0  0  0  0  0  0  0  0  0  0  0  0
    1.8701   -0.1474   -4.2675 O   0  0  0  0  0  0  0  0  0  0  0  0
    2.9119   -1.7950   -2.6179 O   0  0  0  0  0  0  0  0  0  0  0  0
    3.2380   -1.9830   -5.1433 O   0  0  0  0  0  0  0  0  0  0  0  0
    7.8611    2.6297   -3.5663 C   0  0  0  0  0  0  0  0  0  0  0  0
    7.8787    3.3313   -4.4055 H   0  0  0  0  0  0  0  0  0  0  0  0
    7.8510    3.2060   -2.6371 H   0  0  0  0  0  0  0  0  0  0  0  0
    8.8025    2.0674   -3.5926 H   0  0  0  0  0  0  0  0  0  0  0  0
  1  7  1  0  0  0  0
  2  8  1  0  0  0  0
  2  1  2  0  0  0  0
  3  2  1  0  0  0  0
  4  3  2  0  0  0  0
  4  5  1  0  0  0  0
  5  6  2  0  0  0  0
  6  1  1  0  0  0  0
  6 11  1  0  0  0  0
  9  4  1  0  0  0  0
 10  5  1  0  0  0  0
 11 13  2  0  0  0  0
 12 11  2  0  0  0  0
 15 14  3  0  0  0  0
 16 17  1  0  0  0  0
 16 22  1  0  0  0  0
 17 23  1  0  0  0  0
 18 30  1  0  0  0  0
 18 17  2  0  0  0  0
 19 18  1  0  0  0  0
 20 19  2  0  0  0  0
 20 21  1  0  0  0  0
 21 16  2  0  0  0  0
 24 19  1  0  0  0  0
 25 20  1  0  0  0  0
 26 21  1  0  0  0  0
 26 28  2  0  0  0  0
 27 26  1  0  0  0  0
 27  3  1  0  0  0  0
 29 26  2  0  0  0  0
 30 32  1  0  0  0  0
 31 30  1  0  0  0  0
 33 30  1  0  0  0  0
M  END
