Coordinates from ORCA-job 4-NO2-Ph-N2-OTs-B3LYPG-6-31G_dp-MTMO-d009-169-n800
 OpenBabel09051908313D

 33 33  0  0  0  0  0  0  0  0999 V2000
   -0.0609    0.8976   -1.1970 C   0  0  0  0  0  0  0  0  0  0  0  0
    0.4923    0.1081   -2.1998 C   0  0  0  0  0  0  0  0  0  0  0  0
    1.2631    0.7146   -3.1969 C   0  0  0  0  0  0  0  0  0  0  0  0
    1.4815    2.0955   -3.2108 C   0  0  0  0  0  0  0  0  0  0  0  0
    0.9237    2.8875   -2.2127 C   0  0  0  0  0  0  0  0  0  0  0  0
    0.1633    2.2741   -1.2180 C   0  0  0  0  0  0  0  0  0  0  0  0
   -0.6640    0.4687   -0.4065 H   0  0  0  0  0  0  0  0  0  0  0  0
    0.3392   -0.9636   -2.2180 H   0  0  0  0  0  0  0  0  0  0  0  0
    2.0769    2.5298   -4.0061 H   0  0  0  0  0  0  0  0  0  0  0  0
    1.0683    3.9602   -2.1883 H   0  0  0  0  0  0  0  0  0  0  0  0
   -0.4220    3.1075   -0.1571 N   0  0  0  0  0  0  0  0  0  0  0  0
   -0.2026    4.3181   -0.1971 O   0  0  0  0  0  0  0  0  0  0  0  0
   -1.0929    2.5442    0.7066 O   0  0  0  0  0  0  0  0  0  0  0  0
    3.4481   -0.7782   -8.2747 N   0  0  0  0  0  0  0  0  0  0  0  0
    2.7222   -1.4669   -8.7432 N   0  0  0  0  0  0  0  0  0  0  0  0
    4.9024    0.3639   -2.6125 C   0  0  0  0  0  0  0  0  0  0  0  0
    5.9931    1.2278   -2.5395 C   0  0  0  0  0  0  0  0  0  0  0  0
    6.6288    1.6945   -3.6990 C   0  0  0  0  0  0  0  0  0  0  0  0
    6.1432    1.2727   -4.9468 C   0  0  0  0  0  0  0  0  0  0  0  0
    5.0553    0.4102   -5.0452 C   0  0  0  0  0  0  0  0  0  0  0  0
    4.4437   -0.0344   -3.8698 C   0  0  0  0  0  0  0  0  0  0  0  0
    4.4208   -0.0077   -1.7152 H   0  0  0  0  0  0  0  0  0  0  0  0
    6.3574    1.5422   -1.5656 H   0  0  0  0  0  0  0  0  0  0  0  0
    6.6271    1.6224   -5.8544 H   0  0  0  0  0  0  0  0  0  0  0  0
    4.6915    0.0762   -6.0106 H   0  0  0  0  0  0  0  0  0  0  0  0
    3.0350   -1.1156   -3.9838 S   0  0  0  0  0  0  0  0  0  0  0  0
    1.7723   -0.0295   -4.2521 O   0  0  0  0  0  0  0  0  0  0  0  0
    2.8165   -1.7592   -2.6926 O   0  0  0  0  0  0  0  0  0  0  0  0
    3.0783   -1.8611   -5.2306 O   0  0  0  0  0  0  0  0  0  0  0  0
    7.8285    2.6046   -3.6090 C   0  0  0  0  0  0  0  0  0  0  0  0
    7.8840    3.2799   -4.4677 H   0  0  0  0  0  0  0  0  0  0  0  0
    7.8065    3.2087   -2.6977 H   0  0  0  0  0  0  0  0  0  0  0  0
    8.7577    2.0219   -3.5927 H   0  0  0  0  0  0  0  0  0  0  0  0
  1  7  1  0  0  0  0
  2  1  2  0  0  0  0
  3  2  1  0  0  0  0
  4  3  2  0  0  0  0
  4  5  1  0  0  0  0
  5 10  1  0  0  0  0
  5  6  2  0  0  0  0
  6  1  1  0  0  0  0
  6 11  1  0  0  0  0
  8  2  1  0  0  0  0
  9  4  1  0  0  0  0
 11 13  2  0  0  0  0
 12 11  2  0  0  0  0
 15 14  3  0  0  0  0
 16 17  1  0  0  0  0
 16 22  1  0  0  0  0
 17 23  1  0  0  0  0
 18 30  1  0  0  0  0
 18 17  2  0  0  0  0
 19 18  1  0  0  0  0
 20 19  2  0  0  0  0
 20 21  1  0  0  0  0
 21 16  2  0  0  0  0
 24 19  1  0  0  0  0
 25 20  1  0  0  0  0
 26 21  1  0  0  0  0
 26 28  2  0  0  0  0
 27 26  1  0  0  0  0
 27  3  1  0  0  0  0
 29 26  2  0  0  0  0
 30 33  1  0  0  0  0
 30 32  1  0  0  0  0
 31 30  1  0  0  0  0
M  END
