Coordinates from ORCA-job 4-NO2-Ph-N2-OTs-B3LYPG-6-31G_dp-MTMO-d009-169-n800
 OpenBabel09051908313D

 33 33  0  0  0  0  0  0  0  0999 V2000
   -0.0800    1.5457   -0.1626 C   0  0  0  0  0  0  0  0  0  0  0  0
   -0.0165    0.5444   -1.1262 C   0  0  0  0  0  0  0  0  0  0  0  0
    0.4530    0.8592   -2.4057 C   0  0  0  0  0  0  0  0  0  0  0  0
    0.8490    2.1585   -2.7372 C   0  0  0  0  0  0  0  0  0  0  0  0
    0.7775    3.1627   -1.7778 C   0  0  0  0  0  0  0  0  0  0  0  0
    0.3174    2.8386   -0.5022 C   0  0  0  0  0  0  0  0  0  0  0  0
   -0.4371    1.3449    0.8393 H   0  0  0  0  0  0  0  0  0  0  0  0
   -0.3196   -0.4699   -0.9005 H   0  0  0  0  0  0  0  0  0  0  0  0
    1.1984    2.3657   -3.7423 H   0  0  0  0  0  0  0  0  0  0  0  0
    1.0718    4.1813   -1.9958 H   0  0  0  0  0  0  0  0  0  0  0  0
    0.2466    3.8965    0.5166 N   0  0  0  0  0  0  0  0  0  0  0  0
    0.5980    5.0293    0.1878 O   0  0  0  0  0  0  0  0  0  0  0  0
   -0.1577    3.5849    1.6360 O   0  0  0  0  0  0  0  0  0  0  0  0
   14.4765    3.4022   -9.3150 N   0  0  0  0  0  0  0  0  0  0  0  0
   15.3219    3.4591  -10.0248 N   0  0  0  0  0  0  0  0  0  0  0  0
    3.9755   -0.2169   -2.8448 C   0  0  0  0  0  0  0  0  0  0  0  0
    5.1685    0.3867   -3.2396 C   0  0  0  0  0  0  0  0  0  0  0  0
    5.4733    0.5751   -4.5949 C   0  0  0  0  0  0  0  0  0  0  0  0
    4.5475    0.1415   -5.5580 C   0  0  0  0  0  0  0  0  0  0  0  0
    3.3504   -0.4634   -5.1873 C   0  0  0  0  0  0  0  0  0  0  0  0
    3.0764   -0.6350   -3.8273 C   0  0  0  0  0  0  0  0  0  0  0  0
    3.7477   -0.3752   -1.7967 H   0  0  0  0  0  0  0  0  0  0  0  0
    5.8746    0.7142   -2.4818 H   0  0  0  0  0  0  0  0  0  0  0  0
    4.7702    0.2774   -6.6130 H   0  0  0  0  0  0  0  0  0  0  0  0
    2.6426   -0.8098   -5.9323 H   0  0  0  0  0  0  0  0  0  0  0  0
    1.5394   -1.3907   -3.3439 S   0  0  0  0  0  0  0  0  0  0  0  0
    0.4655   -0.0925   -3.4154 O   0  0  0  0  0  0  0  0  0  0  0  0
    1.6365   -1.8284   -1.9553 O   0  0  0  0  0  0  0  0  0  0  0  0
    1.0567   -2.2568   -4.4057 O   0  0  0  0  0  0  0  0  0  0  0  0
    6.7793    1.2033   -5.0148 C   0  0  0  0  0  0  0  0  0  0  0  0
    7.5169    0.4328   -5.2703 H   0  0  0  0  0  0  0  0  0  0  0  0
    6.6517    1.8358   -5.8984 H   0  0  0  0  0  0  0  0  0  0  0  0
    7.2064    1.8136   -4.2144 H   0  0  0  0  0  0  0  0  0  0  0  0
  1  7  1  0  0  0  0
  2  8  1  0  0  0  0
  2  1  2  0  0  0  0
  3  2  1  0  0  0  0
  4  3  2  0  0  0  0
  4  5  1  0  0  0  0
  5  6  2  0  0  0  0
  6  1  1  0  0  0  0
  6 11  1  0  0  0  0
  9  4  1  0  0  0  0
 10  5  1  0  0  0  0
 11 13  2  0  0  0  0
 12 11  2  0  0  0  0
 15 14  3  0  0  0  0
 16 22  1  0  0  0  0
 17 16  1  0  0  0  0
 17 23  1  0  0  0  0
 18 17  2  0  0  0  0
 19 20  2  0  0  0  0
 19 18  1  0  0  0  0
 20 21  1  0  0  0  0
 21 26  1  0  0  0  0
 21 16  2  0  0  0  0
 24 19  1  0  0  0  0
 25 20  1  0  0  0  0
 26 28  2  0  0  0  0
 27 26  1  0  0  0  0
 27  3  1  0  0  0  0
 29 26  2  0  0  0  0
 30 18  1  0  0  0  0
 30 33  1  0  0  0  0
 31 30  1  0  0  0  0
 32 30  1  0  0  0  0
M  END
