Coordinates from ORCA-job 4-NO2-Ph-N2-OTs-B3LYPG-6-31G_dp-MTMO-d009-169-n800
 OpenBabel09051908313D

 33 33  0  0  0  0  0  0  0  0999 V2000
   -0.1252    1.5433   -0.1425 C   0  0  0  0  0  0  0  0  0  0  0  0
   -0.0638    0.5423   -1.1064 C   0  0  0  0  0  0  0  0  0  0  0  0
    0.4085    0.8562   -2.3851 C   0  0  0  0  0  0  0  0  0  0  0  0
    0.8094    2.1543   -2.7155 C   0  0  0  0  0  0  0  0  0  0  0  0
    0.7399    3.1583   -1.7557 C   0  0  0  0  0  0  0  0  0  0  0  0
    0.2769    2.8351   -0.4809 C   0  0  0  0  0  0  0  0  0  0  0  0
   -0.4844    1.3434    0.8589 H   0  0  0  0  0  0  0  0  0  0  0  0
   -0.3706   -0.4711   -0.8816 H   0  0  0  0  0  0  0  0  0  0  0  0
    1.1608    2.3607   -3.7200 H   0  0  0  0  0  0  0  0  0  0  0  0
    1.0379    4.1760   -1.9729 H   0  0  0  0  0  0  0  0  0  0  0  0
    0.2084    3.8927    0.5383 N   0  0  0  0  0  0  0  0  0  0  0  0
    0.5641    5.0245    0.2105 O   0  0  0  0  0  0  0  0  0  0  0  0
   -0.1985    3.5820    1.6570 O   0  0  0  0  0  0  0  0  0  0  0  0
   15.1489    3.5777   -9.7014 N   0  0  0  0  0  0  0  0  0  0  0  0
   15.9865    3.6206  -10.4213 N   0  0  0  0  0  0  0  0  0  0  0  0
    3.9272   -0.2330   -2.8173 C   0  0  0  0  0  0  0  0  0  0  0  0
    5.1233    0.3662   -3.2089 C   0  0  0  0  0  0  0  0  0  0  0  0
    5.4321    0.5542   -4.5633 C   0  0  0  0  0  0  0  0  0  0  0  0
    4.5070    0.1247   -5.5289 C   0  0  0  0  0  0  0  0  0  0  0  0
    3.3068   -0.4759   -5.1614 C   0  0  0  0  0  0  0  0  0  0  0  0
    3.0289   -0.6472   -3.8022 C   0  0  0  0  0  0  0  0  0  0  0  0
    3.6961   -0.3910   -1.7698 H   0  0  0  0  0  0  0  0  0  0  0  0
    5.8288    0.6907   -2.4492 H   0  0  0  0  0  0  0  0  0  0  0  0
    4.7328    0.2603   -6.5833 H   0  0  0  0  0  0  0  0  0  0  0  0
    2.5994   -0.8192   -5.9083 H   0  0  0  0  0  0  0  0  0  0  0  0
    1.4879   -1.3975   -3.3228 S   0  0  0  0  0  0  0  0  0  0  0  0
    0.4191   -0.0950   -3.3954 O   0  0  0  0  0  0  0  0  0  0  0  0
    1.5803   -1.8368   -1.9345 O   0  0  0  0  0  0  0  0  0  0  0  0
    1.0041   -2.2605   -4.3866 O   0  0  0  0  0  0  0  0  0  0  0  0
    6.7416    1.1776   -4.9796 C   0  0  0  0  0  0  0  0  0  0  0  0
    7.4779    0.4044   -5.2304 H   0  0  0  0  0  0  0  0  0  0  0  0
    6.6193    1.8085   -5.8651 H   0  0  0  0  0  0  0  0  0  0  0  0
    7.1673    1.7884   -4.1789 H   0  0  0  0  0  0  0  0  0  0  0  0
  1  7  1  0  0  0  0
  2  8  1  0  0  0  0
  2  1  2  0  0  0  0
  3  2  1  0  0  0  0
  4  3  2  0  0  0  0
  4  5  1  0  0  0  0
  5  6  2  0  0  0  0
  6  1  1  0  0  0  0
  6 11  1  0  0  0  0
  9  4  1  0  0  0  0
 10  5  1  0  0  0  0
 11 13  2  0  0  0  0
 12 11  2  0  0  0  0
 15 14  3  0  0  0  0
 16 22  1  0  0  0  0
 17 16  1  0  0  0  0
 17 23  1  0  0  0  0
 18 17  2  0  0  0  0
 19 20  2  0  0  0  0
 19 18  1  0  0  0  0
 20 21  1  0  0  0  0
 21 26  1  0  0  0  0
 21 16  2  0  0  0  0
 24 19  1  0  0  0  0
 25 20  1  0  0  0  0
 26 28  2  0  0  0  0
 27 26  1  0  0  0  0
 27  3  1  0  0  0  0
 29 26  2  0  0  0  0
 30 18  1  0  0  0  0
 30 33  1  0  0  0  0
 31 30  1  0  0  0  0
 32 30  1  0  0  0  0
M  END
