Coordinates from ORCA-job 4-NO2-Ph-N2-OTs-B3LYPG-6-31G_dp-MTMO-d009-169-n800
 OpenBabel09051908313D

 33 33  0  0  0  0  0  0  0  0999 V2000
   -0.0889    0.9318   -1.0860 C   0  0  0  0  0  0  0  0  0  0  0  0
    0.3940    0.2239   -2.1818 C   0  0  0  0  0  0  0  0  0  0  0  0
    1.1466    0.8973   -3.1496 C   0  0  0  0  0  0  0  0  0  0  0  0
    1.4138    2.2656   -3.0435 C   0  0  0  0  0  0  0  0  0  0  0  0
    0.9254    2.9765   -1.9524 C   0  0  0  0  0  0  0  0  0  0  0  0
    0.1843    2.2960   -0.9873 C   0  0  0  0  0  0  0  0  0  0  0  0
   -0.6747    0.4491   -0.3137 H   0  0  0  0  0  0  0  0  0  0  0  0
    0.2008   -0.8354   -2.2939 H   0  0  0  0  0  0  0  0  0  0  0  0
    1.9922    2.7539   -3.8199 H   0  0  0  0  0  0  0  0  0  0  0  0
    1.1094    4.0367   -1.8339 H   0  0  0  0  0  0  0  0  0  0  0  0
   -0.3266    3.0430    0.1717 N   0  0  0  0  0  0  0  0  0  0  0  0
   -0.0649    4.2441    0.2356 O   0  0  0  0  0  0  0  0  0  0  0  0
   -0.9817    2.4220    1.0075 O   0  0  0  0  0  0  0  0  0  0  0  0
    4.5494   -1.5965   -8.4154 N   0  0  0  0  0  0  0  0  0  0  0  0
    4.0945   -2.5167   -8.8244 N   0  0  0  0  0  0  0  0  0  0  0  0
    4.7539    0.4059   -2.7564 C   0  0  0  0  0  0  0  0  0  0  0  0
    5.8865    1.2101   -2.6529 C   0  0  0  0  0  0  0  0  0  0  0  0
    6.5431    1.6909   -3.7954 C   0  0  0  0  0  0  0  0  0  0  0  0
    6.0349    1.3445   -5.0569 C   0  0  0  0  0  0  0  0  0  0  0  0
    4.9029    0.5441   -5.1854 C   0  0  0  0  0  0  0  0  0  0  0  0
    4.2713    0.0840   -4.0272 C   0  0  0  0  0  0  0  0  0  0  0  0
    4.2585    0.0211   -1.8723 H   0  0  0  0  0  0  0  0  0  0  0  0
    6.2683    1.4655   -1.6684 H   0  0  0  0  0  0  0  0  0  0  0  0
    6.5353    1.7035   -5.9517 H   0  0  0  0  0  0  0  0  0  0  0  0
    4.5241    0.2651   -6.1624 H   0  0  0  0  0  0  0  0  0  0  0  0
    2.8089   -0.9183   -4.1787 S   0  0  0  0  0  0  0  0  0  0  0  0
    1.5882    0.2422   -4.2915 O   0  0  0  0  0  0  0  0  0  0  0  0
    2.6091   -1.6678   -2.9429 O   0  0  0  0  0  0  0  0  0  0  0  0
    2.7719   -1.5469   -5.4886 O   0  0  0  0  0  0  0  0  0  0  0  0
    7.7878    2.5342   -3.6714 C   0  0  0  0  0  0  0  0  0  0  0  0
    7.9078    3.2004   -4.5303 H   0  0  0  0  0  0  0  0  0  0  0  0
    7.7699    3.1439   -2.7635 H   0  0  0  0  0  0  0  0  0  0  0  0
    8.6822    1.9011   -3.6215 H   0  0  0  0  0  0  0  0  0  0  0  0
  1  6  1  0  0  0  0
  1  7  1  0  0  0  0
  2  1  2  0  0  0  0
  3  4  2  0  0  0  0
  3  2  1  0  0  0  0
  4  5  1  0  0  0  0
  5 10  1  0  0  0  0
  5  6  2  0  0  0  0
  6 11  1  0  0  0  0
  8  2  1  0  0  0  0
  9  4  1  0  0  0  0
 11 12  2  0  0  0  0
 11 13  2  0  0  0  0
 15 14  3  0  0  0  0
 16 17  1  0  0  0  0
 16 22  1  0  0  0  0
 17 23  1  0  0  0  0
 18 30  1  0  0  0  0
 18 17  2  0  0  0  0
 19 18  1  0  0  0  0
 20 19  2  0  0  0  0
 20 21  1  0  0  0  0
 21 16  2  0  0  0  0
 24 19  1  0  0  0  0
 25 20  1  0  0  0  0
 26 21  1  0  0  0  0
 26 28  2  0  0  0  0
 27 26  1  0  0  0  0
 27  3  1  0  0  0  0
 29 26  2  0  0  0  0
 30 33  1  0  0  0  0
 30 32  1  0  0  0  0
 31 30  1  0  0  0  0
M  END
