Coordinates from ORCA-job 4-NO2-Ph-N2-OTs-B3LYPG-6-31G_dp-MTMO-d009-169-n800
 OpenBabel09051908313D

 33 33  0  0  0  0  0  0  0  0999 V2000
   -0.1082    0.9732   -1.0124 C   0  0  0  0  0  0  0  0  0  0  0  0
    0.3513    0.2584   -2.1138 C   0  0  0  0  0  0  0  0  0  0  0  0
    1.0983    0.9218   -3.0929 C   0  0  0  0  0  0  0  0  0  0  0  0
    1.3831    2.2870   -2.9921 C   0  0  0  0  0  0  0  0  0  0  0  0
    0.9181    3.0049   -1.8953 C   0  0  0  0  0  0  0  0  0  0  0  0
    0.1823    2.3342   -0.9193 C   0  0  0  0  0  0  0  0  0  0  0  0
   -0.6890    0.4985   -0.2315 H   0  0  0  0  0  0  0  0  0  0  0  0
    0.1441   -0.7986   -2.2218 H   0  0  0  0  0  0  0  0  0  0  0  0
    1.9563    2.7677   -3.7770 H   0  0  0  0  0  0  0  0  0  0  0  0
    1.1160    4.0630   -1.7807 H   0  0  0  0  0  0  0  0  0  0  0  0
   -0.3041    3.0886    0.2455 N   0  0  0  0  0  0  0  0  0  0  0  0
   -0.0281    4.2868    0.3040 O   0  0  0  0  0  0  0  0  0  0  0  0
   -0.9547    2.4761    1.0911 O   0  0  0  0  0  0  0  0  0  0  0  0
    5.0540   -1.5829   -8.6256 N   0  0  0  0  0  0  0  0  0  0  0  0
    4.8382   -2.5327   -9.1476 N   0  0  0  0  0  0  0  0  0  0  0  0
    4.7062    0.3969   -2.7619 C   0  0  0  0  0  0  0  0  0  0  0  0
    5.8495    1.1885   -2.6823 C   0  0  0  0  0  0  0  0  0  0  0  0
    6.4945    1.6517   -3.8386 C   0  0  0  0  0  0  0  0  0  0  0  0
    5.9639    1.2998   -5.0892 C   0  0  0  0  0  0  0  0  0  0  0  0
    4.8209    0.5117   -5.1938 C   0  0  0  0  0  0  0  0  0  0  0  0
    4.2008    0.0696   -4.0225 C   0  0  0  0  0  0  0  0  0  0  0  0
    4.2198    0.0257   -1.8671 H   0  0  0  0  0  0  0  0  0  0  0  0
    6.2487    1.4482   -1.7059 H   0  0  0  0  0  0  0  0  0  0  0  0
    6.4550    1.6448   -5.9947 H   0  0  0  0  0  0  0  0  0  0  0  0
    4.4244    0.2287   -6.1625 H   0  0  0  0  0  0  0  0  0  0  0  0
    2.7237   -0.9150   -4.1434 S   0  0  0  0  0  0  0  0  0  0  0  0
    1.5159    0.2605   -4.2397 O   0  0  0  0  0  0  0  0  0  0  0  0
    2.5364   -1.6564   -2.9006 O   0  0  0  0  0  0  0  0  0  0  0  0
    2.6558   -1.5475   -5.4498 O   0  0  0  0  0  0  0  0  0  0  0  0
    7.7501    2.4822   -3.7404 C   0  0  0  0  0  0  0  0  0  0  0  0
    7.8663    3.1371   -4.6084 H   0  0  0  0  0  0  0  0  0  0  0  0
    7.7508    3.1024   -2.8395 H   0  0  0  0  0  0  0  0  0  0  0  0
    8.6379    1.8397   -3.6946 H   0  0  0  0  0  0  0  0  0  0  0  0
  1  6  1  0  0  0  0
  1  7  1  0  0  0  0
  2  1  2  0  0  0  0
  3  4  2  0  0  0  0
  3  2  1  0  0  0  0
  4  5  1  0  0  0  0
  5 10  1  0  0  0  0
  5  6  2  0  0  0  0
  6 11  1  0  0  0  0
  8  2  1  0  0  0  0
  9  4  1  0  0  0  0
 11 12  2  0  0  0  0
 11 13  2  0  0  0  0
 15 14  3  0  0  0  0
 16 17  1  0  0  0  0
 16 22  1  0  0  0  0
 17 23  1  0  0  0  0
 18 30  1  0  0  0  0
 18 17  2  0  0  0  0
 19 18  1  0  0  0  0
 20 19  2  0  0  0  0
 20 21  1  0  0  0  0
 21 16  2  0  0  0  0
 24 19  1  0  0  0  0
 25 20  1  0  0  0  0
 26 21  1  0  0  0  0
 26 28  2  0  0  0  0
 27 26  1  0  0  0  0
 27  3  1  0  0  0  0
 29 26  2  0  0  0  0
 30 33  1  0  0  0  0
 30 32  1  0  0  0  0
 31 30  1  0  0  0  0
M  END
