Coordinates from ORCA-job 4-NO2-Ph-N2-OTs-B3LYPG-6-31G_dp-MTMO-d009-169-n800
 OpenBabel09051908313D

 33 33  0  0  0  0  0  0  0  0999 V2000
    0.0122    1.1890   -0.0832 C   0  0  0  0  0  0  0  0  0  0  0  0
    0.2072    0.2143   -1.0561 C   0  0  0  0  0  0  0  0  0  0  0  0
    0.5789    0.6046   -2.3467 C   0  0  0  0  0  0  0  0  0  0  0  0
    0.7513    1.9515   -2.6796 C   0  0  0  0  0  0  0  0  0  0  0  0
    0.5494    2.9280   -1.7102 C   0  0  0  0  0  0  0  0  0  0  0  0
    0.1857    2.5302   -0.4245 C   0  0  0  0  0  0  0  0  0  0  0  0
   -0.2771    0.9305    0.9273 H   0  0  0  0  0  0  0  0  0  0  0  0
    0.0798   -0.8368   -0.8296 H   0  0  0  0  0  0  0  0  0  0  0  0
    1.0325    2.2148   -3.6928 H   0  0  0  0  0  0  0  0  0  0  0  0
    0.6694    3.9817   -1.9285 H   0  0  0  0  0  0  0  0  0  0  0  0
   -0.0238    3.5602    0.6042 N   0  0  0  0  0  0  0  0  0  0  0  0
    0.1405    4.7351    0.2764 O   0  0  0  0  0  0  0  0  0  0  0  0
   -0.3488    3.1851    1.7300 O   0  0  0  0  0  0  0  0  0  0  0  0
   13.7902    1.4235   -8.6879 N   0  0  0  0  0  0  0  0  0  0  0  0
   14.7392    1.2234   -9.2180 N   0  0  0  0  0  0  0  0  0  0  0  0
    4.2214    0.1767   -2.9704 C   0  0  0  0  0  0  0  0  0  0  0  0
    5.2584    0.9920   -3.4221 C   0  0  0  0  0  0  0  0  0  0  0  0
    5.4375    1.2500   -4.7881 C   0  0  0  0  0  0  0  0  0  0  0  0
    4.5463    0.6670   -5.7040 C   0  0  0  0  0  0  0  0  0  0  0  0
    3.5050   -0.1506   -5.2763 C   0  0  0  0  0  0  0  0  0  0  0  0
    3.3526   -0.3857   -3.9065 C   0  0  0  0  0  0  0  0  0  0  0  0
    4.0931   -0.0336   -1.9145 H   0  0  0  0  0  0  0  0  0  0  0  0
    5.9406    1.4317   -2.7001 H   0  0  0  0  0  0  0  0  0  0  0  0
    4.6732    0.8543   -6.7670 H   0  0  0  0  0  0  0  0  0  0  0  0
    2.8260   -0.6108   -5.9858 H   0  0  0  0  0  0  0  0  0  0  0  0
    2.0081   -1.4107   -3.3500 S   0  0  0  0  0  0  0  0  0  0  0  0
    0.7114   -0.3322   -3.3621 O   0  0  0  0  0  0  0  0  0  0  0  0
    2.2529   -1.8155   -1.9697 O   0  0  0  0  0  0  0  0  0  0  0  0
    1.6408   -2.3559   -4.3903 O   0  0  0  0  0  0  0  0  0  0  0  0
    6.5785    2.1110   -5.2714 C   0  0  0  0  0  0  0  0  0  0  0  0
    7.4083    1.4908   -5.6317 H   0  0  0  0  0  0  0  0  0  0  0  0
    6.2710    2.7531   -6.1027 H   0  0  0  0  0  0  0  0  0  0  0  0
    6.9668    2.7481   -4.4726 H   0  0  0  0  0  0  0  0  0  0  0  0
  1  7  1  0  0  0  0
  2  8  1  0  0  0  0
  2  1  2  0  0  0  0
  3  2  1  0  0  0  0
  4  3  2  0  0  0  0
  4  5  1  0  0  0  0
  5  6  2  0  0  0  0
  6  1  1  0  0  0  0
  6 11  1  0  0  0  0
  9  4  1  0  0  0  0
 10  5  1  0  0  0  0
 11 13  2  0  0  0  0
 12 11  2  0  0  0  0
 15 14  3  0  0  0  0
 16 22  1  0  0  0  0
 17 16  1  0  0  0  0
 17 23  1  0  0  0  0
 18 17  2  0  0  0  0
 19 20  2  0  0  0  0
 19 18  1  0  0  0  0
 20 21  1  0  0  0  0
 21 26  1  0  0  0  0
 21 16  2  0  0  0  0
 24 19  1  0  0  0  0
 25 20  1  0  0  0  0
 26 28  2  0  0  0  0
 27 26  1  0  0  0  0
 27  3  1  0  0  0  0
 29 26  2  0  0  0  0
 30 18  1  0  0  0  0
 30 33  1  0  0  0  0
 31 30  1  0  0  0  0
 32 30  1  0  0  0  0
M  END
