Coordinates from ORCA-job 4-NO2-Ph-N2-OTs-B3LYPG-6-31G_dp-MTMO-d009-169-n800
 OpenBabel09051908313D

 33 33  0  0  0  0  0  0  0  0999 V2000
   -1.5409    0.4336   -2.0716 C   0  0  0  0  0  0  0  0  0  0  0  0
   -1.0399    0.2091   -3.3299 C   0  0  0  0  0  0  0  0  0  0  0  0
    0.0289    1.0319   -3.8673 C   0  0  0  0  0  0  0  0  0  0  0  0
    0.5408    2.1033   -3.0308 C   0  0  0  0  0  0  0  0  0  0  0  0
   -0.0051    2.3224   -1.7770 C   0  0  0  0  0  0  0  0  0  0  0  0
   -1.0182    1.4908   -1.3149 C   0  0  0  0  0  0  0  0  0  0  0  0
   -2.3301   -0.1807   -1.6570 H   0  0  0  0  0  0  0  0  0  0  0  0
   -1.4089   -0.6015   -3.9501 H   0  0  0  0  0  0  0  0  0  0  0  0
    1.3321    2.7345   -3.4282 H   0  0  0  0  0  0  0  0  0  0  0  0
    0.3634    3.1236   -1.1483 H   0  0  0  0  0  0  0  0  0  0  0  0
   -1.5803    1.7318    0.0317 N   0  0  0  0  0  0  0  0  0  0  0  0
   -1.1256    2.6760    0.6692 O   0  0  0  0  0  0  0  0  0  0  0  0
   -2.4654    0.9687    0.4119 O   0  0  0  0  0  0  0  0  0  0  0  0
    0.4323    0.8366   -4.8281 N   0  0  0  0  0  0  0  0  0  0  0  0
    0.8981    0.6403   -5.8538 N   0  0  0  0  0  0  0  0  0  0  0  0
    6.2353    2.2266   -4.4477 C   0  0  0  0  0  0  0  0  0  0  0  0
    7.5934    1.9552   -4.2924 C   0  0  0  0  0  0  0  0  0  0  0  0
    8.0350    0.7114   -3.8195 C   0  0  0  0  0  0  0  0  0  0  0  0
    7.0742   -0.2563   -3.4915 C   0  0  0  0  0  0  0  0  0  0  0  0
    5.7129   -0.0005   -3.6419 C   0  0  0  0  0  0  0  0  0  0  0  0
    5.3001    1.2433   -4.1220 C   0  0  0  0  0  0  0  0  0  0  0  0
    5.8940    3.1947   -4.7978 H   0  0  0  0  0  0  0  0  0  0  0  0
    8.3226    2.7233   -4.5379 H   0  0  0  0  0  0  0  0  0  0  0  0
    7.3977   -1.2206   -3.1077 H   0  0  0  0  0  0  0  0  0  0  0  0
    4.9708   -0.7433   -3.3710 H   0  0  0  0  0  0  0  0  0  0  0  0
    3.5569    1.5703   -4.3690 S   0  0  0  0  0  0  0  0  0  0  0  0
    3.2303    1.1055   -5.7642 O   0  0  0  0  0  0  0  0  0  0  0  0
    3.3560    3.0313   -4.1819 O   0  0  0  0  0  0  0  0  0  0  0  0
    2.8125    0.7481   -3.3567 O   0  0  0  0  0  0  0  0  0  0  0  0
    9.5094    0.4127   -3.6860 C   0  0  0  0  0  0  0  0  0  0  0  0
    9.9049   -0.0374   -4.6056 H   0  0  0  0  0  0  0  0  0  0  0  0
   10.0876    1.3216   -3.4960 H   0  0  0  0  0  0  0  0  0  0  0  0
    9.7034   -0.2916   -2.8711 H   0  0  0  0  0  0  0  0  0  0  0  0
  1  7  1  0  0  0  0
  1  6  2  0  0  0  0
  2  1  1  0  0  0  0
  3  2  2  0  0  0  0
  3  4  1  0  0  0  0
  4  5  2  0  0  0  0
  5  6  1  0  0  0  0
  5 10  1  0  0  0  0
  6 11  1  0  0  0  0
  8  2  1  0  0  0  0
  9  4  1  0  0  0  0
 11 13  2  0  0  0  0
 11 12  2  0  0  0  0
 14  3  1  0  0  0  0
 15 14  1  0  0  0  0
 16 17  2  0  0  0  0
 16 21  1  0  0  0  0
 17 18  1  0  0  0  0
 18 30  1  0  0  0  0
 18 19  2  0  0  0  0
 19 24  1  0  0  0  0
 20 19  1  0  0  0  0
 20 25  1  0  0  0  0
 21 20  2  0  0  0  0
 22 16  1  0  0  0  0
 23 17  1  0  0  0  0
 26 28  2  0  0  0  0
 26 21  1  0  0  0  0
 26 29  1  0  0  0  0
 27 26  2  0  0  0  0
 30 32  1  0  0  0  0
 30 33  1  0  0  0  0
 31 30  1  0  0  0  0
M  RAD  3  14   2  15   3  29   2
M  END
