Coordinates from ORCA-job 4-NO2-Ph-N2-OTs-B3LYPG-6-31G_dp-MTMO-d009-169-n800
 OpenBabel09051908313D

 33 33  0  0  0  0  0  0  0  0999 V2000
   -0.1074    0.9679   -1.0246 C   0  0  0  0  0  0  0  0  0  0  0  0
    0.3546    0.2523   -2.1244 C   0  0  0  0  0  0  0  0  0  0  0  0
    1.1031    0.9151   -3.1027 C   0  0  0  0  0  0  0  0  0  0  0  0
    1.3872    2.2805   -3.0026 C   0  0  0  0  0  0  0  0  0  0  0  0
    0.9197    2.9992   -1.9074 C   0  0  0  0  0  0  0  0  0  0  0  0
    0.1824    2.3291   -0.9322 C   0  0  0  0  0  0  0  0  0  0  0  0
   -0.6894    0.4936   -0.2444 H   0  0  0  0  0  0  0  0  0  0  0  0
    0.1482   -0.8050   -2.2319 H   0  0  0  0  0  0  0  0  0  0  0  0
    1.9617    2.7607   -3.7869 H   0  0  0  0  0  0  0  0  0  0  0  0
    1.1169    4.0575   -1.7935 H   0  0  0  0  0  0  0  0  0  0  0  0
   -0.3067    3.0844    0.2309 N   0  0  0  0  0  0  0  0  0  0  0  0
   -0.0316    4.2828    0.2887 O   0  0  0  0  0  0  0  0  0  0  0  0
   -0.9584    2.4723    1.0760 O   0  0  0  0  0  0  0  0  0  0  0  0
    4.9828   -1.5185   -8.5120 N   0  0  0  0  0  0  0  0  0  0  0  0
    4.7688   -2.4705   -9.0307 N   0  0  0  0  0  0  0  0  0  0  0  0
    4.7160    0.3897   -2.7654 C   0  0  0  0  0  0  0  0  0  0  0  0
    5.8588    1.1821   -2.6860 C   0  0  0  0  0  0  0  0  0  0  0  0
    6.5007    1.6497   -3.8422 C   0  0  0  0  0  0  0  0  0  0  0  0
    5.9674    1.3020   -5.0928 C   0  0  0  0  0  0  0  0  0  0  0  0
    4.8247    0.5134   -5.1973 C   0  0  0  0  0  0  0  0  0  0  0  0
    4.2081    0.0665   -4.0260 C   0  0  0  0  0  0  0  0  0  0  0  0
    4.2319    0.0149   -1.8708 H   0  0  0  0  0  0  0  0  0  0  0  0
    6.2602    1.4387   -1.7096 H   0  0  0  0  0  0  0  0  0  0  0  0
    6.4559    1.6507   -5.9982 H   0  0  0  0  0  0  0  0  0  0  0  0
    4.4255    0.2334   -6.1657 H   0  0  0  0  0  0  0  0  0  0  0  0
    2.7328   -0.9206   -4.1481 S   0  0  0  0  0  0  0  0  0  0  0  0
    1.5233    0.2527   -4.2481 O   0  0  0  0  0  0  0  0  0  0  0  0
    2.5445   -1.6610   -2.9049 O   0  0  0  0  0  0  0  0  0  0  0  0
    2.6682   -1.5549   -5.4539 O   0  0  0  0  0  0  0  0  0  0  0  0
    7.7560    2.4808   -3.7440 C   0  0  0  0  0  0  0  0  0  0  0  0
    7.8695    3.1390   -4.6100 H   0  0  0  0  0  0  0  0  0  0  0  0
    7.7584    3.0978   -2.8409 H   0  0  0  0  0  0  0  0  0  0  0  0
    8.6443    1.8388   -3.7027 H   0  0  0  0  0  0  0  0  0  0  0  0
  1  6  1  0  0  0  0
  1  7  1  0  0  0  0
  2  1  2  0  0  0  0
  3  4  2  0  0  0  0
  3  2  1  0  0  0  0
  4  5  1  0  0  0  0
  5 10  1  0  0  0  0
  5  6  2  0  0  0  0
  6 11  1  0  0  0  0
  8  2  1  0  0  0  0
  9  4  1  0  0  0  0
 11 12  2  0  0  0  0
 11 13  2  0  0  0  0
 15 14  3  0  0  0  0
 16 17  1  0  0  0  0
 16 22  1  0  0  0  0
 17 23  1  0  0  0  0
 18 30  1  0  0  0  0
 18 17  2  0  0  0  0
 19 18  1  0  0  0  0
 20 19  2  0  0  0  0
 20 21  1  0  0  0  0
 21 16  2  0  0  0  0
 24 19  1  0  0  0  0
 25 20  1  0  0  0  0
 26 21  1  0  0  0  0
 26 28  2  0  0  0  0
 27 26  1  0  0  0  0
 27  3  1  0  0  0  0
 29 26  2  0  0  0  0
 30 33  1  0  0  0  0
 30 32  1  0  0  0  0
 31 30  1  0  0  0  0
M  END
