Coordinates from ORCA-job 4-NO2-Ph-N2-OTs-B3LYPG-6-31G_dp-MTMO-d009-169-n800
 OpenBabel09051908313D

 33 32  0  0  0  0  0  0  0  0999 V2000
    0.6742    1.0672   -1.4108 C   0  0  0  0  0  0  0  0  0  0  0  0
    0.8257    0.6413   -2.7333 C   0  0  0  0  0  0  0  0  0  0  0  0
    0.1895    1.2325   -3.6405 C   0  0  0  0  0  0  0  0  0  0  0  0
   -0.6841    2.2870   -3.7040 C   0  0  0  0  0  0  0  0  0  0  0  0
   -0.8699    2.7614   -2.3906 C   0  0  0  0  0  0  0  0  0  0  0  0
   -0.2073    2.1616   -1.3012 C   0  0  0  0  0  0  0  0  0  0  0  0
    1.1572    0.6485   -0.5376 H   0  0  0  0  0  0  0  0  0  0  0  0
    2.1963   -0.6833   -3.5717 H   0  0  0  0  0  0  0  0  0  0  0  0
   -1.1694    2.7056   -4.5750 H   0  0  0  0  0  0  0  0  0  0  0  0
   -1.5315    3.5980   -2.1990 H   0  0  0  0  0  0  0  0  0  0  0  0
   -0.4506    2.7190    0.0439 N   0  0  0  0  0  0  0  0  0  0  0  0
   -1.2203    3.6733    0.1390 O   0  0  0  0  0  0  0  0  0  0  0  0
    0.1359    2.1913    0.9866 O   0  0  0  0  0  0  0  0  0  0  0  0
   -0.1964    0.6033   -6.5510 N   0  0  0  0  0  0  0  0  0  0  0  0
    0.0376   -0.0027   -7.4445 N   0  0  0  0  0  0  0  0  0  0  0  0
    5.0831    1.4603   -4.0679 C   0  0  0  0  0  0  0  0  0  0  0  0
    6.2004    2.0369   -3.4643 C   0  0  0  0  0  0  0  0  0  0  0  0
    7.3413    1.2770   -3.1749 C   0  0  0  0  0  0  0  0  0  0  0  0
    7.3404   -0.0868   -3.5099 C   0  0  0  0  0  0  0  0  0  0  0  0
    6.2362   -0.6801   -4.1140 C   0  0  0  0  0  0  0  0  0  0  0  0
    5.1108    0.1026   -4.3847 C   0  0  0  0  0  0  0  0  0  0  0  0
    4.2060    2.0527   -4.3047 H   0  0  0  0  0  0  0  0  0  0  0  0
    6.1860    3.0947   -3.2167 H   0  0  0  0  0  0  0  0  0  0  0  0
    8.2188   -0.6904   -3.2966 H   0  0  0  0  0  0  0  0  0  0  0  0
    6.2431   -1.7297   -4.3862 H   0  0  0  0  0  0  0  0  0  0  0  0
    3.6817   -0.6557   -5.1374 S   0  0  0  0  0  0  0  0  0  0  0  0
    2.8251    0.4001   -5.6848 O   0  0  0  0  0  0  0  0  0  0  0  0
    2.8997   -1.3082   -3.8615 O   0  0  0  0  0  0  0  0  0  0  0  0
    4.1235   -1.7818   -5.9463 O   0  0  0  0  0  0  0  0  0  0  0  0
    8.5562    1.9078   -2.5382 C   0  0  0  0  0  0  0  0  0  0  0  0
    9.3692    2.0158   -3.2664 H   0  0  0  0  0  0  0  0  0  0  0  0
    8.3318    2.9018   -2.1436 H   0  0  0  0  0  0  0  0  0  0  0  0
    8.9382    1.2937   -1.7164 H   0  0  0  0  0  0  0  0  0  0  0  0
  1  6  1  0  0  0  0
  1  7  1  0  0  0  0
  2  1  2  0  0  0  0
  3  2  1  0  0  0  0
  4  3  2  0  0  0  0
  4  5  1  0  0  0  0
  5 10  1  0  0  0  0
  5  6  2  0  0  0  0
  6 11  1  0  0  0  0
  9  4  1  0  0  0  0
 11 12  2  0  0  0  0
 11 13  2  0  0  0  0
 15 14  3  0  0  0  0
 16 17  2  0  0  0  0
 17 23  1  0  0  0  0
 17 18  1  0  0  0  0
 18 30  1  0  0  0  0
 19 24  1  0  0  0  0
 19 18  2  0  0  0  0
 20 19  1  0  0  0  0
 21 20  2  0  0  0  0
 21 16  1  0  0  0  0
 22 16  1  0  0  0  0
 25 20  1  0  0  0  0
 26 21  1  0  0  0  0
 26 28  1  0  0  0  0
 27 26  2  0  0  0  0
 28  8  1  0  0  0  0
 29 26  2  0  0  0  0
 30 32  1  0  0  0  0
 30 33  1  0  0  0  0
 31 30  1  0  0  0  0
M  RAD  2   2   2   3   2
M  END
