Coordinates from ORCA-job 4-NO2-Ph-N2-OTs-B3LYPG-6-31G_dp-MTMO-d009-169-n800
 OpenBabel09051908313D

 33 33  0  0  0  0  0  0  0  0999 V2000
   -0.0903    0.9328   -1.0844 C   0  0  0  0  0  0  0  0  0  0  0  0
    0.3923    0.2256   -2.1808 C   0  0  0  0  0  0  0  0  0  0  0  0
    1.1457    0.8994   -3.1477 C   0  0  0  0  0  0  0  0  0  0  0  0
    1.4142    2.2674   -3.0400 C   0  0  0  0  0  0  0  0  0  0  0  0
    0.9261    2.9776   -1.9483 C   0  0  0  0  0  0  0  0  0  0  0  0
    0.1842    2.2966   -0.9841 C   0  0  0  0  0  0  0  0  0  0  0  0
   -0.6767    0.4499   -0.3128 H   0  0  0  0  0  0  0  0  0  0  0  0
    0.1983   -0.8334   -2.2940 H   0  0  0  0  0  0  0  0  0  0  0  0
    1.9932    2.7560   -3.8157 H   0  0  0  0  0  0  0  0  0  0  0  0
    1.1109    4.0375   -1.8286 H   0  0  0  0  0  0  0  0  0  0  0  0
   -0.3264    3.0429    0.1756 N   0  0  0  0  0  0  0  0  0  0  0  0
   -0.0636    4.2437    0.2409 O   0  0  0  0  0  0  0  0  0  0  0  0
   -0.9824    2.4215    1.0105 O   0  0  0  0  0  0  0  0  0  0  0  0
    4.5612   -1.6187   -8.4450 N   0  0  0  0  0  0  0  0  0  0  0  0
    4.1028   -2.5389   -8.8502 N   0  0  0  0  0  0  0  0  0  0  0  0
    4.7523    0.4083   -2.7557 C   0  0  0  0  0  0  0  0  0  0  0  0
    5.8851    1.2123   -2.6519 C   0  0  0  0  0  0  0  0  0  0  0  0
    6.5424    1.6923   -3.7943 C   0  0  0  0  0  0  0  0  0  0  0  0
    6.0348    1.3453   -5.0558 C   0  0  0  0  0  0  0  0  0  0  0  0
    4.9028    0.5451   -5.1846 C   0  0  0  0  0  0  0  0  0  0  0  0
    4.2703    0.0858   -4.0266 C   0  0  0  0  0  0  0  0  0  0  0  0
    4.2564    0.0241   -1.8716 H   0  0  0  0  0  0  0  0  0  0  0  0
    6.2664    1.4681   -1.6673 H   0  0  0  0  0  0  0  0  0  0  0  0
    6.5358    1.7037   -5.9506 H   0  0  0  0  0  0  0  0  0  0  0  0
    4.5247    0.2658   -6.1618 H   0  0  0  0  0  0  0  0  0  0  0  0
    2.8075   -0.9159   -4.1778 S   0  0  0  0  0  0  0  0  0  0  0  0
    1.5872    0.2452   -4.2901 O   0  0  0  0  0  0  0  0  0  0  0  0
    2.6075   -1.6656   -2.9421 O   0  0  0  0  0  0  0  0  0  0  0  0
    2.7702   -1.5442   -5.4878 O   0  0  0  0  0  0  0  0  0  0  0  0
    7.7873    2.5355   -3.6701 C   0  0  0  0  0  0  0  0  0  0  0  0
    7.9080    3.2010   -4.5295 H   0  0  0  0  0  0  0  0  0  0  0  0
    7.7689    3.1458   -2.7627 H   0  0  0  0  0  0  0  0  0  0  0  0
    8.6814    1.9022   -3.6191 H   0  0  0  0  0  0  0  0  0  0  0  0
  1  6  1  0  0  0  0
  1  7  1  0  0  0  0
  2  1  2  0  0  0  0
  3  4  2  0  0  0  0
  3  2  1  0  0  0  0
  4  5  1  0  0  0  0
  5 10  1  0  0  0  0
  5  6  2  0  0  0  0
  6 11  1  0  0  0  0
  8  2  1  0  0  0  0
  9  4  1  0  0  0  0
 11 12  2  0  0  0  0
 11 13  2  0  0  0  0
 15 14  3  0  0  0  0
 16 17  1  0  0  0  0
 16 22  1  0  0  0  0
 17 23  1  0  0  0  0
 18 30  1  0  0  0  0
 18 17  2  0  0  0  0
 19 18  1  0  0  0  0
 20 19  2  0  0  0  0
 20 21  1  0  0  0  0
 21 16  2  0  0  0  0
 24 19  1  0  0  0  0
 25 20  1  0  0  0  0
 26 21  1  0  0  0  0
 26 28  2  0  0  0  0
 27 26  1  0  0  0  0
 27  3  1  0  0  0  0
 29 26  2  0  0  0  0
 30 33  1  0  0  0  0
 30 32  1  0  0  0  0
 31 30  1  0  0  0  0
M  END
