Coordinates from ORCA-job 4-NO2-Ph-N2-OTs-B3LYPG-6-31G_dp-MTMO-d009-169-n800
 OpenBabel09051908313D

 33 33  0  0  0  0  0  0  0  0999 V2000
   -0.0996    0.9594   -1.0375 C   0  0  0  0  0  0  0  0  0  0  0  0
    0.3658    0.2457   -2.1372 C   0  0  0  0  0  0  0  0  0  0  0  0
    1.1131    0.9113   -3.1145 C   0  0  0  0  0  0  0  0  0  0  0  0
    1.3924    2.2777   -3.0136 C   0  0  0  0  0  0  0  0  0  0  0  0
    0.9215    2.9944   -1.9187 C   0  0  0  0  0  0  0  0  0  0  0  0
    0.1855    2.3215   -0.9443 C   0  0  0  0  0  0  0  0  0  0  0  0
   -0.6808    0.4828   -0.2580 H   0  0  0  0  0  0  0  0  0  0  0  0
    0.1629   -0.8122   -2.2451 H   0  0  0  0  0  0  0  0  0  0  0  0
    1.9662    2.7599   -3.7972 H   0  0  0  0  0  0  0  0  0  0  0  0
    1.1151    4.0533   -1.8041 H   0  0  0  0  0  0  0  0  0  0  0  0
   -0.3071    3.0747    0.2186 N   0  0  0  0  0  0  0  0  0  0  0  0
   -0.0362    4.2740    0.2770 O   0  0  0  0  0  0  0  0  0  0  0  0
   -0.9573    2.4601    1.0630 O   0  0  0  0  0  0  0  0  0  0  0  0
    4.8623   -1.5261   -8.4837 N   0  0  0  0  0  0  0  0  0  0  0  0
    4.6352   -2.4874   -8.9793 N   0  0  0  0  0  0  0  0  0  0  0  0
    4.7215    0.3938   -2.7648 C   0  0  0  0  0  0  0  0  0  0  0  0
    5.8619    1.1887   -2.6786 C   0  0  0  0  0  0  0  0  0  0  0  0
    6.5090    1.6587   -3.8310 C   0  0  0  0  0  0  0  0  0  0  0  0
    5.9833    1.3106   -5.0847 C   0  0  0  0  0  0  0  0  0  0  0  0
    4.8430    0.5195   -5.1960 C   0  0  0  0  0  0  0  0  0  0  0  0
    4.2211    0.0703   -4.0284 C   0  0  0  0  0  0  0  0  0  0  0  0
    4.2335    0.0172   -1.8730 H   0  0  0  0  0  0  0  0  0  0  0  0
    6.2575    1.4455   -1.6999 H   0  0  0  0  0  0  0  0  0  0  0  0
    6.4760    1.6611   -5.9872 H   0  0  0  0  0  0  0  0  0  0  0  0
    4.4501    0.2385   -6.1667 H   0  0  0  0  0  0  0  0  0  0  0  0
    2.7486   -0.9199   -4.1590 S   0  0  0  0  0  0  0  0  0  0  0  0
    1.5367    0.2510   -4.2597 O   0  0  0  0  0  0  0  0  0  0  0  0
    2.5576   -1.6646   -2.9189 O   0  0  0  0  0  0  0  0  0  0  0  0
    2.6898   -1.5501   -5.4671 O   0  0  0  0  0  0  0  0  0  0  0  0
    7.7618    2.4925   -3.7250 C   0  0  0  0  0  0  0  0  0  0  0  0
    7.8857    3.1422   -4.5959 H   0  0  0  0  0  0  0  0  0  0  0  0
    7.7518    3.1184   -2.8280 H   0  0  0  0  0  0  0  0  0  0  0  0
    8.6504    1.8522   -3.6657 H   0  0  0  0  0  0  0  0  0  0  0  0
  1  6  1  0  0  0  0
  1  7  1  0  0  0  0
  2  1  2  0  0  0  0
  3  4  2  0  0  0  0
  3  2  1  0  0  0  0
  4  5  1  0  0  0  0
  5 10  1  0  0  0  0
  5  6  2  0  0  0  0
  6 11  1  0  0  0  0
  8  2  1  0  0  0  0
  9  4  1  0  0  0  0
 11 12  2  0  0  0  0
 11 13  2  0  0  0  0
 15 14  3  0  0  0  0
 16 17  1  0  0  0  0
 16 22  1  0  0  0  0
 17 23  1  0  0  0  0
 18 30  1  0  0  0  0
 18 17  2  0  0  0  0
 19 18  1  0  0  0  0
 20 19  2  0  0  0  0
 20 21  1  0  0  0  0
 21 16  2  0  0  0  0
 24 19  1  0  0  0  0
 25 20  1  0  0  0  0
 26 21  1  0  0  0  0
 26 28  2  0  0  0  0
 27 26  1  0  0  0  0
 27  3  1  0  0  0  0
 29 26  2  0  0  0  0
 30 33  1  0  0  0  0
 30 32  1  0  0  0  0
 31 30  1  0  0  0  0
M  END
