Coordinates from ORCA-job 4-NO2-Ph-N2-OTs-B3LYPG-6-31G_dp-MTMO-d009-169-n800
 OpenBabel09051908313D

 33 33  0  0  0  0  0  0  0  0999 V2000
    0.0514    1.1807   -0.1045 C   0  0  0  0  0  0  0  0  0  0  0  0
    0.2520    0.2075   -1.0778 C   0  0  0  0  0  0  0  0  0  0  0  0
    0.6217    0.6004   -2.3681 C   0  0  0  0  0  0  0  0  0  0  0  0
    0.7867    1.9484   -2.7003 C   0  0  0  0  0  0  0  0  0  0  0  0
    0.5793    2.9233   -1.7305 C   0  0  0  0  0  0  0  0  0  0  0  0
    0.2176    2.5229   -0.4450 C   0  0  0  0  0  0  0  0  0  0  0  0
   -0.2367    0.9200    0.9058 H   0  0  0  0  0  0  0  0  0  0  0  0
    0.1303   -0.8444   -0.8518 H   0  0  0  0  0  0  0  0  0  0  0  0
    1.0666    2.2138   -3.7134 H   0  0  0  0  0  0  0  0  0  0  0  0
    0.6935    3.9778   -1.9483 H   0  0  0  0  0  0  0  0  0  0  0  0
    0.0022    3.5512    0.5841 N   0  0  0  0  0  0  0  0  0  0  0  0
    0.1600    4.7272    0.2568 O   0  0  0  0  0  0  0  0  0  0  0  0
   -0.3208    3.1738    1.7097 O   0  0  0  0  0  0  0  0  0  0  0  0
   13.1514    1.3608   -8.3758 N   0  0  0  0  0  0  0  0  0  0  0  0
   14.1048    1.1576   -8.8966 N   0  0  0  0  0  0  0  0  0  0  0  0
    4.2673    0.1882   -2.9907 C   0  0  0  0  0  0  0  0  0  0  0  0
    5.3014    1.0075   -3.4416 C   0  0  0  0  0  0  0  0  0  0  0  0
    5.4804    1.2664   -4.8075 C   0  0  0  0  0  0  0  0  0  0  0  0
    4.5919    0.6801   -5.7240 C   0  0  0  0  0  0  0  0  0  0  0  0
    3.5534   -0.1414   -5.2970 C   0  0  0  0  0  0  0  0  0  0  0  0
    3.4012   -0.3774   -3.9273 C   0  0  0  0  0  0  0  0  0  0  0  0
    4.1392   -0.0227   -1.9349 H   0  0  0  0  0  0  0  0  0  0  0  0
    5.9816    1.4498   -2.7192 H   0  0  0  0  0  0  0  0  0  0  0  0
    4.7186    0.8681   -6.7869 H   0  0  0  0  0  0  0  0  0  0  0  0
    2.8766   -0.6042   -6.0070 H   0  0  0  0  0  0  0  0  0  0  0  0
    2.0607   -1.4080   -3.3717 S   0  0  0  0  0  0  0  0  0  0  0  0
    0.7595   -0.3350   -3.3841 O   0  0  0  0  0  0  0  0  0  0  0  0
    2.3066   -1.8122   -1.9914 O   0  0  0  0  0  0  0  0  0  0  0  0
    1.6979   -2.3545   -4.4124 O   0  0  0  0  0  0  0  0  0  0  0  0
    6.6184    2.1317   -5.2901 C   0  0  0  0  0  0  0  0  0  0  0  0
    7.4495    1.5146   -5.6530 H   0  0  0  0  0  0  0  0  0  0  0  0
    6.3081    2.7749   -6.1195 H   0  0  0  0  0  0  0  0  0  0  0  0
    7.0059    2.7679   -4.4903 H   0  0  0  0  0  0  0  0  0  0  0  0
  1  7  1  0  0  0  0
  2  8  1  0  0  0  0
  2  1  2  0  0  0  0
  3  2  1  0  0  0  0
  4  3  2  0  0  0  0
  4  5  1  0  0  0  0
  5  6  2  0  0  0  0
  6  1  1  0  0  0  0
  6 11  1  0  0  0  0
  9  4  1  0  0  0  0
 10  5  1  0  0  0  0
 11 13  2  0  0  0  0
 12 11  2  0  0  0  0
 15 14  3  0  0  0  0
 16 22  1  0  0  0  0
 17 16  1  0  0  0  0
 17 23  1  0  0  0  0
 18 17  2  0  0  0  0
 19 20  2  0  0  0  0
 19 18  1  0  0  0  0
 20 21  1  0  0  0  0
 21 26  1  0  0  0  0
 21 16  2  0  0  0  0
 24 19  1  0  0  0  0
 25 20  1  0  0  0  0
 26 28  2  0  0  0  0
 27 26  1  0  0  0  0
 27  3  1  0  0  0  0
 29 26  2  0  0  0  0
 30 18  1  0  0  0  0
 30 33  1  0  0  0  0
 31 30  1  0  0  0  0
 32 30  1  0  0  0  0
M  END
