Coordinates from ORCA-job 4-NO2-Ph-N2-OTs-B3LYPG-6-31G_dp-MTMO-d009-169-n800
 OpenBabel09051908313D

 33 33  0  0  0  0  0  0  0  0999 V2000
    0.1583    1.1526   -0.1747 C   0  0  0  0  0  0  0  0  0  0  0  0
    0.3901    0.1933   -1.1549 C   0  0  0  0  0  0  0  0  0  0  0  0
    0.7654    0.6066   -2.4373 C   0  0  0  0  0  0  0  0  0  0  0  0
    0.9050    1.9611   -2.7547 C   0  0  0  0  0  0  0  0  0  0  0  0
    0.6658    2.9219   -1.7781 C   0  0  0  0  0  0  0  0  0  0  0  0
    0.2991    2.5013   -0.5005 C   0  0  0  0  0  0  0  0  0  0  0  0
   -0.1349    0.8759    0.8299 H   0  0  0  0  0  0  0  0  0  0  0  0
    0.2886   -0.8630   -0.9399 H   0  0  0  0  0  0  0  0  0  0  0  0
    1.1895    2.2424   -3.7622 H   0  0  0  0  0  0  0  0  0  0  0  0
    0.7593    3.9806   -1.9849 H   0  0  0  0  0  0  0  0  0  0  0  0
    0.0505    3.5147    0.5359 N   0  0  0  0  0  0  0  0  0  0  0  0
    0.1857    4.6970    0.2215 O   0  0  0  0  0  0  0  0  0  0  0  0
   -0.2761    3.1194    1.6543 O   0  0  0  0  0  0  0  0  0  0  0  0
   10.8887    1.1629   -7.3199 N   0  0  0  0  0  0  0  0  0  0  0  0
   11.8746    0.9650   -7.7785 N   0  0  0  0  0  0  0  0  0  0  0  0
    4.4400    0.2388   -3.0667 C   0  0  0  0  0  0  0  0  0  0  0  0
    5.4748    1.0550   -3.5220 C   0  0  0  0  0  0  0  0  0  0  0  0
    5.6608    1.2982   -4.8898 C   0  0  0  0  0  0  0  0  0  0  0  0
    4.7775    0.6999   -5.8037 C   0  0  0  0  0  0  0  0  0  0  0  0
    3.7385   -0.1187   -5.3726 C   0  0  0  0  0  0  0  0  0  0  0  0
    3.5798   -0.3396   -4.0010 C   0  0  0  0  0  0  0  0  0  0  0  0
    4.3078    0.0390   -2.0092 H   0  0  0  0  0  0  0  0  0  0  0  0
    6.1506    1.5065   -2.8012 H   0  0  0  0  0  0  0  0  0  0  0  0
    4.9093    0.8756   -6.8681 H   0  0  0  0  0  0  0  0  0  0  0  0
    3.0668   -0.5916   -6.0806 H   0  0  0  0  0  0  0  0  0  0  0  0
    2.2450   -1.3756   -3.4411 S   0  0  0  0  0  0  0  0  0  0  0  0
    0.9340   -0.3143   -3.4617 O   0  0  0  0  0  0  0  0  0  0  0  0
    2.4917   -1.7700   -2.0581 O   0  0  0  0  0  0  0  0  0  0  0  0
    1.8924   -2.3309   -4.4772 O   0  0  0  0  0  0  0  0  0  0  0  0
    6.7983    2.1616   -5.3774 C   0  0  0  0  0  0  0  0  0  0  0  0
    7.6223    1.5462   -5.7589 H   0  0  0  0  0  0  0  0  0  0  0  0
    6.4803    2.8159   -6.1953 H   0  0  0  0  0  0  0  0  0  0  0  0
    7.1988    2.7874   -4.5757 H   0  0  0  0  0  0  0  0  0  0  0  0
  1  7  1  0  0  0  0
  2  8  1  0  0  0  0
  2  1  2  0  0  0  0
  3  2  1  0  0  0  0
  4  3  2  0  0  0  0
  4  5  1  0  0  0  0
  5  6  2  0  0  0  0
  6  1  1  0  0  0  0
  6 11  1  0  0  0  0
  9  4  1  0  0  0  0
 10  5  1  0  0  0  0
 11 13  2  0  0  0  0
 12 11  2  0  0  0  0
 15 14  3  0  0  0  0
 16 22  1  0  0  0  0
 17 16  1  0  0  0  0
 17 23  1  0  0  0  0
 18 17  2  0  0  0  0
 19 20  2  0  0  0  0
 19 18  1  0  0  0  0
 20 21  1  0  0  0  0
 21 26  1  0  0  0  0
 21 16  2  0  0  0  0
 24 19  1  0  0  0  0
 25 20  1  0  0  0  0
 26 28  2  0  0  0  0
 27 26  1  0  0  0  0
 27  3  1  0  0  0  0
 29 26  2  0  0  0  0
 30 18  1  0  0  0  0
 30 33  1  0  0  0  0
 31 30  1  0  0  0  0
 32 30  1  0  0  0  0
M  END
