Coordinates from ORCA-job 4-NO2-Ph-N2-OTs-B3LYPG-6-31G_dp-MTMO-d009-169-n800
 OpenBabel09051908313D

 33 33  0  0  0  0  0  0  0  0999 V2000
   -0.0917    0.9392   -1.0708 C   0  0  0  0  0  0  0  0  0  0  0  0
    0.3832    0.2356   -2.1729 C   0  0  0  0  0  0  0  0  0  0  0  0
    1.1335    0.9117   -3.1406 C   0  0  0  0  0  0  0  0  0  0  0  0
    1.4064    2.2784   -3.0282 C   0  0  0  0  0  0  0  0  0  0  0  0
    0.9258    2.9850   -1.9308 C   0  0  0  0  0  0  0  0  0  0  0  0
    0.1870    2.3018   -0.9658 C   0  0  0  0  0  0  0  0  0  0  0  0
   -0.6755    0.4544   -0.2983 H   0  0  0  0  0  0  0  0  0  0  0  0
    0.1855   -0.8223   -2.2899 H   0  0  0  0  0  0  0  0  0  0  0  0
    1.9827    2.7689   -3.8047 H   0  0  0  0  0  0  0  0  0  0  0  0
    1.1142    4.0438   -1.8072 H   0  0  0  0  0  0  0  0  0  0  0  0
   -0.3155    3.0442    0.1998 N   0  0  0  0  0  0  0  0  0  0  0  0
   -0.0494    4.2440    0.2690 O   0  0  0  0  0  0  0  0  0  0  0  0
   -0.9686    2.4208    1.0354 O   0  0  0  0  0  0  0  0  0  0  0  0
    4.6872   -1.6549   -8.4530 N   0  0  0  0  0  0  0  0  0  0  0  0
    4.2675   -2.5937   -8.8575 N   0  0  0  0  0  0  0  0  0  0  0  0
    4.7403    0.4040   -2.7660 C   0  0  0  0  0  0  0  0  0  0  0  0
    5.8766    1.2028   -2.6630 C   0  0  0  0  0  0  0  0  0  0  0  0
    6.5304    1.6871   -3.8057 C   0  0  0  0  0  0  0  0  0  0  0  0
    6.0155    1.3496   -5.0668 C   0  0  0  0  0  0  0  0  0  0  0  0
    4.8797    0.5547   -5.1948 C   0  0  0  0  0  0  0  0  0  0  0  0
    4.2509    0.0909   -4.0366 C   0  0  0  0  0  0  0  0  0  0  0  0
    4.2470    0.0164   -1.8819 H   0  0  0  0  0  0  0  0  0  0  0  0
    6.2636    1.4514   -1.6788 H   0  0  0  0  0  0  0  0  0  0  0  0
    6.5137    1.7112   -5.9619 H   0  0  0  0  0  0  0  0  0  0  0  0
    4.4955    0.2824   -6.1715 H   0  0  0  0  0  0  0  0  0  0  0  0
    2.7839   -0.9045   -4.1874 S   0  0  0  0  0  0  0  0  0  0  0  0
    1.5673    0.2614   -4.2881 O   0  0  0  0  0  0  0  0  0  0  0  0
    2.5864   -1.6606   -2.9551 O   0  0  0  0  0  0  0  0  0  0  0  0
    2.7387   -1.5248   -5.5009 O   0  0  0  0  0  0  0  0  0  0  0  0
    7.7792    2.5245   -3.6822 C   0  0  0  0  0  0  0  0  0  0  0  0
    7.9019    3.1903   -4.5410 H   0  0  0  0  0  0  0  0  0  0  0  0
    7.7647    3.1340   -2.7741 H   0  0  0  0  0  0  0  0  0  0  0  0
    8.6706    1.8872   -3.6327 H   0  0  0  0  0  0  0  0  0  0  0  0
  1  6  1  0  0  0  0
  1  7  1  0  0  0  0
  2  1  2  0  0  0  0
  3  4  2  0  0  0  0
  3  2  1  0  0  0  0
  4  5  1  0  0  0  0
  5 10  1  0  0  0  0
  5  6  2  0  0  0  0
  6 11  1  0  0  0  0
  8  2  1  0  0  0  0
  9  4  1  0  0  0  0
 11 12  2  0  0  0  0
 11 13  2  0  0  0  0
 15 14  3  0  0  0  0
 16 17  1  0  0  0  0
 16 22  1  0  0  0  0
 17 23  1  0  0  0  0
 18 30  1  0  0  0  0
 18 17  2  0  0  0  0
 19 18  1  0  0  0  0
 20 19  2  0  0  0  0
 20 21  1  0  0  0  0
 21 16  2  0  0  0  0
 24 19  1  0  0  0  0
 25 20  1  0  0  0  0
 26 21  1  0  0  0  0
 26 28  2  0  0  0  0
 27 26  1  0  0  0  0
 27  3  1  0  0  0  0
 29 26  2  0  0  0  0
 30 33  1  0  0  0  0
 30 32  1  0  0  0  0
 31 30  1  0  0  0  0
M  END
