Coordinates from ORCA-job 4-NO2-Ph-N2-OTs-B3LYPG-6-31G_dp-MTMO-d009-169-n800
 OpenBabel09051908313D

 33 33  0  0  0  0  0  0  0  0999 V2000
   -0.0633    1.5480   -0.1692 C   0  0  0  0  0  0  0  0  0  0  0  0
    0.0005    0.5464   -1.1324 C   0  0  0  0  0  0  0  0  0  0  0  0
    0.4690    0.8609   -2.4123 C   0  0  0  0  0  0  0  0  0  0  0  0
    0.8640    2.1602   -2.7446 C   0  0  0  0  0  0  0  0  0  0  0  0
    0.7923    3.1649   -1.7856 C   0  0  0  0  0  0  0  0  0  0  0  0
    0.3330    2.8411   -0.5097 C   0  0  0  0  0  0  0  0  0  0  0  0
   -0.4197    1.3475    0.8330 H   0  0  0  0  0  0  0  0  0  0  0  0
   -0.3018   -0.4681   -0.9060 H   0  0  0  0  0  0  0  0  0  0  0  0
    1.2126    2.3672   -3.7500 H   0  0  0  0  0  0  0  0  0  0  0  0
    1.0858    4.1836   -2.0043 H   0  0  0  0  0  0  0  0  0  0  0  0
    0.2621    3.8993    0.5087 N   0  0  0  0  0  0  0  0  0  0  0  0
    0.6126    5.0323    0.1792 O   0  0  0  0  0  0  0  0  0  0  0  0
   -0.1414    3.5880    1.6285 O   0  0  0  0  0  0  0  0  0  0  0  0
   14.2376    3.3452   -9.1720 N   0  0  0  0  0  0  0  0  0  0  0  0
   15.0863    3.4098   -9.8770 N   0  0  0  0  0  0  0  0  0  0  0  0
    3.9924   -0.2114   -2.8553 C   0  0  0  0  0  0  0  0  0  0  0  0
    5.1842    0.3930   -3.2522 C   0  0  0  0  0  0  0  0  0  0  0  0
    5.4871    0.5803   -4.6080 C   0  0  0  0  0  0  0  0  0  0  0  0
    4.5606    0.1446   -5.5695 C   0  0  0  0  0  0  0  0  0  0  0  0
    3.3647   -0.4612   -5.1967 C   0  0  0  0  0  0  0  0  0  0  0  0
    3.0925   -0.6316   -3.8362 C   0  0  0  0  0  0  0  0  0  0  0  0
    3.7660   -0.3689   -1.8067 H   0  0  0  0  0  0  0  0  0  0  0  0
    5.8908    0.7221   -2.4956 H   0  0  0  0  0  0  0  0  0  0  0  0
    4.7819    0.2795   -6.6250 H   0  0  0  0  0  0  0  0  0  0  0  0
    2.6564   -0.8092   -5.9405 H   0  0  0  0  0  0  0  0  0  0  0  0
    1.5569   -1.3885   -3.3501 S   0  0  0  0  0  0  0  0  0  0  0  0
    0.4816   -0.0914   -3.4215 O   0  0  0  0  0  0  0  0  0  0  0  0
    1.6562   -1.8246   -1.9612 O   0  0  0  0  0  0  0  0  0  0  0  0
    1.0738   -2.2559   -4.4106 O   0  0  0  0  0  0  0  0  0  0  0  0
    6.7919    1.2096   -5.0303 C   0  0  0  0  0  0  0  0  0  0  0  0
    7.5292    0.4397   -5.2883 H   0  0  0  0  0  0  0  0  0  0  0  0
    6.6619    1.8430   -5.9129 H   0  0  0  0  0  0  0  0  0  0  0  0
    7.2205    1.8192   -4.2303 H   0  0  0  0  0  0  0  0  0  0  0  0
  1  7  1  0  0  0  0
  2  8  1  0  0  0  0
  2  1  2  0  0  0  0
  3  2  1  0  0  0  0
  4  3  2  0  0  0  0
  4  5  1  0  0  0  0
  5  6  2  0  0  0  0
  6  1  1  0  0  0  0
  6 11  1  0  0  0  0
  9  4  1  0  0  0  0
 10  5  1  0  0  0  0
 11 13  2  0  0  0  0
 12 11  2  0  0  0  0
 15 14  3  0  0  0  0
 16 22  1  0  0  0  0
 17 16  1  0  0  0  0
 17 23  1  0  0  0  0
 18 17  2  0  0  0  0
 19 20  2  0  0  0  0
 19 18  1  0  0  0  0
 20 21  1  0  0  0  0
 21 26  1  0  0  0  0
 21 16  2  0  0  0  0
 24 19  1  0  0  0  0
 25 20  1  0  0  0  0
 26 28  2  0  0  0  0
 27 26  1  0  0  0  0
 27  3  1  0  0  0  0
 29 26  2  0  0  0  0
 30 18  1  0  0  0  0
 30 33  1  0  0  0  0
 31 30  1  0  0  0  0
 32 30  1  0  0  0  0
M  END
