Coordinates from ORCA-job 4-NO2-Ph-N2-OTs-B3LYPG-6-31G_dp-MTMO-d009-169-n800
 OpenBabel09051908313D

 33 33  0  0  0  0  0  0  0  0999 V2000
    0.0887    1.1763   -0.1273 C   0  0  0  0  0  0  0  0  0  0  0  0
    0.2932    0.2042   -1.1009 C   0  0  0  0  0  0  0  0  0  0  0  0
    0.6635    0.5989   -2.3906 C   0  0  0  0  0  0  0  0  0  0  0  0
    0.8249    1.9475   -2.7219 C   0  0  0  0  0  0  0  0  0  0  0  0
    0.6135    2.9213   -1.7518 C   0  0  0  0  0  0  0  0  0  0  0  0
    0.2513    2.5192   -0.4670 C   0  0  0  0  0  0  0  0  0  0  0  0
   -0.1999    0.9143    0.8825 H   0  0  0  0  0  0  0  0  0  0  0  0
    0.1743   -0.8481   -0.8755 H   0  0  0  0  0  0  0  0  0  0  0  0
    1.1052    2.2142   -3.7345 H   0  0  0  0  0  0  0  0  0  0  0  0
    0.7248    3.9762   -1.9690 H   0  0  0  0  0  0  0  0  0  0  0  0
    0.0318    3.5464    0.5624 N   0  0  0  0  0  0  0  0  0  0  0  0
    0.1865    4.7230    0.2359 O   0  0  0  0  0  0  0  0  0  0  0  0
   -0.2916    3.1674    1.6874 O   0  0  0  0  0  0  0  0  0  0  0  0
   12.5081    1.3248   -8.0686 N   0  0  0  0  0  0  0  0  0  0  0  0
   13.4661    1.1165   -8.5789 N   0  0  0  0  0  0  0  0  0  0  0  0
    4.3113    0.1951   -3.0095 C   0  0  0  0  0  0  0  0  0  0  0  0
    5.3445    1.0163   -3.4592 C   0  0  0  0  0  0  0  0  0  0  0  0
    5.5249    1.2750   -4.8249 C   0  0  0  0  0  0  0  0  0  0  0  0
    4.6388    0.6868   -5.7425 C   0  0  0  0  0  0  0  0  0  0  0  0
    3.6013   -0.1366   -5.3167 C   0  0  0  0  0  0  0  0  0  0  0  0
    3.4476   -0.3724   -3.9471 C   0  0  0  0  0  0  0  0  0  0  0  0
    4.1822   -0.0157   -1.9538 H   0  0  0  0  0  0  0  0  0  0  0  0
    6.0229    1.4600   -2.7360 H   0  0  0  0  0  0  0  0  0  0  0  0
    4.7667    0.8747   -6.8052 H   0  0  0  0  0  0  0  0  0  0  0  0
    2.9264   -0.6008   -6.0275 H   0  0  0  0  0  0  0  0  0  0  0  0
    2.1086   -1.4058   -3.3932 S   0  0  0  0  0  0  0  0  0  0  0  0
    0.8051   -0.3355   -3.4069 O   0  0  0  0  0  0  0  0  0  0  0  0
    2.3538   -1.8096   -2.0127 O   0  0  0  0  0  0  0  0  0  0  0  0
    1.7489   -2.3529   -4.4343 O   0  0  0  0  0  0  0  0  0  0  0  0
    6.6619    2.1424   -5.3063 C   0  0  0  0  0  0  0  0  0  0  0  0
    7.4925    1.5271   -5.6730 H   0  0  0  0  0  0  0  0  0  0  0  0
    6.3498    2.7885   -6.1329 H   0  0  0  0  0  0  0  0  0  0  0  0
    7.0505    2.7759   -4.5050 H   0  0  0  0  0  0  0  0  0  0  0  0
  1  7  1  0  0  0  0
  2  8  1  0  0  0  0
  2  1  2  0  0  0  0
  3  2  1  0  0  0  0
  4  3  2  0  0  0  0
  4  5  1  0  0  0  0
  5  6  2  0  0  0  0
  6  1  1  0  0  0  0
  6 11  1  0  0  0  0
  9  4  1  0  0  0  0
 10  5  1  0  0  0  0
 11 13  2  0  0  0  0
 12 11  2  0  0  0  0
 15 14  3  0  0  0  0
 16 22  1  0  0  0  0
 17 16  1  0  0  0  0
 17 23  1  0  0  0  0
 18 17  2  0  0  0  0
 19 20  2  0  0  0  0
 19 18  1  0  0  0  0
 20 21  1  0  0  0  0
 21 26  1  0  0  0  0
 21 16  2  0  0  0  0
 24 19  1  0  0  0  0
 25 20  1  0  0  0  0
 26 28  2  0  0  0  0
 27 26  1  0  0  0  0
 27  3  1  0  0  0  0
 29 26  2  0  0  0  0
 30 18  1  0  0  0  0
 30 33  1  0  0  0  0
 31 30  1  0  0  0  0
 32 30  1  0  0  0  0
M  END
