Coordinates from ORCA-job 4-NO2-Ph-N2-OTs-B3LYPG-6-31G_dp-MTMO-d009-169-n800
 OpenBabel09051908313D

 33 33  0  0  0  0  0  0  0  0999 V2000
   -0.1062    1.5438   -0.1514 C   0  0  0  0  0  0  0  0  0  0  0  0
   -0.0437    0.5428   -1.1153 C   0  0  0  0  0  0  0  0  0  0  0  0
    0.4275    0.8573   -2.3943 C   0  0  0  0  0  0  0  0  0  0  0  0
    0.8261    2.1560   -2.7249 C   0  0  0  0  0  0  0  0  0  0  0  0
    0.7556    3.1599   -1.7651 C   0  0  0  0  0  0  0  0  0  0  0  0
    0.2938    2.8362   -0.4901 C   0  0  0  0  0  0  0  0  0  0  0  0
   -0.4645    1.3433    0.8502 H   0  0  0  0  0  0  0  0  0  0  0  0
   -0.3488   -0.4711   -0.8902 H   0  0  0  0  0  0  0  0  0  0  0  0
    1.1767    2.3629   -3.7296 H   0  0  0  0  0  0  0  0  0  0  0  0
    1.0519    4.1781   -1.9825 H   0  0  0  0  0  0  0  0  0  0  0  0
    0.2241    3.8937    0.5291 N   0  0  0  0  0  0  0  0  0  0  0  0
    0.5779    5.0261    0.2010 O   0  0  0  0  0  0  0  0  0  0  0  0
   -0.1816    3.5824    1.6480 O   0  0  0  0  0  0  0  0  0  0  0  0
   14.8602    3.5005   -9.5377 N   0  0  0  0  0  0  0  0  0  0  0  0
   15.7007    3.5486  -10.2538 N   0  0  0  0  0  0  0  0  0  0  0  0
    3.9480   -0.2258   -2.8289 C   0  0  0  0  0  0  0  0  0  0  0  0
    5.1427    0.3754   -3.2214 C   0  0  0  0  0  0  0  0  0  0  0  0
    5.4501    0.5639   -4.5761 C   0  0  0  0  0  0  0  0  0  0  0  0
    4.5250    0.1327   -5.5409 C   0  0  0  0  0  0  0  0  0  0  0  0
    3.3261   -0.4699   -5.1724 C   0  0  0  0  0  0  0  0  0  0  0  0
    3.0496   -0.6416   -3.8130 C   0  0  0  0  0  0  0  0  0  0  0  0
    3.7180   -0.3842   -1.7811 H   0  0  0  0  0  0  0  0  0  0  0  0
    5.8483    0.7011   -2.4623 H   0  0  0  0  0  0  0  0  0  0  0  0
    4.7497    0.2687   -6.5955 H   0  0  0  0  0  0  0  0  0  0  0  0
    2.6188   -0.8144   -5.9187 H   0  0  0  0  0  0  0  0  0  0  0  0
    1.5103   -1.3945   -3.3324 S   0  0  0  0  0  0  0  0  0  0  0  0
    0.4391   -0.0940   -3.4044 O   0  0  0  0  0  0  0  0  0  0  0  0
    1.6044   -1.8334   -1.9440 O   0  0  0  0  0  0  0  0  0  0  0  0
    1.0273   -2.2586   -4.3957 O   0  0  0  0  0  0  0  0  0  0  0  0
    6.7582    1.1896   -4.9935 C   0  0  0  0  0  0  0  0  0  0  0  0
    7.4952    0.4177   -5.2461 H   0  0  0  0  0  0  0  0  0  0  0  0
    6.6338    1.8212   -5.8782 H   0  0  0  0  0  0  0  0  0  0  0  0
    7.1841    1.8002   -4.1928 H   0  0  0  0  0  0  0  0  0  0  0  0
  1  7  1  0  0  0  0
  2  8  1  0  0  0  0
  2  1  2  0  0  0  0
  3  2  1  0  0  0  0
  4  3  2  0  0  0  0
  4  5  1  0  0  0  0
  5  6  2  0  0  0  0
  6  1  1  0  0  0  0
  6 11  1  0  0  0  0
  9  4  1  0  0  0  0
 10  5  1  0  0  0  0
 11 13  2  0  0  0  0
 12 11  2  0  0  0  0
 15 14  3  0  0  0  0
 16 22  1  0  0  0  0
 17 16  1  0  0  0  0
 17 23  1  0  0  0  0
 18 17  2  0  0  0  0
 19 20  2  0  0  0  0
 19 18  1  0  0  0  0
 20 21  1  0  0  0  0
 21 26  1  0  0  0  0
 21 16  2  0  0  0  0
 24 19  1  0  0  0  0
 25 20  1  0  0  0  0
 26 28  2  0  0  0  0
 27 26  1  0  0  0  0
 27  3  1  0  0  0  0
 29 26  2  0  0  0  0
 30 18  1  0  0  0  0
 30 33  1  0  0  0  0
 31 30  1  0  0  0  0
 32 30  1  0  0  0  0
M  END
