Coordinates from ORCA-job 4-NO2-Ph-N2-OTs-B3LYPG-6-31G_dp-MTMO-d009-169-n800
 OpenBabel09051908313D

 33 32  0  0  0  0  0  0  0  0999 V2000
    0.7172    1.0919   -1.4973 C   0  0  0  0  0  0  0  0  0  0  0  0
    0.8113    0.6747   -2.8292 C   0  0  0  0  0  0  0  0  0  0  0  0
    0.1079    1.2574   -3.6924 C   0  0  0  0  0  0  0  0  0  0  0  0
   -0.7977    2.2856   -3.7013 C   0  0  0  0  0  0  0  0  0  0  0  0
   -0.9255    2.7468   -2.3764 C   0  0  0  0  0  0  0  0  0  0  0  0
   -0.1877    2.1593   -1.3300 C   0  0  0  0  0  0  0  0  0  0  0  0
    1.2584    0.6818   -0.6547 H   0  0  0  0  0  0  0  0  0  0  0  0
    2.1770   -0.6402   -3.6210 H   0  0  0  0  0  0  0  0  0  0  0  0
   -1.3402    2.6957   -4.5421 H   0  0  0  0  0  0  0  0  0  0  0  0
   -1.5991    3.5631   -2.1429 H   0  0  0  0  0  0  0  0  0  0  0  0
   -0.3735    2.7002    0.0309 N   0  0  0  0  0  0  0  0  0  0  0  0
   -1.1658    3.6295    0.1759 O   0  0  0  0  0  0  0  0  0  0  0  0
    0.2794    2.1846    0.9358 O   0  0  0  0  0  0  0  0  0  0  0  0
   -0.2151    0.6058   -6.4609 N   0  0  0  0  0  0  0  0  0  0  0  0
    0.0482   -0.0121   -7.3381 N   0  0  0  0  0  0  0  0  0  0  0  0
    5.1053    1.4675   -4.0974 C   0  0  0  0  0  0  0  0  0  0  0  0
    6.2176    2.0411   -3.4819 C   0  0  0  0  0  0  0  0  0  0  0  0
    7.3418    1.2721   -3.1537 C   0  0  0  0  0  0  0  0  0  0  0  0
    7.3290   -0.0980   -3.4617 C   0  0  0  0  0  0  0  0  0  0  0  0
    6.2296   -0.6884   -4.0774 C   0  0  0  0  0  0  0  0  0  0  0  0
    5.1210    0.1036   -4.3869 C   0  0  0  0  0  0  0  0  0  0  0  0
    4.2414    2.0666   -4.3641 H   0  0  0  0  0  0  0  0  0  0  0  0
    6.2125    3.1038   -3.2553 H   0  0  0  0  0  0  0  0  0  0  0  0
    8.1943   -0.7090   -3.2180 H   0  0  0  0  0  0  0  0  0  0  0  0
    6.2279   -1.7433   -4.3287 H   0  0  0  0  0  0  0  0  0  0  0  0
    3.6974   -0.6502   -5.1548 S   0  0  0  0  0  0  0  0  0  0  0  0
    2.8635    0.4062   -5.7344 O   0  0  0  0  0  0  0  0  0  0  0  0
    2.8851   -1.2736   -3.8835 O   0  0  0  0  0  0  0  0  0  0  0  0
    4.1416   -1.7937   -5.9380 O   0  0  0  0  0  0  0  0  0  0  0  0
    8.5521    1.8999   -2.5054 C   0  0  0  0  0  0  0  0  0  0  0  0
    9.3743    2.0000   -3.2244 H   0  0  0  0  0  0  0  0  0  0  0  0
    8.3280    2.8974   -2.1192 H   0  0  0  0  0  0  0  0  0  0  0  0
    8.9211    1.2886   -1.6758 H   0  0  0  0  0  0  0  0  0  0  0  0
  1  6  1  0  0  0  0
  1  7  1  0  0  0  0
  2  1  2  0  0  0  0
  3  2  1  0  0  0  0
  4  3  2  0  0  0  0
  4  5  1  0  0  0  0
  5 10  1  0  0  0  0
  5  6  2  0  0  0  0
  6 11  1  0  0  0  0
  9  4  1  0  0  0  0
 11 12  2  0  0  0  0
 11 13  2  0  0  0  0
 15 14  3  0  0  0  0
 16 17  1  0  0  0  0
 17 23  1  0  0  0  0
 17 18  2  0  0  0  0
 18 30  1  0  0  0  0
 19 24  1  0  0  0  0
 19 18  1  0  0  0  0
 20 19  2  0  0  0  0
 21 16  2  0  0  0  0
 21 20  1  0  0  0  0
 22 16  1  0  0  0  0
 25 20  1  0  0  0  0
 26 21  1  0  0  0  0
 26 28  1  0  0  0  0
 27 26  2  0  0  0  0
 28  8  1  0  0  0  0
 29 26  2  0  0  0  0
 30 32  1  0  0  0  0
 30 33  1  0  0  0  0
 31 30  1  0  0  0  0
M  RAD  2   2   2   3   2
M  END
