Coordinates from ORCA-job 4-NO2-Ph-N2-OTs-B3LYPG-6-31G_dp-MTMO-d009-169-n800
 OpenBabel09051908313D

 33 33  0  0  0  0  0  0  0  0999 V2000
   -0.0597    0.8950   -1.2160 C   0  0  0  0  0  0  0  0  0  0  0  0
    0.4999    0.0995   -2.2105 C   0  0  0  0  0  0  0  0  0  0  0  0
    1.2744    0.7004   -3.2080 C   0  0  0  0  0  0  0  0  0  0  0  0
    1.4907    2.0814   -3.2305 C   0  0  0  0  0  0  0  0  0  0  0  0
    0.9266    2.8794   -2.2407 C   0  0  0  0  0  0  0  0  0  0  0  0
    0.1624    2.2717   -1.2455 C   0  0  0  0  0  0  0  0  0  0  0  0
   -0.6659    0.4706   -0.4255 H   0  0  0  0  0  0  0  0  0  0  0  0
    0.3489   -0.9726   -2.2219 H   0  0  0  0  0  0  0  0  0  0  0  0
    2.0893    2.5113   -4.0257 H   0  0  0  0  0  0  0  0  0  0  0  0
    1.0695    3.9525   -2.2230 H   0  0  0  0  0  0  0  0  0  0  0  0
   -0.4295    3.1115   -0.1933 N   0  0  0  0  0  0  0  0  0  0  0  0
   -0.2118    4.3221   -0.2406 O   0  0  0  0  0  0  0  0  0  0  0  0
   -1.1035    2.5530    0.6711 O   0  0  0  0  0  0  0  0  0  0  0  0
    3.3294   -0.7256   -8.2250 N   0  0  0  0  0  0  0  0  0  0  0  0
    2.5862   -1.4069   -8.6770 N   0  0  0  0  0  0  0  0  0  0  0  0
    4.9269    0.3466   -2.6013 C   0  0  0  0  0  0  0  0  0  0  0  0
    6.0145    1.2145   -2.5282 C   0  0  0  0  0  0  0  0  0  0  0  0
    6.6380    1.6966   -3.6879 C   0  0  0  0  0  0  0  0  0  0  0  0
    6.1431    1.2867   -4.9361 C   0  0  0  0  0  0  0  0  0  0  0  0
    5.0584    0.4202   -5.0346 C   0  0  0  0  0  0  0  0  0  0  0  0
    4.4593   -0.0404   -3.8587 C   0  0  0  0  0  0  0  0  0  0  0  0
    4.4540   -0.0365   -1.7042 H   0  0  0  0  0  0  0  0  0  0  0  0
    6.3856    1.5201   -1.5541 H   0  0  0  0  0  0  0  0  0  0  0  0
    6.6170    1.6492   -5.8439 H   0  0  0  0  0  0  0  0  0  0  0  0
    4.6866    0.0975   -6.0008 H   0  0  0  0  0  0  0  0  0  0  0  0
    3.0563   -1.1290   -3.9720 S   0  0  0  0  0  0  0  0  0  0  0  0
    1.7902   -0.0508   -4.2549 O   0  0  0  0  0  0  0  0  0  0  0  0
    2.8346   -1.7643   -2.6772 O   0  0  0  0  0  0  0  0  0  0  0  0
    3.1089   -1.8835   -5.2129 O   0  0  0  0  0  0  0  0  0  0  0  0
    7.8345    2.6110   -3.5983 C   0  0  0  0  0  0  0  0  0  0  0  0
    7.8803    3.2950   -4.4508 H   0  0  0  0  0  0  0  0  0  0  0  0
    7.8171    3.2061   -2.6811 H   0  0  0  0  0  0  0  0  0  0  0  0
    8.7662    2.0322   -3.5950 H   0  0  0  0  0  0  0  0  0  0  0  0
  1  7  1  0  0  0  0
  2  1  2  0  0  0  0
  3  2  1  0  0  0  0
  4  3  2  0  0  0  0
  4  5  1  0  0  0  0
  5 10  1  0  0  0  0
  5  6  2  0  0  0  0
  6  1  1  0  0  0  0
  6 11  1  0  0  0  0
  8  2  1  0  0  0  0
  9  4  1  0  0  0  0
 11 13  2  0  0  0  0
 12 11  2  0  0  0  0
 15 14  3  0  0  0  0
 16 17  1  0  0  0  0
 16 22  1  0  0  0  0
 17 23  1  0  0  0  0
 18 30  1  0  0  0  0
 18 17  2  0  0  0  0
 19 18  1  0  0  0  0
 20 19  2  0  0  0  0
 20 21  1  0  0  0  0
 21 16  2  0  0  0  0
 24 19  1  0  0  0  0
 25 20  1  0  0  0  0
 26 21  1  0  0  0  0
 26 28  2  0  0  0  0
 27 26  1  0  0  0  0
 27  3  1  0  0  0  0
 29 26  2  0  0  0  0
 30 33  1  0  0  0  0
 30 32  1  0  0  0  0
 31 30  1  0  0  0  0
M  END
