Coordinates from ORCA-job 4-NO2-Ph-N2-OTs-B3LYPG-6-31G_dp-MTMO-d009-169-n800
 OpenBabel09051908313D

 33 33  0  0  0  0  0  0  0  0999 V2000
   -0.0213    1.2543   -0.5258 C   0  0  0  0  0  0  0  0  0  0  0  0
    0.3353    0.2639   -1.4351 C   0  0  0  0  0  0  0  0  0  0  0  0
    0.8886    0.6355   -2.6651 C   0  0  0  0  0  0  0  0  0  0  0  0
    1.0806    1.9791   -3.0011 C   0  0  0  0  0  0  0  0  0  0  0  0
    0.7157    2.9708   -2.0969 C   0  0  0  0  0  0  0  0  0  0  0  0
    0.1736    2.5918   -0.8695 C   0  0  0  0  0  0  0  0  0  0  0  0
   -0.4516    1.0096    0.4368 H   0  0  0  0  0  0  0  0  0  0  0  0
    0.1961   -0.7844   -1.2039 H   0  0  0  0  0  0  0  0  0  0  0  0
    1.5027    2.2277   -3.9679 H   0  0  0  0  0  0  0  0  0  0  0  0
    0.8449    4.0223   -2.3211 H   0  0  0  0  0  0  0  0  0  0  0  0
   -0.2074    3.6376    0.0914 N   0  0  0  0  0  0  0  0  0  0  0  0
   -0.0227    4.8091   -0.2379 O   0  0  0  0  0  0  0  0  0  0  0  0
   -0.6861    3.2785    1.1664 O   0  0  0  0  0  0  0  0  0  0  0  0
    8.0558    1.5366   -8.6340 N   0  0  0  0  0  0  0  0  0  0  0  0
    8.6305    1.6211   -9.5740 N   0  0  0  0  0  0  0  0  0  0  0  0
    4.5759    0.1969   -2.6901 C   0  0  0  0  0  0  0  0  0  0  0  0
    5.6943    0.9711   -2.9851 C   0  0  0  0  0  0  0  0  0  0  0  0
    6.1349    1.1386   -4.3077 C   0  0  0  0  0  0  0  0  0  0  0  0
    5.4245    0.5042   -5.3371 C   0  0  0  0  0  0  0  0  0  0  0  0
    4.3011   -0.2743   -5.0652 C   0  0  0  0  0  0  0  0  0  0  0  0
    3.8875   -0.4184   -3.7395 C   0  0  0  0  0  0  0  0  0  0  0  0
    4.2477    0.0530   -1.6668 H   0  0  0  0  0  0  0  0  0  0  0  0
    6.2390    1.4477   -2.1749 H   0  0  0  0  0  0  0  0  0  0  0  0
    5.7610    0.6154   -6.3638 H   0  0  0  0  0  0  0  0  0  0  0  0
    3.7617   -0.7766   -5.8606 H   0  0  0  0  0  0  0  0  0  0  0  0
    2.4518   -1.4080   -3.3835 S   0  0  0  0  0  0  0  0  0  0  0  0
    1.1908   -0.3147   -3.6300 O   0  0  0  0  0  0  0  0  0  0  0  0
    2.4640   -1.7801   -1.9725 O   0  0  0  0  0  0  0  0  0  0  0  0
    2.2410   -2.3764   -4.4459 O   0  0  0  0  0  0  0  0  0  0  0  0
    7.3522    1.9790   -4.6076 C   0  0  0  0  0  0  0  0  0  0  0  0
    7.5812    1.9857   -5.6758 H   0  0  0  0  0  0  0  0  0  0  0  0
    7.2032    3.0163   -4.2865 H   0  0  0  0  0  0  0  0  0  0  0  0
    8.2315    1.6019   -4.0743 H   0  0  0  0  0  0  0  0  0  0  0  0
  1  7  1  0  0  0  0
  2  8  1  0  0  0  0
  2  1  2  0  0  0  0
  3  2  1  0  0  0  0
  4  3  2  0  0  0  0
  4  5  1  0  0  0  0
  5  6  2  0  0  0  0
  6  1  1  0  0  0  0
  6 11  1  0  0  0  0
  9  4  1  0  0  0  0
 10  5  1  0  0  0  0
 11 13  2  0  0  0  0
 12 11  2  0  0  0  0
 15 14  3  0  0  0  0
 16 22  1  0  0  0  0
 17 16  1  0  0  0  0
 17 23  1  0  0  0  0
 18 17  2  0  0  0  0
 19 20  2  0  0  0  0
 19 18  1  0  0  0  0
 20 21  1  0  0  0  0
 21 26  1  0  0  0  0
 21 16  2  0  0  0  0
 24 19  1  0  0  0  0
 25 20  1  0  0  0  0
 26 28  2  0  0  0  0
 27 26  1  0  0  0  0
 27  3  1  0  0  0  0
 29 26  2  0  0  0  0
 30 18  1  0  0  0  0
 30 32  1  0  0  0  0
 30 33  1  0  0  0  0
 31 30  1  0  0  0  0
M  END
