Coordinates from ORCA-job 4-NO2-Ph-N2-OTs-B3LYPG-6-31G_dp-MTMO-d009-169-n800
 OpenBabel09051908313D

 33 33  0  0  0  0  0  0  0  0999 V2000
   -0.1353    1.0890   -0.9254 C   0  0  0  0  0  0  0  0  0  0  0  0
    0.3357    0.2382   -1.9200 C   0  0  0  0  0  0  0  0  0  0  0  0
    1.0744    0.7730   -2.9806 C   0  0  0  0  0  0  0  0  0  0  0  0
    1.3427    2.1426   -3.0643 C   0  0  0  0  0  0  0  0  0  0  0  0
    0.8665    2.9959   -2.0744 C   0  0  0  0  0  0  0  0  0  0  0  0
    0.1367    2.4539   -1.0171 C   0  0  0  0  0  0  0  0  0  0  0  0
   -0.7115    0.7165   -0.0878 H   0  0  0  0  0  0  0  0  0  0  0  0
    0.1425   -0.8265   -1.8840 H   0  0  0  0  0  0  0  0  0  0  0  0
    1.9104    2.5206   -3.9070 H   0  0  0  0  0  0  0  0  0  0  0  0
    1.0506    4.0625   -2.1042 H   0  0  0  0  0  0  0  0  0  0  0  0
   -0.3642    3.3522    0.0337 N   0  0  0  0  0  0  0  0  0  0  0  0
   -0.1069    4.5513   -0.0708 O   0  0  0  0  0  0  0  0  0  0  0  0
   -1.0081    2.8505    0.9543 O   0  0  0  0  0  0  0  0  0  0  0  0
    5.4570   -0.1906   -8.6978 N   0  0  0  0  0  0  0  0  0  0  0  0
    5.3881   -0.6411   -9.7046 N   0  0  0  0  0  0  0  0  0  0  0  0
    4.7406    0.2842   -2.6255 C   0  0  0  0  0  0  0  0  0  0  0  0
    5.8786    1.0868   -2.6748 C   0  0  0  0  0  0  0  0  0  0  0  0
    6.4649    1.4422   -3.8980 C   0  0  0  0  0  0  0  0  0  0  0  0
    5.8808    0.9711   -5.0845 C   0  0  0  0  0  0  0  0  0  0  0  0
    4.7440    0.1691   -5.0597 C   0  0  0  0  0  0  0  0  0  0  0  0
    4.1830   -0.1651   -3.8241 C   0  0  0  0  0  0  0  0  0  0  0  0
    4.2977   -0.0025   -1.6784 H   0  0  0  0  0  0  0  0  0  0  0  0
    6.3198    1.4402   -1.7472 H   0  0  0  0  0  0  0  0  0  0  0  0
    6.3227    1.2309   -6.0421 H   0  0  0  0  0  0  0  0  0  0  0  0
    4.3053   -0.2033   -5.9782 H   0  0  0  0  0  0  0  0  0  0  0  0
    2.7162   -1.1710   -3.7852 S   0  0  0  0  0  0  0  0  0  0  0  0
    1.4963   -0.0312   -4.0297 O   0  0  0  0  0  0  0  0  0  0  0  0
    2.5527   -1.7331   -2.4485 O   0  0  0  0  0  0  0  0  0  0  0  0
    2.6383   -1.9805   -4.9893 O   0  0  0  0  0  0  0  0  0  0  0  0
    7.7147    2.2862   -3.9385 C   0  0  0  0  0  0  0  0  0  0  0  0
    7.7376    2.9248   -4.8264 H   0  0  0  0  0  0  0  0  0  0  0  0
    7.7967    2.9244   -3.0543 H   0  0  0  0  0  0  0  0  0  0  0  0
    8.6099    1.6532   -3.9698 H   0  0  0  0  0  0  0  0  0  0  0  0
  1  7  1  0  0  0  0
  2  8  1  0  0  0  0
  2  1  2  0  0  0  0
  3  2  1  0  0  0  0
  4  3  2  0  0  0  0
  4  5  1  0  0  0  0
  5  6  2  0  0  0  0
  6  1  1  0  0  0  0
  6 11  1  0  0  0  0
  9  4  1  0  0  0  0
 10  5  1  0  0  0  0
 11 13  2  0  0  0  0
 12 11  2  0  0  0  0
 15 14  3  0  0  0  0
 16 22  1  0  0  0  0
 17 16  1  0  0  0  0
 17 23  1  0  0  0  0
 18 17  2  0  0  0  0
 19 20  2  0  0  0  0
 19 18  1  0  0  0  0
 20 21  1  0  0  0  0
 21 26  1  0  0  0  0
 21 16  2  0  0  0  0
 24 19  1  0  0  0  0
 25 20  1  0  0  0  0
 26 28  2  0  0  0  0
 27 26  1  0  0  0  0
 27  3  1  0  0  0  0
 29 26  2  0  0  0  0
 30 18  1  0  0  0  0
 30 32  1  0  0  0  0
 31 30  1  0  0  0  0
 33 30  1  0  0  0  0
M  END
