Coordinates from ORCA-job 4-NO2-Ph-N2-OTs-B3LYPG-6-31G_dp-MTMO-d009-169-n800
 OpenBabel09051908313D

 33 33  0  0  0  0  0  0  0  0999 V2000
   -0.0098    1.2545   -0.5096 C   0  0  0  0  0  0  0  0  0  0  0  0
    0.3383    0.2617   -1.4196 C   0  0  0  0  0  0  0  0  0  0  0  0
    0.8831    0.6298   -2.6544 C   0  0  0  0  0  0  0  0  0  0  0  0
    1.0750    1.9723   -2.9945 C   0  0  0  0  0  0  0  0  0  0  0  0
    0.7188    2.9665   -2.0896 C   0  0  0  0  0  0  0  0  0  0  0  0
    0.1851    2.5909   -0.8575 C   0  0  0  0  0  0  0  0  0  0  0  0
   -0.4333    1.0125    0.4566 H   0  0  0  0  0  0  0  0  0  0  0  0
    0.1989   -0.7860   -1.1853 H   0  0  0  0  0  0  0  0  0  0  0  0
    1.4905    2.2183   -3.9649 H   0  0  0  0  0  0  0  0  0  0  0  0
    0.8484    4.0173   -2.3168 H   0  0  0  0  0  0  0  0  0  0  0  0
   -0.1865    3.6394    0.1043 N   0  0  0  0  0  0  0  0  0  0  0  0
   -0.0016    4.8099   -0.2285 O   0  0  0  0  0  0  0  0  0  0  0  0
   -0.6580    3.2833    1.1835 O   0  0  0  0  0  0  0  0  0  0  0  0
    8.1770    1.5507   -8.5929 N   0  0  0  0  0  0  0  0  0  0  0  0
    8.8022    1.6207   -9.5014 N   0  0  0  0  0  0  0  0  0  0  0  0
    4.5666    0.1932   -2.7018 C   0  0  0  0  0  0  0  0  0  0  0  0
    5.6804    0.9710   -3.0051 C   0  0  0  0  0  0  0  0  0  0  0  0
    6.1098    1.1411   -4.3311 C   0  0  0  0  0  0  0  0  0  0  0  0
    5.3940    0.5040   -5.3550 C   0  0  0  0  0  0  0  0  0  0  0  0
    4.2751   -0.2780   -5.0750 C   0  0  0  0  0  0  0  0  0  0  0  0
    3.8719   -0.4234   -3.7461 C   0  0  0  0  0  0  0  0  0  0  0  0
    4.2470    0.0476   -1.6760 H   0  0  0  0  0  0  0  0  0  0  0  0
    6.2303    1.4483   -2.1988 H   0  0  0  0  0  0  0  0  0  0  0  0
    5.7227    0.6153   -6.3844 H   0  0  0  0  0  0  0  0  0  0  0  0
    3.7316   -0.7821   -5.8663 H   0  0  0  0  0  0  0  0  0  0  0  0
    2.4403   -1.4152   -3.3799 S   0  0  0  0  0  0  0  0  0  0  0  0
    1.1765   -0.3233   -3.6192 O   0  0  0  0  0  0  0  0  0  0  0  0
    2.4621   -1.7861   -1.9687 O   0  0  0  0  0  0  0  0  0  0  0  0
    2.2237   -2.3849   -4.4399 O   0  0  0  0  0  0  0  0  0  0  0  0
    7.3176    1.9914   -4.6409 C   0  0  0  0  0  0  0  0  0  0  0  0
    7.5729    1.9525   -5.7024 H   0  0  0  0  0  0  0  0  0  0  0  0
    7.1376    3.0399   -4.3755 H   0  0  0  0  0  0  0  0  0  0  0  0
    8.1903    1.6613   -4.0676 H   0  0  0  0  0  0  0  0  0  0  0  0
  1  7  1  0  0  0  0
  2  8  1  0  0  0  0
  2  1  2  0  0  0  0
  3  2  1  0  0  0  0
  4  3  2  0  0  0  0
  4  5  1  0  0  0  0
  5  6  2  0  0  0  0
  6  1  1  0  0  0  0
  6 11  1  0  0  0  0
  9  4  1  0  0  0  0
 10  5  1  0  0  0  0
 11 13  2  0  0  0  0
 12 11  2  0  0  0  0
 15 14  3  0  0  0  0
 16 22  1  0  0  0  0
 17 16  1  0  0  0  0
 17 23  1  0  0  0  0
 18 17  2  0  0  0  0
 19 20  2  0  0  0  0
 19 18  1  0  0  0  0
 20 21  1  0  0  0  0
 21 26  1  0  0  0  0
 21 16  2  0  0  0  0
 24 19  1  0  0  0  0
 25 20  1  0  0  0  0
 26 28  2  0  0  0  0
 27 26  1  0  0  0  0
 27  3  1  0  0  0  0
 29 26  2  0  0  0  0
 30 32  1  0  0  0  0
 30 18  1  0  0  0  0
 30 33  1  0  0  0  0
 31 30  1  0  0  0  0
M  END
