Coordinates from ORCA-job 4-NO2-Ph-N2-OTs-B3LYPG-6-31G_dp-MTMO-d009-169-n800
 OpenBabel09051908313D

 33 33  0  0  0  0  0  0  0  0999 V2000
   -1.8076    0.5808   -2.1008 C   0  0  0  0  0  0  0  0  0  0  0  0
   -1.1732    0.2701   -3.2929 C   0  0  0  0  0  0  0  0  0  0  0  0
   -0.0115    0.9844   -3.6412 C   0  0  0  0  0  0  0  0  0  0  0  0
    0.5325    2.0078   -2.8432 C   0  0  0  0  0  0  0  0  0  0  0  0
   -0.1327    2.3172   -1.6611 C   0  0  0  0  0  0  0  0  0  0  0  0
   -1.2745    1.6013   -1.3122 C   0  0  0  0  0  0  0  0  0  0  0  0
   -2.6992    0.0614   -1.7755 H   0  0  0  0  0  0  0  0  0  0  0  0
   -1.5511   -0.5096   -3.9448 H   0  0  0  0  0  0  0  0  0  0  0  0
    1.4435    2.5231   -3.1449 H   0  0  0  0  0  0  0  0  0  0  0  0
    0.2341    3.0961   -1.0041 H   0  0  0  0  0  0  0  0  0  0  0  0
   -1.9636    1.9367   -0.0434 N   0  0  0  0  0  0  0  0  0  0  0  0
   -1.4912    2.8473    0.6282 O   0  0  0  0  0  0  0  0  0  0  0  0
   -2.9606    1.2788    0.2424 O   0  0  0  0  0  0  0  0  0  0  0  0
    0.5813    0.6655   -4.8236 N   0  0  0  0  0  0  0  0  0  0  0  0
    1.1708    0.4816   -5.7674 N   0  0  0  0  0  0  0  0  0  0  0  0
    6.2744    2.1994   -4.3772 C   0  0  0  0  0  0  0  0  0  0  0  0
    7.6495    1.9898   -4.3008 C   0  0  0  0  0  0  0  0  0  0  0  0
    8.1739    0.7405   -3.9376 C   0  0  0  0  0  0  0  0  0  0  0  0
    7.2792   -0.2969   -3.6392 C   0  0  0  0  0  0  0  0  0  0  0  0
    5.9009   -0.1033   -3.7124 C   0  0  0  0  0  0  0  0  0  0  0  0
    5.4055    1.1471   -4.0835 C   0  0  0  0  0  0  0  0  0  0  0  0
    5.8694    3.1701   -4.6415 H   0  0  0  0  0  0  0  0  0  0  0  0
    8.3280    2.8103   -4.5210 H   0  0  0  0  0  0  0  0  0  0  0  0
    7.6676   -1.2669   -3.3390 H   0  0  0  0  0  0  0  0  0  0  0  0
    5.2086   -0.9004   -3.4641 H   0  0  0  0  0  0  0  0  0  0  0  0
    3.6383    1.3929   -4.2186 S   0  0  0  0  0  0  0  0  0  0  0  0
    3.2882    1.0422   -5.6569 O   0  0  0  0  0  0  0  0  0  0  0  0
    3.3735    2.8249   -3.9140 O   0  0  0  0  0  0  0  0  0  0  0  0
    2.9768    0.4456   -3.2773 O   0  0  0  0  0  0  0  0  0  0  0  0
    9.6664    0.5145   -3.8886 C   0  0  0  0  0  0  0  0  0  0  0  0
   10.0557    0.2383   -4.8766 H   0  0  0  0  0  0  0  0  0  0  0  0
   10.1985    1.4172   -3.5731 H   0  0  0  0  0  0  0  0  0  0  0  0
    9.9272   -0.2932   -3.1983 H   0  0  0  0  0  0  0  0  0  0  0  0
  1  7  1  0  0  0  0
  1  6  2  0  0  0  0
  2  1  1  0  0  0  0
  3  2  2  0  0  0  0
  3  4  1  0  0  0  0
  4  5  2  0  0  0  0
  5  6  1  0  0  0  0
  5 10  1  0  0  0  0
  6 11  1  0  0  0  0
  8  2  1  0  0  0  0
  9  4  1  0  0  0  0
 11 13  2  0  0  0  0
 11 12  2  0  0  0  0
 14  3  1  0  0  0  0
 15 14  1  0  0  0  0
 16 17  2  0  0  0  0
 16 21  1  0  0  0  0
 17 18  1  0  0  0  0
 18 30  1  0  0  0  0
 18 19  2  0  0  0  0
 19 24  1  0  0  0  0
 20 19  1  0  0  0  0
 20 25  1  0  0  0  0
 21 20  2  0  0  0  0
 22 16  1  0  0  0  0
 23 17  1  0  0  0  0
 26 21  1  0  0  0  0
 26 28  2  0  0  0  0
 26 29  1  0  0  0  0
 27 26  2  0  0  0  0
 30 32  1  0  0  0  0
 30 33  1  0  0  0  0
 31 30  1  0  0  0  0
M  RAD  3  14   2  15   3  29   2
M  END
