Coordinates from ORCA-job 4-NO2-Ph-N2-OTs-B3LYPG-6-31G_dp-MTMO-d009-169-n800
 OpenBabel09051908313D

 33 33  0  0  0  0  0  0  0  0999 V2000
   -0.1334    1.5433   -0.1383 C   0  0  0  0  0  0  0  0  0  0  0  0
   -0.0725    0.5422   -1.1022 C   0  0  0  0  0  0  0  0  0  0  0  0
    0.4001    0.8556   -2.3809 C   0  0  0  0  0  0  0  0  0  0  0  0
    0.8018    2.1535   -2.7113 C   0  0  0  0  0  0  0  0  0  0  0  0
    0.7329    3.1576   -1.7515 C   0  0  0  0  0  0  0  0  0  0  0  0
    0.2696    2.8348   -0.4768 C   0  0  0  0  0  0  0  0  0  0  0  0
   -0.4927    1.3436    0.8630 H   0  0  0  0  0  0  0  0  0  0  0  0
   -0.3801   -0.4710   -0.8774 H   0  0  0  0  0  0  0  0  0  0  0  0
    1.1534    2.3596   -3.7158 H   0  0  0  0  0  0  0  0  0  0  0  0
    1.0316    4.1751   -1.9687 H   0  0  0  0  0  0  0  0  0  0  0  0
    0.2017    3.8925    0.5424 N   0  0  0  0  0  0  0  0  0  0  0  0
    0.5581    5.0240    0.2146 O   0  0  0  0  0  0  0  0  0  0  0  0
   -0.2054    3.5820    1.6611 O   0  0  0  0  0  0  0  0  0  0  0  0
   15.2774    3.6125   -9.7732 N   0  0  0  0  0  0  0  0  0  0  0  0
   16.1139    3.6532  -10.4945 N   0  0  0  0  0  0  0  0  0  0  0  0
    3.9178   -0.2362   -2.8123 C   0  0  0  0  0  0  0  0  0  0  0  0
    5.1145    0.3622   -3.2036 C   0  0  0  0  0  0  0  0  0  0  0  0
    5.4239    0.5497   -4.5579 C   0  0  0  0  0  0  0  0  0  0  0  0
    4.4987    0.1208   -5.5237 C   0  0  0  0  0  0  0  0  0  0  0  0
    3.2980   -0.4789   -5.1565 C   0  0  0  0  0  0  0  0  0  0  0  0
    3.0195   -0.6498   -3.7974 C   0  0  0  0  0  0  0  0  0  0  0  0
    3.6863   -0.3938   -1.7648 H   0  0  0  0  0  0  0  0  0  0  0  0
    5.8200    0.6862   -2.4437 H   0  0  0  0  0  0  0  0  0  0  0  0
    4.7250    0.2561   -6.5781 H   0  0  0  0  0  0  0  0  0  0  0  0
    2.5906   -0.8217   -5.9036 H   0  0  0  0  0  0  0  0  0  0  0  0
    1.4779   -1.3988   -3.3185 S   0  0  0  0  0  0  0  0  0  0  0  0
    0.4101   -0.0955   -3.3911 O   0  0  0  0  0  0  0  0  0  0  0  0
    1.5696   -1.8383   -1.9301 O   0  0  0  0  0  0  0  0  0  0  0  0
    0.9936   -2.2615   -4.3824 O   0  0  0  0  0  0  0  0  0  0  0  0
    6.7340    1.1721   -4.9739 C   0  0  0  0  0  0  0  0  0  0  0  0
    7.4699    0.3982   -5.2239 H   0  0  0  0  0  0  0  0  0  0  0  0
    6.6125    1.8025   -5.8598 H   0  0  0  0  0  0  0  0  0  0  0  0
    7.1597    1.7830   -4.1733 H   0  0  0  0  0  0  0  0  0  0  0  0
  1  7  1  0  0  0  0
  2  8  1  0  0  0  0
  2  1  2  0  0  0  0
  3  2  1  0  0  0  0
  4  3  2  0  0  0  0
  4  5  1  0  0  0  0
  5  6  2  0  0  0  0
  6  1  1  0  0  0  0
  6 11  1  0  0  0  0
  9  4  1  0  0  0  0
 10  5  1  0  0  0  0
 11 13  2  0  0  0  0
 12 11  2  0  0  0  0
 15 14  3  0  0  0  0
 16 22  1  0  0  0  0
 17 16  1  0  0  0  0
 17 23  1  0  0  0  0
 18 17  2  0  0  0  0
 19 20  2  0  0  0  0
 19 18  1  0  0  0  0
 20 21  1  0  0  0  0
 21 26  1  0  0  0  0
 21 16  2  0  0  0  0
 24 19  1  0  0  0  0
 25 20  1  0  0  0  0
 26 28  2  0  0  0  0
 27 26  1  0  0  0  0
 27  3  1  0  0  0  0
 29 26  2  0  0  0  0
 30 18  1  0  0  0  0
 30 33  1  0  0  0  0
 31 30  1  0  0  0  0
 32 30  1  0  0  0  0
M  END
