Coordinates from ORCA-job 4-NO2-Ph-N2-OTs-B3LYPG-6-31G_dp-MTMO-d009-169-n800
 OpenBabel09051908313D

 33 33  0  0  0  0  0  0  0  0999 V2000
   -0.0160    1.2074   -0.0760 C   0  0  0  0  0  0  0  0  0  0  0  0
    0.1708    0.2302   -1.0480 C   0  0  0  0  0  0  0  0  0  0  0  0
    0.5506    0.6157   -2.3376 C   0  0  0  0  0  0  0  0  0  0  0  0
    0.7393    1.9604   -2.6705 C   0  0  0  0  0  0  0  0  0  0  0  0
    0.5458    2.9396   -1.7020 C   0  0  0  0  0  0  0  0  0  0  0  0
    0.1738    2.5464   -0.4172 C   0  0  0  0  0  0  0  0  0  0  0  0
   -0.3112    0.9526    0.9337 H   0  0  0  0  0  0  0  0  0  0  0  0
    0.0307   -0.8193   -0.8215 H   0  0  0  0  0  0  0  0  0  0  0  0
    1.0266    2.2200   -3.6830 H   0  0  0  0  0  0  0  0  0  0  0  0
    0.6787    3.9917   -1.9203 H   0  0  0  0  0  0  0  0  0  0  0  0
   -0.0268    3.5791    0.6105 N   0  0  0  0  0  0  0  0  0  0  0  0
    0.1520    4.7519    0.2828 O   0  0  0  0  0  0  0  0  0  0  0  0
   -0.3594    3.2082    1.7354 O   0  0  0  0  0  0  0  0  0  0  0  0
   14.1487    1.5393   -8.8788 N   0  0  0  0  0  0  0  0  0  0  0  0
   15.0931    1.3436   -9.4185 N   0  0  0  0  0  0  0  0  0  0  0  0
    4.1889    0.1541   -2.9543 C   0  0  0  0  0  0  0  0  0  0  0  0
    5.2336    0.9602   -3.4045 C   0  0  0  0  0  0  0  0  0  0  0  0
    5.4174    1.2157   -4.7704 C   0  0  0  0  0  0  0  0  0  0  0  0
    4.5230    0.6395   -5.6875 C   0  0  0  0  0  0  0  0  0  0  0  0
    3.4740   -0.1688   -5.2612 C   0  0  0  0  0  0  0  0  0  0  0  0
    3.3169   -0.4016   -3.8915 C   0  0  0  0  0  0  0  0  0  0  0  0
    4.0568   -0.0543   -1.8984 H   0  0  0  0  0  0  0  0  0  0  0  0
    5.9181    1.3947   -2.6816 H   0  0  0  0  0  0  0  0  0  0  0  0
    4.6535    0.8249   -6.7504 H   0  0  0  0  0  0  0  0  0  0  0  0
    2.7924   -0.6237   -5.9717 H   0  0  0  0  0  0  0  0  0  0  0  0
    1.9620   -1.4137   -3.3367 S   0  0  0  0  0  0  0  0  0  0  0  0
    0.6755   -0.3231   -3.3521 O   0  0  0  0  0  0  0  0  0  0  0  0
    2.2004   -1.8196   -1.9557 O   0  0  0  0  0  0  0  0  0  0  0  0
    1.5880   -2.3562   -4.3770 O   0  0  0  0  0  0  0  0  0  0  0  0
    6.5662    2.0672   -5.2522 C   0  0  0  0  0  0  0  0  0  0  0  0
    7.3916    1.4401   -5.6107 H   0  0  0  0  0  0  0  0  0  0  0  0
    6.2652    2.7113   -6.0843 H   0  0  0  0  0  0  0  0  0  0  0  0
    6.9582    2.7015   -4.4530 H   0  0  0  0  0  0  0  0  0  0  0  0
  1  7  1  0  0  0  0
  2  8  1  0  0  0  0
  2  1  2  0  0  0  0
  3  2  1  0  0  0  0
  4  3  2  0  0  0  0
  4  5  1  0  0  0  0
  5  6  2  0  0  0  0
  6  1  1  0  0  0  0
  6 11  1  0  0  0  0
  9  4  1  0  0  0  0
 10  5  1  0  0  0  0
 11 13  2  0  0  0  0
 12 11  2  0  0  0  0
 15 14  3  0  0  0  0
 16 22  1  0  0  0  0
 17 16  1  0  0  0  0
 17 23  1  0  0  0  0
 18 17  2  0  0  0  0
 19 20  2  0  0  0  0
 19 18  1  0  0  0  0
 20 21  1  0  0  0  0
 21 26  1  0  0  0  0
 21 16  2  0  0  0  0
 24 19  1  0  0  0  0
 25 20  1  0  0  0  0
 26 28  2  0  0  0  0
 27 26  1  0  0  0  0
 27  3  1  0  0  0  0
 29 26  2  0  0  0  0
 30 18  1  0  0  0  0
 30 33  1  0  0  0  0
 31 30  1  0  0  0  0
 32 30  1  0  0  0  0
M  END
