Coordinates from ORCA-job 4-NO2-Ph-N2-OTs-B3LYPG-6-31G_dp-MTMO-d009-169-n800
 OpenBabel09051908313D

 33 33  0  0  0  0  0  0  0  0999 V2000
   -0.0282    1.2512   -0.5421 C   0  0  0  0  0  0  0  0  0  0  0  0
    0.3355    0.2643   -1.4525 C   0  0  0  0  0  0  0  0  0  0  0  0
    0.8955    0.6408   -2.6780 C   0  0  0  0  0  0  0  0  0  0  0  0
    1.0873    1.9857   -3.0085 C   0  0  0  0  0  0  0  0  0  0  0  0
    0.7153    2.9740   -2.1033 C   0  0  0  0  0  0  0  0  0  0  0  0
    0.1665    2.5901   -0.8804 C   0  0  0  0  0  0  0  0  0  0  0  0
   -0.4637    1.0026    0.4170 H   0  0  0  0  0  0  0  0  0  0  0  0
    0.1966   -0.7850   -1.2255 H   0  0  0  0  0  0  0  0  0  0  0  0
    1.5148    2.2382   -3.9720 H   0  0  0  0  0  0  0  0  0  0  0  0
    0.8441    4.0263   -2.3235 H   0  0  0  0  0  0  0  0  0  0  0  0
   -0.2220    3.6322    0.0815 N   0  0  0  0  0  0  0  0  0  0  0  0
   -0.0377    4.8051   -0.2431 O   0  0  0  0  0  0  0  0  0  0  0  0
   -0.7061    3.2689    1.1527 O   0  0  0  0  0  0  0  0  0  0  0  0
    7.9274    1.5022   -8.6572 N   0  0  0  0  0  0  0  0  0  0  0  0
    8.4595    1.5730   -9.6231 N   0  0  0  0  0  0  0  0  0  0  0  0
    4.5840    0.2010   -2.6812 C   0  0  0  0  0  0  0  0  0  0  0  0
    5.7057    0.9742   -2.9662 C   0  0  0  0  0  0  0  0  0  0  0  0
    6.1567    1.1434   -4.2852 C   0  0  0  0  0  0  0  0  0  0  0  0
    5.4524    0.5131   -5.3213 C   0  0  0  0  0  0  0  0  0  0  0  0
    4.3259   -0.2642   -5.0594 C   0  0  0  0  0  0  0  0  0  0  0  0
    3.9026   -0.4110   -3.7370 C   0  0  0  0  0  0  0  0  0  0  0  0
    4.2479    0.0557   -1.6606 H   0  0  0  0  0  0  0  0  0  0  0  0
    6.2449    1.4485   -2.1510 H   0  0  0  0  0  0  0  0  0  0  0  0
    5.7962    0.6268   -6.3453 H   0  0  0  0  0  0  0  0  0  0  0  0
    3.7912   -0.7634   -5.8598 H   0  0  0  0  0  0  0  0  0  0  0  0
    2.4635   -1.4003   -3.3936 S   0  0  0  0  0  0  0  0  0  0  0  0
    1.2048   -0.3055   -3.6445 O   0  0  0  0  0  0  0  0  0  0  0  0
    2.4665   -1.7773   -1.9838 O   0  0  0  0  0  0  0  0  0  0  0  0
    2.2590   -2.3649   -4.4607 O   0  0  0  0  0  0  0  0  0  0  0  0
    7.3811    1.9777   -4.5732 C   0  0  0  0  0  0  0  0  0  0  0  0
    7.5894    2.0277   -5.6445 H   0  0  0  0  0  0  0  0  0  0  0  0
    7.2572    3.0014   -4.2029 H   0  0  0  0  0  0  0  0  0  0  0  0
    8.2645    1.5622   -4.0760 H   0  0  0  0  0  0  0  0  0  0  0  0
  1  7  1  0  0  0  0
  2  8  1  0  0  0  0
  2  1  2  0  0  0  0
  3  2  1  0  0  0  0
  4  3  2  0  0  0  0
  4  5  1  0  0  0  0
  5  6  2  0  0  0  0
  6  1  1  0  0  0  0
  6 11  1  0  0  0  0
  9  4  1  0  0  0  0
 10  5  1  0  0  0  0
 11 13  2  0  0  0  0
 12 11  2  0  0  0  0
 15 14  3  0  0  0  0
 16 22  1  0  0  0  0
 17 16  1  0  0  0  0
 17 23  1  0  0  0  0
 18 17  2  0  0  0  0
 19 20  2  0  0  0  0
 19 18  1  0  0  0  0
 20 21  1  0  0  0  0
 21 26  1  0  0  0  0
 21 16  2  0  0  0  0
 24 19  1  0  0  0  0
 25 20  1  0  0  0  0
 26 28  2  0  0  0  0
 27 26  1  0  0  0  0
 27  3  1  0  0  0  0
 29 26  2  0  0  0  0
 30 18  1  0  0  0  0
 30 32  1  0  0  0  0
 30 33  1  0  0  0  0
 31 30  1  0  0  0  0
M  END
