Coordinates from ORCA-job 4-NO2-Ph-N2-OTs-B3LYPG-6-31G_dp-MTMO-d009-169-n800
 OpenBabel09051908313D

 33 33  0  0  0  0  0  0  0  0999 V2000
    0.0376    1.1828   -0.0962 C   0  0  0  0  0  0  0  0  0  0  0  0
    0.2364    0.2091   -1.0694 C   0  0  0  0  0  0  0  0  0  0  0  0
    0.6062    0.6013   -2.3600 C   0  0  0  0  0  0  0  0  0  0  0  0
    0.7729    1.9490   -2.6925 C   0  0  0  0  0  0  0  0  0  0  0  0
    0.5672    2.9244   -1.7228 C   0  0  0  0  0  0  0  0  0  0  0  0
    0.2054    2.5247   -0.4371 C   0  0  0  0  0  0  0  0  0  0  0  0
   -0.2505    0.9227    0.9143 H   0  0  0  0  0  0  0  0  0  0  0  0
    0.1133   -0.8425   -0.8432 H   0  0  0  0  0  0  0  0  0  0  0  0
    1.0528    2.2138   -3.7057 H   0  0  0  0  0  0  0  0  0  0  0  0
    0.6828    3.9787   -1.9409 H   0  0  0  0  0  0  0  0  0  0  0  0
   -0.0081    3.5536    0.5920 N   0  0  0  0  0  0  0  0  0  0  0  0
    0.1512    4.7293    0.2644 O   0  0  0  0  0  0  0  0  0  0  0  0
   -0.3312    3.1768    1.7177 O   0  0  0  0  0  0  0  0  0  0  0  0
   13.3877    1.3780   -8.4898 N   0  0  0  0  0  0  0  0  0  0  0  0
   14.3397    1.1762   -9.0137 N   0  0  0  0  0  0  0  0  0  0  0  0
    4.2508    0.1851   -2.9836 C   0  0  0  0  0  0  0  0  0  0  0  0
    5.2855    1.0034   -3.4349 C   0  0  0  0  0  0  0  0  0  0  0  0
    5.4642    1.2621   -4.8009 C   0  0  0  0  0  0  0  0  0  0  0  0
    4.5748    0.6767   -5.7170 C   0  0  0  0  0  0  0  0  0  0  0  0
    3.5357   -0.1439   -5.2897 C   0  0  0  0  0  0  0  0  0  0  0  0
    3.3837   -0.3796   -3.9199 C   0  0  0  0  0  0  0  0  0  0  0  0
    4.1228   -0.0256   -1.9277 H   0  0  0  0  0  0  0  0  0  0  0  0
    5.9663    1.4451   -2.7127 H   0  0  0  0  0  0  0  0  0  0  0  0
    4.7014    0.8645   -6.7800 H   0  0  0  0  0  0  0  0  0  0  0  0
    2.8582   -0.6060   -5.9994 H   0  0  0  0  0  0  0  0  0  0  0  0
    2.0423   -1.4089   -3.3638 S   0  0  0  0  0  0  0  0  0  0  0  0
    0.7423   -0.3344   -3.3758 O   0  0  0  0  0  0  0  0  0  0  0  0
    2.2883   -1.8133   -1.9836 O   0  0  0  0  0  0  0  0  0  0  0  0
    1.6782   -2.3549   -4.4044 O   0  0  0  0  0  0  0  0  0  0  0  0
    6.6029    2.1263   -5.2838 C   0  0  0  0  0  0  0  0  0  0  0  0
    7.4338    1.5084   -5.6457 H   0  0  0  0  0  0  0  0  0  0  0  0
    6.2933    2.7689   -6.1140 H   0  0  0  0  0  0  0  0  0  0  0  0
    6.9904    2.7631   -4.4845 H   0  0  0  0  0  0  0  0  0  0  0  0
  1  7  1  0  0  0  0
  2  8  1  0  0  0  0
  2  1  2  0  0  0  0
  3  2  1  0  0  0  0
  4  3  2  0  0  0  0
  4  5  1  0  0  0  0
  5  6  2  0  0  0  0
  6  1  1  0  0  0  0
  6 11  1  0  0  0  0
  9  4  1  0  0  0  0
 10  5  1  0  0  0  0
 11 13  2  0  0  0  0
 12 11  2  0  0  0  0
 15 14  3  0  0  0  0
 16 22  1  0  0  0  0
 17 16  1  0  0  0  0
 17 23  1  0  0  0  0
 18 17  2  0  0  0  0
 19 20  2  0  0  0  0
 19 18  1  0  0  0  0
 20 21  1  0  0  0  0
 21 26  1  0  0  0  0
 21 16  2  0  0  0  0
 24 19  1  0  0  0  0
 25 20  1  0  0  0  0
 26 28  2  0  0  0  0
 27 26  1  0  0  0  0
 27  3  1  0  0  0  0
 29 26  2  0  0  0  0
 30 18  1  0  0  0  0
 30 33  1  0  0  0  0
 31 30  1  0  0  0  0
 32 30  1  0  0  0  0
M  END
