Coordinates from ORCA-job 4-NO2-Ph-N2-OTs-B3LYPG-6-31G_dp-MTMO-d009-169-n800
 OpenBabel09051908313D

 33 32  0  0  0  0  0  0  0  0999 V2000
    0.9405    1.1683   -1.8855 C   0  0  0  0  0  0  0  0  0  0  0  0
    0.8614    0.6981   -3.2149 C   0  0  0  0  0  0  0  0  0  0  0  0
   -0.0687    1.2626   -3.8905 C   0  0  0  0  0  0  0  0  0  0  0  0
   -1.0361    2.2143   -3.7014 C   0  0  0  0  0  0  0  0  0  0  0  0
   -0.9556    2.6833   -2.3823 C   0  0  0  0  0  0  0  0  0  0  0  0
    0.0177    2.1574   -1.5147 C   0  0  0  0  0  0  0  0  0  0  0  0
    1.6647    0.8081   -1.1642 H   0  0  0  0  0  0  0  0  0  0  0  0
    2.0863   -0.5244   -3.7868 H   0  0  0  0  0  0  0  0  0  0  0  0
   -1.7559    2.5686   -4.4279 H   0  0  0  0  0  0  0  0  0  0  0  0
   -1.6337    3.4466   -2.0205 H   0  0  0  0  0  0  0  0  0  0  0  0
    0.0668    2.6846   -0.1359 N   0  0  0  0  0  0  0  0  0  0  0  0
   -0.7506    3.5498    0.1744 O   0  0  0  0  0  0  0  0  0  0  0  0
    0.9241    2.2250    0.6146 O   0  0  0  0  0  0  0  0  0  0  0  0
   -0.2378    0.6283   -5.8446 N   0  0  0  0  0  0  0  0  0  0  0  0
    0.1431    0.0138   -6.6820 N   0  0  0  0  0  0  0  0  0  0  0  0
    5.0508    1.4708   -4.1219 C   0  0  0  0  0  0  0  0  0  0  0  0
    6.1244    2.0428   -3.4399 C   0  0  0  0  0  0  0  0  0  0  0  0
    7.2221    1.2706   -3.0374 C   0  0  0  0  0  0  0  0  0  0  0  0
    7.2217   -0.1006   -3.3386 C   0  0  0  0  0  0  0  0  0  0  0  0
    6.1597   -0.6893   -4.0193 C   0  0  0  0  0  0  0  0  0  0  0  0
    5.0768    0.1051   -4.4031 C   0  0  0  0  0  0  0  0  0  0  0  0
    4.2084    2.0725   -4.4452 H   0  0  0  0  0  0  0  0  0  0  0  0
    6.1098    3.1067   -3.2188 H   0  0  0  0  0  0  0  0  0  0  0  0
    8.0668   -0.7145   -3.0378 H   0  0  0  0  0  0  0  0  0  0  0  0
    6.1674   -1.7456   -4.2645 H   0  0  0  0  0  0  0  0  0  0  0  0
    3.6960   -0.6497   -5.2488 S   0  0  0  0  0  0  0  0  0  0  0  0
    2.9425    0.4090   -5.9319 O   0  0  0  0  0  0  0  0  0  0  0  0
    2.7807   -1.2104   -4.0381 O   0  0  0  0  0  0  0  0  0  0  0  0
    4.1780   -1.8201   -5.9698 O   0  0  0  0  0  0  0  0  0  0  0  0
    8.3925    1.8984   -2.3196 C   0  0  0  0  0  0  0  0  0  0  0  0
    9.2416    2.0365   -3.0002 H   0  0  0  0  0  0  0  0  0  0  0  0
    8.1339    2.8795   -1.9131 H   0  0  0  0  0  0  0  0  0  0  0  0
    8.7391    1.2686   -1.4943 H   0  0  0  0  0  0  0  0  0  0  0  0
  1  6  1  0  0  0  0
  1  7  1  0  0  0  0
  2  1  2  0  0  0  0
  3  4  2  0  0  0  0
  3  2  1  0  0  0  0
  4  5  1  0  0  0  0
  5 10  1  0  0  0  0
  5  6  2  0  0  0  0
  6 11  1  0  0  0  0
  9  4  1  0  0  0  0
 11 12  2  0  0  0  0
 11 13  2  0  0  0  0
 15 14  3  0  0  0  0
 16 17  1  0  0  0  0
 17 23  1  0  0  0  0
 17 18  2  0  0  0  0
 18 30  1  0  0  0  0
 19 24  1  0  0  0  0
 19 18  1  0  0  0  0
 20 19  2  0  0  0  0
 21 16  2  0  0  0  0
 21 20  1  0  0  0  0
 22 16  1  0  0  0  0
 25 20  1  0  0  0  0
 26 21  1  0  0  0  0
 26 28  1  0  0  0  0
 27 26  2  0  0  0  0
 28  8  1  0  0  0  0
 29 26  2  0  0  0  0
 30 32  1  0  0  0  0
 30 33  1  0  0  0  0
 31 30  1  0  0  0  0
M  RAD  2   2   2   3   2
M  END
