Coordinates from ORCA-job 4-NO2-Ph-N2-OTs-B3LYPG-6-31G_dp-MTMO-d009-169-n800
 OpenBabel09051908313D

 33 33  0  0  0  0  0  0  0  0999 V2000
    0.0433    0.8420   -1.6223 C   0  0  0  0  0  0  0  0  0  0  0  0
    0.7043    0.0179   -2.5274 C   0  0  0  0  0  0  0  0  0  0  0  0
    1.5294    0.5956   -3.4976 C   0  0  0  0  0  0  0  0  0  0  0  0
    1.6954    1.9811   -3.5820 C   0  0  0  0  0  0  0  0  0  0  0  0
    1.0296    2.8070   -2.6830 C   0  0  0  0  0  0  0  0  0  0  0  0
    0.2162    2.2230   -1.7127 C   0  0  0  0  0  0  0  0  0  0  0  0
   -0.6042    0.4359   -0.8555 H   0  0  0  0  0  0  0  0  0  0  0  0
    0.5942   -1.0586   -2.4886 H   0  0  0  0  0  0  0  0  0  0  0  0
    2.3345    2.3922   -4.3553 H   0  0  0  0  0  0  0  0  0  0  0  0
    1.1304    3.8847   -2.7163 H   0  0  0  0  0  0  0  0  0  0  0  0
   -0.4827    3.0929   -0.7550 N   0  0  0  0  0  0  0  0  0  0  0  0
   -0.3068    4.3071   -0.8543 O   0  0  0  0  0  0  0  0  0  0  0  0
   -1.1983    2.5545    0.0886 O   0  0  0  0  0  0  0  0  0  0  0  0
   -0.1650    0.1612   -6.5790 N   0  0  0  0  0  0  0  0  0  0  0  0
   -0.3666   -0.7502   -7.1706 N   0  0  0  0  0  0  0  0  0  0  0  0
    5.0963    0.3377   -2.5158 C   0  0  0  0  0  0  0  0  0  0  0  0
    6.1569    1.2283   -2.3606 C   0  0  0  0  0  0  0  0  0  0  0  0
    6.8924    1.6820   -3.4647 C   0  0  0  0  0  0  0  0  0  0  0  0
    6.5385    1.2205   -4.7428 C   0  0  0  0  0  0  0  0  0  0  0  0
    5.4835    0.3311   -4.9218 C   0  0  0  0  0  0  0  0  0  0  0  0
    4.7699   -0.1010   -3.8002 C   0  0  0  0  0  0  0  0  0  0  0  0
    4.5380   -0.0236   -1.6597 H   0  0  0  0  0  0  0  0  0  0  0  0
    6.4187    1.5738   -1.3645 H   0  0  0  0  0  0  0  0  0  0  0  0
    7.1005    1.5601   -5.6084 H   0  0  0  0  0  0  0  0  0  0  0  0
    5.2201   -0.0348   -5.9080 H   0  0  0  0  0  0  0  0  0  0  0  0
    3.4082   -1.2249   -4.0229 S   0  0  0  0  0  0  0  0  0  0  0  0
    2.1533   -0.1864   -4.4600 O   0  0  0  0  0  0  0  0  0  0  0  0
    3.0730   -1.8316   -2.7390 O   0  0  0  0  0  0  0  0  0  0  0  0
    3.6015   -2.0070   -5.2319 O   0  0  0  0  0  0  0  0  0  0  0  0
    8.0593    2.6211   -3.2834 C   0  0  0  0  0  0  0  0  0  0  0  0
    8.1570    3.3064   -4.1306 H   0  0  0  0  0  0  0  0  0  0  0  0
    7.9577    3.2150   -2.3711 H   0  0  0  0  0  0  0  0  0  0  0  0
    8.9998    2.0618   -3.2079 H   0  0  0  0  0  0  0  0  0  0  0  0
  1  7  1  0  0  0  0
  2  8  1  0  0  0  0
  2  1  2  0  0  0  0
  3  2  1  0  0  0  0
  4  3  2  0  0  0  0
  4  5  1  0  0  0  0
  5  6  2  0  0  0  0
  6  1  1  0  0  0  0
  6 11  1  0  0  0  0
  9  4  1  0  0  0  0
 10  5  1  0  0  0  0
 11 13  2  0  0  0  0
 12 11  2  0  0  0  0
 15 14  3  0  0  0  0
 16 17  1  0  0  0  0
 16 22  1  0  0  0  0
 17 23  1  0  0  0  0
 18 30  1  0  0  0  0
 18 17  2  0  0  0  0
 19 18  1  0  0  0  0
 20 19  2  0  0  0  0
 20 21  1  0  0  0  0
 21 16  2  0  0  0  0
 24 19  1  0  0  0  0
 25 20  1  0  0  0  0
 26 21  1  0  0  0  0
 26 28  2  0  0  0  0
 27 26  1  0  0  0  0
 27  3  1  0  0  0  0
 29 26  2  0  0  0  0
 30 33  1  0  0  0  0
 30 32  1  0  0  0  0
 31 30  1  0  0  0  0
M  END
