Coordinates from ORCA-job 4-NO2-Ph-N2-OTs-B3LYPG-6-31G_dp-MTMO-d009-169-n800
 OpenBabel09051908313D

 33 33  0  0  0  0  0  0  0  0999 V2000
   -0.0355    1.2418   -0.6886 C   0  0  0  0  0  0  0  0  0  0  0  0
    0.3602    0.2641   -1.5957 C   0  0  0  0  0  0  0  0  0  0  0  0
    0.9645    0.6529   -2.7960 C   0  0  0  0  0  0  0  0  0  0  0  0
    1.1689    2.0011   -3.1051 C   0  0  0  0  0  0  0  0  0  0  0  0
    0.7650    2.9801   -2.2038 C   0  0  0  0  0  0  0  0  0  0  0  0
    0.1721    2.5840   -1.0055 C   0  0  0  0  0  0  0  0  0  0  0  0
   -0.5055    0.9835    0.2515 H   0  0  0  0  0  0  0  0  0  0  0  0
    0.2128   -0.7875   -1.3851 H   0  0  0  0  0  0  0  0  0  0  0  0
    1.6313    2.2633   -4.0498 H   0  0  0  0  0  0  0  0  0  0  0  0
    0.9026    4.0346   -2.4080 H   0  0  0  0  0  0  0  0  0  0  0  0
   -0.2504    3.6163   -0.0475 N   0  0  0  0  0  0  0  0  0  0  0  0
   -0.0544    4.7924   -0.3531 O   0  0  0  0  0  0  0  0  0  0  0  0
   -0.7725    3.2422    1.0021 O   0  0  0  0  0  0  0  0  0  0  0  0
    6.8879    1.1219   -8.8594 N   0  0  0  0  0  0  0  0  0  0  0  0
    7.2372    1.1163   -9.9078 N   0  0  0  0  0  0  0  0  0  0  0  0
    4.6441    0.1701   -2.5847 C   0  0  0  0  0  0  0  0  0  0  0  0
    5.7745    0.9624   -2.7800 C   0  0  0  0  0  0  0  0  0  0  0  0
    6.2725    1.2129   -4.0658 C   0  0  0  0  0  0  0  0  0  0  0  0
    5.6079    0.6482   -5.1673 C   0  0  0  0  0  0  0  0  0  0  0  0
    4.4786   -0.1458   -4.9955 C   0  0  0  0  0  0  0  0  0  0  0  0
    4.0066   -0.3759   -3.6994 C   0  0  0  0  0  0  0  0  0  0  0  0
    4.2688   -0.0353   -1.5886 H   0  0  0  0  0  0  0  0  0  0  0  0
    6.2795    1.3890   -1.9181 H   0  0  0  0  0  0  0  0  0  0  0  0
    5.9844    0.8284   -6.1703 H   0  0  0  0  0  0  0  0  0  0  0  0
    3.9743   -0.5937   -5.8445 H   0  0  0  0  0  0  0  0  0  0  0  0
    2.5562   -1.3817   -3.4733 S   0  0  0  0  0  0  0  0  0  0  0  0
    1.3090   -0.2832   -3.7605 O   0  0  0  0  0  0  0  0  0  0  0  0
    2.4799   -1.8067   -2.0794 O   0  0  0  0  0  0  0  0  0  0  0  0
    2.4173   -2.3100   -4.5822 O   0  0  0  0  0  0  0  0  0  0  0  0
    7.5129    2.0478   -4.2678 C   0  0  0  0  0  0  0  0  0  0  0  0
    7.3991    2.7318   -5.1146 H   0  0  0  0  0  0  0  0  0  0  0  0
    7.7487    2.6387   -3.3791 H   0  0  0  0  0  0  0  0  0  0  0  0
    8.3797    1.4108   -4.4812 H   0  0  0  0  0  0  0  0  0  0  0  0
  1  7  1  0  0  0  0
  2  8  1  0  0  0  0
  2  1  2  0  0  0  0
  3  2  1  0  0  0  0
  4  3  2  0  0  0  0
  4  5  1  0  0  0  0
  5  6  2  0  0  0  0
  6  1  1  0  0  0  0
  6 11  1  0  0  0  0
  9  4  1  0  0  0  0
 10  5  1  0  0  0  0
 11 13  2  0  0  0  0
 12 11  2  0  0  0  0
 15 14  3  0  0  0  0
 16 22  1  0  0  0  0
 17 16  1  0  0  0  0
 17 23  1  0  0  0  0
 18 17  2  0  0  0  0
 19 20  2  0  0  0  0
 19 18  1  0  0  0  0
 20 21  1  0  0  0  0
 21 26  1  0  0  0  0
 21 16  2  0  0  0  0
 24 19  1  0  0  0  0
 25 20  1  0  0  0  0
 26 28  2  0  0  0  0
 27 26  1  0  0  0  0
 27  3  1  0  0  0  0
 29 26  2  0  0  0  0
 30 18  1  0  0  0  0
 30 32  1  0  0  0  0
 31 30  1  0  0  0  0
 33 30  1  0  0  0  0
M  END
