Coordinates from ORCA-job 4-NO2-Ph-N2-OTs-B3LYPG-6-31G_dp-MTMO-d009-169-n800
 OpenBabel09051908313D

 33 32  0  0  0  0  0  0  0  0999 V2000
    0.6362    1.0637   -1.3747 C   0  0  0  0  0  0  0  0  0  0  0  0
    0.8213    0.6373   -2.6924 C   0  0  0  0  0  0  0  0  0  0  0  0
    0.2111    1.2268   -3.6181 C   0  0  0  0  0  0  0  0  0  0  0  0
   -0.6602    2.2819   -3.7052 C   0  0  0  0  0  0  0  0  0  0  0  0
   -0.8801    2.7577   -2.3976 C   0  0  0  0  0  0  0  0  0  0  0  0
   -0.2470    2.1591   -1.2902 C   0  0  0  0  0  0  0  0  0  0  0  0
    1.0953    0.6455   -0.4885 H   0  0  0  0  0  0  0  0  0  0  0  0
    2.2037   -0.6879   -3.5325 H   0  0  0  0  0  0  0  0  0  0  0  0
   -1.1225    2.6995   -4.5890 H   0  0  0  0  0  0  0  0  0  0  0  0
   -1.5460    3.5951   -2.2244 H   0  0  0  0  0  0  0  0  0  0  0  0
   -0.5252    2.7186    0.0473 N   0  0  0  0  0  0  0  0  0  0  0  0
   -1.2966    3.6734    0.1209 O   0  0  0  0  0  0  0  0  0  0  0  0
    0.0360    2.1919    1.0058 O   0  0  0  0  0  0  0  0  0  0  0  0
   -0.1751    0.6397   -6.5785 N   0  0  0  0  0  0  0  0  0  0  0  0
    0.0579    0.0450   -7.4799 N   0  0  0  0  0  0  0  0  0  0  0  0
    5.0933    1.4574   -4.0527 C   0  0  0  0  0  0  0  0  0  0  0  0
    6.2194    2.0331   -3.4647 C   0  0  0  0  0  0  0  0  0  0  0  0
    7.3657    1.2735   -3.1966 C   0  0  0  0  0  0  0  0  0  0  0  0
    7.3612   -0.0889   -3.5369 C   0  0  0  0  0  0  0  0  0  0  0  0
    6.2483   -0.6813   -4.1258 C   0  0  0  0  0  0  0  0  0  0  0  0
    5.1178    0.1010   -4.3753 C   0  0  0  0  0  0  0  0  0  0  0  0
    4.2118    2.0496   -4.2731 H   0  0  0  0  0  0  0  0  0  0  0  0
    6.2075    3.0898   -3.2126 H   0  0  0  0  0  0  0  0  0  0  0  0
    8.2436   -0.6922   -3.3400 H   0  0  0  0  0  0  0  0  0  0  0  0
    6.2521   -1.7298   -4.4022 H   0  0  0  0  0  0  0  0  0  0  0  0
    3.6779   -0.6560   -5.1081 S   0  0  0  0  0  0  0  0  0  0  0  0
    2.8141    0.4002   -5.6438 O   0  0  0  0  0  0  0  0  0  0  0  0
    2.9129   -1.3064   -3.8207 O   0  0  0  0  0  0  0  0  0  0  0  0
    4.1074   -1.7824   -5.9233 O   0  0  0  0  0  0  0  0  0  0  0  0
    8.5898    1.9032   -2.5766 C   0  0  0  0  0  0  0  0  0  0  0  0
    9.3913    2.0143   -3.3169 H   0  0  0  0  0  0  0  0  0  0  0  0
    8.3707    2.8958   -2.1753 H   0  0  0  0  0  0  0  0  0  0  0  0
    8.9848    1.2866   -1.7628 H   0  0  0  0  0  0  0  0  0  0  0  0
  1  6  1  0  0  0  0
  1  7  1  0  0  0  0
  2  1  2  0  0  0  0
  3  2  1  0  0  0  0
  4  3  2  0  0  0  0
  4  5  1  0  0  0  0
  5 10  1  0  0  0  0
  5  6  2  0  0  0  0
  6 11  1  0  0  0  0
  9  4  1  0  0  0  0
 11 12  2  0  0  0  0
 11 13  2  0  0  0  0
 15 14  3  0  0  0  0
 16 17  2  0  0  0  0
 17 23  1  0  0  0  0
 17 18  1  0  0  0  0
 18 30  1  0  0  0  0
 19 24  1  0  0  0  0
 19 18  2  0  0  0  0
 20 19  1  0  0  0  0
 21 20  2  0  0  0  0
 21 16  1  0  0  0  0
 22 16  1  0  0  0  0
 25 20  1  0  0  0  0
 26 21  1  0  0  0  0
 26 28  1  0  0  0  0
 27 26  2  0  0  0  0
 28  8  1  0  0  0  0
 29 26  2  0  0  0  0
 30 32  1  0  0  0  0
 30 33  1  0  0  0  0
 31 30  1  0  0  0  0
M  RAD  2   2   2   3   2
M  END
