Coordinates from ORCA-job 4-NO2-Ph-N2-OTs-B3LYPG-6-31G_dp-MTMO-d009-169-n800
 OpenBabel09051908313D

 33 33  0  0  0  0  0  0  0  0999 V2000
    0.0039    1.2155   -0.4463 C   0  0  0  0  0  0  0  0  0  0  0  0
    0.3380    0.2394   -1.3794 C   0  0  0  0  0  0  0  0  0  0  0  0
    0.8602    0.6300   -2.6170 C   0  0  0  0  0  0  0  0  0  0  0  0
    1.0437    1.9786   -2.9371 C   0  0  0  0  0  0  0  0  0  0  0  0
    0.7017    2.9562   -2.0089 C   0  0  0  0  0  0  0  0  0  0  0  0
    0.1902    2.5581   -0.7744 C   0  0  0  0  0  0  0  0  0  0  0  0
   -0.4023    0.9559    0.5227 H   0  0  0  0  0  0  0  0  0  0  0  0
    0.2047   -0.8125   -1.1608 H   0  0  0  0  0  0  0  0  0  0  0  0
    1.4421    2.2420   -3.9101 H   0  0  0  0  0  0  0  0  0  0  0  0
    0.8253    4.0110   -2.2200 H   0  0  0  0  0  0  0  0  0  0  0  0
   -0.1665    3.5890    0.2117 N   0  0  0  0  0  0  0  0  0  0  0  0
    0.0111    4.7655   -0.1036 O   0  0  0  0  0  0  0  0  0  0  0  0
   -0.6192    3.2133    1.2923 O   0  0  0  0  0  0  0  0  0  0  0  0
    8.6610    1.2978   -8.4630 N   0  0  0  0  0  0  0  0  0  0  0  0
    9.3995    1.2503   -9.2837 N   0  0  0  0  0  0  0  0  0  0  0  0
    4.5509    0.2170   -2.7645 C   0  0  0  0  0  0  0  0  0  0  0  0
    5.6521    1.0064   -3.0870 C   0  0  0  0  0  0  0  0  0  0  0  0
    6.0403    1.2030   -4.4212 C   0  0  0  0  0  0  0  0  0  0  0  0
    5.2985    0.5773   -5.4347 C   0  0  0  0  0  0  0  0  0  0  0  0
    4.1933   -0.2155   -5.1359 C   0  0  0  0  0  0  0  0  0  0  0  0
    3.8293   -0.3853   -3.7979 C   0  0  0  0  0  0  0  0  0  0  0  0
    4.2638    0.0505   -1.7323 H   0  0  0  0  0  0  0  0  0  0  0  0
    6.2242    1.4709   -2.2889 H   0  0  0  0  0  0  0  0  0  0  0  0
    5.5976    0.7058   -6.4711 H   0  0  0  0  0  0  0  0  0  0  0  0
    3.6309   -0.7114   -5.9192 H   0  0  0  0  0  0  0  0  0  0  0  0
    2.4147   -1.3922   -3.4074 S   0  0  0  0  0  0  0  0  0  0  0  0
    1.1382   -0.3063   -3.6027 O   0  0  0  0  0  0  0  0  0  0  0  0
    2.4742   -1.7790   -2.0016 O   0  0  0  0  0  0  0  0  0  0  0  0
    2.1786   -2.3510   -4.4732 O   0  0  0  0  0  0  0  0  0  0  0  0
    7.2207    2.0803   -4.7579 C   0  0  0  0  0  0  0  0  0  0  0  0
    7.6223    1.8486   -5.7476 H   0  0  0  0  0  0  0  0  0  0  0  0
    6.9304    3.1385   -4.7595 H   0  0  0  0  0  0  0  0  0  0  0  0
    8.0250    1.9669   -4.0243 H   0  0  0  0  0  0  0  0  0  0  0  0
  1  7  1  0  0  0  0
  2  8  1  0  0  0  0
  2  1  2  0  0  0  0
  3  2  1  0  0  0  0
  4  3  2  0  0  0  0
  4  5  1  0  0  0  0
  5  6  2  0  0  0  0
  6  1  1  0  0  0  0
  6 11  1  0  0  0  0
  9  4  1  0  0  0  0
 10  5  1  0  0  0  0
 11 13  2  0  0  0  0
 12 11  2  0  0  0  0
 15 14  3  0  0  0  0
 16 22  1  0  0  0  0
 17 16  1  0  0  0  0
 17 23  1  0  0  0  0
 18 17  2  0  0  0  0
 19 20  2  0  0  0  0
 19 18  1  0  0  0  0
 20 21  1  0  0  0  0
 21 26  1  0  0  0  0
 21 16  2  0  0  0  0
 24 19  1  0  0  0  0
 25 20  1  0  0  0  0
 26 28  2  0  0  0  0
 27 26  1  0  0  0  0
 27  3  1  0  0  0  0
 29 26  2  0  0  0  0
 30 18  1  0  0  0  0
 30 33  1  0  0  0  0
 31 30  1  0  0  0  0
 32 30  1  0  0  0  0
M  END
