Coordinates from ORCA-job 4-NO2-Ph-N2-OTs-B3LYPG-6-31G_dp-MTMO-d009-169-n800
 OpenBabel09051908313D

 33 33  0  0  0  0  0  0  0  0999 V2000
   -0.0907    1.1344   -0.8039 C   0  0  0  0  0  0  0  0  0  0  0  0
    0.3384    0.2476   -1.7860 C   0  0  0  0  0  0  0  0  0  0  0  0
    1.0151    0.7451   -2.9047 C   0  0  0  0  0  0  0  0  0  0  0  0
    1.2610    2.1128   -3.0587 C   0  0  0  0  0  0  0  0  0  0  0  0
    0.8252    3.0018   -2.0819 C   0  0  0  0  0  0  0  0  0  0  0  0
    0.1584    2.4970   -0.9660 C   0  0  0  0  0  0  0  0  0  0  0  0
   -0.6178    0.7908    0.0771 H   0  0  0  0  0  0  0  0  0  0  0  0
    0.1605   -0.8165   -1.6959 H   0  0  0  0  0  0  0  0  0  0  0  0
    1.7800    2.4610   -3.9446 H   0  0  0  0  0  0  0  0  0  0  0  0
    0.9934    4.0682   -2.1658 H   0  0  0  0  0  0  0  0  0  0  0  0
   -0.2990    3.4334    0.0712 N   0  0  0  0  0  0  0  0  0  0  0  0
   -0.0646    4.6299   -0.0971 O   0  0  0  0  0  0  0  0  0  0  0  0
   -0.8866    2.9641    1.0451 O   0  0  0  0  0  0  0  0  0  0  0  0
    6.1877    0.1873   -8.8348 N   0  0  0  0  0  0  0  0  0  0  0  0
    6.3755   -0.3014   -9.8080 N   0  0  0  0  0  0  0  0  0  0  0  0
    4.6821    0.2416   -2.6333 C   0  0  0  0  0  0  0  0  0  0  0  0
    5.8188    1.0422   -2.7286 C   0  0  0  0  0  0  0  0  0  0  0  0
    6.3658    1.3821   -3.9739 C   0  0  0  0  0  0  0  0  0  0  0  0
    5.7435    0.8987   -5.1362 C   0  0  0  0  0  0  0  0  0  0  0  0
    4.6075    0.0983   -5.0647 C   0  0  0  0  0  0  0  0  0  0  0  0
    4.0863   -0.2213   -3.8078 C   0  0  0  0  0  0  0  0  0  0  0  0
    4.2694   -0.0332   -1.6692 H   0  0  0  0  0  0  0  0  0  0  0  0
    6.2901    1.4058   -1.8199 H   0  0  0  0  0  0  0  0  0  0  0  0
    6.1548    1.1458   -6.1105 H   0  0  0  0  0  0  0  0  0  0  0  0
    4.1365   -0.2848   -5.9630 H   0  0  0  0  0  0  0  0  0  0  0  0
    2.6227   -1.2282   -3.7095 S   0  0  0  0  0  0  0  0  0  0  0  0
    1.3941   -0.0958   -3.9414 O   0  0  0  0  0  0  0  0  0  0  0  0
    2.4990   -1.7660   -2.3586 O   0  0  0  0  0  0  0  0  0  0  0  0
    2.5122   -2.0601   -4.8955 O   0  0  0  0  0  0  0  0  0  0  0  0
    7.6150    2.2232   -4.0652 C   0  0  0  0  0  0  0  0  0  0  0  0
    7.5923    2.8791   -4.9405 H   0  0  0  0  0  0  0  0  0  0  0  0
    7.7472    2.8435   -3.1746 H   0  0  0  0  0  0  0  0  0  0  0  0
    8.5046    1.5884   -4.1580 H   0  0  0  0  0  0  0  0  0  0  0  0
  1  7  1  0  0  0  0
  2  8  1  0  0  0  0
  2  1  2  0  0  0  0
  3  2  1  0  0  0  0
  4  3  2  0  0  0  0
  4  5  1  0  0  0  0
  5  6  2  0  0  0  0
  6  1  1  0  0  0  0
  6 11  1  0  0  0  0
  9  4  1  0  0  0  0
 10  5  1  0  0  0  0
 11 13  2  0  0  0  0
 12 11  2  0  0  0  0
 15 14  3  0  0  0  0
 16 22  1  0  0  0  0
 17 16  1  0  0  0  0
 17 23  1  0  0  0  0
 18 17  2  0  0  0  0
 19 20  2  0  0  0  0
 19 18  1  0  0  0  0
 20 21  1  0  0  0  0
 21 26  1  0  0  0  0
 21 16  2  0  0  0  0
 24 19  1  0  0  0  0
 25 20  1  0  0  0  0
 26 28  2  0  0  0  0
 27 26  1  0  0  0  0
 27  3  1  0  0  0  0
 29 26  2  0  0  0  0
 30 18  1  0  0  0  0
 30 32  1  0  0  0  0
 31 30  1  0  0  0  0
 33 30  1  0  0  0  0
M  END
