Coordinates from ORCA-job 4-NO2-Ph-N2-OTs-B3LYPG-6-31G_dp-MTMO-d009-169-n800
 OpenBabel09051908313D

 33 33  0  0  0  0  0  0  0  0999 V2000
   -0.0043    1.1989   -0.0786 C   0  0  0  0  0  0  0  0  0  0  0  0
    0.1863    0.2227   -1.0510 C   0  0  0  0  0  0  0  0  0  0  0  0
    0.5625    0.6105   -2.3410 C   0  0  0  0  0  0  0  0  0  0  0  0
    0.7438    1.9562   -2.6739 C   0  0  0  0  0  0  0  0  0  0  0  0
    0.5465    2.9342   -1.7050 C   0  0  0  0  0  0  0  0  0  0  0  0
    0.1782    2.5388   -0.4198 C   0  0  0  0  0  0  0  0  0  0  0  0
   -0.2969    0.9423    0.9315 H   0  0  0  0  0  0  0  0  0  0  0  0
    0.0519   -0.8275   -0.8245 H   0  0  0  0  0  0  0  0  0  0  0  0
    1.0284    2.2175   -3.6867 H   0  0  0  0  0  0  0  0  0  0  0  0
    0.6736    3.9870   -1.9233 H   0  0  0  0  0  0  0  0  0  0  0  0
   -0.0265    3.5703    0.6084 N   0  0  0  0  0  0  0  0  0  0  0  0
    0.1458    4.7441    0.2807 O   0  0  0  0  0  0  0  0  0  0  0  0
   -0.3558    3.1974    1.7337 O   0  0  0  0  0  0  0  0  0  0  0  0
   14.0031    1.4865   -8.7995 N   0  0  0  0  0  0  0  0  0  0  0  0
   14.9492    1.2881   -9.3355 N   0  0  0  0  0  0  0  0  0  0  0  0
    4.2027    0.1645   -2.9613 C   0  0  0  0  0  0  0  0  0  0  0  0
    5.2438    0.9749   -3.4123 C   0  0  0  0  0  0  0  0  0  0  0  0
    5.4252    1.2316   -4.7783 C   0  0  0  0  0  0  0  0  0  0  0  0
    4.5323    0.6522   -5.6947 C   0  0  0  0  0  0  0  0  0  0  0  0
    3.4868   -0.1605   -5.2677 C   0  0  0  0  0  0  0  0  0  0  0  0
    3.3321   -0.3943   -3.8979 C   0  0  0  0  0  0  0  0  0  0  0  0
    4.0725   -0.0447   -1.9054 H   0  0  0  0  0  0  0  0  0  0  0  0
    5.9273    1.4120   -2.6899 H   0  0  0  0  0  0  0  0  0  0  0  0
    4.6609    0.8385   -6.7577 H   0  0  0  0  0  0  0  0  0  0  0  0
    2.8064   -0.6179   -5.9776 H   0  0  0  0  0  0  0  0  0  0  0  0
    1.9821   -1.4124   -3.3421 S   0  0  0  0  0  0  0  0  0  0  0  0
    0.6908   -0.3274   -3.3559 O   0  0  0  0  0  0  0  0  0  0  0  0
    2.2235   -1.8177   -1.9614 O   0  0  0  0  0  0  0  0  0  0  0  0
    1.6111   -2.3562   -4.3823 O   0  0  0  0  0  0  0  0  0  0  0  0
    6.5703    2.0876   -5.2609 C   0  0  0  0  0  0  0  0  0  0  0  0
    7.3980    1.4636   -5.6198 H   0  0  0  0  0  0  0  0  0  0  0  0
    6.2663    2.7304   -6.0929 H   0  0  0  0  0  0  0  0  0  0  0  0
    6.9604    2.7235   -4.4620 H   0  0  0  0  0  0  0  0  0  0  0  0
  1  7  1  0  0  0  0
  2  8  1  0  0  0  0
  2  1  2  0  0  0  0
  3  2  1  0  0  0  0
  4  3  2  0  0  0  0
  4  5  1  0  0  0  0
  5  6  2  0  0  0  0
  6  1  1  0  0  0  0
  6 11  1  0  0  0  0
  9  4  1  0  0  0  0
 10  5  1  0  0  0  0
 11 13  2  0  0  0  0
 12 11  2  0  0  0  0
 15 14  3  0  0  0  0
 16 22  1  0  0  0  0
 17 16  1  0  0  0  0
 17 23  1  0  0  0  0
 18 17  2  0  0  0  0
 19 20  2  0  0  0  0
 19 18  1  0  0  0  0
 20 21  1  0  0  0  0
 21 26  1  0  0  0  0
 21 16  2  0  0  0  0
 24 19  1  0  0  0  0
 25 20  1  0  0  0  0
 26 28  2  0  0  0  0
 27 26  1  0  0  0  0
 27  3  1  0  0  0  0
 29 26  2  0  0  0  0
 30 18  1  0  0  0  0
 30 33  1  0  0  0  0
 31 30  1  0  0  0  0
 32 30  1  0  0  0  0
M  END
