Coordinates from ORCA-job 4-NO2-Ph-N2-OTs-B3LYPG-6-31G_dp-MTMO-d009-169-n800
 OpenBabel09051908313D

 33 33  0  0  0  0  0  0  0  0999 V2000
    0.2111    1.1297   -0.1878 C   0  0  0  0  0  0  0  0  0  0  0  0
    0.4506    0.1723   -1.1679 C   0  0  0  0  0  0  0  0  0  0  0  0
    0.8070    0.5890   -2.4547 C   0  0  0  0  0  0  0  0  0  0  0  0
    0.9196    1.9449   -2.7765 C   0  0  0  0  0  0  0  0  0  0  0  0
    0.6723    2.9038   -1.8000 C   0  0  0  0  0  0  0  0  0  0  0  0
    0.3249    2.4800   -0.5180 C   0  0  0  0  0  0  0  0  0  0  0  0
   -0.0681    0.8504    0.8201 H   0  0  0  0  0  0  0  0  0  0  0  0
    0.3698   -0.8851   -0.9495 H   0  0  0  0  0  0  0  0  0  0  0  0
    1.1897    2.2288   -3.7871 H   0  0  0  0  0  0  0  0  0  0  0  0
    0.7449    3.9635   -2.0101 H   0  0  0  0  0  0  0  0  0  0  0  0
    0.0679    3.4913    0.5183 N   0  0  0  0  0  0  0  0  0  0  0  0
    0.1782    4.6751    0.1997 O   0  0  0  0  0  0  0  0  0  0  0  0
   -0.2403    3.0931    1.6409 O   0  0  0  0  0  0  0  0  0  0  0  0
   10.3910    0.9290   -7.0455 N   0  0  0  0  0  0  0  0  0  0  0  0
   11.3825    0.7136   -7.4835 N   0  0  0  0  0  0  0  0  0  0  0  0
    4.4818    0.2693   -3.0870 C   0  0  0  0  0  0  0  0  0  0  0  0
    5.5029    1.1037   -3.5400 C   0  0  0  0  0  0  0  0  0  0  0  0
    5.6806    1.3595   -4.9067 C   0  0  0  0  0  0  0  0  0  0  0  0
    4.8030    0.7546   -5.8218 C   0  0  0  0  0  0  0  0  0  0  0  0
    3.7777   -0.0822   -5.3931 C   0  0  0  0  0  0  0  0  0  0  0  0
    3.6270   -0.3150   -4.0226 C   0  0  0  0  0  0  0  0  0  0  0  0
    4.3558    0.0603   -2.0306 H   0  0  0  0  0  0  0  0  0  0  0  0
    6.1744    1.5602   -2.8183 H   0  0  0  0  0  0  0  0  0  0  0  0
    4.9285    0.9400   -6.8853 H   0  0  0  0  0  0  0  0  0  0  0  0
    3.1104   -0.5597   -6.1022 H   0  0  0  0  0  0  0  0  0  0  0  0
    2.3089   -1.3732   -3.4654 S   0  0  0  0  0  0  0  0  0  0  0  0
    0.9825   -0.3309   -3.4788 O   0  0  0  0  0  0  0  0  0  0  0  0
    2.5640   -1.7707   -2.0848 O   0  0  0  0  0  0  0  0  0  0  0  0
    1.9677   -2.3288   -4.5051 O   0  0  0  0  0  0  0  0  0  0  0  0
    6.8042    2.2421   -5.3915 C   0  0  0  0  0  0  0  0  0  0  0  0
    7.6411    1.6408   -5.7670 H   0  0  0  0  0  0  0  0  0  0  0  0
    6.4780    2.8881   -6.2128 H   0  0  0  0  0  0  0  0  0  0  0  0
    7.1889    2.8775   -4.5897 H   0  0  0  0  0  0  0  0  0  0  0  0
  1  7  1  0  0  0  0
  2  8  1  0  0  0  0
  2  1  2  0  0  0  0
  3  2  1  0  0  0  0
  4  3  2  0  0  0  0
  4  5  1  0  0  0  0
  5  6  2  0  0  0  0
  6  1  1  0  0  0  0
  6 11  1  0  0  0  0
  9  4  1  0  0  0  0
 10  5  1  0  0  0  0
 11 13  2  0  0  0  0
 12 11  2  0  0  0  0
 15 14  3  0  0  0  0
 16 22  1  0  0  0  0
 17 16  1  0  0  0  0
 17 23  1  0  0  0  0
 18 17  2  0  0  0  0
 19 20  2  0  0  0  0
 19 18  1  0  0  0  0
 20 21  1  0  0  0  0
 21 26  1  0  0  0  0
 21 16  2  0  0  0  0
 24 19  1  0  0  0  0
 25 20  1  0  0  0  0
 26 28  2  0  0  0  0
 27 26  1  0  0  0  0
 27  3  1  0  0  0  0
 29 26  2  0  0  0  0
 30 18  1  0  0  0  0
 30 33  1  0  0  0  0
 31 30  1  0  0  0  0
 32 30  1  0  0  0  0
M  END
