Coordinates from ORCA-job 4-NO2-Ph-N2-OTs-B3LYPG-6-31G_dp-MTMO-d009-169-n800
 OpenBabel09051908313D

 33 33  0  0  0  0  0  0  0  0999 V2000
    0.1544    1.1555   -0.1734 C   0  0  0  0  0  0  0  0  0  0  0  0
    0.3837    0.1948   -1.1528 C   0  0  0  0  0  0  0  0  0  0  0  0
    0.7599    0.6061   -2.4357 C   0  0  0  0  0  0  0  0  0  0  0  0
    0.9027    1.9599   -2.7543 C   0  0  0  0  0  0  0  0  0  0  0  0
    0.6661    2.9222   -1.7785 C   0  0  0  0  0  0  0  0  0  0  0  0
    0.2984    2.5037   -0.5005 C   0  0  0  0  0  0  0  0  0  0  0  0
   -0.1394    0.8804    0.8314 H   0  0  0  0  0  0  0  0  0  0  0  0
    0.2797   -0.8610   -0.9369 H   0  0  0  0  0  0  0  0  0  0  0  0
    1.1879    2.2396   -3.7620 H   0  0  0  0  0  0  0  0  0  0  0  0
    0.7622    3.9805   -1.9862 H   0  0  0  0  0  0  0  0  0  0  0  0
    0.0525    3.5185    0.5351 N   0  0  0  0  0  0  0  0  0  0  0  0
    0.1908    4.7002    0.2197 O   0  0  0  0  0  0  0  0  0  0  0  0
   -0.2751    3.1250    1.6539 O   0  0  0  0  0  0  0  0  0  0  0  0
   10.9718    1.1794   -7.3632 N   0  0  0  0  0  0  0  0  0  0  0  0
   11.9577    0.9874   -7.8243 N   0  0  0  0  0  0  0  0  0  0  0  0
    4.4324    0.2333   -3.0623 C   0  0  0  0  0  0  0  0  0  0  0  0
    5.4674    1.0497   -3.5167 C   0  0  0  0  0  0  0  0  0  0  0  0
    5.6532    1.2948   -4.8842 C   0  0  0  0  0  0  0  0  0  0  0  0
    4.7695    0.6980   -5.7988 C   0  0  0  0  0  0  0  0  0  0  0  0
    3.7304   -0.1209   -5.3685 C   0  0  0  0  0  0  0  0  0  0  0  0
    3.5718   -0.3435   -3.9972 C   0  0  0  0  0  0  0  0  0  0  0  0
    4.3003    0.0322   -2.0050 H   0  0  0  0  0  0  0  0  0  0  0  0
    6.1435    1.5001   -2.7955 H   0  0  0  0  0  0  0  0  0  0  0  0
    4.9011    0.8751   -6.8630 H   0  0  0  0  0  0  0  0  0  0  0  0
    3.0583   -0.5925   -6.0771 H   0  0  0  0  0  0  0  0  0  0  0  0
    2.2361   -1.3789   -3.4383 S   0  0  0  0  0  0  0  0  0  0  0  0
    0.9261   -0.3163   -3.4591 O   0  0  0  0  0  0  0  0  0  0  0  0
    2.4818   -1.7741   -2.0554 O   0  0  0  0  0  0  0  0  0  0  0  0
    1.8831   -2.3335   -4.4749 O   0  0  0  0  0  0  0  0  0  0  0  0
    6.7908    2.1586   -5.3709 C   0  0  0  0  0  0  0  0  0  0  0  0
    7.6145    1.5432   -5.7530 H   0  0  0  0  0  0  0  0  0  0  0  0
    6.4730    2.8138   -6.1881 H   0  0  0  0  0  0  0  0  0  0  0  0
    7.1915    2.7833   -4.5686 H   0  0  0  0  0  0  0  0  0  0  0  0
  1  7  1  0  0  0  0
  2  8  1  0  0  0  0
  2  1  2  0  0  0  0
  3  2  1  0  0  0  0
  4  3  2  0  0  0  0
  4  5  1  0  0  0  0
  5  6  2  0  0  0  0
  6  1  1  0  0  0  0
  6 11  1  0  0  0  0
  9  4  1  0  0  0  0
 10  5  1  0  0  0  0
 11 13  2  0  0  0  0
 12 11  2  0  0  0  0
 15 14  3  0  0  0  0
 16 22  1  0  0  0  0
 17 16  1  0  0  0  0
 17 23  1  0  0  0  0
 18 17  2  0  0  0  0
 19 20  2  0  0  0  0
 19 18  1  0  0  0  0
 20 21  1  0  0  0  0
 21 26  1  0  0  0  0
 21 16  2  0  0  0  0
 24 19  1  0  0  0  0
 25 20  1  0  0  0  0
 26 28  2  0  0  0  0
 27 26  1  0  0  0  0
 27  3  1  0  0  0  0
 29 26  2  0  0  0  0
 30 18  1  0  0  0  0
 30 33  1  0  0  0  0
 31 30  1  0  0  0  0
 32 30  1  0  0  0  0
M  END
