Coordinates from ORCA-job 4-NO2-Ph-N2-OTs-B3LYPG-6-31G_dp-MTMO-d009-169-n800
 OpenBabel09051908313D

 33 33  0  0  0  0  0  0  0  0999 V2000
    0.1150    1.1723   -0.1433 C   0  0  0  0  0  0  0  0  0  0  0  0
    0.3231    0.2012   -1.1171 C   0  0  0  0  0  0  0  0  0  0  0  0
    0.6932    0.5975   -2.4064 C   0  0  0  0  0  0  0  0  0  0  0  0
    0.8511    1.9467   -2.7370 C   0  0  0  0  0  0  0  0  0  0  0  0
    0.6361    2.9195   -1.7666 C   0  0  0  0  0  0  0  0  0  0  0  0
    0.2741    2.5158   -0.4822 C   0  0  0  0  0  0  0  0  0  0  0  0
   -0.1736    0.9090    0.8662 H   0  0  0  0  0  0  0  0  0  0  0  0
    0.2070   -0.8516   -0.8924 H   0  0  0  0  0  0  0  0  0  0  0  0
    1.1314    2.2147   -3.7492 H   0  0  0  0  0  0  0  0  0  0  0  0
    0.7446    3.9749   -1.9833 H   0  0  0  0  0  0  0  0  0  0  0  0
    0.0508    3.5419    0.5474 N   0  0  0  0  0  0  0  0  0  0  0  0
    0.2023    4.7191    0.2216 O   0  0  0  0  0  0  0  0  0  0  0  0
   -0.2723    3.1615    1.6720 O   0  0  0  0  0  0  0  0  0  0  0  0
   12.0495    1.2903   -7.8546 N   0  0  0  0  0  0  0  0  0  0  0  0
   13.0147    1.0827   -8.3516 N   0  0  0  0  0  0  0  0  0  0  0  0
    4.3433    0.2013   -3.0229 C   0  0  0  0  0  0  0  0  0  0  0  0
    5.3757    1.0239   -3.4718 C   0  0  0  0  0  0  0  0  0  0  0  0
    5.5570    1.2827   -4.8373 C   0  0  0  0  0  0  0  0  0  0  0  0
    4.6726    0.6930   -5.7556 C   0  0  0  0  0  0  0  0  0  0  0  0
    3.6360   -0.1319   -5.3307 C   0  0  0  0  0  0  0  0  0  0  0  0
    3.4814   -0.3678   -3.9612 C   0  0  0  0  0  0  0  0  0  0  0  0
    4.2135   -0.0097   -1.9673 H   0  0  0  0  0  0  0  0  0  0  0  0
    6.0526    1.4688   -2.7480 H   0  0  0  0  0  0  0  0  0  0  0  0
    4.8013    0.8809   -6.8183 H   0  0  0  0  0  0  0  0  0  0  0  0
    2.9625   -0.5974   -6.0420 H   0  0  0  0  0  0  0  0  0  0  0  0
    2.1438   -1.4036   -3.4084 S   0  0  0  0  0  0  0  0  0  0  0  0
    0.8383   -0.3359   -3.4231 O   0  0  0  0  0  0  0  0  0  0  0  0
    2.3887   -1.8072   -2.0277 O   0  0  0  0  0  0  0  0  0  0  0  0
    1.7868   -2.3514   -4.4499 O   0  0  0  0  0  0  0  0  0  0  0  0
    6.6929    2.1519   -5.3180 C   0  0  0  0  0  0  0  0  0  0  0  0
    7.5229    1.5379   -5.6886 H   0  0  0  0  0  0  0  0  0  0  0  0
    6.3791    2.8007   -6.1417 H   0  0  0  0  0  0  0  0  0  0  0  0
    7.0831    2.7827   -4.5152 H   0  0  0  0  0  0  0  0  0  0  0  0
  1  7  1  0  0  0  0
  2  8  1  0  0  0  0
  2  1  2  0  0  0  0
  3  2  1  0  0  0  0
  4  3  2  0  0  0  0
  4  5  1  0  0  0  0
  5  6  2  0  0  0  0
  6  1  1  0  0  0  0
  6 11  1  0  0  0  0
  9  4  1  0  0  0  0
 10  5  1  0  0  0  0
 11 13  2  0  0  0  0
 12 11  2  0  0  0  0
 15 14  3  0  0  0  0
 16 22  1  0  0  0  0
 17 16  1  0  0  0  0
 17 23  1  0  0  0  0
 18 17  2  0  0  0  0
 19 20  2  0  0  0  0
 19 18  1  0  0  0  0
 20 21  1  0  0  0  0
 21 26  1  0  0  0  0
 21 16  2  0  0  0  0
 24 19  1  0  0  0  0
 25 20  1  0  0  0  0
 26 28  2  0  0  0  0
 27 26  1  0  0  0  0
 27  3  1  0  0  0  0
 29 26  2  0  0  0  0
 30 18  1  0  0  0  0
 30 33  1  0  0  0  0
 31 30  1  0  0  0  0
 32 30  1  0  0  0  0
M  END
