Coordinates from ORCA-job 4-NO2-Ph-N2-OTs-B3LYPG-6-31G_dp-MTMO-d009-169-n800
 OpenBabel09051908313D

 33 33  0  0  0  0  0  0  0  0999 V2000
    0.0080    1.2212   -0.4723 C   0  0  0  0  0  0  0  0  0  0  0  0
    0.3448    0.2416   -1.4006 C   0  0  0  0  0  0  0  0  0  0  0  0
    0.8726    0.6274   -2.6374 C   0  0  0  0  0  0  0  0  0  0  0  0
    1.0587    1.9747   -2.9613 C   0  0  0  0  0  0  0  0  0  0  0  0
    0.7138    2.9559   -2.0379 C   0  0  0  0  0  0  0  0  0  0  0  0
    0.1970    2.5625   -0.8041 C   0  0  0  0  0  0  0  0  0  0  0  0
   -0.4025    0.9654    0.4960 H   0  0  0  0  0  0  0  0  0  0  0  0
    0.2095   -0.8094   -1.1791 H   0  0  0  0  0  0  0  0  0  0  0  0
    1.4613    2.2345   -3.9336 H   0  0  0  0  0  0  0  0  0  0  0  0
    0.8394    4.0098   -2.2521 H   0  0  0  0  0  0  0  0  0  0  0  0
   -0.1626    3.5971    0.1770 N   0  0  0  0  0  0  0  0  0  0  0  0
    0.0173    4.7723   -0.1416 O   0  0  0  0  0  0  0  0  0  0  0  0
   -0.6197    3.2256    1.2572 O   0  0  0  0  0  0  0  0  0  0  0  0
    8.4446    1.3124   -8.4838 N   0  0  0  0  0  0  0  0  0  0  0  0
    9.1691    1.2560   -9.3163 N   0  0  0  0  0  0  0  0  0  0  0  0
    4.5569    0.2107   -2.7458 C   0  0  0  0  0  0  0  0  0  0  0  0
    5.6593    1.0028   -3.0557 C   0  0  0  0  0  0  0  0  0  0  0  0
    6.0603    1.2027   -4.3860 C   0  0  0  0  0  0  0  0  0  0  0  0
    5.3302    0.5777   -5.4079 C   0  0  0  0  0  0  0  0  0  0  0  0
    4.2234   -0.2181   -5.1214 C   0  0  0  0  0  0  0  0  0  0  0  0
    3.8466   -0.3912   -3.7877 C   0  0  0  0  0  0  0  0  0  0  0  0
    4.2592    0.0422   -1.7169 H   0  0  0  0  0  0  0  0  0  0  0  0
    6.2222    1.4676   -2.2511 H   0  0  0  0  0  0  0  0  0  0  0  0
    5.6391    0.7097   -6.4409 H   0  0  0  0  0  0  0  0  0  0  0  0
    3.6693   -0.7129   -5.9113 H   0  0  0  0  0  0  0  0  0  0  0  0
    2.4284   -1.3989   -3.4134 S   0  0  0  0  0  0  0  0  0  0  0  0
    1.1541   -0.3125   -3.6186 O   0  0  0  0  0  0  0  0  0  0  0  0
    2.4743   -1.7886   -2.0079 O   0  0  0  0  0  0  0  0  0  0  0  0
    2.2023   -2.3553   -4.4834 O   0  0  0  0  0  0  0  0  0  0  0  0
    7.2450    2.0804   -4.7068 C   0  0  0  0  0  0  0  0  0  0  0  0
    7.5866    1.9309   -5.7338 H   0  0  0  0  0  0  0  0  0  0  0  0
    6.9863    3.1406   -4.5936 H   0  0  0  0  0  0  0  0  0  0  0  0
    8.0833    1.8799   -4.0321 H   0  0  0  0  0  0  0  0  0  0  0  0
  1  7  1  0  0  0  0
  2  8  1  0  0  0  0
  2  1  2  0  0  0  0
  3  2  1  0  0  0  0
  4  3  2  0  0  0  0
  4  5  1  0  0  0  0
  5  6  2  0  0  0  0
  6  1  1  0  0  0  0
  6 11  1  0  0  0  0
  9  4  1  0  0  0  0
 10  5  1  0  0  0  0
 11 13  2  0  0  0  0
 12 11  2  0  0  0  0
 15 14  3  0  0  0  0
 16 22  1  0  0  0  0
 17 16  1  0  0  0  0
 17 23  1  0  0  0  0
 18 17  2  0  0  0  0
 19 20  2  0  0  0  0
 19 18  1  0  0  0  0
 20 21  1  0  0  0  0
 21 26  1  0  0  0  0
 21 16  2  0  0  0  0
 24 19  1  0  0  0  0
 25 20  1  0  0  0  0
 26 28  2  0  0  0  0
 27 26  1  0  0  0  0
 27  3  1  0  0  0  0
 29 26  2  0  0  0  0
 30 32  1  0  0  0  0
 30 18  1  0  0  0  0
 30 33  1  0  0  0  0
 31 30  1  0  0  0  0
M  END
