Coordinates from ORCA-job 4-NO2-Ph-N2-OTs-B3LYPG-6-31G_dp-MTMO-d009-169-n800
 OpenBabel09051908313D

 33 33  0  0  0  0  0  0  0  0999 V2000
    0.0166    0.8480   -1.3513 C   0  0  0  0  0  0  0  0  0  0  0  0
    0.6237   -0.0023   -2.2697 C   0  0  0  0  0  0  0  0  0  0  0  0
    1.3769    0.5475   -3.3121 C   0  0  0  0  0  0  0  0  0  0  0  0
    1.5243    1.9305   -3.4545 C   0  0  0  0  0  0  0  0  0  0  0  0
    0.9117    2.7823   -2.5417 C   0  0  0  0  0  0  0  0  0  0  0  0
    0.1697    2.2262   -1.5004 C   0  0  0  0  0  0  0  0  0  0  0  0
   -0.5747    0.4642   -0.5295 H   0  0  0  0  0  0  0  0  0  0  0  0
    0.5265   -1.0776   -2.1875 H   0  0  0  0  0  0  0  0  0  0  0  0
    2.1080    2.3185   -4.2817 H   0  0  0  0  0  0  0  0  0  0  0  0
    1.0002    3.8589   -2.6180 H   0  0  0  0  0  0  0  0  0  0  0  0
   -0.4730    3.1236   -0.5287 N   0  0  0  0  0  0  0  0  0  0  0  0
   -0.3185    4.3350   -0.6824 O   0  0  0  0  0  0  0  0  0  0  0  0
   -1.1239    2.6091    0.3797 O   0  0  0  0  0  0  0  0  0  0  0  0
    2.2951    0.1122   -7.4329 N   0  0  0  0  0  0  0  0  0  0  0  0
    1.4143   -0.4421   -7.8040 N   0  0  0  0  0  0  0  0  0  0  0  0
    5.0426    0.2791   -2.5333 C   0  0  0  0  0  0  0  0  0  0  0  0
    6.0989    1.1851   -2.4584 C   0  0  0  0  0  0  0  0  0  0  0  0
    6.7048    1.6914   -3.6167 C   0  0  0  0  0  0  0  0  0  0  0  0
    6.2233    1.2686   -4.8662 C   0  0  0  0  0  0  0  0  0  0  0  0
    5.1711    0.3637   -4.9659 C   0  0  0  0  0  0  0  0  0  0  0  0
    4.5898   -0.1223   -3.7911 C   0  0  0  0  0  0  0  0  0  0  0  0
    4.5821   -0.1217   -1.6376 H   0  0  0  0  0  0  0  0  0  0  0  0
    6.4589    1.5016   -1.4836 H   0  0  0  0  0  0  0  0  0  0  0  0
    6.6822    1.6518   -5.7733 H   0  0  0  0  0  0  0  0  0  0  0  0
    4.8065    0.0344   -5.9325 H   0  0  0  0  0  0  0  0  0  0  0  0
    3.2363   -1.2722   -3.9062 S   0  0  0  0  0  0  0  0  0  0  0  0
    1.9393   -0.2633   -4.2875 O   0  0  0  0  0  0  0  0  0  0  0  0
    2.9912   -1.8572   -2.5922 O   0  0  0  0  0  0  0  0  0  0  0  0
    3.3640   -2.0778   -5.1088 O   0  0  0  0  0  0  0  0  0  0  0  0
    7.8688    2.6466   -3.5259 C   0  0  0  0  0  0  0  0  0  0  0  0
    7.8731    3.3530   -4.3614 H   0  0  0  0  0  0  0  0  0  0  0  0
    7.8478    3.2176   -2.5937 H   0  0  0  0  0  0  0  0  0  0  0  0
    8.8207    2.1025   -3.5555 H   0  0  0  0  0  0  0  0  0  0  0  0
  1  7  1  0  0  0  0
  2  8  1  0  0  0  0
  2  1  2  0  0  0  0
  3  2  1  0  0  0  0
  4  3  2  0  0  0  0
  4  5  1  0  0  0  0
  5  6  2  0  0  0  0
  6  1  1  0  0  0  0
  6 11  1  0  0  0  0
  9  4  1  0  0  0  0
 10  5  1  0  0  0  0
 11 13  2  0  0  0  0
 12 11  2  0  0  0  0
 15 14  3  0  0  0  0
 16 17  1  0  0  0  0
 16 22  1  0  0  0  0
 17 23  1  0  0  0  0
 18 30  1  0  0  0  0
 18 17  2  0  0  0  0
 19 18  1  0  0  0  0
 20 19  2  0  0  0  0
 20 21  1  0  0  0  0
 21 16  2  0  0  0  0
 24 19  1  0  0  0  0
 25 20  1  0  0  0  0
 26 21  1  0  0  0  0
 26 28  2  0  0  0  0
 27 26  1  0  0  0  0
 27  3  1  0  0  0  0
 29 26  2  0  0  0  0
 30 32  1  0  0  0  0
 31 30  1  0  0  0  0
 33 30  1  0  0  0  0
M  END
