Coordinates from ORCA-job 4-NO2-Ph-N2-OTs-B3LYPG-6-31G_dp-MTMO-d009-169-n800
 OpenBabel09051908313D

 33 33  0  0  0  0  0  0  0  0999 V2000
    0.0705    1.1783   -0.1158 C   0  0  0  0  0  0  0  0  0  0  0  0
    0.2730    0.2056   -1.0892 C   0  0  0  0  0  0  0  0  0  0  0  0
    0.6427    0.5994   -2.3793 C   0  0  0  0  0  0  0  0  0  0  0  0
    0.8055    1.9478   -2.7112 C   0  0  0  0  0  0  0  0  0  0  0  0
    0.5960    2.9222   -1.7413 C   0  0  0  0  0  0  0  0  0  0  0  0
    0.2345    2.5208   -0.4560 C   0  0  0  0  0  0  0  0  0  0  0  0
   -0.2176    0.9169    0.8944 H   0  0  0  0  0  0  0  0  0  0  0  0
    0.1530   -0.8465   -0.8635 H   0  0  0  0  0  0  0  0  0  0  0  0
    1.0854    2.2138   -3.7241 H   0  0  0  0  0  0  0  0  0  0  0  0
    0.7086    3.9768   -1.9588 H   0  0  0  0  0  0  0  0  0  0  0  0
    0.0170    3.5486    0.5733 N   0  0  0  0  0  0  0  0  0  0  0  0
    0.1729    4.7249    0.2463 O   0  0  0  0  0  0  0  0  0  0  0  0
   -0.3059    3.1704    1.6986 O   0  0  0  0  0  0  0  0  0  0  0  0
   12.8303    1.3412   -8.2213 N   0  0  0  0  0  0  0  0  0  0  0  0
   13.7855    1.1351   -8.7377 N   0  0  0  0  0  0  0  0  0  0  0  0
    4.2894    0.1919   -3.0001 C   0  0  0  0  0  0  0  0  0  0  0  0
    5.3229    1.0123   -3.4505 C   0  0  0  0  0  0  0  0  0  0  0  0
    5.5025    1.2712   -4.8163 C   0  0  0  0  0  0  0  0  0  0  0  0
    4.6152    0.6840   -5.7333 C   0  0  0  0  0  0  0  0  0  0  0  0
    3.5773   -0.1386   -5.3070 C   0  0  0  0  0  0  0  0  0  0  0  0
    3.4245   -0.3747   -3.9373 C   0  0  0  0  0  0  0  0  0  0  0  0
    4.1608   -0.0191   -1.9444 H   0  0  0  0  0  0  0  0  0  0  0  0
    6.0021    1.4553   -2.7277 H   0  0  0  0  0  0  0  0  0  0  0  0
    4.7424    0.8720   -6.7961 H   0  0  0  0  0  0  0  0  0  0  0  0
    2.9015   -0.6022   -6.0173 H   0  0  0  0  0  0  0  0  0  0  0  0
    2.0849   -1.4069   -3.3825 S   0  0  0  0  0  0  0  0  0  0  0  0
    0.7824   -0.3355   -3.3955 O   0  0  0  0  0  0  0  0  0  0  0  0
    2.3306   -1.8110   -2.0022 O   0  0  0  0  0  0  0  0  0  0  0  0
    1.7237   -2.3537   -4.4235 O   0  0  0  0  0  0  0  0  0  0  0  0
    6.6398    2.1378   -5.2983 C   0  0  0  0  0  0  0  0  0  0  0  0
    7.4709    1.5216   -5.6629 H   0  0  0  0  0  0  0  0  0  0  0  0
    6.3286    2.7822   -6.1264 H   0  0  0  0  0  0  0  0  0  0  0  0
    7.0276    2.7728   -4.4977 H   0  0  0  0  0  0  0  0  0  0  0  0
  1  7  1  0  0  0  0
  2  8  1  0  0  0  0
  2  1  2  0  0  0  0
  3  2  1  0  0  0  0
  4  3  2  0  0  0  0
  4  5  1  0  0  0  0
  5  6  2  0  0  0  0
  6  1  1  0  0  0  0
  6 11  1  0  0  0  0
  9  4  1  0  0  0  0
 10  5  1  0  0  0  0
 11 13  2  0  0  0  0
 12 11  2  0  0  0  0
 15 14  3  0  0  0  0
 16 22  1  0  0  0  0
 17 16  1  0  0  0  0
 17 23  1  0  0  0  0
 18 17  2  0  0  0  0
 19 20  2  0  0  0  0
 19 18  1  0  0  0  0
 20 21  1  0  0  0  0
 21 26  1  0  0  0  0
 21 16  2  0  0  0  0
 24 19  1  0  0  0  0
 25 20  1  0  0  0  0
 26 28  2  0  0  0  0
 27 26  1  0  0  0  0
 27  3  1  0  0  0  0
 29 26  2  0  0  0  0
 30 18  1  0  0  0  0
 30 33  1  0  0  0  0
 31 30  1  0  0  0  0
 32 30  1  0  0  0  0
M  END
