Coordinates from ORCA-job 4-NO2-Ph-N2-OTs-B3LYPG-6-31G_dp-MTMO-d009-169-n800
 OpenBabel09051908313D

 33 33  0  0  0  0  0  0  0  0999 V2000
   -0.0183    1.2532   -0.6316 C   0  0  0  0  0  0  0  0  0  0  0  0
    0.3581    0.2664   -1.5371 C   0  0  0  0  0  0  0  0  0  0  0  0
    0.9400    0.6429   -2.7523 C   0  0  0  0  0  0  0  0  0  0  0  0
    1.1411    1.9877   -3.0776 C   0  0  0  0  0  0  0  0  0  0  0  0
    0.7566    2.9758   -2.1777 C   0  0  0  0  0  0  0  0  0  0  0  0
    0.1859    2.5919   -0.9648 C   0  0  0  0  0  0  0  0  0  0  0  0
   -0.4707    1.0046    0.3197 H   0  0  0  0  0  0  0  0  0  0  0  0
    0.2125   -0.7829   -1.3141 H   0  0  0  0  0  0  0  0  0  0  0  0
    1.5859    2.2403   -4.0333 H   0  0  0  0  0  0  0  0  0  0  0  0
    0.8922    4.0281   -2.3942 H   0  0  0  0  0  0  0  0  0  0  0  0
   -0.2161    3.6339   -0.0083 N   0  0  0  0  0  0  0  0  0  0  0  0
   -0.0235    4.8067   -0.3284 O   0  0  0  0  0  0  0  0  0  0  0  0
   -0.7189    3.2706    1.0542 O   0  0  0  0  0  0  0  0  0  0  0  0
    7.2681    1.3396   -8.6962 N   0  0  0  0  0  0  0  0  0  0  0  0
    7.6489    1.4142   -9.7309 N   0  0  0  0  0  0  0  0  0  0  0  0
    4.6250    0.1623   -2.6255 C   0  0  0  0  0  0  0  0  0  0  0  0
    5.7515    0.9465   -2.8587 C   0  0  0  0  0  0  0  0  0  0  0  0
    6.2231    1.1724   -4.1615 C   0  0  0  0  0  0  0  0  0  0  0  0
    5.5347    0.5900   -5.2360 C   0  0  0  0  0  0  0  0  0  0  0  0
    4.4056   -0.1985   -5.0257 C   0  0  0  0  0  0  0  0  0  0  0  0
    3.9615   -0.4032   -3.7176 C   0  0  0  0  0  0  0  0  0  0  0  0
    4.2704   -0.0247   -1.6182 H   0  0  0  0  0  0  0  0  0  0  0  0
    6.2765    1.3860   -2.0154 H   0  0  0  0  0  0  0  0  0  0  0  0
    5.8914    0.7523   -6.2488 H   0  0  0  0  0  0  0  0  0  0  0  0
    3.8829   -0.6606   -5.8558 H   0  0  0  0  0  0  0  0  0  0  0  0
    2.5143   -1.4014   -3.4419 S   0  0  0  0  0  0  0  0  0  0  0  0
    1.2636   -0.3030   -3.7145 O   0  0  0  0  0  0  0  0  0  0  0  0
    2.4709   -1.8063   -2.0405 O   0  0  0  0  0  0  0  0  0  0  0  0
    2.3458   -2.3453   -4.5335 O   0  0  0  0  0  0  0  0  0  0  0  0
    7.4589    2.0072   -4.3937 C   0  0  0  0  0  0  0  0  0  0  0  0
    7.5969    2.2321   -5.4538 H   0  0  0  0  0  0  0  0  0  0  0  0
    7.4082    2.9539   -3.8468 H   0  0  0  0  0  0  0  0  0  0  0  0
    8.3554    1.4820   -4.0439 H   0  0  0  0  0  0  0  0  0  0  0  0
  1  7  1  0  0  0  0
  2  8  1  0  0  0  0
  2  1  2  0  0  0  0
  3  2  1  0  0  0  0
  4  3  2  0  0  0  0
  4  5  1  0  0  0  0
  5  6  2  0  0  0  0
  6  1  1  0  0  0  0
  6 11  1  0  0  0  0
  9  4  1  0  0  0  0
 10  5  1  0  0  0  0
 11 13  2  0  0  0  0
 12 11  2  0  0  0  0
 15 14  3  0  0  0  0
 16 22  1  0  0  0  0
 17 16  1  0  0  0  0
 17 23  1  0  0  0  0
 18 17  2  0  0  0  0
 19 20  2  0  0  0  0
 19 18  1  0  0  0  0
 20 21  1  0  0  0  0
 21 26  1  0  0  0  0
 21 16  2  0  0  0  0
 24 19  1  0  0  0  0
 25 20  1  0  0  0  0
 26 28  2  0  0  0  0
 27 26  1  0  0  0  0
 27  3  1  0  0  0  0
 29 26  2  0  0  0  0
 30 18  1  0  0  0  0
 30 33  1  0  0  0  0
 30 32  1  0  0  0  0
 31 30  1  0  0  0  0
M  END
