Coordinates from ORCA-job 4-NO2-Ph-N2-OTs-B3LYPG-6-31G_dp-MTMO-d009-169-n800
 OpenBabel09051908313D

 33 33  0  0  0  0  0  0  0  0999 V2000
   -0.0732    1.5464   -0.1653 C   0  0  0  0  0  0  0  0  0  0  0  0
   -0.0096    0.5450   -1.1287 C   0  0  0  0  0  0  0  0  0  0  0  0
    0.4594    0.8598   -2.4084 C   0  0  0  0  0  0  0  0  0  0  0  0
    0.8548    2.1592   -2.7402 C   0  0  0  0  0  0  0  0  0  0  0  0
    0.7831    3.1635   -1.7809 C   0  0  0  0  0  0  0  0  0  0  0  0
    0.3235    2.8395   -0.5052 C   0  0  0  0  0  0  0  0  0  0  0  0
   -0.4300    1.3457    0.8368 H   0  0  0  0  0  0  0  0  0  0  0  0
   -0.3122   -0.4694   -0.9027 H   0  0  0  0  0  0  0  0  0  0  0  0
    1.2038    2.3663   -3.7454 H   0  0  0  0  0  0  0  0  0  0  0  0
    1.0770    4.1822   -1.9993 H   0  0  0  0  0  0  0  0  0  0  0  0
    0.2526    3.8975    0.5134 N   0  0  0  0  0  0  0  0  0  0  0  0
    0.6035    5.0304    0.1843 O   0  0  0  0  0  0  0  0  0  0  0  0
   -0.1512    3.5859    1.6330 O   0  0  0  0  0  0  0  0  0  0  0  0
   14.3808    3.3787   -9.2582 N   0  0  0  0  0  0  0  0  0  0  0  0
   15.2276    3.4383   -9.9662 N   0  0  0  0  0  0  0  0  0  0  0  0
    3.9824   -0.2147   -2.8490 C   0  0  0  0  0  0  0  0  0  0  0  0
    5.1748    0.3893   -3.2445 C   0  0  0  0  0  0  0  0  0  0  0  0
    5.4789    0.5774   -4.6000 C   0  0  0  0  0  0  0  0  0  0  0  0
    4.5528    0.1431   -5.5625 C   0  0  0  0  0  0  0  0  0  0  0  0
    3.3562   -0.4622   -5.1910 C   0  0  0  0  0  0  0  0  0  0  0  0
    3.0830   -0.6335   -3.8309 C   0  0  0  0  0  0  0  0  0  0  0  0
    3.7551   -0.3728   -1.8006 H   0  0  0  0  0  0  0  0  0  0  0  0
    5.8811    0.7174   -2.4872 H   0  0  0  0  0  0  0  0  0  0  0  0
    4.7750    0.2787   -6.6177 H   0  0  0  0  0  0  0  0  0  0  0  0
    2.6483   -0.8092   -5.9356 H   0  0  0  0  0  0  0  0  0  0  0  0
    1.5465   -1.3898   -3.3465 S   0  0  0  0  0  0  0  0  0  0  0  0
    0.4719   -0.0921   -3.4179 O   0  0  0  0  0  0  0  0  0  0  0  0
    1.6445   -1.8270   -1.9578 O   0  0  0  0  0  0  0  0  0  0  0  0
    1.0638   -2.2564   -4.4078 O   0  0  0  0  0  0  0  0  0  0  0  0
    6.7844    1.2062   -5.0208 C   0  0  0  0  0  0  0  0  0  0  0  0
    7.5220    0.4360   -5.2771 H   0  0  0  0  0  0  0  0  0  0  0  0
    6.6559    1.8389   -5.9040 H   0  0  0  0  0  0  0  0  0  0  0  0
    7.2120    1.8163   -4.2205 H   0  0  0  0  0  0  0  0  0  0  0  0
  1  7  1  0  0  0  0
  2  8  1  0  0  0  0
  2  1  2  0  0  0  0
  3  2  1  0  0  0  0
  4  3  2  0  0  0  0
  4  5  1  0  0  0  0
  5  6  2  0  0  0  0
  6  1  1  0  0  0  0
  6 11  1  0  0  0  0
  9  4  1  0  0  0  0
 10  5  1  0  0  0  0
 11 13  2  0  0  0  0
 12 11  2  0  0  0  0
 15 14  3  0  0  0  0
 16 22  1  0  0  0  0
 17 16  1  0  0  0  0
 17 23  1  0  0  0  0
 18 17  2  0  0  0  0
 19 20  2  0  0  0  0
 19 18  1  0  0  0  0
 20 21  1  0  0  0  0
 21 26  1  0  0  0  0
 21 16  2  0  0  0  0
 24 19  1  0  0  0  0
 25 20  1  0  0  0  0
 26 28  2  0  0  0  0
 27 26  1  0  0  0  0
 27  3  1  0  0  0  0
 29 26  2  0  0  0  0
 30 18  1  0  0  0  0
 30 33  1  0  0  0  0
 31 30  1  0  0  0  0
 32 30  1  0  0  0  0
M  END
