Coordinates from ORCA-job 4-NO2-Ph-N2-OTs-B3LYPG-6-31G_dp-MTMO-d009-169-n800
 OpenBabel09051908313D

 33 33  0  0  0  0  0  0  0  0999 V2000
    0.1551    1.1564   -0.1732 C   0  0  0  0  0  0  0  0  0  0  0  0
    0.3832    0.1952   -1.1523 C   0  0  0  0  0  0  0  0  0  0  0  0
    0.7588    0.6056   -2.4356 C   0  0  0  0  0  0  0  0  0  0  0  0
    0.9022    1.9593   -2.7549 C   0  0  0  0  0  0  0  0  0  0  0  0
    0.6667    2.9221   -1.7794 C   0  0  0  0  0  0  0  0  0  0  0  0
    0.2996    2.5043   -0.5009 C   0  0  0  0  0  0  0  0  0  0  0  0
   -0.1382    0.8819    0.8320 H   0  0  0  0  0  0  0  0  0  0  0  0
    0.2787   -0.8605   -0.9359 H   0  0  0  0  0  0  0  0  0  0  0  0
    1.1868    2.2384   -3.7629 H   0  0  0  0  0  0  0  0  0  0  0  0
    0.7632    3.9803   -1.9875 H   0  0  0  0  0  0  0  0  0  0  0  0
    0.0549    3.5197    0.5344 N   0  0  0  0  0  0  0  0  0  0  0  0
    0.1936    4.7012    0.2183 O   0  0  0  0  0  0  0  0  0  0  0  0
   -0.2721    3.1269    1.6535 O   0  0  0  0  0  0  0  0  0  0  0  0
   10.9891    1.1840   -7.3707 N   0  0  0  0  0  0  0  0  0  0  0  0
   11.9751    0.9932   -7.8321 N   0  0  0  0  0  0  0  0  0  0  0  0
    4.4297    0.2319   -3.0613 C   0  0  0  0  0  0  0  0  0  0  0  0
    5.4647    1.0487   -3.5152 C   0  0  0  0  0  0  0  0  0  0  0  0
    5.6507    1.2942   -4.8826 C   0  0  0  0  0  0  0  0  0  0  0  0
    4.7674    0.6974   -5.7976 C   0  0  0  0  0  0  0  0  0  0  0  0
    3.7283   -0.1217   -5.3679 C   0  0  0  0  0  0  0  0  0  0  0  0
    3.5695   -0.3447   -3.9966 C   0  0  0  0  0  0  0  0  0  0  0  0
    4.2974    0.0306   -2.0042 H   0  0  0  0  0  0  0  0  0  0  0  0
    6.1405    1.4990   -2.7937 H   0  0  0  0  0  0  0  0  0  0  0  0
    4.8993    0.8749   -6.8617 H   0  0  0  0  0  0  0  0  0  0  0  0
    3.0565   -0.5932   -6.0767 H   0  0  0  0  0  0  0  0  0  0  0  0
    2.2336   -1.3801   -3.4383 S   0  0  0  0  0  0  0  0  0  0  0  0
    0.9238   -0.3173   -3.4587 O   0  0  0  0  0  0  0  0  0  0  0  0
    2.4792   -1.7759   -2.0556 O   0  0  0  0  0  0  0  0  0  0  0  0
    1.8805   -2.3342   -4.4754 O   0  0  0  0  0  0  0  0  0  0  0  0
    6.7884    2.1582   -5.3688 C   0  0  0  0  0  0  0  0  0  0  0  0
    7.6123    1.5429   -5.7507 H   0  0  0  0  0  0  0  0  0  0  0  0
    6.4707    2.8135   -6.1860 H   0  0  0  0  0  0  0  0  0  0  0  0
    7.1887    2.7828   -4.5662 H   0  0  0  0  0  0  0  0  0  0  0  0
  1  7  1  0  0  0  0
  2  8  1  0  0  0  0
  2  1  2  0  0  0  0
  3  2  1  0  0  0  0
  4  3  2  0  0  0  0
  4  5  1  0  0  0  0
  5  6  2  0  0  0  0
  6  1  1  0  0  0  0
  6 11  1  0  0  0  0
  9  4  1  0  0  0  0
 10  5  1  0  0  0  0
 11 13  2  0  0  0  0
 12 11  2  0  0  0  0
 15 14  3  0  0  0  0
 16 22  1  0  0  0  0
 17 16  1  0  0  0  0
 17 23  1  0  0  0  0
 18 17  2  0  0  0  0
 19 20  2  0  0  0  0
 19 18  1  0  0  0  0
 20 21  1  0  0  0  0
 21 26  1  0  0  0  0
 21 16  2  0  0  0  0
 24 19  1  0  0  0  0
 25 20  1  0  0  0  0
 26 28  2  0  0  0  0
 27 26  1  0  0  0  0
 27  3  1  0  0  0  0
 29 26  2  0  0  0  0
 30 18  1  0  0  0  0
 30 33  1  0  0  0  0
 31 30  1  0  0  0  0
 32 30  1  0  0  0  0
M  END
