Coordinates from ORCA-job 4-NO2-Ph-N2-OTs-B3LYPG-6-31G_dp-MTMO-d009-169-n800
 OpenBabel09051908313D

 33 33  0  0  0  0  0  0  0  0999 V2000
   -0.1108    1.1229   -0.8260 C   0  0  0  0  0  0  0  0  0  0  0  0
    0.3285    0.2470   -1.8133 C   0  0  0  0  0  0  0  0  0  0  0  0
    1.0238    0.7558   -2.9154 C   0  0  0  0  0  0  0  0  0  0  0  0
    1.2790    2.1241   -3.0475 C   0  0  0  0  0  0  0  0  0  0  0  0
    0.8335    3.0023   -2.0652 C   0  0  0  0  0  0  0  0  0  0  0  0
    0.1477    2.4862   -0.9662 C   0  0  0  0  0  0  0  0  0  0  0  0
   -0.6526    0.7706    0.0426 H   0  0  0  0  0  0  0  0  0  0  0  0
    0.1441   -0.8173   -1.7400 H   0  0  0  0  0  0  0  0  0  0  0  0
    1.8125    2.4814   -3.9210 H   0  0  0  0  0  0  0  0  0  0  0  0
    1.0085    4.0688   -2.1322 H   0  0  0  0  0  0  0  0  0  0  0  0
   -0.3204    3.4111    0.0766 N   0  0  0  0  0  0  0  0  0  0  0  0
   -0.0769    4.6084   -0.0718 O   0  0  0  0  0  0  0  0  0  0  0  0
   -0.9254    2.9319    1.0349 O   0  0  0  0  0  0  0  0  0  0  0  0
    6.0668    0.0825   -8.8126 N   0  0  0  0  0  0  0  0  0  0  0  0
    6.2280   -0.3848   -9.8010 N   0  0  0  0  0  0  0  0  0  0  0  0
    4.6926    0.2587   -2.6359 C   0  0  0  0  0  0  0  0  0  0  0  0
    5.8309    1.0579   -2.7248 C   0  0  0  0  0  0  0  0  0  0  0  0
    6.3869    1.3950   -3.9669 C   0  0  0  0  0  0  0  0  0  0  0  0
    5.7721    0.9100   -5.1324 C   0  0  0  0  0  0  0  0  0  0  0  0
    4.6347    0.1112   -5.0676 C   0  0  0  0  0  0  0  0  0  0  0  0
    4.1043   -0.2055   -3.8138 C   0  0  0  0  0  0  0  0  0  0  0  0
    4.2732   -0.0141   -1.6742 H   0  0  0  0  0  0  0  0  0  0  0  0
    6.2963    1.4225   -1.8135 H   0  0  0  0  0  0  0  0  0  0  0  0
    6.1903    1.1548   -6.1044 H   0  0  0  0  0  0  0  0  0  0  0  0
    4.1698   -0.2730   -5.9685 H   0  0  0  0  0  0  0  0  0  0  0  0
    2.6385   -1.2099   -3.7239 S   0  0  0  0  0  0  0  0  0  0  0  0
    1.4130   -0.0741   -3.9571 O   0  0  0  0  0  0  0  0  0  0  0  0
    2.5080   -1.7510   -2.3750 O   0  0  0  0  0  0  0  0  0  0  0  0
    2.5315   -2.0381   -4.9128 O   0  0  0  0  0  0  0  0  0  0  0  0
    7.6375    2.2347   -4.0510 C   0  0  0  0  0  0  0  0  0  0  0  0
    7.6230    2.8867   -4.9294 H   0  0  0  0  0  0  0  0  0  0  0  0
    7.7624    2.8589   -3.1620 H   0  0  0  0  0  0  0  0  0  0  0  0
    8.5273    1.5988   -4.1331 H   0  0  0  0  0  0  0  0  0  0  0  0
  1  7  1  0  0  0  0
  2  8  1  0  0  0  0
  2  1  2  0  0  0  0
  3  2  1  0  0  0  0
  4  3  2  0  0  0  0
  4  5  1  0  0  0  0
  5  6  2  0  0  0  0
  6  1  1  0  0  0  0
  6 11  1  0  0  0  0
  9  4  1  0  0  0  0
 10  5  1  0  0  0  0
 11 13  2  0  0  0  0
 12 11  2  0  0  0  0
 15 14  3  0  0  0  0
 16 22  1  0  0  0  0
 17 16  1  0  0  0  0
 17 23  1  0  0  0  0
 18 17  2  0  0  0  0
 19 20  2  0  0  0  0
 19 18  1  0  0  0  0
 20 21  1  0  0  0  0
 21 26  1  0  0  0  0
 21 16  2  0  0  0  0
 24 19  1  0  0  0  0
 25 20  1  0  0  0  0
 26 28  2  0  0  0  0
 27 26  1  0  0  0  0
 27  3  1  0  0  0  0
 29 26  2  0  0  0  0
 30 18  1  0  0  0  0
 30 32  1  0  0  0  0
 31 30  1  0  0  0  0
 33 30  1  0  0  0  0
M  END
