Coordinates from ORCA-job 4-NO2-Ph-N2-OTs-B3LYPG-6-31G_dp-MTMO-d009-169-n800
 OpenBabel09051908313D

 33 33  0  0  0  0  0  0  0  0999 V2000
   -0.0247    1.2536   -0.5443 C   0  0  0  0  0  0  0  0  0  0  0  0
    0.3380    0.2649   -1.4531 C   0  0  0  0  0  0  0  0  0  0  0  0
    0.8969    0.6390   -2.6798 C   0  0  0  0  0  0  0  0  0  0  0  0
    1.0884    1.9833   -3.0130 C   0  0  0  0  0  0  0  0  0  0  0  0
    0.7173    2.9733   -2.1095 C   0  0  0  0  0  0  0  0  0  0  0  0
    0.1697    2.5918   -0.8853 C   0  0  0  0  0  0  0  0  0  0  0  0
   -0.4594    1.0068    0.4158 H   0  0  0  0  0  0  0  0  0  0  0  0
    0.1993   -0.7840   -1.2239 H   0  0  0  0  0  0  0  0  0  0  0  0
    1.5150    2.2339   -3.9775 H   0  0  0  0  0  0  0  0  0  0  0  0
    0.8460    4.0253   -2.3317 H   0  0  0  0  0  0  0  0  0  0  0  0
   -0.2180    3.6357    0.0750 N   0  0  0  0  0  0  0  0  0  0  0  0
   -0.0341    4.8080   -0.2521 O   0  0  0  0  0  0  0  0  0  0  0  0
   -0.7008    3.2744    1.1474 O   0  0  0  0  0  0  0  0  0  0  0  0
    7.9109    1.5110   -8.6475 N   0  0  0  0  0  0  0  0  0  0  0  0
    8.4394    1.5849   -9.6152 N   0  0  0  0  0  0  0  0  0  0  0  0
    4.5857    0.1956   -2.6788 C   0  0  0  0  0  0  0  0  0  0  0  0
    5.7072    0.9695   -2.9630 C   0  0  0  0  0  0  0  0  0  0  0  0
    6.1565    1.1423   -4.2821 C   0  0  0  0  0  0  0  0  0  0  0  0
    5.4509    0.5148   -5.3191 C   0  0  0  0  0  0  0  0  0  0  0  0
    4.3249   -0.2633   -5.0580 C   0  0  0  0  0  0  0  0  0  0  0  0
    3.9031   -0.4137   -3.7355 C   0  0  0  0  0  0  0  0  0  0  0  0
    4.2505    0.0477   -1.6584 H   0  0  0  0  0  0  0  0  0  0  0  0
    6.2473    1.4416   -2.1472 H   0  0  0  0  0  0  0  0  0  0  0  0
    5.7936    0.6319   -6.3431 H   0  0  0  0  0  0  0  0  0  0  0  0
    3.7892   -0.7603   -5.8592 H   0  0  0  0  0  0  0  0  0  0  0  0
    2.4641   -1.4034   -3.3932 S   0  0  0  0  0  0  0  0  0  0  0  0
    1.2053   -0.3090   -3.6449 O   0  0  0  0  0  0  0  0  0  0  0  0
    2.4663   -1.7804   -1.9834 O   0  0  0  0  0  0  0  0  0  0  0  0
    2.2605   -2.3678   -4.4606 O   0  0  0  0  0  0  0  0  0  0  0  0
    7.3805    1.9773   -4.5698 C   0  0  0  0  0  0  0  0  0  0  0  0
    7.5857    2.0309   -5.6415 H   0  0  0  0  0  0  0  0  0  0  0  0
    7.2580    2.9996   -4.1955 H   0  0  0  0  0  0  0  0  0  0  0  0
    8.2651    1.5595   -4.0765 H   0  0  0  0  0  0  0  0  0  0  0  0
  1  7  1  0  0  0  0
  2  8  1  0  0  0  0
  2  1  2  0  0  0  0
  3  2  1  0  0  0  0
  4  3  2  0  0  0  0
  4  5  1  0  0  0  0
  5  6  2  0  0  0  0
  6  1  1  0  0  0  0
  6 11  1  0  0  0  0
  9  4  1  0  0  0  0
 10  5  1  0  0  0  0
 11 13  2  0  0  0  0
 12 11  2  0  0  0  0
 15 14  3  0  0  0  0
 16 22  1  0  0  0  0
 17 16  1  0  0  0  0
 17 23  1  0  0  0  0
 18 17  2  0  0  0  0
 19 20  2  0  0  0  0
 19 18  1  0  0  0  0
 20 21  1  0  0  0  0
 21 26  1  0  0  0  0
 21 16  2  0  0  0  0
 24 19  1  0  0  0  0
 25 20  1  0  0  0  0
 26 28  2  0  0  0  0
 27 26  1  0  0  0  0
 27  3  1  0  0  0  0
 29 26  2  0  0  0  0
 30 18  1  0  0  0  0
 30 32  1  0  0  0  0
 30 33  1  0  0  0  0
 31 30  1  0  0  0  0
M  END
