Coordinates from ORCA-job 4-NO2-Ph-N2-OTs-B3LYPG-6-31G_dp-MTMO-d009-169-n800
 OpenBabel09051908313D

 33 33  0  0  0  0  0  0  0  0999 V2000
    0.0325    0.8234   -1.6961 C   0  0  0  0  0  0  0  0  0  0  0  0
    0.7095    0.0044   -2.5939 C   0  0  0  0  0  0  0  0  0  0  0  0
    1.5536    0.5869   -3.5446 C   0  0  0  0  0  0  0  0  0  0  0  0
    1.7246    1.9724   -3.6154 C   0  0  0  0  0  0  0  0  0  0  0  0
    1.0432    2.7935   -2.7237 C   0  0  0  0  0  0  0  0  0  0  0  0
    0.2097    2.2047   -1.7737 C   0  0  0  0  0  0  0  0  0  0  0  0
   -0.6302    0.4133   -0.9445 H   0  0  0  0  0  0  0  0  0  0  0  0
    0.5975   -1.0722   -2.5639 H   0  0  0  0  0  0  0  0  0  0  0  0
    2.3796    2.3878   -4.3729 H   0  0  0  0  0  0  0  0  0  0  0  0
    1.1470    3.8711   -2.7474 H   0  0  0  0  0  0  0  0  0  0  0  0
   -0.5062    3.0695   -0.8239 N   0  0  0  0  0  0  0  0  0  0  0  0
   -0.3250    4.2840   -0.9107 O   0  0  0  0  0  0  0  0  0  0  0  0
   -1.2404    2.5271    0.0008 O   0  0  0  0  0  0  0  0  0  0  0  0
   -0.3731    0.2201   -6.2519 N   0  0  0  0  0  0  0  0  0  0  0  0
   -0.6805   -0.6613   -6.8436 N   0  0  0  0  0  0  0  0  0  0  0  0
    5.1105    0.3426   -2.5183 C   0  0  0  0  0  0  0  0  0  0  0  0
    6.1675    1.2356   -2.3514 C   0  0  0  0  0  0  0  0  0  0  0  0
    6.9167    1.6878   -3.4468 C   0  0  0  0  0  0  0  0  0  0  0  0
    6.5805    1.2224   -4.7283 C   0  0  0  0  0  0  0  0  0  0  0  0
    5.5295    0.3307   -4.9189 C   0  0  0  0  0  0  0  0  0  0  0  0
    4.8019   -0.0998   -3.8058 C   0  0  0  0  0  0  0  0  0  0  0  0
    4.5416   -0.0174   -1.6688 H   0  0  0  0  0  0  0  0  0  0  0  0
    6.4154    1.5841   -1.3527 H   0  0  0  0  0  0  0  0  0  0  0  0
    7.1533    1.5609   -5.5872 H   0  0  0  0  0  0  0  0  0  0  0  0
    5.2798   -0.0380   -5.9077 H   0  0  0  0  0  0  0  0  0  0  0  0
    3.4451   -1.2265   -4.0437 S   0  0  0  0  0  0  0  0  0  0  0  0
    2.1944   -0.1907   -4.4992 O   0  0  0  0  0  0  0  0  0  0  0  0
    3.0937   -1.8308   -2.7630 O   0  0  0  0  0  0  0  0  0  0  0  0
    3.6558   -2.0110   -5.2483 O   0  0  0  0  0  0  0  0  0  0  0  0
    8.0794    2.6296   -3.2524 C   0  0  0  0  0  0  0  0  0  0  0  0
    8.1867    3.3134   -4.0996 H   0  0  0  0  0  0  0  0  0  0  0  0
    7.9649    3.2250   -2.3426 H   0  0  0  0  0  0  0  0  0  0  0  0
    9.0199    2.0722   -3.1638 H   0  0  0  0  0  0  0  0  0  0  0  0
  1  7  1  0  0  0  0
  2  8  1  0  0  0  0
  2  1  2  0  0  0  0
  3  2  1  0  0  0  0
  4  3  2  0  0  0  0
  4  5  1  0  0  0  0
  5  6  2  0  0  0  0
  6  1  1  0  0  0  0
  6 11  1  0  0  0  0
  9  4  1  0  0  0  0
 10  5  1  0  0  0  0
 11 13  2  0  0  0  0
 12 11  2  0  0  0  0
 15 14  3  0  0  0  0
 16 17  1  0  0  0  0
 16 22  1  0  0  0  0
 17 23  1  0  0  0  0
 18 30  1  0  0  0  0
 18 17  2  0  0  0  0
 19 18  1  0  0  0  0
 20 19  2  0  0  0  0
 20 21  1  0  0  0  0
 21 16  2  0  0  0  0
 24 19  1  0  0  0  0
 25 20  1  0  0  0  0
 26 21  1  0  0  0  0
 26 28  2  0  0  0  0
 27 26  1  0  0  0  0
 27  3  1  0  0  0  0
 29 26  2  0  0  0  0
 30 33  1  0  0  0  0
 30 32  1  0  0  0  0
 31 30  1  0  0  0  0
M  END
