Coordinates from ORCA-job 4-NO2-Ph-N2-OTs-B3LYPG-6-31G_dp-MTMO-d009-169-n800
 OpenBabel09051908313D

 33 33  0  0  0  0  0  0  0  0999 V2000
   -0.0154    1.2554   -0.6346 C   0  0  0  0  0  0  0  0  0  0  0  0
    0.3600    0.2669   -1.5384 C   0  0  0  0  0  0  0  0  0  0  0  0
    0.9418    0.6409   -2.7544 C   0  0  0  0  0  0  0  0  0  0  0  0
    1.1437    1.9850   -3.0821 C   0  0  0  0  0  0  0  0  0  0  0  0
    0.7601    2.9749   -2.1838 C   0  0  0  0  0  0  0  0  0  0  0  0
    0.1896    2.5935   -0.9701 C   0  0  0  0  0  0  0  0  0  0  0  0
   -0.4677    1.0088    0.3173 H   0  0  0  0  0  0  0  0  0  0  0  0
    0.2138   -0.7819   -1.3135 H   0  0  0  0  0  0  0  0  0  0  0  0
    1.5884    2.2355   -4.0384 H   0  0  0  0  0  0  0  0  0  0  0  0
    0.8964    4.0267   -2.4022 H   0  0  0  0  0  0  0  0  0  0  0  0
   -0.2115    3.6374   -0.0153 N   0  0  0  0  0  0  0  0  0  0  0  0
   -0.0184    4.8095   -0.3375 O   0  0  0  0  0  0  0  0  0  0  0  0
   -0.7143    3.2762    1.0480 O   0  0  0  0  0  0  0  0  0  0  0  0
    7.2513    1.3474   -8.6876 N   0  0  0  0  0  0  0  0  0  0  0  0
    7.6267    1.4278   -9.7238 N   0  0  0  0  0  0  0  0  0  0  0  0
    4.6267    0.1568   -2.6229 C   0  0  0  0  0  0  0  0  0  0  0  0
    5.7525    0.9420   -2.8554 C   0  0  0  0  0  0  0  0  0  0  0  0
    6.2224    1.1716   -4.1581 C   0  0  0  0  0  0  0  0  0  0  0  0
    5.5332    0.5915   -5.2333 C   0  0  0  0  0  0  0  0  0  0  0  0
    4.4047   -0.1982   -5.0236 C   0  0  0  0  0  0  0  0  0  0  0  0
    3.9622   -0.4063   -3.7155 C   0  0  0  0  0  0  0  0  0  0  0  0
    4.2731   -0.0328   -1.6157 H   0  0  0  0  0  0  0  0  0  0  0  0
    6.2784    1.3797   -2.0116 H   0  0  0  0  0  0  0  0  0  0  0  0
    5.8884    0.7568   -6.2461 H   0  0  0  0  0  0  0  0  0  0  0  0
    3.8814   -0.6584   -5.8544 H   0  0  0  0  0  0  0  0  0  0  0  0
    2.5152   -1.4050   -3.4410 S   0  0  0  0  0  0  0  0  0  0  0  0
    1.2646   -0.3069   -3.7150 O   0  0  0  0  0  0  0  0  0  0  0  0
    2.4706   -1.8095   -2.0396 O   0  0  0  0  0  0  0  0  0  0  0  0
    2.3478   -2.3490   -4.5326 O   0  0  0  0  0  0  0  0  0  0  0  0
    7.4574    2.0079   -4.3898 C   0  0  0  0  0  0  0  0  0  0  0  0
    7.5928    2.2366   -5.4494 H   0  0  0  0  0  0  0  0  0  0  0  0
    7.4075    2.9525   -3.8394 H   0  0  0  0  0  0  0  0  0  0  0  0
    8.3549    1.4817   -4.0440 H   0  0  0  0  0  0  0  0  0  0  0  0
  1  7  1  0  0  0  0
  2  8  1  0  0  0  0
  2  1  2  0  0  0  0
  3  2  1  0  0  0  0
  4  3  2  0  0  0  0
  4  5  1  0  0  0  0
  5  6  2  0  0  0  0
  6  1  1  0  0  0  0
  6 11  1  0  0  0  0
  9  4  1  0  0  0  0
 10  5  1  0  0  0  0
 11 13  2  0  0  0  0
 12 11  2  0  0  0  0
 15 14  3  0  0  0  0
 16 22  1  0  0  0  0
 17 16  1  0  0  0  0
 17 23  1  0  0  0  0
 18 17  2  0  0  0  0
 19 20  2  0  0  0  0
 19 18  1  0  0  0  0
 20 21  1  0  0  0  0
 21 26  1  0  0  0  0
 21 16  2  0  0  0  0
 24 19  1  0  0  0  0
 25 20  1  0  0  0  0
 26 28  2  0  0  0  0
 27 26  1  0  0  0  0
 27  3  1  0  0  0  0
 29 26  2  0  0  0  0
 30 18  1  0  0  0  0
 30 33  1  0  0  0  0
 30 32  1  0  0  0  0
 31 30  1  0  0  0  0
M  END
