Coordinates from ORCA-job 4-NO2-Ph-N2-OTs-B3LYPG-6-31G_dp-MTMO-d009-169-n800
 OpenBabel09051908313D

 33 33  0  0  0  0  0  0  0  0999 V2000
    0.0455    0.8425   -1.6172 C   0  0  0  0  0  0  0  0  0  0  0  0
    0.7059    0.0178   -2.5221 C   0  0  0  0  0  0  0  0  0  0  0  0
    1.5290    0.5950   -3.4944 C   0  0  0  0  0  0  0  0  0  0  0  0
    1.6933    1.9805   -3.5811 C   0  0  0  0  0  0  0  0  0  0  0  0
    1.0280    2.8071   -2.6823 C   0  0  0  0  0  0  0  0  0  0  0  0
    0.2168    2.2235   -1.7099 C   0  0  0  0  0  0  0  0  0  0  0  0
   -0.6004    0.4368   -0.8488 H   0  0  0  0  0  0  0  0  0  0  0  0
    0.5970   -1.0587   -2.4816 H   0  0  0  0  0  0  0  0  0  0  0  0
    2.3308    2.3912   -4.3559 H   0  0  0  0  0  0  0  0  0  0  0  0
    1.1275    3.8848   -2.7174 H   0  0  0  0  0  0  0  0  0  0  0  0
   -0.4816    3.0941   -0.7523 N   0  0  0  0  0  0  0  0  0  0  0  0
   -0.3075    4.3084   -0.8539 O   0  0  0  0  0  0  0  0  0  0  0  0
   -1.1952    2.5561    0.0932 O   0  0  0  0  0  0  0  0  0  0  0  0
   -0.1607    0.1639   -6.6019 N   0  0  0  0  0  0  0  0  0  0  0  0
   -0.3581   -0.7493   -7.1922 N   0  0  0  0  0  0  0  0  0  0  0  0
    5.0961    0.3374   -2.5150 C   0  0  0  0  0  0  0  0  0  0  0  0
    6.1567    1.2282   -2.3605 C   0  0  0  0  0  0  0  0  0  0  0  0
    6.8915    1.6818   -3.4651 C   0  0  0  0  0  0  0  0  0  0  0  0
    6.5368    1.2201   -4.7430 C   0  0  0  0  0  0  0  0  0  0  0  0
    5.4818    0.3305   -4.9212 C   0  0  0  0  0  0  0  0  0  0  0  0
    4.7690   -0.1015   -3.7992 C   0  0  0  0  0  0  0  0  0  0  0  0
    4.5385   -0.0239   -1.6585 H   0  0  0  0  0  0  0  0  0  0  0  0
    6.4191    1.5738   -1.3646 H   0  0  0  0  0  0  0  0  0  0  0  0
    7.0982    1.5596   -5.6089 H   0  0  0  0  0  0  0  0  0  0  0  0
    5.2179   -0.0356   -5.9072 H   0  0  0  0  0  0  0  0  0  0  0  0
    3.4074   -1.2257   -4.0208 S   0  0  0  0  0  0  0  0  0  0  0  0
    2.1520   -0.1875   -4.4570 O   0  0  0  0  0  0  0  0  0  0  0  0
    3.0733   -1.8326   -2.7367 O   0  0  0  0  0  0  0  0  0  0  0  0
    3.5999   -2.0078   -5.2300 O   0  0  0  0  0  0  0  0  0  0  0  0
    8.0583    2.6211   -3.2847 C   0  0  0  0  0  0  0  0  0  0  0  0
    8.1555    3.3062   -4.1321 H   0  0  0  0  0  0  0  0  0  0  0  0
    7.9571    3.2153   -2.3725 H   0  0  0  0  0  0  0  0  0  0  0  0
    8.9989    2.0619   -3.2095 H   0  0  0  0  0  0  0  0  0  0  0  0
  1  7  1  0  0  0  0
  2  8  1  0  0  0  0
  2  1  2  0  0  0  0
  3  2  1  0  0  0  0
  4  3  2  0  0  0  0
  4  5  1  0  0  0  0
  5  6  2  0  0  0  0
  6  1  1  0  0  0  0
  6 11  1  0  0  0  0
  9  4  1  0  0  0  0
 10  5  1  0  0  0  0
 11 13  2  0  0  0  0
 12 11  2  0  0  0  0
 15 14  3  0  0  0  0
 16 17  1  0  0  0  0
 16 22  1  0  0  0  0
 17 23  1  0  0  0  0
 18 30  1  0  0  0  0
 18 17  2  0  0  0  0
 19 18  1  0  0  0  0
 20 19  2  0  0  0  0
 20 21  1  0  0  0  0
 21 16  2  0  0  0  0
 24 19  1  0  0  0  0
 25 20  1  0  0  0  0
 26 21  1  0  0  0  0
 26 28  2  0  0  0  0
 27 26  1  0  0  0  0
 27  3  1  0  0  0  0
 29 26  2  0  0  0  0
 30 33  1  0  0  0  0
 30 32  1  0  0  0  0
 31 30  1  0  0  0  0
M  END
