Coordinates from ORCA-job 4-NO2-Ph-N2-OTs-B3LYPG-6-31G_dp-MTMO-d009-169-n800
 OpenBabel09051908313D

 33 33  0  0  0  0  0  0  0  0999 V2000
   -0.0527    0.8873   -1.2419 C   0  0  0  0  0  0  0  0  0  0  0  0
    0.5174    0.0809   -2.2216 C   0  0  0  0  0  0  0  0  0  0  0  0
    1.2935    0.6721   -3.2236 C   0  0  0  0  0  0  0  0  0  0  0  0
    1.5011    2.0540   -3.2652 C   0  0  0  0  0  0  0  0  0  0  0  0
    0.9266    2.8627   -2.2904 C   0  0  0  0  0  0  0  0  0  0  0  0
    0.1608    2.2648   -1.2904 C   0  0  0  0  0  0  0  0  0  0  0  0
   -0.6604    0.4707   -0.4485 H   0  0  0  0  0  0  0  0  0  0  0  0
    0.3734   -0.9923   -2.2179 H   0  0  0  0  0  0  0  0  0  0  0  0
    2.1015    2.4760   -4.0633 H   0  0  0  0  0  0  0  0  0  0  0  0
    1.0625    3.9370   -2.2877 H   0  0  0  0  0  0  0  0  0  0  0  0
   -0.4421    3.1161   -0.2538 N   0  0  0  0  0  0  0  0  0  0  0  0
   -0.2328    4.3274   -0.3182 O   0  0  0  0  0  0  0  0  0  0  0  0
   -1.1165    2.5659    0.6156 O   0  0  0  0  0  0  0  0  0  0  0  0
    3.1412   -0.5843   -8.1238 N   0  0  0  0  0  0  0  0  0  0  0  0
    2.3609   -1.2313   -8.5633 N   0  0  0  0  0  0  0  0  0  0  0  0
    4.9540    0.3333   -2.5836 C   0  0  0  0  0  0  0  0  0  0  0  0
    6.0357    1.2089   -2.5132 C   0  0  0  0  0  0  0  0  0  0  0  0
    6.6523    1.6963   -3.6743 C   0  0  0  0  0  0  0  0  0  0  0  0
    6.1562    1.2841   -4.9214 C   0  0  0  0  0  0  0  0  0  0  0  0
    5.0778    0.4097   -5.0171 C   0  0  0  0  0  0  0  0  0  0  0  0
    4.4858   -0.0564   -3.8398 C   0  0  0  0  0  0  0  0  0  0  0  0
    4.4859   -0.0534   -1.6855 H   0  0  0  0  0  0  0  0  0  0  0  0
    6.4075    1.5166   -1.5400 H   0  0  0  0  0  0  0  0  0  0  0  0
    6.6244    1.6511   -5.8304 H   0  0  0  0  0  0  0  0  0  0  0  0
    4.7041    0.0860   -5.9823 H   0  0  0  0  0  0  0  0  0  0  0  0
    3.0915   -1.1566   -3.9498 S   0  0  0  0  0  0  0  0  0  0  0  0
    1.8201   -0.0913   -4.2562 O   0  0  0  0  0  0  0  0  0  0  0  0
    2.8648   -1.7772   -2.6488 O   0  0  0  0  0  0  0  0  0  0  0  0
    3.1582   -1.9261   -5.1809 O   0  0  0  0  0  0  0  0  0  0  0  0
    7.8426    2.6190   -3.5879 C   0  0  0  0  0  0  0  0  0  0  0  0
    7.8767    3.3087   -4.4364 H   0  0  0  0  0  0  0  0  0  0  0  0
    7.8278    3.2080   -2.6668 H   0  0  0  0  0  0  0  0  0  0  0  0
    8.7785    2.0471   -3.5957 H   0  0  0  0  0  0  0  0  0  0  0  0
  1  7  1  0  0  0  0
  2  8  1  0  0  0  0
  2  1  2  0  0  0  0
  3  2  1  0  0  0  0
  4  3  2  0  0  0  0
  4  5  1  0  0  0  0
  5 10  1  0  0  0  0
  5  6  2  0  0  0  0
  6  1  1  0  0  0  0
  6 11  1  0  0  0  0
  9  4  1  0  0  0  0
 11 13  2  0  0  0  0
 12 11  2  0  0  0  0
 15 14  3  0  0  0  0
 16 17  1  0  0  0  0
 16 22  1  0  0  0  0
 17 23  1  0  0  0  0
 18 30  1  0  0  0  0
 18 17  2  0  0  0  0
 19 18  1  0  0  0  0
 20 19  2  0  0  0  0
 20 21  1  0  0  0  0
 21 16  2  0  0  0  0
 24 19  1  0  0  0  0
 25 20  1  0  0  0  0
 26 21  1  0  0  0  0
 26 28  2  0  0  0  0
 27 26  1  0  0  0  0
 27  3  1  0  0  0  0
 29 26  2  0  0  0  0
 30 32  1  0  0  0  0
 31 30  1  0  0  0  0
 33 30  1  0  0  0  0
M  END
