Coordinates from ORCA-job 4-NO2-Ph-N2-OTs-B3LYPG-6-31G_dp-MTMO-d009-169-n800
 OpenBabel09051908313D

 33 33  0  0  0  0  0  0  0  0999 V2000
    0.1677    1.1487   -0.1797 C   0  0  0  0  0  0  0  0  0  0  0  0
    0.4025    0.1911   -1.1607 C   0  0  0  0  0  0  0  0  0  0  0  0
    0.7776    0.6066   -2.4425 C   0  0  0  0  0  0  0  0  0  0  0  0
    0.9138    1.9618   -2.7585 C   0  0  0  0  0  0  0  0  0  0  0  0
    0.6715    2.9210   -1.7810 C   0  0  0  0  0  0  0  0  0  0  0  0
    0.3051    2.4982   -0.5040 C   0  0  0  0  0  0  0  0  0  0  0  0
   -0.1254    0.8702    0.8244 H   0  0  0  0  0  0  0  0  0  0  0  0
    0.3037   -0.8657   -0.9468 H   0  0  0  0  0  0  0  0  0  0  0  0
    1.1981    2.2449   -3.7654 H   0  0  0  0  0  0  0  0  0  0  0  0
    0.7623    3.9802   -1.9867 H   0  0  0  0  0  0  0  0  0  0  0  0
    0.0533    3.5098    0.5333 N   0  0  0  0  0  0  0  0  0  0  0  0
    0.1855    4.6928    0.2201 O   0  0  0  0  0  0  0  0  0  0  0  0
   -0.2728    3.1125    1.6512 O   0  0  0  0  0  0  0  0  0  0  0  0
   10.7037    1.1381   -7.2288 N   0  0  0  0  0  0  0  0  0  0  0  0
   11.6917    0.9363   -7.6812 N   0  0  0  0  0  0  0  0  0  0  0  0
    4.4546    0.2454   -3.0741 C   0  0  0  0  0  0  0  0  0  0  0  0
    5.4889    1.0619   -3.5302 C   0  0  0  0  0  0  0  0  0  0  0  0
    5.6753    1.3034   -4.8983 C   0  0  0  0  0  0  0  0  0  0  0  0
    4.7928    0.7030   -5.8116 C   0  0  0  0  0  0  0  0  0  0  0  0
    3.7543   -0.1158   -5.3797 C   0  0  0  0  0  0  0  0  0  0  0  0
    3.5952   -0.3349   -4.0079 C   0  0  0  0  0  0  0  0  0  0  0  0
    4.3223    0.0470   -2.0164 H   0  0  0  0  0  0  0  0  0  0  0  0
    6.1641    1.5150   -2.8098 H   0  0  0  0  0  0  0  0  0  0  0  0
    4.9247    0.8774   -6.8762 H   0  0  0  0  0  0  0  0  0  0  0  0
    3.0832   -0.5902   -6.0874 H   0  0  0  0  0  0  0  0  0  0  0  0
    2.2617   -1.3721   -3.4471 S   0  0  0  0  0  0  0  0  0  0  0  0
    0.9491   -0.3127   -3.4679 O   0  0  0  0  0  0  0  0  0  0  0  0
    2.5093   -1.7655   -2.0639 O   0  0  0  0  0  0  0  0  0  0  0  0
    1.9102   -2.3284   -4.4826 O   0  0  0  0  0  0  0  0  0  0  0  0
    6.8121    2.1673   -5.3866 C   0  0  0  0  0  0  0  0  0  0  0  0
    7.6368    1.5529   -5.7682 H   0  0  0  0  0  0  0  0  0  0  0  0
    6.4932    2.8210   -6.2047 H   0  0  0  0  0  0  0  0  0  0  0  0
    7.2120    2.7939   -4.5853 H   0  0  0  0  0  0  0  0  0  0  0  0
  1  7  1  0  0  0  0
  2  8  1  0  0  0  0
  2  1  2  0  0  0  0
  3  2  1  0  0  0  0
  4  3  2  0  0  0  0
  4  5  1  0  0  0  0
  5  6  2  0  0  0  0
  6  1  1  0  0  0  0
  6 11  1  0  0  0  0
  9  4  1  0  0  0  0
 10  5  1  0  0  0  0
 11 13  2  0  0  0  0
 12 11  2  0  0  0  0
 15 14  3  0  0  0  0
 16 22  1  0  0  0  0
 17 16  1  0  0  0  0
 17 23  1  0  0  0  0
 18 17  2  0  0  0  0
 19 20  2  0  0  0  0
 19 18  1  0  0  0  0
 20 21  1  0  0  0  0
 21 26  1  0  0  0  0
 21 16  2  0  0  0  0
 24 19  1  0  0  0  0
 25 20  1  0  0  0  0
 26 28  2  0  0  0  0
 27 26  1  0  0  0  0
 27  3  1  0  0  0  0
 29 26  2  0  0  0  0
 30 18  1  0  0  0  0
 30 33  1  0  0  0  0
 31 30  1  0  0  0  0
 32 30  1  0  0  0  0
M  END
