Coordinates from ORCA-job 4-NO2-Ph-N2-OTs-B3LYPG-6-31G_dp-MTMO-d009-169-n800
 OpenBabel09051908313D

 33 33  0  0  0  0  0  0  0  0999 V2000
   -0.1346    1.5432   -0.1378 C   0  0  0  0  0  0  0  0  0  0  0  0
   -0.0737    0.5422   -1.1018 C   0  0  0  0  0  0  0  0  0  0  0  0
    0.3990    0.8556   -2.3804 C   0  0  0  0  0  0  0  0  0  0  0  0
    0.8009    2.1534   -2.7107 C   0  0  0  0  0  0  0  0  0  0  0  0
    0.7320    3.1575   -1.7509 C   0  0  0  0  0  0  0  0  0  0  0  0
    0.2686    2.8347   -0.4763 C   0  0  0  0  0  0  0  0  0  0  0  0
   -0.4940    1.3436    0.8634 H   0  0  0  0  0  0  0  0  0  0  0  0
   -0.3814   -0.4710   -0.8770 H   0  0  0  0  0  0  0  0  0  0  0  0
    1.1526    2.3595   -3.7152 H   0  0  0  0  0  0  0  0  0  0  0  0
    1.0309    4.1750   -1.9681 H   0  0  0  0  0  0  0  0  0  0  0  0
    0.2007    3.8924    0.5429 N   0  0  0  0  0  0  0  0  0  0  0  0
    0.5573    5.0239    0.2152 O   0  0  0  0  0  0  0  0  0  0  0  0
   -0.2065    3.5820    1.6616 O   0  0  0  0  0  0  0  0  0  0  0  0
   15.2935    3.6167   -9.7824 N   0  0  0  0  0  0  0  0  0  0  0  0
   16.1298    3.6572  -10.5039 N   0  0  0  0  0  0  0  0  0  0  0  0
    3.9167   -0.2365   -2.8117 C   0  0  0  0  0  0  0  0  0  0  0  0
    5.1135    0.3617   -3.2029 C   0  0  0  0  0  0  0  0  0  0  0  0
    5.4229    0.5492   -4.5573 C   0  0  0  0  0  0  0  0  0  0  0  0
    4.4978    0.1203   -5.5231 C   0  0  0  0  0  0  0  0  0  0  0  0
    3.2969   -0.4792   -5.1559 C   0  0  0  0  0  0  0  0  0  0  0  0
    3.0184   -0.6501   -3.7968 C   0  0  0  0  0  0  0  0  0  0  0  0
    3.6852   -0.3942   -1.7642 H   0  0  0  0  0  0  0  0  0  0  0  0
    5.8190    0.6856   -2.4431 H   0  0  0  0  0  0  0  0  0  0  0  0
    4.7240    0.2556   -6.5774 H   0  0  0  0  0  0  0  0  0  0  0  0
    2.5896   -0.8220   -5.9030 H   0  0  0  0  0  0  0  0  0  0  0  0
    1.4767   -1.3990   -3.3179 S   0  0  0  0  0  0  0  0  0  0  0  0
    0.4091   -0.0956   -3.3906 O   0  0  0  0  0  0  0  0  0  0  0  0
    1.5684   -1.8385   -1.9295 O   0  0  0  0  0  0  0  0  0  0  0  0
    0.9924   -2.2616   -4.3818 O   0  0  0  0  0  0  0  0  0  0  0  0
    6.7331    1.1714   -4.9732 C   0  0  0  0  0  0  0  0  0  0  0  0
    7.4690    0.3975   -5.2231 H   0  0  0  0  0  0  0  0  0  0  0  0
    6.6117    1.8018   -5.8591 H   0  0  0  0  0  0  0  0  0  0  0  0
    7.1588    1.7824   -4.1726 H   0  0  0  0  0  0  0  0  0  0  0  0
  1  7  1  0  0  0  0
  2  8  1  0  0  0  0
  2  1  2  0  0  0  0
  3  2  1  0  0  0  0
  4  3  2  0  0  0  0
  4  5  1  0  0  0  0
  5  6  2  0  0  0  0
  6  1  1  0  0  0  0
  6 11  1  0  0  0  0
  9  4  1  0  0  0  0
 10  5  1  0  0  0  0
 11 13  2  0  0  0  0
 12 11  2  0  0  0  0
 15 14  3  0  0  0  0
 16 22  1  0  0  0  0
 17 16  1  0  0  0  0
 17 23  1  0  0  0  0
 18 17  2  0  0  0  0
 19 20  2  0  0  0  0
 19 18  1  0  0  0  0
 20 21  1  0  0  0  0
 21 26  1  0  0  0  0
 21 16  2  0  0  0  0
 24 19  1  0  0  0  0
 25 20  1  0  0  0  0
 26 28  2  0  0  0  0
 27 26  1  0  0  0  0
 27  3  1  0  0  0  0
 29 26  2  0  0  0  0
 30 18  1  0  0  0  0
 30 33  1  0  0  0  0
 31 30  1  0  0  0  0
 32 30  1  0  0  0  0
M  END
