Coordinates from ORCA-job 4-NO2-Ph-N2-OTs-B3LYPG-6-31G_dp-MTMO-d009-169-n800
 OpenBabel09051908313D

 33 33  0  0  0  0  0  0  0  0999 V2000
   -0.0284    1.2178   -0.0743 C   0  0  0  0  0  0  0  0  0  0  0  0
    0.1540    0.2392   -1.0457 C   0  0  0  0  0  0  0  0  0  0  0  0
    0.5383    0.6221   -2.3348 C   0  0  0  0  0  0  0  0  0  0  0  0
    0.7358    1.9656   -2.6677 C   0  0  0  0  0  0  0  0  0  0  0  0
    0.5467    2.9461   -1.6997 C   0  0  0  0  0  0  0  0  0  0  0  0
    0.1702    2.5555   -0.4154 C   0  0  0  0  0  0  0  0  0  0  0  0
   -0.3267    0.9650    0.9350 H   0  0  0  0  0  0  0  0  0  0  0  0
    0.0071   -0.8093   -0.8193 H   0  0  0  0  0  0  0  0  0  0  0  0
    1.0264    2.2232   -3.6797 H   0  0  0  0  0  0  0  0  0  0  0  0
    0.6865    3.9974   -1.9180 H   0  0  0  0  0  0  0  0  0  0  0  0
   -0.0257    3.5896    0.6118 N   0  0  0  0  0  0  0  0  0  0  0  0
    0.1609    4.7612    0.2841 O   0  0  0  0  0  0  0  0  0  0  0  0
   -0.3624    3.2210    1.7362 O   0  0  0  0  0  0  0  0  0  0  0  0
   14.2922    1.6020   -8.9604 N   0  0  0  0  0  0  0  0  0  0  0  0
   15.2351    1.4094   -9.5040 N   0  0  0  0  0  0  0  0  0  0  0  0
    4.1742    0.1416   -2.9465 C   0  0  0  0  0  0  0  0  0  0  0  0
    5.2234    0.9424   -3.3956 C   0  0  0  0  0  0  0  0  0  0  0  0
    5.4103    1.1966   -4.7613 C   0  0  0  0  0  0  0  0  0  0  0  0
    4.5145    0.6242   -5.6795 C   0  0  0  0  0  0  0  0  0  0  0  0
    3.4609   -0.1788   -5.2543 C   0  0  0  0  0  0  0  0  0  0  0  0
    3.3008   -0.4102   -3.8847 C   0  0  0  0  0  0  0  0  0  0  0  0
    4.0397   -0.0656   -1.8907 H   0  0  0  0  0  0  0  0  0  0  0  0
    5.9090    1.3740   -2.6719 H   0  0  0  0  0  0  0  0  0  0  0  0
    4.6473    0.8086   -6.7423 H   0  0  0  0  0  0  0  0  0  0  0  0
    2.7781   -0.6307   -5.9655 H   0  0  0  0  0  0  0  0  0  0  0  0
    1.9399   -1.4151   -3.3314 S   0  0  0  0  0  0  0  0  0  0  0  0
    0.6591   -0.3177   -3.3488 O   0  0  0  0  0  0  0  0  0  0  0  0
    2.1743   -1.8217   -1.9498 O   0  0  0  0  0  0  0  0  0  0  0  0
    1.5624   -2.3560   -4.3718 O   0  0  0  0  0  0  0  0  0  0  0  0
    6.5636    2.0426   -5.2419 C   0  0  0  0  0  0  0  0  0  0  0  0
    7.3863    1.4116   -5.6000 H   0  0  0  0  0  0  0  0  0  0  0  0
    6.2663    2.6884   -6.0740 H   0  0  0  0  0  0  0  0  0  0  0  0
    6.9581    2.6747   -4.4423 H   0  0  0  0  0  0  0  0  0  0  0  0
  1  7  1  0  0  0  0
  2  8  1  0  0  0  0
  2  1  2  0  0  0  0
  3  2  1  0  0  0  0
  4  3  2  0  0  0  0
  4  5  1  0  0  0  0
  5  6  2  0  0  0  0
  6  1  1  0  0  0  0
  6 11  1  0  0  0  0
  9  4  1  0  0  0  0
 10  5  1  0  0  0  0
 11 13  2  0  0  0  0
 12 11  2  0  0  0  0
 15 14  3  0  0  0  0
 16 22  1  0  0  0  0
 17 16  1  0  0  0  0
 17 23  1  0  0  0  0
 18 17  2  0  0  0  0
 19 20  2  0  0  0  0
 19 18  1  0  0  0  0
 20 21  1  0  0  0  0
 21 26  1  0  0  0  0
 21 16  2  0  0  0  0
 24 19  1  0  0  0  0
 25 20  1  0  0  0  0
 26 28  2  0  0  0  0
 27 26  1  0  0  0  0
 27  3  1  0  0  0  0
 29 26  2  0  0  0  0
 30 18  1  0  0  0  0
 30 33  1  0  0  0  0
 31 30  1  0  0  0  0
 32 30  1  0  0  0  0
M  END
