Coordinates from ORCA-job 4-NO2-Ph-N2-OTs-B3LYPG-6-31G_dp-MTMO-d009-169-n800
 OpenBabel09051908313D

 33 33  0  0  0  0  0  0  0  0999 V2000
    0.1306    1.1701   -0.1529 C   0  0  0  0  0  0  0  0  0  0  0  0
    0.3411    0.1999   -1.1271 C   0  0  0  0  0  0  0  0  0  0  0  0
    0.7116    0.5976   -2.4158 C   0  0  0  0  0  0  0  0  0  0  0  0
    0.8674    1.9473   -2.7455 C   0  0  0  0  0  0  0  0  0  0  0  0
    0.6498    2.9192   -1.7748 C   0  0  0  0  0  0  0  0  0  0  0  0
    0.2875    2.5141   -0.4910 C   0  0  0  0  0  0  0  0  0  0  0  0
   -0.1584    0.9057    0.8562 H   0  0  0  0  0  0  0  0  0  0  0  0
    0.2267   -0.8532   -0.9030 H   0  0  0  0  0  0  0  0  0  0  0  0
    1.1480    2.2163   -3.7574 H   0  0  0  0  0  0  0  0  0  0  0  0
    0.7566    3.9748   -1.9908 H   0  0  0  0  0  0  0  0  0  0  0  0
    0.0616    3.5392    0.5391 N   0  0  0  0  0  0  0  0  0  0  0  0
    0.2112    4.7168    0.2140 O   0  0  0  0  0  0  0  0  0  0  0  0
   -0.2616    3.1576    1.6632 O   0  0  0  0  0  0  0  0  0  0  0  0
   11.7593    1.2713   -7.7216 N   0  0  0  0  0  0  0  0  0  0  0  0
   12.7328    1.0673   -8.2034 N   0  0  0  0  0  0  0  0  0  0  0  0
    4.3641    0.2049   -3.0319 C   0  0  0  0  0  0  0  0  0  0  0  0
    5.3964    1.0276   -3.4809 C   0  0  0  0  0  0  0  0  0  0  0  0
    5.5781    1.2859   -4.8465 C   0  0  0  0  0  0  0  0  0  0  0  0
    4.6941    0.6955   -5.7648 C   0  0  0  0  0  0  0  0  0  0  0  0
    3.6576   -0.1294   -5.3399 C   0  0  0  0  0  0  0  0  0  0  0  0
    3.5026   -0.3648   -3.9703 C   0  0  0  0  0  0  0  0  0  0  0  0
    4.2340   -0.0057   -1.9763 H   0  0  0  0  0  0  0  0  0  0  0  0
    6.0731    1.4729   -2.7571 H   0  0  0  0  0  0  0  0  0  0  0  0
    4.8231    0.8830   -6.8275 H   0  0  0  0  0  0  0  0  0  0  0  0
    2.9845   -0.5955   -6.0512 H   0  0  0  0  0  0  0  0  0  0  0  0
    2.1657   -1.4015   -3.4175 S   0  0  0  0  0  0  0  0  0  0  0  0
    0.8591   -0.3349   -3.4331 O   0  0  0  0  0  0  0  0  0  0  0  0
    2.4103   -1.8044   -2.0366 O   0  0  0  0  0  0  0  0  0  0  0  0
    1.8099   -2.3500   -4.4587 O   0  0  0  0  0  0  0  0  0  0  0  0
    6.7139    2.1552   -5.3273 C   0  0  0  0  0  0  0  0  0  0  0  0
    7.5428    1.5416   -5.7008 H   0  0  0  0  0  0  0  0  0  0  0  0
    6.3990    2.8060   -6.1491 H   0  0  0  0  0  0  0  0  0  0  0  0
    7.1059    2.7841   -4.5240 H   0  0  0  0  0  0  0  0  0  0  0  0
  1  7  1  0  0  0  0
  2  8  1  0  0  0  0
  2  1  2  0  0  0  0
  3  2  1  0  0  0  0
  4  3  2  0  0  0  0
  4  5  1  0  0  0  0
  5  6  2  0  0  0  0
  6  1  1  0  0  0  0
  6 11  1  0  0  0  0
  9  4  1  0  0  0  0
 10  5  1  0  0  0  0
 11 13  2  0  0  0  0
 12 11  2  0  0  0  0
 15 14  3  0  0  0  0
 16 22  1  0  0  0  0
 17 16  1  0  0  0  0
 17 23  1  0  0  0  0
 18 17  2  0  0  0  0
 19 20  2  0  0  0  0
 19 18  1  0  0  0  0
 20 21  1  0  0  0  0
 21 26  1  0  0  0  0
 21 16  2  0  0  0  0
 24 19  1  0  0  0  0
 25 20  1  0  0  0  0
 26 28  2  0  0  0  0
 27 26  1  0  0  0  0
 27  3  1  0  0  0  0
 29 26  2  0  0  0  0
 30 18  1  0  0  0  0
 30 33  1  0  0  0  0
 31 30  1  0  0  0  0
 32 30  1  0  0  0  0
M  END
