Coordinates from ORCA-job 4-NO2-Ph-N2-OTs-B3LYPG-6-31G_dp-MTMO-d009-169-n800
 OpenBabel09051908313D

 33 32  0  0  0  0  0  0  0  0999 V2000
    0.6763    1.0676   -1.4049 C   0  0  0  0  0  0  0  0  0  0  0  0
    0.8293    0.6398   -2.7266 C   0  0  0  0  0  0  0  0  0  0  0  0
    0.1948    1.2301   -3.6353 C   0  0  0  0  0  0  0  0  0  0  0  0
   -0.6788    2.2844   -3.7018 C   0  0  0  0  0  0  0  0  0  0  0  0
   -0.8660    2.7607   -2.3893 C   0  0  0  0  0  0  0  0  0  0  0  0
   -0.2050    2.1624   -1.2981 C   0  0  0  0  0  0  0  0  0  0  0  0
    1.1578    0.6500   -0.5304 H   0  0  0  0  0  0  0  0  0  0  0  0
    2.1973   -0.6860   -3.5705 H   0  0  0  0  0  0  0  0  0  0  0  0
   -1.1628    2.7019   -4.5740 H   0  0  0  0  0  0  0  0  0  0  0  0
   -1.5275    3.5979   -2.1997 H   0  0  0  0  0  0  0  0  0  0  0  0
   -0.4498    2.7218    0.0459 N   0  0  0  0  0  0  0  0  0  0  0  0
   -1.2193    3.6765    0.1385 O   0  0  0  0  0  0  0  0  0  0  0  0
    0.1351    2.1952    0.9902 O   0  0  0  0  0  0  0  0  0  0  0  0
   -0.1945    0.6046   -6.5668 N   0  0  0  0  0  0  0  0  0  0  0  0
    0.0402   -0.0001   -7.4611 N   0  0  0  0  0  0  0  0  0  0  0  0
    5.0803    1.4596   -4.0680 C   0  0  0  0  0  0  0  0  0  0  0  0
    6.1972    2.0367   -3.4642 C   0  0  0  0  0  0  0  0  0  0  0  0
    7.3386    1.2775   -3.1749 C   0  0  0  0  0  0  0  0  0  0  0  0
    7.3386   -0.0862   -3.5103 C   0  0  0  0  0  0  0  0  0  0  0  0
    6.2348   -0.6801   -4.1147 C   0  0  0  0  0  0  0  0  0  0  0  0
    5.1090    0.1020   -4.3852 C   0  0  0  0  0  0  0  0  0  0  0  0
    4.2029    2.0515   -4.3048 H   0  0  0  0  0  0  0  0  0  0  0  0
    6.1821    3.0945   -3.2163 H   0  0  0  0  0  0  0  0  0  0  0  0
    8.2174   -0.6894   -3.2971 H   0  0  0  0  0  0  0  0  0  0  0  0
    6.2425   -1.7296   -4.3872 H   0  0  0  0  0  0  0  0  0  0  0  0
    3.6805   -0.6571   -5.1384 S   0  0  0  0  0  0  0  0  0  0  0  0
    2.8231    0.3984   -5.6851 O   0  0  0  0  0  0  0  0  0  0  0  0
    2.8992   -1.3113   -3.8629 O   0  0  0  0  0  0  0  0  0  0  0  0
    4.1230   -1.7823   -5.9481 O   0  0  0  0  0  0  0  0  0  0  0  0
    8.5530    1.9089   -2.5379 C   0  0  0  0  0  0  0  0  0  0  0  0
    9.3660    2.0175   -3.2660 H   0  0  0  0  0  0  0  0  0  0  0  0
    8.3279    2.9027   -2.1432 H   0  0  0  0  0  0  0  0  0  0  0  0
    8.9353    1.2948   -1.7162 H   0  0  0  0  0  0  0  0  0  0  0  0
  1  6  1  0  0  0  0
  1  7  1  0  0  0  0
  2  1  2  0  0  0  0
  3  2  1  0  0  0  0
  4  3  2  0  0  0  0
  4  5  1  0  0  0  0
  5 10  1  0  0  0  0
  5  6  2  0  0  0  0
  6 11  1  0  0  0  0
  9  4  1  0  0  0  0
 11 12  2  0  0  0  0
 11 13  2  0  0  0  0
 15 14  3  0  0  0  0
 16 17  2  0  0  0  0
 17 23  1  0  0  0  0
 17 18  1  0  0  0  0
 18 30  1  0  0  0  0
 19 24  1  0  0  0  0
 19 18  2  0  0  0  0
 20 19  1  0  0  0  0
 21 20  2  0  0  0  0
 21 16  1  0  0  0  0
 22 16  1  0  0  0  0
 25 20  1  0  0  0  0
 26 21  1  0  0  0  0
 26 28  1  0  0  0  0
 27 26  2  0  0  0  0
 28  8  1  0  0  0  0
 29 26  2  0  0  0  0
 30 32  1  0  0  0  0
 30 33  1  0  0  0  0
 31 30  1  0  0  0  0
M  RAD  2   2   2   3   2
M  END
