Coordinates from ORCA-job 4-NO2-Ph-N2-OTs-B3LYPG-6-31G_dp-MTMO-d009-169-n800
 OpenBabel09051908313D

 33 33  0  0  0  0  0  0  0  0999 V2000
   -1.6345    0.4780   -2.0868 C   0  0  0  0  0  0  0  0  0  0  0  0
   -1.0753    0.2295   -3.3197 C   0  0  0  0  0  0  0  0  0  0  0  0
    0.0323    1.0190   -3.7938 C   0  0  0  0  0  0  0  0  0  0  0  0
    0.5374    2.0783   -2.9582 C   0  0  0  0  0  0  0  0  0  0  0  0
   -0.0621    2.3257   -1.7335 C   0  0  0  0  0  0  0  0  0  0  0  0
   -1.1207    1.5263   -1.3156 C   0  0  0  0  0  0  0  0  0  0  0  0
   -2.4605   -0.1100   -1.7078 H   0  0  0  0  0  0  0  0  0  0  0  0
   -1.4404   -0.5737   -3.9515 H   0  0  0  0  0  0  0  0  0  0  0  0
    1.3752    2.6734   -3.3160 H   0  0  0  0  0  0  0  0  0  0  0  0
    0.2972    3.1212   -1.0923 H   0  0  0  0  0  0  0  0  0  0  0  0
   -1.7402    1.7950    0.0015 N   0  0  0  0  0  0  0  0  0  0  0  0
   -1.2878    2.7296    0.6542 O   0  0  0  0  0  0  0  0  0  0  0  0
   -2.6658    1.0626    0.3430 O   0  0  0  0  0  0  0  0  0  0  0  0
    0.4899    0.7981   -4.7922 N   0  0  0  0  0  0  0  0  0  0  0  0
    0.9889    0.5963   -5.7956 N   0  0  0  0  0  0  0  0  0  0  0  0
    6.2548    2.2162   -4.4327 C   0  0  0  0  0  0  0  0  0  0  0  0
    7.6195    1.9634   -4.3082 C   0  0  0  0  0  0  0  0  0  0  0  0
    8.0890    0.7180   -3.8670 C   0  0  0  0  0  0  0  0  0  0  0  0
    7.1498   -0.2706   -3.5391 C   0  0  0  0  0  0  0  0  0  0  0  0
    5.7820   -0.0334   -3.6593 C   0  0  0  0  0  0  0  0  0  0  0  0
    5.3411    1.2123   -4.1082 C   0  0  0  0  0  0  0  0  0  0  0  0
    5.8919    3.1851   -4.7581 H   0  0  0  0  0  0  0  0  0  0  0  0
    8.3323    2.7471   -4.5526 H   0  0  0  0  0  0  0  0  0  0  0  0
    7.4954   -1.2365   -3.1792 H   0  0  0  0  0  0  0  0  0  0  0  0
    5.0561   -0.7921   -3.3885 H   0  0  0  0  0  0  0  0  0  0  0  0
    3.5885    1.5148   -4.3114 S   0  0  0  0  0  0  0  0  0  0  0  0
    3.2470    1.0772   -5.7173 O   0  0  0  0  0  0  0  0  0  0  0  0
    3.3694    2.9698   -4.0965 O   0  0  0  0  0  0  0  0  0  0  0  0
    2.8740    0.6590   -3.3119 O   0  0  0  0  0  0  0  0  0  0  0  0
    9.5702    0.4406   -3.7670 C   0  0  0  0  0  0  0  0  0  0  0  0
    9.9592    0.0345   -4.7096 H   0  0  0  0  0  0  0  0  0  0  0  0
   10.1355    1.3516   -3.5499 H   0  0  0  0  0  0  0  0  0  0  0  0
    9.7890   -0.2914   -2.9835 H   0  0  0  0  0  0  0  0  0  0  0  0
  1  7  1  0  0  0  0
  1  6  2  0  0  0  0
  2  1  1  0  0  0  0
  3  2  2  0  0  0  0
  3  4  1  0  0  0  0
  4  5  2  0  0  0  0
  5  6  1  0  0  0  0
  5 10  1  0  0  0  0
  6 11  1  0  0  0  0
  8  2  1  0  0  0  0
  9  4  1  0  0  0  0
 11 13  2  0  0  0  0
 11 12  2  0  0  0  0
 14  3  1  0  0  0  0
 15 14  1  0  0  0  0
 16 17  2  0  0  0  0
 16 21  1  0  0  0  0
 17 18  1  0  0  0  0
 18 30  1  0  0  0  0
 18 19  2  0  0  0  0
 19 24  1  0  0  0  0
 20 19  1  0  0  0  0
 20 25  1  0  0  0  0
 21 20  2  0  0  0  0
 22 16  1  0  0  0  0
 23 17  1  0  0  0  0
 26 21  1  0  0  0  0
 26 28  2  0  0  0  0
 26 29  1  0  0  0  0
 27 26  2  0  0  0  0
 30 32  1  0  0  0  0
 30 33  1  0  0  0  0
 31 30  1  0  0  0  0
M  RAD  3  14   2  15   3  29   2
M  END
