Coordinates from ORCA-job 4-NO2-Ph-N2-OTs-B3LYPG-6-31G_dp-MTMO-d009-169-n800
 OpenBabel09051908313D

 33 33  0  0  0  0  0  0  0  0999 V2000
   -0.0333    1.2475   -0.6750 C   0  0  0  0  0  0  0  0  0  0  0  0
    0.3581    0.2647   -1.5784 C   0  0  0  0  0  0  0  0  0  0  0  0
    0.9580    0.6466   -2.7831 C   0  0  0  0  0  0  0  0  0  0  0  0
    1.1624    1.9928   -3.1002 C   0  0  0  0  0  0  0  0  0  0  0  0
    0.7629    2.9770   -2.2025 C   0  0  0  0  0  0  0  0  0  0  0  0
    0.1742    2.5878   -0.9999 C   0  0  0  0  0  0  0  0  0  0  0  0
   -0.4998    0.9947    0.2684 H   0  0  0  0  0  0  0  0  0  0  0  0
    0.2107   -0.7857   -1.3617 H   0  0  0  0  0  0  0  0  0  0  0  0
    1.6213    2.2497   -4.0480 H   0  0  0  0  0  0  0  0  0  0  0  0
    0.9005    4.0302   -2.4128 H   0  0  0  0  0  0  0  0  0  0  0  0
   -0.2437    3.6256   -0.0457 N   0  0  0  0  0  0  0  0  0  0  0  0
   -0.0480    4.7999   -0.3584 O   0  0  0  0  0  0  0  0  0  0  0  0
   -0.7622    3.2575    1.0077 O   0  0  0  0  0  0  0  0  0  0  0  0
    6.9918    1.1840   -8.8162 N   0  0  0  0  0  0  0  0  0  0  0  0
    7.3668    1.2132   -9.8553 N   0  0  0  0  0  0  0  0  0  0  0  0
    4.6415    0.1664   -2.5910 C   0  0  0  0  0  0  0  0  0  0  0  0
    5.7697    0.9585   -2.7992 C   0  0  0  0  0  0  0  0  0  0  0  0
    6.2572    1.2033   -4.0903 C   0  0  0  0  0  0  0  0  0  0  0  0
    5.5838    0.6334   -5.1836 C   0  0  0  0  0  0  0  0  0  0  0  0
    4.4565   -0.1608   -4.9988 C   0  0  0  0  0  0  0  0  0  0  0  0
    3.9954   -0.3855   -3.6980 C   0  0  0  0  0  0  0  0  0  0  0  0
    4.2740   -0.0342   -1.5910 H   0  0  0  0  0  0  0  0  0  0  0  0
    6.2811    1.3897   -1.9434 H   0  0  0  0  0  0  0  0  0  0  0  0
    5.9512    0.8103   -6.1906 H   0  0  0  0  0  0  0  0  0  0  0  0
    3.9454   -0.6126   -5.8417 H   0  0  0  0  0  0  0  0  0  0  0  0
    2.5474   -1.3909   -3.4557 S   0  0  0  0  0  0  0  0  0  0  0  0
    1.2976   -0.2955   -3.7436 O   0  0  0  0  0  0  0  0  0  0  0  0
    2.4800   -1.8058   -2.0583 O   0  0  0  0  0  0  0  0  0  0  0  0
    2.4026   -2.3276   -4.5568 O   0  0  0  0  0  0  0  0  0  0  0  0
    7.4966    2.0363   -4.3053 C   0  0  0  0  0  0  0  0  0  0  0  0
    7.3935    2.6856   -5.1801 H   0  0  0  0  0  0  0  0  0  0  0  0
    7.7155    2.6627   -3.4366 H   0  0  0  0  0  0  0  0  0  0  0  0
    8.3697    1.3958   -4.4791 H   0  0  0  0  0  0  0  0  0  0  0  0
  1  7  1  0  0  0  0
  2  8  1  0  0  0  0
  2  1  2  0  0  0  0
  3  2  1  0  0  0  0
  4  3  2  0  0  0  0
  4  5  1  0  0  0  0
  5  6  2  0  0  0  0
  6  1  1  0  0  0  0
  6 11  1  0  0  0  0
  9  4  1  0  0  0  0
 10  5  1  0  0  0  0
 11 13  2  0  0  0  0
 12 11  2  0  0  0  0
 15 14  3  0  0  0  0
 16 22  1  0  0  0  0
 17 16  1  0  0  0  0
 17 23  1  0  0  0  0
 18 17  2  0  0  0  0
 19 20  2  0  0  0  0
 19 18  1  0  0  0  0
 20 21  1  0  0  0  0
 21 26  1  0  0  0  0
 21 16  2  0  0  0  0
 24 19  1  0  0  0  0
 25 20  1  0  0  0  0
 26 28  2  0  0  0  0
 27 26  1  0  0  0  0
 27  3  1  0  0  0  0
 29 26  2  0  0  0  0
 30 18  1  0  0  0  0
 30 32  1  0  0  0  0
 31 30  1  0  0  0  0
 33 30  1  0  0  0  0
M  END
