Coordinates from ORCA-job 4-NO2-Ph-N2-OTs-B3LYPG-6-31G_dp-MTMO-d009-169-n800
 OpenBabel09051908313D

 33 33  0  0  0  0  0  0  0  0999 V2000
   -0.0838    0.9288   -1.0948 C   0  0  0  0  0  0  0  0  0  0  0  0
    0.4033    0.2135   -2.1840 C   0  0  0  0  0  0  0  0  0  0  0  0
    1.1555    0.8815   -3.1558 C   0  0  0  0  0  0  0  0  0  0  0  0
    1.4184    2.2514   -3.0601 C   0  0  0  0  0  0  0  0  0  0  0  0
    0.9258    2.9696   -1.9756 C   0  0  0  0  0  0  0  0  0  0  0  0
    0.1851    2.2945   -1.0064 C   0  0  0  0  0  0  0  0  0  0  0  0
   -0.6696    0.4505   -0.3197 H   0  0  0  0  0  0  0  0  0  0  0  0
    0.2135   -0.8472   -2.2878 H   0  0  0  0  0  0  0  0  0  0  0  0
    1.9968    2.7352   -3.8393 H   0  0  0  0  0  0  0  0  0  0  0  0
    1.1064    4.0313   -1.8652 H   0  0  0  0  0  0  0  0  0  0  0  0
   -0.3303    3.0492    0.1456 N   0  0  0  0  0  0  0  0  0  0  0  0
   -0.0724    4.2516    0.2005 O   0  0  0  0  0  0  0  0  0  0  0  0
   -0.9852    2.4328    0.9851 O   0  0  0  0  0  0  0  0  0  0  0  0
    4.4612   -1.5169   -8.3749 N   0  0  0  0  0  0  0  0  0  0  0  0
    3.9895   -2.4215   -8.7993 N   0  0  0  0  0  0  0  0  0  0  0  0
    4.7642    0.4001   -2.7470 C   0  0  0  0  0  0  0  0  0  0  0  0
    5.8934    1.2093   -2.6451 C   0  0  0  0  0  0  0  0  0  0  0  0
    6.5483    1.6901   -3.7886 C   0  0  0  0  0  0  0  0  0  0  0  0
    6.0420    1.3385   -5.0494 C   0  0  0  0  0  0  0  0  0  0  0  0
    4.9135    0.5332   -5.1764 C   0  0  0  0  0  0  0  0  0  0  0  0
    4.2836    0.0731   -4.0172 C   0  0  0  0  0  0  0  0  0  0  0  0
    4.2700    0.0154   -1.8622 H   0  0  0  0  0  0  0  0  0  0  0  0
    6.2738    1.4688   -1.6612 H   0  0  0  0  0  0  0  0  0  0  0  0
    6.5412    1.6976   -5.9450 H   0  0  0  0  0  0  0  0  0  0  0  0
    4.5355    0.2499   -6.1524 H   0  0  0  0  0  0  0  0  0  0  0  0
    2.8258   -0.9361   -4.1672 S   0  0  0  0  0  0  0  0  0  0  0  0
    1.6012    0.2188   -4.2915 O   0  0  0  0  0  0  0  0  0  0  0  0
    2.6252   -1.6791   -2.9275 O   0  0  0  0  0  0  0  0  0  0  0  0
    2.7945   -1.5725   -5.4734 O   0  0  0  0  0  0  0  0  0  0  0  0
    7.7895    2.5389   -3.6664 C   0  0  0  0  0  0  0  0  0  0  0  0
    7.9039    3.2074   -4.5244 H   0  0  0  0  0  0  0  0  0  0  0  0
    7.7714    3.1467   -2.7573 H   0  0  0  0  0  0  0  0  0  0  0  0
    8.6869    1.9099   -3.6205 H   0  0  0  0  0  0  0  0  0  0  0  0
  1  6  1  0  0  0  0
  1  7  1  0  0  0  0
  2  1  2  0  0  0  0
  3  4  2  0  0  0  0
  3  2  1  0  0  0  0
  4  5  1  0  0  0  0
  5 10  1  0  0  0  0
  5  6  2  0  0  0  0
  6 11  1  0  0  0  0
  8  2  1  0  0  0  0
  9  4  1  0  0  0  0
 11 12  2  0  0  0  0
 11 13  2  0  0  0  0
 15 14  3  0  0  0  0
 16 17  1  0  0  0  0
 16 22  1  0  0  0  0
 17 23  1  0  0  0  0
 18 30  1  0  0  0  0
 18 17  2  0  0  0  0
 19 18  1  0  0  0  0
 20 19  2  0  0  0  0
 20 21  1  0  0  0  0
 21 16  2  0  0  0  0
 24 19  1  0  0  0  0
 25 20  1  0  0  0  0
 26 21  1  0  0  0  0
 26 28  2  0  0  0  0
 27 26  1  0  0  0  0
 27  3  1  0  0  0  0
 29 26  2  0  0  0  0
 30 33  1  0  0  0  0
 30 32  1  0  0  0  0
 31 30  1  0  0  0  0
M  END
