Coordinates from ORCA-job 4-NO2-Ph-N2-OTs-B3LYPG-6-31G_dp-MTMO-d009-169-n800
 OpenBabel09051908313D

 33 33  0  0  0  0  0  0  0  0999 V2000
    0.0802    1.1772   -0.1218 C   0  0  0  0  0  0  0  0  0  0  0  0
    0.2838    0.2048   -1.0953 C   0  0  0  0  0  0  0  0  0  0  0  0
    0.6536    0.5990   -2.3853 C   0  0  0  0  0  0  0  0  0  0  0  0
    0.8156    1.9476   -2.7169 C   0  0  0  0  0  0  0  0  0  0  0  0
    0.6050    2.9217   -1.7469 C   0  0  0  0  0  0  0  0  0  0  0  0
    0.2433    2.5199   -0.4618 C   0  0  0  0  0  0  0  0  0  0  0  0
   -0.2080    0.9155    0.8882 H   0  0  0  0  0  0  0  0  0  0  0  0
    0.1645   -0.8475   -0.8698 H   0  0  0  0  0  0  0  0  0  0  0  0
    1.0955    2.2139   -3.7297 H   0  0  0  0  0  0  0  0  0  0  0  0
    0.7168    3.9765   -1.9644 H   0  0  0  0  0  0  0  0  0  0  0  0
    0.0248    3.5474    0.5675 N   0  0  0  0  0  0  0  0  0  0  0  0
    0.1798    4.7239    0.2407 O   0  0  0  0  0  0  0  0  0  0  0  0
   -0.2982    3.1688    1.6927 O   0  0  0  0  0  0  0  0  0  0  0  0
   12.6609    1.3322   -8.1407 N   0  0  0  0  0  0  0  0  0  0  0  0
   13.6172    1.1246   -8.6545 N   0  0  0  0  0  0  0  0  0  0  0  0
    4.3010    0.1936   -3.0050 C   0  0  0  0  0  0  0  0  0  0  0  0
    5.3343    1.0145   -3.4550 C   0  0  0  0  0  0  0  0  0  0  0  0
    5.5143    1.2734   -4.8207 C   0  0  0  0  0  0  0  0  0  0  0  0
    4.6276    0.6857   -5.7381 C   0  0  0  0  0  0  0  0  0  0  0  0
    3.5900   -0.1374   -5.3121 C   0  0  0  0  0  0  0  0  0  0  0  0
    3.4367   -0.3734   -3.9425 C   0  0  0  0  0  0  0  0  0  0  0  0
    4.1721   -0.0174   -1.9493 H   0  0  0  0  0  0  0  0  0  0  0  0
    6.0130    1.4578   -2.7319 H   0  0  0  0  0  0  0  0  0  0  0  0
    4.7552    0.8737   -6.8008 H   0  0  0  0  0  0  0  0  0  0  0  0
    2.9146   -0.6013   -6.0227 H   0  0  0  0  0  0  0  0  0  0  0  0
    2.0974   -1.4064   -3.3882 S   0  0  0  0  0  0  0  0  0  0  0  0
    0.7944   -0.3356   -3.4015 O   0  0  0  0  0  0  0  0  0  0  0  0
    2.3429   -1.8104   -2.0078 O   0  0  0  0  0  0  0  0  0  0  0  0
    1.7371   -2.3533   -4.4293 O   0  0  0  0  0  0  0  0  0  0  0  0
    6.6514    2.1404   -5.3024 C   0  0  0  0  0  0  0  0  0  0  0  0
    7.4822    1.5247   -5.6681 H   0  0  0  0  0  0  0  0  0  0  0  0
    6.3397    2.7858   -6.1296 H   0  0  0  0  0  0  0  0  0  0  0  0
    7.0396    2.7746   -4.5013 H   0  0  0  0  0  0  0  0  0  0  0  0
  1  7  1  0  0  0  0
  2  8  1  0  0  0  0
  2  1  2  0  0  0  0
  3  2  1  0  0  0  0
  4  3  2  0  0  0  0
  4  5  1  0  0  0  0
  5  6  2  0  0  0  0
  6  1  1  0  0  0  0
  6 11  1  0  0  0  0
  9  4  1  0  0  0  0
 10  5  1  0  0  0  0
 11 13  2  0  0  0  0
 12 11  2  0  0  0  0
 15 14  3  0  0  0  0
 16 22  1  0  0  0  0
 17 16  1  0  0  0  0
 17 23  1  0  0  0  0
 18 17  2  0  0  0  0
 19 20  2  0  0  0  0
 19 18  1  0  0  0  0
 20 21  1  0  0  0  0
 21 26  1  0  0  0  0
 21 16  2  0  0  0  0
 24 19  1  0  0  0  0
 25 20  1  0  0  0  0
 26 28  2  0  0  0  0
 27 26  1  0  0  0  0
 27  3  1  0  0  0  0
 29 26  2  0  0  0  0
 30 18  1  0  0  0  0
 30 33  1  0  0  0  0
 31 30  1  0  0  0  0
 32 30  1  0  0  0  0
M  END
