Coordinates from ORCA-job 4-NO2-Ph-N2-OTs-B3LYPG-6-31G_dp-MTMO-d009-169-n800
 OpenBabel09051908313D

 33 33  0  0  0  0  0  0  0  0999 V2000
    0.0094    1.1903   -0.0824 C   0  0  0  0  0  0  0  0  0  0  0  0
    0.2040    0.2154   -1.0553 C   0  0  0  0  0  0  0  0  0  0  0  0
    0.5765    0.6054   -2.3457 C   0  0  0  0  0  0  0  0  0  0  0  0
    0.7502    1.9521   -2.6785 C   0  0  0  0  0  0  0  0  0  0  0  0
    0.5488    2.9288   -1.7092 C   0  0  0  0  0  0  0  0  0  0  0  0
    0.1843    2.5313   -0.4236 C   0  0  0  0  0  0  0  0  0  0  0  0
   -0.2805    0.9319    0.9279 H   0  0  0  0  0  0  0  0  0  0  0  0
    0.0755   -0.8356   -0.8289 H   0  0  0  0  0  0  0  0  0  0  0  0
    1.0320    2.2152   -3.6916 H   0  0  0  0  0  0  0  0  0  0  0  0
    0.6699    3.9824   -1.9274 H   0  0  0  0  0  0  0  0  0  0  0  0
   -0.0247    3.5614    0.6051 N   0  0  0  0  0  0  0  0  0  0  0  0
    0.1409    4.7362    0.2773 O   0  0  0  0  0  0  0  0  0  0  0  0
   -0.3505    3.1866    1.7307 O   0  0  0  0  0  0  0  0  0  0  0  0
   13.8232    1.4319   -8.7050 N   0  0  0  0  0  0  0  0  0  0  0  0
   14.7716    1.2319   -9.2361 N   0  0  0  0  0  0  0  0  0  0  0  0
    4.2188    0.1751   -2.9691 C   0  0  0  0  0  0  0  0  0  0  0  0
    5.2563    0.9897   -3.4207 C   0  0  0  0  0  0  0  0  0  0  0  0
    5.4356    1.2476   -4.7867 C   0  0  0  0  0  0  0  0  0  0  0  0
    4.5441    0.6650   -5.7027 C   0  0  0  0  0  0  0  0  0  0  0  0
    3.5023   -0.1519   -5.2750 C   0  0  0  0  0  0  0  0  0  0  0  0
    3.3497   -0.3868   -3.9052 C   0  0  0  0  0  0  0  0  0  0  0  0
    4.0903   -0.0350   -1.9132 H   0  0  0  0  0  0  0  0  0  0  0  0
    5.9387    1.4292   -2.6987 H   0  0  0  0  0  0  0  0  0  0  0  0
    4.6712    0.8522   -6.7657 H   0  0  0  0  0  0  0  0  0  0  0  0
    2.8231   -0.6118   -5.9845 H   0  0  0  0  0  0  0  0  0  0  0  0
    2.0044   -1.4108   -3.3487 S   0  0  0  0  0  0  0  0  0  0  0  0
    0.7085   -0.3315   -3.3611 O   0  0  0  0  0  0  0  0  0  0  0  0
    2.2488   -1.8156   -1.9683 O   0  0  0  0  0  0  0  0  0  0  0  0
    1.6367   -2.3560   -4.3888 O   0  0  0  0  0  0  0  0  0  0  0  0
    6.5771    2.1079   -5.2700 C   0  0  0  0  0  0  0  0  0  0  0  0
    7.4067    1.4872   -5.6301 H   0  0  0  0  0  0  0  0  0  0  0  0
    6.2700    2.7500   -6.1015 H   0  0  0  0  0  0  0  0  0  0  0  0
    6.9656    2.7449   -4.4713 H   0  0  0  0  0  0  0  0  0  0  0  0
  1  7  1  0  0  0  0
  2  8  1  0  0  0  0
  2  1  2  0  0  0  0
  3  2  1  0  0  0  0
  4  3  2  0  0  0  0
  4  5  1  0  0  0  0
  5  6  2  0  0  0  0
  6  1  1  0  0  0  0
  6 11  1  0  0  0  0
  9  4  1  0  0  0  0
 10  5  1  0  0  0  0
 11 13  2  0  0  0  0
 12 11  2  0  0  0  0
 15 14  3  0  0  0  0
 16 22  1  0  0  0  0
 17 16  1  0  0  0  0
 17 23  1  0  0  0  0
 18 17  2  0  0  0  0
 19 20  2  0  0  0  0
 19 18  1  0  0  0  0
 20 21  1  0  0  0  0
 21 26  1  0  0  0  0
 21 16  2  0  0  0  0
 24 19  1  0  0  0  0
 25 20  1  0  0  0  0
 26 28  2  0  0  0  0
 27 26  1  0  0  0  0
 27  3  1  0  0  0  0
 29 26  2  0  0  0  0
 30 18  1  0  0  0  0
 30 33  1  0  0  0  0
 31 30  1  0  0  0  0
 32 30  1  0  0  0  0
M  END
