Coordinates from ORCA-job 4-NO2-Ph-N2-OTs-B3LYPG-6-31G_dp-MTMO-d009-169-n800
 OpenBabel09051908313D

 33 32  0  0  0  0  0  0  0  0999 V2000
    0.8557    1.1461   -1.7158 C   0  0  0  0  0  0  0  0  0  0  0  0
    0.8107    0.7267   -3.0537 C   0  0  0  0  0  0  0  0  0  0  0  0
   -0.0367    1.2879   -3.7992 C   0  0  0  0  0  0  0  0  0  0  0  0
   -0.9902    2.2625   -3.6812 C   0  0  0  0  0  0  0  0  0  0  0  0
   -0.9720    2.7125   -2.3473 C   0  0  0  0  0  0  0  0  0  0  0  0
   -0.0730    2.1604   -1.4147 C   0  0  0  0  0  0  0  0  0  0  0  0
    1.5230    0.7619   -0.9548 H   0  0  0  0  0  0  0  0  0  0  0  0
    2.1292   -0.5738   -3.7570 H   0  0  0  0  0  0  0  0  0  0  0  0
   -1.6558    2.6452   -4.4432 H   0  0  0  0  0  0  0  0  0  0  0  0
   -1.6523    3.4906   -2.0214 H   0  0  0  0  0  0  0  0  0  0  0  0
   -0.1062    2.6827   -0.0344 N   0  0  0  0  0  0  0  0  0  0  0  0
   -0.9231    3.5646    0.2256 O   0  0  0  0  0  0  0  0  0  0  0  0
    0.6891    2.2014    0.7695 O   0  0  0  0  0  0  0  0  0  0  0  0
   -0.2853    0.6171   -6.2385 N   0  0  0  0  0  0  0  0  0  0  0  0
    0.0682   -0.0318   -7.0601 N   0  0  0  0  0  0  0  0  0  0  0  0
    5.1020    1.4693   -4.1462 C   0  0  0  0  0  0  0  0  0  0  0  0
    6.1879    2.0453   -3.4875 C   0  0  0  0  0  0  0  0  0  0  0  0
    7.2833    1.2716   -3.0815 C   0  0  0  0  0  0  0  0  0  0  0  0
    7.2683   -0.1055   -3.3550 C   0  0  0  0  0  0  0  0  0  0  0  0
    6.1946   -0.6985   -4.0127 C   0  0  0  0  0  0  0  0  0  0  0  0
    5.1144    0.0981   -4.4001 C   0  0  0  0  0  0  0  0  0  0  0  0
    4.2611    2.0714   -4.4728 H   0  0  0  0  0  0  0  0  0  0  0  0
    6.1849    3.1136   -3.2880 H   0  0  0  0  0  0  0  0  0  0  0  0
    8.1114   -0.7204   -3.0509 H   0  0  0  0  0  0  0  0  0  0  0  0
    6.1917   -1.7596   -4.2370 H   0  0  0  0  0  0  0  0  0  0  0  0
    3.7213   -0.6588   -5.2204 S   0  0  0  0  0  0  0  0  0  0  0  0
    2.9385    0.3928   -5.8754 O   0  0  0  0  0  0  0  0  0  0  0  0
    2.8337   -1.2322   -3.9792 O   0  0  0  0  0  0  0  0  0  0  0  0
    4.1896   -1.8307   -5.9459 O   0  0  0  0  0  0  0  0  0  0  0  0
    8.4668    1.9032   -2.3890 C   0  0  0  0  0  0  0  0  0  0  0  0
    9.3094    2.0198   -3.0816 H   0  0  0  0  0  0  0  0  0  0  0  0
    8.2213    2.8945   -1.9996 H   0  0  0  0  0  0  0  0  0  0  0  0
    8.8167    1.2867   -1.5552 H   0  0  0  0  0  0  0  0  0  0  0  0
  1  6  1  0  0  0  0
  1  7  1  0  0  0  0
  2  1  2  0  0  0  0
  3  4  2  0  0  0  0
  3  2  1  0  0  0  0
  4  5  1  0  0  0  0
  5 10  1  0  0  0  0
  5  6  2  0  0  0  0
  6 11  1  0  0  0  0
  9  4  1  0  0  0  0
 11 12  2  0  0  0  0
 11 13  2  0  0  0  0
 15 14  3  0  0  0  0
 16 17  1  0  0  0  0
 17 23  1  0  0  0  0
 17 18  2  0  0  0  0
 18 30  1  0  0  0  0
 19 18  1  0  0  0  0
 19 24  1  0  0  0  0
 20 19  2  0  0  0  0
 21 16  2  0  0  0  0
 21 20  1  0  0  0  0
 22 16  1  0  0  0  0
 25 20  1  0  0  0  0
 26 21  1  0  0  0  0
 26 28  1  0  0  0  0
 27 26  2  0  0  0  0
 28  8  1  0  0  0  0
 29 26  2  0  0  0  0
 30 32  1  0  0  0  0
 30 33  1  0  0  0  0
 31 30  1  0  0  0  0
M  RAD  2   2   2   3   2
M  END
