Coordinates from ORCA-job 4-NO2-Ph-N2-OTs-B3LYPG-6-31G_dp-MTMO-d009-169-n800
 OpenBabel09051908313D

 33 33  0  0  0  0  0  0  0  0999 V2000
    0.0355    1.1832   -0.0951 C   0  0  0  0  0  0  0  0  0  0  0  0
    0.2341    0.2094   -1.0683 C   0  0  0  0  0  0  0  0  0  0  0  0
    0.6040    0.6015   -2.3589 C   0  0  0  0  0  0  0  0  0  0  0  0
    0.7710    1.9491   -2.6914 C   0  0  0  0  0  0  0  0  0  0  0  0
    0.5656    2.9246   -1.7218 C   0  0  0  0  0  0  0  0  0  0  0  0
    0.2037    2.5250   -0.4360 C   0  0  0  0  0  0  0  0  0  0  0  0
   -0.2526    0.9232    0.9154 H   0  0  0  0  0  0  0  0  0  0  0  0
    0.1108   -0.8422   -0.8420 H   0  0  0  0  0  0  0  0  0  0  0  0
    1.0509    2.2138   -3.7047 H   0  0  0  0  0  0  0  0  0  0  0  0
    0.6814    3.9788   -1.9399 H   0  0  0  0  0  0  0  0  0  0  0  0
   -0.0095    3.5539    0.5930 N   0  0  0  0  0  0  0  0  0  0  0  0
    0.1501    4.7296    0.2654 O   0  0  0  0  0  0  0  0  0  0  0  0
   -0.3327    3.1773    1.7188 O   0  0  0  0  0  0  0  0  0  0  0  0
   13.4214    1.3807   -8.5062 N   0  0  0  0  0  0  0  0  0  0  0  0
   14.3732    1.1791   -9.0306 N   0  0  0  0  0  0  0  0  0  0  0  0
    4.2484    0.1846   -2.9825 C   0  0  0  0  0  0  0  0  0  0  0  0
    5.2832    1.0028   -3.4339 C   0  0  0  0  0  0  0  0  0  0  0  0
    5.4619    1.2614   -4.7998 C   0  0  0  0  0  0  0  0  0  0  0  0
    4.5724    0.6761   -5.7160 C   0  0  0  0  0  0  0  0  0  0  0  0
    3.5332   -0.1443   -5.2886 C   0  0  0  0  0  0  0  0  0  0  0  0
    3.3812   -0.3800   -3.9188 C   0  0  0  0  0  0  0  0  0  0  0  0
    4.1204   -0.0262   -1.9267 H   0  0  0  0  0  0  0  0  0  0  0  0
    5.9641    1.4443   -2.7117 H   0  0  0  0  0  0  0  0  0  0  0  0
    4.6989    0.8640   -6.7789 H   0  0  0  0  0  0  0  0  0  0  0  0
    2.8556   -0.6062   -5.9983 H   0  0  0  0  0  0  0  0  0  0  0  0
    2.0397   -1.4090   -3.3627 S   0  0  0  0  0  0  0  0  0  0  0  0
    0.7398   -0.3344   -3.3746 O   0  0  0  0  0  0  0  0  0  0  0  0
    2.2856   -1.8135   -1.9825 O   0  0  0  0  0  0  0  0  0  0  0  0
    1.6753   -2.3551   -4.4032 O   0  0  0  0  0  0  0  0  0  0  0  0
    6.6007    2.1255   -5.2828 C   0  0  0  0  0  0  0  0  0  0  0  0
    7.4316    1.5074   -5.6446 H   0  0  0  0  0  0  0  0  0  0  0  0
    6.2912    2.7680   -6.1131 H   0  0  0  0  0  0  0  0  0  0  0  0
    6.9882    2.7623   -4.4835 H   0  0  0  0  0  0  0  0  0  0  0  0
  1  7  1  0  0  0  0
  2  8  1  0  0  0  0
  2  1  2  0  0  0  0
  3  2  1  0  0  0  0
  4  3  2  0  0  0  0
  4  5  1  0  0  0  0
  5  6  2  0  0  0  0
  6  1  1  0  0  0  0
  6 11  1  0  0  0  0
  9  4  1  0  0  0  0
 10  5  1  0  0  0  0
 11 13  2  0  0  0  0
 12 11  2  0  0  0  0
 15 14  3  0  0  0  0
 16 22  1  0  0  0  0
 17 16  1  0  0  0  0
 17 23  1  0  0  0  0
 18 17  2  0  0  0  0
 19 20  2  0  0  0  0
 19 18  1  0  0  0  0
 20 21  1  0  0  0  0
 21 26  1  0  0  0  0
 21 16  2  0  0  0  0
 24 19  1  0  0  0  0
 25 20  1  0  0  0  0
 26 28  2  0  0  0  0
 27 26  1  0  0  0  0
 27  3  1  0  0  0  0
 29 26  2  0  0  0  0
 30 18  1  0  0  0  0
 30 33  1  0  0  0  0
 31 30  1  0  0  0  0
 32 30  1  0  0  0  0
M  END
