Coordinates from ORCA-job 4-NO2-Ph-N2-OTs-B3LYPG-6-31G_dp-MTMO-d009-169-n800
 OpenBabel09051908313D

 33 33  0  0  0  0  0  0  0  0999 V2000
   -0.1336    1.0963   -0.8887 C   0  0  0  0  0  0  0  0  0  0  0  0
    0.3270    0.2430   -1.8860 C   0  0  0  0  0  0  0  0  0  0  0  0
    1.0538    0.7753   -2.9560 C   0  0  0  0  0  0  0  0  0  0  0  0
    1.3202    2.1449   -3.0464 C   0  0  0  0  0  0  0  0  0  0  0  0
    0.8542    3.0007   -2.0539 C   0  0  0  0  0  0  0  0  0  0  0  0
    0.1364    2.4611   -0.9871 C   0  0  0  0  0  0  0  0  0  0  0  0
   -0.7004    0.7257   -0.0438 H   0  0  0  0  0  0  0  0  0  0  0  0
    0.1349   -0.8217   -1.8449 H   0  0  0  0  0  0  0  0  0  0  0  0
    1.8784    2.5209   -3.8964 H   0  0  0  0  0  0  0  0  0  0  0  0
    1.0371    4.0673   -2.0888 H   0  0  0  0  0  0  0  0  0  0  0  0
   -0.3538    3.3620    0.0665 N   0  0  0  0  0  0  0  0  0  0  0  0
   -0.0987    4.5611   -0.0442 O   0  0  0  0  0  0  0  0  0  0  0  0
   -0.9872    2.8625    0.9955 O   0  0  0  0  0  0  0  0  0  0  0  0
    5.6832   -0.1625   -8.7408 N   0  0  0  0  0  0  0  0  0  0  0  0
    5.7191   -0.5997   -9.7551 N   0  0  0  0  0  0  0  0  0  0  0  0
    4.7188    0.2872   -2.6362 C   0  0  0  0  0  0  0  0  0  0  0  0
    5.8585    1.0866   -2.6976 C   0  0  0  0  0  0  0  0  0  0  0  0
    6.4393    1.4308   -3.9266 C   0  0  0  0  0  0  0  0  0  0  0  0
    5.8480    0.9519   -5.1064 C   0  0  0  0  0  0  0  0  0  0  0  0
    4.7093    0.1532   -5.0693 C   0  0  0  0  0  0  0  0  0  0  0  0
    4.1538   -0.1699   -3.8283 C   0  0  0  0  0  0  0  0  0  0  0  0
    4.2806    0.0088   -1.6845 H   0  0  0  0  0  0  0  0  0  0  0  0
    6.3055    1.4460   -1.7751 H   0  0  0  0  0  0  0  0  0  0  0  0
    6.2858    1.2024   -6.0684 H   0  0  0  0  0  0  0  0  0  0  0  0
    4.2643   -0.2256   -5.9825 H   0  0  0  0  0  0  0  0  0  0  0  0
    2.6851   -1.1726   -3.7732 S   0  0  0  0  0  0  0  0  0  0  0  0
    1.4648   -0.0311   -4.0077 O   0  0  0  0  0  0  0  0  0  0  0  0
    2.5338   -1.7317   -2.4339 O   0  0  0  0  0  0  0  0  0  0  0  0
    2.5942   -1.9843   -4.9749 O   0  0  0  0  0  0  0  0  0  0  0  0
    7.6911    2.2712   -3.9807 C   0  0  0  0  0  0  0  0  0  0  0  0
    7.7023    2.9156   -4.8647 H   0  0  0  0  0  0  0  0  0  0  0  0
    7.7887    2.9034   -3.0938 H   0  0  0  0  0  0  0  0  0  0  0  0
    8.5837    1.6358   -4.0303 H   0  0  0  0  0  0  0  0  0  0  0  0
  1  7  1  0  0  0  0
  2  8  1  0  0  0  0
  2  1  2  0  0  0  0
  3  2  1  0  0  0  0
  4  3  2  0  0  0  0
  4  5  1  0  0  0  0
  5  6  2  0  0  0  0
  6  1  1  0  0  0  0
  6 11  1  0  0  0  0
  9  4  1  0  0  0  0
 10  5  1  0  0  0  0
 11 13  2  0  0  0  0
 12 11  2  0  0  0  0
 15 14  3  0  0  0  0
 16 22  1  0  0  0  0
 17 16  1  0  0  0  0
 17 23  1  0  0  0  0
 18 17  2  0  0  0  0
 19 20  2  0  0  0  0
 19 18  1  0  0  0  0
 20 21  1  0  0  0  0
 21 26  1  0  0  0  0
 21 16  2  0  0  0  0
 24 19  1  0  0  0  0
 25 20  1  0  0  0  0
 26 28  2  0  0  0  0
 27 26  1  0  0  0  0
 27  3  1  0  0  0  0
 29 26  2  0  0  0  0
 30 18  1  0  0  0  0
 30 32  1  0  0  0  0
 31 30  1  0  0  0  0
 33 30  1  0  0  0  0
M  END
