Coordinates from ORCA-job 4-NO2-Ph-N2-OTs-B3LYPG-6-31G_dp-MTMO-d009-169-n800
 OpenBabel09051908313D

 33 32  0  0  0  0  0  0  0  0999 V2000
    0.7675    1.1252   -1.5941 C   0  0  0  0  0  0  0  0  0  0  0  0
    0.8027    0.7147   -2.9327 C   0  0  0  0  0  0  0  0  0  0  0  0
    0.0270    1.2844   -3.7429 C   0  0  0  0  0  0  0  0  0  0  0  0
   -0.9136    2.2782   -3.6914 C   0  0  0  0  0  0  0  0  0  0  0  0
   -0.9807    2.7265   -2.3578 C   0  0  0  0  0  0  0  0  0  0  0  0
   -0.1622    2.1580   -1.3625 C   0  0  0  0  0  0  0  0  0  0  0  0
    1.3710    0.7283   -0.7881 H   0  0  0  0  0  0  0  0  0  0  0  0
    2.1529   -0.5939   -3.6775 H   0  0  0  0  0  0  0  0  0  0  0  0
   -1.5170    2.6746   -4.4967 H   0  0  0  0  0  0  0  0  0  0  0  0
   -1.6676    3.5171   -2.0793 H   0  0  0  0  0  0  0  0  0  0  0  0
   -0.2858    2.6816    0.0121 N   0  0  0  0  0  0  0  0  0  0  0  0
   -1.1040    3.5774    0.2134 O   0  0  0  0  0  0  0  0  0  0  0  0
    0.4410    2.1867    0.8709 O   0  0  0  0  0  0  0  0  0  0  0  0
   -0.2382    0.6284   -6.3717 N   0  0  0  0  0  0  0  0  0  0  0  0
    0.0748    0.0018   -7.2261 N   0  0  0  0  0  0  0  0  0  0  0  0
    5.1238    1.4689   -4.1270 C   0  0  0  0  0  0  0  0  0  0  0  0
    6.2291    2.0422   -3.4989 C   0  0  0  0  0  0  0  0  0  0  0  0
    7.3368    1.2673   -3.1304 C   0  0  0  0  0  0  0  0  0  0  0  0
    7.3144   -0.1085   -3.4105 C   0  0  0  0  0  0  0  0  0  0  0  0
    6.2216   -0.6988   -4.0384 C   0  0  0  0  0  0  0  0  0  0  0  0
    5.1296    0.0991   -4.3884 C   0  0  0  0  0  0  0  0  0  0  0  0
    4.2732    2.0721   -4.4249 H   0  0  0  0  0  0  0  0  0  0  0  0
    6.2316    3.1094   -3.2940 H   0  0  0  0  0  0  0  0  0  0  0  0
    8.1667   -0.7243   -3.1353 H   0  0  0  0  0  0  0  0  0  0  0  0
    6.2127   -1.7587   -4.2681 H   0  0  0  0  0  0  0  0  0  0  0  0
    3.7138   -0.6541   -5.1715 S   0  0  0  0  0  0  0  0  0  0  0  0
    2.9073    0.3995   -5.7934 O   0  0  0  0  0  0  0  0  0  0  0  0
    2.8654   -1.2377   -3.9058 O   0  0  0  0  0  0  0  0  0  0  0  0
    4.1614   -1.8199   -5.9193 O   0  0  0  0  0  0  0  0  0  0  0  0
    8.5403    1.8954   -2.4699 C   0  0  0  0  0  0  0  0  0  0  0  0
    9.3691    1.9970   -3.1812 H   0  0  0  0  0  0  0  0  0  0  0  0
    8.3118    2.8926   -2.0855 H   0  0  0  0  0  0  0  0  0  0  0  0
    8.9021    1.2840   -1.6373 H   0  0  0  0  0  0  0  0  0  0  0  0
  1  6  1  0  0  0  0
  1  7  1  0  0  0  0
  2  1  2  0  0  0  0
  3  4  2  0  0  0  0
  3  2  1  0  0  0  0
  4  5  1  0  0  0  0
  5 10  1  0  0  0  0
  5  6  2  0  0  0  0
  6 11  1  0  0  0  0
  9  4  1  0  0  0  0
 11 12  2  0  0  0  0
 11 13  2  0  0  0  0
 15 14  3  0  0  0  0
 16 17  1  0  0  0  0
 17 23  1  0  0  0  0
 17 18  2  0  0  0  0
 18 30  1  0  0  0  0
 19 24  1  0  0  0  0
 19 18  1  0  0  0  0
 20 19  2  0  0  0  0
 21 16  2  0  0  0  0
 21 20  1  0  0  0  0
 22 16  1  0  0  0  0
 25 20  1  0  0  0  0
 26 21  1  0  0  0  0
 26 28  1  0  0  0  0
 27 26  2  0  0  0  0
 28  8  1  0  0  0  0
 29 26  2  0  0  0  0
 30 32  1  0  0  0  0
 30 33  1  0  0  0  0
 31 30  1  0  0  0  0
M  RAD  2   2   2   3   2
M  END
