Coordinates from ORCA-job 4-NO2-Ph-N2-OTs-B3LYPG-6-31G_dp-MTMO-d009-169-n800
 OpenBabel09051908313D

 33 33  0  0  0  0  0  0  0  0999 V2000
   -0.0616    0.9034   -1.1772 C   0  0  0  0  0  0  0  0  0  0  0  0
    0.4806    0.1255   -2.1950 C   0  0  0  0  0  0  0  0  0  0  0  0
    1.2468    0.7425   -3.1891 C   0  0  0  0  0  0  0  0  0  0  0  0
    1.4713    2.1225   -3.1855 C   0  0  0  0  0  0  0  0  0  0  0  0
    0.9243    2.9029   -2.1724 C   0  0  0  0  0  0  0  0  0  0  0  0
    0.1687    2.2791   -1.1806 C   0  0  0  0  0  0  0  0  0  0  0  0
   -0.6608    0.4662   -0.3883 H   0  0  0  0  0  0  0  0  0  0  0  0
    0.3223   -0.9451   -2.2270 H   0  0  0  0  0  0  0  0  0  0  0  0
    2.0627    2.5651   -3.9791 H   0  0  0  0  0  0  0  0  0  0  0  0
    1.0739    3.9746   -2.1342 H   0  0  0  0  0  0  0  0  0  0  0  0
   -0.4050    3.1002   -0.1039 N   0  0  0  0  0  0  0  0  0  0  0  0
   -0.1802    4.3102   -0.1286 O   0  0  0  0  0  0  0  0  0  0  0  0
   -1.0722    2.5278    0.7567 O   0  0  0  0  0  0  0  0  0  0  0  0
    3.5915   -0.9096   -8.3292 N   0  0  0  0  0  0  0  0  0  0  0  0
    2.9200   -1.6532   -8.7949 N   0  0  0  0  0  0  0  0  0  0  0  0
    4.8759    0.3738   -2.6335 C   0  0  0  0  0  0  0  0  0  0  0  0
    5.9722    1.2299   -2.5533 C   0  0  0  0  0  0  0  0  0  0  0  0
    6.6156    1.6960   -3.7087 C   0  0  0  0  0  0  0  0  0  0  0  0
    6.1321    1.2814   -4.9596 C   0  0  0  0  0  0  0  0  0  0  0  0
    5.0383    0.4271   -5.0654 C   0  0  0  0  0  0  0  0  0  0  0  0
    4.4189   -0.0170   -3.8938 C   0  0  0  0  0  0  0  0  0  0  0  0
    4.3889    0.0022   -1.7391 H   0  0  0  0  0  0  0  0  0  0  0  0
    6.3348    1.5385   -1.5768 H   0  0  0  0  0  0  0  0  0  0  0  0
    6.6223    1.6302   -5.8642 H   0  0  0  0  0  0  0  0  0  0  0  0
    4.6779    0.0984   -6.0339 H   0  0  0  0  0  0  0  0  0  0  0  0
    3.0022   -1.0869   -4.0152 S   0  0  0  0  0  0  0  0  0  0  0  0
    1.7451    0.0116   -4.2587 O   0  0  0  0  0  0  0  0  0  0  0  0
    2.7875   -1.7484   -2.7324 O   0  0  0  0  0  0  0  0  0  0  0  0
    3.0326   -1.8141   -5.2731 O   0  0  0  0  0  0  0  0  0  0  0  0
    7.8212    2.5975   -3.6109 C   0  0  0  0  0  0  0  0  0  0  0  0
    7.8886    3.2706   -4.4705 H   0  0  0  0  0  0  0  0  0  0  0  0
    7.7962    3.2037   -2.7011 H   0  0  0  0  0  0  0  0  0  0  0  0
    8.7459    2.0080   -3.5857 H   0  0  0  0  0  0  0  0  0  0  0  0
  1  7  1  0  0  0  0
  2  1  2  0  0  0  0
  3  4  2  0  0  0  0
  3  2  1  0  0  0  0
  4  5  1  0  0  0  0
  5 10  1  0  0  0  0
  5  6  2  0  0  0  0
  6  1  1  0  0  0  0
  6 11  1  0  0  0  0
  8  2  1  0  0  0  0
  9  4  1  0  0  0  0
 11 13  2  0  0  0  0
 12 11  2  0  0  0  0
 15 14  3  0  0  0  0
 16 17  1  0  0  0  0
 16 22  1  0  0  0  0
 17 23  1  0  0  0  0
 18 30  1  0  0  0  0
 18 17  2  0  0  0  0
 19 18  1  0  0  0  0
 20 19  2  0  0  0  0
 20 21  1  0  0  0  0
 21 16  2  0  0  0  0
 24 19  1  0  0  0  0
 25 20  1  0  0  0  0
 26 21  1  0  0  0  0
 26 28  2  0  0  0  0
 27 26  1  0  0  0  0
 27  3  1  0  0  0  0
 29 26  2  0  0  0  0
 30 33  1  0  0  0  0
 30 32  1  0  0  0  0
 31 30  1  0  0  0  0
M  END
