Coordinates from ORCA-job 4-NO2-Ph-N2-OTs-B3LYPG-6-31G_dp-MTMO-d009-169-n800
 OpenBabel09051908313D

 33 33  0  0  0  0  0  0  0  0999 V2000
   -0.1159    1.5435   -0.1470 C   0  0  0  0  0  0  0  0  0  0  0  0
   -0.0538    0.5426   -1.1110 C   0  0  0  0  0  0  0  0  0  0  0  0
    0.4180    0.8567   -2.3898 C   0  0  0  0  0  0  0  0  0  0  0  0
    0.8178    2.1552   -2.7202 C   0  0  0  0  0  0  0  0  0  0  0  0
    0.7477    3.1591   -1.7604 C   0  0  0  0  0  0  0  0  0  0  0  0
    0.2852    2.8356   -0.4855 C   0  0  0  0  0  0  0  0  0  0  0  0
   -0.4747    1.3432    0.8544 H   0  0  0  0  0  0  0  0  0  0  0  0
   -0.3598   -0.4711   -0.8861 H   0  0  0  0  0  0  0  0  0  0  0  0
    1.1689    2.3619   -3.7248 H   0  0  0  0  0  0  0  0  0  0  0  0
    1.0449    4.1771   -1.9776 H   0  0  0  0  0  0  0  0  0  0  0  0
    0.2160    3.8931    0.5337 N   0  0  0  0  0  0  0  0  0  0  0  0
    0.5707    5.0252    0.2058 O   0  0  0  0  0  0  0  0  0  0  0  0
   -0.1904    3.5821    1.6525 O   0  0  0  0  0  0  0  0  0  0  0  0
   15.0044    3.5389   -9.6201 N   0  0  0  0  0  0  0  0  0  0  0  0
   15.8434    3.5842  -10.3382 N   0  0  0  0  0  0  0  0  0  0  0  0
    3.9376   -0.2295   -2.8230 C   0  0  0  0  0  0  0  0  0  0  0  0
    5.1331    0.3708   -3.2150 C   0  0  0  0  0  0  0  0  0  0  0  0
    5.4412    0.5591   -4.5695 C   0  0  0  0  0  0  0  0  0  0  0  0
    4.5161    0.1289   -5.5348 C   0  0  0  0  0  0  0  0  0  0  0  0
    3.3165   -0.4728   -5.1669 C   0  0  0  0  0  0  0  0  0  0  0  0
    3.0393   -0.6444   -3.8076 C   0  0  0  0  0  0  0  0  0  0  0  0
    3.7071   -0.3878   -1.7754 H   0  0  0  0  0  0  0  0  0  0  0  0
    5.8386    0.6958   -2.4556 H   0  0  0  0  0  0  0  0  0  0  0  0
    4.7414    0.2647   -6.5893 H   0  0  0  0  0  0  0  0  0  0  0  0
    2.6092   -0.8167   -5.9135 H   0  0  0  0  0  0  0  0  0  0  0  0
    1.4991   -1.3959   -3.3277 S   0  0  0  0  0  0  0  0  0  0  0  0
    0.4292   -0.0944   -3.4000 O   0  0  0  0  0  0  0  0  0  0  0  0
    1.5924   -1.8351   -1.9393 O   0  0  0  0  0  0  0  0  0  0  0  0
    1.0158   -2.2595   -4.3912 O   0  0  0  0  0  0  0  0  0  0  0  0
    6.7500    1.1837   -4.9863 C   0  0  0  0  0  0  0  0  0  0  0  0
    7.4867    0.4112   -5.2380 H   0  0  0  0  0  0  0  0  0  0  0  0
    6.6267    1.8150   -5.8714 H   0  0  0  0  0  0  0  0  0  0  0  0
    7.1758    1.7944   -4.1856 H   0  0  0  0  0  0  0  0  0  0  0  0
  1  7  1  0  0  0  0
  2  8  1  0  0  0  0
  2  1  2  0  0  0  0
  3  2  1  0  0  0  0
  4  3  2  0  0  0  0
  4  5  1  0  0  0  0
  5  6  2  0  0  0  0
  6  1  1  0  0  0  0
  6 11  1  0  0  0  0
  9  4  1  0  0  0  0
 10  5  1  0  0  0  0
 11 13  2  0  0  0  0
 12 11  2  0  0  0  0
 15 14  3  0  0  0  0
 16 22  1  0  0  0  0
 17 16  1  0  0  0  0
 17 23  1  0  0  0  0
 18 17  2  0  0  0  0
 19 20  2  0  0  0  0
 19 18  1  0  0  0  0
 20 21  1  0  0  0  0
 21 26  1  0  0  0  0
 21 16  2  0  0  0  0
 24 19  1  0  0  0  0
 25 20  1  0  0  0  0
 26 28  2  0  0  0  0
 27 26  1  0  0  0  0
 27  3  1  0  0  0  0
 29 26  2  0  0  0  0
 30 18  1  0  0  0  0
 30 33  1  0  0  0  0
 31 30  1  0  0  0  0
 32 30  1  0  0  0  0
M  END
