Coordinates from ORCA-job 4-NO2-Ph-N2-OTs-B3LYPG-6-31G_dp-MTMO-d009-169-n800
 OpenBabel09051908313D

 33 33  0  0  0  0  0  0  0  0999 V2000
   -0.0410    0.8754   -1.2847 C   0  0  0  0  0  0  0  0  0  0  0  0
    0.5449    0.0557   -2.2437 C   0  0  0  0  0  0  0  0  0  0  0  0
    1.3215    0.6349   -3.2523 C   0  0  0  0  0  0  0  0  0  0  0  0
    1.5140    2.0179   -3.3208 C   0  0  0  0  0  0  0  0  0  0  0  0
    0.9234    2.8399   -2.3668 C   0  0  0  0  0  0  0  0  0  0  0  0
    0.1573    2.2539   -1.3600 C   0  0  0  0  0  0  0  0  0  0  0  0
   -0.6495    0.4681   -0.4870 H   0  0  0  0  0  0  0  0  0  0  0  0
    0.4129   -1.0188   -2.2189 H   0  0  0  0  0  0  0  0  0  0  0  0
    2.1154    2.4304   -4.1231 H   0  0  0  0  0  0  0  0  0  0  0  0
    1.0473    3.9155   -2.3853 H   0  0  0  0  0  0  0  0  0  0  0  0
   -0.4622    3.1193   -0.3451 N   0  0  0  0  0  0  0  0  0  0  0  0
   -0.2673    4.3314   -0.4337 O   0  0  0  0  0  0  0  0  0  0  0  0
   -1.1354    2.5791    0.5316 O   0  0  0  0  0  0  0  0  0  0  0  0
    2.8681   -0.4024   -7.9412 N   0  0  0  0  0  0  0  0  0  0  0  0
    2.0171   -0.9936   -8.3245 N   0  0  0  0  0  0  0  0  0  0  0  0
    4.9983    0.3076   -2.5627 C   0  0  0  0  0  0  0  0  0  0  0  0
    6.0727    1.1923   -2.4927 C   0  0  0  0  0  0  0  0  0  0  0  0
    6.6756    1.6958   -3.6539 C   0  0  0  0  0  0  0  0  0  0  0  0
    6.1727    1.2914   -4.9009 C   0  0  0  0  0  0  0  0  0  0  0  0
    5.1019    0.4079   -4.9962 C   0  0  0  0  0  0  0  0  0  0  0  0
    4.5239   -0.0751   -3.8185 C   0  0  0  0  0  0  0  0  0  0  0  0
    4.5399   -0.0910   -1.6648 H   0  0  0  0  0  0  0  0  0  0  0  0
    6.4494    1.4944   -1.5195 H   0  0  0  0  0  0  0  0  0  0  0  0
    6.6294    1.6721   -5.8101 H   0  0  0  0  0  0  0  0  0  0  0  0
    4.7214    0.0927   -5.9615 H   0  0  0  0  0  0  0  0  0  0  0  0
    3.1421   -1.1913   -3.9272 S   0  0  0  0  0  0  0  0  0  0  0  0
    1.8644   -0.1433   -4.2653 O   0  0  0  0  0  0  0  0  0  0  0  0
    2.9073   -1.7936   -2.6191 O   0  0  0  0  0  0  0  0  0  0  0  0
    3.2294   -1.9794   -5.1451 O   0  0  0  0  0  0  0  0  0  0  0  0
    7.8584    2.6282   -3.5686 C   0  0  0  0  0  0  0  0  0  0  0  0
    7.8758    3.3305   -4.4072 H   0  0  0  0  0  0  0  0  0  0  0  0
    7.8498    3.2037   -2.6389 H   0  0  0  0  0  0  0  0  0  0  0  0
    8.7994    2.0651   -3.5963 H   0  0  0  0  0  0  0  0  0  0  0  0
  1  7  1  0  0  0  0
  2  8  1  0  0  0  0
  2  1  2  0  0  0  0
  3  2  1  0  0  0  0
  4  3  2  0  0  0  0
  4  5  1  0  0  0  0
  5  6  2  0  0  0  0
  6  1  1  0  0  0  0
  6 11  1  0  0  0  0
  9  4  1  0  0  0  0
 10  5  1  0  0  0  0
 11 13  2  0  0  0  0
 12 11  2  0  0  0  0
 15 14  3  0  0  0  0
 16 17  1  0  0  0  0
 16 22  1  0  0  0  0
 17 23  1  0  0  0  0
 18 30  1  0  0  0  0
 18 17  2  0  0  0  0
 19 18  1  0  0  0  0
 20 19  2  0  0  0  0
 20 21  1  0  0  0  0
 21 16  2  0  0  0  0
 24 19  1  0  0  0  0
 25 20  1  0  0  0  0
 26 21  1  0  0  0  0
 26 28  2  0  0  0  0
 27 26  1  0  0  0  0
 27  3  1  0  0  0  0
 29 26  2  0  0  0  0
 30 32  1  0  0  0  0
 31 30  1  0  0  0  0
 33 30  1  0  0  0  0
M  END
