Coordinates from ORCA-job 4-NO2-Ph-N2-OTs-B3LYPG-6-31G_dp-MTMO-d009-169-n800
 OpenBabel09051908313D

 33 33  0  0  0  0  0  0  0  0999 V2000
    0.0702    0.8247   -1.3318 C   0  0  0  0  0  0  0  0  0  0  0  0
    0.6888   -0.0605   -2.2087 C   0  0  0  0  0  0  0  0  0  0  0  0
    1.4005    0.4487   -3.3000 C   0  0  0  0  0  0  0  0  0  0  0  0
    1.4947    1.8242   -3.5321 C   0  0  0  0  0  0  0  0  0  0  0  0
    0.8692    2.7098   -2.6611 C   0  0  0  0  0  0  0  0  0  0  0  0
    0.1693    2.1952   -1.5705 C   0  0  0  0  0  0  0  0  0  0  0  0
   -0.4902    0.4730   -0.4749 H   0  0  0  0  0  0  0  0  0  0  0  0
    0.6320   -1.1310   -2.0572 H   0  0  0  0  0  0  0  0  0  0  0  0
    2.0449    2.1785   -4.3965 H   0  0  0  0  0  0  0  0  0  0  0  0
    0.9154    3.7818   -2.8076 H   0  0  0  0  0  0  0  0  0  0  0  0
   -0.4875    3.1290   -0.6436 N   0  0  0  0  0  0  0  0  0  0  0  0
   -0.3816    4.3329   -0.8767 O   0  0  0  0  0  0  0  0  0  0  0  0
   -1.1011    2.6504    0.3094 O   0  0  0  0  0  0  0  0  0  0  0  0
    2.0583    0.8959   -7.1627 N   0  0  0  0  0  0  0  0  0  0  0  0
    1.3732    0.2469   -7.7376 N   0  0  0  0  0  0  0  0  0  0  0  0
    5.0346    0.2914   -2.5022 C   0  0  0  0  0  0  0  0  0  0  0  0
    6.0731    1.2195   -2.4564 C   0  0  0  0  0  0  0  0  0  0  0  0
    6.6980    1.6686   -3.6282 C   0  0  0  0  0  0  0  0  0  0  0  0
    6.2545    1.1646   -4.8614 C   0  0  0  0  0  0  0  0  0  0  0  0
    5.2205    0.2365   -4.9313 C   0  0  0  0  0  0  0  0  0  0  0  0
    4.6185   -0.1905   -3.7443 C   0  0  0  0  0  0  0  0  0  0  0  0
    4.5612   -0.0658   -1.5947 H   0  0  0  0  0  0  0  0  0  0  0  0
    6.4047    1.5983   -1.4939 H   0  0  0  0  0  0  0  0  0  0  0  0
    6.7294    1.5017   -5.7785 H   0  0  0  0  0  0  0  0  0  0  0  0
    4.8880   -0.1600   -5.8842 H   0  0  0  0  0  0  0  0  0  0  0  0
    3.2870   -1.3685   -3.8248 S   0  0  0  0  0  0  0  0  0  0  0  0
    1.9712   -0.3993   -4.2392 O   0  0  0  0  0  0  0  0  0  0  0  0
    3.0516   -1.9165   -2.4931 O   0  0  0  0  0  0  0  0  0  0  0  0
    3.4339   -2.2085   -5.0011 O   0  0  0  0  0  0  0  0  0  0  0  0
    7.8436    2.6479   -3.5663 C   0  0  0  0  0  0  0  0  0  0  0  0
    7.8533    3.3086   -4.4383 H   0  0  0  0  0  0  0  0  0  0  0  0
    7.7942    3.2673   -2.6666 H   0  0  0  0  0  0  0  0  0  0  0  0
    8.8050    2.1200   -3.5483 H   0  0  0  0  0  0  0  0  0  0  0  0
  1  7  1  0  0  0  0
  2  8  1  0  0  0  0
  2  1  2  0  0  0  0
  3  2  1  0  0  0  0
  4  3  2  0  0  0  0
  4  5  1  0  0  0  0
  5  6  2  0  0  0  0
  6  1  1  0  0  0  0
  6 11  1  0  0  0  0
  9  4  1  0  0  0  0
 10  5  1  0  0  0  0
 11 13  2  0  0  0  0
 12 11  2  0  0  0  0
 15 14  3  0  0  0  0
 16 17  1  0  0  0  0
 16 22  1  0  0  0  0
 17 23  1  0  0  0  0
 18 30  1  0  0  0  0
 18 17  2  0  0  0  0
 19 18  1  0  0  0  0
 20 19  2  0  0  0  0
 20 21  1  0  0  0  0
 21 16  2  0  0  0  0
 24 19  1  0  0  0  0
 25 20  1  0  0  0  0
 26 21  1  0  0  0  0
 26 28  2  0  0  0  0
 27 26  1  0  0  0  0
 27  3  1  0  0  0  0
 29 26  2  0  0  0  0
 30 33  1  0  0  0  0
 30 32  1  0  0  0  0
 31 30  1  0  0  0  0
M  END
