Coordinates from ORCA-job 4-NO2-Ph-N2-OTs-B3LYPG-6-31G_dp-MTMO-d009-169-n800
 OpenBabel09051908313D

 33 33  0  0  0  0  0  0  0  0999 V2000
   -0.0363    1.2412   -0.6850 C   0  0  0  0  0  0  0  0  0  0  0  0
    0.3595    0.2642   -1.5926 C   0  0  0  0  0  0  0  0  0  0  0  0
    0.9627    0.6539   -2.7933 C   0  0  0  0  0  0  0  0  0  0  0  0
    1.1659    2.0023   -3.1020 C   0  0  0  0  0  0  0  0  0  0  0  0
    0.7619    2.9807   -2.2000 C   0  0  0  0  0  0  0  0  0  0  0  0
    0.1700    2.5837   -1.0015 C   0  0  0  0  0  0  0  0  0  0  0  0
   -0.5055    0.9822    0.2554 H   0  0  0  0  0  0  0  0  0  0  0  0
    0.2130   -0.7876   -1.3823 H   0  0  0  0  0  0  0  0  0  0  0  0
    1.6275    2.2652   -4.0469 H   0  0  0  0  0  0  0  0  0  0  0  0
    0.8985    4.0353   -2.4040 H   0  0  0  0  0  0  0  0  0  0  0  0
   -0.2525    3.6154   -0.0428 N   0  0  0  0  0  0  0  0  0  0  0  0
   -0.0576    4.7917   -0.3482 O   0  0  0  0  0  0  0  0  0  0  0  0
   -0.7738    3.2405    1.0068 O   0  0  0  0  0  0  0  0  0  0  0  0
    6.9103    1.1223   -8.8611 N   0  0  0  0  0  0  0  0  0  0  0  0
    7.2649    1.1187   -9.9077 N   0  0  0  0  0  0  0  0  0  0  0  0
    4.6426    0.1727   -2.5870 C   0  0  0  0  0  0  0  0  0  0  0  0
    5.7732    0.9645   -2.7839 C   0  0  0  0  0  0  0  0  0  0  0  0
    6.2714    1.2122   -4.0702 C   0  0  0  0  0  0  0  0  0  0  0  0
    5.6066    0.6455   -5.1705 C   0  0  0  0  0  0  0  0  0  0  0  0
    4.4770   -0.1479   -4.9971 C   0  0  0  0  0  0  0  0  0  0  0  0
    4.0049   -0.3754   -3.7006 C   0  0  0  0  0  0  0  0  0  0  0  0
    4.2674   -0.0306   -1.5904 H   0  0  0  0  0  0  0  0  0  0  0  0
    6.2782    1.3926   -1.9228 H   0  0  0  0  0  0  0  0  0  0  0  0
    5.9834    0.8232   -6.1739 H   0  0  0  0  0  0  0  0  0  0  0  0
    3.9726   -0.5973   -5.8453 H   0  0  0  0  0  0  0  0  0  0  0  0
    2.5544   -1.3805   -3.4723 S   0  0  0  0  0  0  0  0  0  0  0  0
    1.3073   -0.2816   -3.7585 O   0  0  0  0  0  0  0  0  0  0  0  0
    2.4796   -1.8051   -2.0782 O   0  0  0  0  0  0  0  0  0  0  0  0
    2.4139   -2.3092   -4.5807 O   0  0  0  0  0  0  0  0  0  0  0  0
    7.5121    2.0462   -4.2737 C   0  0  0  0  0  0  0  0  0  0  0  0
    7.3996    2.7267   -5.1234 H   0  0  0  0  0  0  0  0  0  0  0  0
    7.7466    2.6407   -3.3870 H   0  0  0  0  0  0  0  0  0  0  0  0
    8.3792    1.4083   -4.4833 H   0  0  0  0  0  0  0  0  0  0  0  0
  1  7  1  0  0  0  0
  2  8  1  0  0  0  0
  2  1  2  0  0  0  0
  3  2  1  0  0  0  0
  4  3  2  0  0  0  0
  4  5  1  0  0  0  0
  5  6  2  0  0  0  0
  6  1  1  0  0  0  0
  6 11  1  0  0  0  0
  9  4  1  0  0  0  0
 10  5  1  0  0  0  0
 11 13  2  0  0  0  0
 12 11  2  0  0  0  0
 15 14  3  0  0  0  0
 16 22  1  0  0  0  0
 17 16  1  0  0  0  0
 17 23  1  0  0  0  0
 18 17  2  0  0  0  0
 19 20  2  0  0  0  0
 19 18  1  0  0  0  0
 20 21  1  0  0  0  0
 21 26  1  0  0  0  0
 21 16  2  0  0  0  0
 24 19  1  0  0  0  0
 25 20  1  0  0  0  0
 26 28  2  0  0  0  0
 27 26  1  0  0  0  0
 27  3  1  0  0  0  0
 29 26  2  0  0  0  0
 30 18  1  0  0  0  0
 30 32  1  0  0  0  0
 31 30  1  0  0  0  0
 33 30  1  0  0  0  0
M  END
