Coordinates from ORCA-job 4-NO2-Ph-N2-OTs-B3LYPG-6-31G_dp-MTMO-d009-169-n800
 OpenBabel09051908313D

 33 32  0  0  0  0  0  0  0  0999 V2000
    0.6629    1.0692   -1.4201 C   0  0  0  0  0  0  0  0  0  0  0  0
    0.8159    0.6467   -2.7439 C   0  0  0  0  0  0  0  0  0  0  0  0
    0.1758    1.2384   -3.6483 C   0  0  0  0  0  0  0  0  0  0  0  0
   -0.7032    2.2886   -3.7084 C   0  0  0  0  0  0  0  0  0  0  0  0
   -0.8902    2.7585   -2.3936 C   0  0  0  0  0  0  0  0  0  0  0  0
   -0.2237    2.1590   -1.3066 C   0  0  0  0  0  0  0  0  0  0  0  0
    1.1486    0.6503   -0.5485 H   0  0  0  0  0  0  0  0  0  0  0  0
    2.1936   -0.6722   -3.5678 H   0  0  0  0  0  0  0  0  0  0  0  0
   -1.1911    2.7067   -4.5780 H   0  0  0  0  0  0  0  0  0  0  0  0
   -1.5558    3.5913   -2.1992 H   0  0  0  0  0  0  0  0  0  0  0  0
   -0.4687    2.7114    0.0403 N   0  0  0  0  0  0  0  0  0  0  0  0
   -1.2433    3.6614    0.1388 O   0  0  0  0  0  0  0  0  0  0  0  0
    0.1210    2.1839    0.9810 O   0  0  0  0  0  0  0  0  0  0  0  0
   -0.1949    0.6130   -6.5203 N   0  0  0  0  0  0  0  0  0  0  0  0
    0.0384    0.0046   -7.4124 N   0  0  0  0  0  0  0  0  0  0  0  0
    5.0962    1.4628   -4.0667 C   0  0  0  0  0  0  0  0  0  0  0  0
    6.2171    2.0369   -3.4673 C   0  0  0  0  0  0  0  0  0  0  0  0
    7.3564    1.2738   -3.1796 C   0  0  0  0  0  0  0  0  0  0  0  0
    7.3500   -0.0906   -3.5119 C   0  0  0  0  0  0  0  0  0  0  0  0
    6.2422   -0.6815   -4.1119 C   0  0  0  0  0  0  0  0  0  0  0  0
    5.1187    0.1044   -4.3809 C   0  0  0  0  0  0  0  0  0  0  0  0
    4.2204    2.0576   -4.3022 H   0  0  0  0  0  0  0  0  0  0  0  0
    6.2069    3.0952   -3.2218 H   0  0  0  0  0  0  0  0  0  0  0  0
    8.2270   -0.6968   -3.2998 H   0  0  0  0  0  0  0  0  0  0  0  0
    6.2448   -1.7316   -4.3819 H   0  0  0  0  0  0  0  0  0  0  0  0
    3.6849   -0.6505   -5.1280 S   0  0  0  0  0  0  0  0  0  0  0  0
    2.8308    0.4066   -5.6768 O   0  0  0  0  0  0  0  0  0  0  0  0
    2.9033   -1.2949   -3.8478 O   0  0  0  0  0  0  0  0  0  0  0  0
    4.1207   -1.7806   -5.9348 O   0  0  0  0  0  0  0  0  0  0  0  0
    8.5751    1.9018   -2.5476 C   0  0  0  0  0  0  0  0  0  0  0  0
    9.3860    2.0065   -3.2785 H   0  0  0  0  0  0  0  0  0  0  0  0
    8.3548    2.8970   -2.1535 H   0  0  0  0  0  0  0  0  0  0  0  0
    8.9579    1.2876   -1.7262 H   0  0  0  0  0  0  0  0  0  0  0  0
  1  6  1  0  0  0  0
  1  7  1  0  0  0  0
  2  1  2  0  0  0  0
  3  2  1  0  0  0  0
  4  3  2  0  0  0  0
  4  5  1  0  0  0  0
  5 10  1  0  0  0  0
  5  6  2  0  0  0  0
  6 11  1  0  0  0  0
  9  4  1  0  0  0  0
 11 12  2  0  0  0  0
 11 13  2  0  0  0  0
 15 14  3  0  0  0  0
 16 17  2  0  0  0  0
 17 23  1  0  0  0  0
 17 18  1  0  0  0  0
 18 30  1  0  0  0  0
 19 24  1  0  0  0  0
 19 18  2  0  0  0  0
 20 19  1  0  0  0  0
 21 20  2  0  0  0  0
 21 16  1  0  0  0  0
 22 16  1  0  0  0  0
 25 20  1  0  0  0  0
 26 21  1  0  0  0  0
 26 28  1  0  0  0  0
 27 26  2  0  0  0  0
 28  8  1  0  0  0  0
 29 26  2  0  0  0  0
 30 32  1  0  0  0  0
 30 33  1  0  0  0  0
 31 30  1  0  0  0  0
M  RAD  2   2   2   3   2
M  END
