Coordinates from ORCA-job 4-NO2-Ph-N2-OTs-B3LYPG-6-31G_dp-MTMO-d009-169-n800
 OpenBabel09051908313D

 33 33  0  0  0  0  0  0  0  0999 V2000
   -0.0854    1.5451   -0.1603 C   0  0  0  0  0  0  0  0  0  0  0  0
   -0.0221    0.5439   -1.1240 C   0  0  0  0  0  0  0  0  0  0  0  0
    0.4477    0.8587   -2.4034 C   0  0  0  0  0  0  0  0  0  0  0  0
    0.8441    2.1579   -2.7347 C   0  0  0  0  0  0  0  0  0  0  0  0
    0.7728    3.1621   -1.7752 C   0  0  0  0  0  0  0  0  0  0  0  0
    0.3124    2.8380   -0.4998 C   0  0  0  0  0  0  0  0  0  0  0  0
   -0.4427    1.3444    0.8415 H   0  0  0  0  0  0  0  0  0  0  0  0
   -0.3255   -0.4703   -0.8984 H   0  0  0  0  0  0  0  0  0  0  0  0
    1.1937    2.3651   -3.7397 H   0  0  0  0  0  0  0  0  0  0  0  0
    1.0674    4.1806   -1.9931 H   0  0  0  0  0  0  0  0  0  0  0  0
    0.2418    3.8957    0.5192 N   0  0  0  0  0  0  0  0  0  0  0  0
    0.5936    5.0285    0.1905 O   0  0  0  0  0  0  0  0  0  0  0  0
   -0.1626    3.5842    1.6385 O   0  0  0  0  0  0  0  0  0  0  0  0
   14.5563    3.4221   -9.3619 N   0  0  0  0  0  0  0  0  0  0  0  0
   15.4005    3.4768  -10.0732 N   0  0  0  0  0  0  0  0  0  0  0  0
    3.9698   -0.2187   -2.8414 C   0  0  0  0  0  0  0  0  0  0  0  0
    5.1631    0.3845   -3.2356 C   0  0  0  0  0  0  0  0  0  0  0  0
    5.4685    0.5730   -4.5907 C   0  0  0  0  0  0  0  0  0  0  0  0
    4.5429    0.1400   -5.5543 C   0  0  0  0  0  0  0  0  0  0  0  0
    3.3455   -0.4646   -5.1842 C   0  0  0  0  0  0  0  0  0  0  0  0
    3.0709   -0.6363   -3.8244 C   0  0  0  0  0  0  0  0  0  0  0  0
    3.7414   -0.3771   -1.7934 H   0  0  0  0  0  0  0  0  0  0  0  0
    5.8690    0.7116   -2.4775 H   0  0  0  0  0  0  0  0  0  0  0  0
    4.7662    0.2759   -6.6092 H   0  0  0  0  0  0  0  0  0  0  0  0
    2.6379   -0.8105   -5.9295 H   0  0  0  0  0  0  0  0  0  0  0  0
    1.5334   -1.3915   -3.3417 S   0  0  0  0  0  0  0  0  0  0  0  0
    0.4600   -0.0928   -3.4133 O   0  0  0  0  0  0  0  0  0  0  0  0
    1.6298   -1.8295   -1.9532 O   0  0  0  0  0  0  0  0  0  0  0  0
    1.0507   -2.2570   -4.4040 O   0  0  0  0  0  0  0  0  0  0  0  0
    6.7750    1.2008   -5.0100 C   0  0  0  0  0  0  0  0  0  0  0  0
    7.5126    0.4300   -5.2647 H   0  0  0  0  0  0  0  0  0  0  0  0
    6.6481    1.8331   -5.8938 H   0  0  0  0  0  0  0  0  0  0  0  0
    7.2017    1.8112   -4.2095 H   0  0  0  0  0  0  0  0  0  0  0  0
  1  7  1  0  0  0  0
  2  8  1  0  0  0  0
  2  1  2  0  0  0  0
  3  2  1  0  0  0  0
  4  3  2  0  0  0  0
  4  5  1  0  0  0  0
  5  6  2  0  0  0  0
  6  1  1  0  0  0  0
  6 11  1  0  0  0  0
  9  4  1  0  0  0  0
 10  5  1  0  0  0  0
 11 13  2  0  0  0  0
 12 11  2  0  0  0  0
 15 14  3  0  0  0  0
 16 22  1  0  0  0  0
 17 16  1  0  0  0  0
 17 23  1  0  0  0  0
 18 17  2  0  0  0  0
 19 20  2  0  0  0  0
 19 18  1  0  0  0  0
 20 21  1  0  0  0  0
 21 26  1  0  0  0  0
 21 16  2  0  0  0  0
 24 19  1  0  0  0  0
 25 20  1  0  0  0  0
 26 28  2  0  0  0  0
 27 26  1  0  0  0  0
 27  3  1  0  0  0  0
 29 26  2  0  0  0  0
 30 18  1  0  0  0  0
 30 33  1  0  0  0  0
 31 30  1  0  0  0  0
 32 30  1  0  0  0  0
M  END
