Coordinates from ORCA-job 4-NO2-Ph-N2-OTs-B3LYPG-6-31G_dp-MTMO-d009-169-n800
 OpenBabel09051908313D

 33 33  0  0  0  0  0  0  0  0999 V2000
    0.0418    0.8415   -1.6273 C   0  0  0  0  0  0  0  0  0  0  0  0
    0.7025    0.0180   -2.5331 C   0  0  0  0  0  0  0  0  0  0  0  0
    1.5293    0.5961   -3.5016 C   0  0  0  0  0  0  0  0  0  0  0  0
    1.6976    1.9814   -3.5835 C   0  0  0  0  0  0  0  0  0  0  0  0
    1.0323    2.8068   -2.6836 C   0  0  0  0  0  0  0  0  0  0  0  0
    0.2171    2.2224   -1.7151 C   0  0  0  0  0  0  0  0  0  0  0  0
   -0.6070    0.4350   -0.8617 H   0  0  0  0  0  0  0  0  0  0  0  0
    0.5909   -1.0584   -2.4964 H   0  0  0  0  0  0  0  0  0  0  0  0
    2.3382    2.3928   -4.3554 H   0  0  0  0  0  0  0  0  0  0  0  0
    1.1350    3.8843   -2.7149 H   0  0  0  0  0  0  0  0  0  0  0  0
   -0.4812    3.0917   -0.7565 N   0  0  0  0  0  0  0  0  0  0  0  0
   -0.3031    4.3059   -0.8534 O   0  0  0  0  0  0  0  0  0  0  0  0
   -1.1987    2.5531    0.0853 O   0  0  0  0  0  0  0  0  0  0  0  0
   -0.1686    0.1573   -6.5575 N   0  0  0  0  0  0  0  0  0  0  0  0
   -0.3743   -0.7525   -7.1502 N   0  0  0  0  0  0  0  0  0  0  0  0
    5.0949    0.3388   -2.5168 C   0  0  0  0  0  0  0  0  0  0  0  0
    6.1555    1.2294   -2.3606 C   0  0  0  0  0  0  0  0  0  0  0  0
    6.8924    1.6825   -3.4640 C   0  0  0  0  0  0  0  0  0  0  0  0
    6.5400    1.2206   -4.7424 C   0  0  0  0  0  0  0  0  0  0  0  0
    5.4850    0.3313   -4.9223 C   0  0  0  0  0  0  0  0  0  0  0  0
    4.7700   -0.1003   -3.8015 C   0  0  0  0  0  0  0  0  0  0  0  0
    4.5355   -0.0221   -1.6613 H   0  0  0  0  0  0  0  0  0  0  0  0
    6.4161    1.5752   -1.3643 H   0  0  0  0  0  0  0  0  0  0  0  0
    7.1031    1.5597   -5.6073 H   0  0  0  0  0  0  0  0  0  0  0  0
    5.2229   -0.0350   -5.9087 H   0  0  0  0  0  0  0  0  0  0  0  0
    3.4086   -1.2241   -4.0254 S   0  0  0  0  0  0  0  0  0  0  0  0
    2.1538   -0.1859   -4.4637 O   0  0  0  0  0  0  0  0  0  0  0  0
    3.0722   -1.8309   -2.7419 O   0  0  0  0  0  0  0  0  0  0  0  0
    3.6030   -2.0061   -5.2344 O   0  0  0  0  0  0  0  0  0  0  0  0
    8.0592    2.6216   -3.2816 C   0  0  0  0  0  0  0  0  0  0  0  0
    8.1580    3.3066   -4.1288 H   0  0  0  0  0  0  0  0  0  0  0  0
    7.9566    3.2157   -2.3696 H   0  0  0  0  0  0  0  0  0  0  0  0
    8.9996    2.0622   -3.2049 H   0  0  0  0  0  0  0  0  0  0  0  0
  1  7  1  0  0  0  0
  2  8  1  0  0  0  0
  2  1  2  0  0  0  0
  3  2  1  0  0  0  0
  4  3  2  0  0  0  0
  4  5  1  0  0  0  0
  5  6  2  0  0  0  0
  6  1  1  0  0  0  0
  6 11  1  0  0  0  0
  9  4  1  0  0  0  0
 10  5  1  0  0  0  0
 11 13  2  0  0  0  0
 12 11  2  0  0  0  0
 15 14  3  0  0  0  0
 16 17  1  0  0  0  0
 16 22  1  0  0  0  0
 17 23  1  0  0  0  0
 18 30  1  0  0  0  0
 18 17  2  0  0  0  0
 19 18  1  0  0  0  0
 20 19  2  0  0  0  0
 20 21  1  0  0  0  0
 21 16  2  0  0  0  0
 24 19  1  0  0  0  0
 25 20  1  0  0  0  0
 26 21  1  0  0  0  0
 26 28  2  0  0  0  0
 27 26  1  0  0  0  0
 27  3  1  0  0  0  0
 29 26  2  0  0  0  0
 30 33  1  0  0  0  0
 30 32  1  0  0  0  0
 31 30  1  0  0  0  0
M  END
