Coordinates from ORCA-job 4-NO2-Ph-N2-OTs-B3LYPG-6-31G_dp-MTMO-d009-169-n800
 OpenBabel09051908313D

 33 33  0  0  0  0  0  0  0  0999 V2000
    0.1519    1.1599   -0.1718 C   0  0  0  0  0  0  0  0  0  0  0  0
    0.3765    0.1968   -1.1499 C   0  0  0  0  0  0  0  0  0  0  0  0
    0.7522    0.6045   -2.4340 C   0  0  0  0  0  0  0  0  0  0  0  0
    0.8993    1.9573   -2.7552 C   0  0  0  0  0  0  0  0  0  0  0  0
    0.6674    2.9221   -1.7807 C   0  0  0  0  0  0  0  0  0  0  0  0
    0.3001    2.5070   -0.5014 C   0  0  0  0  0  0  0  0  0  0  0  0
   -0.1414    0.8876    0.8339 H   0  0  0  0  0  0  0  0  0  0  0  0
    0.2691   -0.8583   -0.9321 H   0  0  0  0  0  0  0  0  0  0  0  0
    1.1840    2.2343   -3.7638 H   0  0  0  0  0  0  0  0  0  0  0  0
    0.7669    3.9797   -1.9903 H   0  0  0  0  0  0  0  0  0  0  0  0
    0.0592    3.5245    0.5327 N   0  0  0  0  0  0  0  0  0  0  0  0
    0.2013    4.7051    0.2151 O   0  0  0  0  0  0  0  0  0  0  0  0
   -0.2682    3.1341    1.6526 O   0  0  0  0  0  0  0  0  0  0  0  0
   11.0888    1.2053   -7.4229 N   0  0  0  0  0  0  0  0  0  0  0  0
   12.0737    1.0180   -7.8880 N   0  0  0  0  0  0  0  0  0  0  0  0
    4.4192    0.2258   -3.0557 C   0  0  0  0  0  0  0  0  0  0  0  0
    5.4543    1.0433   -3.5080 C   0  0  0  0  0  0  0  0  0  0  0  0
    5.6408    1.2908   -4.8749 C   0  0  0  0  0  0  0  0  0  0  0  0
    4.7579    0.6953   -5.7911 C   0  0  0  0  0  0  0  0  0  0  0  0
    3.7186   -0.1245   -5.3630 C   0  0  0  0  0  0  0  0  0  0  0  0
    3.5593   -0.3495   -3.9921 C   0  0  0  0  0  0  0  0  0  0  0  0
    4.2863    0.0230   -1.9988 H   0  0  0  0  0  0  0  0  0  0  0  0
    6.1298    1.4926   -2.7856 H   0  0  0  0  0  0  0  0  0  0  0  0
    4.8902    0.8743   -6.8549 H   0  0  0  0  0  0  0  0  0  0  0  0
    3.0470   -0.5949   -6.0727 H   0  0  0  0  0  0  0  0  0  0  0  0
    2.2224   -1.3846   -3.4358 S   0  0  0  0  0  0  0  0  0  0  0  0
    0.9137   -0.3204   -3.4559 O   0  0  0  0  0  0  0  0  0  0  0  0
    2.4668   -1.7819   -2.0532 O   0  0  0  0  0  0  0  0  0  0  0  0
    1.8689   -2.3373   -4.4739 O   0  0  0  0  0  0  0  0  0  0  0  0
    6.7788    2.1551   -5.3594 C   0  0  0  0  0  0  0  0  0  0  0  0
    7.6028    1.5397   -5.7406 H   0  0  0  0  0  0  0  0  0  0  0  0
    6.4621    2.8108   -6.1768 H   0  0  0  0  0  0  0  0  0  0  0  0
    7.1784    2.7793   -4.5562 H   0  0  0  0  0  0  0  0  0  0  0  0
  1  7  1  0  0  0  0
  2  8  1  0  0  0  0
  2  1  2  0  0  0  0
  3  2  1  0  0  0  0
  4  3  2  0  0  0  0
  4  5  1  0  0  0  0
  5  6  2  0  0  0  0
  6  1  1  0  0  0  0
  6 11  1  0  0  0  0
  9  4  1  0  0  0  0
 10  5  1  0  0  0  0
 11 13  2  0  0  0  0
 12 11  2  0  0  0  0
 15 14  3  0  0  0  0
 16 22  1  0  0  0  0
 17 16  1  0  0  0  0
 17 23  1  0  0  0  0
 18 17  2  0  0  0  0
 19 20  2  0  0  0  0
 19 18  1  0  0  0  0
 20 21  1  0  0  0  0
 21 26  1  0  0  0  0
 21 16  2  0  0  0  0
 24 19  1  0  0  0  0
 25 20  1  0  0  0  0
 26 28  2  0  0  0  0
 27 26  1  0  0  0  0
 27  3  1  0  0  0  0
 29 26  2  0  0  0  0
 30 18  1  0  0  0  0
 30 33  1  0  0  0  0
 31 30  1  0  0  0  0
 32 30  1  0  0  0  0
M  END
