Coordinates from ORCA-job 4-NO2-Ph-N2-OTs-B3LYPG-6-31G_dp-MTMO-d009-169-n800
 OpenBabel09051908313D

 33 33  0  0  0  0  0  0  0  0999 V2000
   -0.0176    0.8502   -1.3533 C   0  0  0  0  0  0  0  0  0  0  0  0
    0.5913    0.0123   -2.2817 C   0  0  0  0  0  0  0  0  0  0  0  0
    1.3661    0.5744   -3.3013 C   0  0  0  0  0  0  0  0  0  0  0  0
    1.5341    1.9579   -3.4109 C   0  0  0  0  0  0  0  0  0  0  0  0
    0.9203    2.7979   -2.4878 C   0  0  0  0  0  0  0  0  0  0  0  0
    0.1562    2.2292   -1.4696 C   0  0  0  0  0  0  0  0  0  0  0  0
   -0.6255    0.4566   -0.5483 H   0  0  0  0  0  0  0  0  0  0  0  0
    0.4788   -1.0632   -2.2246 H   0  0  0  0  0  0  0  0  0  0  0  0
    2.1348    2.3564   -4.2208 H   0  0  0  0  0  0  0  0  0  0  0  0
    1.0245    3.8745   -2.5388 H   0  0  0  0  0  0  0  0  0  0  0  0
   -0.4879    3.1139   -0.4872 N   0  0  0  0  0  0  0  0  0  0  0  0
   -0.3148    4.3261   -0.6119 O   0  0  0  0  0  0  0  0  0  0  0  0
   -1.1583    2.5886    0.4006 O   0  0  0  0  0  0  0  0  0  0  0  0
    2.4231   -0.0684   -7.5701 N   0  0  0  0  0  0  0  0  0  0  0  0
    1.4828   -0.5679   -7.8651 N   0  0  0  0  0  0  0  0  0  0  0  0
    5.0443    0.2899   -2.5395 C   0  0  0  0  0  0  0  0  0  0  0  0
    6.1067    1.1890   -2.4680 C   0  0  0  0  0  0  0  0  0  0  0  0
    6.7098    1.6942   -3.6283 C   0  0  0  0  0  0  0  0  0  0  0  0
    6.2192    1.2771   -4.8762 C   0  0  0  0  0  0  0  0  0  0  0  0
    5.1609    0.3790   -4.9727 C   0  0  0  0  0  0  0  0  0  0  0  0
    4.5827   -0.1059   -3.7958 C   0  0  0  0  0  0  0  0  0  0  0  0
    4.5856   -0.1098   -1.6423 H   0  0  0  0  0  0  0  0  0  0  0  0
    6.4737    1.5012   -1.4944 H   0  0  0  0  0  0  0  0  0  0  0  0
    6.6758    1.6596   -5.7848 H   0  0  0  0  0  0  0  0  0  0  0  0
    4.7892    0.0545   -5.9383 H   0  0  0  0  0  0  0  0  0  0  0  0
    3.2200   -1.2451   -3.9065 S   0  0  0  0  0  0  0  0  0  0  0  0
    1.9316   -0.2239   -4.2858 O   0  0  0  0  0  0  0  0  0  0  0  0
    2.9722   -1.8266   -2.5914 O   0  0  0  0  0  0  0  0  0  0  0  0
    3.3387   -2.0532   -5.1083 O   0  0  0  0  0  0  0  0  0  0  0  0
    7.8800    2.6422   -3.5414 C   0  0  0  0  0  0  0  0  0  0  0  0
    7.8853    3.3492   -4.3763 H   0  0  0  0  0  0  0  0  0  0  0  0
    7.8662    3.2125   -2.6086 H   0  0  0  0  0  0  0  0  0  0  0  0
    8.8284    2.0922   -3.5751 H   0  0  0  0  0  0  0  0  0  0  0  0
  1  7  1  0  0  0  0
  2  8  1  0  0  0  0
  2  1  2  0  0  0  0
  3  2  1  0  0  0  0
  4  3  2  0  0  0  0
  4  5  1  0  0  0  0
  5  6  2  0  0  0  0
  6  1  1  0  0  0  0
  6 11  1  0  0  0  0
  9  4  1  0  0  0  0
 10  5  1  0  0  0  0
 11 13  2  0  0  0  0
 12 11  2  0  0  0  0
 15 14  3  0  0  0  0
 16 17  1  0  0  0  0
 16 22  1  0  0  0  0
 17 23  1  0  0  0  0
 18 30  1  0  0  0  0
 18 17  2  0  0  0  0
 19 18  1  0  0  0  0
 20 19  2  0  0  0  0
 20 21  1  0  0  0  0
 21 16  2  0  0  0  0
 24 19  1  0  0  0  0
 25 20  1  0  0  0  0
 26 21  1  0  0  0  0
 26 28  2  0  0  0  0
 27 26  1  0  0  0  0
 27  3  1  0  0  0  0
 29 26  2  0  0  0  0
 30 32  1  0  0  0  0
 31 30  1  0  0  0  0
 33 30  1  0  0  0  0
M  END
