Coordinates from ORCA-job 4-NO2-Ph-N2-OTs-B3LYPG-6-31G_dp-MTMO-d009-169-n800
 OpenBabel09051908313D

 33 33  0  0  0  0  0  0  0  0999 V2000
   -0.0688    1.5470   -0.1669 C   0  0  0  0  0  0  0  0  0  0  0  0
   -0.0050    0.5456   -1.1303 C   0  0  0  0  0  0  0  0  0  0  0  0
    0.4637    0.8603   -2.4101 C   0  0  0  0  0  0  0  0  0  0  0  0
    0.8587    2.1597   -2.7421 C   0  0  0  0  0  0  0  0  0  0  0  0
    0.7869    3.1642   -1.7830 C   0  0  0  0  0  0  0  0  0  0  0  0
    0.3275    2.8402   -0.5072 C   0  0  0  0  0  0  0  0  0  0  0  0
   -0.4254    1.3464    0.8352 H   0  0  0  0  0  0  0  0  0  0  0  0
   -0.3073   -0.4689   -0.9041 H   0  0  0  0  0  0  0  0  0  0  0  0
    1.2074    2.3668   -3.7474 H   0  0  0  0  0  0  0  0  0  0  0  0
    1.0804    4.1830   -2.0015 H   0  0  0  0  0  0  0  0  0  0  0  0
    0.2564    3.8983    0.5114 N   0  0  0  0  0  0  0  0  0  0  0  0
    0.6069    5.0313    0.1820 O   0  0  0  0  0  0  0  0  0  0  0  0
   -0.1472    3.5868    1.6310 O   0  0  0  0  0  0  0  0  0  0  0  0
   14.3171    3.3634   -9.2201 N   0  0  0  0  0  0  0  0  0  0  0  0
   15.1647    3.4251   -9.9268 N   0  0  0  0  0  0  0  0  0  0  0  0
    3.9871   -0.2134   -2.8518 C   0  0  0  0  0  0  0  0  0  0  0  0
    5.1792    0.3908   -3.2479 C   0  0  0  0  0  0  0  0  0  0  0  0
    5.4827    0.5787   -4.6035 C   0  0  0  0  0  0  0  0  0  0  0  0
    4.5563    0.1441   -5.5656 C   0  0  0  0  0  0  0  0  0  0  0  0
    3.3600   -0.4614   -5.1935 C   0  0  0  0  0  0  0  0  0  0  0  0
    3.0874   -0.6326   -3.8333 C   0  0  0  0  0  0  0  0  0  0  0  0
    3.7602   -0.3714   -1.8033 H   0  0  0  0  0  0  0  0  0  0  0  0
    5.8858    0.7191   -2.4909 H   0  0  0  0  0  0  0  0  0  0  0  0
    4.7780    0.2796   -6.6209 H   0  0  0  0  0  0  0  0  0  0  0  0
    2.6518   -0.8087   -5.9378 H   0  0  0  0  0  0  0  0  0  0  0  0
    1.5513   -1.3892   -3.3481 S   0  0  0  0  0  0  0  0  0  0  0  0
    0.4763   -0.0917   -3.4195 O   0  0  0  0  0  0  0  0  0  0  0  0
    1.6498   -1.8260   -1.9594 O   0  0  0  0  0  0  0  0  0  0  0  0
    1.0684   -2.2561   -4.4091 O   0  0  0  0  0  0  0  0  0  0  0  0
    6.7879    1.2077   -5.0250 C   0  0  0  0  0  0  0  0  0  0  0  0
    7.5254    0.4377   -5.2822 H   0  0  0  0  0  0  0  0  0  0  0  0
    6.6588    1.8409   -5.9079 H   0  0  0  0  0  0  0  0  0  0  0  0
    7.2161    1.8175   -4.2248 H   0  0  0  0  0  0  0  0  0  0  0  0
  1  7  1  0  0  0  0
  2  8  1  0  0  0  0
  2  1  2  0  0  0  0
  3  2  1  0  0  0  0
  4  3  2  0  0  0  0
  4  5  1  0  0  0  0
  5  6  2  0  0  0  0
  6  1  1  0  0  0  0
  6 11  1  0  0  0  0
  9  4  1  0  0  0  0
 10  5  1  0  0  0  0
 11 13  2  0  0  0  0
 12 11  2  0  0  0  0
 15 14  3  0  0  0  0
 16 22  1  0  0  0  0
 17 16  1  0  0  0  0
 17 23  1  0  0  0  0
 18 17  2  0  0  0  0
 19 20  2  0  0  0  0
 19 18  1  0  0  0  0
 20 21  1  0  0  0  0
 21 26  1  0  0  0  0
 21 16  2  0  0  0  0
 24 19  1  0  0  0  0
 25 20  1  0  0  0  0
 26 28  2  0  0  0  0
 27 26  1  0  0  0  0
 27  3  1  0  0  0  0
 29 26  2  0  0  0  0
 30 18  1  0  0  0  0
 30 33  1  0  0  0  0
 31 30  1  0  0  0  0
 32 30  1  0  0  0  0
M  END
