Coordinates from ORCA-job 4-NO2-Ph-N2-OTs-B3LYPG-6-31G_dp-MTMO-d009-169-n800
 OpenBabel09051908313D

 33 33  0  0  0  0  0  0  0  0999 V2000
   -0.1068    0.9682   -1.0232 C   0  0  0  0  0  0  0  0  0  0  0  0
    0.3547    0.2528   -2.1234 C   0  0  0  0  0  0  0  0  0  0  0  0
    1.1027    0.9159   -3.1019 C   0  0  0  0  0  0  0  0  0  0  0  0
    1.3867    2.2813   -3.0017 C   0  0  0  0  0  0  0  0  0  0  0  0
    0.9197    2.9998   -1.9062 C   0  0  0  0  0  0  0  0  0  0  0  0
    0.1829    2.3295   -0.9307 C   0  0  0  0  0  0  0  0  0  0  0  0
   -0.6885    0.4938   -0.2428 H   0  0  0  0  0  0  0  0  0  0  0  0
    0.1482   -0.8044   -2.2309 H   0  0  0  0  0  0  0  0  0  0  0  0
    1.9608    2.7616   -3.7862 H   0  0  0  0  0  0  0  0  0  0  0  0
    1.1170    4.0581   -1.7920 H   0  0  0  0  0  0  0  0  0  0  0  0
   -0.3056    3.0844    0.2328 N   0  0  0  0  0  0  0  0  0  0  0  0
   -0.0303    4.2828    0.2908 O   0  0  0  0  0  0  0  0  0  0  0  0
   -0.9570    2.4722    1.0780 O   0  0  0  0  0  0  0  0  0  0  0  0
    4.9893   -1.5290   -8.5275 N   0  0  0  0  0  0  0  0  0  0  0  0
    4.7735   -2.4808   -9.0458 N   0  0  0  0  0  0  0  0  0  0  0  0
    4.7141    0.3914   -2.7650 C   0  0  0  0  0  0  0  0  0  0  0  0
    5.8569    1.1838   -2.6851 C   0  0  0  0  0  0  0  0  0  0  0  0
    6.4998    1.6505   -3.8411 C   0  0  0  0  0  0  0  0  0  0  0  0
    5.9676    1.3018   -5.0919 C   0  0  0  0  0  0  0  0  0  0  0  0
    4.8250    0.5133   -5.1968 C   0  0  0  0  0  0  0  0  0  0  0  0
    4.2072    0.0673   -4.0258 C   0  0  0  0  0  0  0  0  0  0  0  0
    4.2292    0.0174   -1.8705 H   0  0  0  0  0  0  0  0  0  0  0  0
    6.2575    1.4411   -1.7085 H   0  0  0  0  0  0  0  0  0  0  0  0
    6.4570    1.6498   -5.9971 H   0  0  0  0  0  0  0  0  0  0  0  0
    4.4269    0.2325   -6.1655 H   0  0  0  0  0  0  0  0  0  0  0  0
    2.7318   -0.9196   -4.1483 S   0  0  0  0  0  0  0  0  0  0  0  0
    1.5222    0.2537   -4.2476 O   0  0  0  0  0  0  0  0  0  0  0  0
    2.5437   -1.6606   -2.9054 O   0  0  0  0  0  0  0  0  0  0  0  0
    2.6672   -1.5534   -5.4543 O   0  0  0  0  0  0  0  0  0  0  0  0
    7.7551    2.4815   -3.7424 C   0  0  0  0  0  0  0  0  0  0  0  0
    7.8696    3.1389   -4.6089 H   0  0  0  0  0  0  0  0  0  0  0  0
    7.7567    3.0993   -2.8398 H   0  0  0  0  0  0  0  0  0  0  0  0
    8.6434    1.8395   -3.6997 H   0  0  0  0  0  0  0  0  0  0  0  0
  1  6  1  0  0  0  0
  1  7  1  0  0  0  0
  2  1  2  0  0  0  0
  3  4  2  0  0  0  0
  3  2  1  0  0  0  0
  4  5  1  0  0  0  0
  5 10  1  0  0  0  0
  5  6  2  0  0  0  0
  6 11  1  0  0  0  0
  8  2  1  0  0  0  0
  9  4  1  0  0  0  0
 11 12  2  0  0  0  0
 11 13  2  0  0  0  0
 15 14  3  0  0  0  0
 16 17  1  0  0  0  0
 16 22  1  0  0  0  0
 17 23  1  0  0  0  0
 18 30  1  0  0  0  0
 18 17  2  0  0  0  0
 19 18  1  0  0  0  0
 20 19  2  0  0  0  0
 20 21  1  0  0  0  0
 21 16  2  0  0  0  0
 24 19  1  0  0  0  0
 25 20  1  0  0  0  0
 26 21  1  0  0  0  0
 26 28  2  0  0  0  0
 27 26  1  0  0  0  0
 27  3  1  0  0  0  0
 29 26  2  0  0  0  0
 30 33  1  0  0  0  0
 30 32  1  0  0  0  0
 31 30  1  0  0  0  0
M  END
