Coordinates from ORCA-job 4-NO2-Ph-N2-OTs-B3LYPG-6-31G_dp-MTMO-d009-169-n800
 OpenBabel09051908313D

 33 33  0  0  0  0  0  0  0  0999 V2000
   -0.0217    1.2321   -0.7214 C   0  0  0  0  0  0  0  0  0  0  0  0
    0.3743    0.2602   -1.6346 C   0  0  0  0  0  0  0  0  0  0  0  0
    0.9828    0.6565   -2.8303 C   0  0  0  0  0  0  0  0  0  0  0  0
    1.1911    2.0064   -3.1290 C   0  0  0  0  0  0  0  0  0  0  0  0
    0.7870    2.9797   -2.2214 C   0  0  0  0  0  0  0  0  0  0  0  0
    0.1899    2.5761   -1.0277 C   0  0  0  0  0  0  0  0  0  0  0  0
   -0.4949    0.9679    0.2156 H   0  0  0  0  0  0  0  0  0  0  0  0
    0.2238   -0.7926   -1.4324 H   0  0  0  0  0  0  0  0  0  0  0  0
    1.6570    2.2746   -4.0702 H   0  0  0  0  0  0  0  0  0  0  0  0
    0.9277    4.0353   -2.4174 H   0  0  0  0  0  0  0  0  0  0  0  0
   -0.2325    3.6023   -0.0631 N   0  0  0  0  0  0  0  0  0  0  0  0
   -0.0330    4.7801   -0.3595 O   0  0  0  0  0  0  0  0  0  0  0  0
   -0.7580    3.2216    0.9824 O   0  0  0  0  0  0  0  0  0  0  0  0
    6.6521    0.9754   -8.8693 N   0  0  0  0  0  0  0  0  0  0  0  0
    6.9766    0.8878   -9.9219 N   0  0  0  0  0  0  0  0  0  0  0  0
    4.6582    0.1494   -2.5736 C   0  0  0  0  0  0  0  0  0  0  0  0
    5.7869    0.9505   -2.7407 C   0  0  0  0  0  0  0  0  0  0  0  0
    6.2855    1.2458   -4.0167 C   0  0  0  0  0  0  0  0  0  0  0  0
    5.6235    0.7169   -5.1374 C   0  0  0  0  0  0  0  0  0  0  0  0
    4.4966   -0.0861   -4.9937 C   0  0  0  0  0  0  0  0  0  0  0  0
    4.0238   -0.3610   -3.7068 C   0  0  0  0  0  0  0  0  0  0  0  0
    4.2812   -0.0894   -1.5856 H   0  0  0  0  0  0  0  0  0  0  0  0
    6.2894    1.3498   -1.8644 H   0  0  0  0  0  0  0  0  0  0  0  0
    5.9980    0.9326   -6.1340 H   0  0  0  0  0  0  0  0  0  0  0  0
    3.9948   -0.5063   -5.8583 H   0  0  0  0  0  0  0  0  0  0  0  0
    2.5738   -1.3746   -3.5170 S   0  0  0  0  0  0  0  0  0  0  0  0
    1.3283   -0.2735   -3.8005 O   0  0  0  0  0  0  0  0  0  0  0  0
    2.4814   -1.8252   -2.1321 O   0  0  0  0  0  0  0  0  0  0  0  0
    2.4502   -2.2830   -4.6441 O   0  0  0  0  0  0  0  0  0  0  0  0
    7.5241    2.0900   -4.1882 C   0  0  0  0  0  0  0  0  0  0  0  0
    7.4186    2.7877   -5.0247 H   0  0  0  0  0  0  0  0  0  0  0  0
    7.7450    2.6668   -3.2864 H   0  0  0  0  0  0  0  0  0  0  0  0
    8.3970    1.4608   -4.3999 H   0  0  0  0  0  0  0  0  0  0  0  0
  1  7  1  0  0  0  0
  2  8  1  0  0  0  0
  2  1  2  0  0  0  0
  3  2  1  0  0  0  0
  4  3  2  0  0  0  0
  4  5  1  0  0  0  0
  5  6  2  0  0  0  0
  6  1  1  0  0  0  0
  6 11  1  0  0  0  0
  9  4  1  0  0  0  0
 10  5  1  0  0  0  0
 11 13  2  0  0  0  0
 12 11  2  0  0  0  0
 15 14  3  0  0  0  0
 16 22  1  0  0  0  0
 17 16  1  0  0  0  0
 17 23  1  0  0  0  0
 18 17  2  0  0  0  0
 19 20  2  0  0  0  0
 19 18  1  0  0  0  0
 20 21  1  0  0  0  0
 21 26  1  0  0  0  0
 21 16  2  0  0  0  0
 24 19  1  0  0  0  0
 25 20  1  0  0  0  0
 26 28  2  0  0  0  0
 27 26  1  0  0  0  0
 27  3  1  0  0  0  0
 29 26  2  0  0  0  0
 30 18  1  0  0  0  0
 30 32  1  0  0  0  0
 31 30  1  0  0  0  0
 33 30  1  0  0  0  0
M  END
