Coordinates from ORCA-job 4-NO2-Ph-N2-OTs-B3LYPG-6-31G_dp-MTMO-d009-169-n800
 OpenBabel09051908313D

 33 32  0  0  0  0  0  0  0  0999 V2000
    0.9222    1.1542   -1.8316 C   0  0  0  0  0  0  0  0  0  0  0  0
    0.8355    0.7113   -3.1653 C   0  0  0  0  0  0  0  0  0  0  0  0
   -0.0638    1.2784   -3.8572 C   0  0  0  0  0  0  0  0  0  0  0  0
   -1.0199    2.2430   -3.6914 C   0  0  0  0  0  0  0  0  0  0  0  0
   -0.9462    2.7007   -2.3645 C   0  0  0  0  0  0  0  0  0  0  0  0
    0.0040    2.1583   -1.4797 C   0  0  0  0  0  0  0  0  0  0  0  0
    1.6298    0.7792   -1.1022 H   0  0  0  0  0  0  0  0  0  0  0  0
    2.1055   -0.5572   -3.7932 H   0  0  0  0  0  0  0  0  0  0  0  0
   -1.7237    2.6136   -4.4249 H   0  0  0  0  0  0  0  0  0  0  0  0
   -1.6176    3.4731   -2.0088 H   0  0  0  0  0  0  0  0  0  0  0  0
    0.0366    2.6820   -0.0997 N   0  0  0  0  0  0  0  0  0  0  0  0
   -0.7730    3.5584    0.1994 O   0  0  0  0  0  0  0  0  0  0  0  0
    0.8744    2.2081    0.6641 O   0  0  0  0  0  0  0  0  0  0  0  0
   -0.2814    0.6229   -6.0109 N   0  0  0  0  0  0  0  0  0  0  0  0
    0.0840   -0.0323   -6.8231 N   0  0  0  0  0  0  0  0  0  0  0  0
    5.0641    1.4689   -4.1374 C   0  0  0  0  0  0  0  0  0  0  0  0
    6.1366    2.0457   -3.4578 C   0  0  0  0  0  0  0  0  0  0  0  0
    7.2319    1.2755   -3.0447 C   0  0  0  0  0  0  0  0  0  0  0  0
    7.2303   -0.0986   -3.3327 C   0  0  0  0  0  0  0  0  0  0  0  0
    6.1697   -0.6922   -4.0109 C   0  0  0  0  0  0  0  0  0  0  0  0
    5.0892    0.1005   -4.4052 C   0  0  0  0  0  0  0  0  0  0  0  0
    4.2236    2.0687   -4.4692 H   0  0  0  0  0  0  0  0  0  0  0  0
    6.1233    3.1117   -3.2472 H   0  0  0  0  0  0  0  0  0  0  0  0
    8.0735   -0.7108   -3.0234 H   0  0  0  0  0  0  0  0  0  0  0  0
    6.1769   -1.7509   -4.2459 H   0  0  0  0  0  0  0  0  0  0  0  0
    3.7111   -0.6587   -5.2496 S   0  0  0  0  0  0  0  0  0  0  0  0
    2.9445    0.3943   -5.9234 O   0  0  0  0  0  0  0  0  0  0  0  0
    2.8019   -1.2301   -4.0298 O   0  0  0  0  0  0  0  0  0  0  0  0
    4.1944   -1.8290   -5.9686 O   0  0  0  0  0  0  0  0  0  0  0  0
    8.4012    1.9083   -2.3296 C   0  0  0  0  0  0  0  0  0  0  0  0
    9.2519    2.0395   -3.0095 H   0  0  0  0  0  0  0  0  0  0  0  0
    8.1427    2.8931   -1.9322 H   0  0  0  0  0  0  0  0  0  0  0  0
    8.7452    1.2852   -1.4981 H   0  0  0  0  0  0  0  0  0  0  0  0
  1  6  1  0  0  0  0
  1  7  1  0  0  0  0
  2  1  2  0  0  0  0
  3  4  2  0  0  0  0
  3  2  1  0  0  0  0
  4  5  1  0  0  0  0
  5 10  1  0  0  0  0
  5  6  2  0  0  0  0
  6 11  1  0  0  0  0
  9  4  1  0  0  0  0
 11 12  2  0  0  0  0
 11 13  2  0  0  0  0
 15 14  3  0  0  0  0
 16 17  1  0  0  0  0
 17 23  1  0  0  0  0
 17 18  2  0  0  0  0
 18 30  1  0  0  0  0
 19 18  1  0  0  0  0
 19 24  1  0  0  0  0
 20 19  2  0  0  0  0
 21 16  2  0  0  0  0
 21 20  1  0  0  0  0
 22 16  1  0  0  0  0
 25 20  1  0  0  0  0
 26 21  1  0  0  0  0
 26 28  1  0  0  0  0
 27 26  2  0  0  0  0
 28  8  1  0  0  0  0
 29 26  2  0  0  0  0
 30 32  1  0  0  0  0
 30 33  1  0  0  0  0
 31 30  1  0  0  0  0
M  RAD  2   2   2   3   2
M  END
