Coordinates from ORCA-job 4-NO2-Ph-N2-OTs-B3LYPG-6-31G_dp-MTMO-d009-169-n800
 OpenBabel09051908313D

 33 33  0  0  0  0  0  0  0  0999 V2000
    0.1461    1.1654   -0.1657 C   0  0  0  0  0  0  0  0  0  0  0  0
    0.3638    0.1988   -1.1420 C   0  0  0  0  0  0  0  0  0  0  0  0
    0.7376    0.6016   -2.4282 C   0  0  0  0  0  0  0  0  0  0  0  0
    0.8896    1.9529   -2.7533 C   0  0  0  0  0  0  0  0  0  0  0  0
    0.6648    2.9211   -1.7806 C   0  0  0  0  0  0  0  0  0  0  0  0
    0.2993    2.5109   -0.4992 C   0  0  0  0  0  0  0  0  0  0  0  0
   -0.1456    0.8969    0.8415 H   0  0  0  0  0  0  0  0  0  0  0  0
    0.2524   -0.8553   -0.9213 H   0  0  0  0  0  0  0  0  0  0  0  0
    1.1727    2.2260   -3.7633 H   0  0  0  0  0  0  0  0  0  0  0  0
    0.7684    3.9778   -1.9931 H   0  0  0  0  0  0  0  0  0  0  0  0
    0.0657    3.5321    0.5330 N   0  0  0  0  0  0  0  0  0  0  0  0
    0.2122    4.7113    0.2119 O   0  0  0  0  0  0  0  0  0  0  0  0
   -0.2602    3.1460    1.6548 O   0  0  0  0  0  0  0  0  0  0  0  0
   11.3292    1.2384   -7.5300 N   0  0  0  0  0  0  0  0  0  0  0  0
   12.3128    1.0496   -7.9974 N   0  0  0  0  0  0  0  0  0  0  0  0
    4.3972    0.2154   -3.0465 C   0  0  0  0  0  0  0  0  0  0  0  0
    5.4313    1.0351   -3.4971 C   0  0  0  0  0  0  0  0  0  0  0  0
    5.6162    1.2871   -4.8634 C   0  0  0  0  0  0  0  0  0  0  0  0
    4.7331    0.6939   -5.7808 C   0  0  0  0  0  0  0  0  0  0  0  0
    3.6948   -0.1280   -5.3544 C   0  0  0  0  0  0  0  0  0  0  0  0
    3.5369   -0.3574   -3.9841 C   0  0  0  0  0  0  0  0  0  0  0  0
    4.2651    0.0093   -1.9902 H   0  0  0  0  0  0  0  0  0  0  0  0
    6.1071    1.4826   -2.7738 H   0  0  0  0  0  0  0  0  0  0  0  0
    4.8644    0.8765   -6.8441 H   0  0  0  0  0  0  0  0  0  0  0  0
    3.0227   -0.5965   -6.0650 H   0  0  0  0  0  0  0  0  0  0  0  0
    2.1995   -1.3927   -3.4297 S   0  0  0  0  0  0  0  0  0  0  0  0
    0.8922   -0.3270   -3.4479 O   0  0  0  0  0  0  0  0  0  0  0  0
    2.4436   -1.7928   -2.0478 O   0  0  0  0  0  0  0  0  0  0  0  0
    1.8447   -2.3433   -4.4694 O   0  0  0  0  0  0  0  0  0  0  0  0
    6.7535    2.1535   -5.3459 C   0  0  0  0  0  0  0  0  0  0  0  0
    7.5794    1.5387   -5.7241 H   0  0  0  0  0  0  0  0  0  0  0  0
    6.4378    2.8074   -6.1650 H   0  0  0  0  0  0  0  0  0  0  0  0
    7.1500    2.7793   -4.5424 H   0  0  0  0  0  0  0  0  0  0  0  0
  1  7  1  0  0  0  0
  2  8  1  0  0  0  0
  2  1  2  0  0  0  0
  3  2  1  0  0  0  0
  4  3  2  0  0  0  0
  4  5  1  0  0  0  0
  5  6  2  0  0  0  0
  6  1  1  0  0  0  0
  6 11  1  0  0  0  0
  9  4  1  0  0  0  0
 10  5  1  0  0  0  0
 11 13  2  0  0  0  0
 12 11  2  0  0  0  0
 15 14  3  0  0  0  0
 16 22  1  0  0  0  0
 17 16  1  0  0  0  0
 17 23  1  0  0  0  0
 18 17  2  0  0  0  0
 19 20  2  0  0  0  0
 19 18  1  0  0  0  0
 20 21  1  0  0  0  0
 21 26  1  0  0  0  0
 21 16  2  0  0  0  0
 24 19  1  0  0  0  0
 25 20  1  0  0  0  0
 26 28  2  0  0  0  0
 27 26  1  0  0  0  0
 27  3  1  0  0  0  0
 29 26  2  0  0  0  0
 30 18  1  0  0  0  0
 30 33  1  0  0  0  0
 31 30  1  0  0  0  0
 32 30  1  0  0  0  0
M  END
