Coordinates from ORCA-job 4-NO2-Ph-N2-OTs-B3LYPG-6-31G_dp-MTMO-d009-169-n800
 OpenBabel09051908313D

 33 33  0  0  0  0  0  0  0  0999 V2000
    0.0076    1.2177   -0.4347 C   0  0  0  0  0  0  0  0  0  0  0  0
    0.3377    0.2397   -1.3671 C   0  0  0  0  0  0  0  0  0  0  0  0
    0.8550    0.6277   -2.6075 C   0  0  0  0  0  0  0  0  0  0  0  0
    1.0378    1.9756   -2.9309 C   0  0  0  0  0  0  0  0  0  0  0  0
    0.6998    2.9551   -2.0033 C   0  0  0  0  0  0  0  0  0  0  0  0
    0.1931    2.5596   -0.7660 C   0  0  0  0  0  0  0  0  0  0  0  0
   -0.3950    0.9601    0.5365 H   0  0  0  0  0  0  0  0  0  0  0  0
    0.2048   -0.8117   -1.1460 H   0  0  0  0  0  0  0  0  0  0  0  0
    1.4325    2.2371   -3.9060 H   0  0  0  0  0  0  0  0  0  0  0  0
    0.8230    4.0095   -2.2168 H   0  0  0  0  0  0  0  0  0  0  0  0
   -0.1595    3.5925    0.2195 N   0  0  0  0  0  0  0  0  0  0  0  0
    0.0173    4.7683   -0.0988 O   0  0  0  0  0  0  0  0  0  0  0  0
   -0.6080    3.2190    1.3026 O   0  0  0  0  0  0  0  0  0  0  0  0
    8.7623    1.3218   -8.4419 N   0  0  0  0  0  0  0  0  0  0  0  0
    9.5151    1.2796   -9.2499 N   0  0  0  0  0  0  0  0  0  0  0  0
    4.5465    0.2139   -2.7716 C   0  0  0  0  0  0  0  0  0  0  0  0
    5.6458    1.0033   -3.1013 C   0  0  0  0  0  0  0  0  0  0  0  0
    6.0256    1.1995   -4.4378 C   0  0  0  0  0  0  0  0  0  0  0  0
    5.2774    0.5734   -5.4465 C   0  0  0  0  0  0  0  0  0  0  0  0
    4.1742   -0.2194   -5.1405 C   0  0  0  0  0  0  0  0  0  0  0  0
    3.8186   -0.3888   -3.8001 C   0  0  0  0  0  0  0  0  0  0  0  0
    4.2659    0.0478   -1.7375 H   0  0  0  0  0  0  0  0  0  0  0  0
    6.2229    1.4680   -2.3069 H   0  0  0  0  0  0  0  0  0  0  0  0
    5.5697    0.7017   -6.4849 H   0  0  0  0  0  0  0  0  0  0  0  0
    3.6070   -0.7157   -5.9202 H   0  0  0  0  0  0  0  0  0  0  0  0
    2.4065   -1.3956   -3.4006 S   0  0  0  0  0  0  0  0  0  0  0  0
    1.1287   -0.3107   -3.5925 O   0  0  0  0  0  0  0  0  0  0  0  0
    2.4728   -1.7791   -1.9942 O   0  0  0  0  0  0  0  0  0  0  0  0
    2.1658   -2.3569   -4.4630 O   0  0  0  0  0  0  0  0  0  0  0  0
    7.2035    2.0770   -4.7827 C   0  0  0  0  0  0  0  0  0  0  0  0
    7.6119    1.8310   -5.7662 H   0  0  0  0  0  0  0  0  0  0  0  0
    6.9078    3.1334   -4.8041 H   0  0  0  0  0  0  0  0  0  0  0  0
    8.0043    1.9801   -4.0430 H   0  0  0  0  0  0  0  0  0  0  0  0
  1  7  1  0  0  0  0
  2  8  1  0  0  0  0
  2  1  2  0  0  0  0
  3  2  1  0  0  0  0
  4  3  2  0  0  0  0
  4  5  1  0  0  0  0
  5  6  2  0  0  0  0
  6  1  1  0  0  0  0
  6 11  1  0  0  0  0
  9  4  1  0  0  0  0
 10  5  1  0  0  0  0
 11 13  2  0  0  0  0
 12 11  2  0  0  0  0
 15 14  3  0  0  0  0
 16 22  1  0  0  0  0
 17 16  1  0  0  0  0
 17 23  1  0  0  0  0
 18 17  2  0  0  0  0
 19 20  2  0  0  0  0
 19 18  1  0  0  0  0
 20 21  1  0  0  0  0
 21 26  1  0  0  0  0
 21 16  2  0  0  0  0
 24 19  1  0  0  0  0
 25 20  1  0  0  0  0
 26 28  2  0  0  0  0
 27 26  1  0  0  0  0
 27  3  1  0  0  0  0
 29 26  2  0  0  0  0
 30 18  1  0  0  0  0
 30 33  1  0  0  0  0
 31 30  1  0  0  0  0
 32 30  1  0  0  0  0
M  END
