Coordinates from ORCA-job 4-NO2-Ph-N2-OTs-B3LYPG-6-31G_dp-MTMO-d009-169-n800
 OpenBabel09051908313D

 33 33  0  0  0  0  0  0  0  0999 V2000
   -0.1011    1.5441   -0.1532 C   0  0  0  0  0  0  0  0  0  0  0  0
   -0.0387    0.5430   -1.1170 C   0  0  0  0  0  0  0  0  0  0  0  0
    0.4317    0.8574   -2.3963 C   0  0  0  0  0  0  0  0  0  0  0  0
    0.8297    2.1562   -2.7273 C   0  0  0  0  0  0  0  0  0  0  0  0
    0.7593    3.1603   -1.7677 C   0  0  0  0  0  0  0  0  0  0  0  0
    0.2983    2.8366   -0.4924 C   0  0  0  0  0  0  0  0  0  0  0  0
   -0.4589    1.3437    0.8485 H   0  0  0  0  0  0  0  0  0  0  0  0
   -0.3434   -0.4710   -0.8917 H   0  0  0  0  0  0  0  0  0  0  0  0
    1.1797    2.3630   -3.7322 H   0  0  0  0  0  0  0  0  0  0  0  0
    1.0552    4.1785   -1.9854 H   0  0  0  0  0  0  0  0  0  0  0  0
    0.2288    3.8943    0.5267 N   0  0  0  0  0  0  0  0  0  0  0  0
    0.5819    5.0267    0.1982 O   0  0  0  0  0  0  0  0  0  0  0  0
   -0.1764    3.5830    1.6459 O   0  0  0  0  0  0  0  0  0  0  0  0
   14.7963    3.4843   -9.5004 N   0  0  0  0  0  0  0  0  0  0  0  0
   15.6376    3.5337  -10.2154 N   0  0  0  0  0  0  0  0  0  0  0  0
    3.9522   -0.2244   -2.8314 C   0  0  0  0  0  0  0  0  0  0  0  0
    5.1466    0.3773   -3.2242 C   0  0  0  0  0  0  0  0  0  0  0  0
    5.4537    0.5659   -4.5789 C   0  0  0  0  0  0  0  0  0  0  0  0
    4.5285    0.1344   -5.5436 C   0  0  0  0  0  0  0  0  0  0  0  0
    3.3299   -0.4687   -5.1749 C   0  0  0  0  0  0  0  0  0  0  0  0
    3.0538   -0.6406   -3.8154 C   0  0  0  0  0  0  0  0  0  0  0  0
    3.7225   -0.3829   -1.7837 H   0  0  0  0  0  0  0  0  0  0  0  0
    5.8522    0.7033   -2.4653 H   0  0  0  0  0  0  0  0  0  0  0  0
    4.7529    0.2704   -6.5982 H   0  0  0  0  0  0  0  0  0  0  0  0
    2.6226   -0.8136   -5.9210 H   0  0  0  0  0  0  0  0  0  0  0  0
    1.5149   -1.3941   -3.3345 S   0  0  0  0  0  0  0  0  0  0  0  0
    0.4431   -0.0940   -3.4062 O   0  0  0  0  0  0  0  0  0  0  0  0
    1.6095   -1.8330   -1.9461 O   0  0  0  0  0  0  0  0  0  0  0  0
    1.0321   -2.2584   -4.3977 O   0  0  0  0  0  0  0  0  0  0  0  0
    6.7613    1.1922   -4.9966 C   0  0  0  0  0  0  0  0  0  0  0  0
    7.4986    0.4206   -5.2496 H   0  0  0  0  0  0  0  0  0  0  0  0
    6.6364    1.8239   -5.8811 H   0  0  0  0  0  0  0  0  0  0  0  0
    7.1874    1.8028   -4.1959 H   0  0  0  0  0  0  0  0  0  0  0  0
  1  7  1  0  0  0  0
  2  8  1  0  0  0  0
  2  1  2  0  0  0  0
  3  2  1  0  0  0  0
  4  3  2  0  0  0  0
  4  5  1  0  0  0  0
  5  6  2  0  0  0  0
  6  1  1  0  0  0  0
  6 11  1  0  0  0  0
  9  4  1  0  0  0  0
 10  5  1  0  0  0  0
 11 13  2  0  0  0  0
 12 11  2  0  0  0  0
 15 14  3  0  0  0  0
 16 22  1  0  0  0  0
 17 16  1  0  0  0  0
 17 23  1  0  0  0  0
 18 17  2  0  0  0  0
 19 20  2  0  0  0  0
 19 18  1  0  0  0  0
 20 21  1  0  0  0  0
 21 26  1  0  0  0  0
 21 16  2  0  0  0  0
 24 19  1  0  0  0  0
 25 20  1  0  0  0  0
 26 28  2  0  0  0  0
 27 26  1  0  0  0  0
 27  3  1  0  0  0  0
 29 26  2  0  0  0  0
 30 18  1  0  0  0  0
 30 33  1  0  0  0  0
 31 30  1  0  0  0  0
 32 30  1  0  0  0  0
M  END
