Coordinates from ORCA-job 4-NO2-Ph-N2-OTs-B3LYPG-6-31G_dp-MTMO-d009-169-n800
 OpenBabel09051908313D

 33 33  0  0  0  0  0  0  0  0999 V2000
    0.0145    1.2189   -0.4176 C   0  0  0  0  0  0  0  0  0  0  0  0
    0.3387    0.2389   -1.3501 C   0  0  0  0  0  0  0  0  0  0  0  0
    0.8482    0.6244   -2.5944 C   0  0  0  0  0  0  0  0  0  0  0  0
    1.0293    1.9716   -2.9217 C   0  0  0  0  0  0  0  0  0  0  0  0
    0.6973    2.9531   -1.9939 C   0  0  0  0  0  0  0  0  0  0  0  0
    0.1981    2.5601   -0.7528 C   0  0  0  0  0  0  0  0  0  0  0  0
   -0.3821    0.9634    0.5566 H   0  0  0  0  0  0  0  0  0  0  0  0
    0.2070   -0.8120   -1.1260 H   0  0  0  0  0  0  0  0  0  0  0  0
    1.4180    2.2310   -3.8998 H   0  0  0  0  0  0  0  0  0  0  0  0
    0.8193    4.0070   -2.2104 H   0  0  0  0  0  0  0  0  0  0  0  0
   -0.1484    3.5951    0.2327 N   0  0  0  0  0  0  0  0  0  0  0  0
    0.0264    4.7702   -0.0891 O   0  0  0  0  0  0  0  0  0  0  0  0
   -0.5903    3.2239    1.3193 O   0  0  0  0  0  0  0  0  0  0  0  0
    8.9034    1.3389   -8.3938 N   0  0  0  0  0  0  0  0  0  0  0  0
    9.6720    1.3066   -9.1872 N   0  0  0  0  0  0  0  0  0  0  0  0
    4.5417    0.2100   -2.7841 C   0  0  0  0  0  0  0  0  0  0  0  0
    5.6379    0.9997   -3.1238 C   0  0  0  0  0  0  0  0  0  0  0  0
    6.0043    1.1979   -4.4635 C   0  0  0  0  0  0  0  0  0  0  0  0
    5.2457    0.5731   -5.4656 C   0  0  0  0  0  0  0  0  0  0  0  0
    4.1458   -0.2199   -5.1497 C   0  0  0  0  0  0  0  0  0  0  0  0
    3.8036   -0.3913   -3.8059 C   0  0  0  0  0  0  0  0  0  0  0  0
    4.2714    0.0425   -1.7475 H   0  0  0  0  0  0  0  0  0  0  0  0
    6.2230    1.4633   -2.3345 H   0  0  0  0  0  0  0  0  0  0  0  0
    5.5272    0.7027   -6.5069 H   0  0  0  0  0  0  0  0  0  0  0  0
    3.5711   -0.7154   -5.9243 H   0  0  0  0  0  0  0  0  0  0  0  0
    2.3958   -1.3990   -3.3939 S   0  0  0  0  0  0  0  0  0  0  0  0
    1.1153   -0.3162   -3.5790 O   0  0  0  0  0  0  0  0  0  0  0  0
    2.4728   -1.7790   -1.9871 O   0  0  0  0  0  0  0  0  0  0  0  0
    2.1487   -2.3629   -4.4525 O   0  0  0  0  0  0  0  0  0  0  0  0
    7.1783    2.0760   -4.8201 C   0  0  0  0  0  0  0  0  0  0  0  0
    7.6088    1.7968   -5.7853 H   0  0  0  0  0  0  0  0  0  0  0  0
    6.8700    3.1266   -4.8901 H   0  0  0  0  0  0  0  0  0  0  0  0
    7.9655    2.0189   -4.0622 H   0  0  0  0  0  0  0  0  0  0  0  0
  1  7  1  0  0  0  0
  2  8  1  0  0  0  0
  2  1  2  0  0  0  0
  3  2  1  0  0  0  0
  4  3  2  0  0  0  0
  4  5  1  0  0  0  0
  5  6  2  0  0  0  0
  6  1  1  0  0  0  0
  6 11  1  0  0  0  0
  9  4  1  0  0  0  0
 10  5  1  0  0  0  0
 11 13  2  0  0  0  0
 12 11  2  0  0  0  0
 15 14  3  0  0  0  0
 16 22  1  0  0  0  0
 17 16  1  0  0  0  0
 17 23  1  0  0  0  0
 18 17  2  0  0  0  0
 19 20  2  0  0  0  0
 19 18  1  0  0  0  0
 20 21  1  0  0  0  0
 21 26  1  0  0  0  0
 21 16  2  0  0  0  0
 24 19  1  0  0  0  0
 25 20  1  0  0  0  0
 26 28  2  0  0  0  0
 27 26  1  0  0  0  0
 27  3  1  0  0  0  0
 29 26  2  0  0  0  0
 30 18  1  0  0  0  0
 30 33  1  0  0  0  0
 31 30  1  0  0  0  0
 32 30  1  0  0  0  0
M  END
