Coordinates from ORCA-job 4-NO2-Ph-N2-OTs-B3LYPG-6-31G_dp-MTMO-d009-169-n800
 OpenBabel09051908313D

 33 33  0  0  0  0  0  0  0  0999 V2000
   -0.0582    0.8962   -1.2073 C   0  0  0  0  0  0  0  0  0  0  0  0
    0.4989    0.1026   -2.2047 C   0  0  0  0  0  0  0  0  0  0  0  0
    1.2699    0.7054   -3.2038 C   0  0  0  0  0  0  0  0  0  0  0  0
    1.4849    2.0867   -3.2251 C   0  0  0  0  0  0  0  0  0  0  0  0
    0.9233    2.8828   -2.2325 C   0  0  0  0  0  0  0  0  0  0  0  0
    0.1627    2.2732   -1.2356 C   0  0  0  0  0  0  0  0  0  0  0  0
   -0.6615    0.4703   -0.4155 H   0  0  0  0  0  0  0  0  0  0  0  0
    0.3486   -0.9697   -2.2171 H   0  0  0  0  0  0  0  0  0  0  0  0
    2.0807    2.5181   -4.0216 H   0  0  0  0  0  0  0  0  0  0  0  0
    1.0653    3.9561   -2.2138 H   0  0  0  0  0  0  0  0  0  0  0  0
   -0.4265    3.1111   -0.1805 N   0  0  0  0  0  0  0  0  0  0  0  0
   -0.2102    4.3219   -0.2269 O   0  0  0  0  0  0  0  0  0  0  0  0
   -1.0974    2.5508    0.6853 O   0  0  0  0  0  0  0  0  0  0  0  0
    3.3792   -0.7410   -8.2372 N   0  0  0  0  0  0  0  0  0  0  0  0
    2.6422   -1.4231   -8.6980 N   0  0  0  0  0  0  0  0  0  0  0  0
    4.9179    0.3512   -2.6058 C   0  0  0  0  0  0  0  0  0  0  0  0
    6.0066    1.2176   -2.5327 C   0  0  0  0  0  0  0  0  0  0  0  0
    6.6341    1.6949   -3.6923 C   0  0  0  0  0  0  0  0  0  0  0  0
    6.1420    1.2816   -4.9405 C   0  0  0  0  0  0  0  0  0  0  0  0
    5.0561    0.4166   -5.0390 C   0  0  0  0  0  0  0  0  0  0  0  0
    4.4530   -0.0390   -3.8633 C   0  0  0  0  0  0  0  0  0  0  0  0
    4.4422   -0.0283   -1.7087 H   0  0  0  0  0  0  0  0  0  0  0  0
    6.3757    1.5258   -1.5586 H   0  0  0  0  0  0  0  0  0  0  0  0
    6.6192    1.6400   -5.8482 H   0  0  0  0  0  0  0  0  0  0  0  0
    4.6866    0.0903   -6.0048 H   0  0  0  0  0  0  0  0  0  0  0  0
    3.0478   -1.1248   -3.9769 S   0  0  0  0  0  0  0  0  0  0  0  0
    1.7830   -0.0434   -4.2537 O   0  0  0  0  0  0  0  0  0  0  0  0
    2.8278   -1.7637   -2.6836 O   0  0  0  0  0  0  0  0  0  0  0  0
    3.0961   -1.8753   -5.2205 O   0  0  0  0  0  0  0  0  0  0  0  0
    7.8318    2.6077   -3.6025 C   0  0  0  0  0  0  0  0  0  0  0  0
    7.8806    3.2893   -4.4567 H   0  0  0  0  0  0  0  0  0  0  0  0
    7.8132    3.2053   -2.6868 H   0  0  0  0  0  0  0  0  0  0  0  0
    8.7626    2.0274   -3.5955 H   0  0  0  0  0  0  0  0  0  0  0  0
  1  7  1  0  0  0  0
  2  1  2  0  0  0  0
  3  2  1  0  0  0  0
  4  3  2  0  0  0  0
  4  5  1  0  0  0  0
  5 10  1  0  0  0  0
  5  6  2  0  0  0  0
  6  1  1  0  0  0  0
  6 11  1  0  0  0  0
  8  2  1  0  0  0  0
  9  4  1  0  0  0  0
 11 13  2  0  0  0  0
 12 11  2  0  0  0  0
 15 14  3  0  0  0  0
 16 17  1  0  0  0  0
 16 22  1  0  0  0  0
 17 23  1  0  0  0  0
 18 30  1  0  0  0  0
 18 17  2  0  0  0  0
 19 18  1  0  0  0  0
 20 19  2  0  0  0  0
 20 21  1  0  0  0  0
 21 16  2  0  0  0  0
 24 19  1  0  0  0  0
 25 20  1  0  0  0  0
 26 21  1  0  0  0  0
 26 28  2  0  0  0  0
 27 26  1  0  0  0  0
 27  3  1  0  0  0  0
 29 26  2  0  0  0  0
 30 33  1  0  0  0  0
 30 32  1  0  0  0  0
 31 30  1  0  0  0  0
M  END
