Coordinates from ORCA-job 4-NO2-Ph-N2-OTs-B3LYPG-6-31G_dp-MTMO-d009-169-n800
 OpenBabel09051908313D

 33 33  0  0  0  0  0  0  0  0999 V2000
    0.0270    1.1846   -0.0905 C   0  0  0  0  0  0  0  0  0  0  0  0
    0.2246    0.2106   -1.0637 C   0  0  0  0  0  0  0  0  0  0  0  0
    0.5951    0.6022   -2.3542 C   0  0  0  0  0  0  0  0  0  0  0  0
    0.7636    1.9497   -2.6869 C   0  0  0  0  0  0  0  0  0  0  0  0
    0.5591    2.9254   -1.7172 C   0  0  0  0  0  0  0  0  0  0  0  0
    0.1967    2.5263   -0.4315 C   0  0  0  0  0  0  0  0  0  0  0  0
   -0.2615    0.9249    0.9199 H   0  0  0  0  0  0  0  0  0  0  0  0
    0.1002   -0.8409   -0.8374 H   0  0  0  0  0  0  0  0  0  0  0  0
    1.0439    2.2140   -3.7001 H   0  0  0  0  0  0  0  0  0  0  0  0
    0.6761    3.9795   -1.9353 H   0  0  0  0  0  0  0  0  0  0  0  0
   -0.0156    3.5554    0.5975 N   0  0  0  0  0  0  0  0  0  0  0  0
    0.1453    4.7309    0.2698 O   0  0  0  0  0  0  0  0  0  0  0  0
   -0.3393    3.1792    1.7232 O   0  0  0  0  0  0  0  0  0  0  0  0
   13.5559    1.3920   -8.5721 N   0  0  0  0  0  0  0  0  0  0  0  0
   14.5070    1.1911   -9.0982 N   0  0  0  0  0  0  0  0  0  0  0  0
    4.2390    0.1826   -2.9783 C   0  0  0  0  0  0  0  0  0  0  0  0
    5.2743    1.0000   -3.4299 C   0  0  0  0  0  0  0  0  0  0  0  0
    5.4529    1.2585   -4.7959 C   0  0  0  0  0  0  0  0  0  0  0  0
    4.5628    0.6737   -5.7119 C   0  0  0  0  0  0  0  0  0  0  0  0
    3.5232   -0.1459   -5.2843 C   0  0  0  0  0  0  0  0  0  0  0  0
    3.3713   -0.3815   -3.9145 C   0  0  0  0  0  0  0  0  0  0  0  0
    4.1111   -0.0280   -1.9225 H   0  0  0  0  0  0  0  0  0  0  0  0
    5.9556    1.4411   -2.7079 H   0  0  0  0  0  0  0  0  0  0  0  0
    4.6893    0.8614   -6.7748 H   0  0  0  0  0  0  0  0  0  0  0  0
    2.8451   -0.6075   -5.9938 H   0  0  0  0  0  0  0  0  0  0  0  0
    2.0291   -1.4095   -3.3580 S   0  0  0  0  0  0  0  0  0  0  0  0
    0.7300   -0.3338   -3.3699 O   0  0  0  0  0  0  0  0  0  0  0  0
    2.2748   -1.8139   -1.9778 O   0  0  0  0  0  0  0  0  0  0  0  0
    1.6639   -2.3554   -4.3984 O   0  0  0  0  0  0  0  0  0  0  0  0
    6.5922    2.1218   -5.2792 C   0  0  0  0  0  0  0  0  0  0  0  0
    7.4228    1.5032   -5.6405 H   0  0  0  0  0  0  0  0  0  0  0  0
    6.2831    2.7641   -6.1098 H   0  0  0  0  0  0  0  0  0  0  0  0
    6.9798    2.7588   -4.4801 H   0  0  0  0  0  0  0  0  0  0  0  0
  1  7  1  0  0  0  0
  2  8  1  0  0  0  0
  2  1  2  0  0  0  0
  3  2  1  0  0  0  0
  4  3  2  0  0  0  0
  4  5  1  0  0  0  0
  5  6  2  0  0  0  0
  6  1  1  0  0  0  0
  6 11  1  0  0  0  0
  9  4  1  0  0  0  0
 10  5  1  0  0  0  0
 11 13  2  0  0  0  0
 12 11  2  0  0  0  0
 15 14  3  0  0  0  0
 16 22  1  0  0  0  0
 17 16  1  0  0  0  0
 17 23  1  0  0  0  0
 18 17  2  0  0  0  0
 19 20  2  0  0  0  0
 19 18  1  0  0  0  0
 20 21  1  0  0  0  0
 21 26  1  0  0  0  0
 21 16  2  0  0  0  0
 24 19  1  0  0  0  0
 25 20  1  0  0  0  0
 26 28  2  0  0  0  0
 27 26  1  0  0  0  0
 27  3  1  0  0  0  0
 29 26  2  0  0  0  0
 30 18  1  0  0  0  0
 30 33  1  0  0  0  0
 31 30  1  0  0  0  0
 32 30  1  0  0  0  0
M  END
