Coordinates from ORCA-job 4-NO2-Ph-N2-OTs-B3LYPG-6-31G_dp-MTMO-d009-169-n800
 OpenBabel09051908313D

 33 33  0  0  0  0  0  0  0  0999 V2000
   -1.7180    0.5260   -2.0989 C   0  0  0  0  0  0  0  0  0  0  0  0
   -1.1168    0.2522   -3.3106 C   0  0  0  0  0  0  0  0  0  0  0  0
    0.0231    1.0049   -3.7253 C   0  0  0  0  0  0  0  0  0  0  0  0
    0.5382    2.0471   -2.8969 C   0  0  0  0  0  0  0  0  0  0  0  0
   -0.0984    2.3221   -1.6949 C   0  0  0  0  0  0  0  0  0  0  0  0
   -1.1990    1.5602   -1.3152 C   0  0  0  0  0  0  0  0  0  0  0  0
   -2.5775   -0.0311   -1.7497 H   0  0  0  0  0  0  0  0  0  0  0  0
   -1.4871   -0.5393   -3.9537 H   0  0  0  0  0  0  0  0  0  0  0  0
    1.4138    2.6058   -3.2229 H   0  0  0  0  0  0  0  0  0  0  0  0
    0.2612    3.1086   -1.0431 H   0  0  0  0  0  0  0  0  0  0  0  0
   -1.8585    1.8568   -0.0223 N   0  0  0  0  0  0  0  0  0  0  0  0
   -1.3992    2.7786    0.6433 O   0  0  0  0  0  0  0  0  0  0  0  0
   -2.8204    1.1583    0.2873 O   0  0  0  0  0  0  0  0  0  0  0  0
    0.5362    0.7500   -4.7802 N   0  0  0  0  0  0  0  0  0  0  0  0
    1.0658    0.5439   -5.7612 N   0  0  0  0  0  0  0  0  0  0  0  0
    6.2662    2.2081   -4.4114 C   0  0  0  0  0  0  0  0  0  0  0  0
    7.6362    1.9752   -4.3099 C   0  0  0  0  0  0  0  0  0  0  0  0
    8.1317    0.7280   -3.9030 C   0  0  0  0  0  0  0  0  0  0  0  0
    7.2133   -0.2832   -3.5861 C   0  0  0  0  0  0  0  0  0  0  0  0
    5.8403   -0.0661   -3.6835 C   0  0  0  0  0  0  0  0  0  0  0  0
    5.3734    1.1819   -4.0984 C   0  0  0  0  0  0  0  0  0  0  0  0
    5.8831    3.1777   -4.7100 H   0  0  0  0  0  0  0  0  0  0  0  0
    8.3331    2.7758   -4.5453 H   0  0  0  0  0  0  0  0  0  0  0  0
    7.5792   -1.2510   -3.2523 H   0  0  0  0  0  0  0  0  0  0  0  0
    5.1302   -0.8425   -3.4210 H   0  0  0  0  0  0  0  0  0  0  0  0
    3.6134    1.4579   -4.2689 S   0  0  0  0  0  0  0  0  0  0  0  0
    3.2642    1.0470   -5.6855 O   0  0  0  0  0  0  0  0  0  0  0  0
    3.3736    2.9055   -4.0253 O   0  0  0  0  0  0  0  0  0  0  0  0
    2.9250    0.5686   -3.2854 O   0  0  0  0  0  0  0  0  0  0  0  0
    9.6186    0.4737   -3.8281 C   0  0  0  0  0  0  0  0  0  0  0  0
   10.0054    0.1137   -4.7899 H   0  0  0  0  0  0  0  0  0  0  0  0
   10.1696    1.3855   -3.5791 H   0  0  0  0  0  0  0  0  0  0  0  0
    9.8582   -0.2852   -3.0770 H   0  0  0  0  0  0  0  0  0  0  0  0
  1  7  1  0  0  0  0
  1  6  2  0  0  0  0
  2  1  1  0  0  0  0
  3  2  2  0  0  0  0
  3  4  1  0  0  0  0
  4  5  2  0  0  0  0
  5  6  1  0  0  0  0
  5 10  1  0  0  0  0
  6 11  1  0  0  0  0
  8  2  1  0  0  0  0
  9  4  1  0  0  0  0
 11 13  2  0  0  0  0
 11 12  2  0  0  0  0
 14  3  1  0  0  0  0
 15 14  1  0  0  0  0
 16 17  2  0  0  0  0
 16 21  1  0  0  0  0
 17 18  1  0  0  0  0
 18 30  1  0  0  0  0
 18 19  2  0  0  0  0
 19 24  1  0  0  0  0
 20 19  1  0  0  0  0
 20 25  1  0  0  0  0
 21 20  2  0  0  0  0
 22 16  1  0  0  0  0
 23 17  1  0  0  0  0
 26 21  1  0  0  0  0
 26 28  2  0  0  0  0
 26 29  1  0  0  0  0
 27 26  2  0  0  0  0
 30 32  1  0  0  0  0
 30 33  1  0  0  0  0
 31 30  1  0  0  0  0
M  RAD  3  14   2  15   3  29   2
M  END
