Coordinates from ORCA-job 4-NO2-Ph-N2-OTs-B3LYPG-6-31G_dp-MTMO-d009-169-n800
 OpenBabel09051908313D

 33 33  0  0  0  0  0  0  0  0999 V2000
    0.1273    1.1706   -0.1505 C   0  0  0  0  0  0  0  0  0  0  0  0
    0.3372    0.2002   -1.1247 C   0  0  0  0  0  0  0  0  0  0  0  0
    0.7073    0.5975   -2.4136 C   0  0  0  0  0  0  0  0  0  0  0  0
    0.8633    1.9471   -2.7436 C   0  0  0  0  0  0  0  0  0  0  0  0
    0.6464    2.9193   -1.7730 C   0  0  0  0  0  0  0  0  0  0  0  0
    0.2845    2.5145   -0.4889 C   0  0  0  0  0  0  0  0  0  0  0  0
   -0.1613    0.9065    0.8587 H   0  0  0  0  0  0  0  0  0  0  0  0
    0.2225   -0.8528   -0.9003 H   0  0  0  0  0  0  0  0  0  0  0  0
    1.1436    2.2159   -3.7556 H   0  0  0  0  0  0  0  0  0  0  0  0
    0.7534    3.9748   -1.9892 H   0  0  0  0  0  0  0  0  0  0  0  0
    0.0593    3.5399    0.5411 N   0  0  0  0  0  0  0  0  0  0  0  0
    0.2091    4.7174    0.2157 O   0  0  0  0  0  0  0  0  0  0  0  0
   -0.2635    3.1586    1.6654 O   0  0  0  0  0  0  0  0  0  0  0  0
   11.8278    1.2759   -7.7524 N   0  0  0  0  0  0  0  0  0  0  0  0
   12.7992    1.0707   -8.2379 N   0  0  0  0  0  0  0  0  0  0  0  0
    4.3590    0.2041   -3.0298 C   0  0  0  0  0  0  0  0  0  0  0  0
    5.3913    1.0268   -3.4788 C   0  0  0  0  0  0  0  0  0  0  0  0
    5.5731    1.2851   -4.8443 C   0  0  0  0  0  0  0  0  0  0  0  0
    4.6890    0.6949   -5.7627 C   0  0  0  0  0  0  0  0  0  0  0  0
    3.6525   -0.1301   -5.3378 C   0  0  0  0  0  0  0  0  0  0  0  0
    3.4975   -0.3655   -3.9683 C   0  0  0  0  0  0  0  0  0  0  0  0
    4.2290   -0.0066   -1.9742 H   0  0  0  0  0  0  0  0  0  0  0  0
    6.0680    1.4720   -2.7549 H   0  0  0  0  0  0  0  0  0  0  0  0
    4.8180    0.8824   -6.8254 H   0  0  0  0  0  0  0  0  0  0  0  0
    2.9794   -0.5960   -6.0492 H   0  0  0  0  0  0  0  0  0  0  0  0
    2.1604   -1.4020   -3.4155 S   0  0  0  0  0  0  0  0  0  0  0  0
    0.8541   -0.3352   -3.4307 O   0  0  0  0  0  0  0  0  0  0  0  0
    2.4052   -1.8052   -2.0347 O   0  0  0  0  0  0  0  0  0  0  0  0
    1.8043   -2.3502   -4.4570 O   0  0  0  0  0  0  0  0  0  0  0  0
    6.7088    2.1544   -5.3250 C   0  0  0  0  0  0  0  0  0  0  0  0
    7.5381    1.5408   -5.6978 H   0  0  0  0  0  0  0  0  0  0  0  0
    6.3943    2.8047   -6.1474 H   0  0  0  0  0  0  0  0  0  0  0  0
    7.1002    2.7839   -4.5218 H   0  0  0  0  0  0  0  0  0  0  0  0
  1  7  1  0  0  0  0
  2  8  1  0  0  0  0
  2  1  2  0  0  0  0
  3  2  1  0  0  0  0
  4  3  2  0  0  0  0
  4  5  1  0  0  0  0
  5  6  2  0  0  0  0
  6  1  1  0  0  0  0
  6 11  1  0  0  0  0
  9  4  1  0  0  0  0
 10  5  1  0  0  0  0
 11 13  2  0  0  0  0
 12 11  2  0  0  0  0
 15 14  3  0  0  0  0
 16 22  1  0  0  0  0
 17 16  1  0  0  0  0
 17 23  1  0  0  0  0
 18 17  2  0  0  0  0
 19 20  2  0  0  0  0
 19 18  1  0  0  0  0
 20 21  1  0  0  0  0
 21 26  1  0  0  0  0
 21 16  2  0  0  0  0
 24 19  1  0  0  0  0
 25 20  1  0  0  0  0
 26 28  2  0  0  0  0
 27 26  1  0  0  0  0
 27  3  1  0  0  0  0
 29 26  2  0  0  0  0
 30 18  1  0  0  0  0
 30 33  1  0  0  0  0
 31 30  1  0  0  0  0
 32 30  1  0  0  0  0
M  END
