Coordinates from ORCA-job 4-NO2-Ph-N2-OTs-B3LYPG-6-31G_dp-MTMO-d009-169-n800
 OpenBabel09051908313D

 33 33  0  0  0  0  0  0  0  0999 V2000
    0.0015    1.2139   -0.4531 C   0  0  0  0  0  0  0  0  0  0  0  0
    0.3384    0.2392   -1.3866 C   0  0  0  0  0  0  0  0  0  0  0  0
    0.8629    0.6317   -2.6226 C   0  0  0  0  0  0  0  0  0  0  0  0
    1.0459    1.9808   -2.9407 C   0  0  0  0  0  0  0  0  0  0  0  0
    0.7010    2.9571   -2.0120 C   0  0  0  0  0  0  0  0  0  0  0  0
    0.1873    2.5571   -0.7791 C   0  0  0  0  0  0  0  0  0  0  0  0
   -0.4066    0.9528    0.5148 H   0  0  0  0  0  0  0  0  0  0  0  0
    0.2055   -0.8131   -1.1695 H   0  0  0  0  0  0  0  0  0  0  0  0
    1.4461    2.2458   -3.9125 H   0  0  0  0  0  0  0  0  0  0  0  0
    0.8242    4.0122   -2.2216 H   0  0  0  0  0  0  0  0  0  0  0  0
   -0.1724    3.5865    0.2074 N   0  0  0  0  0  0  0  0  0  0  0  0
    0.0046    4.7635   -0.1062 O   0  0  0  0  0  0  0  0  0  0  0  0
   -0.6268    3.2091    1.2868 O   0  0  0  0  0  0  0  0  0  0  0  0
    8.6020    1.2851   -8.4854 N   0  0  0  0  0  0  0  0  0  0  0  0
    9.3308    1.2258   -9.3140 N   0  0  0  0  0  0  0  0  0  0  0  0
    4.5531    0.2194   -2.7596 C   0  0  0  0  0  0  0  0  0  0  0  0
    5.6559    1.0086   -3.0773 C   0  0  0  0  0  0  0  0  0  0  0  0
    6.0499    1.2052   -4.4097 C   0  0  0  0  0  0  0  0  0  0  0  0
    5.3126    0.5798   -5.4266 C   0  0  0  0  0  0  0  0  0  0  0  0
    4.2057   -0.2127   -5.1326 C   0  0  0  0  0  0  0  0  0  0  0  0
    3.8358   -0.3826   -3.7963 C   0  0  0  0  0  0  0  0  0  0  0  0
    4.2615    0.0528   -1.7287 H   0  0  0  0  0  0  0  0  0  0  0  0
    6.2246    1.4729   -2.2765 H   0  0  0  0  0  0  0  0  0  0  0  0
    5.6164    0.7083   -6.4616 H   0  0  0  0  0  0  0  0  0  0  0  0
    3.6465   -0.7084   -5.9184 H   0  0  0  0  0  0  0  0  0  0  0  0
    2.4196   -1.3895   -3.4120 S   0  0  0  0  0  0  0  0  0  0  0  0
    1.1439   -0.3029   -3.6090 O   0  0  0  0  0  0  0  0  0  0  0  0
    2.4748   -1.7788   -2.0067 O   0  0  0  0  0  0  0  0  0  0  0  0
    2.1864   -2.3462   -4.4802 O   0  0  0  0  0  0  0  0  0  0  0  0
    7.2323    2.0821   -4.7407 C   0  0  0  0  0  0  0  0  0  0  0  0
    7.6293    1.8609   -5.7346 H   0  0  0  0  0  0  0  0  0  0  0  0
    6.9461    3.1413   -4.7281 H   0  0  0  0  0  0  0  0  0  0  0  0
    8.0390    1.9568   -4.0117 H   0  0  0  0  0  0  0  0  0  0  0  0
  1  7  1  0  0  0  0
  2  8  1  0  0  0  0
  2  1  2  0  0  0  0
  3  2  1  0  0  0  0
  4  3  2  0  0  0  0
  4  5  1  0  0  0  0
  5  6  2  0  0  0  0
  6  1  1  0  0  0  0
  6 11  1  0  0  0  0
  9  4  1  0  0  0  0
 10  5  1  0  0  0  0
 11 13  2  0  0  0  0
 12 11  2  0  0  0  0
 15 14  3  0  0  0  0
 16 22  1  0  0  0  0
 17 16  1  0  0  0  0
 17 23  1  0  0  0  0
 18 17  2  0  0  0  0
 19 20  2  0  0  0  0
 19 18  1  0  0  0  0
 20 21  1  0  0  0  0
 21 26  1  0  0  0  0
 21 16  2  0  0  0  0
 24 19  1  0  0  0  0
 25 20  1  0  0  0  0
 26 28  2  0  0  0  0
 27 26  1  0  0  0  0
 27  3  1  0  0  0  0
 29 26  2  0  0  0  0
 30 32  1  0  0  0  0
 30 18  1  0  0  0  0
 30 33  1  0  0  0  0
 31 30  1  0  0  0  0
M  END
