Coordinates from ORCA-job 4-NO2-Ph-N2-OTs-B3LYPG-6-31G_dp-MTMO-d009-169-n800
 OpenBabel09051908313D

 33 33  0  0  0  0  0  0  0  0999 V2000
   -0.0770    0.9177   -1.1320 C   0  0  0  0  0  0  0  0  0  0  0  0
    0.4361    0.1766   -2.1916 C   0  0  0  0  0  0  0  0  0  0  0  0
    1.1979    0.8241   -3.1697 C   0  0  0  0  0  0  0  0  0  0  0  0
    1.4459    2.1987   -3.1092 C   0  0  0  0  0  0  0  0  0  0  0  0
    0.9279    2.9426   -2.0543 C   0  0  0  0  0  0  0  0  0  0  0  0
    0.1770    2.2882   -1.0788 C   0  0  0  0  0  0  0  0  0  0  0  0
   -0.6714    0.4560   -0.3536 H   0  0  0  0  0  0  0  0  0  0  0  0
    0.2587   -0.8887   -2.2680 H   0  0  0  0  0  0  0  0  0  0  0  0
    2.0326    2.6660   -3.8921 H   0  0  0  0  0  0  0  0  0  0  0  0
    1.0963    4.0089   -1.9715 H   0  0  0  0  0  0  0  0  0  0  0  0
   -0.3657    3.0704    0.0420 N   0  0  0  0  0  0  0  0  0  0  0  0
   -0.1195    4.2762    0.0672 O   0  0  0  0  0  0  0  0  0  0  0  0
   -1.0301    2.4719    0.8869 O   0  0  0  0  0  0  0  0  0  0  0  0
    4.0591   -1.3057   -8.4194 N   0  0  0  0  0  0  0  0  0  0  0  0
    3.4797   -2.1403   -8.8535 N   0  0  0  0  0  0  0  0  0  0  0  0
    4.8137    0.3945   -2.6944 C   0  0  0  0  0  0  0  0  0  0  0  0
    5.9278    1.2255   -2.5993 C   0  0  0  0  0  0  0  0  0  0  0  0
    6.5808    1.6989   -3.7466 C   0  0  0  0  0  0  0  0  0  0  0  0
    6.0886    1.3171   -5.0044 C   0  0  0  0  0  0  0  0  0  0  0  0
    4.9761    0.4890   -5.1249 C   0  0  0  0  0  0  0  0  0  0  0  0
    4.3473    0.0372   -3.9616 C   0  0  0  0  0  0  0  0  0  0  0  0
    4.3201    0.0165   -1.8064 H   0  0  0  0  0  0  0  0  0  0  0  0
    6.2971    1.5083   -1.6176 H   0  0  0  0  0  0  0  0  0  0  0  0
    6.5864    1.6708   -5.9028 H   0  0  0  0  0  0  0  0  0  0  0  0
    4.6102    0.1848   -6.0993 H   0  0  0  0  0  0  0  0  0  0  0  0
    2.9073   -0.9987   -4.1014 S   0  0  0  0  0  0  0  0  0  0  0  0
    1.6682    0.1331   -4.2781 O   0  0  0  0  0  0  0  0  0  0  0  0
    2.6998   -1.7070   -2.8426 O   0  0  0  0  0  0  0  0  0  0  0  0
    2.9043   -1.6751   -5.3877 O   0  0  0  0  0  0  0  0  0  0  0  0
    7.8055    2.5725   -3.6323 C   0  0  0  0  0  0  0  0  0  0  0  0
    7.9001    3.2438   -4.4906 H   0  0  0  0  0  0  0  0  0  0  0  0
    7.7817    3.1791   -2.7227 H   0  0  0  0  0  0  0  0  0  0  0  0
    8.7158    1.9619   -3.5940 H   0  0  0  0  0  0  0  0  0  0  0  0
  1  6  1  0  0  0  0
  1  7  1  0  0  0  0
  2  1  2  0  0  0  0
  3  4  2  0  0  0  0
  3  2  1  0  0  0  0
  4  5  1  0  0  0  0
  5 10  1  0  0  0  0
  5  6  2  0  0  0  0
  6 11  1  0  0  0  0
  8  2  1  0  0  0  0
  9  4  1  0  0  0  0
 11 12  2  0  0  0  0
 11 13  2  0  0  0  0
 15 14  3  0  0  0  0
 16 17  1  0  0  0  0
 16 22  1  0  0  0  0
 17 23  1  0  0  0  0
 18 30  1  0  0  0  0
 18 17  2  0  0  0  0
 19 18  1  0  0  0  0
 20 19  2  0  0  0  0
 20 21  1  0  0  0  0
 21 16  2  0  0  0  0
 24 19  1  0  0  0  0
 25 20  1  0  0  0  0
 26 21  1  0  0  0  0
 26 28  2  0  0  0  0
 27 26  1  0  0  0  0
 27  3  1  0  0  0  0
 29 26  2  0  0  0  0
 30 33  1  0  0  0  0
 30 32  1  0  0  0  0
 31 30  1  0  0  0  0
M  END
