Coordinates from ORCA-job 4-NO2-Ph-N2-OTs-B3LYPG-6-31G_dp-MTMO-d009-169-n800
 OpenBabel09051908313D

 33 33  0  0  0  0  0  0  0  0999 V2000
    0.2084    1.1293   -0.1866 C   0  0  0  0  0  0  0  0  0  0  0  0
    0.4488    0.1724   -1.1671 C   0  0  0  0  0  0  0  0  0  0  0  0
    0.8058    0.5899   -2.4534 C   0  0  0  0  0  0  0  0  0  0  0  0
    0.9181    1.9461   -2.7744 C   0  0  0  0  0  0  0  0  0  0  0  0
    0.6700    2.9043   -1.7975 C   0  0  0  0  0  0  0  0  0  0  0  0
    0.3220    2.4797   -0.5159 C   0  0  0  0  0  0  0  0  0  0  0  0
   -0.0713    0.8493    0.8210 H   0  0  0  0  0  0  0  0  0  0  0  0
    0.3681   -0.8851   -0.9494 H   0  0  0  0  0  0  0  0  0  0  0  0
    1.1887    2.2307   -3.7847 H   0  0  0  0  0  0  0  0  0  0  0  0
    0.7424    3.9642   -2.0070 H   0  0  0  0  0  0  0  0  0  0  0  0
    0.0641    3.4904    0.5208 N   0  0  0  0  0  0  0  0  0  0  0  0
    0.1741    4.6744    0.2028 O   0  0  0  0  0  0  0  0  0  0  0  0
   -0.2444    3.0914    1.6430 O   0  0  0  0  0  0  0  0  0  0  0  0
   10.4075    0.9278   -7.0536 N   0  0  0  0  0  0  0  0  0  0  0  0
   11.3991    0.7129   -7.4916 N   0  0  0  0  0  0  0  0  0  0  0  0
    4.4814    0.2707   -3.0873 C   0  0  0  0  0  0  0  0  0  0  0  0
    5.5029    1.1043   -3.5409 C   0  0  0  0  0  0  0  0  0  0  0  0
    5.6809    1.3588   -4.9078 C   0  0  0  0  0  0  0  0  0  0  0  0
    4.8032    0.7535   -5.8225 C   0  0  0  0  0  0  0  0  0  0  0  0
    3.7775   -0.0826   -5.3931 C   0  0  0  0  0  0  0  0  0  0  0  0
    3.6265   -0.3141   -4.0224 C   0  0  0  0  0  0  0  0  0  0  0  0
    4.3553    0.0627   -2.0307 H   0  0  0  0  0  0  0  0  0  0  0  0
    6.1745    1.5613   -2.8195 H   0  0  0  0  0  0  0  0  0  0  0  0
    4.9289    0.9378   -6.8862 H   0  0  0  0  0  0  0  0  0  0  0  0
    3.1102   -0.5606   -6.1019 H   0  0  0  0  0  0  0  0  0  0  0  0
    2.3082   -1.3717   -3.4645 S   0  0  0  0  0  0  0  0  0  0  0  0
    0.9820   -0.3293   -3.4780 O   0  0  0  0  0  0  0  0  0  0  0  0
    2.5635   -1.7687   -2.0838 O   0  0  0  0  0  0  0  0  0  0  0  0
    1.9667   -2.3277   -4.5038 O   0  0  0  0  0  0  0  0  0  0  0  0
    6.8049    2.2407   -5.3932 C   0  0  0  0  0  0  0  0  0  0  0  0
    7.6417    1.6390   -5.7682 H   0  0  0  0  0  0  0  0  0  0  0  0
    6.4789    2.8862   -6.2150 H   0  0  0  0  0  0  0  0  0  0  0  0
    7.1896    2.8767   -4.5919 H   0  0  0  0  0  0  0  0  0  0  0  0
  1  7  1  0  0  0  0
  2  8  1  0  0  0  0
  2  1  2  0  0  0  0
  3  2  1  0  0  0  0
  4  3  2  0  0  0  0
  4  5  1  0  0  0  0
  5  6  2  0  0  0  0
  6  1  1  0  0  0  0
  6 11  1  0  0  0  0
  9  4  1  0  0  0  0
 10  5  1  0  0  0  0
 11 13  2  0  0  0  0
 12 11  2  0  0  0  0
 15 14  3  0  0  0  0
 16 22  1  0  0  0  0
 17 16  1  0  0  0  0
 17 23  1  0  0  0  0
 18 17  2  0  0  0  0
 19 20  2  0  0  0  0
 19 18  1  0  0  0  0
 20 21  1  0  0  0  0
 21 26  1  0  0  0  0
 21 16  2  0  0  0  0
 24 19  1  0  0  0  0
 25 20  1  0  0  0  0
 26 28  2  0  0  0  0
 27 26  1  0  0  0  0
 27  3  1  0  0  0  0
 29 26  2  0  0  0  0
 30 18  1  0  0  0  0
 30 33  1  0  0  0  0
 31 30  1  0  0  0  0
 32 30  1  0  0  0  0
M  END
