Coordinates from ORCA-job 4-NO2-Ph-N2-OTs-B3LYPG-6-31G_dp-MTMO-d009-169-n800
 OpenBabel09051908313D

 33 33  0  0  0  0  0  0  0  0999 V2000
   -0.0956    1.5443   -0.1562 C   0  0  0  0  0  0  0  0  0  0  0  0
   -0.0325    0.5433   -1.1201 C   0  0  0  0  0  0  0  0  0  0  0  0
    0.4381    0.8581   -2.3992 C   0  0  0  0  0  0  0  0  0  0  0  0
    0.8357    2.1570   -2.7300 C   0  0  0  0  0  0  0  0  0  0  0  0
    0.7646    3.1610   -1.7703 C   0  0  0  0  0  0  0  0  0  0  0  0
    0.3034    2.8370   -0.4952 C   0  0  0  0  0  0  0  0  0  0  0  0
   -0.4535    1.3437    0.8454 H   0  0  0  0  0  0  0  0  0  0  0  0
   -0.3368   -0.4707   -0.8948 H   0  0  0  0  0  0  0  0  0  0  0  0
    1.1859    2.3641   -3.7348 H   0  0  0  0  0  0  0  0  0  0  0  0
    1.0602    4.1794   -1.9879 H   0  0  0  0  0  0  0  0  0  0  0  0
    0.2331    3.8946    0.5240 N   0  0  0  0  0  0  0  0  0  0  0  0
    0.5860    5.0272    0.1957 O   0  0  0  0  0  0  0  0  0  0  0  0
   -0.1721    3.5831    1.6430 O   0  0  0  0  0  0  0  0  0  0  0  0
   14.7001    3.4587   -9.4458 N   0  0  0  0  0  0  0  0  0  0  0  0
   15.5425    3.5101  -10.1595 N   0  0  0  0  0  0  0  0  0  0  0  0
    3.9595   -0.2220   -2.8354 C   0  0  0  0  0  0  0  0  0  0  0  0
    5.1535    0.3803   -3.2288 C   0  0  0  0  0  0  0  0  0  0  0  0
    5.4599    0.5688   -4.5836 C   0  0  0  0  0  0  0  0  0  0  0  0
    4.5346    0.1367   -5.5478 C   0  0  0  0  0  0  0  0  0  0  0  0
    3.3365   -0.4670   -5.1786 C   0  0  0  0  0  0  0  0  0  0  0  0
    3.0609   -0.6387   -3.8190 C   0  0  0  0  0  0  0  0  0  0  0  0
    3.7304   -0.3804   -1.7875 H   0  0  0  0  0  0  0  0  0  0  0  0
    5.8592    0.7067   -2.4701 H   0  0  0  0  0  0  0  0  0  0  0  0
    4.7586    0.2727   -6.6026 H   0  0  0  0  0  0  0  0  0  0  0  0
    2.6291   -0.8123   -5.9244 H   0  0  0  0  0  0  0  0  0  0  0  0
    1.5226   -1.3929   -3.3374 S   0  0  0  0  0  0  0  0  0  0  0  0
    0.4502   -0.0933   -3.4092 O   0  0  0  0  0  0  0  0  0  0  0  0
    1.6178   -1.8313   -1.9489 O   0  0  0  0  0  0  0  0  0  0  0  0
    1.0398   -2.2577   -4.4002 O   0  0  0  0  0  0  0  0  0  0  0  0
    6.7671    1.1957   -5.0019 C   0  0  0  0  0  0  0  0  0  0  0  0
    7.5046    0.4245   -5.2556 H   0  0  0  0  0  0  0  0  0  0  0  0
    6.6415    1.8276   -5.8862 H   0  0  0  0  0  0  0  0  0  0  0  0
    7.1934    1.8063   -4.2013 H   0  0  0  0  0  0  0  0  0  0  0  0
  1  7  1  0  0  0  0
  2  8  1  0  0  0  0
  2  1  2  0  0  0  0
  3  2  1  0  0  0  0
  4  3  2  0  0  0  0
  4  5  1  0  0  0  0
  5  6  2  0  0  0  0
  6  1  1  0  0  0  0
  6 11  1  0  0  0  0
  9  4  1  0  0  0  0
 10  5  1  0  0  0  0
 11 13  2  0  0  0  0
 12 11  2  0  0  0  0
 15 14  3  0  0  0  0
 16 22  1  0  0  0  0
 17 16  1  0  0  0  0
 17 23  1  0  0  0  0
 18 17  2  0  0  0  0
 19 20  2  0  0  0  0
 19 18  1  0  0  0  0
 20 21  1  0  0  0  0
 21 26  1  0  0  0  0
 21 16  2  0  0  0  0
 24 19  1  0  0  0  0
 25 20  1  0  0  0  0
 26 28  2  0  0  0  0
 27 26  1  0  0  0  0
 27  3  1  0  0  0  0
 29 26  2  0  0  0  0
 30 18  1  0  0  0  0
 30 33  1  0  0  0  0
 31 30  1  0  0  0  0
 32 30  1  0  0  0  0
M  END
