Coordinates from ORCA-job 4-NO2-Ph-N2-OTs-B3LYPG-6-31G_dp-MTMO-d009-169-n800
 OpenBabel09051908313D

 33 33  0  0  0  0  0  0  0  0999 V2000
   -0.0407    0.8721   -1.2942 C   0  0  0  0  0  0  0  0  0  0  0  0
    0.5481    0.0513   -2.2505 C   0  0  0  0  0  0  0  0  0  0  0  0
    1.3269    0.6295   -3.2580 C   0  0  0  0  0  0  0  0  0  0  0  0
    1.5187    2.0125   -3.3282 C   0  0  0  0  0  0  0  0  0  0  0  0
    0.9253    2.8355   -2.3769 C   0  0  0  0  0  0  0  0  0  0  0  0
    0.1570    2.2507   -1.3712 C   0  0  0  0  0  0  0  0  0  0  0  0
   -0.6510    0.4658   -0.4975 H   0  0  0  0  0  0  0  0  0  0  0  0
    0.4168   -1.0232   -2.2244 H   0  0  0  0  0  0  0  0  0  0  0  0
    2.1219    2.4241   -4.1296 H   0  0  0  0  0  0  0  0  0  0  0  0
    1.0485    3.9111   -2.3967 H   0  0  0  0  0  0  0  0  0  0  0  0
   -0.4657    3.1173   -0.3592 N   0  0  0  0  0  0  0  0  0  0  0  0
   -0.2709    4.3293   -0.4490 O   0  0  0  0  0  0  0  0  0  0  0  0
   -1.1411    2.5781    0.5163 O   0  0  0  0  0  0  0  0  0  0  0  0
    2.8150   -0.3762   -7.9083 N   0  0  0  0  0  0  0  0  0  0  0  0
    1.9463   -0.9533   -8.2732 N   0  0  0  0  0  0  0  0  0  0  0  0
    5.0030    0.3080   -2.5601 C   0  0  0  0  0  0  0  0  0  0  0  0
    6.0761    1.1943   -2.4898 C   0  0  0  0  0  0  0  0  0  0  0  0
    6.6804    1.6965   -3.6509 C   0  0  0  0  0  0  0  0  0  0  0  0
    6.1803    1.2892   -4.8981 C   0  0  0  0  0  0  0  0  0  0  0  0
    5.1108    0.4041   -4.9936 C   0  0  0  0  0  0  0  0  0  0  0  0
    4.5315   -0.0776   -3.8161 C   0  0  0  0  0  0  0  0  0  0  0  0
    4.5435   -0.0895   -1.6624 H   0  0  0  0  0  0  0  0  0  0  0  0
    6.4507    1.4986   -1.5166 H   0  0  0  0  0  0  0  0  0  0  0  0
    6.6381    1.6689   -5.8072 H   0  0  0  0  0  0  0  0  0  0  0  0
    4.7324    0.0863   -5.9590 H   0  0  0  0  0  0  0  0  0  0  0  0
    3.1512   -1.1957   -3.9255 S   0  0  0  0  0  0  0  0  0  0  0  0
    1.8727   -0.1501   -4.2684 O   0  0  0  0  0  0  0  0  0  0  0  0
    2.9141   -1.7960   -2.6169 O   0  0  0  0  0  0  0  0  0  0  0  0
    3.2423   -1.9855   -5.1420 O   0  0  0  0  0  0  0  0  0  0  0  0
    7.8618    2.6306   -3.5652 C   0  0  0  0  0  0  0  0  0  0  0  0
    7.8791    3.3323   -4.4044 H   0  0  0  0  0  0  0  0  0  0  0  0
    7.8514    3.2068   -2.6360 H   0  0  0  0  0  0  0  0  0  0  0  0
    8.8036    2.0689   -3.5915 H   0  0  0  0  0  0  0  0  0  0  0  0
  1  7  1  0  0  0  0
  2  8  1  0  0  0  0
  2  1  2  0  0  0  0
  3  2  1  0  0  0  0
  4  3  2  0  0  0  0
  4  5  1  0  0  0  0
  5  6  2  0  0  0  0
  6  1  1  0  0  0  0
  6 11  1  0  0  0  0
  9  4  1  0  0  0  0
 10  5  1  0  0  0  0
 11 13  2  0  0  0  0
 12 11  2  0  0  0  0
 15 14  3  0  0  0  0
 16 17  1  0  0  0  0
 16 22  1  0  0  0  0
 17 23  1  0  0  0  0
 18 30  1  0  0  0  0
 18 17  2  0  0  0  0
 19 18  1  0  0  0  0
 20 19  2  0  0  0  0
 20 21  1  0  0  0  0
 21 16  2  0  0  0  0
 24 19  1  0  0  0  0
 25 20  1  0  0  0  0
 26 21  1  0  0  0  0
 26 28  2  0  0  0  0
 27 26  1  0  0  0  0
 27  3  1  0  0  0  0
 29 26  2  0  0  0  0
 30 32  1  0  0  0  0
 31 30  1  0  0  0  0
 33 30  1  0  0  0  0
M  END
