Coordinates from ORCA-job 4-NO2-Ph-N2-OTs-B3LYPG-6-31G_dp-MTMO-d009-169-n800
 OpenBabel09051908313D

 33 33  0  0  0  0  0  0  0  0999 V2000
    0.0488    0.8087   -1.4133 C   0  0  0  0  0  0  0  0  0  0  0  0
    0.6903   -0.0675   -2.2827 C   0  0  0  0  0  0  0  0  0  0  0  0
    1.4429    0.4524   -3.3409 C   0  0  0  0  0  0  0  0  0  0  0  0
    1.5564    1.8305   -3.5475 C   0  0  0  0  0  0  0  0  0  0  0  0
    0.9083    2.7075   -2.6841 C   0  0  0  0  0  0  0  0  0  0  0  0
    0.1673    2.1819   -1.6265 C   0  0  0  0  0  0  0  0  0  0  0  0
   -0.5432    0.4485   -0.5815 H   0  0  0  0  0  0  0  0  0  0  0  0
    0.6203   -1.1398   -2.1502 H   0  0  0  0  0  0  0  0  0  0  0  0
    2.1364    2.1943   -4.3878 H   0  0  0  0  0  0  0  0  0  0  0  0
    0.9683    3.7812   -2.8119 H   0  0  0  0  0  0  0  0  0  0  0  0
   -0.5129    3.1068   -0.7075 N   0  0  0  0  0  0  0  0  0  0  0  0
   -0.3884    4.3133   -0.9171 O   0  0  0  0  0  0  0  0  0  0  0  0
   -1.1632    2.6187    0.2158 O   0  0  0  0  0  0  0  0  0  0  0  0
    1.4287    0.9760   -7.0274 N   0  0  0  0  0  0  0  0  0  0  0  0
    0.8134    0.2223   -7.5514 N   0  0  0  0  0  0  0  0  0  0  0  0
    5.0614    0.3211   -2.4889 C   0  0  0  0  0  0  0  0  0  0  0  0
    6.1012    1.2474   -2.4346 C   0  0  0  0  0  0  0  0  0  0  0  0
    6.7592    1.6700   -3.5981 C   0  0  0  0  0  0  0  0  0  0  0  0
    6.3481    1.1408   -4.8322 C   0  0  0  0  0  0  0  0  0  0  0  0
    5.3133    0.2141   -4.9104 C   0  0  0  0  0  0  0  0  0  0  0  0
    4.6776   -0.1858   -3.7315 C   0  0  0  0  0  0  0  0  0  0  0  0
    4.5627   -0.0156   -1.5872 H   0  0  0  0  0  0  0  0  0  0  0  0
    6.4079    1.6456   -1.4716 H   0  0  0  0  0  0  0  0  0  0  0  0
    6.8493    1.4566   -5.7428 H   0  0  0  0  0  0  0  0  0  0  0  0
    5.0066   -0.2037   -5.8629 H   0  0  0  0  0  0  0  0  0  0  0  0
    3.3436   -1.3599   -3.8248 S   0  0  0  0  0  0  0  0  0  0  0  0
    2.0394   -0.3884   -4.2703 O   0  0  0  0  0  0  0  0  0  0  0  0
    3.0819   -1.8947   -2.4927 O   0  0  0  0  0  0  0  0  0  0  0  0
    3.5094   -2.2104   -4.9909 O   0  0  0  0  0  0  0  0  0  0  0  0
    7.9054    2.6479   -3.5262 C   0  0  0  0  0  0  0  0  0  0  0  0
    7.9319    3.2991   -4.4051 H   0  0  0  0  0  0  0  0  0  0  0  0
    7.8409    3.2772   -2.6344 H   0  0  0  0  0  0  0  0  0  0  0  0
    8.8653    2.1187   -3.4856 H   0  0  0  0  0  0  0  0  0  0  0  0
  1  7  1  0  0  0  0
  2  8  1  0  0  0  0
  2  1  2  0  0  0  0
  3  2  1  0  0  0  0
  4  3  2  0  0  0  0
  4  5  1  0  0  0  0
  5  6  2  0  0  0  0
  6  1  1  0  0  0  0
  6 11  1  0  0  0  0
  9  4  1  0  0  0  0
 10  5  1  0  0  0  0
 11 13  2  0  0  0  0
 12 11  2  0  0  0  0
 15 14  3  0  0  0  0
 16 17  1  0  0  0  0
 16 22  1  0  0  0  0
 17 23  1  0  0  0  0
 18 30  1  0  0  0  0
 18 17  2  0  0  0  0
 19 18  1  0  0  0  0
 20 19  2  0  0  0  0
 20 21  1  0  0  0  0
 21 16  2  0  0  0  0
 24 19  1  0  0  0  0
 25 20  1  0  0  0  0
 26 21  1  0  0  0  0
 26 28  2  0  0  0  0
 27 26  1  0  0  0  0
 27  3  1  0  0  0  0
 29 26  2  0  0  0  0
 30 33  1  0  0  0  0
 30 32  1  0  0  0  0
 31 30  1  0  0  0  0
M  END
