Coordinates from ORCA-job 4-NO2-Ph-N2-OTs-B3LYPG-6-31G_dp-MTMO-d009-169-n800
 OpenBabel09051908313D

 33 33  0  0  0  0  0  0  0  0999 V2000
   -0.0699    0.9150   -1.1434 C   0  0  0  0  0  0  0  0  0  0  0  0
    0.4509    0.1619   -2.1906 C   0  0  0  0  0  0  0  0  0  0  0  0
    1.2118    0.7999   -3.1757 C   0  0  0  0  0  0  0  0  0  0  0  0
    1.4514    2.1767   -3.1342 C   0  0  0  0  0  0  0  0  0  0  0  0
    0.9257    2.9325   -2.0916 C   0  0  0  0  0  0  0  0  0  0  0  0
    0.1756    2.2877   -1.1091 C   0  0  0  0  0  0  0  0  0  0  0  0
   -0.6640    0.4610   -0.3602 H   0  0  0  0  0  0  0  0  0  0  0  0
    0.2801   -0.9054   -2.2524 H   0  0  0  0  0  0  0  0  0  0  0  0
    2.0378    2.6363   -3.9219 H   0  0  0  0  0  0  0  0  0  0  0  0
    1.0876    4.0009   -2.0236 H   0  0  0  0  0  0  0  0  0  0  0  0
   -0.3753    3.0825   -0.0013 N   0  0  0  0  0  0  0  0  0  0  0  0
   -0.1367    4.2901    0.0073 O   0  0  0  0  0  0  0  0  0  0  0  0
   -1.0385    2.4922    0.8502 O   0  0  0  0  0  0  0  0  0  0  0  0
    3.9239   -1.1894   -8.3920 N   0  0  0  0  0  0  0  0  0  0  0  0
    3.3329   -2.0082   -8.8403 N   0  0  0  0  0  0  0  0  0  0  0  0
    4.8348    0.3814   -2.6760 C   0  0  0  0  0  0  0  0  0  0  0  0
    5.9435    1.2199   -2.5848 C   0  0  0  0  0  0  0  0  0  0  0  0
    6.5893    1.6977   -3.7344 C   0  0  0  0  0  0  0  0  0  0  0  0
    6.0953    1.3128   -4.9905 C   0  0  0  0  0  0  0  0  0  0  0  0
    4.9882    0.4769   -5.1072 C   0  0  0  0  0  0  0  0  0  0  0  0
    4.3668    0.0206   -3.9415 C   0  0  0  0  0  0  0  0  0  0  0  0
    4.3463    0.0003   -1.7865 H   0  0  0  0  0  0  0  0  0  0  0  0
    6.3143    1.5054   -1.6044 H   0  0  0  0  0  0  0  0  0  0  0  0
    6.5873    1.6703   -5.8906 H   0  0  0  0  0  0  0  0  0  0  0  0
    4.6200    0.1706   -6.0800 H   0  0  0  0  0  0  0  0  0  0  0  0
    2.9341   -1.0259   -4.0769 S   0  0  0  0  0  0  0  0  0  0  0  0
    1.6893    0.0962   -4.2727 O   0  0  0  0  0  0  0  0  0  0  0  0
    2.7249   -1.7219   -2.8116 O   0  0  0  0  0  0  0  0  0  0  0  0
    2.9408   -1.7160   -5.3560 O   0  0  0  0  0  0  0  0  0  0  0  0
    7.8083    2.5797   -3.6245 C   0  0  0  0  0  0  0  0  0  0  0  0
    7.8924    3.2551   -4.4807 H   0  0  0  0  0  0  0  0  0  0  0  0
    7.7863    3.1824   -2.7122 H   0  0  0  0  0  0  0  0  0  0  0  0
    8.7233    1.9755   -3.5948 H   0  0  0  0  0  0  0  0  0  0  0  0
  1  6  1  0  0  0  0
  1  7  1  0  0  0  0
  2  1  2  0  0  0  0
  3  4  2  0  0  0  0
  3  2  1  0  0  0  0
  4  5  1  0  0  0  0
  5 10  1  0  0  0  0
  5  6  2  0  0  0  0
  6 11  1  0  0  0  0
  8  2  1  0  0  0  0
  9  4  1  0  0  0  0
 11 12  2  0  0  0  0
 11 13  2  0  0  0  0
 15 14  3  0  0  0  0
 16 17  1  0  0  0  0
 16 22  1  0  0  0  0
 17 23  1  0  0  0  0
 18 30  1  0  0  0  0
 18 17  2  0  0  0  0
 19 18  1  0  0  0  0
 20 19  2  0  0  0  0
 20 21  1  0  0  0  0
 21 16  2  0  0  0  0
 24 19  1  0  0  0  0
 25 20  1  0  0  0  0
 26 21  1  0  0  0  0
 26 28  2  0  0  0  0
 27 26  1  0  0  0  0
 27  3  1  0  0  0  0
 29 26  2  0  0  0  0
 30 33  1  0  0  0  0
 30 32  1  0  0  0  0
 31 30  1  0  0  0  0
M  END
