Coordinates from ORCA-job 4-NO2-Ph-N2-OTs-B3LYPG-6-31G_dp-MTMO-d009-169-n800
 OpenBabel09051908313D

 33 33  0  0  0  0  0  0  0  0999 V2000
    0.0400    0.8351   -1.6521 C   0  0  0  0  0  0  0  0  0  0  0  0
    0.7090    0.0138   -2.5539 C   0  0  0  0  0  0  0  0  0  0  0  0
    1.5422    0.5946   -3.5154 C   0  0  0  0  0  0  0  0  0  0  0  0
    1.7090    1.9804   -3.5938 C   0  0  0  0  0  0  0  0  0  0  0  0
    1.0353    2.8035   -2.6981 C   0  0  0  0  0  0  0  0  0  0  0  0
    0.2135    2.2164   -1.7368 C   0  0  0  0  0  0  0  0  0  0  0  0
   -0.6141    0.4265   -0.8922 H   0  0  0  0  0  0  0  0  0  0  0  0
    0.5990   -1.0628   -2.5192 H   0  0  0  0  0  0  0  0  0  0  0  0
    2.3549    2.3941   -4.3600 H   0  0  0  0  0  0  0  0  0  0  0  0
    1.1363    3.8812   -2.7271 H   0  0  0  0  0  0  0  0  0  0  0  0
   -0.4939    3.0833   -0.7826 N   0  0  0  0  0  0  0  0  0  0  0  0
   -0.3170    4.2978   -0.8764 O   0  0  0  0  0  0  0  0  0  0  0  0
   -1.2176    2.5423    0.0524 O   0  0  0  0  0  0  0  0  0  0  0  0
   -0.2941    0.1704   -6.4685 N   0  0  0  0  0  0  0  0  0  0  0  0
   -0.5353   -0.7329   -7.0578 N   0  0  0  0  0  0  0  0  0  0  0  0
    5.1057    0.3408   -2.5154 C   0  0  0  0  0  0  0  0  0  0  0  0
    6.1656    1.2315   -2.3548 C   0  0  0  0  0  0  0  0  0  0  0  0
    6.9073    1.6844   -3.4550 C   0  0  0  0  0  0  0  0  0  0  0  0
    6.5605    1.2222   -4.7348 C   0  0  0  0  0  0  0  0  0  0  0  0
    5.5064    0.3327   -4.9191 C   0  0  0  0  0  0  0  0  0  0  0  0
    4.7865   -0.0986   -3.8013 C   0  0  0  0  0  0  0  0  0  0  0  0
    4.5427   -0.0199   -1.6622 H   0  0  0  0  0  0  0  0  0  0  0  0
    6.4218    1.5776   -1.3574 H   0  0  0  0  0  0  0  0  0  0  0  0
    7.1273    1.5612   -5.5974 H   0  0  0  0  0  0  0  0  0  0  0  0
    5.2486   -0.0337   -5.9066 H   0  0  0  0  0  0  0  0  0  0  0  0
    3.4262   -1.2228   -4.0310 S   0  0  0  0  0  0  0  0  0  0  0  0
    2.1737   -0.1845   -4.4751 O   0  0  0  0  0  0  0  0  0  0  0  0
    3.0840   -1.8290   -2.7487 O   0  0  0  0  0  0  0  0  0  0  0  0
    3.6264   -2.0054   -5.2386 O   0  0  0  0  0  0  0  0  0  0  0  0
    8.0732    2.6236   -3.2677 C   0  0  0  0  0  0  0  0  0  0  0  0
    8.1759    3.3082   -4.1148 H   0  0  0  0  0  0  0  0  0  0  0  0
    7.9664    3.2182   -2.3565 H   0  0  0  0  0  0  0  0  0  0  0  0
    9.0132    2.0642   -3.1863 H   0  0  0  0  0  0  0  0  0  0  0  0
  1  7  1  0  0  0  0
  2  8  1  0  0  0  0
  2  1  2  0  0  0  0
  3  2  1  0  0  0  0
  4  3  2  0  0  0  0
  4  5  1  0  0  0  0
  5  6  2  0  0  0  0
  6  1  1  0  0  0  0
  6 11  1  0  0  0  0
  9  4  1  0  0  0  0
 10  5  1  0  0  0  0
 11 13  2  0  0  0  0
 12 11  2  0  0  0  0
 15 14  3  0  0  0  0
 16 17  1  0  0  0  0
 16 22  1  0  0  0  0
 17 23  1  0  0  0  0
 18 30  1  0  0  0  0
 18 17  2  0  0  0  0
 19 18  1  0  0  0  0
 20 19  2  0  0  0  0
 20 21  1  0  0  0  0
 21 16  2  0  0  0  0
 24 19  1  0  0  0  0
 25 20  1  0  0  0  0
 26 21  1  0  0  0  0
 26 28  2  0  0  0  0
 27 26  1  0  0  0  0
 27  3  1  0  0  0  0
 29 26  2  0  0  0  0
 30 33  1  0  0  0  0
 30 32  1  0  0  0  0
 31 30  1  0  0  0  0
M  END
