Coordinates from ORCA-job 4-NO2-Ph-N2-OTs-B3LYPG-6-31G_dp-MTMO-d009-169-n800
 OpenBabel09051908313D

 33 33  0  0  0  0  0  0  0  0999 V2000
    0.1384    1.1688   -0.1584 C   0  0  0  0  0  0  0  0  0  0  0  0
    0.3507    0.1995   -1.1332 C   0  0  0  0  0  0  0  0  0  0  0  0
    0.7221    0.5985   -2.4212 C   0  0  0  0  0  0  0  0  0  0  0  0
    0.8770    1.9486   -2.7498 C   0  0  0  0  0  0  0  0  0  0  0  0
    0.6576    2.9196   -1.7786 C   0  0  0  0  0  0  0  0  0  0  0  0
    0.2944    2.5132   -0.4953 C   0  0  0  0  0  0  0  0  0  0  0  0
   -0.1513    0.9034    0.8502 H   0  0  0  0  0  0  0  0  0  0  0  0
    0.2370   -0.8538   -0.9099 H   0  0  0  0  0  0  0  0  0  0  0  0
    1.1583    2.2186   -3.7612 H   0  0  0  0  0  0  0  0  0  0  0  0
    0.7636    3.9755   -1.9937 H   0  0  0  0  0  0  0  0  0  0  0  0
    0.0665    3.5373    0.5353 N   0  0  0  0  0  0  0  0  0  0  0  0
    0.2154    4.7154    0.2112 O   0  0  0  0  0  0  0  0  0  0  0  0
   -0.2574    3.1546    1.6588 O   0  0  0  0  0  0  0  0  0  0  0  0
   11.5875    1.2612   -7.6447 N   0  0  0  0  0  0  0  0  0  0  0  0
   12.5664    1.0627   -8.1180 N   0  0  0  0  0  0  0  0  0  0  0  0
    4.3762    0.2078   -3.0374 C   0  0  0  0  0  0  0  0  0  0  0  0
    5.4089    1.0299   -3.4866 C   0  0  0  0  0  0  0  0  0  0  0  0
    5.5917    1.2865   -4.8524 C   0  0  0  0  0  0  0  0  0  0  0  0
    4.7082    0.6952   -5.7706 C   0  0  0  0  0  0  0  0  0  0  0  0
    3.6713   -0.1291   -5.3455 C   0  0  0  0  0  0  0  0  0  0  0  0
    3.5153   -0.3629   -3.9757 C   0  0  0  0  0  0  0  0  0  0  0  0
    4.2455   -0.0016   -1.9816 H   0  0  0  0  0  0  0  0  0  0  0  0
    6.0852    1.4760   -2.7628 H   0  0  0  0  0  0  0  0  0  0  0  0
    4.8380    0.8814   -6.8334 H   0  0  0  0  0  0  0  0  0  0  0  0
    2.9987   -0.5959   -6.0567 H   0  0  0  0  0  0  0  0  0  0  0  0
    2.1783   -1.3994   -3.4227 S   0  0  0  0  0  0  0  0  0  0  0  0
    0.8714   -0.3331   -3.4390 O   0  0  0  0  0  0  0  0  0  0  0  0
    2.4227   -1.8016   -2.0415 O   0  0  0  0  0  0  0  0  0  0  0  0
    1.8230   -2.3485   -4.4635 O   0  0  0  0  0  0  0  0  0  0  0  0
    6.7279    2.1552   -5.3335 C   0  0  0  0  0  0  0  0  0  0  0  0
    7.5557    1.5413   -5.7090 H   0  0  0  0  0  0  0  0  0  0  0  0
    6.4126    2.8074   -6.1540 H   0  0  0  0  0  0  0  0  0  0  0  0
    7.1215    2.7826   -4.5299 H   0  0  0  0  0  0  0  0  0  0  0  0
  1  7  1  0  0  0  0
  2  8  1  0  0  0  0
  2  1  2  0  0  0  0
  3  2  1  0  0  0  0
  4  3  2  0  0  0  0
  4  5  1  0  0  0  0
  5  6  2  0  0  0  0
  6  1  1  0  0  0  0
  6 11  1  0  0  0  0
  9  4  1  0  0  0  0
 10  5  1  0  0  0  0
 11 13  2  0  0  0  0
 12 11  2  0  0  0  0
 15 14  3  0  0  0  0
 16 22  1  0  0  0  0
 17 16  1  0  0  0  0
 17 23  1  0  0  0  0
 18 17  2  0  0  0  0
 19 20  2  0  0  0  0
 19 18  1  0  0  0  0
 20 21  1  0  0  0  0
 21 26  1  0  0  0  0
 21 16  2  0  0  0  0
 24 19  1  0  0  0  0
 25 20  1  0  0  0  0
 26 28  2  0  0  0  0
 27 26  1  0  0  0  0
 27  3  1  0  0  0  0
 29 26  2  0  0  0  0
 30 18  1  0  0  0  0
 30 33  1  0  0  0  0
 31 30  1  0  0  0  0
 32 30  1  0  0  0  0
M  END
