Coordinates from ORCA-job 4-NO2-Ph-N2-OTs-B3LYPG-6-31G_dp-MTMO-d009-169-n800
 OpenBabel09051908313D

 33 33  0  0  0  0  0  0  0  0999 V2000
   -0.0477    0.8850   -1.2528 C   0  0  0  0  0  0  0  0  0  0  0  0
    0.5263    0.0738   -2.2262 C   0  0  0  0  0  0  0  0  0  0  0  0
    1.3011    0.6606   -3.2319 C   0  0  0  0  0  0  0  0  0  0  0  0
    1.5034    2.0429   -3.2833 C   0  0  0  0  0  0  0  0  0  0  0  0
    0.9249    2.8565   -2.3148 C   0  0  0  0  0  0  0  0  0  0  0  0
    0.1606    2.2629   -1.3111 C   0  0  0  0  0  0  0  0  0  0  0  0
   -0.6544    0.4717   -0.4569 H   0  0  0  0  0  0  0  0  0  0  0  0
    0.3864   -0.9999   -2.2149 H   0  0  0  0  0  0  0  0  0  0  0  0
    2.1029    2.4616   -4.0838 H   0  0  0  0  0  0  0  0  0  0  0  0
    1.0567    3.9312   -2.3197 H   0  0  0  0  0  0  0  0  0  0  0  0
   -0.4464    3.1193   -0.2812 N   0  0  0  0  0  0  0  0  0  0  0  0
   -0.2422    4.3310   -0.3545 O   0  0  0  0  0  0  0  0  0  0  0  0
   -1.1189    2.5727    0.5920 O   0  0  0  0  0  0  0  0  0  0  0  0
    3.0661   -0.5297   -8.0697 N   0  0  0  0  0  0  0  0  0  0  0  0
    2.2718   -1.1658   -8.5000 N   0  0  0  0  0  0  0  0  0  0  0  0
    4.9685    0.3217   -2.5771 C   0  0  0  0  0  0  0  0  0  0  0  0
    6.0480    1.2001   -2.5067 C   0  0  0  0  0  0  0  0  0  0  0  0
    6.6577    1.6959   -3.6677 C   0  0  0  0  0  0  0  0  0  0  0  0
    6.1569    1.2897   -4.9149 C   0  0  0  0  0  0  0  0  0  0  0  0
    5.0807    0.4126   -5.0106 C   0  0  0  0  0  0  0  0  0  0  0  0
    4.4957   -0.0623   -3.8332 C   0  0  0  0  0  0  0  0  0  0  0  0
    4.5053   -0.0712   -1.6792 H   0  0  0  0  0  0  0  0  0  0  0  0
    6.4234    1.5033   -1.5334 H   0  0  0  0  0  0  0  0  0  0  0  0
    6.6193    1.6638   -5.8240 H   0  0  0  0  0  0  0  0  0  0  0  0
    4.7027    0.0946   -5.9761 H   0  0  0  0  0  0  0  0  0  0  0  0
    3.1055   -1.1679   -3.9428 S   0  0  0  0  0  0  0  0  0  0  0  0
    1.8316   -0.1083   -4.2584 O   0  0  0  0  0  0  0  0  0  0  0  0
    2.8773   -1.7831   -2.6395 O   0  0  0  0  0  0  0  0  0  0  0  0
    3.1780   -1.9430   -5.1700 O   0  0  0  0  0  0  0  0  0  0  0  0
    7.8458    2.6215   -3.5816 C   0  0  0  0  0  0  0  0  0  0  0  0
    7.8734    3.3170   -4.4256 H   0  0  0  0  0  0  0  0  0  0  0  0
    7.8344    3.2043   -2.6565 H   0  0  0  0  0  0  0  0  0  0  0  0
    8.7834    2.0524   -3.5983 H   0  0  0  0  0  0  0  0  0  0  0  0
  1  7  1  0  0  0  0
  2  8  1  0  0  0  0
  2  1  2  0  0  0  0
  3  2  1  0  0  0  0
  4  3  2  0  0  0  0
  4  5  1  0  0  0  0
  5  6  2  0  0  0  0
  6  1  1  0  0  0  0
  6 11  1  0  0  0  0
  9  4  1  0  0  0  0
 10  5  1  0  0  0  0
 11 13  2  0  0  0  0
 12 11  2  0  0  0  0
 15 14  3  0  0  0  0
 16 17  1  0  0  0  0
 16 22  1  0  0  0  0
 17 23  1  0  0  0  0
 18 30  1  0  0  0  0
 18 17  2  0  0  0  0
 19 18  1  0  0  0  0
 20 19  2  0  0  0  0
 20 21  1  0  0  0  0
 21 16  2  0  0  0  0
 24 19  1  0  0  0  0
 25 20  1  0  0  0  0
 26 21  1  0  0  0  0
 26 28  2  0  0  0  0
 27 26  1  0  0  0  0
 27  3  1  0  0  0  0
 29 26  2  0  0  0  0
 30 32  1  0  0  0  0
 31 30  1  0  0  0  0
 33 30  1  0  0  0  0
M  END
