Coordinates from ORCA-job 4-NO2-Ph-N2-OTs-B3LYPG-6-31G_dp-MTMO-d009-169-n800
 OpenBabel09051908313D

 33 33  0  0  0  0  0  0  0  0999 V2000
   -0.0272    1.2514   -0.5602 C   0  0  0  0  0  0  0  0  0  0  0  0
    0.3396    0.2648   -1.4696 C   0  0  0  0  0  0  0  0  0  0  0  0
    0.9042    0.6416   -2.6928 C   0  0  0  0  0  0  0  0  0  0  0  0
    1.0975    1.9867   -3.0221 C   0  0  0  0  0  0  0  0  0  0  0  0
    0.7224    2.9746   -2.1180 C   0  0  0  0  0  0  0  0  0  0  0  0
    0.1690    2.5904   -0.8972 C   0  0  0  0  0  0  0  0  0  0  0  0
   -0.4663    1.0025    0.3973 H   0  0  0  0  0  0  0  0  0  0  0  0
    0.1997   -0.7846   -1.2435 H   0  0  0  0  0  0  0  0  0  0  0  0
    1.5286    2.2394   -3.9840 H   0  0  0  0  0  0  0  0  0  0  0  0
    0.8522    4.0270   -2.3372 H   0  0  0  0  0  0  0  0  0  0  0  0
   -0.2229    3.6322    0.0636 N   0  0  0  0  0  0  0  0  0  0  0  0
   -0.0375    4.8052   -0.2600 O   0  0  0  0  0  0  0  0  0  0  0  0
   -0.7109    3.2685    1.1329 O   0  0  0  0  0  0  0  0  0  0  0  0
    7.7947    1.4766   -8.6554 N   0  0  0  0  0  0  0  0  0  0  0  0
    8.2866    1.5358   -9.6432 N   0  0  0  0  0  0  0  0  0  0  0  0
    4.5928    0.1948   -2.6706 C   0  0  0  0  0  0  0  0  0  0  0  0
    5.7159    0.9698   -2.9456 C   0  0  0  0  0  0  0  0  0  0  0  0
    6.1717    1.1490   -4.2615 C   0  0  0  0  0  0  0  0  0  0  0  0
    5.4707    0.5275   -5.3052 C   0  0  0  0  0  0  0  0  0  0  0  0
    4.3432   -0.2517   -5.0533 C   0  0  0  0  0  0  0  0  0  0  0  0
    3.9151   -0.4089   -3.7336 C   0  0  0  0  0  0  0  0  0  0  0  0
    4.2525    0.0422   -1.6525 H   0  0  0  0  0  0  0  0  0  0  0  0
    6.2520    1.4379   -2.1248 H   0  0  0  0  0  0  0  0  0  0  0  0
    5.8175    0.6500   -6.3272 H   0  0  0  0  0  0  0  0  0  0  0  0
    3.8109   -0.7440   -5.8596 H   0  0  0  0  0  0  0  0  0  0  0  0
    2.4742   -1.3997   -3.4033 S   0  0  0  0  0  0  0  0  0  0  0  0
    1.2170   -0.3043   -3.6586 O   0  0  0  0  0  0  0  0  0  0  0  0
    2.4680   -1.7819   -1.9949 O   0  0  0  0  0  0  0  0  0  0  0  0
    2.2767   -2.3605   -4.4752 O   0  0  0  0  0  0  0  0  0  0  0  0
    7.3995    1.9821   -4.5384 C   0  0  0  0  0  0  0  0  0  0  0  0
    7.5900    2.0715   -5.6104 H   0  0  0  0  0  0  0  0  0  0  0  0
    7.2940    2.9912   -4.1259 H   0  0  0  0  0  0  0  0  0  0  0  0
    8.2869    1.5376   -4.0741 H   0  0  0  0  0  0  0  0  0  0  0  0
  1  7  1  0  0  0  0
  2  8  1  0  0  0  0
  2  1  2  0  0  0  0
  3  2  1  0  0  0  0
  4  3  2  0  0  0  0
  4  5  1  0  0  0  0
  5  6  2  0  0  0  0
  6  1  1  0  0  0  0
  6 11  1  0  0  0  0
  9  4  1  0  0  0  0
 10  5  1  0  0  0  0
 11 13  2  0  0  0  0
 12 11  2  0  0  0  0
 15 14  3  0  0  0  0
 16 22  1  0  0  0  0
 17 16  1  0  0  0  0
 17 23  1  0  0  0  0
 18 17  2  0  0  0  0
 19 20  2  0  0  0  0
 19 18  1  0  0  0  0
 20 21  1  0  0  0  0
 21 26  1  0  0  0  0
 21 16  2  0  0  0  0
 24 19  1  0  0  0  0
 25 20  1  0  0  0  0
 26 28  2  0  0  0  0
 27 26  1  0  0  0  0
 27  3  1  0  0  0  0
 29 26  2  0  0  0  0
 30 18  1  0  0  0  0
 30 32  1  0  0  0  0
 30 33  1  0  0  0  0
 31 30  1  0  0  0  0
M  END
