Coordinates from ORCA-job 4-NO2-Ph-N2-OTs-B3LYPG-6-31G_dp-MTMO-d009-169-n800
 OpenBabel09051908313D

 33 33  0  0  0  0  0  0  0  0999 V2000
    0.0724    1.1780   -0.1170 C   0  0  0  0  0  0  0  0  0  0  0  0
    0.2752    0.2054   -1.0904 C   0  0  0  0  0  0  0  0  0  0  0  0
    0.6449    0.5993   -2.3805 C   0  0  0  0  0  0  0  0  0  0  0  0
    0.8075    1.9477   -2.7123 C   0  0  0  0  0  0  0  0  0  0  0  0
    0.5978    2.9220   -1.7424 C   0  0  0  0  0  0  0  0  0  0  0  0
    0.2362    2.5206   -0.4571 C   0  0  0  0  0  0  0  0  0  0  0  0
   -0.2157    0.9166    0.8931 H   0  0  0  0  0  0  0  0  0  0  0  0
    0.1553   -0.8467   -0.8647 H   0  0  0  0  0  0  0  0  0  0  0  0
    1.0874    2.2138   -3.7252 H   0  0  0  0  0  0  0  0  0  0  0  0
    0.7102    3.9768   -1.9600 H   0  0  0  0  0  0  0  0  0  0  0  0
    0.0185    3.5483    0.5721 N   0  0  0  0  0  0  0  0  0  0  0  0
    0.1743    4.7247    0.2452 O   0  0  0  0  0  0  0  0  0  0  0  0
   -0.3043    3.1701    1.6974 O   0  0  0  0  0  0  0  0  0  0  0  0
   12.7964    1.3394   -8.2052 N   0  0  0  0  0  0  0  0  0  0  0  0
   13.7519    1.1328   -8.7211 N   0  0  0  0  0  0  0  0  0  0  0  0
    4.2917    0.1923   -3.0011 C   0  0  0  0  0  0  0  0  0  0  0  0
    5.3252    1.0128   -3.4514 C   0  0  0  0  0  0  0  0  0  0  0  0
    5.5048    1.2717   -4.8172 C   0  0  0  0  0  0  0  0  0  0  0  0
    4.6176    0.6843   -5.7342 C   0  0  0  0  0  0  0  0  0  0  0  0
    3.5799   -0.1384   -5.3080 C   0  0  0  0  0  0  0  0  0  0  0  0
    3.4269   -0.3744   -3.9383 C   0  0  0  0  0  0  0  0  0  0  0  0
    4.1631   -0.0188   -1.9454 H   0  0  0  0  0  0  0  0  0  0  0  0
    6.0043    1.4558   -2.7285 H   0  0  0  0  0  0  0  0  0  0  0  0
    4.7450    0.8724   -6.7970 H   0  0  0  0  0  0  0  0  0  0  0  0
    2.9041   -0.6020   -6.0184 H   0  0  0  0  0  0  0  0  0  0  0  0
    2.0874   -1.4068   -3.3837 S   0  0  0  0  0  0  0  0  0  0  0  0
    0.7848   -0.3355   -3.3967 O   0  0  0  0  0  0  0  0  0  0  0  0
    2.3330   -1.8109   -2.0033 O   0  0  0  0  0  0  0  0  0  0  0  0
    1.7264   -2.3536   -4.4246 O   0  0  0  0  0  0  0  0  0  0  0  0
    6.6421    2.1383   -5.2991 C   0  0  0  0  0  0  0  0  0  0  0  0
    7.4731    1.5223   -5.6639 H   0  0  0  0  0  0  0  0  0  0  0  0
    6.3308    2.7830   -6.1270 H   0  0  0  0  0  0  0  0  0  0  0  0
    7.0300    2.7732   -4.4984 H   0  0  0  0  0  0  0  0  0  0  0  0
  1  7  1  0  0  0  0
  2  8  1  0  0  0  0
  2  1  2  0  0  0  0
  3  2  1  0  0  0  0
  4  3  2  0  0  0  0
  4  5  1  0  0  0  0
  5  6  2  0  0  0  0
  6  1  1  0  0  0  0
  6 11  1  0  0  0  0
  9  4  1  0  0  0  0
 10  5  1  0  0  0  0
 11 13  2  0  0  0  0
 12 11  2  0  0  0  0
 15 14  3  0  0  0  0
 16 22  1  0  0  0  0
 17 16  1  0  0  0  0
 17 23  1  0  0  0  0
 18 17  2  0  0  0  0
 19 20  2  0  0  0  0
 19 18  1  0  0  0  0
 20 21  1  0  0  0  0
 21 26  1  0  0  0  0
 21 16  2  0  0  0  0
 24 19  1  0  0  0  0
 25 20  1  0  0  0  0
 26 28  2  0  0  0  0
 27 26  1  0  0  0  0
 27  3  1  0  0  0  0
 29 26  2  0  0  0  0
 30 18  1  0  0  0  0
 30 33  1  0  0  0  0
 31 30  1  0  0  0  0
 32 30  1  0  0  0  0
M  END
