Coordinates from ORCA-job 4-NO2-Ph-N2-OTs-B3LYPG-6-31G_dp-MTMO-d009-169-n800
 OpenBabel09051908313D

 33 33  0  0  0  0  0  0  0  0999 V2000
    0.0014    1.2189   -0.3934 C   0  0  0  0  0  0  0  0  0  0  0  0
    0.3252    0.2410   -1.3282 C   0  0  0  0  0  0  0  0  0  0  0  0
    0.8337    0.6292   -2.5721 C   0  0  0  0  0  0  0  0  0  0  0  0
    1.0144    1.9771   -2.8966 C   0  0  0  0  0  0  0  0  0  0  0  0
    0.6828    2.9566   -1.9665 C   0  0  0  0  0  0  0  0  0  0  0  0
    0.1845    2.5609   -0.7260 C   0  0  0  0  0  0  0  0  0  0  0  0
   -0.3944    0.9613    0.5805 H   0  0  0  0  0  0  0  0  0  0  0  0
    0.1939   -0.8104   -1.1061 H   0  0  0  0  0  0  0  0  0  0  0  0
    1.4022    2.2387   -3.8745 H   0  0  0  0  0  0  0  0  0  0  0  0
    0.8044    4.0110   -2.1809 H   0  0  0  0  0  0  0  0  0  0  0  0
   -0.1615    3.5938    0.2620 N   0  0  0  0  0  0  0  0  0  0  0  0
    0.0132    4.7695   -0.0573 O   0  0  0  0  0  0  0  0  0  0  0  0
   -0.6031    3.2202    1.3479 O   0  0  0  0  0  0  0  0  0  0  0  0
    9.1210    1.3876   -8.4207 N   0  0  0  0  0  0  0  0  0  0  0  0
    9.9024    1.3780   -9.2022 N   0  0  0  0  0  0  0  0  0  0  0  0
    4.5308    0.2210   -2.7973 C   0  0  0  0  0  0  0  0  0  0  0  0
    5.6277    1.0036   -3.1515 C   0  0  0  0  0  0  0  0  0  0  0  0
    5.9896    1.1833   -4.4949 C   0  0  0  0  0  0  0  0  0  0  0  0
    5.2251    0.5480   -5.4860 C   0  0  0  0  0  0  0  0  0  0  0  0
    4.1243   -0.2377   -5.1557 C   0  0  0  0  0  0  0  0  0  0  0  0
    3.7871   -0.3913   -3.8083 C   0  0  0  0  0  0  0  0  0  0  0  0
    4.2650    0.0669   -1.7575 H   0  0  0  0  0  0  0  0  0  0  0  0
    6.2173    1.4755   -2.3706 H   0  0  0  0  0  0  0  0  0  0  0  0
    5.5025    0.6633   -6.5301 H   0  0  0  0  0  0  0  0  0  0  0  0
    3.5451   -0.7415   -5.9216 H   0  0  0  0  0  0  0  0  0  0  0  0
    2.3805   -1.3930   -3.3777 S   0  0  0  0  0  0  0  0  0  0  0  0
    1.1001   -0.3093   -3.5589 O   0  0  0  0  0  0  0  0  0  0  0  0
    2.4684   -1.7639   -1.9691 O   0  0  0  0  0  0  0  0  0  0  0  0
    2.1234   -2.3635   -4.4279 O   0  0  0  0  0  0  0  0  0  0  0  0
    7.1650    2.0529   -4.8677 C   0  0  0  0  0  0  0  0  0  0  0  0
    7.6210    1.7306   -5.8077 H   0  0  0  0  0  0  0  0  0  0  0  0
    6.8508    3.0960   -4.9974 H   0  0  0  0  0  0  0  0  0  0  0  0
    7.9346    2.0402   -4.0901 H   0  0  0  0  0  0  0  0  0  0  0  0
  1  7  1  0  0  0  0
  2  8  1  0  0  0  0
  2  1  2  0  0  0  0
  3  2  1  0  0  0  0
  4  3  2  0  0  0  0
  4  5  1  0  0  0  0
  5  6  2  0  0  0  0
  6  1  1  0  0  0  0
  6 11  1  0  0  0  0
  9  4  1  0  0  0  0
 10  5  1  0  0  0  0
 11 13  2  0  0  0  0
 12 11  2  0  0  0  0
 15 14  3  0  0  0  0
 16 22  1  0  0  0  0
 17 16  1  0  0  0  0
 17 23  1  0  0  0  0
 18 17  2  0  0  0  0
 19 20  2  0  0  0  0
 19 18  1  0  0  0  0
 20 21  1  0  0  0  0
 21 26  1  0  0  0  0
 21 16  2  0  0  0  0
 24 19  1  0  0  0  0
 25 20  1  0  0  0  0
 26 28  2  0  0  0  0
 27 26  1  0  0  0  0
 27  3  1  0  0  0  0
 29 26  2  0  0  0  0
 30 18  1  0  0  0  0
 30 33  1  0  0  0  0
 31 30  1  0  0  0  0
 32 30  1  0  0  0  0
M  END
