Coordinates from ORCA-job 4-NO2-Ph-N2-OTs-B3LYPG-6-31G_dp-MTMO-d009-169-n800
 OpenBabel09051908313D

 33 33  0  0  0  0  0  0  0  0999 V2000
   -0.0833    1.5453   -0.1612 C   0  0  0  0  0  0  0  0  0  0  0  0
   -0.0199    0.5441   -1.1249 C   0  0  0  0  0  0  0  0  0  0  0  0
    0.4498    0.8589   -2.4043 C   0  0  0  0  0  0  0  0  0  0  0  0
    0.8461    2.1582   -2.7357 C   0  0  0  0  0  0  0  0  0  0  0  0
    0.7747    3.1623   -1.7762 C   0  0  0  0  0  0  0  0  0  0  0  0
    0.3143    2.8382   -0.5007 C   0  0  0  0  0  0  0  0  0  0  0  0
   -0.4406    1.3446    0.8406 H   0  0  0  0  0  0  0  0  0  0  0  0
   -0.3233   -0.4702   -0.8993 H   0  0  0  0  0  0  0  0  0  0  0  0
    1.1956    2.3653   -3.7407 H   0  0  0  0  0  0  0  0  0  0  0  0
    1.0692    4.1809   -1.9941 H   0  0  0  0  0  0  0  0  0  0  0  0
    0.2437    3.8960    0.5182 N   0  0  0  0  0  0  0  0  0  0  0  0
    0.5954    5.0288    0.1895 O   0  0  0  0  0  0  0  0  0  0  0  0
   -0.1607    3.5844    1.6376 O   0  0  0  0  0  0  0  0  0  0  0  0
   14.5244    3.4141   -9.3432 N   0  0  0  0  0  0  0  0  0  0  0  0
   15.3691    3.4696  -10.0539 N   0  0  0  0  0  0  0  0  0  0  0  0
    3.9721   -0.2179   -2.8428 C   0  0  0  0  0  0  0  0  0  0  0  0
    5.1652    0.3854   -3.2373 C   0  0  0  0  0  0  0  0  0  0  0  0
    5.4704    0.5738   -4.5924 C   0  0  0  0  0  0  0  0  0  0  0  0
    4.5448    0.1405   -5.5558 C   0  0  0  0  0  0  0  0  0  0  0  0
    3.3475   -0.4641   -5.1854 C   0  0  0  0  0  0  0  0  0  0  0  0
    3.0731   -0.6358   -3.8256 C   0  0  0  0  0  0  0  0  0  0  0  0
    3.7439   -0.3762   -1.7947 H   0  0  0  0  0  0  0  0  0  0  0  0
    5.8712    0.7127   -2.4792 H   0  0  0  0  0  0  0  0  0  0  0  0
    4.7678    0.2764   -6.6107 H   0  0  0  0  0  0  0  0  0  0  0  0
    2.6399   -0.8103   -5.9306 H   0  0  0  0  0  0  0  0  0  0  0  0
    1.5358   -1.3912   -3.3426 S   0  0  0  0  0  0  0  0  0  0  0  0
    0.4622   -0.0927   -3.4141 O   0  0  0  0  0  0  0  0  0  0  0  0
    1.6325   -1.8290   -1.9540 O   0  0  0  0  0  0  0  0  0  0  0  0
    1.0532   -2.2569   -4.4047 O   0  0  0  0  0  0  0  0  0  0  0  0
    6.7767    1.2018   -5.0119 C   0  0  0  0  0  0  0  0  0  0  0  0
    7.5143    0.4312   -5.2669 H   0  0  0  0  0  0  0  0  0  0  0  0
    6.6496    1.8342   -5.8957 H   0  0  0  0  0  0  0  0  0  0  0  0
    7.2035    1.8122   -4.2115 H   0  0  0  0  0  0  0  0  0  0  0  0
  1  7  1  0  0  0  0
  2  8  1  0  0  0  0
  2  1  2  0  0  0  0
  3  2  1  0  0  0  0
  4  3  2  0  0  0  0
  4  5  1  0  0  0  0
  5  6  2  0  0  0  0
  6  1  1  0  0  0  0
  6 11  1  0  0  0  0
  9  4  1  0  0  0  0
 10  5  1  0  0  0  0
 11 13  2  0  0  0  0
 12 11  2  0  0  0  0
 15 14  3  0  0  0  0
 16 22  1  0  0  0  0
 17 16  1  0  0  0  0
 17 23  1  0  0  0  0
 18 17  2  0  0  0  0
 19 20  2  0  0  0  0
 19 18  1  0  0  0  0
 20 21  1  0  0  0  0
 21 26  1  0  0  0  0
 21 16  2  0  0  0  0
 24 19  1  0  0  0  0
 25 20  1  0  0  0  0
 26 28  2  0  0  0  0
 27 26  1  0  0  0  0
 27  3  1  0  0  0  0
 29 26  2  0  0  0  0
 30 18  1  0  0  0  0
 30 33  1  0  0  0  0
 31 30  1  0  0  0  0
 32 30  1  0  0  0  0
M  END
