Coordinates from ORCA-job 4-NO2-Ph-N2-OTs-B3LYPG-6-31G_dp-MTMO-d009-169-n800
 OpenBabel09051908313D

 33 33  0  0  0  0  0  0  0  0999 V2000
   -0.0932    1.5445   -0.1571 C   0  0  0  0  0  0  0  0  0  0  0  0
   -0.0301    0.5435   -1.1209 C   0  0  0  0  0  0  0  0  0  0  0  0
    0.4402    0.8582   -2.4001 C   0  0  0  0  0  0  0  0  0  0  0  0
    0.8376    2.1572   -2.7311 C   0  0  0  0  0  0  0  0  0  0  0  0
    0.7664    3.1612   -1.7714 C   0  0  0  0  0  0  0  0  0  0  0  0
    0.3054    2.8372   -0.4962 C   0  0  0  0  0  0  0  0  0  0  0  0
   -0.4510    1.3438    0.8446 H   0  0  0  0  0  0  0  0  0  0  0  0
   -0.3343   -0.4707   -0.8956 H   0  0  0  0  0  0  0  0  0  0  0  0
    1.1876    2.3643   -3.7359 H   0  0  0  0  0  0  0  0  0  0  0  0
    1.0618    4.1796   -1.9891 H   0  0  0  0  0  0  0  0  0  0  0  0
    0.2351    3.8948    0.5229 N   0  0  0  0  0  0  0  0  0  0  0  0
    0.5877    5.0274    0.1945 O   0  0  0  0  0  0  0  0  0  0  0  0
   -0.1699    3.5833    1.6420 O   0  0  0  0  0  0  0  0  0  0  0  0
   14.6681    3.4505   -9.4272 N   0  0  0  0  0  0  0  0  0  0  0  0
   15.5109    3.5026  -10.1404 N   0  0  0  0  0  0  0  0  0  0  0  0
    3.9618   -0.2213   -2.8367 C   0  0  0  0  0  0  0  0  0  0  0  0
    5.1556    0.3812   -3.2303 C   0  0  0  0  0  0  0  0  0  0  0  0
    5.4618    0.5698   -4.5852 C   0  0  0  0  0  0  0  0  0  0  0  0
    4.5364    0.1375   -5.5493 C   0  0  0  0  0  0  0  0  0  0  0  0
    3.3385   -0.4664   -5.1798 C   0  0  0  0  0  0  0  0  0  0  0  0
    3.0631   -0.6382   -3.8202 C   0  0  0  0  0  0  0  0  0  0  0  0
    3.7328   -0.3797   -1.7888 H   0  0  0  0  0  0  0  0  0  0  0  0
    5.8614    0.7078   -2.4717 H   0  0  0  0  0  0  0  0  0  0  0  0
    4.7602    0.2735   -6.6040 H   0  0  0  0  0  0  0  0  0  0  0  0
    2.6310   -0.8118   -5.9256 H   0  0  0  0  0  0  0  0  0  0  0  0
    1.5250   -1.3926   -3.3384 S   0  0  0  0  0  0  0  0  0  0  0  0
    0.4523   -0.0932   -3.4101 O   0  0  0  0  0  0  0  0  0  0  0  0
    1.6205   -1.8310   -1.9499 O   0  0  0  0  0  0  0  0  0  0  0  0
    1.0423   -2.2576   -4.4010 O   0  0  0  0  0  0  0  0  0  0  0  0
    6.7689    1.1969   -5.0037 C   0  0  0  0  0  0  0  0  0  0  0  0
    7.5063    0.4258   -5.2576 H   0  0  0  0  0  0  0  0  0  0  0  0
    6.6429    1.8289   -5.8879 H   0  0  0  0  0  0  0  0  0  0  0  0
    7.1952    1.8074   -4.2031 H   0  0  0  0  0  0  0  0  0  0  0  0
  1  7  1  0  0  0  0
  2  8  1  0  0  0  0
  2  1  2  0  0  0  0
  3  2  1  0  0  0  0
  4  3  2  0  0  0  0
  4  5  1  0  0  0  0
  5  6  2  0  0  0  0
  6  1  1  0  0  0  0
  6 11  1  0  0  0  0
  9  4  1  0  0  0  0
 10  5  1  0  0  0  0
 11 13  2  0  0  0  0
 12 11  2  0  0  0  0
 15 14  3  0  0  0  0
 16 22  1  0  0  0  0
 17 16  1  0  0  0  0
 17 23  1  0  0  0  0
 18 17  2  0  0  0  0
 19 20  2  0  0  0  0
 19 18  1  0  0  0  0
 20 21  1  0  0  0  0
 21 26  1  0  0  0  0
 21 16  2  0  0  0  0
 24 19  1  0  0  0  0
 25 20  1  0  0  0  0
 26 28  2  0  0  0  0
 27 26  1  0  0  0  0
 27  3  1  0  0  0  0
 29 26  2  0  0  0  0
 30 18  1  0  0  0  0
 30 33  1  0  0  0  0
 31 30  1  0  0  0  0
 32 30  1  0  0  0  0
M  END
