Coordinates from ORCA-job 4-NO2-Ph-N2-OTs-B3LYPG-6-31G_dp-MTMO-d009-169-n800
 OpenBabel09051908313D

 33 34  0  0  0  0  0  0  0  0999 V2000
   -1.1936   -0.1973   -2.5968 C   0  0  0  0  0  0  0  0  0  0  0  0
   -0.3085    0.3665   -3.4754 C   0  0  0  0  0  0  0  0  0  0  0  0
    0.3860    1.6535   -3.1829 C   0  0  0  0  0  0  0  0  0  0  0  0
    0.0111    2.2275   -1.8581 C   0  0  0  0  0  0  0  0  0  0  0  0
   -0.8822    1.6092   -1.0258 C   0  0  0  0  0  0  0  0  0  0  0  0
   -1.4961    0.3995   -1.3682 C   0  0  0  0  0  0  0  0  0  0  0  0
   -1.6753   -1.1338   -2.8563 H   0  0  0  0  0  0  0  0  0  0  0  0
   -0.0646   -0.0797   -4.4324 H   0  0  0  0  0  0  0  0  0  0  0  0
    0.4932    3.1657   -1.6111 H   0  0  0  0  0  0  0  0  0  0  0  0
   -1.1250    2.0666   -0.0728 H   0  0  0  0  0  0  0  0  0  0  0  0
   -2.4271   -0.2220   -0.4686 N   0  0  0  0  0  0  0  0  0  0  0  0
   -2.6619    0.3434    0.6078 O   0  0  0  0  0  0  0  0  0  0  0  0
   -2.9459   -1.2915   -0.8160 O   0  0  0  0  0  0  0  0  0  0  0  0
    1.0229    2.0770   -3.7958 N   0  0  0  0  0  0  0  0  0  0  0  0
    1.7938    2.6100   -4.5618 N   0  0  0  0  0  0  0  0  0  0  0  0
    6.0482    0.7654   -5.2786 C   0  0  0  0  0  0  0  0  0  0  0  0
    7.1643    0.0976   -4.7831 C   0  0  0  0  0  0  0  0  0  0  0  0
    7.9102    0.6211   -3.7160 C   0  0  0  0  0  0  0  0  0  0  0  0
    7.5165    1.8470   -3.1565 C   0  0  0  0  0  0  0  0  0  0  0  0
    6.4043    2.5333   -3.6346 C   0  0  0  0  0  0  0  0  0  0  0  0
    5.6788    1.9778   -4.6913 C   0  0  0  0  0  0  0  0  0  0  0  0
    5.4800    0.3682   -6.1125 H   0  0  0  0  0  0  0  0  0  0  0  0
    7.4657   -0.8427   -5.2348 H   0  0  0  0  0  0  0  0  0  0  0  0
    8.0920    2.2714   -2.3387 H   0  0  0  0  0  0  0  0  0  0  0  0
    6.1076    3.4865   -3.2124 H   0  0  0  0  0  0  0  0  0  0  0  0
    4.2658    2.8454   -5.3204 S   0  0  0  0  0  0  0  0  0  0  0  0
    3.1326    2.1021   -4.2585 O   0  0  0  0  0  0  0  0  0  0  0  0
    3.9433    2.4009   -6.6688 O   0  0  0  0  0  0  0  0  0  0  0  0
    4.3229    4.2558   -4.9629 O   0  0  0  0  0  0  0  0  0  0  0  0
    9.0996   -0.1271   -3.1678 C   0  0  0  0  0  0  0  0  0  0  0  0
    8.7974   -0.7834   -2.3423 H   0  0  0  0  0  0  0  0  0  0  0  0
    9.5642   -0.7568   -3.9318 H   0  0  0  0  0  0  0  0  0  0  0  0
    9.8584    0.5575   -2.7789 H   0  0  0  0  0  0  0  0  0  0  0  0
  1  6  2  0  0  0  0
  2  3  2  0  0  0  0
  2  1  1  0  0  0  0
  3  4  1  0  0  0  0
  4  9  1  0  0  0  0
  4  5  2  0  0  0  0
  5 10  1  0  0  0  0
  6  5  1  0  0  0  0
  6 11  1  0  0  0  0
  7  1  1  0  0  0  0
  8  2  1  0  0  0  0
 11 12  2  0  0  0  0
 13 11  2  0  0  0  0
 14  3  1  0  0  0  0
 15 27  1  0  0  0  0
 15 14  1  0  0  0  0
 16 17  2  0  0  0  0
 16 21  1  0  0  0  0
 17 18  1  0  0  0  0
 18 30  1  0  0  0  0
 18 19  2  0  0  0  0
 19 24  1  0  0  0  0
 20 25  1  0  0  0  0
 20 19  1  0  0  0  0
 21 20  2  0  0  0  0
 22 16  1  0  0  0  0
 23 17  1  0  0  0  0
 26 29  2  0  0  0  0
 26 21  1  0  0  0  0
 26 27  1  0  0  0  0
 28 26  2  0  0  0  0
 30 33  1  0  0  0  0
 30 31  1  0  0  0  0
 32 30  1  0  0  0  0
M  RAD  2  14   2  15   2
M  END
