Coordinates from ORCA-job 4-NO2-Ph-N2-OTs-B3LYPG-6-31G_dp-MTMO-d009-169-n800
 OpenBabel09051908313D

 33 33  0  0  0  0  0  0  0  0999 V2000
    0.1579    1.1544   -0.1736 C   0  0  0  0  0  0  0  0  0  0  0  0
    0.3877    0.1941   -1.1533 C   0  0  0  0  0  0  0  0  0  0  0  0
    0.7620    0.6060   -2.4364 C   0  0  0  0  0  0  0  0  0  0  0  0
    0.9024    1.9601   -2.7552 C   0  0  0  0  0  0  0  0  0  0  0  0
    0.6651    2.9219   -1.7791 C   0  0  0  0  0  0  0  0  0  0  0  0
    0.2995    2.5028   -0.5007 C   0  0  0  0  0  0  0  0  0  0  0  0
   -0.1344    0.8788    0.8315 H   0  0  0  0  0  0  0  0  0  0  0  0
    0.2855   -0.8619   -0.9373 H   0  0  0  0  0  0  0  0  0  0  0  0
    1.1860    2.2403   -3.7631 H   0  0  0  0  0  0  0  0  0  0  0  0
    0.7593    3.9804   -1.9868 H   0  0  0  0  0  0  0  0  0  0  0  0
    0.0530    3.5172    0.5352 N   0  0  0  0  0  0  0  0  0  0  0  0
    0.1889    4.6991    0.2196 O   0  0  0  0  0  0  0  0  0  0  0  0
   -0.2725    3.1231    1.6543 O   0  0  0  0  0  0  0  0  0  0  0  0
   10.9392    1.1722   -7.3443 N   0  0  0  0  0  0  0  0  0  0  0  0
   11.9253    0.9779   -7.8041 N   0  0  0  0  0  0  0  0  0  0  0  0
    4.4346    0.2355   -3.0642 C   0  0  0  0  0  0  0  0  0  0  0  0
    5.4696    1.0520   -3.5187 C   0  0  0  0  0  0  0  0  0  0  0  0
    5.6557    1.2964   -4.8862 C   0  0  0  0  0  0  0  0  0  0  0  0
    4.7724    0.6990   -5.8007 C   0  0  0  0  0  0  0  0  0  0  0  0
    3.7333   -0.1198   -5.3704 C   0  0  0  0  0  0  0  0  0  0  0  0
    3.5744   -0.3418   -3.9990 C   0  0  0  0  0  0  0  0  0  0  0  0
    4.3023    0.0349   -2.0068 H   0  0  0  0  0  0  0  0  0  0  0  0
    6.1454    1.5028   -2.7975 H   0  0  0  0  0  0  0  0  0  0  0  0
    4.9043    0.8757   -6.8650 H   0  0  0  0  0  0  0  0  0  0  0  0
    3.0615   -0.5919   -6.0789 H   0  0  0  0  0  0  0  0  0  0  0  0
    2.2392   -1.3778   -3.4401 S   0  0  0  0  0  0  0  0  0  0  0  0
    0.9286   -0.3160   -3.4602 O   0  0  0  0  0  0  0  0  0  0  0  0
    2.4856   -1.7733   -2.0573 O   0  0  0  0  0  0  0  0  0  0  0  0
    1.8864   -2.3323   -4.4769 O   0  0  0  0  0  0  0  0  0  0  0  0
    6.7934    2.1600   -5.3730 C   0  0  0  0  0  0  0  0  0  0  0  0
    7.6173    1.5447   -5.7547 H   0  0  0  0  0  0  0  0  0  0  0  0
    6.4757    2.8150   -6.1905 H   0  0  0  0  0  0  0  0  0  0  0  0
    7.1938    2.7851   -4.5708 H   0  0  0  0  0  0  0  0  0  0  0  0
  1  7  1  0  0  0  0
  2  8  1  0  0  0  0
  2  1  2  0  0  0  0
  3  2  1  0  0  0  0
  4  3  2  0  0  0  0
  4  5  1  0  0  0  0
  5  6  2  0  0  0  0
  6  1  1  0  0  0  0
  6 11  1  0  0  0  0
  9  4  1  0  0  0  0
 10  5  1  0  0  0  0
 11 13  2  0  0  0  0
 12 11  2  0  0  0  0
 15 14  3  0  0  0  0
 16 22  1  0  0  0  0
 17 16  1  0  0  0  0
 17 23  1  0  0  0  0
 18 17  2  0  0  0  0
 19 20  2  0  0  0  0
 19 18  1  0  0  0  0
 20 21  1  0  0  0  0
 21 26  1  0  0  0  0
 21 16  2  0  0  0  0
 24 19  1  0  0  0  0
 25 20  1  0  0  0  0
 26 28  2  0  0  0  0
 27 26  1  0  0  0  0
 27  3  1  0  0  0  0
 29 26  2  0  0  0  0
 30 18  1  0  0  0  0
 30 33  1  0  0  0  0
 31 30  1  0  0  0  0
 32 30  1  0  0  0  0
M  END
