Coordinates from ORCA-job 4-NO2-Ph-N2-OTs-B3LYPG-6-31G_dp-MTMO-d009-169-n800
 OpenBabel09051908313D

 33 33  0  0  0  0  0  0  0  0999 V2000
    0.2330    1.1166   -0.1865 C   0  0  0  0  0  0  0  0  0  0  0  0
    0.4761    0.1605   -1.1670 C   0  0  0  0  0  0  0  0  0  0  0  0
    0.8188    0.5793   -2.4569 C   0  0  0  0  0  0  0  0  0  0  0  0
    0.9138    1.9360   -2.7813 C   0  0  0  0  0  0  0  0  0  0  0  0
    0.6627    2.8934   -1.8044 C   0  0  0  0  0  0  0  0  0  0  0  0
    0.3293    2.4676   -0.5193 C   0  0  0  0  0  0  0  0  0  0  0  0
   -0.0359    0.8356    0.8237 H   0  0  0  0  0  0  0  0  0  0  0  0
    0.4086   -0.8974   -0.9467 H   0  0  0  0  0  0  0  0  0  0  0  0
    1.1734    2.2216   -3.7942 H   0  0  0  0  0  0  0  0  0  0  0  0
    0.7218    3.9536   -2.0165 H   0  0  0  0  0  0  0  0  0  0  0  0
    0.0686    3.4775    0.5175 N   0  0  0  0  0  0  0  0  0  0  0  0
    0.1626    4.6619    0.1963 O   0  0  0  0  0  0  0  0  0  0  0  0
   -0.2264    3.0774    1.6430 O   0  0  0  0  0  0  0  0  0  0  0  0
   10.3094    0.8044   -6.9714 N   0  0  0  0  0  0  0  0  0  0  0  0
   11.2981    0.5509   -7.3950 N   0  0  0  0  0  0  0  0  0  0  0  0
    4.4925    0.2877   -3.0957 C   0  0  0  0  0  0  0  0  0  0  0  0
    5.5052    1.1324   -3.5484 C   0  0  0  0  0  0  0  0  0  0  0  0
    5.6768    1.3948   -4.9147 C   0  0  0  0  0  0  0  0  0  0  0  0
    4.8018    0.7861   -5.8296 C   0  0  0  0  0  0  0  0  0  0  0  0
    3.7848   -0.0611   -5.4011 C   0  0  0  0  0  0  0  0  0  0  0  0
    3.6400   -0.3003   -4.0311 C   0  0  0  0  0  0  0  0  0  0  0  0
    4.3712    0.0738   -2.0397 H   0  0  0  0  0  0  0  0  0  0  0  0
    6.1748    1.5920   -2.8269 H   0  0  0  0  0  0  0  0  0  0  0  0
    4.9226    0.9766   -6.8927 H   0  0  0  0  0  0  0  0  0  0  0  0
    3.1194   -0.5415   -6.1101 H   0  0  0  0  0  0  0  0  0  0  0  0
    2.3321   -1.3710   -3.4741 S   0  0  0  0  0  0  0  0  0  0  0  0
    0.9972   -0.3397   -3.4813 O   0  0  0  0  0  0  0  0  0  0  0  0
    2.5939   -1.7705   -2.0953 O   0  0  0  0  0  0  0  0  0  0  0  0
    1.9960   -2.3263   -4.5156 O   0  0  0  0  0  0  0  0  0  0  0  0
    6.7919    2.2885   -5.3989 C   0  0  0  0  0  0  0  0  0  0  0  0
    7.6383    1.6953   -5.7657 H   0  0  0  0  0  0  0  0  0  0  0  0
    6.4623    2.9253   -6.2259 H   0  0  0  0  0  0  0  0  0  0  0  0
    7.1639    2.9336   -4.5988 H   0  0  0  0  0  0  0  0  0  0  0  0
  1  7  1  0  0  0  0
  2  8  1  0  0  0  0
  2  1  2  0  0  0  0
  3  2  1  0  0  0  0
  4  3  2  0  0  0  0
  4  5  1  0  0  0  0
  5  6  2  0  0  0  0
  6  1  1  0  0  0  0
  6 11  1  0  0  0  0
  9  4  1  0  0  0  0
 10  5  1  0  0  0  0
 11 13  2  0  0  0  0
 12 11  2  0  0  0  0
 15 14  3  0  0  0  0
 16 22  1  0  0  0  0
 17 16  1  0  0  0  0
 17 23  1  0  0  0  0
 18 17  2  0  0  0  0
 19 20  2  0  0  0  0
 19 18  1  0  0  0  0
 20 21  1  0  0  0  0
 21 26  1  0  0  0  0
 21 16  2  0  0  0  0
 24 19  1  0  0  0  0
 25 20  1  0  0  0  0
 26 28  2  0  0  0  0
 27 26  1  0  0  0  0
 27  3  1  0  0  0  0
 29 26  2  0  0  0  0
 30 18  1  0  0  0  0
 30 33  1  0  0  0  0
 31 30  1  0  0  0  0
 32 30  1  0  0  0  0
M  END
