Coordinates from ORCA-job 4-NO2-Ph-N2-OTs-B3LYPG-6-31G_dp-MTMO-d009-169-n800
 OpenBabel09051908313D

 33 33  0  0  0  0  0  0  0  0999 V2000
    0.1463    1.1648   -0.1660 C   0  0  0  0  0  0  0  0  0  0  0  0
    0.3647    0.1986   -1.1424 C   0  0  0  0  0  0  0  0  0  0  0  0
    0.7385    0.6020   -2.4284 C   0  0  0  0  0  0  0  0  0  0  0  0
    0.8899    1.9534   -2.7531 C   0  0  0  0  0  0  0  0  0  0  0  0
    0.6643    2.9213   -1.7802 C   0  0  0  0  0  0  0  0  0  0  0  0
    0.2988    2.5105   -0.4991 C   0  0  0  0  0  0  0  0  0  0  0  0
   -0.1455    0.8959    0.8411 H   0  0  0  0  0  0  0  0  0  0  0  0
    0.2538   -0.8556   -0.9220 H   0  0  0  0  0  0  0  0  0  0  0  0
    1.1731    2.2270   -3.7631 H   0  0  0  0  0  0  0  0  0  0  0  0
    0.7674    3.9780   -1.9925 H   0  0  0  0  0  0  0  0  0  0  0  0
    0.0644    3.5313    0.5334 N   0  0  0  0  0  0  0  0  0  0  0  0
    0.2103    4.7106    0.2127 O   0  0  0  0  0  0  0  0  0  0  0  0
   -0.2615    3.1447    1.6550 O   0  0  0  0  0  0  0  0  0  0  0  0
   11.3119    1.2352   -7.5226 N   0  0  0  0  0  0  0  0  0  0  0  0
   12.2956    1.0465   -7.9897 N   0  0  0  0  0  0  0  0  0  0  0  0
    4.3990    0.2166   -3.0473 C   0  0  0  0  0  0  0  0  0  0  0  0
    5.4333    1.0359   -3.4981 C   0  0  0  0  0  0  0  0  0  0  0  0
    5.6184    1.2874   -4.8645 C   0  0  0  0  0  0  0  0  0  0  0  0
    4.7352    0.6940   -5.7817 C   0  0  0  0  0  0  0  0  0  0  0  0
    3.6968   -0.1276   -5.3551 C   0  0  0  0  0  0  0  0  0  0  0  0
    3.5387   -0.3565   -3.9847 C   0  0  0  0  0  0  0  0  0  0  0  0
    4.2669    0.0109   -1.9910 H   0  0  0  0  0  0  0  0  0  0  0  0
    6.1091    1.4836   -2.7750 H   0  0  0  0  0  0  0  0  0  0  0  0
    4.8666    0.8761   -6.8451 H   0  0  0  0  0  0  0  0  0  0  0  0
    3.0247   -0.5963   -6.0656 H   0  0  0  0  0  0  0  0  0  0  0  0
    2.2014   -1.3918   -3.4301 S   0  0  0  0  0  0  0  0  0  0  0  0
    0.8939   -0.3262   -3.4484 O   0  0  0  0  0  0  0  0  0  0  0  0
    2.4456   -1.7916   -2.0482 O   0  0  0  0  0  0  0  0  0  0  0  0
    1.8467   -2.3426   -4.4696 O   0  0  0  0  0  0  0  0  0  0  0  0
    6.7558    2.1534   -5.3473 C   0  0  0  0  0  0  0  0  0  0  0  0
    7.5816    1.5384   -5.7255 H   0  0  0  0  0  0  0  0  0  0  0  0
    6.4402    2.8074   -6.1664 H   0  0  0  0  0  0  0  0  0  0  0  0
    7.1526    2.7792   -4.5439 H   0  0  0  0  0  0  0  0  0  0  0  0
  1  7  1  0  0  0  0
  2  8  1  0  0  0  0
  2  1  2  0  0  0  0
  3  2  1  0  0  0  0
  4  3  2  0  0  0  0
  4  5  1  0  0  0  0
  5  6  2  0  0  0  0
  6  1  1  0  0  0  0
  6 11  1  0  0  0  0
  9  4  1  0  0  0  0
 10  5  1  0  0  0  0
 11 13  2  0  0  0  0
 12 11  2  0  0  0  0
 15 14  3  0  0  0  0
 16 22  1  0  0  0  0
 17 16  1  0  0  0  0
 17 23  1  0  0  0  0
 18 17  2  0  0  0  0
 19 20  2  0  0  0  0
 19 18  1  0  0  0  0
 20 21  1  0  0  0  0
 21 26  1  0  0  0  0
 21 16  2  0  0  0  0
 24 19  1  0  0  0  0
 25 20  1  0  0  0  0
 26 28  2  0  0  0  0
 27 26  1  0  0  0  0
 27  3  1  0  0  0  0
 29 26  2  0  0  0  0
 30 18  1  0  0  0  0
 30 33  1  0  0  0  0
 31 30  1  0  0  0  0
 32 30  1  0  0  0  0
M  END
