Coordinates from ORCA-job 4-NO2-Ph-N2-OTs-B3LYPG-6-31G_dp-MTMO-d009-169-n800
 OpenBabel09051908313D

 33 33  0  0  0  0  0  0  0  0999 V2000
    0.1477    1.1639   -0.1667 C   0  0  0  0  0  0  0  0  0  0  0  0
    0.3671    0.1983   -1.1434 C   0  0  0  0  0  0  0  0  0  0  0  0
    0.7405    0.6024   -2.4293 C   0  0  0  0  0  0  0  0  0  0  0  0
    0.8905    1.9541   -2.7536 C   0  0  0  0  0  0  0  0  0  0  0  0
    0.6639    2.9214   -1.7804 C   0  0  0  0  0  0  0  0  0  0  0  0
    0.2988    2.5099   -0.4993 C   0  0  0  0  0  0  0  0  0  0  0  0
   -0.1437    0.8945    0.8404 H   0  0  0  0  0  0  0  0  0  0  0  0
    0.2573   -0.8561   -0.9233 H   0  0  0  0  0  0  0  0  0  0  0  0
    1.1734    2.2283   -3.7634 H   0  0  0  0  0  0  0  0  0  0  0  0
    0.7658    3.9784   -1.9923 H   0  0  0  0  0  0  0  0  0  0  0  0
    0.0635    3.5301    0.5334 N   0  0  0  0  0  0  0  0  0  0  0  0
    0.2080    4.7097    0.2130 O   0  0  0  0  0  0  0  0  0  0  0  0
   -0.2619    3.1429    1.6550 O   0  0  0  0  0  0  0  0  0  0  0  0
   11.2774    1.2297   -7.5073 N   0  0  0  0  0  0  0  0  0  0  0  0
   12.2615    1.0415   -7.9741 N   0  0  0  0  0  0  0  0  0  0  0  0
    4.4020    0.2183   -3.0486 C   0  0  0  0  0  0  0  0  0  0  0  0
    5.4365    1.0373   -3.4996 C   0  0  0  0  0  0  0  0  0  0  0  0
    5.6220    1.2880   -4.8661 C   0  0  0  0  0  0  0  0  0  0  0  0
    4.7389    0.6943   -5.7832 C   0  0  0  0  0  0  0  0  0  0  0  0
    3.7003   -0.1269   -5.3564 C   0  0  0  0  0  0  0  0  0  0  0  0
    3.5418   -0.3551   -3.9860 C   0  0  0  0  0  0  0  0  0  0  0  0
    4.2696    0.0131   -1.9922 H   0  0  0  0  0  0  0  0  0  0  0  0
    6.1122    1.4852   -2.7765 H   0  0  0  0  0  0  0  0  0  0  0  0
    4.8706    0.8759   -6.8466 H   0  0  0  0  0  0  0  0  0  0  0  0
    3.0283   -0.5959   -6.0669 H   0  0  0  0  0  0  0  0  0  0  0  0
    2.2046   -1.3905   -3.4312 S   0  0  0  0  0  0  0  0  0  0  0  0
    0.8969   -0.3252   -3.4496 O   0  0  0  0  0  0  0  0  0  0  0  0
    2.4489   -1.7901   -2.0492 O   0  0  0  0  0  0  0  0  0  0  0  0
    1.8501   -2.3415   -4.4706 O   0  0  0  0  0  0  0  0  0  0  0  0
    6.7597    2.1536   -5.3490 C   0  0  0  0  0  0  0  0  0  0  0  0
    7.5851    1.5383   -5.7276 H   0  0  0  0  0  0  0  0  0  0  0  0
    6.4441    2.8078   -6.1679 H   0  0  0  0  0  0  0  0  0  0  0  0
    7.1570    2.7790   -4.5456 H   0  0  0  0  0  0  0  0  0  0  0  0
  1  7  1  0  0  0  0
  2  8  1  0  0  0  0
  2  1  2  0  0  0  0
  3  2  1  0  0  0  0
  4  3  2  0  0  0  0
  4  5  1  0  0  0  0
  5  6  2  0  0  0  0
  6  1  1  0  0  0  0
  6 11  1  0  0  0  0
  9  4  1  0  0  0  0
 10  5  1  0  0  0  0
 11 13  2  0  0  0  0
 12 11  2  0  0  0  0
 15 14  3  0  0  0  0
 16 22  1  0  0  0  0
 17 16  1  0  0  0  0
 17 23  1  0  0  0  0
 18 17  2  0  0  0  0
 19 20  2  0  0  0  0
 19 18  1  0  0  0  0
 20 21  1  0  0  0  0
 21 26  1  0  0  0  0
 21 16  2  0  0  0  0
 24 19  1  0  0  0  0
 25 20  1  0  0  0  0
 26 28  2  0  0  0  0
 27 26  1  0  0  0  0
 27  3  1  0  0  0  0
 29 26  2  0  0  0  0
 30 18  1  0  0  0  0
 30 33  1  0  0  0  0
 31 30  1  0  0  0  0
 32 30  1  0  0  0  0
M  END
