Coordinates from ORCA-job 4-NO2-Ph-N2-OTs-B3LYPG-6-31G_dp-MTMO-d009-169-n800
 OpenBabel09051908313D

 33 33  0  0  0  0  0  0  0  0999 V2000
    0.1354    1.1691   -0.1559 C   0  0  0  0  0  0  0  0  0  0  0  0
    0.3472    0.1996   -1.1305 C   0  0  0  0  0  0  0  0  0  0  0  0
    0.7179    0.5982   -2.4188 C   0  0  0  0  0  0  0  0  0  0  0  0
    0.8726    1.9482   -2.7478 C   0  0  0  0  0  0  0  0  0  0  0  0
    0.6537    2.9194   -1.7768 C   0  0  0  0  0  0  0  0  0  0  0  0
    0.2913    2.5134   -0.4932 C   0  0  0  0  0  0  0  0  0  0  0  0
   -0.1537    0.9040    0.8530 H   0  0  0  0  0  0  0  0  0  0  0  0
    0.2336   -0.8537   -0.9069 H   0  0  0  0  0  0  0  0  0  0  0  0
    1.1533    2.2180   -3.7594 H   0  0  0  0  0  0  0  0  0  0  0  0
    0.7596    3.9753   -1.9922 H   0  0  0  0  0  0  0  0  0  0  0  0
    0.0640    3.5378    0.5373 N   0  0  0  0  0  0  0  0  0  0  0  0
    0.2126    4.7158    0.2128 O   0  0  0  0  0  0  0  0  0  0  0  0
   -0.2593    3.1554    1.6611 O   0  0  0  0  0  0  0  0  0  0  0  0
   11.6563    1.2641   -7.6751 N   0  0  0  0  0  0  0  0  0  0  0  0
   12.6333    1.0632   -8.1512 N   0  0  0  0  0  0  0  0  0  0  0  0
    4.3715    0.2072   -3.0355 C   0  0  0  0  0  0  0  0  0  0  0  0
    5.4040    1.0294   -3.4847 C   0  0  0  0  0  0  0  0  0  0  0  0
    5.5865    1.2864   -4.8504 C   0  0  0  0  0  0  0  0  0  0  0  0
    4.7028    0.6954   -5.7686 C   0  0  0  0  0  0  0  0  0  0  0  0
    3.6660   -0.1291   -5.3435 C   0  0  0  0  0  0  0  0  0  0  0  0
    3.5104   -0.3633   -3.9738 C   0  0  0  0  0  0  0  0  0  0  0  0
    4.2410   -0.0025   -1.9797 H   0  0  0  0  0  0  0  0  0  0  0  0
    6.0804    1.4752   -2.7610 H   0  0  0  0  0  0  0  0  0  0  0  0
    4.8323    0.8818   -6.8315 H   0  0  0  0  0  0  0  0  0  0  0  0
    2.9932   -0.5957   -6.0547 H   0  0  0  0  0  0  0  0  0  0  0  0
    2.1734   -1.3999   -3.4207 S   0  0  0  0  0  0  0  0  0  0  0  0
    0.8666   -0.3336   -3.4365 O   0  0  0  0  0  0  0  0  0  0  0  0
    2.4181   -1.8024   -2.0397 O   0  0  0  0  0  0  0  0  0  0  0  0
    1.8178   -2.3485   -4.4619 O   0  0  0  0  0  0  0  0  0  0  0  0
    6.7226    2.1551   -5.3315 C   0  0  0  0  0  0  0  0  0  0  0  0
    7.5508    1.5413   -5.7061 H   0  0  0  0  0  0  0  0  0  0  0  0
    6.4075    2.8067   -6.1527 H   0  0  0  0  0  0  0  0  0  0  0  0
    7.1154    2.7833   -4.5281 H   0  0  0  0  0  0  0  0  0  0  0  0
  1  7  1  0  0  0  0
  2  8  1  0  0  0  0
  2  1  2  0  0  0  0
  3  2  1  0  0  0  0
  4  3  2  0  0  0  0
  4  5  1  0  0  0  0
  5  6  2  0  0  0  0
  6  1  1  0  0  0  0
  6 11  1  0  0  0  0
  9  4  1  0  0  0  0
 10  5  1  0  0  0  0
 11 13  2  0  0  0  0
 12 11  2  0  0  0  0
 15 14  3  0  0  0  0
 16 22  1  0  0  0  0
 17 16  1  0  0  0  0
 17 23  1  0  0  0  0
 18 17  2  0  0  0  0
 19 20  2  0  0  0  0
 19 18  1  0  0  0  0
 20 21  1  0  0  0  0
 21 26  1  0  0  0  0
 21 16  2  0  0  0  0
 24 19  1  0  0  0  0
 25 20  1  0  0  0  0
 26 28  2  0  0  0  0
 27 26  1  0  0  0  0
 27  3  1  0  0  0  0
 29 26  2  0  0  0  0
 30 18  1  0  0  0  0
 30 33  1  0  0  0  0
 31 30  1  0  0  0  0
 32 30  1  0  0  0  0
M  END
