Coordinates from ORCA-job 4-NO2-Ph-N2-OTs-B3LYPG-6-31G_dp-MTMO-d009-169-n800
 OpenBabel09051908313D

 33 33  0  0  0  0  0  0  0  0999 V2000
   -0.0217    1.2240   -0.7280 C   0  0  0  0  0  0  0  0  0  0  0  0
    0.3755    0.2584   -1.6473 C   0  0  0  0  0  0  0  0  0  0  0  0
    0.9862    0.6628   -2.8392 C   0  0  0  0  0  0  0  0  0  0  0  0
    1.1955    2.0147   -3.1279 C   0  0  0  0  0  0  0  0  0  0  0  0
    0.7902    2.9817   -2.2143 C   0  0  0  0  0  0  0  0  0  0  0  0
    0.1909    2.5700   -1.0245 C   0  0  0  0  0  0  0  0  0  0  0  0
   -0.4967    0.9533    0.2063 H   0  0  0  0  0  0  0  0  0  0  0  0
    0.2242   -0.7958   -1.4528 H   0  0  0  0  0  0  0  0  0  0  0  0
    1.6632    2.2893   -4.0665 H   0  0  0  0  0  0  0  0  0  0  0  0
    0.9317    4.0386   -2.4026 H   0  0  0  0  0  0  0  0  0  0  0  0
   -0.2328    3.5896   -0.0534 N   0  0  0  0  0  0  0  0  0  0  0  0
   -0.0323    4.7694   -0.3411 O   0  0  0  0  0  0  0  0  0  0  0  0
   -0.7602    3.2018    0.9885 O   0  0  0  0  0  0  0  0  0  0  0  0
    6.5983    0.8965   -8.8806 N   0  0  0  0  0  0  0  0  0  0  0  0
    6.9145    0.7814   -9.9331 N   0  0  0  0  0  0  0  0  0  0  0  0
    4.6586    0.1537   -2.5764 C   0  0  0  0  0  0  0  0  0  0  0  0
    5.7877    0.9561   -2.7340 C   0  0  0  0  0  0  0  0  0  0  0  0
    6.2911    1.2596   -4.0063 C   0  0  0  0  0  0  0  0  0  0  0  0
    5.6333    0.7381   -5.1327 C   0  0  0  0  0  0  0  0  0  0  0  0
    4.5060   -0.0661   -4.9985 C   0  0  0  0  0  0  0  0  0  0  0  0
    4.0285   -0.3493   -3.7153 C   0  0  0  0  0  0  0  0  0  0  0  0
    4.2780   -0.0916   -1.5914 H   0  0  0  0  0  0  0  0  0  0  0  0
    6.2867    1.3498   -1.8532 H   0  0  0  0  0  0  0  0  0  0  0  0
    6.0114    0.9602   -6.1266 H   0  0  0  0  0  0  0  0  0  0  0  0
    4.0075   -0.4804   -5.8678 H   0  0  0  0  0  0  0  0  0  0  0  0
    2.5777   -1.3640   -3.5374 S   0  0  0  0  0  0  0  0  0  0  0  0
    1.3332   -0.2603   -3.8153 O   0  0  0  0  0  0  0  0  0  0  0  0
    2.4816   -1.8255   -2.1564 O   0  0  0  0  0  0  0  0  0  0  0  0
    2.4569   -2.2634   -4.6720 O   0  0  0  0  0  0  0  0  0  0  0  0
    7.5309    2.1043   -4.1669 C   0  0  0  0  0  0  0  0  0  0  0  0
    7.4391    2.7908   -5.0141 H   0  0  0  0  0  0  0  0  0  0  0  0
    7.7348    2.6931   -3.2688 H   0  0  0  0  0  0  0  0  0  0  0  0
    8.4086    1.4741   -4.3545 H   0  0  0  0  0  0  0  0  0  0  0  0
  1  7  1  0  0  0  0
  2  8  1  0  0  0  0
  2  1  2  0  0  0  0
  3  2  1  0  0  0  0
  4  3  2  0  0  0  0
  4  5  1  0  0  0  0
  5  6  2  0  0  0  0
  6  1  1  0  0  0  0
  6 11  1  0  0  0  0
  9  4  1  0  0  0  0
 10  5  1  0  0  0  0
 11 13  2  0  0  0  0
 12 11  2  0  0  0  0
 15 14  3  0  0  0  0
 16 22  1  0  0  0  0
 17 16  1  0  0  0  0
 17 23  1  0  0  0  0
 18 17  2  0  0  0  0
 19 20  2  0  0  0  0
 19 18  1  0  0  0  0
 20 21  1  0  0  0  0
 21 26  1  0  0  0  0
 21 16  2  0  0  0  0
 24 19  1  0  0  0  0
 25 20  1  0  0  0  0
 26 28  2  0  0  0  0
 27 26  1  0  0  0  0
 27  3  1  0  0  0  0
 29 26  2  0  0  0  0
 30 18  1  0  0  0  0
 30 32  1  0  0  0  0
 31 30  1  0  0  0  0
 33 30  1  0  0  0  0
M  END
