Coordinates from ORCA-job 4-NO2-Ph-N2-OTs-B3LYPG-6-31G_dp-MTMO-d009-169-n800
 OpenBabel09051908313D

 33 33  0  0  0  0  0  0  0  0999 V2000
   -0.0745    0.9175   -1.1321 C   0  0  0  0  0  0  0  0  0  0  0  0
    0.4383    0.1752   -2.1910 C   0  0  0  0  0  0  0  0  0  0  0  0
    1.1985    0.8221   -3.1708 C   0  0  0  0  0  0  0  0  0  0  0  0
    1.4451    2.1971   -3.1126 C   0  0  0  0  0  0  0  0  0  0  0  0
    0.9274    2.9421   -2.0584 C   0  0  0  0  0  0  0  0  0  0  0  0
    0.1781    2.2883   -1.0811 C   0  0  0  0  0  0  0  0  0  0  0  0
   -0.6677    0.4563   -0.3524 H   0  0  0  0  0  0  0  0  0  0  0  0
    0.2619   -0.8904   -2.2656 H   0  0  0  0  0  0  0  0  0  0  0  0
    2.0306    2.6638   -3.8968 H   0  0  0  0  0  0  0  0  0  0  0  0
    1.0948    4.0086   -1.9773 H   0  0  0  0  0  0  0  0  0  0  0  0
   -0.3644    3.0716    0.0390 N   0  0  0  0  0  0  0  0  0  0  0  0
   -0.1193    4.2777    0.0623 O   0  0  0  0  0  0  0  0  0  0  0  0
   -1.0277    2.4738    0.8852 O   0  0  0  0  0  0  0  0  0  0  0  0
    4.0547   -1.2926   -8.4051 N   0  0  0  0  0  0  0  0  0  0  0  0
    3.4760   -2.1262   -8.8423 N   0  0  0  0  0  0  0  0  0  0  0  0
    4.8140    0.3924   -2.6942 C   0  0  0  0  0  0  0  0  0  0  0  0
    5.9278    1.2239   -2.5990 C   0  0  0  0  0  0  0  0  0  0  0  0
    6.5802    1.6981   -3.7463 C   0  0  0  0  0  0  0  0  0  0  0  0
    6.0877    1.3168   -5.0041 C   0  0  0  0  0  0  0  0  0  0  0  0
    4.9755    0.4883   -5.1247 C   0  0  0  0  0  0  0  0  0  0  0  0
    4.3474    0.0356   -3.9614 C   0  0  0  0  0  0  0  0  0  0  0  0
    4.3209    0.0138   -1.8061 H   0  0  0  0  0  0  0  0  0  0  0  0
    6.2974    1.5064   -1.6173 H   0  0  0  0  0  0  0  0  0  0  0  0
    6.5851    1.6712   -5.9026 H   0  0  0  0  0  0  0  0  0  0  0  0
    4.6089    0.1839   -6.0987 H   0  0  0  0  0  0  0  0  0  0  0  0
    2.9080   -1.0009   -4.1017 S   0  0  0  0  0  0  0  0  0  0  0  0
    1.6686    0.1304   -4.2787 O   0  0  0  0  0  0  0  0  0  0  0  0
    2.7004   -1.7101   -2.8435 O   0  0  0  0  0  0  0  0  0  0  0  0
    2.9053   -1.6762   -5.3886 O   0  0  0  0  0  0  0  0  0  0  0  0
    7.8045    2.5722   -3.6320 C   0  0  0  0  0  0  0  0  0  0  0  0
    7.8986    3.2439   -4.4901 H   0  0  0  0  0  0  0  0  0  0  0  0
    7.7808    3.1784   -2.7221 H   0  0  0  0  0  0  0  0  0  0  0  0
    8.7151    1.9618   -3.5943 H   0  0  0  0  0  0  0  0  0  0  0  0
  1  6  1  0  0  0  0
  1  7  1  0  0  0  0
  2  1  2  0  0  0  0
  3  4  2  0  0  0  0
  3  2  1  0  0  0  0
  4  5  1  0  0  0  0
  5 10  1  0  0  0  0
  5  6  2  0  0  0  0
  6 11  1  0  0  0  0
  8  2  1  0  0  0  0
  9  4  1  0  0  0  0
 11 12  2  0  0  0  0
 11 13  2  0  0  0  0
 15 14  3  0  0  0  0
 16 17  1  0  0  0  0
 16 22  1  0  0  0  0
 17 23  1  0  0  0  0
 18 30  1  0  0  0  0
 18 17  2  0  0  0  0
 19 18  1  0  0  0  0
 20 19  2  0  0  0  0
 20 21  1  0  0  0  0
 21 16  2  0  0  0  0
 24 19  1  0  0  0  0
 25 20  1  0  0  0  0
 26 21  1  0  0  0  0
 26 28  2  0  0  0  0
 27 26  1  0  0  0  0
 27  3  1  0  0  0  0
 29 26  2  0  0  0  0
 30 33  1  0  0  0  0
 30 32  1  0  0  0  0
 31 30  1  0  0  0  0
M  END
