Coordinates from ORCA-job 4-NO2-Ph-N2-OTs-B3LYPG-6-31G_dp-MTMO-d009-169-n800
 OpenBabel09051908313D

 33 32  0  0  0  0  0  0  0  0999 V2000
    0.7989    1.1351   -1.6473 C   0  0  0  0  0  0  0  0  0  0  0  0
    0.8005    0.7237   -2.9871 C   0  0  0  0  0  0  0  0  0  0  0  0
   -0.0072    1.2900   -3.7693 C   0  0  0  0  0  0  0  0  0  0  0  0
   -0.9556    2.2739   -3.6880 C   0  0  0  0  0  0  0  0  0  0  0  0
   -0.9872    2.7199   -2.3526 C   0  0  0  0  0  0  0  0  0  0  0  0
   -0.1329    2.1578   -1.3842 C   0  0  0  0  0  0  0  0  0  0  0  0
    1.4307    0.7430   -0.8607 H   0  0  0  0  0  0  0  0  0  0  0  0
    2.1410   -0.5800   -3.7102 H   0  0  0  0  0  0  0  0  0  0  0  0
   -1.5865    2.6650   -4.4747 H   0  0  0  0  0  0  0  0  0  0  0  0
   -1.6732    3.5034   -2.0523 H   0  0  0  0  0  0  0  0  0  0  0  0
   -0.2192    2.6777   -0.0054 N   0  0  0  0  0  0  0  0  0  0  0  0
   -1.0397    3.5650    0.2229 O   0  0  0  0  0  0  0  0  0  0  0  0
    0.5388    2.1888    0.8295 O   0  0  0  0  0  0  0  0  0  0  0  0
   -0.2581    0.6267   -6.3145 N   0  0  0  0  0  0  0  0  0  0  0  0
    0.0753   -0.0097   -7.1539 N   0  0  0  0  0  0  0  0  0  0  0  0
    5.1215    1.4699   -4.1366 C   0  0  0  0  0  0  0  0  0  0  0  0
    6.2204    2.0437   -3.4978 C   0  0  0  0  0  0  0  0  0  0  0  0
    7.3217    1.2679   -3.1123 C   0  0  0  0  0  0  0  0  0  0  0  0
    7.2994   -0.1090   -3.3862 C   0  0  0  0  0  0  0  0  0  0  0  0
    6.2129   -0.6999   -4.0244 C   0  0  0  0  0  0  0  0  0  0  0  0
    5.1271    0.0988   -4.3914 C   0  0  0  0  0  0  0  0  0  0  0  0
    4.2759    2.0737   -4.4476 H   0  0  0  0  0  0  0  0  0  0  0  0
    6.2229    3.1118   -3.2979 H   0  0  0  0  0  0  0  0  0  0  0  0
    8.1468   -0.7255   -3.0978 H   0  0  0  0  0  0  0  0  0  0  0  0
    6.2042   -1.7607   -4.2492 H   0  0  0  0  0  0  0  0  0  0  0  0
    3.7187   -0.6549   -5.1875 S   0  0  0  0  0  0  0  0  0  0  0  0
    2.9236    0.3978   -5.8258 O   0  0  0  0  0  0  0  0  0  0  0  0
    2.8532   -1.2286   -3.9296 O   0  0  0  0  0  0  0  0  0  0  0  0
    4.1723   -1.8261   -5.9233 O   0  0  0  0  0  0  0  0  0  0  0  0
    8.5187    1.8968   -2.4408 C   0  0  0  0  0  0  0  0  0  0  0  0
    9.3526    2.0026   -3.1456 H   0  0  0  0  0  0  0  0  0  0  0  0
    8.2850    2.8924   -2.0552 H   0  0  0  0  0  0  0  0  0  0  0  0
    8.8758    1.2838   -1.6073 H   0  0  0  0  0  0  0  0  0  0  0  0
  1  6  1  0  0  0  0
  1  7  1  0  0  0  0
  2  1  2  0  0  0  0
  3  4  2  0  0  0  0
  3  2  1  0  0  0  0
  4  5  1  0  0  0  0
  5 10  1  0  0  0  0
  5  6  2  0  0  0  0
  6 11  1  0  0  0  0
  9  4  1  0  0  0  0
 11 12  2  0  0  0  0
 11 13  2  0  0  0  0
 15 14  3  0  0  0  0
 16 17  1  0  0  0  0
 17 23  1  0  0  0  0
 17 18  2  0  0  0  0
 18 30  1  0  0  0  0
 19 18  1  0  0  0  0
 19 24  1  0  0  0  0
 20 19  2  0  0  0  0
 21 16  2  0  0  0  0
 21 20  1  0  0  0  0
 22 16  1  0  0  0  0
 25 20  1  0  0  0  0
 26 21  1  0  0  0  0
 26 28  1  0  0  0  0
 27 26  2  0  0  0  0
 28  8  1  0  0  0  0
 29 26  2  0  0  0  0
 30 32  1  0  0  0  0
 30 33  1  0  0  0  0
 31 30  1  0  0  0  0
M  RAD  2   2   2   3   2
M  END
