Coordinates from ORCA-job 4-NO2-Ph-N2-OTs-B3LYPG-6-31G_dp-MTMO-d009-169-n800
 OpenBabel09051908313D

 33 33  0  0  0  0  0  0  0  0999 V2000
    0.1694    1.1493   -0.1817 C   0  0  0  0  0  0  0  0  0  0  0  0
    0.4040    0.1913   -1.1624 C   0  0  0  0  0  0  0  0  0  0  0  0
    0.7798    0.6064   -2.4442 C   0  0  0  0  0  0  0  0  0  0  0  0
    0.9170    1.9614   -2.7603 C   0  0  0  0  0  0  0  0  0  0  0  0
    0.6750    2.9209   -1.7832 C   0  0  0  0  0  0  0  0  0  0  0  0
    0.3078    2.4986   -0.5063 C   0  0  0  0  0  0  0  0  0  0  0  0
   -0.1242    0.8712    0.8224 H   0  0  0  0  0  0  0  0  0  0  0  0
    0.3044   -0.8653   -0.9483 H   0  0  0  0  0  0  0  0  0  0  0  0
    1.2019    2.2440   -3.7673 H   0  0  0  0  0  0  0  0  0  0  0  0
    0.7665    3.9800   -1.9891 H   0  0  0  0  0  0  0  0  0  0  0  0
    0.0562    3.5106    0.5307 N   0  0  0  0  0  0  0  0  0  0  0  0
    0.1895    4.6934    0.2174 O   0  0  0  0  0  0  0  0  0  0  0  0
   -0.2705    3.1138    1.6485 O   0  0  0  0  0  0  0  0  0  0  0  0
   10.6690    1.1359   -7.2151 N   0  0  0  0  0  0  0  0  0  0  0  0
   11.6592    0.9427   -7.6664 N   0  0  0  0  0  0  0  0  0  0  0  0
    4.4572    0.2434   -3.0743 C   0  0  0  0  0  0  0  0  0  0  0  0
    5.4914    1.0602   -3.5301 C   0  0  0  0  0  0  0  0  0  0  0  0
    5.6773    1.3030   -4.8980 C   0  0  0  0  0  0  0  0  0  0  0  0
    4.7945    0.7033   -5.8116 C   0  0  0  0  0  0  0  0  0  0  0  0
    3.7561   -0.1159   -5.3800 C   0  0  0  0  0  0  0  0  0  0  0  0
    3.5974   -0.3360   -4.0083 C   0  0  0  0  0  0  0  0  0  0  0  0
    4.3252    0.0441   -2.0167 H   0  0  0  0  0  0  0  0  0  0  0  0
    6.1667    1.5127   -2.8095 H   0  0  0  0  0  0  0  0  0  0  0  0
    4.9261    0.8786   -6.8761 H   0  0  0  0  0  0  0  0  0  0  0  0
    3.0848   -0.5897   -6.0879 H   0  0  0  0  0  0  0  0  0  0  0  0
    2.2637   -1.3731   -3.4478 S   0  0  0  0  0  0  0  0  0  0  0  0
    0.9513   -0.3133   -3.4692 O   0  0  0  0  0  0  0  0  0  0  0  0
    2.5107   -1.7665   -2.0646 O   0  0  0  0  0  0  0  0  0  0  0  0
    1.9123   -2.3295   -4.4833 O   0  0  0  0  0  0  0  0  0  0  0  0
    6.8134    2.1680   -5.3859 C   0  0  0  0  0  0  0  0  0  0  0  0
    7.6382    1.5547   -5.7689 H   0  0  0  0  0  0  0  0  0  0  0  0
    6.4935    2.8227   -6.2028 H   0  0  0  0  0  0  0  0  0  0  0  0
    7.2134    2.7938   -4.5840 H   0  0  0  0  0  0  0  0  0  0  0  0
  1  7  1  0  0  0  0
  2  8  1  0  0  0  0
  2  1  2  0  0  0  0
  3  2  1  0  0  0  0
  4  3  2  0  0  0  0
  4  5  1  0  0  0  0
  5  6  2  0  0  0  0
  6  1  1  0  0  0  0
  6 11  1  0  0  0  0
  9  4  1  0  0  0  0
 10  5  1  0  0  0  0
 11 13  2  0  0  0  0
 12 11  2  0  0  0  0
 15 14  3  0  0  0  0
 16 22  1  0  0  0  0
 17 16  1  0  0  0  0
 17 23  1  0  0  0  0
 18 17  2  0  0  0  0
 19 20  2  0  0  0  0
 19 18  1  0  0  0  0
 20 21  1  0  0  0  0
 21 26  1  0  0  0  0
 21 16  2  0  0  0  0
 24 19  1  0  0  0  0
 25 20  1  0  0  0  0
 26 28  2  0  0  0  0
 27 26  1  0  0  0  0
 27  3  1  0  0  0  0
 29 26  2  0  0  0  0
 30 18  1  0  0  0  0
 30 33  1  0  0  0  0
 31 30  1  0  0  0  0
 32 30  1  0  0  0  0
M  END
