Coordinates from ORCA-job 4-NO2-Ph-N2-OTs-B3LYPG-6-31G_dp-MTMO-d009-169-n800
 OpenBabel09051908313D

 33 32  0  0  0  0  0  0  0  0999 V2000
    0.8772    1.1476   -1.7536 C   0  0  0  0  0  0  0  0  0  0  0  0
    0.8152    0.7233   -3.0908 C   0  0  0  0  0  0  0  0  0  0  0  0
   -0.0493    1.2870   -3.8173 C   0  0  0  0  0  0  0  0  0  0  0  0
   -1.0031    2.2585   -3.6832 C   0  0  0  0  0  0  0  0  0  0  0  0
   -0.9644    2.7093   -2.3504 C   0  0  0  0  0  0  0  0  0  0  0  0
   -0.0477    2.1590   -1.4344 C   0  0  0  0  0  0  0  0  0  0  0  0
    1.5586    0.7651   -1.0040 H   0  0  0  0  0  0  0  0  0  0  0  0
    2.1216   -0.5695   -3.7717 H   0  0  0  0  0  0  0  0  0  0  0  0
   -1.6821    2.6387   -4.4347 H   0  0  0  0  0  0  0  0  0  0  0  0
   -1.6410    3.4856   -2.0131 H   0  0  0  0  0  0  0  0  0  0  0  0
   -0.0576    2.6806   -0.0535 N   0  0  0  0  0  0  0  0  0  0  0  0
   -0.8713    3.5612    0.2209 O   0  0  0  0  0  0  0  0  0  0  0  0
    0.7522    2.2003    0.7364 O   0  0  0  0  0  0  0  0  0  0  0  0
   -0.2898    0.6206   -6.1751 N   0  0  0  0  0  0  0  0  0  0  0  0
    0.0678   -0.0313   -6.9928 N   0  0  0  0  0  0  0  0  0  0  0  0
    5.0919    1.4690   -4.1466 C   0  0  0  0  0  0  0  0  0  0  0  0
    6.1730    2.0460   -3.4810 C   0  0  0  0  0  0  0  0  0  0  0  0
    7.2671    1.2736   -3.0691 C   0  0  0  0  0  0  0  0  0  0  0  0
    7.2558   -0.1032   -3.3441 C   0  0  0  0  0  0  0  0  0  0  0  0
    6.1868   -0.6972   -4.0086 C   0  0  0  0  0  0  0  0  0  0  0  0
    5.1077    0.0980   -4.4016 C   0  0  0  0  0  0  0  0  0  0  0  0
    4.2520    2.0701   -4.4776 H   0  0  0  0  0  0  0  0  0  0  0  0
    6.1672    3.1141   -3.2805 H   0  0  0  0  0  0  0  0  0  0  0  0
    8.0980   -0.7171   -3.0355 H   0  0  0  0  0  0  0  0  0  0  0  0
    6.1867   -1.7581   -4.2338 H   0  0  0  0  0  0  0  0  0  0  0  0
    3.7200   -0.6605   -5.2300 S   0  0  0  0  0  0  0  0  0  0  0  0
    2.9425    0.3906   -5.8926 O   0  0  0  0  0  0  0  0  0  0  0  0
    2.8244   -1.2318   -3.9950 O   0  0  0  0  0  0  0  0  0  0  0  0
    4.1935   -1.8331   -5.9511 O   0  0  0  0  0  0  0  0  0  0  0  0
    8.4456    1.9065   -2.3692 C   0  0  0  0  0  0  0  0  0  0  0  0
    9.2912    2.0273   -3.0573 H   0  0  0  0  0  0  0  0  0  0  0  0
    8.1954    2.8960   -1.9783 H   0  0  0  0  0  0  0  0  0  0  0  0
    8.7931    1.2886   -1.5353 H   0  0  0  0  0  0  0  0  0  0  0  0
  1  6  1  0  0  0  0
  1  7  1  0  0  0  0
  2  1  2  0  0  0  0
  3  4  2  0  0  0  0
  3  2  1  0  0  0  0
  4  5  1  0  0  0  0
  5 10  1  0  0  0  0
  5  6  2  0  0  0  0
  6 11  1  0  0  0  0
  9  4  1  0  0  0  0
 11 12  2  0  0  0  0
 11 13  2  0  0  0  0
 15 14  3  0  0  0  0
 16 17  1  0  0  0  0
 17 23  1  0  0  0  0
 17 18  2  0  0  0  0
 18 30  1  0  0  0  0
 19 18  1  0  0  0  0
 19 24  1  0  0  0  0
 20 19  2  0  0  0  0
 21 16  2  0  0  0  0
 21 20  1  0  0  0  0
 22 16  1  0  0  0  0
 25 20  1  0  0  0  0
 26 21  1  0  0  0  0
 26 28  1  0  0  0  0
 27 26  2  0  0  0  0
 28  8  1  0  0  0  0
 29 26  2  0  0  0  0
 30 32  1  0  0  0  0
 30 33  1  0  0  0  0
 31 30  1  0  0  0  0
M  RAD  2   2   2   3   2
M  END
