Coordinates from ORCA-job 4-NO2-Ph-N2-OTs-B3LYPG-6-31G_dp-MTMO-d009-169-n800
 OpenBabel09051908313D

 33 34  0  0  0  0  0  0  0  0999 V2000
   -1.1260   -0.1990   -2.6123 C   0  0  0  0  0  0  0  0  0  0  0  0
   -0.3007    0.4151   -3.5205 C   0  0  0  0  0  0  0  0  0  0  0  0
    0.3394    1.7115   -3.2331 C   0  0  0  0  0  0  0  0  0  0  0  0
    0.0149    2.2644   -1.9056 C   0  0  0  0  0  0  0  0  0  0  0  0
   -0.8164    1.6065   -1.0344 C   0  0  0  0  0  0  0  0  0  0  0  0
   -1.3946    0.3783   -1.3679 C   0  0  0  0  0  0  0  0  0  0  0  0
   -1.5802   -1.1520   -2.8586 H   0  0  0  0  0  0  0  0  0  0  0  0
   -0.0839   -0.0179   -4.4901 H   0  0  0  0  0  0  0  0  0  0  0  0
    0.4688    3.2179   -1.6633 H   0  0  0  0  0  0  0  0  0  0  0  0
   -1.0336    2.0428   -0.0660 H   0  0  0  0  0  0  0  0  0  0  0  0
   -2.2645   -0.2906   -0.4319 N   0  0  0  0  0  0  0  0  0  0  0  0
   -2.4714    0.2556    0.6581 O   0  0  0  0  0  0  0  0  0  0  0  0
   -2.7552   -1.3741   -0.7704 O   0  0  0  0  0  0  0  0  0  0  0  0
    0.9499    2.1873   -3.8977 N   0  0  0  0  0  0  0  0  0  0  0  0
    1.7298    2.7046   -4.6462 N   0  0  0  0  0  0  0  0  0  0  0  0
    6.0144    0.7608   -5.2668 C   0  0  0  0  0  0  0  0  0  0  0  0
    7.1152    0.0804   -4.7537 C   0  0  0  0  0  0  0  0  0  0  0  0
    7.8518    0.5972   -3.6772 C   0  0  0  0  0  0  0  0  0  0  0  0
    7.4649    1.8294   -3.1270 C   0  0  0  0  0  0  0  0  0  0  0  0
    6.3682    2.5276   -3.6234 C   0  0  0  0  0  0  0  0  0  0  0  0
    5.6506    1.9792   -4.6890 C   0  0  0  0  0  0  0  0  0  0  0  0
    5.4537    0.3691   -6.1083 H   0  0  0  0  0  0  0  0  0  0  0  0
    7.4117   -0.8647   -5.1988 H   0  0  0  0  0  0  0  0  0  0  0  0
    8.0338    2.2493   -2.3021 H   0  0  0  0  0  0  0  0  0  0  0  0
    6.0772    3.4860   -3.2088 H   0  0  0  0  0  0  0  0  0  0  0  0
    4.2544    2.8627   -5.3402 S   0  0  0  0  0  0  0  0  0  0  0  0
    3.1061    2.1536   -4.3078 O   0  0  0  0  0  0  0  0  0  0  0  0
    3.9570    2.4205   -6.6968 O   0  0  0  0  0  0  0  0  0  0  0  0
    4.3384    4.2766   -4.9959 O   0  0  0  0  0  0  0  0  0  0  0  0
    9.0240   -0.1634   -3.1090 C   0  0  0  0  0  0  0  0  0  0  0  0
    8.7073   -0.7931   -2.2682 H   0  0  0  0  0  0  0  0  0  0  0  0
    9.4767   -0.8209   -3.8566 H   0  0  0  0  0  0  0  0  0  0  0  0
    9.7968    0.5140   -2.7348 H   0  0  0  0  0  0  0  0  0  0  0  0
  1  6  2  0  0  0  0
  2  3  2  0  0  0  0
  2  1  1  0  0  0  0
  3  4  1  0  0  0  0
  4  9  1  0  0  0  0
  4  5  2  0  0  0  0
  5 10  1  0  0  0  0
  6  5  1  0  0  0  0
  6 11  1  0  0  0  0
  7  1  1  0  0  0  0
  8  2  1  0  0  0  0
 11 12  2  0  0  0  0
 13 11  2  0  0  0  0
 14  3  1  0  0  0  0
 15 27  1  0  0  0  0
 15 14  1  0  0  0  0
 16 17  2  0  0  0  0
 16 21  1  0  0  0  0
 17 18  1  0  0  0  0
 18 19  2  0  0  0  0
 18 30  1  0  0  0  0
 19 24  1  0  0  0  0
 20 25  1  0  0  0  0
 20 19  1  0  0  0  0
 21 20  2  0  0  0  0
 22 16  1  0  0  0  0
 23 17  1  0  0  0  0
 26 29  2  0  0  0  0
 26 21  1  0  0  0  0
 26 27  1  0  0  0  0
 28 26  2  0  0  0  0
 30 33  1  0  0  0  0
 30 31  1  0  0  0  0
 32 30  1  0  0  0  0
M  RAD  2  14   2  15   2
M  END
