Coordinates from ORCA-job 4-NO2-Ph-N2-OTs-B3LYPG-6-31G_dp-MTMO-d009-169-n800
 OpenBabel09051908313D

 33 33  0  0  0  0  0  0  0  0999 V2000
   -0.0649    1.5476   -0.1682 C   0  0  0  0  0  0  0  0  0  0  0  0
   -0.0014    0.5460   -1.1314 C   0  0  0  0  0  0  0  0  0  0  0  0
    0.4668    0.8605   -2.4114 C   0  0  0  0  0  0  0  0  0  0  0  0
    0.8616    2.1599   -2.7439 C   0  0  0  0  0  0  0  0  0  0  0  0
    0.7901    3.1645   -1.7849 C   0  0  0  0  0  0  0  0  0  0  0  0
    0.3313    2.8407   -0.5088 C   0  0  0  0  0  0  0  0  0  0  0  0
   -0.4210    1.3472    0.8341 H   0  0  0  0  0  0  0  0  0  0  0  0
   -0.3036   -0.4685   -0.9049 H   0  0  0  0  0  0  0  0  0  0  0  0
    1.2100    2.3668   -3.7493 H   0  0  0  0  0  0  0  0  0  0  0  0
    1.0835    4.1833   -2.0037 H   0  0  0  0  0  0  0  0  0  0  0  0
    0.2606    3.8990    0.5095 N   0  0  0  0  0  0  0  0  0  0  0  0
    0.6110    5.0319    0.1799 O   0  0  0  0  0  0  0  0  0  0  0  0
   -0.1425    3.5877    1.6295 O   0  0  0  0  0  0  0  0  0  0  0  0
   14.2696    3.3528   -9.1906 N   0  0  0  0  0  0  0  0  0  0  0  0
   15.1179    3.4163   -9.8962 N   0  0  0  0  0  0  0  0  0  0  0  0
    3.9899   -0.2121   -2.8539 C   0  0  0  0  0  0  0  0  0  0  0  0
    5.1818    0.3922   -3.2505 C   0  0  0  0  0  0  0  0  0  0  0  0
    5.4851    0.5797   -4.6062 C   0  0  0  0  0  0  0  0  0  0  0  0
    4.5587    0.1444   -5.5679 C   0  0  0  0  0  0  0  0  0  0  0  0
    3.3626   -0.4614   -5.1954 C   0  0  0  0  0  0  0  0  0  0  0  0
    3.0902   -0.6320   -3.8351 C   0  0  0  0  0  0  0  0  0  0  0  0
    3.7633   -0.3698   -1.8053 H   0  0  0  0  0  0  0  0  0  0  0  0
    5.8884    0.7211   -2.4937 H   0  0  0  0  0  0  0  0  0  0  0  0
    4.7802    0.2795   -6.6233 H   0  0  0  0  0  0  0  0  0  0  0  0
    2.6544   -0.8092   -5.9394 H   0  0  0  0  0  0  0  0  0  0  0  0
    1.5545   -1.3889   -3.3494 S   0  0  0  0  0  0  0  0  0  0  0  0
    0.4791   -0.0917   -3.4206 O   0  0  0  0  0  0  0  0  0  0  0  0
    1.6535   -1.8254   -1.9605 O   0  0  0  0  0  0  0  0  0  0  0  0
    1.0715   -2.2561   -4.4101 O   0  0  0  0  0  0  0  0  0  0  0  0
    6.7900    1.2089   -5.0281 C   0  0  0  0  0  0  0  0  0  0  0  0
    7.5274    0.4390   -5.2857 H   0  0  0  0  0  0  0  0  0  0  0  0
    6.6604    1.8421   -5.9109 H   0  0  0  0  0  0  0  0  0  0  0  0
    7.2184    1.8187   -4.2280 H   0  0  0  0  0  0  0  0  0  0  0  0
  1  7  1  0  0  0  0
  2  8  1  0  0  0  0
  2  1  2  0  0  0  0
  3  2  1  0  0  0  0
  4  3  2  0  0  0  0
  4  5  1  0  0  0  0
  5  6  2  0  0  0  0
  6  1  1  0  0  0  0
  6 11  1  0  0  0  0
  9  4  1  0  0  0  0
 10  5  1  0  0  0  0
 11 13  2  0  0  0  0
 12 11  2  0  0  0  0
 15 14  3  0  0  0  0
 16 22  1  0  0  0  0
 17 16  1  0  0  0  0
 17 23  1  0  0  0  0
 18 17  2  0  0  0  0
 19 20  2  0  0  0  0
 19 18  1  0  0  0  0
 20 21  1  0  0  0  0
 21 26  1  0  0  0  0
 21 16  2  0  0  0  0
 24 19  1  0  0  0  0
 25 20  1  0  0  0  0
 26 28  2  0  0  0  0
 27 26  1  0  0  0  0
 27  3  1  0  0  0  0
 29 26  2  0  0  0  0
 30 18  1  0  0  0  0
 30 33  1  0  0  0  0
 31 30  1  0  0  0  0
 32 30  1  0  0  0  0
M  END
