Coordinates from ORCA-job 4-NO2-Ph-N2-OTs-B3LYPG-6-31G_dp-MTMO-d009-169-n800
 OpenBabel09051908313D

 33 33  0  0  0  0  0  0  0  0999 V2000
    0.0678    0.8401   -1.3314 C   0  0  0  0  0  0  0  0  0  0  0  0
    0.6763   -0.0352   -2.2251 C   0  0  0  0  0  0  0  0  0  0  0  0
    1.3919    0.4863   -3.3080 C   0  0  0  0  0  0  0  0  0  0  0  0
    1.4998    1.8648   -3.5149 C   0  0  0  0  0  0  0  0  0  0  0  0
    0.8850    2.7409   -2.6270 C   0  0  0  0  0  0  0  0  0  0  0  0
    0.1810    2.2136   -1.5450 C   0  0  0  0  0  0  0  0  0  0  0  0
   -0.4951    0.4786   -0.4802 H   0  0  0  0  0  0  0  0  0  0  0  0
    0.6087   -1.1078   -2.0933 H   0  0  0  0  0  0  0  0  0  0  0  0
    2.0542    2.2294   -4.3724 H   0  0  0  0  0  0  0  0  0  0  0  0
    0.9428    3.8148   -2.7536 H   0  0  0  0  0  0  0  0  0  0  0  0
   -0.4642    3.1371   -0.5998 N   0  0  0  0  0  0  0  0  0  0  0  0
   -0.3449    4.3439   -0.8104 O   0  0  0  0  0  0  0  0  0  0  0  0
   -1.0819    2.6475    0.3449 O   0  0  0  0  0  0  0  0  0  0  0  0
    2.1721    0.5414   -7.2960 N   0  0  0  0  0  0  0  0  0  0  0  0
    1.3651   -0.0434   -7.7733 N   0  0  0  0  0  0  0  0  0  0  0  0
    5.0364    0.2730   -2.5131 C   0  0  0  0  0  0  0  0  0  0  0  0
    6.0803    1.1940   -2.4493 C   0  0  0  0  0  0  0  0  0  0  0  0
    6.6925    1.6798   -3.6131 C   0  0  0  0  0  0  0  0  0  0  0  0
    6.2304    1.2203   -4.8569 C   0  0  0  0  0  0  0  0  0  0  0  0
    5.1908    0.2999   -4.9451 C   0  0  0  0  0  0  0  0  0  0  0  0
    4.6023   -0.1646   -3.7654 C   0  0  0  0  0  0  0  0  0  0  0  0
    4.5721   -0.1121   -1.6125 H   0  0  0  0  0  0  0  0  0  0  0  0
    6.4260    1.5386   -1.4788 H   0  0  0  0  0  0  0  0  0  0  0  0
    6.6947    1.5865   -5.7681 H   0  0  0  0  0  0  0  0  0  0  0  0
    4.8425   -0.0596   -5.9069 H   0  0  0  0  0  0  0  0  0  0  0  0
    3.2649   -1.3343   -3.8675 S   0  0  0  0  0  0  0  0  0  0  0  0
    1.9534   -0.3504   -4.2620 O   0  0  0  0  0  0  0  0  0  0  0  0
    3.0278   -1.9068   -2.5464 O   0  0  0  0  0  0  0  0  0  0  0  0
    3.4050   -2.1522   -5.0600 O   0  0  0  0  0  0  0  0  0  0  0  0
    7.8437    2.6512   -3.5332 C   0  0  0  0  0  0  0  0  0  0  0  0
    7.8464    3.3396   -4.3835 H   0  0  0  0  0  0  0  0  0  0  0  0
    7.8079    3.2414   -2.6135 H   0  0  0  0  0  0  0  0  0  0  0  0
    8.8026    2.1185   -3.5435 H   0  0  0  0  0  0  0  0  0  0  0  0
  1  7  1  0  0  0  0
  2  8  1  0  0  0  0
  2  1  2  0  0  0  0
  3  2  1  0  0  0  0
  4  3  2  0  0  0  0
  4  5  1  0  0  0  0
  5  6  2  0  0  0  0
  6  1  1  0  0  0  0
  6 11  1  0  0  0  0
  9  4  1  0  0  0  0
 10  5  1  0  0  0  0
 11 13  2  0  0  0  0
 12 11  2  0  0  0  0
 15 14  3  0  0  0  0
 16 17  1  0  0  0  0
 16 22  1  0  0  0  0
 17 23  1  0  0  0  0
 18 30  1  0  0  0  0
 18 17  2  0  0  0  0
 19 18  1  0  0  0  0
 20 19  2  0  0  0  0
 20 21  1  0  0  0  0
 21 16  2  0  0  0  0
 24 19  1  0  0  0  0
 25 20  1  0  0  0  0
 26 21  1  0  0  0  0
 26 28  2  0  0  0  0
 27 26  1  0  0  0  0
 27  3  1  0  0  0  0
 29 26  2  0  0  0  0
 30 32  1  0  0  0  0
 31 30  1  0  0  0  0
 33 30  1  0  0  0  0
M  END
