Coordinates from ORCA-job 4-NO2-Ph-N2-OTs-B3LYPG-6-31G_dp-MTMO-d009-169-n800
 OpenBabel09051908313D

 33 33  0  0  0  0  0  0  0  0999 V2000
    0.1178    1.1720   -0.1451 C   0  0  0  0  0  0  0  0  0  0  0  0
    0.3263    0.2010   -1.1189 C   0  0  0  0  0  0  0  0  0  0  0  0
    0.6964    0.5975   -2.4081 C   0  0  0  0  0  0  0  0  0  0  0  0
    0.8538    1.9468   -2.7386 C   0  0  0  0  0  0  0  0  0  0  0  0
    0.6383    2.9195   -1.7683 C   0  0  0  0  0  0  0  0  0  0  0  0
    0.2764    2.5155   -0.4840 C   0  0  0  0  0  0  0  0  0  0  0  0
   -0.1708    0.9085    0.8644 H   0  0  0  0  0  0  0  0  0  0  0  0
    0.2106   -0.8519   -0.8942 H   0  0  0  0  0  0  0  0  0  0  0  0
    1.1340    2.2149   -3.7509 H   0  0  0  0  0  0  0  0  0  0  0  0
    0.7463    3.9748   -1.9849 H   0  0  0  0  0  0  0  0  0  0  0  0
    0.0525    3.5415    0.5457 N   0  0  0  0  0  0  0  0  0  0  0  0
    0.2036    4.7188    0.2199 O   0  0  0  0  0  0  0  0  0  0  0  0
   -0.2704    3.1609    1.6703 O   0  0  0  0  0  0  0  0  0  0  0  0
   11.9981    1.2870   -7.8314 N   0  0  0  0  0  0  0  0  0  0  0  0
   12.9643    1.0795   -8.3265 N   0  0  0  0  0  0  0  0  0  0  0  0
    4.3472    0.2017   -3.0243 C   0  0  0  0  0  0  0  0  0  0  0  0
    5.3795    1.0244   -3.4731 C   0  0  0  0  0  0  0  0  0  0  0  0
    5.5609    1.2834   -4.8386 C   0  0  0  0  0  0  0  0  0  0  0  0
    4.6764    0.6938   -5.7570 C   0  0  0  0  0  0  0  0  0  0  0  0
    3.6398   -0.1312   -5.3322 C   0  0  0  0  0  0  0  0  0  0  0  0
    3.4852   -0.3673   -3.9627 C   0  0  0  0  0  0  0  0  0  0  0  0
    4.2174   -0.0094   -1.9687 H   0  0  0  0  0  0  0  0  0  0  0  0
    6.0565    1.4691   -2.7493 H   0  0  0  0  0  0  0  0  0  0  0  0
    4.8051    0.8817   -6.8197 H   0  0  0  0  0  0  0  0  0  0  0  0
    2.9664   -0.5966   -6.0436 H   0  0  0  0  0  0  0  0  0  0  0  0
    2.1477   -1.4033   -3.4100 S   0  0  0  0  0  0  0  0  0  0  0  0
    0.8419   -0.3358   -3.4249 O   0  0  0  0  0  0  0  0  0  0  0  0
    2.3925   -1.8068   -2.0293 O   0  0  0  0  0  0  0  0  0  0  0  0
    1.7910   -2.3512   -4.4515 O   0  0  0  0  0  0  0  0  0  0  0  0
    6.6968    2.1526   -5.3193 C   0  0  0  0  0  0  0  0  0  0  0  0
    7.5265    1.5387   -5.6906 H   0  0  0  0  0  0  0  0  0  0  0  0
    6.3828    2.8019   -6.1425 H   0  0  0  0  0  0  0  0  0  0  0  0
    7.0873    2.7829   -4.5163 H   0  0  0  0  0  0  0  0  0  0  0  0
  1  7  1  0  0  0  0
  2  8  1  0  0  0  0
  2  1  2  0  0  0  0
  3  2  1  0  0  0  0
  4  3  2  0  0  0  0
  4  5  1  0  0  0  0
  5  6  2  0  0  0  0
  6  1  1  0  0  0  0
  6 11  1  0  0  0  0
  9  4  1  0  0  0  0
 10  5  1  0  0  0  0
 11 13  2  0  0  0  0
 12 11  2  0  0  0  0
 15 14  3  0  0  0  0
 16 22  1  0  0  0  0
 17 16  1  0  0  0  0
 17 23  1  0  0  0  0
 18 17  2  0  0  0  0
 19 20  2  0  0  0  0
 19 18  1  0  0  0  0
 20 21  1  0  0  0  0
 21 26  1  0  0  0  0
 21 16  2  0  0  0  0
 24 19  1  0  0  0  0
 25 20  1  0  0  0  0
 26 28  2  0  0  0  0
 27 26  1  0  0  0  0
 27  3  1  0  0  0  0
 29 26  2  0  0  0  0
 30 18  1  0  0  0  0
 30 33  1  0  0  0  0
 31 30  1  0  0  0  0
 32 30  1  0  0  0  0
M  END
