Coordinates from ORCA-job 4-NO2-Ph-N2-OTs-B3LYPG-6-31G_dp-MTMO-d009-169-n800
 OpenBabel09051908313D

 33 33  0  0  0  0  0  0  0  0999 V2000
    0.0049    1.1925   -0.0817 C   0  0  0  0  0  0  0  0  0  0  0  0
    0.1987    0.2173   -1.0544 C   0  0  0  0  0  0  0  0  0  0  0  0
    0.5727    0.6067   -2.3445 C   0  0  0  0  0  0  0  0  0  0  0  0
    0.7488    1.9532   -2.6772 C   0  0  0  0  0  0  0  0  0  0  0  0
    0.5483    2.9302   -1.7080 C   0  0  0  0  0  0  0  0  0  0  0  0
    0.1822    2.5332   -0.4227 C   0  0  0  0  0  0  0  0  0  0  0  0
   -0.2862    0.9346    0.9285 H   0  0  0  0  0  0  0  0  0  0  0  0
    0.0683   -0.8335   -0.8281 H   0  0  0  0  0  0  0  0  0  0  0  0
    1.0319    2.2158   -3.6901 H   0  0  0  0  0  0  0  0  0  0  0  0
    0.6713    3.9836   -1.9261 H   0  0  0  0  0  0  0  0  0  0  0  0
   -0.0259    3.5637    0.6059 N   0  0  0  0  0  0  0  0  0  0  0  0
    0.1418    4.7382    0.2782 O   0  0  0  0  0  0  0  0  0  0  0  0
   -0.3532    3.1894    1.7312 O   0  0  0  0  0  0  0  0  0  0  0  0
   13.8719    1.4460   -8.7317 N   0  0  0  0  0  0  0  0  0  0  0  0
   14.8195    1.2462   -9.2644 N   0  0  0  0  0  0  0  0  0  0  0  0
    4.2149    0.1721   -2.9668 C   0  0  0  0  0  0  0  0  0  0  0  0
    5.2533    0.9857   -3.4183 C   0  0  0  0  0  0  0  0  0  0  0  0
    5.4330    1.2435   -4.7842 C   0  0  0  0  0  0  0  0  0  0  0  0
    4.5410    0.6619   -5.7003 C   0  0  0  0  0  0  0  0  0  0  0  0
    3.4982   -0.1539   -5.2728 C   0  0  0  0  0  0  0  0  0  0  0  0
    3.3453   -0.3888   -3.9030 C   0  0  0  0  0  0  0  0  0  0  0  0
    4.0861   -0.0380   -1.9109 H   0  0  0  0  0  0  0  0  0  0  0  0
    5.9361    1.4243   -2.6962 H   0  0  0  0  0  0  0  0  0  0  0  0
    4.6683    0.8491   -6.7632 H   0  0  0  0  0  0  0  0  0  0  0  0
    2.8186   -0.6130   -5.9824 H   0  0  0  0  0  0  0  0  0  0  0  0
    1.9987   -1.4113   -3.3466 S   0  0  0  0  0  0  0  0  0  0  0  0
    0.7040   -0.3304   -3.3598 O   0  0  0  0  0  0  0  0  0  0  0  0
    2.2422   -1.8160   -1.9661 O   0  0  0  0  0  0  0  0  0  0  0  0
    1.6303   -2.3563   -4.3866 O   0  0  0  0  0  0  0  0  0  0  0  0
    6.5754    2.1028   -5.2674 C   0  0  0  0  0  0  0  0  0  0  0  0
    7.4044    1.4812   -5.6273 H   0  0  0  0  0  0  0  0  0  0  0  0
    6.2690    2.7452   -6.0989 H   0  0  0  0  0  0  0  0  0  0  0  0
    6.9644    2.7394   -4.4686 H   0  0  0  0  0  0  0  0  0  0  0  0
  1  7  1  0  0  0  0
  2  8  1  0  0  0  0
  2  1  2  0  0  0  0
  3  2  1  0  0  0  0
  4  3  2  0  0  0  0
  4  5  1  0  0  0  0
  5  6  2  0  0  0  0
  6  1  1  0  0  0  0
  6 11  1  0  0  0  0
  9  4  1  0  0  0  0
 10  5  1  0  0  0  0
 11 13  2  0  0  0  0
 12 11  2  0  0  0  0
 15 14  3  0  0  0  0
 16 22  1  0  0  0  0
 17 16  1  0  0  0  0
 17 23  1  0  0  0  0
 18 17  2  0  0  0  0
 19 20  2  0  0  0  0
 19 18  1  0  0  0  0
 20 21  1  0  0  0  0
 21 26  1  0  0  0  0
 21 16  2  0  0  0  0
 24 19  1  0  0  0  0
 25 20  1  0  0  0  0
 26 28  2  0  0  0  0
 27 26  1  0  0  0  0
 27  3  1  0  0  0  0
 29 26  2  0  0  0  0
 30 18  1  0  0  0  0
 30 33  1  0  0  0  0
 31 30  1  0  0  0  0
 32 30  1  0  0  0  0
M  END
