Coordinates from ORCA-job 4-NO2-Ph-N2-OTs-B3LYPG-6-31G_dp-MTMO-d009-169-n800
 OpenBabel09051908313D

 33 33  0  0  0  0  0  0  0  0999 V2000
   -0.0344    0.8632   -1.3195 C   0  0  0  0  0  0  0  0  0  0  0  0
    0.5633    0.0370   -2.2655 C   0  0  0  0  0  0  0  0  0  0  0  0
    1.3424    0.6106   -3.2755 C   0  0  0  0  0  0  0  0  0  0  0  0
    1.5256    1.9940   -3.3582 C   0  0  0  0  0  0  0  0  0  0  0  0
    0.9232    2.8223   -2.4173 C   0  0  0  0  0  0  0  0  0  0  0  0
    0.1548    2.2422   -1.4089 C   0  0  0  0  0  0  0  0  0  0  0  0
   -0.6452    0.4606   -0.5212 H   0  0  0  0  0  0  0  0  0  0  0  0
    0.4388   -1.0380   -2.2296 H   0  0  0  0  0  0  0  0  0  0  0  0
    2.1293    2.4018   -4.1612 H   0  0  0  0  0  0  0  0  0  0  0  0
    1.0396    3.8985   -2.4470 H   0  0  0  0  0  0  0  0  0  0  0  0
   -0.4774    3.1144   -0.4077 N   0  0  0  0  0  0  0  0  0  0  0  0
   -0.2903    4.3268   -0.5085 O   0  0  0  0  0  0  0  0  0  0  0  0
   -1.1525    2.5793    0.4706 O   0  0  0  0  0  0  0  0  0  0  0  0
    2.6580   -0.2726   -7.7904 N   0  0  0  0  0  0  0  0  0  0  0  0
    1.7502   -0.8173   -8.1067 N   0  0  0  0  0  0  0  0  0  0  0  0
    5.0210    0.3019   -2.5523 C   0  0  0  0  0  0  0  0  0  0  0  0
    6.0907    1.1923   -2.4810 C   0  0  0  0  0  0  0  0  0  0  0  0
    6.6947    1.6960   -3.6415 C   0  0  0  0  0  0  0  0  0  0  0  0
    6.1978    1.2862   -4.8892 C   0  0  0  0  0  0  0  0  0  0  0  0
    5.1319    0.3969   -4.9856 C   0  0  0  0  0  0  0  0  0  0  0  0
    4.5528   -0.0864   -3.8086 C   0  0  0  0  0  0  0  0  0  0  0  0
    4.5617   -0.0967   -1.6550 H   0  0  0  0  0  0  0  0  0  0  0  0
    6.4627    1.4988   -1.5075 H   0  0  0  0  0  0  0  0  0  0  0  0
    6.6552    1.6672   -5.7979 H   0  0  0  0  0  0  0  0  0  0  0  0
    4.7557    0.0779   -5.9514 H   0  0  0  0  0  0  0  0  0  0  0  0
    3.1786   -1.2119   -3.9188 S   0  0  0  0  0  0  0  0  0  0  0  0
    1.8971   -0.1748   -4.2765 O   0  0  0  0  0  0  0  0  0  0  0  0
    2.9367   -1.8045   -2.6076 O   0  0  0  0  0  0  0  0  0  0  0  0
    3.2805   -2.0093   -5.1294 O   0  0  0  0  0  0  0  0  0  0  0  0
    7.8725    2.6346   -3.5549 C   0  0  0  0  0  0  0  0  0  0  0  0
    7.8855    3.3390   -4.3919 H   0  0  0  0  0  0  0  0  0  0  0  0
    7.8614    3.2079   -2.6239 H   0  0  0  0  0  0  0  0  0  0  0  0
    8.8165    2.0768   -3.5846 H   0  0  0  0  0  0  0  0  0  0  0  0
  1  7  1  0  0  0  0
  2  8  1  0  0  0  0
  2  1  2  0  0  0  0
  3  2  1  0  0  0  0
  4  3  2  0  0  0  0
  4  5  1  0  0  0  0
  5  6  2  0  0  0  0
  6  1  1  0  0  0  0
  6 11  1  0  0  0  0
  9  4  1  0  0  0  0
 10  5  1  0  0  0  0
 11 13  2  0  0  0  0
 12 11  2  0  0  0  0
 15 14  3  0  0  0  0
 16 17  1  0  0  0  0
 16 22  1  0  0  0  0
 17 23  1  0  0  0  0
 18 30  1  0  0  0  0
 18 17  2  0  0  0  0
 19 18  1  0  0  0  0
 20 19  2  0  0  0  0
 20 21  1  0  0  0  0
 21 16  2  0  0  0  0
 24 19  1  0  0  0  0
 25 20  1  0  0  0  0
 26 21  1  0  0  0  0
 26 28  2  0  0  0  0
 27 26  1  0  0  0  0
 27  3  1  0  0  0  0
 29 26  2  0  0  0  0
 30 32  1  0  0  0  0
 31 30  1  0  0  0  0
 33 30  1  0  0  0  0
M  END
