Coordinates from ORCA-job 4-NO2-Ph-N2-OTs-B3LYPG-6-31G_dp-MTMO-d009-169-n800
 OpenBabel09051908313D

 33 33  0  0  0  0  0  0  0  0999 V2000
   -0.0387    0.8635   -1.3194 C   0  0  0  0  0  0  0  0  0  0  0  0
    0.5591    0.0383   -2.2662 C   0  0  0  0  0  0  0  0  0  0  0  0
    1.3412    0.6124   -3.2736 C   0  0  0  0  0  0  0  0  0  0  0  0
    1.5274    1.9957   -3.3528 C   0  0  0  0  0  0  0  0  0  0  0  0
    0.9250    2.8231   -2.4110 C   0  0  0  0  0  0  0  0  0  0  0  0
    0.1535    2.2423   -1.4054 C   0  0  0  0  0  0  0  0  0  0  0  0
   -0.6517    0.4603   -0.5232 H   0  0  0  0  0  0  0  0  0  0  0  0
    0.4324   -1.0366   -2.2330 H   0  0  0  0  0  0  0  0  0  0  0  0
    2.1332    2.4041   -4.1538 H   0  0  0  0  0  0  0  0  0  0  0  0
    1.0436    3.8991   -2.4381 H   0  0  0  0  0  0  0  0  0  0  0  0
   -0.4788    3.1135   -0.4034 N   0  0  0  0  0  0  0  0  0  0  0  0
   -0.2890    4.3258   -0.5011 O   0  0  0  0  0  0  0  0  0  0  0  0
   -1.1566    2.5778    0.4724 O   0  0  0  0  0  0  0  0  0  0  0  0
    2.6699   -0.2838   -7.8032 N   0  0  0  0  0  0  0  0  0  0  0  0
    1.7629   -0.8287   -8.1211 N   0  0  0  0  0  0  0  0  0  0  0  0
    5.0208    0.3037   -2.5526 C   0  0  0  0  0  0  0  0  0  0  0  0
    6.0910    1.1937   -2.4823 C   0  0  0  0  0  0  0  0  0  0  0  0
    6.6948    1.6964   -3.6432 C   0  0  0  0  0  0  0  0  0  0  0  0
    6.1972    1.2860   -4.8906 C   0  0  0  0  0  0  0  0  0  0  0  0
    5.1308    0.3972   -4.9860 C   0  0  0  0  0  0  0  0  0  0  0  0
    4.5520   -0.0851   -3.8085 C   0  0  0  0  0  0  0  0  0  0  0  0
    4.5615   -0.0942   -1.6549 H   0  0  0  0  0  0  0  0  0  0  0  0
    6.4634    1.5005   -1.5090 H   0  0  0  0  0  0  0  0  0  0  0  0
    6.6544    1.6664   -5.7996 H   0  0  0  0  0  0  0  0  0  0  0  0
    4.7541    0.0778   -5.9515 H   0  0  0  0  0  0  0  0  0  0  0  0
    3.1771   -1.2099   -3.9175 S   0  0  0  0  0  0  0  0  0  0  0  0
    1.8960   -0.1722   -4.2752 O   0  0  0  0  0  0  0  0  0  0  0  0
    2.9351   -1.8016   -2.6059 O   0  0  0  0  0  0  0  0  0  0  0  0
    3.2782   -2.0080   -5.1277 O   0  0  0  0  0  0  0  0  0  0  0  0
    7.8731    2.6345   -3.5576 C   0  0  0  0  0  0  0  0  0  0  0  0
    7.8862    3.3382   -4.3951 H   0  0  0  0  0  0  0  0  0  0  0  0
    7.8625    3.2084   -2.6270 H   0  0  0  0  0  0  0  0  0  0  0  0
    8.8167    2.0761   -3.5873 H   0  0  0  0  0  0  0  0  0  0  0  0
  1  7  1  0  0  0  0
  2  8  1  0  0  0  0
  2  1  2  0  0  0  0
  3  2  1  0  0  0  0
  4  3  2  0  0  0  0
  4  5  1  0  0  0  0
  5  6  2  0  0  0  0
  6  1  1  0  0  0  0
  6 11  1  0  0  0  0
  9  4  1  0  0  0  0
 10  5  1  0  0  0  0
 11 13  2  0  0  0  0
 12 11  2  0  0  0  0
 15 14  3  0  0  0  0
 16 17  1  0  0  0  0
 16 22  1  0  0  0  0
 17 23  1  0  0  0  0
 18 30  1  0  0  0  0
 18 17  2  0  0  0  0
 19 18  1  0  0  0  0
 20 19  2  0  0  0  0
 20 21  1  0  0  0  0
 21 16  2  0  0  0  0
 24 19  1  0  0  0  0
 25 20  1  0  0  0  0
 26 21  1  0  0  0  0
 26 28  2  0  0  0  0
 27 26  1  0  0  0  0
 27  3  1  0  0  0  0
 29 26  2  0  0  0  0
 30 32  1  0  0  0  0
 31 30  1  0  0  0  0
 33 30  1  0  0  0  0
M  END
