Coordinates from ORCA-job 4-NO2-Ph-N2-OTs-B3LYPG-6-31G_dp-MTMO-d009-169-n800
 OpenBabel09051908313D

 33 33  0  0  0  0  0  0  0  0999 V2000
    0.0460    0.8419   -1.3466 C   0  0  0  0  0  0  0  0  0  0  0  0
    0.6562   -0.0268   -2.2456 C   0  0  0  0  0  0  0  0  0  0  0  0
    1.3903    0.5027   -3.3119 C   0  0  0  0  0  0  0  0  0  0  0  0
    1.5156    1.8827   -3.4972 C   0  0  0  0  0  0  0  0  0  0  0  0
    0.8998    2.7525   -2.6037 C   0  0  0  0  0  0  0  0  0  0  0  0
    0.1768    2.2171   -1.5385 C   0  0  0  0  0  0  0  0  0  0  0  0
   -0.5312    0.4744   -0.5076 H   0  0  0  0  0  0  0  0  0  0  0  0
    0.5759   -1.1004   -2.1303 H   0  0  0  0  0  0  0  0  0  0  0  0
    2.0845    2.2538   -4.3423 H   0  0  0  0  0  0  0  0  0  0  0  0
    0.9711    3.8275   -2.7133 H   0  0  0  0  0  0  0  0  0  0  0  0
   -0.4697    3.1337   -0.5874 N   0  0  0  0  0  0  0  0  0  0  0  0
   -0.3328    4.3420   -0.7773 O   0  0  0  0  0  0  0  0  0  0  0  0
   -1.1060    2.6371    0.3412 O   0  0  0  0  0  0  0  0  0  0  0  0
    2.1983    0.3867   -7.3339 N   0  0  0  0  0  0  0  0  0  0  0  0
    1.3286   -0.1460   -7.7592 N   0  0  0  0  0  0  0  0  0  0  0  0
    5.0486    0.2688   -2.5156 C   0  0  0  0  0  0  0  0  0  0  0  0
    6.0959    1.1859   -2.4491 C   0  0  0  0  0  0  0  0  0  0  0  0
    6.6990    1.6850   -3.6118 C   0  0  0  0  0  0  0  0  0  0  0  0
    6.2243    1.2432   -4.8574 C   0  0  0  0  0  0  0  0  0  0  0  0
    5.1814    0.3269   -4.9485 C   0  0  0  0  0  0  0  0  0  0  0  0
    4.6023   -0.1514   -3.7695 C   0  0  0  0  0  0  0  0  0  0  0  0
    4.5904   -0.1264   -1.6162 H   0  0  0  0  0  0  0  0  0  0  0  0
    6.4510    1.5169   -1.4773 H   0  0  0  0  0  0  0  0  0  0  0  0
    6.6812    1.6205   -5.7679 H   0  0  0  0  0  0  0  0  0  0  0  0
    4.8226   -0.0179   -5.9118 H   0  0  0  0  0  0  0  0  0  0  0  0
    3.2614   -1.3169   -3.8744 S   0  0  0  0  0  0  0  0  0  0  0  0
    1.9542   -0.3275   -4.2702 O   0  0  0  0  0  0  0  0  0  0  0  0
    3.0200   -1.8895   -2.5541 O   0  0  0  0  0  0  0  0  0  0  0  0
    3.4005   -2.1347   -5.0672 O   0  0  0  0  0  0  0  0  0  0  0  0
    7.8535    2.6524   -3.5299 C   0  0  0  0  0  0  0  0  0  0  0  0
    7.8489    3.3533   -4.3700 H   0  0  0  0  0  0  0  0  0  0  0  0
    7.8288    3.2293   -2.6014 H   0  0  0  0  0  0  0  0  0  0  0  0
    8.8108    2.1177   -3.5581 H   0  0  0  0  0  0  0  0  0  0  0  0
  1  7  1  0  0  0  0
  2  8  1  0  0  0  0
  2  1  2  0  0  0  0
  3  2  1  0  0  0  0
  4  3  2  0  0  0  0
  4  5  1  0  0  0  0
  5  6  2  0  0  0  0
  6  1  1  0  0  0  0
  6 11  1  0  0  0  0
  9  4  1  0  0  0  0
 10  5  1  0  0  0  0
 11 13  2  0  0  0  0
 12 11  2  0  0  0  0
 15 14  3  0  0  0  0
 16 17  1  0  0  0  0
 16 22  1  0  0  0  0
 17 23  1  0  0  0  0
 18 30  1  0  0  0  0
 18 17  2  0  0  0  0
 19 18  1  0  0  0  0
 20 19  2  0  0  0  0
 20 21  1  0  0  0  0
 21 16  2  0  0  0  0
 24 19  1  0  0  0  0
 25 20  1  0  0  0  0
 26 21  1  0  0  0  0
 26 28  2  0  0  0  0
 27 26  1  0  0  0  0
 27  3  1  0  0  0  0
 29 26  2  0  0  0  0
 30 32  1  0  0  0  0
 31 30  1  0  0  0  0
 33 30  1  0  0  0  0
M  END
