Coordinates from ORCA-job 4-NO2-Ph-N2-OTs-B3LYPG-6-31G_dp-MTMO-d009-169-n800
 OpenBabel09051908313D

 33 33  0  0  0  0  0  0  0  0999 V2000
    0.0130    1.1884   -0.0837 C   0  0  0  0  0  0  0  0  0  0  0  0
    0.2085    0.2138   -1.0566 C   0  0  0  0  0  0  0  0  0  0  0  0
    0.5802    0.6043   -2.3471 C   0  0  0  0  0  0  0  0  0  0  0  0
    0.7521    1.9513   -2.6799 C   0  0  0  0  0  0  0  0  0  0  0  0
    0.5499    2.9276   -1.7105 C   0  0  0  0  0  0  0  0  0  0  0  0
    0.1861    2.5296   -0.4248 C   0  0  0  0  0  0  0  0  0  0  0  0
   -0.2763    0.9296    0.9268 H   0  0  0  0  0  0  0  0  0  0  0  0
    0.0813   -0.8374   -0.8302 H   0  0  0  0  0  0  0  0  0  0  0  0
    1.0334    2.2147   -3.6931 H   0  0  0  0  0  0  0  0  0  0  0  0
    0.6696    3.9814   -1.9287 H   0  0  0  0  0  0  0  0  0  0  0  0
   -0.0238    3.5594    0.6040 N   0  0  0  0  0  0  0  0  0  0  0  0
    0.1402    4.7344    0.2762 O   0  0  0  0  0  0  0  0  0  0  0  0
   -0.3488    3.1842    1.7296 O   0  0  0  0  0  0  0  0  0  0  0  0
   13.7736    1.4194   -8.6797 N   0  0  0  0  0  0  0  0  0  0  0  0
   14.7228    1.2192   -9.2094 N   0  0  0  0  0  0  0  0  0  0  0  0
    4.2230    0.1775   -2.9711 C   0  0  0  0  0  0  0  0  0  0  0  0
    5.2596    0.9931   -3.4228 C   0  0  0  0  0  0  0  0  0  0  0  0
    5.4386    1.2511   -4.7888 C   0  0  0  0  0  0  0  0  0  0  0  0
    4.5475    0.6678   -5.7047 C   0  0  0  0  0  0  0  0  0  0  0  0
    3.5064   -0.1500   -5.2770 C   0  0  0  0  0  0  0  0  0  0  0  0
    3.3542   -0.3851   -3.9071 C   0  0  0  0  0  0  0  0  0  0  0  0
    4.0947   -0.0328   -1.9152 H   0  0  0  0  0  0  0  0  0  0  0  0
    5.9418    1.4331   -2.7008 H   0  0  0  0  0  0  0  0  0  0  0  0
    4.6743    0.8552   -6.7677 H   0  0  0  0  0  0  0  0  0  0  0  0
    2.8275   -0.6104   -5.9864 H   0  0  0  0  0  0  0  0  0  0  0  0
    2.0100   -1.4105   -3.3505 S   0  0  0  0  0  0  0  0  0  0  0  0
    0.7130   -0.3323   -3.3626 O   0  0  0  0  0  0  0  0  0  0  0  0
    2.2550   -1.8151   -1.9702 O   0  0  0  0  0  0  0  0  0  0  0  0
    1.6430   -2.3558   -4.3907 O   0  0  0  0  0  0  0  0  0  0  0  0
    6.5793    2.1125   -5.2722 C   0  0  0  0  0  0  0  0  0  0  0  0
    7.4093    1.4925   -5.6326 H   0  0  0  0  0  0  0  0  0  0  0  0
    6.2715    2.7545   -6.1034 H   0  0  0  0  0  0  0  0  0  0  0  0
    6.9675    2.7496   -4.4734 H   0  0  0  0  0  0  0  0  0  0  0  0
  1  7  1  0  0  0  0
  2  8  1  0  0  0  0
  2  1  2  0  0  0  0
  3  2  1  0  0  0  0
  4  3  2  0  0  0  0
  4  5  1  0  0  0  0
  5  6  2  0  0  0  0
  6  1  1  0  0  0  0
  6 11  1  0  0  0  0
  9  4  1  0  0  0  0
 10  5  1  0  0  0  0
 11 13  2  0  0  0  0
 12 11  2  0  0  0  0
 15 14  3  0  0  0  0
 16 22  1  0  0  0  0
 17 16  1  0  0  0  0
 17 23  1  0  0  0  0
 18 17  2  0  0  0  0
 19 20  2  0  0  0  0
 19 18  1  0  0  0  0
 20 21  1  0  0  0  0
 21 26  1  0  0  0  0
 21 16  2  0  0  0  0
 24 19  1  0  0  0  0
 25 20  1  0  0  0  0
 26 28  2  0  0  0  0
 27 26  1  0  0  0  0
 27  3  1  0  0  0  0
 29 26  2  0  0  0  0
 30 18  1  0  0  0  0
 30 33  1  0  0  0  0
 31 30  1  0  0  0  0
 32 30  1  0  0  0  0
M  END
