Coordinates from ORCA-job 4-NO2-Ph-N2-OTs-B3LYPG-6-31G_dp-MTMO-d009-169-n800
 OpenBabel09051908313D

 33 32  0  0  0  0  0  0  0  0999 V2000
    0.6954    1.0780   -1.4486 C   0  0  0  0  0  0  0  0  0  0  0  0
    0.8188    0.6552   -2.7754 C   0  0  0  0  0  0  0  0  0  0  0  0
    0.1519    1.2415   -3.6640 C   0  0  0  0  0  0  0  0  0  0  0  0
   -0.7361    2.2849   -3.7029 C   0  0  0  0  0  0  0  0  0  0  0  0
   -0.8937    2.7550   -2.3843 C   0  0  0  0  0  0  0  0  0  0  0  0
   -0.1963    2.1613   -1.3138 C   0  0  0  0  0  0  0  0  0  0  0  0
    1.2055    0.6636   -0.5889 H   0  0  0  0  0  0  0  0  0  0  0  0
    2.1884   -0.6652   -3.5950 H   0  0  0  0  0  0  0  0  0  0  0  0
   -1.2481    2.6994   -4.5605 H   0  0  0  0  0  0  0  0  0  0  0  0
   -1.5602    3.5833   -2.1742 H   0  0  0  0  0  0  0  0  0  0  0  0
   -0.4120    2.7131    0.0384 N   0  0  0  0  0  0  0  0  0  0  0  0
   -1.1909    3.6574    0.1553 O   0  0  0  0  0  0  0  0  0  0  0  0
    0.2047    2.1908    0.9646 O   0  0  0  0  0  0  0  0  0  0  0  0
   -0.2055    0.6014   -6.5137 N   0  0  0  0  0  0  0  0  0  0  0  0
    0.0401   -0.0116   -7.3995 N   0  0  0  0  0  0  0  0  0  0  0  0
    5.0919    1.4639   -4.0806 C   0  0  0  0  0  0  0  0  0  0  0  0
    6.2066    2.0389   -3.4706 C   0  0  0  0  0  0  0  0  0  0  0  0
    7.3402    1.2748   -3.1641 C   0  0  0  0  0  0  0  0  0  0  0  0
    7.3346   -0.0915   -3.4883 C   0  0  0  0  0  0  0  0  0  0  0  0
    6.2330   -0.6833   -4.0988 C   0  0  0  0  0  0  0  0  0  0  0  0
    5.1149    0.1036   -4.3865 C   0  0  0  0  0  0  0  0  0  0  0  0
    4.2205    2.0594   -4.3306 H   0  0  0  0  0  0  0  0  0  0  0  0
    6.1958    3.0987   -3.2314 H   0  0  0  0  0  0  0  0  0  0  0  0
    8.2074   -0.6985   -3.2617 H   0  0  0  0  0  0  0  0  0  0  0  0
    6.2365   -1.7350   -4.3626 H   0  0  0  0  0  0  0  0  0  0  0  0
    3.6888   -0.6523   -5.1473 S   0  0  0  0  0  0  0  0  0  0  0  0
    2.8417    0.4041   -5.7077 O   0  0  0  0  0  0  0  0  0  0  0  0
    2.8931   -1.2940   -3.8742 O   0  0  0  0  0  0  0  0  0  0  0  0
    4.1323   -1.7851   -5.9460 O   0  0  0  0  0  0  0  0  0  0  0  0
    8.5526    1.9040   -2.5211 C   0  0  0  0  0  0  0  0  0  0  0  0
    9.3701    2.0090   -3.2445 H   0  0  0  0  0  0  0  0  0  0  0  0
    8.3279    2.8993   -2.1297 H   0  0  0  0  0  0  0  0  0  0  0  0
    8.9283    1.2907   -1.6958 H   0  0  0  0  0  0  0  0  0  0  0  0
  1  6  1  0  0  0  0
  1  7  1  0  0  0  0
  2  1  2  0  0  0  0
  3  2  1  0  0  0  0
  4  3  2  0  0  0  0
  4  5  1  0  0  0  0
  5 10  1  0  0  0  0
  5  6  2  0  0  0  0
  6 11  1  0  0  0  0
  9  4  1  0  0  0  0
 11 12  2  0  0  0  0
 11 13  2  0  0  0  0
 15 14  3  0  0  0  0
 16 17  2  0  0  0  0
 17 23  1  0  0  0  0
 17 18  1  0  0  0  0
 18 30  1  0  0  0  0
 19 24  1  0  0  0  0
 19 18  2  0  0  0  0
 20 19  1  0  0  0  0
 21 20  2  0  0  0  0
 21 16  1  0  0  0  0
 22 16  1  0  0  0  0
 25 20  1  0  0  0  0
 26 21  1  0  0  0  0
 26 28  1  0  0  0  0
 27 26  2  0  0  0  0
 28  8  1  0  0  0  0
 29 26  2  0  0  0  0
 30 32  1  0  0  0  0
 30 33  1  0  0  0  0
 31 30  1  0  0  0  0
M  RAD  2   2   2   3   2
M  END
