Coordinates from ORCA-job 4-NO2-Ph-N2-OTs-B3LYPG-6-31G_dp-MTMO-d009-169-n800
 OpenBabel09051908313D

 33 33  0  0  0  0  0  0  0  0999 V2000
   -0.0095    1.2025   -0.0774 C   0  0  0  0  0  0  0  0  0  0  0  0
    0.1794    0.2259   -1.0496 C   0  0  0  0  0  0  0  0  0  0  0  0
    0.5572    0.6127   -2.3395 C   0  0  0  0  0  0  0  0  0  0  0  0
    0.7418    1.9580   -2.6723 C   0  0  0  0  0  0  0  0  0  0  0  0
    0.5461    2.9364   -1.7036 C   0  0  0  0  0  0  0  0  0  0  0  0
    0.1761    2.5420   -0.4186 C   0  0  0  0  0  0  0  0  0  0  0  0
   -0.3033    0.9466    0.9325 H   0  0  0  0  0  0  0  0  0  0  0  0
    0.0425   -0.8240   -0.8232 H   0  0  0  0  0  0  0  0  0  0  0  0
    1.0276    2.2185   -3.6849 H   0  0  0  0  0  0  0  0  0  0  0  0
    0.6757    3.9890   -1.9218 H   0  0  0  0  0  0  0  0  0  0  0  0
   -0.0268    3.5740    0.6095 N   0  0  0  0  0  0  0  0  0  0  0  0
    0.1484    4.7474    0.2817 O   0  0  0  0  0  0  0  0  0  0  0  0
   -0.3576    3.2020    1.7345 O   0  0  0  0  0  0  0  0  0  0  0  0
   14.0680    1.5089   -8.8346 N   0  0  0  0  0  0  0  0  0  0  0  0
   15.0133    1.3116   -9.3722 N   0  0  0  0  0  0  0  0  0  0  0  0
    4.1967    0.1601   -2.9582 C   0  0  0  0  0  0  0  0  0  0  0  0
    5.2392    0.9687   -3.4090 C   0  0  0  0  0  0  0  0  0  0  0  0
    5.4217    1.2249   -4.7749 C   0  0  0  0  0  0  0  0  0  0  0  0
    4.5281    0.6468   -5.6916 C   0  0  0  0  0  0  0  0  0  0  0  0
    3.4812   -0.1641   -5.2649 C   0  0  0  0  0  0  0  0  0  0  0  0
    3.3255   -0.3974   -3.8951 C   0  0  0  0  0  0  0  0  0  0  0  0
    4.0657   -0.0487   -1.9024 H   0  0  0  0  0  0  0  0  0  0  0  0
    5.9232    1.4047   -2.6863 H   0  0  0  0  0  0  0  0  0  0  0  0
    4.6575    0.8327   -6.7545 H   0  0  0  0  0  0  0  0  0  0  0  0
    2.8002   -0.6204   -5.9750 H   0  0  0  0  0  0  0  0  0  0  0  0
    1.9734   -1.4129   -3.3397 S   0  0  0  0  0  0  0  0  0  0  0  0
    0.6841   -0.3256   -3.3542 O   0  0  0  0  0  0  0  0  0  0  0  0
    2.2136   -1.8185   -1.9588 O   0  0  0  0  0  0  0  0  0  0  0  0
    1.6011   -2.3563   -4.3799 O   0  0  0  0  0  0  0  0  0  0  0  0
    6.5683    2.0790   -5.2572 C   0  0  0  0  0  0  0  0  0  0  0  0
    7.3950    1.4537   -5.6159 H   0  0  0  0  0  0  0  0  0  0  0  0
    6.2655    2.7223   -6.0893 H   0  0  0  0  0  0  0  0  0  0  0  0
    6.9591    2.7143   -4.4583 H   0  0  0  0  0  0  0  0  0  0  0  0
  1  7  1  0  0  0  0
  2  8  1  0  0  0  0
  2  1  2  0  0  0  0
  3  2  1  0  0  0  0
  4  3  2  0  0  0  0
  4  5  1  0  0  0  0
  5  6  2  0  0  0  0
  6  1  1  0  0  0  0
  6 11  1  0  0  0  0
  9  4  1  0  0  0  0
 10  5  1  0  0  0  0
 11 13  2  0  0  0  0
 12 11  2  0  0  0  0
 15 14  3  0  0  0  0
 16 22  1  0  0  0  0
 17 16  1  0  0  0  0
 17 23  1  0  0  0  0
 18 17  2  0  0  0  0
 19 20  2  0  0  0  0
 19 18  1  0  0  0  0
 20 21  1  0  0  0  0
 21 26  1  0  0  0  0
 21 16  2  0  0  0  0
 24 19  1  0  0  0  0
 25 20  1  0  0  0  0
 26 28  2  0  0  0  0
 27 26  1  0  0  0  0
 27  3  1  0  0  0  0
 29 26  2  0  0  0  0
 30 18  1  0  0  0  0
 30 33  1  0  0  0  0
 31 30  1  0  0  0  0
 32 30  1  0  0  0  0
M  END
