Coordinates from ORCA-job 4-NO2-Ph-N2-OTs-B3LYPG-6-31G_dp-MTMO-d009-169-n800
 OpenBabel09051908313D

 33 33  0  0  0  0  0  0  0  0999 V2000
   -0.0413    0.8640   -1.3181 C   0  0  0  0  0  0  0  0  0  0  0  0
    0.5563    0.0397   -2.2659 C   0  0  0  0  0  0  0  0  0  0  0  0
    1.3398    0.6146   -3.2717 C   0  0  0  0  0  0  0  0  0  0  0  0
    1.5276    1.9978   -3.3484 C   0  0  0  0  0  0  0  0  0  0  0  0
    0.9255    2.8243   -2.4057 C   0  0  0  0  0  0  0  0  0  0  0  0
    0.1525    2.2427   -1.4017 C   0  0  0  0  0  0  0  0  0  0  0  0
   -0.6554    0.4602   -0.5230 H   0  0  0  0  0  0  0  0  0  0  0  0
    0.4284   -1.0351   -2.2345 H   0  0  0  0  0  0  0  0  0  0  0  0
    2.1346    2.4069   -4.1483 H   0  0  0  0  0  0  0  0  0  0  0  0
    1.0454    3.9002   -2.4309 H   0  0  0  0  0  0  0  0  0  0  0  0
   -0.4794    3.1130   -0.3987 N   0  0  0  0  0  0  0  0  0  0  0  0
   -0.2879    4.3252   -0.4941 O   0  0  0  0  0  0  0  0  0  0  0  0
   -1.1588    2.5767    0.4756 O   0  0  0  0  0  0  0  0  0  0  0  0
    2.6837   -0.2952   -7.8155 N   0  0  0  0  0  0  0  0  0  0  0  0
    1.7781   -0.8411   -8.1357 N   0  0  0  0  0  0  0  0  0  0  0  0
    5.0199    0.3052   -2.5532 C   0  0  0  0  0  0  0  0  0  0  0  0
    6.0905    1.1946   -2.4834 C   0  0  0  0  0  0  0  0  0  0  0  0
    6.6944    1.6965   -3.6447 C   0  0  0  0  0  0  0  0  0  0  0  0
    6.1965    1.2858   -4.8918 C   0  0  0  0  0  0  0  0  0  0  0  0
    5.1297    0.3975   -4.9868 C   0  0  0  0  0  0  0  0  0  0  0  0
    4.5507   -0.0840   -3.8089 C   0  0  0  0  0  0  0  0  0  0  0  0
    4.5605   -0.0921   -1.6553 H   0  0  0  0  0  0  0  0  0  0  0  0
    6.4632    1.5017   -1.5104 H   0  0  0  0  0  0  0  0  0  0  0  0
    6.6539    1.6655   -5.8010 H   0  0  0  0  0  0  0  0  0  0  0  0
    4.7528    0.0778   -5.9521 H   0  0  0  0  0  0  0  0  0  0  0  0
    3.1751   -1.2078   -3.9173 S   0  0  0  0  0  0  0  0  0  0  0  0
    1.8944   -0.1692   -4.2739 O   0  0  0  0  0  0  0  0  0  0  0  0
    2.9335   -1.7996   -2.6057 O   0  0  0  0  0  0  0  0  0  0  0  0
    3.2749   -2.0057   -5.1278 O   0  0  0  0  0  0  0  0  0  0  0  0
    7.8732    2.6340   -3.5596 C   0  0  0  0  0  0  0  0  0  0  0  0
    7.8867    3.3372   -4.3976 H   0  0  0  0  0  0  0  0  0  0  0  0
    7.8628    3.2085   -2.6293 H   0  0  0  0  0  0  0  0  0  0  0  0
    8.8166    2.0752   -3.5889 H   0  0  0  0  0  0  0  0  0  0  0  0
  1  7  1  0  0  0  0
  2  8  1  0  0  0  0
  2  1  2  0  0  0  0
  3  2  1  0  0  0  0
  4  3  2  0  0  0  0
  4  5  1  0  0  0  0
  5  6  2  0  0  0  0
  6  1  1  0  0  0  0
  6 11  1  0  0  0  0
  9  4  1  0  0  0  0
 10  5  1  0  0  0  0
 11 13  2  0  0  0  0
 12 11  2  0  0  0  0
 15 14  3  0  0  0  0
 16 17  1  0  0  0  0
 16 22  1  0  0  0  0
 17 23  1  0  0  0  0
 18 30  1  0  0  0  0
 18 17  2  0  0  0  0
 19 18  1  0  0  0  0
 20 19  2  0  0  0  0
 20 21  1  0  0  0  0
 21 16  2  0  0  0  0
 24 19  1  0  0  0  0
 25 20  1  0  0  0  0
 26 21  1  0  0  0  0
 26 28  2  0  0  0  0
 27 26  1  0  0  0  0
 27  3  1  0  0  0  0
 29 26  2  0  0  0  0
 30 32  1  0  0  0  0
 31 30  1  0  0  0  0
 33 30  1  0  0  0  0
M  END
