Coordinates from ORCA-job 4-NO2-Ph-N2-OTs-B3LYPG-6-31G_dp-MTMO-d009-169-n800
 OpenBabel09051908313D

 33 33  0  0  0  0  0  0  0  0999 V2000
   -1.7826    0.5650   -2.1028 C   0  0  0  0  0  0  0  0  0  0  0  0
   -1.1545    0.2664   -3.2990 C   0  0  0  0  0  0  0  0  0  0  0  0
    0.0033    0.9909   -3.6661 C   0  0  0  0  0  0  0  0  0  0  0  0
    0.5346    2.0199   -2.8546 C   0  0  0  0  0  0  0  0  0  0  0  0
   -0.1252    2.3192   -1.6684 C   0  0  0  0  0  0  0  0  0  0  0  0
   -1.2560    1.5893   -1.3137 C   0  0  0  0  0  0  0  0  0  0  0  0
   -2.6659    0.0341   -1.7731 H   0  0  0  0  0  0  0  0  0  0  0  0
   -1.5292   -0.5167   -3.9493 H   0  0  0  0  0  0  0  0  0  0  0  0
    1.4363    2.5481   -3.1609 H   0  0  0  0  0  0  0  0  0  0  0  0
    0.2377    3.1001   -1.0118 H   0  0  0  0  0  0  0  0  0  0  0  0
   -1.9402    1.9125   -0.0393 N   0  0  0  0  0  0  0  0  0  0  0  0
   -1.4735    2.8262    0.6321 O   0  0  0  0  0  0  0  0  0  0  0  0
   -2.9277    1.2421    0.2507 O   0  0  0  0  0  0  0  0  0  0  0  0
    0.5708    0.6955   -4.7984 N   0  0  0  0  0  0  0  0  0  0  0  0
    1.1378    0.4987   -5.7553 N   0  0  0  0  0  0  0  0  0  0  0  0
    6.2733    2.2017   -4.3886 C   0  0  0  0  0  0  0  0  0  0  0  0
    7.6471    1.9852   -4.3056 C   0  0  0  0  0  0  0  0  0  0  0  0
    8.1632    0.7364   -3.9294 C   0  0  0  0  0  0  0  0  0  0  0  0
    7.2616   -0.2933   -3.6246 C   0  0  0  0  0  0  0  0  0  0  0  0
    5.8847   -0.0927   -3.7041 C   0  0  0  0  0  0  0  0  0  0  0  0
    5.3975    1.1571   -4.0883 C   0  0  0  0  0  0  0  0  0  0  0  0
    5.8745    3.1721   -4.6632 H   0  0  0  0  0  0  0  0  0  0  0  0
    8.3309    2.7998   -4.5310 H   0  0  0  0  0  0  0  0  0  0  0  0
    7.6436   -1.2627   -3.3144 H   0  0  0  0  0  0  0  0  0  0  0  0
    5.1874   -0.8836   -3.4508 H   0  0  0  0  0  0  0  0  0  0  0  0
    3.6322    1.4119   -4.2329 S   0  0  0  0  0  0  0  0  0  0  0  0
    3.2805    1.0373   -5.6630 O   0  0  0  0  0  0  0  0  0  0  0  0
    3.3750    2.8499   -3.9518 O   0  0  0  0  0  0  0  0  0  0  0  0
    2.9635    0.4854   -3.2744 O   0  0  0  0  0  0  0  0  0  0  0  0
    9.6541    0.5019   -3.8738 C   0  0  0  0  0  0  0  0  0  0  0  0
   10.0422    0.2002   -4.8548 H   0  0  0  0  0  0  0  0  0  0  0  0
   10.1920    1.4080   -3.5788 H   0  0  0  0  0  0  0  0  0  0  0  0
    9.9091   -0.2915   -3.1649 H   0  0  0  0  0  0  0  0  0  0  0  0
  1  7  1  0  0  0  0
  1  6  2  0  0  0  0
  2  1  1  0  0  0  0
  3  2  2  0  0  0  0
  3  4  1  0  0  0  0
  4  5  2  0  0  0  0
  5  6  1  0  0  0  0
  5 10  1  0  0  0  0
  6 11  1  0  0  0  0
  8  2  1  0  0  0  0
  9  4  1  0  0  0  0
 11 13  2  0  0  0  0
 11 12  2  0  0  0  0
 14  3  1  0  0  0  0
 15 14  1  0  0  0  0
 16 17  2  0  0  0  0
 16 21  1  0  0  0  0
 17 18  1  0  0  0  0
 18 30  1  0  0  0  0
 18 19  2  0  0  0  0
 19 24  1  0  0  0  0
 20 19  1  0  0  0  0
 20 25  1  0  0  0  0
 21 20  2  0  0  0  0
 22 16  1  0  0  0  0
 23 17  1  0  0  0  0
 26 21  1  0  0  0  0
 26 28  2  0  0  0  0
 26 29  1  0  0  0  0
 27 26  2  0  0  0  0
 30 32  1  0  0  0  0
 30 33  1  0  0  0  0
 31 30  1  0  0  0  0
M  RAD  3  14   2  15   3  29   2
M  END
