Coordinates from ORCA-job 4-NO2-Ph-N2-OTs-B3LYPG-6-31G_dp-MTMO-d009-169-n800
 OpenBabel09051908313D

 33 33  0  0  0  0  0  0  0  0999 V2000
    0.0029    1.2189   -0.4902 C   0  0  0  0  0  0  0  0  0  0  0  0
    0.3469    0.2415   -1.4184 C   0  0  0  0  0  0  0  0  0  0  0  0
    0.8806    0.6308   -2.6516 C   0  0  0  0  0  0  0  0  0  0  0  0
    1.0655    1.9790   -2.9721 C   0  0  0  0  0  0  0  0  0  0  0  0
    0.7135    2.9578   -2.0489 C   0  0  0  0  0  0  0  0  0  0  0  0
    0.1909    2.5612   -0.8186 C   0  0  0  0  0  0  0  0  0  0  0  0
   -0.4122    0.9603    0.4754 H   0  0  0  0  0  0  0  0  0  0  0  0
    0.2125   -0.8101   -1.1994 H   0  0  0  0  0  0  0  0  0  0  0  0
    1.4729    2.2414   -3.9418 H   0  0  0  0  0  0  0  0  0  0  0  0
    0.8379    4.0124   -2.2605 H   0  0  0  0  0  0  0  0  0  0  0  0
   -0.1762    3.5933    0.1624 N   0  0  0  0  0  0  0  0  0  0  0  0
    0.0026    4.7694   -0.1533 O   0  0  0  0  0  0  0  0  0  0  0  0
   -0.6380    3.2188    1.2396 O   0  0  0  0  0  0  0  0  0  0  0  0
    8.2875    1.2892   -8.5166 N   0  0  0  0  0  0  0  0  0  0  0  0
    8.9869    1.2109   -9.3687 N   0  0  0  0  0  0  0  0  0  0  0  0
    4.5639    0.2165   -2.7344 C   0  0  0  0  0  0  0  0  0  0  0  0
    5.6689    1.0086   -3.0339 C   0  0  0  0  0  0  0  0  0  0  0  0
    6.0832    1.2075   -4.3604 C   0  0  0  0  0  0  0  0  0  0  0  0
    5.3631    0.5826   -5.3892 C   0  0  0  0  0  0  0  0  0  0  0  0
    4.2533   -0.2132   -5.1130 C   0  0  0  0  0  0  0  0  0  0  0  0
    3.8637   -0.3858   -3.7832 C   0  0  0  0  0  0  0  0  0  0  0  0
    4.2559    0.0488   -1.7085 H   0  0  0  0  0  0  0  0  0  0  0  0
    6.2235    1.4744   -2.2241 H   0  0  0  0  0  0  0  0  0  0  0  0
    5.6820    0.7147   -6.4191 H   0  0  0  0  0  0  0  0  0  0  0  0
    3.7065   -0.7078   -5.9081 H   0  0  0  0  0  0  0  0  0  0  0  0
    2.4422   -1.3937   -3.4220 S   0  0  0  0  0  0  0  0  0  0  0  0
    1.1696   -0.3064   -3.6333 O   0  0  0  0  0  0  0  0  0  0  0  0
    2.4778   -1.7876   -2.0174 O   0  0  0  0  0  0  0  0  0  0  0  0
    2.2235   -2.3470   -4.4963 O   0  0  0  0  0  0  0  0  0  0  0  0
    7.2745    2.0812   -4.6683 C   0  0  0  0  0  0  0  0  0  0  0  0
    7.5825    1.9834   -5.7120 H   0  0  0  0  0  0  0  0  0  0  0  0
    7.0415    3.1374   -4.4860 H   0  0  0  0  0  0  0  0  0  0  0  0
    8.1284    1.8264   -4.0325 H   0  0  0  0  0  0  0  0  0  0  0  0
  1  7  1  0  0  0  0
  2  8  1  0  0  0  0
  2  1  2  0  0  0  0
  3  2  1  0  0  0  0
  4  3  2  0  0  0  0
  4  5  1  0  0  0  0
  5  6  2  0  0  0  0
  6  1  1  0  0  0  0
  6 11  1  0  0  0  0
  9  4  1  0  0  0  0
 10  5  1  0  0  0  0
 11 13  2  0  0  0  0
 12 11  2  0  0  0  0
 15 14  3  0  0  0  0
 16 22  1  0  0  0  0
 17 16  1  0  0  0  0
 17 23  1  0  0  0  0
 18 17  2  0  0  0  0
 19 20  2  0  0  0  0
 19 18  1  0  0  0  0
 20 21  1  0  0  0  0
 21 26  1  0  0  0  0
 21 16  2  0  0  0  0
 24 19  1  0  0  0  0
 25 20  1  0  0  0  0
 26 28  2  0  0  0  0
 27 26  1  0  0  0  0
 27  3  1  0  0  0  0
 29 26  2  0  0  0  0
 30 32  1  0  0  0  0
 30 18  1  0  0  0  0
 30 33  1  0  0  0  0
 31 30  1  0  0  0  0
M  END
