Coordinates from ORCA-job 4-NO2-Ph-N2-OTs-B3LYPG-6-31G_dp-MTMO-d009-169-n800
 OpenBabel09051908313D

 33 33  0  0  0  0  0  0  0  0999 V2000
    0.1116    1.1728   -0.1409 C   0  0  0  0  0  0  0  0  0  0  0  0
    0.3191    0.2015   -1.1146 C   0  0  0  0  0  0  0  0  0  0  0  0
    0.6888    0.5975   -2.4041 C   0  0  0  0  0  0  0  0  0  0  0  0
    0.8468    1.9467   -2.7349 C   0  0  0  0  0  0  0  0  0  0  0  0
    0.6323    2.9197   -1.7647 C   0  0  0  0  0  0  0  0  0  0  0  0
    0.2708    2.5162   -0.4801 C   0  0  0  0  0  0  0  0  0  0  0  0
   -0.1766    0.9097    0.8688 H   0  0  0  0  0  0  0  0  0  0  0  0
    0.2029   -0.8512   -0.8896 H   0  0  0  0  0  0  0  0  0  0  0  0
    1.1267    2.2144   -3.7473 H   0  0  0  0  0  0  0  0  0  0  0  0
    0.7409    3.9749   -1.9816 H   0  0  0  0  0  0  0  0  0  0  0  0
    0.0481    3.5425    0.5495 N   0  0  0  0  0  0  0  0  0  0  0  0
    0.1996    4.7196    0.2234 O   0  0  0  0  0  0  0  0  0  0  0  0
   -0.2746    3.1624    1.6743 O   0  0  0  0  0  0  0  0  0  0  0  0
   12.1177    1.2943   -7.8860 N   0  0  0  0  0  0  0  0  0  0  0  0
   13.0815    1.0863   -8.3855 N   0  0  0  0  0  0  0  0  0  0  0  0
    4.3385    0.2005   -3.0208 C   0  0  0  0  0  0  0  0  0  0  0  0
    5.3709    1.0230   -3.4698 C   0  0  0  0  0  0  0  0  0  0  0  0
    5.5521    1.2820   -4.8353 C   0  0  0  0  0  0  0  0  0  0  0  0
    4.6675    0.6925   -5.7536 C   0  0  0  0  0  0  0  0  0  0  0  0
    3.6309   -0.1323   -5.3287 C   0  0  0  0  0  0  0  0  0  0  0  0
    3.4764   -0.3683   -3.9592 C   0  0  0  0  0  0  0  0  0  0  0  0
    4.2088   -0.0106   -1.9653 H   0  0  0  0  0  0  0  0  0  0  0  0
    6.0481    1.4677   -2.7460 H   0  0  0  0  0  0  0  0  0  0  0  0
    4.7961    0.8805   -6.8162 H   0  0  0  0  0  0  0  0  0  0  0  0
    2.9572   -0.5975   -6.0400 H   0  0  0  0  0  0  0  0  0  0  0  0
    2.1387   -1.4040   -3.4063 S   0  0  0  0  0  0  0  0  0  0  0  0
    0.8333   -0.3361   -3.4207 O   0  0  0  0  0  0  0  0  0  0  0  0
    2.3837   -1.8078   -2.0257 O   0  0  0  0  0  0  0  0  0  0  0  0
    1.7814   -2.3516   -4.4479 O   0  0  0  0  0  0  0  0  0  0  0  0
    6.6882    2.1510   -5.3160 C   0  0  0  0  0  0  0  0  0  0  0  0
    7.5183    1.5369   -5.6860 H   0  0  0  0  0  0  0  0  0  0  0  0
    6.3746    2.7994   -6.1401 H   0  0  0  0  0  0  0  0  0  0  0  0
    7.0780    2.7821   -4.5134 H   0  0  0  0  0  0  0  0  0  0  0  0
  1  7  1  0  0  0  0
  2  8  1  0  0  0  0
  2  1  2  0  0  0  0
  3  2  1  0  0  0  0
  4  3  2  0  0  0  0
  4  5  1  0  0  0  0
  5  6  2  0  0  0  0
  6  1  1  0  0  0  0
  6 11  1  0  0  0  0
  9  4  1  0  0  0  0
 10  5  1  0  0  0  0
 11 13  2  0  0  0  0
 12 11  2  0  0  0  0
 15 14  3  0  0  0  0
 16 22  1  0  0  0  0
 17 16  1  0  0  0  0
 17 23  1  0  0  0  0
 18 17  2  0  0  0  0
 19 20  2  0  0  0  0
 19 18  1  0  0  0  0
 20 21  1  0  0  0  0
 21 26  1  0  0  0  0
 21 16  2  0  0  0  0
 24 19  1  0  0  0  0
 25 20  1  0  0  0  0
 26 28  2  0  0  0  0
 27 26  1  0  0  0  0
 27  3  1  0  0  0  0
 29 26  2  0  0  0  0
 30 18  1  0  0  0  0
 30 33  1  0  0  0  0
 31 30  1  0  0  0  0
 32 30  1  0  0  0  0
M  END
