Coordinates from ORCA-job 4-NO2-Ph-N2-OTs-B3LYPG-6-31G_dp-MTMO-d009-169-n800
 OpenBabel09051908313D

 33 33  0  0  0  0  0  0  0  0999 V2000
    0.0800    0.8325   -1.3258 C   0  0  0  0  0  0  0  0  0  0  0  0
    0.6930   -0.0524   -2.2071 C   0  0  0  0  0  0  0  0  0  0  0  0
    1.3975    0.4572   -3.3028 C   0  0  0  0  0  0  0  0  0  0  0  0
    1.4897    1.8329   -3.5350 C   0  0  0  0  0  0  0  0  0  0  0  0
    0.8699    2.7182   -2.6597 C   0  0  0  0  0  0  0  0  0  0  0  0
    0.1773    2.2031   -1.5646 C   0  0  0  0  0  0  0  0  0  0  0  0
   -0.4746    0.4803   -0.4653 H   0  0  0  0  0  0  0  0  0  0  0  0
    0.6372   -1.1230   -2.0556 H   0  0  0  0  0  0  0  0  0  0  0  0
    2.0350    2.1876   -4.4024 H   0  0  0  0  0  0  0  0  0  0  0  0
    0.9152    3.7902   -2.8062 H   0  0  0  0  0  0  0  0  0  0  0  0
   -0.4732    3.1365   -0.6330 N   0  0  0  0  0  0  0  0  0  0  0  0
   -0.3690    4.3405   -0.8664 O   0  0  0  0  0  0  0  0  0  0  0  0
   -1.0803    2.6575    0.3240 O   0  0  0  0  0  0  0  0  0  0  0  0
    2.1198    0.7744   -7.2078 N   0  0  0  0  0  0  0  0  0  0  0  0
    1.3661    0.1786   -7.7539 N   0  0  0  0  0  0  0  0  0  0  0  0
    5.0346    0.2788   -2.5043 C   0  0  0  0  0  0  0  0  0  0  0  0
    6.0738    1.2058   -2.4512 C   0  0  0  0  0  0  0  0  0  0  0  0
    6.6916    1.6721   -3.6199 C   0  0  0  0  0  0  0  0  0  0  0  0
    6.2401    1.1868   -4.8578 C   0  0  0  0  0  0  0  0  0  0  0  0
    5.2054    0.2601   -4.9352 C   0  0  0  0  0  0  0  0  0  0  0  0
    4.6107   -0.1846   -3.7509 C   0  0  0  0  0  0  0  0  0  0  0  0
    4.5664   -0.0916   -1.5995 H   0  0  0  0  0  0  0  0  0  0  0  0
    6.4114    1.5702   -1.4852 H   0  0  0  0  0  0  0  0  0  0  0  0
    6.7091    1.5376   -5.7727 H   0  0  0  0  0  0  0  0  0  0  0  0
    4.8661   -0.1208   -5.8920 H   0  0  0  0  0  0  0  0  0  0  0  0
    3.2793   -1.3619   -3.8402 S   0  0  0  0  0  0  0  0  0  0  0  0
    1.9628   -0.3898   -4.2459 O   0  0  0  0  0  0  0  0  0  0  0  0
    3.0450   -1.9208   -2.5127 O   0  0  0  0  0  0  0  0  0  0  0  0
    3.4245   -2.1923   -5.0234 O   0  0  0  0  0  0  0  0  0  0  0  0
    7.8379    2.6500   -3.5508 C   0  0  0  0  0  0  0  0  0  0  0  0
    7.8429    3.3230   -4.4133 H   0  0  0  0  0  0  0  0  0  0  0  0
    7.7939    3.2566   -2.6421 H   0  0  0  0  0  0  0  0  0  0  0  0
    8.7992    2.1216   -3.5457 H   0  0  0  0  0  0  0  0  0  0  0  0
  1  7  1  0  0  0  0
  2  8  1  0  0  0  0
  2  1  2  0  0  0  0
  3  2  1  0  0  0  0
  4  3  2  0  0  0  0
  4  5  1  0  0  0  0
  5  6  2  0  0  0  0
  6  1  1  0  0  0  0
  6 11  1  0  0  0  0
  9  4  1  0  0  0  0
 10  5  1  0  0  0  0
 11 13  2  0  0  0  0
 12 11  2  0  0  0  0
 15 14  3  0  0  0  0
 16 17  1  0  0  0  0
 16 22  1  0  0  0  0
 17 23  1  0  0  0  0
 18 30  1  0  0  0  0
 18 17  2  0  0  0  0
 19 18  1  0  0  0  0
 20 19  2  0  0  0  0
 20 21  1  0  0  0  0
 21 16  2  0  0  0  0
 24 19  1  0  0  0  0
 25 20  1  0  0  0  0
 26 21  1  0  0  0  0
 26 28  2  0  0  0  0
 27 26  1  0  0  0  0
 27  3  1  0  0  0  0
 29 26  2  0  0  0  0
 30 33  1  0  0  0  0
 30 32  1  0  0  0  0
 31 30  1  0  0  0  0
M  END
