Coordinates from ORCA-job 4-NO2-Ph-N2-OTs-B3LYPG-6-31G_dp-MTMO-d009-169-n800
 OpenBabel09051908313D

 33 33  0  0  0  0  0  0  0  0999 V2000
   -0.0306    1.1832   -0.7654 C   0  0  0  0  0  0  0  0  0  0  0  0
    0.3747    0.2502   -1.7144 C   0  0  0  0  0  0  0  0  0  0  0  0
    1.0040    0.6952   -2.8819 C   0  0  0  0  0  0  0  0  0  0  0  0
    1.2241    2.0557   -3.1173 C   0  0  0  0  0  0  0  0  0  0  0  0
    0.8111    2.9904   -2.1739 C   0  0  0  0  0  0  0  0  0  0  0  0
    0.1930    2.5381   -1.0086 C   0  0  0  0  0  0  0  0  0  0  0  0
   -0.5201    0.8806    0.1514 H   0  0  0  0  0  0  0  0  0  0  0  0
    0.2152   -0.8096   -1.5614 H   0  0  0  0  0  0  0  0  0  0  0  0
    1.7064    2.3623   -4.0385 H   0  0  0  0  0  0  0  0  0  0  0  0
    0.9607    4.0527   -2.3207 H   0  0  0  0  0  0  0  0  0  0  0  0
   -0.2389    3.5231   -0.0061 N   0  0  0  0  0  0  0  0  0  0  0  0
   -0.0278    4.7116   -0.2466 O   0  0  0  0  0  0  0  0  0  0  0  0
   -0.7833    3.0998    1.0130 O   0  0  0  0  0  0  0  0  0  0  0  0
    6.3905    0.5774   -8.8616 N   0  0  0  0  0  0  0  0  0  0  0  0
    6.5832    0.1926   -9.8794 N   0  0  0  0  0  0  0  0  0  0  0  0
    4.6689    0.1745   -2.5979 C   0  0  0  0  0  0  0  0  0  0  0  0
    5.7989    0.9819   -2.7154 C   0  0  0  0  0  0  0  0  0  0  0  0
    6.3184    1.3265   -3.9710 C   0  0  0  0  0  0  0  0  0  0  0  0
    5.6753    0.8411   -5.1213 C   0  0  0  0  0  0  0  0  0  0  0  0
    4.5467    0.0327   -5.0274 C   0  0  0  0  0  0  0  0  0  0  0  0
    4.0531   -0.2917   -3.7605 C   0  0  0  0  0  0  0  0  0  0  0  0
    4.2761   -0.1025   -1.6263 H   0  0  0  0  0  0  0  0  0  0  0  0
    6.2862    1.3477   -1.8160 H   0  0  0  0  0  0  0  0  0  0  0  0
    6.0643    1.0942   -6.1033 H   0  0  0  0  0  0  0  0  0  0  0  0
    4.0596   -0.3530   -5.9161 H   0  0  0  0  0  0  0  0  0  0  0  0
    2.5990   -1.3091   -3.6339 S   0  0  0  0  0  0  0  0  0  0  0  0
    1.3599   -0.1933   -3.8866 O   0  0  0  0  0  0  0  0  0  0  0  0
    2.4867   -1.8182   -2.2709 O   0  0  0  0  0  0  0  0  0  0  0  0
    2.4892   -2.1681   -4.8004 O   0  0  0  0  0  0  0  0  0  0  0  0
    7.5602    2.1753   -4.0868 C   0  0  0  0  0  0  0  0  0  0  0  0
    7.5078    2.8444   -4.9509 H   0  0  0  0  0  0  0  0  0  0  0  0
    7.7164    2.7826   -3.1912 H   0  0  0  0  0  0  0  0  0  0  0  0
    8.4495    1.5466   -4.2166 H   0  0  0  0  0  0  0  0  0  0  0  0
  1  7  1  0  0  0  0
  2  8  1  0  0  0  0
  2  1  2  0  0  0  0
  3  2  1  0  0  0  0
  4  3  2  0  0  0  0
  4  5  1  0  0  0  0
  5  6  2  0  0  0  0
  6  1  1  0  0  0  0
  6 11  1  0  0  0  0
  9  4  1  0  0  0  0
 10  5  1  0  0  0  0
 11 13  2  0  0  0  0
 12 11  2  0  0  0  0
 15 14  3  0  0  0  0
 16 22  1  0  0  0  0
 17 16  1  0  0  0  0
 17 23  1  0  0  0  0
 18 17  2  0  0  0  0
 19 20  2  0  0  0  0
 19 18  1  0  0  0  0
 20 21  1  0  0  0  0
 21 26  1  0  0  0  0
 21 16  2  0  0  0  0
 24 19  1  0  0  0  0
 25 20  1  0  0  0  0
 26 28  2  0  0  0  0
 27 26  1  0  0  0  0
 27  3  1  0  0  0  0
 29 26  2  0  0  0  0
 30 18  1  0  0  0  0
 30 32  1  0  0  0  0
 31 30  1  0  0  0  0
 33 30  1  0  0  0  0
M  END
