Coordinates from ORCA-job 4-NO2-Ph-N2-OTs-B3LYPG-6-31G_dp-MTMO-d009-169-n800
 OpenBabel09051908313D

 33 33  0  0  0  0  0  0  0  0999 V2000
    0.0809    1.1770   -0.1224 C   0  0  0  0  0  0  0  0  0  0  0  0
    0.2847    0.2047   -1.0960 C   0  0  0  0  0  0  0  0  0  0  0  0
    0.6547    0.5991   -2.3858 C   0  0  0  0  0  0  0  0  0  0  0  0
    0.8168    1.9476   -2.7173 C   0  0  0  0  0  0  0  0  0  0  0  0
    0.6061    2.9216   -1.7473 C   0  0  0  0  0  0  0  0  0  0  0  0
    0.2442    2.5198   -0.4623 C   0  0  0  0  0  0  0  0  0  0  0  0
   -0.2075    0.9153    0.8875 H   0  0  0  0  0  0  0  0  0  0  0  0
    0.1652   -0.8475   -0.8705 H   0  0  0  0  0  0  0  0  0  0  0  0
    1.0970    2.2140   -3.7300 H   0  0  0  0  0  0  0  0  0  0  0  0
    0.7180    3.9765   -1.9646 H   0  0  0  0  0  0  0  0  0  0  0  0
    0.0254    3.5472    0.5671 N   0  0  0  0  0  0  0  0  0  0  0  0
    0.1807    4.7237    0.2404 O   0  0  0  0  0  0  0  0  0  0  0  0
   -0.2978    3.1686    1.6921 O   0  0  0  0  0  0  0  0  0  0  0  0
   12.6439    1.3314   -8.1327 N   0  0  0  0  0  0  0  0  0  0  0  0
   13.6005    1.1237   -8.6460 N   0  0  0  0  0  0  0  0  0  0  0  0
    4.3021    0.1939   -3.0056 C   0  0  0  0  0  0  0  0  0  0  0  0
    5.3354    1.0148   -3.4556 C   0  0  0  0  0  0  0  0  0  0  0  0
    5.5155    1.2735   -4.8213 C   0  0  0  0  0  0  0  0  0  0  0  0
    4.6289    0.6856   -5.7386 C   0  0  0  0  0  0  0  0  0  0  0  0
    3.5913   -0.1374   -5.3126 C   0  0  0  0  0  0  0  0  0  0  0  0
    3.4379   -0.3733   -3.9430 C   0  0  0  0  0  0  0  0  0  0  0  0
    4.1732   -0.0169   -1.9499 H   0  0  0  0  0  0  0  0  0  0  0  0
    6.0141    1.4583   -2.7325 H   0  0  0  0  0  0  0  0  0  0  0  0
    4.7566    0.8735   -6.8014 H   0  0  0  0  0  0  0  0  0  0  0  0
    2.9160   -0.6015   -6.0232 H   0  0  0  0  0  0  0  0  0  0  0  0
    2.0987   -1.4062   -3.3887 S   0  0  0  0  0  0  0  0  0  0  0  0
    0.7956   -0.3355   -3.4021 O   0  0  0  0  0  0  0  0  0  0  0  0
    2.3441   -1.8101   -2.0082 O   0  0  0  0  0  0  0  0  0  0  0  0
    1.7385   -2.3532   -4.4297 O   0  0  0  0  0  0  0  0  0  0  0  0
    6.6525    2.1406   -5.3030 C   0  0  0  0  0  0  0  0  0  0  0  0
    7.4834    1.5250   -5.6688 H   0  0  0  0  0  0  0  0  0  0  0  0
    6.3408    2.7860   -6.1303 H   0  0  0  0  0  0  0  0  0  0  0  0
    7.0407    2.7749   -4.5020 H   0  0  0  0  0  0  0  0  0  0  0  0
  1  7  1  0  0  0  0
  2  8  1  0  0  0  0
  2  1  2  0  0  0  0
  3  2  1  0  0  0  0
  4  3  2  0  0  0  0
  4  5  1  0  0  0  0
  5  6  2  0  0  0  0
  6  1  1  0  0  0  0
  6 11  1  0  0  0  0
  9  4  1  0  0  0  0
 10  5  1  0  0  0  0
 11 13  2  0  0  0  0
 12 11  2  0  0  0  0
 15 14  3  0  0  0  0
 16 22  1  0  0  0  0
 17 16  1  0  0  0  0
 17 23  1  0  0  0  0
 18 17  2  0  0  0  0
 19 20  2  0  0  0  0
 19 18  1  0  0  0  0
 20 21  1  0  0  0  0
 21 26  1  0  0  0  0
 21 16  2  0  0  0  0
 24 19  1  0  0  0  0
 25 20  1  0  0  0  0
 26 28  2  0  0  0  0
 27 26  1  0  0  0  0
 27  3  1  0  0  0  0
 29 26  2  0  0  0  0
 30 18  1  0  0  0  0
 30 33  1  0  0  0  0
 31 30  1  0  0  0  0
 32 30  1  0  0  0  0
M  END
