Coordinates from ORCA-job 4-NO2-Ph-N2-OTs-B3LYPG-6-31G_dp-MTMO-d009-169-n800
 OpenBabel09051908313D

 33 33  0  0  0  0  0  0  0  0999 V2000
   -0.1234    1.5433   -0.1433 C   0  0  0  0  0  0  0  0  0  0  0  0
   -0.0616    0.5424   -1.1074 C   0  0  0  0  0  0  0  0  0  0  0  0
    0.4106    0.8565   -2.3860 C   0  0  0  0  0  0  0  0  0  0  0  0
    0.8110    2.1547   -2.7163 C   0  0  0  0  0  0  0  0  0  0  0  0
    0.7411    3.1586   -1.7564 C   0  0  0  0  0  0  0  0  0  0  0  0
    0.2782    2.8353   -0.4817 C   0  0  0  0  0  0  0  0  0  0  0  0
   -0.4826    1.3431    0.8579 H   0  0  0  0  0  0  0  0  0  0  0  0
   -0.3681   -0.4712   -0.8826 H   0  0  0  0  0  0  0  0  0  0  0  0
    1.1624    2.3614   -3.7208 H   0  0  0  0  0  0  0  0  0  0  0  0
    1.0387    4.1765   -1.9735 H   0  0  0  0  0  0  0  0  0  0  0  0
    0.2092    3.8928    0.5376 N   0  0  0  0  0  0  0  0  0  0  0  0
    0.5644    5.0247    0.2098 O   0  0  0  0  0  0  0  0  0  0  0  0
   -0.1973    3.5817    1.6563 O   0  0  0  0  0  0  0  0  0  0  0  0
   15.1167    3.5686   -9.6836 N   0  0  0  0  0  0  0  0  0  0  0  0
   15.9546    3.6119  -10.4031 N   0  0  0  0  0  0  0  0  0  0  0  0
    3.9299   -0.2322   -2.8187 C   0  0  0  0  0  0  0  0  0  0  0  0
    5.1259    0.3672   -3.2104 C   0  0  0  0  0  0  0  0  0  0  0  0
    5.4345    0.5552   -4.5649 C   0  0  0  0  0  0  0  0  0  0  0  0
    4.5093    0.1256   -5.5303 C   0  0  0  0  0  0  0  0  0  0  0  0
    3.3092   -0.4751   -5.1627 C   0  0  0  0  0  0  0  0  0  0  0  0
    3.0315   -0.6465   -3.8035 C   0  0  0  0  0  0  0  0  0  0  0  0
    3.6989   -0.3903   -1.7711 H   0  0  0  0  0  0  0  0  0  0  0  0
    5.8314    0.6917   -2.4508 H   0  0  0  0  0  0  0  0  0  0  0  0
    4.7349    0.2613   -6.5848 H   0  0  0  0  0  0  0  0  0  0  0  0
    2.6018   -0.8185   -5.9095 H   0  0  0  0  0  0  0  0  0  0  0  0
    1.4906   -1.3969   -3.3239 S   0  0  0  0  0  0  0  0  0  0  0  0
    0.4216   -0.0946   -3.3964 O   0  0  0  0  0  0  0  0  0  0  0  0
    1.5832   -1.8363   -1.9356 O   0  0  0  0  0  0  0  0  0  0  0  0
    1.0068   -2.2601   -4.3876 O   0  0  0  0  0  0  0  0  0  0  0  0
    6.7438    1.1788   -4.9813 C   0  0  0  0  0  0  0  0  0  0  0  0
    7.4802    0.4057   -5.2324 H   0  0  0  0  0  0  0  0  0  0  0  0
    6.6213    1.8098   -5.8667 H   0  0  0  0  0  0  0  0  0  0  0  0
    7.1697    1.7896   -4.1806 H   0  0  0  0  0  0  0  0  0  0  0  0
  1  7  1  0  0  0  0
  2  8  1  0  0  0  0
  2  1  2  0  0  0  0
  3  2  1  0  0  0  0
  4  3  2  0  0  0  0
  4  5  1  0  0  0  0
  5  6  2  0  0  0  0
  6  1  1  0  0  0  0
  6 11  1  0  0  0  0
  9  4  1  0  0  0  0
 10  5  1  0  0  0  0
 11 13  2  0  0  0  0
 12 11  2  0  0  0  0
 15 14  3  0  0  0  0
 16 22  1  0  0  0  0
 17 16  1  0  0  0  0
 17 23  1  0  0  0  0
 18 17  2  0  0  0  0
 19 20  2  0  0  0  0
 19 18  1  0  0  0  0
 20 21  1  0  0  0  0
 21 26  1  0  0  0  0
 21 16  2  0  0  0  0
 24 19  1  0  0  0  0
 25 20  1  0  0  0  0
 26 28  2  0  0  0  0
 27 26  1  0  0  0  0
 27  3  1  0  0  0  0
 29 26  2  0  0  0  0
 30 18  1  0  0  0  0
 30 33  1  0  0  0  0
 31 30  1  0  0  0  0
 32 30  1  0  0  0  0
M  END
