Coordinates from ORCA-job 4-NO2-Ph-N2-OTs-B3LYPG-6-31G_dp-MTMO-d009-169-n800
 OpenBabel09051908313D

 33 33  0  0  0  0  0  0  0  0999 V2000
   -1.7005    0.5156   -2.0969 C   0  0  0  0  0  0  0  0  0  0  0  0
   -1.1077    0.2477   -3.3130 C   0  0  0  0  0  0  0  0  0  0  0  0
    0.0262    1.0081   -3.7404 C   0  0  0  0  0  0  0  0  0  0  0  0
    0.5384    2.0539   -2.9093 C   0  0  0  0  0  0  0  0  0  0  0  0
   -0.0908    2.3225   -1.7026 C   0  0  0  0  0  0  0  0  0  0  0  0
   -1.1829    1.5525   -1.3153 C   0  0  0  0  0  0  0  0  0  0  0  0
   -2.5533   -0.0483   -1.7418 H   0  0  0  0  0  0  0  0  0  0  0  0
   -1.4768   -0.5461   -3.9541 H   0  0  0  0  0  0  0  0  0  0  0  0
    1.4065    2.6204   -3.2417 H   0  0  0  0  0  0  0  0  0  0  0  0
    0.2687    3.1108   -1.0527 H   0  0  0  0  0  0  0  0  0  0  0  0
   -1.8346    1.8426   -0.0173 N   0  0  0  0  0  0  0  0  0  0  0  0
   -1.3767    2.7668    0.6461 O   0  0  0  0  0  0  0  0  0  0  0  0
   -2.7893    1.1370    0.2984 O   0  0  0  0  0  0  0  0  0  0  0  0
    0.5265    0.7616   -4.7807 N   0  0  0  0  0  0  0  0  0  0  0  0
    1.0486    0.5555   -5.7669 N   0  0  0  0  0  0  0  0  0  0  0  0
    6.2641    2.2097   -4.4172 C   0  0  0  0  0  0  0  0  0  0  0  0
    7.6331    1.9724   -4.3109 C   0  0  0  0  0  0  0  0  0  0  0  0
    8.1229    0.7257   -3.8956 C   0  0  0  0  0  0  0  0  0  0  0  0
    7.1999   -0.2802   -3.5751 C   0  0  0  0  0  0  0  0  0  0  0  0
    5.8279   -0.0586   -3.6773 C   0  0  0  0  0  0  0  0  0  0  0  0
    5.3667    1.1887   -4.1006 C   0  0  0  0  0  0  0  0  0  0  0  0
    5.8855    3.1791   -4.7224 H   0  0  0  0  0  0  0  0  0  0  0  0
    8.3334    2.7691   -4.5492 H   0  0  0  0  0  0  0  0  0  0  0  0
    7.5614   -1.2474   -3.2349 H   0  0  0  0  0  0  0  0  0  0  0  0
    5.1143   -0.8309   -3.4121 H   0  0  0  0  0  0  0  0  0  0  0  0
    3.6083    1.4706   -4.2780 S   0  0  0  0  0  0  0  0  0  0  0  0
    3.2602    1.0534   -5.6919 O   0  0  0  0  0  0  0  0  0  0  0  0
    3.3732    2.9201   -4.0412 O   0  0  0  0  0  0  0  0  0  0  0  0
    2.9143    0.5892   -3.2902 O   0  0  0  0  0  0  0  0  0  0  0  0
    9.6085    0.4662   -3.8154 C   0  0  0  0  0  0  0  0  0  0  0  0
    9.9956    0.0946   -4.7728 H   0  0  0  0  0  0  0  0  0  0  0  0
   10.1629    1.3783   -3.5750 H   0  0  0  0  0  0  0  0  0  0  0  0
    9.8438   -0.2859   -3.0561 H   0  0  0  0  0  0  0  0  0  0  0  0
  1  7  1  0  0  0  0
  1  6  2  0  0  0  0
  2  1  1  0  0  0  0
  3  2  2  0  0  0  0
  3  4  1  0  0  0  0
  4  5  2  0  0  0  0
  5  6  1  0  0  0  0
  5 10  1  0  0  0  0
  6 11  1  0  0  0  0
  8  2  1  0  0  0  0
  9  4  1  0  0  0  0
 11 13  2  0  0  0  0
 11 12  2  0  0  0  0
 14  3  1  0  0  0  0
 15 14  1  0  0  0  0
 16 17  2  0  0  0  0
 16 21  1  0  0  0  0
 17 18  1  0  0  0  0
 18 30  1  0  0  0  0
 18 19  2  0  0  0  0
 19 24  1  0  0  0  0
 20 19  1  0  0  0  0
 20 25  1  0  0  0  0
 21 20  2  0  0  0  0
 22 16  1  0  0  0  0
 23 17  1  0  0  0  0
 26 21  1  0  0  0  0
 26 28  2  0  0  0  0
 26 29  1  0  0  0  0
 27 26  2  0  0  0  0
 30 32  1  0  0  0  0
 30 33  1  0  0  0  0
 31 30  1  0  0  0  0
M  RAD  3  14   2  15   3  29   2
M  END
