Coordinates from ORCA-job 4-NO2-Ph-N2-OTs-B3LYPG-6-31G_dp-MTMO-d009-169-n800
 OpenBabel09051908313D

 33 33  0  0  0  0  0  0  0  0999 V2000
    0.0130    0.8474   -1.3503 C   0  0  0  0  0  0  0  0  0  0  0  0
    0.6204   -0.0012   -2.2700 C   0  0  0  0  0  0  0  0  0  0  0  0
    1.3757    0.5504   -3.3101 C   0  0  0  0  0  0  0  0  0  0  0  0
    1.5249    1.9336   -3.4486 C   0  0  0  0  0  0  0  0  0  0  0  0
    0.9120    2.7838   -2.5344 C   0  0  0  0  0  0  0  0  0  0  0  0
    0.1680    2.2258   -1.4957 C   0  0  0  0  0  0  0  0  0  0  0  0
   -0.5798    0.4622   -0.5303 H   0  0  0  0  0  0  0  0  0  0  0  0
    0.5219   -1.0766   -2.1908 H   0  0  0  0  0  0  0  0  0  0  0  0
    2.1102    2.3231   -4.2740 H   0  0  0  0  0  0  0  0  0  0  0  0
    1.0019    3.8604   -2.6079 H   0  0  0  0  0  0  0  0  0  0  0  0
   -0.4750    3.1215   -0.5225 N   0  0  0  0  0  0  0  0  0  0  0  0
   -0.3189    4.3331   -0.6729 O   0  0  0  0  0  0  0  0  0  0  0  0
   -1.1276    2.6054    0.3838 O   0  0  0  0  0  0  0  0  0  0  0  0
    2.3051    0.1020   -7.4475 N   0  0  0  0  0  0  0  0  0  0  0  0
    1.4244   -0.4532   -7.8178 N   0  0  0  0  0  0  0  0  0  0  0  0
    5.0399    0.2839   -2.5345 C   0  0  0  0  0  0  0  0  0  0  0  0
    6.0968    1.1892   -2.4602 C   0  0  0  0  0  0  0  0  0  0  0  0
    6.7056    1.6915   -3.6188 C   0  0  0  0  0  0  0  0  0  0  0  0
    6.2265    1.2650   -4.8680 C   0  0  0  0  0  0  0  0  0  0  0  0
    5.1737    0.3607   -4.9671 C   0  0  0  0  0  0  0  0  0  0  0  0
    4.5894   -0.1210   -3.7920 C   0  0  0  0  0  0  0  0  0  0  0  0
    4.5773   -0.1138   -1.6385 H   0  0  0  0  0  0  0  0  0  0  0  0
    6.4551    1.5085   -1.4857 H   0  0  0  0  0  0  0  0  0  0  0  0
    6.6877    1.6448   -5.7753 H   0  0  0  0  0  0  0  0  0  0  0  0
    4.8110    0.0285   -5.9334 H   0  0  0  0  0  0  0  0  0  0  0  0
    3.2346   -1.2693   -3.9064 S   0  0  0  0  0  0  0  0  0  0  0  0
    1.9384   -0.2587   -4.2867 O   0  0  0  0  0  0  0  0  0  0  0  0
    2.9894   -1.8541   -2.5923 O   0  0  0  0  0  0  0  0  0  0  0  0
    3.3605   -2.0746   -5.1092 O   0  0  0  0  0  0  0  0  0  0  0  0
    7.8702    2.6460   -3.5285 C   0  0  0  0  0  0  0  0  0  0  0  0
    7.8769    3.3496   -4.3663 H   0  0  0  0  0  0  0  0  0  0  0  0
    7.8476    3.2199   -2.5982 H   0  0  0  0  0  0  0  0  0  0  0  0
    8.8217    2.1009   -3.5543 H   0  0  0  0  0  0  0  0  0  0  0  0
  1  7  1  0  0  0  0
  2  8  1  0  0  0  0
  2  1  2  0  0  0  0
  3  2  1  0  0  0  0
  4  3  2  0  0  0  0
  4  5  1  0  0  0  0
  5  6  2  0  0  0  0
  6  1  1  0  0  0  0
  6 11  1  0  0  0  0
  9  4  1  0  0  0  0
 10  5  1  0  0  0  0
 11 13  2  0  0  0  0
 12 11  2  0  0  0  0
 15 14  3  0  0  0  0
 16 17  1  0  0  0  0
 16 22  1  0  0  0  0
 17 23  1  0  0  0  0
 18 30  1  0  0  0  0
 18 17  2  0  0  0  0
 19 18  1  0  0  0  0
 20 19  2  0  0  0  0
 20 21  1  0  0  0  0
 21 16  2  0  0  0  0
 24 19  1  0  0  0  0
 25 20  1  0  0  0  0
 26 21  1  0  0  0  0
 26 28  2  0  0  0  0
 27 26  1  0  0  0  0
 27  3  1  0  0  0  0
 29 26  2  0  0  0  0
 30 32  1  0  0  0  0
 31 30  1  0  0  0  0
 33 30  1  0  0  0  0
M  END
