Coordinates from ORCA-job 4-NO2-Ph-N2-OTs-B3LYPG-6-31G_dp-MTMO-d009-169-n800
 OpenBabel09051908313D

 33 33  0  0  0  0  0  0  0  0999 V2000
   -1.6798    0.5031   -2.0936 C   0  0  0  0  0  0  0  0  0  0  0  0
   -1.0969    0.2413   -3.3149 C   0  0  0  0  0  0  0  0  0  0  0  0
    0.0288    1.0112   -3.7572 C   0  0  0  0  0  0  0  0  0  0  0  0
    0.5379    2.0618   -2.9248 C   0  0  0  0  0  0  0  0  0  0  0  0
   -0.0827    2.3241   -1.7127 C   0  0  0  0  0  0  0  0  0  0  0  0
   -1.1641    1.5443   -1.3157 C   0  0  0  0  0  0  0  0  0  0  0  0
   -2.5241   -0.0687   -1.7310 H   0  0  0  0  0  0  0  0  0  0  0  0
   -1.4644   -0.5560   -3.9527 H   0  0  0  0  0  0  0  0  0  0  0  0
    1.3965    2.6378   -3.2648 H   0  0  0  0  0  0  0  0  0  0  0  0
    0.2761    3.1151   -1.0658 H   0  0  0  0  0  0  0  0  0  0  0  0
   -1.8065    1.8279   -0.0119 N   0  0  0  0  0  0  0  0  0  0  0  0
   -1.3507    2.7556    0.6481 O   0  0  0  0  0  0  0  0  0  0  0  0
   -2.7522    1.1137    0.3119 O   0  0  0  0  0  0  0  0  0  0  0  0
    0.5154    0.7731   -4.7833 N   0  0  0  0  0  0  0  0  0  0  0  0
    1.0309    0.5682   -5.7746 N   0  0  0  0  0  0  0  0  0  0  0  0
    6.2615    2.2119   -4.4221 C   0  0  0  0  0  0  0  0  0  0  0  0
    7.6291    1.9694   -4.3105 C   0  0  0  0  0  0  0  0  0  0  0  0
    8.1126    0.7230   -3.8871 C   0  0  0  0  0  0  0  0  0  0  0  0
    7.1844   -0.2773   -3.5639 C   0  0  0  0  0  0  0  0  0  0  0  0
    5.8137   -0.0505   -3.6713 C   0  0  0  0  0  0  0  0  0  0  0  0
    5.3589    1.1964   -4.1026 C   0  0  0  0  0  0  0  0  0  0  0  0
    5.8879    3.1811   -4.7336 H   0  0  0  0  0  0  0  0  0  0  0  0
    8.3335    2.7619   -4.5510 H   0  0  0  0  0  0  0  0  0  0  0  0
    7.5409   -1.2442   -3.2175 H   0  0  0  0  0  0  0  0  0  0  0  0
    5.0962   -0.8184   -3.4041 H   0  0  0  0  0  0  0  0  0  0  0  0
    3.6022    1.4851   -4.2874 S   0  0  0  0  0  0  0  0  0  0  0  0
    3.2556    1.0619   -5.6989 O   0  0  0  0  0  0  0  0  0  0  0  0
    3.3726    2.9364   -4.0572 O   0  0  0  0  0  0  0  0  0  0  0  0
    2.9020    0.6116   -3.2959 O   0  0  0  0  0  0  0  0  0  0  0  0
    9.5968    0.4576   -3.8012 C   0  0  0  0  0  0  0  0  0  0  0  0
    9.9843    0.0757   -4.7543 H   0  0  0  0  0  0  0  0  0  0  0  0
   10.1548    1.3693   -3.5676 H   0  0  0  0  0  0  0  0  0  0  0  0
    9.8270   -0.2887   -3.0347 H   0  0  0  0  0  0  0  0  0  0  0  0
  1  7  1  0  0  0  0
  1  6  2  0  0  0  0
  2  1  1  0  0  0  0
  3  2  2  0  0  0  0
  3  4  1  0  0  0  0
  4  5  2  0  0  0  0
  5  6  1  0  0  0  0
  5 10  1  0  0  0  0
  6 11  1  0  0  0  0
  8  2  1  0  0  0  0
  9  4  1  0  0  0  0
 11 13  2  0  0  0  0
 11 12  2  0  0  0  0
 14  3  1  0  0  0  0
 15 14  1  0  0  0  0
 16 17  2  0  0  0  0
 16 21  1  0  0  0  0
 17 18  1  0  0  0  0
 18 30  1  0  0  0  0
 18 19  2  0  0  0  0
 19 24  1  0  0  0  0
 20 19  1  0  0  0  0
 20 25  1  0  0  0  0
 21 20  2  0  0  0  0
 22 16  1  0  0  0  0
 23 17  1  0  0  0  0
 26 21  1  0  0  0  0
 26 28  2  0  0  0  0
 26 29  1  0  0  0  0
 27 26  2  0  0  0  0
 30 32  1  0  0  0  0
 30 33  1  0  0  0  0
 31 30  1  0  0  0  0
M  RAD  3  14   2  15   3  29   2
M  END
