Coordinates from ORCA-job 4-NO2-Ph-N2-OTs-B3LYPG-6-31G_dp-MTMO-d009-169-n800
 OpenBabel09051908313D

 33 33  0  0  0  0  0  0  0  0999 V2000
   -0.0448    0.8788   -1.2729 C   0  0  0  0  0  0  0  0  0  0  0  0
    0.5363    0.0636   -2.2385 C   0  0  0  0  0  0  0  0  0  0  0  0
    1.3136    0.6467   -3.2444 C   0  0  0  0  0  0  0  0  0  0  0  0
    1.5114    2.0294   -3.3036 C   0  0  0  0  0  0  0  0  0  0  0  0
    0.9258    2.8470   -2.3428 C   0  0  0  0  0  0  0  0  0  0  0  0
    0.1590    2.2571   -1.3389 C   0  0  0  0  0  0  0  0  0  0  0  0
   -0.6536    0.4685   -0.4770 H   0  0  0  0  0  0  0  0  0  0  0  0
    0.4001   -1.0105   -2.2211 H   0  0  0  0  0  0  0  0  0  0  0  0
    2.1131    2.4451   -4.1040 H   0  0  0  0  0  0  0  0  0  0  0  0
    1.0540    3.9221   -2.3540 H   0  0  0  0  0  0  0  0  0  0  0  0
   -0.4554    3.1179   -0.3170 N   0  0  0  0  0  0  0  0  0  0  0  0
   -0.2552    4.3297   -0.3972 O   0  0  0  0  0  0  0  0  0  0  0  0
   -1.1298    2.5744    0.5567 O   0  0  0  0  0  0  0  0  0  0  0  0
    2.9424   -0.4618   -7.9975 N   0  0  0  0  0  0  0  0  0  0  0  0
    2.1145   -1.0736   -8.3986 N   0  0  0  0  0  0  0  0  0  0  0  0
    4.9845    0.3162   -2.5688 C   0  0  0  0  0  0  0  0  0  0  0  0
    6.0611    1.1982   -2.4983 C   0  0  0  0  0  0  0  0  0  0  0  0
    6.6688    1.6967   -3.6592 C   0  0  0  0  0  0  0  0  0  0  0  0
    6.1689    1.2896   -4.9065 C   0  0  0  0  0  0  0  0  0  0  0  0
    5.0959    0.4087   -5.0024 C   0  0  0  0  0  0  0  0  0  0  0  0
    4.5130   -0.0690   -3.8250 C   0  0  0  0  0  0  0  0  0  0  0  0
    4.5227   -0.0787   -1.6711 H   0  0  0  0  0  0  0  0  0  0  0  0
    6.4356    1.5023   -1.5249 H   0  0  0  0  0  0  0  0  0  0  0  0
    6.6297    1.6660   -5.8155 H   0  0  0  0  0  0  0  0  0  0  0  0
    4.7181    0.0904   -5.9678 H   0  0  0  0  0  0  0  0  0  0  0  0
    3.1273   -1.1802   -3.9352 S   0  0  0  0  0  0  0  0  0  0  0  0
    1.8515   -0.1268   -4.2636 O   0  0  0  0  0  0  0  0  0  0  0  0
    2.8945   -1.7889   -2.6297 O   0  0  0  0  0  0  0  0  0  0  0  0
    3.2089   -1.9616   -5.1578 O   0  0  0  0  0  0  0  0  0  0  0  0
    7.8538    2.6262   -3.5730 C   0  0  0  0  0  0  0  0  0  0  0  0
    7.8767    3.3247   -4.4147 H   0  0  0  0  0  0  0  0  0  0  0  0
    7.8426    3.2060   -2.6459 H   0  0  0  0  0  0  0  0  0  0  0  0
    8.7933    2.0606   -3.5940 H   0  0  0  0  0  0  0  0  0  0  0  0
  1  7  1  0  0  0  0
  2  8  1  0  0  0  0
  2  1  2  0  0  0  0
  3  2  1  0  0  0  0
  4  3  2  0  0  0  0
  4  5  1  0  0  0  0
  5  6  2  0  0  0  0
  6  1  1  0  0  0  0
  6 11  1  0  0  0  0
  9  4  1  0  0  0  0
 10  5  1  0  0  0  0
 11 13  2  0  0  0  0
 12 11  2  0  0  0  0
 15 14  3  0  0  0  0
 16 17  1  0  0  0  0
 16 22  1  0  0  0  0
 17 23  1  0  0  0  0
 18 30  1  0  0  0  0
 18 17  2  0  0  0  0
 19 18  1  0  0  0  0
 20 19  2  0  0  0  0
 20 21  1  0  0  0  0
 21 16  2  0  0  0  0
 24 19  1  0  0  0  0
 25 20  1  0  0  0  0
 26 21  1  0  0  0  0
 26 28  2  0  0  0  0
 27 26  1  0  0  0  0
 27  3  1  0  0  0  0
 29 26  2  0  0  0  0
 30 32  1  0  0  0  0
 31 30  1  0  0  0  0
 33 30  1  0  0  0  0
M  END
