Coordinates from ORCA-job 4-NO2-Ph-N2-OTs-B3LYPG-6-31G_dp-MTMO-d009-169-n800
 OpenBabel09051908313D

 33 33  0  0  0  0  0  0  0  0999 V2000
    0.0575    0.8181   -1.3694 C   0  0  0  0  0  0  0  0  0  0  0  0
    0.6868   -0.0646   -2.2411 C   0  0  0  0  0  0  0  0  0  0  0  0
    1.4187    0.4474   -3.3176 C   0  0  0  0  0  0  0  0  0  0  0  0
    1.5231    1.8238   -3.5401 C   0  0  0  0  0  0  0  0  0  0  0  0
    0.8870    2.7071   -2.6742 C   0  0  0  0  0  0  0  0  0  0  0  0
    0.1668    2.1895   -1.5984 C   0  0  0  0  0  0  0  0  0  0  0  0
   -0.5183    0.4639   -0.5237 H   0  0  0  0  0  0  0  0  0  0  0  0
    0.6232   -1.1358   -2.0967 H   0  0  0  0  0  0  0  0  0  0  0  0
    2.0879    2.1810   -4.3936 H   0  0  0  0  0  0  0  0  0  0  0  0
    0.9405    3.7796   -2.8138 H   0  0  0  0  0  0  0  0  0  0  0  0
   -0.5009    3.1210   -0.6770 N   0  0  0  0  0  0  0  0  0  0  0  0
   -0.3854    4.3257   -0.9011 O   0  0  0  0  0  0  0  0  0  0  0  0
   -1.1324    2.6398    0.2629 O   0  0  0  0  0  0  0  0  0  0  0  0
    1.7923    0.9544   -7.0891 N   0  0  0  0  0  0  0  0  0  0  0  0
    1.1526    0.2423   -7.6411 N   0  0  0  0  0  0  0  0  0  0  0  0
    5.0526    0.2977   -2.4940 C   0  0  0  0  0  0  0  0  0  0  0  0
    6.0912    1.2258   -2.4468 C   0  0  0  0  0  0  0  0  0  0  0  0
    6.7231    1.6690   -3.6170 C   0  0  0  0  0  0  0  0  0  0  0  0
    6.2868    1.1590   -4.8504 C   0  0  0  0  0  0  0  0  0  0  0  0
    5.2530    0.2307   -4.9217 C   0  0  0  0  0  0  0  0  0  0  0  0
    4.6439   -0.1903   -3.7361 C   0  0  0  0  0  0  0  0  0  0  0  0
    4.5736   -0.0547   -1.5876 H   0  0  0  0  0  0  0  0  0  0  0  0
    6.4172    1.6093   -1.4842 H   0  0  0  0  0  0  0  0  0  0  0  0
    6.7672    1.4913   -5.7663 H   0  0  0  0  0  0  0  0  0  0  0  0
    4.9265   -0.1713   -5.8743 H   0  0  0  0  0  0  0  0  0  0  0  0
    3.3125   -1.3681   -3.8194 S   0  0  0  0  0  0  0  0  0  0  0  0
    2.0014   -0.3996   -4.2503 O   0  0  0  0  0  0  0  0  0  0  0  0
    3.0657   -1.9073   -2.4862 O   0  0  0  0  0  0  0  0  0  0  0  0
    3.4684   -2.2154   -4.9892 O   0  0  0  0  0  0  0  0  0  0  0  0
    7.8686    2.6482   -3.5534 C   0  0  0  0  0  0  0  0  0  0  0  0
    7.8799    3.3086   -4.4256 H   0  0  0  0  0  0  0  0  0  0  0  0
    7.8175    3.2680   -2.6541 H   0  0  0  0  0  0  0  0  0  0  0  0
    8.8299    2.1204   -3.5336 H   0  0  0  0  0  0  0  0  0  0  0  0
  1  7  1  0  0  0  0
  2  8  1  0  0  0  0
  2  1  2  0  0  0  0
  3  2  1  0  0  0  0
  4  3  2  0  0  0  0
  4  5  1  0  0  0  0
  5  6  2  0  0  0  0
  6  1  1  0  0  0  0
  6 11  1  0  0  0  0
  9  4  1  0  0  0  0
 10  5  1  0  0  0  0
 11 13  2  0  0  0  0
 12 11  2  0  0  0  0
 15 14  3  0  0  0  0
 16 17  1  0  0  0  0
 16 22  1  0  0  0  0
 17 23  1  0  0  0  0
 18 30  1  0  0  0  0
 18 17  2  0  0  0  0
 19 18  1  0  0  0  0
 20 19  2  0  0  0  0
 20 21  1  0  0  0  0
 21 16  2  0  0  0  0
 24 19  1  0  0  0  0
 25 20  1  0  0  0  0
 26 21  1  0  0  0  0
 26 28  2  0  0  0  0
 27 26  1  0  0  0  0
 27  3  1  0  0  0  0
 29 26  2  0  0  0  0
 30 33  1  0  0  0  0
 30 32  1  0  0  0  0
 31 30  1  0  0  0  0
M  END
