Coordinates from ORCA-job 4-NO2-Ph-N2-OTs-B3LYPG-6-31G_dp-MTMO-d009-169-n800
 OpenBabel09051908313D

 33 33  0  0  0  0  0  0  0  0999 V2000
   -1.7334    0.5349   -2.1002 C   0  0  0  0  0  0  0  0  0  0  0  0
   -1.1248    0.2553   -3.3077 C   0  0  0  0  0  0  0  0  0  0  0  0
    0.0198    1.0014   -3.7115 C   0  0  0  0  0  0  0  0  0  0  0  0
    0.5370    2.0412   -2.8863 C   0  0  0  0  0  0  0  0  0  0  0  0
   -0.1061    2.3222   -1.6887 C   0  0  0  0  0  0  0  0  0  0  0  0
   -1.2138    1.5673   -1.3153 C   0  0  0  0  0  0  0  0  0  0  0  0
   -2.5986   -0.0165   -1.7561 H   0  0  0  0  0  0  0  0  0  0  0  0
   -1.4954   -0.5348   -3.9523 H   0  0  0  0  0  0  0  0  0  0  0  0
    1.4190    2.5929   -3.2073 H   0  0  0  0  0  0  0  0  0  0  0  0
    0.2535    3.1078   -1.0359 H   0  0  0  0  0  0  0  0  0  0  0  0
   -1.8804    1.8703   -0.0273 N   0  0  0  0  0  0  0  0  0  0  0  0
   -1.4202    2.7907    0.6397 O   0  0  0  0  0  0  0  0  0  0  0  0
   -2.8482    1.1781    0.2773 O   0  0  0  0  0  0  0  0  0  0  0  0
    0.5451    0.7379   -4.7811 N   0  0  0  0  0  0  0  0  0  0  0  0
    1.0830    0.5332   -5.7567 N   0  0  0  0  0  0  0  0  0  0  0  0
    6.2683    2.2067   -4.4054 C   0  0  0  0  0  0  0  0  0  0  0  0
    7.6393    1.9776   -4.3089 C   0  0  0  0  0  0  0  0  0  0  0  0
    8.1398    0.7297   -3.9101 C   0  0  0  0  0  0  0  0  0  0  0  0
    7.2254   -0.2860   -3.5961 C   0  0  0  0  0  0  0  0  0  0  0  0
    5.8514   -0.0727   -3.6887 C   0  0  0  0  0  0  0  0  0  0  0  0
    5.3796    1.1760   -4.0956 C   0  0  0  0  0  0  0  0  0  0  0  0
    5.8813    3.1767   -4.6978 H   0  0  0  0  0  0  0  0  0  0  0  0
    8.3330    2.7817   -4.5418 H   0  0  0  0  0  0  0  0  0  0  0  0
    7.5953   -1.2544   -3.2685 H   0  0  0  0  0  0  0  0  0  0  0  0
    5.1444   -0.8527   -3.4284 H   0  0  0  0  0  0  0  0  0  0  0  0
    3.6182    1.4471   -4.2592 S   0  0  0  0  0  0  0  0  0  0  0  0
    3.2677    1.0439   -5.6787 O   0  0  0  0  0  0  0  0  0  0  0  0
    3.3745    2.8927   -4.0075 O   0  0  0  0  0  0  0  0  0  0  0  0
    2.9348    0.5496   -3.2807 O   0  0  0  0  0  0  0  0  0  0  0  0
    9.6276    0.4800   -3.8404 C   0  0  0  0  0  0  0  0  0  0  0  0
   10.0145    0.1336   -4.8072 H   0  0  0  0  0  0  0  0  0  0  0  0
   10.1757    1.3906   -3.5808 H   0  0  0  0  0  0  0  0  0  0  0  0
    9.8711   -0.2873   -3.0992 H   0  0  0  0  0  0  0  0  0  0  0  0
  1  7  1  0  0  0  0
  1  6  2  0  0  0  0
  2  1  1  0  0  0  0
  3  2  2  0  0  0  0
  3  4  1  0  0  0  0
  4  5  2  0  0  0  0
  5  6  1  0  0  0  0
  5 10  1  0  0  0  0
  6 11  1  0  0  0  0
  8  2  1  0  0  0  0
  9  4  1  0  0  0  0
 11 13  2  0  0  0  0
 11 12  2  0  0  0  0
 14  3  1  0  0  0  0
 15 14  1  0  0  0  0
 16 17  2  0  0  0  0
 16 21  1  0  0  0  0
 17 18  1  0  0  0  0
 18 30  1  0  0  0  0
 18 19  2  0  0  0  0
 19 24  1  0  0  0  0
 20 19  1  0  0  0  0
 20 25  1  0  0  0  0
 21 20  2  0  0  0  0
 22 16  1  0  0  0  0
 23 17  1  0  0  0  0
 26 21  1  0  0  0  0
 26 28  2  0  0  0  0
 26 29  1  0  0  0  0
 27 26  2  0  0  0  0
 30 32  1  0  0  0  0
 30 33  1  0  0  0  0
 31 30  1  0  0  0  0
M  RAD  3  14   2  15   3  29   2
M  END
