Coordinates from ORCA-job 4-NO2-Ph-N2-OTs-B3LYPG-6-31G_dp-MTMO-d009-169-n800
 OpenBabel09051908313D

 33 33  0  0  0  0  0  0  0  0999 V2000
   -0.0675    1.5472   -0.1674 C   0  0  0  0  0  0  0  0  0  0  0  0
   -0.0038    0.5457   -1.1306 C   0  0  0  0  0  0  0  0  0  0  0  0
    0.4647    0.8603   -2.4105 C   0  0  0  0  0  0  0  0  0  0  0  0
    0.8597    2.1597   -2.7427 C   0  0  0  0  0  0  0  0  0  0  0  0
    0.7881    3.1643   -1.7836 C   0  0  0  0  0  0  0  0  0  0  0  0
    0.3288    2.8403   -0.5077 C   0  0  0  0  0  0  0  0  0  0  0  0
   -0.4239    1.3466    0.8348 H   0  0  0  0  0  0  0  0  0  0  0  0
   -0.3062   -0.4688   -0.9044 H   0  0  0  0  0  0  0  0  0  0  0  0
    1.2084    2.3668   -3.7480 H   0  0  0  0  0  0  0  0  0  0  0  0
    1.0816    4.1830   -2.0022 H   0  0  0  0  0  0  0  0  0  0  0  0
    0.2580    3.8985    0.5108 N   0  0  0  0  0  0  0  0  0  0  0  0
    0.6085    5.0314    0.1814 O   0  0  0  0  0  0  0  0  0  0  0  0
   -0.1455    3.5871    1.6306 O   0  0  0  0  0  0  0  0  0  0  0  0
   14.3013    3.3599   -9.2102 N   0  0  0  0  0  0  0  0  0  0  0  0
   15.1492    3.4222   -9.9164 N   0  0  0  0  0  0  0  0  0  0  0  0
    3.9879   -0.2128   -2.8525 C   0  0  0  0  0  0  0  0  0  0  0  0
    5.1799    0.3915   -3.2488 C   0  0  0  0  0  0  0  0  0  0  0  0
    5.4834    0.5791   -4.6044 C   0  0  0  0  0  0  0  0  0  0  0  0
    4.5571    0.1441   -5.5664 C   0  0  0  0  0  0  0  0  0  0  0  0
    3.3609   -0.4616   -5.1942 C   0  0  0  0  0  0  0  0  0  0  0  0
    3.0883   -0.6324   -3.8339 C   0  0  0  0  0  0  0  0  0  0  0  0
    3.7611   -0.3706   -1.8040 H   0  0  0  0  0  0  0  0  0  0  0  0
    5.8864    0.7201   -2.4919 H   0  0  0  0  0  0  0  0  0  0  0  0
    4.7788    0.2793   -6.6218 H   0  0  0  0  0  0  0  0  0  0  0  0
    2.6528   -0.8091   -5.9383 H   0  0  0  0  0  0  0  0  0  0  0  0
    1.5523   -1.3891   -3.3485 S   0  0  0  0  0  0  0  0  0  0  0  0
    0.4772   -0.0918   -3.4199 O   0  0  0  0  0  0  0  0  0  0  0  0
    1.6510   -1.8258   -1.9597 O   0  0  0  0  0  0  0  0  0  0  0  0
    1.0694   -2.2561   -4.4095 O   0  0  0  0  0  0  0  0  0  0  0  0
    6.7885    1.2082   -5.0261 C   0  0  0  0  0  0  0  0  0  0  0  0
    7.5260    0.4382   -5.2832 H   0  0  0  0  0  0  0  0  0  0  0  0
    6.6592    1.8413   -5.9090 H   0  0  0  0  0  0  0  0  0  0  0  0
    7.2166    1.8181   -4.2260 H   0  0  0  0  0  0  0  0  0  0  0  0
  1  7  1  0  0  0  0
  2  8  1  0  0  0  0
  2  1  2  0  0  0  0
  3  2  1  0  0  0  0
  4  3  2  0  0  0  0
  4  5  1  0  0  0  0
  5  6  2  0  0  0  0
  6  1  1  0  0  0  0
  6 11  1  0  0  0  0
  9  4  1  0  0  0  0
 10  5  1  0  0  0  0
 11 13  2  0  0  0  0
 12 11  2  0  0  0  0
 15 14  3  0  0  0  0
 16 22  1  0  0  0  0
 17 16  1  0  0  0  0
 17 23  1  0  0  0  0
 18 17  2  0  0  0  0
 19 20  2  0  0  0  0
 19 18  1  0  0  0  0
 20 21  1  0  0  0  0
 21 26  1  0  0  0  0
 21 16  2  0  0  0  0
 24 19  1  0  0  0  0
 25 20  1  0  0  0  0
 26 28  2  0  0  0  0
 27 26  1  0  0  0  0
 27  3  1  0  0  0  0
 29 26  2  0  0  0  0
 30 18  1  0  0  0  0
 30 33  1  0  0  0  0
 31 30  1  0  0  0  0
 32 30  1  0  0  0  0
M  END
