Coordinates from ORCA-job 4-NO2-Ph-N2-OTs-B3LYPG-6-31G_dp-MTMO-d009-169-n800
 OpenBabel09051908313D

 33 33  0  0  0  0  0  0  0  0999 V2000
   -0.0222    1.2543   -0.5754 C   0  0  0  0  0  0  0  0  0  0  0  0
    0.3450    0.2655   -1.4823 C   0  0  0  0  0  0  0  0  0  0  0  0
    0.9120    0.6394   -2.7053 C   0  0  0  0  0  0  0  0  0  0  0  0
    1.1071    1.9836   -3.0369 C   0  0  0  0  0  0  0  0  0  0  0  0
    0.7315    2.9737   -2.1353 C   0  0  0  0  0  0  0  0  0  0  0  0
    0.1758    2.5924   -0.9147 C   0  0  0  0  0  0  0  0  0  0  0  0
   -0.4631    1.0077    0.3819 H   0  0  0  0  0  0  0  0  0  0  0  0
    0.2037   -0.7833   -1.2545 H   0  0  0  0  0  0  0  0  0  0  0  0
    1.5400    2.2341   -3.9986 H   0  0  0  0  0  0  0  0  0  0  0  0
    0.8627    4.0256   -2.3564 H   0  0  0  0  0  0  0  0  0  0  0  0
   -0.2166    3.6365    0.0435 N   0  0  0  0  0  0  0  0  0  0  0  0
   -0.0296    4.8087   -0.2821 O   0  0  0  0  0  0  0  0  0  0  0  0
   -0.7064    3.2753    1.1129 O   0  0  0  0  0  0  0  0  0  0  0  0
    7.6889    1.4650   -8.6466 N   0  0  0  0  0  0  0  0  0  0  0  0
    8.1510    1.5280   -9.6484 N   0  0  0  0  0  0  0  0  0  0  0  0
    4.6002    0.1835   -2.6602 C   0  0  0  0  0  0  0  0  0  0  0  0
    5.7234    0.9611   -2.9274 C   0  0  0  0  0  0  0  0  0  0  0  0
    6.1799    1.1522   -4.2414 C   0  0  0  0  0  0  0  0  0  0  0  0
    5.4795    0.5402   -5.2912 C   0  0  0  0  0  0  0  0  0  0  0  0
    4.3524   -0.2418   -5.0470 C   0  0  0  0  0  0  0  0  0  0  0  0
    3.9236   -0.4109   -3.7289 C   0  0  0  0  0  0  0  0  0  0  0  0
    4.2586    0.0222   -1.6439 H   0  0  0  0  0  0  0  0  0  0  0  0
    6.2587    1.4221   -2.1022 H   0  0  0  0  0  0  0  0  0  0  0  0
    5.8264    0.6730   -6.3118 H   0  0  0  0  0  0  0  0  0  0  0  0
    3.8207   -0.7267   -5.8581 H   0  0  0  0  0  0  0  0  0  0  0  0
    2.4818   -1.4039   -3.4089 S   0  0  0  0  0  0  0  0  0  0  0  0
    1.2254   -0.3088   -3.6686 O   0  0  0  0  0  0  0  0  0  0  0  0
    2.4684   -1.7896   -2.0016 O   0  0  0  0  0  0  0  0  0  0  0  0
    2.2905   -2.3622   -4.4842 O   0  0  0  0  0  0  0  0  0  0  0  0
    7.4088    1.9863   -4.5103 C   0  0  0  0  0  0  0  0  0  0  0  0
    7.5855    2.1048   -5.5818 H   0  0  0  0  0  0  0  0  0  0  0  0
    7.3152    2.9836   -4.0676 H   0  0  0  0  0  0  0  0  0  0  0  0
    8.2996    1.5233   -4.0710 H   0  0  0  0  0  0  0  0  0  0  0  0
  1  7  1  0  0  0  0
  2  8  1  0  0  0  0
  2  1  2  0  0  0  0
  3  2  1  0  0  0  0
  4  3  2  0  0  0  0
  4  5  1  0  0  0  0
  5  6  2  0  0  0  0
  6  1  1  0  0  0  0
  6 11  1  0  0  0  0
  9  4  1  0  0  0  0
 10  5  1  0  0  0  0
 11 13  2  0  0  0  0
 12 11  2  0  0  0  0
 15 14  3  0  0  0  0
 16 22  1  0  0  0  0
 17 16  1  0  0  0  0
 17 23  1  0  0  0  0
 18 17  2  0  0  0  0
 19 20  2  0  0  0  0
 19 18  1  0  0  0  0
 20 21  1  0  0  0  0
 21 26  1  0  0  0  0
 21 16  2  0  0  0  0
 24 19  1  0  0  0  0
 25 20  1  0  0  0  0
 26 28  2  0  0  0  0
 27 26  1  0  0  0  0
 27  3  1  0  0  0  0
 29 26  2  0  0  0  0
 30 18  1  0  0  0  0
 30 33  1  0  0  0  0
 30 32  1  0  0  0  0
 31 30  1  0  0  0  0
M  END
