Coordinates from ORCA-job 4-NO2-Ph-N2-OTs-B3LYPG-6-31G_dp-MTMO-d009-169-n800
 OpenBabel09051908313D

 33 33  0  0  0  0  0  0  0  0999 V2000
    0.0394    0.8333   -1.6613 C   0  0  0  0  0  0  0  0  0  0  0  0
    0.7095    0.0129   -2.5630 C   0  0  0  0  0  0  0  0  0  0  0  0
    1.5431    0.5946   -3.5235 C   0  0  0  0  0  0  0  0  0  0  0  0
    1.7091    1.9805   -3.6012 C   0  0  0  0  0  0  0  0  0  0  0  0
    1.0343    2.8028   -2.7055 C   0  0  0  0  0  0  0  0  0  0  0  0
    0.2122    2.2148   -1.7451 C   0  0  0  0  0  0  0  0  0  0  0  0
   -0.6149    0.4240   -0.9019 H   0  0  0  0  0  0  0  0  0  0  0  0
    0.6000   -1.0638   -2.5288 H   0  0  0  0  0  0  0  0  0  0  0  0
    2.3552    2.3949   -4.3668 H   0  0  0  0  0  0  0  0  0  0  0  0
    1.1347    3.8806   -2.7340 H   0  0  0  0  0  0  0  0  0  0  0  0
   -0.4964    3.0808   -0.7909 N   0  0  0  0  0  0  0  0  0  0  0  0
   -0.3200    4.2955   -0.8840 O   0  0  0  0  0  0  0  0  0  0  0  0
   -1.2201    2.5389    0.0434 O   0  0  0  0  0  0  0  0  0  0  0  0
   -0.2947    0.1766   -6.4050 N   0  0  0  0  0  0  0  0  0  0  0  0
   -0.5490   -0.7207   -6.9980 N   0  0  0  0  0  0  0  0  0  0  0  0
    5.1048    0.3403   -2.5178 C   0  0  0  0  0  0  0  0  0  0  0  0
    6.1643    1.2309   -2.3547 C   0  0  0  0  0  0  0  0  0  0  0  0
    6.9084    1.6841   -3.4532 C   0  0  0  0  0  0  0  0  0  0  0  0
    6.5642    1.2224   -4.7339 C   0  0  0  0  0  0  0  0  0  0  0  0
    5.5104    0.3331   -4.9207 C   0  0  0  0  0  0  0  0  0  0  0  0
    4.7882   -0.0986   -3.8046 C   0  0  0  0  0  0  0  0  0  0  0  0
    4.5399   -0.0207   -1.6660 H   0  0  0  0  0  0  0  0  0  0  0  0
    6.4185    1.5766   -1.3567 H   0  0  0  0  0  0  0  0  0  0  0  0
    7.1328    1.5616   -5.5952 H   0  0  0  0  0  0  0  0  0  0  0  0
    5.2545   -0.0330   -5.9089 H   0  0  0  0  0  0  0  0  0  0  0  0
    3.4281   -1.2224   -4.0375 S   0  0  0  0  0  0  0  0  0  0  0  0
    2.1765   -0.1835   -4.4827 O   0  0  0  0  0  0  0  0  0  0  0  0
    3.0838   -1.8299   -2.7563 O   0  0  0  0  0  0  0  0  0  0  0  0
    3.6301   -2.0039   -5.2455 O   0  0  0  0  0  0  0  0  0  0  0  0
    8.0740    2.6231   -3.2632 C   0  0  0  0  0  0  0  0  0  0  0  0
    8.1785    3.3082   -4.1098 H   0  0  0  0  0  0  0  0  0  0  0  0
    7.9653    3.2173   -2.3519 H   0  0  0  0  0  0  0  0  0  0  0  0
    9.0138    2.0637   -3.1801 H   0  0  0  0  0  0  0  0  0  0  0  0
  1  7  1  0  0  0  0
  2  8  1  0  0  0  0
  2  1  2  0  0  0  0
  3  2  1  0  0  0  0
  4  3  2  0  0  0  0
  4  5  1  0  0  0  0
  5  6  2  0  0  0  0
  6  1  1  0  0  0  0
  6 11  1  0  0  0  0
  9  4  1  0  0  0  0
 10  5  1  0  0  0  0
 11 13  2  0  0  0  0
 12 11  2  0  0  0  0
 15 14  3  0  0  0  0
 16 17  1  0  0  0  0
 16 22  1  0  0  0  0
 17 23  1  0  0  0  0
 18 30  1  0  0  0  0
 18 17  2  0  0  0  0
 19 18  1  0  0  0  0
 20 19  2  0  0  0  0
 20 21  1  0  0  0  0
 21 16  2  0  0  0  0
 24 19  1  0  0  0  0
 25 20  1  0  0  0  0
 26 21  1  0  0  0  0
 26 28  2  0  0  0  0
 27 26  1  0  0  0  0
 27  3  1  0  0  0  0
 29 26  2  0  0  0  0
 30 33  1  0  0  0  0
 30 32  1  0  0  0  0
 31 30  1  0  0  0  0
M  END
