Coordinates from ORCA-job 4-NO2-Ph-N2-OTs-B3LYPG-6-31G_dp-MTMO-d009-169-n800
 OpenBabel09051908313D

 33 33  0  0  0  0  0  0  0  0999 V2000
   -0.0305    1.2204   -0.0739 C   0  0  0  0  0  0  0  0  0  0  0  0
    0.1506    0.2414   -1.0452 C   0  0  0  0  0  0  0  0  0  0  0  0
    0.5354    0.6236   -2.3343 C   0  0  0  0  0  0  0  0  0  0  0  0
    0.7347    1.9668   -2.6674 C   0  0  0  0  0  0  0  0  0  0  0  0
    0.5469    2.9477   -1.6996 C   0  0  0  0  0  0  0  0  0  0  0  0
    0.1698    2.5578   -0.4153 C   0  0  0  0  0  0  0  0  0  0  0  0
   -0.3292    0.9681    0.9355 H   0  0  0  0  0  0  0  0  0  0  0  0
    0.0023   -0.8069   -0.8185 H   0  0  0  0  0  0  0  0  0  0  0  0
    1.0256    2.2238   -3.6795 H   0  0  0  0  0  0  0  0  0  0  0  0
    0.6880    3.9987   -1.9180 H   0  0  0  0  0  0  0  0  0  0  0  0
   -0.0247    3.5923    0.6118 N   0  0  0  0  0  0  0  0  0  0  0  0
    0.1633    4.7637    0.2839 O   0  0  0  0  0  0  0  0  0  0  0  0
   -0.3618    3.2243    1.7363 O   0  0  0  0  0  0  0  0  0  0  0  0
   14.3240    1.6173   -8.9784 N   0  0  0  0  0  0  0  0  0  0  0  0
   15.2666    1.4255   -9.5228 N   0  0  0  0  0  0  0  0  0  0  0  0
    4.1706    0.1384   -2.9447 C   0  0  0  0  0  0  0  0  0  0  0  0
    5.2210    0.9380   -3.3934 C   0  0  0  0  0  0  0  0  0  0  0  0
    5.4086    1.1919   -4.7591 C   0  0  0  0  0  0  0  0  0  0  0  0
    4.5125    0.6206   -5.6775 C   0  0  0  0  0  0  0  0  0  0  0  0
    3.4578   -0.1812   -5.2528 C   0  0  0  0  0  0  0  0  0  0  0  0
    3.2969   -0.4123   -3.8832 C   0  0  0  0  0  0  0  0  0  0  0  0
    4.0354   -0.0686   -1.8890 H   0  0  0  0  0  0  0  0  0  0  0  0
    5.9068    1.3688   -2.6695 H   0  0  0  0  0  0  0  0  0  0  0  0
    4.6459    0.8048   -6.7403 H   0  0  0  0  0  0  0  0  0  0  0  0
    2.7747   -0.6322   -5.9642 H   0  0  0  0  0  0  0  0  0  0  0  0
    1.9345   -1.4155   -3.3304 S   0  0  0  0  0  0  0  0  0  0  0  0
    0.6551   -0.3166   -3.3481 O   0  0  0  0  0  0  0  0  0  0  0  0
    2.1680   -1.8225   -1.9488 O   0  0  0  0  0  0  0  0  0  0  0  0
    1.5561   -2.3559   -4.3710 O   0  0  0  0  0  0  0  0  0  0  0  0
    6.5631    2.0366   -5.2393 C   0  0  0  0  0  0  0  0  0  0  0  0
    7.3851    1.4046   -5.5973 H   0  0  0  0  0  0  0  0  0  0  0  0
    6.2668    2.6829   -6.0713 H   0  0  0  0  0  0  0  0  0  0  0  0
    6.9582    2.6681   -4.4394 H   0  0  0  0  0  0  0  0  0  0  0  0
  1  7  1  0  0  0  0
  2  8  1  0  0  0  0
  2  1  2  0  0  0  0
  3  2  1  0  0  0  0
  4  3  2  0  0  0  0
  4  5  1  0  0  0  0
  5  6  2  0  0  0  0
  6  1  1  0  0  0  0
  6 11  1  0  0  0  0
  9  4  1  0  0  0  0
 10  5  1  0  0  0  0
 11 13  2  0  0  0  0
 12 11  2  0  0  0  0
 15 14  3  0  0  0  0
 16 22  1  0  0  0  0
 17 16  1  0  0  0  0
 17 23  1  0  0  0  0
 18 17  2  0  0  0  0
 19 20  2  0  0  0  0
 19 18  1  0  0  0  0
 20 21  1  0  0  0  0
 21 26  1  0  0  0  0
 21 16  2  0  0  0  0
 24 19  1  0  0  0  0
 25 20  1  0  0  0  0
 26 28  2  0  0  0  0
 27 26  1  0  0  0  0
 27  3  1  0  0  0  0
 29 26  2  0  0  0  0
 30 18  1  0  0  0  0
 30 33  1  0  0  0  0
 31 30  1  0  0  0  0
 32 30  1  0  0  0  0
M  END
