Coordinates from ORCA-job 4-NO2-Ph-N2-OTs-B3LYPG-6-31G_dp-MTMO-d009-169-n800
 OpenBabel09051908313D

 33 33  0  0  0  0  0  0  0  0999 V2000
    0.1666    1.1483   -0.1787 C   0  0  0  0  0  0  0  0  0  0  0  0
    0.4015    0.1909   -1.1600 C   0  0  0  0  0  0  0  0  0  0  0  0
    0.7766    0.6068   -2.4417 C   0  0  0  0  0  0  0  0  0  0  0  0
    0.9126    1.9620   -2.7573 C   0  0  0  0  0  0  0  0  0  0  0  0
    0.6702    2.9210   -1.7797 C   0  0  0  0  0  0  0  0  0  0  0  0
    0.3038    2.4979   -0.5028 C   0  0  0  0  0  0  0  0  0  0  0  0
   -0.1265    0.8696    0.8253 H   0  0  0  0  0  0  0  0  0  0  0  0
    0.3027   -0.8659   -0.9463 H   0  0  0  0  0  0  0  0  0  0  0  0
    1.1969    2.2454   -3.7642 H   0  0  0  0  0  0  0  0  0  0  0  0
    0.7609    3.9803   -1.9851 H   0  0  0  0  0  0  0  0  0  0  0  0
    0.0518    3.5092    0.5347 N   0  0  0  0  0  0  0  0  0  0  0  0
    0.1840    4.6923    0.2218 O   0  0  0  0  0  0  0  0  0  0  0  0
   -0.2743    3.1117    1.6525 O   0  0  0  0  0  0  0  0  0  0  0  0
   10.7217    1.1384   -7.2347 N   0  0  0  0  0  0  0  0  0  0  0  0
   11.7082    0.9329   -7.6887 N   0  0  0  0  0  0  0  0  0  0  0  0
    4.4533    0.2466   -3.0741 C   0  0  0  0  0  0  0  0  0  0  0  0
    5.4876    1.0629   -3.5304 C   0  0  0  0  0  0  0  0  0  0  0  0
    5.6741    1.3037   -4.8986 C   0  0  0  0  0  0  0  0  0  0  0  0
    4.7918    0.7028   -5.8118 C   0  0  0  0  0  0  0  0  0  0  0  0
    3.7534   -0.1160   -5.3797 C   0  0  0  0  0  0  0  0  0  0  0  0
    3.5942   -0.3344   -4.0077 C   0  0  0  0  0  0  0  0  0  0  0  0
    4.3210    0.0486   -2.0163 H   0  0  0  0  0  0  0  0  0  0  0  0
    6.1625    1.5165   -2.8102 H   0  0  0  0  0  0  0  0  0  0  0  0
    4.9239    0.8766   -6.8765 H   0  0  0  0  0  0  0  0  0  0  0  0
    3.0825   -0.5909   -6.0871 H   0  0  0  0  0  0  0  0  0  0  0  0
    2.2609   -1.3717   -3.4466 S   0  0  0  0  0  0  0  0  0  0  0  0
    0.9482   -0.3123   -3.4672 O   0  0  0  0  0  0  0  0  0  0  0  0
    2.5087   -1.7650   -2.0635 O   0  0  0  0  0  0  0  0  0  0  0  0
    1.9092   -2.3281   -4.4820 O   0  0  0  0  0  0  0  0  0  0  0  0
    6.8111    2.1672   -5.3873 C   0  0  0  0  0  0  0  0  0  0  0  0
    7.6359    1.5524   -5.7677 H   0  0  0  0  0  0  0  0  0  0  0  0
    6.4926    2.8201   -6.2062 H   0  0  0  0  0  0  0  0  0  0  0  0
    7.2105    2.7947   -4.5864 H   0  0  0  0  0  0  0  0  0  0  0  0
  1  7  1  0  0  0  0
  2  8  1  0  0  0  0
  2  1  2  0  0  0  0
  3  2  1  0  0  0  0
  4  3  2  0  0  0  0
  4  5  1  0  0  0  0
  5  6  2  0  0  0  0
  6  1  1  0  0  0  0
  6 11  1  0  0  0  0
  9  4  1  0  0  0  0
 10  5  1  0  0  0  0
 11 13  2  0  0  0  0
 12 11  2  0  0  0  0
 15 14  3  0  0  0  0
 16 22  1  0  0  0  0
 17 16  1  0  0  0  0
 17 23  1  0  0  0  0
 18 17  2  0  0  0  0
 19 20  2  0  0  0  0
 19 18  1  0  0  0  0
 20 21  1  0  0  0  0
 21 26  1  0  0  0  0
 21 16  2  0  0  0  0
 24 19  1  0  0  0  0
 25 20  1  0  0  0  0
 26 28  2  0  0  0  0
 27 26  1  0  0  0  0
 27  3  1  0  0  0  0
 29 26  2  0  0  0  0
 30 18  1  0  0  0  0
 30 33  1  0  0  0  0
 31 30  1  0  0  0  0
 32 30  1  0  0  0  0
M  END
