Coordinates from ORCA-job 4-NO2-Ph-N2-OTs-B3LYPG-6-31G_dp-MTMO-d009-169-n800
 OpenBabel09051908313D

 33 33  0  0  0  0  0  0  0  0999 V2000
    0.1218    1.1713   -0.1481 C   0  0  0  0  0  0  0  0  0  0  0  0
    0.3311    0.2006   -1.1221 C   0  0  0  0  0  0  0  0  0  0  0  0
    0.7019    0.5976   -2.4110 C   0  0  0  0  0  0  0  0  0  0  0  0
    0.8591    1.9470   -2.7411 C   0  0  0  0  0  0  0  0  0  0  0  0
    0.6427    2.9194   -1.7706 C   0  0  0  0  0  0  0  0  0  0  0  0
    0.2801    2.5151   -0.4866 C   0  0  0  0  0  0  0  0  0  0  0  0
   -0.1674    0.9076    0.8611 H   0  0  0  0  0  0  0  0  0  0  0  0
    0.2156   -0.8522   -0.8977 H   0  0  0  0  0  0  0  0  0  0  0  0
    1.1399    2.2154   -3.7530 H   0  0  0  0  0  0  0  0  0  0  0  0
    0.7507    3.9748   -1.9869 H   0  0  0  0  0  0  0  0  0  0  0  0
    0.0554    3.5407    0.5432 N   0  0  0  0  0  0  0  0  0  0  0  0
    0.2064    4.7181    0.2178 O   0  0  0  0  0  0  0  0  0  0  0  0
   -0.2682    3.1598    1.6674 O   0  0  0  0  0  0  0  0  0  0  0  0
   11.9125    1.2820   -7.7930 N   0  0  0  0  0  0  0  0  0  0  0  0
   12.8809    1.0753   -8.2841 N   0  0  0  0  0  0  0  0  0  0  0  0
    4.3534    0.2026   -3.0268 C   0  0  0  0  0  0  0  0  0  0  0  0
    5.3858    1.0254   -3.4757 C   0  0  0  0  0  0  0  0  0  0  0  0
    5.5672    1.2841   -4.8412 C   0  0  0  0  0  0  0  0  0  0  0  0
    4.6829    0.6944   -5.7595 C   0  0  0  0  0  0  0  0  0  0  0  0
    3.6463   -0.1306   -5.3347 C   0  0  0  0  0  0  0  0  0  0  0  0
    3.4916   -0.3664   -3.9652 C   0  0  0  0  0  0  0  0  0  0  0  0
    4.2236   -0.0083   -1.9712 H   0  0  0  0  0  0  0  0  0  0  0  0
    6.0627    1.4702   -2.7518 H   0  0  0  0  0  0  0  0  0  0  0  0
    4.8116    0.8822   -6.8222 H   0  0  0  0  0  0  0  0  0  0  0  0
    2.9729   -0.5961   -6.0461 H   0  0  0  0  0  0  0  0  0  0  0  0
    2.1543   -1.4027   -3.4125 S   0  0  0  0  0  0  0  0  0  0  0  0
    0.8482   -0.3354   -3.4279 O   0  0  0  0  0  0  0  0  0  0  0  0
    2.3988   -1.8058   -2.0316 O   0  0  0  0  0  0  0  0  0  0  0  0
    1.7980   -2.3509   -4.4538 O   0  0  0  0  0  0  0  0  0  0  0  0
    6.7031    2.1534   -5.3219 C   0  0  0  0  0  0  0  0  0  0  0  0
    7.5324    1.5397   -5.6942 H   0  0  0  0  0  0  0  0  0  0  0  0
    6.3887    2.8034   -6.1445 H   0  0  0  0  0  0  0  0  0  0  0  0
    7.0943    2.7831   -4.5188 H   0  0  0  0  0  0  0  0  0  0  0  0
  1  7  1  0  0  0  0
  2  8  1  0  0  0  0
  2  1  2  0  0  0  0
  3  2  1  0  0  0  0
  4  3  2  0  0  0  0
  4  5  1  0  0  0  0
  5  6  2  0  0  0  0
  6  1  1  0  0  0  0
  6 11  1  0  0  0  0
  9  4  1  0  0  0  0
 10  5  1  0  0  0  0
 11 13  2  0  0  0  0
 12 11  2  0  0  0  0
 15 14  3  0  0  0  0
 16 22  1  0  0  0  0
 17 16  1  0  0  0  0
 17 23  1  0  0  0  0
 18 17  2  0  0  0  0
 19 20  2  0  0  0  0
 19 18  1  0  0  0  0
 20 21  1  0  0  0  0
 21 26  1  0  0  0  0
 21 16  2  0  0  0  0
 24 19  1  0  0  0  0
 25 20  1  0  0  0  0
 26 28  2  0  0  0  0
 27 26  1  0  0  0  0
 27  3  1  0  0  0  0
 29 26  2  0  0  0  0
 30 18  1  0  0  0  0
 30 33  1  0  0  0  0
 31 30  1  0  0  0  0
 32 30  1  0  0  0  0
M  END
