Coordinates from ORCA-job 4-NO2-Ph-N2-OTs-B3LYPG-6-31G_dp-MTMO-d009-169-n800
 OpenBabel09051908313D

 33 33  0  0  0  0  0  0  0  0999 V2000
    0.0466    1.1814   -0.1014 C   0  0  0  0  0  0  0  0  0  0  0  0
    0.2465    0.2080   -1.0747 C   0  0  0  0  0  0  0  0  0  0  0  0
    0.6162    0.6007   -2.3652 C   0  0  0  0  0  0  0  0  0  0  0  0
    0.7817    1.9486   -2.6975 C   0  0  0  0  0  0  0  0  0  0  0  0
    0.5748    2.9237   -1.7277 C   0  0  0  0  0  0  0  0  0  0  0  0
    0.2132    2.5235   -0.4421 C   0  0  0  0  0  0  0  0  0  0  0  0
   -0.2414    0.9209    0.9090 H   0  0  0  0  0  0  0  0  0  0  0  0
    0.1244   -0.8438   -0.8487 H   0  0  0  0  0  0  0  0  0  0  0  0
    1.0615    2.2138   -3.7106 H   0  0  0  0  0  0  0  0  0  0  0  0
    0.6895    3.9781   -1.9456 H   0  0  0  0  0  0  0  0  0  0  0  0
   -0.0015    3.5520    0.5870 N   0  0  0  0  0  0  0  0  0  0  0  0
    0.1567    4.7279    0.2596 O   0  0  0  0  0  0  0  0  0  0  0  0
   -0.3245    3.1748    1.7126 O   0  0  0  0  0  0  0  0  0  0  0  0
   13.2359    1.3666   -8.4163 N   0  0  0  0  0  0  0  0  0  0  0  0
   14.1888    1.1639   -8.9383 N   0  0  0  0  0  0  0  0  0  0  0  0
    4.2614    0.1872   -2.9882 C   0  0  0  0  0  0  0  0  0  0  0  0
    5.2957    1.0062   -3.4393 C   0  0  0  0  0  0  0  0  0  0  0  0
    5.4746    1.2649   -4.8052 C   0  0  0  0  0  0  0  0  0  0  0  0
    4.5858    0.6789   -5.7216 C   0  0  0  0  0  0  0  0  0  0  0  0
    3.5471   -0.1423   -5.2945 C   0  0  0  0  0  0  0  0  0  0  0  0
    3.3950   -0.3781   -3.9247 C   0  0  0  0  0  0  0  0  0  0  0  0
    4.1333   -0.0236   -1.9324 H   0  0  0  0  0  0  0  0  0  0  0  0
    5.9761    1.4483   -2.7169 H   0  0  0  0  0  0  0  0  0  0  0  0
    4.7125    0.8668   -6.7845 H   0  0  0  0  0  0  0  0  0  0  0  0
    2.8701   -0.6048   -6.0043 H   0  0  0  0  0  0  0  0  0  0  0  0
    2.0542   -1.4083   -3.3689 S   0  0  0  0  0  0  0  0  0  0  0  0
    0.7533   -0.3348   -3.3811 O   0  0  0  0  0  0  0  0  0  0  0  0
    2.3001   -1.8126   -1.9887 O   0  0  0  0  0  0  0  0  0  0  0  0
    1.6909   -2.3546   -4.4096 O   0  0  0  0  0  0  0  0  0  0  0  0
    6.6128    2.1298   -5.2880 C   0  0  0  0  0  0  0  0  0  0  0  0
    7.4439    1.5125   -5.6504 H   0  0  0  0  0  0  0  0  0  0  0  0
    6.3028    2.7728   -6.1176 H   0  0  0  0  0  0  0  0  0  0  0  0
    7.0003    2.7663   -4.4883 H   0  0  0  0  0  0  0  0  0  0  0  0
  1  7  1  0  0  0  0
  2  8  1  0  0  0  0
  2  1  2  0  0  0  0
  3  2  1  0  0  0  0
  4  3  2  0  0  0  0
  4  5  1  0  0  0  0
  5  6  2  0  0  0  0
  6  1  1  0  0  0  0
  6 11  1  0  0  0  0
  9  4  1  0  0  0  0
 10  5  1  0  0  0  0
 11 13  2  0  0  0  0
 12 11  2  0  0  0  0
 15 14  3  0  0  0  0
 16 22  1  0  0  0  0
 17 16  1  0  0  0  0
 17 23  1  0  0  0  0
 18 17  2  0  0  0  0
 19 20  2  0  0  0  0
 19 18  1  0  0  0  0
 20 21  1  0  0  0  0
 21 26  1  0  0  0  0
 21 16  2  0  0  0  0
 24 19  1  0  0  0  0
 25 20  1  0  0  0  0
 26 28  2  0  0  0  0
 27 26  1  0  0  0  0
 27  3  1  0  0  0  0
 29 26  2  0  0  0  0
 30 18  1  0  0  0  0
 30 33  1  0  0  0  0
 31 30  1  0  0  0  0
 32 30  1  0  0  0  0
M  END
