Coordinates from ORCA-job 4-NO2-Ph-N2-OTs-B3LYPG-6-31G_dp-MTMO-d009-169-n800
 OpenBabel09051908313D

 33 33  0  0  0  0  0  0  0  0999 V2000
    0.1857    1.1372   -0.1828 C   0  0  0  0  0  0  0  0  0  0  0  0
    0.4263    0.1815   -1.1643 C   0  0  0  0  0  0  0  0  0  0  0  0
    0.7928    0.6002   -2.4476 C   0  0  0  0  0  0  0  0  0  0  0  0
    0.9145    1.9565   -2.7645 C   0  0  0  0  0  0  0  0  0  0  0  0
    0.6662    2.9137   -1.7866 C   0  0  0  0  0  0  0  0  0  0  0  0
    0.3086    2.4878   -0.5081 C   0  0  0  0  0  0  0  0  0  0  0  0
   -0.1011    0.8563    0.8225 H   0  0  0  0  0  0  0  0  0  0  0  0
    0.3386   -0.8761   -0.9496 H   0  0  0  0  0  0  0  0  0  0  0  0
    1.1923    2.2420   -3.7726 H   0  0  0  0  0  0  0  0  0  0  0  0
    0.7456    3.9736   -1.9931 H   0  0  0  0  0  0  0  0  0  0  0  0
    0.0505    3.4973    0.5297 N   0  0  0  0  0  0  0  0  0  0  0  0
    0.1689    4.6814    0.2153 O   0  0  0  0  0  0  0  0  0  0  0  0
   -0.2669    3.0973    1.6491 O   0  0  0  0  0  0  0  0  0  0  0  0
   10.5279    1.0155   -7.1340 N   0  0  0  0  0  0  0  0  0  0  0  0
   11.5193    0.8202   -7.5818 N   0  0  0  0  0  0  0  0  0  0  0  0
    4.4732    0.2615   -3.0822 C   0  0  0  0  0  0  0  0  0  0  0  0
    5.5019    1.0850   -3.5379 C   0  0  0  0  0  0  0  0  0  0  0  0
    5.6845    1.3313   -4.9057 C   0  0  0  0  0  0  0  0  0  0  0  0
    4.8036    0.7285   -5.8190 C   0  0  0  0  0  0  0  0  0  0  0  0
    3.7707   -0.0975   -5.3875 C   0  0  0  0  0  0  0  0  0  0  0  0
    3.6154   -0.3212   -4.0160 C   0  0  0  0  0  0  0  0  0  0  0  0
    4.3438    0.0594   -2.0247 H   0  0  0  0  0  0  0  0  0  0  0  0
    6.1758    1.5401   -2.8175 H   0  0  0  0  0  0  0  0  0  0  0  0
    4.9326    0.9066   -6.8834 H   0  0  0  0  0  0  0  0  0  0  0  0
    3.1011   -0.5738   -6.0952 H   0  0  0  0  0  0  0  0  0  0  0  0
    2.2893   -1.3681   -3.4556 S   0  0  0  0  0  0  0  0  0  0  0  0
    0.9696   -0.3175   -3.4735 O   0  0  0  0  0  0  0  0  0  0  0  0
    2.5409   -1.7621   -2.0733 O   0  0  0  0  0  0  0  0  0  0  0  0
    1.9430   -2.3251   -4.4922 O   0  0  0  0  0  0  0  0  0  0  0  0
    6.8157    2.2028   -5.3936 C   0  0  0  0  0  0  0  0  0  0  0  0
    7.6455    1.5940   -5.7729 H   0  0  0  0  0  0  0  0  0  0  0  0
    6.4931    2.8530   -6.2131 H   0  0  0  0  0  0  0  0  0  0  0  0
    7.2095    2.8335   -4.5925 H   0  0  0  0  0  0  0  0  0  0  0  0
  1  7  1  0  0  0  0
  2  8  1  0  0  0  0
  2  1  2  0  0  0  0
  3  2  1  0  0  0  0
  4  3  2  0  0  0  0
  4  5  1  0  0  0  0
  5  6  2  0  0  0  0
  6  1  1  0  0  0  0
  6 11  1  0  0  0  0
  9  4  1  0  0  0  0
 10  5  1  0  0  0  0
 11 13  2  0  0  0  0
 12 11  2  0  0  0  0
 15 14  3  0  0  0  0
 16 22  1  0  0  0  0
 17 16  1  0  0  0  0
 17 23  1  0  0  0  0
 18 17  2  0  0  0  0
 19 20  2  0  0  0  0
 19 18  1  0  0  0  0
 20 21  1  0  0  0  0
 21 26  1  0  0  0  0
 21 16  2  0  0  0  0
 24 19  1  0  0  0  0
 25 20  1  0  0  0  0
 26 28  2  0  0  0  0
 27 26  1  0  0  0  0
 27  3  1  0  0  0  0
 29 26  2  0  0  0  0
 30 18  1  0  0  0  0
 30 33  1  0  0  0  0
 31 30  1  0  0  0  0
 32 30  1  0  0  0  0
M  END
