Coordinates from ORCA-job 4-NO2-Ph-N2-OTs-B3LYPG-6-31G_dp-MTMO-d009-169-n800
 OpenBabel09051908313D

 33 33  0  0  0  0  0  0  0  0999 V2000
   -0.0789    0.9243   -1.1132 C   0  0  0  0  0  0  0  0  0  0  0  0
    0.4214    0.1936   -2.1859 C   0  0  0  0  0  0  0  0  0  0  0  0
    1.1773    0.8494   -3.1631 C   0  0  0  0  0  0  0  0  0  0  0  0
    1.4315    2.2222   -3.0888 C   0  0  0  0  0  0  0  0  0  0  0  0
    0.9260    2.9558   -2.0207 C   0  0  0  0  0  0  0  0  0  0  0  0
    0.1812    2.2930   -1.0462 C   0  0  0  0  0  0  0  0  0  0  0  0
   -0.6683    0.4559   -0.3348 H   0  0  0  0  0  0  0  0  0  0  0  0
    0.2387   -0.8699   -2.2732 H   0  0  0  0  0  0  0  0  0  0  0  0
    2.0134    2.6961   -3.8714 H   0  0  0  0  0  0  0  0  0  0  0  0
    1.0995    4.0203   -1.9271 H   0  0  0  0  0  0  0  0  0  0  0  0
   -0.3482    3.0643    0.0885 N   0  0  0  0  0  0  0  0  0  0  0  0
   -0.0979    4.2689    0.1249 O   0  0  0  0  0  0  0  0  0  0  0  0
   -1.0064    2.4584    0.9330 O   0  0  0  0  0  0  0  0  0  0  0  0
    4.2586   -1.3937   -8.3877 N   0  0  0  0  0  0  0  0  0  0  0  0
    3.7335   -2.2623   -8.8243 N   0  0  0  0  0  0  0  0  0  0  0  0
    4.7931    0.3905   -2.7187 C   0  0  0  0  0  0  0  0  0  0  0  0
    5.9141    1.2117   -2.6211 C   0  0  0  0  0  0  0  0  0  0  0  0
    6.5639    1.6932   -3.7669 C   0  0  0  0  0  0  0  0  0  0  0  0
    6.0611    1.3301   -5.0259 C   0  0  0  0  0  0  0  0  0  0  0  0
    4.9411    0.5124   -5.1489 C   0  0  0  0  0  0  0  0  0  0  0  0
    4.3161    0.0518   -3.9871 C   0  0  0  0  0  0  0  0  0  0  0  0
    4.3022    0.0058   -1.8320 H   0  0  0  0  0  0  0  0  0  0  0  0
    6.2917    1.4802   -1.6384 H   0  0  0  0  0  0  0  0  0  0  0  0
    6.5562    1.6901   -5.9233 H   0  0  0  0  0  0  0  0  0  0  0  0
    4.5660    0.2214   -6.1238 H   0  0  0  0  0  0  0  0  0  0  0  0
    2.8681   -0.9723   -4.1310 S   0  0  0  0  0  0  0  0  0  0  0  0
    1.6353    0.1700   -4.2837 O   0  0  0  0  0  0  0  0  0  0  0  0
    2.6648   -1.6965   -2.8806 O   0  0  0  0  0  0  0  0  0  0  0  0
    2.8510   -1.6306   -5.4266 O   0  0  0  0  0  0  0  0  0  0  0  0
    7.7962    2.5556   -3.6496 C   0  0  0  0  0  0  0  0  0  0  0  0
    7.8975    3.2282   -4.5061 H   0  0  0  0  0  0  0  0  0  0  0  0
    7.7772    3.1601   -2.7384 H   0  0  0  0  0  0  0  0  0  0  0  0
    8.7010    1.9367   -3.6119 H   0  0  0  0  0  0  0  0  0  0  0  0
  1  6  1  0  0  0  0
  1  7  1  0  0  0  0
  2  1  2  0  0  0  0
  3  4  2  0  0  0  0
  3  2  1  0  0  0  0
  4  5  1  0  0  0  0
  5 10  1  0  0  0  0
  5  6  2  0  0  0  0
  6 11  1  0  0  0  0
  8  2  1  0  0  0  0
  9  4  1  0  0  0  0
 11 12  2  0  0  0  0
 11 13  2  0  0  0  0
 15 14  3  0  0  0  0
 16 17  1  0  0  0  0
 16 22  1  0  0  0  0
 17 23  1  0  0  0  0
 18 30  1  0  0  0  0
 18 17  2  0  0  0  0
 19 18  1  0  0  0  0
 20 19  2  0  0  0  0
 20 21  1  0  0  0  0
 21 16  2  0  0  0  0
 24 19  1  0  0  0  0
 25 20  1  0  0  0  0
 26 21  1  0  0  0  0
 26 28  2  0  0  0  0
 27 26  1  0  0  0  0
 27  3  1  0  0  0  0
 29 26  2  0  0  0  0
 30 33  1  0  0  0  0
 30 32  1  0  0  0  0
 31 30  1  0  0  0  0
M  END
