Coordinates from ORCA-job 4-NO2-Ph-N2-OTs-B3LYPG-6-31G_dp-MTMO-d009-169-n800
 OpenBabel09051908313D

 33 33  0  0  0  0  0  0  0  0999 V2000
   -0.1213    1.5433   -0.1445 C   0  0  0  0  0  0  0  0  0  0  0  0
   -0.0594    0.5424   -1.1085 C   0  0  0  0  0  0  0  0  0  0  0  0
    0.4128    0.8564   -2.3872 C   0  0  0  0  0  0  0  0  0  0  0  0
    0.8131    2.1547   -2.7175 C   0  0  0  0  0  0  0  0  0  0  0  0
    0.7433    3.1586   -1.7577 C   0  0  0  0  0  0  0  0  0  0  0  0
    0.2805    2.8353   -0.4829 C   0  0  0  0  0  0  0  0  0  0  0  0
   -0.4804    1.3432    0.8568 H   0  0  0  0  0  0  0  0  0  0  0  0
   -0.3659   -0.4712   -0.8837 H   0  0  0  0  0  0  0  0  0  0  0  0
    1.1645    2.3613   -3.7220 H   0  0  0  0  0  0  0  0  0  0  0  0
    1.0410    4.1765   -1.9748 H   0  0  0  0  0  0  0  0  0  0  0  0
    0.2115    3.8928    0.5363 N   0  0  0  0  0  0  0  0  0  0  0  0
    0.5668    5.0247    0.2086 O   0  0  0  0  0  0  0  0  0  0  0  0
   -0.1952    3.5819    1.6551 O   0  0  0  0  0  0  0  0  0  0  0  0
   15.0846    3.5601   -9.6655 N   0  0  0  0  0  0  0  0  0  0  0  0
   15.9228    3.6039  -10.3847 N   0  0  0  0  0  0  0  0  0  0  0  0
    3.9319   -0.2314   -2.8198 C   0  0  0  0  0  0  0  0  0  0  0  0
    5.1277    0.3684   -3.2116 C   0  0  0  0  0  0  0  0  0  0  0  0
    5.4362    0.5565   -4.5660 C   0  0  0  0  0  0  0  0  0  0  0  0
    4.5111    0.1266   -5.5315 C   0  0  0  0  0  0  0  0  0  0  0  0
    3.3112   -0.4745   -5.1638 C   0  0  0  0  0  0  0  0  0  0  0  0
    3.0336   -0.6459   -3.8046 C   0  0  0  0  0  0  0  0  0  0  0  0
    3.7011   -0.3895   -1.7723 H   0  0  0  0  0  0  0  0  0  0  0  0
    5.8332    0.6931   -2.4520 H   0  0  0  0  0  0  0  0  0  0  0  0
    4.7367    0.2623   -6.5859 H   0  0  0  0  0  0  0  0  0  0  0  0
    2.6039   -0.8181   -5.9106 H   0  0  0  0  0  0  0  0  0  0  0  0
    1.4930   -1.3967   -3.3250 S   0  0  0  0  0  0  0  0  0  0  0  0
    0.4237   -0.0947   -3.3975 O   0  0  0  0  0  0  0  0  0  0  0  0
    1.5858   -1.8360   -1.9366 O   0  0  0  0  0  0  0  0  0  0  0  0
    1.0094   -2.2600   -4.3887 O   0  0  0  0  0  0  0  0  0  0  0  0
    6.7454    1.1805   -4.9825 C   0  0  0  0  0  0  0  0  0  0  0  0
    7.4819    0.4075   -5.2337 H   0  0  0  0  0  0  0  0  0  0  0  0
    6.6226    1.8115   -5.8679 H   0  0  0  0  0  0  0  0  0  0  0  0
    7.1712    1.7912   -4.1818 H   0  0  0  0  0  0  0  0  0  0  0  0
  1  7  1  0  0  0  0
  2  8  1  0  0  0  0
  2  1  2  0  0  0  0
  3  2  1  0  0  0  0
  4  3  2  0  0  0  0
  4  5  1  0  0  0  0
  5  6  2  0  0  0  0
  6  1  1  0  0  0  0
  6 11  1  0  0  0  0
  9  4  1  0  0  0  0
 10  5  1  0  0  0  0
 11 13  2  0  0  0  0
 12 11  2  0  0  0  0
 15 14  3  0  0  0  0
 16 22  1  0  0  0  0
 17 16  1  0  0  0  0
 17 23  1  0  0  0  0
 18 17  2  0  0  0  0
 19 20  2  0  0  0  0
 19 18  1  0  0  0  0
 20 21  1  0  0  0  0
 21 26  1  0  0  0  0
 21 16  2  0  0  0  0
 24 19  1  0  0  0  0
 25 20  1  0  0  0  0
 26 28  2  0  0  0  0
 27 26  1  0  0  0  0
 27  3  1  0  0  0  0
 29 26  2  0  0  0  0
 30 18  1  0  0  0  0
 30 33  1  0  0  0  0
 31 30  1  0  0  0  0
 32 30  1  0  0  0  0
M  END
