Coordinates from ORCA-job 4-NO2-Ph-N2-OTs-B3LYPG-6-31G_dp-MTMO-d009-169-n800
 OpenBabel09051908313D

 33 33  0  0  0  0  0  0  0  0999 V2000
    0.0689    0.8248   -1.3360 C   0  0  0  0  0  0  0  0  0  0  0  0
    0.6870   -0.0609   -2.2128 C   0  0  0  0  0  0  0  0  0  0  0  0
    1.4014    0.4476   -3.3026 C   0  0  0  0  0  0  0  0  0  0  0  0
    1.4991    1.8231   -3.5334 C   0  0  0  0  0  0  0  0  0  0  0  0
    0.8743    2.7093   -2.6624 C   0  0  0  0  0  0  0  0  0  0  0  0
    0.1715    2.1953   -1.5734 C   0  0  0  0  0  0  0  0  0  0  0  0
   -0.4935    0.4736   -0.4802 H   0  0  0  0  0  0  0  0  0  0  0  0
    0.6277   -1.1314   -2.0625 H   0  0  0  0  0  0  0  0  0  0  0  0
    2.0514    2.1769   -4.3966 H   0  0  0  0  0  0  0  0  0  0  0  0
    0.9234    3.7813   -2.8079 H   0  0  0  0  0  0  0  0  0  0  0  0
   -0.4845    3.1299   -0.6467 N   0  0  0  0  0  0  0  0  0  0  0  0
   -0.3750    4.3337   -0.8783 O   0  0  0  0  0  0  0  0  0  0  0  0
   -1.1011    2.6518    0.3047 O   0  0  0  0  0  0  0  0  0  0  0  0
    2.0508    0.8932   -7.1466 N   0  0  0  0  0  0  0  0  0  0  0  0
    1.3658    0.2437   -7.7212 N   0  0  0  0  0  0  0  0  0  0  0  0
    5.0355    0.2895   -2.5019 C   0  0  0  0  0  0  0  0  0  0  0  0
    6.0734    1.2183   -2.4558 C   0  0  0  0  0  0  0  0  0  0  0  0
    6.6968    1.6698   -3.6275 C   0  0  0  0  0  0  0  0  0  0  0  0
    6.2523    1.1675   -4.8611 C   0  0  0  0  0  0  0  0  0  0  0  0
    5.2189    0.2386   -4.9313 C   0  0  0  0  0  0  0  0  0  0  0  0
    4.6185   -0.1908   -3.7443 C   0  0  0  0  0  0  0  0  0  0  0  0
    4.5632   -0.0693   -1.5945 H   0  0  0  0  0  0  0  0  0  0  0  0
    6.4058    1.5959   -1.4930 H   0  0  0  0  0  0  0  0  0  0  0  0
    6.7258    1.5064   -5.7782 H   0  0  0  0  0  0  0  0  0  0  0  0
    4.8857   -0.1565   -5.8845 H   0  0  0  0  0  0  0  0  0  0  0  0
    3.2879   -1.3697   -3.8253 S   0  0  0  0  0  0  0  0  0  0  0  0
    1.9716   -0.4015   -4.2409 O   0  0  0  0  0  0  0  0  0  0  0  0
    3.0518   -1.9172   -2.4936 O   0  0  0  0  0  0  0  0  0  0  0  0
    3.4361   -2.2099   -5.0012 O   0  0  0  0  0  0  0  0  0  0  0  0
    7.8417    2.6497   -3.5653 C   0  0  0  0  0  0  0  0  0  0  0  0
    7.8501    3.3117   -4.4363 H   0  0  0  0  0  0  0  0  0  0  0  0
    7.7927    3.2678   -2.6647 H   0  0  0  0  0  0  0  0  0  0  0  0
    8.8035    2.1225   -3.5490 H   0  0  0  0  0  0  0  0  0  0  0  0
  1  7  1  0  0  0  0
  2  8  1  0  0  0  0
  2  1  2  0  0  0  0
  3  2  1  0  0  0  0
  4  3  2  0  0  0  0
  4  5  1  0  0  0  0
  5  6  2  0  0  0  0
  6  1  1  0  0  0  0
  6 11  1  0  0  0  0
  9  4  1  0  0  0  0
 10  5  1  0  0  0  0
 11 13  2  0  0  0  0
 12 11  2  0  0  0  0
 15 14  3  0  0  0  0
 16 17  1  0  0  0  0
 16 22  1  0  0  0  0
 17 23  1  0  0  0  0
 18 30  1  0  0  0  0
 18 17  2  0  0  0  0
 19 18  1  0  0  0  0
 20 19  2  0  0  0  0
 20 21  1  0  0  0  0
 21 16  2  0  0  0  0
 24 19  1  0  0  0  0
 25 20  1  0  0  0  0
 26 21  1  0  0  0  0
 26 28  2  0  0  0  0
 27 26  1  0  0  0  0
 27  3  1  0  0  0  0
 29 26  2  0  0  0  0
 30 33  1  0  0  0  0
 30 32  1  0  0  0  0
 31 30  1  0  0  0  0
M  END
