Coordinates from ORCA-job 4-NO2-Ph-N2-OTs-B3LYPG-6-31G_dp-MTMO-d009-169-n800
 OpenBabel09051908313D

 33 33  0  0  0  0  0  0  0  0999 V2000
    0.2365    1.1165   -0.1873 C   0  0  0  0  0  0  0  0  0  0  0  0
    0.4788    0.1598   -1.1676 C   0  0  0  0  0  0  0  0  0  0  0  0
    0.8202    0.5780   -2.4580 C   0  0  0  0  0  0  0  0  0  0  0  0
    0.9145    1.9345   -2.7833 C   0  0  0  0  0  0  0  0  0  0  0  0
    0.6641    2.8924   -1.8067 C   0  0  0  0  0  0  0  0  0  0  0  0
    0.3321    2.4673   -0.5210 C   0  0  0  0  0  0  0  0  0  0  0  0
   -0.0314    0.8361    0.8233 H   0  0  0  0  0  0  0  0  0  0  0  0
    0.4118   -0.8979   -0.9466 H   0  0  0  0  0  0  0  0  0  0  0  0
    1.1730    2.2196   -3.7966 H   0  0  0  0  0  0  0  0  0  0  0  0
    0.7227    3.9525   -2.0195 H   0  0  0  0  0  0  0  0  0  0  0  0
    0.0721    3.4777    0.5154 N   0  0  0  0  0  0  0  0  0  0  0  0
    0.1662    4.6620    0.1936 O   0  0  0  0  0  0  0  0  0  0  0  0
   -0.2207    3.0782    1.6417 O   0  0  0  0  0  0  0  0  0  0  0  0
   10.2939    0.8019   -6.9614 N   0  0  0  0  0  0  0  0  0  0  0  0
   11.2821    0.5451   -7.3842 N   0  0  0  0  0  0  0  0  0  0  0  0
    4.4925    0.2875   -3.0960 C   0  0  0  0  0  0  0  0  0  0  0  0
    5.5046    1.1333   -3.5480 C   0  0  0  0  0  0  0  0  0  0  0  0
    5.6760    1.3967   -4.9141 C   0  0  0  0  0  0  0  0  0  0  0  0
    4.8015    0.7879   -5.8295 C   0  0  0  0  0  0  0  0  0  0  0  0
    3.7852   -0.0602   -5.4016 C   0  0  0  0  0  0  0  0  0  0  0  0
    3.6405   -0.3004   -4.0317 C   0  0  0  0  0  0  0  0  0  0  0  0
    4.3713    0.0729   -2.0401 H   0  0  0  0  0  0  0  0  0  0  0  0
    6.1738    1.5929   -2.8262 H   0  0  0  0  0  0  0  0  0  0  0  0
    4.9223    0.9792   -6.8925 H   0  0  0  0  0  0  0  0  0  0  0  0
    3.1201   -0.5406   -6.1109 H   0  0  0  0  0  0  0  0  0  0  0  0
    2.3332   -1.3722   -3.4754 S   0  0  0  0  0  0  0  0  0  0  0  0
    0.9978   -0.3416   -3.4820 O   0  0  0  0  0  0  0  0  0  0  0  0
    2.5952   -1.7724   -2.0969 O   0  0  0  0  0  0  0  0  0  0  0  0
    1.9976   -2.3270   -4.5176 O   0  0  0  0  0  0  0  0  0  0  0  0
    6.7906    2.2913   -5.3977 C   0  0  0  0  0  0  0  0  0  0  0  0
    7.6375    1.6988   -5.7643 H   0  0  0  0  0  0  0  0  0  0  0  0
    6.4608    2.9282   -6.2247 H   0  0  0  0  0  0  0  0  0  0  0  0
    7.1618    2.9365   -4.5972 H   0  0  0  0  0  0  0  0  0  0  0  0
  1  7  1  0  0  0  0
  2  8  1  0  0  0  0
  2  1  2  0  0  0  0
  3  2  1  0  0  0  0
  4  3  2  0  0  0  0
  4  5  1  0  0  0  0
  5  6  2  0  0  0  0
  6  1  1  0  0  0  0
  6 11  1  0  0  0  0
  9  4  1  0  0  0  0
 10  5  1  0  0  0  0
 11 13  2  0  0  0  0
 12 11  2  0  0  0  0
 15 14  3  0  0  0  0
 16 22  1  0  0  0  0
 17 16  1  0  0  0  0
 17 23  1  0  0  0  0
 18 17  2  0  0  0  0
 19 20  2  0  0  0  0
 19 18  1  0  0  0  0
 20 21  1  0  0  0  0
 21 26  1  0  0  0  0
 21 16  2  0  0  0  0
 24 19  1  0  0  0  0
 25 20  1  0  0  0  0
 26 28  2  0  0  0  0
 27 26  1  0  0  0  0
 27  3  1  0  0  0  0
 29 26  2  0  0  0  0
 30 18  1  0  0  0  0
 30 33  1  0  0  0  0
 31 30  1  0  0  0  0
 32 30  1  0  0  0  0
M  END
