Coordinates from ORCA-job 4-NO2-Ph-N2-OTs-B3LYPG-6-31G_dp-MTMO-d009-169-n800
 OpenBabel09051908313D

 33 33  0  0  0  0  0  0  0  0999 V2000
   -0.0606    0.9036   -1.1732 C   0  0  0  0  0  0  0  0  0  0  0  0
    0.4804    0.1267   -2.1925 C   0  0  0  0  0  0  0  0  0  0  0  0
    1.2449    0.7450   -3.1873 C   0  0  0  0  0  0  0  0  0  0  0  0
    1.4686    2.1251   -3.1828 C   0  0  0  0  0  0  0  0  0  0  0  0
    0.9228    2.9044   -2.1683 C   0  0  0  0  0  0  0  0  0  0  0  0
    0.1689    2.2793   -1.1759 C   0  0  0  0  0  0  0  0  0  0  0  0
   -0.6584    0.4654   -0.3839 H   0  0  0  0  0  0  0  0  0  0  0  0
    0.3225   -0.9439   -2.2252 H   0  0  0  0  0  0  0  0  0  0  0  0
    2.0586    2.5687   -3.9769 H   0  0  0  0  0  0  0  0  0  0  0  0
    1.0719    3.9761   -2.1294 H   0  0  0  0  0  0  0  0  0  0  0  0
   -0.4035    3.0992   -0.0976 N   0  0  0  0  0  0  0  0  0  0  0  0
   -0.1797    4.3094   -0.1217 O   0  0  0  0  0  0  0  0  0  0  0  0
   -1.0688    2.5257    0.7638 O   0  0  0  0  0  0  0  0  0  0  0  0
    3.6122   -0.9163   -8.3370 N   0  0  0  0  0  0  0  0  0  0  0  0
    2.9411   -1.6592   -8.8043 N   0  0  0  0  0  0  0  0  0  0  0  0
    4.8703    0.3782   -2.6358 C   0  0  0  0  0  0  0  0  0  0  0  0
    5.9671    1.2335   -2.5554 C   0  0  0  0  0  0  0  0  0  0  0  0
    6.6141    1.6952   -3.7106 C   0  0  0  0  0  0  0  0  0  0  0  0
    6.1337    1.2769   -4.9615 C   0  0  0  0  0  0  0  0  0  0  0  0
    5.0392    0.4234   -5.0674 C   0  0  0  0  0  0  0  0  0  0  0  0
    4.4162   -0.0162   -3.8962 C   0  0  0  0  0  0  0  0  0  0  0  0
    4.3806    0.0099   -1.7415 H   0  0  0  0  0  0  0  0  0  0  0  0
    6.3274    1.5448   -1.5790 H   0  0  0  0  0  0  0  0  0  0  0  0
    6.6268    1.6221   -5.8658 H   0  0  0  0  0  0  0  0  0  0  0  0
    4.6815    0.0915   -6.0358 H   0  0  0  0  0  0  0  0  0  0  0  0
    2.9984   -1.0846   -4.0178 S   0  0  0  0  0  0  0  0  0  0  0  0
    1.7420    0.0155   -4.2583 O   0  0  0  0  0  0  0  0  0  0  0  0
    2.7844   -1.7477   -2.7357 O   0  0  0  0  0  0  0  0  0  0  0  0
    3.0268   -1.8099   -5.2769 O   0  0  0  0  0  0  0  0  0  0  0  0
    7.8203    2.5959   -3.6125 C   0  0  0  0  0  0  0  0  0  0  0  0
    7.8896    3.2675   -4.4732 H   0  0  0  0  0  0  0  0  0  0  0  0
    7.7944    3.2037   -2.7038 H   0  0  0  0  0  0  0  0  0  0  0  0
    8.7445    2.0057   -3.5849 H   0  0  0  0  0  0  0  0  0  0  0  0
  1  7  1  0  0  0  0
  2  1  2  0  0  0  0
  3  4  2  0  0  0  0
  3  2  1  0  0  0  0
  4  5  1  0  0  0  0
  5 10  1  0  0  0  0
  5  6  2  0  0  0  0
  6  1  1  0  0  0  0
  6 11  1  0  0  0  0
  8  2  1  0  0  0  0
  9  4  1  0  0  0  0
 11 13  2  0  0  0  0
 12 11  2  0  0  0  0
 15 14  3  0  0  0  0
 16 17  1  0  0  0  0
 16 22  1  0  0  0  0
 17 23  1  0  0  0  0
 18 30  1  0  0  0  0
 18 17  2  0  0  0  0
 19 18  1  0  0  0  0
 20 19  2  0  0  0  0
 20 21  1  0  0  0  0
 21 16  2  0  0  0  0
 24 19  1  0  0  0  0
 25 20  1  0  0  0  0
 26 21  1  0  0  0  0
 26 28  2  0  0  0  0
 27 26  1  0  0  0  0
 27  3  1  0  0  0  0
 29 26  2  0  0  0  0
 30 33  1  0  0  0  0
 30 32  1  0  0  0  0
 31 30  1  0  0  0  0
M  END
