Coordinates from ORCA-job 4-NO2-Ph-N2-OTs-B3LYPG-6-31G_dp-MTMO-d009-169-n800
 OpenBabel09051908313D

 33 33  0  0  0  0  0  0  0  0999 V2000
    0.0071    1.2180   -0.4265 C   0  0  0  0  0  0  0  0  0  0  0  0
    0.3354    0.2396   -1.3592 C   0  0  0  0  0  0  0  0  0  0  0  0
    0.8509    0.6271   -2.6005 C   0  0  0  0  0  0  0  0  0  0  0  0
    1.0338    1.9749   -2.9246 C   0  0  0  0  0  0  0  0  0  0  0  0
    0.6976    2.9548   -1.9966 C   0  0  0  0  0  0  0  0  0  0  0  0
    0.1925    2.5597   -0.7585 C   0  0  0  0  0  0  0  0  0  0  0  0
   -0.3941    0.9609    0.5454 H   0  0  0  0  0  0  0  0  0  0  0  0
    0.2026   -0.8117   -1.1376 H   0  0  0  0  0  0  0  0  0  0  0  0
    1.4270    2.2359   -3.9004 H   0  0  0  0  0  0  0  0  0  0  0  0
    0.8208    4.0090   -2.2106 H   0  0  0  0  0  0  0  0  0  0  0  0
   -0.1582    3.5931    0.2272 N   0  0  0  0  0  0  0  0  0  0  0  0
    0.0186    4.7687   -0.0916 O   0  0  0  0  0  0  0  0  0  0  0  0
   -0.6054    3.2201    1.3110 O   0  0  0  0  0  0  0  0  0  0  0  0
    8.8327    1.3320   -8.4339 N   0  0  0  0  0  0  0  0  0  0  0  0
    9.5950    1.2973   -9.2332 N   0  0  0  0  0  0  0  0  0  0  0  0
    4.5433    0.2153   -2.7770 C   0  0  0  0  0  0  0  0  0  0  0  0
    5.6416    1.0038   -3.1119 C   0  0  0  0  0  0  0  0  0  0  0  0
    6.0172    1.1973   -4.4500 C   0  0  0  0  0  0  0  0  0  0  0  0
    5.2656    0.5692   -5.4550 C   0  0  0  0  0  0  0  0  0  0  0  0
    4.1633   -0.2227   -5.1439 C   0  0  0  0  0  0  0  0  0  0  0  0
    3.8120   -0.3894   -3.8020 C   0  0  0  0  0  0  0  0  0  0  0  0
    4.2660    0.0512   -1.7418 H   0  0  0  0  0  0  0  0  0  0  0  0
    6.2214    1.4701   -2.3203 H   0  0  0  0  0  0  0  0  0  0  0  0
    5.5542    0.6953   -6.4947 H   0  0  0  0  0  0  0  0  0  0  0  0
    3.5936   -0.7205   -5.9207 H   0  0  0  0  0  0  0  0  0  0  0  0
    2.4015   -1.3958   -3.3960 S   0  0  0  0  0  0  0  0  0  0  0  0
    1.1226   -0.3118   -3.5855 O   0  0  0  0  0  0  0  0  0  0  0  0
    2.4725   -1.7765   -1.9890 O   0  0  0  0  0  0  0  0  0  0  0  0
    2.1578   -2.3591   -4.4559 O   0  0  0  0  0  0  0  0  0  0  0  0
    7.1942    2.0739   -4.8004 C   0  0  0  0  0  0  0  0  0  0  0  0
    7.6075    1.8182   -5.7793 H   0  0  0  0  0  0  0  0  0  0  0  0
    6.8956    3.1292   -4.8350 H   0  0  0  0  0  0  0  0  0  0  0  0
    7.9922    1.9877   -4.0565 H   0  0  0  0  0  0  0  0  0  0  0  0
  1  7  1  0  0  0  0
  2  8  1  0  0  0  0
  2  1  2  0  0  0  0
  3  2  1  0  0  0  0
  4  3  2  0  0  0  0
  4  5  1  0  0  0  0
  5  6  2  0  0  0  0
  6  1  1  0  0  0  0
  6 11  1  0  0  0  0
  9  4  1  0  0  0  0
 10  5  1  0  0  0  0
 11 13  2  0  0  0  0
 12 11  2  0  0  0  0
 15 14  3  0  0  0  0
 16 22  1  0  0  0  0
 17 16  1  0  0  0  0
 17 23  1  0  0  0  0
 18 17  2  0  0  0  0
 19 20  2  0  0  0  0
 19 18  1  0  0  0  0
 20 21  1  0  0  0  0
 21 26  1  0  0  0  0
 21 16  2  0  0  0  0
 24 19  1  0  0  0  0
 25 20  1  0  0  0  0
 26 28  2  0  0  0  0
 27 26  1  0  0  0  0
 27  3  1  0  0  0  0
 29 26  2  0  0  0  0
 30 18  1  0  0  0  0
 30 33  1  0  0  0  0
 31 30  1  0  0  0  0
 32 30  1  0  0  0  0
M  END
