Coordinates from ORCA-job 4-NO2-Ph-N2-OTs-B3LYPG-6-31G_dp-MTMO-d009-169-n800
 OpenBabel09051908313D

 33 33  0  0  0  0  0  0  0  0999 V2000
   -0.1353    1.1058   -0.8530 C   0  0  0  0  0  0  0  0  0  0  0  0
    0.3181    0.2475   -1.8493 C   0  0  0  0  0  0  0  0  0  0  0  0
    1.0346    0.7748   -2.9289 C   0  0  0  0  0  0  0  0  0  0  0  0
    1.2975    2.1443   -3.0296 C   0  0  0  0  0  0  0  0  0  0  0  0
    0.8384    3.0051   -2.0381 C   0  0  0  0  0  0  0  0  0  0  0  0
    0.1311    2.4705   -0.9619 C   0  0  0  0  0  0  0  0  0  0  0  0
   -0.6939    0.7391   -0.0011 H   0  0  0  0  0  0  0  0  0  0  0  0
    0.1283   -0.8172   -1.8001 H   0  0  0  0  0  0  0  0  0  0  0  0
    1.8475    2.5164   -3.8867 H   0  0  0  0  0  0  0  0  0  0  0  0
    1.0189    4.0719   -2.0810 H   0  0  0  0  0  0  0  0  0  0  0  0
   -0.3517    3.3768    0.0906 N   0  0  0  0  0  0  0  0  0  0  0  0
   -0.1000    4.5756   -0.0295 O   0  0  0  0  0  0  0  0  0  0  0  0
   -0.9761    2.8815    1.0280 O   0  0  0  0  0  0  0  0  0  0  0  0
    5.9145   -0.0944   -8.8062 N   0  0  0  0  0  0  0  0  0  0  0  0
    6.0282   -0.5206   -9.8195 N   0  0  0  0  0  0  0  0  0  0  0  0
    4.7037    0.2867   -2.6409 C   0  0  0  0  0  0  0  0  0  0  0  0
    5.8449    1.0826   -2.7184 C   0  0  0  0  0  0  0  0  0  0  0  0
    6.4170    1.4143   -3.9548 C   0  0  0  0  0  0  0  0  0  0  0  0
    5.8154    0.9266   -5.1260 C   0  0  0  0  0  0  0  0  0  0  0  0
    4.6748    0.1314   -5.0726 C   0  0  0  0  0  0  0  0  0  0  0  0
    4.1282   -0.1795   -3.8243 C   0  0  0  0  0  0  0  0  0  0  0  0
    4.2725    0.0177   -1.6833 H   0  0  0  0  0  0  0  0  0  0  0  0
    6.3001    1.4490   -1.8028 H   0  0  0  0  0  0  0  0  0  0  0  0
    6.2466    1.1668   -6.0935 H   0  0  0  0  0  0  0  0  0  0  0  0
    4.2206   -0.2545   -5.9782 H   0  0  0  0  0  0  0  0  0  0  0  0
    2.6582   -1.1790   -3.7490 S   0  0  0  0  0  0  0  0  0  0  0  0
    1.4380   -0.0367   -3.9797 O   0  0  0  0  0  0  0  0  0  0  0  0
    2.5185   -1.7293   -2.4048 O   0  0  0  0  0  0  0  0  0  0  0  0
    2.5547   -1.9984   -4.9444 O   0  0  0  0  0  0  0  0  0  0  0  0
    7.6706    2.2506   -4.0261 C   0  0  0  0  0  0  0  0  0  0  0  0
    7.6714    2.8954   -4.9099 H   0  0  0  0  0  0  0  0  0  0  0  0
    7.7830    2.8818   -3.1404 H   0  0  0  0  0  0  0  0  0  0  0  0
    8.5603    1.6122   -4.0890 H   0  0  0  0  0  0  0  0  0  0  0  0
  1  7  1  0  0  0  0
  2  8  1  0  0  0  0
  2  1  2  0  0  0  0
  3  2  1  0  0  0  0
  4  3  2  0  0  0  0
  4  5  1  0  0  0  0
  5  6  2  0  0  0  0
  6  1  1  0  0  0  0
  6 11  1  0  0  0  0
  9  4  1  0  0  0  0
 10  5  1  0  0  0  0
 11 13  2  0  0  0  0
 12 11  2  0  0  0  0
 15 14  3  0  0  0  0
 16 22  1  0  0  0  0
 17 16  1  0  0  0  0
 17 23  1  0  0  0  0
 18 17  2  0  0  0  0
 19 20  2  0  0  0  0
 19 18  1  0  0  0  0
 20 21  1  0  0  0  0
 21 26  1  0  0  0  0
 21 16  2  0  0  0  0
 24 19  1  0  0  0  0
 25 20  1  0  0  0  0
 26 28  2  0  0  0  0
 27 26  1  0  0  0  0
 27  3  1  0  0  0  0
 29 26  2  0  0  0  0
 30 18  1  0  0  0  0
 30 32  1  0  0  0  0
 31 30  1  0  0  0  0
 33 30  1  0  0  0  0
M  END
