Coordinates from ORCA-job 4-NO2-Ph-N2-OTs-B3LYPG-6-31G_dp-MTMO-d009-169-n800
 OpenBabel09051908313D

 33 32  0  0  0  0  0  0  0  0999 V2000
    0.9360    1.1618   -1.8563 C   0  0  0  0  0  0  0  0  0  0  0  0
    0.8470    0.7077   -3.1875 C   0  0  0  0  0  0  0  0  0  0  0  0
   -0.0667    1.2711   -3.8706 C   0  0  0  0  0  0  0  0  0  0  0  0
   -1.0279    2.2295   -3.6947 C   0  0  0  0  0  0  0  0  0  0  0  0
   -0.9473    2.6930   -2.3712 C   0  0  0  0  0  0  0  0  0  0  0  0
    0.0155    2.1594   -1.4954 C   0  0  0  0  0  0  0  0  0  0  0  0
    1.6530    0.7943   -1.1320 H   0  0  0  0  0  0  0  0  0  0  0  0
    2.1011   -0.5462   -3.7941 H   0  0  0  0  0  0  0  0  0  0  0  0
   -1.7412    2.5923   -4.4231 H   0  0  0  0  0  0  0  0  0  0  0  0
   -1.6210    3.4614   -2.0116 H   0  0  0  0  0  0  0  0  0  0  0  0
    0.0582    2.6864   -0.1168 N   0  0  0  0  0  0  0  0  0  0  0  0
   -0.7545    3.5578    0.1884 O   0  0  0  0  0  0  0  0  0  0  0  0
    0.9067    2.2200    0.6397 O   0  0  0  0  0  0  0  0  0  0  0  0
   -0.2704    0.6203   -5.9429 N   0  0  0  0  0  0  0  0  0  0  0  0
    0.1020   -0.0248   -6.7604 N   0  0  0  0  0  0  0  0  0  0  0  0
    5.0568    1.4703   -4.1316 C   0  0  0  0  0  0  0  0  0  0  0  0
    6.1283    2.0446   -3.4483 C   0  0  0  0  0  0  0  0  0  0  0  0
    7.2241    1.2735   -3.0385 C   0  0  0  0  0  0  0  0  0  0  0  0
    7.2239   -0.0992   -3.3334 C   0  0  0  0  0  0  0  0  0  0  0  0
    6.1641   -0.6903   -4.0153 C   0  0  0  0  0  0  0  0  0  0  0  0
    5.0832    0.1033   -4.4063 C   0  0  0  0  0  0  0  0  0  0  0  0
    4.2159    2.0710   -4.4607 H   0  0  0  0  0  0  0  0  0  0  0  0
    6.1138    3.1096   -3.2323 H   0  0  0  0  0  0  0  0  0  0  0  0
    8.0675   -0.7122   -3.0268 H   0  0  0  0  0  0  0  0  0  0  0  0
    6.1724   -1.7478   -4.2556 H   0  0  0  0  0  0  0  0  0  0  0  0
    3.7058   -0.6534   -5.2547 S   0  0  0  0  0  0  0  0  0  0  0  0
    2.9437    0.4025   -5.9301 O   0  0  0  0  0  0  0  0  0  0  0  0
    2.7933   -1.2250   -4.0403 O   0  0  0  0  0  0  0  0  0  0  0  0
    4.1901   -1.8221   -5.9761 O   0  0  0  0  0  0  0  0  0  0  0  0
    8.3924    1.9037   -2.3194 C   0  0  0  0  0  0  0  0  0  0  0  0
    9.2435    2.0389   -2.9981 H   0  0  0  0  0  0  0  0  0  0  0  0
    8.1327    2.8864   -1.9175 H   0  0  0  0  0  0  0  0  0  0  0  0
    8.7363    1.2769   -1.4907 H   0  0  0  0  0  0  0  0  0  0  0  0
  1  6  1  0  0  0  0
  1  7  1  0  0  0  0
  2  1  2  0  0  0  0
  3  4  2  0  0  0  0
  3  2  1  0  0  0  0
  4  5  1  0  0  0  0
  5 10  1  0  0  0  0
  5  6  2  0  0  0  0
  6 11  1  0  0  0  0
  9  4  1  0  0  0  0
 11 12  2  0  0  0  0
 11 13  2  0  0  0  0
 15 14  3  0  0  0  0
 16 17  1  0  0  0  0
 17 23  1  0  0  0  0
 17 18  2  0  0  0  0
 18 30  1  0  0  0  0
 19 18  1  0  0  0  0
 19 24  1  0  0  0  0
 20 19  2  0  0  0  0
 21 16  2  0  0  0  0
 21 20  1  0  0  0  0
 22 16  1  0  0  0  0
 25 20  1  0  0  0  0
 26 21  1  0  0  0  0
 26 28  1  0  0  0  0
 27 26  2  0  0  0  0
 28  8  1  0  0  0  0
 29 26  2  0  0  0  0
 30 32  1  0  0  0  0
 30 33  1  0  0  0  0
 31 30  1  0  0  0  0
M  RAD  2   2   2   3   2
M  END
