Coordinates from ORCA-job 4-NO2-Ph-N2-OTs-B3LYPG-6-31G_dp-MTMO-d009-169-n800
 OpenBabel09051908313D

 33 33  0  0  0  0  0  0  0  0999 V2000
    0.0314    0.8224   -1.6993 C   0  0  0  0  0  0  0  0  0  0  0  0
    0.7089    0.0034   -2.5968 C   0  0  0  0  0  0  0  0  0  0  0  0
    1.5537    0.5860   -3.5468 C   0  0  0  0  0  0  0  0  0  0  0  0
    1.7252    1.9714   -3.6171 C   0  0  0  0  0  0  0  0  0  0  0  0
    1.0434    2.7925   -2.7257 C   0  0  0  0  0  0  0  0  0  0  0  0
    0.2091    2.2036   -1.7764 C   0  0  0  0  0  0  0  0  0  0  0  0
   -0.6318    0.4122   -0.9483 H   0  0  0  0  0  0  0  0  0  0  0  0
    0.5967   -1.0732   -2.5672 H   0  0  0  0  0  0  0  0  0  0  0  0
    2.3808    2.3868   -4.3741 H   0  0  0  0  0  0  0  0  0  0  0  0
    1.1476    3.8701   -2.7490 H   0  0  0  0  0  0  0  0  0  0  0  0
   -0.5072    3.0684   -0.8269 N   0  0  0  0  0  0  0  0  0  0  0  0
   -0.3256    4.2828   -0.9131 O   0  0  0  0  0  0  0  0  0  0  0  0
   -1.2422    2.5259   -0.0028 O   0  0  0  0  0  0  0  0  0  0  0  0
   -0.3701    0.2264   -6.2323 N   0  0  0  0  0  0  0  0  0  0  0  0
   -0.6827   -0.6522   -6.8254 N   0  0  0  0  0  0  0  0  0  0  0  0
    5.1103    0.3428   -2.5188 C   0  0  0  0  0  0  0  0  0  0  0  0
    6.1670    1.2360   -2.3516 C   0  0  0  0  0  0  0  0  0  0  0  0
    6.9167    1.6879   -3.4468 C   0  0  0  0  0  0  0  0  0  0  0  0
    6.5813    1.2221   -4.7283 C   0  0  0  0  0  0  0  0  0  0  0  0
    5.5305    0.3301   -4.9192 C   0  0  0  0  0  0  0  0  0  0  0  0
    4.8024   -0.1001   -3.8063 C   0  0  0  0  0  0  0  0  0  0  0  0
    4.5410   -0.0171   -1.6694 H   0  0  0  0  0  0  0  0  0  0  0  0
    6.4144    1.5848   -1.3529 H   0  0  0  0  0  0  0  0  0  0  0  0
    7.1544    1.5604   -5.5871 H   0  0  0  0  0  0  0  0  0  0  0  0
    5.2813   -0.0390   -5.9079 H   0  0  0  0  0  0  0  0  0  0  0  0
    3.4459   -1.2271   -4.0445 S   0  0  0  0  0  0  0  0  0  0  0  0
    2.1952   -0.1917   -4.5010 O   0  0  0  0  0  0  0  0  0  0  0  0
    3.0940   -1.8311   -2.7638 O   0  0  0  0  0  0  0  0  0  0  0  0
    3.6574   -2.0120   -5.2487 O   0  0  0  0  0  0  0  0  0  0  0  0
    8.0791    2.6300   -3.2521 C   0  0  0  0  0  0  0  0  0  0  0  0
    8.1867    3.3136   -4.0995 H   0  0  0  0  0  0  0  0  0  0  0  0
    7.9641    3.2257   -2.3426 H   0  0  0  0  0  0  0  0  0  0  0  0
    9.0198    2.0729   -3.1629 H   0  0  0  0  0  0  0  0  0  0  0  0
  1  7  1  0  0  0  0
  2  8  1  0  0  0  0
  2  1  2  0  0  0  0
  3  2  1  0  0  0  0
  4  3  2  0  0  0  0
  4  5  1  0  0  0  0
  5  6  2  0  0  0  0
  6  1  1  0  0  0  0
  6 11  1  0  0  0  0
  9  4  1  0  0  0  0
 10  5  1  0  0  0  0
 11 13  2  0  0  0  0
 12 11  2  0  0  0  0
 15 14  3  0  0  0  0
 16 17  1  0  0  0  0
 16 22  1  0  0  0  0
 17 23  1  0  0  0  0
 18 30  1  0  0  0  0
 18 17  2  0  0  0  0
 19 18  1  0  0  0  0
 20 19  2  0  0  0  0
 20 21  1  0  0  0  0
 21 16  2  0  0  0  0
 24 19  1  0  0  0  0
 25 20  1  0  0  0  0
 26 21  1  0  0  0  0
 26 28  2  0  0  0  0
 27 26  1  0  0  0  0
 27  3  1  0  0  0  0
 29 26  2  0  0  0  0
 30 33  1  0  0  0  0
 30 32  1  0  0  0  0
 31 30  1  0  0  0  0
M  END
