Coordinates from ORCA-job 4-NO2-Ph-N2-OTs-B3LYPG-6-31G_dp-MTMO-d009-169-n800
 OpenBabel09051908313D

 33 33  0  0  0  0  0  0  0  0999 V2000
   -0.0913    1.5446   -0.1582 C   0  0  0  0  0  0  0  0  0  0  0  0
   -0.0281    0.5436   -1.1220 C   0  0  0  0  0  0  0  0  0  0  0  0
    0.4424    0.8582   -2.4011 C   0  0  0  0  0  0  0  0  0  0  0  0
    0.8397    2.1572   -2.7321 C   0  0  0  0  0  0  0  0  0  0  0  0
    0.7686    3.1613   -1.7725 C   0  0  0  0  0  0  0  0  0  0  0  0
    0.3074    2.8373   -0.4973 C   0  0  0  0  0  0  0  0  0  0  0  0
   -0.4491    1.3440    0.8435 H   0  0  0  0  0  0  0  0  0  0  0  0
   -0.3323   -0.4705   -0.8966 H   0  0  0  0  0  0  0  0  0  0  0  0
    1.1898    2.3643   -3.7370 H   0  0  0  0  0  0  0  0  0  0  0  0
    1.0639    4.1797   -1.9902 H   0  0  0  0  0  0  0  0  0  0  0  0
    0.2371    3.8950    0.5217 N   0  0  0  0  0  0  0  0  0  0  0  0
    0.5907    5.0274    0.1936 O   0  0  0  0  0  0  0  0  0  0  0  0
   -0.1671    3.5833    1.6411 O   0  0  0  0  0  0  0  0  0  0  0  0
   14.6362    3.4425   -9.4085 N   0  0  0  0  0  0  0  0  0  0  0  0
   15.4795    3.4953  -10.1210 N   0  0  0  0  0  0  0  0  0  0  0  0
    3.9638   -0.2201   -2.8381 C   0  0  0  0  0  0  0  0  0  0  0  0
    5.1574    0.3826   -3.2318 C   0  0  0  0  0  0  0  0  0  0  0  0
    5.4635    0.5708   -4.5868 C   0  0  0  0  0  0  0  0  0  0  0  0
    4.5383    0.1379   -5.5507 C   0  0  0  0  0  0  0  0  0  0  0  0
    3.3405   -0.4662   -5.1810 C   0  0  0  0  0  0  0  0  0  0  0  0
    3.0653   -0.6376   -3.8213 C   0  0  0  0  0  0  0  0  0  0  0  0
    3.7349   -0.3783   -1.7901 H   0  0  0  0  0  0  0  0  0  0  0  0
    5.8631    0.7097   -2.4734 H   0  0  0  0  0  0  0  0  0  0  0  0
    4.7620    0.2737   -6.6055 H   0  0  0  0  0  0  0  0  0  0  0  0
    2.6332   -0.8121   -5.9267 H   0  0  0  0  0  0  0  0  0  0  0  0
    1.5274   -1.3923   -3.3393 S   0  0  0  0  0  0  0  0  0  0  0  0
    0.4545   -0.0932   -3.4111 O   0  0  0  0  0  0  0  0  0  0  0  0
    1.6232   -1.8304   -1.9507 O   0  0  0  0  0  0  0  0  0  0  0  0
    1.0448   -2.2575   -4.4019 O   0  0  0  0  0  0  0  0  0  0  0  0
    6.7703    1.1982   -5.0055 C   0  0  0  0  0  0  0  0  0  0  0  0
    7.5080    0.4272   -5.2593 H   0  0  0  0  0  0  0  0  0  0  0  0
    6.6442    1.8300   -5.8897 H   0  0  0  0  0  0  0  0  0  0  0  0
    7.1966    1.8089   -4.2050 H   0  0  0  0  0  0  0  0  0  0  0  0
  1  7  1  0  0  0  0
  2  8  1  0  0  0  0
  2  1  2  0  0  0  0
  3  2  1  0  0  0  0
  4  3  2  0  0  0  0
  4  5  1  0  0  0  0
  5  6  2  0  0  0  0
  6  1  1  0  0  0  0
  6 11  1  0  0  0  0
  9  4  1  0  0  0  0
 10  5  1  0  0  0  0
 11 13  2  0  0  0  0
 12 11  2  0  0  0  0
 15 14  3  0  0  0  0
 16 22  1  0  0  0  0
 17 16  1  0  0  0  0
 17 23  1  0  0  0  0
 18 17  2  0  0  0  0
 19 20  2  0  0  0  0
 19 18  1  0  0  0  0
 20 21  1  0  0  0  0
 21 26  1  0  0  0  0
 21 16  2  0  0  0  0
 24 19  1  0  0  0  0
 25 20  1  0  0  0  0
 26 28  2  0  0  0  0
 27 26  1  0  0  0  0
 27  3  1  0  0  0  0
 29 26  2  0  0  0  0
 30 18  1  0  0  0  0
 30 33  1  0  0  0  0
 31 30  1  0  0  0  0
 32 30  1  0  0  0  0
M  END
