Coordinates from ORCA-job 4-NO2-Ph-N2-OTs-B3LYPG-6-31G_dp-MTMO-d009-169-n800
 OpenBabel09051908313D

 33 33  0  0  0  0  0  0  0  0999 V2000
    0.2377    1.1163   -0.1884 C   0  0  0  0  0  0  0  0  0  0  0  0
    0.4799    0.1594   -1.1684 C   0  0  0  0  0  0  0  0  0  0  0  0
    0.8217    0.5772   -2.4588 C   0  0  0  0  0  0  0  0  0  0  0  0
    0.9167    1.9337   -2.7843 C   0  0  0  0  0  0  0  0  0  0  0  0
    0.6666    2.8918   -1.8079 C   0  0  0  0  0  0  0  0  0  0  0  0
    0.3341    2.4670   -0.5222 C   0  0  0  0  0  0  0  0  0  0  0  0
   -0.0305    0.8361    0.8222 H   0  0  0  0  0  0  0  0  0  0  0  0
    0.4123   -0.8983   -0.9473 H   0  0  0  0  0  0  0  0  0  0  0  0
    1.1756    2.2184   -3.7976 H   0  0  0  0  0  0  0  0  0  0  0  0
    0.7257    3.9518   -2.0208 H   0  0  0  0  0  0  0  0  0  0  0  0
    0.0743    3.4777    0.5140 N   0  0  0  0  0  0  0  0  0  0  0  0
    0.1685    4.6619    0.1919 O   0  0  0  0  0  0  0  0  0  0  0  0
   -0.2199    3.0785    1.6400 O   0  0  0  0  0  0  0  0  0  0  0  0
   10.2774    0.8007   -6.9534 N   0  0  0  0  0  0  0  0  0  0  0  0
   11.2651    0.5411   -7.3758 N   0  0  0  0  0  0  0  0  0  0  0  0
    4.4936    0.2873   -3.0961 C   0  0  0  0  0  0  0  0  0  0  0  0
    5.5051    1.1339   -3.5479 C   0  0  0  0  0  0  0  0  0  0  0  0
    5.6761    1.3980   -4.9139 C   0  0  0  0  0  0  0  0  0  0  0  0
    4.8018    0.7892   -5.8294 C   0  0  0  0  0  0  0  0  0  0  0  0
    3.7860   -0.0598   -5.4018 C   0  0  0  0  0  0  0  0  0  0  0  0
    3.6417   -0.3007   -4.0320 C   0  0  0  0  0  0  0  0  0  0  0  0
    4.3726    0.0722   -2.0403 H   0  0  0  0  0  0  0  0  0  0  0  0
    6.1742    1.5935   -2.8261 H   0  0  0  0  0  0  0  0  0  0  0  0
    4.9223    0.9810   -6.8924 H   0  0  0  0  0  0  0  0  0  0  0  0
    3.1211   -0.5402   -6.1112 H   0  0  0  0  0  0  0  0  0  0  0  0
    2.3347   -1.3730   -3.4759 S   0  0  0  0  0  0  0  0  0  0  0  0
    0.9991   -0.3427   -3.4826 O   0  0  0  0  0  0  0  0  0  0  0  0
    2.5967   -1.7733   -2.0974 O   0  0  0  0  0  0  0  0  0  0  0  0
    1.9995   -2.3279   -4.5182 O   0  0  0  0  0  0  0  0  0  0  0  0
    6.7902    2.2934   -5.3974 C   0  0  0  0  0  0  0  0  0  0  0  0
    7.6374    1.7013   -5.7640 H   0  0  0  0  0  0  0  0  0  0  0  0
    6.4601    2.9302   -6.2242 H   0  0  0  0  0  0  0  0  0  0  0  0
    7.1612    2.9386   -4.5968 H   0  0  0  0  0  0  0  0  0  0  0  0
  1  7  1  0  0  0  0
  2  8  1  0  0  0  0
  2  1  2  0  0  0  0
  3  2  1  0  0  0  0
  4  3  2  0  0  0  0
  4  5  1  0  0  0  0
  5  6  2  0  0  0  0
  6  1  1  0  0  0  0
  6 11  1  0  0  0  0
  9  4  1  0  0  0  0
 10  5  1  0  0  0  0
 11 13  2  0  0  0  0
 12 11  2  0  0  0  0
 15 14  3  0  0  0  0
 16 22  1  0  0  0  0
 17 16  1  0  0  0  0
 17 23  1  0  0  0  0
 18 17  2  0  0  0  0
 19 20  2  0  0  0  0
 19 18  1  0  0  0  0
 20 21  1  0  0  0  0
 21 26  1  0  0  0  0
 21 16  2  0  0  0  0
 24 19  1  0  0  0  0
 25 20  1  0  0  0  0
 26 28  2  0  0  0  0
 27 26  1  0  0  0  0
 27  3  1  0  0  0  0
 29 26  2  0  0  0  0
 30 18  1  0  0  0  0
 30 33  1  0  0  0  0
 31 30  1  0  0  0  0
 32 30  1  0  0  0  0
M  END
