Coordinates from ORCA-job 4-NO2-Ph-N2-OTs-B3LYPG-6-31G_dp-MTMO-d009-169-n800
 OpenBabel09051908313D

 33 33  0  0  0  0  0  0  0  0999 V2000
    0.0557    1.1801   -0.1067 C   0  0  0  0  0  0  0  0  0  0  0  0
    0.2566    0.2070   -1.0801 C   0  0  0  0  0  0  0  0  0  0  0  0
    0.6261    0.6002   -2.3704 C   0  0  0  0  0  0  0  0  0  0  0  0
    0.7905    1.9482   -2.7026 C   0  0  0  0  0  0  0  0  0  0  0  0
    0.5827    2.9231   -1.7328 C   0  0  0  0  0  0  0  0  0  0  0  0
    0.2212    2.5224   -0.4472 C   0  0  0  0  0  0  0  0  0  0  0  0
   -0.2322    0.9193    0.9036 H   0  0  0  0  0  0  0  0  0  0  0  0
    0.1354   -0.8449   -0.8541 H   0  0  0  0  0  0  0  0  0  0  0  0
    1.0702    2.2138   -3.7157 H   0  0  0  0  0  0  0  0  0  0  0  0
    0.6964    3.9776   -1.9506 H   0  0  0  0  0  0  0  0  0  0  0  0
    0.0055    3.5506    0.5819 N   0  0  0  0  0  0  0  0  0  0  0  0
    0.1626    4.7267    0.2547 O   0  0  0  0  0  0  0  0  0  0  0  0
   -0.3173    3.1730    1.7075 O   0  0  0  0  0  0  0  0  0  0  0  0
   13.0840    1.3563   -8.3429 N   0  0  0  0  0  0  0  0  0  0  0  0
   14.0379    1.1526   -8.8627 N   0  0  0  0  0  0  0  0  0  0  0  0
    4.2719    0.1891   -2.9928 C   0  0  0  0  0  0  0  0  0  0  0  0
    5.3058    1.0087   -3.4436 C   0  0  0  0  0  0  0  0  0  0  0  0
    5.4850    1.2675   -4.8095 C   0  0  0  0  0  0  0  0  0  0  0  0
    4.5967    0.6809   -5.7261 C   0  0  0  0  0  0  0  0  0  0  0  0
    3.5584   -0.1408   -5.2992 C   0  0  0  0  0  0  0  0  0  0  0  0
    3.4060   -0.3767   -3.9295 C   0  0  0  0  0  0  0  0  0  0  0  0
    4.1436   -0.0218   -1.9370 H   0  0  0  0  0  0  0  0  0  0  0  0
    5.9858    1.4511   -2.7211 H   0  0  0  0  0  0  0  0  0  0  0  0
    4.7237    0.8689   -6.7889 H   0  0  0  0  0  0  0  0  0  0  0  0
    2.8819   -0.6038   -6.0092 H   0  0  0  0  0  0  0  0  0  0  0  0
    2.0658   -1.4078   -3.3741 S   0  0  0  0  0  0  0  0  0  0  0  0
    0.7642   -0.3351   -3.3864 O   0  0  0  0  0  0  0  0  0  0  0  0
    2.3117   -1.8120   -1.9938 O   0  0  0  0  0  0  0  0  0  0  0  0
    1.7033   -2.3542   -4.4149 O   0  0  0  0  0  0  0  0  0  0  0  0
    6.6228    2.1330   -5.2920 C   0  0  0  0  0  0  0  0  0  0  0  0
    7.4540    1.5162   -5.6551 H   0  0  0  0  0  0  0  0  0  0  0  0
    6.3123    2.7764   -6.1211 H   0  0  0  0  0  0  0  0  0  0  0  0
    7.0103    2.7691   -4.4920 H   0  0  0  0  0  0  0  0  0  0  0  0
  1  7  1  0  0  0  0
  2  8  1  0  0  0  0
  2  1  2  0  0  0  0
  3  2  1  0  0  0  0
  4  3  2  0  0  0  0
  4  5  1  0  0  0  0
  5  6  2  0  0  0  0
  6  1  1  0  0  0  0
  6 11  1  0  0  0  0
  9  4  1  0  0  0  0
 10  5  1  0  0  0  0
 11 13  2  0  0  0  0
 12 11  2  0  0  0  0
 15 14  3  0  0  0  0
 16 22  1  0  0  0  0
 17 16  1  0  0  0  0
 17 23  1  0  0  0  0
 18 17  2  0  0  0  0
 19 20  2  0  0  0  0
 19 18  1  0  0  0  0
 20 21  1  0  0  0  0
 21 26  1  0  0  0  0
 21 16  2  0  0  0  0
 24 19  1  0  0  0  0
 25 20  1  0  0  0  0
 26 28  2  0  0  0  0
 27 26  1  0  0  0  0
 27  3  1  0  0  0  0
 29 26  2  0  0  0  0
 30 18  1  0  0  0  0
 30 33  1  0  0  0  0
 31 30  1  0  0  0  0
 32 30  1  0  0  0  0
M  END
