Coordinates from ORCA-job 4-NO2-Ph-N2-OTs-B3LYPG-6-31G_dp-MTMO-d009-169-n800
 OpenBabel09051908313D

 33 33  0  0  0  0  0  0  0  0999 V2000
    0.1007    1.1742   -0.1343 C   0  0  0  0  0  0  0  0  0  0  0  0
    0.3069    0.2025   -1.1080 C   0  0  0  0  0  0  0  0  0  0  0  0
    0.6768    0.5980   -2.3975 C   0  0  0  0  0  0  0  0  0  0  0  0
    0.8362    1.9470   -2.7286 C   0  0  0  0  0  0  0  0  0  0  0  0
    0.6231    2.9203   -1.7584 C   0  0  0  0  0  0  0  0  0  0  0  0
    0.2613    2.5174   -0.4737 C   0  0  0  0  0  0  0  0  0  0  0  0
   -0.1876    0.9116    0.8755 H   0  0  0  0  0  0  0  0  0  0  0  0
    0.1896   -0.8500   -0.8828 H   0  0  0  0  0  0  0  0  0  0  0  0
    1.1163    2.2143   -3.7411 H   0  0  0  0  0  0  0  0  0  0  0  0
    0.7328    3.9754   -1.9754 H   0  0  0  0  0  0  0  0  0  0  0  0
    0.0400    3.5441    0.5558 N   0  0  0  0  0  0  0  0  0  0  0  0
    0.1929    4.7210    0.2295 O   0  0  0  0  0  0  0  0  0  0  0  0
   -0.2829    3.1644    1.6807 O   0  0  0  0  0  0  0  0  0  0  0  0
   12.3049    1.3071   -7.9726 N   0  0  0  0  0  0  0  0  0  0  0  0
   13.2655    1.0986   -8.4780 N   0  0  0  0  0  0  0  0  0  0  0  0
    4.3257    0.1983   -3.0155 C   0  0  0  0  0  0  0  0  0  0  0  0
    5.3583    1.0203   -3.4649 C   0  0  0  0  0  0  0  0  0  0  0  0
    5.5390    1.2792   -4.8305 C   0  0  0  0  0  0  0  0  0  0  0  0
    4.6537    0.6902   -5.7484 C   0  0  0  0  0  0  0  0  0  0  0  0
    3.6168   -0.1340   -5.3231 C   0  0  0  0  0  0  0  0  0  0  0  0
    3.4628   -0.3700   -3.9535 C   0  0  0  0  0  0  0  0  0  0  0  0
    4.1963   -0.0128   -1.9599 H   0  0  0  0  0  0  0  0  0  0  0  0
    6.0360    1.4646   -2.7414 H   0  0  0  0  0  0  0  0  0  0  0  0
    4.7819    0.8782   -6.8111 H   0  0  0  0  0  0  0  0  0  0  0  0
    2.9426   -0.5989   -6.0340 H   0  0  0  0  0  0  0  0  0  0  0  0
    2.1246   -1.4048   -3.4000 S   0  0  0  0  0  0  0  0  0  0  0  0
    0.8200   -0.3359   -3.4141 O   0  0  0  0  0  0  0  0  0  0  0  0
    2.3698   -1.8085   -2.0195 O   0  0  0  0  0  0  0  0  0  0  0  0
    1.7663   -2.3522   -4.4414 O   0  0  0  0  0  0  0  0  0  0  0  0
    6.6753    2.1476   -5.3116 C   0  0  0  0  0  0  0  0  0  0  0  0
    7.5059    1.5330   -5.6797 H   0  0  0  0  0  0  0  0  0  0  0  0
    6.3625    2.7946   -6.1371 H   0  0  0  0  0  0  0  0  0  0  0  0
    7.0643    2.7802   -4.5097 H   0  0  0  0  0  0  0  0  0  0  0  0
  1  7  1  0  0  0  0
  2  8  1  0  0  0  0
  2  1  2  0  0  0  0
  3  2  1  0  0  0  0
  4  3  2  0  0  0  0
  4  5  1  0  0  0  0
  5  6  2  0  0  0  0
  6  1  1  0  0  0  0
  6 11  1  0  0  0  0
  9  4  1  0  0  0  0
 10  5  1  0  0  0  0
 11 13  2  0  0  0  0
 12 11  2  0  0  0  0
 15 14  3  0  0  0  0
 16 22  1  0  0  0  0
 17 16  1  0  0  0  0
 17 23  1  0  0  0  0
 18 17  2  0  0  0  0
 19 20  2  0  0  0  0
 19 18  1  0  0  0  0
 20 21  1  0  0  0  0
 21 26  1  0  0  0  0
 21 16  2  0  0  0  0
 24 19  1  0  0  0  0
 25 20  1  0  0  0  0
 26 28  2  0  0  0  0
 27 26  1  0  0  0  0
 27  3  1  0  0  0  0
 29 26  2  0  0  0  0
 30 18  1  0  0  0  0
 30 33  1  0  0  0  0
 31 30  1  0  0  0  0
 32 30  1  0  0  0  0
M  END
