Coordinates from ORCA-job 4-NO2-Ph-N2-OTs-B3LYPG-6-31G_dp-MTMO-d009-169-n800
 OpenBabel09051908313D

 33 33  0  0  0  0  0  0  0  0999 V2000
   -0.1011    0.9605   -1.0356 C   0  0  0  0  0  0  0  0  0  0  0  0
    0.3644    0.2470   -2.1353 C   0  0  0  0  0  0  0  0  0  0  0  0
    1.1122    0.9127   -3.1122 C   0  0  0  0  0  0  0  0  0  0  0  0
    1.3919    2.2789   -3.0108 C   0  0  0  0  0  0  0  0  0  0  0  0
    0.9208    2.9955   -1.9158 C   0  0  0  0  0  0  0  0  0  0  0  0
    0.1843    2.3225   -0.9419 C   0  0  0  0  0  0  0  0  0  0  0  0
   -0.6828    0.4839   -0.2565 H   0  0  0  0  0  0  0  0  0  0  0  0
    0.1613   -0.8108   -2.2437 H   0  0  0  0  0  0  0  0  0  0  0  0
    1.9660    2.7613   -3.7941 H   0  0  0  0  0  0  0  0  0  0  0  0
    1.1147    4.0543   -1.8009 H   0  0  0  0  0  0  0  0  0  0  0  0
   -0.3084    3.0755    0.2211 N   0  0  0  0  0  0  0  0  0  0  0  0
   -0.0366    4.2746    0.2802 O   0  0  0  0  0  0  0  0  0  0  0  0
   -0.9595    2.4610    1.0649 O   0  0  0  0  0  0  0  0  0  0  0  0
    4.8781   -1.5463   -8.5121 N   0  0  0  0  0  0  0  0  0  0  0  0
    4.6402   -2.5026   -9.0122 N   0  0  0  0  0  0  0  0  0  0  0  0
    4.7209    0.3957   -2.7630 C   0  0  0  0  0  0  0  0  0  0  0  0
    5.8615    1.1905   -2.6770 C   0  0  0  0  0  0  0  0  0  0  0  0
    6.5088    1.6598   -3.8297 C   0  0  0  0  0  0  0  0  0  0  0  0
    5.9831    1.3111   -5.0832 C   0  0  0  0  0  0  0  0  0  0  0  0
    4.8427    0.5200   -5.1943 C   0  0  0  0  0  0  0  0  0  0  0  0
    4.2206    0.0716   -4.0265 C   0  0  0  0  0  0  0  0  0  0  0  0
    4.2327    0.0197   -1.8711 H   0  0  0  0  0  0  0  0  0  0  0  0
    6.2570    1.4478   -1.6984 H   0  0  0  0  0  0  0  0  0  0  0  0
    6.4760    1.6610   -5.9858 H   0  0  0  0  0  0  0  0  0  0  0  0
    4.4500    0.2389   -6.1650 H   0  0  0  0  0  0  0  0  0  0  0  0
    2.7479   -0.9184   -4.1565 S   0  0  0  0  0  0  0  0  0  0  0  0
    1.5359    0.2524   -4.2575 O   0  0  0  0  0  0  0  0  0  0  0  0
    2.5570   -1.6626   -2.9160 O   0  0  0  0  0  0  0  0  0  0  0  0
    2.6892   -1.5494   -5.4642 O   0  0  0  0  0  0  0  0  0  0  0  0
    7.7618    2.4933   -3.7241 C   0  0  0  0  0  0  0  0  0  0  0  0
    7.8846    3.1442   -4.5942 H   0  0  0  0  0  0  0  0  0  0  0  0
    7.7529    3.1180   -2.8263 H   0  0  0  0  0  0  0  0  0  0  0  0
    8.6504    1.8529   -3.6667 H   0  0  0  0  0  0  0  0  0  0  0  0
  1  6  1  0  0  0  0
  1  7  1  0  0  0  0
  2  1  2  0  0  0  0
  3  4  2  0  0  0  0
  3  2  1  0  0  0  0
  4  5  1  0  0  0  0
  5 10  1  0  0  0  0
  5  6  2  0  0  0  0
  6 11  1  0  0  0  0
  8  2  1  0  0  0  0
  9  4  1  0  0  0  0
 11 12  2  0  0  0  0
 11 13  2  0  0  0  0
 15 14  3  0  0  0  0
 16 17  1  0  0  0  0
 16 22  1  0  0  0  0
 17 23  1  0  0  0  0
 18 30  1  0  0  0  0
 18 17  2  0  0  0  0
 19 18  1  0  0  0  0
 20 19  2  0  0  0  0
 20 21  1  0  0  0  0
 21 16  2  0  0  0  0
 24 19  1  0  0  0  0
 25 20  1  0  0  0  0
 26 21  1  0  0  0  0
 26 28  2  0  0  0  0
 27 26  1  0  0  0  0
 27  3  1  0  0  0  0
 29 26  2  0  0  0  0
 30 33  1  0  0  0  0
 30 32  1  0  0  0  0
 31 30  1  0  0  0  0
M  END
