Coordinates from ORCA-job 4-NO2-Ph-N2-OTs-B3LYPG-6-31G_dp-MTMO-d009-169-n800
 OpenBabel09051908313D

 33 33  0  0  0  0  0  0  0  0999 V2000
   -0.0601    0.9034   -1.1677 C   0  0  0  0  0  0  0  0  0  0  0  0
    0.4790    0.1294   -2.1902 C   0  0  0  0  0  0  0  0  0  0  0  0
    1.2420    0.7504   -3.1844 C   0  0  0  0  0  0  0  0  0  0  0  0
    1.4660    2.1305   -3.1762 C   0  0  0  0  0  0  0  0  0  0  0  0
    0.9221    2.9069   -2.1585 C   0  0  0  0  0  0  0  0  0  0  0  0
    0.1698    2.2791   -1.1666 C   0  0  0  0  0  0  0  0  0  0  0  0
   -0.6566    0.4629   -0.3787 H   0  0  0  0  0  0  0  0  0  0  0  0
    0.3207   -0.9411   -2.2258 H   0  0  0  0  0  0  0  0  0  0  0  0
    2.0547    2.5763   -3.9701 H   0  0  0  0  0  0  0  0  0  0  0  0
    1.0715    3.9785   -2.1166 H   0  0  0  0  0  0  0  0  0  0  0  0
   -0.4005    3.0959   -0.0849 N   0  0  0  0  0  0  0  0  0  0  0  0
   -0.1756    4.3059   -0.1054 O   0  0  0  0  0  0  0  0  0  0  0  0
   -1.0652    2.5201    0.7754 O   0  0  0  0  0  0  0  0  0  0  0  0
    3.6432   -0.9380   -8.3557 N   0  0  0  0  0  0  0  0  0  0  0  0
    2.9710   -1.6804   -8.8224 N   0  0  0  0  0  0  0  0  0  0  0  0
    4.8595    0.3881   -2.6401 C   0  0  0  0  0  0  0  0  0  0  0  0
    5.9574    1.2420   -2.5590 C   0  0  0  0  0  0  0  0  0  0  0  0
    6.6119    1.6951   -3.7135 C   0  0  0  0  0  0  0  0  0  0  0  0
    6.1381    1.2693   -4.9643 C   0  0  0  0  0  0  0  0  0  0  0  0
    5.0426    0.4172   -5.0710 C   0  0  0  0  0  0  0  0  0  0  0  0
    4.4118   -0.0134   -3.9005 C   0  0  0  0  0  0  0  0  0  0  0  0
    4.3644    0.0264   -1.7461 H   0  0  0  0  0  0  0  0  0  0  0  0
    6.3128    1.5590   -1.5826 H   0  0  0  0  0  0  0  0  0  0  0  0
    6.6373    1.6074   -5.8680 H   0  0  0  0  0  0  0  0  0  0  0  0
    4.6902    0.0784   -6.0388 H   0  0  0  0  0  0  0  0  0  0  0  0
    2.9921   -1.0788   -4.0240 S   0  0  0  0  0  0  0  0  0  0  0  0
    1.7372    0.0244   -4.2587 O   0  0  0  0  0  0  0  0  0  0  0  0
    2.7781   -1.7462   -2.7441 O   0  0  0  0  0  0  0  0  0  0  0  0
    3.0181   -1.7993   -5.2859 O   0  0  0  0  0  0  0  0  0  0  0  0
    7.8191    2.5943   -3.6142 C   0  0  0  0  0  0  0  0  0  0  0  0
    7.8936    3.2613   -4.4780 H   0  0  0  0  0  0  0  0  0  0  0  0
    7.7898    3.2069   -2.7087 H   0  0  0  0  0  0  0  0  0  0  0  0
    8.7421    2.0028   -3.5791 H   0  0  0  0  0  0  0  0  0  0  0  0
  1  6  1  0  0  0  0
  1  7  1  0  0  0  0
  2  1  2  0  0  0  0
  3  4  2  0  0  0  0
  3  2  1  0  0  0  0
  4  5  1  0  0  0  0
  5 10  1  0  0  0  0
  5  6  2  0  0  0  0
  6 11  1  0  0  0  0
  8  2  1  0  0  0  0
  9  4  1  0  0  0  0
 11 13  2  0  0  0  0
 12 11  2  0  0  0  0
 15 14  3  0  0  0  0
 16 17  1  0  0  0  0
 16 22  1  0  0  0  0
 17 23  1  0  0  0  0
 18 30  1  0  0  0  0
 18 17  2  0  0  0  0
 19 18  1  0  0  0  0
 20 19  2  0  0  0  0
 20 21  1  0  0  0  0
 21 16  2  0  0  0  0
 24 19  1  0  0  0  0
 25 20  1  0  0  0  0
 26 21  1  0  0  0  0
 26 28  2  0  0  0  0
 27 26  1  0  0  0  0
 27  3  1  0  0  0  0
 29 26  2  0  0  0  0
 30 33  1  0  0  0  0
 30 32  1  0  0  0  0
 31 30  1  0  0  0  0
M  END
