Coordinates from ORCA-job 4-NO2-Ph-N2-OTs-B3LYPG-6-31G_dp-MTMO-d009-169-n800
 OpenBabel09051908313D

 33 33  0  0  0  0  0  0  0  0999 V2000
    0.1459    1.1659   -0.1654 C   0  0  0  0  0  0  0  0  0  0  0  0
    0.3630    0.1990   -1.1415 C   0  0  0  0  0  0  0  0  0  0  0  0
    0.7366    0.6013   -2.4278 C   0  0  0  0  0  0  0  0  0  0  0  0
    0.8889    1.9525   -2.7534 C   0  0  0  0  0  0  0  0  0  0  0  0
    0.6647    2.9210   -1.7809 C   0  0  0  0  0  0  0  0  0  0  0  0
    0.2994    2.5113   -0.4993 C   0  0  0  0  0  0  0  0  0  0  0  0
   -0.1456    0.8978    0.8420 H   0  0  0  0  0  0  0  0  0  0  0  0
    0.2513   -0.8550   -0.9204 H   0  0  0  0  0  0  0  0  0  0  0  0
    1.1720    2.2252   -3.7636 H   0  0  0  0  0  0  0  0  0  0  0  0
    0.7686    3.9776   -1.9937 H   0  0  0  0  0  0  0  0  0  0  0  0
    0.0665    3.5328    0.5327 N   0  0  0  0  0  0  0  0  0  0  0  0
    0.2132    4.7119    0.2113 O   0  0  0  0  0  0  0  0  0  0  0  0
   -0.2593    3.1471    1.6547 O   0  0  0  0  0  0  0  0  0  0  0  0
   11.3463    1.2411   -7.5379 N   0  0  0  0  0  0  0  0  0  0  0  0
   12.3298    1.0521   -8.0055 N   0  0  0  0  0  0  0  0  0  0  0  0
    4.3956    0.2144   -3.0457 C   0  0  0  0  0  0  0  0  0  0  0  0
    5.4296    1.0343   -3.4961 C   0  0  0  0  0  0  0  0  0  0  0  0
    5.6143    1.2869   -4.8623 C   0  0  0  0  0  0  0  0  0  0  0  0
    4.7312    0.6939   -5.7798 C   0  0  0  0  0  0  0  0  0  0  0  0
    3.6930   -0.1282   -5.3536 C   0  0  0  0  0  0  0  0  0  0  0  0
    3.5352   -0.3581   -3.9834 C   0  0  0  0  0  0  0  0  0  0  0  0
    4.2636    0.0079   -1.9895 H   0  0  0  0  0  0  0  0  0  0  0  0
    6.1054    1.4816   -2.7727 H   0  0  0  0  0  0  0  0  0  0  0  0
    4.8623    0.8769   -6.8431 H   0  0  0  0  0  0  0  0  0  0  0  0
    3.0208   -0.5964   -6.0644 H   0  0  0  0  0  0  0  0  0  0  0  0
    2.1978   -1.3935   -3.4292 S   0  0  0  0  0  0  0  0  0  0  0  0
    0.8906   -0.3276   -3.4473 O   0  0  0  0  0  0  0  0  0  0  0  0
    2.4418   -1.7938   -2.0475 O   0  0  0  0  0  0  0  0  0  0  0  0
    1.8430   -2.3439   -4.4691 O   0  0  0  0  0  0  0  0  0  0  0  0
    6.7515    2.1535   -5.3446 C   0  0  0  0  0  0  0  0  0  0  0  0
    7.5775    1.5388   -5.7228 H   0  0  0  0  0  0  0  0  0  0  0  0
    6.4358    2.8075   -6.1636 H   0  0  0  0  0  0  0  0  0  0  0  0
    7.1479    2.7792   -4.5410 H   0  0  0  0  0  0  0  0  0  0  0  0
  1  7  1  0  0  0  0
  2  8  1  0  0  0  0
  2  1  2  0  0  0  0
  3  2  1  0  0  0  0
  4  3  2  0  0  0  0
  4  5  1  0  0  0  0
  5  6  2  0  0  0  0
  6  1  1  0  0  0  0
  6 11  1  0  0  0  0
  9  4  1  0  0  0  0
 10  5  1  0  0  0  0
 11 13  2  0  0  0  0
 12 11  2  0  0  0  0
 15 14  3  0  0  0  0
 16 22  1  0  0  0  0
 17 16  1  0  0  0  0
 17 23  1  0  0  0  0
 18 17  2  0  0  0  0
 19 20  2  0  0  0  0
 19 18  1  0  0  0  0
 20 21  1  0  0  0  0
 21 26  1  0  0  0  0
 21 16  2  0  0  0  0
 24 19  1  0  0  0  0
 25 20  1  0  0  0  0
 26 28  2  0  0  0  0
 27 26  1  0  0  0  0
 27  3  1  0  0  0  0
 29 26  2  0  0  0  0
 30 18  1  0  0  0  0
 30 33  1  0  0  0  0
 31 30  1  0  0  0  0
 32 30  1  0  0  0  0
M  END
