Coordinates from ORCA-job 4-NO2-Ph-N2-OTs-B3LYPG-6-31G_dp-MTMO-d009-169-n800
 OpenBabel09051908313D

 33 33  0  0  0  0  0  0  0  0999 V2000
   -0.0238    1.2521   -0.5871 C   0  0  0  0  0  0  0  0  0  0  0  0
    0.3465    0.2652   -1.4949 C   0  0  0  0  0  0  0  0  0  0  0  0
    0.9177    0.6418   -2.7152 C   0  0  0  0  0  0  0  0  0  0  0  0
    1.1140    1.9866   -3.0432 C   0  0  0  0  0  0  0  0  0  0  0  0
    0.7355    2.9748   -2.1407 C   0  0  0  0  0  0  0  0  0  0  0  0
    0.1755    2.5909   -0.9229 C   0  0  0  0  0  0  0  0  0  0  0  0
   -0.4680    1.0034    0.3681 H   0  0  0  0  0  0  0  0  0  0  0  0
    0.2044   -0.7841   -1.2698 H   0  0  0  0  0  0  0  0  0  0  0  0
    1.5503    2.2392   -4.0028 H   0  0  0  0  0  0  0  0  0  0  0  0
    0.8675    4.0271   -2.3591 H   0  0  0  0  0  0  0  0  0  0  0  0
   -0.2202    3.6329    0.0362 N   0  0  0  0  0  0  0  0  0  0  0  0
   -0.0320    4.8058   -0.2862 O   0  0  0  0  0  0  0  0  0  0  0  0
   -0.7138    3.2695    1.1030 O   0  0  0  0  0  0  0  0  0  0  0  0
    7.5995    1.4277   -8.6480 N   0  0  0  0  0  0  0  0  0  0  0  0
    8.0397    1.4894   -9.6597 N   0  0  0  0  0  0  0  0  0  0  0  0
    4.6058    0.1832   -2.6552 C   0  0  0  0  0  0  0  0  0  0  0  0
    5.7301    0.9616   -2.9156 C   0  0  0  0  0  0  0  0  0  0  0  0
    6.1910    1.1580   -4.2271 C   0  0  0  0  0  0  0  0  0  0  0  0
    5.4938    0.5509   -5.2820 C   0  0  0  0  0  0  0  0  0  0  0  0
    4.3658   -0.2318   -5.0446 C   0  0  0  0  0  0  0  0  0  0  0  0
    3.9326   -0.4066   -3.7287 C   0  0  0  0  0  0  0  0  0  0  0  0
    4.2607    0.0180   -1.6408 H   0  0  0  0  0  0  0  0  0  0  0  0
    6.2627    1.4193   -2.0867 H   0  0  0  0  0  0  0  0  0  0  0  0
    5.8436    0.6882   -6.3009 H   0  0  0  0  0  0  0  0  0  0  0  0
    3.8365   -0.7130   -5.8595 H   0  0  0  0  0  0  0  0  0  0  0  0
    2.4896   -1.4004   -3.4177 S   0  0  0  0  0  0  0  0  0  0  0  0
    1.2343   -0.3044   -3.6795 O   0  0  0  0  0  0  0  0  0  0  0  0
    2.4701   -1.7904   -2.0116 O   0  0  0  0  0  0  0  0  0  0  0  0
    2.3026   -2.3554   -4.4966 O   0  0  0  0  0  0  0  0  0  0  0  0
    7.4222    1.9912   -4.4881 C   0  0  0  0  0  0  0  0  0  0  0  0
    7.5903    2.1337   -5.5581 H   0  0  0  0  0  0  0  0  0  0  0  0
    7.3395    2.9780   -4.0211 H   0  0  0  0  0  0  0  0  0  0  0  0
    8.3142    1.5121   -4.0686 H   0  0  0  0  0  0  0  0  0  0  0  0
  1  7  1  0  0  0  0
  2  8  1  0  0  0  0
  2  1  2  0  0  0  0
  3  2  1  0  0  0  0
  4  3  2  0  0  0  0
  4  5  1  0  0  0  0
  5  6  2  0  0  0  0
  6  1  1  0  0  0  0
  6 11  1  0  0  0  0
  9  4  1  0  0  0  0
 10  5  1  0  0  0  0
 11 13  2  0  0  0  0
 12 11  2  0  0  0  0
 15 14  3  0  0  0  0
 16 22  1  0  0  0  0
 17 16  1  0  0  0  0
 17 23  1  0  0  0  0
 18 17  2  0  0  0  0
 19 20  2  0  0  0  0
 19 18  1  0  0  0  0
 20 21  1  0  0  0  0
 21 26  1  0  0  0  0
 21 16  2  0  0  0  0
 24 19  1  0  0  0  0
 25 20  1  0  0  0  0
 26 28  2  0  0  0  0
 27 26  1  0  0  0  0
 27  3  1  0  0  0  0
 29 26  2  0  0  0  0
 30 18  1  0  0  0  0
 30 33  1  0  0  0  0
 30 32  1  0  0  0  0
 31 30  1  0  0  0  0
M  END
