Coordinates from ORCA-job 4-NO2-Ph-N2-OTs-B3LYPG-6-31G_dp-MTMO-d009-169-n800
 OpenBabel09051908313D

 33 33  0  0  0  0  0  0  0  0999 V2000
    0.0045    1.2203   -0.3976 C   0  0  0  0  0  0  0  0  0  0  0  0
    0.3277    0.2413   -1.3313 C   0  0  0  0  0  0  0  0  0  0  0  0
    0.8362    0.6280   -2.5758 C   0  0  0  0  0  0  0  0  0  0  0  0
    1.0173    1.9755   -2.9018 C   0  0  0  0  0  0  0  0  0  0  0  0
    0.6862    2.9560   -1.9727 C   0  0  0  0  0  0  0  0  0  0  0  0
    0.1880    2.5618   -0.7316 C   0  0  0  0  0  0  0  0  0  0  0  0
   -0.3913    0.9639    0.5767 H   0  0  0  0  0  0  0  0  0  0  0  0
    0.1961   -0.8099   -1.1082 H   0  0  0  0  0  0  0  0  0  0  0  0
    1.4051    2.2358   -3.8799 H   0  0  0  0  0  0  0  0  0  0  0  0
    0.8082    4.0101   -2.1881 H   0  0  0  0  0  0  0  0  0  0  0  0
   -0.1575    3.5959    0.2553 N   0  0  0  0  0  0  0  0  0  0  0  0
    0.0175    4.7712   -0.0653 O   0  0  0  0  0  0  0  0  0  0  0  0
   -0.5990    3.2236    1.3417 O   0  0  0  0  0  0  0  0  0  0  0  0
    9.0843    1.3891   -8.4100 N   0  0  0  0  0  0  0  0  0  0  0  0
    9.8619    1.3772   -9.1952 N   0  0  0  0  0  0  0  0  0  0  0  0
    4.5328    0.2172   -2.7949 C   0  0  0  0  0  0  0  0  0  0  0  0
    5.6296    1.0009   -3.1471 C   0  0  0  0  0  0  0  0  0  0  0  0
    5.9916    1.1839   -4.4901 C   0  0  0  0  0  0  0  0  0  0  0  0
    5.2273    0.5508   -5.4827 C   0  0  0  0  0  0  0  0  0  0  0  0
    4.1266   -0.2359   -5.1544 C   0  0  0  0  0  0  0  0  0  0  0  0
    3.7893   -0.3928   -3.8074 C   0  0  0  0  0  0  0  0  0  0  0  0
    4.2667    0.0607   -1.7555 H   0  0  0  0  0  0  0  0  0  0  0  0
    6.2190    1.4710   -2.3650 H   0  0  0  0  0  0  0  0  0  0  0  0
    5.5048    0.6687   -6.5265 H   0  0  0  0  0  0  0  0  0  0  0  0
    3.5476   -0.7381   -5.9215 H   0  0  0  0  0  0  0  0  0  0  0  0
    2.3824   -1.3953   -3.3794 S   0  0  0  0  0  0  0  0  0  0  0  0
    1.1021   -0.3117   -3.5616 O   0  0  0  0  0  0  0  0  0  0  0  0
    2.4687   -1.7671   -1.9710 O   0  0  0  0  0  0  0  0  0  0  0  0
    2.1269   -2.3651   -4.4306 O   0  0  0  0  0  0  0  0  0  0  0  0
    7.1667    2.0547   -4.8607 C   0  0  0  0  0  0  0  0  0  0  0  0
    7.6182    1.7392   -5.8051 H   0  0  0  0  0  0  0  0  0  0  0  0
    6.8534    3.0992   -4.9807 H   0  0  0  0  0  0  0  0  0  0  0  0
    7.9395    2.0347   -4.0864 H   0  0  0  0  0  0  0  0  0  0  0  0
  1  7  1  0  0  0  0
  2  8  1  0  0  0  0
  2  1  2  0  0  0  0
  3  2  1  0  0  0  0
  4  3  2  0  0  0  0
  4  5  1  0  0  0  0
  5  6  2  0  0  0  0
  6  1  1  0  0  0  0
  6 11  1  0  0  0  0
  9  4  1  0  0  0  0
 10  5  1  0  0  0  0
 11 13  2  0  0  0  0
 12 11  2  0  0  0  0
 15 14  3  0  0  0  0
 16 22  1  0  0  0  0
 17 16  1  0  0  0  0
 17 23  1  0  0  0  0
 18 17  2  0  0  0  0
 19 20  2  0  0  0  0
 19 18  1  0  0  0  0
 20 21  1  0  0  0  0
 21 26  1  0  0  0  0
 21 16  2  0  0  0  0
 24 19  1  0  0  0  0
 25 20  1  0  0  0  0
 26 28  2  0  0  0  0
 27 26  1  0  0  0  0
 27  3  1  0  0  0  0
 29 26  2  0  0  0  0
 30 18  1  0  0  0  0
 30 33  1  0  0  0  0
 31 30  1  0  0  0  0
 32 30  1  0  0  0  0
M  END
