Coordinates from ORCA-job 4-NO2-Ph-N2-OTs-B3LYPG-6-31G_dp-MTMO-d009-169-n800
 OpenBabel09051908313D

 33 33  0  0  0  0  0  0  0  0999 V2000
   -0.1304    1.5433   -0.1397 C   0  0  0  0  0  0  0  0  0  0  0  0
   -0.0691    0.5423   -1.1037 C   0  0  0  0  0  0  0  0  0  0  0  0
    0.4032    0.8560   -2.3824 C   0  0  0  0  0  0  0  0  0  0  0  0
    0.8043    2.1540   -2.7127 C   0  0  0  0  0  0  0  0  0  0  0  0
    0.7350    3.1580   -1.7529 C   0  0  0  0  0  0  0  0  0  0  0  0
    0.2720    2.8350   -0.4782 C   0  0  0  0  0  0  0  0  0  0  0  0
   -0.4897    1.3434    0.8616 H   0  0  0  0  0  0  0  0  0  0  0  0
   -0.3763   -0.4711   -0.8789 H   0  0  0  0  0  0  0  0  0  0  0  0
    1.1558    2.3604   -3.7172 H   0  0  0  0  0  0  0  0  0  0  0  0
    1.0332    4.1757   -1.9701 H   0  0  0  0  0  0  0  0  0  0  0  0
    0.2036    3.8926    0.5410 N   0  0  0  0  0  0  0  0  0  0  0  0
    0.5594    5.0243    0.2132 O   0  0  0  0  0  0  0  0  0  0  0  0
   -0.2031    3.5819    1.6598 O   0  0  0  0  0  0  0  0  0  0  0  0
   15.2292    3.5992   -9.7464 N   0  0  0  0  0  0  0  0  0  0  0  0
   16.0661    3.6407  -10.4672 N   0  0  0  0  0  0  0  0  0  0  0  0
    3.9216   -0.2351   -2.8143 C   0  0  0  0  0  0  0  0  0  0  0  0
    5.1181    0.3635   -3.2057 C   0  0  0  0  0  0  0  0  0  0  0  0
    5.4272    0.5513   -4.5601 C   0  0  0  0  0  0  0  0  0  0  0  0
    4.5020    0.1223   -5.5258 C   0  0  0  0  0  0  0  0  0  0  0  0
    3.3014   -0.4777   -5.1584 C   0  0  0  0  0  0  0  0  0  0  0  0
    3.0232   -0.6488   -3.7993 C   0  0  0  0  0  0  0  0  0  0  0  0
    3.6903   -0.3930   -1.7668 H   0  0  0  0  0  0  0  0  0  0  0  0
    5.8237    0.6876   -2.4459 H   0  0  0  0  0  0  0  0  0  0  0  0
    4.7280    0.2578   -6.5801 H   0  0  0  0  0  0  0  0  0  0  0  0
    2.5940   -0.8206   -5.9054 H   0  0  0  0  0  0  0  0  0  0  0  0
    1.4818   -1.3982   -3.3201 S   0  0  0  0  0  0  0  0  0  0  0  0
    0.4137   -0.0951   -3.3927 O   0  0  0  0  0  0  0  0  0  0  0  0
    1.5738   -1.8377   -1.9317 O   0  0  0  0  0  0  0  0  0  0  0  0
    0.9976   -2.2610   -4.3839 O   0  0  0  0  0  0  0  0  0  0  0  0
    6.7371    1.1740   -4.9762 C   0  0  0  0  0  0  0  0  0  0  0  0
    7.4731    0.4003   -5.2266 H   0  0  0  0  0  0  0  0  0  0  0  0
    6.6153    1.8047   -5.8619 H   0  0  0  0  0  0  0  0  0  0  0  0
    7.1629    1.7848   -4.1755 H   0  0  0  0  0  0  0  0  0  0  0  0
  1  7  1  0  0  0  0
  2  8  1  0  0  0  0
  2  1  2  0  0  0  0
  3  2  1  0  0  0  0
  4  3  2  0  0  0  0
  4  5  1  0  0  0  0
  5  6  2  0  0  0  0
  6  1  1  0  0  0  0
  6 11  1  0  0  0  0
  9  4  1  0  0  0  0
 10  5  1  0  0  0  0
 11 13  2  0  0  0  0
 12 11  2  0  0  0  0
 15 14  3  0  0  0  0
 16 22  1  0  0  0  0
 17 16  1  0  0  0  0
 17 23  1  0  0  0  0
 18 17  2  0  0  0  0
 19 20  2  0  0  0  0
 19 18  1  0  0  0  0
 20 21  1  0  0  0  0
 21 26  1  0  0  0  0
 21 16  2  0  0  0  0
 24 19  1  0  0  0  0
 25 20  1  0  0  0  0
 26 28  2  0  0  0  0
 27 26  1  0  0  0  0
 27  3  1  0  0  0  0
 29 26  2  0  0  0  0
 30 18  1  0  0  0  0
 30 33  1  0  0  0  0
 31 30  1  0  0  0  0
 32 30  1  0  0  0  0
M  END
