Coordinates from ORCA-job 4-NO2-Ph-N2-OTs-B3LYPG-6-31G_dp-MTMO-d009-169-n800
 OpenBabel09051908313D

 33 33  0  0  0  0  0  0  0  0999 V2000
   -0.1072    1.5438   -0.1509 C   0  0  0  0  0  0  0  0  0  0  0  0
   -0.0448    0.5428   -1.1148 C   0  0  0  0  0  0  0  0  0  0  0  0
    0.4265    0.8572   -2.3938 C   0  0  0  0  0  0  0  0  0  0  0  0
    0.8253    2.1559   -2.7244 C   0  0  0  0  0  0  0  0  0  0  0  0
    0.7548    3.1599   -1.7646 C   0  0  0  0  0  0  0  0  0  0  0  0
    0.2929    2.8361   -0.4896 C   0  0  0  0  0  0  0  0  0  0  0  0
   -0.4656    1.3433    0.8506 H   0  0  0  0  0  0  0  0  0  0  0  0
   -0.3500   -0.4710   -0.8898 H   0  0  0  0  0  0  0  0  0  0  0  0
    1.1759    2.3628   -3.7291 H   0  0  0  0  0  0  0  0  0  0  0  0
    1.0512    4.1780   -1.9820 H   0  0  0  0  0  0  0  0  0  0  0  0
    0.2233    3.8937    0.5296 N   0  0  0  0  0  0  0  0  0  0  0  0
    0.5771    5.0260    0.2015 O   0  0  0  0  0  0  0  0  0  0  0  0
   -0.1826    3.5824    1.6485 O   0  0  0  0  0  0  0  0  0  0  0  0
   14.8762    3.5048   -9.5469 N   0  0  0  0  0  0  0  0  0  0  0  0
   15.7166    3.5526  -10.2632 N   0  0  0  0  0  0  0  0  0  0  0  0
    3.9468   -0.2263   -2.8282 C   0  0  0  0  0  0  0  0  0  0  0  0
    5.1416    0.3749   -3.2207 C   0  0  0  0  0  0  0  0  0  0  0  0
    5.4491    0.5634   -4.5753 C   0  0  0  0  0  0  0  0  0  0  0  0
    4.5239    0.1323   -5.5402 C   0  0  0  0  0  0  0  0  0  0  0  0
    3.3250   -0.4702   -5.1718 C   0  0  0  0  0  0  0  0  0  0  0  0
    3.0484   -0.6420   -3.8124 C   0  0  0  0  0  0  0  0  0  0  0  0
    3.7168   -0.3847   -1.7805 H   0  0  0  0  0  0  0  0  0  0  0  0
    5.8472    0.7005   -2.4616 H   0  0  0  0  0  0  0  0  0  0  0  0
    4.7487    0.2683   -6.5948 H   0  0  0  0  0  0  0  0  0  0  0  0
    2.6177   -0.8147   -5.9181 H   0  0  0  0  0  0  0  0  0  0  0  0
    1.5090   -1.3947   -3.3319 S   0  0  0  0  0  0  0  0  0  0  0  0
    0.4380   -0.0940   -3.4039 O   0  0  0  0  0  0  0  0  0  0  0  0
    1.6031   -1.8336   -1.9435 O   0  0  0  0  0  0  0  0  0  0  0  0
    1.0260   -2.2587   -4.3952 O   0  0  0  0  0  0  0  0  0  0  0  0
    6.7572    1.1890   -4.9927 C   0  0  0  0  0  0  0  0  0  0  0  0
    7.4943    0.4170   -5.2452 H   0  0  0  0  0  0  0  0  0  0  0  0
    6.6329    1.8205   -5.8774 H   0  0  0  0  0  0  0  0  0  0  0  0
    7.1832    1.7996   -4.1920 H   0  0  0  0  0  0  0  0  0  0  0  0
  1  7  1  0  0  0  0
  2  8  1  0  0  0  0
  2  1  2  0  0  0  0
  3  2  1  0  0  0  0
  4  3  2  0  0  0  0
  4  5  1  0  0  0  0
  5  6  2  0  0  0  0
  6  1  1  0  0  0  0
  6 11  1  0  0  0  0
  9  4  1  0  0  0  0
 10  5  1  0  0  0  0
 11 13  2  0  0  0  0
 12 11  2  0  0  0  0
 15 14  3  0  0  0  0
 16 22  1  0  0  0  0
 17 16  1  0  0  0  0
 17 23  1  0  0  0  0
 18 17  2  0  0  0  0
 19 20  2  0  0  0  0
 19 18  1  0  0  0  0
 20 21  1  0  0  0  0
 21 26  1  0  0  0  0
 21 16  2  0  0  0  0
 24 19  1  0  0  0  0
 25 20  1  0  0  0  0
 26 28  2  0  0  0  0
 27 26  1  0  0  0  0
 27  3  1  0  0  0  0
 29 26  2  0  0  0  0
 30 18  1  0  0  0  0
 30 33  1  0  0  0  0
 31 30  1  0  0  0  0
 32 30  1  0  0  0  0
M  END
