Coordinates from ORCA-job 4-NO2-Ph-N2-OTs-B3LYPG-6-31G_dp-MTMO-d009-169-n800
 OpenBabel09051908313D

 33 33  0  0  0  0  0  0  0  0999 V2000
    0.0396    0.8456   -1.3454 C   0  0  0  0  0  0  0  0  0  0  0  0
    0.6467   -0.0139   -2.2551 C   0  0  0  0  0  0  0  0  0  0  0  0
    1.3840    0.5259   -3.3141 C   0  0  0  0  0  0  0  0  0  0  0  0
    1.5152    1.9078   -3.4814 C   0  0  0  0  0  0  0  0  0  0  0  0
    0.9022    2.7686   -2.5772 C   0  0  0  0  0  0  0  0  0  0  0  0
    0.1763    2.2226   -1.5194 C   0  0  0  0  0  0  0  0  0  0  0  0
   -0.5397    0.4696   -0.5115 H   0  0  0  0  0  0  0  0  0  0  0  0
    0.5617   -1.0886   -2.1538 H   0  0  0  0  0  0  0  0  0  0  0  0
    2.0865    2.2876   -4.3209 H   0  0  0  0  0  0  0  0  0  0  0  0
    0.9782    3.8446   -2.6729 H   0  0  0  0  0  0  0  0  0  0  0  0
   -0.4668    3.1296   -0.5569 N   0  0  0  0  0  0  0  0  0  0  0  0
   -0.3265    4.3398   -0.7324 O   0  0  0  0  0  0  0  0  0  0  0  0
   -1.1037    2.6238    0.3662 O   0  0  0  0  0  0  0  0  0  0  0  0
    2.2439    0.2406   -7.3784 N   0  0  0  0  0  0  0  0  0  0  0  0
    1.3607   -0.2951   -7.7709 N   0  0  0  0  0  0  0  0  0  0  0  0
    5.0402    0.2749   -2.5268 C   0  0  0  0  0  0  0  0  0  0  0  0
    6.0916    1.1866   -2.4530 C   0  0  0  0  0  0  0  0  0  0  0  0
    6.7007    1.6881   -3.6117 C   0  0  0  0  0  0  0  0  0  0  0  0
    6.2274    1.2544   -4.8606 C   0  0  0  0  0  0  0  0  0  0  0  0
    5.1801    0.3438   -4.9591 C   0  0  0  0  0  0  0  0  0  0  0  0
    4.5953   -0.1371   -3.7840 C   0  0  0  0  0  0  0  0  0  0  0  0
    4.5777   -0.1223   -1.6305 H   0  0  0  0  0  0  0  0  0  0  0  0
    6.4455    1.5113   -1.4786 H   0  0  0  0  0  0  0  0  0  0  0  0
    6.6889    1.6335   -5.7680 H   0  0  0  0  0  0  0  0  0  0  0  0
    4.8221    0.0057   -5.9251 H   0  0  0  0  0  0  0  0  0  0  0  0
    3.2482   -1.2944   -3.8980 S   0  0  0  0  0  0  0  0  0  0  0  0
    1.9455   -0.2942   -4.2821 O   0  0  0  0  0  0  0  0  0  0  0  0
    3.0056   -1.8784   -2.5830 O   0  0  0  0  0  0  0  0  0  0  0  0
    3.3807   -2.1009   -5.0992 O   0  0  0  0  0  0  0  0  0  0  0  0
    7.8597    2.6494   -3.5218 C   0  0  0  0  0  0  0  0  0  0  0  0
    7.8647    3.3502   -4.3619 H   0  0  0  0  0  0  0  0  0  0  0  0
    7.8316    3.2263   -2.5934 H   0  0  0  0  0  0  0  0  0  0  0  0
    8.8143    2.1095   -3.5432 H   0  0  0  0  0  0  0  0  0  0  0  0
  1  7  1  0  0  0  0
  2  8  1  0  0  0  0
  2  1  2  0  0  0  0
  3  2  1  0  0  0  0
  4  3  2  0  0  0  0
  4  5  1  0  0  0  0
  5  6  2  0  0  0  0
  6  1  1  0  0  0  0
  6 11  1  0  0  0  0
  9  4  1  0  0  0  0
 10  5  1  0  0  0  0
 11 13  2  0  0  0  0
 12 11  2  0  0  0  0
 15 14  3  0  0  0  0
 16 17  1  0  0  0  0
 16 22  1  0  0  0  0
 17 23  1  0  0  0  0
 18 30  1  0  0  0  0
 18 17  2  0  0  0  0
 19 18  1  0  0  0  0
 20 19  2  0  0  0  0
 20 21  1  0  0  0  0
 21 16  2  0  0  0  0
 24 19  1  0  0  0  0
 25 20  1  0  0  0  0
 26 21  1  0  0  0  0
 26 28  2  0  0  0  0
 27 26  1  0  0  0  0
 27  3  1  0  0  0  0
 29 26  2  0  0  0  0
 30 32  1  0  0  0  0
 31 30  1  0  0  0  0
 33 30  1  0  0  0  0
M  END
