Coordinates from ORCA-job 4-NO2-Ph-N2-OTs-B3LYPG-6-31G_dp-MTMO-d009-169-n800
 OpenBabel09051908313D

 33 33  0  0  0  0  0  0  0  0999 V2000
    0.0287    0.8196   -1.7075 C   0  0  0  0  0  0  0  0  0  0  0  0
    0.7073    0.0008   -2.6044 C   0  0  0  0  0  0  0  0  0  0  0  0
    1.5537    0.5835   -3.5528 C   0  0  0  0  0  0  0  0  0  0  0  0
    1.7261    1.9688   -3.6220 C   0  0  0  0  0  0  0  0  0  0  0  0
    1.0433    2.7897   -2.7312 C   0  0  0  0  0  0  0  0  0  0  0  0
    0.2072    2.2008   -1.7836 C   0  0  0  0  0  0  0  0  0  0  0  0
   -0.6359    0.4093   -0.9577 H   0  0  0  0  0  0  0  0  0  0  0  0
    0.5946   -1.0758   -2.5755 H   0  0  0  0  0  0  0  0  0  0  0  0
    2.3830    2.3843   -4.3778 H   0  0  0  0  0  0  0  0  0  0  0  0
    1.1480    3.8673   -2.7538 H   0  0  0  0  0  0  0  0  0  0  0  0
   -0.5103    3.0653   -0.8348 N   0  0  0  0  0  0  0  0  0  0  0  0
   -0.3279    4.2797   -0.9201 O   0  0  0  0  0  0  0  0  0  0  0  0
   -1.2470    2.5228   -0.0123 O   0  0  0  0  0  0  0  0  0  0  0  0
   -0.3560    0.2438   -6.1766 N   0  0  0  0  0  0  0  0  0  0  0  0
   -0.6828   -0.6267   -6.7741 N   0  0  0  0  0  0  0  0  0  0  0  0
    5.1093    0.3429   -2.5202 C   0  0  0  0  0  0  0  0  0  0  0  0
    6.1655    1.2366   -2.3524 C   0  0  0  0  0  0  0  0  0  0  0  0
    6.9164    1.6882   -3.4469 C   0  0  0  0  0  0  0  0  0  0  0  0
    6.5827    1.2213   -4.7286 C   0  0  0  0  0  0  0  0  0  0  0  0
    5.5325    0.3288   -4.9201 C   0  0  0  0  0  0  0  0  0  0  0  0
    4.8032   -0.1010   -3.8078 C   0  0  0  0  0  0  0  0  0  0  0  0
    4.5392   -0.0166   -1.6713 H   0  0  0  0  0  0  0  0  0  0  0  0
    6.4115    1.5863   -1.3537 H   0  0  0  0  0  0  0  0  0  0  0  0
    7.1567    1.5592   -5.5869 H   0  0  0  0  0  0  0  0  0  0  0  0
    5.2847   -0.0411   -5.9089 H   0  0  0  0  0  0  0  0  0  0  0  0
    3.4475   -1.2287   -4.0469 S   0  0  0  0  0  0  0  0  0  0  0  0
    2.1970   -0.1942   -4.5058 O   0  0  0  0  0  0  0  0  0  0  0  0
    3.0941   -1.8319   -2.7662 O   0  0  0  0  0  0  0  0  0  0  0  0
    3.6609   -2.0144   -5.2503 O   0  0  0  0  0  0  0  0  0  0  0  0
    8.0782    2.6309   -3.2515 C   0  0  0  0  0  0  0  0  0  0  0  0
    8.1865    3.3139   -4.0993 H   0  0  0  0  0  0  0  0  0  0  0  0
    7.9617    3.2272   -2.3426 H   0  0  0  0  0  0  0  0  0  0  0  0
    9.0189    2.0742   -3.1607 H   0  0  0  0  0  0  0  0  0  0  0  0
  1  7  1  0  0  0  0
  2  8  1  0  0  0  0
  2  1  2  0  0  0  0
  3  2  1  0  0  0  0
  4  3  2  0  0  0  0
  4  5  1  0  0  0  0
  5  6  2  0  0  0  0
  6  1  1  0  0  0  0
  6 11  1  0  0  0  0
  9  4  1  0  0  0  0
 10  5  1  0  0  0  0
 11 13  2  0  0  0  0
 12 11  2  0  0  0  0
 15 14  3  0  0  0  0
 16 17  1  0  0  0  0
 16 22  1  0  0  0  0
 17 23  1  0  0  0  0
 18 30  1  0  0  0  0
 18 17  2  0  0  0  0
 19 18  1  0  0  0  0
 20 19  2  0  0  0  0
 20 21  1  0  0  0  0
 21 16  2  0  0  0  0
 24 19  1  0  0  0  0
 25 20  1  0  0  0  0
 26 21  1  0  0  0  0
 26 28  2  0  0  0  0
 27 26  1  0  0  0  0
 27  3  1  0  0  0  0
 29 26  2  0  0  0  0
 30 33  1  0  0  0  0
 30 32  1  0  0  0  0
 31 30  1  0  0  0  0
M  END
