Coordinates from ORCA-job 4-NO2-Ph-N2-OTs-B3LYPG-6-31G_dp-MTMO-d009-169-n800
 OpenBabel09051908313D

 33 33  0  0  0  0  0  0  0  0999 V2000
    0.1682    1.1490   -0.1806 C   0  0  0  0  0  0  0  0  0  0  0  0
    0.4030    0.1912   -1.1615 C   0  0  0  0  0  0  0  0  0  0  0  0
    0.7786    0.6066   -2.4432 C   0  0  0  0  0  0  0  0  0  0  0  0
    0.9153    1.9617   -2.7592 C   0  0  0  0  0  0  0  0  0  0  0  0
    0.6730    2.9210   -1.7818 C   0  0  0  0  0  0  0  0  0  0  0  0
    0.3061    2.4984   -0.5049 C   0  0  0  0  0  0  0  0  0  0  0  0
   -0.1252    0.8706    0.8235 H   0  0  0  0  0  0  0  0  0  0  0  0
    0.3038   -0.8655   -0.9476 H   0  0  0  0  0  0  0  0  0  0  0  0
    1.2000    2.2447   -3.7661 H   0  0  0  0  0  0  0  0  0  0  0  0
    0.7642    3.9802   -1.9875 H   0  0  0  0  0  0  0  0  0  0  0  0
    0.0543    3.5101    0.5323 N   0  0  0  0  0  0  0  0  0  0  0  0
    0.1871    4.6930    0.2191 O   0  0  0  0  0  0  0  0  0  0  0  0
   -0.2723    3.1129    1.6500 O   0  0  0  0  0  0  0  0  0  0  0  0
   10.6861    1.1371   -7.2222 N   0  0  0  0  0  0  0  0  0  0  0  0
   11.6753    0.9395   -7.6737 N   0  0  0  0  0  0  0  0  0  0  0  0
    4.4561    0.2446   -3.0743 C   0  0  0  0  0  0  0  0  0  0  0  0
    5.4904    1.0611   -3.5303 C   0  0  0  0  0  0  0  0  0  0  0  0
    5.6766    1.3030   -4.8984 C   0  0  0  0  0  0  0  0  0  0  0  0
    4.7939    0.7030   -5.8117 C   0  0  0  0  0  0  0  0  0  0  0  0
    3.7554   -0.1159   -5.3799 C   0  0  0  0  0  0  0  0  0  0  0  0
    3.5964   -0.3353   -4.0081 C   0  0  0  0  0  0  0  0  0  0  0  0
    4.3239    0.0459   -2.0166 H   0  0  0  0  0  0  0  0  0  0  0  0
    6.1657    1.5140   -2.8099 H   0  0  0  0  0  0  0  0  0  0  0  0
    4.9257    0.8776   -6.8763 H   0  0  0  0  0  0  0  0  0  0  0  0
    3.0842   -0.5901   -6.0876 H   0  0  0  0  0  0  0  0  0  0  0  0
    2.2628   -1.3724   -3.4474 S   0  0  0  0  0  0  0  0  0  0  0  0
    0.9502   -0.3128   -3.4685 O   0  0  0  0  0  0  0  0  0  0  0  0
    2.5101   -1.7657   -2.0642 O   0  0  0  0  0  0  0  0  0  0  0  0
    1.9113   -2.3288   -4.4829 O   0  0  0  0  0  0  0  0  0  0  0  0
    6.8132    2.1674   -5.3866 C   0  0  0  0  0  0  0  0  0  0  0  0
    7.6378    1.5534   -5.7689 H   0  0  0  0  0  0  0  0  0  0  0  0
    6.4938    2.8215   -6.2041 H   0  0  0  0  0  0  0  0  0  0  0  0
    7.2132    2.7936   -4.5851 H   0  0  0  0  0  0  0  0  0  0  0  0
  1  7  1  0  0  0  0
  2  8  1  0  0  0  0
  2  1  2  0  0  0  0
  3  2  1  0  0  0  0
  4  3  2  0  0  0  0
  4  5  1  0  0  0  0
  5  6  2  0  0  0  0
  6  1  1  0  0  0  0
  6 11  1  0  0  0  0
  9  4  1  0  0  0  0
 10  5  1  0  0  0  0
 11 13  2  0  0  0  0
 12 11  2  0  0  0  0
 15 14  3  0  0  0  0
 16 22  1  0  0  0  0
 17 16  1  0  0  0  0
 17 23  1  0  0  0  0
 18 17  2  0  0  0  0
 19 20  2  0  0  0  0
 19 18  1  0  0  0  0
 20 21  1  0  0  0  0
 21 26  1  0  0  0  0
 21 16  2  0  0  0  0
 24 19  1  0  0  0  0
 25 20  1  0  0  0  0
 26 28  2  0  0  0  0
 27 26  1  0  0  0  0
 27  3  1  0  0  0  0
 29 26  2  0  0  0  0
 30 18  1  0  0  0  0
 30 33  1  0  0  0  0
 31 30  1  0  0  0  0
 32 30  1  0  0  0  0
M  END
