Coordinates from ORCA-job 4-NO2-Ph-N2-OTs-B3LYPG-6-31G_dp-MTMO-d009-169-n800
 OpenBabel09051908313D

 33 33  0  0  0  0  0  0  0  0999 V2000
    0.1030    1.1739   -0.1354 C   0  0  0  0  0  0  0  0  0  0  0  0
    0.3094    0.2023   -1.1091 C   0  0  0  0  0  0  0  0  0  0  0  0
    0.6790    0.5978   -2.3987 C   0  0  0  0  0  0  0  0  0  0  0  0
    0.8379    1.9468   -2.7299 C   0  0  0  0  0  0  0  0  0  0  0  0
    0.6245    2.9201   -1.7597 C   0  0  0  0  0  0  0  0  0  0  0  0
    0.2631    2.5171   -0.4749 C   0  0  0  0  0  0  0  0  0  0  0  0
   -0.1851    0.9112    0.8744 H   0  0  0  0  0  0  0  0  0  0  0  0
    0.1924   -0.8503   -0.8839 H   0  0  0  0  0  0  0  0  0  0  0  0
    1.1177    2.2142   -3.7424 H   0  0  0  0  0  0  0  0  0  0  0  0
    0.7339    3.9753   -1.9767 H   0  0  0  0  0  0  0  0  0  0  0  0
    0.0416    3.5438    0.5546 N   0  0  0  0  0  0  0  0  0  0  0  0
    0.1940    4.7207    0.2283 O   0  0  0  0  0  0  0  0  0  0  0  0
   -0.2810    3.1641    1.6795 O   0  0  0  0  0  0  0  0  0  0  0  0
   12.2710    1.3045   -7.9566 N   0  0  0  0  0  0  0  0  0  0  0  0
   13.2321    1.0959   -8.4611 N   0  0  0  0  0  0  0  0  0  0  0  0
    4.3280    0.1987   -3.0165 C   0  0  0  0  0  0  0  0  0  0  0  0
    5.3606    1.0208   -3.4657 C   0  0  0  0  0  0  0  0  0  0  0  0
    5.5413    1.2798   -4.8313 C   0  0  0  0  0  0  0  0  0  0  0  0
    4.6561    0.6908   -5.7493 C   0  0  0  0  0  0  0  0  0  0  0  0
    3.6193   -0.1336   -5.3241 C   0  0  0  0  0  0  0  0  0  0  0  0
    3.4652   -0.3697   -3.9546 C   0  0  0  0  0  0  0  0  0  0  0  0
    4.1985   -0.0124   -1.9609 H   0  0  0  0  0  0  0  0  0  0  0  0
    6.0381    1.4651   -2.7422 H   0  0  0  0  0  0  0  0  0  0  0  0
    4.7844    0.8789   -6.8120 H   0  0  0  0  0  0  0  0  0  0  0  0
    2.9452   -0.5985   -6.0352 H   0  0  0  0  0  0  0  0  0  0  0  0
    2.1272   -1.4047   -3.4013 S   0  0  0  0  0  0  0  0  0  0  0  0
    0.8224   -0.3360   -3.4153 O   0  0  0  0  0  0  0  0  0  0  0  0
    2.3724   -1.8085   -2.0207 O   0  0  0  0  0  0  0  0  0  0  0  0
    1.7691   -2.3521   -4.4427 O   0  0  0  0  0  0  0  0  0  0  0  0
    6.6776    2.1483   -5.3123 C   0  0  0  0  0  0  0  0  0  0  0  0
    7.5081    1.5339   -5.6808 H   0  0  0  0  0  0  0  0  0  0  0  0
    6.3646    2.7956   -6.1376 H   0  0  0  0  0  0  0  0  0  0  0  0
    7.0667    2.7807   -4.5102 H   0  0  0  0  0  0  0  0  0  0  0  0
  1  7  1  0  0  0  0
  2  8  1  0  0  0  0
  2  1  2  0  0  0  0
  3  2  1  0  0  0  0
  4  3  2  0  0  0  0
  4  5  1  0  0  0  0
  5  6  2  0  0  0  0
  6  1  1  0  0  0  0
  6 11  1  0  0  0  0
  9  4  1  0  0  0  0
 10  5  1  0  0  0  0
 11 13  2  0  0  0  0
 12 11  2  0  0  0  0
 15 14  3  0  0  0  0
 16 22  1  0  0  0  0
 17 16  1  0  0  0  0
 17 23  1  0  0  0  0
 18 17  2  0  0  0  0
 19 20  2  0  0  0  0
 19 18  1  0  0  0  0
 20 21  1  0  0  0  0
 21 26  1  0  0  0  0
 21 16  2  0  0  0  0
 24 19  1  0  0  0  0
 25 20  1  0  0  0  0
 26 28  2  0  0  0  0
 27 26  1  0  0  0  0
 27  3  1  0  0  0  0
 29 26  2  0  0  0  0
 30 18  1  0  0  0  0
 30 33  1  0  0  0  0
 31 30  1  0  0  0  0
 32 30  1  0  0  0  0
M  END
