Coordinates from ORCA-job 4-NO2-Ph-N2-OTs-B3LYPG-6-31G_dp-MTMO-d009-169-n800
 OpenBabel09051908313D

 33 33  0  0  0  0  0  0  0  0999 V2000
    0.0959    1.1751   -0.1314 C   0  0  0  0  0  0  0  0  0  0  0  0
    0.3014    0.2032   -1.1050 C   0  0  0  0  0  0  0  0  0  0  0  0
    0.6712    0.5983   -2.3947 C   0  0  0  0  0  0  0  0  0  0  0  0
    0.8313    1.9471   -2.7259 C   0  0  0  0  0  0  0  0  0  0  0  0
    0.6189    2.9207   -1.7559 C   0  0  0  0  0  0  0  0  0  0  0  0
    0.2572    2.5182   -0.4710 C   0  0  0  0  0  0  0  0  0  0  0  0
   -0.1924    0.9127    0.8784 H   0  0  0  0  0  0  0  0  0  0  0  0
    0.1835   -0.8492   -0.8797 H   0  0  0  0  0  0  0  0  0  0  0  0
    1.1113    2.2142   -3.7385 H   0  0  0  0  0  0  0  0  0  0  0  0
    0.7292    3.9757   -1.9730 H   0  0  0  0  0  0  0  0  0  0  0  0
    0.0366    3.5451    0.5584 N   0  0  0  0  0  0  0  0  0  0  0  0
    0.1900    4.7218    0.2320 O   0  0  0  0  0  0  0  0  0  0  0  0
   -0.2863    3.1658    1.6834 O   0  0  0  0  0  0  0  0  0  0  0  0
   12.3896    1.3144   -8.0127 N   0  0  0  0  0  0  0  0  0  0  0  0
   13.3489    1.1058   -8.5203 N   0  0  0  0  0  0  0  0  0  0  0  0
    4.3197    0.1968   -3.0129 C   0  0  0  0  0  0  0  0  0  0  0  0
    5.3526    1.0185   -3.4624 C   0  0  0  0  0  0  0  0  0  0  0  0
    5.5332    1.2775   -4.8280 C   0  0  0  0  0  0  0  0  0  0  0  0
    4.6474    0.6890   -5.7458 C   0  0  0  0  0  0  0  0  0  0  0  0
    3.6103   -0.1349   -5.3204 C   0  0  0  0  0  0  0  0  0  0  0  0
    3.4564   -0.3710   -3.9508 C   0  0  0  0  0  0  0  0  0  0  0  0
    4.1905   -0.0142   -1.9573 H   0  0  0  0  0  0  0  0  0  0  0  0
    6.0306    1.4625   -2.7390 H   0  0  0  0  0  0  0  0  0  0  0  0
    4.7755    0.8771   -6.8085 H   0  0  0  0  0  0  0  0  0  0  0  0
    2.9357   -0.5994   -6.0313 H   0  0  0  0  0  0  0  0  0  0  0  0
    2.1180   -1.4053   -3.3972 S   0  0  0  0  0  0  0  0  0  0  0  0
    0.8138   -0.3358   -3.4111 O   0  0  0  0  0  0  0  0  0  0  0  0
    2.3631   -1.8091   -2.0167 O   0  0  0  0  0  0  0  0  0  0  0  0
    1.7591   -2.3525   -4.4385 O   0  0  0  0  0  0  0  0  0  0  0  0
    6.6697    2.1455   -5.3092 C   0  0  0  0  0  0  0  0  0  0  0  0
    7.5003    1.5306   -5.6768 H   0  0  0  0  0  0  0  0  0  0  0  0
    6.3572    2.7922   -6.1351 H   0  0  0  0  0  0  0  0  0  0  0  0
    7.0586    2.7784   -4.5075 H   0  0  0  0  0  0  0  0  0  0  0  0
  1  7  1  0  0  0  0
  2  8  1  0  0  0  0
  2  1  2  0  0  0  0
  3  2  1  0  0  0  0
  4  3  2  0  0  0  0
  4  5  1  0  0  0  0
  5  6  2  0  0  0  0
  6  1  1  0  0  0  0
  6 11  1  0  0  0  0
  9  4  1  0  0  0  0
 10  5  1  0  0  0  0
 11 13  2  0  0  0  0
 12 11  2  0  0  0  0
 15 14  3  0  0  0  0
 16 22  1  0  0  0  0
 17 16  1  0  0  0  0
 17 23  1  0  0  0  0
 18 17  2  0  0  0  0
 19 20  2  0  0  0  0
 19 18  1  0  0  0  0
 20 21  1  0  0  0  0
 21 26  1  0  0  0  0
 21 16  2  0  0  0  0
 24 19  1  0  0  0  0
 25 20  1  0  0  0  0
 26 28  2  0  0  0  0
 27 26  1  0  0  0  0
 27  3  1  0  0  0  0
 29 26  2  0  0  0  0
 30 18  1  0  0  0  0
 30 33  1  0  0  0  0
 31 30  1  0  0  0  0
 32 30  1  0  0  0  0
M  END
