Coordinates from ORCA-job 4-NO2-Ph-N2-OTs-B3LYPG-6-31G_dp-MTMO-d009-169-n800
 OpenBabel09051908313D

 33 33  0  0  0  0  0  0  0  0999 V2000
   -0.0633    0.9035   -1.1898 C   0  0  0  0  0  0  0  0  0  0  0  0
    0.4835    0.1202   -2.2009 C   0  0  0  0  0  0  0  0  0  0  0  0
    1.2535    0.7319   -3.1954 C   0  0  0  0  0  0  0  0  0  0  0  0
    1.4775    2.1119   -3.1985 C   0  0  0  0  0  0  0  0  0  0  0  0
    0.9261    2.8977   -2.1921 C   0  0  0  0  0  0  0  0  0  0  0  0
    0.1665    2.2792   -1.2000 C   0  0  0  0  0  0  0  0  0  0  0  0
   -0.6656    0.4705   -0.4009 H   0  0  0  0  0  0  0  0  0  0  0  0
    0.3260   -0.9507   -2.2275 H   0  0  0  0  0  0  0  0  0  0  0  0
    2.0721    2.5504   -3.9921 H   0  0  0  0  0  0  0  0  0  0  0  0
    1.0753    3.9696   -2.1592 H   0  0  0  0  0  0  0  0  0  0  0  0
   -0.4119    3.1062   -0.1304 N   0  0  0  0  0  0  0  0  0  0  0  0
   -0.1873    4.3160   -0.1607 O   0  0  0  0  0  0  0  0  0  0  0  0
   -1.0827    2.5384    0.7306 O   0  0  0  0  0  0  0  0  0  0  0  0
    3.5206   -0.8697   -8.2951 N   0  0  0  0  0  0  0  0  0  0  0  0
    2.8508   -1.6156   -8.7595 N   0  0  0  0  0  0  0  0  0  0  0  0
    4.8993    0.3539   -2.6237 C   0  0  0  0  0  0  0  0  0  0  0  0
    5.9935    1.2129   -2.5454 C   0  0  0  0  0  0  0  0  0  0  0  0
    6.6210    1.6969   -3.7022 C   0  0  0  0  0  0  0  0  0  0  0  0
    6.1234    1.2978   -4.9527 C   0  0  0  0  0  0  0  0  0  0  0  0
    5.0317    0.4406   -5.0565 C   0  0  0  0  0  0  0  0  0  0  0  0
    4.4286   -0.0220   -3.8835 C   0  0  0  0  0  0  0  0  0  0  0  0
    4.4237   -0.0310   -1.7288 H   0  0  0  0  0  0  0  0  0  0  0  0
    6.3668    1.5099   -1.5694 H   0  0  0  0  0  0  0  0  0  0  0  0
    6.6006    1.6613   -5.8584 H   0  0  0  0  0  0  0  0  0  0  0  0
    4.6588    0.1256   -6.0248 H   0  0  0  0  0  0  0  0  0  0  0  0
    3.0163   -1.0979   -4.0028 S   0  0  0  0  0  0  0  0  0  0  0  0
    1.7565   -0.0055   -4.2582 O   0  0  0  0  0  0  0  0  0  0  0  0
    2.7997   -1.7520   -2.7165 O   0  0  0  0  0  0  0  0  0  0  0  0
    3.0536   -1.8329   -5.2560 O   0  0  0  0  0  0  0  0  0  0  0  0
    7.8246    2.6014   -3.6068 C   0  0  0  0  0  0  0  0  0  0  0  0
    7.8822    3.2826   -4.4607 H   0  0  0  0  0  0  0  0  0  0  0  0
    7.8057    3.1991   -2.6912 H   0  0  0  0  0  0  0  0  0  0  0  0
    8.7513    2.0147   -3.5952 H   0  0  0  0  0  0  0  0  0  0  0  0
  1  7  1  0  0  0  0
  2  1  2  0  0  0  0
  3  2  1  0  0  0  0
  4  3  2  0  0  0  0
  4  5  1  0  0  0  0
  5 10  1  0  0  0  0
  5  6  2  0  0  0  0
  6  1  1  0  0  0  0
  6 11  1  0  0  0  0
  8  2  1  0  0  0  0
  9  4  1  0  0  0  0
 11 13  2  0  0  0  0
 12 11  2  0  0  0  0
 15 14  3  0  0  0  0
 16 17  1  0  0  0  0
 16 22  1  0  0  0  0
 17 23  1  0  0  0  0
 18 30  1  0  0  0  0
 18 17  2  0  0  0  0
 19 18  1  0  0  0  0
 20 19  2  0  0  0  0
 20 21  1  0  0  0  0
 21 16  2  0  0  0  0
 24 19  1  0  0  0  0
 25 20  1  0  0  0  0
 26 21  1  0  0  0  0
 26 28  2  0  0  0  0
 27 26  1  0  0  0  0
 27  3  1  0  0  0  0
 29 26  2  0  0  0  0
 30 33  1  0  0  0  0
 30 32  1  0  0  0  0
 31 30  1  0  0  0  0
M  END
