Coordinates from ORCA-job 4-NO2-Ph-N2-OTs-B3LYPG-6-31G_dp-MTMO-d009-169-n800
 OpenBabel09051908313D

 33 33  0  0  0  0  0  0  0  0999 V2000
   -1.0719    1.2500   -1.6658 C   0  0  0  0  0  0  0  0  0  0  0  0
   -0.0623    0.4159   -2.1524 C   0  0  0  0  0  0  0  0  0  0  0  0
    0.4349    0.7274   -3.4004 C   0  0  0  0  0  0  0  0  0  0  0  0
    0.0210    1.7528   -4.2212 C   0  0  0  0  0  0  0  0  0  0  0  0
   -0.9846    2.5845   -3.7196 C   0  0  0  0  0  0  0  0  0  0  0  0
   -1.5085    2.3141   -2.4562 C   0  0  0  0  0  0  0  0  0  0  0  0
   -1.5161    1.0906   -0.6912 H   0  0  0  0  0  0  0  0  0  0  0  0
    0.3191   -0.4129   -1.5698 H   0  0  0  0  0  0  0  0  0  0  0  0
    0.4495    1.9085   -5.2039 H   0  0  0  0  0  0  0  0  0  0  0  0
   -1.3683    3.4218   -4.2889 H   0  0  0  0  0  0  0  0  0  0  0  0
   -2.5758    3.1884   -1.9350 N   0  0  0  0  0  0  0  0  0  0  0  0
   -2.9372    4.1264   -2.6431 O   0  0  0  0  0  0  0  0  0  0  0  0
   -3.0366    2.9226   -0.8271 O   0  0  0  0  0  0  0  0  0  0  0  0
    1.7049   -0.4838   -4.2303 N   0  0  0  0  0  0  0  0  0  0  0  0
    2.7696   -0.6092   -3.7169 N   0  0  0  0  0  0  0  0  0  0  0  0
    6.1249    1.6710   -2.7268 C   0  0  0  0  0  0  0  0  0  0  0  0
    7.1466    2.0394   -3.5973 C   0  0  0  0  0  0  0  0  0  0  0  0
    7.7164    1.1113   -4.4828 C   0  0  0  0  0  0  0  0  0  0  0  0
    7.2330   -0.2049   -4.4771 C   0  0  0  0  0  0  0  0  0  0  0  0
    6.2114   -0.5953   -3.6139 C   0  0  0  0  0  0  0  0  0  0  0  0
    5.6651    0.3520   -2.7471 C   0  0  0  0  0  0  0  0  0  0  0  0
    5.6948    2.3845   -2.0325 H   0  0  0  0  0  0  0  0  0  0  0  0
    7.5125    3.0625   -3.5865 H   0  0  0  0  0  0  0  0  0  0  0  0
    7.6651   -0.9362   -5.1547 H   0  0  0  0  0  0  0  0  0  0  0  0
    5.8450   -1.6153   -3.6021 H   0  0  0  0  0  0  0  0  0  0  0  0
    4.3593   -0.1290   -1.6354 S   0  0  0  0  0  0  0  0  0  0  0  0
    2.9687    0.2778   -2.4697 O   0  0  0  0  0  0  0  0  0  0  0  0
    4.3177    0.7896   -0.5042 O   0  0  0  0  0  0  0  0  0  0  0  0
    4.3842   -1.5760   -1.4637 O   0  0  0  0  0  0  0  0  0  0  0  0
    8.8470    1.5163   -5.3970 C   0  0  0  0  0  0  0  0  0  0  0  0
    8.7187    2.5393   -5.7631 H   0  0  0  0  0  0  0  0  0  0  0  0
    9.8073    1.4798   -4.8678 H   0  0  0  0  0  0  0  0  0  0  0  0
    8.9228    0.8509   -6.2609 H   0  0  0  0  0  0  0  0  0  0  0  0
  1  7  1  0  0  0  0
  2  1  1  0  0  0  0
  2  8  1  0  0  0  0
  3  2  2  0  0  0  0
  4  5  2  0  0  0  0
  4  3  1  0  0  0  0
  5  6  1  0  0  0  0
  6 11  1  0  0  0  0
  6  1  2  0  0  0  0
  9  4  1  0  0  0  0
 10  5  1  0  0  0  0
 11 13  2  0  0  0  0
 12 11  2  0  0  0  0
 14 15  1  0  0  0  0
 15 27  1  0  0  0  0
 16 22  1  0  0  0  0
 17 23  1  0  0  0  0
 17 16  2  0  0  0  0
 18 19  2  0  0  0  0
 18 17  1  0  0  0  0
 19 20  1  0  0  0  0
 20 25  1  0  0  0  0
 20 21  2  0  0  0  0
 21 16  1  0  0  0  0
 21 26  1  0  0  0  0
 24 19  1  0  0  0  0
 26 29  2  0  0  0  0
 26 28  2  0  0  0  0
 27 26  1  0  0  0  0
 30 32  1  0  0  0  0
 30 18  1  0  0  0  0
 31 30  1  0  0  0  0
 33 30  1  0  0  0  0
M  RAD  3   3   2  14   3  15   2
M  END
