Coordinates from ORCA-job 4-NO2-Ph-N2-OTs-B3LYPG-6-31G_dp-MTMO-d009-169-n800
 OpenBabel09051908313D

 33 33  0  0  0  0  0  0  0  0999 V2000
    0.0057    1.2202   -0.4078 C   0  0  0  0  0  0  0  0  0  0  0  0
    0.3304    0.2411   -1.3409 C   0  0  0  0  0  0  0  0  0  0  0  0
    0.8415    0.6275   -2.5843 C   0  0  0  0  0  0  0  0  0  0  0  0
    1.0236    1.9749   -2.9101 C   0  0  0  0  0  0  0  0  0  0  0  0
    0.6911    2.9556   -1.9817 C   0  0  0  0  0  0  0  0  0  0  0  0
    0.1903    2.5617   -0.7415 C   0  0  0  0  0  0  0  0  0  0  0  0
   -0.3921    0.9640    0.5657 H   0  0  0  0  0  0  0  0  0  0  0  0
    0.1981   -0.8100   -1.1179 H   0  0  0  0  0  0  0  0  0  0  0  0
    1.4134    2.2351   -3.8875 H   0  0  0  0  0  0  0  0  0  0  0  0
    0.8138    4.0097   -2.1969 H   0  0  0  0  0  0  0  0  0  0  0  0
   -0.1567    3.5959    0.2446 N   0  0  0  0  0  0  0  0  0  0  0  0
    0.0193    4.7712   -0.0757 O   0  0  0  0  0  0  0  0  0  0  0  0
   -0.6004    3.2238    1.3302 O   0  0  0  0  0  0  0  0  0  0  0  0
    8.9948    1.3740   -8.4151 N   0  0  0  0  0  0  0  0  0  0  0  0
    9.7694    1.3561   -9.2031 N   0  0  0  0  0  0  0  0  0  0  0  0
    4.5368    0.2152   -2.7886 C   0  0  0  0  0  0  0  0  0  0  0  0
    5.6342    1.0005   -3.1352 C   0  0  0  0  0  0  0  0  0  0  0  0
    6.0002    1.1875   -4.4766 C   0  0  0  0  0  0  0  0  0  0  0  0
    5.2396    0.5565   -5.4733 C   0  0  0  0  0  0  0  0  0  0  0  0
    4.1384   -0.2319   -5.1506 C   0  0  0  0  0  0  0  0  0  0  0  0
    3.7969   -0.3925   -3.8053 C   0  0  0  0  0  0  0  0  0  0  0  0
    4.2673    0.0558   -1.7505 H   0  0  0  0  0  0  0  0  0  0  0  0
    6.2207    1.4689   -2.3499 H   0  0  0  0  0  0  0  0  0  0  0  0
    5.5205    0.6776   -6.5158 H   0  0  0  0  0  0  0  0  0  0  0  0
    3.5621   -0.7322   -5.9210 H   0  0  0  0  0  0  0  0  0  0  0  0
    2.3887   -1.3962   -3.3845 S   0  0  0  0  0  0  0  0  0  0  0  0
    1.1091   -0.3123   -3.5696 O   0  0  0  0  0  0  0  0  0  0  0  0
    2.4698   -1.7707   -1.9765 O   0  0  0  0  0  0  0  0  0  0  0  0
    2.1371   -2.3640   -4.4385 O   0  0  0  0  0  0  0  0  0  0  0  0
    7.1758    2.0603   -4.8407 C   0  0  0  0  0  0  0  0  0  0  0  0
    7.6139    1.7645   -5.7975 H   0  0  0  0  0  0  0  0  0  0  0  0
    6.8672    3.1092   -4.9317 H   0  0  0  0  0  0  0  0  0  0  0  0
    7.9577    2.0176   -4.0763 H   0  0  0  0  0  0  0  0  0  0  0  0
  1  7  1  0  0  0  0
  2  8  1  0  0  0  0
  2  1  2  0  0  0  0
  3  2  1  0  0  0  0
  4  3  2  0  0  0  0
  4  5  1  0  0  0  0
  5  6  2  0  0  0  0
  6  1  1  0  0  0  0
  6 11  1  0  0  0  0
  9  4  1  0  0  0  0
 10  5  1  0  0  0  0
 11 13  2  0  0  0  0
 12 11  2  0  0  0  0
 15 14  3  0  0  0  0
 16 22  1  0  0  0  0
 17 16  1  0  0  0  0
 17 23  1  0  0  0  0
 18 17  2  0  0  0  0
 19 20  2  0  0  0  0
 19 18  1  0  0  0  0
 20 21  1  0  0  0  0
 21 26  1  0  0  0  0
 21 16  2  0  0  0  0
 24 19  1  0  0  0  0
 25 20  1  0  0  0  0
 26 28  2  0  0  0  0
 27 26  1  0  0  0  0
 27  3  1  0  0  0  0
 29 26  2  0  0  0  0
 30 18  1  0  0  0  0
 30 33  1  0  0  0  0
 31 30  1  0  0  0  0
 32 30  1  0  0  0  0
M  END
