Coordinates from ORCA-job 4-NO2-Ph-N2-OTs-B3LYPG-6-31G_dp-MTMO-d009-169-n800
 OpenBabel09051908313D

 33 33  0  0  0  0  0  0  0  0999 V2000
   -1.8003    0.5764   -2.1020 C   0  0  0  0  0  0  0  0  0  0  0  0
   -1.1675    0.2697   -3.2952 C   0  0  0  0  0  0  0  0  0  0  0  0
   -0.0063    0.9866   -3.6488 C   0  0  0  0  0  0  0  0  0  0  0  0
    0.5337    2.0113   -2.8457 C   0  0  0  0  0  0  0  0  0  0  0  0
   -0.1301    2.3174   -1.6624 C   0  0  0  0  0  0  0  0  0  0  0  0
   -1.2690    1.5974   -1.3125 C   0  0  0  0  0  0  0  0  0  0  0  0
   -2.6897    0.0537   -1.7759 H   0  0  0  0  0  0  0  0  0  0  0  0
   -1.5446   -0.5106   -3.9470 H   0  0  0  0  0  0  0  0  0  0  0  0
    1.4422    2.5303   -3.1483 H   0  0  0  0  0  0  0  0  0  0  0  0
    0.2354    3.0964   -1.0051 H   0  0  0  0  0  0  0  0  0  0  0  0
   -1.9570    1.9288   -0.0421 N   0  0  0  0  0  0  0  0  0  0  0  0
   -1.4862    2.8399    0.6301 O   0  0  0  0  0  0  0  0  0  0  0  0
   -2.9514    1.2674    0.2444 O   0  0  0  0  0  0  0  0  0  0  0  0
    0.5785    0.6757   -4.8143 N   0  0  0  0  0  0  0  0  0  0  0  0
    1.1599    0.4867   -5.7627 N   0  0  0  0  0  0  0  0  0  0  0  0
    6.2742    2.2000   -4.3816 C   0  0  0  0  0  0  0  0  0  0  0  0
    7.6489    1.9883   -4.3029 C   0  0  0  0  0  0  0  0  0  0  0  0
    8.1707    0.7393   -3.9351 C   0  0  0  0  0  0  0  0  0  0  0  0
    7.2739   -0.2956   -3.6343 C   0  0  0  0  0  0  0  0  0  0  0  0
    5.8960   -0.0999   -3.7097 C   0  0  0  0  0  0  0  0  0  0  0  0
    5.4031    1.1501   -4.0855 C   0  0  0  0  0  0  0  0  0  0  0  0
    5.8710    3.1704   -4.6496 H   0  0  0  0  0  0  0  0  0  0  0  0
    8.3290    2.8069   -4.5251 H   0  0  0  0  0  0  0  0  0  0  0  0
    7.6603   -1.2653   -3.3306 H   0  0  0  0  0  0  0  0  0  0  0  0
    5.2022   -0.8950   -3.4595 H   0  0  0  0  0  0  0  0  0  0  0  0
    3.6365    1.3985   -4.2239 S   0  0  0  0  0  0  0  0  0  0  0  0
    3.2859    1.0394   -5.6593 O   0  0  0  0  0  0  0  0  0  0  0  0
    3.3739    2.8326   -3.9275 O   0  0  0  0  0  0  0  0  0  0  0  0
    2.9728    0.4583   -3.2765 O   0  0  0  0  0  0  0  0  0  0  0  0
    9.6627    0.5108   -3.8838 C   0  0  0  0  0  0  0  0  0  0  0  0
   10.0517    0.2260   -4.8695 H   0  0  0  0  0  0  0  0  0  0  0  0
   10.1965    1.4148   -3.5752 H   0  0  0  0  0  0  0  0  0  0  0  0
    9.9217   -0.2921   -3.1871 H   0  0  0  0  0  0  0  0  0  0  0  0
  1  7  1  0  0  0  0
  1  6  2  0  0  0  0
  2  1  1  0  0  0  0
  3  2  2  0  0  0  0
  3  4  1  0  0  0  0
  4  5  2  0  0  0  0
  5  6  1  0  0  0  0
  5 10  1  0  0  0  0
  6 11  1  0  0  0  0
  8  2  1  0  0  0  0
  9  4  1  0  0  0  0
 11 13  2  0  0  0  0
 11 12  2  0  0  0  0
 14  3  1  0  0  0  0
 15 14  1  0  0  0  0
 16 17  2  0  0  0  0
 16 21  1  0  0  0  0
 17 18  1  0  0  0  0
 18 30  1  0  0  0  0
 18 19  2  0  0  0  0
 19 24  1  0  0  0  0
 20 19  1  0  0  0  0
 20 25  1  0  0  0  0
 21 20  2  0  0  0  0
 22 16  1  0  0  0  0
 23 17  1  0  0  0  0
 26 21  1  0  0  0  0
 26 28  2  0  0  0  0
 26 29  1  0  0  0  0
 27 26  2  0  0  0  0
 30 32  1  0  0  0  0
 30 33  1  0  0  0  0
 31 30  1  0  0  0  0
M  RAD  3  14   2  15   3  29   2
M  END
