Coordinates from ORCA-job 4-NO2-Ph-N2-OTs-B3LYPG-6-31G_dp-MTMO-d009-169-n800
 OpenBabel09051908313D

 33 33  0  0  0  0  0  0  0  0999 V2000
    0.0436    0.8464   -1.3467 C   0  0  0  0  0  0  0  0  0  0  0  0
    0.6499   -0.0148   -2.2554 C   0  0  0  0  0  0  0  0  0  0  0  0
    1.3854    0.5231   -3.3167 C   0  0  0  0  0  0  0  0  0  0  0  0
    1.5157    1.9046   -3.4872 C   0  0  0  0  0  0  0  0  0  0  0  0
    0.9035    2.7671   -2.5842 C   0  0  0  0  0  0  0  0  0  0  0  0
    0.1794    2.2231   -1.5241 C   0  0  0  0  0  0  0  0  0  0  0  0
   -0.5342    0.4720   -0.5112 H   0  0  0  0  0  0  0  0  0  0  0  0
    0.5656   -1.0893   -2.1515 H   0  0  0  0  0  0  0  0  0  0  0  0
    2.0857    2.2827   -4.3284 H   0  0  0  0  0  0  0  0  0  0  0  0
    0.9788    3.8429   -2.6823 H   0  0  0  0  0  0  0  0  0  0  0  0
   -0.4628    3.1319   -0.5627 N   0  0  0  0  0  0  0  0  0  0  0  0
   -0.3236    4.3418   -0.7412 O   0  0  0  0  0  0  0  0  0  0  0  0
   -1.0980    2.6278    0.3625 O   0  0  0  0  0  0  0  0  0  0  0  0
    2.2314    0.2472   -7.3641 N   0  0  0  0  0  0  0  0  0  0  0  0
    1.3478   -0.2878   -7.7565 N   0  0  0  0  0  0  0  0  0  0  0  0
    5.0416    0.2705   -2.5260 C   0  0  0  0  0  0  0  0  0  0  0  0
    6.0923    1.1831   -2.4510 C   0  0  0  0  0  0  0  0  0  0  0  0
    6.6992    1.6886   -3.6090 C   0  0  0  0  0  0  0  0  0  0  0  0
    6.2245    1.2582   -4.8586 C   0  0  0  0  0  0  0  0  0  0  0  0
    5.1780    0.3467   -4.9583 C   0  0  0  0  0  0  0  0  0  0  0  0
    4.5954   -0.1383   -3.7838 C   0  0  0  0  0  0  0  0  0  0  0  0
    4.5807   -0.1298   -1.6303 H   0  0  0  0  0  0  0  0  0  0  0  0
    6.4472    1.5053   -1.4761 H   0  0  0  0  0  0  0  0  0  0  0  0
    6.6844    1.6405   -5.7655 H   0  0  0  0  0  0  0  0  0  0  0  0
    4.8190    0.0113   -5.9249 H   0  0  0  0  0  0  0  0  0  0  0  0
    3.2499   -1.2973   -3.8990 S   0  0  0  0  0  0  0  0  0  0  0  0
    1.9459   -0.2990   -4.2835 O   0  0  0  0  0  0  0  0  0  0  0  0
    3.0076   -1.8821   -2.5843 O   0  0  0  0  0  0  0  0  0  0  0  0
    3.3840   -2.1033   -5.1004 O   0  0  0  0  0  0  0  0  0  0  0  0
    7.8574    2.6507   -3.5179 C   0  0  0  0  0  0  0  0  0  0  0  0
    7.8607    3.3538   -4.3561 H   0  0  0  0  0  0  0  0  0  0  0  0
    7.8298    3.2251   -2.5879 H   0  0  0  0  0  0  0  0  0  0  0  0
    8.8125    2.1118   -3.5419 H   0  0  0  0  0  0  0  0  0  0  0  0
  1  7  1  0  0  0  0
  2  8  1  0  0  0  0
  2  1  2  0  0  0  0
  3  2  1  0  0  0  0
  4  3  2  0  0  0  0
  4  5  1  0  0  0  0
  5  6  2  0  0  0  0
  6  1  1  0  0  0  0
  6 11  1  0  0  0  0
  9  4  1  0  0  0  0
 10  5  1  0  0  0  0
 11 13  2  0  0  0  0
 12 11  2  0  0  0  0
 15 14  3  0  0  0  0
 16 17  1  0  0  0  0
 16 22  1  0  0  0  0
 17 23  1  0  0  0  0
 18 30  1  0  0  0  0
 18 17  2  0  0  0  0
 19 18  1  0  0  0  0
 20 19  2  0  0  0  0
 20 21  1  0  0  0  0
 21 16  2  0  0  0  0
 24 19  1  0  0  0  0
 25 20  1  0  0  0  0
 26 21  1  0  0  0  0
 26 28  2  0  0  0  0
 27 26  1  0  0  0  0
 27  3  1  0  0  0  0
 29 26  2  0  0  0  0
 30 32  1  0  0  0  0
 31 30  1  0  0  0  0
 33 30  1  0  0  0  0
M  END
