Coordinates from ORCA-job 4-NO2-Ph-N2-OTs-B3LYPG-6-31G_dp-MTMO-d009-169-n800
 OpenBabel09051908313D

 33 32  0  0  0  0  0  0  0  0999 V2000
    0.8365    1.1433   -1.6831 C   0  0  0  0  0  0  0  0  0  0  0  0
    0.8089    0.7280   -3.0218 C   0  0  0  0  0  0  0  0  0  0  0  0
   -0.0220    1.2892   -3.7839 C   0  0  0  0  0  0  0  0  0  0  0  0
   -0.9741    2.2672   -3.6814 C   0  0  0  0  0  0  0  0  0  0  0  0
   -0.9759    2.7160   -2.3466 C   0  0  0  0  0  0  0  0  0  0  0  0
   -0.0946    2.1609   -1.3987 C   0  0  0  0  0  0  0  0  0  0  0  0
    1.4898    0.7566   -0.9115 H   0  0  0  0  0  0  0  0  0  0  0  0
    2.1359   -0.5785   -3.7406 H   0  0  0  0  0  0  0  0  0  0  0  0
   -1.6260    2.6529   -4.4536 H   0  0  0  0  0  0  0  0  0  0  0  0
   -1.6590    3.4961   -2.0313 H   0  0  0  0  0  0  0  0  0  0  0  0
   -0.1499    2.6832   -0.0191 N   0  0  0  0  0  0  0  0  0  0  0  0
   -0.9690    3.5669    0.2274 O   0  0  0  0  0  0  0  0  0  0  0  0
    0.6308    2.1999    0.7979 O   0  0  0  0  0  0  0  0  0  0  0  0
   -0.2761    0.6188   -6.2854 N   0  0  0  0  0  0  0  0  0  0  0  0
    0.0703   -0.0260   -7.1132 N   0  0  0  0  0  0  0  0  0  0  0  0
    5.1083    1.4684   -4.1444 C   0  0  0  0  0  0  0  0  0  0  0  0
    6.1984    2.0442   -3.4924 C   0  0  0  0  0  0  0  0  0  0  0  0
    7.2961    1.2704   -3.0931 C   0  0  0  0  0  0  0  0  0  0  0  0
    7.2792   -0.1067   -3.3665 C   0  0  0  0  0  0  0  0  0  0  0  0
    6.2015   -0.6996   -4.0176 C   0  0  0  0  0  0  0  0  0  0  0  0
    5.1190    0.0972   -4.3984 C   0  0  0  0  0  0  0  0  0  0  0  0
    4.2656    2.0707   -4.4660 H   0  0  0  0  0  0  0  0  0  0  0  0
    6.1968    3.1125   -3.2930 H   0  0  0  0  0  0  0  0  0  0  0  0
    8.1241   -0.7218   -3.0675 H   0  0  0  0  0  0  0  0  0  0  0  0
    6.1971   -1.7606   -4.2419 H   0  0  0  0  0  0  0  0  0  0  0  0
    3.7212   -0.6593   -5.2106 S   0  0  0  0  0  0  0  0  0  0  0  0
    2.9332    0.3921   -5.8596 O   0  0  0  0  0  0  0  0  0  0  0  0
    2.8416   -1.2340   -3.9632 O   0  0  0  0  0  0  0  0  0  0  0  0
    4.1850   -1.8308   -5.9395 O   0  0  0  0  0  0  0  0  0  0  0  0
    8.4839    1.9017   -2.4077 C   0  0  0  0  0  0  0  0  0  0  0  0
    9.3234    2.0152   -3.1045 H   0  0  0  0  0  0  0  0  0  0  0  0
    8.2418    2.8942   -2.0195 H   0  0  0  0  0  0  0  0  0  0  0  0
    8.8366    1.2865   -1.5740 H   0  0  0  0  0  0  0  0  0  0  0  0
  1  6  1  0  0  0  0
  1  7  1  0  0  0  0
  2  1  2  0  0  0  0
  3  4  2  0  0  0  0
  3  2  1  0  0  0  0
  4  5  1  0  0  0  0
  5 10  1  0  0  0  0
  5  6  2  0  0  0  0
  6 11  1  0  0  0  0
  9  4  1  0  0  0  0
 11 12  2  0  0  0  0
 11 13  2  0  0  0  0
 15 14  3  0  0  0  0
 16 17  1  0  0  0  0
 17 23  1  0  0  0  0
 17 18  2  0  0  0  0
 18 30  1  0  0  0  0
 19 18  1  0  0  0  0
 19 24  1  0  0  0  0
 20 19  2  0  0  0  0
 21 16  2  0  0  0  0
 21 20  1  0  0  0  0
 22 16  1  0  0  0  0
 25 20  1  0  0  0  0
 26 21  1  0  0  0  0
 26 28  1  0  0  0  0
 27 26  2  0  0  0  0
 28  8  1  0  0  0  0
 29 26  2  0  0  0  0
 30 32  1  0  0  0  0
 30 33  1  0  0  0  0
 31 30  1  0  0  0  0
M  RAD  2   2   2   3   2
M  END
