Coordinates from ORCA-job 4-NO2-Ph-N2-OTs-B3LYPG-6-31G_dp-MTMO-d009-169-n800
 OpenBabel09051908313D

 33 33  0  0  0  0  0  0  0  0999 V2000
   -0.0649    0.9033   -1.1847 C   0  0  0  0  0  0  0  0  0  0  0  0
    0.4805    0.1228   -2.1988 C   0  0  0  0  0  0  0  0  0  0  0  0
    1.2503    0.7372   -3.1919 C   0  0  0  0  0  0  0  0  0  0  0  0
    1.4754    2.1170   -3.1907 C   0  0  0  0  0  0  0  0  0  0  0  0
    0.9254    2.9000   -2.1812 C   0  0  0  0  0  0  0  0  0  0  0  0
    0.1660    2.2789   -1.1906 C   0  0  0  0  0  0  0  0  0  0  0  0
   -0.6669    0.4682   -0.3969 H   0  0  0  0  0  0  0  0  0  0  0  0
    0.3220   -0.9478   -2.2289 H   0  0  0  0  0  0  0  0  0  0  0  0
    2.0697    2.5576   -3.9832 H   0  0  0  0  0  0  0  0  0  0  0  0
    1.0755    3.9717   -2.1449 H   0  0  0  0  0  0  0  0  0  0  0  0
   -0.4109    3.1027   -0.1177 N   0  0  0  0  0  0  0  0  0  0  0  0
   -0.1852    4.3125   -0.1443 O   0  0  0  0  0  0  0  0  0  0  0  0
   -1.0814    2.5327    0.7419 O   0  0  0  0  0  0  0  0  0  0  0  0
    3.5531   -0.8892   -8.3134 N   0  0  0  0  0  0  0  0  0  0  0  0
    2.8825   -1.6342   -8.7781 N   0  0  0  0  0  0  0  0  0  0  0  0
    4.8895    0.3640   -2.6279 C   0  0  0  0  0  0  0  0  0  0  0  0
    5.9848    1.2215   -2.5494 C   0  0  0  0  0  0  0  0  0  0  0  0
    6.6196    1.6965   -3.7059 C   0  0  0  0  0  0  0  0  0  0  0  0
    6.1281    1.2897   -4.9564 C   0  0  0  0  0  0  0  0  0  0  0  0
    5.0353    0.4340   -5.0604 C   0  0  0  0  0  0  0  0  0  0  0  0
    4.4248   -0.0193   -3.8877 C   0  0  0  0  0  0  0  0  0  0  0  0
    4.4086   -0.0142   -1.7329 H   0  0  0  0  0  0  0  0  0  0  0  0
    6.3534    1.5243   -1.5733 H   0  0  0  0  0  0  0  0  0  0  0  0
    6.6112    1.6459   -5.8619 H   0  0  0  0  0  0  0  0  0  0  0  0
    4.6679    0.1123   -6.0286 H   0  0  0  0  0  0  0  0  0  0  0  0
    3.0102   -1.0921   -4.0073 S   0  0  0  0  0  0  0  0  0  0  0  0
    1.7518    0.0032   -4.2578 O   0  0  0  0  0  0  0  0  0  0  0  0
    2.7943   -1.7489   -2.7222 O   0  0  0  0  0  0  0  0  0  0  0  0
    3.0443   -1.8243   -5.2623 O   0  0  0  0  0  0  0  0  0  0  0  0
    7.8243    2.5995   -3.6102 C   0  0  0  0  0  0  0  0  0  0  0  0
    7.8860    3.2768   -4.4668 H   0  0  0  0  0  0  0  0  0  0  0  0
    7.8031    3.2012   -2.6973 H   0  0  0  0  0  0  0  0  0  0  0  0
    8.7499    2.0113   -3.5927 H   0  0  0  0  0  0  0  0  0  0  0  0
  1  7  1  0  0  0  0
  2  1  2  0  0  0  0
  3  4  2  0  0  0  0
  3  2  1  0  0  0  0
  4  5  1  0  0  0  0
  5 10  1  0  0  0  0
  5  6  2  0  0  0  0
  6  1  1  0  0  0  0
  6 11  1  0  0  0  0
  8  2  1  0  0  0  0
  9  4  1  0  0  0  0
 11 13  2  0  0  0  0
 12 11  2  0  0  0  0
 15 14  3  0  0  0  0
 16 17  1  0  0  0  0
 16 22  1  0  0  0  0
 17 23  1  0  0  0  0
 18 30  1  0  0  0  0
 18 17  2  0  0  0  0
 19 18  1  0  0  0  0
 20 19  2  0  0  0  0
 20 21  1  0  0  0  0
 21 16  2  0  0  0  0
 24 19  1  0  0  0  0
 25 20  1  0  0  0  0
 26 21  1  0  0  0  0
 26 28  2  0  0  0  0
 27 26  1  0  0  0  0
 27  3  1  0  0  0  0
 29 26  2  0  0  0  0
 30 33  1  0  0  0  0
 30 32  1  0  0  0  0
 31 30  1  0  0  0  0
M  END
