Coordinates from ORCA-job 4-NO2-Ph-N2-OTs-B3LYPG-6-31G_dp-MTMO-d009-169-n800
 OpenBabel09051908313D

 33 33  0  0  0  0  0  0  0  0999 V2000
    0.0385    1.1826   -0.0968 C   0  0  0  0  0  0  0  0  0  0  0  0
    0.2375    0.2090   -1.0700 C   0  0  0  0  0  0  0  0  0  0  0  0
    0.6073    0.6013   -2.3605 C   0  0  0  0  0  0  0  0  0  0  0  0
    0.7739    1.9490   -2.6930 C   0  0  0  0  0  0  0  0  0  0  0  0
    0.5680    2.9244   -1.7233 C   0  0  0  0  0  0  0  0  0  0  0  0
    0.2062    2.5246   -0.4376 C   0  0  0  0  0  0  0  0  0  0  0  0
   -0.2496    0.9225    0.9137 H   0  0  0  0  0  0  0  0  0  0  0  0
    0.1145   -0.8427   -0.8438 H   0  0  0  0  0  0  0  0  0  0  0  0
    1.0538    2.2139   -3.7062 H   0  0  0  0  0  0  0  0  0  0  0  0
    0.6835    3.9786   -1.9413 H   0  0  0  0  0  0  0  0  0  0  0  0
   -0.0075    3.5533    0.5915 N   0  0  0  0  0  0  0  0  0  0  0  0
    0.1517    4.7291    0.2639 O   0  0  0  0  0  0  0  0  0  0  0  0
   -0.3307    3.1765    1.7172 O   0  0  0  0  0  0  0  0  0  0  0  0
   13.3708    1.3765   -8.4817 N   0  0  0  0  0  0  0  0  0  0  0  0
   14.3229    1.1746   -9.0054 N   0  0  0  0  0  0  0  0  0  0  0  0
    4.2520    0.1854   -2.9841 C   0  0  0  0  0  0  0  0  0  0  0  0
    5.2867    1.0038   -3.4354 C   0  0  0  0  0  0  0  0  0  0  0  0
    5.4654    1.2624   -4.8014 C   0  0  0  0  0  0  0  0  0  0  0  0
    4.5761    0.6769   -5.7175 C   0  0  0  0  0  0  0  0  0  0  0  0
    3.5371   -0.1437   -5.2902 C   0  0  0  0  0  0  0  0  0  0  0  0
    3.3850   -0.3794   -3.9204 C   0  0  0  0  0  0  0  0  0  0  0  0
    4.1240   -0.0254   -1.9283 H   0  0  0  0  0  0  0  0  0  0  0  0
    5.9674    1.4455   -2.7132 H   0  0  0  0  0  0  0  0  0  0  0  0
    4.7027    0.8647   -6.7805 H   0  0  0  0  0  0  0  0  0  0  0  0
    2.8596   -0.6059   -5.9999 H   0  0  0  0  0  0  0  0  0  0  0  0
    2.0437   -1.4088   -3.3644 S   0  0  0  0  0  0  0  0  0  0  0  0
    0.7436   -0.3344   -3.3764 O   0  0  0  0  0  0  0  0  0  0  0  0
    2.2897   -1.8131   -1.9842 O   0  0  0  0  0  0  0  0  0  0  0  0
    1.6796   -2.3549   -4.4049 O   0  0  0  0  0  0  0  0  0  0  0  0
    6.6040    2.1267   -5.2844 C   0  0  0  0  0  0  0  0  0  0  0  0
    7.4350    1.5089   -5.6463 H   0  0  0  0  0  0  0  0  0  0  0  0
    6.2944    2.7693   -6.1145 H   0  0  0  0  0  0  0  0  0  0  0  0
    6.9915    2.7635   -4.4850 H   0  0  0  0  0  0  0  0  0  0  0  0
  1  7  1  0  0  0  0
  2  8  1  0  0  0  0
  2  1  2  0  0  0  0
  3  2  1  0  0  0  0
  4  3  2  0  0  0  0
  4  5  1  0  0  0  0
  5  6  2  0  0  0  0
  6  1  1  0  0  0  0
  6 11  1  0  0  0  0
  9  4  1  0  0  0  0
 10  5  1  0  0  0  0
 11 13  2  0  0  0  0
 12 11  2  0  0  0  0
 15 14  3  0  0  0  0
 16 22  1  0  0  0  0
 17 16  1  0  0  0  0
 17 23  1  0  0  0  0
 18 17  2  0  0  0  0
 19 20  2  0  0  0  0
 19 18  1  0  0  0  0
 20 21  1  0  0  0  0
 21 26  1  0  0  0  0
 21 16  2  0  0  0  0
 24 19  1  0  0  0  0
 25 20  1  0  0  0  0
 26 28  2  0  0  0  0
 27 26  1  0  0  0  0
 27  3  1  0  0  0  0
 29 26  2  0  0  0  0
 30 18  1  0  0  0  0
 30 33  1  0  0  0  0
 31 30  1  0  0  0  0
 32 30  1  0  0  0  0
M  END
