Coordinates from ORCA-job 4-NO2-Ph-N2-OTs-B3LYPG-6-31G_dp-MTMO-d009-169-n800
 OpenBabel09051908313D

 33 33  0  0  0  0  0  0  0  0999 V2000
    0.0187    1.1862   -0.0860 C   0  0  0  0  0  0  0  0  0  0  0  0
    0.2153    0.2119   -1.0591 C   0  0  0  0  0  0  0  0  0  0  0  0
    0.5861    0.6030   -2.3497 C   0  0  0  0  0  0  0  0  0  0  0  0
    0.7561    1.9503   -2.6824 C   0  0  0  0  0  0  0  0  0  0  0  0
    0.5526    2.9263   -1.7129 C   0  0  0  0  0  0  0  0  0  0  0  0
    0.1898    2.5277   -0.4271 C   0  0  0  0  0  0  0  0  0  0  0  0
   -0.2700    0.9270    0.9245 H   0  0  0  0  0  0  0  0  0  0  0  0
    0.0897   -0.8394   -0.8327 H   0  0  0  0  0  0  0  0  0  0  0  0
    1.0367    2.2142   -3.6957 H   0  0  0  0  0  0  0  0  0  0  0  0
    0.6708    3.9803   -1.9311 H   0  0  0  0  0  0  0  0  0  0  0  0
   -0.0213    3.5572    0.6017 N   0  0  0  0  0  0  0  0  0  0  0  0
    0.1409    4.7324    0.2740 O   0  0  0  0  0  0  0  0  0  0  0  0
   -0.3455    3.1814    1.7275 O   0  0  0  0  0  0  0  0  0  0  0  0
   13.6904    1.4044   -8.6380 N   0  0  0  0  0  0  0  0  0  0  0  0
   14.6407    1.2041   -9.1658 N   0  0  0  0  0  0  0  0  0  0  0  0
    4.2294    0.1803   -2.9741 C   0  0  0  0  0  0  0  0  0  0  0  0
    5.2653    0.9970   -3.4259 C   0  0  0  0  0  0  0  0  0  0  0  0
    5.4439    1.2553   -4.7919 C   0  0  0  0  0  0  0  0  0  0  0  0
    4.5533    0.6712   -5.7077 C   0  0  0  0  0  0  0  0  0  0  0  0
    3.5130   -0.1477   -5.2799 C   0  0  0  0  0  0  0  0  0  0  0  0
    3.3612   -0.3832   -3.9101 C   0  0  0  0  0  0  0  0  0  0  0  0
    4.1015   -0.0302   -1.9182 H   0  0  0  0  0  0  0  0  0  0  0  0
    5.9470    1.4376   -2.7039 H   0  0  0  0  0  0  0  0  0  0  0  0
    4.6797    0.8587   -6.7707 H   0  0  0  0  0  0  0  0  0  0  0  0
    2.8345   -0.6088   -5.9893 H   0  0  0  0  0  0  0  0  0  0  0  0
    2.0182   -1.4100   -3.3534 S   0  0  0  0  0  0  0  0  0  0  0  0
    0.7200   -0.3333   -3.3653 O   0  0  0  0  0  0  0  0  0  0  0  0
    2.2638   -1.8145   -1.9732 O   0  0  0  0  0  0  0  0  0  0  0  0
    1.6521   -2.3557   -4.3937 O   0  0  0  0  0  0  0  0  0  0  0  0
    6.5837    2.1177   -5.2753 C   0  0  0  0  0  0  0  0  0  0  0  0
    7.4141    1.4986   -5.6362 H   0  0  0  0  0  0  0  0  0  0  0  0
    6.2751    2.7599   -6.1062 H   0  0  0  0  0  0  0  0  0  0  0  0
    6.9716    2.7549   -4.4764 H   0  0  0  0  0  0  0  0  0  0  0  0
  1  7  1  0  0  0  0
  2  8  1  0  0  0  0
  2  1  2  0  0  0  0
  3  2  1  0  0  0  0
  4  3  2  0  0  0  0
  4  5  1  0  0  0  0
  5  6  2  0  0  0  0
  6  1  1  0  0  0  0
  6 11  1  0  0  0  0
  9  4  1  0  0  0  0
 10  5  1  0  0  0  0
 11 13  2  0  0  0  0
 12 11  2  0  0  0  0
 15 14  3  0  0  0  0
 16 22  1  0  0  0  0
 17 16  1  0  0  0  0
 17 23  1  0  0  0  0
 18 17  2  0  0  0  0
 19 20  2  0  0  0  0
 19 18  1  0  0  0  0
 20 21  1  0  0  0  0
 21 26  1  0  0  0  0
 21 16  2  0  0  0  0
 24 19  1  0  0  0  0
 25 20  1  0  0  0  0
 26 28  2  0  0  0  0
 27 26  1  0  0  0  0
 27  3  1  0  0  0  0
 29 26  2  0  0  0  0
 30 18  1  0  0  0  0
 30 33  1  0  0  0  0
 31 30  1  0  0  0  0
 32 30  1  0  0  0  0
M  END
