Coordinates from ORCA-job 4-NO2-Ph-N2-OTs-B3LYPG-6-31G_dp-MTMO-d009-169-n800
 OpenBabel09051908313D

 33 33  0  0  0  0  0  0  0  0999 V2000
   -1.0742    1.2436   -1.6727 C   0  0  0  0  0  0  0  0  0  0  0  0
   -0.0633    0.4093   -2.1556 C   0  0  0  0  0  0  0  0  0  0  0  0
    0.4470    0.7229   -3.3986 C   0  0  0  0  0  0  0  0  0  0  0  0
    0.0396    1.7545   -4.2163 C   0  0  0  0  0  0  0  0  0  0  0  0
   -0.9670    2.5870   -3.7192 C   0  0  0  0  0  0  0  0  0  0  0  0
   -1.5016    2.3127   -2.4612 C   0  0  0  0  0  0  0  0  0  0  0  0
   -1.5265    1.0808   -0.7024 H   0  0  0  0  0  0  0  0  0  0  0  0
    0.3101   -0.4237   -1.5737 H   0  0  0  0  0  0  0  0  0  0  0  0
    0.4756    1.9136   -5.1952 H   0  0  0  0  0  0  0  0  0  0  0  0
   -1.3439    3.4279   -4.2877 H   0  0  0  0  0  0  0  0  0  0  0  0
   -2.5702    3.1877   -1.9441 N   0  0  0  0  0  0  0  0  0  0  0  0
   -2.9237    4.1299   -2.6507 O   0  0  0  0  0  0  0  0  0  0  0  0
   -3.0400    2.9185   -0.8408 O   0  0  0  0  0  0  0  0  0  0  0  0
    1.7057   -0.4765   -4.2161 N   0  0  0  0  0  0  0  0  0  0  0  0
    2.7705   -0.6028   -3.6972 N   0  0  0  0  0  0  0  0  0  0  0  0
    6.1229    1.6706   -2.7230 C   0  0  0  0  0  0  0  0  0  0  0  0
    7.1411    2.0401   -3.5971 C   0  0  0  0  0  0  0  0  0  0  0  0
    7.7074    1.1130   -4.4859 C   0  0  0  0  0  0  0  0  0  0  0  0
    7.2241   -0.2033   -4.4801 C   0  0  0  0  0  0  0  0  0  0  0  0
    6.2059   -0.5949   -3.6133 C   0  0  0  0  0  0  0  0  0  0  0  0
    5.6633    0.3515   -2.7432 C   0  0  0  0  0  0  0  0  0  0  0  0
    5.6954    2.3833   -2.0263 H   0  0  0  0  0  0  0  0  0  0  0  0
    7.5069    3.0631   -3.5865 H   0  0  0  0  0  0  0  0  0  0  0  0
    7.6534   -0.9337   -5.1604 H   0  0  0  0  0  0  0  0  0  0  0  0
    5.8394   -1.6149   -3.6016 H   0  0  0  0  0  0  0  0  0  0  0  0
    4.3629   -0.1309   -1.6264 S   0  0  0  0  0  0  0  0  0  0  0  0
    2.9656    0.2748   -2.4581 O   0  0  0  0  0  0  0  0  0  0  0  0
    4.3215    0.7888   -0.4965 O   0  0  0  0  0  0  0  0  0  0  0  0
    4.3883   -1.5776   -1.4548 O   0  0  0  0  0  0  0  0  0  0  0  0
    8.8343    1.5192   -5.4040 C   0  0  0  0  0  0  0  0  0  0  0  0
    8.7030    2.5417   -5.7705 H   0  0  0  0  0  0  0  0  0  0  0  0
    9.7963    1.4849   -4.8778 H   0  0  0  0  0  0  0  0  0  0  0  0
    8.9085    0.8534   -6.2676 H   0  0  0  0  0  0  0  0  0  0  0  0
  1  7  1  0  0  0  0
  2  1  1  0  0  0  0
  2  8  1  0  0  0  0
  3  2  2  0  0  0  0
  4  5  2  0  0  0  0
  4  3  1  0  0  0  0
  5  6  1  0  0  0  0
  6 11  1  0  0  0  0
  6  1  2  0  0  0  0
  9  4  1  0  0  0  0
 10  5  1  0  0  0  0
 11 13  2  0  0  0  0
 12 11  2  0  0  0  0
 14 15  1  0  0  0  0
 15 27  1  0  0  0  0
 16 22  1  0  0  0  0
 17 23  1  0  0  0  0
 17 16  2  0  0  0  0
 18 19  2  0  0  0  0
 18 17  1  0  0  0  0
 19 20  1  0  0  0  0
 20 25  1  0  0  0  0
 20 21  2  0  0  0  0
 21 16  1  0  0  0  0
 21 26  1  0  0  0  0
 24 19  1  0  0  0  0
 26 29  2  0  0  0  0
 26 28  2  0  0  0  0
 27 26  1  0  0  0  0
 30 32  1  0  0  0  0
 30 18  1  0  0  0  0
 31 30  1  0  0  0  0
 33 30  1  0  0  0  0
M  RAD  3   3   2  14   3  15   2
M  END
