Coordinates from ORCA-job 4-NO2-Ph-N2-OTs-B3LYPG-6-31G_dp-MTMO-d009-169-n800
 OpenBabel09051908313D

 33 33  0  0  0  0  0  0  0  0999 V2000
    0.0575    1.1798   -0.1079 C   0  0  0  0  0  0  0  0  0  0  0  0
    0.2587    0.2068   -1.0813 C   0  0  0  0  0  0  0  0  0  0  0  0
    0.6284    0.6001   -2.3716 C   0  0  0  0  0  0  0  0  0  0  0  0
    0.7926    1.9482   -2.7037 C   0  0  0  0  0  0  0  0  0  0  0  0
    0.5845    2.9229   -1.7338 C   0  0  0  0  0  0  0  0  0  0  0  0
    0.2229    2.5222   -0.4484 C   0  0  0  0  0  0  0  0  0  0  0  0
   -0.2306    0.9189    0.9023 H   0  0  0  0  0  0  0  0  0  0  0  0
    0.1376   -0.8452   -0.8554 H   0  0  0  0  0  0  0  0  0  0  0  0
    1.0724    2.2138   -3.7167 H   0  0  0  0  0  0  0  0  0  0  0  0
    0.6981    3.9775   -1.9516 H   0  0  0  0  0  0  0  0  0  0  0  0
    0.0068    3.5503    0.5808 N   0  0  0  0  0  0  0  0  0  0  0  0
    0.1639    4.7264    0.2536 O   0  0  0  0  0  0  0  0  0  0  0  0
   -0.3161    3.1726    1.7063 O   0  0  0  0  0  0  0  0  0  0  0  0
   13.0501    1.3541   -8.3268 N   0  0  0  0  0  0  0  0  0  0  0  0
   14.0042    1.1501   -8.8461 N   0  0  0  0  0  0  0  0  0  0  0  0
    4.2743    0.1896   -2.9937 C   0  0  0  0  0  0  0  0  0  0  0  0
    5.3082    1.0092   -3.4445 C   0  0  0  0  0  0  0  0  0  0  0  0
    5.4873    1.2680   -4.8104 C   0  0  0  0  0  0  0  0  0  0  0  0
    4.5992    0.6814   -5.7270 C   0  0  0  0  0  0  0  0  0  0  0  0
    3.5610   -0.1405   -5.3002 C   0  0  0  0  0  0  0  0  0  0  0  0
    3.4086   -0.3764   -3.9305 C   0  0  0  0  0  0  0  0  0  0  0  0
    4.1460   -0.0213   -1.9380 H   0  0  0  0  0  0  0  0  0  0  0  0
    5.9880    1.4518   -2.7220 H   0  0  0  0  0  0  0  0  0  0  0  0
    4.7262    0.8693   -6.7899 H   0  0  0  0  0  0  0  0  0  0  0  0
    2.8845   -0.6036   -6.0103 H   0  0  0  0  0  0  0  0  0  0  0  0
    2.0684   -1.4076   -3.3752 S   0  0  0  0  0  0  0  0  0  0  0  0
    0.7667   -0.3351   -3.3876 O   0  0  0  0  0  0  0  0  0  0  0  0
    2.3143   -1.8118   -1.9949 O   0  0  0  0  0  0  0  0  0  0  0  0
    1.7061   -2.3541   -4.4159 O   0  0  0  0  0  0  0  0  0  0  0  0
    6.6251    2.1337   -5.2929 C   0  0  0  0  0  0  0  0  0  0  0  0
    7.4562    1.5169   -5.6562 H   0  0  0  0  0  0  0  0  0  0  0  0
    6.3145    2.7772   -6.1219 H   0  0  0  0  0  0  0  0  0  0  0  0
    7.0127    2.7696   -4.4929 H   0  0  0  0  0  0  0  0  0  0  0  0
  1  7  1  0  0  0  0
  2  8  1  0  0  0  0
  2  1  2  0  0  0  0
  3  2  1  0  0  0  0
  4  3  2  0  0  0  0
  4  5  1  0  0  0  0
  5  6  2  0  0  0  0
  6  1  1  0  0  0  0
  6 11  1  0  0  0  0
  9  4  1  0  0  0  0
 10  5  1  0  0  0  0
 11 13  2  0  0  0  0
 12 11  2  0  0  0  0
 15 14  3  0  0  0  0
 16 22  1  0  0  0  0
 17 16  1  0  0  0  0
 17 23  1  0  0  0  0
 18 17  2  0  0  0  0
 19 20  2  0  0  0  0
 19 18  1  0  0  0  0
 20 21  1  0  0  0  0
 21 26  1  0  0  0  0
 21 16  2  0  0  0  0
 24 19  1  0  0  0  0
 25 20  1  0  0  0  0
 26 28  2  0  0  0  0
 27 26  1  0  0  0  0
 27  3  1  0  0  0  0
 29 26  2  0  0  0  0
 30 18  1  0  0  0  0
 30 33  1  0  0  0  0
 31 30  1  0  0  0  0
 32 30  1  0  0  0  0
M  END
