Coordinates from ORCA-job 4-NO2-Ph-N2-OTs-B3LYPG-6-31G_dp-MTMO-d009-169-n800
 OpenBabel09051908313D

 33 32  0  0  0  0  0  0  0  0999 V2000
    0.6217    1.0509   -1.3405 C   0  0  0  0  0  0  0  0  0  0  0  0
    0.8389    0.6259   -2.6536 C   0  0  0  0  0  0  0  0  0  0  0  0
    0.2636    1.2256   -3.5950 C   0  0  0  0  0  0  0  0  0  0  0  0
   -0.5912    2.2922   -3.7045 C   0  0  0  0  0  0  0  0  0  0  0  0
   -0.8423    2.7672   -2.4022 C   0  0  0  0  0  0  0  0  0  0  0  0
   -0.2493    2.1578   -1.2787 C   0  0  0  0  0  0  0  0  0  0  0  0
    1.0493    0.6246   -0.4425 H   0  0  0  0  0  0  0  0  0  0  0  0
    2.2133   -0.7114   -3.5060 H   0  0  0  0  0  0  0  0  0  0  0  0
   -1.0228    2.7176   -4.5999 H   0  0  0  0  0  0  0  0  0  0  0  0
   -1.5019    3.6127   -2.2454 H   0  0  0  0  0  0  0  0  0  0  0  0
   -0.5585    2.7178    0.0518 N   0  0  0  0  0  0  0  0  0  0  0  0
   -1.3195    3.6822    0.1060 O   0  0  0  0  0  0  0  0  0  0  0  0
   -0.0318    2.1815    1.0245 O   0  0  0  0  0  0  0  0  0  0  0  0
   -0.1630    0.6694   -6.6176 N   0  0  0  0  0  0  0  0  0  0  0  0
    0.0551    0.0779   -7.5248 N   0  0  0  0  0  0  0  0  0  0  0  0
    5.0764    1.4467   -4.0461 C   0  0  0  0  0  0  0  0  0  0  0  0
    6.2018    2.0298   -3.4644 C   0  0  0  0  0  0  0  0  0  0  0  0
    7.3564    1.2790   -3.2072 C   0  0  0  0  0  0  0  0  0  0  0  0
    7.3607   -0.0823   -3.5518 C   0  0  0  0  0  0  0  0  0  0  0  0
    6.2484   -0.6822   -4.1344 C   0  0  0  0  0  0  0  0  0  0  0  0
    5.1098    0.0914   -4.3732 C   0  0  0  0  0  0  0  0  0  0  0  0
    4.1884    2.0323   -4.2581 H   0  0  0  0  0  0  0  0  0  0  0  0
    6.1829    3.0856   -3.2088 H   0  0  0  0  0  0  0  0  0  0  0  0
    8.2496   -0.6788   -3.3633 H   0  0  0  0  0  0  0  0  0  0  0  0
    6.2588   -1.7298   -4.4139 H   0  0  0  0  0  0  0  0  0  0  0  0
    3.6706   -0.6757   -5.0970 S   0  0  0  0  0  0  0  0  0  0  0  0
    2.7973    0.3746   -5.6290 O   0  0  0  0  0  0  0  0  0  0  0  0
    2.9172   -1.3304   -3.8053 O   0  0  0  0  0  0  0  0  0  0  0  0
    4.1024   -1.8000   -5.9137 O   0  0  0  0  0  0  0  0  0  0  0  0
    8.5798    1.9172   -2.5946 C   0  0  0  0  0  0  0  0  0  0  0  0
    9.3720    2.0441   -3.3424 H   0  0  0  0  0  0  0  0  0  0  0  0
    8.3538    2.9036   -2.1821 H   0  0  0  0  0  0  0  0  0  0  0  0
    8.9905    1.2978   -1.7907 H   0  0  0  0  0  0  0  0  0  0  0  0
  1  6  1  0  0  0  0
  1  7  1  0  0  0  0
  2  1  2  0  0  0  0
  3  2  1  0  0  0  0
  4  3  2  0  0  0  0
  4  5  1  0  0  0  0
  5 10  1  0  0  0  0
  5  6  2  0  0  0  0
  6 11  1  0  0  0  0
  9  4  1  0  0  0  0
 11 12  2  0  0  0  0
 11 13  2  0  0  0  0
 15 14  3  0  0  0  0
 16 17  2  0  0  0  0
 17 23  1  0  0  0  0
 17 18  1  0  0  0  0
 18 30  1  0  0  0  0
 19 24  1  0  0  0  0
 19 18  2  0  0  0  0
 20 19  1  0  0  0  0
 21 20  2  0  0  0  0
 21 16  1  0  0  0  0
 22 16  1  0  0  0  0
 25 20  1  0  0  0  0
 26 21  1  0  0  0  0
 26 28  1  0  0  0  0
 27 26  2  0  0  0  0
 28  8  1  0  0  0  0
 29 26  2  0  0  0  0
 30 32  1  0  0  0  0
 30 33  1  0  0  0  0
 31 30  1  0  0  0  0
M  RAD  2   2   2   3   2
M  END
