Coordinates from ORCA-job 4-NO2-Ph-N2-OTs-B3LYPG-6-31G_dp-MTMO-d009-169-n800
 OpenBabel09051908313D

 33 33  0  0  0  0  0  0  0  0999 V2000
   -0.0233    1.2540   -0.5691 C   0  0  0  0  0  0  0  0  0  0  0  0
    0.3434    0.2655   -1.4765 C   0  0  0  0  0  0  0  0  0  0  0  0
    0.9089    0.6397   -2.7001 C   0  0  0  0  0  0  0  0  0  0  0  0
    1.1033    1.9839   -3.0318 C   0  0  0  0  0  0  0  0  0  0  0  0
    0.7283    2.9739   -2.1297 C   0  0  0  0  0  0  0  0  0  0  0  0
    0.1740    2.5922   -0.9086 C   0  0  0  0  0  0  0  0  0  0  0  0
   -0.4631    1.0072    0.3885 H   0  0  0  0  0  0  0  0  0  0  0  0
    0.2027   -0.7834   -1.2486 H   0  0  0  0  0  0  0  0  0  0  0  0
    1.5352    2.2346   -3.9938 H   0  0  0  0  0  0  0  0  0  0  0  0
    0.8590    4.0258   -2.3508 H   0  0  0  0  0  0  0  0  0  0  0  0
   -0.2178    3.6361    0.0501 N   0  0  0  0  0  0  0  0  0  0  0  0
   -0.0316    4.8084   -0.2756 O   0  0  0  0  0  0  0  0  0  0  0  0
   -0.7064    3.2747    1.1199 O   0  0  0  0  0  0  0  0  0  0  0  0
    7.7336    1.4758   -8.6463 N   0  0  0  0  0  0  0  0  0  0  0  0
    8.2078    1.5383   -9.6425 N   0  0  0  0  0  0  0  0  0  0  0  0
    4.5975    0.1863   -2.6640 C   0  0  0  0  0  0  0  0  0  0  0  0
    5.7205    0.9630   -2.9348 C   0  0  0  0  0  0  0  0  0  0  0  0
    6.1757    1.1500   -4.2498 C   0  0  0  0  0  0  0  0  0  0  0  0
    5.4743    0.5347   -5.2970 C   0  0  0  0  0  0  0  0  0  0  0  0
    4.3472   -0.2464   -5.0492 C   0  0  0  0  0  0  0  0  0  0  0  0
    3.9197   -0.4114   -3.7302 C   0  0  0  0  0  0  0  0  0  0  0  0
    4.2572    0.0280   -1.6469 H   0  0  0  0  0  0  0  0  0  0  0  0
    6.2567    1.4265   -2.1116 H   0  0  0  0  0  0  0  0  0  0  0  0
    5.8203    0.6639   -6.3184 H   0  0  0  0  0  0  0  0  0  0  0  0
    3.8148   -0.7339   -5.8583 H   0  0  0  0  0  0  0  0  0  0  0  0
    2.4784   -1.4035   -3.4056 S   0  0  0  0  0  0  0  0  0  0  0  0
    1.2217   -0.3084   -3.6639 O   0  0  0  0  0  0  0  0  0  0  0  0
    2.4680   -1.7873   -1.9976 O   0  0  0  0  0  0  0  0  0  0  0  0
    2.2845   -2.3632   -4.4790 O   0  0  0  0  0  0  0  0  0  0  0  0
    7.4038    1.9840   -4.5226 C   0  0  0  0  0  0  0  0  0  0  0  0
    7.5857    2.0901   -5.5946 H   0  0  0  0  0  0  0  0  0  0  0  0
    7.3050    2.9865   -4.0928 H   0  0  0  0  0  0  0  0  0  0  0  0
    8.2935    1.5291   -4.0730 H   0  0  0  0  0  0  0  0  0  0  0  0
  1  7  1  0  0  0  0
  2  8  1  0  0  0  0
  2  1  2  0  0  0  0
  3  2  1  0  0  0  0
  4  3  2  0  0  0  0
  4  5  1  0  0  0  0
  5  6  2  0  0  0  0
  6  1  1  0  0  0  0
  6 11  1  0  0  0  0
  9  4  1  0  0  0  0
 10  5  1  0  0  0  0
 11 13  2  0  0  0  0
 12 11  2  0  0  0  0
 15 14  3  0  0  0  0
 16 22  1  0  0  0  0
 17 16  1  0  0  0  0
 17 23  1  0  0  0  0
 18 17  2  0  0  0  0
 19 20  2  0  0  0  0
 19 18  1  0  0  0  0
 20 21  1  0  0  0  0
 21 26  1  0  0  0  0
 21 16  2  0  0  0  0
 24 19  1  0  0  0  0
 25 20  1  0  0  0  0
 26 28  2  0  0  0  0
 27 26  1  0  0  0  0
 27  3  1  0  0  0  0
 29 26  2  0  0  0  0
 30 18  1  0  0  0  0
 30 32  1  0  0  0  0
 30 33  1  0  0  0  0
 31 30  1  0  0  0  0
M  END
