Coordinates from ORCA-job 4-NO2-Ph-N2-OTs-B3LYPG-6-31G_dp-MTMO-d009-169-n800
 OpenBabel09051908313D

 33 33  0  0  0  0  0  0  0  0999 V2000
   -0.1066    0.9685   -1.0213 C   0  0  0  0  0  0  0  0  0  0  0  0
    0.3551    0.2537   -2.1218 C   0  0  0  0  0  0  0  0  0  0  0  0
    1.1022    0.9175   -3.1005 C   0  0  0  0  0  0  0  0  0  0  0  0
    1.3852    2.2831   -3.0001 C   0  0  0  0  0  0  0  0  0  0  0  0
    0.9179    3.0010   -1.9043 C   0  0  0  0  0  0  0  0  0  0  0  0
    0.1820    2.3299   -0.9286 C   0  0  0  0  0  0  0  0  0  0  0  0
   -0.6877    0.4934   -0.2408 H   0  0  0  0  0  0  0  0  0  0  0  0
    0.1494   -0.8036   -2.2294 H   0  0  0  0  0  0  0  0  0  0  0  0
    1.9586    2.7640   -3.7847 H   0  0  0  0  0  0  0  0  0  0  0  0
    1.1144    4.0594   -1.7901 H   0  0  0  0  0  0  0  0  0  0  0  0
   -0.3067    3.0843    0.2351 N   0  0  0  0  0  0  0  0  0  0  0  0
   -0.0323    4.2829    0.2932 O   0  0  0  0  0  0  0  0  0  0  0  0
   -0.9574    2.4715    1.0804 O   0  0  0  0  0  0  0  0  0  0  0  0
    4.9967   -1.5381   -8.5419 N   0  0  0  0  0  0  0  0  0  0  0  0
    4.7796   -2.4897   -9.0601 N   0  0  0  0  0  0  0  0  0  0  0  0
    4.7130    0.3931   -2.7648 C   0  0  0  0  0  0  0  0  0  0  0  0
    5.8560    1.1851   -2.6849 C   0  0  0  0  0  0  0  0  0  0  0  0
    6.4999    1.6505   -3.8408 C   0  0  0  0  0  0  0  0  0  0  0  0
    5.9686    1.3008   -5.0917 C   0  0  0  0  0  0  0  0  0  0  0  0
    4.8257    0.5126   -5.1967 C   0  0  0  0  0  0  0  0  0  0  0  0
    4.2069    0.0680   -4.0256 C   0  0  0  0  0  0  0  0  0  0  0  0
    4.2274    0.0201   -1.8703 H   0  0  0  0  0  0  0  0  0  0  0  0
    6.2559    1.4432   -1.7083 H   0  0  0  0  0  0  0  0  0  0  0  0
    6.4588    1.6477   -5.9969 H   0  0  0  0  0  0  0  0  0  0  0  0
    4.4282    0.2309   -6.1653 H   0  0  0  0  0  0  0  0  0  0  0  0
    2.7309   -0.9182   -4.1483 S   0  0  0  0  0  0  0  0  0  0  0  0
    1.5219    0.2559   -4.2465 O   0  0  0  0  0  0  0  0  0  0  0  0
    2.5429   -1.6597   -2.9058 O   0  0  0  0  0  0  0  0  0  0  0  0
    2.6655   -1.5512   -5.4548 O   0  0  0  0  0  0  0  0  0  0  0  0
    7.7554    2.4812   -3.7419 C   0  0  0  0  0  0  0  0  0  0  0  0
    7.8709    3.1377   -4.6090 H   0  0  0  0  0  0  0  0  0  0  0  0
    7.7565    3.1000   -2.8400 H   0  0  0  0  0  0  0  0  0  0  0  0
    8.6434    1.8390   -3.6977 H   0  0  0  0  0  0  0  0  0  0  0  0
  1  6  1  0  0  0  0
  1  7  1  0  0  0  0
  2  1  2  0  0  0  0
  3  4  2  0  0  0  0
  3  2  1  0  0  0  0
  4  5  1  0  0  0  0
  5 10  1  0  0  0  0
  5  6  2  0  0  0  0
  6 11  1  0  0  0  0
  8  2  1  0  0  0  0
  9  4  1  0  0  0  0
 11 12  2  0  0  0  0
 11 13  2  0  0  0  0
 15 14  3  0  0  0  0
 16 17  1  0  0  0  0
 16 22  1  0  0  0  0
 17 23  1  0  0  0  0
 18 30  1  0  0  0  0
 18 17  2  0  0  0  0
 19 18  1  0  0  0  0
 20 19  2  0  0  0  0
 20 21  1  0  0  0  0
 21 16  2  0  0  0  0
 24 19  1  0  0  0  0
 25 20  1  0  0  0  0
 26 21  1  0  0  0  0
 26 28  2  0  0  0  0
 27 26  1  0  0  0  0
 27  3  1  0  0  0  0
 29 26  2  0  0  0  0
 30 33  1  0  0  0  0
 30 32  1  0  0  0  0
 31 30  1  0  0  0  0
M  END
