Coordinates from ORCA-job 4-NO2-Ph-N2-OTs-B3LYPG-6-31G_dp-MTMO-d009-169-n800
 OpenBabel09051908313D

 33 33  0  0  0  0  0  0  0  0999 V2000
    0.1083    1.1733   -0.1384 C   0  0  0  0  0  0  0  0  0  0  0  0
    0.3153    0.2018   -1.1121 C   0  0  0  0  0  0  0  0  0  0  0  0
    0.6844    0.5976   -2.4018 C   0  0  0  0  0  0  0  0  0  0  0  0
    0.8424    1.9467   -2.7329 C   0  0  0  0  0  0  0  0  0  0  0  0
    0.6284    2.9199   -1.7627 C   0  0  0  0  0  0  0  0  0  0  0  0
    0.2674    2.5166   -0.4779 C   0  0  0  0  0  0  0  0  0  0  0  0
   -0.1795    0.9104    0.8714 H   0  0  0  0  0  0  0  0  0  0  0  0
    0.1991   -0.8509   -0.8869 H   0  0  0  0  0  0  0  0  0  0  0  0
    1.1219    2.2142   -3.7455 H   0  0  0  0  0  0  0  0  0  0  0  0
    0.7370    3.9751   -1.9798 H   0  0  0  0  0  0  0  0  0  0  0  0
    0.0453    3.5431    0.5516 N   0  0  0  0  0  0  0  0  0  0  0  0
    0.1966    4.7201    0.2252 O   0  0  0  0  0  0  0  0  0  0  0  0
   -0.2767    3.1631    1.6766 O   0  0  0  0  0  0  0  0  0  0  0  0
   12.1859    1.2982   -7.9173 N   0  0  0  0  0  0  0  0  0  0  0  0
   13.1484    1.0899   -8.4191 N   0  0  0  0  0  0  0  0  0  0  0  0
    4.3338    0.1996   -3.0189 C   0  0  0  0  0  0  0  0  0  0  0  0
    5.3663    1.0220   -3.4679 C   0  0  0  0  0  0  0  0  0  0  0  0
    5.5473    1.2812   -4.8334 C   0  0  0  0  0  0  0  0  0  0  0  0
    4.6623    0.6921   -5.7516 C   0  0  0  0  0  0  0  0  0  0  0  0
    3.6256   -0.1325   -5.3266 C   0  0  0  0  0  0  0  0  0  0  0  0
    3.4714   -0.3688   -3.9572 C   0  0  0  0  0  0  0  0  0  0  0  0
    4.2043   -0.0117   -1.9633 H   0  0  0  0  0  0  0  0  0  0  0  0
    6.0437    1.4664   -2.7441 H   0  0  0  0  0  0  0  0  0  0  0  0
    4.7907    0.8803   -6.8142 H   0  0  0  0  0  0  0  0  0  0  0  0
    2.9517   -0.5975   -6.0379 H   0  0  0  0  0  0  0  0  0  0  0  0
    2.1336   -1.4044   -3.4042 S   0  0  0  0  0  0  0  0  0  0  0  0
    0.8284   -0.3362   -3.4183 O   0  0  0  0  0  0  0  0  0  0  0  0
    2.3787   -1.8083   -2.0237 O   0  0  0  0  0  0  0  0  0  0  0  0
    1.7760   -2.3518   -4.4458 O   0  0  0  0  0  0  0  0  0  0  0  0
    6.6834    2.1500   -5.3141 C   0  0  0  0  0  0  0  0  0  0  0  0
    7.5137    1.5357   -5.6835 H   0  0  0  0  0  0  0  0  0  0  0  0
    6.3702    2.7981   -6.1387 H   0  0  0  0  0  0  0  0  0  0  0  0
    7.0730    2.7816   -4.5117 H   0  0  0  0  0  0  0  0  0  0  0  0
  1  7  1  0  0  0  0
  2  8  1  0  0  0  0
  2  1  2  0  0  0  0
  3  2  1  0  0  0  0
  4  3  2  0  0  0  0
  4  5  1  0  0  0  0
  5  6  2  0  0  0  0
  6  1  1  0  0  0  0
  6 11  1  0  0  0  0
  9  4  1  0  0  0  0
 10  5  1  0  0  0  0
 11 13  2  0  0  0  0
 12 11  2  0  0  0  0
 15 14  3  0  0  0  0
 16 22  1  0  0  0  0
 17 16  1  0  0  0  0
 17 23  1  0  0  0  0
 18 17  2  0  0  0  0
 19 20  2  0  0  0  0
 19 18  1  0  0  0  0
 20 21  1  0  0  0  0
 21 26  1  0  0  0  0
 21 16  2  0  0  0  0
 24 19  1  0  0  0  0
 25 20  1  0  0  0  0
 26 28  2  0  0  0  0
 27 26  1  0  0  0  0
 27  3  1  0  0  0  0
 29 26  2  0  0  0  0
 30 18  1  0  0  0  0
 30 33  1  0  0  0  0
 31 30  1  0  0  0  0
 32 30  1  0  0  0  0
M  END
