Coordinates from ORCA-job 4-NO2-Ph-N2-OTs-B3LYPG-6-31G_dp-MTMO-d009-169-n800
 OpenBabel09051908313D

 33 33  0  0  0  0  0  0  0  0999 V2000
    0.1291    1.1703   -0.1517 C   0  0  0  0  0  0  0  0  0  0  0  0
    0.3392    0.2000   -1.1259 C   0  0  0  0  0  0  0  0  0  0  0  0
    0.7094    0.5975   -2.4147 C   0  0  0  0  0  0  0  0  0  0  0  0
    0.8653    1.9472   -2.7446 C   0  0  0  0  0  0  0  0  0  0  0  0
    0.6482    2.9192   -1.7739 C   0  0  0  0  0  0  0  0  0  0  0  0
    0.2862    2.5142   -0.4899 C   0  0  0  0  0  0  0  0  0  0  0  0
   -0.1596    0.9061    0.8575 H   0  0  0  0  0  0  0  0  0  0  0  0
    0.2246   -0.8530   -0.9016 H   0  0  0  0  0  0  0  0  0  0  0  0
    1.1457    2.2161   -3.7565 H   0  0  0  0  0  0  0  0  0  0  0  0
    0.7551    3.9748   -1.9900 H   0  0  0  0  0  0  0  0  0  0  0  0
    0.0607    3.5395    0.5402 N   0  0  0  0  0  0  0  0  0  0  0  0
    0.2104    4.7171    0.2149 O   0  0  0  0  0  0  0  0  0  0  0  0
   -0.2623    3.1580    1.6644 O   0  0  0  0  0  0  0  0  0  0  0  0
   11.7938    1.2736   -7.7365 N   0  0  0  0  0  0  0  0  0  0  0  0
   12.7662    1.0687   -8.2202 N   0  0  0  0  0  0  0  0  0  0  0  0
    4.3614    0.2046   -3.0309 C   0  0  0  0  0  0  0  0  0  0  0  0
    5.3937    1.0274   -3.4799 C   0  0  0  0  0  0  0  0  0  0  0  0
    5.5755    1.2856   -4.8455 C   0  0  0  0  0  0  0  0  0  0  0  0
    4.6915    0.6952   -5.7638 C   0  0  0  0  0  0  0  0  0  0  0  0
    3.6550   -0.1298   -5.3389 C   0  0  0  0  0  0  0  0  0  0  0  0
    3.5000   -0.3651   -3.9694 C   0  0  0  0  0  0  0  0  0  0  0  0
    4.2313   -0.0060   -1.9753 H   0  0  0  0  0  0  0  0  0  0  0  0
    6.0703    1.4728   -2.7561 H   0  0  0  0  0  0  0  0  0  0  0  0
    4.8205    0.8826   -6.8265 H   0  0  0  0  0  0  0  0  0  0  0  0
    2.9820   -0.5959   -6.0503 H   0  0  0  0  0  0  0  0  0  0  0  0
    2.1630   -1.4018   -3.4165 S   0  0  0  0  0  0  0  0  0  0  0  0
    0.8565   -0.3351   -3.4319 O   0  0  0  0  0  0  0  0  0  0  0  0
    2.4078   -1.8049   -2.0357 O   0  0  0  0  0  0  0  0  0  0  0  0
    1.8070   -2.3502   -4.4578 O   0  0  0  0  0  0  0  0  0  0  0  0
    6.7112    2.1550   -5.3263 C   0  0  0  0  0  0  0  0  0  0  0  0
    7.5404    1.5414   -5.6992 H   0  0  0  0  0  0  0  0  0  0  0  0
    6.3965    2.8054   -6.1485 H   0  0  0  0  0  0  0  0  0  0  0  0
    7.1027    2.7843   -4.5231 H   0  0  0  0  0  0  0  0  0  0  0  0
  1  7  1  0  0  0  0
  2  8  1  0  0  0  0
  2  1  2  0  0  0  0
  3  2  1  0  0  0  0
  4  3  2  0  0  0  0
  4  5  1  0  0  0  0
  5  6  2  0  0  0  0
  6  1  1  0  0  0  0
  6 11  1  0  0  0  0
  9  4  1  0  0  0  0
 10  5  1  0  0  0  0
 11 13  2  0  0  0  0
 12 11  2  0  0  0  0
 15 14  3  0  0  0  0
 16 22  1  0  0  0  0
 17 16  1  0  0  0  0
 17 23  1  0  0  0  0
 18 17  2  0  0  0  0
 19 20  2  0  0  0  0
 19 18  1  0  0  0  0
 20 21  1  0  0  0  0
 21 26  1  0  0  0  0
 21 16  2  0  0  0  0
 24 19  1  0  0  0  0
 25 20  1  0  0  0  0
 26 28  2  0  0  0  0
 27 26  1  0  0  0  0
 27  3  1  0  0  0  0
 29 26  2  0  0  0  0
 30 18  1  0  0  0  0
 30 33  1  0  0  0  0
 31 30  1  0  0  0  0
 32 30  1  0  0  0  0
M  END
