Coordinates from ORCA-job 4-NO2-Ph-N2-OTs-B3LYPG-6-31G_dp-MTMO-d009-169-n800
 OpenBabel09051908313D

 33 33  0  0  0  0  0  0  0  0999 V2000
   -0.0765    0.9232   -1.1180 C   0  0  0  0  0  0  0  0  0  0  0  0
    0.4268    0.1884   -2.1866 C   0  0  0  0  0  0  0  0  0  0  0  0
    1.1832    0.8410   -3.1656 C   0  0  0  0  0  0  0  0  0  0  0  0
    1.4350    2.2145   -3.0971 C   0  0  0  0  0  0  0  0  0  0  0  0
    0.9265    2.9522   -2.0332 C   0  0  0  0  0  0  0  0  0  0  0  0
    0.1812    2.2926   -1.0569 C   0  0  0  0  0  0  0  0  0  0  0  0
   -0.6664    0.4574   -0.3386 H   0  0  0  0  0  0  0  0  0  0  0  0
    0.2461   -0.8759   -2.2693 H   0  0  0  0  0  0  0  0  0  0  0  0
    2.0173    2.6859   -3.8809 H   0  0  0  0  0  0  0  0  0  0  0  0
    1.0983    4.0174   -1.9441 H   0  0  0  0  0  0  0  0  0  0  0  0
   -0.3513    3.0681    0.0734 N   0  0  0  0  0  0  0  0  0  0  0  0
   -0.1021    4.2731    0.1053 O   0  0  0  0  0  0  0  0  0  0  0  0
   -1.0108    2.4652    0.9191 O   0  0  0  0  0  0  0  0  0  0  0  0
    4.2069   -1.3644   -8.3904 N   0  0  0  0  0  0  0  0  0  0  0  0
    3.6642   -2.2212   -8.8287 N   0  0  0  0  0  0  0  0  0  0  0  0
    4.7999    0.3878   -2.7115 C   0  0  0  0  0  0  0  0  0  0  0  0
    5.9187    1.2122   -2.6144 C   0  0  0  0  0  0  0  0  0  0  0  0
    6.5673    1.6944   -3.7606 C   0  0  0  0  0  0  0  0  0  0  0  0
    6.0656    1.3286   -5.0194 C   0  0  0  0  0  0  0  0  0  0  0  0
    4.9481    0.5075   -5.1417 C   0  0  0  0  0  0  0  0  0  0  0  0
    4.3241    0.0464   -3.9795 C   0  0  0  0  0  0  0  0  0  0  0  0
    4.3098    0.0028   -1.8245 H   0  0  0  0  0  0  0  0  0  0  0  0
    6.2954    1.4828   -1.6320 H   0  0  0  0  0  0  0  0  0  0  0  0
    6.5599    1.6891   -5.9171 H   0  0  0  0  0  0  0  0  0  0  0  0
    4.5739    0.2148   -6.1165 H   0  0  0  0  0  0  0  0  0  0  0  0
    2.8789   -0.9818   -4.1224 S   0  0  0  0  0  0  0  0  0  0  0  0
    1.6440    0.1571   -4.2823 O   0  0  0  0  0  0  0  0  0  0  0  0
    2.6745   -1.7016   -2.8697 O   0  0  0  0  0  0  0  0  0  0  0  0
    2.8660   -1.6452   -5.4153 O   0  0  0  0  0  0  0  0  0  0  0  0
    7.7972    2.5604   -3.6443 C   0  0  0  0  0  0  0  0  0  0  0  0
    7.8940    3.2356   -4.4992 H   0  0  0  0  0  0  0  0  0  0  0  0
    7.7787    3.1623   -2.7314 H   0  0  0  0  0  0  0  0  0  0  0  0
    8.7040    1.9443   -3.6108 H   0  0  0  0  0  0  0  0  0  0  0  0
  1  6  1  0  0  0  0
  1  7  1  0  0  0  0
  2  1  2  0  0  0  0
  3  4  2  0  0  0  0
  3  2  1  0  0  0  0
  4  5  1  0  0  0  0
  5 10  1  0  0  0  0
  5  6  2  0  0  0  0
  6 11  1  0  0  0  0
  8  2  1  0  0  0  0
  9  4  1  0  0  0  0
 11 12  2  0  0  0  0
 11 13  2  0  0  0  0
 15 14  3  0  0  0  0
 16 17  1  0  0  0  0
 16 22  1  0  0  0  0
 17 23  1  0  0  0  0
 18 30  1  0  0  0  0
 18 17  2  0  0  0  0
 19 18  1  0  0  0  0
 20 19  2  0  0  0  0
 20 21  1  0  0  0  0
 21 16  2  0  0  0  0
 24 19  1  0  0  0  0
 25 20  1  0  0  0  0
 26 21  1  0  0  0  0
 26 28  2  0  0  0  0
 27 26  1  0  0  0  0
 27  3  1  0  0  0  0
 29 26  2  0  0  0  0
 30 33  1  0  0  0  0
 30 32  1  0  0  0  0
 31 30  1  0  0  0  0
M  END
