Coordinates from ORCA-job 4-NO2-Ph-N2-OTs-B3LYPG-6-31G_dp-MTMO-d009-169-n800
 OpenBabel09051908313D

 33 33  0  0  0  0  0  0  0  0999 V2000
    0.0399    0.8328   -1.6655 C   0  0  0  0  0  0  0  0  0  0  0  0
    0.7110    0.0132   -2.5671 C   0  0  0  0  0  0  0  0  0  0  0  0
    1.5435    0.5962   -3.5280 C   0  0  0  0  0  0  0  0  0  0  0  0
    1.7068    1.9823   -3.6064 C   0  0  0  0  0  0  0  0  0  0  0  0
    1.0308    2.8037   -2.7108 C   0  0  0  0  0  0  0  0  0  0  0  0
    0.2102    2.2145   -1.7499 C   0  0  0  0  0  0  0  0  0  0  0  0
   -0.6134    0.4226   -0.9058 H   0  0  0  0  0  0  0  0  0  0  0  0
    0.6036   -1.0637   -2.5327 H   0  0  0  0  0  0  0  0  0  0  0  0
    2.3517    2.3973   -4.3727 H   0  0  0  0  0  0  0  0  0  0  0  0
    1.1290    3.8817   -2.7398 H   0  0  0  0  0  0  0  0  0  0  0  0
   -0.4996    3.0795   -0.7957 N   0  0  0  0  0  0  0  0  0  0  0  0
   -0.3257    4.2945   -0.8893 O   0  0  0  0  0  0  0  0  0  0  0  0
   -1.2219    2.5367    0.0392 O   0  0  0  0  0  0  0  0  0  0  0  0
   -0.2908    0.1768   -6.3636 N   0  0  0  0  0  0  0  0  0  0  0  0
   -0.5521   -0.7174   -6.9582 N   0  0  0  0  0  0  0  0  0  0  0  0
    5.1041    0.3395   -2.5202 C   0  0  0  0  0  0  0  0  0  0  0  0
    6.1639    1.2293   -2.3549 C   0  0  0  0  0  0  0  0  0  0  0  0
    6.9097    1.6830   -3.4521 C   0  0  0  0  0  0  0  0  0  0  0  0
    6.5670    1.2225   -4.7336 C   0  0  0  0  0  0  0  0  0  0  0  0
    5.5129    0.3340   -4.9226 C   0  0  0  0  0  0  0  0  0  0  0  0
    4.7889   -0.0982   -3.8078 C   0  0  0  0  0  0  0  0  0  0  0  0
    4.5379   -0.0218   -1.6694 H   0  0  0  0  0  0  0  0  0  0  0  0
    6.4169    1.5741   -1.3563 H   0  0  0  0  0  0  0  0  0  0  0  0
    7.1370    1.5621   -5.5939 H   0  0  0  0  0  0  0  0  0  0  0  0
    5.2581   -0.0311   -5.9114 H   0  0  0  0  0  0  0  0  0  0  0  0
    3.4285   -1.2209   -4.0433 S   0  0  0  0  0  0  0  0  0  0  0  0
    2.1779   -0.1807   -4.4876 O   0  0  0  0  0  0  0  0  0  0  0  0
    3.0831   -1.8305   -2.7635 O   0  0  0  0  0  0  0  0  0  0  0  0
    3.6308   -2.0006   -5.2525 O   0  0  0  0  0  0  0  0  0  0  0  0
    8.0757    2.6211   -3.2597 C   0  0  0  0  0  0  0  0  0  0  0  0
    8.1815    3.3070   -4.1054 H   0  0  0  0  0  0  0  0  0  0  0  0
    7.9663    3.2144   -2.3479 H   0  0  0  0  0  0  0  0  0  0  0  0
    9.0151    2.0610   -3.1762 H   0  0  0  0  0  0  0  0  0  0  0  0
  1  7  1  0  0  0  0
  2  8  1  0  0  0  0
  2  1  2  0  0  0  0
  3  2  1  0  0  0  0
  4  3  2  0  0  0  0
  4  5  1  0  0  0  0
  5  6  2  0  0  0  0
  6  1  1  0  0  0  0
  6 11  1  0  0  0  0
  9  4  1  0  0  0  0
 10  5  1  0  0  0  0
 11 13  2  0  0  0  0
 12 11  2  0  0  0  0
 15 14  3  0  0  0  0
 16 17  1  0  0  0  0
 16 22  1  0  0  0  0
 17 23  1  0  0  0  0
 18 30  1  0  0  0  0
 18 17  2  0  0  0  0
 19 18  1  0  0  0  0
 20 19  2  0  0  0  0
 20 21  1  0  0  0  0
 21 16  2  0  0  0  0
 24 19  1  0  0  0  0
 25 20  1  0  0  0  0
 26 21  1  0  0  0  0
 26 28  2  0  0  0  0
 27 26  1  0  0  0  0
 27  3  1  0  0  0  0
 29 26  2  0  0  0  0
 30 33  1  0  0  0  0
 30 32  1  0  0  0  0
 31 30  1  0  0  0  0
M  END
