Coordinates from ORCA-job 4-NO2-Ph-N2-OTs-B3LYPG-6-31G_dp-MTMO-d009-169-n800
 OpenBabel09051908313D

 33 33  0  0  0  0  0  0  0  0999 V2000
    0.0543    0.8060   -1.4597 C   0  0  0  0  0  0  0  0  0  0  0  0
    0.7078   -0.0643   -2.3262 C   0  0  0  0  0  0  0  0  0  0  0  0
    1.4727    0.4631   -3.3718 C   0  0  0  0  0  0  0  0  0  0  0  0
    1.5861    1.8425   -3.5690 C   0  0  0  0  0  0  0  0  0  0  0  0
    0.9261    2.7135   -2.7088 C   0  0  0  0  0  0  0  0  0  0  0  0
    0.1733    2.1806   -1.6633 C   0  0  0  0  0  0  0  0  0  0  0  0
   -0.5473    0.4400   -0.6373 H   0  0  0  0  0  0  0  0  0  0  0  0
    0.6377   -1.1374   -2.2007 H   0  0  0  0  0  0  0  0  0  0  0  0
    2.1755    2.2118   -4.4002 H   0  0  0  0  0  0  0  0  0  0  0  0
    0.9856    3.7880   -2.8297 H   0  0  0  0  0  0  0  0  0  0  0  0
   -0.5198    3.0991   -0.7474 N   0  0  0  0  0  0  0  0  0  0  0  0
   -0.3949    4.3070   -0.9485 O   0  0  0  0  0  0  0  0  0  0  0  0
   -1.1802    2.6046    0.1653 O   0  0  0  0  0  0  0  0  0  0  0  0
    1.0015    0.9398   -6.9530 N   0  0  0  0  0  0  0  0  0  0  0  0
    0.3961    0.1644   -7.4566 N   0  0  0  0  0  0  0  0  0  0  0  0
    5.0784    0.3312   -2.4817 C   0  0  0  0  0  0  0  0  0  0  0  0
    6.1202    1.2543   -2.4126 C   0  0  0  0  0  0  0  0  0  0  0  0
    6.7998    1.6705   -3.5659 C   0  0  0  0  0  0  0  0  0  0  0  0
    6.4088    1.1379   -4.8050 C   0  0  0  0  0  0  0  0  0  0  0  0
    5.3722    0.2145   -4.8980 C   0  0  0  0  0  0  0  0  0  0  0  0
    4.7145   -0.1788   -3.7290 C   0  0  0  0  0  0  0  0  0  0  0  0
    4.5632   -0.0006   -1.5875 H   0  0  0  0  0  0  0  0  0  0  0  0
    6.4113    1.6550   -1.4458 H   0  0  0  0  0  0  0  0  0  0  0  0
    6.9271    1.4484   -5.7079 H   0  0  0  0  0  0  0  0  0  0  0  0
    5.0809   -0.2063   -5.8540 H   0  0  0  0  0  0  0  0  0  0  0  0
    3.3778   -1.3482   -3.8418 S   0  0  0  0  0  0  0  0  0  0  0  0
    2.0825   -0.3704   -4.2994 O   0  0  0  0  0  0  0  0  0  0  0  0
    3.0987   -1.8864   -2.5147 O   0  0  0  0  0  0  0  0  0  0  0  0
    3.5551   -2.1957   -5.0084 O   0  0  0  0  0  0  0  0  0  0  0  0
    7.9476    2.6453   -3.4779 C   0  0  0  0  0  0  0  0  0  0  0  0
    7.9854    3.2992   -4.3543 H   0  0  0  0  0  0  0  0  0  0  0  0
    7.8745    3.2720   -2.5849 H   0  0  0  0  0  0  0  0  0  0  0  0
    8.9057    2.1137   -3.4284 H   0  0  0  0  0  0  0  0  0  0  0  0
  1  7  1  0  0  0  0
  2  8  1  0  0  0  0
  2  1  2  0  0  0  0
  3  2  1  0  0  0  0
  4  3  2  0  0  0  0
  4  5  1  0  0  0  0
  5  6  2  0  0  0  0
  6  1  1  0  0  0  0
  6 11  1  0  0  0  0
  9  4  1  0  0  0  0
 10  5  1  0  0  0  0
 11 13  2  0  0  0  0
 12 11  2  0  0  0  0
 15 14  3  0  0  0  0
 16 17  1  0  0  0  0
 16 22  1  0  0  0  0
 17 23  1  0  0  0  0
 18 30  1  0  0  0  0
 18 17  2  0  0  0  0
 19 18  1  0  0  0  0
 20 19  2  0  0  0  0
 20 21  1  0  0  0  0
 21 16  2  0  0  0  0
 24 19  1  0  0  0  0
 25 20  1  0  0  0  0
 26 21  1  0  0  0  0
 26 28  2  0  0  0  0
 27 26  1  0  0  0  0
 27  3  1  0  0  0  0
 29 26  2  0  0  0  0
 30 33  1  0  0  0  0
 30 32  1  0  0  0  0
 31 30  1  0  0  0  0
M  END
