Coordinates from ORCA-job 4-NO2-Ph-N2-OTs-B3LYPG-6-31G_dp-MTMO-d009-169-n800
 OpenBabel09051908313D

 33 33  0  0  0  0  0  0  0  0999 V2000
    0.0848    1.1767   -0.1249 C   0  0  0  0  0  0  0  0  0  0  0  0
    0.2890    0.2044   -1.0984 C   0  0  0  0  0  0  0  0  0  0  0  0
    0.6591    0.5989   -2.3882 C   0  0  0  0  0  0  0  0  0  0  0  0
    0.8209    1.9475   -2.7196 C   0  0  0  0  0  0  0  0  0  0  0  0
    0.6098    2.9215   -1.7496 C   0  0  0  0  0  0  0  0  0  0  0  0
    0.2477    2.5195   -0.4646 C   0  0  0  0  0  0  0  0  0  0  0  0
   -0.2037    0.9148    0.8850 H   0  0  0  0  0  0  0  0  0  0  0  0
    0.1698   -0.8478   -0.8730 H   0  0  0  0  0  0  0  0  0  0  0  0
    1.1011    2.2141   -3.7322 H   0  0  0  0  0  0  0  0  0  0  0  0
    0.7214    3.9763   -1.9668 H   0  0  0  0  0  0  0  0  0  0  0  0
    0.0286    3.5468    0.5647 N   0  0  0  0  0  0  0  0  0  0  0  0
    0.1836    4.7233    0.2382 O   0  0  0  0  0  0  0  0  0  0  0  0
   -0.2947    3.1680    1.6898 O   0  0  0  0  0  0  0  0  0  0  0  0
   12.5760    1.3280   -8.1006 N   0  0  0  0  0  0  0  0  0  0  0  0
   13.5333    1.1201   -8.6125 N   0  0  0  0  0  0  0  0  0  0  0  0
    4.3067    0.1946   -3.0075 C   0  0  0  0  0  0  0  0  0  0  0  0
    5.3400    1.0155   -3.4574 C   0  0  0  0  0  0  0  0  0  0  0  0
    5.5202    1.2743   -4.8231 C   0  0  0  0  0  0  0  0  0  0  0  0
    4.6339    0.6862   -5.7405 C   0  0  0  0  0  0  0  0  0  0  0  0
    3.5963   -0.1370   -5.3147 C   0  0  0  0  0  0  0  0  0  0  0  0
    3.4428   -0.3728   -3.9451 C   0  0  0  0  0  0  0  0  0  0  0  0
    4.1777   -0.0163   -1.9518 H   0  0  0  0  0  0  0  0  0  0  0  0
    6.0185    1.4592   -2.7342 H   0  0  0  0  0  0  0  0  0  0  0  0
    4.7617    0.8741   -6.8033 H   0  0  0  0  0  0  0  0  0  0  0  0
    2.9212   -0.6011   -6.0253 H   0  0  0  0  0  0  0  0  0  0  0  0
    2.1037   -1.4060   -3.3909 S   0  0  0  0  0  0  0  0  0  0  0  0
    0.8004   -0.3355   -3.4045 O   0  0  0  0  0  0  0  0  0  0  0  0
    2.3490   -1.8099   -2.0104 O   0  0  0  0  0  0  0  0  0  0  0  0
    1.7437   -2.3530   -4.4320 O   0  0  0  0  0  0  0  0  0  0  0  0
    6.6572    2.1416   -5.3047 C   0  0  0  0  0  0  0  0  0  0  0  0
    7.4880    1.5261   -5.6709 H   0  0  0  0  0  0  0  0  0  0  0  0
    6.3453    2.7873   -6.1316 H   0  0  0  0  0  0  0  0  0  0  0  0
    7.0456    2.7754   -4.5035 H   0  0  0  0  0  0  0  0  0  0  0  0
  1  7  1  0  0  0  0
  2  8  1  0  0  0  0
  2  1  2  0  0  0  0
  3  2  1  0  0  0  0
  4  3  2  0  0  0  0
  4  5  1  0  0  0  0
  5  6  2  0  0  0  0
  6  1  1  0  0  0  0
  6 11  1  0  0  0  0
  9  4  1  0  0  0  0
 10  5  1  0  0  0  0
 11 13  2  0  0  0  0
 12 11  2  0  0  0  0
 15 14  3  0  0  0  0
 16 22  1  0  0  0  0
 17 16  1  0  0  0  0
 17 23  1  0  0  0  0
 18 17  2  0  0  0  0
 19 20  2  0  0  0  0
 19 18  1  0  0  0  0
 20 21  1  0  0  0  0
 21 26  1  0  0  0  0
 21 16  2  0  0  0  0
 24 19  1  0  0  0  0
 25 20  1  0  0  0  0
 26 28  2  0  0  0  0
 27 26  1  0  0  0  0
 27  3  1  0  0  0  0
 29 26  2  0  0  0  0
 30 18  1  0  0  0  0
 30 33  1  0  0  0  0
 31 30  1  0  0  0  0
 32 30  1  0  0  0  0
M  END
