Coordinates from ORCA-job 4-NO2-Ph-N2-OTs-B3LYPG-6-31G_dp-MTMO-d009-169-n800
 OpenBabel09051908313D

 33 33  0  0  0  0  0  0  0  0999 V2000
    0.0384    1.1841   -0.3239 C   0  0  0  0  0  0  0  0  0  0  0  0
    0.3421    0.2156   -1.2750 C   0  0  0  0  0  0  0  0  0  0  0  0
    0.8183    0.6162   -2.5277 C   0  0  0  0  0  0  0  0  0  0  0  0
    0.9870    1.9674   -2.8448 C   0  0  0  0  0  0  0  0  0  0  0  0
    0.6759    2.9376   -1.8980 C   0  0  0  0  0  0  0  0  0  0  0  0
    0.2095    2.5295   -0.6491 C   0  0  0  0  0  0  0  0  0  0  0  0
   -0.3327    0.9169    0.6571 H   0  0  0  0  0  0  0  0  0  0  0  0
    0.2198   -0.8383   -1.0591 H   0  0  0  0  0  0  0  0  0  0  0  0
    1.3500    2.2388   -3.8294 H   0  0  0  0  0  0  0  0  0  0  0  0
    0.7893    3.9942   -2.1058 H   0  0  0  0  0  0  0  0  0  0  0  0
   -0.1148    3.5526    0.3563 N   0  0  0  0  0  0  0  0  0  0  0  0
    0.0500    4.7316    0.0437 O   0  0  0  0  0  0  0  0  0  0  0  0
   -0.5296    3.1682    1.4490 O   0  0  0  0  0  0  0  0  0  0  0  0
    9.6241    1.1866   -8.0916 N   0  0  0  0  0  0  0  0  0  0  0  0
   10.4630    1.1203   -8.8080 N   0  0  0  0  0  0  0  0  0  0  0  0
    4.5089    0.2565   -2.8771 C   0  0  0  0  0  0  0  0  0  0  0  0
    5.5815    1.0584   -3.2655 C   0  0  0  0  0  0  0  0  0  0  0  0
    5.8946    1.2486   -4.6185 C   0  0  0  0  0  0  0  0  0  0  0  0
    5.1060    0.6046   -5.5865 C   0  0  0  0  0  0  0  0  0  0  0  0
    4.0301   -0.1985   -5.2227 C   0  0  0  0  0  0  0  0  0  0  0  0
    3.7411   -0.3626   -3.8643 C   0  0  0  0  0  0  0  0  0  0  0  0
    4.2807    0.0952   -1.8295 H   0  0  0  0  0  0  0  0  0  0  0  0
    6.1892    1.5380   -2.5035 H   0  0  0  0  0  0  0  0  0  0  0  0
    5.3445    0.7291   -6.6395 H   0  0  0  0  0  0  0  0  0  0  0  0
    3.4318   -0.7074   -5.9704 H   0  0  0  0  0  0  0  0  0  0  0  0
    2.3618   -1.3831   -3.3915 S   0  0  0  0  0  0  0  0  0  0  0  0
    1.0632   -0.3141   -3.5278 O   0  0  0  0  0  0  0  0  0  0  0  0
    2.4992   -1.7564   -1.9876 O   0  0  0  0  0  0  0  0  0  0  0  0
    2.0831   -2.3535   -4.4362 O   0  0  0  0  0  0  0  0  0  0  0  0
    7.0452    2.1320   -5.0341 C   0  0  0  0  0  0  0  0  0  0  0  0
    7.6489    1.6610   -5.8162 H   0  0  0  0  0  0  0  0  0  0  0  0
    6.6791    3.0834   -5.4380 H   0  0  0  0  0  0  0  0  0  0  0  0
    7.6990    2.3624   -4.1892 H   0  0  0  0  0  0  0  0  0  0  0  0
  1  7  1  0  0  0  0
  2  8  1  0  0  0  0
  2  1  2  0  0  0  0
  3  2  1  0  0  0  0
  4  3  2  0  0  0  0
  4  5  1  0  0  0  0
  5  6  2  0  0  0  0
  6  1  1  0  0  0  0
  6 11  1  0  0  0  0
  9  4  1  0  0  0  0
 10  5  1  0  0  0  0
 11 13  2  0  0  0  0
 12 11  2  0  0  0  0
 15 14  3  0  0  0  0
 16 22  1  0  0  0  0
 17 16  1  0  0  0  0
 17 23  1  0  0  0  0
 18 17  2  0  0  0  0
 19 20  2  0  0  0  0
 19 18  1  0  0  0  0
 20 21  1  0  0  0  0
 21 26  1  0  0  0  0
 21 16  2  0  0  0  0
 24 19  1  0  0  0  0
 25 20  1  0  0  0  0
 26 28  2  0  0  0  0
 27 26  1  0  0  0  0
 27  3  1  0  0  0  0
 29 26  2  0  0  0  0
 30 18  1  0  0  0  0
 30 33  1  0  0  0  0
 31 30  1  0  0  0  0
 32 30  1  0  0  0  0
M  END
