Coordinates from ORCA-job 4-NO2-Ph-N2-OTs-B3LYPG-6-31G_dp-MTMO-d009-169-n800
 OpenBabel09051908313D

 33 33  0  0  0  0  0  0  0  0999 V2000
   -0.1048    1.5438   -0.1517 C   0  0  0  0  0  0  0  0  0  0  0  0
   -0.0423    0.5428   -1.1156 C   0  0  0  0  0  0  0  0  0  0  0  0
    0.4285    0.8573   -2.3947 C   0  0  0  0  0  0  0  0  0  0  0  0
    0.8268    2.1561   -2.7255 C   0  0  0  0  0  0  0  0  0  0  0  0
    0.7563    3.1601   -1.7658 C   0  0  0  0  0  0  0  0  0  0  0  0
    0.2948    2.8363   -0.4907 C   0  0  0  0  0  0  0  0  0  0  0  0
   -0.4629    1.3433    0.8498 H   0  0  0  0  0  0  0  0  0  0  0  0
   -0.3472   -0.4711   -0.8905 H   0  0  0  0  0  0  0  0  0  0  0  0
    1.1771    2.3630   -3.7303 H   0  0  0  0  0  0  0  0  0  0  0  0
    1.0524    4.1783   -1.9833 H   0  0  0  0  0  0  0  0  0  0  0  0
    0.2252    3.8939    0.5285 N   0  0  0  0  0  0  0  0  0  0  0  0
    0.5787    5.0262    0.2003 O   0  0  0  0  0  0  0  0  0  0  0  0
   -0.1805    3.5826    1.6475 O   0  0  0  0  0  0  0  0  0  0  0  0
   14.8442    3.4963   -9.5284 N   0  0  0  0  0  0  0  0  0  0  0  0
   15.6849    3.5447  -10.2443 N   0  0  0  0  0  0  0  0  0  0  0  0
    3.9491   -0.2255   -2.8295 C   0  0  0  0  0  0  0  0  0  0  0  0
    5.1438    0.3759   -3.2222 C   0  0  0  0  0  0  0  0  0  0  0  0
    5.4511    0.5644   -4.5768 C   0  0  0  0  0  0  0  0  0  0  0  0
    4.5259    0.1333   -5.5416 C   0  0  0  0  0  0  0  0  0  0  0  0
    3.3271   -0.4695   -5.1730 C   0  0  0  0  0  0  0  0  0  0  0  0
    3.0507   -0.6413   -3.8136 C   0  0  0  0  0  0  0  0  0  0  0  0
    3.7193   -0.3839   -1.7818 H   0  0  0  0  0  0  0  0  0  0  0  0
    5.8494    0.7016   -2.4631 H   0  0  0  0  0  0  0  0  0  0  0  0
    4.7505    0.2693   -6.5962 H   0  0  0  0  0  0  0  0  0  0  0  0
    2.6197   -0.8140   -5.9193 H   0  0  0  0  0  0  0  0  0  0  0  0
    1.5115   -1.3943   -3.3330 S   0  0  0  0  0  0  0  0  0  0  0  0
    0.4400   -0.0940   -3.4048 O   0  0  0  0  0  0  0  0  0  0  0  0
    1.6057   -1.8334   -1.9446 O   0  0  0  0  0  0  0  0  0  0  0  0
    1.0286   -2.2585   -4.3963 O   0  0  0  0  0  0  0  0  0  0  0  0
    6.7591    1.1902   -4.9943 C   0  0  0  0  0  0  0  0  0  0  0  0
    7.4962    0.4183   -5.2470 H   0  0  0  0  0  0  0  0  0  0  0  0
    6.6346    1.8219   -5.8789 H   0  0  0  0  0  0  0  0  0  0  0  0
    7.1851    1.8007   -4.1936 H   0  0  0  0  0  0  0  0  0  0  0  0
  1  7  1  0  0  0  0
  2  8  1  0  0  0  0
  2  1  2  0  0  0  0
  3  2  1  0  0  0  0
  4  3  2  0  0  0  0
  4  5  1  0  0  0  0
  5  6  2  0  0  0  0
  6  1  1  0  0  0  0
  6 11  1  0  0  0  0
  9  4  1  0  0  0  0
 10  5  1  0  0  0  0
 11 13  2  0  0  0  0
 12 11  2  0  0  0  0
 15 14  3  0  0  0  0
 16 22  1  0  0  0  0
 17 16  1  0  0  0  0
 17 23  1  0  0  0  0
 18 17  2  0  0  0  0
 19 20  2  0  0  0  0
 19 18  1  0  0  0  0
 20 21  1  0  0  0  0
 21 26  1  0  0  0  0
 21 16  2  0  0  0  0
 24 19  1  0  0  0  0
 25 20  1  0  0  0  0
 26 28  2  0  0  0  0
 27 26  1  0  0  0  0
 27  3  1  0  0  0  0
 29 26  2  0  0  0  0
 30 18  1  0  0  0  0
 30 33  1  0  0  0  0
 31 30  1  0  0  0  0
 32 30  1  0  0  0  0
M  END
