Coordinates from ORCA-job 4-NO2-Ph-N2-OTs-B3LYPG-6-31G_dp-MTMO-d009-169-n800
 OpenBabel09051908313D

 33 33  0  0  0  0  0  0  0  0999 V2000
   -0.0177    1.2085   -0.0758 C   0  0  0  0  0  0  0  0  0  0  0  0
    0.1687    0.2311   -1.0478 C   0  0  0  0  0  0  0  0  0  0  0  0
    0.5493    0.6164   -2.3373 C   0  0  0  0  0  0  0  0  0  0  0  0
    0.7391    1.9610   -2.6700 C   0  0  0  0  0  0  0  0  0  0  0  0
    0.5460    2.9402   -1.7016 C   0  0  0  0  0  0  0  0  0  0  0  0
    0.1733    2.5473   -0.4169 C   0  0  0  0  0  0  0  0  0  0  0  0
   -0.3134    0.9538    0.9338 H   0  0  0  0  0  0  0  0  0  0  0  0
    0.0277   -0.8183   -0.8214 H   0  0  0  0  0  0  0  0  0  0  0  0
    1.0270    2.2204   -3.6824 H   0  0  0  0  0  0  0  0  0  0  0  0
    0.6798    3.9923   -1.9198 H   0  0  0  0  0  0  0  0  0  0  0  0
   -0.0269    3.5801    0.6108 N   0  0  0  0  0  0  0  0  0  0  0  0
    0.1529    4.7528    0.2831 O   0  0  0  0  0  0  0  0  0  0  0  0
   -0.3603    3.2094    1.7355 O   0  0  0  0  0  0  0  0  0  0  0  0
   14.1646    1.5458   -8.8879 N   0  0  0  0  0  0  0  0  0  0  0  0
   15.1090    1.3504   -9.4280 N   0  0  0  0  0  0  0  0  0  0  0  0
    4.1874    0.1528   -2.9534 C   0  0  0  0  0  0  0  0  0  0  0  0
    5.2325    0.9584   -3.4036 C   0  0  0  0  0  0  0  0  0  0  0  0
    5.4166    1.2138   -4.7695 C   0  0  0  0  0  0  0  0  0  0  0  0
    4.5221    0.6378   -5.6867 C   0  0  0  0  0  0  0  0  0  0  0  0
    3.4726   -0.1700   -5.2605 C   0  0  0  0  0  0  0  0  0  0  0  0
    3.3153   -0.4025   -3.8907 C   0  0  0  0  0  0  0  0  0  0  0  0
    4.0551   -0.0553   -1.8976 H   0  0  0  0  0  0  0  0  0  0  0  0
    5.9172    1.3927   -2.6806 H   0  0  0  0  0  0  0  0  0  0  0  0
    4.6528    0.8231   -6.7496 H   0  0  0  0  0  0  0  0  0  0  0  0
    2.7909   -0.6246   -5.9710 H   0  0  0  0  0  0  0  0  0  0  0  0
    1.9597   -1.4138   -3.3360 S   0  0  0  0  0  0  0  0  0  0  0  0
    0.6738   -0.3225   -3.3517 O   0  0  0  0  0  0  0  0  0  0  0  0
    2.1977   -1.8197   -1.9549 O   0  0  0  0  0  0  0  0  0  0  0  0
    1.5853   -2.3563   -4.3762 O   0  0  0  0  0  0  0  0  0  0  0  0
    6.5658    2.0647   -5.2512 C   0  0  0  0  0  0  0  0  0  0  0  0
    7.3910    1.4372   -5.6097 H   0  0  0  0  0  0  0  0  0  0  0  0
    6.2652    2.7089   -6.0834 H   0  0  0  0  0  0  0  0  0  0  0  0
    6.9581    2.6988   -4.4521 H   0  0  0  0  0  0  0  0  0  0  0  0
  1  7  1  0  0  0  0
  2  8  1  0  0  0  0
  2  1  2  0  0  0  0
  3  2  1  0  0  0  0
  4  3  2  0  0  0  0
  4  5  1  0  0  0  0
  5  6  2  0  0  0  0
  6  1  1  0  0  0  0
  6 11  1  0  0  0  0
  9  4  1  0  0  0  0
 10  5  1  0  0  0  0
 11 13  2  0  0  0  0
 12 11  2  0  0  0  0
 15 14  3  0  0  0  0
 16 22  1  0  0  0  0
 17 16  1  0  0  0  0
 17 23  1  0  0  0  0
 18 17  2  0  0  0  0
 19 20  2  0  0  0  0
 19 18  1  0  0  0  0
 20 21  1  0  0  0  0
 21 26  1  0  0  0  0
 21 16  2  0  0  0  0
 24 19  1  0  0  0  0
 25 20  1  0  0  0  0
 26 28  2  0  0  0  0
 27 26  1  0  0  0  0
 27  3  1  0  0  0  0
 29 26  2  0  0  0  0
 30 18  1  0  0  0  0
 30 33  1  0  0  0  0
 31 30  1  0  0  0  0
 32 30  1  0  0  0  0
M  END
