Coordinates from ORCA-job 4-NO2-Ph-N2-OTs-B3LYPG-6-31G_dp-MTMO-d009-169-n800
 OpenBabel09051908313D

 33 33  0  0  0  0  0  0  0  0999 V2000
    0.0061    1.2212   -0.4846 C   0  0  0  0  0  0  0  0  0  0  0  0
    0.3466    0.2419   -1.4120 C   0  0  0  0  0  0  0  0  0  0  0  0
    0.8780    0.6284   -2.6470 C   0  0  0  0  0  0  0  0  0  0  0  0
    1.0642    1.9759   -2.9701 C   0  0  0  0  0  0  0  0  0  0  0  0
    0.7157    2.9566   -2.0476 C   0  0  0  0  0  0  0  0  0  0  0  0
    0.1953    2.5627   -0.8155 C   0  0  0  0  0  0  0  0  0  0  0  0
   -0.4072    0.9649    0.4824 H   0  0  0  0  0  0  0  0  0  0  0  0
    0.2113   -0.8092   -1.1910 H   0  0  0  0  0  0  0  0  0  0  0  0
    1.4698    2.2361   -3.9411 H   0  0  0  0  0  0  0  0  0  0  0  0
    0.8413    4.0107   -2.2612 H   0  0  0  0  0  0  0  0  0  0  0  0
   -0.1680    3.5969    0.1647 N   0  0  0  0  0  0  0  0  0  0  0  0
    0.0121    4.7723   -0.1532 O   0  0  0  0  0  0  0  0  0  0  0  0
   -0.6282    3.2248    1.2434 O   0  0  0  0  0  0  0  0  0  0  0  0
    8.3416    1.3040   -8.5031 N   0  0  0  0  0  0  0  0  0  0  0  0
    9.0503    1.2388   -9.3485 N   0  0  0  0  0  0  0  0  0  0  0  0
    4.5613    0.2115   -2.7373 C   0  0  0  0  0  0  0  0  0  0  0  0
    5.6651    1.0040   -3.0404 C   0  0  0  0  0  0  0  0  0  0  0  0
    6.0737    1.2047   -4.3684 C   0  0  0  0  0  0  0  0  0  0  0  0
    5.3494    0.5806   -5.3948 C   0  0  0  0  0  0  0  0  0  0  0  0
    4.2411   -0.2157   -5.1150 C   0  0  0  0  0  0  0  0  0  0  0  0
    3.8570   -0.3898   -3.7837 C   0  0  0  0  0  0  0  0  0  0  0  0
    4.2577    0.0425   -1.7102 H   0  0  0  0  0  0  0  0  0  0  0  0
    6.2231    1.4688   -2.2324 H   0  0  0  0  0  0  0  0  0  0  0  0
    5.6642    0.7138   -6.4259 H   0  0  0  0  0  0  0  0  0  0  0  0
    3.6912   -0.7097   -5.9084 H   0  0  0  0  0  0  0  0  0  0  0  0
    2.4368   -1.3978   -3.4180 S   0  0  0  0  0  0  0  0  0  0  0  0
    1.1634   -0.3110   -3.6276 O   0  0  0  0  0  0  0  0  0  0  0  0
    2.4758   -1.7898   -2.0129 O   0  0  0  0  0  0  0  0  0  0  0  0
    2.2157   -2.3524   -4.4906 O   0  0  0  0  0  0  0  0  0  0  0  0
    7.2621    2.0806   -4.6810 C   0  0  0  0  0  0  0  0  0  0  0  0
    7.5816    1.9646   -5.7194 H   0  0  0  0  0  0  0  0  0  0  0  0
    7.0191    3.1386   -4.5229 H   0  0  0  0  0  0  0  0  0  0  0  0
    8.1110    1.8453   -4.0312 H   0  0  0  0  0  0  0  0  0  0  0  0
  1  7  1  0  0  0  0
  2  8  1  0  0  0  0
  2  1  2  0  0  0  0
  3  2  1  0  0  0  0
  4  3  2  0  0  0  0
  4  5  1  0  0  0  0
  5  6  2  0  0  0  0
  6  1  1  0  0  0  0
  6 11  1  0  0  0  0
  9  4  1  0  0  0  0
 10  5  1  0  0  0  0
 11 13  2  0  0  0  0
 12 11  2  0  0  0  0
 15 14  3  0  0  0  0
 16 22  1  0  0  0  0
 17 16  1  0  0  0  0
 17 23  1  0  0  0  0
 18 17  2  0  0  0  0
 19 20  2  0  0  0  0
 19 18  1  0  0  0  0
 20 21  1  0  0  0  0
 21 26  1  0  0  0  0
 21 16  2  0  0  0  0
 24 19  1  0  0  0  0
 25 20  1  0  0  0  0
 26 28  2  0  0  0  0
 27 26  1  0  0  0  0
 27  3  1  0  0  0  0
 29 26  2  0  0  0  0
 30 32  1  0  0  0  0
 30 18  1  0  0  0  0
 30 33  1  0  0  0  0
 31 30  1  0  0  0  0
M  END
