Coordinates from ORCA-job 4-NO2-Ph-N2-OTs-B3LYPG-6-31G_dp-MTMO-d009-169-n800
 OpenBabel09051908313D

 33 33  0  0  0  0  0  0  0  0999 V2000
    0.0539    0.8190   -1.3611 C   0  0  0  0  0  0  0  0  0  0  0  0
    0.6800   -0.0634   -2.2354 C   0  0  0  0  0  0  0  0  0  0  0  0
    1.4112    0.4490   -3.3122 C   0  0  0  0  0  0  0  0  0  0  0  0
    1.5181    1.8256   -3.5324 C   0  0  0  0  0  0  0  0  0  0  0  0
    0.8854    2.7085   -2.6638 C   0  0  0  0  0  0  0  0  0  0  0  0
    0.1658    2.1905   -1.5878 C   0  0  0  0  0  0  0  0  0  0  0  0
   -0.5213    0.4645   -0.5152 H   0  0  0  0  0  0  0  0  0  0  0  0
    0.6144   -1.1347   -2.0930 H   0  0  0  0  0  0  0  0  0  0  0  0
    2.0827    2.1833   -4.3859 H   0  0  0  0  0  0  0  0  0  0  0  0
    0.9412    3.7812   -2.8015 H   0  0  0  0  0  0  0  0  0  0  0  0
   -0.4983    3.1219   -0.6636 N   0  0  0  0  0  0  0  0  0  0  0  0
   -0.3801    4.3268   -0.8854 O   0  0  0  0  0  0  0  0  0  0  0  0
   -1.1299    2.6403    0.2761 O   0  0  0  0  0  0  0  0  0  0  0  0
    1.8952    0.9302   -7.0948 N   0  0  0  0  0  0  0  0  0  0  0  0
    1.2492    0.2350   -7.6610 N   0  0  0  0  0  0  0  0  0  0  0  0
    5.0467    0.2974   -2.4983 C   0  0  0  0  0  0  0  0  0  0  0  0
    6.0855    1.2253   -2.4531 C   0  0  0  0  0  0  0  0  0  0  0  0
    6.7141    1.6696   -3.6246 C   0  0  0  0  0  0  0  0  0  0  0  0
    6.2742    1.1610   -4.8573 C   0  0  0  0  0  0  0  0  0  0  0  0
    5.2401    0.2329   -4.9266 C   0  0  0  0  0  0  0  0  0  0  0  0
    4.6344   -0.1893   -3.7397 C   0  0  0  0  0  0  0  0  0  0  0  0
    4.5702   -0.0559   -1.5909 H   0  0  0  0  0  0  0  0  0  0  0  0
    6.4144    1.6078   -1.4910 H   0  0  0  0  0  0  0  0  0  0  0  0
    6.7519    1.4943   -5.7743 H   0  0  0  0  0  0  0  0  0  0  0  0
    4.9107   -0.1679   -5.8788 H   0  0  0  0  0  0  0  0  0  0  0  0
    3.3025   -1.3668   -3.8202 S   0  0  0  0  0  0  0  0  0  0  0  0
    1.9901   -0.3980   -4.2471 O   0  0  0  0  0  0  0  0  0  0  0  0
    3.0591   -1.9066   -2.4867 O   0  0  0  0  0  0  0  0  0  0  0  0
    3.4552   -2.2134   -4.9910 O   0  0  0  0  0  0  0  0  0  0  0  0
    7.8599    2.6487   -3.5632 C   0  0  0  0  0  0  0  0  0  0  0  0
    7.8714    3.3072   -4.4368 H   0  0  0  0  0  0  0  0  0  0  0  0
    7.8091    3.2704   -2.6652 H   0  0  0  0  0  0  0  0  0  0  0  0
    8.8211    2.1205   -3.5422 H   0  0  0  0  0  0  0  0  0  0  0  0
  1  7  1  0  0  0  0
  2  8  1  0  0  0  0
  2  1  2  0  0  0  0
  3  2  1  0  0  0  0
  4  3  2  0  0  0  0
  4  5  1  0  0  0  0
  5  6  2  0  0  0  0
  6  1  1  0  0  0  0
  6 11  1  0  0  0  0
  9  4  1  0  0  0  0
 10  5  1  0  0  0  0
 11 13  2  0  0  0  0
 12 11  2  0  0  0  0
 15 14  3  0  0  0  0
 16 17  1  0  0  0  0
 16 22  1  0  0  0  0
 17 23  1  0  0  0  0
 18 30  1  0  0  0  0
 18 17  2  0  0  0  0
 19 18  1  0  0  0  0
 20 19  2  0  0  0  0
 20 21  1  0  0  0  0
 21 16  2  0  0  0  0
 24 19  1  0  0  0  0
 25 20  1  0  0  0  0
 26 21  1  0  0  0  0
 26 28  2  0  0  0  0
 27 26  1  0  0  0  0
 27  3  1  0  0  0  0
 29 26  2  0  0  0  0
 30 33  1  0  0  0  0
 30 32  1  0  0  0  0
 31 30  1  0  0  0  0
M  END
