Coordinates from ORCA-job 4-NO2-Ph-N2-OTs-B3LYPG-6-31G_dp-MTMO-d009-169-n800
 OpenBabel09051908313D

 33 33  0  0  0  0  0  0  0  0999 V2000
    0.1308    1.1697   -0.1541 C   0  0  0  0  0  0  0  0  0  0  0  0
    0.3421    0.1998   -1.1285 C   0  0  0  0  0  0  0  0  0  0  0  0
    0.7138    0.5980   -2.4168 C   0  0  0  0  0  0  0  0  0  0  0  0
    0.8700    1.9478   -2.7458 C   0  0  0  0  0  0  0  0  0  0  0  0
    0.6517    2.9193   -1.7749 C   0  0  0  0  0  0  0  0  0  0  0  0
    0.2882    2.5138   -0.4915 C   0  0  0  0  0  0  0  0  0  0  0  0
   -0.1592    0.9049    0.8546 H   0  0  0  0  0  0  0  0  0  0  0  0
    0.2274   -0.8533   -0.9049 H   0  0  0  0  0  0  0  0  0  0  0  0
    1.1516    2.2172   -3.7573 H   0  0  0  0  0  0  0  0  0  0  0  0
    0.7588    3.9750   -1.9904 H   0  0  0  0  0  0  0  0  0  0  0  0
    0.0613    3.5385    0.5388 N   0  0  0  0  0  0  0  0  0  0  0  0
    0.2115    4.7162    0.2143 O   0  0  0  0  0  0  0  0  0  0  0  0
   -0.2631    3.1565    1.6624 O   0  0  0  0  0  0  0  0  0  0  0  0
   11.7245    1.2687   -7.7072 N   0  0  0  0  0  0  0  0  0  0  0  0
   12.6992    1.0656   -8.1872 N   0  0  0  0  0  0  0  0  0  0  0  0
    4.3672    0.2058   -3.0331 C   0  0  0  0  0  0  0  0  0  0  0  0
    5.3995    1.0283   -3.4823 C   0  0  0  0  0  0  0  0  0  0  0  0
    5.5813    1.2860   -4.8480 C   0  0  0  0  0  0  0  0  0  0  0  0
    4.6972    0.6954   -5.7661 C   0  0  0  0  0  0  0  0  0  0  0  0
    3.6607   -0.1294   -5.3409 C   0  0  0  0  0  0  0  0  0  0  0  0
    3.5057   -0.3643   -3.9713 C   0  0  0  0  0  0  0  0  0  0  0  0
    4.2371   -0.0045   -1.9773 H   0  0  0  0  0  0  0  0  0  0  0  0
    6.0762    1.4738   -2.7587 H   0  0  0  0  0  0  0  0  0  0  0  0
    4.8262    0.8824   -6.8289 H   0  0  0  0  0  0  0  0  0  0  0  0
    2.9876   -0.5957   -6.0521 H   0  0  0  0  0  0  0  0  0  0  0  0
    2.1687   -1.4007   -3.4181 S   0  0  0  0  0  0  0  0  0  0  0  0
    0.8621   -0.3342   -3.4342 O   0  0  0  0  0  0  0  0  0  0  0  0
    2.4133   -1.8030   -2.0370 O   0  0  0  0  0  0  0  0  0  0  0  0
    1.8130   -2.3497   -4.4589 O   0  0  0  0  0  0  0  0  0  0  0  0
    6.7170    2.1552   -5.3291 C   0  0  0  0  0  0  0  0  0  0  0  0
    7.5457    1.5415   -5.7031 H   0  0  0  0  0  0  0  0  0  0  0  0
    6.4020    2.8062   -6.1507 H   0  0  0  0  0  0  0  0  0  0  0  0
    7.1095    2.7839   -4.5259 H   0  0  0  0  0  0  0  0  0  0  0  0
  1  7  1  0  0  0  0
  2  8  1  0  0  0  0
  2  1  2  0  0  0  0
  3  2  1  0  0  0  0
  4  3  2  0  0  0  0
  4  5  1  0  0  0  0
  5  6  2  0  0  0  0
  6  1  1  0  0  0  0
  6 11  1  0  0  0  0
  9  4  1  0  0  0  0
 10  5  1  0  0  0  0
 11 13  2  0  0  0  0
 12 11  2  0  0  0  0
 15 14  3  0  0  0  0
 16 22  1  0  0  0  0
 17 16  1  0  0  0  0
 17 23  1  0  0  0  0
 18 17  2  0  0  0  0
 19 20  2  0  0  0  0
 19 18  1  0  0  0  0
 20 21  1  0  0  0  0
 21 26  1  0  0  0  0
 21 16  2  0  0  0  0
 24 19  1  0  0  0  0
 25 20  1  0  0  0  0
 26 28  2  0  0  0  0
 27 26  1  0  0  0  0
 27  3  1  0  0  0  0
 29 26  2  0  0  0  0
 30 18  1  0  0  0  0
 30 33  1  0  0  0  0
 31 30  1  0  0  0  0
 32 30  1  0  0  0  0
M  END
