Coordinates from ORCA-job 4-NO2-Ph-N2-OTs-B3LYPG-6-31G_dp-MTMO-d009-169-n800
 OpenBabel09051908313D

 33 33  0  0  0  0  0  0  0  0999 V2000
   -0.1366    1.0922   -0.9042 C   0  0  0  0  0  0  0  0  0  0  0  0
    0.3290    0.2416   -1.9014 C   0  0  0  0  0  0  0  0  0  0  0  0
    1.0620    0.7766   -2.9659 C   0  0  0  0  0  0  0  0  0  0  0  0
    1.3296    2.1463   -3.0509 C   0  0  0  0  0  0  0  0  0  0  0  0
    0.8586    2.9995   -2.0584 C   0  0  0  0  0  0  0  0  0  0  0  0
    0.1347    2.4572   -0.9972 C   0  0  0  0  0  0  0  0  0  0  0  0
   -0.7082    0.7196   -0.0635 H   0  0  0  0  0  0  0  0  0  0  0  0
    0.1361   -0.8231   -1.8644 H   0  0  0  0  0  0  0  0  0  0  0  0
    1.8926    2.5244   -3.8967 H   0  0  0  0  0  0  0  0  0  0  0  0
    1.0424    4.0661   -2.0892 H   0  0  0  0  0  0  0  0  0  0  0  0
   -0.3608    3.3554    0.0563 N   0  0  0  0  0  0  0  0  0  0  0  0
   -0.1042    4.5545   -0.0494 O   0  0  0  0  0  0  0  0  0  0  0  0
   -0.9997    2.8535    0.9803 O   0  0  0  0  0  0  0  0  0  0  0  0
    5.5926   -0.1864   -8.7218 N   0  0  0  0  0  0  0  0  0  0  0  0
    5.5852   -0.6304   -9.7337 N   0  0  0  0  0  0  0  0  0  0  0  0
    4.7279    0.2883   -2.6332 C   0  0  0  0  0  0  0  0  0  0  0  0
    5.8674    1.0884   -2.6895 C   0  0  0  0  0  0  0  0  0  0  0  0
    6.4512    1.4364   -3.9160 C   0  0  0  0  0  0  0  0  0  0  0  0
    5.8630    0.9605   -5.0987 C   0  0  0  0  0  0  0  0  0  0  0  0
    4.7246    0.1612   -5.0667 C   0  0  0  0  0  0  0  0  0  0  0  0
    4.1662   -0.1657   -3.8280 C   0  0  0  0  0  0  0  0  0  0  0  0
    4.2874    0.0070   -1.6834 H   0  0  0  0  0  0  0  0  0  0  0  0
    6.3119    1.4455   -1.7649 H   0  0  0  0  0  0  0  0  0  0  0  0
    6.3031    1.2141   -6.0588 H   0  0  0  0  0  0  0  0  0  0  0  0
    4.2824   -0.2151   -5.9822 H   0  0  0  0  0  0  0  0  0  0  0  0
    2.6976   -1.1689   -3.7799 S   0  0  0  0  0  0  0  0  0  0  0  0
    1.4782   -0.0272   -4.0176 O   0  0  0  0  0  0  0  0  0  0  0  0
    2.5412   -1.7299   -2.4419 O   0  0  0  0  0  0  0  0  0  0  0  0
    2.6115   -1.9791   -4.9829 O   0  0  0  0  0  0  0  0  0  0  0  0
    7.7026    2.2776   -3.9645 C   0  0  0  0  0  0  0  0  0  0  0  0
    7.7162    2.9238   -4.8472 H   0  0  0  0  0  0  0  0  0  0  0  0
    7.7970    2.9081   -3.0761 H   0  0  0  0  0  0  0  0  0  0  0  0
    8.5957    1.6428   -4.0126 H   0  0  0  0  0  0  0  0  0  0  0  0
  1  7  1  0  0  0  0
  2  8  1  0  0  0  0
  2  1  2  0  0  0  0
  3  2  1  0  0  0  0
  4  3  2  0  0  0  0
  4  5  1  0  0  0  0
  5  6  2  0  0  0  0
  6  1  1  0  0  0  0
  6 11  1  0  0  0  0
  9  4  1  0  0  0  0
 10  5  1  0  0  0  0
 11 13  2  0  0  0  0
 12 11  2  0  0  0  0
 15 14  3  0  0  0  0
 16 22  1  0  0  0  0
 17 16  1  0  0  0  0
 17 23  1  0  0  0  0
 18 17  2  0  0  0  0
 19 20  2  0  0  0  0
 19 18  1  0  0  0  0
 20 21  1  0  0  0  0
 21 26  1  0  0  0  0
 21 16  2  0  0  0  0
 24 19  1  0  0  0  0
 25 20  1  0  0  0  0
 26 28  2  0  0  0  0
 27 26  1  0  0  0  0
 27  3  1  0  0  0  0
 29 26  2  0  0  0  0
 30 18  1  0  0  0  0
 30 32  1  0  0  0  0
 31 30  1  0  0  0  0
 33 30  1  0  0  0  0
M  END
