Coordinates from ORCA-job 4-NO2-Ph-N2-OTs-B3LYPG-6-31G_dp-MTMO-d009-169-n800
 OpenBabel09051908313D

 33 33  0  0  0  0  0  0  0  0999 V2000
   -0.0561    1.5493   -0.1717 C   0  0  0  0  0  0  0  0  0  0  0  0
    0.0076    0.5474   -1.1346 C   0  0  0  0  0  0  0  0  0  0  0  0
    0.4754    0.8617   -2.4148 C   0  0  0  0  0  0  0  0  0  0  0  0
    0.8698    2.1612   -2.7477 C   0  0  0  0  0  0  0  0  0  0  0  0
    0.7981    3.1660   -1.7889 C   0  0  0  0  0  0  0  0  0  0  0  0
    0.3396    2.8424   -0.5127 C   0  0  0  0  0  0  0  0  0  0  0  0
   -0.4120    1.3490    0.8307 H   0  0  0  0  0  0  0  0  0  0  0  0
   -0.2943   -0.4671   -0.9078 H   0  0  0  0  0  0  0  0  0  0  0  0
    1.2179    2.3680   -3.7533 H   0  0  0  0  0  0  0  0  0  0  0  0
    1.0912    4.1848   -2.0081 H   0  0  0  0  0  0  0  0  0  0  0  0
    0.2688    3.9010    0.5054 N   0  0  0  0  0  0  0  0  0  0  0  0
    0.6188    5.0339    0.1754 O   0  0  0  0  0  0  0  0  0  0  0  0
   -0.1341    3.5898    1.6254 O   0  0  0  0  0  0  0  0  0  0  0  0
   14.1422    3.3239   -9.1137 N   0  0  0  0  0  0  0  0  0  0  0  0
   14.9920    3.3926   -9.8172 N   0  0  0  0  0  0  0  0  0  0  0  0
    3.9989   -0.2095   -2.8595 C   0  0  0  0  0  0  0  0  0  0  0  0
    5.1903    0.3951   -3.2573 C   0  0  0  0  0  0  0  0  0  0  0  0
    5.4926    0.5817   -4.6134 C   0  0  0  0  0  0  0  0  0  0  0  0
    4.5657    0.1452   -5.5742 C   0  0  0  0  0  0  0  0  0  0  0  0
    3.3702   -0.4607   -5.2005 C   0  0  0  0  0  0  0  0  0  0  0  0
    3.0987   -0.6305   -3.8398 C   0  0  0  0  0  0  0  0  0  0  0  0
    3.7731   -0.3665   -1.8107 H   0  0  0  0  0  0  0  0  0  0  0  0
    5.8972    0.7248   -2.5012 H   0  0  0  0  0  0  0  0  0  0  0  0
    4.7865    0.2796   -6.6298 H   0  0  0  0  0  0  0  0  0  0  0  0
    2.6616   -0.8093   -5.9437 H   0  0  0  0  0  0  0  0  0  0  0  0
    1.5636   -1.3876   -3.3525 S   0  0  0  0  0  0  0  0  0  0  0  0
    0.4878   -0.0907   -3.4238 O   0  0  0  0  0  0  0  0  0  0  0  0
    1.6637   -1.8232   -1.9635 O   0  0  0  0  0  0  0  0  0  0  0  0
    1.0801   -2.2556   -4.4124 O   0  0  0  0  0  0  0  0  0  0  0  0
    6.7969    1.2111   -5.0367 C   0  0  0  0  0  0  0  0  0  0  0  0
    7.5338    0.4414   -5.2965 H   0  0  0  0  0  0  0  0  0  0  0  0
    6.6659    1.8454   -5.9185 H   0  0  0  0  0  0  0  0  0  0  0  0
    7.2268    1.8199   -4.2366 H   0  0  0  0  0  0  0  0  0  0  0  0
  1  7  1  0  0  0  0
  2  8  1  0  0  0  0
  2  1  2  0  0  0  0
  3  2  1  0  0  0  0
  4  3  2  0  0  0  0
  4  5  1  0  0  0  0
  5  6  2  0  0  0  0
  6  1  1  0  0  0  0
  6 11  1  0  0  0  0
  9  4  1  0  0  0  0
 10  5  1  0  0  0  0
 11 13  2  0  0  0  0
 12 11  2  0  0  0  0
 15 14  3  0  0  0  0
 16 22  1  0  0  0  0
 17 16  1  0  0  0  0
 17 23  1  0  0  0  0
 18 17  2  0  0  0  0
 19 20  2  0  0  0  0
 19 18  1  0  0  0  0
 20 21  1  0  0  0  0
 21 26  1  0  0  0  0
 21 16  2  0  0  0  0
 24 19  1  0  0  0  0
 25 20  1  0  0  0  0
 26 28  2  0  0  0  0
 27 26  1  0  0  0  0
 27  3  1  0  0  0  0
 29 26  2  0  0  0  0
 30 18  1  0  0  0  0
 30 33  1  0  0  0  0
 31 30  1  0  0  0  0
 32 30  1  0  0  0  0
M  END
