Coordinates from ORCA-job 4-NO2-Ph-N2-OTs-B3LYPG-6-31G_dp-MTMO-d009-169-n800
 OpenBabel09051908313D

 33 33  0  0  0  0  0  0  0  0999 V2000
   -0.1332    1.1017   -0.8706 C   0  0  0  0  0  0  0  0  0  0  0  0
    0.3237    0.2450   -1.8667 C   0  0  0  0  0  0  0  0  0  0  0  0
    1.0444    0.7739   -2.9426 C   0  0  0  0  0  0  0  0  0  0  0  0
    1.3082    2.1435   -3.0399 C   0  0  0  0  0  0  0  0  0  0  0  0
    0.8458    3.0027   -2.0486 C   0  0  0  0  0  0  0  0  0  0  0  0
    0.1342    2.4665   -0.9760 C   0  0  0  0  0  0  0  0  0  0  0  0
   -0.6951    0.7337   -0.0214 H   0  0  0  0  0  0  0  0  0  0  0  0
    0.1333   -0.8198   -1.8202 H   0  0  0  0  0  0  0  0  0  0  0  0
    1.8616    2.5168   -3.8943 H   0  0  0  0  0  0  0  0  0  0  0  0
    1.0269    4.0695   -2.0889 H   0  0  0  0  0  0  0  0  0  0  0  0
   -0.3521    3.3711    0.0762 N   0  0  0  0  0  0  0  0  0  0  0  0
   -0.0995    4.5700   -0.0407 O   0  0  0  0  0  0  0  0  0  0  0  0
   -0.9802    2.8744    1.0105 O   0  0  0  0  0  0  0  0  0  0  0  0
    5.7947   -0.1212   -8.7661 N   0  0  0  0  0  0  0  0  0  0  0  0
    5.8742   -0.5493   -9.7818 N   0  0  0  0  0  0  0  0  0  0  0  0
    4.7120    0.2850   -2.6382 C   0  0  0  0  0  0  0  0  0  0  0  0
    5.8524    1.0828   -2.7079 C   0  0  0  0  0  0  0  0  0  0  0  0
    6.4280    1.4215   -3.9408 C   0  0  0  0  0  0  0  0  0  0  0  0
    5.8307    0.9389   -5.1162 C   0  0  0  0  0  0  0  0  0  0  0  0
    4.6911    0.1418   -5.0707 C   0  0  0  0  0  0  0  0  0  0  0  0
    4.1410   -0.1761   -3.8258 C   0  0  0  0  0  0  0  0  0  0  0  0
    4.2779    0.0107   -1.6834 H   0  0  0  0  0  0  0  0  0  0  0  0
    6.3041    1.4452   -1.7889 H   0  0  0  0  0  0  0  0  0  0  0  0
    6.2644    1.1850   -6.0811 H   0  0  0  0  0  0  0  0  0  0  0  0
    4.2411   -0.2401   -5.9801 H   0  0  0  0  0  0  0  0  0  0  0  0
    2.6719   -1.1774   -3.7603 S   0  0  0  0  0  0  0  0  0  0  0  0
    1.4513   -0.0359   -3.9933 O   0  0  0  0  0  0  0  0  0  0  0  0
    2.5265   -1.7317   -2.4182 O   0  0  0  0  0  0  0  0  0  0  0  0
    2.5747   -1.9934   -4.9585 O   0  0  0  0  0  0  0  0  0  0  0  0
    7.6806    2.2600   -4.0039 C   0  0  0  0  0  0  0  0  0  0  0  0
    7.6858    2.9053   -4.8874 H   0  0  0  0  0  0  0  0  0  0  0  0
    7.7862    2.8911   -3.1172 H   0  0  0  0  0  0  0  0  0  0  0  0
    8.5717    1.6232   -4.0613 H   0  0  0  0  0  0  0  0  0  0  0  0
  1  7  1  0  0  0  0
  2  8  1  0  0  0  0
  2  1  2  0  0  0  0
  3  2  1  0  0  0  0
  4  3  2  0  0  0  0
  4  5  1  0  0  0  0
  5  6  2  0  0  0  0
  6  1  1  0  0  0  0
  6 11  1  0  0  0  0
  9  4  1  0  0  0  0
 10  5  1  0  0  0  0
 11 13  2  0  0  0  0
 12 11  2  0  0  0  0
 15 14  3  0  0  0  0
 16 22  1  0  0  0  0
 17 16  1  0  0  0  0
 17 23  1  0  0  0  0
 18 17  2  0  0  0  0
 19 20  2  0  0  0  0
 19 18  1  0  0  0  0
 20 21  1  0  0  0  0
 21 26  1  0  0  0  0
 21 16  2  0  0  0  0
 24 19  1  0  0  0  0
 25 20  1  0  0  0  0
 26 28  2  0  0  0  0
 27 26  1  0  0  0  0
 27  3  1  0  0  0  0
 29 26  2  0  0  0  0
 30 18  1  0  0  0  0
 30 32  1  0  0  0  0
 31 30  1  0  0  0  0
 33 30  1  0  0  0  0
M  END
