Coordinates from ORCA-job 4-NO2-Ph-N2-OTs-B3LYPG-6-31G_dp-MTMO-d009-169-n800
 OpenBabel09051908313D

 33 33  0  0  0  0  0  0  0  0999 V2000
   -0.0348    1.1814   -0.7631 C   0  0  0  0  0  0  0  0  0  0  0  0
    0.3713    0.2504   -1.7137 C   0  0  0  0  0  0  0  0  0  0  0  0
    1.0022    0.6978   -2.8795 C   0  0  0  0  0  0  0  0  0  0  0  0
    1.2231    2.0587   -3.1117 C   0  0  0  0  0  0  0  0  0  0  0  0
    0.8092    2.9914   -2.1667 C   0  0  0  0  0  0  0  0  0  0  0  0
    0.1896    2.5368   -1.0031 C   0  0  0  0  0  0  0  0  0  0  0  0
   -0.5255    0.8770    0.1525 H   0  0  0  0  0  0  0  0  0  0  0  0
    0.2112   -0.8097   -1.5632 H   0  0  0  0  0  0  0  0  0  0  0  0
    1.7066    2.3671   -4.0315 H   0  0  0  0  0  0  0  0  0  0  0  0
    0.9594    4.0540   -2.3110 H   0  0  0  0  0  0  0  0  0  0  0  0
   -0.2433    3.5198    0.0010 N   0  0  0  0  0  0  0  0  0  0  0  0
   -0.0321    4.7088   -0.2370 O   0  0  0  0  0  0  0  0  0  0  0  0
   -0.7883    3.0944    1.0188 O   0  0  0  0  0  0  0  0  0  0  0  0
    6.4075    0.5693   -8.8690 N   0  0  0  0  0  0  0  0  0  0  0  0
    6.6035    0.1853   -9.8865 N   0  0  0  0  0  0  0  0  0  0  0  0
    4.6667    0.1808   -2.6003 C   0  0  0  0  0  0  0  0  0  0  0  0
    5.7974    0.9870   -2.7189 C   0  0  0  0  0  0  0  0  0  0  0  0
    6.3192    1.3265   -3.9749 C   0  0  0  0  0  0  0  0  0  0  0  0
    5.6778    0.8372   -5.1245 C   0  0  0  0  0  0  0  0  0  0  0  0
    4.5483    0.0301   -5.0295 C   0  0  0  0  0  0  0  0  0  0  0  0
    4.0524   -0.2893   -3.7622 C   0  0  0  0  0  0  0  0  0  0  0  0
    4.2722   -0.0925   -1.6283 H   0  0  0  0  0  0  0  0  0  0  0  0
    6.2834    1.3558   -1.8201 H   0  0  0  0  0  0  0  0  0  0  0  0
    6.0691    1.0861   -6.1067 H   0  0  0  0  0  0  0  0  0  0  0  0
    4.0624   -0.3587   -5.9175 H   0  0  0  0  0  0  0  0  0  0  0  0
    2.5976   -1.3054   -3.6341 S   0  0  0  0  0  0  0  0  0  0  0  0
    1.3589   -0.1888   -3.8856 O   0  0  0  0  0  0  0  0  0  0  0  0
    2.4861   -1.8144   -2.2710 O   0  0  0  0  0  0  0  0  0  0  0  0
    2.4861   -2.1645   -4.8004 O   0  0  0  0  0  0  0  0  0  0  0  0
    7.5618    2.1740   -4.0919 C   0  0  0  0  0  0  0  0  0  0  0  0
    7.5111    2.8404   -4.9581 H   0  0  0  0  0  0  0  0  0  0  0  0
    7.7174    2.7839   -3.1979 H   0  0  0  0  0  0  0  0  0  0  0  0
    8.4508    1.5441   -4.2186 H   0  0  0  0  0  0  0  0  0  0  0  0
  1  7  1  0  0  0  0
  2  8  1  0  0  0  0
  2  1  2  0  0  0  0
  3  2  1  0  0  0  0
  4  3  2  0  0  0  0
  4  5  1  0  0  0  0
  5  6  2  0  0  0  0
  6  1  1  0  0  0  0
  6 11  1  0  0  0  0
  9  4  1  0  0  0  0
 10  5  1  0  0  0  0
 11 13  2  0  0  0  0
 12 11  2  0  0  0  0
 15 14  3  0  0  0  0
 16 22  1  0  0  0  0
 17 16  1  0  0  0  0
 17 23  1  0  0  0  0
 18 17  2  0  0  0  0
 19 20  2  0  0  0  0
 19 18  1  0  0  0  0
 20 21  1  0  0  0  0
 21 26  1  0  0  0  0
 21 16  2  0  0  0  0
 24 19  1  0  0  0  0
 25 20  1  0  0  0  0
 26 28  2  0  0  0  0
 27 26  1  0  0  0  0
 27  3  1  0  0  0  0
 29 26  2  0  0  0  0
 30 18  1  0  0  0  0
 30 32  1  0  0  0  0
 31 30  1  0  0  0  0
 33 30  1  0  0  0  0
M  END
