Coordinates from ORCA-job 4-NO2-Ph-N2-OTs-B3LYPG-6-31G_dp-MTMO-d009-169-n800
 OpenBabel09051908313D

 33 33  0  0  0  0  0  0  0  0999 V2000
   -0.0605    0.8931   -1.2292 C   0  0  0  0  0  0  0  0  0  0  0  0
    0.5033    0.0941   -2.2184 C   0  0  0  0  0  0  0  0  0  0  0  0
    1.2813    0.6916   -3.2153 C   0  0  0  0  0  0  0  0  0  0  0  0
    1.4971    2.0725   -3.2423 C   0  0  0  0  0  0  0  0  0  0  0  0
    0.9289    2.8740   -2.2577 C   0  0  0  0  0  0  0  0  0  0  0  0
    0.1611    2.2698   -1.2631 C   0  0  0  0  0  0  0  0  0  0  0  0
   -0.6694    0.4715   -0.4393 H   0  0  0  0  0  0  0  0  0  0  0  0
    0.3530   -0.9782   -2.2263 H   0  0  0  0  0  0  0  0  0  0  0  0
    2.0986    2.4997   -4.0368 H   0  0  0  0  0  0  0  0  0  0  0  0
    1.0713    3.9473   -2.2435 H   0  0  0  0  0  0  0  0  0  0  0  0
   -0.4351    3.1134   -0.2163 N   0  0  0  0  0  0  0  0  0  0  0  0
   -0.2180    4.3239   -0.2675 O   0  0  0  0  0  0  0  0  0  0  0  0
   -1.1124    2.5579    0.6475 O   0  0  0  0  0  0  0  0  0  0  0  0
    3.2535   -0.6907   -8.1886 N   0  0  0  0  0  0  0  0  0  0  0  0
    2.5030   -1.3711   -8.6295 N   0  0  0  0  0  0  0  0  0  0  0  0
    4.9435    0.3354   -2.5947 C   0  0  0  0  0  0  0  0  0  0  0  0
    6.0294    1.2055   -2.5218 C   0  0  0  0  0  0  0  0  0  0  0  0
    6.6444    1.6980   -3.6816 C   0  0  0  0  0  0  0  0  0  0  0  0
    6.1423    1.2966   -4.9298 C   0  0  0  0  0  0  0  0  0  0  0  0
    5.0595    0.4279   -5.0281 C   0  0  0  0  0  0  0  0  0  0  0  0
    4.4692   -0.0435   -3.8520 C   0  0  0  0  0  0  0  0  0  0  0  0
    4.4767   -0.0555   -1.6978 H   0  0  0  0  0  0  0  0  0  0  0  0
    6.4057    1.5048   -1.5477 H   0  0  0  0  0  0  0  0  0  0  0  0
    6.6092    1.6676   -5.8378 H   0  0  0  0  0  0  0  0  0  0  0  0
    4.6818    0.1132   -5.9947 H   0  0  0  0  0  0  0  0  0  0  0  0
    3.0697   -1.1370   -3.9642 S   0  0  0  0  0  0  0  0  0  0  0  0
    1.8016   -0.0639   -4.2570 O   0  0  0  0  0  0  0  0  0  0  0  0
    2.8457   -1.7662   -2.6669 O   0  0  0  0  0  0  0  0  0  0  0  0
    3.1285   -1.8979   -5.2010 O   0  0  0  0  0  0  0  0  0  0  0  0
    7.8391    2.6147   -3.5927 C   0  0  0  0  0  0  0  0  0  0  0  0
    7.8796    3.3033   -4.4417 H   0  0  0  0  0  0  0  0  0  0  0  0
    7.8245    3.2049   -2.6722 H   0  0  0  0  0  0  0  0  0  0  0  0
    8.7721    2.0380   -3.5965 H   0  0  0  0  0  0  0  0  0  0  0  0
  1  7  1  0  0  0  0
  2  1  2  0  0  0  0
  3  2  1  0  0  0  0
  4  3  2  0  0  0  0
  4  5  1  0  0  0  0
  5 10  1  0  0  0  0
  5  6  2  0  0  0  0
  6  1  1  0  0  0  0
  6 11  1  0  0  0  0
  8  2  1  0  0  0  0
  9  4  1  0  0  0  0
 11 13  2  0  0  0  0
 12 11  2  0  0  0  0
 15 14  3  0  0  0  0
 16 17  1  0  0  0  0
 16 22  1  0  0  0  0
 17 23  1  0  0  0  0
 18 30  1  0  0  0  0
 18 17  2  0  0  0  0
 19 18  1  0  0  0  0
 20 19  2  0  0  0  0
 20 21  1  0  0  0  0
 21 16  2  0  0  0  0
 24 19  1  0  0  0  0
 25 20  1  0  0  0  0
 26 21  1  0  0  0  0
 26 28  2  0  0  0  0
 27 26  1  0  0  0  0
 27  3  1  0  0  0  0
 29 26  2  0  0  0  0
 30 32  1  0  0  0  0
 31 30  1  0  0  0  0
 33 30  1  0  0  0  0
M  END
