Coordinates from ORCA-job 4-NO2-Ph-N2-OTs-B3LYPG-6-31G_dp-MTMO-d009-169-n800
 OpenBabel09051908313D

 33 33  0  0  0  0  0  0  0  0999 V2000
    0.0652    1.1788   -0.1127 C   0  0  0  0  0  0  0  0  0  0  0  0
    0.2673    0.2060   -1.0862 C   0  0  0  0  0  0  0  0  0  0  0  0
    0.6372    0.5997   -2.3763 C   0  0  0  0  0  0  0  0  0  0  0  0
    0.8008    1.9480   -2.7081 C   0  0  0  0  0  0  0  0  0  0  0  0
    0.5918    2.9225   -1.7382 C   0  0  0  0  0  0  0  0  0  0  0  0
    0.2299    2.5213   -0.4529 C   0  0  0  0  0  0  0  0  0  0  0  0
   -0.2231    0.9176    0.8974 H   0  0  0  0  0  0  0  0  0  0  0  0
    0.1467   -0.8460   -0.8605 H   0  0  0  0  0  0  0  0  0  0  0  0
    1.0808    2.2139   -3.7210 H   0  0  0  0  0  0  0  0  0  0  0  0
    0.7049    3.9771   -1.9557 H   0  0  0  0  0  0  0  0  0  0  0  0
    0.0129    3.5492    0.5763 N   0  0  0  0  0  0  0  0  0  0  0  0
    0.1695    4.7254    0.2494 O   0  0  0  0  0  0  0  0  0  0  0  0
   -0.3102    3.1711    1.7016 O   0  0  0  0  0  0  0  0  0  0  0  0
   12.9149    1.3460   -8.2619 N   0  0  0  0  0  0  0  0  0  0  0  0
   13.8697    1.1408   -8.7793 N   0  0  0  0  0  0  0  0  0  0  0  0
    4.2836    0.1912   -2.9977 C   0  0  0  0  0  0  0  0  0  0  0  0
    5.3172    1.0112   -3.4483 C   0  0  0  0  0  0  0  0  0  0  0  0
    5.4967    1.2700   -4.8142 C   0  0  0  0  0  0  0  0  0  0  0  0
    4.6091    0.6828   -5.7310 C   0  0  0  0  0  0  0  0  0  0  0  0
    3.5711   -0.1395   -5.3044 C   0  0  0  0  0  0  0  0  0  0  0  0
    3.4184   -0.3753   -3.9347 C   0  0  0  0  0  0  0  0  0  0  0  0
    4.1552   -0.0197   -1.9420 H   0  0  0  0  0  0  0  0  0  0  0  0
    5.9967    1.4542   -2.7256 H   0  0  0  0  0  0  0  0  0  0  0  0
    4.7362    0.8707   -6.7938 H   0  0  0  0  0  0  0  0  0  0  0  0
    2.8951   -0.6029   -6.0146 H   0  0  0  0  0  0  0  0  0  0  0  0
    2.0786   -1.4071   -3.3796 S   0  0  0  0  0  0  0  0  0  0  0  0
    0.7764   -0.3352   -3.3924 O   0  0  0  0  0  0  0  0  0  0  0  0
    2.3244   -1.8111   -1.9993 O   0  0  0  0  0  0  0  0  0  0  0  0
    1.7170   -2.3539   -4.4204 O   0  0  0  0  0  0  0  0  0  0  0  0
    6.6341    2.1362   -5.2964 C   0  0  0  0  0  0  0  0  0  0  0  0
    7.4653    1.5199   -5.6604 H   0  0  0  0  0  0  0  0  0  0  0  0
    6.3231    2.7802   -6.1250 H   0  0  0  0  0  0  0  0  0  0  0  0
    7.0218    2.7717   -4.4961 H   0  0  0  0  0  0  0  0  0  0  0  0
  1  7  1  0  0  0  0
  2  8  1  0  0  0  0
  2  1  2  0  0  0  0
  3  2  1  0  0  0  0
  4  3  2  0  0  0  0
  4  5  1  0  0  0  0
  5  6  2  0  0  0  0
  6  1  1  0  0  0  0
  6 11  1  0  0  0  0
  9  4  1  0  0  0  0
 10  5  1  0  0  0  0
 11 13  2  0  0  0  0
 12 11  2  0  0  0  0
 15 14  3  0  0  0  0
 16 22  1  0  0  0  0
 17 16  1  0  0  0  0
 17 23  1  0  0  0  0
 18 17  2  0  0  0  0
 19 20  2  0  0  0  0
 19 18  1  0  0  0  0
 20 21  1  0  0  0  0
 21 26  1  0  0  0  0
 21 16  2  0  0  0  0
 24 19  1  0  0  0  0
 25 20  1  0  0  0  0
 26 28  2  0  0  0  0
 27 26  1  0  0  0  0
 27  3  1  0  0  0  0
 29 26  2  0  0  0  0
 30 18  1  0  0  0  0
 30 33  1  0  0  0  0
 31 30  1  0  0  0  0
 32 30  1  0  0  0  0
M  END
