Coordinates from ORCA-job 4-NO2-Ph-N2-OTs-B3LYPG-6-31G_dp-MTMO-d009-169-n800
 OpenBabel09051908313D

 33 33  0  0  0  0  0  0  0  0999 V2000
    0.1298    1.1702   -0.1524 C   0  0  0  0  0  0  0  0  0  0  0  0
    0.3401    0.2000   -1.1266 C   0  0  0  0  0  0  0  0  0  0  0  0
    0.7105    0.5975   -2.4153 C   0  0  0  0  0  0  0  0  0  0  0  0
    0.8665    1.9472   -2.7451 C   0  0  0  0  0  0  0  0  0  0  0  0
    0.6491    2.9192   -1.7744 C   0  0  0  0  0  0  0  0  0  0  0  0
    0.2869    2.5142   -0.4905 C   0  0  0  0  0  0  0  0  0  0  0  0
   -0.1591    0.9059    0.8568 H   0  0  0  0  0  0  0  0  0  0  0  0
    0.2255   -0.8531   -0.9024 H   0  0  0  0  0  0  0  0  0  0  0  0
    1.1470    2.2162   -3.7570 H   0  0  0  0  0  0  0  0  0  0  0  0
    0.7560    3.9748   -1.9905 H   0  0  0  0  0  0  0  0  0  0  0  0
    0.0611    3.5394    0.5396 N   0  0  0  0  0  0  0  0  0  0  0  0
    0.2109    4.7170    0.2144 O   0  0  0  0  0  0  0  0  0  0  0  0
   -0.2620    3.1579    1.6637 O   0  0  0  0  0  0  0  0  0  0  0  0
   11.7765    1.2725   -7.7292 N   0  0  0  0  0  0  0  0  0  0  0  0
   12.7494    1.0680   -8.2120 N   0  0  0  0  0  0  0  0  0  0  0  0
    4.3628    0.2047   -3.0314 C   0  0  0  0  0  0  0  0  0  0  0  0
    5.3951    1.0274   -3.4803 C   0  0  0  0  0  0  0  0  0  0  0  0
    5.5768    1.2858   -4.8459 C   0  0  0  0  0  0  0  0  0  0  0  0
    4.6927    0.6954   -5.7642 C   0  0  0  0  0  0  0  0  0  0  0  0
    3.6563   -0.1296   -5.3394 C   0  0  0  0  0  0  0  0  0  0  0  0
    3.5013   -0.3650   -3.9698 C   0  0  0  0  0  0  0  0  0  0  0  0
    4.2328   -0.0060   -1.9758 H   0  0  0  0  0  0  0  0  0  0  0  0
    6.0717    1.4727   -2.7565 H   0  0  0  0  0  0  0  0  0  0  0  0
    4.8217    0.8829   -6.8270 H   0  0  0  0  0  0  0  0  0  0  0  0
    2.9832   -0.5956   -6.0507 H   0  0  0  0  0  0  0  0  0  0  0  0
    2.1644   -1.4017   -3.4170 S   0  0  0  0  0  0  0  0  0  0  0  0
    0.8578   -0.3350   -3.4325 O   0  0  0  0  0  0  0  0  0  0  0  0
    2.4090   -1.8047   -2.0361 O   0  0  0  0  0  0  0  0  0  0  0  0
    1.8085   -2.3502   -4.4582 O   0  0  0  0  0  0  0  0  0  0  0  0
    6.7125    2.1551   -5.3267 C   0  0  0  0  0  0  0  0  0  0  0  0
    7.5415    1.5415   -5.7000 H   0  0  0  0  0  0  0  0  0  0  0  0
    6.3977    2.8058   -6.1487 H   0  0  0  0  0  0  0  0  0  0  0  0
    7.1043    2.7842   -4.5234 H   0  0  0  0  0  0  0  0  0  0  0  0
  1  7  1  0  0  0  0
  2  8  1  0  0  0  0
  2  1  2  0  0  0  0
  3  2  1  0  0  0  0
  4  3  2  0  0  0  0
  4  5  1  0  0  0  0
  5  6  2  0  0  0  0
  6  1  1  0  0  0  0
  6 11  1  0  0  0  0
  9  4  1  0  0  0  0
 10  5  1  0  0  0  0
 11 13  2  0  0  0  0
 12 11  2  0  0  0  0
 15 14  3  0  0  0  0
 16 22  1  0  0  0  0
 17 16  1  0  0  0  0
 17 23  1  0  0  0  0
 18 17  2  0  0  0  0
 19 20  2  0  0  0  0
 19 18  1  0  0  0  0
 20 21  1  0  0  0  0
 21 26  1  0  0  0  0
 21 16  2  0  0  0  0
 24 19  1  0  0  0  0
 25 20  1  0  0  0  0
 26 28  2  0  0  0  0
 27 26  1  0  0  0  0
 27  3  1  0  0  0  0
 29 26  2  0  0  0  0
 30 18  1  0  0  0  0
 30 33  1  0  0  0  0
 31 30  1  0  0  0  0
 32 30  1  0  0  0  0
M  END
