Coordinates from ORCA-job 4-NO2-Ph-N2-OTs-B3LYPG-6-31G_dp-MTMO-d009-169-n800
 OpenBabel09051908313D

 33 33  0  0  0  0  0  0  0  0999 V2000
   -0.1076    0.9723   -1.0137 C   0  0  0  0  0  0  0  0  0  0  0  0
    0.3525    0.2577   -2.1149 C   0  0  0  0  0  0  0  0  0  0  0  0
    1.0990    0.9215   -3.0941 C   0  0  0  0  0  0  0  0  0  0  0  0
    1.3829    2.2869   -2.9934 C   0  0  0  0  0  0  0  0  0  0  0  0
    0.9172    3.0046   -1.8968 C   0  0  0  0  0  0  0  0  0  0  0  0
    0.1819    2.3335   -0.9207 C   0  0  0  0  0  0  0  0  0  0  0  0
   -0.6881    0.4972   -0.2328 H   0  0  0  0  0  0  0  0  0  0  0  0
    0.1460   -0.7995   -2.2228 H   0  0  0  0  0  0  0  0  0  0  0  0
    1.9558    2.7678   -3.7784 H   0  0  0  0  0  0  0  0  0  0  0  0
    1.1144    4.0629   -1.7824 H   0  0  0  0  0  0  0  0  0  0  0  0
   -0.3052    3.0877    0.2439 N   0  0  0  0  0  0  0  0  0  0  0  0
   -0.0301    4.2861    0.3022 O   0  0  0  0  0  0  0  0  0  0  0  0
   -0.9553    2.4749    1.0896 O   0  0  0  0  0  0  0  0  0  0  0  0
    5.0438   -1.5759   -8.6117 N   0  0  0  0  0  0  0  0  0  0  0  0
    4.8276   -2.5261   -9.1329 N   0  0  0  0  0  0  0  0  0  0  0  0
    4.7075    0.3963   -2.7624 C   0  0  0  0  0  0  0  0  0  0  0  0
    5.8508    1.1879   -2.6828 C   0  0  0  0  0  0  0  0  0  0  0  0
    6.4957    1.6514   -3.8390 C   0  0  0  0  0  0  0  0  0  0  0  0
    5.9651    1.2998   -5.0897 C   0  0  0  0  0  0  0  0  0  0  0  0
    4.8221    0.5118   -5.1943 C   0  0  0  0  0  0  0  0  0  0  0  0
    4.2020    0.0694   -4.0231 C   0  0  0  0  0  0  0  0  0  0  0  0
    4.2211    0.0249   -1.8677 H   0  0  0  0  0  0  0  0  0  0  0  0
    6.2501    1.4473   -1.7063 H   0  0  0  0  0  0  0  0  0  0  0  0
    6.4562    1.6451   -5.9951 H   0  0  0  0  0  0  0  0  0  0  0  0
    4.4254    0.2289   -6.1630 H   0  0  0  0  0  0  0  0  0  0  0  0
    2.7250   -0.9153   -4.1445 S   0  0  0  0  0  0  0  0  0  0  0  0
    1.5171    0.2602   -4.2409 O   0  0  0  0  0  0  0  0  0  0  0  0
    2.5376   -1.6570   -2.9020 O   0  0  0  0  0  0  0  0  0  0  0  0
    2.6573   -1.5476   -5.4511 O   0  0  0  0  0  0  0  0  0  0  0  0
    7.7514    2.4818   -3.7406 C   0  0  0  0  0  0  0  0  0  0  0  0
    7.8676    3.1369   -4.6085 H   0  0  0  0  0  0  0  0  0  0  0  0
    7.7521    3.1019   -2.8396 H   0  0  0  0  0  0  0  0  0  0  0  0
    8.6392    1.8393   -3.6949 H   0  0  0  0  0  0  0  0  0  0  0  0
  1  6  1  0  0  0  0
  1  7  1  0  0  0  0
  2  1  2  0  0  0  0
  3  4  2  0  0  0  0
  3  2  1  0  0  0  0
  4  5  1  0  0  0  0
  5 10  1  0  0  0  0
  5  6  2  0  0  0  0
  6 11  1  0  0  0  0
  8  2  1  0  0  0  0
  9  4  1  0  0  0  0
 11 12  2  0  0  0  0
 11 13  2  0  0  0  0
 15 14  3  0  0  0  0
 16 17  1  0  0  0  0
 16 22  1  0  0  0  0
 17 23  1  0  0  0  0
 18 30  1  0  0  0  0
 18 17  2  0  0  0  0
 19 18  1  0  0  0  0
 20 19  2  0  0  0  0
 20 21  1  0  0  0  0
 21 16  2  0  0  0  0
 24 19  1  0  0  0  0
 25 20  1  0  0  0  0
 26 21  1  0  0  0  0
 26 28  2  0  0  0  0
 27 26  1  0  0  0  0
 27  3  1  0  0  0  0
 29 26  2  0  0  0  0
 30 33  1  0  0  0  0
 30 32  1  0  0  0  0
 31 30  1  0  0  0  0
M  END
