Coordinates from ORCA-job 4-NO2-Ph-N2-OTs-B3LYPG-6-31G_dp-MTMO-d009-169-n800
 OpenBabel09051908313D

 33 33  0  0  0  0  0  0  0  0999 V2000
    0.1284    1.1705   -0.1512 C   0  0  0  0  0  0  0  0  0  0  0  0
    0.3383    0.2001   -1.1253 C   0  0  0  0  0  0  0  0  0  0  0  0
    0.7083    0.5975   -2.4142 C   0  0  0  0  0  0  0  0  0  0  0  0
    0.8642    1.9471   -2.7443 C   0  0  0  0  0  0  0  0  0  0  0  0
    0.6472    2.9192   -1.7737 C   0  0  0  0  0  0  0  0  0  0  0  0
    0.2854    2.5144   -0.4895 C   0  0  0  0  0  0  0  0  0  0  0  0
   -0.1601    0.9064    0.8581 H   0  0  0  0  0  0  0  0  0  0  0  0
    0.2238   -0.8529   -0.9009 H   0  0  0  0  0  0  0  0  0  0  0  0
    1.1444    2.2159   -3.7563 H   0  0  0  0  0  0  0  0  0  0  0  0
    0.7541    3.9748   -1.9899 H   0  0  0  0  0  0  0  0  0  0  0  0
    0.0601    3.5398    0.5404 N   0  0  0  0  0  0  0  0  0  0  0  0
    0.2097    4.7173    0.2150 O   0  0  0  0  0  0  0  0  0  0  0  0
   -0.2626    3.1585    1.6648 O   0  0  0  0  0  0  0  0  0  0  0  0
   11.8108    1.2748   -7.7445 N   0  0  0  0  0  0  0  0  0  0  0  0
   12.7826    1.0696   -8.2293 N   0  0  0  0  0  0  0  0  0  0  0  0
    4.3603    0.2041   -3.0303 C   0  0  0  0  0  0  0  0  0  0  0  0
    5.3925    1.0269   -3.4792 C   0  0  0  0  0  0  0  0  0  0  0  0
    5.5742    1.2854   -4.8447 C   0  0  0  0  0  0  0  0  0  0  0  0
    4.6901    0.6953   -5.7631 C   0  0  0  0  0  0  0  0  0  0  0  0
    3.6536   -0.1298   -5.3383 C   0  0  0  0  0  0  0  0  0  0  0  0
    3.4987   -0.3654   -3.9688 C   0  0  0  0  0  0  0  0  0  0  0  0
    4.2302   -0.0067   -1.9747 H   0  0  0  0  0  0  0  0  0  0  0  0
    6.0693    1.4721   -2.7553 H   0  0  0  0  0  0  0  0  0  0  0  0
    4.8191    0.8829   -6.8258 H   0  0  0  0  0  0  0  0  0  0  0  0
    2.9805   -0.5956   -6.0497 H   0  0  0  0  0  0  0  0  0  0  0  0
    2.1617   -1.4020   -3.4160 S   0  0  0  0  0  0  0  0  0  0  0  0
    0.8553   -0.3353   -3.4313 O   0  0  0  0  0  0  0  0  0  0  0  0
    2.4064   -1.8052   -2.0353 O   0  0  0  0  0  0  0  0  0  0  0  0
    1.8057   -2.3503   -4.4574 O   0  0  0  0  0  0  0  0  0  0  0  0
    6.7100    2.1548   -5.3254 C   0  0  0  0  0  0  0  0  0  0  0  0
    7.5391    1.5412   -5.6983 H   0  0  0  0  0  0  0  0  0  0  0  0
    6.3954    2.8052   -6.1476 H   0  0  0  0  0  0  0  0  0  0  0  0
    7.1015    2.7841   -4.5222 H   0  0  0  0  0  0  0  0  0  0  0  0
  1  7  1  0  0  0  0
  2  8  1  0  0  0  0
  2  1  2  0  0  0  0
  3  2  1  0  0  0  0
  4  3  2  0  0  0  0
  4  5  1  0  0  0  0
  5  6  2  0  0  0  0
  6  1  1  0  0  0  0
  6 11  1  0  0  0  0
  9  4  1  0  0  0  0
 10  5  1  0  0  0  0
 11 13  2  0  0  0  0
 12 11  2  0  0  0  0
 15 14  3  0  0  0  0
 16 22  1  0  0  0  0
 17 16  1  0  0  0  0
 17 23  1  0  0  0  0
 18 17  2  0  0  0  0
 19 20  2  0  0  0  0
 19 18  1  0  0  0  0
 20 21  1  0  0  0  0
 21 26  1  0  0  0  0
 21 16  2  0  0  0  0
 24 19  1  0  0  0  0
 25 20  1  0  0  0  0
 26 28  2  0  0  0  0
 27 26  1  0  0  0  0
 27  3  1  0  0  0  0
 29 26  2  0  0  0  0
 30 18  1  0  0  0  0
 30 33  1  0  0  0  0
 31 30  1  0  0  0  0
 32 30  1  0  0  0  0
M  END
