Coordinates from ORCA-job 4-NO2-Ph-N2-OTs-B3LYPG-6-31G_dp-MTMO-d009-169-n800
 OpenBabel09051908313D

 33 33  0  0  0  0  0  0  0  0999 V2000
   -0.0250    1.2536   -0.5503 C   0  0  0  0  0  0  0  0  0  0  0  0
    0.3388    0.2650   -1.4589 C   0  0  0  0  0  0  0  0  0  0  0  0
    0.8999    0.6392   -2.6845 C   0  0  0  0  0  0  0  0  0  0  0  0
    1.0926    1.9835   -3.0170 C   0  0  0  0  0  0  0  0  0  0  0  0
    0.7206    2.9734   -2.1137 C   0  0  0  0  0  0  0  0  0  0  0  0
    0.1707    2.5918   -0.8906 C   0  0  0  0  0  0  0  0  0  0  0  0
   -0.4614    1.0068    0.4089 H   0  0  0  0  0  0  0  0  0  0  0  0
    0.1991   -0.7838   -1.2303 H   0  0  0  0  0  0  0  0  0  0  0  0
    1.5210    2.2342   -3.9807 H   0  0  0  0  0  0  0  0  0  0  0  0
    0.8502    4.0254   -2.3354 H   0  0  0  0  0  0  0  0  0  0  0  0
   -0.2179    3.6357    0.0693 N   0  0  0  0  0  0  0  0  0  0  0  0
   -0.0326    4.8080   -0.2569 O   0  0  0  0  0  0  0  0  0  0  0  0
   -0.7032    3.2743    1.1407 O   0  0  0  0  0  0  0  0  0  0  0  0
    7.8690    1.5043   -8.6438 N   0  0  0  0  0  0  0  0  0  0  0  0
    8.3855    1.5738   -9.6183 N   0  0  0  0  0  0  0  0  0  0  0  0
    4.5886    0.1938   -2.6757 C   0  0  0  0  0  0  0  0  0  0  0  0
    5.7103    0.9684   -2.9573 C   0  0  0  0  0  0  0  0  0  0  0  0
    6.1609    1.1441   -4.2755 C   0  0  0  0  0  0  0  0  0  0  0  0
    5.4562    0.5190   -5.3145 C   0  0  0  0  0  0  0  0  0  0  0  0
    4.3301   -0.2600   -5.0561 C   0  0  0  0  0  0  0  0  0  0  0  0
    3.9071   -0.4133   -3.7343 C   0  0  0  0  0  0  0  0  0  0  0  0
    4.2523    0.0438   -1.6559 H   0  0  0  0  0  0  0  0  0  0  0  0
    6.2495    1.4389   -2.1399 H   0  0  0  0  0  0  0  0  0  0  0  0
    5.7993    0.6383   -6.3382 H   0  0  0  0  0  0  0  0  0  0  0  0
    3.7951   -0.7551   -5.8590 H   0  0  0  0  0  0  0  0  0  0  0  0
    2.4676   -1.4035   -3.3957 S   0  0  0  0  0  0  0  0  0  0  0  0
    1.2094   -0.3088   -3.6492 O   0  0  0  0  0  0  0  0  0  0  0  0
    2.4669   -1.7816   -1.9862 O   0  0  0  0  0  0  0  0  0  0  0  0
    2.2661   -2.3673   -4.4640 O   0  0  0  0  0  0  0  0  0  0  0  0
    7.3858    1.9789   -4.5599 C   0  0  0  0  0  0  0  0  0  0  0  0
    7.5853    2.0451   -5.6320 H   0  0  0  0  0  0  0  0  0  0  0  0
    7.2689    2.9967   -4.1721 H   0  0  0  0  0  0  0  0  0  0  0  0
    8.2718    1.5521   -4.0770 H   0  0  0  0  0  0  0  0  0  0  0  0
  1  7  1  0  0  0  0
  2  8  1  0  0  0  0
  2  1  2  0  0  0  0
  3  2  1  0  0  0  0
  4  3  2  0  0  0  0
  4  5  1  0  0  0  0
  5  6  2  0  0  0  0
  6  1  1  0  0  0  0
  6 11  1  0  0  0  0
  9  4  1  0  0  0  0
 10  5  1  0  0  0  0
 11 13  2  0  0  0  0
 12 11  2  0  0  0  0
 15 14  3  0  0  0  0
 16 22  1  0  0  0  0
 17 16  1  0  0  0  0
 17 23  1  0  0  0  0
 18 17  2  0  0  0  0
 19 20  2  0  0  0  0
 19 18  1  0  0  0  0
 20 21  1  0  0  0  0
 21 26  1  0  0  0  0
 21 16  2  0  0  0  0
 24 19  1  0  0  0  0
 25 20  1  0  0  0  0
 26 28  2  0  0  0  0
 27 26  1  0  0  0  0
 27  3  1  0  0  0  0
 29 26  2  0  0  0  0
 30 18  1  0  0  0  0
 30 32  1  0  0  0  0
 30 33  1  0  0  0  0
 31 30  1  0  0  0  0
M  END
