33
Coordinates from ORCA-job 4-NO2-Ph-N2-OTs-B3LYPG-6-31G_dp-MTMO-d009-169-n800
  C   -0.13604310646671      1.54324033452283     -0.13668499816951
  C   -0.07557946199395      0.54207483637799     -1.10054433452138
  C   0.39676764146874      0.85535115483038     -2.37936036030630
  C   0.79862865486573      2.15307493976696     -2.70992693577085
  C   0.73010816082469      3.15726724344198     -1.75025804087827
  C   0.26711430051904      2.83466227196155     -0.47539572967215
  H   -0.49518373542993      1.34368992794065      0.86471721151686
  H   -0.38320298480238     -0.47106945137866     -0.87554767909330
  H   1.15003122962845      2.35910500878594     -3.71452875524404
  H   1.02892547486668      4.17472236188402     -1.96761935280615
  N   0.19962630540351      3.89243033694455      0.54372528158268
  O   0.55613192790879      5.02390082204823      0.21569487291100
  O   -0.20715615553294      3.58214207820831      1.66260661499937
  N   15.32565859851159      3.62551573870894     -9.79989961996393
  N   16.16172514713471      3.66558664711691    -10.52172005118209
  C   3.91423288405308     -0.23743146960803     -2.81039206366223
  C   5.11112525207425      0.36055524700477     -3.20152351338282
  C   5.42068494876796      0.54810836214977     -4.55581624536520
  C   4.49551576551538      0.11954176330459     -5.52175240841931
  C   3.29452019335553     -0.47977829024415     -5.15470339436631
  C   3.01589908620340     -0.65075507863088     -3.79564162462193
  H   3.68259142851006     -0.39515921924477     -1.76296706651033
  H   5.81665907952411      0.68432203669482     -2.44158143112580
  H   4.72190034024593      0.25484345689231     -6.57607749282270
  H   2.58716114170392     -0.82240462610831     -5.90186534974782
  S   1.47400521411647     -1.39943200753412     -3.31685883840813
  O   0.40649788314247     -0.09593627451991     -3.38950149046726
  O   1.56555081593119     -1.83909872710476     -1.92852216487742
  O   0.98965759850047     -2.26187815745179     -4.38085661555072
  C   6.73106376704888      1.17007236297462     -4.97158627115348
  H   7.46685530340113      0.39599287321695     -5.22138379309939
  H   6.60997359009862      1.80050088492458     -5.85755536411277
  H   7.15685371090132      1.78094261212408     -4.17097299570797
