33
Coordinates from ORCA-job 4-NO2-Ph-N2-OTs-B3LYPG-6-31G_dp-MTMO-d009-169-n800
  C   -0.10815341070080      0.97323863501951     -1.01243594072503
  C   0.35133989883852      0.25842805838245     -2.11381034263116
  C   1.09831078878168      0.92184128370879     -3.09285965123112
  C   1.38313992900999      2.28703098497594     -2.99205129937324
  C   0.91807362443369      3.00493606758711     -1.89531399959652
  C   0.18234970921286      2.33424138272742     -0.91925986724691
  H   -0.68898644815463      0.49846013991215     -0.23153585043677
  H   0.14413568154080     -0.79859049835442     -2.22182397185640
  H   1.95628302450068      2.76768419552684     -3.77703275993801
  H   1.11596795757052      4.06303686189554     -1.78071530112812
  N   -0.30410374733908      3.08858862073136      0.24549197101262
  O   -0.02812445778285      4.28675862692268      0.30403807084239
  O   -0.95467242038343      2.47607238581222      1.09112330657180
  N   5.05404170702206     -1.58289612456802     -8.62558446644959
  N   4.83822913957340     -2.53269050868086     -9.14763080496537
  C   4.70620614329876      0.39686168275221     -2.76191087543867
  C   5.84946985932154      1.18853116213856     -2.68233275458848
  C   6.49447828550024      1.65168659347364     -3.83861023592136
  C   5.96390784755422      1.29979699448879     -5.08924569423137
  C   4.82093288438424      0.51170043193170     -5.19378068698390
  C   4.20082187233480      0.06955537773016     -4.02248389983882
  H   4.21978745471003      0.02568056297882     -1.86706614310223
  H   6.24870433701659      1.44820533818134     -1.70588562689837
  H   6.45496338252237      1.64482906069986     -5.99468445801292
  H   4.42441013191183      0.22871867243268     -6.16249637334456
  S   2.72366594249917     -0.91503078168143     -4.14336694723067
  O   1.51587098024629      0.26053794720113     -4.23974435500108
  O   2.53635578146263     -1.65644830746150     -2.90064940227896
  O   2.65580305014326     -1.54754989654751     -5.44977137289248
  C   7.75013135323306      2.48217876381733     -3.74036877875713
  H   7.86626890536222      3.13713393047450     -4.60844197769939
  H   7.75076280350834      3.10244392364388     -2.83948308441906
  H   8.63792800886694      1.83972843214742     -3.69457642620891
