33
Coordinates from ORCA-job 4-NO2-Ph-N2-OTs-B3LYPG-6-31G_dp-MTMO-d009-169-n800
  C   -0.05771062406614      0.89615132507102     -1.21006876466168
  C   0.50001667530211      0.10103596283484     -2.20591030399475
  C   1.27151503664564      0.70247848283261     -3.20549970585881
  C   1.48640438739406      2.08372513284936     -3.22864726718296
  C   0.92412625231564      2.88130816840593     -2.23761350374859
  C   0.16298892891234      2.27304475397404     -1.24030918055238
  H   -0.66143337096975      0.47130425921772     -0.41796430987883
  H   0.34981503101299     -0.97123026233877     -2.21680069047397
  H   2.08265465667648      2.51395698069075     -4.02548771524988
  H   1.06595297621807      3.95461252789590     -2.22040960437124
  N   -0.42697571923536      3.11243828673781     -0.18674424448593
  O   -0.21127337527656      4.32332591424571     -0.23518767000889
  O   -1.09775854272952      2.55333529134635      0.67983471406904
  N   3.36352980947706     -0.72928976407252     -8.22788438021290
  N   2.62470633556814     -1.41032952266983     -8.68722636878656
  C   4.92185148721615      0.34739891961096     -2.60408303723814
  C   6.00995679070402      1.21467586078716     -2.53103724873724
  C   6.63480710157469      1.69512805223671     -3.69067979556963
  C   6.14067207412013      1.28416681435331     -4.93882280068305
  C   5.05540566249847      0.41838603655847     -5.03731347431194
  C   4.45495727872126     -0.04050717630788     -3.86149525423642
  H   4.44810646688358     -0.03449405041594     -1.70692870690839
  H   6.38052660101141      1.52098378532902     -1.55688133901660
  H   6.61565474526715      1.64520919437936     -5.84668043057566
  H   4.68452289292222      0.09465875686176     -6.00350659498605
  S   3.05085169997623     -1.12789092745124     -3.97431187489372
  O   1.78530578382582     -0.04809185578941     -4.25382424906692
  O   2.83074005243211     -1.76461412110338     -2.67996003706573
  O   3.10038987113236     -1.88089450634004     -5.21637327991535
  C   7.83187362022349      2.60878253690319     -3.60113762478880
  H   7.87847061235607      3.29228097355353     -4.45396901387733
  H   7.81447321056416      3.20434277942532     -2.68419742749409
  H   8.76317559132543      2.02931139038842     -3.59717881523643
