23
Coordinates from ORCA-job p-CH3O-Ph-N2-HSO4-B3LYPG-aug-cc-pVDZ-scan-d09-49-n400
  C   -0.24583863003737     -0.62559796352512      0.83706508001879
  C   0.88531146984498     -0.70167595860657      0.01621446031935
  C   1.45799489764125      0.46731516548236     -0.47030187699834
  C   0.92447091681882      1.72227522180636     -0.16183995296710
  C   -0.20158515591506      1.79869874896878      0.65145375296078
  C   -0.79157583759974      0.62674450524134      1.15693060589052
  H   -0.68665141552251     -1.54569072497188      1.21163735093702
  H   1.31917695751859     -1.66576591878427     -0.24103056169952
  H   1.38389248633362      2.62258546707686     -0.56650977836026
  H   -0.64585194170806      2.76045633460767      0.90387847764721
  N   2.94728422742658      4.58374489489455     -2.67189765898324
  N   3.59827923485400      4.91468063545917     -3.49997389356108
  O   -1.89034059605092      0.81194369341225      1.94333541206022
  C   -2.54110702393968     -0.33774145594892      2.47798096129266
  H   -2.91813074874364     -0.99038924655880      1.67592431876926
  H   -3.38258146059371      0.04392046790353      3.06365535389094
  H   -1.86617129313696     -0.90841280317550      3.13391837260575
  S   4.06870117322050      0.21502533463287     -0.73712422799626
  O   2.54504779097347      0.40550499409561     -1.36825445593643
  O   4.07413856953372     -0.86648863932988      0.26495477391477
  O   4.95250215738490      0.25109942108938     -1.89856406906427
  O   4.26815665530814      1.63896398423556      0.07912004373988
  H   4.12967756638912      1.43950384199459      1.02052751151932
