23
Coordinates from ORCA-job p-CH3O-Ph-N2-HSO4-B3LYPG-aug-cc-pVDZ-scan-d09-49-n400
  C   -0.24422621182763     -0.57475808833606      0.77049762384814
  C   0.88625770023328     -0.61004864928861     -0.05411064824798
  C   1.47406230438540      0.58225466027897     -0.45847018096610
  C   0.95750145516178      1.82016457194207     -0.06519507187618
  C   -0.16822636650509      1.85619624107898      0.75133278557294
  C   -0.77353008315861      0.66002861069908      1.17554533393226
  H   -0.69764559570264     -1.51224245779412      1.08150857476595
  H   1.30736165286819     -1.56001264713199     -0.37673514448657
  H   1.43147245019471      2.73650560377897     -0.41195580034194
  H   -0.60034044976053      2.80409709070605      1.06890602291248
  N   2.83151142691820      4.10464978523876     -2.63742979639539
  N   3.42696833717718      4.33762278008141     -3.53741744865370
  O   -1.87019422700146      0.80512116731030      1.97328040839998
  C   -2.53659111024709     -0.36984173823334      2.42766639002868
  H   -2.92165212258892     -0.96069884158001      1.58268059850014
  H   -3.37337008525972     -0.01815293397207      3.03830541093332
  H   -1.86983461781729     -0.99321352113273      3.04272670185807
  S   4.08115816244940      0.31217772069436     -0.74155273657232
  O   2.56190304441258      0.57129280711722     -1.35940326853044
  O   4.06841447725885     -0.83788887748195      0.18061111106344
  O   4.96712413618990      0.41771259566346     -1.89726384848796
  O   4.30283814679165      1.67116452705869      0.17122184624566
  H   4.14383757582789      1.41856959330252      1.09635113649750
