23
Coordinates from ORCA-job p-CH3O-Ph-N2-HSO4-B3LYPG-aug-cc-pVDZ-scan-d09-49-n400
  C   -0.24739348643831      0.04697805913875     -0.20252141891655
  C   0.43725221211196      0.44938215391454     -1.33190801535200
  C   0.74543771108830      1.81218589875795     -1.43471778879137
  C   0.40479373854444      2.79465044049892     -0.49027090251673
  C   -0.28210302477011      2.36658194780236      0.62523133977796
  C   -0.55431638673851      0.98629345504508      0.80664444363217
  H   -0.45128548775085     -1.00878575685898     -0.06264005469271
  H   0.77637322024330     -0.26297751920400     -2.07607276353743
  H   0.70114808068470      3.83304021471746     -0.61782107332227
  H   -0.55448363195611      3.06186508781529      1.41615046697169
  N   1.69346417209834      2.19377852941069     -2.50725582363860
  N   2.42104898549513      2.46584382547376     -3.30489954277208
  O   -1.08938604805487      0.65945996733558      1.98292720094280
  C   -1.09125834914013     -0.72944803140366      2.38157243505322
  H   -1.81280230273897     -1.29949717033726      1.78043243813613
  H   -1.40845360551496     -0.72205323579687      3.42721613093116
  H   -0.07750771036603     -1.13809087791648      2.28621302283381
  S   3.40534961334034     -0.15365457730734      0.48866110990243
  O   3.08018809253810      0.07157044732444     -0.96855409356445
  O   2.19320805730315     -0.48053068160635      1.31740704154121
  O   4.61291509182386     -0.98389746165862      0.76303562612173
  O   3.85392429181544      1.41925511177801      0.98902242114935
  H   4.62868676638184      1.27875017307665      1.55324780011047
