23
Coordinates from ORCA-job p-CH3O-Ph-N2-HSO4-B3LYPG-aug-cc-pVDZ-scan-d09-49-n400
  C   -0.27223590527873      0.02536903369111     -0.32360282835638
  C   0.25294373132652      0.44270737175522     -1.52160436467559
  C   0.70424082413383      1.78129090537469     -1.63651998552169
  C   0.63019030187733      2.70434344961855     -0.55991161060558
  C   0.09897289251262      2.27198645722865      0.62614426188480
  C   -0.31985518406378      0.92099459066060      0.77614536393249
  H   -0.58205419035319     -1.00808286414323     -0.20981172094290
  H   0.35604302141604     -0.24083779343799     -2.36082394229813
  H   1.01779946289112      3.71421821657164     -0.67498769151301
  H   0.04871507282083      2.92737351514452      1.49240257121450
  N   1.33962522657368      2.15354560188977     -2.76933042225596
  N   1.87551445074409      2.45966954672928     -3.70852576757055
  O   -0.78113495298559      0.60342242194108      1.97451700956449
  C   -0.97548925250540     -0.78686536018671      2.31499391980895
  H   -1.80766836581609     -1.20887814385340      1.73522770771786
  H   -1.23002185140346     -0.78236331292102      3.37735111941489
  H   -0.03813855923414     -1.32809307632240      2.14360903613327
  S   3.27804739746377      0.02992200626233      0.78060527425550
  O   3.00914263019584      0.45480606873887     -0.63758544610642
  O   2.02131998980706     -0.37647387732103      1.50922920446192
  O   4.45258998562692     -0.86646891443322      0.98631298508113
  O   3.73132544527788      1.48888819300223      1.53968627018172
  H   4.57492782897290      1.28022596401041      1.96757905619463
