Coordinates from ORCA-job p-NO2-Ph-N2-OOCH-B3LYPG-aug-cc-pVDZ-scan-d09-49-n400
 OpenBabel10311713233D

 19 17  0  0  0  0  0  0  0  0999 V2000
   15.6934    8.8064   -2.3658 C   0  0  0  0  0  0  0  0  0  0  0  0
   14.6866    7.8619   -2.0813 C   0  0  0  0  0  0  0  0  0  0  0  0
   15.0867    6.6185   -2.5440 C   0  0  0  0  0  0  0  0  0  0  0  0
   16.1378    6.2803   -3.1336 C   0  0  0  0  0  0  0  0  0  0  0  0
   17.1876    7.1242   -3.4604 C   0  0  0  0  0  0  0  0  0  0  0  0
   16.8852    8.4365   -3.0265 C   0  0  0  0  0  0  0  0  0  0  0  0
   15.5628    9.8470   -2.0764 H   0  0  0  0  0  0  0  0  0  0  0  0
   13.7566    8.1126   -1.5784 H   0  0  0  0  0  0  0  0  0  0  0  0
   14.3070    4.2484   -2.6307 H   0  0  0  0  0  0  0  0  0  0  0  0
   18.1174    6.8846   -3.9673 H   0  0  0  0  0  0  0  0  0  0  0  0
   17.8928    9.4900   -3.2885 N   0  0  0  0  0  0  0  0  0  0  0  0
   17.6451   10.6310   -2.9093 O   0  0  0  0  0  0  0  0  0  0  0  0
   18.9266    9.1542   -3.8599 O   0  0  0  0  0  0  0  0  0  0  0  0
   11.2137    7.9536   -0.4757 N   0  0  0  0  0  0  0  0  0  0  0  0
   10.2326    7.6127   -0.1022 N   0  0  0  0  0  0  0  0  0  0  0  0
   12.0784    2.8539   -1.6110 H   0  0  0  0  0  0  0  0  0  0  0  0
   12.6724    3.7586   -1.8244 C   0  0  0  0  0  0  0  0  0  0  0  0
   12.3400    4.8828   -1.5319 O   0  0  0  0  0  0  0  0  0  0  0  0
   13.8136    3.4253   -2.4501 O   0  0  0  0  0  0  0  0  0  0  0  0
  1  2  1  0  0  0  0
  1  7  1  0  0  0  0
  2  8  1  0  0  0  0
  3  2  2  0  0  0  0
  4  3  1  0  0  0  0
  5  4  2  0  0  0  0
  5  6  1  0  0  0  0
  6  1  2  0  0  0  0
  9 19  1  0  0  0  0
 10  5  1  0  0  0  0
 11  6  1  0  0  0  0
 11 12  2  0  0  0  0
 13 11  2  0  0  0  0
 14 15  3  0  0  0  0
 17 16  1  0  0  0  0
 17 18  2  0  0  0  0
 19 17  1  0  0  0  0
M  RAD  2   3   2   4   2
M  END
