Coordinates from ORCA-job p-NO2-Ph-N2-OOCH-B3LYPG-aug-cc-pVDZ-scan-d09-49-n400
 OpenBabel10311713233D

 19 17  0  0  0  0  0  0  0  0999 V2000
   15.6810    8.7645   -2.3722 C   0  0  0  0  0  0  0  0  0  0  0  0
   14.6971    7.7931   -2.0986 C   0  0  0  0  0  0  0  0  0  0  0  0
   15.1310    6.5620   -2.5645 C   0  0  0  0  0  0  0  0  0  0  0  0
   16.1947    6.2551   -3.1485 C   0  0  0  0  0  0  0  0  0  0  0  0
   17.2248    7.1264   -3.4652 C   0  0  0  0  0  0  0  0  0  0  0  0
   16.8861    8.4285   -3.0272 C   0  0  0  0  0  0  0  0  0  0  0  0
   15.5222    9.8000   -2.0788 H   0  0  0  0  0  0  0  0  0  0  0  0
   13.7583    8.0173   -1.5995 H   0  0  0  0  0  0  0  0  0  0  0  0
   14.3267    4.2234   -2.6261 H   0  0  0  0  0  0  0  0  0  0  0  0
   18.1636    6.9130   -3.9670 H   0  0  0  0  0  0  0  0  0  0  0  0
   17.8681    9.5085   -3.2780 N   0  0  0  0  0  0  0  0  0  0  0  0
   17.5857   10.6425   -2.9020 O   0  0  0  0  0  0  0  0  0  0  0  0
   18.9103    9.2033   -3.8511 O   0  0  0  0  0  0  0  0  0  0  0  0
   11.1937    7.9988   -0.4388 N   0  0  0  0  0  0  0  0  0  0  0  0
   10.2120    7.6689   -0.0570 N   0  0  0  0  0  0  0  0  0  0  0  0
   12.0435    2.9180   -1.6085 H   0  0  0  0  0  0  0  0  0  0  0  0
   12.6672    3.8001   -1.8320 C   0  0  0  0  0  0  0  0  0  0  0  0
   12.3649    4.9394   -1.5665 O   0  0  0  0  0  0  0  0  0  0  0  0
   13.8052    3.4198   -2.4360 O   0  0  0  0  0  0  0  0  0  0  0  0
  1  2  1  0  0  0  0
  1  7  1  0  0  0  0
  2  8  1  0  0  0  0
  3  2  2  0  0  0  0
  4  3  1  0  0  0  0
  5  4  2  0  0  0  0
  5  6  1  0  0  0  0
  6  1  2  0  0  0  0
  9 19  1  0  0  0  0
 10  5  1  0  0  0  0
 11  6  1  0  0  0  0
 11 12  2  0  0  0  0
 13 11  2  0  0  0  0
 14 15  3  0  0  0  0
 17 16  1  0  0  0  0
 17 18  2  0  0  0  0
 19 17  1  0  0  0  0
M  RAD  2   3   2   4   2
M  END
