Coordinates from ORCA-job p-NO2-Ph-N2-OOCH-B3LYPG-aug-cc-pVDZ-scan-d09-49-n400
 OpenBabel10311713223D

 19 17  0  0  0  0  0  0  0  0999 V2000
   15.7977    9.3706   -2.2591 C   0  0  0  0  0  0  0  0  0  0  0  0
   14.5158    9.0834   -1.7486 C   0  0  0  0  0  0  0  0  0  0  0  0
   14.2594    7.7566   -1.9827 C   0  0  0  0  0  0  0  0  0  0  0  0
   14.8594    6.7795   -2.5123 C   0  0  0  0  0  0  0  0  0  0  0  0
   16.1410    7.0284   -3.0350 C   0  0  0  0  0  0  0  0  0  0  0  0
   16.5658    8.3633   -2.8770 C   0  0  0  0  0  0  0  0  0  0  0  0
   16.2067   10.3755   -2.1803 H   0  0  0  0  0  0  0  0  0  0  0  0
   13.8790    9.8168   -1.2629 H   0  0  0  0  0  0  0  0  0  0  0  0
   14.3060    4.7810   -2.6779 H   0  0  0  0  0  0  0  0  0  0  0  0
   16.7793    6.2940   -3.5199 H   0  0  0  0  0  0  0  0  0  0  0  0
   17.9039    8.7338   -3.3915 N   0  0  0  0  0  0  0  0  0  0  0  0
   18.2718    9.8974   -3.2520 O   0  0  0  0  0  0  0  0  0  0  0  0
   18.5673    7.8526   -3.9295 O   0  0  0  0  0  0  0  0  0  0  0  0
   12.0211    7.4957   -1.0632 N   0  0  0  0  0  0  0  0  0  0  0  0
   11.1142    6.8790   -0.9359 N   0  0  0  0  0  0  0  0  0  0  0  0
   13.1466    2.2600   -2.0914 H   0  0  0  0  0  0  0  0  0  0  0  0
   13.2086    3.3610   -2.0345 C   0  0  0  0  0  0  0  0  0  0  0  0
   12.4372    4.0551   -1.4156 O   0  0  0  0  0  0  0  0  0  0  0  0
   14.2554    3.7988   -2.7481 O   0  0  0  0  0  0  0  0  0  0  0  0
  1  7  1  0  0  0  0
  1  2  2  0  0  0  0
  2  8  1  0  0  0  0
  3  2  1  0  0  0  0
  4  3  2  0  0  0  0
  5  6  2  0  0  0  0
  5  4  1  0  0  0  0
  6  1  1  0  0  0  0
 10  5  1  0  0  0  0
 11 12  2  0  0  0  0
 11  6  1  0  0  0  0
 13 11  2  0  0  0  0
 14 15  3  0  0  0  0
 16 17  1  0  0  0  0
 17 18  2  0  0  0  0
 19  9  1  0  0  0  0
 19 17  1  0  0  0  0
M  RAD  2   3   2   4   2
M  END
