Coordinates from ORCA-job p-NO2-Ph-N2-OOCH-B3LYPG-aug-cc-pVDZ-scan-d09-49-n400
 OpenBabel10311713223D

 19 18  0  0  0  0  0  0  0  0999 V2000
   15.3364    8.8850   -2.9503 C   0  0  0  0  0  0  0  0  0  0  0  0
   14.3122    8.3138   -2.1843 C   0  0  0  0  0  0  0  0  0  0  0  0
   14.6515    7.1942   -1.4566 C   0  0  0  0  0  0  0  0  0  0  0  0
   15.8897    6.5948   -1.3796 C   0  0  0  0  0  0  0  0  0  0  0  0
   16.9049    7.1758   -2.1503 C   0  0  0  0  0  0  0  0  0  0  0  0
   16.6067    8.3043   -2.9181 C   0  0  0  0  0  0  0  0  0  0  0  0
   15.1598    9.7662   -3.5624 H   0  0  0  0  0  0  0  0  0  0  0  0
   13.3088    8.7333   -2.1749 H   0  0  0  0  0  0  0  0  0  0  0  0
   16.0758    5.7180   -0.7636 H   0  0  0  0  0  0  0  0  0  0  0  0
   17.9123    6.7667   -2.1584 H   0  0  0  0  0  0  0  0  0  0  0  0
   17.6838    8.9134   -3.7283 N   0  0  0  0  0  0  0  0  0  0  0  0
   17.4025    9.9053   -4.3945 O   0  0  0  0  0  0  0  0  0  0  0  0
   18.7932    8.3900   -3.6850 O   0  0  0  0  0  0  0  0  0  0  0  0
   13.2537    6.4777   -0.2466 N   0  0  0  0  0  0  0  0  0  0  0  0
   12.5424    5.6297   -0.6625 N   0  0  0  0  0  0  0  0  0  0  0  0
   12.3518    4.0446   -3.6714 H   0  0  0  0  0  0  0  0  0  0  0  0
   12.0435    4.2509   -2.6253 C   0  0  0  0  0  0  0  0  0  0  0  0
   11.1469    3.6947   -2.0533 O   0  0  0  0  0  0  0  0  0  0  0  0
   12.8603    5.2239   -2.1518 O   0  0  0  0  0  0  0  0  0  0  0  0
  1  6  2  0  0  0  0
  1  2  1  0  0  0  0
  2  8  1  0  0  0  0
  2  3  2  0  0  0  0
  3  4  1  0  0  0  0
  4  9  1  0  0  0  0
  5  4  2  0  0  0  0
  6  5  1  0  0  0  0
  7  1  1  0  0  0  0
 10  5  1  0  0  0  0
 11 13  2  0  0  0  0
 11  6  1  0  0  0  0
 12 11  2  0  0  0  0
 15 14  1  0  0  0  0
 16 17  1  0  0  0  0
 17 19  1  0  0  0  0
 17 18  2  0  0  0  0
 19 15  1  0  0  0  0
M  RAD  3   3   2  14   3  15   2
M  END
