Coordinates from ORCA-job p-NO2-Ph-N2-OOCH-B3LYPG-aug-cc-pVDZ-scan-d09-49-n400
 OpenBabel10311713223D

 19 17  0  0  0  0  0  0  0  0999 V2000
   15.8416    9.3468   -2.3017 C   0  0  0  0  0  0  0  0  0  0  0  0
   14.5756    8.9618   -1.8097 C   0  0  0  0  0  0  0  0  0  0  0  0
   14.4200    7.6213   -2.0695 C   0  0  0  0  0  0  0  0  0  0  0  0
   15.1205    6.7321   -2.6124 C   0  0  0  0  0  0  0  0  0  0  0  0
   16.3835    7.0498   -3.1208 C   0  0  0  0  0  0  0  0  0  0  0  0
   16.6950    8.4144   -2.9283 C   0  0  0  0  0  0  0  0  0  0  0  0
   16.1750   10.3776   -2.2013 H   0  0  0  0  0  0  0  0  0  0  0  0
   13.8852    9.6421   -1.3205 H   0  0  0  0  0  0  0  0  0  0  0  0
   14.2827    4.6447   -2.6505 H   0  0  0  0  0  0  0  0  0  0  0  0
   17.0789    6.3735   -3.6100 H   0  0  0  0  0  0  0  0  0  0  0  0
   18.0064    8.8979   -3.4173 N   0  0  0  0  0  0  0  0  0  0  0  0
   18.2828   10.0826   -3.2487 O   0  0  0  0  0  0  0  0  0  0  0  0
   18.7444    8.0799   -3.9585 O   0  0  0  0  0  0  0  0  0  0  0  0
   11.5825    7.4997   -0.8134 N   0  0  0  0  0  0  0  0  0  0  0  0
   10.6196    6.9861   -0.6481 N   0  0  0  0  0  0  0  0  0  0  0  0
   12.9584    2.2173   -2.0457 H   0  0  0  0  0  0  0  0  0  0  0  0
   13.0782    3.3143   -2.0150 C   0  0  0  0  0  0  0  0  0  0  0  0
   12.3220    4.0699   -1.4545 O   0  0  0  0  0  0  0  0  0  0  0  0
   14.1837    3.6705   -2.6913 O   0  0  0  0  0  0  0  0  0  0  0  0
  1  7  1  0  0  0  0
  1  2  2  0  0  0  0
  2  8  1  0  0  0  0
  3  2  1  0  0  0  0
  4  3  2  0  0  0  0
  5  6  2  0  0  0  0
  5  4  1  0  0  0  0
  6  1  1  0  0  0  0
 10  5  1  0  0  0  0
 11 12  2  0  0  0  0
 11  6  1  0  0  0  0
 13 11  2  0  0  0  0
 14 15  3  0  0  0  0
 16 17  1  0  0  0  0
 17 18  2  0  0  0  0
 19  9  1  0  0  0  0
 19 17  1  0  0  0  0
M  RAD  2   3   2   4   2
M  END
