Coordinates from ORCA-job p-NO2-Ph-N2-OOCH-B3LYPG-aug-cc-pVDZ-scan-d09-49-n400
 OpenBabel10311713223D

 19 17  0  0  0  0  0  0  0  0999 V2000
   15.8530    9.3257   -2.3184 C   0  0  0  0  0  0  0  0  0  0  0  0
   14.5992    8.8878   -1.8395 C   0  0  0  0  0  0  0  0  0  0  0  0
   14.4951    7.5434   -2.1122 C   0  0  0  0  0  0  0  0  0  0  0  0
   15.2395    6.6951   -2.6596 C   0  0  0  0  0  0  0  0  0  0  0  0
   16.4926    7.0597   -3.1561 C   0  0  0  0  0  0  0  0  0  0  0  0
   16.7476    8.4339   -2.9473 C   0  0  0  0  0  0  0  0  0  0  0  0
   16.1457   10.3676   -2.2058 H   0  0  0  0  0  0  0  0  0  0  0  0
   13.8803    9.5373   -1.3493 H   0  0  0  0  0  0  0  0  0  0  0  0
   14.2791    4.5902   -2.6342 H   0  0  0  0  0  0  0  0  0  0  0  0
   17.2170    6.4155   -3.6464 H   0  0  0  0  0  0  0  0  0  0  0  0
   18.0428    8.9735   -3.4211 N   0  0  0  0  0  0  0  0  0  0  0  0
   18.2677   10.1679   -3.2462 O   0  0  0  0  0  0  0  0  0  0  0  0
   18.8130    8.1920   -3.9714 O   0  0  0  0  0  0  0  0  0  0  0  0
   11.4312    7.4934   -0.7190 N   0  0  0  0  0  0  0  0  0  0  0  0
   10.4513    7.0185   -0.5383 N   0  0  0  0  0  0  0  0  0  0  0  0
   12.8512    2.2273   -2.0164 H   0  0  0  0  0  0  0  0  0  0  0  0
   13.0117    3.3193   -2.0028 C   0  0  0  0  0  0  0  0  0  0  0  0
   12.2720    4.1137   -1.4751 O   0  0  0  0  0  0  0  0  0  0  0  0
   14.1460    3.6207   -2.6585 O   0  0  0  0  0  0  0  0  0  0  0  0
  1  7  1  0  0  0  0
  1  2  2  0  0  0  0
  2  8  1  0  0  0  0
  3  2  1  0  0  0  0
  4  3  2  0  0  0  0
  5  6  2  0  0  0  0
  5  4  1  0  0  0  0
  6  1  1  0  0  0  0
 10  5  1  0  0  0  0
 11 12  2  0  0  0  0
 11  6  1  0  0  0  0
 13 11  2  0  0  0  0
 14 15  3  0  0  0  0
 16 17  1  0  0  0  0
 17 18  2  0  0  0  0
 19  9  1  0  0  0  0
 19 17  1  0  0  0  0
M  RAD  2   3   2   4   2
M  END
