Coordinates from ORCA-job p-NO2-Ph-N2-OOCH-B3LYPG-aug-cc-pVDZ-scan-d09-49-n400
 OpenBabel10311713223D

 19 19  0  0  0  0  0  0  0  0999 V2000
   15.3435    8.9682   -2.8764 C   0  0  0  0  0  0  0  0  0  0  0  0
   14.2951    8.4283   -2.1280 C   0  0  0  0  0  0  0  0  0  0  0  0
   14.5168    7.2288   -1.4646 C   0  0  0  0  0  0  0  0  0  0  0  0
   15.7327    6.5563   -1.4665 C   0  0  0  0  0  0  0  0  0  0  0  0
   16.7810    7.1024   -2.2089 C   0  0  0  0  0  0  0  0  0  0  0  0
   16.5659    8.2948   -2.9037 C   0  0  0  0  0  0  0  0  0  0  0  0
   15.2267    9.8979   -3.4274 H   0  0  0  0  0  0  0  0  0  0  0  0
   13.3321    8.9312   -2.0674 H   0  0  0  0  0  0  0  0  0  0  0  0
   15.8632    5.6289   -0.9132 H   0  0  0  0  0  0  0  0  0  0  0  0
   17.7535    6.6188   -2.2559 H   0  0  0  0  0  0  0  0  0  0  0  0
   17.6769    8.8691   -3.6912 N   0  0  0  0  0  0  0  0  0  0  0  0
   17.4655    9.9183   -4.2927 O   0  0  0  0  0  0  0  0  0  0  0  0
   18.7440    8.2617   -3.6968 O   0  0  0  0  0  0  0  0  0  0  0  0
   13.3186    6.6892   -0.4971 N   0  0  0  0  0  0  0  0  0  0  0  0
   12.6187    5.7630   -0.8157 N   0  0  0  0  0  0  0  0  0  0  0  0
   12.4990    3.8527   -3.5720 H   0  0  0  0  0  0  0  0  0  0  0  0
   12.1931    4.1478   -2.5490 C   0  0  0  0  0  0  0  0  0  0  0  0
   11.3386    3.6139   -1.9016 O   0  0  0  0  0  0  0  0  0  0  0  0
   12.9713    5.2110   -2.1893 O   0  0  0  0  0  0  0  0  0  0  0  0
  1  2  1  0  0  0  0
  2  8  1  0  0  0  0
  2  3  2  0  0  0  0
  3 14  1  0  0  0  0
  4  3  1  0  0  0  0
  4  9  1  0  0  0  0
  5  4  2  0  0  0  0
  6  1  2  0  0  0  0
  6  5  1  0  0  0  0
  7  1  1  0  0  0  0
 10  5  1  0  0  0  0
 11  6  1  0  0  0  0
 12 11  2  0  0  0  0
 13 11  2  0  0  0  0
 15 14  1  0  0  0  0
 16 17  1  0  0  0  0
 17 19  1  0  0  0  0
 17 18  2  0  0  0  0
 19 15  1  0  0  0  0
M  RAD  2  14   2  15   2
M  END
