Coordinates from ORCA-job p-NO2-Ph-N2-OOCH-B3LYPG-aug-cc-pVDZ-scan-d09-49-n400
 OpenBabel10311713233D

 19 17  0  0  0  0  0  0  0  0999 V2000
   15.6915    8.7981   -2.3660 C   0  0  0  0  0  0  0  0  0  0  0  0
   14.6889    7.8484   -2.0842 C   0  0  0  0  0  0  0  0  0  0  0  0
   15.0955    6.6074   -2.5476 C   0  0  0  0  0  0  0  0  0  0  0  0
   16.1492    6.2752   -3.1360 C   0  0  0  0  0  0  0  0  0  0  0  0
   17.1954    7.1245   -3.4604 C   0  0  0  0  0  0  0  0  0  0  0  0
   16.8861    8.4348   -3.0254 C   0  0  0  0  0  0  0  0  0  0  0  0
   15.5555    9.8378   -2.0756 H   0  0  0  0  0  0  0  0  0  0  0  0
   13.7571    8.0940   -1.5820 H   0  0  0  0  0  0  0  0  0  0  0  0
   14.3104    4.2435   -2.6300 H   0  0  0  0  0  0  0  0  0  0  0  0
   18.1271    6.8899   -3.9660 H   0  0  0  0  0  0  0  0  0  0  0  0
   17.8890    9.4934   -3.2846 N   0  0  0  0  0  0  0  0  0  0  0  0
   17.6320   10.6343   -2.9112 O   0  0  0  0  0  0  0  0  0  0  0  0
   18.9219    9.1648   -3.8617 O   0  0  0  0  0  0  0  0  0  0  0  0
   11.2106    7.9614   -0.4693 N   0  0  0  0  0  0  0  0  0  0  0  0
   10.2294    7.6225   -0.0942 N   0  0  0  0  0  0  0  0  0  0  0  0
   12.0705    2.8668   -1.6106 H   0  0  0  0  0  0  0  0  0  0  0  0
   12.6706    3.7671   -1.8261 C   0  0  0  0  0  0  0  0  0  0  0  0
   12.3443    4.8944   -1.5390 O   0  0  0  0  0  0  0  0  0  0  0  0
   13.8111    3.4242   -2.4477 O   0  0  0  0  0  0  0  0  0  0  0  0
  1  2  1  0  0  0  0
  1  7  1  0  0  0  0
  2  8  1  0  0  0  0
  3  2  2  0  0  0  0
  4  3  1  0  0  0  0
  5  4  2  0  0  0  0
  5  6  1  0  0  0  0
  6  1  2  0  0  0  0
  9 19  1  0  0  0  0
 10  5  1  0  0  0  0
 11  6  1  0  0  0  0
 11 12  2  0  0  0  0
 13 11  2  0  0  0  0
 14 15  3  0  0  0  0
 17 16  1  0  0  0  0
 17 18  2  0  0  0  0
 19 17  1  0  0  0  0
M  RAD  2   3   2   4   2
M  END
