Coordinates from ORCA-job p-NO2-Ph-N2-OOCH-B3LYPG-aug-cc-pVDZ-scan-d09-49-n400
 OpenBabel10311713233D

 19 17  0  0  0  0  0  0  0  0999 V2000
   15.7233    8.8922   -2.3531 C   0  0  0  0  0  0  0  0  0  0  0  0
   14.6724    8.0044   -2.0462 C   0  0  0  0  0  0  0  0  0  0  0  0
   15.0021    6.7372   -2.4967 C   0  0  0  0  0  0  0  0  0  0  0  0
   16.0270    6.3346   -3.0930 C   0  0  0  0  0  0  0  0  0  0  0  0
   17.1144    7.1211   -3.4411 C   0  0  0  0  0  0  0  0  0  0  0  0
   16.8863    8.4526   -3.0215 C   0  0  0  0  0  0  0  0  0  0  0  0
   15.6497    9.9416   -2.0756 H   0  0  0  0  0  0  0  0  0  0  0  0
   13.7630    8.3087   -1.5366 H   0  0  0  0  0  0  0  0  0  0  0  0
   14.2750    4.2864   -2.6282 H   0  0  0  0  0  0  0  0  0  0  0  0
   18.0249    6.8271   -3.9544 H   0  0  0  0  0  0  0  0  0  0  0  0
   17.9444    9.4487   -3.3077 N   0  0  0  0  0  0  0  0  0  0  0  0
   17.7575   10.6072   -2.9471 O   0  0  0  0  0  0  0  0  0  0  0  0
   18.9496    9.0538   -3.8919 O   0  0  0  0  0  0  0  0  0  0  0  0
   11.2374    7.8743   -0.5262 N   0  0  0  0  0  0  0  0  0  0  0  0
   10.2573    7.5123   -0.1706 N   0  0  0  0  0  0  0  0  0  0  0  0
   12.1497    2.7220   -1.6345 H   0  0  0  0  0  0  0  0  0  0  0  0
   12.6827    3.6690   -1.8251 C   0  0  0  0  0  0  0  0  0  0  0  0
   12.2822    4.7608   -1.4992 O   0  0  0  0  0  0  0  0  0  0  0  0
   13.8372    3.4285   -2.4687 O   0  0  0  0  0  0  0  0  0  0  0  0
  1  7  1  0  0  0  0
  1  2  1  0  0  0  0
  2  8  1  0  0  0  0
  3  2  2  0  0  0  0
  4  3  1  0  0  0  0
  5  4  2  0  0  0  0
  5  6  1  0  0  0  0
  6  1  2  0  0  0  0
  9 19  1  0  0  0  0
 10  5  1  0  0  0  0
 11  6  1  0  0  0  0
 11 12  2  0  0  0  0
 13 11  2  0  0  0  0
 14 15  3  0  0  0  0
 17 16  1  0  0  0  0
 17 18  2  0  0  0  0
 19 17  1  0  0  0  0
M  RAD  2   3   2   4   2
M  END
