Coordinates from ORCA-job p-NO2-Ph-N2-OOCH-B3LYPG-aug-cc-pVDZ-scan-d09-49-n400
 OpenBabel10311713223D

 19 19  0  0  0  0  0  0  0  0999 V2000
   15.4191    9.1173   -2.7838 C   0  0  0  0  0  0  0  0  0  0  0  0
   14.3204    8.6060   -2.0941 C   0  0  0  0  0  0  0  0  0  0  0  0
   14.3852    7.3099   -1.5788 C   0  0  0  0  0  0  0  0  0  0  0  0
   15.5379    6.5261   -1.6822 C   0  0  0  0  0  0  0  0  0  0  0  0
   16.6452    7.0467   -2.3489 C   0  0  0  0  0  0  0  0  0  0  0  0
   16.5643    8.3285   -2.8974 C   0  0  0  0  0  0  0  0  0  0  0  0
   15.4038   10.1142   -3.2165 H   0  0  0  0  0  0  0  0  0  0  0  0
   13.4195    9.2015   -1.9577 H   0  0  0  0  0  0  0  0  0  0  0  0
   15.5699    5.5284   -1.2517 H   0  0  0  0  0  0  0  0  0  0  0  0
   17.5624    6.4729   -2.4539 H   0  0  0  0  0  0  0  0  0  0  0  0
   17.7369    8.8722   -3.6138 N   0  0  0  0  0  0  0  0  0  0  0  0
   17.6412   10.0010   -4.0873 O   0  0  0  0  0  0  0  0  0  0  0  0
   18.7349    8.1613   -3.6936 O   0  0  0  0  0  0  0  0  0  0  0  0
   13.2139    6.8637   -0.7704 N   0  0  0  0  0  0  0  0  0  0  0  0
   12.5622    5.8645   -0.9498 N   0  0  0  0  0  0  0  0  0  0  0  0
   12.6720    3.4882   -3.3256 H   0  0  0  0  0  0  0  0  0  0  0  0
   12.3243    3.9348   -2.3730 C   0  0  0  0  0  0  0  0  0  0  0  0
   11.4954    3.4576   -1.6509 O   0  0  0  0  0  0  0  0  0  0  0  0
   13.0275    5.0878   -2.1880 O   0  0  0  0  0  0  0  0  0  0  0  0
  1  2  1  0  0  0  0
  2  8  1  0  0  0  0
  2  3  2  0  0  0  0
  3 14  1  0  0  0  0
  4  3  1  0  0  0  0
  4  9  1  0  0  0  0
  5  4  2  0  0  0  0
  6  1  2  0  0  0  0
  6  5  1  0  0  0  0
  7  1  1  0  0  0  0
 10  5  1  0  0  0  0
 11  6  1  0  0  0  0
 12 11  2  0  0  0  0
 13 11  2  0  0  0  0
 15 14  1  0  0  0  0
 16 17  1  0  0  0  0
 17 19  1  0  0  0  0
 17 18  2  0  0  0  0
 19 15  1  0  0  0  0
M  RAD  2  14   2  15   2
M  END
