Coordinates from ORCA-job p-NO2-Ph-N2-OOCH-B3LYPG-aug-cc-pVDZ-scan-d09-49-n400
 OpenBabel10311713223D

 19 17  0  0  0  0  0  0  0  0999 V2000
   15.8026    9.3706   -2.2629 C   0  0  0  0  0  0  0  0  0  0  0  0
   14.5212    9.0780   -1.7527 C   0  0  0  0  0  0  0  0  0  0  0  0
   14.2730    7.7502   -1.9884 C   0  0  0  0  0  0  0  0  0  0  0  0
   14.8796    6.7791   -2.5184 C   0  0  0  0  0  0  0  0  0  0  0  0
   16.1598    7.0301   -3.0411 C   0  0  0  0  0  0  0  0  0  0  0  0
   16.5767    8.3678   -2.8812 C   0  0  0  0  0  0  0  0  0  0  0  0
   16.2070   10.3774   -2.1834 H   0  0  0  0  0  0  0  0  0  0  0  0
   13.8811    9.8085   -1.2670 H   0  0  0  0  0  0  0  0  0  0  0  0
   14.3026    4.7689   -2.6760 H   0  0  0  0  0  0  0  0  0  0  0  0
   16.8018    6.2991   -3.5261 H   0  0  0  0  0  0  0  0  0  0  0  0
   17.9131    8.7459   -3.3944 N   0  0  0  0  0  0  0  0  0  0  0  0
   18.2750    9.9112   -3.2533 O   0  0  0  0  0  0  0  0  0  0  0  0
   18.5817    7.8685   -3.9324 O   0  0  0  0  0  0  0  0  0  0  0  0
   11.9799    7.4971   -1.0407 N   0  0  0  0  0  0  0  0  0  0  0  0
   11.0677    6.8889   -0.9118 N   0  0  0  0  0  0  0  0  0  0  0  0
   13.1358    2.2519   -2.0904 H   0  0  0  0  0  0  0  0  0  0  0  0
   13.1996    3.3527   -2.0340 C   0  0  0  0  0  0  0  0  0  0  0  0
   12.4279    4.0491   -1.4183 O   0  0  0  0  0  0  0  0  0  0  0  0
   14.2501    3.7876   -2.7450 O   0  0  0  0  0  0  0  0  0  0  0  0
  1  7  1  0  0  0  0
  1  2  2  0  0  0  0
  2  8  1  0  0  0  0
  3  2  1  0  0  0  0
  4  3  2  0  0  0  0
  5  6  2  0  0  0  0
  5  4  1  0  0  0  0
  6  1  1  0  0  0  0
 10  5  1  0  0  0  0
 11 12  2  0  0  0  0
 11  6  1  0  0  0  0
 13 11  2  0  0  0  0
 14 15  3  0  0  0  0
 16 17  1  0  0  0  0
 17 18  2  0  0  0  0
 19  9  1  0  0  0  0
 19 17  1  0  0  0  0
M  RAD  2   3   2   4   2
M  END
