Coordinates from ORCA-job p-NO2-Ph-N2-OOCH-B3LYPG-aug-cc-pVDZ-scan-d09-49-n400
 OpenBabel10311713233D

 19 17  0  0  0  0  0  0  0  0999 V2000
   15.6538    8.6803   -2.3870 C   0  0  0  0  0  0  0  0  0  0  0  0
   14.7193    7.6562   -2.1355 C   0  0  0  0  0  0  0  0  0  0  0  0
   15.2158    6.4498   -2.6052 C   0  0  0  0  0  0  0  0  0  0  0  0
   16.3042    6.2134   -3.1773 C   0  0  0  0  0  0  0  0  0  0  0  0
   17.2933    7.1352   -3.4751 C   0  0  0  0  0  0  0  0  0  0  0  0
   16.8822    8.4140   -3.0297 C   0  0  0  0  0  0  0  0  0  0  0  0
   15.4376    9.7031   -2.0858 H   0  0  0  0  0  0  0  0  0  0  0  0
   13.7642    7.8238   -1.6459 H   0  0  0  0  0  0  0  0  0  0  0  0
   14.3583    4.1741   -2.6125 H   0  0  0  0  0  0  0  0  0  0  0  0
   18.2476    6.9744   -3.9670 H   0  0  0  0  0  0  0  0  0  0  0  0
   17.8106    9.5450   -3.2591 N   0  0  0  0  0  0  0  0  0  0  0  0
   17.4664   10.6594   -2.8760 O   0  0  0  0  0  0  0  0  0  0  0  0
   18.8743    9.2987   -3.8212 O   0  0  0  0  0  0  0  0  0  0  0  0
   11.1763    8.0970   -0.3737 N   0  0  0  0  0  0  0  0  0  0  0  0
   10.1914    7.7907    0.0194 N   0  0  0  0  0  0  0  0  0  0  0  0
   11.9791    3.0405   -1.6078 H   0  0  0  0  0  0  0  0  0  0  0  0
   12.6587    3.8767   -1.8448 C   0  0  0  0  0  0  0  0  0  0  0  0
   12.4186    5.0400   -1.6239 O   0  0  0  0  0  0  0  0  0  0  0  0
   13.7843    3.4102   -2.4093 O   0  0  0  0  0  0  0  0  0  0  0  0
  1  2  1  0  0  0  0
  1  7  1  0  0  0  0
  2  8  1  0  0  0  0
  3  2  2  0  0  0  0
  4  3  1  0  0  0  0
  5  4  2  0  0  0  0
  5  6  1  0  0  0  0
  6  1  2  0  0  0  0
  9 19  1  0  0  0  0
 10  5  1  0  0  0  0
 11  6  1  0  0  0  0
 11 12  2  0  0  0  0
 13 11  2  0  0  0  0
 14 15  3  0  0  0  0
 17 18  2  0  0  0  0
 17 16  1  0  0  0  0
 19 17  1  0  0  0  0
M  RAD  2   3   2   4   2
M  END
