Coordinates from ORCA-job p-NO2-Ph-N2-OOCH-B3LYPG-aug-cc-pVDZ-scan-d09-49-n400
 OpenBabel10311713223D

 19 17  0  0  0  0  0  0  0  0999 V2000
   15.7819    9.3655   -2.2374 C   0  0  0  0  0  0  0  0  0  0  0  0
   14.4985    9.0875   -1.7336 C   0  0  0  0  0  0  0  0  0  0  0  0
   14.2144    7.7679   -1.9779 C   0  0  0  0  0  0  0  0  0  0  0  0
   14.7896    6.7701   -2.5161 C   0  0  0  0  0  0  0  0  0  0  0  0
   16.0777    7.0280   -3.0304 C   0  0  0  0  0  0  0  0  0  0  0  0
   16.5306    8.3498   -2.8638 C   0  0  0  0  0  0  0  0  0  0  0  0
   16.2055   10.3631   -2.1478 H   0  0  0  0  0  0  0  0  0  0  0  0
   13.8690    9.8229   -1.2404 H   0  0  0  0  0  0  0  0  0  0  0  0
   14.2832    4.8429   -2.6998 H   0  0  0  0  0  0  0  0  0  0  0  0
   16.7051    6.2882   -3.5222 H   0  0  0  0  0  0  0  0  0  0  0  0
   17.8756    8.7003   -3.3755 N   0  0  0  0  0  0  0  0  0  0  0  0
   18.2643    9.8557   -3.2241 O   0  0  0  0  0  0  0  0  0  0  0  0
   18.5239    7.8121   -3.9201 O   0  0  0  0  0  0  0  0  0  0  0  0
   12.1846    7.4687   -1.1751 N   0  0  0  0  0  0  0  0  0  0  0  0
   11.2968    6.8197   -1.0706 N   0  0  0  0  0  0  0  0  0  0  0  0
   13.1706    2.3020   -2.0770 H   0  0  0  0  0  0  0  0  0  0  0  0
   13.2400    3.4015   -1.9997 C   0  0  0  0  0  0  0  0  0  0  0  0
   12.5007    4.0799   -1.3237 O   0  0  0  0  0  0  0  0  0  0  0  0
   14.2242    3.8567   -2.7824 O   0  0  0  0  0  0  0  0  0  0  0  0
  1  7  1  0  0  0  0
  1  2  2  0  0  0  0
  2  8  1  0  0  0  0
  3  2  1  0  0  0  0
  4  3  2  0  0  0  0
  5  6  2  0  0  0  0
  5  4  1  0  0  0  0
  6  1  1  0  0  0  0
 10  5  1  0  0  0  0
 11 12  2  0  0  0  0
 11  6  1  0  0  0  0
 13 11  2  0  0  0  0
 14 15  3  0  0  0  0
 16 17  1  0  0  0  0
 17 18  2  0  0  0  0
 19  9  1  0  0  0  0
 19 17  1  0  0  0  0
M  RAD  2   3   2   4   2
M  END
