Coordinates from ORCA-job p-NO2-Ph-N2-OOCH-B3LYPG-aug-cc-pVDZ-scan-d09-49-n400
 OpenBabel10311713223D

 19 19  0  0  0  0  0  0  0  0999 V2000
   15.3686    9.0224   -2.8461 C   0  0  0  0  0  0  0  0  0  0  0  0
   14.3024    8.4957   -2.1145 C   0  0  0  0  0  0  0  0  0  0  0  0
   14.4728    7.2618   -1.4978 C   0  0  0  0  0  0  0  0  0  0  0  0
   15.6643    6.5445   -1.5326 C   0  0  0  0  0  0  0  0  0  0  0  0
   16.7325    7.0783   -2.2543 C   0  0  0  0  0  0  0  0  0  0  0  0
   16.5637    8.3038   -2.9028 C   0  0  0  0  0  0  0  0  0  0  0  0
   15.2871    9.9767   -3.3602 H   0  0  0  0  0  0  0  0  0  0  0  0
   13.3609    9.0347   -2.0284 H   0  0  0  0  0  0  0  0  0  0  0  0
   15.7598    5.5908   -1.0183 H   0  0  0  0  0  0  0  0  0  0  0  0
   17.6852    6.5593   -2.3219 H   0  0  0  0  0  0  0  0  0  0  0  0
   17.6956    8.8641   -3.6706 N   0  0  0  0  0  0  0  0  0  0  0  0
   17.5243    9.9423   -4.2323 O   0  0  0  0  0  0  0  0  0  0  0  0
   18.7382    8.2162   -3.7021 O   0  0  0  0  0  0  0  0  0  0  0  0
   13.2713    6.7525   -0.5691 N   0  0  0  0  0  0  0  0  0  0  0  0
   12.5920    5.7993   -0.8524 N   0  0  0  0  0  0  0  0  0  0  0  0
   12.5654    3.7434   -3.5053 H   0  0  0  0  0  0  0  0  0  0  0  0
   12.2496    4.0747   -2.4965 C   0  0  0  0  0  0  0  0  0  0  0  0
   11.4161    3.5396   -1.8229 O   0  0  0  0  0  0  0  0  0  0  0  0
   12.9863    5.1822   -2.1890 O   0  0  0  0  0  0  0  0  0  0  0  0
  1  2  1  0  0  0  0
  2  8  1  0  0  0  0
  2  3  2  0  0  0  0
  3 14  1  0  0  0  0
  4  3  1  0  0  0  0
  4  9  1  0  0  0  0
  5  4  2  0  0  0  0
  6  1  2  0  0  0  0
  6  5  1  0  0  0  0
  7  1  1  0  0  0  0
 10  5  1  0  0  0  0
 11  6  1  0  0  0  0
 12 11  2  0  0  0  0
 13 11  2  0  0  0  0
 15 14  1  0  0  0  0
 16 17  1  0  0  0  0
 17 19  1  0  0  0  0
 17 18  2  0  0  0  0
 19 15  1  0  0  0  0
M  RAD  2  14   2  15   2
M  END
