Coordinates from ORCA-job p-NO2-Ph-N2-OOCH-B3LYPG-aug-cc-pVDZ-scan-d09-49-n400
 OpenBabel10311713233D

 19 17  0  0  0  0  0  0  0  0999 V2000
   15.6749    8.7451   -2.3759 C   0  0  0  0  0  0  0  0  0  0  0  0
   14.7021    7.7614   -2.1069 C   0  0  0  0  0  0  0  0  0  0  0  0
   15.1505    6.5359   -2.5736 C   0  0  0  0  0  0  0  0  0  0  0  0
   16.2200    6.2443   -3.1552 C   0  0  0  0  0  0  0  0  0  0  0  0
   17.2408    7.1277   -3.4677 C   0  0  0  0  0  0  0  0  0  0  0  0
   16.8854    8.4248   -3.0282 C   0  0  0  0  0  0  0  0  0  0  0  0
   15.5029    9.7780   -2.0807 H   0  0  0  0  0  0  0  0  0  0  0  0
   13.7593    7.9730   -1.6097 H   0  0  0  0  0  0  0  0  0  0  0  0
   14.3359    4.2119   -2.6233 H   0  0  0  0  0  0  0  0  0  0  0  0
   18.1834    6.9263   -3.9673 H   0  0  0  0  0  0  0  0  0  0  0  0
   17.8553    9.5168   -3.2744 N   0  0  0  0  0  0  0  0  0  0  0  0
   17.5590   10.6466   -2.8963 O   0  0  0  0  0  0  0  0  0  0  0  0
   18.9030    9.2248   -3.8445 O   0  0  0  0  0  0  0  0  0  0  0  0
   11.1856    8.0213   -0.4215 N   0  0  0  0  0  0  0  0  0  0  0  0
   10.2032    7.6967   -0.0368 N   0  0  0  0  0  0  0  0  0  0  0  0
   12.0287    2.9474   -1.6082 H   0  0  0  0  0  0  0  0  0  0  0  0
   12.6660    3.8187   -1.8357 C   0  0  0  0  0  0  0  0  0  0  0  0
   12.3782    4.9644   -1.5823 O   0  0  0  0  0  0  0  0  0  0  0  0
   13.8020    3.4174   -2.4294 O   0  0  0  0  0  0  0  0  0  0  0  0
  1  2  1  0  0  0  0
  1  7  1  0  0  0  0
  2  8  1  0  0  0  0
  3  2  2  0  0  0  0
  4  3  1  0  0  0  0
  5  4  2  0  0  0  0
  5  6  1  0  0  0  0
  6  1  2  0  0  0  0
  9 19  1  0  0  0  0
 10  5  1  0  0  0  0
 11  6  1  0  0  0  0
 11 12  2  0  0  0  0
 13 11  2  0  0  0  0
 14 15  3  0  0  0  0
 17 16  1  0  0  0  0
 17 18  2  0  0  0  0
 19 17  1  0  0  0  0
M  RAD  2   3   2   4   2
M  END
