Coordinates from ORCA-job p-NO2-Ph-N2-OOCH-B3LYPG-aug-cc-pVDZ-scan-d09-49-n400
 OpenBabel10311713223D

 19 17  0  0  0  0  0  0  0  0999 V2000
   15.8292    9.3611   -2.2851 C   0  0  0  0  0  0  0  0  0  0  0  0
   14.5546    9.0209   -1.7832 C   0  0  0  0  0  0  0  0  0  0  0  0
   14.3570    7.6855   -2.0318 C   0  0  0  0  0  0  0  0  0  0  0  0
   15.0155    6.7592   -2.5688 C   0  0  0  0  0  0  0  0  0  0  0  0
   16.2866    7.0410   -3.0854 C   0  0  0  0  0  0  0  0  0  0  0  0
   16.6465    8.3949   -2.9080 C   0  0  0  0  0  0  0  0  0  0  0  0
   16.1967   10.3813   -2.1953 H   0  0  0  0  0  0  0  0  0  0  0  0
   13.8882    9.7260   -1.2958 H   0  0  0  0  0  0  0  0  0  0  0  0
   14.2911    4.6949   -2.6635 H   0  0  0  0  0  0  0  0  0  0  0  0
   16.9571    6.3383   -3.5728 H   0  0  0  0  0  0  0  0  0  0  0  0
   17.9703    8.8296   -3.4089 N   0  0  0  0  0  0  0  0  0  0  0  0
   18.2856   10.0068   -3.2561 O   0  0  0  0  0  0  0  0  0  0  0  0
   18.6751    7.9839   -3.9516 O   0  0  0  0  0  0  0  0  0  0  0  0
   11.7305    7.5027   -0.9022 N   0  0  0  0  0  0  0  0  0  0  0  0
   10.7859    6.9510   -0.7554 N   0  0  0  0  0  0  0  0  0  0  0  0
   13.0461    2.2212   -2.0697 H   0  0  0  0  0  0  0  0  0  0  0  0
   13.1355    3.3207   -2.0260 C   0  0  0  0  0  0  0  0  0  0  0  0
   12.3679    4.0460   -1.4409 O   0  0  0  0  0  0  0  0  0  0  0  0
   14.2169    3.7175   -2.7168 O   0  0  0  0  0  0  0  0  0  0  0  0
  1  7  1  0  0  0  0
  1  2  2  0  0  0  0
  2  8  1  0  0  0  0
  3  2  1  0  0  0  0
  4  3  2  0  0  0  0
  5  6  2  0  0  0  0
  5  4  1  0  0  0  0
  6  1  1  0  0  0  0
 10  5  1  0  0  0  0
 11 12  2  0  0  0  0
 11  6  1  0  0  0  0
 13 11  2  0  0  0  0
 14 15  3  0  0  0  0
 16 17  1  0  0  0  0
 17 18  2  0  0  0  0
 19  9  1  0  0  0  0
 19 17  1  0  0  0  0
M  RAD  2   3   2   4   2
M  END
