Coordinates from ORCA-job p-NO2-Ph-N2-OOCH-B3LYPG-aug-cc-pVDZ-scan-d09-49-n400
 OpenBabel10311713223D

 19 17  0  0  0  0  0  0  0  0999 V2000
   15.8629    9.2621   -2.3357 C   0  0  0  0  0  0  0  0  0  0  0  0
   14.6367    8.7210   -1.8945 C   0  0  0  0  0  0  0  0  0  0  0  0
   14.6197    7.3815   -2.2197 C   0  0  0  0  0  0  0  0  0  0  0  0
   15.4406    6.6232   -2.7870 C   0  0  0  0  0  0  0  0  0  0  0  0
   16.6714    7.0811   -3.2521 C   0  0  0  0  0  0  0  0  0  0  0  0
   16.8261    8.4606   -2.9851 C   0  0  0  0  0  0  0  0  0  0  0  0
   16.0816   10.3163   -2.1785 H   0  0  0  0  0  0  0  0  0  0  0  0
   13.8688    9.3008   -1.3908 H   0  0  0  0  0  0  0  0  0  0  0  0
   14.2714    4.4961   -2.6232 H   0  0  0  0  0  0  0  0  0  0  0  0
   17.4448    6.5071   -3.7541 H   0  0  0  0  0  0  0  0  0  0  0  0
   18.0872    9.1062   -3.4166 N   0  0  0  0  0  0  0  0  0  0  0  0
   18.2297   10.3037   -3.1852 O   0  0  0  0  0  0  0  0  0  0  0  0
   18.9212    8.3999   -3.9756 O   0  0  0  0  0  0  0  0  0  0  0  0
   11.1735    7.5560   -0.5639 N   0  0  0  0  0  0  0  0  0  0  0  0
   10.1632    7.1601   -0.3612 N   0  0  0  0  0  0  0  0  0  0  0  0
   12.7037    2.2496   -1.9279 H   0  0  0  0  0  0  0  0  0  0  0  0
   12.9246    3.3302   -1.9648 C   0  0  0  0  0  0  0  0  0  0  0  0
   12.2169    4.1911   -1.5013 O   0  0  0  0  0  0  0  0  0  0  0  0
   14.0922    3.5357   -2.6002 O   0  0  0  0  0  0  0  0  0  0  0  0
  1  7  1  0  0  0  0
  1  2  2  0  0  0  0
  2  8  1  0  0  0  0
  3  2  1  0  0  0  0
  4  3  2  0  0  0  0
  5  6  2  0  0  0  0
  5  4  1  0  0  0  0
  6  1  1  0  0  0  0
  9 19  1  0  0  0  0
 10  5  1  0  0  0  0
 11 12  2  0  0  0  0
 11  6  1  0  0  0  0
 13 11  2  0  0  0  0
 14 15  3  0  0  0  0
 17 16  1  0  0  0  0
 17 18  2  0  0  0  0
 19 17  1  0  0  0  0
M  RAD  2   3   2   4   2
M  END
