Coordinates from ORCA-job p-NO2-Ph-N2-OOCH-B3LYPG-aug-cc-pVDZ-scan-d09-49-n400
 OpenBabel10311713223D

 19 18  0  0  0  0  0  0  0  0999 V2000
   15.3454    8.8979   -2.9496 C   0  0  0  0  0  0  0  0  0  0  0  0
   14.3201    8.3445   -2.1670 C   0  0  0  0  0  0  0  0  0  0  0  0
   14.6896    7.2397   -1.4458 C   0  0  0  0  0  0  0  0  0  0  0  0
   15.9027    6.6082   -1.3628 C   0  0  0  0  0  0  0  0  0  0  0  0
   16.9113    7.1799   -2.1538 C   0  0  0  0  0  0  0  0  0  0  0  0
   16.6109    8.3060   -2.9246 C   0  0  0  0  0  0  0  0  0  0  0  0
   15.1670    9.7737   -3.5694 H   0  0  0  0  0  0  0  0  0  0  0  0
   13.3164    8.7620   -2.1508 H   0  0  0  0  0  0  0  0  0  0  0  0
   16.0797    5.7300   -0.7469 H   0  0  0  0  0  0  0  0  0  0  0  0
   17.9143    6.7597   -2.1734 H   0  0  0  0  0  0  0  0  0  0  0  0
   17.6841    8.9009   -3.7524 N   0  0  0  0  0  0  0  0  0  0  0  0
   17.4014    9.8895   -4.4217 O   0  0  0  0  0  0  0  0  0  0  0  0
   18.7885    8.3679   -3.7167 O   0  0  0  0  0  0  0  0  0  0  0  0
   13.1934    6.4792   -0.1455 N   0  0  0  0  0  0  0  0  0  0  0  0
   12.4840    5.6487   -0.5170 N   0  0  0  0  0  0  0  0  0  0  0  0
   12.3721    4.0166   -3.7231 H   0  0  0  0  0  0  0  0  0  0  0  0
   12.0576    4.2367   -2.6743 C   0  0  0  0  0  0  0  0  0  0  0  0
   11.1495    3.6547   -2.1275 O   0  0  0  0  0  0  0  0  0  0  0  0
   12.8482    5.1866   -2.1951 O   0  0  0  0  0  0  0  0  0  0  0  0
  1  6  2  0  0  0  0
  1  2  1  0  0  0  0
  2  8  1  0  0  0  0
  2  3  2  0  0  0  0
  3  4  1  0  0  0  0
  4  9  1  0  0  0  0
  5  4  2  0  0  0  0
  6  5  1  0  0  0  0
  7  1  1  0  0  0  0
 10  5  1  0  0  0  0
 11 13  2  0  0  0  0
 11  6  1  0  0  0  0
 12 11  2  0  0  0  0
 15 14  1  0  0  0  0
 16 17  1  0  0  0  0
 17 19  1  0  0  0  0
 17 18  2  0  0  0  0
 19 15  1  0  0  0  0
M  RAD  3   3   2  14   3  15   2
M  END
