Coordinates from ORCA-job p-NO2-Ph-N2-OOCH-B3LYPG-aug-cc-pVDZ-scan-d09-49-n400
 OpenBabel10311713223D

 19 18  0  0  0  0  0  0  0  0999 V2000
   15.3434    8.8897   -2.9549 C   0  0  0  0  0  0  0  0  0  0  0  0
   14.3180    8.3195   -2.1883 C   0  0  0  0  0  0  0  0  0  0  0  0
   14.6642    7.2029   -1.4625 C   0  0  0  0  0  0  0  0  0  0  0  0
   15.8978    6.5985   -1.3824 C   0  0  0  0  0  0  0  0  0  0  0  0
   16.9124    7.1803   -2.1544 C   0  0  0  0  0  0  0  0  0  0  0  0
   16.6136    8.3087   -2.9222 C   0  0  0  0  0  0  0  0  0  0  0  0
   15.1663    9.7703   -3.5679 H   0  0  0  0  0  0  0  0  0  0  0  0
   13.3140    8.7372   -2.1792 H   0  0  0  0  0  0  0  0  0  0  0  0
   16.0824    5.7212   -0.7668 H   0  0  0  0  0  0  0  0  0  0  0  0
   17.9198    6.7706   -2.1631 H   0  0  0  0  0  0  0  0  0  0  0  0
   17.6905    8.9175   -3.7330 N   0  0  0  0  0  0  0  0  0  0  0  0
   17.4103    9.9125   -4.3948 O   0  0  0  0  0  0  0  0  0  0  0  0
   18.8012    8.3973   -3.6850 O   0  0  0  0  0  0  0  0  0  0  0  0
   13.2236    6.4641   -0.2167 N   0  0  0  0  0  0  0  0  0  0  0  0
   12.5165    5.6205   -0.6307 N   0  0  0  0  0  0  0  0  0  0  0  0
   12.3446    4.0389   -3.6753 H   0  0  0  0  0  0  0  0  0  0  0  0
   12.0362    4.2411   -2.6271 C   0  0  0  0  0  0  0  0  0  0  0  0
   11.1352    3.6808   -2.0632 O   0  0  0  0  0  0  0  0  0  0  0  0
   12.8460    5.2108   -2.1498 O   0  0  0  0  0  0  0  0  0  0  0  0
  1  6  2  0  0  0  0
  1  2  1  0  0  0  0
  2  8  1  0  0  0  0
  2  3  2  0  0  0  0
  3  4  1  0  0  0  0
  4  9  1  0  0  0  0
  5  4  2  0  0  0  0
  6  5  1  0  0  0  0
  7  1  1  0  0  0  0
 10  5  1  0  0  0  0
 11 13  2  0  0  0  0
 11  6  1  0  0  0  0
 12 11  2  0  0  0  0
 15 14  1  0  0  0  0
 16 17  1  0  0  0  0
 17 19  1  0  0  0  0
 17 18  2  0  0  0  0
 19 15  1  0  0  0  0
M  RAD  3   3   2  14   3  15   2
M  END
