Coordinates from ORCA-job p-NO2-Ph-N2-OOCH-B3LYPG-aug-cc-pVDZ-scan-d09-49-n400
 OpenBabel10311713223D

 19 18  0  0  0  0  0  0  0  0999 V2000
   15.3158    9.0773   -2.7639 C   0  0  0  0  0  0  0  0  0  0  0  0
   14.2498    8.5677   -2.0393 C   0  0  0  0  0  0  0  0  0  0  0  0
   14.2907    7.2428   -1.5118 C   0  0  0  0  0  0  0  0  0  0  0  0
   15.4742    6.4638   -1.7127 C   0  0  0  0  0  0  0  0  0  0  0  0
   16.5520    6.9944   -2.4047 C   0  0  0  0  0  0  0  0  0  0  0  0
   16.4549    8.2861   -2.9278 C   0  0  0  0  0  0  0  0  0  0  0  0
   15.2864   10.0778   -3.1874 H   0  0  0  0  0  0  0  0  0  0  0  0
   13.3487    9.1593   -1.8829 H   0  0  0  0  0  0  0  0  0  0  0  0
   15.5071    5.4590   -1.2981 H   0  0  0  0  0  0  0  0  0  0  0  0
   17.4616    6.4187   -2.5566 H   0  0  0  0  0  0  0  0  0  0  0  0
   17.6053    8.8409   -3.6764 N   0  0  0  0  0  0  0  0  0  0  0  0
   17.4883    9.9734   -4.1338 O   0  0  0  0  0  0  0  0  0  0  0  0
   18.6013    8.1334   -3.7878 O   0  0  0  0  0  0  0  0  0  0  0  0
   13.3640    6.8206   -0.9143 N   0  0  0  0  0  0  0  0  0  0  0  0
   12.6961    5.9207   -0.5895 N   0  0  0  0  0  0  0  0  0  0  0  0
   12.7354    3.1191   -2.8300 H   0  0  0  0  0  0  0  0  0  0  0  0
   12.6070    4.1436   -2.4127 C   0  0  0  0  0  0  0  0  0  0  0  0
   11.8485    4.9534   -2.9305 O   0  0  0  0  0  0  0  0  0  0  0  0
   13.3491    4.3304   -1.3571 O   0  0  0  0  0  0  0  0  0  0  0  0
  1  2  1  0  0  0  0
  2  8  1  0  0  0  0
  2  3  2  0  0  0  0
  3 14  1  0  0  0  0
  4  3  1  0  0  0  0
  4  9  1  0  0  0  0
  5  4  2  0  0  0  0
  6  1  2  0  0  0  0
  6  5  1  0  0  0  0
  7  1  1  0  0  0  0
 10  5  1  0  0  0  0
 11  6  1  0  0  0  0
 12 11  2  0  0  0  0
 13 11  2  0  0  0  0
 14 15  2  0  0  0  0
 16 17  1  0  0  0  0
 17 19  1  0  0  0  0
 18 17  2  0  0  0  0
M  RAD  2  15   2  19   2
M  END
