Coordinates from ORCA-job p-NO2-Ph-N2-OOCH-B3LYPG-aug-cc-pVDZ-scan-d09-49-n400
 OpenBabel10311713223D

 19 19  0  0  0  0  0  0  0  0999 V2000
   15.5190    9.2712   -2.6283 C   0  0  0  0  0  0  0  0  0  0  0  0
   14.3688    8.7379   -2.0597 C   0  0  0  0  0  0  0  0  0  0  0  0
   14.2654    7.3518   -1.7991 C   0  0  0  0  0  0  0  0  0  0  0  0
   15.3658    6.5051   -2.0814 C   0  0  0  0  0  0  0  0  0  0  0  0
   16.5287    7.0437   -2.6226 C   0  0  0  0  0  0  0  0  0  0  0  0
   16.5839    8.4109   -2.8980 C   0  0  0  0  0  0  0  0  0  0  0  0
   15.6074   10.3315   -2.8495 H   0  0  0  0  0  0  0  0  0  0  0  0
   13.5227    9.3772   -1.8128 H   0  0  0  0  0  0  0  0  0  0  0  0
   15.2982    5.4447   -1.8657 H   0  0  0  0  0  0  0  0  0  0  0  0
   17.3890    6.4162   -2.8415 H   0  0  0  0  0  0  0  0  0  0  0  0
   17.8221    8.9716   -3.4879 N   0  0  0  0  0  0  0  0  0  0  0  0
   17.8421   10.1758   -3.7220 O   0  0  0  0  0  0  0  0  0  0  0  0
   18.7464    8.1955   -3.7079 O   0  0  0  0  0  0  0  0  0  0  0  0
   13.1380    6.9614   -1.2557 N   0  0  0  0  0  0  0  0  0  0  0  0
   12.5037    5.9620   -1.1153 N   0  0  0  0  0  0  0  0  0  0  0  0
   12.9151    2.7248   -2.2378 H   0  0  0  0  0  0  0  0  0  0  0  0
   12.3751    3.6768   -2.0478 C   0  0  0  0  0  0  0  0  0  0  0  0
   11.1761    3.7876   -2.1165 O   0  0  0  0  0  0  0  0  0  0  0  0
   13.2685    4.6367   -1.7679 O   0  0  0  0  0  0  0  0  0  0  0  0
  1  2  1  0  0  0  0
  2  8  1  0  0  0  0
  2  3  2  0  0  0  0
  3 14  1  0  0  0  0
  4  9  1  0  0  0  0
  4  3  1  0  0  0  0
  5  4  2  0  0  0  0
  6  1  2  0  0  0  0
  6  5  1  0  0  0  0
  7  1  1  0  0  0  0
 10  5  1  0  0  0  0
 11  6  1  0  0  0  0
 12 11  2  0  0  0  0
 13 11  2  0  0  0  0
 14 15  1  0  0  0  0
 16 17  1  0  0  0  0
 17 19  1  0  0  0  0
 18 17  2  0  0  0  0
 19 15  1  0  0  0  0
M  RAD  2  14   2  15   2
M  END
