Coordinates from ORCA-job p-NO2-Ph-N2-OOCH-B3LYPG-aug-cc-pVDZ-scan-d09-49-n400
 OpenBabel10311713223D

 19 17  0  0  0  0  0  0  0  0999 V2000
   15.8605    9.2916   -2.3313 C   0  0  0  0  0  0  0  0  0  0  0  0
   14.6230    8.7930   -1.8717 C   0  0  0  0  0  0  0  0  0  0  0  0
   14.5704    7.4490   -2.1687 C   0  0  0  0  0  0  0  0  0  0  0  0
   15.3611    6.6520   -2.7270 C   0  0  0  0  0  0  0  0  0  0  0  0
   16.6013    7.0710   -3.2073 C   0  0  0  0  0  0  0  0  0  0  0  0
   16.7966    8.4504   -2.9698 C   0  0  0  0  0  0  0  0  0  0  0  0
   16.1086   10.3424   -2.1965 H   0  0  0  0  0  0  0  0  0  0  0  0
   13.8743    9.4033   -1.3752 H   0  0  0  0  0  0  0  0  0  0  0  0
   14.2727    4.5358   -2.6286 H   0  0  0  0  0  0  0  0  0  0  0  0
   17.3549    6.4662   -3.7032 H   0  0  0  0  0  0  0  0  0  0  0  0
   18.0720    9.0519   -3.4225 N   0  0  0  0  0  0  0  0  0  0  0  0
   18.2479   10.2499   -3.2186 O   0  0  0  0  0  0  0  0  0  0  0  0
   18.8805    8.3124   -3.9759 O   0  0  0  0  0  0  0  0  0  0  0  0
   11.2692    7.5232   -0.6208 N   0  0  0  0  0  0  0  0  0  0  0  0
   10.2706    7.0947   -0.4263 N   0  0  0  0  0  0  0  0  0  0  0  0
   12.7620    2.2395   -1.9690 H   0  0  0  0  0  0  0  0  0  0  0  0
   12.9588    3.3253   -1.9842 C   0  0  0  0  0  0  0  0  0  0  0  0
   12.2376    4.1599   -1.4939 O   0  0  0  0  0  0  0  0  0  0  0  0
   14.1143    3.5709   -2.6269 O   0  0  0  0  0  0  0  0  0  0  0  0
  1  7  1  0  0  0  0
  1  2  2  0  0  0  0
  2  8  1  0  0  0  0
  3  2  1  0  0  0  0
  4  3  2  0  0  0  0
  5  6  2  0  0  0  0
  5  4  1  0  0  0  0
  6  1  1  0  0  0  0
  9 19  1  0  0  0  0
 10  5  1  0  0  0  0
 11 12  2  0  0  0  0
 11  6  1  0  0  0  0
 13 11  2  0  0  0  0
 14 15  3  0  0  0  0
 17 16  1  0  0  0  0
 17 18  2  0  0  0  0
 19 17  1  0  0  0  0
M  RAD  2   3   2   4   2
M  END
