Coordinates from ORCA-job p-NO2-Ph-N2-OOCH-B3LYPG-aug-cc-pVDZ-scan-d09-49-n400
 OpenBabel10311713223D

 19 19  0  0  0  0  0  0  0  0999 V2000
   15.3182    8.8909   -2.9217 C   0  0  0  0  0  0  0  0  0  0  0  0
   14.2929    8.3278   -2.1570 C   0  0  0  0  0  0  0  0  0  0  0  0
   14.5884    7.1827   -1.4355 C   0  0  0  0  0  0  0  0  0  0  0  0
   15.8339    6.5776   -1.3876 C   0  0  0  0  0  0  0  0  0  0  0  0
   16.8560    7.1456   -2.1527 C   0  0  0  0  0  0  0  0  0  0  0  0
   16.5778    8.2881   -2.9064 C   0  0  0  0  0  0  0  0  0  0  0  0
   15.1542    9.7836   -3.5200 H   0  0  0  0  0  0  0  0  0  0  0  0
   13.2999    8.7717   -2.1337 H   0  0  0  0  0  0  0  0  0  0  0  0
   16.0111    5.6907   -0.7830 H   0  0  0  0  0  0  0  0  0  0  0  0
   17.8553    6.7180   -2.1696 H   0  0  0  0  0  0  0  0  0  0  0  0
   17.6613    8.8866   -3.7145 N   0  0  0  0  0  0  0  0  0  0  0  0
   17.3954    9.8914   -4.3681 O   0  0  0  0  0  0  0  0  0  0  0  0
   18.7613    8.3421   -3.6842 O   0  0  0  0  0  0  0  0  0  0  0  0
   13.3559    6.5738   -0.3818 N   0  0  0  0  0  0  0  0  0  0  0  0
   12.6276    5.6972   -0.7577 N   0  0  0  0  0  0  0  0  0  0  0  0
   12.3943    4.0097   -3.6523 H   0  0  0  0  0  0  0  0  0  0  0  0
   12.1039    4.2454   -2.6095 C   0  0  0  0  0  0  0  0  0  0  0  0
   11.2220    3.7118   -1.9995 O   0  0  0  0  0  0  0  0  0  0  0  0
   12.9270    5.2476   -2.1825 O   0  0  0  0  0  0  0  0  0  0  0  0
  1  6  2  0  0  0  0
  1  2  1  0  0  0  0
  2  8  1  0  0  0  0
  2  3  2  0  0  0  0
  3  4  1  0  0  0  0
  3 14  1  0  0  0  0
  4  9  1  0  0  0  0
  5  4  2  0  0  0  0
  6  5  1  0  0  0  0
  7  1  1  0  0  0  0
 10  5  1  0  0  0  0
 11 13  2  0  0  0  0
 11  6  1  0  0  0  0
 12 11  2  0  0  0  0
 15 14  1  0  0  0  0
 16 17  1  0  0  0  0
 17 19  1  0  0  0  0
 17 18  2  0  0  0  0
 19 15  1  0  0  0  0
M  RAD  2  14   2  15   2
M  END
