Coordinates from ORCA-job p-NO2-Ph-N2-OOCH-B3LYPG-aug-cc-pVDZ-scan-d09-49-n400
 OpenBabel10311713223D

 19 17  0  0  0  0  0  0  0  0999 V2000
   15.8602    9.2926   -2.3309 C   0  0  0  0  0  0  0  0  0  0  0  0
   14.6225    8.7956   -1.8710 C   0  0  0  0  0  0  0  0  0  0  0  0
   14.5666    7.4511   -2.1663 C   0  0  0  0  0  0  0  0  0  0  0  0
   15.3568    6.6532   -2.7244 C   0  0  0  0  0  0  0  0  0  0  0  0
   16.5973    7.0707   -3.2051 C   0  0  0  0  0  0  0  0  0  0  0  0
   16.7949    8.4497   -2.9690 C   0  0  0  0  0  0  0  0  0  0  0  0
   16.1096   10.3431   -2.1967 H   0  0  0  0  0  0  0  0  0  0  0  0
   13.8749    9.4075   -1.3745 H   0  0  0  0  0  0  0  0  0  0  0  0
   14.2733    4.5385   -2.6285 H   0  0  0  0  0  0  0  0  0  0  0  0
   17.3501    6.4644   -3.7007 H   0  0  0  0  0  0  0  0  0  0  0  0
   18.0711    9.0488   -3.4225 N   0  0  0  0  0  0  0  0  0  0  0  0
   18.2486   10.2468   -3.2202 O   0  0  0  0  0  0  0  0  0  0  0  0
   18.8781    8.3078   -3.9761 O   0  0  0  0  0  0  0  0  0  0  0  0
   11.2739    7.5218   -0.6237 N   0  0  0  0  0  0  0  0  0  0  0  0
   10.2760    7.0921   -0.4296 N   0  0  0  0  0  0  0  0  0  0  0  0
   12.7655    2.2397   -1.9711 H   0  0  0  0  0  0  0  0  0  0  0  0
   12.9612    3.3259   -1.9853 C   0  0  0  0  0  0  0  0  0  0  0  0
   12.2396    4.1597   -1.4943 O   0  0  0  0  0  0  0  0  0  0  0  0
   14.1161    3.5734   -2.6277 O   0  0  0  0  0  0  0  0  0  0  0  0
  1  7  1  0  0  0  0
  1  2  2  0  0  0  0
  2  8  1  0  0  0  0
  3  2  1  0  0  0  0
  4  3  2  0  0  0  0
  5  6  2  0  0  0  0
  5  4  1  0  0  0  0
  6  1  1  0  0  0  0
  9 19  1  0  0  0  0
 10  5  1  0  0  0  0
 11 12  2  0  0  0  0
 11  6  1  0  0  0  0
 13 11  2  0  0  0  0
 14 15  3  0  0  0  0
 17 16  1  0  0  0  0
 17 18  2  0  0  0  0
 19 17  1  0  0  0  0
M  RAD  2   3   2   4   2
M  END
