Coordinates from ORCA-job p-NO2-Ph-N2-OOCH-B3LYPG-aug-cc-pVDZ-scan-d09-49-n400
 OpenBabel10311713223D

 19 19  0  0  0  0  0  0  0  0999 V2000
   15.3209    8.8732   -2.9428 C   0  0  0  0  0  0  0  0  0  0  0  0
   14.3000    8.3027   -2.1752 C   0  0  0  0  0  0  0  0  0  0  0  0
   14.6240    7.1771   -1.4419 C   0  0  0  0  0  0  0  0  0  0  0  0
   15.8719    6.5872   -1.3741 C   0  0  0  0  0  0  0  0  0  0  0  0
   16.8871    7.1641   -2.1446 C   0  0  0  0  0  0  0  0  0  0  0  0
   16.5906    8.2918   -2.9137 C   0  0  0  0  0  0  0  0  0  0  0  0
   15.1444    9.7548   -3.5542 H   0  0  0  0  0  0  0  0  0  0  0  0
   13.2982    8.7264   -2.1638 H   0  0  0  0  0  0  0  0  0  0  0  0
   16.0603    5.7120   -0.7562 H   0  0  0  0  0  0  0  0  0  0  0  0
   17.8940    6.7542   -2.1528 H   0  0  0  0  0  0  0  0  0  0  0  0
   17.6669    8.8987   -3.7259 N   0  0  0  0  0  0  0  0  0  0  0  0
   17.3896    9.8987   -4.3818 O   0  0  0  0  0  0  0  0  0  0  0  0
   18.7794    8.3823   -3.6732 O   0  0  0  0  0  0  0  0  0  0  0  0
   13.3261    6.5155   -0.3139 N   0  0  0  0  0  0  0  0  0  0  0  0
   12.5992    5.6580   -0.7163 N   0  0  0  0  0  0  0  0  0  0  0  0
   12.3578    4.0494   -3.6679 H   0  0  0  0  0  0  0  0  0  0  0  0
   12.0620    4.2659   -2.6218 C   0  0  0  0  0  0  0  0  0  0  0  0
   11.1706    3.7253   -2.0308 O   0  0  0  0  0  0  0  0  0  0  0  0
   12.8931    5.2454   -2.1664 O   0  0  0  0  0  0  0  0  0  0  0  0
  1  6  2  0  0  0  0
  1  2  1  0  0  0  0
  2  8  1  0  0  0  0
  2  3  2  0  0  0  0
  3  4  1  0  0  0  0
  3 14  1  0  0  0  0
  4  9  1  0  0  0  0
  5  4  2  0  0  0  0
  6  5  1  0  0  0  0
  7  1  1  0  0  0  0
 10  5  1  0  0  0  0
 11 13  2  0  0  0  0
 11  6  1  0  0  0  0
 12 11  2  0  0  0  0
 15 14  1  0  0  0  0
 16 17  1  0  0  0  0
 17 19  1  0  0  0  0
 17 18  2  0  0  0  0
 19 15  1  0  0  0  0
M  RAD  2  14   2  15   2
M  END
