Coordinates from ORCA-job p-NO2-Ph-N2-OOCH-B3LYPG-aug-cc-pVDZ-scan-d09-49-n400
 OpenBabel10311713223D

 19 17  0  0  0  0  0  0  0  0999 V2000
   15.7994    9.3708   -2.2604 C   0  0  0  0  0  0  0  0  0  0  0  0
   14.5176    9.0818   -1.7499 C   0  0  0  0  0  0  0  0  0  0  0  0
   14.2641    7.7547   -1.9846 C   0  0  0  0  0  0  0  0  0  0  0  0
   14.8661    6.7794   -2.5144 C   0  0  0  0  0  0  0  0  0  0  0  0
   16.1473    7.0290   -3.0371 C   0  0  0  0  0  0  0  0  0  0  0  0
   16.5695    8.3649   -2.8784 C   0  0  0  0  0  0  0  0  0  0  0  0
   16.2069   10.3763   -2.1815 H   0  0  0  0  0  0  0  0  0  0  0  0
   13.8797    9.8143   -1.2643 H   0  0  0  0  0  0  0  0  0  0  0  0
   14.3045    4.7769   -2.6773 H   0  0  0  0  0  0  0  0  0  0  0  0
   16.7867    6.2958   -3.5220 H   0  0  0  0  0  0  0  0  0  0  0  0
   17.9070    8.7379   -3.3926 N   0  0  0  0  0  0  0  0  0  0  0  0
   18.2730    9.9020   -3.2523 O   0  0  0  0  0  0  0  0  0  0  0  0
   18.5722    7.8579   -3.9303 O   0  0  0  0  0  0  0  0  0  0  0  0
   12.0075    7.4963   -1.0558 N   0  0  0  0  0  0  0  0  0  0  0  0
   11.0989    6.8824   -0.9279 N   0  0  0  0  0  0  0  0  0  0  0  0
   13.1431    2.2568   -2.0912 H   0  0  0  0  0  0  0  0  0  0  0  0
   13.2054    3.3578   -2.0342 C   0  0  0  0  0  0  0  0  0  0  0  0
   12.4339    4.0523   -1.4161 O   0  0  0  0  0  0  0  0  0  0  0  0
   14.2532    3.7950   -2.7472 O   0  0  0  0  0  0  0  0  0  0  0  0
  1  7  1  0  0  0  0
  1  2  2  0  0  0  0
  2  8  1  0  0  0  0
  3  2  1  0  0  0  0
  4  3  2  0  0  0  0
  5  6  2  0  0  0  0
  5  4  1  0  0  0  0
  6  1  1  0  0  0  0
 10  5  1  0  0  0  0
 11 12  2  0  0  0  0
 11  6  1  0  0  0  0
 13 11  2  0  0  0  0
 14 15  3  0  0  0  0
 16 17  1  0  0  0  0
 17 18  2  0  0  0  0
 19  9  1  0  0  0  0
 19 17  1  0  0  0  0
M  RAD  2   3   2   4   2
M  END
