Coordinates from ORCA-job p-NO2-Ph-N2-OOCH-B3LYPG-aug-cc-pVDZ-scan-d09-49-n400
 OpenBabel10311713233D

 19 17  0  0  0  0  0  0  0  0999 V2000
   15.6985    8.8198   -2.3630 C   0  0  0  0  0  0  0  0  0  0  0  0
   14.6838    7.8849   -2.0750 C   0  0  0  0  0  0  0  0  0  0  0  0
   15.0726    6.6376   -2.5363 C   0  0  0  0  0  0  0  0  0  0  0  0
   16.1190    6.2881   -3.1276 C   0  0  0  0  0  0  0  0  0  0  0  0
   17.1753    7.1226   -3.4582 C   0  0  0  0  0  0  0  0  0  0  0  0
   16.8856    8.4383   -3.0257 C   0  0  0  0  0  0  0  0  0  0  0  0
   15.5777    9.8621   -2.0752 H   0  0  0  0  0  0  0  0  0  0  0  0
   13.7570    8.1448   -1.5709 H   0  0  0  0  0  0  0  0  0  0  0  0
   14.3026    4.2587   -2.6309 H   0  0  0  0  0  0  0  0  0  0  0  0
   18.1018    6.8740   -3.9666 H   0  0  0  0  0  0  0  0  0  0  0  0
   17.9019    9.4824   -3.2915 N   0  0  0  0  0  0  0  0  0  0  0  0
   17.6642   10.6266   -2.9153 O   0  0  0  0  0  0  0  0  0  0  0  0
   18.9306    9.1370   -3.8663 O   0  0  0  0  0  0  0  0  0  0  0  0
   11.2149    7.9388   -0.4844 N   0  0  0  0  0  0  0  0  0  0  0  0
   10.2339    7.5937   -0.1145 N   0  0  0  0  0  0  0  0  0  0  0  0
   12.0911    2.8334   -1.6162 H   0  0  0  0  0  0  0  0  0  0  0  0
   12.6759    3.7459   -1.8225 C   0  0  0  0  0  0  0  0  0  0  0  0
   12.3307    4.8645   -1.5239 O   0  0  0  0  0  0  0  0  0  0  0  0
   13.8190    3.4292   -2.4534 O   0  0  0  0  0  0  0  0  0  0  0  0
  1  7  1  0  0  0  0
  1  2  1  0  0  0  0
  2  8  1  0  0  0  0
  3  2  2  0  0  0  0
  4  3  1  0  0  0  0
  5  4  2  0  0  0  0
  5  6  1  0  0  0  0
  6  1  2  0  0  0  0
  9 19  1  0  0  0  0
 10  5  1  0  0  0  0
 11  6  1  0  0  0  0
 11 12  2  0  0  0  0
 13 11  2  0  0  0  0
 14 15  3  0  0  0  0
 17 16  1  0  0  0  0
 17 18  2  0  0  0  0
 19 17  1  0  0  0  0
M  RAD  2   3   2   4   2
M  END
