Coordinates from ORCA-job p-NO2-Ph-N2-OOCH-B3LYPG-aug-cc-pVDZ-scan-d09-49-n400
 OpenBabel10311713223D

 19 17  0  0  0  0  0  0  0  0999 V2000
   15.8178    9.3652   -2.2764 C   0  0  0  0  0  0  0  0  0  0  0  0
   14.5401    9.0466   -1.7696 C   0  0  0  0  0  0  0  0  0  0  0  0
   14.3196    7.7142   -2.0121 C   0  0  0  0  0  0  0  0  0  0  0  0
   14.9568    6.7698   -2.5465 C   0  0  0  0  0  0  0  0  0  0  0  0
   16.2313    7.0354   -3.0673 C   0  0  0  0  0  0  0  0  0  0  0  0
   16.6160    8.3828   -2.8979 C   0  0  0  0  0  0  0  0  0  0  0  0
   16.2016   10.3797   -2.1916 H   0  0  0  0  0  0  0  0  0  0  0  0
   13.8861    9.7636   -1.2827 H   0  0  0  0  0  0  0  0  0  0  0  0
   14.3028    4.7226   -2.6695 H   0  0  0  0  0  0  0  0  0  0  0  0
   16.8888    6.3198   -3.5539 H   0  0  0  0  0  0  0  0  0  0  0  0
   17.9452    8.7927   -3.4053 N   0  0  0  0  0  0  0  0  0  0  0  0
   18.2832    9.9636   -3.2535 O   0  0  0  0  0  0  0  0  0  0  0  0
   18.6359    7.9316   -3.9418 O   0  0  0  0  0  0  0  0  0  0  0  0
   11.8281    7.5033   -0.9556 N   0  0  0  0  0  0  0  0  0  0  0  0
   10.8954    6.9297   -0.8162 N   0  0  0  0  0  0  0  0  0  0  0  0
   13.0855    2.2338   -2.0791 H   0  0  0  0  0  0  0  0  0  0  0  0
   13.1664    3.3339   -2.0318 C   0  0  0  0  0  0  0  0  0  0  0  0
   12.3972    4.0504   -1.4377 O   0  0  0  0  0  0  0  0  0  0  0  0
   14.2382    3.7437   -2.7288 O   0  0  0  0  0  0  0  0  0  0  0  0
  1  7  1  0  0  0  0
  1  2  2  0  0  0  0
  2  8  1  0  0  0  0
  3  2  1  0  0  0  0
  4  3  2  0  0  0  0
  5  6  2  0  0  0  0
  5  4  1  0  0  0  0
  6  1  1  0  0  0  0
 10  5  1  0  0  0  0
 11 12  2  0  0  0  0
 11  6  1  0  0  0  0
 13 11  2  0  0  0  0
 14 15  3  0  0  0  0
 16 17  1  0  0  0  0
 17 18  2  0  0  0  0
 19  9  1  0  0  0  0
 19 17  1  0  0  0  0
M  RAD  2   3   2   4   2
M  END
