Coordinates from ORCA-job p-NO2-Ph-N2-OOCH-B3LYPG-aug-cc-pVDZ-scan-d09-49-n400
 OpenBabel10311713223D

 19 17  0  0  0  0  0  0  0  0999 V2000
   15.8096    9.3695   -2.2681 C   0  0  0  0  0  0  0  0  0  0  0  0
   14.5293    9.0677   -1.7590 C   0  0  0  0  0  0  0  0  0  0  0  0
   14.2918    7.7379   -1.9973 C   0  0  0  0  0  0  0  0  0  0  0  0
   14.9093    6.7762   -2.5287 C   0  0  0  0  0  0  0  0  0  0  0  0
   16.1876    7.0325   -3.0507 C   0  0  0  0  0  0  0  0  0  0  0  0
   16.5926    8.3740   -2.8873 C   0  0  0  0  0  0  0  0  0  0  0  0
   16.2066   10.3791   -2.1869 H   0  0  0  0  0  0  0  0  0  0  0  0
   13.8842    9.7934   -1.2731 H   0  0  0  0  0  0  0  0  0  0  0  0
   14.3013    4.7502   -2.6738 H   0  0  0  0  0  0  0  0  0  0  0  0
   16.8354    6.3072   -3.5362 H   0  0  0  0  0  0  0  0  0  0  0  0
   17.9264    8.7637   -3.3985 N   0  0  0  0  0  0  0  0  0  0  0  0
   18.2790    9.9315   -3.2549 O   0  0  0  0  0  0  0  0  0  0  0  0
   18.6026    7.8925   -3.9371 O   0  0  0  0  0  0  0  0  0  0  0  0
   11.9170    7.5004   -1.0062 N   0  0  0  0  0  0  0  0  0  0  0  0
   10.9963    6.9059   -0.8741 N   0  0  0  0  0  0  0  0  0  0  0  0
   13.1185    2.2422   -2.0870 H   0  0  0  0  0  0  0  0  0  0  0  0
   13.1873    3.3429   -2.0335 C   0  0  0  0  0  0  0  0  0  0  0  0
   12.4160    4.0457   -1.4255 O   0  0  0  0  0  0  0  0  0  0  0  0
   14.2452    3.7699   -2.7394 O   0  0  0  0  0  0  0  0  0  0  0  0
  1  7  1  0  0  0  0
  1  2  2  0  0  0  0
  2  8  1  0  0  0  0
  3  2  1  0  0  0  0
  4  3  2  0  0  0  0
  5  6  2  0  0  0  0
  5  4  1  0  0  0  0
  6  1  1  0  0  0  0
 10  5  1  0  0  0  0
 11 12  2  0  0  0  0
 11  6  1  0  0  0  0
 13 11  2  0  0  0  0
 14 15  3  0  0  0  0
 16 17  1  0  0  0  0
 17 18  2  0  0  0  0
 19  9  1  0  0  0  0
 19 17  1  0  0  0  0
M  RAD  2   3   2   4   2
M  END
