Coordinates from ORCA-job p-NO2-Ph-N2-OOCH-B3LYPG-aug-cc-pVDZ-scan-d09-49-n400
 OpenBabel10311713223D

 19 18  0  0  0  0  0  0  0  0999 V2000
   15.3138    9.0753   -2.7643 C   0  0  0  0  0  0  0  0  0  0  0  0
   14.2487    8.5659   -2.0383 C   0  0  0  0  0  0  0  0  0  0  0  0
   14.2899    7.2408   -1.5086 C   0  0  0  0  0  0  0  0  0  0  0  0
   15.4757    6.4633   -1.7092 C   0  0  0  0  0  0  0  0  0  0  0  0
   16.5526    6.9944   -2.4019 C   0  0  0  0  0  0  0  0  0  0  0  0
   16.4538    8.2851   -2.9272 C   0  0  0  0  0  0  0  0  0  0  0  0
   15.2832   10.0750   -3.1894 H   0  0  0  0  0  0  0  0  0  0  0  0
   13.3471    9.1569   -1.8830 H   0  0  0  0  0  0  0  0  0  0  0  0
   15.5106    5.4596   -1.2923 H   0  0  0  0  0  0  0  0  0  0  0  0
   17.4632    6.4198   -2.5527 H   0  0  0  0  0  0  0  0  0  0  0  0
   17.6034    8.8402   -3.6766 N   0  0  0  0  0  0  0  0  0  0  0  0
   17.4844    9.9712   -4.1373 O   0  0  0  0  0  0  0  0  0  0  0  0
   18.5998    8.1332   -3.7884 O   0  0  0  0  0  0  0  0  0  0  0  0
   13.3711    6.8215   -0.9165 N   0  0  0  0  0  0  0  0  0  0  0  0
   12.7014    5.9227   -0.5900 N   0  0  0  0  0  0  0  0  0  0  0  0
   12.7322    3.1220   -2.8338 H   0  0  0  0  0  0  0  0  0  0  0  0
   12.6048    4.1458   -2.4143 C   0  0  0  0  0  0  0  0  0  0  0  0
   11.8518    4.9594   -2.9340 O   0  0  0  0  0  0  0  0  0  0  0  0
   13.3486    4.3303   -1.3596 O   0  0  0  0  0  0  0  0  0  0  0  0
  1  2  1  0  0  0  0
  2  8  1  0  0  0  0
  2  3  2  0  0  0  0
  3 14  1  0  0  0  0
  4  3  1  0  0  0  0
  4  9  1  0  0  0  0
  5  4  2  0  0  0  0
  6  1  2  0  0  0  0
  6  5  1  0  0  0  0
  7  1  1  0  0  0  0
 10  5  1  0  0  0  0
 11  6  1  0  0  0  0
 12 11  2  0  0  0  0
 13 11  2  0  0  0  0
 14 15  2  0  0  0  0
 16 17  1  0  0  0  0
 17 19  1  0  0  0  0
 18 17  2  0  0  0  0
M  RAD  2  15   2  19   2
M  END
