Coordinates from ORCA-job p-NO2-Ph-N2-OOCH-B3LYPG-aug-cc-pVDZ-scan-d09-49-n400
 OpenBabel10311713223D

 19 17  0  0  0  0  0  0  0  0999 V2000
   15.8479    9.3397   -2.3086 C   0  0  0  0  0  0  0  0  0  0  0  0
   14.5868    8.9344   -1.8216 C   0  0  0  0  0  0  0  0  0  0  0  0
   14.4488    7.5917   -2.0854 C   0  0  0  0  0  0  0  0  0  0  0  0
   15.1670    6.7184   -2.6305 C   0  0  0  0  0  0  0  0  0  0  0  0
   16.4264    7.0542   -3.1348 C   0  0  0  0  0  0  0  0  0  0  0  0
   16.7168    8.4223   -2.9363 C   0  0  0  0  0  0  0  0  0  0  0  0
   16.1659   10.3749   -2.2036 H   0  0  0  0  0  0  0  0  0  0  0  0
   13.8850    9.6026   -1.3318 H   0  0  0  0  0  0  0  0  0  0  0  0
   14.2823    4.6233   -2.6426 H   0  0  0  0  0  0  0  0  0  0  0  0
   17.1328    6.3898   -3.6245 H   0  0  0  0  0  0  0  0  0  0  0  0
   18.0223    8.9268   -3.4200 N   0  0  0  0  0  0  0  0  0  0  0  0
   18.2794   10.1154   -3.2493 O   0  0  0  0  0  0  0  0  0  0  0  0
   18.7724    8.1223   -3.9649 O   0  0  0  0  0  0  0  0  0  0  0  0
   11.5145    7.4924   -0.7733 N   0  0  0  0  0  0  0  0  0  0  0  0
   10.5446    6.9942   -0.6019 N   0  0  0  0  0  0  0  0  0  0  0  0
   12.9158    2.2220   -2.0338 H   0  0  0  0  0  0  0  0  0  0  0  0
   13.0529    3.3171   -2.0111 C   0  0  0  0  0  0  0  0  0  0  0  0
   12.3031    4.0902   -1.4662 O   0  0  0  0  0  0  0  0  0  0  0  0
   14.1716    3.6506   -2.6773 O   0  0  0  0  0  0  0  0  0  0  0  0
  1  7  1  0  0  0  0
  1  2  2  0  0  0  0
  2  8  1  0  0  0  0
  3  2  1  0  0  0  0
  4  3  2  0  0  0  0
  5  6  2  0  0  0  0
  5  4  1  0  0  0  0
  6  1  1  0  0  0  0
 10  5  1  0  0  0  0
 11 12  2  0  0  0  0
 11  6  1  0  0  0  0
 13 11  2  0  0  0  0
 14 15  3  0  0  0  0
 16 17  1  0  0  0  0
 17 18  2  0  0  0  0
 19  9  1  0  0  0  0
 19 17  1  0  0  0  0
M  RAD  2   3   2   4   2
M  END
