Coordinates from ORCA-job p-NO2-Ph-N2-OOCH-B3LYPG-aug-cc-pVDZ-scan-d09-49-n400
 OpenBabel10311713223D

 19 17  0  0  0  0  0  0  0  0999 V2000
   15.8297    9.3600   -2.2863 C   0  0  0  0  0  0  0  0  0  0  0  0
   14.5565    9.0172   -1.7852 C   0  0  0  0  0  0  0  0  0  0  0  0
   14.3557    7.6807   -2.0318 C   0  0  0  0  0  0  0  0  0  0  0  0
   15.0206    6.7598   -2.5698 C   0  0  0  0  0  0  0  0  0  0  0  0
   16.2907    7.0415   -3.0866 C   0  0  0  0  0  0  0  0  0  0  0  0
   16.6487    8.3954   -2.9092 C   0  0  0  0  0  0  0  0  0  0  0  0
   16.1948   10.3809   -2.1960 H   0  0  0  0  0  0  0  0  0  0  0  0
   13.8891    9.7215   -1.2978 H   0  0  0  0  0  0  0  0  0  0  0  0
   14.2910    4.6934   -2.6621 H   0  0  0  0  0  0  0  0  0  0  0  0
   16.9619    6.3393   -3.5737 H   0  0  0  0  0  0  0  0  0  0  0  0
   17.9721    8.8315   -3.4102 N   0  0  0  0  0  0  0  0  0  0  0  0
   18.2862   10.0087   -3.2563 O   0  0  0  0  0  0  0  0  0  0  0  0
   18.6785    7.9863   -3.9516 O   0  0  0  0  0  0  0  0  0  0  0  0
   11.7206    7.5015   -0.8962 N   0  0  0  0  0  0  0  0  0  0  0  0
   10.7748    6.9525   -0.7478 N   0  0  0  0  0  0  0  0  0  0  0  0
   13.0427    2.2227   -2.0687 H   0  0  0  0  0  0  0  0  0  0  0  0
   13.1350    3.3220   -2.0269 C   0  0  0  0  0  0  0  0  0  0  0  0
   12.3687    4.0515   -1.4452 O   0  0  0  0  0  0  0  0  0  0  0  0
   14.2188    3.7160   -2.7161 O   0  0  0  0  0  0  0  0  0  0  0  0
  1  7  1  0  0  0  0
  1  2  2  0  0  0  0
  2  8  1  0  0  0  0
  3  2  1  0  0  0  0
  4  3  2  0  0  0  0
  5  6  2  0  0  0  0
  5  4  1  0  0  0  0
  6  1  1  0  0  0  0
 10  5  1  0  0  0  0
 11 12  2  0  0  0  0
 11  6  1  0  0  0  0
 13 11  2  0  0  0  0
 14 15  3  0  0  0  0
 16 17  1  0  0  0  0
 17 18  2  0  0  0  0
 19  9  1  0  0  0  0
 19 17  1  0  0  0  0
M  RAD  2   3   2   4   2
M  END
