Coordinates from ORCA-job p-NO2-Ph-N2-OOCH-B3LYPG-aug-cc-pVDZ-scan-d09-49-n400
 OpenBabel10311713223D

 19 19  0  0  0  0  0  0  0  0999 V2000
   15.3945    8.9435   -2.9438 C   0  0  0  0  0  0  0  0  0  0  0  0
   14.3508    8.2675   -2.3398 C   0  0  0  0  0  0  0  0  0  0  0  0
   14.5858    7.0441   -1.6175 C   0  0  0  0  0  0  0  0  0  0  0  0
   15.9426    6.5667   -1.5472 C   0  0  0  0  0  0  0  0  0  0  0  0
   16.9691    7.2612   -2.1596 C   0  0  0  0  0  0  0  0  0  0  0  0
   16.6960    8.4434   -2.8527 C   0  0  0  0  0  0  0  0  0  0  0  0
   15.2098    9.8640   -3.4929 H   0  0  0  0  0  0  0  0  0  0  0  0
   13.3302    8.6407   -2.3976 H   0  0  0  0  0  0  0  0  0  0  0  0
   16.1340    5.6448   -1.0014 H   0  0  0  0  0  0  0  0  0  0  0  0
   17.9910    6.8926   -2.1077 H   0  0  0  0  0  0  0  0  0  0  0  0
   17.7934    9.1714   -3.4942 N   0  0  0  0  0  0  0  0  0  0  0  0
   17.5164   10.2081   -4.0956 O   0  0  0  0  0  0  0  0  0  0  0  0
   18.9259    8.7020   -3.3936 O   0  0  0  0  0  0  0  0  0  0  0  0
   13.7497    6.4989   -1.1083 N   0  0  0  0  0  0  0  0  0  0  0  0
   12.8652    5.7704   -0.8946 N   0  0  0  0  0  0  0  0  0  0  0  0
   11.5695    3.4413   -3.3063 H   0  0  0  0  0  0  0  0  0  0  0  0
   11.6505    3.9888   -2.3382 C   0  0  0  0  0  0  0  0  0  0  0  0
   10.9068    3.7826   -1.4060 O   0  0  0  0  0  0  0  0  0  0  0  0
   12.6548    4.8505   -2.4202 O   0  0  0  0  0  0  0  0  0  0  0  0
  1  6  2  0  0  0  0
  1  2  1  0  0  0  0
  2  3  2  0  0  0  0
  3  4  1  0  0  0  0
  3 14  1  0  0  0  0
  4  9  1  0  0  0  0
  5 10  1  0  0  0  0
  5  4  2  0  0  0  0
  6  5  1  0  0  0  0
  7  1  1  0  0  0  0
  8  2  1  0  0  0  0
 11 13  2  0  0  0  0
 11  6  1  0  0  0  0
 12 11  2  0  0  0  0
 14 15  1  0  0  0  0
 16 17  1  0  0  0  0
 17 18  2  0  0  0  0
 19 17  1  0  0  0  0
 19 15  1  0  0  0  0
M  RAD  2  14   2  15   2
M  END
