Coordinates from ORCA-job p-NO2-Ph-N2-OOCH-B3LYPG-aug-cc-pVDZ-scan-d09-49-n400
 OpenBabel10311713223D

 19 19  0  0  0  0  0  0  0  0999 V2000
   15.4911    9.2532   -2.6457 C   0  0  0  0  0  0  0  0  0  0  0  0
   14.3563    8.7207   -2.0503 C   0  0  0  0  0  0  0  0  0  0  0  0
   14.2647    7.3339   -1.7471 C   0  0  0  0  0  0  0  0  0  0  0  0
   15.3874    6.5007   -2.0262 C   0  0  0  0  0  0  0  0  0  0  0  0
   16.5363    7.0416   -2.5894 C   0  0  0  0  0  0  0  0  0  0  0  0
   16.5674    8.4021   -2.9016 C   0  0  0  0  0  0  0  0  0  0  0  0
   15.5614   10.3081   -2.8971 H   0  0  0  0  0  0  0  0  0  0  0  0
   13.5029    9.3558   -1.8158 H   0  0  0  0  0  0  0  0  0  0  0  0
   15.3353    5.4446   -1.7813 H   0  0  0  0  0  0  0  0  0  0  0  0
   17.4043    6.4220   -2.8000 H   0  0  0  0  0  0  0  0  0  0  0  0
   17.7914    8.9662   -3.5170 N   0  0  0  0  0  0  0  0  0  0  0  0
   17.7882   10.1631   -3.7869 O   0  0  0  0  0  0  0  0  0  0  0  0
   18.7277    8.1999   -3.7196 O   0  0  0  0  0  0  0  0  0  0  0  0
   13.2219    6.9387   -1.2262 N   0  0  0  0  0  0  0  0  0  0  0  0
   12.5629    5.9672   -1.0435 N   0  0  0  0  0  0  0  0  0  0  0  0
   12.8353    2.7164   -2.2538 H   0  0  0  0  0  0  0  0  0  0  0  0
   12.3794    3.7194   -2.1061 C   0  0  0  0  0  0  0  0  0  0  0  0
   11.2081    3.9469   -2.3028 O   0  0  0  0  0  0  0  0  0  0  0  0
   13.3141    4.5818   -1.7069 O   0  0  0  0  0  0  0  0  0  0  0  0
  1  2  1  0  0  0  0
  2  8  1  0  0  0  0
  2  3  2  0  0  0  0
  3 14  1  0  0  0  0
  4  9  1  0  0  0  0
  4  3  1  0  0  0  0
  5  4  2  0  0  0  0
  6  1  2  0  0  0  0
  6  5  1  0  0  0  0
  7  1  1  0  0  0  0
 10  5  1  0  0  0  0
 11  6  1  0  0  0  0
 12 11  2  0  0  0  0
 13 11  2  0  0  0  0
 14 15  1  0  0  0  0
 16 17  1  0  0  0  0
 17 19  1  0  0  0  0
 18 17  2  0  0  0  0
 19 15  1  0  0  0  0
M  RAD  2  14   2  15   2
M  END
