Coordinates from ORCA-job p-NO2-Ph-N2-OOCH-B3LYPG-aug-cc-pVDZ-scan-d09-49-n400
 OpenBabel10311713223D

 19 19  0  0  0  0  0  0  0  0999 V2000
   15.3865    9.0569   -2.8269 C   0  0  0  0  0  0  0  0  0  0  0  0
   14.3088    8.5369   -2.1084 C   0  0  0  0  0  0  0  0  0  0  0  0
   14.4431    7.2805   -1.5259 C   0  0  0  0  0  0  0  0  0  0  0  0
   15.6196    6.5371   -1.5839 C   0  0  0  0  0  0  0  0  0  0  0  0
   16.7013    7.0648   -2.2884 C   0  0  0  0  0  0  0  0  0  0  0  0
   16.5636    8.3113   -2.9036 C   0  0  0  0  0  0  0  0  0  0  0  0
   15.3284   10.0269   -3.3139 H   0  0  0  0  0  0  0  0  0  0  0  0
   13.3818    9.0976   -2.0047 H   0  0  0  0  0  0  0  0  0  0  0  0
   15.6920    5.5668   -1.0980 H   0  0  0  0  0  0  0  0  0  0  0  0
   17.6412    6.5248   -2.3694 H   0  0  0  0  0  0  0  0  0  0  0  0
   17.7095    8.8643   -3.6553 N   0  0  0  0  0  0  0  0  0  0  0  0
   17.5686    9.9662   -4.1782 O   0  0  0  0  0  0  0  0  0  0  0  0
   18.7395    8.1972   -3.6946 O   0  0  0  0  0  0  0  0  0  0  0  0
   13.2458    6.7938   -0.6315 N   0  0  0  0  0  0  0  0  0  0  0  0
   12.5787    5.8223   -0.8822 N   0  0  0  0  0  0  0  0  0  0  0  0
   12.5982    3.6590   -3.4500 H   0  0  0  0  0  0  0  0  0  0  0  0
   12.2772    4.0240   -2.4546 C   0  0  0  0  0  0  0  0  0  0  0  0
   11.4561    3.4984   -1.7583 O   0  0  0  0  0  0  0  0  0  0  0  0
   12.9960    5.1534   -2.1895 O   0  0  0  0  0  0  0  0  0  0  0  0
  1  2  1  0  0  0  0
  2  8  1  0  0  0  0
  2  3  2  0  0  0  0
  3 14  1  0  0  0  0
  4  3  1  0  0  0  0
  4  9  1  0  0  0  0
  5  4  2  0  0  0  0
  6  1  2  0  0  0  0
  6  5  1  0  0  0  0
  7  1  1  0  0  0  0
 10  5  1  0  0  0  0
 11  6  1  0  0  0  0
 12 11  2  0  0  0  0
 13 11  2  0  0  0  0
 15 14  1  0  0  0  0
 16 17  1  0  0  0  0
 17 19  1  0  0  0  0
 17 18  2  0  0  0  0
 19 15  1  0  0  0  0
M  RAD  2  14   2  15   2
M  END
