Coordinates from ORCA-job p-NO2-Ph-N2-OOCH-B3LYPG-aug-cc-pVDZ-scan-d09-49-n400
 OpenBabel10311713223D

 19 17  0  0  0  0  0  0  0  0999 V2000
   15.8125    9.3685   -2.2706 C   0  0  0  0  0  0  0  0  0  0  0  0
   14.5329    9.0618   -1.7621 C   0  0  0  0  0  0  0  0  0  0  0  0
   14.2999    7.7312   -2.0012 C   0  0  0  0  0  0  0  0  0  0  0  0
   14.9242    6.7753   -2.5336 C   0  0  0  0  0  0  0  0  0  0  0  0
   16.2012    7.0334   -3.0554 C   0  0  0  0  0  0  0  0  0  0  0  0
   16.6001    8.3768   -2.8903 C   0  0  0  0  0  0  0  0  0  0  0  0
   16.2056   10.3796   -2.1884 H   0  0  0  0  0  0  0  0  0  0  0  0
   13.8852    9.7851   -1.2760 H   0  0  0  0  0  0  0  0  0  0  0  0
   14.3014    4.7413   -2.6721 H   0  0  0  0  0  0  0  0  0  0  0  0
   16.8518    6.3108   -3.5411 H   0  0  0  0  0  0  0  0  0  0  0  0
   17.9326    8.7724   -3.4003 N   0  0  0  0  0  0  0  0  0  0  0  0
   18.2803    9.9415   -3.2556 O   0  0  0  0  0  0  0  0  0  0  0  0
   18.6126    7.9044   -3.9394 O   0  0  0  0  0  0  0  0  0  0  0  0
   11.8890    7.5007   -0.9906 N   0  0  0  0  0  0  0  0  0  0  0  0
   10.9646    6.9124   -0.8566 N   0  0  0  0  0  0  0  0  0  0  0  0
   13.1082    2.2392   -2.0850 H   0  0  0  0  0  0  0  0  0  0  0  0
   13.1807    3.3397   -2.0332 C   0  0  0  0  0  0  0  0  0  0  0  0
   12.4099    4.0468   -1.4297 O   0  0  0  0  0  0  0  0  0  0  0  0
   14.2433    3.7615   -2.7360 O   0  0  0  0  0  0  0  0  0  0  0  0
  1  7  1  0  0  0  0
  1  2  2  0  0  0  0
  2  8  1  0  0  0  0
  3  2  1  0  0  0  0
  4  3  2  0  0  0  0
  5  6  2  0  0  0  0
  5  4  1  0  0  0  0
  6  1  1  0  0  0  0
 10  5  1  0  0  0  0
 11 12  2  0  0  0  0
 11  6  1  0  0  0  0
 13 11  2  0  0  0  0
 14 15  3  0  0  0  0
 16 17  1  0  0  0  0
 17 18  2  0  0  0  0
 19  9  1  0  0  0  0
 19 17  1  0  0  0  0
M  RAD  2   3   2   4   2
M  END
