Coordinates from ORCA-job p-NO2-Ph-N2-OOCH-B3LYPG-aug-cc-pVDZ-scan-d09-49-n400
 OpenBabel10311713223D

 19 18  0  0  0  0  0  0  0  0999 V2000
   15.3409    9.1009   -2.7608 C   0  0  0  0  0  0  0  0  0  0  0  0
   14.2705    8.5789   -2.0531 C   0  0  0  0  0  0  0  0  0  0  0  0
   14.3051    7.2433   -1.5397 C   0  0  0  0  0  0  0  0  0  0  0  0
   15.5036    6.4771   -1.7369 C   0  0  0  0  0  0  0  0  0  0  0  0
   16.5861    7.0229   -2.4080 C   0  0  0  0  0  0  0  0  0  0  0  0
   16.4873    8.3189   -2.9204 C   0  0  0  0  0  0  0  0  0  0  0  0
   15.3103   10.1062   -3.1728 H   0  0  0  0  0  0  0  0  0  0  0  0
   13.3655    9.1658   -1.9010 H   0  0  0  0  0  0  0  0  0  0  0  0
   15.5399    5.4706   -1.3271 H   0  0  0  0  0  0  0  0  0  0  0  0
   17.5022    6.4554   -2.5522 H   0  0  0  0  0  0  0  0  0  0  0  0
   17.6422    8.8883   -3.6488 N   0  0  0  0  0  0  0  0  0  0  0  0
   17.5249   10.0262   -4.0933 O   0  0  0  0  0  0  0  0  0  0  0  0
   18.6419    8.1859   -3.7617 O   0  0  0  0  0  0  0  0  0  0  0  0
   13.3962    6.8165   -0.9778 N   0  0  0  0  0  0  0  0  0  0  0  0
   12.7204    5.9115   -0.6706 N   0  0  0  0  0  0  0  0  0  0  0  0
   12.5932    3.0006   -2.7134 H   0  0  0  0  0  0  0  0  0  0  0  0
   12.4905    4.0563   -2.3750 C   0  0  0  0  0  0  0  0  0  0  0  0
   11.6422    4.8005   -2.8450 O   0  0  0  0  0  0  0  0  0  0  0  0
   13.3733    4.3567   -1.4597 O   0  0  0  0  0  0  0  0  0  0  0  0
  1  2  1  0  0  0  0
  2  8  1  0  0  0  0
  2  3  2  0  0  0  0
  3 14  1  0  0  0  0
  4  3  1  0  0  0  0
  4  9  1  0  0  0  0
  5  4  2  0  0  0  0
  6  1  2  0  0  0  0
  6  5  1  0  0  0  0
  7  1  1  0  0  0  0
 10  5  1  0  0  0  0
 11  6  1  0  0  0  0
 12 11  2  0  0  0  0
 13 11  2  0  0  0  0
 14 15  2  0  0  0  0
 16 17  1  0  0  0  0
 17 19  1  0  0  0  0
 18 17  2  0  0  0  0
M  RAD  2  15   2  19   2
M  END
