Coordinates from ORCA-job p-NO2-Ph-N2-OOCH-B3LYPG-aug-cc-pVDZ-scan-d09-49-n400
 OpenBabel10311713233D

 19 17  0  0  0  0  0  0  0  0999 V2000
   15.7100    8.8544   -2.3577 C   0  0  0  0  0  0  0  0  0  0  0  0
   14.6776    7.9418   -2.0607 C   0  0  0  0  0  0  0  0  0  0  0  0
   15.0376    6.6846   -2.5169 C   0  0  0  0  0  0  0  0  0  0  0  0
   16.0741    6.3095   -3.1105 C   0  0  0  0  0  0  0  0  0  0  0  0
   17.1457    7.1209   -3.4494 C   0  0  0  0  0  0  0  0  0  0  0  0
   16.8858    8.4446   -3.0231 C   0  0  0  0  0  0  0  0  0  0  0  0
   15.6120    9.9003   -2.0747 H   0  0  0  0  0  0  0  0  0  0  0  0
   13.7589    8.2233   -1.5535 H   0  0  0  0  0  0  0  0  0  0  0  0
   14.2903    4.2742   -2.6304 H   0  0  0  0  0  0  0  0  0  0  0  0
   18.0648    6.8502   -3.9601 H   0  0  0  0  0  0  0  0  0  0  0  0
   17.9227    9.4657   -3.2986 N   0  0  0  0  0  0  0  0  0  0  0  0
   17.7085   10.6176   -2.9319 O   0  0  0  0  0  0  0  0  0  0  0  0
   18.9394    9.0966   -3.8799 O   0  0  0  0  0  0  0  0  0  0  0  0
   11.2269    7.9064   -0.5053 N   0  0  0  0  0  0  0  0  0  0  0  0
   10.2465    7.5524   -0.1423 N   0  0  0  0  0  0  0  0  0  0  0  0
   12.1204    2.7812   -1.6235 H   0  0  0  0  0  0  0  0  0  0  0  0
   12.6792    3.7109   -1.8247 C   0  0  0  0  0  0  0  0  0  0  0  0
   12.3072    4.8171   -1.5130 O   0  0  0  0  0  0  0  0  0  0  0  0
   13.8286    3.4308   -2.4613 O   0  0  0  0  0  0  0  0  0  0  0  0
  1  7  1  0  0  0  0
  1  2  1  0  0  0  0
  2  8  1  0  0  0  0
  3  2  2  0  0  0  0
  4  3  1  0  0  0  0
  5  4  2  0  0  0  0
  5  6  1  0  0  0  0
  6  1  2  0  0  0  0
  9 19  1  0  0  0  0
 10  5  1  0  0  0  0
 11  6  1  0  0  0  0
 11 12  2  0  0  0  0
 13 11  2  0  0  0  0
 14 15  3  0  0  0  0
 17 16  1  0  0  0  0
 17 18  2  0  0  0  0
 19 17  1  0  0  0  0
M  RAD  2   3   2   4   2
M  END
