Coordinates from ORCA-job p-NO2-Ph-N2-OOCH-B3LYPG-aug-cc-pVDZ-scan-d09-49-n400
 OpenBabel10311713223D

 19 18  0  0  0  0  0  0  0  0999 V2000
   15.3237    9.0873   -2.7578 C   0  0  0  0  0  0  0  0  0  0  0  0
   14.2539    8.5784   -2.0370 C   0  0  0  0  0  0  0  0  0  0  0  0
   14.2895    7.2512   -1.5211 C   0  0  0  0  0  0  0  0  0  0  0  0
   15.4655    6.4654   -1.7238 C   0  0  0  0  0  0  0  0  0  0  0  0
   16.5469    6.9941   -2.4131 C   0  0  0  0  0  0  0  0  0  0  0  0
   16.4573    8.2898   -2.9272 C   0  0  0  0  0  0  0  0  0  0  0  0
   15.3008   10.0909   -3.1741 H   0  0  0  0  0  0  0  0  0  0  0  0
   13.3570    9.1747   -1.8753 H   0  0  0  0  0  0  0  0  0  0  0  0
   15.4918    5.4574   -1.3170 H   0  0  0  0  0  0  0  0  0  0  0  0
   17.4532    6.4142   -2.5687 H   0  0  0  0  0  0  0  0  0  0  0  0
   17.6116    8.8429   -3.6720 N   0  0  0  0  0  0  0  0  0  0  0  0
   17.5015    9.9792   -4.1217 O   0  0  0  0  0  0  0  0  0  0  0  0
   18.6024    8.1295   -3.7899 O   0  0  0  0  0  0  0  0  0  0  0  0
   13.3515    6.8299   -0.9208 N   0  0  0  0  0  0  0  0  0  0  0  0
   12.6883    5.9227   -0.6063 N   0  0  0  0  0  0  0  0  0  0  0  0
   12.7466    3.0974   -2.8093 H   0  0  0  0  0  0  0  0  0  0  0  0
   12.6053    4.1240   -2.4017 C   0  0  0  0  0  0  0  0  0  0  0  0
   11.8282    4.9153   -2.9199 O   0  0  0  0  0  0  0  0  0  0  0  0
   13.3610    4.3381   -1.3607 O   0  0  0  0  0  0  0  0  0  0  0  0
  1  2  1  0  0  0  0
  2  8  1  0  0  0  0
  2  3  2  0  0  0  0
  3 14  1  0  0  0  0
  4  3  1  0  0  0  0
  4  9  1  0  0  0  0
  5  4  2  0  0  0  0
  6  1  2  0  0  0  0
  6  5  1  0  0  0  0
  7  1  1  0  0  0  0
 10  5  1  0  0  0  0
 11  6  1  0  0  0  0
 12 11  2  0  0  0  0
 13 11  2  0  0  0  0
 14 15  2  0  0  0  0
 16 17  1  0  0  0  0
 17 19  1  0  0  0  0
 18 17  2  0  0  0  0
M  RAD  2  15   2  19   2
M  END
