Coordinates from ORCA-job p-NO2-Ph-N2-OOCH-B3LYPG-aug-cc-pVDZ-scan-d09-49-n400
 OpenBabel10311713223D

 19 19  0  0  0  0  0  0  0  0999 V2000
   15.3285    8.8785   -2.9464 C   0  0  0  0  0  0  0  0  0  0  0  0
   14.3060    8.3066   -2.1803 C   0  0  0  0  0  0  0  0  0  0  0  0
   14.6378    7.1843   -1.4491 C   0  0  0  0  0  0  0  0  0  0  0  0
   15.8818    6.5915   -1.3757 C   0  0  0  0  0  0  0  0  0  0  0  0
   16.8970    7.1714   -2.1455 C   0  0  0  0  0  0  0  0  0  0  0  0
   16.5991    8.2989   -2.9145 C   0  0  0  0  0  0  0  0  0  0  0  0
   15.1515    9.7597   -3.5584 H   0  0  0  0  0  0  0  0  0  0  0  0
   13.3030    8.7273   -2.1708 H   0  0  0  0  0  0  0  0  0  0  0  0
   16.0697    5.7161   -0.7582 H   0  0  0  0  0  0  0  0  0  0  0  0
   17.9048    6.7631   -2.1527 H   0  0  0  0  0  0  0  0  0  0  0  0
   17.6757    8.9080   -3.7248 N   0  0  0  0  0  0  0  0  0  0  0  0
   17.3940    9.8989   -4.3924 O   0  0  0  0  0  0  0  0  0  0  0  0
   18.7854    8.3848   -3.6818 O   0  0  0  0  0  0  0  0  0  0  0  0
   13.2902    6.4944   -0.2804 N   0  0  0  0  0  0  0  0  0  0  0  0
   12.5720    5.6411   -0.6922 N   0  0  0  0  0  0  0  0  0  0  0  0
   12.3513    4.0534   -3.6714 H   0  0  0  0  0  0  0  0  0  0  0  0
   12.0547    4.2566   -2.6223 C   0  0  0  0  0  0  0  0  0  0  0  0
   11.1561    3.7131   -2.0437 O   0  0  0  0  0  0  0  0  0  0  0  0
   12.8775    5.2346   -2.1568 O   0  0  0  0  0  0  0  0  0  0  0  0
  1  6  2  0  0  0  0
  1  2  1  0  0  0  0
  2  8  1  0  0  0  0
  2  3  2  0  0  0  0
  3  4  1  0  0  0  0
  3 14  1  0  0  0  0
  4  9  1  0  0  0  0
  5  4  2  0  0  0  0
  6  5  1  0  0  0  0
  7  1  1  0  0  0  0
 10  5  1  0  0  0  0
 11 13  2  0  0  0  0
 11  6  1  0  0  0  0
 12 11  2  0  0  0  0
 15 14  1  0  0  0  0
 16 17  1  0  0  0  0
 17 19  1  0  0  0  0
 17 18  2  0  0  0  0
 19 15  1  0  0  0  0
M  RAD  2  14   2  15   2
M  END
