Coordinates from ORCA-job p-NO2-Ph-N2-OOCH-B3LYPG-aug-cc-pVDZ-scan-d09-49-n400
 OpenBabel10311713233D

 19 17  0  0  0  0  0  0  0  0999 V2000
   15.7192    8.8798   -2.3550 C   0  0  0  0  0  0  0  0  0  0  0  0
   14.6746    7.9832   -2.0514 C   0  0  0  0  0  0  0  0  0  0  0  0
   15.0162    6.7197   -2.5044 C   0  0  0  0  0  0  0  0  0  0  0  0
   16.0450    6.3265   -3.0995 C   0  0  0  0  0  0  0  0  0  0  0  0
   17.1270    7.1218   -3.4442 C   0  0  0  0  0  0  0  0  0  0  0  0
   16.8871    8.4507   -3.0223 C   0  0  0  0  0  0  0  0  0  0  0  0
   15.6370    9.9281   -2.0756 H   0  0  0  0  0  0  0  0  0  0  0  0
   13.7616    8.2794   -1.5423 H   0  0  0  0  0  0  0  0  0  0  0  0
   14.2791    4.2792   -2.6290 H   0  0  0  0  0  0  0  0  0  0  0  0
   18.0407    6.8362   -3.9565 H   0  0  0  0  0  0  0  0  0  0  0  0
   17.9376    9.4559   -3.3046 N   0  0  0  0  0  0  0  0  0  0  0  0
   17.7406   10.6122   -2.9422 O   0  0  0  0  0  0  0  0  0  0  0  0
   18.9470    9.0704   -3.8879 O   0  0  0  0  0  0  0  0  0  0  0  0
   11.2335    7.8860   -0.5183 N   0  0  0  0  0  0  0  0  0  0  0  0
   10.2532    7.5272   -0.1598 N   0  0  0  0  0  0  0  0  0  0  0  0
   12.1379    2.7401   -1.6291 H   0  0  0  0  0  0  0  0  0  0  0  0
   12.6788    3.6814   -1.8254 C   0  0  0  0  0  0  0  0  0  0  0  0
   12.2879    4.7783   -1.5040 O   0  0  0  0  0  0  0  0  0  0  0  0
   13.8323    3.4265   -2.4659 O   0  0  0  0  0  0  0  0  0  0  0  0
  1  7  1  0  0  0  0
  1  2  1  0  0  0  0
  2  8  1  0  0  0  0
  3  2  2  0  0  0  0
  4  3  1  0  0  0  0
  5  4  2  0  0  0  0
  5  6  1  0  0  0  0
  6  1  2  0  0  0  0
  9 19  1  0  0  0  0
 10  5  1  0  0  0  0
 11  6  1  0  0  0  0
 11 12  2  0  0  0  0
 13 11  2  0  0  0  0
 14 15  3  0  0  0  0
 17 16  1  0  0  0  0
 17 18  2  0  0  0  0
 19 17  1  0  0  0  0
M  RAD  2   3   2   4   2
M  END
