Coordinates from ORCA-job p-NO2-Ph-N2-OOCH-B3LYPG-aug-cc-pVDZ-scan-d09-49-n400
 OpenBabel10311713233D

 19 17  0  0  0  0  0  0  0  0999 V2000
   15.6716    8.7339   -2.3779 C   0  0  0  0  0  0  0  0  0  0  0  0
   14.7052    7.7433   -2.1117 C   0  0  0  0  0  0  0  0  0  0  0  0
   15.1622    6.5211   -2.5789 C   0  0  0  0  0  0  0  0  0  0  0  0
   16.2349    6.2383   -3.1590 C   0  0  0  0  0  0  0  0  0  0  0  0
   17.2502    7.1286   -3.4691 C   0  0  0  0  0  0  0  0  0  0  0  0
   16.8853    8.4228   -3.0287 C   0  0  0  0  0  0  0  0  0  0  0  0
   15.4921    9.7654   -2.0819 H   0  0  0  0  0  0  0  0  0  0  0  0
   13.7603    7.9477   -1.6156 H   0  0  0  0  0  0  0  0  0  0  0  0
   14.3408    4.2052   -2.6215 H   0  0  0  0  0  0  0  0  0  0  0  0
   18.1949    6.9341   -3.9675 H   0  0  0  0  0  0  0  0  0  0  0  0
   17.8481    9.5216   -3.2722 N   0  0  0  0  0  0  0  0  0  0  0  0
   17.5436   10.6489   -2.8933 O   0  0  0  0  0  0  0  0  0  0  0  0
   18.8987    9.2373   -3.8410 O   0  0  0  0  0  0  0  0  0  0  0  0
   11.1802    8.0343   -0.4111 N   0  0  0  0  0  0  0  0  0  0  0  0
   10.1975    7.7122   -0.0251 N   0  0  0  0  0  0  0  0  0  0  0  0
   12.0201    2.9642   -1.6083 H   0  0  0  0  0  0  0  0  0  0  0  0
   12.6651    3.8292   -1.8377 C   0  0  0  0  0  0  0  0  0  0  0  0
   12.3855    4.9784   -1.5909 O   0  0  0  0  0  0  0  0  0  0  0  0
   13.7997    3.4160   -2.4256 O   0  0  0  0  0  0  0  0  0  0  0  0
  1  2  1  0  0  0  0
  1  7  1  0  0  0  0
  2  8  1  0  0  0  0
  3  2  2  0  0  0  0
  4  3  1  0  0  0  0
  5  4  2  0  0  0  0
  5  6  1  0  0  0  0
  6  1  2  0  0  0  0
  9 19  1  0  0  0  0
 10  5  1  0  0  0  0
 11  6  1  0  0  0  0
 11 12  2  0  0  0  0
 13 11  2  0  0  0  0
 14 15  3  0  0  0  0
 17 16  1  0  0  0  0
 17 18  2  0  0  0  0
 19 17  1  0  0  0  0
M  RAD  2   3   2   4   2
M  END
