Coordinates from ORCA-job p-NO2-Ph-N2-OOCH-B3LYPG-aug-cc-pVDZ-scan-d09-49-n400
 OpenBabel10311713223D

 19 17  0  0  0  0  0  0  0  0999 V2000
   15.8544    9.3194   -2.3200 C   0  0  0  0  0  0  0  0  0  0  0  0
   14.6034    8.8703   -1.8452 C   0  0  0  0  0  0  0  0  0  0  0  0
   14.5073    7.5258   -2.1221 C   0  0  0  0  0  0  0  0  0  0  0  0
   15.2613    6.6871   -2.6711 C   0  0  0  0  0  0  0  0  0  0  0  0
   16.5122    7.0612   -3.1646 C   0  0  0  0  0  0  0  0  0  0  0  0
   16.7567    8.4364   -2.9504 C   0  0  0  0  0  0  0  0  0  0  0  0
   16.1390   10.3631   -2.2032 H   0  0  0  0  0  0  0  0  0  0  0  0
   13.8783    9.5123   -1.3541 H   0  0  0  0  0  0  0  0  0  0  0  0
   14.2792    4.5797   -2.6329 H   0  0  0  0  0  0  0  0  0  0  0  0
   17.2421    6.4238   -3.6555 H   0  0  0  0  0  0  0  0  0  0  0  0
   18.0489    8.9868   -3.4200 N   0  0  0  0  0  0  0  0  0  0  0  0
   18.2633   10.1830   -3.2438 O   0  0  0  0  0  0  0  0  0  0  0  0
   18.8243    8.2136   -3.9746 O   0  0  0  0  0  0  0  0  0  0  0  0
   11.4008    7.4991   -0.7009 N   0  0  0  0  0  0  0  0  0  0  0  0
   10.4170    7.0336   -0.5169 N   0  0  0  0  0  0  0  0  0  0  0  0
   12.8344    2.2304   -2.0079 H   0  0  0  0  0  0  0  0  0  0  0  0
   13.0032    3.3211   -2.0004 C   0  0  0  0  0  0  0  0  0  0  0  0
   12.2676    4.1248   -1.4808 O   0  0  0  0  0  0  0  0  0  0  0  0
   14.1426    3.6108   -2.6531 O   0  0  0  0  0  0  0  0  0  0  0  0
  1  7  1  0  0  0  0
  1  2  2  0  0  0  0
  2  8  1  0  0  0  0
  3  2  1  0  0  0  0
  4  3  2  0  0  0  0
  5  6  2  0  0  0  0
  5  4  1  0  0  0  0
  6  1  1  0  0  0  0
 10  5  1  0  0  0  0
 11 12  2  0  0  0  0
 11  6  1  0  0  0  0
 13 11  2  0  0  0  0
 14 15  3  0  0  0  0
 16 17  1  0  0  0  0
 17 18  2  0  0  0  0
 19  9  1  0  0  0  0
 19 17  1  0  0  0  0
M  RAD  2   3   2   4   2
M  END
