Coordinates from ORCA-job p-NO2-Ph-N2-OOCH-B3LYPG-aug-cc-pVDZ-scan-d09-49-n400
 OpenBabel10311713223D

 19 17  0  0  0  0  0  0  0  0999 V2000
   15.8554    9.3143   -2.3236 C   0  0  0  0  0  0  0  0  0  0  0  0
   14.6071    8.8551   -1.8515 C   0  0  0  0  0  0  0  0  0  0  0  0
   14.5202    7.5108   -2.1331 C   0  0  0  0  0  0  0  0  0  0  0  0
   15.2808    6.6795   -2.6842 C   0  0  0  0  0  0  0  0  0  0  0  0
   16.5295    7.0635   -3.1753 C   0  0  0  0  0  0  0  0  0  0  0  0
   16.7643    8.4398   -2.9563 C   0  0  0  0  0  0  0  0  0  0  0  0
   16.1329   10.3595   -2.2031 H   0  0  0  0  0  0  0  0  0  0  0  0
   13.8772    9.4905   -1.3588 H   0  0  0  0  0  0  0  0  0  0  0  0
   14.2778    4.5708   -2.6326 H   0  0  0  0  0  0  0  0  0  0  0  0
   17.2642    6.4329   -3.6677 H   0  0  0  0  0  0  0  0  0  0  0  0
   18.0530    9.0006   -3.4230 N   0  0  0  0  0  0  0  0  0  0  0  0
   18.2634   10.1955   -3.2334 O   0  0  0  0  0  0  0  0  0  0  0  0
   18.8386    8.2324   -3.9701 O   0  0  0  0  0  0  0  0  0  0  0  0
   11.3718    7.5044   -0.6826 N   0  0  0  0  0  0  0  0  0  0  0  0
   10.3849    7.0470   -0.4953 N   0  0  0  0  0  0  0  0  0  0  0  0
   12.8210    2.2312   -1.9996 H   0  0  0  0  0  0  0  0  0  0  0  0
   12.9949    3.3211   -1.9967 C   0  0  0  0  0  0  0  0  0  0  0  0
   12.2620    4.1306   -1.4824 O   0  0  0  0  0  0  0  0  0  0  0  0
   14.1371    3.6026   -2.6481 O   0  0  0  0  0  0  0  0  0  0  0  0
  1  7  1  0  0  0  0
  1  2  2  0  0  0  0
  2  8  1  0  0  0  0
  3  2  1  0  0  0  0
  4  3  2  0  0  0  0
  5  6  2  0  0  0  0
  5  4  1  0  0  0  0
  6  1  1  0  0  0  0
 10  5  1  0  0  0  0
 11 12  2  0  0  0  0
 11  6  1  0  0  0  0
 13 11  2  0  0  0  0
 14 15  3  0  0  0  0
 16 17  1  0  0  0  0
 17 18  2  0  0  0  0
 19  9  1  0  0  0  0
 19 17  1  0  0  0  0
M  RAD  2   3   2   4   2
M  END
