Coordinates from ORCA-job p-NO2-Ph-N2-OOCH-B3LYPG-aug-cc-pVDZ-scan-d09-49-n400
 OpenBabel10311713223D

 19 17  0  0  0  0  0  0  0  0999 V2000
   15.8272    9.3622   -2.2833 C   0  0  0  0  0  0  0  0  0  0  0  0
   14.5519    9.0265   -1.7804 C   0  0  0  0  0  0  0  0  0  0  0  0
   14.3494    7.6916   -2.0276 C   0  0  0  0  0  0  0  0  0  0  0  0
   15.0040    6.7620   -2.5642 C   0  0  0  0  0  0  0  0  0  0  0  0
   16.2757    7.0399   -3.0818 C   0  0  0  0  0  0  0  0  0  0  0  0
   16.6407    8.3926   -2.9059 C   0  0  0  0  0  0  0  0  0  0  0  0
   16.1980   10.3812   -2.1946 H   0  0  0  0  0  0  0  0  0  0  0  0
   13.8880    9.7340   -1.2931 H   0  0  0  0  0  0  0  0  0  0  0  0
   14.2930    4.7002   -2.6646 H   0  0  0  0  0  0  0  0  0  0  0  0
   16.9436    6.3345   -3.5689 H   0  0  0  0  0  0  0  0  0  0  0  0
   17.9656    8.8223   -3.4081 N   0  0  0  0  0  0  0  0  0  0  0  0
   18.2852    9.9984   -3.2560 O   0  0  0  0  0  0  0  0  0  0  0  0
   18.6673    7.9736   -3.9500 O   0  0  0  0  0  0  0  0  0  0  0  0
   11.7498    7.5022   -0.9131 N   0  0  0  0  0  0  0  0  0  0  0  0
   10.8075    6.9460   -0.7677 N   0  0  0  0  0  0  0  0  0  0  0  0
   13.0537    2.2233   -2.0716 H   0  0  0  0  0  0  0  0  0  0  0  0
   13.1413    3.3229   -2.0271 C   0  0  0  0  0  0  0  0  0  0  0  0
   12.3733    4.0464   -1.4402 O   0  0  0  0  0  0  0  0  0  0  0  0
   14.2209    3.7225   -2.7191 O   0  0  0  0  0  0  0  0  0  0  0  0
  1  7  1  0  0  0  0
  1  2  2  0  0  0  0
  2  8  1  0  0  0  0
  3  2  1  0  0  0  0
  4  3  2  0  0  0  0
  5  6  2  0  0  0  0
  5  4  1  0  0  0  0
  6  1  1  0  0  0  0
 10  5  1  0  0  0  0
 11 12  2  0  0  0  0
 11  6  1  0  0  0  0
 13 11  2  0  0  0  0
 14 15  3  0  0  0  0
 16 17  1  0  0  0  0
 17 18  2  0  0  0  0
 19  9  1  0  0  0  0
 19 17  1  0  0  0  0
M  RAD  2   3   2   4   2
M  END
