Coordinates from ORCA-job p-NO2-Ph-N2-OOCH-B3LYPG-aug-cc-pVDZ-scan-d09-49-n400
 OpenBabel10311713233D

 19 17  0  0  0  0  0  0  0  0999 V2000
   15.6682    8.7204   -2.3804 C   0  0  0  0  0  0  0  0  0  0  0  0
   14.7095    7.7215   -2.1175 C   0  0  0  0  0  0  0  0  0  0  0  0
   15.1778    6.5035   -2.5859 C   0  0  0  0  0  0  0  0  0  0  0  0
   16.2540    6.2312   -3.1640 C   0  0  0  0  0  0  0  0  0  0  0  0
   17.2627    7.1299   -3.4711 C   0  0  0  0  0  0  0  0  0  0  0  0
   16.8859    8.4203   -3.0295 C   0  0  0  0  0  0  0  0  0  0  0  0
   15.4796    9.7498   -2.0833 H   0  0  0  0  0  0  0  0  0  0  0  0
   13.7619    7.9171   -1.6228 H   0  0  0  0  0  0  0  0  0  0  0  0
   14.3462    4.1968   -2.6194 H   0  0  0  0  0  0  0  0  0  0  0  0
   18.2100    6.9440   -3.9680 H   0  0  0  0  0  0  0  0  0  0  0  0
   17.8399    9.5275   -3.2695 N   0  0  0  0  0  0  0  0  0  0  0  0
   17.5248   10.6518   -2.8903 O   0  0  0  0  0  0  0  0  0  0  0  0
   18.8936    9.2531   -3.8375 O   0  0  0  0  0  0  0  0  0  0  0  0
   11.1715    8.0501   -0.3978 N   0  0  0  0  0  0  0  0  0  0  0  0
   10.1884    7.7310   -0.0103 N   0  0  0  0  0  0  0  0  0  0  0  0
   12.0093    2.9839   -1.6085 H   0  0  0  0  0  0  0  0  0  0  0  0
   12.6633    3.8416   -1.8400 C   0  0  0  0  0  0  0  0  0  0  0  0
   12.3930    4.9947   -1.6005 O   0  0  0  0  0  0  0  0  0  0  0  0
   13.7963    3.4142   -2.4211 O   0  0  0  0  0  0  0  0  0  0  0  0
  1  2  1  0  0  0  0
  1  7  1  0  0  0  0
  2  8  1  0  0  0  0
  3  2  2  0  0  0  0
  4  3  1  0  0  0  0
  5  4  2  0  0  0  0
  5  6  1  0  0  0  0
  6  1  2  0  0  0  0
  9 19  1  0  0  0  0
 10  5  1  0  0  0  0
 11  6  1  0  0  0  0
 11 12  2  0  0  0  0
 13 11  2  0  0  0  0
 14 15  3  0  0  0  0
 17 16  1  0  0  0  0
 17 18  2  0  0  0  0
 19 17  1  0  0  0  0
M  RAD  2   3   2   4   2
M  END
