Coordinates from ORCA-job p-NO2-Ph-N2-OOCH-B3LYPG-aug-cc-pVDZ-scan-d09-49-n400
 OpenBabel10311713223D

 19 19  0  0  0  0  0  0  0  0999 V2000
   15.3204    8.9005   -2.9152 C   0  0  0  0  0  0  0  0  0  0  0  0
   14.2923    8.3405   -2.1522 C   0  0  0  0  0  0  0  0  0  0  0  0
   14.5780    7.1880   -1.4374 C   0  0  0  0  0  0  0  0  0  0  0  0
   15.8203    6.5743   -1.3965 C   0  0  0  0  0  0  0  0  0  0  0  0
   16.8456    7.1392   -2.1592 C   0  0  0  0  0  0  0  0  0  0  0  0
   16.5753    8.2882   -2.9057 C   0  0  0  0  0  0  0  0  0  0  0  0
   15.1622    9.7982   -3.5077 H   0  0  0  0  0  0  0  0  0  0  0  0
   13.3031    8.7927   -2.1239 H   0  0  0  0  0  0  0  0  0  0  0  0
   15.9920    5.6822   -0.7980 H   0  0  0  0  0  0  0  0  0  0  0  0
   17.8416    6.7040   -2.1801 H   0  0  0  0  0  0  0  0  0  0  0  0
   17.6621    8.8833   -3.7118 N   0  0  0  0  0  0  0  0  0  0  0  0
   17.4029    9.8937   -4.3593 O   0  0  0  0  0  0  0  0  0  0  0  0
   18.7579    8.3300   -3.6866 O   0  0  0  0  0  0  0  0  0  0  0  0
   13.3549    6.5909   -0.3988 N   0  0  0  0  0  0  0  0  0  0  0  0
   12.6287    5.7079   -0.7667 N   0  0  0  0  0  0  0  0  0  0  0  0
   12.4103    3.9886   -3.6425 H   0  0  0  0  0  0  0  0  0  0  0  0
   12.1153    4.2355   -2.6036 C   0  0  0  0  0  0  0  0  0  0  0  0
   11.2393    3.6996   -1.9873 O   0  0  0  0  0  0  0  0  0  0  0  0
   12.9339    5.2451   -2.1849 O   0  0  0  0  0  0  0  0  0  0  0  0
  1  6  2  0  0  0  0
  1  2  1  0  0  0  0
  2  8  1  0  0  0  0
  2  3  2  0  0  0  0
  3  4  1  0  0  0  0
  3 14  1  0  0  0  0
  4  9  1  0  0  0  0
  5  4  2  0  0  0  0
  6  5  1  0  0  0  0
  7  1  1  0  0  0  0
 10  5  1  0  0  0  0
 11 13  2  0  0  0  0
 11  6  1  0  0  0  0
 12 11  2  0  0  0  0
 15 14  1  0  0  0  0
 16 17  1  0  0  0  0
 17 19  1  0  0  0  0
 17 18  2  0  0  0  0
 19 15  1  0  0  0  0
M  RAD  2  14   2  15   2
M  END
