Coordinates from ORCA-job p-NO2-Ph-N2-OOCH-B3LYPG-aug-cc-pVDZ-scan-d09-49-n400
 OpenBabel10311713233D

 19 17  0  0  0  0  0  0  0  0999 V2000
   15.6887    8.7901   -2.3677 C   0  0  0  0  0  0  0  0  0  0  0  0
   14.6908    7.8349   -2.0879 C   0  0  0  0  0  0  0  0  0  0  0  0
   15.1035    6.5962   -2.5516 C   0  0  0  0  0  0  0  0  0  0  0  0
   16.1599    6.2703   -3.1390 C   0  0  0  0  0  0  0  0  0  0  0  0
   17.2022    7.1250   -3.4615 C   0  0  0  0  0  0  0  0  0  0  0  0
   16.8858    8.4334   -3.0260 C   0  0  0  0  0  0  0  0  0  0  0  0
   15.5471    9.8287   -2.0765 H   0  0  0  0  0  0  0  0  0  0  0  0
   13.7573    8.0753   -1.5864 H   0  0  0  0  0  0  0  0  0  0  0  0
   14.3143    4.2388   -2.6291 H   0  0  0  0  0  0  0  0  0  0  0  0
   18.1356    6.8955   -3.9662 H   0  0  0  0  0  0  0  0  0  0  0  0
   17.8837    9.4971   -3.2832 N   0  0  0  0  0  0  0  0  0  0  0  0
   17.6210   10.6363   -2.9084 O   0  0  0  0  0  0  0  0  0  0  0  0
   18.9193    9.1738   -3.8584 O   0  0  0  0  0  0  0  0  0  0  0  0
   11.2075    7.9700   -0.4624 N   0  0  0  0  0  0  0  0  0  0  0  0
   10.2263    7.6332   -0.0854 N   0  0  0  0  0  0  0  0  0  0  0  0
   12.0639    2.8796   -1.6095 H   0  0  0  0  0  0  0  0  0  0  0  0
   12.6698    3.7753   -1.8274 C   0  0  0  0  0  0  0  0  0  0  0  0
   12.3497    4.9058   -1.5460 O   0  0  0  0  0  0  0  0  0  0  0  0
   13.8096    3.4233   -2.4448 O   0  0  0  0  0  0  0  0  0  0  0  0
  1  2  1  0  0  0  0
  1  7  1  0  0  0  0
  2  8  1  0  0  0  0
  3  2  2  0  0  0  0
  4  3  1  0  0  0  0
  5  4  2  0  0  0  0
  5  6  1  0  0  0  0
  6  1  2  0  0  0  0
  9 19  1  0  0  0  0
 10  5  1  0  0  0  0
 11  6  1  0  0  0  0
 11 12  2  0  0  0  0
 13 11  2  0  0  0  0
 14 15  3  0  0  0  0
 17 16  1  0  0  0  0
 17 18  2  0  0  0  0
 19 17  1  0  0  0  0
M  RAD  2   3   2   4   2
M  END
