Coordinates from ORCA-job p-NO2-Ph-N2-OOCH-B3LYPG-aug-cc-pVDZ-scan-d09-49-n400
 OpenBabel10311713233D

 19 17  0  0  0  0  0  0  0  0999 V2000
   15.7477    8.9643   -2.3454 C   0  0  0  0  0  0  0  0  0  0  0  0
   14.6599    8.1290   -2.0183 C   0  0  0  0  0  0  0  0  0  0  0  0
   14.9326    6.8454   -2.4572 C   0  0  0  0  0  0  0  0  0  0  0  0
   15.9296    6.3815   -3.0559 C   0  0  0  0  0  0  0  0  0  0  0  0
   17.0472    7.1179   -3.4217 C   0  0  0  0  0  0  0  0  0  0  0  0
   16.8835    8.4635   -3.0178 C   0  0  0  0  0  0  0  0  0  0  0  0
   15.7243   10.0194   -2.0810 H   0  0  0  0  0  0  0  0  0  0  0  0
   13.7693    8.4794   -1.5046 H   0  0  0  0  0  0  0  0  0  0  0  0
   14.2535    4.3178   -2.6225 H   0  0  0  0  0  0  0  0  0  0  0  0
   17.9396    6.7775   -3.9383 H   0  0  0  0  0  0  0  0  0  0  0  0
   17.9827    9.4074   -3.3252 N   0  0  0  0  0  0  0  0  0  0  0  0
   17.8511   10.5776   -2.9779 O   0  0  0  0  0  0  0  0  0  0  0  0
   18.9641    8.9603   -3.9121 O   0  0  0  0  0  0  0  0  0  0  0  0
   11.2550    7.8120   -0.5625 N   0  0  0  0  0  0  0  0  0  0  0  0
   10.2751    7.4372   -0.2195 N   0  0  0  0  0  0  0  0  0  0  0  0
   12.2213    2.6129   -1.6639 H   0  0  0  0  0  0  0  0  0  0  0  0
   12.6985    3.5933   -1.8323 C   0  0  0  0  0  0  0  0  0  0  0  0
   12.2377    4.6519   -1.4782 O   0  0  0  0  0  0  0  0  0  0  0  0
   13.8635    3.4340   -2.4831 O   0  0  0  0  0  0  0  0  0  0  0  0
  1  7  1  0  0  0  0
  1  2  1  0  0  0  0
  2  8  1  0  0  0  0
  3  2  2  0  0  0  0
  4  3  1  0  0  0  0
  5  4  2  0  0  0  0
  5  6  1  0  0  0  0
  6  1  2  0  0  0  0
  9 19  1  0  0  0  0
 10  5  1  0  0  0  0
 11  6  1  0  0  0  0
 11 12  2  0  0  0  0
 13 11  2  0  0  0  0
 14 15  3  0  0  0  0
 17 16  1  0  0  0  0
 17 18  2  0  0  0  0
 19 17  1  0  0  0  0
M  RAD  2   3   2   4   2
M  END
