Coordinates from ORCA-job p-NO2-Ph-N2-OOCH-B3LYPG-aug-cc-pVDZ-scan-d09-49-n400
 OpenBabel10311713233D

 19 17  0  0  0  0  0  0  0  0999 V2000
   15.7716    9.0398   -2.3248 C   0  0  0  0  0  0  0  0  0  0  0  0
   14.6506    8.2617   -1.9704 C   0  0  0  0  0  0  0  0  0  0  0  0
   14.8484    6.9632   -2.4042 C   0  0  0  0  0  0  0  0  0  0  0  0
   15.8114    6.4451   -3.0157 C   0  0  0  0  0  0  0  0  0  0  0  0
   16.9569    7.1235   -3.4080 C   0  0  0  0  0  0  0  0  0  0  0  0
   16.8680    8.4785   -3.0137 C   0  0  0  0  0  0  0  0  0  0  0  0
   15.8053   10.0966   -2.0686 H   0  0  0  0  0  0  0  0  0  0  0  0
   13.7916    8.6579   -1.4424 H   0  0  0  0  0  0  0  0  0  0  0  0
   14.2236    4.3443   -2.6060 H   0  0  0  0  0  0  0  0  0  0  0  0
   17.8219    6.7349   -3.9370 H   0  0  0  0  0  0  0  0  0  0  0  0
   18.0066    9.3641   -3.3495 N   0  0  0  0  0  0  0  0  0  0  0  0
   17.9449   10.5392   -2.9991 O   0  0  0  0  0  0  0  0  0  0  0  0
   18.9602    8.8607   -3.9366 O   0  0  0  0  0  0  0  0  0  0  0  0
   11.3648    7.6927   -0.6057 N   0  0  0  0  0  0  0  0  0  0  0  0
   10.3278    7.3886   -0.3814 N   0  0  0  0  0  0  0  0  0  0  0  0
   12.2959    2.5039   -1.6802 H   0  0  0  0  0  0  0  0  0  0  0  0
   12.7128    3.5142   -1.8304 C   0  0  0  0  0  0  0  0  0  0  0  0
   12.1911    4.5361   -1.4572 O   0  0  0  0  0  0  0  0  0  0  0  0
   13.8828    3.4374   -2.4865 O   0  0  0  0  0  0  0  0  0  0  0  0
  1  7  1  0  0  0  0
  1  2  1  0  0  0  0
  2  8  1  0  0  0  0
  3  2  2  0  0  0  0
  4  3  1  0  0  0  0
  5  4  2  0  0  0  0
  5  6  1  0  0  0  0
  6  1  2  0  0  0  0
  9 19  1  0  0  0  0
 10  5  1  0  0  0  0
 11  6  1  0  0  0  0
 11 12  2  0  0  0  0
 13 11  2  0  0  0  0
 14 15  3  0  0  0  0
 17 16  1  0  0  0  0
 17 18  2  0  0  0  0
 19 17  1  0  0  0  0
M  RAD  2   3   2   4   2
M  END
