Coordinates from ORCA-job p-NO2-Ph-N2-OOCH-B3LYPG-aug-cc-pVDZ-scan-d09-49-n400
 OpenBabel10311713233D

 19 17  0  0  0  0  0  0  0  0999 V2000
   15.6831    8.7730   -2.3724 C   0  0  0  0  0  0  0  0  0  0  0  0
   14.6948    7.8068   -2.0962 C   0  0  0  0  0  0  0  0  0  0  0  0
   15.1226    6.5734   -2.5615 C   0  0  0  0  0  0  0  0  0  0  0  0
   16.1837    6.2600   -3.1467 C   0  0  0  0  0  0  0  0  0  0  0  0
   17.2175    7.1263   -3.4657 C   0  0  0  0  0  0  0  0  0  0  0  0
   16.8856    8.4304   -3.0288 C   0  0  0  0  0  0  0  0  0  0  0  0
   15.5297    9.8096   -2.0800 H   0  0  0  0  0  0  0  0  0  0  0  0
   13.7578    8.0363   -1.5961 H   0  0  0  0  0  0  0  0  0  0  0  0
   14.3226    4.2283   -2.6270 H   0  0  0  0  0  0  0  0  0  0  0  0
   18.1546    6.9079   -3.9687 H   0  0  0  0  0  0  0  0  0  0  0  0
   17.8723    9.5055   -3.2823 N   0  0  0  0  0  0  0  0  0  0  0  0
   17.5996   10.6397   -2.8994 O   0  0  0  0  0  0  0  0  0  0  0  0
   18.9161    9.1931   -3.8486 O   0  0  0  0  0  0  0  0  0  0  0  0
   11.1964    7.9894   -0.4456 N   0  0  0  0  0  0  0  0  0  0  0  0
   10.2151    7.6572   -0.0648 N   0  0  0  0  0  0  0  0  0  0  0  0
   12.0506    2.9049   -1.6074 H   0  0  0  0  0  0  0  0  0  0  0  0
   12.6681    3.7917   -1.8294 C   0  0  0  0  0  0  0  0  0  0  0  0
   12.3593    4.9281   -1.5588 O   0  0  0  0  0  0  0  0  0  0  0  0
   13.8067    3.4208   -2.4383 O   0  0  0  0  0  0  0  0  0  0  0  0
  1  2  1  0  0  0  0
  1  7  1  0  0  0  0
  2  8  1  0  0  0  0
  3  2  2  0  0  0  0
  4  3  1  0  0  0  0
  5  4  2  0  0  0  0
  5  6  1  0  0  0  0
  6  1  2  0  0  0  0
  9 19  1  0  0  0  0
 10  5  1  0  0  0  0
 11  6  1  0  0  0  0
 11 12  2  0  0  0  0
 13 11  2  0  0  0  0
 14 15  3  0  0  0  0
 17 16  1  0  0  0  0
 17 18  2  0  0  0  0
 19 17  1  0  0  0  0
M  RAD  2   3   2   4   2
M  END
