Coordinates from ORCA-job p-NO2-Ph-N2-OOCH-B3LYPG-aug-cc-pVDZ-scan-d09-49-n400
 OpenBabel10311713223D

 19 17  0  0  0  0  0  0  0  0999 V2000
   15.8425    9.3461   -2.3022 C   0  0  0  0  0  0  0  0  0  0  0  0
   14.5773    8.9586   -1.8112 C   0  0  0  0  0  0  0  0  0  0  0  0
   14.4216    7.6174   -2.0705 C   0  0  0  0  0  0  0  0  0  0  0  0
   15.1252    6.7305   -2.6137 C   0  0  0  0  0  0  0  0  0  0  0  0
   16.3879    7.0507   -3.1213 C   0  0  0  0  0  0  0  0  0  0  0  0
   16.6975    8.4153   -2.9285 C   0  0  0  0  0  0  0  0  0  0  0  0
   16.1742   10.3774   -2.2012 H   0  0  0  0  0  0  0  0  0  0  0  0
   13.8857    9.6380   -1.3221 H   0  0  0  0  0  0  0  0  0  0  0  0
   14.2822    4.6420   -2.6495 H   0  0  0  0  0  0  0  0  0  0  0  0
   17.0847    6.3756   -3.6104 H   0  0  0  0  0  0  0  0  0  0  0  0
   18.0086    8.9007   -3.4167 N   0  0  0  0  0  0  0  0  0  0  0  0
   18.2820   10.0863   -3.2505 O   0  0  0  0  0  0  0  0  0  0  0  0
   18.7466    8.0844   -3.9605 O   0  0  0  0  0  0  0  0  0  0  0  0
   11.5752    7.4998   -0.8092 N   0  0  0  0  0  0  0  0  0  0  0  0
   10.6113    6.9883   -0.6432 N   0  0  0  0  0  0  0  0  0  0  0  0
   12.9542    2.2173   -2.0448 H   0  0  0  0  0  0  0  0  0  0  0  0
   13.0760    3.3141   -2.0151 C   0  0  0  0  0  0  0  0  0  0  0  0
   12.3208    4.0720   -1.4567 O   0  0  0  0  0  0  0  0  0  0  0  0
   14.1828    3.6679   -2.6900 O   0  0  0  0  0  0  0  0  0  0  0  0
  1  7  1  0  0  0  0
  1  2  2  0  0  0  0
  2  8  1  0  0  0  0
  3  2  1  0  0  0  0
  4  3  2  0  0  0  0
  5  6  2  0  0  0  0
  5  4  1  0  0  0  0
  6  1  1  0  0  0  0
 10  5  1  0  0  0  0
 11 12  2  0  0  0  0
 11  6  1  0  0  0  0
 13 11  2  0  0  0  0
 14 15  3  0  0  0  0
 16 17  1  0  0  0  0
 17 18  2  0  0  0  0
 19  9  1  0  0  0  0
 19 17  1  0  0  0  0
M  RAD  2   3   2   4   2
M  END
