Coordinates from ORCA-job p-NO2-Ph-N2-OOCH-B3LYPG-aug-cc-pVDZ-scan-d09-49-n400
 OpenBabel10311713223D

 19 19  0  0  0  0  0  0  0  0999 V2000
   15.3178    8.8738   -2.9379 C   0  0  0  0  0  0  0  0  0  0  0  0
   14.2968    8.3043   -2.1704 C   0  0  0  0  0  0  0  0  0  0  0  0
   14.6146    7.1752   -1.4375 C   0  0  0  0  0  0  0  0  0  0  0  0
   15.8638    6.5848   -1.3740 C   0  0  0  0  0  0  0  0  0  0  0  0
   16.8798    7.1599   -2.1439 C   0  0  0  0  0  0  0  0  0  0  0  0
   16.5861    8.2894   -2.9112 C   0  0  0  0  0  0  0  0  0  0  0  0
   15.1428    9.7568   -3.5475 H   0  0  0  0  0  0  0  0  0  0  0  0
   13.2965    8.7314   -2.1571 H   0  0  0  0  0  0  0  0  0  0  0  0
   16.0512    5.7084   -0.7576 H   0  0  0  0  0  0  0  0  0  0  0  0
   17.8857    6.7474   -2.1533 H   0  0  0  0  0  0  0  0  0  0  0  0
   17.6632    8.8949   -3.7232 N   0  0  0  0  0  0  0  0  0  0  0  0
   17.3871    9.8946   -4.3800 O   0  0  0  0  0  0  0  0  0  0  0  0
   18.7736    8.3736   -3.6749 O   0  0  0  0  0  0  0  0  0  0  0  0
   13.3434    6.5302   -0.3347 N   0  0  0  0  0  0  0  0  0  0  0  0
   12.6129    5.6691   -0.7301 N   0  0  0  0  0  0  0  0  0  0  0  0
   12.3640    4.0445   -3.6665 H   0  0  0  0  0  0  0  0  0  0  0  0
   12.0710    4.2663   -2.6210 C   0  0  0  0  0  0  0  0  0  0  0  0
   11.1828    3.7281   -2.0235 O   0  0  0  0  0  0  0  0  0  0  0  0
   12.9032    5.2498   -2.1731 O   0  0  0  0  0  0  0  0  0  0  0  0
  1  6  2  0  0  0  0
  1  2  1  0  0  0  0
  2  8  1  0  0  0  0
  2  3  2  0  0  0  0
  3  4  1  0  0  0  0
  3 14  1  0  0  0  0
  4  9  1  0  0  0  0
  5  4  2  0  0  0  0
  6  5  1  0  0  0  0
  7  1  1  0  0  0  0
 10  5  1  0  0  0  0
 11 13  2  0  0  0  0
 11  6  1  0  0  0  0
 12 11  2  0  0  0  0
 15 14  1  0  0  0  0
 16 17  1  0  0  0  0
 17 19  1  0  0  0  0
 17 18  2  0  0  0  0
 19 15  1  0  0  0  0
M  RAD  2  14   2  15   2
M  END
