Coordinates from ORCA-job p-NO2-Ph-N2-OOCH-B3LYPG-aug-cc-pVDZ-scan-d09-49-n400
 OpenBabel10311713223D

 19 18  0  0  0  0  0  0  0  0999 V2000
   15.3331    8.8823   -2.9486 C   0  0  0  0  0  0  0  0  0  0  0  0
   14.3096    8.3108   -2.1825 C   0  0  0  0  0  0  0  0  0  0  0  0
   14.6456    7.1898   -1.4535 C   0  0  0  0  0  0  0  0  0  0  0  0
   15.8863    6.5933   -1.3782 C   0  0  0  0  0  0  0  0  0  0  0  0
   16.9015    7.1738   -2.1485 C   0  0  0  0  0  0  0  0  0  0  0  0
   16.6035    8.3020   -2.9166 C   0  0  0  0  0  0  0  0  0  0  0  0
   15.1564    9.7636   -3.5605 H   0  0  0  0  0  0  0  0  0  0  0  0
   13.3064    8.7309   -2.1731 H   0  0  0  0  0  0  0  0  0  0  0  0
   16.0731    5.7170   -0.7616 H   0  0  0  0  0  0  0  0  0  0  0  0
   17.9090    6.7650   -2.1562 H   0  0  0  0  0  0  0  0  0  0  0  0
   17.6804    8.9112   -3.7268 N   0  0  0  0  0  0  0  0  0  0  0  0
   17.3990    9.9028   -4.3933 O   0  0  0  0  0  0  0  0  0  0  0  0
   18.7899    8.3878   -3.6836 O   0  0  0  0  0  0  0  0  0  0  0  0
   13.2693    6.4847   -0.2613 N   0  0  0  0  0  0  0  0  0  0  0  0
   12.5548    5.6346   -0.6758 N   0  0  0  0  0  0  0  0  0  0  0  0
   12.3531    4.0466   -3.6703 H   0  0  0  0  0  0  0  0  0  0  0  0
   12.0466    4.2550   -2.6245 C   0  0  0  0  0  0  0  0  0  0  0  0
   11.1513    3.7019   -2.0486 O   0  0  0  0  0  0  0  0  0  0  0  0
   12.8671    5.2291   -2.1539 O   0  0  0  0  0  0  0  0  0  0  0  0
  1  6  2  0  0  0  0
  1  2  1  0  0  0  0
  2  8  1  0  0  0  0
  2  3  2  0  0  0  0
  3  4  1  0  0  0  0
  4  9  1  0  0  0  0
  5  4  2  0  0  0  0
  6  5  1  0  0  0  0
  7  1  1  0  0  0  0
 10  5  1  0  0  0  0
 11 13  2  0  0  0  0
 11  6  1  0  0  0  0
 12 11  2  0  0  0  0
 15 14  1  0  0  0  0
 16 17  1  0  0  0  0
 17 19  1  0  0  0  0
 17 18  2  0  0  0  0
 19 15  1  0  0  0  0
M  RAD  3   3   2  14   3  15   2
M  END
