Coordinates from ORCA-job p-NO2-Ph-N2-OOCH-B3LYPG-aug-cc-pVDZ-scan-d09-49-n400
 OpenBabel10311713223D

 19 17  0  0  0  0  0  0  0  0999 V2000
   15.7851    9.3661   -2.2415 C   0  0  0  0  0  0  0  0  0  0  0  0
   14.5011    9.0886   -1.7354 C   0  0  0  0  0  0  0  0  0  0  0  0
   14.2232    7.7681   -1.9780 C   0  0  0  0  0  0  0  0  0  0  0  0
   14.8020    6.7744   -2.5139 C   0  0  0  0  0  0  0  0  0  0  0  0
   16.0888    7.0267   -3.0307 C   0  0  0  0  0  0  0  0  0  0  0  0
   16.5369    8.3513   -2.8659 C   0  0  0  0  0  0  0  0  0  0  0  0
   16.2071   10.3647   -2.1546 H   0  0  0  0  0  0  0  0  0  0  0  0
   13.8721    9.8254   -1.2440 H   0  0  0  0  0  0  0  0  0  0  0  0
   14.2869    4.8301   -2.6968 H   0  0  0  0  0  0  0  0  0  0  0  0
   16.7174    6.2870   -3.5208 H   0  0  0  0  0  0  0  0  0  0  0  0
   17.8807    8.7048   -3.3783 N   0  0  0  0  0  0  0  0  0  0  0  0
   18.2659    9.8619   -3.2306 O   0  0  0  0  0  0  0  0  0  0  0  0
   18.5311    7.8174   -3.9217 O   0  0  0  0  0  0  0  0  0  0  0  0
   12.1473    7.4819   -1.1495 N   0  0  0  0  0  0  0  0  0  0  0  0
   11.2558    6.8384   -1.0443 N   0  0  0  0  0  0  0  0  0  0  0  0
   13.1778    2.2897   -2.0761 H   0  0  0  0  0  0  0  0  0  0  0  0
   13.2319    3.3911   -2.0154 C   0  0  0  0  0  0  0  0  0  0  0  0
   12.4915    4.0698   -1.3417 O   0  0  0  0  0  0  0  0  0  0  0  0
   14.2333    3.8451   -2.7782 O   0  0  0  0  0  0  0  0  0  0  0  0
  1  7  1  0  0  0  0
  1  2  2  0  0  0  0
  2  8  1  0  0  0  0
  3  2  1  0  0  0  0
  4  3  2  0  0  0  0
  5  6  2  0  0  0  0
  5  4  1  0  0  0  0
  6  1  1  0  0  0  0
 10  5  1  0  0  0  0
 11 12  2  0  0  0  0
 11  6  1  0  0  0  0
 13 11  2  0  0  0  0
 14 15  3  0  0  0  0
 16 17  1  0  0  0  0
 17 18  2  0  0  0  0
 19  9  1  0  0  0  0
 19 17  1  0  0  0  0
M  RAD  2   3   2   4   2
M  END
