Coordinates from ORCA-job p-NO2-Ph-N2-OOCH-B3LYPG-aug-cc-pVDZ-scan-d09-49-n400
 OpenBabel10311713223D

 19 17  0  0  0  0  0  0  0  0999 V2000
   15.8148    9.3669   -2.2727 C   0  0  0  0  0  0  0  0  0  0  0  0
   14.5356    9.0552   -1.7650 C   0  0  0  0  0  0  0  0  0  0  0  0
   14.3099    7.7243   -2.0064 C   0  0  0  0  0  0  0  0  0  0  0  0
   14.9384    6.7724   -2.5393 C   0  0  0  0  0  0  0  0  0  0  0  0
   16.2146    7.0339   -3.0604 C   0  0  0  0  0  0  0  0  0  0  0  0
   16.6072    8.3791   -2.8931 C   0  0  0  0  0  0  0  0  0  0  0  0
   16.2041   10.3794   -2.1893 H   0  0  0  0  0  0  0  0  0  0  0  0
   13.8852    9.7758   -1.2786 H   0  0  0  0  0  0  0  0  0  0  0  0
   14.3020    4.7334   -2.6712 H   0  0  0  0  0  0  0  0  0  0  0  0
   16.8683    6.3144   -3.5464 H   0  0  0  0  0  0  0  0  0  0  0  0
   17.9384    8.7812   -3.4015 N   0  0  0  0  0  0  0  0  0  0  0  0
   18.2808    9.9517   -3.2557 O   0  0  0  0  0  0  0  0  0  0  0  0
   18.6222    7.9169   -3.9417 O   0  0  0  0  0  0  0  0  0  0  0  0
   11.8628    7.5023   -0.9760 N   0  0  0  0  0  0  0  0  0  0  0  0
   10.9348    6.9203   -0.8400 N   0  0  0  0  0  0  0  0  0  0  0  0
   13.0985    2.2367   -2.0824 H   0  0  0  0  0  0  0  0  0  0  0  0
   13.1743    3.3370   -2.0324 C   0  0  0  0  0  0  0  0  0  0  0  0
   12.4038    4.0475   -1.4323 O   0  0  0  0  0  0  0  0  0  0  0  0
   14.2405    3.7540   -2.7330 O   0  0  0  0  0  0  0  0  0  0  0  0
  1  7  1  0  0  0  0
  1  2  2  0  0  0  0
  2  8  1  0  0  0  0
  3  2  1  0  0  0  0
  4  3  2  0  0  0  0
  5  6  2  0  0  0  0
  5  4  1  0  0  0  0
  6  1  1  0  0  0  0
 10  5  1  0  0  0  0
 11 12  2  0  0  0  0
 11  6  1  0  0  0  0
 13 11  2  0  0  0  0
 14 15  3  0  0  0  0
 16 17  1  0  0  0  0
 17 18  2  0  0  0  0
 19  9  1  0  0  0  0
 19 17  1  0  0  0  0
M  RAD  2   3   2   4   2
M  END
