Coordinates from ORCA-job p-NO2-Ph-N2-OOCH-B3LYPG-aug-cc-pVDZ-scan-d09-49-n400
 OpenBabel10311713223D

 19 17  0  0  0  0  0  0  0  0999 V2000
   15.8453    9.3415   -2.3061 C   0  0  0  0  0  0  0  0  0  0  0  0
   14.5829    8.9418   -1.8181 C   0  0  0  0  0  0  0  0  0  0  0  0
   14.4380    7.5995   -2.0802 C   0  0  0  0  0  0  0  0  0  0  0  0
   15.1526    6.7225   -2.6250 C   0  0  0  0  0  0  0  0  0  0  0  0
   16.4130    7.0530   -3.1302 C   0  0  0  0  0  0  0  0  0  0  0  0
   16.7098    8.4199   -2.9333 C   0  0  0  0  0  0  0  0  0  0  0  0
   16.1677   10.3755   -2.2021 H   0  0  0  0  0  0  0  0  0  0  0  0
   13.8846    9.6140   -1.3285 H   0  0  0  0  0  0  0  0  0  0  0  0
   14.2809    4.6296   -2.6459 H   0  0  0  0  0  0  0  0  0  0  0  0
   17.1162    6.3851   -3.6197 H   0  0  0  0  0  0  0  0  0  0  0  0
   18.0173    8.9181   -3.4183 N   0  0  0  0  0  0  0  0  0  0  0  0
   18.2797   10.1057   -3.2490 O   0  0  0  0  0  0  0  0  0  0  0  0
   18.7633    8.1098   -3.9630 O   0  0  0  0  0  0  0  0  0  0  0  0
   11.5392    7.4972   -0.7872 N   0  0  0  0  0  0  0  0  0  0  0  0
   10.5713    6.9948   -0.6173 N   0  0  0  0  0  0  0  0  0  0  0  0
   12.9294    2.2196   -2.0370 H   0  0  0  0  0  0  0  0  0  0  0  0
   13.0609    3.3154   -2.0121 C   0  0  0  0  0  0  0  0  0  0  0  0
   12.3096    4.0831   -1.4617 O   0  0  0  0  0  0  0  0  0  0  0  0
   14.1746    3.6563   -2.6827 O   0  0  0  0  0  0  0  0  0  0  0  0
  1  7  1  0  0  0  0
  1  2  2  0  0  0  0
  2  8  1  0  0  0  0
  3  2  1  0  0  0  0
  4  3  2  0  0  0  0
  5  6  2  0  0  0  0
  5  4  1  0  0  0  0
  6  1  1  0  0  0  0
 10  5  1  0  0  0  0
 11 12  2  0  0  0  0
 11  6  1  0  0  0  0
 13 11  2  0  0  0  0
 14 15  3  0  0  0  0
 16 17  1  0  0  0  0
 17 18  2  0  0  0  0
 19  9  1  0  0  0  0
 19 17  1  0  0  0  0
M  RAD  2   3   2   4   2
M  END
