Coordinates from ORCA-job p-NO2-Ph-N2-OOCH-B3LYPG-aug-cc-pVDZ-scan-d09-49-n400
 OpenBabel10311713223D

 19 17  0  0  0  0  0  0  0  0999 V2000
   15.7844    9.3656   -2.2371 C   0  0  0  0  0  0  0  0  0  0  0  0
   14.4999    9.0900   -1.7337 C   0  0  0  0  0  0  0  0  0  0  0  0
   14.2148    7.7709   -1.9791 C   0  0  0  0  0  0  0  0  0  0  0  0
   14.7897    6.7743   -2.5175 C   0  0  0  0  0  0  0  0  0  0  0  0
   16.0782    7.0278   -3.0316 C   0  0  0  0  0  0  0  0  0  0  0  0
   16.5323    8.3493   -2.8636 C   0  0  0  0  0  0  0  0  0  0  0  0
   16.2096   10.3625   -2.1468 H   0  0  0  0  0  0  0  0  0  0  0  0
   13.8717    9.8265   -1.2405 H   0  0  0  0  0  0  0  0  0  0  0  0
   14.2776    4.8417   -2.7051 H   0  0  0  0  0  0  0  0  0  0  0  0
   16.7048    6.2873   -3.5233 H   0  0  0  0  0  0  0  0  0  0  0  0
   17.8780    8.6984   -3.3742 N   0  0  0  0  0  0  0  0  0  0  0  0
   18.2676    9.8536   -3.2233 O   0  0  0  0  0  0  0  0  0  0  0  0
   18.5250    7.8100   -3.9199 O   0  0  0  0  0  0  0  0  0  0  0  0
   12.1650    7.4772   -1.1696 N   0  0  0  0  0  0  0  0  0  0  0  0
   11.2743    6.8316   -1.0700 N   0  0  0  0  0  0  0  0  0  0  0  0
   13.1831    2.2952   -2.0763 H   0  0  0  0  0  0  0  0  0  0  0  0
   13.2424    3.3957   -2.0046 C   0  0  0  0  0  0  0  0  0  0  0  0
   12.5171    4.0685   -1.3086 O   0  0  0  0  0  0  0  0  0  0  0  0
   14.2203    3.8563   -2.7925 O   0  0  0  0  0  0  0  0  0  0  0  0
  1  7  1  0  0  0  0
  1  2  2  0  0  0  0
  2  8  1  0  0  0  0
  3  2  1  0  0  0  0
  4  3  2  0  0  0  0
  5  6  2  0  0  0  0
  5  4  1  0  0  0  0
  6  1  1  0  0  0  0
 10  5  1  0  0  0  0
 11 12  2  0  0  0  0
 11  6  1  0  0  0  0
 13 11  2  0  0  0  0
 14 15  3  0  0  0  0
 16 17  1  0  0  0  0
 17 18  2  0  0  0  0
 19  9  1  0  0  0  0
 19 17  1  0  0  0  0
M  RAD  2   3   2   4   2
M  END
