Coordinates from ORCA-job p-NO2-Ph-N2-OOCH-B3LYPG-aug-cc-pVDZ-scan-d09-49-n400
 OpenBabel10311713223D

 19 17  0  0  0  0  0  0  0  0999 V2000
   15.8113    9.3691   -2.2693 C   0  0  0  0  0  0  0  0  0  0  0  0
   14.5314    9.0650   -1.7606 C   0  0  0  0  0  0  0  0  0  0  0  0
   14.2953    7.7345   -1.9989 C   0  0  0  0  0  0  0  0  0  0  0  0
   14.9167    6.7761   -2.5309 C   0  0  0  0  0  0  0  0  0  0  0  0
   16.1944    7.0331   -3.0528 C   0  0  0  0  0  0  0  0  0  0  0  0
   16.5965    8.3754   -2.8887 C   0  0  0  0  0  0  0  0  0  0  0  0
   16.2063   10.3795   -2.1877 H   0  0  0  0  0  0  0  0  0  0  0  0
   13.8850    9.7896   -1.2747 H   0  0  0  0  0  0  0  0  0  0  0  0
   14.3012    4.7456   -2.6728 H   0  0  0  0  0  0  0  0  0  0  0  0
   16.8435    6.3090   -3.5383 H   0  0  0  0  0  0  0  0  0  0  0  0
   17.9297    8.7678   -3.3993 N   0  0  0  0  0  0  0  0  0  0  0  0
   18.2797    9.9364   -3.2558 O   0  0  0  0  0  0  0  0  0  0  0  0
   18.6074    7.8982   -3.9386 O   0  0  0  0  0  0  0  0  0  0  0  0
   11.9023    7.5004   -0.9982 N   0  0  0  0  0  0  0  0  0  0  0  0
   10.9797    6.9091   -0.8653 N   0  0  0  0  0  0  0  0  0  0  0  0
   13.1135    2.2405   -2.0862 H   0  0  0  0  0  0  0  0  0  0  0  0
   13.1843    3.3411   -2.0336 C   0  0  0  0  0  0  0  0  0  0  0  0
   12.4132    4.0463   -1.4281 O   0  0  0  0  0  0  0  0  0  0  0  0
   14.2446    3.7656   -2.7377 O   0  0  0  0  0  0  0  0  0  0  0  0
  1  7  1  0  0  0  0
  1  2  2  0  0  0  0
  2  8  1  0  0  0  0
  3  2  1  0  0  0  0
  4  3  2  0  0  0  0
  5  6  2  0  0  0  0
  5  4  1  0  0  0  0
  6  1  1  0  0  0  0
 10  5  1  0  0  0  0
 11 12  2  0  0  0  0
 11  6  1  0  0  0  0
 13 11  2  0  0  0  0
 14 15  3  0  0  0  0
 16 17  1  0  0  0  0
 17 18  2  0  0  0  0
 19  9  1  0  0  0  0
 19 17  1  0  0  0  0
M  RAD  2   3   2   4   2
M  END
