Coordinates from ORCA-job p-NO2-Ph-N2-OOCH-B3LYPG-aug-cc-pVDZ-scan-d09-49-n400
 OpenBabel10311713223D

 19 19  0  0  0  0  0  0  0  0999 V2000
   15.4289    8.9588   -2.9632 C   0  0  0  0  0  0  0  0  0  0  0  0
   14.3664    8.2383   -2.4697 C   0  0  0  0  0  0  0  0  0  0  0  0
   14.5609    6.9529   -1.7784 C   0  0  0  0  0  0  0  0  0  0  0  0
   15.9648    6.5219   -1.6726 C   0  0  0  0  0  0  0  0  0  0  0  0
   16.9918    7.2809   -2.1832 C   0  0  0  0  0  0  0  0  0  0  0  0
   16.7430    8.4971   -2.8289 C   0  0  0  0  0  0  0  0  0  0  0  0
   15.2455    9.9056   -3.4682 H   0  0  0  0  0  0  0  0  0  0  0  0
   13.3394    8.5853   -2.5627 H   0  0  0  0  0  0  0  0  0  0  0  0
   16.1419    5.5764   -1.1642 H   0  0  0  0  0  0  0  0  0  0  0  0
   18.0175    6.9297   -2.0847 H   0  0  0  0  0  0  0  0  0  0  0  0
   17.8434    9.2762   -3.3576 N   0  0  0  0  0  0  0  0  0  0  0  0
   17.5795   10.3426   -3.9203 O   0  0  0  0  0  0  0  0  0  0  0  0
   18.9865    8.8322   -3.2178 O   0  0  0  0  0  0  0  0  0  0  0  0
   13.7864    6.4085   -1.3979 N   0  0  0  0  0  0  0  0  0  0  0  0
   12.8767    5.7074   -1.0837 N   0  0  0  0  0  0  0  0  0  0  0  0
   11.3821    3.3754   -3.0868 H   0  0  0  0  0  0  0  0  0  0  0  0
   11.5327    3.9558   -2.1533 C   0  0  0  0  0  0  0  0  0  0  0  0
   10.8859    3.8280   -1.1511 O   0  0  0  0  0  0  0  0  0  0  0  0
   12.5630    4.8095   -2.3732 O   0  0  0  0  0  0  0  0  0  0  0  0
  1  6  2  0  0  0  0
  1  2  1  0  0  0  0
  2  3  2  0  0  0  0
  3  4  1  0  0  0  0
  3 14  1  0  0  0  0
  4  9  1  0  0  0  0
  5 10  1  0  0  0  0
  5  4  2  0  0  0  0
  6  5  1  0  0  0  0
  7  1  1  0  0  0  0
  8  2  1  0  0  0  0
 11 13  2  0  0  0  0
 11  6  1  0  0  0  0
 12 11  2  0  0  0  0
 14 15  1  0  0  0  0
 16 17  1  0  0  0  0
 17 18  2  0  0  0  0
 19 17  1  0  0  0  0
 19 15  1  0  0  0  0
M  RAD  2  14   2  15   2
M  END
