Coordinates from ORCA-job p-NO2-Ph-N2-OOCH-B3LYPG-aug-cc-pVDZ-scan-d09-49-n400
 OpenBabel10311713223D

 19 17  0  0  0  0  0  0  0  0999 V2000
   15.8578    9.3061   -2.3263 C   0  0  0  0  0  0  0  0  0  0  0  0
   14.6130    8.8323   -1.8590 C   0  0  0  0  0  0  0  0  0  0  0  0
   14.5399    7.4883   -2.1474 C   0  0  0  0  0  0  0  0  0  0  0  0
   15.3110    6.6689   -2.7012 C   0  0  0  0  0  0  0  0  0  0  0  0
   16.5568    7.0664   -3.1879 C   0  0  0  0  0  0  0  0  0  0  0  0
   16.7769    8.4440   -2.9614 C   0  0  0  0  0  0  0  0  0  0  0  0
   16.1246   10.3533   -2.2000 H   0  0  0  0  0  0  0  0  0  0  0  0
   13.8759    9.4580   -1.3648 H   0  0  0  0  0  0  0  0  0  0  0  0
   14.2756    4.5570   -2.6313 H   0  0  0  0  0  0  0  0  0  0  0  0
   17.2988    6.4457   -3.6819 H   0  0  0  0  0  0  0  0  0  0  0  0
   18.0609    9.0203   -3.4223 N   0  0  0  0  0  0  0  0  0  0  0  0
   18.2581   10.2165   -3.2276 O   0  0  0  0  0  0  0  0  0  0  0  0
   18.8548    8.2631   -3.9730 O   0  0  0  0  0  0  0  0  0  0  0  0
   11.3316    7.5116   -0.6594 N   0  0  0  0  0  0  0  0  0  0  0  0
   10.3402    7.0655   -0.4688 N   0  0  0  0  0  0  0  0  0  0  0  0
   12.7989    2.2332   -1.9876 H   0  0  0  0  0  0  0  0  0  0  0  0
   12.9811    3.3218   -1.9915 C   0  0  0  0  0  0  0  0  0  0  0  0
   12.2522    4.1404   -1.4859 O   0  0  0  0  0  0  0  0  0  0  0  0
   14.1281    3.5899   -2.6400 O   0  0  0  0  0  0  0  0  0  0  0  0
  1  7  1  0  0  0  0
  1  2  2  0  0  0  0
  2  8  1  0  0  0  0
  3  2  1  0  0  0  0
  4  3  2  0  0  0  0
  5  6  2  0  0  0  0
  5  4  1  0  0  0  0
  6  1  1  0  0  0  0
 10  5  1  0  0  0  0
 11 12  2  0  0  0  0
 11  6  1  0  0  0  0
 13 11  2  0  0  0  0
 14 15  3  0  0  0  0
 17 16  1  0  0  0  0
 17 18  2  0  0  0  0
 19  9  1  0  0  0  0
 19 17  1  0  0  0  0
M  RAD  2   3   2   4   2
M  END
