Coordinates from ORCA-job p-NO2-Ph-N2-OOCH-B3LYPG-aug-cc-pVDZ-scan-d09-49-n400
 OpenBabel10311713223D

 19 17  0  0  0  0  0  0  0  0999 V2000
   15.8219    9.3642   -2.2788 C   0  0  0  0  0  0  0  0  0  0  0  0
   14.5449    9.0386   -1.7737 C   0  0  0  0  0  0  0  0  0  0  0  0
   14.3333    7.7054   -2.0189 C   0  0  0  0  0  0  0  0  0  0  0  0
   14.9767    6.7662   -2.5539 C   0  0  0  0  0  0  0  0  0  0  0  0
   16.2503    7.0373   -3.0731 C   0  0  0  0  0  0  0  0  0  0  0  0
   16.6267    8.3871   -2.9007 C   0  0  0  0  0  0  0  0  0  0  0  0
   16.2005   10.3806   -2.1924 H   0  0  0  0  0  0  0  0  0  0  0  0
   13.8866    9.7515   -1.2867 H   0  0  0  0  0  0  0  0  0  0  0  0
   14.2993    4.7125   -2.6672 H   0  0  0  0  0  0  0  0  0  0  0  0
   16.9123    6.3262   -3.5599 H   0  0  0  0  0  0  0  0  0  0  0  0
   17.9542    8.8054   -3.4056 N   0  0  0  0  0  0  0  0  0  0  0  0
   18.2833    9.9792   -3.2560 O   0  0  0  0  0  0  0  0  0  0  0  0
   18.6485    7.9502   -3.9469 O   0  0  0  0  0  0  0  0  0  0  0  0
   11.7964    7.5026   -0.9389 N   0  0  0  0  0  0  0  0  0  0  0  0
   10.8599    6.9359   -0.7973 N   0  0  0  0  0  0  0  0  0  0  0  0
   13.0710    2.2289   -2.0763 H   0  0  0  0  0  0  0  0  0  0  0  0
   13.1546    3.3288   -2.0295 C   0  0  0  0  0  0  0  0  0  0  0  0
   12.3854    4.0476   -1.4381 O   0  0  0  0  0  0  0  0  0  0  0  0
   14.2301    3.7342   -2.7238 O   0  0  0  0  0  0  0  0  0  0  0  0
  1  7  1  0  0  0  0
  1  2  2  0  0  0  0
  2  8  1  0  0  0  0
  3  2  1  0  0  0  0
  4  3  2  0  0  0  0
  5  6  2  0  0  0  0
  5  4  1  0  0  0  0
  6  1  1  0  0  0  0
 10  5  1  0  0  0  0
 11 12  2  0  0  0  0
 11  6  1  0  0  0  0
 13 11  2  0  0  0  0
 14 15  3  0  0  0  0
 16 17  1  0  0  0  0
 17 18  2  0  0  0  0
 19  9  1  0  0  0  0
 19 17  1  0  0  0  0
M  RAD  2   3   2   4   2
M  END
