Coordinates from ORCA-job p-NO2-Ph-N2-OOCH-B3LYPG-aug-cc-pVDZ-scan-d09-49-n400
 OpenBabel10311713223D

 19 17  0  0  0  0  0  0  0  0999 V2000
   15.8178    9.3657   -2.2753 C   0  0  0  0  0  0  0  0  0  0  0  0
   14.5400    9.0486   -1.7687 C   0  0  0  0  0  0  0  0  0  0  0  0
   14.3164    7.7159   -2.0101 C   0  0  0  0  0  0  0  0  0  0  0  0
   14.9530    6.7705   -2.5443 C   0  0  0  0  0  0  0  0  0  0  0  0
   16.2280    7.0353   -3.0649 C   0  0  0  0  0  0  0  0  0  0  0  0
   16.6147    8.3821   -2.8960 C   0  0  0  0  0  0  0  0  0  0  0  0
   16.2029   10.3798   -2.1908 H   0  0  0  0  0  0  0  0  0  0  0  0
   13.8867    9.7666   -1.2822 H   0  0  0  0  0  0  0  0  0  0  0  0
   14.3026    4.7243   -2.6694 H   0  0  0  0  0  0  0  0  0  0  0  0
   16.8849    6.3189   -3.5511 H   0  0  0  0  0  0  0  0  0  0  0  0
   17.9446    8.7898   -3.4034 N   0  0  0  0  0  0  0  0  0  0  0  0
   18.2822    9.9615   -3.2565 O   0  0  0  0  0  0  0  0  0  0  0  0
   18.6321    7.9286   -3.9439 O   0  0  0  0  0  0  0  0  0  0  0  0
   11.8334    7.5035   -0.9594 N   0  0  0  0  0  0  0  0  0  0  0  0
   10.9014    6.9286   -0.8209 N   0  0  0  0  0  0  0  0  0  0  0  0
   13.0885    2.2338   -2.0804 H   0  0  0  0  0  0  0  0  0  0  0  0
   13.1685    3.3339   -2.0326 C   0  0  0  0  0  0  0  0  0  0  0  0
   12.3991    4.0497   -1.4380 O   0  0  0  0  0  0  0  0  0  0  0  0
   14.2395    3.7453   -2.7295 O   0  0  0  0  0  0  0  0  0  0  0  0
  1  7  1  0  0  0  0
  1  2  2  0  0  0  0
  2  8  1  0  0  0  0
  3  2  1  0  0  0  0
  4  3  2  0  0  0  0
  5  6  2  0  0  0  0
  5  4  1  0  0  0  0
  6  1  1  0  0  0  0
 10  5  1  0  0  0  0
 11 12  2  0  0  0  0
 11  6  1  0  0  0  0
 13 11  2  0  0  0  0
 14 15  3  0  0  0  0
 16 17  1  0  0  0  0
 17 18  2  0  0  0  0
 19  9  1  0  0  0  0
 19 17  1  0  0  0  0
M  RAD  2   3   2   4   2
M  END
