Coordinates from ORCA-job p-NO2-Ph-N2-OOCH-B3LYPG-aug-cc-pVDZ-scan-d09-49-n400
 OpenBabel10311713233D

 19 17  0  0  0  0  0  0  0  0999 V2000
   15.7492    8.9685   -2.3443 C   0  0  0  0  0  0  0  0  0  0  0  0
   14.6592    8.1366   -2.0159 C   0  0  0  0  0  0  0  0  0  0  0  0
   14.9293    6.8523   -2.4546 C   0  0  0  0  0  0  0  0  0  0  0  0
   15.9243    6.3845   -3.0532 C   0  0  0  0  0  0  0  0  0  0  0  0
   17.0439    7.1177   -3.4200 C   0  0  0  0  0  0  0  0  0  0  0  0
   16.8836    8.4641   -3.0168 C   0  0  0  0  0  0  0  0  0  0  0  0
   15.7290   10.0239   -2.0807 H   0  0  0  0  0  0  0  0  0  0  0  0
   13.7696    8.4895   -1.5022 H   0  0  0  0  0  0  0  0  0  0  0  0
   14.2525    4.3186   -2.6216 H   0  0  0  0  0  0  0  0  0  0  0  0
   17.9351    6.7746   -3.9366 H   0  0  0  0  0  0  0  0  0  0  0  0
   17.9851    9.4049   -3.3252 N   0  0  0  0  0  0  0  0  0  0  0  0
   17.8551   10.5765   -2.9819 O   0  0  0  0  0  0  0  0  0  0  0  0
   18.9636    8.9557   -3.9154 O   0  0  0  0  0  0  0  0  0  0  0  0
   11.2577    7.8079   -0.5653 N   0  0  0  0  0  0  0  0  0  0  0  0
   10.2777    7.4328   -0.2231 N   0  0  0  0  0  0  0  0  0  0  0  0
   12.2244    2.6067   -1.6661 H   0  0  0  0  0  0  0  0  0  0  0  0
   12.6985    3.5888   -1.8331 C   0  0  0  0  0  0  0  0  0  0  0  0
   12.2336    4.6454   -1.4781 O   0  0  0  0  0  0  0  0  0  0  0  0
   13.8647    3.4335   -2.4833 O   0  0  0  0  0  0  0  0  0  0  0  0
  1  7  1  0  0  0  0
  1  2  1  0  0  0  0
  2  8  1  0  0  0  0
  3  2  2  0  0  0  0
  4  3  1  0  0  0  0
  5  4  2  0  0  0  0
  5  6  1  0  0  0  0
  6  1  2  0  0  0  0
  9 19  1  0  0  0  0
 10  5  1  0  0  0  0
 11  6  1  0  0  0  0
 11 12  2  0  0  0  0
 13 11  2  0  0  0  0
 14 15  3  0  0  0  0
 17 16  1  0  0  0  0
 17 18  2  0  0  0  0
 19 17  1  0  0  0  0
M  RAD  2   3   2   4   2
M  END
