Coordinates from ORCA-job p-NO2-Ph-N2-OOCH-B3LYPG-aug-cc-pVDZ-scan-d09-49-n400
 OpenBabel10311713223D

 19 17  0  0  0  0  0  0  0  0999 V2000
   15.8196    9.3647   -2.2787 C   0  0  0  0  0  0  0  0  0  0  0  0
   14.5425    9.0418   -1.7723 C   0  0  0  0  0  0  0  0  0  0  0  0
   14.3282    7.7090   -2.0167 C   0  0  0  0  0  0  0  0  0  0  0  0
   14.9686    6.7676   -2.5517 C   0  0  0  0  0  0  0  0  0  0  0  0
   16.2422    7.0365   -3.0722 C   0  0  0  0  0  0  0  0  0  0  0  0
   16.6217    8.3856   -2.9010 C   0  0  0  0  0  0  0  0  0  0  0  0
   16.2003   10.3804   -2.1932 H   0  0  0  0  0  0  0  0  0  0  0  0
   13.8859    9.7562   -1.2850 H   0  0  0  0  0  0  0  0  0  0  0  0
   14.3013    4.7163   -2.6684 H   0  0  0  0  0  0  0  0  0  0  0  0
   16.9023    6.3238   -3.5593 H   0  0  0  0  0  0  0  0  0  0  0  0
   17.9495    8.8010   -3.4075 N   0  0  0  0  0  0  0  0  0  0  0  0
   18.2846    9.9722   -3.2512 O   0  0  0  0  0  0  0  0  0  0  0  0
   18.6450    7.9421   -3.9413 O   0  0  0  0  0  0  0  0  0  0  0  0
   11.8099    7.5030   -0.9448 N   0  0  0  0  0  0  0  0  0  0  0  0
   10.8750    6.9335   -0.8036 N   0  0  0  0  0  0  0  0  0  0  0  0
   13.0765    2.2311   -2.0771 H   0  0  0  0  0  0  0  0  0  0  0  0
   13.1593    3.3310   -2.0301 C   0  0  0  0  0  0  0  0  0  0  0  0
   12.3903    4.0489   -1.4374 O   0  0  0  0  0  0  0  0  0  0  0  0
   14.2334    3.7378   -2.7259 O   0  0  0  0  0  0  0  0  0  0  0  0
  1  7  1  0  0  0  0
  1  2  2  0  0  0  0
  2  8  1  0  0  0  0
  3  2  1  0  0  0  0
  4  3  2  0  0  0  0
  5  6  2  0  0  0  0
  5  4  1  0  0  0  0
  6  1  1  0  0  0  0
 10  5  1  0  0  0  0
 11 12  2  0  0  0  0
 11  6  1  0  0  0  0
 13 11  2  0  0  0  0
 14 15  3  0  0  0  0
 16 17  1  0  0  0  0
 17 18  2  0  0  0  0
 19  9  1  0  0  0  0
 19 17  1  0  0  0  0
M  RAD  2   3   2   4   2
M  END
