Coordinates from ORCA-job p-NO2-Ph-N2-OOCH-B3LYPG-aug-cc-pVDZ-scan-d09-49-n400
 OpenBabel10311713223D

 19 19  0  0  0  0  0  0  0  0999 V2000
   15.4561    8.9739   -2.9807 C   0  0  0  0  0  0  0  0  0  0  0  0
   14.3864    8.2156   -2.5724 C   0  0  0  0  0  0  0  0  0  0  0  0
   14.5716    6.8984   -1.9192 C   0  0  0  0  0  0  0  0  0  0  0  0
   15.9896    6.4938   -1.7715 C   0  0  0  0  0  0  0  0  0  0  0  0
   17.0166    7.2979   -2.2012 C   0  0  0  0  0  0  0  0  0  0  0  0
   16.7753    8.5374   -2.8067 C   0  0  0  0  0  0  0  0  0  0  0  0
   15.2735    9.9385   -3.4518 H   0  0  0  0  0  0  0  0  0  0  0  0
   13.3563    8.5412   -2.6999 H   0  0  0  0  0  0  0  0  0  0  0  0
   16.1607    5.5290   -1.2990 H   0  0  0  0  0  0  0  0  0  0  0  0
   18.0441    6.9628   -2.0679 H   0  0  0  0  0  0  0  0  0  0  0  0
   17.8763    9.3568   -3.2489 N   0  0  0  0  0  0  0  0  0  0  0  0
   17.6173   10.4444   -3.7760 O   0  0  0  0  0  0  0  0  0  0  0  0
   19.0242    8.9333   -3.0733 O   0  0  0  0  0  0  0  0  0  0  0  0
   13.8003    6.3253   -1.6071 N   0  0  0  0  0  0  0  0  0  0  0  0
   12.8848    5.6563   -1.2092 N   0  0  0  0  0  0  0  0  0  0  0  0
   11.2185    3.3118   -2.9046 H   0  0  0  0  0  0  0  0  0  0  0  0
   11.4360    3.9295   -2.0129 C   0  0  0  0  0  0  0  0  0  0  0  0
   10.8636    3.8854   -0.9653 O   0  0  0  0  0  0  0  0  0  0  0  0
   12.4850    4.7509   -2.3499 O   0  0  0  0  0  0  0  0  0  0  0  0
  1  6  2  0  0  0  0
  1  2  1  0  0  0  0
  2  3  2  0  0  0  0
  3  4  1  0  0  0  0
  3 14  1  0  0  0  0
  4  9  1  0  0  0  0
  5 10  1  0  0  0  0
  5  4  2  0  0  0  0
  6  5  1  0  0  0  0
  7  1  1  0  0  0  0
  8  2  1  0  0  0  0
 11 13  2  0  0  0  0
 11  6  1  0  0  0  0
 12 11  2  0  0  0  0
 14 15  1  0  0  0  0
 16 17  1  0  0  0  0
 17 18  2  0  0  0  0
 19 17  1  0  0  0  0
 19 15  1  0  0  0  0
M  RAD  2  14   2  15   2
M  END
