Coordinates from ORCA-job p-NO2-Ph-N2-OOCH-B3LYPG-aug-cc-pVDZ-scan-d09-49-n400
 OpenBabel10311713223D

 19 17  0  0  0  0  0  0  0  0999 V2000
   15.8372    9.3535   -2.2949 C   0  0  0  0  0  0  0  0  0  0  0  0
   14.5676    8.9878   -1.7987 C   0  0  0  0  0  0  0  0  0  0  0  0
   14.3912    7.6487   -2.0524 C   0  0  0  0  0  0  0  0  0  0  0  0
   15.0759    6.7448   -2.5931 C   0  0  0  0  0  0  0  0  0  0  0  0
   16.3424    7.0464   -3.1053 C   0  0  0  0  0  0  0  0  0  0  0  0
   16.6751    8.4065   -2.9196 C   0  0  0  0  0  0  0  0  0  0  0  0
   16.1853   10.3800   -2.1993 H   0  0  0  0  0  0  0  0  0  0  0  0
   13.8878    9.6795   -1.3104 H   0  0  0  0  0  0  0  0  0  0  0  0
   14.2859    4.6653   -2.6553 H   0  0  0  0  0  0  0  0  0  0  0  0
   17.0272    6.3585   -3.5935 H   0  0  0  0  0  0  0  0  0  0  0  0
   17.9922    8.8685   -3.4139 N   0  0  0  0  0  0  0  0  0  0  0  0
   18.2851   10.0503   -3.2534 O   0  0  0  0  0  0  0  0  0  0  0  0
   18.7153    8.0383   -3.9565 O   0  0  0  0  0  0  0  0  0  0  0  0
   11.6412    7.5011   -0.8494 N   0  0  0  0  0  0  0  0  0  0  0  0
   10.6854    6.9722   -0.6914 N   0  0  0  0  0  0  0  0  0  0  0  0
   12.9967    2.2173   -2.0571 H   0  0  0  0  0  0  0  0  0  0  0  0
   13.1034    3.3155   -2.0207 C   0  0  0  0  0  0  0  0  0  0  0  0
   12.3422    4.0585   -1.4503 O   0  0  0  0  0  0  0  0  0  0  0  0
   14.1991    3.6897   -2.7022 O   0  0  0  0  0  0  0  0  0  0  0  0
  1  7  1  0  0  0  0
  1  2  2  0  0  0  0
  2  8  1  0  0  0  0
  3  2  1  0  0  0  0
  4  3  2  0  0  0  0
  5  6  2  0  0  0  0
  5  4  1  0  0  0  0
  6  1  1  0  0  0  0
 10  5  1  0  0  0  0
 11 12  2  0  0  0  0
 11  6  1  0  0  0  0
 13 11  2  0  0  0  0
 14 15  3  0  0  0  0
 16 17  1  0  0  0  0
 17 18  2  0  0  0  0
 19  9  1  0  0  0  0
 19 17  1  0  0  0  0
M  RAD  2   3   2   4   2
M  END
