Coordinates from ORCA-job p-NO2-Ph-N2-OOCH-B3LYPG-aug-cc-pVDZ-scan-d09-49-n400
 OpenBabel10311713223D

 19 19  0  0  0  0  0  0  0  0999 V2000
   15.5146    9.2703   -2.6297 C   0  0  0  0  0  0  0  0  0  0  0  0
   14.3675    8.7355   -2.0578 C   0  0  0  0  0  0  0  0  0  0  0  0
   14.2640    7.3473   -1.7921 C   0  0  0  0  0  0  0  0  0  0  0  0
   15.3713    6.5048   -2.0768 C   0  0  0  0  0  0  0  0  0  0  0  0
   16.5314    7.0455   -2.6202 C   0  0  0  0  0  0  0  0  0  0  0  0
   16.5818    8.4125   -2.8987 C   0  0  0  0  0  0  0  0  0  0  0  0
   15.5997   10.3302   -2.8537 H   0  0  0  0  0  0  0  0  0  0  0  0
   13.5198    9.3738   -1.8125 H   0  0  0  0  0  0  0  0  0  0  0  0
   15.3064    5.4447   -1.8579 H   0  0  0  0  0  0  0  0  0  0  0  0
   17.3935    6.4205   -2.8388 H   0  0  0  0  0  0  0  0  0  0  0  0
   17.8177    8.9759   -3.4912 N   0  0  0  0  0  0  0  0  0  0  0  0
   17.8330   10.1796   -3.7285 O   0  0  0  0  0  0  0  0  0  0  0  0
   18.7450    8.2027   -3.7081 O   0  0  0  0  0  0  0  0  0  0  0  0
   13.1656    6.9545   -1.2630 N   0  0  0  0  0  0  0  0  0  0  0  0
   12.5195    5.9669   -1.1071 N   0  0  0  0  0  0  0  0  0  0  0  0
   12.8810    2.7043   -2.2128 H   0  0  0  0  0  0  0  0  0  0  0  0
   12.3693    3.6777   -2.0538 C   0  0  0  0  0  0  0  0  0  0  0  0
   11.1758    3.8250   -2.1620 O   0  0  0  0  0  0  0  0  0  0  0  0
   13.2793    4.6107   -1.7528 O   0  0  0  0  0  0  0  0  0  0  0  0
  1  2  1  0  0  0  0
  2  8  1  0  0  0  0
  2  3  2  0  0  0  0
  3 14  1  0  0  0  0
  4  9  1  0  0  0  0
  4  3  1  0  0  0  0
  5  4  2  0  0  0  0
  6  1  2  0  0  0  0
  6  5  1  0  0  0  0
  7  1  1  0  0  0  0
 10  5  1  0  0  0  0
 11  6  1  0  0  0  0
 12 11  2  0  0  0  0
 13 11  2  0  0  0  0
 14 15  1  0  0  0  0
 16 17  1  0  0  0  0
 17 19  1  0  0  0  0
 18 17  2  0  0  0  0
 19 15  1  0  0  0  0
M  RAD  2  14   2  15   2
M  END
