Coordinates from ORCA-job p-NO2-Ph-N2-OOCH-B3LYPG-aug-cc-pVDZ-scan-d09-49-n400
 OpenBabel10311713223D

 19 17  0  0  0  0  0  0  0  0999 V2000
   15.8491    9.3387   -2.3099 C   0  0  0  0  0  0  0  0  0  0  0  0
   14.5888    8.9304   -1.8235 C   0  0  0  0  0  0  0  0  0  0  0  0
   14.4539    7.5874   -2.0878 C   0  0  0  0  0  0  0  0  0  0  0  0
   15.1744    6.7162   -2.6331 C   0  0  0  0  0  0  0  0  0  0  0  0
   16.4331    7.0548   -3.1369 C   0  0  0  0  0  0  0  0  0  0  0  0
   16.7203    8.4235   -2.9377 C   0  0  0  0  0  0  0  0  0  0  0  0
   16.1648   10.3746   -2.2044 H   0  0  0  0  0  0  0  0  0  0  0  0
   13.8854    9.5969   -1.3337 H   0  0  0  0  0  0  0  0  0  0  0  0
   14.2830    4.6202   -2.6410 H   0  0  0  0  0  0  0  0  0  0  0  0
   17.1412    6.3923   -3.6268 H   0  0  0  0  0  0  0  0  0  0  0  0
   18.0249    8.9311   -3.4208 N   0  0  0  0  0  0  0  0  0  0  0  0
   18.2792   10.1203   -3.2496 O   0  0  0  0  0  0  0  0  0  0  0  0
   18.7769    8.1287   -3.9659 O   0  0  0  0  0  0  0  0  0  0  0  0
   11.5019    7.4903   -0.7661 N   0  0  0  0  0  0  0  0  0  0  0  0
   10.5310    6.9944   -0.5939 N   0  0  0  0  0  0  0  0  0  0  0  0
   12.9091    2.2232   -2.0324 H   0  0  0  0  0  0  0  0  0  0  0  0
   13.0489    3.3179   -2.0107 C   0  0  0  0  0  0  0  0  0  0  0  0
   12.2999    4.0937   -1.4685 O   0  0  0  0  0  0  0  0  0  0  0  0
   14.1701    3.6478   -2.6747 O   0  0  0  0  0  0  0  0  0  0  0  0
  1  7  1  0  0  0  0
  1  2  2  0  0  0  0
  2  8  1  0  0  0  0
  3  2  1  0  0  0  0
  4  3  2  0  0  0  0
  5  6  2  0  0  0  0
  5  4  1  0  0  0  0
  6  1  1  0  0  0  0
 10  5  1  0  0  0  0
 11 12  2  0  0  0  0
 11  6  1  0  0  0  0
 13 11  2  0  0  0  0
 14 15  3  0  0  0  0
 16 17  1  0  0  0  0
 17 18  2  0  0  0  0
 19  9  1  0  0  0  0
 19 17  1  0  0  0  0
M  RAD  2   3   2   4   2
M  END
