Coordinates from ORCA-job p-NO2-Ph-N2-OOCH-B3LYPG-aug-cc-pVDZ-scan-d09-49-n400
 OpenBabel10311713223D

 19 17  0  0  0  0  0  0  0  0999 V2000
   15.8630    9.2633   -2.3350 C   0  0  0  0  0  0  0  0  0  0  0  0
   14.6364    8.7238   -1.8934 C   0  0  0  0  0  0  0  0  0  0  0  0
   14.6167    7.3839   -2.2165 C   0  0  0  0  0  0  0  0  0  0  0  0
   15.4371    6.6244   -2.7835 C   0  0  0  0  0  0  0  0  0  0  0  0
   16.6685    7.0807   -3.2490 C   0  0  0  0  0  0  0  0  0  0  0  0
   16.8251    8.4601   -2.9835 C   0  0  0  0  0  0  0  0  0  0  0  0
   16.0829   10.3174   -2.1787 H   0  0  0  0  0  0  0  0  0  0  0  0
   13.8694    9.3055   -1.3902 H   0  0  0  0  0  0  0  0  0  0  0  0
   14.2711    4.4980   -2.6231 H   0  0  0  0  0  0  0  0  0  0  0  0
   17.4411    6.5052   -3.7506 H   0  0  0  0  0  0  0  0  0  0  0  0
   18.0871    9.1035   -3.4156 N   0  0  0  0  0  0  0  0  0  0  0  0
   18.2294   10.3019   -3.1893 O   0  0  0  0  0  0  0  0  0  0  0  0
   18.9182    8.3964   -3.9779 O   0  0  0  0  0  0  0  0  0  0  0  0
   11.1784    7.5543   -0.5671 N   0  0  0  0  0  0  0  0  0  0  0  0
   10.1687    7.1569   -0.3650 N   0  0  0  0  0  0  0  0  0  0  0  0
   12.7059    2.2492   -1.9300 H   0  0  0  0  0  0  0  0  0  0  0  0
   12.9260    3.3302   -1.9661 C   0  0  0  0  0  0  0  0  0  0  0  0
   12.2182    4.1903   -1.5019 O   0  0  0  0  0  0  0  0  0  0  0  0
   14.0929    3.5375   -2.6012 O   0  0  0  0  0  0  0  0  0  0  0  0
  1  7  1  0  0  0  0
  1  2  2  0  0  0  0
  2  8  1  0  0  0  0
  3  2  1  0  0  0  0
  4  3  2  0  0  0  0
  5  6  2  0  0  0  0
  5  4  1  0  0  0  0
  6  1  1  0  0  0  0
  9 19  1  0  0  0  0
 10  5  1  0  0  0  0
 11 12  2  0  0  0  0
 11  6  1  0  0  0  0
 13 11  2  0  0  0  0
 14 15  3  0  0  0  0
 17 16  1  0  0  0  0
 17 18  2  0  0  0  0
 19 17  1  0  0  0  0
M  RAD  2   3   2   4   2
M  END
