Coordinates from ORCA-job p-NO2-Ph-N2-OOCH-B3LYPG-aug-cc-pVDZ-scan-d09-49-n400
 OpenBabel10311713223D

 19 17  0  0  0  0  0  0  0  0999 V2000
   15.8113    9.3687   -2.2704 C   0  0  0  0  0  0  0  0  0  0  0  0
   14.5317    9.0632   -1.7614 C   0  0  0  0  0  0  0  0  0  0  0  0
   14.2985    7.7331   -2.0007 C   0  0  0  0  0  0  0  0  0  0  0  0
   14.9203    6.7756   -2.5328 C   0  0  0  0  0  0  0  0  0  0  0  0
   16.1976    7.0331   -3.0550 C   0  0  0  0  0  0  0  0  0  0  0  0
   16.5978    8.3761   -2.8903 C   0  0  0  0  0  0  0  0  0  0  0  0
   16.2053   10.3795   -2.1885 H   0  0  0  0  0  0  0  0  0  0  0  0
   13.8845    9.7869   -1.2751 H   0  0  0  0  0  0  0  0  0  0  0  0
   14.3014    4.7439   -2.6728 H   0  0  0  0  0  0  0  0  0  0  0  0
   16.8473    6.3099   -3.5408 H   0  0  0  0  0  0  0  0  0  0  0  0
   17.9305    8.7705   -3.4009 N   0  0  0  0  0  0  0  0  0  0  0  0
   18.2806    9.9385   -3.2534 O   0  0  0  0  0  0  0  0  0  0  0  0
   18.6109    7.9010   -3.9370 O   0  0  0  0  0  0  0  0  0  0  0  0
   11.8968    7.5002   -0.9945 N   0  0  0  0  0  0  0  0  0  0  0  0
   10.9735    6.9102   -0.8608 N   0  0  0  0  0  0  0  0  0  0  0  0
   13.1108    2.2403   -2.0851 H   0  0  0  0  0  0  0  0  0  0  0  0
   13.1823    3.3409   -2.0330 C   0  0  0  0  0  0  0  0  0  0  0  0
   12.4114    4.0467   -1.4279 O   0  0  0  0  0  0  0  0  0  0  0  0
   14.2435    3.7640   -2.7371 O   0  0  0  0  0  0  0  0  0  0  0  0
  1  7  1  0  0  0  0
  1  2  2  0  0  0  0
  2  8  1  0  0  0  0
  3  2  1  0  0  0  0
  4  3  2  0  0  0  0
  5  6  2  0  0  0  0
  5  4  1  0  0  0  0
  6  1  1  0  0  0  0
 10  5  1  0  0  0  0
 11 12  2  0  0  0  0
 11  6  1  0  0  0  0
 13 11  2  0  0  0  0
 14 15  3  0  0  0  0
 16 17  1  0  0  0  0
 17 18  2  0  0  0  0
 19  9  1  0  0  0  0
 19 17  1  0  0  0  0
M  RAD  2   3   2   4   2
M  END
