Coordinates from ORCA-job p-NO2-Ph-N2-OOCH-B3LYPG-aug-cc-pVDZ-scan-d09-49-n400
 OpenBabel10311713233D

 19 17  0  0  0  0  0  0  0  0999 V2000
   15.7413    8.9452   -2.3472 C   0  0  0  0  0  0  0  0  0  0  0  0
   14.6630    8.0959   -2.0258 C   0  0  0  0  0  0  0  0  0  0  0  0
   14.9498    6.8158   -2.4678 C   0  0  0  0  0  0  0  0  0  0  0  0
   15.9548    6.3692   -3.0664 C   0  0  0  0  0  0  0  0  0  0  0  0
   17.0648    7.1183   -3.4274 C   0  0  0  0  0  0  0  0  0  0  0  0
   16.8845    8.4605   -3.0188 C   0  0  0  0  0  0  0  0  0  0  0  0
   15.7047    9.9990   -2.0789 H   0  0  0  0  0  0  0  0  0  0  0  0
   13.7668    8.4346   -1.5129 H   0  0  0  0  0  0  0  0  0  0  0  0
   14.2584    4.3118   -2.6257 H   0  0  0  0  0  0  0  0  0  0  0  0
   17.9619    6.7898   -3.9434 H   0  0  0  0  0  0  0  0  0  0  0  0
   17.9733    9.4180   -3.3205 N   0  0  0  0  0  0  0  0  0  0  0  0
   17.8276   10.5853   -2.9691 O   0  0  0  0  0  0  0  0  0  0  0  0
   18.9612    8.9844   -3.9068 O   0  0  0  0  0  0  0  0  0  0  0  0
   11.2483    7.8283   -0.5535 N   0  0  0  0  0  0  0  0  0  0  0  0
   10.2685    7.4558   -0.2080 N   0  0  0  0  0  0  0  0  0  0  0  0
   12.2035    2.6416   -1.6556 H   0  0  0  0  0  0  0  0  0  0  0  0
   12.6954    3.6138   -1.8293 C   0  0  0  0  0  0  0  0  0  0  0  0
   12.2519    4.6811   -1.4787 O   0  0  0  0  0  0  0  0  0  0  0  0
   13.8565    3.4341   -2.4818 O   0  0  0  0  0  0  0  0  0  0  0  0
  1  7  1  0  0  0  0
  1  2  1  0  0  0  0
  2  8  1  0  0  0  0
  3  2  2  0  0  0  0
  4  3  1  0  0  0  0
  5  4  2  0  0  0  0
  5  6  1  0  0  0  0
  6  1  2  0  0  0  0
  9 19  1  0  0  0  0
 10  5  1  0  0  0  0
 11  6  1  0  0  0  0
 11 12  2  0  0  0  0
 13 11  2  0  0  0  0
 14 15  3  0  0  0  0
 17 16  1  0  0  0  0
 17 18  2  0  0  0  0
 19 17  1  0  0  0  0
M  RAD  2   3   2   4   2
M  END
