Coordinates from ORCA-job p-NO2-Ph-N2-OOCH-B3LYPG-aug-cc-pVDZ-scan-d09-49-n400
 OpenBabel10311713223D

 19 18  0  0  0  0  0  0  0  0999 V2000
   15.3396    8.8867   -2.9530 C   0  0  0  0  0  0  0  0  0  0  0  0
   14.3150    8.3165   -2.1860 C   0  0  0  0  0  0  0  0  0  0  0  0
   14.6585    7.1988   -1.4592 C   0  0  0  0  0  0  0  0  0  0  0  0
   15.8941    6.5966   -1.3805 C   0  0  0  0  0  0  0  0  0  0  0  0
   16.9087    7.1778   -2.1526 C   0  0  0  0  0  0  0  0  0  0  0  0
   16.6098    8.3059   -2.9208 C   0  0  0  0  0  0  0  0  0  0  0  0
   15.1625    9.7674   -3.5659 H   0  0  0  0  0  0  0  0  0  0  0  0
   13.3113    8.7350   -2.1766 H   0  0  0  0  0  0  0  0  0  0  0  0
   16.0796    5.7198   -0.7646 H   0  0  0  0  0  0  0  0  0  0  0  0
   17.9161    6.7684   -2.1613 H   0  0  0  0  0  0  0  0  0  0  0  0
   17.6865    8.9144   -3.7320 N   0  0  0  0  0  0  0  0  0  0  0  0
   17.4064    9.9098   -4.3934 O   0  0  0  0  0  0  0  0  0  0  0  0
   18.7975    8.3948   -3.6837 O   0  0  0  0  0  0  0  0  0  0  0  0
   13.2393    6.4711   -0.2313 N   0  0  0  0  0  0  0  0  0  0  0  0
   12.5297    5.6256   -0.6453 N   0  0  0  0  0  0  0  0  0  0  0  0
   12.3494    4.0397   -3.6731 H   0  0  0  0  0  0  0  0  0  0  0  0
   12.0380    4.2485   -2.6276 C   0  0  0  0  0  0  0  0  0  0  0  0
   11.1409    3.6883   -2.0586 O   0  0  0  0  0  0  0  0  0  0  0  0
   12.8533    5.2173   -2.1518 O   0  0  0  0  0  0  0  0  0  0  0  0
  1  6  2  0  0  0  0
  1  2  1  0  0  0  0
  2  8  1  0  0  0  0
  2  3  2  0  0  0  0
  3  4  1  0  0  0  0
  4  9  1  0  0  0  0
  5  4  2  0  0  0  0
  6  5  1  0  0  0  0
  7  1  1  0  0  0  0
 10  5  1  0  0  0  0
 11 13  2  0  0  0  0
 11  6  1  0  0  0  0
 12 11  2  0  0  0  0
 15 14  1  0  0  0  0
 16 17  1  0  0  0  0
 17 19  1  0  0  0  0
 17 18  2  0  0  0  0
 19 15  1  0  0  0  0
M  RAD  3   3   2  14   3  15   2
M  END
