Coordinates from ORCA-job p-NO2-Ph-N2-OOCH-B3LYPG-aug-cc-pVDZ-scan-d09-49-n400
 OpenBabel10311713223D

 19 18  0  0  0  0  0  0  0  0999 V2000
   15.3295    8.8783   -2.9492 C   0  0  0  0  0  0  0  0  0  0  0  0
   14.3070    8.3071   -2.1823 C   0  0  0  0  0  0  0  0  0  0  0  0
   14.6398    7.1852   -1.4515 C   0  0  0  0  0  0  0  0  0  0  0  0
   15.8828    6.5911   -1.3782 C   0  0  0  0  0  0  0  0  0  0  0  0
   16.8978    7.1705   -2.1489 C   0  0  0  0  0  0  0  0  0  0  0  0
   16.5999    8.2980   -2.9180 C   0  0  0  0  0  0  0  0  0  0  0  0
   15.1526    9.7593   -3.5614 H   0  0  0  0  0  0  0  0  0  0  0  0
   13.3042    8.7281   -2.1723 H   0  0  0  0  0  0  0  0  0  0  0  0
   16.0705    5.7156   -0.7608 H   0  0  0  0  0  0  0  0  0  0  0  0
   17.9053    6.7617   -2.1567 H   0  0  0  0  0  0  0  0  0  0  0  0
   17.6762    8.9062   -3.7295 N   0  0  0  0  0  0  0  0  0  0  0  0
   17.3986    9.9068   -4.3842 O   0  0  0  0  0  0  0  0  0  0  0  0
   18.7896    8.3922   -3.6742 O   0  0  0  0  0  0  0  0  0  0  0  0
   13.2855    6.4925   -0.2758 N   0  0  0  0  0  0  0  0  0  0  0  0
   12.5675    5.6402   -0.6878 N   0  0  0  0  0  0  0  0  0  0  0  0
   12.3516    4.0487   -3.6682 H   0  0  0  0  0  0  0  0  0  0  0  0
   12.0496    4.2576   -2.6216 C   0  0  0  0  0  0  0  0  0  0  0  0
   11.1544    3.7096   -2.0416 O   0  0  0  0  0  0  0  0  0  0  0  0
   12.8734    5.2337   -2.1552 O   0  0  0  0  0  0  0  0  0  0  0  0
  1  6  2  0  0  0  0
  1  2  1  0  0  0  0
  2  8  1  0  0  0  0
  2  3  2  0  0  0  0
  3  4  1  0  0  0  0
  4  9  1  0  0  0  0
  5  4  2  0  0  0  0
  6  5  1  0  0  0  0
  7  1  1  0  0  0  0
 10  5  1  0  0  0  0
 11 13  2  0  0  0  0
 11  6  1  0  0  0  0
 12 11  2  0  0  0  0
 15 14  1  0  0  0  0
 16 17  1  0  0  0  0
 17 19  1  0  0  0  0
 17 18  2  0  0  0  0
 19 15  1  0  0  0  0
M  RAD  3   3   2  14   3  15   2
M  END
