Coordinates from ORCA-job p-NO2-Ph-N2-OOCH-B3LYPG-aug-cc-pVDZ-scan-d09-49-n400
 OpenBabel10311713223D

 19 19  0  0  0  0  0  0  0  0999 V2000
   15.4990    9.2596   -2.6410 C   0  0  0  0  0  0  0  0  0  0  0  0
   14.3607    8.7258   -2.0528 C   0  0  0  0  0  0  0  0  0  0  0  0
   14.2646    7.3375   -1.7615 C   0  0  0  0  0  0  0  0  0  0  0  0
   15.3845    6.5026   -2.0426 C   0  0  0  0  0  0  0  0  0  0  0  0
   16.5368    7.0443   -2.5989 C   0  0  0  0  0  0  0  0  0  0  0  0
   16.5730    8.4070   -2.9008 C   0  0  0  0  0  0  0  0  0  0  0  0
   15.5735   10.3162   -2.8837 H   0  0  0  0  0  0  0  0  0  0  0  0
   13.5089    9.3617   -1.8152 H   0  0  0  0  0  0  0  0  0  0  0  0
   15.3294    5.4453   -1.8051 H   0  0  0  0  0  0  0  0  0  0  0  0
   17.4035    6.4236   -2.8114 H   0  0  0  0  0  0  0  0  0  0  0  0
   17.8006    8.9717   -3.5085 N   0  0  0  0  0  0  0  0  0  0  0  0
   17.8028   10.1710   -3.7676 O   0  0  0  0  0  0  0  0  0  0  0  0
   18.7352    8.2041   -3.7140 O   0  0  0  0  0  0  0  0  0  0  0  0
   13.2092    6.9423   -1.2421 N   0  0  0  0  0  0  0  0  0  0  0  0
   12.5509    5.9679   -1.0676 N   0  0  0  0  0  0  0  0  0  0  0  0
   12.8427    2.7075   -2.2390 H   0  0  0  0  0  0  0  0  0  0  0  0
   12.3703    3.7020   -2.0867 C   0  0  0  0  0  0  0  0  0  0  0  0
   11.1896    3.9043   -2.2500 O   0  0  0  0  0  0  0  0  0  0  0  0
   13.3009    4.5879   -1.7288 O   0  0  0  0  0  0  0  0  0  0  0  0
  1  2  1  0  0  0  0
  2  8  1  0  0  0  0
  2  3  2  0  0  0  0
  3 14  1  0  0  0  0
  4  9  1  0  0  0  0
  4  3  1  0  0  0  0
  5  4  2  0  0  0  0
  6  1  2  0  0  0  0
  6  5  1  0  0  0  0
  7  1  1  0  0  0  0
 10  5  1  0  0  0  0
 11  6  1  0  0  0  0
 12 11  2  0  0  0  0
 13 11  2  0  0  0  0
 14 15  1  0  0  0  0
 16 17  1  0  0  0  0
 17 19  1  0  0  0  0
 18 17  2  0  0  0  0
 19 15  1  0  0  0  0
M  RAD  2  14   2  15   2
M  END
