Coordinates from ORCA-job p-NO2-Ph-N2-OOCH-B3LYPG-aug-cc-pVDZ-scan-d09-49-n400
 OpenBabel10311713223D

 19 17  0  0  0  0  0  0  0  0999 V2000
   15.8050    9.3703   -2.2646 C   0  0  0  0  0  0  0  0  0  0  0  0
   14.5238    9.0748   -1.7547 C   0  0  0  0  0  0  0  0  0  0  0  0
   14.2795    7.7464   -1.9914 C   0  0  0  0  0  0  0  0  0  0  0  0
   14.8893    6.7781   -2.5218 C   0  0  0  0  0  0  0  0  0  0  0  0
   16.1690    7.0309   -3.0442 C   0  0  0  0  0  0  0  0  0  0  0  0
   16.5820    8.3699   -2.8832 C   0  0  0  0  0  0  0  0  0  0  0  0
   16.2070   10.3780   -2.1846 H   0  0  0  0  0  0  0  0  0  0  0  0
   13.8821    9.8038   -1.2690 H   0  0  0  0  0  0  0  0  0  0  0  0
   14.3019    4.7628   -2.6753 H   0  0  0  0  0  0  0  0  0  0  0  0
   16.8128    6.3018   -3.5294 H   0  0  0  0  0  0  0  0  0  0  0  0
   17.9175    8.7517   -3.3957 N   0  0  0  0  0  0  0  0  0  0  0  0
   18.2764    9.9178   -3.2538 O   0  0  0  0  0  0  0  0  0  0  0  0
   18.5886    7.8763   -3.9339 O   0  0  0  0  0  0  0  0  0  0  0  0
   11.9591    7.4984   -1.0294 N   0  0  0  0  0  0  0  0  0  0  0  0
   11.0441    6.8947   -0.8994 N   0  0  0  0  0  0  0  0  0  0  0  0
   13.1305    2.2484   -2.0895 H   0  0  0  0  0  0  0  0  0  0  0  0
   13.1956    3.3492   -2.0338 C   0  0  0  0  0  0  0  0  0  0  0  0
   12.4239    4.0473   -1.4203 O   0  0  0  0  0  0  0  0  0  0  0  0
   14.2483    3.7819   -2.7433 O   0  0  0  0  0  0  0  0  0  0  0  0
  1  7  1  0  0  0  0
  1  2  2  0  0  0  0
  2  8  1  0  0  0  0
  3  2  1  0  0  0  0
  4  3  2  0  0  0  0
  5  6  2  0  0  0  0
  5  4  1  0  0  0  0
  6  1  1  0  0  0  0
 10  5  1  0  0  0  0
 11 12  2  0  0  0  0
 11  6  1  0  0  0  0
 13 11  2  0  0  0  0
 14 15  3  0  0  0  0
 16 17  1  0  0  0  0
 17 18  2  0  0  0  0
 19  9  1  0  0  0  0
 19 17  1  0  0  0  0
M  RAD  2   3   2   4   2
M  END
