Coordinates from ORCA-job p-NO2-Ph-N2-OOCH-B3LYPG-aug-cc-pVDZ-scan-d09-49-n400
 OpenBabel10311713223D

 19 19  0  0  0  0  0  0  0  0999 V2000
   15.3303    8.9322   -2.8970 C   0  0  0  0  0  0  0  0  0  0  0  0
   14.2930    8.3819   -2.1402 C   0  0  0  0  0  0  0  0  0  0  0  0
   14.5487    7.2070   -1.4482 C   0  0  0  0  0  0  0  0  0  0  0  0
   15.7793    6.5656   -1.4278 C   0  0  0  0  0  0  0  0  0  0  0  0
   16.8151    7.1211   -2.1819 C   0  0  0  0  0  0  0  0  0  0  0  0
   16.5703    8.2907   -2.9049 C   0  0  0  0  0  0  0  0  0  0  0  0
   15.1910    9.8450   -3.4706 H   0  0  0  0  0  0  0  0  0  0  0  0
   13.3158    8.8585   -2.0969 H   0  0  0  0  0  0  0  0  0  0  0  0
   15.9323    5.6568   -0.8497 H   0  0  0  0  0  0  0  0  0  0  0  0
   17.8003    6.6626   -2.2151 H   0  0  0  0  0  0  0  0  0  0  0  0
   17.6681    8.8755   -3.7032 N   0  0  0  0  0  0  0  0  0  0  0  0
   17.4309    9.9046   -4.3294 O   0  0  0  0  0  0  0  0  0  0  0  0
   18.7508    8.2964   -3.6924 O   0  0  0  0  0  0  0  0  0  0  0  0
   13.3394    6.6381   -0.4436 N   0  0  0  0  0  0  0  0  0  0  0  0
   12.6248    5.7347   -0.7892 N   0  0  0  0  0  0  0  0  0  0  0  0
   12.4543    3.9260   -3.6110 H   0  0  0  0  0  0  0  0  0  0  0  0
   12.1531    4.1952   -2.5795 C   0  0  0  0  0  0  0  0  0  0  0  0
   11.2867    3.6595   -1.9497 O   0  0  0  0  0  0  0  0  0  0  0  0
   12.9520    5.2311   -2.1871 O   0  0  0  0  0  0  0  0  0  0  0  0
  1  2  1  0  0  0  0
  2  8  1  0  0  0  0
  2  3  2  0  0  0  0
  3  4  1  0  0  0  0
  3 14  1  0  0  0  0
  4  9  1  0  0  0  0
  5  4  2  0  0  0  0
  6  1  2  0  0  0  0
  6  5  1  0  0  0  0
  7  1  1  0  0  0  0
 10  5  1  0  0  0  0
 11 13  2  0  0  0  0
 11  6  1  0  0  0  0
 12 11  2  0  0  0  0
 15 14  1  0  0  0  0
 16 17  1  0  0  0  0
 17 19  1  0  0  0  0
 17 18  2  0  0  0  0
 19 15  1  0  0  0  0
M  RAD  2  14   2  15   2
M  END
