Coordinates from ORCA-job p-NO2-Ph-N2-OOCH-B3LYPG-aug-cc-pVDZ-scan-d09-49-n400
 OpenBabel10311713223D

 19 19  0  0  0  0  0  0  0  0999 V2000
   15.3304    8.8850   -2.9238 C   0  0  0  0  0  0  0  0  0  0  0  0
   14.3183    8.2216   -2.2534 C   0  0  0  0  0  0  0  0  0  0  0  0
   14.5884    7.0224   -1.5093 C   0  0  0  0  0  0  0  0  0  0  0  0
   15.9482    6.5597   -1.4784 C   0  0  0  0  0  0  0  0  0  0  0  0
   16.9464    7.2416   -2.1509 C   0  0  0  0  0  0  0  0  0  0  0  0
   16.6385    8.3982   -2.8710 C   0  0  0  0  0  0  0  0  0  0  0  0
   15.1144    9.7862   -3.4930 H   0  0  0  0  0  0  0  0  0  0  0  0
   13.2943    8.5898   -2.2768 H   0  0  0  0  0  0  0  0  0  0  0  0
   16.1699    5.6594   -0.9086 H   0  0  0  0  0  0  0  0  0  0  0  0
   17.9721    6.8807   -2.1263 H   0  0  0  0  0  0  0  0  0  0  0  0
   17.7027    9.1120   -3.5785 N   0  0  0  0  0  0  0  0  0  0  0  0
   17.3946   10.1264   -4.2028 O   0  0  0  0  0  0  0  0  0  0  0  0
   18.8432    8.6554   -3.5076 O   0  0  0  0  0  0  0  0  0  0  0  0
   13.7698    6.4886   -0.9408 N   0  0  0  0  0  0  0  0  0  0  0  0
   12.9140    5.6806   -0.8451 N   0  0  0  0  0  0  0  0  0  0  0  0
   11.8696    3.4644   -3.3183 H   0  0  0  0  0  0  0  0  0  0  0  0
   11.7602    4.1480   -2.4488 C   0  0  0  0  0  0  0  0  0  0  0  0
   10.7500    4.2490   -1.7982 O   0  0  0  0  0  0  0  0  0  0  0  0
   12.9111    4.8135   -2.2858 O   0  0  0  0  0  0  0  0  0  0  0  0
  1  6  2  0  0  0  0
  1  2  1  0  0  0  0
  2  3  2  0  0  0  0
  3  4  1  0  0  0  0
  3 14  1  0  0  0  0
  4  9  1  0  0  0  0
  5 10  1  0  0  0  0
  5  4  2  0  0  0  0
  6  5  1  0  0  0  0
  7  1  1  0  0  0  0
  8  2  1  0  0  0  0
 11 13  2  0  0  0  0
 11  6  1  0  0  0  0
 12 11  2  0  0  0  0
 14 15  1  0  0  0  0
 16 17  1  0  0  0  0
 17 19  1  0  0  0  0
 17 18  2  0  0  0  0
 19 15  1  0  0  0  0
M  RAD  2  14   2  15   2
M  END
