Coordinates from ORCA-job p-NO2-Ph-N2-OOCH-B3LYPG-aug-cc-pVDZ-scan-d09-49-n400
 OpenBabel10311713233D

 19 17  0  0  0  0  0  0  0  0999 V2000
   15.6697    8.7285   -2.3807 C   0  0  0  0  0  0  0  0  0  0  0  0
   14.7067    7.7344   -2.1151 C   0  0  0  0  0  0  0  0  0  0  0  0
   15.1695    6.5141   -2.5830 C   0  0  0  0  0  0  0  0  0  0  0  0
   16.2432    6.2354   -3.1625 C   0  0  0  0  0  0  0  0  0  0  0  0
   17.2556    7.1295   -3.4719 C   0  0  0  0  0  0  0  0  0  0  0  0
   16.8851    8.4221   -3.0312 C   0  0  0  0  0  0  0  0  0  0  0  0
   15.4864    9.7591   -2.0846 H   0  0  0  0  0  0  0  0  0  0  0  0
   13.7608    7.9352   -1.6194 H   0  0  0  0  0  0  0  0  0  0  0  0
   14.3431    4.2014   -2.6204 H   0  0  0  0  0  0  0  0  0  0  0  0
   18.2012    6.9389   -3.9699 H   0  0  0  0  0  0  0  0  0  0  0  0
   17.8437    9.5248   -3.2740 N   0  0  0  0  0  0  0  0  0  0  0  0
   17.5384   10.6492   -2.8870 O   0  0  0  0  0  0  0  0  0  0  0  0
   18.8996    9.2433   -3.8343 O   0  0  0  0  0  0  0  0  0  0  0  0
   11.1744    8.0410   -0.4046 N   0  0  0  0  0  0  0  0  0  0  0  0
   10.1918    7.7201   -0.0175 N   0  0  0  0  0  0  0  0  0  0  0  0
   12.0161    2.9717   -1.6069 H   0  0  0  0  0  0  0  0  0  0  0  0
   12.6644    3.8339   -1.8376 C   0  0  0  0  0  0  0  0  0  0  0  0
   12.3879    4.9847   -1.5937 O   0  0  0  0  0  0  0  0  0  0  0  0
   13.7984    3.4150   -2.4230 O   0  0  0  0  0  0  0  0  0  0  0  0
  1  2  1  0  0  0  0
  1  7  1  0  0  0  0
  2  8  1  0  0  0  0
  3  2  2  0  0  0  0
  4  3  1  0  0  0  0
  5  4  2  0  0  0  0
  5  6  1  0  0  0  0
  6  1  2  0  0  0  0
  9 19  1  0  0  0  0
 10  5  1  0  0  0  0
 11  6  1  0  0  0  0
 11 12  2  0  0  0  0
 13 11  2  0  0  0  0
 14 15  3  0  0  0  0
 17 16  1  0  0  0  0
 17 18  2  0  0  0  0
 19 17  1  0  0  0  0
M  RAD  2   3   2   4   2
M  END
