Coordinates from ORCA-job p-NO2-Ph-N2-OOCH-B3LYPG-aug-cc-pVDZ-scan-d09-49-n400
 OpenBabel10311713223D

 19 17  0  0  0  0  0  0  0  0999 V2000
   15.7772    9.3608   -2.2313 C   0  0  0  0  0  0  0  0  0  0  0  0
   14.4911    9.0812   -1.7372 C   0  0  0  0  0  0  0  0  0  0  0  0
   14.2023    7.7640   -1.9909 C   0  0  0  0  0  0  0  0  0  0  0  0
   14.7760    6.7649   -2.5344 C   0  0  0  0  0  0  0  0  0  0  0  0
   16.0680    7.0288   -3.0383 C   0  0  0  0  0  0  0  0  0  0  0  0
   16.5256    8.3469   -2.8605 C   0  0  0  0  0  0  0  0  0  0  0  0
   16.2028   10.3565   -2.1323 H   0  0  0  0  0  0  0  0  0  0  0  0
   13.8600    9.8149   -1.2434 H   0  0  0  0  0  0  0  0  0  0  0  0
   14.2684    4.8575   -2.7200 H   0  0  0  0  0  0  0  0  0  0  0  0
   16.6960    6.2912   -3.5329 H   0  0  0  0  0  0  0  0  0  0  0  0
   17.8747    8.6963   -3.3623 N   0  0  0  0  0  0  0  0  0  0  0  0
   18.2671    9.8489   -3.1993 O   0  0  0  0  0  0  0  0  0  0  0  0
   18.5214    7.8109   -3.9132 O   0  0  0  0  0  0  0  0  0  0  0  0
   12.2186    7.4609   -1.2105 N   0  0  0  0  0  0  0  0  0  0  0  0
   11.3367    6.8058   -1.0926 N   0  0  0  0  0  0  0  0  0  0  0  0
   13.1677    2.3164   -2.0646 H   0  0  0  0  0  0  0  0  0  0  0  0
   13.2419    3.4158   -1.9870 C   0  0  0  0  0  0  0  0  0  0  0  0
   12.5515    4.0886   -1.2553 O   0  0  0  0  0  0  0  0  0  0  0  0
   14.1892    3.8722   -2.8114 O   0  0  0  0  0  0  0  0  0  0  0  0
  1  7  1  0  0  0  0
  1  2  2  0  0  0  0
  2  8  1  0  0  0  0
  3  2  1  0  0  0  0
  4  3  2  0  0  0  0
  5  6  2  0  0  0  0
  5  4  1  0  0  0  0
  6  1  1  0  0  0  0
 10  5  1  0  0  0  0
 11 12  2  0  0  0  0
 11  6  1  0  0  0  0
 13 11  2  0  0  0  0
 14 15  3  0  0  0  0
 16 17  1  0  0  0  0
 17 18  2  0  0  0  0
 19  9  1  0  0  0  0
 19 17  1  0  0  0  0
M  RAD  2   3   2   4   2
M  END
