Coordinates from ORCA-job p-NO2-Ph-N2-OOCH-B3LYPG-aug-cc-pVDZ-scan-d09-49-n400
 OpenBabel10311713223D

 19 17  0  0  0  0  0  0  0  0999 V2000
   15.8514    9.3306   -2.3158 C   0  0  0  0  0  0  0  0  0  0  0  0
   14.5957    8.9033   -1.8342 C   0  0  0  0  0  0  0  0  0  0  0  0
   14.4775    7.5589   -2.1024 C   0  0  0  0  0  0  0  0  0  0  0  0
   15.2155    6.7044   -2.6493 C   0  0  0  0  0  0  0  0  0  0  0  0
   16.4703    7.0580   -3.1492 C   0  0  0  0  0  0  0  0  0  0  0  0
   16.7374    8.4302   -2.9445 C   0  0  0  0  0  0  0  0  0  0  0  0
   16.1520   10.3705   -2.2059 H   0  0  0  0  0  0  0  0  0  0  0  0
   13.8826    9.5595   -1.3440 H   0  0  0  0  0  0  0  0  0  0  0  0
   14.2816    4.6013   -2.6359 H   0  0  0  0  0  0  0  0  0  0  0  0
   17.1883    6.4064   -3.6392 H   0  0  0  0  0  0  0  0  0  0  0  0
   18.0361    8.9575   -3.4223 N   0  0  0  0  0  0  0  0  0  0  0  0
   18.2731   10.1495   -3.2466 O   0  0  0  0  0  0  0  0  0  0  0  0
   18.8007    8.1674   -3.9681 O   0  0  0  0  0  0  0  0  0  0  0  0
   11.4570    7.4892   -0.7357 N   0  0  0  0  0  0  0  0  0  0  0  0
   10.4806    7.0063   -0.5576 N   0  0  0  0  0  0  0  0  0  0  0  0
   12.8709    2.2278   -2.0217 H   0  0  0  0  0  0  0  0  0  0  0  0
   13.0256    3.3205   -2.0062 C   0  0  0  0  0  0  0  0  0  0  0  0
   12.2834    4.1103   -1.4749 O   0  0  0  0  0  0  0  0  0  0  0  0
   14.1564    3.6306   -2.6639 O   0  0  0  0  0  0  0  0  0  0  0  0
  1  7  1  0  0  0  0
  1  2  2  0  0  0  0
  2  8  1  0  0  0  0
  3  2  1  0  0  0  0
  4  3  2  0  0  0  0
  5  6  2  0  0  0  0
  5  4  1  0  0  0  0
  6  1  1  0  0  0  0
 10  5  1  0  0  0  0
 11 12  2  0  0  0  0
 11  6  1  0  0  0  0
 13 11  2  0  0  0  0
 14 15  3  0  0  0  0
 16 17  1  0  0  0  0
 17 18  2  0  0  0  0
 19  9  1  0  0  0  0
 19 17  1  0  0  0  0
M  RAD  2   3   2   4   2
M  END
