Coordinates from ORCA-job p-NO2-Ph-N2-OOCH-B3LYPG-aug-cc-pVDZ-scan-d09-49-n400
 OpenBabel10311713223D

 19 17  0  0  0  0  0  0  0  0999 V2000
   15.8604    9.2980   -2.3283 C   0  0  0  0  0  0  0  0  0  0  0  0
   14.6189    8.8106   -1.8662 C   0  0  0  0  0  0  0  0  0  0  0  0
   14.5594    7.4673   -2.1612 C   0  0  0  0  0  0  0  0  0  0  0  0
   15.3397    6.6583   -2.7171 C   0  0  0  0  0  0  0  0  0  0  0  0
   16.5829    7.0690   -3.1991 C   0  0  0  0  0  0  0  0  0  0  0  0
   16.7892    8.4476   -2.9653 C   0  0  0  0  0  0  0  0  0  0  0  0
   16.1173   10.3470   -2.1966 H   0  0  0  0  0  0  0  0  0  0  0  0
   13.8747    9.4270   -1.3708 H   0  0  0  0  0  0  0  0  0  0  0  0
   14.2737    4.5444   -2.6308 H   0  0  0  0  0  0  0  0  0  0  0  0
   17.3318    6.4576   -3.6942 H   0  0  0  0  0  0  0  0  0  0  0  0
   18.0688    9.0382   -3.4202 N   0  0  0  0  0  0  0  0  0  0  0  0
   18.2520   10.2365   -3.2242 O   0  0  0  0  0  0  0  0  0  0  0  0
   18.8689    8.2924   -3.9775 O   0  0  0  0  0  0  0  0  0  0  0  0
   11.2913    7.5206   -0.6361 N   0  0  0  0  0  0  0  0  0  0  0  0
   10.2955    7.0854   -0.4432 N   0  0  0  0  0  0  0  0  0  0  0  0
   12.7797    2.2344   -1.9771 H   0  0  0  0  0  0  0  0  0  0  0  0
   12.9688    3.3218   -1.9871 C   0  0  0  0  0  0  0  0  0  0  0  0
   12.2433    4.1479   -1.4891 O   0  0  0  0  0  0  0  0  0  0  0  0
   14.1199    3.5785   -2.6334 O   0  0  0  0  0  0  0  0  0  0  0  0
  1  7  1  0  0  0  0
  1  2  2  0  0  0  0
  2  8  1  0  0  0  0
  3  2  1  0  0  0  0
  4  3  2  0  0  0  0
  5  6  2  0  0  0  0
  5  4  1  0  0  0  0
  6  1  1  0  0  0  0
 10  5  1  0  0  0  0
 11 12  2  0  0  0  0
 11  6  1  0  0  0  0
 13 11  2  0  0  0  0
 14 15  3  0  0  0  0
 17 16  1  0  0  0  0
 17 18  2  0  0  0  0
 19  9  1  0  0  0  0
 19 17  1  0  0  0  0
M  RAD  2   3   2   4   2
M  END
