Coordinates from ORCA-job p-NO2-Ph-N2-OOCH-B3LYPG-aug-cc-pVDZ-scan-d09-49-n400
 OpenBabel10311713223D

 19 17  0  0  0  0  0  0  0  0999 V2000
   15.7798    9.3627   -2.2324 C   0  0  0  0  0  0  0  0  0  0  0  0
   14.4947    9.0850   -1.7338 C   0  0  0  0  0  0  0  0  0  0  0  0
   14.2064    7.7673   -1.9842 C   0  0  0  0  0  0  0  0  0  0  0  0
   14.7793    6.7682   -2.5258 C   0  0  0  0  0  0  0  0  0  0  0  0
   16.0697    7.0283   -3.0347 C   0  0  0  0  0  0  0  0  0  0  0  0
   16.5269    8.3475   -2.8613 C   0  0  0  0  0  0  0  0  0  0  0  0
   16.2058   10.3587   -2.1370 H   0  0  0  0  0  0  0  0  0  0  0  0
   13.8654    9.8197   -1.2391 H   0  0  0  0  0  0  0  0  0  0  0  0
   14.2710    4.8523   -2.7138 H   0  0  0  0  0  0  0  0  0  0  0  0
   16.6966    6.2892   -3.5284 H   0  0  0  0  0  0  0  0  0  0  0  0
   17.8743    8.6960   -3.3679 N   0  0  0  0  0  0  0  0  0  0  0  0
   18.2661    9.8497   -3.2104 O   0  0  0  0  0  0  0  0  0  0  0  0
   18.5206    7.8089   -3.9165 O   0  0  0  0  0  0  0  0  0  0  0  0
   12.2028    7.4682   -1.1977 N   0  0  0  0  0  0  0  0  0  0  0  0
   11.3155    6.8186   -1.0913 N   0  0  0  0  0  0  0  0  0  0  0  0
   13.1767    2.3076   -2.0680 H   0  0  0  0  0  0  0  0  0  0  0  0
   13.2435    3.4076   -1.9940 C   0  0  0  0  0  0  0  0  0  0  0  0
   12.5380    4.0804   -1.2772 O   0  0  0  0  0  0  0  0  0  0  0  0
   14.2030    3.8664   -2.8038 O   0  0  0  0  0  0  0  0  0  0  0  0
  1  7  1  0  0  0  0
  1  2  2  0  0  0  0
  2  8  1  0  0  0  0
  3  2  1  0  0  0  0
  4  3  2  0  0  0  0
  5  6  2  0  0  0  0
  5  4  1  0  0  0  0
  6  1  1  0  0  0  0
 10  5  1  0  0  0  0
 11 12  2  0  0  0  0
 11  6  1  0  0  0  0
 13 11  2  0  0  0  0
 14 15  3  0  0  0  0
 16 17  1  0  0  0  0
 17 18  2  0  0  0  0
 19  9  1  0  0  0  0
 19 17  1  0  0  0  0
M  RAD  2   3   2   4   2
M  END
