Coordinates from ORCA-job p-NO2-Ph-N2-OOCH-B3LYPG-aug-cc-pVDZ-scan-d09-49-n400
 OpenBabel10311713233D

 19 17  0  0  0  0  0  0  0  0999 V2000
   15.7440    8.9525   -2.3471 C   0  0  0  0  0  0  0  0  0  0  0  0
   14.6621    8.1085   -2.0234 C   0  0  0  0  0  0  0  0  0  0  0  0
   14.9444    6.8274   -2.4646 C   0  0  0  0  0  0  0  0  0  0  0  0
   15.9461    6.3738   -3.0631 C   0  0  0  0  0  0  0  0  0  0  0  0
   17.0590    7.1183   -3.4260 C   0  0  0  0  0  0  0  0  0  0  0  0
   16.8845    8.4618   -3.0191 C   0  0  0  0  0  0  0  0  0  0  0  0
   15.7123   10.0068   -2.0803 H   0  0  0  0  0  0  0  0  0  0  0  0
   13.7681    8.4514   -1.5103 H   0  0  0  0  0  0  0  0  0  0  0  0
   14.2566    4.3137   -2.6246 H   0  0  0  0  0  0  0  0  0  0  0  0
   17.9543    6.7854   -3.9423 H   0  0  0  0  0  0  0  0  0  0  0  0
   17.9772    9.4144   -3.3230 N   0  0  0  0  0  0  0  0  0  0  0  0
   17.8373   10.5824   -2.9715 O   0  0  0  0  0  0  0  0  0  0  0  0
   18.9635    8.9755   -3.9078 O   0  0  0  0  0  0  0  0  0  0  0  0
   11.2473    7.8225   -0.5550 N   0  0  0  0  0  0  0  0  0  0  0  0
   10.2675    7.4492   -0.2103 N   0  0  0  0  0  0  0  0  0  0  0  0
   12.2103    2.6303   -1.6586 H   0  0  0  0  0  0  0  0  0  0  0  0
   12.6965    3.6056   -1.8302 C   0  0  0  0  0  0  0  0  0  0  0  0
   12.2459    4.6695   -1.4781 O   0  0  0  0  0  0  0  0  0  0  0  0
   13.8591    3.4336   -2.4822 O   0  0  0  0  0  0  0  0  0  0  0  0
  1  7  1  0  0  0  0
  1  2  1  0  0  0  0
  2  8  1  0  0  0  0
  3  2  2  0  0  0  0
  4  3  1  0  0  0  0
  5  4  2  0  0  0  0
  5  6  1  0  0  0  0
  6  1  2  0  0  0  0
  9 19  1  0  0  0  0
 10  5  1  0  0  0  0
 11  6  1  0  0  0  0
 11 12  2  0  0  0  0
 13 11  2  0  0  0  0
 14 15  3  0  0  0  0
 17 16  1  0  0  0  0
 17 18  2  0  0  0  0
 19 17  1  0  0  0  0
M  RAD  2   3   2   4   2
M  END
