Coordinates from ORCA-job p-NO2-Ph-N2-OOCH-B3LYPG-aug-cc-pVDZ-scan-d09-49-n400
 OpenBabel10311713223D

 19 17  0  0  0  0  0  0  0  0999 V2000
   15.7898    9.3691   -2.2510 C   0  0  0  0  0  0  0  0  0  0  0  0
   14.5069    9.0880   -1.7416 C   0  0  0  0  0  0  0  0  0  0  0  0
   14.2389    7.7650   -1.9806 C   0  0  0  0  0  0  0  0  0  0  0  0
   14.8250    6.7777   -2.5137 C   0  0  0  0  0  0  0  0  0  0  0  0
   16.1092    7.0280   -3.0345 C   0  0  0  0  0  0  0  0  0  0  0  0
   16.5477    8.3571   -2.8734 C   0  0  0  0  0  0  0  0  0  0  0  0
   16.2066   10.3704   -2.1683 H   0  0  0  0  0  0  0  0  0  0  0  0
   13.8755    9.8240   -1.2523 H   0  0  0  0  0  0  0  0  0  0  0  0
   14.2954    4.8077   -2.6899 H   0  0  0  0  0  0  0  0  0  0  0  0
   16.7412    6.2903   -3.5229 H   0  0  0  0  0  0  0  0  0  0  0  0
   17.8885    8.7175   -3.3883 N   0  0  0  0  0  0  0  0  0  0  0  0
   18.2722    9.8740   -3.2327 O   0  0  0  0  0  0  0  0  0  0  0  0
   18.5492    7.8291   -3.9177 O   0  0  0  0  0  0  0  0  0  0  0  0
   12.0913    7.4908   -1.1097 N   0  0  0  0  0  0  0  0  0  0  0  0
   11.1925    6.8597   -0.9941 N   0  0  0  0  0  0  0  0  0  0  0  0
   13.1652    2.2747   -2.0867 H   0  0  0  0  0  0  0  0  0  0  0  0
   13.2259    3.3754   -2.0216 C   0  0  0  0  0  0  0  0  0  0  0  0
   12.4715    4.0597   -1.3705 O   0  0  0  0  0  0  0  0  0  0  0  0
   14.2437    3.8242   -2.7676 O   0  0  0  0  0  0  0  0  0  0  0  0
  1  7  1  0  0  0  0
  1  2  2  0  0  0  0
  2  8  1  0  0  0  0
  3  2  1  0  0  0  0
  4  3  2  0  0  0  0
  5  6  2  0  0  0  0
  5  4  1  0  0  0  0
  6  1  1  0  0  0  0
 10  5  1  0  0  0  0
 11 12  2  0  0  0  0
 11  6  1  0  0  0  0
 13 11  2  0  0  0  0
 14 15  3  0  0  0  0
 16 17  1  0  0  0  0
 17 18  2  0  0  0  0
 19  9  1  0  0  0  0
 19 17  1  0  0  0  0
M  RAD  2   3   2   4   2
M  END
