Coordinates from ORCA-job p-NO2-Ph-N2-OOCH-B3LYPG-aug-cc-pVDZ-scan-d09-49-n400
 OpenBabel10311713223D

 19 19  0  0  0  0  0  0  0  0999 V2000
   15.4569    8.9708   -2.9838 C   0  0  0  0  0  0  0  0  0  0  0  0
   14.3835    8.2121   -2.6016 C   0  0  0  0  0  0  0  0  0  0  0  0
   14.5507    6.8671   -1.9494 C   0  0  0  0  0  0  0  0  0  0  0  0
   15.9957    6.4793   -1.7937 C   0  0  0  0  0  0  0  0  0  0  0  0
   17.0139    7.2972   -2.2037 C   0  0  0  0  0  0  0  0  0  0  0  0
   16.7788    8.5431   -2.8008 C   0  0  0  0  0  0  0  0  0  0  0  0
   15.2738    9.9405   -3.4458 H   0  0  0  0  0  0  0  0  0  0  0  0
   13.3499    8.5237   -2.7328 H   0  0  0  0  0  0  0  0  0  0  0  0
   16.1538    5.5095   -1.3277 H   0  0  0  0  0  0  0  0  0  0  0  0
   18.0417    6.9654   -2.0590 H   0  0  0  0  0  0  0  0  0  0  0  0
   17.8762    9.3689   -3.2192 N   0  0  0  0  0  0  0  0  0  0  0  0
   17.6194   10.4607   -3.7426 O   0  0  0  0  0  0  0  0  0  0  0  0
   19.0260    8.9486   -3.0378 O   0  0  0  0  0  0  0  0  0  0  0  0
   13.8170    6.3145   -1.6697 N   0  0  0  0  0  0  0  0  0  0  0  0
   12.8935    5.6480   -1.2453 N   0  0  0  0  0  0  0  0  0  0  0  0
   11.2075    3.3176   -2.8629 H   0  0  0  0  0  0  0  0  0  0  0  0
   11.4329    3.9410   -1.9791 C   0  0  0  0  0  0  0  0  0  0  0  0
   10.8773    3.9156   -0.9244 O   0  0  0  0  0  0  0  0  0  0  0  0
   12.4876    4.7586   -2.3383 O   0  0  0  0  0  0  0  0  0  0  0  0
  1  6  2  0  0  0  0
  1  2  1  0  0  0  0
  2  3  2  0  0  0  0
  3  4  1  0  0  0  0
  3 14  1  0  0  0  0
  4  9  1  0  0  0  0
  5 10  1  0  0  0  0
  5  4  2  0  0  0  0
  6  5  1  0  0  0  0
  7  1  1  0  0  0  0
  8  2  1  0  0  0  0
 11 13  2  0  0  0  0
 11  6  1  0  0  0  0
 12 11  2  0  0  0  0
 14 15  1  0  0  0  0
 16 17  1  0  0  0  0
 17 18  2  0  0  0  0
 19 17  1  0  0  0  0
 19 15  1  0  0  0  0
M  RAD  2  14   2  15   2
M  END
