Coordinates from ORCA-job p-NO2-Ph-N2-OOCH-B3LYPG-aug-cc-pVDZ-scan-d09-49-n400
 OpenBabel10311713223D

 19 18  0  0  0  0  0  0  0  0999 V2000
   15.3454    8.8921   -2.9545 C   0  0  0  0  0  0  0  0  0  0  0  0
   14.3195    8.3226   -2.1874 C   0  0  0  0  0  0  0  0  0  0  0  0
   14.6687    7.2073   -1.4626 C   0  0  0  0  0  0  0  0  0  0  0  0
   15.9000    6.6001   -1.3813 C   0  0  0  0  0  0  0  0  0  0  0  0
   16.9144    7.1820   -2.1542 C   0  0  0  0  0  0  0  0  0  0  0  0
   16.6154    8.3106   -2.9217 C   0  0  0  0  0  0  0  0  0  0  0  0
   15.1683    9.7725   -3.5677 H   0  0  0  0  0  0  0  0  0  0  0  0
   13.3153    8.7398   -2.1782 H   0  0  0  0  0  0  0  0  0  0  0  0
   16.0838    5.7224   -0.7662 H   0  0  0  0  0  0  0  0  0  0  0  0
   17.9215    6.7718   -2.1634 H   0  0  0  0  0  0  0  0  0  0  0  0
   17.6924    8.9191   -3.7329 N   0  0  0  0  0  0  0  0  0  0  0  0
   17.4102    9.9095   -4.4006 O   0  0  0  0  0  0  0  0  0  0  0  0
   18.8009    8.3940   -3.6911 O   0  0  0  0  0  0  0  0  0  0  0  0
   13.2137    6.4608   -0.2051 N   0  0  0  0  0  0  0  0  0  0  0  0
   12.5079    5.6194   -0.6177 N   0  0  0  0  0  0  0  0  0  0  0  0
   12.3462    4.0366   -3.6792 H   0  0  0  0  0  0  0  0  0  0  0  0
   12.0356    4.2395   -2.6312 C   0  0  0  0  0  0  0  0  0  0  0  0
   11.1345    3.6751   -2.0699 O   0  0  0  0  0  0  0  0  0  0  0  0
   12.8424    5.2073   -2.1522 O   0  0  0  0  0  0  0  0  0  0  0  0
  1  6  2  0  0  0  0
  1  2  1  0  0  0  0
  2  8  1  0  0  0  0
  2  3  2  0  0  0  0
  3  4  1  0  0  0  0
  4  9  1  0  0  0  0
  5  4  2  0  0  0  0
  6  5  1  0  0  0  0
  7  1  1  0  0  0  0
 10  5  1  0  0  0  0
 11 13  2  0  0  0  0
 11  6  1  0  0  0  0
 12 11  2  0  0  0  0
 15 14  1  0  0  0  0
 16 17  1  0  0  0  0
 17 19  1  0  0  0  0
 17 18  2  0  0  0  0
 19 15  1  0  0  0  0
M  RAD  3   3   2  14   3  15   2
M  END
