Coordinates from ORCA-job p-NO2-Ph-N2-OOCH-B3LYPG-aug-cc-pVDZ-scan-d09-49-n400
 OpenBabel10311713223D

 19 19  0  0  0  0  0  0  0  0999 V2000
   15.3172    8.8750   -2.9352 C   0  0  0  0  0  0  0  0  0  0  0  0
   14.2960    8.3054   -2.1684 C   0  0  0  0  0  0  0  0  0  0  0  0
   14.6119    7.1751   -1.4359 C   0  0  0  0  0  0  0  0  0  0  0  0
   15.8615    6.5847   -1.3732 C   0  0  0  0  0  0  0  0  0  0  0  0
   16.8780    7.1597   -2.1422 C   0  0  0  0  0  0  0  0  0  0  0  0
   16.5852    8.2900   -2.9087 C   0  0  0  0  0  0  0  0  0  0  0  0
   15.1429    9.7587   -3.5440 H   0  0  0  0  0  0  0  0  0  0  0  0
   13.2960    8.7334   -2.1548 H   0  0  0  0  0  0  0  0  0  0  0  0
   16.0484    5.7077   -0.7574 H   0  0  0  0  0  0  0  0  0  0  0  0
   17.8836    6.7467   -2.1516 H   0  0  0  0  0  0  0  0  0  0  0  0
   17.6629    8.8956   -3.7197 N   0  0  0  0  0  0  0  0  0  0  0  0
   17.3847    9.8895   -4.3846 O   0  0  0  0  0  0  0  0  0  0  0  0
   18.7703    8.3671   -3.6803 O   0  0  0  0  0  0  0  0  0  0  0  0
   13.3468    6.5339   -0.3403 N   0  0  0  0  0  0  0  0  0  0  0  0
   12.6164    5.6713   -0.7339 N   0  0  0  0  0  0  0  0  0  0  0  0
   12.3651    4.0455   -3.6681 H   0  0  0  0  0  0  0  0  0  0  0  0
   12.0764    4.2638   -2.6207 C   0  0  0  0  0  0  0  0  0  0  0  0
   11.1857    3.7295   -2.0237 O   0  0  0  0  0  0  0  0  0  0  0  0
   12.9073    5.2496   -2.1748 O   0  0  0  0  0  0  0  0  0  0  0  0
  1  6  2  0  0  0  0
  1  2  1  0  0  0  0
  2  8  1  0  0  0  0
  2  3  2  0  0  0  0
  3  4  1  0  0  0  0
  3 14  1  0  0  0  0
  4  9  1  0  0  0  0
  5  4  2  0  0  0  0
  6  5  1  0  0  0  0
  7  1  1  0  0  0  0
 10  5  1  0  0  0  0
 11 13  2  0  0  0  0
 11  6  1  0  0  0  0
 12 11  2  0  0  0  0
 15 14  1  0  0  0  0
 16 17  1  0  0  0  0
 17 19  1  0  0  0  0
 17 18  2  0  0  0  0
 19 15  1  0  0  0  0
M  RAD  2  14   2  15   2
M  END
