Coordinates from ORCA-job p-NO2-Ph-N2-OOCH-B3LYPG-aug-cc-pVDZ-scan-d09-49-n400
 OpenBabel10311713223D

 19 19  0  0  0  0  0  0  0  0999 V2000
   15.5201    9.2703   -2.6326 C   0  0  0  0  0  0  0  0  0  0  0  0
   14.3695    8.7372   -2.0628 C   0  0  0  0  0  0  0  0  0  0  0  0
   14.2728    7.3544   -1.8015 C   0  0  0  0  0  0  0  0  0  0  0  0
   15.3682    6.5053   -2.0779 C   0  0  0  0  0  0  0  0  0  0  0  0
   16.5311    7.0434   -2.6216 C   0  0  0  0  0  0  0  0  0  0  0  0
   16.5852    8.4099   -2.9005 C   0  0  0  0  0  0  0  0  0  0  0  0
   15.6078   10.3300   -2.8562 H   0  0  0  0  0  0  0  0  0  0  0  0
   13.5228    9.3758   -1.8162 H   0  0  0  0  0  0  0  0  0  0  0  0
   15.3008    5.4458   -1.8596 H   0  0  0  0  0  0  0  0  0  0  0  0
   17.3917    6.4159   -2.8389 H   0  0  0  0  0  0  0  0  0  0  0  0
   17.8229    8.9697   -3.4923 N   0  0  0  0  0  0  0  0  0  0  0  0
   17.8465   10.1754   -3.7187 O   0  0  0  0  0  0  0  0  0  0  0  0
   18.7512    8.1954   -3.7016 O   0  0  0  0  0  0  0  0  0  0  0  0
   13.1197    6.9634   -1.2393 N   0  0  0  0  0  0  0  0  0  0  0  0
   12.4954    5.9553   -1.1142 N   0  0  0  0  0  0  0  0  0  0  0  0
   12.9270    2.7399   -2.2682 H   0  0  0  0  0  0  0  0  0  0  0  0
   12.3734    3.6780   -2.0517 C   0  0  0  0  0  0  0  0  0  0  0  0
   11.1715    3.7652   -2.0783 O   0  0  0  0  0  0  0  0  0  0  0  0
   13.2583    4.6520   -1.7852 O   0  0  0  0  0  0  0  0  0  0  0  0
  1  2  1  0  0  0  0
  2  8  1  0  0  0  0
  2  3  2  0  0  0  0
  3 14  1  0  0  0  0
  4  9  1  0  0  0  0
  4  3  1  0  0  0  0
  5  4  2  0  0  0  0
  6  1  2  0  0  0  0
  6  5  1  0  0  0  0
  7  1  1  0  0  0  0
 10  5  1  0  0  0  0
 11  6  1  0  0  0  0
 12 11  2  0  0  0  0
 13 11  2  0  0  0  0
 14 15  1  0  0  0  0
 16 17  1  0  0  0  0
 17 19  1  0  0  0  0
 18 17  2  0  0  0  0
 19 15  1  0  0  0  0
M  RAD  2  14   2  15   2
M  END
