Coordinates from ORCA-job p-NO2-Ph-N2-OOCH-B3LYPG-aug-cc-pVDZ-scan-d09-49-n400
 OpenBabel10311713223D

 19 17  0  0  0  0  0  0  0  0999 V2000
   15.7909    9.3696   -2.2534 C   0  0  0  0  0  0  0  0  0  0  0  0
   14.5084    9.0876   -1.7432 C   0  0  0  0  0  0  0  0  0  0  0  0
   14.2425    7.7640   -1.9813 C   0  0  0  0  0  0  0  0  0  0  0  0
   14.8308    6.7786   -2.5141 C   0  0  0  0  0  0  0  0  0  0  0  0
   16.1143    7.0282   -3.0358 C   0  0  0  0  0  0  0  0  0  0  0  0
   16.5504    8.3585   -2.8754 C   0  0  0  0  0  0  0  0  0  0  0  0
   16.2064   10.3715   -2.1715 H   0  0  0  0  0  0  0  0  0  0  0  0
   13.8764    9.8232   -1.2543 H   0  0  0  0  0  0  0  0  0  0  0  0
   14.2972    4.8026   -2.6885 H   0  0  0  0  0  0  0  0  0  0  0  0
   16.7472    6.2911   -3.5239 H   0  0  0  0  0  0  0  0  0  0  0  0
   17.8905    8.7206   -3.3909 N   0  0  0  0  0  0  0  0  0  0  0  0
   18.2738    9.8769   -3.2327 O   0  0  0  0  0  0  0  0  0  0  0  0
   18.5539    7.8320   -3.9165 O   0  0  0  0  0  0  0  0  0  0  0  0
   12.0771    7.4927   -1.0998 N   0  0  0  0  0  0  0  0  0  0  0  0
   11.1765    6.8647   -0.9816 N   0  0  0  0  0  0  0  0  0  0  0  0
   13.1626    2.2714   -2.0885 H   0  0  0  0  0  0  0  0  0  0  0  0
   13.2242    3.3720   -2.0234 C   0  0  0  0  0  0  0  0  0  0  0  0
   12.4672    4.0578   -1.3771 O   0  0  0  0  0  0  0  0  0  0  0  0
   14.2459    3.8194   -2.7654 O   0  0  0  0  0  0  0  0  0  0  0  0
  1  7  1  0  0  0  0
  1  2  2  0  0  0  0
  2  8  1  0  0  0  0
  3  2  1  0  0  0  0
  4  3  2  0  0  0  0
  5  6  2  0  0  0  0
  5  4  1  0  0  0  0
  6  1  1  0  0  0  0
 10  5  1  0  0  0  0
 11 12  2  0  0  0  0
 11  6  1  0  0  0  0
 13 11  2  0  0  0  0
 14 15  3  0  0  0  0
 16 17  1  0  0  0  0
 17 18  2  0  0  0  0
 19  9  1  0  0  0  0
 19 17  1  0  0  0  0
M  RAD  2   3   2   4   2
M  END
