Coordinates from ORCA-job p-NO2-Ph-N2-OOCH-B3LYPG-aug-cc-pVDZ-scan-d09-49-n400
 OpenBabel10311713223D

 19 17  0  0  0  0  0  0  0  0999 V2000
   15.7803    9.3633   -2.2342 C   0  0  0  0  0  0  0  0  0  0  0  0
   14.4960    9.0843   -1.7339 C   0  0  0  0  0  0  0  0  0  0  0  0
   14.2101    7.7657   -1.9822 C   0  0  0  0  0  0  0  0  0  0  0  0
   14.7842    6.7672   -2.5227 C   0  0  0  0  0  0  0  0  0  0  0  0
   16.0737    7.0281   -3.0333 C   0  0  0  0  0  0  0  0  0  0  0  0
   16.5286    8.3484   -2.8622 C   0  0  0  0  0  0  0  0  0  0  0  0
   16.2047   10.3601   -2.1406 H   0  0  0  0  0  0  0  0  0  0  0  0
   13.8661    9.8186   -1.2396 H   0  0  0  0  0  0  0  0  0  0  0  0
   14.2780    4.8495   -2.7079 H   0  0  0  0  0  0  0  0  0  0  0  0
   16.7013    6.2892   -3.5264 H   0  0  0  0  0  0  0  0  0  0  0  0
   17.8750    8.6985   -3.3705 N   0  0  0  0  0  0  0  0  0  0  0  0
   18.2645    9.8533   -3.2160 O   0  0  0  0  0  0  0  0  0  0  0  0
   18.5221    7.8117   -3.9189 O   0  0  0  0  0  0  0  0  0  0  0  0
   12.1983    7.4632   -1.1901 N   0  0  0  0  0  0  0  0  0  0  0  0
   11.3127    6.8116   -1.0821 N   0  0  0  0  0  0  0  0  0  0  0  0
   13.1722    2.3093   -2.0661 H   0  0  0  0  0  0  0  0  0  0  0  0
   13.2373    3.4098   -1.9984 C   0  0  0  0  0  0  0  0  0  0  0  0
   12.5191    4.0874   -1.2990 O   0  0  0  0  0  0  0  0  0  0  0  0
   14.2119    3.8633   -2.7932 O   0  0  0  0  0  0  0  0  0  0  0  0
  1  7  1  0  0  0  0
  1  2  2  0  0  0  0
  2  8  1  0  0  0  0
  3  2  1  0  0  0  0
  4  3  2  0  0  0  0
  5  6  2  0  0  0  0
  5  4  1  0  0  0  0
  6  1  1  0  0  0  0
 10  5  1  0  0  0  0
 11 12  2  0  0  0  0
 11  6  1  0  0  0  0
 13 11  2  0  0  0  0
 14 15  3  0  0  0  0
 16 17  1  0  0  0  0
 17 18  2  0  0  0  0
 19  9  1  0  0  0  0
 19 17  1  0  0  0  0
M  RAD  2   3   2   4   2
M  END
