Coordinates from ORCA-job p-NO2-Ph-N2-OOCH-B3LYPG-aug-cc-pVDZ-scan-d09-49-n400
 OpenBabel10311713223D

 19 17  0  0  0  0  0  0  0  0999 V2000
   15.8036    9.3703   -2.2644 C   0  0  0  0  0  0  0  0  0  0  0  0
   14.5222    9.0755   -1.7541 C   0  0  0  0  0  0  0  0  0  0  0  0
   14.2785    7.7478   -1.9912 C   0  0  0  0  0  0  0  0  0  0  0  0
   14.8861    6.7780   -2.5215 C   0  0  0  0  0  0  0  0  0  0  0  0
   16.1658    7.0304   -3.0443 C   0  0  0  0  0  0  0  0  0  0  0  0
   16.5798    8.3692   -2.8834 C   0  0  0  0  0  0  0  0  0  0  0  0
   16.2063   10.3777   -2.1846 H   0  0  0  0  0  0  0  0  0  0  0  0
   13.8810    9.8047   -1.2681 H   0  0  0  0  0  0  0  0  0  0  0  0
   14.3022    4.7651   -2.6760 H   0  0  0  0  0  0  0  0  0  0  0  0
   16.8090    6.3009   -3.5296 H   0  0  0  0  0  0  0  0  0  0  0  0
   17.9153    8.7505   -3.3964 N   0  0  0  0  0  0  0  0  0  0  0  0
   18.2764    9.9155   -3.2511 O   0  0  0  0  0  0  0  0  0  0  0  0
   18.5873    7.8738   -3.9313 O   0  0  0  0  0  0  0  0  0  0  0  0
   11.9676    7.4980   -1.0333 N   0  0  0  0  0  0  0  0  0  0  0  0
   11.0537    6.8925   -0.9034 N   0  0  0  0  0  0  0  0  0  0  0  0
   13.1318    2.2499   -2.0892 H   0  0  0  0  0  0  0  0  0  0  0  0
   13.1965    3.3508   -2.0333 C   0  0  0  0  0  0  0  0  0  0  0  0
   12.4248    4.0479   -1.4183 O   0  0  0  0  0  0  0  0  0  0  0  0
   14.2481    3.7839   -2.7441 O   0  0  0  0  0  0  0  0  0  0  0  0
  1  7  1  0  0  0  0
  1  2  2  0  0  0  0
  2  8  1  0  0  0  0
  3  2  1  0  0  0  0
  4  3  2  0  0  0  0
  5  6  2  0  0  0  0
  5  4  1  0  0  0  0
  6  1  1  0  0  0  0
 10  5  1  0  0  0  0
 11 12  2  0  0  0  0
 11  6  1  0  0  0  0
 13 11  2  0  0  0  0
 14 15  3  0  0  0  0
 16 17  1  0  0  0  0
 17 18  2  0  0  0  0
 19  9  1  0  0  0  0
 19 17  1  0  0  0  0
M  RAD  2   3   2   4   2
M  END
