Coordinates from ORCA-job p-NO2-Ph-N2-OOCH-B3LYPG-aug-cc-pVDZ-scan-d09-49-n400
 OpenBabel10311713233D

 19 17  0  0  0  0  0  0  0  0999 V2000
   15.7672    9.0225   -2.3283 C   0  0  0  0  0  0  0  0  0  0  0  0
   14.6529    8.2319   -1.9800 C   0  0  0  0  0  0  0  0  0  0  0  0
   14.8688    6.9361   -2.4142 C   0  0  0  0  0  0  0  0  0  0  0  0
   15.8389    6.4290   -3.0224 C   0  0  0  0  0  0  0  0  0  0  0  0
   16.9787    7.1199   -3.4086 C   0  0  0  0  0  0  0  0  0  0  0  0
   16.8730    8.4736   -3.0127 C   0  0  0  0  0  0  0  0  0  0  0  0
   15.7882   10.0794   -2.0709 H   0  0  0  0  0  0  0  0  0  0  0  0
   13.7845    8.6189   -1.4552 H   0  0  0  0  0  0  0  0  0  0  0  0
   14.2346    4.3390   -2.6109 H   0  0  0  0  0  0  0  0  0  0  0  0
   17.8501    6.7414   -3.9344 H   0  0  0  0  0  0  0  0  0  0  0  0
   18.0035    9.3719   -3.3422 N   0  0  0  0  0  0  0  0  0  0  0  0
   17.9220   10.5488   -3.0021 O   0  0  0  0  0  0  0  0  0  0  0  0
   18.9590    8.8828   -3.9383 O   0  0  0  0  0  0  0  0  0  0  0  0
   11.3313    7.7227   -0.5883 N   0  0  0  0  0  0  0  0  0  0  0  0
   10.3034    7.4057   -0.3411 N   0  0  0  0  0  0  0  0  0  0  0  0
   12.2814    2.5278   -1.6818 H   0  0  0  0  0  0  0  0  0  0  0  0
   12.7124    3.5319   -1.8342 C   0  0  0  0  0  0  0  0  0  0  0  0
   12.2033    4.5623   -1.4640 O   0  0  0  0  0  0  0  0  0  0  0  0
   13.8831    3.4368   -2.4878 O   0  0  0  0  0  0  0  0  0  0  0  0
  1  7  1  0  0  0  0
  1  2  1  0  0  0  0
  2  8  1  0  0  0  0
  3  2  2  0  0  0  0
  4  3  1  0  0  0  0
  5  4  2  0  0  0  0
  5  6  1  0  0  0  0
  6  1  2  0  0  0  0
  9 19  1  0  0  0  0
 10  5  1  0  0  0  0
 11  6  1  0  0  0  0
 11 12  2  0  0  0  0
 13 11  2  0  0  0  0
 14 15  3  0  0  0  0
 17 16  1  0  0  0  0
 17 18  2  0  0  0  0
 19 17  1  0  0  0  0
M  RAD  2   3   2   4   2
M  END
