Coordinates from ORCA-job p-NO2-Ph-N2-OOCH-B3LYPG-aug-cc-pVDZ-scan-d09-49-n400
 OpenBabel10311713233D

 19 17  0  0  0  0  0  0  0  0999 V2000
   15.7363    8.9262   -2.3497 C   0  0  0  0  0  0  0  0  0  0  0  0
   14.6675    8.0628   -2.0337 C   0  0  0  0  0  0  0  0  0  0  0  0
   14.9708    6.7878   -2.4796 C   0  0  0  0  0  0  0  0  0  0  0  0
   15.9826    6.3564   -3.0777 C   0  0  0  0  0  0  0  0  0  0  0  0
   17.0845    7.1197   -3.4340 C   0  0  0  0  0  0  0  0  0  0  0  0
   16.8867    8.4579   -3.0207 C   0  0  0  0  0  0  0  0  0  0  0  0
   15.6865    9.9784   -2.0777 H   0  0  0  0  0  0  0  0  0  0  0  0
   13.7663    8.3890   -1.5218 H   0  0  0  0  0  0  0  0  0  0  0  0
   14.2633    4.3030   -2.6270 H   0  0  0  0  0  0  0  0  0  0  0  0
   17.9865    6.8040   -3.9493 H   0  0  0  0  0  0  0  0  0  0  0  0
   17.9644    9.4299   -3.3164 N   0  0  0  0  0  0  0  0  0  0  0  0
   17.8040   10.5938   -2.9604 O   0  0  0  0  0  0  0  0  0  0  0  0
   18.9590    9.0105   -3.9017 O   0  0  0  0  0  0  0  0  0  0  0  0
   11.2363    7.8453   -0.5408 N   0  0  0  0  0  0  0  0  0  0  0  0
   10.2563    7.4762   -0.1921 N   0  0  0  0  0  0  0  0  0  0  0  0
   12.1839    2.6688   -1.6479 H   0  0  0  0  0  0  0  0  0  0  0  0
   12.6910    3.6324   -1.8255 C   0  0  0  0  0  0  0  0  0  0  0  0
   12.2613    4.7083   -1.4841 O   0  0  0  0  0  0  0  0  0  0  0  0
   13.8488    3.4320   -2.4774 O   0  0  0  0  0  0  0  0  0  0  0  0
  1  7  1  0  0  0  0
  1  2  1  0  0  0  0
  2  8  1  0  0  0  0
  3  2  2  0  0  0  0
  4  3  1  0  0  0  0
  5  4  2  0  0  0  0
  5  6  1  0  0  0  0
  6  1  2  0  0  0  0
  9 19  1  0  0  0  0
 10  5  1  0  0  0  0
 11  6  1  0  0  0  0
 11 12  2  0  0  0  0
 13 11  2  0  0  0  0
 14 15  3  0  0  0  0
 17 16  1  0  0  0  0
 17 18  2  0  0  0  0
 19 17  1  0  0  0  0
M  RAD  2   3   2   4   2
M  END
