Coordinates from ORCA-job p-NO2-Ph-N2-OOCH-B3LYPG-aug-cc-pVDZ-scan-d09-49-n400
 OpenBabel10311713233D

 19 17  0  0  0  0  0  0  0  0999 V2000
   15.7472    8.9621   -2.3462 C   0  0  0  0  0  0  0  0  0  0  0  0
   14.6606    8.1250   -2.0196 C   0  0  0  0  0  0  0  0  0  0  0  0
   14.9360    6.8422   -2.4594 C   0  0  0  0  0  0  0  0  0  0  0  0
   15.9336    6.3798   -3.0580 C   0  0  0  0  0  0  0  0  0  0  0  0
   17.0503    7.1181   -3.4231 C   0  0  0  0  0  0  0  0  0  0  0  0
   16.8841    8.4633   -3.0185 C   0  0  0  0  0  0  0  0  0  0  0  0
   15.7222   10.0170   -2.0813 H   0  0  0  0  0  0  0  0  0  0  0  0
   13.7691    8.4737   -1.5060 H   0  0  0  0  0  0  0  0  0  0  0  0
   14.2541    4.3166   -2.6230 H   0  0  0  0  0  0  0  0  0  0  0  0
   17.9433    6.7793   -3.9397 H   0  0  0  0  0  0  0  0  0  0  0  0
   17.9818    9.4091   -3.3252 N   0  0  0  0  0  0  0  0  0  0  0  0
   17.8489   10.5786   -2.9760 O   0  0  0  0  0  0  0  0  0  0  0  0
   18.9649    8.9636   -3.9106 O   0  0  0  0  0  0  0  0  0  0  0  0
   11.2509    7.8143   -0.5597 N   0  0  0  0  0  0  0  0  0  0  0  0
   10.2711    7.4399   -0.2162 N   0  0  0  0  0  0  0  0  0  0  0  0
   12.2192    2.6158   -1.6627 H   0  0  0  0  0  0  0  0  0  0  0  0
   12.6978    3.5954   -1.8316 C   0  0  0  0  0  0  0  0  0  0  0  0
   12.2385    4.6548   -1.4777 O   0  0  0  0  0  0  0  0  0  0  0  0
   13.8625    3.4336   -2.4829 O   0  0  0  0  0  0  0  0  0  0  0  0
  1  7  1  0  0  0  0
  1  2  1  0  0  0  0
  2  8  1  0  0  0  0
  3  2  2  0  0  0  0
  4  3  1  0  0  0  0
  5  4  2  0  0  0  0
  5  6  1  0  0  0  0
  6  1  2  0  0  0  0
  9 19  1  0  0  0  0
 10  5  1  0  0  0  0
 11  6  1  0  0  0  0
 11 12  2  0  0  0  0
 13 11  2  0  0  0  0
 14 15  3  0  0  0  0
 17 16  1  0  0  0  0
 17 18  2  0  0  0  0
 19 17  1  0  0  0  0
M  RAD  2   3   2   4   2
M  END
