Coordinates from ORCA-job p-NO2-Ph-N2-OOCH-B3LYPG-aug-cc-pVDZ-scan-d09-49-n400
 OpenBabel10311713223D

 19 17  0  0  0  0  0  0  0  0999 V2000
   15.8143    9.3674   -2.2723 C   0  0  0  0  0  0  0  0  0  0  0  0
   14.5351    9.0570   -1.7644 C   0  0  0  0  0  0  0  0  0  0  0  0
   14.3070    7.7259   -2.0050 C   0  0  0  0  0  0  0  0  0  0  0  0
   14.9348    6.7732   -2.5378 C   0  0  0  0  0  0  0  0  0  0  0  0
   16.2111    7.0339   -3.0591 C   0  0  0  0  0  0  0  0  0  0  0  0
   16.6054    8.3786   -2.8925 C   0  0  0  0  0  0  0  0  0  0  0  0
   16.2046   10.3795   -2.1892 H   0  0  0  0  0  0  0  0  0  0  0  0
   13.8854    9.7783   -1.2781 H   0  0  0  0  0  0  0  0  0  0  0  0
   14.3018    4.7353   -2.6714 H   0  0  0  0  0  0  0  0  0  0  0  0
   16.8641    6.3136   -3.5450 H   0  0  0  0  0  0  0  0  0  0  0  0
   17.9369    8.7789   -3.4014 N   0  0  0  0  0  0  0  0  0  0  0  0
   18.2809    9.9490   -3.2556 O   0  0  0  0  0  0  0  0  0  0  0  0
   18.6198    7.9135   -3.9409 O   0  0  0  0  0  0  0  0  0  0  0  0
   11.8690    7.5019   -0.9794 N   0  0  0  0  0  0  0  0  0  0  0  0
   10.9419    6.9184   -0.8439 N   0  0  0  0  0  0  0  0  0  0  0  0
   13.1011    2.2372   -2.0832 H   0  0  0  0  0  0  0  0  0  0  0  0
   13.1761    3.3376   -2.0327 C   0  0  0  0  0  0  0  0  0  0  0  0
   12.4055    4.0473   -1.4319 O   0  0  0  0  0  0  0  0  0  0  0  0
   14.2414    3.7558   -2.7338 O   0  0  0  0  0  0  0  0  0  0  0  0
  1  7  1  0  0  0  0
  1  2  2  0  0  0  0
  2  8  1  0  0  0  0
  3  2  1  0  0  0  0
  4  3  2  0  0  0  0
  5  6  2  0  0  0  0
  5  4  1  0  0  0  0
  6  1  1  0  0  0  0
 10  5  1  0  0  0  0
 11 12  2  0  0  0  0
 11  6  1  0  0  0  0
 13 11  2  0  0  0  0
 14 15  3  0  0  0  0
 16 17  1  0  0  0  0
 17 18  2  0  0  0  0
 19  9  1  0  0  0  0
 19 17  1  0  0  0  0
M  RAD  2   3   2   4   2
M  END
