Coordinates from ORCA-job p-NO2-Ph-N2-OOCH-B3LYPG-aug-cc-pVDZ-scan-d09-49-n400
 OpenBabel10311713223D

 19 17  0  0  0  0  0  0  0  0999 V2000
   15.8625    9.2718   -2.3341 C   0  0  0  0  0  0  0  0  0  0  0  0
   14.6329    8.7439   -1.8868 C   0  0  0  0  0  0  0  0  0  0  0  0
   14.6031    7.4022   -2.2019 C   0  0  0  0  0  0  0  0  0  0  0  0
   15.4161    6.6331   -2.7665 C   0  0  0  0  0  0  0  0  0  0  0  0
   16.6499    7.0779   -3.2370 C   0  0  0  0  0  0  0  0  0  0  0  0
   16.8173    8.4576   -2.9798 C   0  0  0  0  0  0  0  0  0  0  0  0
   16.0904   10.3251   -2.1841 H   0  0  0  0  0  0  0  0  0  0  0  0
   13.8713    9.3340   -1.3855 H   0  0  0  0  0  0  0  0  0  0  0  0
   14.2714    4.5082   -2.6240 H   0  0  0  0  0  0  0  0  0  0  0  0
   17.4171    6.4939   -3.7369 H   0  0  0  0  0  0  0  0  0  0  0  0
   18.0831    9.0892   -3.4183 N   0  0  0  0  0  0  0  0  0  0  0  0
   18.2349   10.2877   -3.1985 O   0  0  0  0  0  0  0  0  0  0  0  0
   18.9079    8.3727   -3.9779 O   0  0  0  0  0  0  0  0  0  0  0  0
   11.2045    7.5427   -0.5829 N   0  0  0  0  0  0  0  0  0  0  0  0
   10.1980    7.1361   -0.3830 N   0  0  0  0  0  0  0  0  0  0  0  0
   12.7196    2.2472   -1.9407 H   0  0  0  0  0  0  0  0  0  0  0  0
   12.9342    3.3294   -1.9712 C   0  0  0  0  0  0  0  0  0  0  0  0
   12.2230    4.1834   -1.5006 O   0  0  0  0  0  0  0  0  0  0  0  0
   14.0988    3.5463   -2.6077 O   0  0  0  0  0  0  0  0  0  0  0  0
  1  7  1  0  0  0  0
  1  2  2  0  0  0  0
  2  8  1  0  0  0  0
  3  2  1  0  0  0  0
  4  3  2  0  0  0  0
  5  6  2  0  0  0  0
  5  4  1  0  0  0  0
  6  1  1  0  0  0  0
  9 19  1  0  0  0  0
 10  5  1  0  0  0  0
 11 12  2  0  0  0  0
 11  6  1  0  0  0  0
 13 11  2  0  0  0  0
 14 15  3  0  0  0  0
 17 16  1  0  0  0  0
 17 18  2  0  0  0  0
 19 17  1  0  0  0  0
M  RAD  2   3   2   4   2
M  END
