Coordinates from ORCA-job p-NO2-Ph-N2-OOCH-B3LYPG-aug-cc-pVDZ-scan-d09-49-n400
 OpenBabel10311713233D

 19 17  0  0  0  0  0  0  0  0999 V2000
   15.6731    8.7394   -2.3782 C   0  0  0  0  0  0  0  0  0  0  0  0
   14.7036    7.7522   -2.1102 C   0  0  0  0  0  0  0  0  0  0  0  0
   15.1579    6.5287   -2.5776 C   0  0  0  0  0  0  0  0  0  0  0  0
   16.2286    6.2412   -3.1584 C   0  0  0  0  0  0  0  0  0  0  0  0
   17.2463    7.1285   -3.4700 C   0  0  0  0  0  0  0  0  0  0  0  0
   16.8854    8.4240   -3.0302 C   0  0  0  0  0  0  0  0  0  0  0  0
   15.4972    9.7716   -2.0829 H   0  0  0  0  0  0  0  0  0  0  0  0
   13.7599    7.9601   -1.6134 H   0  0  0  0  0  0  0  0  0  0  0  0
   14.3383    4.2081   -2.6223 H   0  0  0  0  0  0  0  0  0  0  0  0
   18.1900    6.9310   -3.9692 H   0  0  0  0  0  0  0  0  0  0  0  0
   17.8511    9.5199   -3.2754 N   0  0  0  0  0  0  0  0  0  0  0  0
   17.5529   10.6472   -2.8912 O   0  0  0  0  0  0  0  0  0  0  0  0
   18.9032    9.2312   -3.8391 O   0  0  0  0  0  0  0  0  0  0  0  0
   11.1800    8.0282   -0.4148 N   0  0  0  0  0  0  0  0  0  0  0  0
   10.1976    7.7049   -0.0291 N   0  0  0  0  0  0  0  0  0  0  0  0
   12.0245    2.9552   -1.6072 H   0  0  0  0  0  0  0  0  0  0  0  0
   12.6653    3.8236   -1.8358 C   0  0  0  0  0  0  0  0  0  0  0  0
   12.3807    4.9710   -1.5855 O   0  0  0  0  0  0  0  0  0  0  0  0
   13.8007    3.4164   -2.4270 O   0  0  0  0  0  0  0  0  0  0  0  0
  1  2  1  0  0  0  0
  1  7  1  0  0  0  0
  2  8  1  0  0  0  0
  3  2  2  0  0  0  0
  4  3  1  0  0  0  0
  5  4  2  0  0  0  0
  5  6  1  0  0  0  0
  6  1  2  0  0  0  0
  9 19  1  0  0  0  0
 10  5  1  0  0  0  0
 11  6  1  0  0  0  0
 11 12  2  0  0  0  0
 13 11  2  0  0  0  0
 14 15  3  0  0  0  0
 17 16  1  0  0  0  0
 17 18  2  0  0  0  0
 19 17  1  0  0  0  0
M  RAD  2   3   2   4   2
M  END
