Coordinates from ORCA-job p-NO2-Ph-N2-OOCH-B3LYPG-aug-cc-pVDZ-scan-d09-49-n400
 OpenBabel10311713233D

 19 17  0  0  0  0  0  0  0  0999 V2000
   15.6946    8.8088   -2.3634 C   0  0  0  0  0  0  0  0  0  0  0  0
   14.6860    7.8662   -2.0790 C   0  0  0  0  0  0  0  0  0  0  0  0
   15.0830    6.6217   -2.5413 C   0  0  0  0  0  0  0  0  0  0  0  0
   16.1333    6.2818   -3.1313 C   0  0  0  0  0  0  0  0  0  0  0  0
   17.1846    7.1234   -3.4587 C   0  0  0  0  0  0  0  0  0  0  0  0
   16.8854    8.4364   -3.0246 C   0  0  0  0  0  0  0  0  0  0  0  0
   15.5661    9.8496   -2.0740 H   0  0  0  0  0  0  0  0  0  0  0  0
   13.7565    8.1188   -1.5761 H   0  0  0  0  0  0  0  0  0  0  0  0
   14.3063    4.2512   -2.6309 H   0  0  0  0  0  0  0  0  0  0  0  0
   18.1136    6.8818   -3.9659 H   0  0  0  0  0  0  0  0  0  0  0  0
   17.8952    9.4876   -3.2868 N   0  0  0  0  0  0  0  0  0  0  0  0
   17.6469   10.6307   -2.9142 O   0  0  0  0  0  0  0  0  0  0  0  0
   18.9247    9.1511   -3.8655 O   0  0  0  0  0  0  0  0  0  0  0  0
   11.2163    7.9505   -0.4792 N   0  0  0  0  0  0  0  0  0  0  0  0
   10.2349    7.6089   -0.1071 N   0  0  0  0  0  0  0  0  0  0  0  0
   12.0802    2.8508   -1.6141 H   0  0  0  0  0  0  0  0  0  0  0  0
   12.6737    3.7567   -1.8241 C   0  0  0  0  0  0  0  0  0  0  0  0
   12.3396    4.8799   -1.5299 O   0  0  0  0  0  0  0  0  0  0  0  0
   13.8150    3.4266   -2.4513 O   0  0  0  0  0  0  0  0  0  0  0  0
  1  2  1  0  0  0  0
  1  7  1  0  0  0  0
  2  8  1  0  0  0  0
  3  2  2  0  0  0  0
  4  3  1  0  0  0  0
  5  4  2  0  0  0  0
  5  6  1  0  0  0  0
  6  1  2  0  0  0  0
  9 19  1  0  0  0  0
 10  5  1  0  0  0  0
 11  6  1  0  0  0  0
 11 12  2  0  0  0  0
 13 11  2  0  0  0  0
 14 15  3  0  0  0  0
 17 16  1  0  0  0  0
 17 18  2  0  0  0  0
 19 17  1  0  0  0  0
M  RAD  2   3   2   4   2
M  END
