Coordinates from ORCA-job p-NO2-Ph-N2-OOCH-B3LYPG-aug-cc-pVDZ-scan-d09-49-n400
 OpenBabel10311713223D

 19 19  0  0  0  0  0  0  0  0999 V2000
   15.3239    8.8751   -2.9438 C   0  0  0  0  0  0  0  0  0  0  0  0
   14.3024    8.3033   -2.1772 C   0  0  0  0  0  0  0  0  0  0  0  0
   14.6303    7.1796   -1.4444 C   0  0  0  0  0  0  0  0  0  0  0  0
   15.8770    6.5895   -1.3734 C   0  0  0  0  0  0  0  0  0  0  0  0
   16.8921    7.1684   -2.1432 C   0  0  0  0  0  0  0  0  0  0  0  0
   16.5945    8.2956   -2.9126 C   0  0  0  0  0  0  0  0  0  0  0  0
   15.1469    9.7564   -3.5556 H   0  0  0  0  0  0  0  0  0  0  0  0
   13.2998    8.7250   -2.1671 H   0  0  0  0  0  0  0  0  0  0  0  0
   16.0657    5.7147   -0.7552 H   0  0  0  0  0  0  0  0  0  0  0  0
   17.8998    6.7601   -2.1502 H   0  0  0  0  0  0  0  0  0  0  0  0
   17.6709    8.9044   -3.7232 N   0  0  0  0  0  0  0  0  0  0  0  0
   17.3893    9.8953   -4.3909 O   0  0  0  0  0  0  0  0  0  0  0  0
   18.7806    8.3811   -3.6803 O   0  0  0  0  0  0  0  0  0  0  0  0
   13.3113    6.5052   -0.2992 N   0  0  0  0  0  0  0  0  0  0  0  0
   12.5882    5.6497   -0.7064 N   0  0  0  0  0  0  0  0  0  0  0  0
   12.3535    4.0545   -3.6714 H   0  0  0  0  0  0  0  0  0  0  0  0
   12.0596    4.2619   -2.6227 C   0  0  0  0  0  0  0  0  0  0  0  0
   11.1632    3.7218   -2.0383 O   0  0  0  0  0  0  0  0  0  0  0  0
   12.8870    5.2408   -2.1623 O   0  0  0  0  0  0  0  0  0  0  0  0
  1  6  2  0  0  0  0
  1  2  1  0  0  0  0
  2  8  1  0  0  0  0
  2  3  2  0  0  0  0
  3  4  1  0  0  0  0
  3 14  1  0  0  0  0
  4  9  1  0  0  0  0
  5  4  2  0  0  0  0
  6  5  1  0  0  0  0
  7  1  1  0  0  0  0
 10  5  1  0  0  0  0
 11 13  2  0  0  0  0
 11  6  1  0  0  0  0
 12 11  2  0  0  0  0
 15 14  1  0  0  0  0
 16 17  1  0  0  0  0
 17 19  1  0  0  0  0
 17 18  2  0  0  0  0
 19 15  1  0  0  0  0
M  RAD  2  14   2  15   2
M  END
