Coordinates from ORCA-job p-NO2-Ph-N2-OOCH-B3LYPG-aug-cc-pVDZ-scan-d09-49-n400
 OpenBabel10311713223D

 19 17  0  0  0  0  0  0  0  0999 V2000
   15.8617    9.2420   -2.3371 C   0  0  0  0  0  0  0  0  0  0  0  0
   14.6440    8.6746   -1.9066 C   0  0  0  0  0  0  0  0  0  0  0  0
   14.6466    7.3372   -2.2450 C   0  0  0  0  0  0  0  0  0  0  0  0
   15.4870    6.6054   -2.8182 C   0  0  0  0  0  0  0  0  0  0  0  0
   16.7115    7.0859   -3.2743 C   0  0  0  0  0  0  0  0  0  0  0  0
   16.8411    8.4648   -2.9916 C   0  0  0  0  0  0  0  0  0  0  0  0
   16.0614   10.2979   -2.1674 H   0  0  0  0  0  0  0  0  0  0  0  0
   13.8652    9.2369   -1.3993 H   0  0  0  0  0  0  0  0  0  0  0  0
   14.2720    4.4756   -2.6182 H   0  0  0  0  0  0  0  0  0  0  0  0
   17.4962    6.5303   -3.7794 H   0  0  0  0  0  0  0  0  0  0  0  0
   18.0926    9.1365   -3.4114 N   0  0  0  0  0  0  0  0  0  0  0  0
   18.2120   10.3345   -3.1702 O   0  0  0  0  0  0  0  0  0  0  0  0
   18.9390    8.4513   -3.9781 O   0  0  0  0  0  0  0  0  0  0  0  0
   11.1296    7.5775   -0.5363 N   0  0  0  0  0  0  0  0  0  0  0  0
   10.1127    7.2021   -0.3286 N   0  0  0  0  0  0  0  0  0  0  0  0
   12.6693    2.2602   -1.9064 H   0  0  0  0  0  0  0  0  0  0  0  0
   12.9059    3.3371   -1.9557 C   0  0  0  0  0  0  0  0  0  0  0  0
   12.2076    4.2145   -1.5090 O   0  0  0  0  0  0  0  0  0  0  0  0
   14.0808    3.5183   -2.5846 O   0  0  0  0  0  0  0  0  0  0  0  0
  1  7  1  0  0  0  0
  1  2  2  0  0  0  0
  2  8  1  0  0  0  0
  3  2  1  0  0  0  0
  4  3  2  0  0  0  0
  5  6  2  0  0  0  0
  5  4  1  0  0  0  0
  6  1  1  0  0  0  0
  9 19  1  0  0  0  0
 10  5  1  0  0  0  0
 11 12  2  0  0  0  0
 11  6  1  0  0  0  0
 13 11  2  0  0  0  0
 14 15  3  0  0  0  0
 17 16  1  0  0  0  0
 17 18  2  0  0  0  0
 19 17  1  0  0  0  0
M  RAD  2   3   2   4   2
M  END
