Coordinates from ORCA-job p-NO2-Ph-N2-OOCH-B3LYPG-aug-cc-pVDZ-scan-d09-49-n400
 OpenBabel10311713233D

 19 17  0  0  0  0  0  0  0  0999 V2000
   15.7381    8.9336   -2.3487 C   0  0  0  0  0  0  0  0  0  0  0  0
   14.6656    8.0756   -2.0307 C   0  0  0  0  0  0  0  0  0  0  0  0
   14.9624    6.7986   -2.4752 C   0  0  0  0  0  0  0  0  0  0  0  0
   15.9716    6.3612   -3.0732 C   0  0  0  0  0  0  0  0  0  0  0  0
   17.0767    7.1188   -3.4311 C   0  0  0  0  0  0  0  0  0  0  0  0
   16.8857    8.4588   -3.0197 C   0  0  0  0  0  0  0  0  0  0  0  0
   15.6935    9.9864   -2.0781 H   0  0  0  0  0  0  0  0  0  0  0  0
   13.7657    8.4070   -1.5179 H   0  0  0  0  0  0  0  0  0  0  0  0
   14.2616    4.3070   -2.6270 H   0  0  0  0  0  0  0  0  0  0  0  0
   17.9769    6.7980   -3.9466 H   0  0  0  0  0  0  0  0  0  0  0  0
   17.9680    9.4249   -3.3177 N   0  0  0  0  0  0  0  0  0  0  0  0
   17.8131   10.5904   -2.9642 O   0  0  0  0  0  0  0  0  0  0  0  0
   18.9597    8.9999   -3.9038 O   0  0  0  0  0  0  0  0  0  0  0  0
   11.2413    7.8383   -0.5458 N   0  0  0  0  0  0  0  0  0  0  0  0
   10.2615    7.4677   -0.1983 N   0  0  0  0  0  0  0  0  0  0  0  0
   12.1928    2.6585   -1.6493 H   0  0  0  0  0  0  0  0  0  0  0  0
   12.6925    3.6258   -1.8279 C   0  0  0  0  0  0  0  0  0  0  0  0
   12.2574    4.6985   -1.4826 O   0  0  0  0  0  0  0  0  0  0  0  0
   13.8520    3.4334   -2.4797 O   0  0  0  0  0  0  0  0  0  0  0  0
  1  7  1  0  0  0  0
  1  2  1  0  0  0  0
  2  8  1  0  0  0  0
  3  2  2  0  0  0  0
  4  3  1  0  0  0  0
  5  4  2  0  0  0  0
  5  6  1  0  0  0  0
  6  1  2  0  0  0  0
  9 19  1  0  0  0  0
 10  5  1  0  0  0  0
 11  6  1  0  0  0  0
 11 12  2  0  0  0  0
 13 11  2  0  0  0  0
 14 15  3  0  0  0  0
 17 16  1  0  0  0  0
 17 18  2  0  0  0  0
 19 17  1  0  0  0  0
M  RAD  2   3   2   4   2
M  END
