Coordinates from ORCA-job p-NO2-Ph-N2-OOCH-B3LYPG-aug-cc-pVDZ-scan-d09-49-n400
 OpenBabel10311713233D

 19 17  0  0  0  0  0  0  0  0999 V2000
   15.6902    8.7956   -2.3681 C   0  0  0  0  0  0  0  0  0  0  0  0
   14.6894    7.8438   -2.0865 C   0  0  0  0  0  0  0  0  0  0  0  0
   15.0990    6.6038   -2.5501 C   0  0  0  0  0  0  0  0  0  0  0  0
   16.1533    6.2736   -3.1383 C   0  0  0  0  0  0  0  0  0  0  0  0
   17.1979    7.1251   -3.4624 C   0  0  0  0  0  0  0  0  0  0  0  0
   16.8857    8.4347   -3.0275 C   0  0  0  0  0  0  0  0  0  0  0  0
   15.5521    9.8349   -2.0777 H   0  0  0  0  0  0  0  0  0  0  0  0
   13.7571    8.0875   -1.5843 H   0  0  0  0  0  0  0  0  0  0  0  0
   14.3115    4.2415   -2.6296 H   0  0  0  0  0  0  0  0  0  0  0  0
   18.1302    6.8925   -3.9679 H   0  0  0  0  0  0  0  0  0  0  0  0
   17.8863    9.4955   -3.2865 N   0  0  0  0  0  0  0  0  0  0  0  0
   17.6304   10.6342   -2.9058 O   0  0  0  0  0  0  0  0  0  0  0  0
   18.9236    9.1674   -3.8560 O   0  0  0  0  0  0  0  0  0  0  0  0
   11.2077    7.9646   -0.4659 N   0  0  0  0  0  0  0  0  0  0  0  0
   10.2267    7.6264   -0.0898 N   0  0  0  0  0  0  0  0  0  0  0  0
   12.0686    2.8705   -1.6089 H   0  0  0  0  0  0  0  0  0  0  0  0
   12.6703    3.7694   -1.8256 C   0  0  0  0  0  0  0  0  0  0  0  0
   12.3456    4.8977   -1.5404 O   0  0  0  0  0  0  0  0  0  0  0  0
   13.8105    3.4236   -2.4461 O   0  0  0  0  0  0  0  0  0  0  0  0
  1  2  1  0  0  0  0
  1  7  1  0  0  0  0
  2  8  1  0  0  0  0
  3  2  2  0  0  0  0
  4  3  1  0  0  0  0
  5  4  2  0  0  0  0
  5  6  1  0  0  0  0
  6  1  2  0  0  0  0
  9 19  1  0  0  0  0
 10  5  1  0  0  0  0
 11  6  1  0  0  0  0
 11 12  2  0  0  0  0
 13 11  2  0  0  0  0
 14 15  3  0  0  0  0
 17 16  1  0  0  0  0
 17 18  2  0  0  0  0
 19 17  1  0  0  0  0
M  RAD  2   3   2   4   2
M  END
