Coordinates from ORCA-job p-NO2-Ph-N2-OOCH-B3LYPG-aug-cc-pVDZ-scan-d09-49-n400
 OpenBabel10311713223D

 19 19  0  0  0  0  0  0  0  0999 V2000
   15.3818    9.0476   -2.8316 C   0  0  0  0  0  0  0  0  0  0  0  0
   14.3074    8.5253   -2.1097 C   0  0  0  0  0  0  0  0  0  0  0  0
   14.4523    7.2751   -1.5175 C   0  0  0  0  0  0  0  0  0  0  0  0
   15.6335    6.5395   -1.5682 C   0  0  0  0  0  0  0  0  0  0  0  0
   16.7114    7.0695   -2.2771 C   0  0  0  0  0  0  0  0  0  0  0  0
   16.5645    8.3101   -2.9018 C   0  0  0  0  0  0  0  0  0  0  0  0
   15.3169   10.0132   -3.3264 H   0  0  0  0  0  0  0  0  0  0  0  0
   13.3759    9.0795   -2.0113 H   0  0  0  0  0  0  0  0  0  0  0  0
   15.7127    5.5739   -1.0741 H   0  0  0  0  0  0  0  0  0  0  0  0
   17.6553    6.5359   -2.3537 H   0  0  0  0  0  0  0  0  0  0  0  0
   17.7065    8.8658   -3.6575 N   0  0  0  0  0  0  0  0  0  0  0  0
   17.5540    9.9575   -4.1983 O   0  0  0  0  0  0  0  0  0  0  0  0
   18.7379    8.2010   -3.7006 O   0  0  0  0  0  0  0  0  0  0  0  0
   13.2524    6.7815   -0.6129 N   0  0  0  0  0  0  0  0  0  0  0  0
   12.5818    5.8153   -0.8737 N   0  0  0  0  0  0  0  0  0  0  0  0
   12.5909    3.6806   -3.4653 H   0  0  0  0  0  0  0  0  0  0  0  0
   12.2645    4.0410   -2.4699 C   0  0  0  0  0  0  0  0  0  0  0  0
   11.4447    3.5085   -1.7775 O   0  0  0  0  0  0  0  0  0  0  0  0
   12.9916    5.1617   -2.1903 O   0  0  0  0  0  0  0  0  0  0  0  0
  1  2  1  0  0  0  0
  2  8  1  0  0  0  0
  2  3  2  0  0  0  0
  3 14  1  0  0  0  0
  4  3  1  0  0  0  0
  4  9  1  0  0  0  0
  5  4  2  0  0  0  0
  6  1  2  0  0  0  0
  6  5  1  0  0  0  0
  7  1  1  0  0  0  0
 10  5  1  0  0  0  0
 11  6  1  0  0  0  0
 12 11  2  0  0  0  0
 13 11  2  0  0  0  0
 15 14  1  0  0  0  0
 16 17  1  0  0  0  0
 17 19  1  0  0  0  0
 17 18  2  0  0  0  0
 19 15  1  0  0  0  0
M  RAD  2  14   2  15   2
M  END
