Coordinates from ORCA-job p-NO2-Ph-N2-OOCH-B3LYPG-aug-cc-pVDZ-scan-d09-49-n400
 OpenBabel10311713233D

 19 17  0  0  0  0  0  0  0  0999 V2000
   15.7737    9.0415   -2.3212 C   0  0  0  0  0  0  0  0  0  0  0  0
   14.6513    8.2652   -1.9673 C   0  0  0  0  0  0  0  0  0  0  0  0
   14.8477    6.9667   -2.4031 C   0  0  0  0  0  0  0  0  0  0  0  0
   15.8091    6.4471   -3.0144 C   0  0  0  0  0  0  0  0  0  0  0  0
   16.9556    7.1234   -3.4065 C   0  0  0  0  0  0  0  0  0  0  0  0
   16.8691    8.4785   -3.0109 C   0  0  0  0  0  0  0  0  0  0  0  0
   15.8095   10.0981   -2.0640 H   0  0  0  0  0  0  0  0  0  0  0  0
   13.7911    8.6631   -1.4374 H   0  0  0  0  0  0  0  0  0  0  0  0
   14.2213    4.3455   -2.6058 H   0  0  0  0  0  0  0  0  0  0  0  0
   17.8200    6.7336   -3.9357 H   0  0  0  0  0  0  0  0  0  0  0  0
   18.0095    9.3622   -3.3458 N   0  0  0  0  0  0  0  0  0  0  0  0
   17.9442   10.5403   -3.0065 O   0  0  0  0  0  0  0  0  0  0  0  0
   18.9562    8.8606   -3.9454 O   0  0  0  0  0  0  0  0  0  0  0  0
   11.3704    7.6859   -0.6106 N   0  0  0  0  0  0  0  0  0  0  0  0
   10.3308    7.3867   -0.3914 N   0  0  0  0  0  0  0  0  0  0  0  0
   12.2978    2.5006   -1.6792 H   0  0  0  0  0  0  0  0  0  0  0  0
   12.7114    3.5123   -1.8297 C   0  0  0  0  0  0  0  0  0  0  0  0
   12.1859    4.5328   -1.4554 O   0  0  0  0  0  0  0  0  0  0  0  0
   13.8814    3.4383   -2.4873 O   0  0  0  0  0  0  0  0  0  0  0  0
  1  7  1  0  0  0  0
  1  2  1  0  0  0  0
  2  8  1  0  0  0  0
  3  2  2  0  0  0  0
  4  3  1  0  0  0  0
  5  4  2  0  0  0  0
  5  6  1  0  0  0  0
  6  1  2  0  0  0  0
  9 19  1  0  0  0  0
 10  5  1  0  0  0  0
 11  6  1  0  0  0  0
 11 12  2  0  0  0  0
 13 11  2  0  0  0  0
 14 15  3  0  0  0  0
 17 16  1  0  0  0  0
 17 18  2  0  0  0  0
 19 17  1  0  0  0  0
M  RAD  2   3   2   4   2
M  END
