Coordinates from ORCA-job p-NO2-Ph-N2-OOCH-B3LYPG-aug-cc-pVDZ-scan-d09-49-n400
 OpenBabel10311713223D

 19 19  0  0  0  0  0  0  0  0999 V2000
   15.4337    9.1437   -2.7633 C   0  0  0  0  0  0  0  0  0  0  0  0
   14.3267    8.6325   -2.0891 C   0  0  0  0  0  0  0  0  0  0  0  0
   14.3587    7.3182   -1.6079 C   0  0  0  0  0  0  0  0  0  0  0  0
   15.5047    6.5217   -1.7358 C   0  0  0  0  0  0  0  0  0  0  0  0
   16.6231    7.0426   -2.3815 C   0  0  0  0  0  0  0  0  0  0  0  0
   16.5662    8.3397   -2.8959 C   0  0  0  0  0  0  0  0  0  0  0  0
   15.4358   10.1525   -3.1678 H   0  0  0  0  0  0  0  0  0  0  0  0
   13.4368    9.2407   -1.9367 H   0  0  0  0  0  0  0  0  0  0  0  0
   15.5210    5.5124   -1.3333 H   0  0  0  0  0  0  0  0  0  0  0  0
   17.5313    6.4567   -2.4978 H   0  0  0  0  0  0  0  0  0  0  0  0
   17.7501    8.8829   -3.5934 N   0  0  0  0  0  0  0  0  0  0  0  0
   17.6746   10.0255   -4.0364 O   0  0  0  0  0  0  0  0  0  0  0  0
   18.7367    8.1582   -3.6884 O   0  0  0  0  0  0  0  0  0  0  0  0
   13.2098    6.8906   -0.8498 N   0  0  0  0  0  0  0  0  0  0  0  0
   12.5642    5.8792   -0.9824 N   0  0  0  0  0  0  0  0  0  0  0  0
   12.7103    3.3875   -3.2397 H   0  0  0  0  0  0  0  0  0  0  0  0
   12.3358    3.8896   -2.3257 C   0  0  0  0  0  0  0  0  0  0  0  0
   11.4602    3.4724   -1.6215 O   0  0  0  0  0  0  0  0  0  0  0  0
   13.0563    5.0358   -2.1709 O   0  0  0  0  0  0  0  0  0  0  0  0
  1  2  1  0  0  0  0
  2  8  1  0  0  0  0
  2  3  2  0  0  0  0
  3 14  1  0  0  0  0
  4  3  1  0  0  0  0
  4  9  1  0  0  0  0
  5  4  2  0  0  0  0
  6  1  2  0  0  0  0
  6  5  1  0  0  0  0
  7  1  1  0  0  0  0
 10  5  1  0  0  0  0
 11  6  1  0  0  0  0
 12 11  2  0  0  0  0
 13 11  2  0  0  0  0
 15 14  1  0  0  0  0
 16 17  1  0  0  0  0
 17 19  1  0  0  0  0
 17 18  2  0  0  0  0
 19 15  1  0  0  0  0
M  RAD  2  14   2  15   2
M  END
