Coordinates from ORCA-job p-NO2-Ph-N2-OOCH-B3LYPG-aug-cc-pVDZ-scan-d09-49-n400
 OpenBabel10311713223D

 19 17  0  0  0  0  0  0  0  0999 V2000
   15.8597    9.3014   -2.3266 C   0  0  0  0  0  0  0  0  0  0  0  0
   14.6165    8.8199   -1.8626 C   0  0  0  0  0  0  0  0  0  0  0  0
   14.5513    7.4765   -2.1550 C   0  0  0  0  0  0  0  0  0  0  0  0
   15.3275    6.6627   -2.7098 C   0  0  0  0  0  0  0  0  0  0  0  0
   16.5721    7.0677   -3.1934 C   0  0  0  0  0  0  0  0  0  0  0  0
   16.7845    8.4458   -2.9624 C   0  0  0  0  0  0  0  0  0  0  0  0
   16.1211   10.3496   -2.1970 H   0  0  0  0  0  0  0  0  0  0  0  0
   13.8753    9.4404   -1.3679 H   0  0  0  0  0  0  0  0  0  0  0  0
   14.2745    4.5498   -2.6309 H   0  0  0  0  0  0  0  0  0  0  0  0
   17.3182    6.4522   -3.6878 H   0  0  0  0  0  0  0  0  0  0  0  0
   18.0663    9.0301   -3.4194 N   0  0  0  0  0  0  0  0  0  0  0  0
   18.2533   10.2287   -3.2287 O   0  0  0  0  0  0  0  0  0  0  0  0
   18.8614    8.2806   -3.9787 O   0  0  0  0  0  0  0  0  0  0  0  0
   11.3084    7.5168   -0.6469 N   0  0  0  0  0  0  0  0  0  0  0  0
   10.3143    7.0770   -0.4552 N   0  0  0  0  0  0  0  0  0  0  0  0
   12.7878    2.2338   -1.9819 H   0  0  0  0  0  0  0  0  0  0  0  0
   12.9739    3.3217   -1.9891 C   0  0  0  0  0  0  0  0  0  0  0  0
   12.2467    4.1446   -1.4880 O   0  0  0  0  0  0  0  0  0  0  0  0
   14.1234    3.5833   -2.6362 O   0  0  0  0  0  0  0  0  0  0  0  0
  1  7  1  0  0  0  0
  1  2  2  0  0  0  0
  2  8  1  0  0  0  0
  3  2  1  0  0  0  0
  4  3  2  0  0  0  0
  5  6  2  0  0  0  0
  5  4  1  0  0  0  0
  6  1  1  0  0  0  0
 10  5  1  0  0  0  0
 11 12  2  0  0  0  0
 11  6  1  0  0  0  0
 13 11  2  0  0  0  0
 14 15  3  0  0  0  0
 17 16  1  0  0  0  0
 17 18  2  0  0  0  0
 19  9  1  0  0  0  0
 19 17  1  0  0  0  0
M  RAD  2   3   2   4   2
M  END
