Coordinates from ORCA-job p-NO2-Ph-N2-OOCH-B3LYPG-aug-cc-pVDZ-scan-d09-49-n400
 OpenBabel10311713223D

 19 17  0  0  0  0  0  0  0  0999 V2000
   15.8454    9.3413   -2.3077 C   0  0  0  0  0  0  0  0  0  0  0  0
   14.5835    8.9403   -1.8194 C   0  0  0  0  0  0  0  0  0  0  0  0
   14.4403    7.5978   -2.0818 C   0  0  0  0  0  0  0  0  0  0  0  0
   15.1560    6.7215   -2.6272 C   0  0  0  0  0  0  0  0  0  0  0  0
   16.4160    7.0535   -3.1327 C   0  0  0  0  0  0  0  0  0  0  0  0
   16.7109    8.4208   -2.9355 C   0  0  0  0  0  0  0  0  0  0  0  0
   16.1667   10.3756   -2.2036 H   0  0  0  0  0  0  0  0  0  0  0  0
   13.8845    9.6113   -1.3294 H   0  0  0  0  0  0  0  0  0  0  0  0
   14.2810    4.6277   -2.6453 H   0  0  0  0  0  0  0  0  0  0  0  0
   17.1200    6.3866   -3.6226 H   0  0  0  0  0  0  0  0  0  0  0  0
   18.0176    8.9208   -3.4208 N   0  0  0  0  0  0  0  0  0  0  0  0
   18.2812   10.1072   -3.2453 O   0  0  0  0  0  0  0  0  0  0  0  0
   18.7674    8.1122   -3.9598 O   0  0  0  0  0  0  0  0  0  0  0  0
   11.5332    7.4960   -0.7829 N   0  0  0  0  0  0  0  0  0  0  0  0
   10.5649    6.9946   -0.6121 N   0  0  0  0  0  0  0  0  0  0  0  0
   12.9261    2.2201   -2.0357 H   0  0  0  0  0  0  0  0  0  0  0  0
   13.0591    3.3156   -2.0116 C   0  0  0  0  0  0  0  0  0  0  0  0
   12.3084    4.0849   -1.4624 O   0  0  0  0  0  0  0  0  0  0  0  0
   14.1738    3.6546   -2.6815 O   0  0  0  0  0  0  0  0  0  0  0  0
  1  7  1  0  0  0  0
  1  2  2  0  0  0  0
  2  8  1  0  0  0  0
  3  2  1  0  0  0  0
  4  3  2  0  0  0  0
  5  6  2  0  0  0  0
  5  4  1  0  0  0  0
  6  1  1  0  0  0  0
 10  5  1  0  0  0  0
 11 12  2  0  0  0  0
 11  6  1  0  0  0  0
 13 11  2  0  0  0  0
 14 15  3  0  0  0  0
 16 17  1  0  0  0  0
 17 18  2  0  0  0  0
 19  9  1  0  0  0  0
 19 17  1  0  0  0  0
M  RAD  2   3   2   4   2
M  END
