Coordinates from ORCA-job p-NO2-Ph-N2-OOCH-B3LYPG-aug-cc-pVDZ-scan-d09-49-n400
 OpenBabel10311713233D

 19 17  0  0  0  0  0  0  0  0999 V2000
   15.7615    9.0061   -2.3327 C   0  0  0  0  0  0  0  0  0  0  0  0
   14.6551    8.2025   -1.9897 C   0  0  0  0  0  0  0  0  0  0  0  0
   14.8858    6.9092   -2.4242 C   0  0  0  0  0  0  0  0  0  0  0  0
   15.8643    6.4155   -3.0304 C   0  0  0  0  0  0  0  0  0  0  0  0
   16.9977    7.1191   -3.4116 C   0  0  0  0  0  0  0  0  0  0  0  0
   16.8757    8.4708   -3.0140 C   0  0  0  0  0  0  0  0  0  0  0  0
   15.7697   10.0627   -2.0736 H   0  0  0  0  0  0  0  0  0  0  0  0
   13.7807    8.5793   -1.4680 H   0  0  0  0  0  0  0  0  0  0  0  0
   14.2405    4.3330   -2.6145 H   0  0  0  0  0  0  0  0  0  0  0  0
   17.8749    6.7511   -3.9352 H   0  0  0  0  0  0  0  0  0  0  0  0
   17.9974    9.3821   -3.3381 N   0  0  0  0  0  0  0  0  0  0  0  0
   17.9015   10.5575   -2.9968 O   0  0  0  0  0  0  0  0  0  0  0  0
   18.9599    8.9047   -3.9325 O   0  0  0  0  0  0  0  0  0  0  0  0
   11.3127    7.7445   -0.5773 N   0  0  0  0  0  0  0  0  0  0  0  0
   10.2915    7.4215   -0.3109 N   0  0  0  0  0  0  0  0  0  0  0  0
   12.2645    2.5512   -1.6781 H   0  0  0  0  0  0  0  0  0  0  0  0
   12.7093    3.5487   -1.8344 C   0  0  0  0  0  0  0  0  0  0  0  0
   12.2149    4.5874   -1.4680 O   0  0  0  0  0  0  0  0  0  0  0  0
   13.8784    3.4355   -2.4875 O   0  0  0  0  0  0  0  0  0  0  0  0
  1  7  1  0  0  0  0
  1  2  1  0  0  0  0
  2  8  1  0  0  0  0
  3  2  2  0  0  0  0
  4  3  1  0  0  0  0
  5  4  2  0  0  0  0
  5  6  1  0  0  0  0
  6  1  2  0  0  0  0
  9 19  1  0  0  0  0
 10  5  1  0  0  0  0
 11  6  1  0  0  0  0
 11 12  2  0  0  0  0
 13 11  2  0  0  0  0
 14 15  3  0  0  0  0
 17 16  1  0  0  0  0
 17 18  2  0  0  0  0
 19 17  1  0  0  0  0
M  RAD  2   3   2   4   2
M  END
