Coordinates from ORCA-job p-NO2-Ph-N2-OOCH-B3LYPG-aug-cc-pVDZ-scan-d09-49-n400
 OpenBabel10311713223D

 19 19  0  0  0  0  0  0  0  0999 V2000
   15.3305    8.9346   -2.8948 C   0  0  0  0  0  0  0  0  0  0  0  0
   14.2924    8.3856   -2.1381 C   0  0  0  0  0  0  0  0  0  0  0  0
   14.5451    7.2086   -1.4482 C   0  0  0  0  0  0  0  0  0  0  0  0
   15.7747    6.5646   -1.4299 C   0  0  0  0  0  0  0  0  0  0  0  0
   16.8114    7.1190   -2.1834 C   0  0  0  0  0  0  0  0  0  0  0  0
   16.5689    8.2903   -2.9044 C   0  0  0  0  0  0  0  0  0  0  0  0
   15.1930    9.8487   -3.4667 H   0  0  0  0  0  0  0  0  0  0  0  0
   13.3165    8.8646   -2.0933 H   0  0  0  0  0  0  0  0  0  0  0  0
   15.9260    5.6543   -0.8537 H   0  0  0  0  0  0  0  0  0  0  0  0
   17.7955    6.6583   -2.2180 H   0  0  0  0  0  0  0  0  0  0  0  0
   17.6677    8.8739   -3.7023 N   0  0  0  0  0  0  0  0  0  0  0  0
   17.4326    9.9045   -4.3268 O   0  0  0  0  0  0  0  0  0  0  0  0
   18.7490    8.2923   -3.6930 O   0  0  0  0  0  0  0  0  0  0  0  0
   13.3413    6.6443   -0.4509 N   0  0  0  0  0  0  0  0  0  0  0  0
   12.6271    5.7389   -0.7932 N   0  0  0  0  0  0  0  0  0  0  0  0
   12.4583    3.9203   -3.6086 H   0  0  0  0  0  0  0  0  0  0  0  0
   12.1578    4.1922   -2.5777 C   0  0  0  0  0  0  0  0  0  0  0  0
   11.2927    3.6570   -1.9455 O   0  0  0  0  0  0  0  0  0  0  0  0
   12.9555    5.2305   -2.1890 O   0  0  0  0  0  0  0  0  0  0  0  0
  1  2  1  0  0  0  0
  2  8  1  0  0  0  0
  2  3  2  0  0  0  0
  3  4  1  0  0  0  0
  3 14  1  0  0  0  0
  4  9  1  0  0  0  0
  5  4  2  0  0  0  0
  6  1  2  0  0  0  0
  6  5  1  0  0  0  0
  7  1  1  0  0  0  0
 10  5  1  0  0  0  0
 11 13  2  0  0  0  0
 11  6  1  0  0  0  0
 12 11  2  0  0  0  0
 15 14  1  0  0  0  0
 16 17  1  0  0  0  0
 17 19  1  0  0  0  0
 17 18  2  0  0  0  0
 19 15  1  0  0  0  0
M  RAD  2  14   2  15   2
M  END
