Coordinates from ORCA-job p-NO2-Ph-N2-OOCH-B3LYPG-aug-cc-pVDZ-scan-d09-49-n400
 OpenBabel10311713223D

 19 17  0  0  0  0  0  0  0  0999 V2000
   15.8055    9.3701   -2.2669 C   0  0  0  0  0  0  0  0  0  0  0  0
   14.5247    9.0722   -1.7564 C   0  0  0  0  0  0  0  0  0  0  0  0
   14.2848    7.7439   -1.9944 C   0  0  0  0  0  0  0  0  0  0  0  0
   14.8957    6.7772   -2.5253 C   0  0  0  0  0  0  0  0  0  0  0  0
   16.1746    7.0314   -3.0483 C   0  0  0  0  0  0  0  0  0  0  0  0
   16.5845    8.3715   -2.8865 C   0  0  0  0  0  0  0  0  0  0  0  0
   16.2058   10.3785   -2.1866 H   0  0  0  0  0  0  0  0  0  0  0  0
   13.8820    9.7998   -1.2701 H   0  0  0  0  0  0  0  0  0  0  0  0
   14.3016    4.7592   -2.6756 H   0  0  0  0  0  0  0  0  0  0  0  0
   16.8196    6.3037   -3.5341 H   0  0  0  0  0  0  0  0  0  0  0  0
   17.9190    8.7567   -3.3994 N   0  0  0  0  0  0  0  0  0  0  0  0
   18.2790    9.9214   -3.2488 O   0  0  0  0  0  0  0  0  0  0  0  0
   18.5954    7.8809   -3.9301 O   0  0  0  0  0  0  0  0  0  0  0  0
   11.9470    7.4988   -1.0213 N   0  0  0  0  0  0  0  0  0  0  0  0
   11.0304    6.8978   -0.8900 N   0  0  0  0  0  0  0  0  0  0  0  0
   13.1265    2.2468   -2.0880 H   0  0  0  0  0  0  0  0  0  0  0  0
   13.1926    3.3476   -2.0329 C   0  0  0  0  0  0  0  0  0  0  0  0
   12.4212    4.0466   -1.4201 O   0  0  0  0  0  0  0  0  0  0  0  0
   14.2463    3.7784   -2.7425 O   0  0  0  0  0  0  0  0  0  0  0  0
  1  7  1  0  0  0  0
  1  2  2  0  0  0  0
  2  8  1  0  0  0  0
  3  2  1  0  0  0  0
  4  3  2  0  0  0  0
  5  6  2  0  0  0  0
  5  4  1  0  0  0  0
  6  1  1  0  0  0  0
 10  5  1  0  0  0  0
 11 12  2  0  0  0  0
 11  6  1  0  0  0  0
 13 11  2  0  0  0  0
 14 15  3  0  0  0  0
 16 17  1  0  0  0  0
 17 18  2  0  0  0  0
 19  9  1  0  0  0  0
 19 17  1  0  0  0  0
M  RAD  2   3   2   4   2
M  END
