Coordinates from ORCA-job p-NO2-Ph-N2-OOCH-B3LYPG-aug-cc-pVDZ-scan-d09-49-n400
 OpenBabel10311713223D

 19 17  0  0  0  0  0  0  0  0999 V2000
   15.8630    9.2806   -2.3330 C   0  0  0  0  0  0  0  0  0  0  0  0
   14.6298    8.7647   -1.8807 C   0  0  0  0  0  0  0  0  0  0  0  0
   14.5918    7.4226   -2.1895 C   0  0  0  0  0  0  0  0  0  0  0  0
   15.3944    6.6398   -2.7510 C   0  0  0  0  0  0  0  0  0  0  0  0
   16.6308    7.0757   -3.2253 C   0  0  0  0  0  0  0  0  0  0  0  0
   16.8099    8.4553   -2.9760 C   0  0  0  0  0  0  0  0  0  0  0  0
   16.0995   10.3328   -2.1892 H   0  0  0  0  0  0  0  0  0  0  0  0
   13.8733    9.3626   -1.3812 H   0  0  0  0  0  0  0  0  0  0  0  0
   14.2714    4.5182   -2.6265 H   0  0  0  0  0  0  0  0  0  0  0  0
   17.3928    6.4835   -3.7238 H   0  0  0  0  0  0  0  0  0  0  0  0
   18.0798    9.0747   -3.4201 N   0  0  0  0  0  0  0  0  0  0  0  0
   18.2414   10.2731   -3.2071 O   0  0  0  0  0  0  0  0  0  0  0  0
   18.8977    8.3489   -3.9778 O   0  0  0  0  0  0  0  0  0  0  0  0
   11.2246    7.5370   -0.5959 N   0  0  0  0  0  0  0  0  0  0  0  0
   10.2209    7.1223   -0.3983 N   0  0  0  0  0  0  0  0  0  0  0  0
   12.7384    2.2408   -1.9528 H   0  0  0  0  0  0  0  0  0  0  0  0
   12.9443    3.3249   -1.9764 C   0  0  0  0  0  0  0  0  0  0  0  0
   12.2282    4.1695   -1.4968 O   0  0  0  0  0  0  0  0  0  0  0  0
   14.1043    3.5551   -2.6160 O   0  0  0  0  0  0  0  0  0  0  0  0
  1  7  1  0  0  0  0
  1  2  2  0  0  0  0
  2  8  1  0  0  0  0
  3  2  1  0  0  0  0
  4  3  2  0  0  0  0
  5  6  2  0  0  0  0
  5  4  1  0  0  0  0
  6  1  1  0  0  0  0
  9 19  1  0  0  0  0
 10  5  1  0  0  0  0
 11 12  2  0  0  0  0
 11  6  1  0  0  0  0
 13 11  2  0  0  0  0
 14 15  3  0  0  0  0
 17 16  1  0  0  0  0
 17 18  2  0  0  0  0
 19 17  1  0  0  0  0
M  RAD  2   3   2   4   2
M  END
