Coordinates from ORCA-job p-NO2-Ph-N2-OOCH-B3LYPG-aug-cc-pVDZ-scan-d09-49-n400
 OpenBabel10311713223D

 19 17  0  0  0  0  0  0  0  0999 V2000
   15.8077    9.3694   -2.2667 C   0  0  0  0  0  0  0  0  0  0  0  0
   14.5268    9.0697   -1.7574 C   0  0  0  0  0  0  0  0  0  0  0  0
   14.2890    7.7409   -1.9959 C   0  0  0  0  0  0  0  0  0  0  0  0
   14.9028    6.7764   -2.5267 C   0  0  0  0  0  0  0  0  0  0  0  0
   16.1816    7.0315   -3.0487 C   0  0  0  0  0  0  0  0  0  0  0  0
   16.5890    8.3723   -2.8859 C   0  0  0  0  0  0  0  0  0  0  0  0
   16.2064   10.3784   -2.1858 H   0  0  0  0  0  0  0  0  0  0  0  0
   13.8827    9.7963   -1.2715 H   0  0  0  0  0  0  0  0  0  0  0  0
   14.3017    4.7550   -2.6745 H   0  0  0  0  0  0  0  0  0  0  0  0
   16.8281    6.3050   -3.5342 H   0  0  0  0  0  0  0  0  0  0  0  0
   17.9234    8.7599   -3.3972 N   0  0  0  0  0  0  0  0  0  0  0  0
   18.2776    9.9273   -3.2544 O   0  0  0  0  0  0  0  0  0  0  0  0
   18.5978    7.8876   -3.9363 O   0  0  0  0  0  0  0  0  0  0  0  0
   11.9323    7.4995   -1.0147 N   0  0  0  0  0  0  0  0  0  0  0  0
   11.0136    6.9017   -0.8834 N   0  0  0  0  0  0  0  0  0  0  0  0
   13.1221    2.2449   -2.0875 H   0  0  0  0  0  0  0  0  0  0  0  0
   13.1896    3.3457   -2.0332 C   0  0  0  0  0  0  0  0  0  0  0  0
   12.4180    4.0464   -1.4228 O   0  0  0  0  0  0  0  0  0  0  0  0
   14.2457    3.7744   -2.7408 O   0  0  0  0  0  0  0  0  0  0  0  0
  1  7  1  0  0  0  0
  1  2  2  0  0  0  0
  2  8  1  0  0  0  0
  3  2  1  0  0  0  0
  4  3  2  0  0  0  0
  5  6  2  0  0  0  0
  5  4  1  0  0  0  0
  6  1  1  0  0  0  0
 10  5  1  0  0  0  0
 11 12  2  0  0  0  0
 11  6  1  0  0  0  0
 13 11  2  0  0  0  0
 14 15  3  0  0  0  0
 16 17  1  0  0  0  0
 17 18  2  0  0  0  0
 19  9  1  0  0  0  0
 19 17  1  0  0  0  0
M  RAD  2   3   2   4   2
M  END
