Coordinates from ORCA-job p-NO2-Ph-N2-OOCH-B3LYPG-aug-cc-pVDZ-scan-d09-49-n400
 OpenBabel10311713223D

 19 17  0  0  0  0  0  0  0  0999 V2000
   15.7926    9.3692   -2.2541 C   0  0  0  0  0  0  0  0  0  0  0  0
   14.5100    9.0861   -1.7441 C   0  0  0  0  0  0  0  0  0  0  0  0
   14.2473    7.7619   -1.9811 C   0  0  0  0  0  0  0  0  0  0  0  0
   14.8386    6.7783   -2.5125 C   0  0  0  0  0  0  0  0  0  0  0  0
   16.1217    7.0275   -3.0341 C   0  0  0  0  0  0  0  0  0  0  0  0
   16.5548    8.3590   -2.8744 C   0  0  0  0  0  0  0  0  0  0  0  0
   16.2064   10.3720   -2.1731 H   0  0  0  0  0  0  0  0  0  0  0  0
   13.8767    9.8215   -1.2565 H   0  0  0  0  0  0  0  0  0  0  0  0
   14.3014    4.7972   -2.6844 H   0  0  0  0  0  0  0  0  0  0  0  0
   16.7562    6.2909   -3.5209 H   0  0  0  0  0  0  0  0  0  0  0  0
   17.8945    8.7234   -3.3891 N   0  0  0  0  0  0  0  0  0  0  0  0
   18.2710    9.8833   -3.2419 O   0  0  0  0  0  0  0  0  0  0  0  0
   18.5557    7.8383   -3.9235 O   0  0  0  0  0  0  0  0  0  0  0  0
   12.0634    7.4933   -1.0906 N   0  0  0  0  0  0  0  0  0  0  0  0
   11.1613    6.8680   -0.9702 N   0  0  0  0  0  0  0  0  0  0  0  0
   13.1575    2.2694   -2.0898 H   0  0  0  0  0  0  0  0  0  0  0  0
   13.2200    3.3701   -2.0266 C   0  0  0  0  0  0  0  0  0  0  0  0
   12.4564    4.0590   -1.3917 O   0  0  0  0  0  0  0  0  0  0  0  0
   14.2506    3.8141   -2.7587 O   0  0  0  0  0  0  0  0  0  0  0  0
  1  7  1  0  0  0  0
  1  2  2  0  0  0  0
  2  8  1  0  0  0  0
  3  2  1  0  0  0  0
  4  3  2  0  0  0  0
  5  6  2  0  0  0  0
  5  4  1  0  0  0  0
  6  1  1  0  0  0  0
 10  5  1  0  0  0  0
 11 12  2  0  0  0  0
 11  6  1  0  0  0  0
 13 11  2  0  0  0  0
 14 15  3  0  0  0  0
 16 17  1  0  0  0  0
 17 18  2  0  0  0  0
 19  9  1  0  0  0  0
 19 17  1  0  0  0  0
M  RAD  2   3   2   4   2
M  END
