Coordinates from ORCA-job p-NO2-Ph-N2-OOCH-B3LYPG-aug-cc-pVDZ-scan-d09-49-n400
 OpenBabel10311713223D

 19 19  0  0  0  0  0  0  0  0999 V2000
   15.5155    9.2699   -2.6293 C   0  0  0  0  0  0  0  0  0  0  0  0
   14.3674    8.7362   -2.0575 C   0  0  0  0  0  0  0  0  0  0  0  0
   14.2632    7.3486   -1.7929 C   0  0  0  0  0  0  0  0  0  0  0  0
   15.3677    6.5042   -2.0775 C   0  0  0  0  0  0  0  0  0  0  0  0
   16.5287    7.0437   -2.6209 C   0  0  0  0  0  0  0  0  0  0  0  0
   16.5812    8.4106   -2.8988 C   0  0  0  0  0  0  0  0  0  0  0  0
   15.6021   10.3298   -2.8527 H   0  0  0  0  0  0  0  0  0  0  0  0
   13.5208    9.3754   -1.8112 H   0  0  0  0  0  0  0  0  0  0  0  0
   15.3021    5.4440   -1.8596 H   0  0  0  0  0  0  0  0  0  0  0  0
   17.3897    6.4174   -2.8399 H   0  0  0  0  0  0  0  0  0  0  0  0
   17.8178    8.9721   -3.4915 N   0  0  0  0  0  0  0  0  0  0  0  0
   17.8359   10.1762   -3.7265 O   0  0  0  0  0  0  0  0  0  0  0  0
   18.7440    8.1976   -3.7088 O   0  0  0  0  0  0  0  0  0  0  0  0
   13.1545    6.9582   -1.2590 N   0  0  0  0  0  0  0  0  0  0  0  0
   12.5136    5.9650   -1.1085 N   0  0  0  0  0  0  0  0  0  0  0  0
   12.8998    2.7162   -2.2239 H   0  0  0  0  0  0  0  0  0  0  0  0
   12.3751    3.6805   -2.0533 C   0  0  0  0  0  0  0  0  0  0  0  0
   11.1797    3.8131   -2.1511 O   0  0  0  0  0  0  0  0  0  0  0  0
   13.2774    4.6239   -1.7545 O   0  0  0  0  0  0  0  0  0  0  0  0
  1  2  1  0  0  0  0
  2  8  1  0  0  0  0
  2  3  2  0  0  0  0
  3 14  1  0  0  0  0
  4  9  1  0  0  0  0
  4  3  1  0  0  0  0
  5  4  2  0  0  0  0
  6  1  2  0  0  0  0
  6  5  1  0  0  0  0
  7  1  1  0  0  0  0
 10  5  1  0  0  0  0
 11  6  1  0  0  0  0
 12 11  2  0  0  0  0
 13 11  2  0  0  0  0
 14 15  1  0  0  0  0
 16 17  1  0  0  0  0
 17 19  1  0  0  0  0
 18 17  2  0  0  0  0
 19 15  1  0  0  0  0
M  RAD  2  14   2  15   2
M  END
