Coordinates from ORCA-job p-NO2-Ph-N2-OOCH-B3LYPG-aug-cc-pVDZ-scan-d09-49-n400
 OpenBabel10311713223D

 19 19  0  0  0  0  0  0  0  0999 V2000
   15.5192    9.2707   -2.6297 C   0  0  0  0  0  0  0  0  0  0  0  0
   14.3689    8.7380   -2.0600 C   0  0  0  0  0  0  0  0  0  0  0  0
   14.2672    7.3528   -1.7984 C   0  0  0  0  0  0  0  0  0  0  0  0
   15.3658    6.5049   -2.0788 C   0  0  0  0  0  0  0  0  0  0  0  0
   16.5288    7.0431   -2.6210 C   0  0  0  0  0  0  0  0  0  0  0  0
   16.5839    8.4099   -2.8983 C   0  0  0  0  0  0  0  0  0  0  0  0
   15.6077   10.3306   -2.8522 H   0  0  0  0  0  0  0  0  0  0  0  0
   13.5229    9.3775   -1.8132 H   0  0  0  0  0  0  0  0  0  0  0  0
   15.2984    5.4449   -1.8619 H   0  0  0  0  0  0  0  0  0  0  0  0
   17.3891    6.4154   -2.8391 H   0  0  0  0  0  0  0  0  0  0  0  0
   17.8221    8.9696   -3.4892 N   0  0  0  0  0  0  0  0  0  0  0  0
   17.8429   10.1739   -3.7231 O   0  0  0  0  0  0  0  0  0  0  0  0
   18.7468    8.1934   -3.7072 O   0  0  0  0  0  0  0  0  0  0  0  0
   13.1308    6.9626   -1.2493 N   0  0  0  0  0  0  0  0  0  0  0  0
   12.5000    5.9594   -1.1156 N   0  0  0  0  0  0  0  0  0  0  0  0
   12.9235    2.7330   -2.2511 H   0  0  0  0  0  0  0  0  0  0  0  0
   12.3766    3.6789   -2.0512 C   0  0  0  0  0  0  0  0  0  0  0  0
   11.1760    3.7785   -2.1018 O   0  0  0  0  0  0  0  0  0  0  0  0
   13.2656    4.6454   -1.7762 O   0  0  0  0  0  0  0  0  0  0  0  0
  1  2  1  0  0  0  0
  2  8  1  0  0  0  0
  2  3  2  0  0  0  0
  3 14  1  0  0  0  0
  4  9  1  0  0  0  0
  4  3  1  0  0  0  0
  5  4  2  0  0  0  0
  6  1  2  0  0  0  0
  6  5  1  0  0  0  0
  7  1  1  0  0  0  0
 10  5  1  0  0  0  0
 11  6  1  0  0  0  0
 12 11  2  0  0  0  0
 13 11  2  0  0  0  0
 14 15  1  0  0  0  0
 16 17  1  0  0  0  0
 17 19  1  0  0  0  0
 18 17  2  0  0  0  0
 19 15  1  0  0  0  0
M  RAD  2  14   2  15   2
M  END
