Coordinates from ORCA-job p-NO2-Ph-N2-OOCH-B3LYPG-aug-cc-pVDZ-scan-d09-49-n400
 OpenBabel10311713223D

 19 17  0  0  0  0  0  0  0  0999 V2000
   15.8632    9.2541   -2.3358 C   0  0  0  0  0  0  0  0  0  0  0  0
   14.6402    8.7027   -1.8990 C   0  0  0  0  0  0  0  0  0  0  0  0
   14.6311    7.3642   -2.2300 C   0  0  0  0  0  0  0  0  0  0  0  0
   15.4596    6.6161   -2.7995 C   0  0  0  0  0  0  0  0  0  0  0  0
   16.6882    7.0829   -3.2607 C   0  0  0  0  0  0  0  0  0  0  0  0
   16.8330    8.4622   -2.9872 C   0  0  0  0  0  0  0  0  0  0  0  0
   16.0745   10.3090   -2.1733 H   0  0  0  0  0  0  0  0  0  0  0  0
   13.8678    9.2755   -1.3939 H   0  0  0  0  0  0  0  0  0  0  0  0
   14.2718    4.4877   -2.6214 H   0  0  0  0  0  0  0  0  0  0  0  0
   17.4662    6.5162   -3.7638 H   0  0  0  0  0  0  0  0  0  0  0  0
   18.0906    9.1181   -3.4135 N   0  0  0  0  0  0  0  0  0  0  0  0
   18.2222   10.3167   -3.1816 O   0  0  0  0  0  0  0  0  0  0  0  0
   18.9280    8.4210   -3.9789 O   0  0  0  0  0  0  0  0  0  0  0  0
   11.1525    7.5646   -0.5519 N   0  0  0  0  0  0  0  0  0  0  0  0
   10.1393    7.1771   -0.3475 N   0  0  0  0  0  0  0  0  0  0  0  0
   12.6902    2.2534   -1.9194 H   0  0  0  0  0  0  0  0  0  0  0  0
   12.9172    3.3326   -1.9613 C   0  0  0  0  0  0  0  0  0  0  0  0
   12.2128    4.1999   -1.5046 O   0  0  0  0  0  0  0  0  0  0  0  0
   14.0878    3.5285   -2.5941 O   0  0  0  0  0  0  0  0  0  0  0  0
  1  7  1  0  0  0  0
  1  2  2  0  0  0  0
  2  8  1  0  0  0  0
  3  2  1  0  0  0  0
  4  3  2  0  0  0  0
  5  6  2  0  0  0  0
  5  4  1  0  0  0  0
  6  1  1  0  0  0  0
  9 19  1  0  0  0  0
 10  5  1  0  0  0  0
 11 12  2  0  0  0  0
 11  6  1  0  0  0  0
 13 11  2  0  0  0  0
 14 15  3  0  0  0  0
 17 16  1  0  0  0  0
 17 18  2  0  0  0  0
 19 17  1  0  0  0  0
M  RAD  2   3   2   4   2
M  END
