Coordinates from ORCA-job p-NO2-Ph-N2-OOCH-B3LYPG-aug-cc-pVDZ-scan-d09-49-n400
 OpenBabel10311713223D

 19 19  0  0  0  0  0  0  0  0999 V2000
   15.4564    8.9728   -2.9816 C   0  0  0  0  0  0  0  0  0  0  0  0
   14.3854    8.2134   -2.5848 C   0  0  0  0  0  0  0  0  0  0  0  0
   14.5635    6.8845   -1.9337 C   0  0  0  0  0  0  0  0  0  0  0  0
   15.9921    6.4874   -1.7819 C   0  0  0  0  0  0  0  0  0  0  0  0
   17.0158    7.2977   -2.2025 C   0  0  0  0  0  0  0  0  0  0  0  0
   16.7767    8.5400   -2.8038 C   0  0  0  0  0  0  0  0  0  0  0  0
   15.2737    9.9399   -3.4482 H   0  0  0  0  0  0  0  0  0  0  0  0
   13.3542    8.5343   -2.7142 H   0  0  0  0  0  0  0  0  0  0  0  0
   16.1595    5.5206   -1.3124 H   0  0  0  0  0  0  0  0  0  0  0  0
   18.0435    6.9644   -2.0642 H   0  0  0  0  0  0  0  0  0  0  0  0
   17.8764    9.3630   -3.2352 N   0  0  0  0  0  0  0  0  0  0  0  0
   17.6180   10.4518   -3.7615 O   0  0  0  0  0  0  0  0  0  0  0  0
   19.0250    8.9403   -3.0585 O   0  0  0  0  0  0  0  0  0  0  0  0
   13.8073    6.3198   -1.6341 N   0  0  0  0  0  0  0  0  0  0  0  0
   12.8886    5.6530   -1.2240 N   0  0  0  0  0  0  0  0  0  0  0  0
   11.2122    3.3137   -2.8860 H   0  0  0  0  0  0  0  0  0  0  0  0
   11.4338    3.9346   -1.9983 C   0  0  0  0  0  0  0  0  0  0  0  0
   10.8693    3.8978   -0.9470 O   0  0  0  0  0  0  0  0  0  0  0  0
   12.4848    4.7535   -2.3455 O   0  0  0  0  0  0  0  0  0  0  0  0
  1  6  2  0  0  0  0
  1  2  1  0  0  0  0
  2  3  2  0  0  0  0
  3  4  1  0  0  0  0
  3 14  1  0  0  0  0
  4  9  1  0  0  0  0
  5 10  1  0  0  0  0
  5  4  2  0  0  0  0
  6  5  1  0  0  0  0
  7  1  1  0  0  0  0
  8  2  1  0  0  0  0
 11 13  2  0  0  0  0
 11  6  1  0  0  0  0
 12 11  2  0  0  0  0
 14 15  1  0  0  0  0
 16 17  1  0  0  0  0
 17 18  2  0  0  0  0
 19 17  1  0  0  0  0
 19 15  1  0  0  0  0
M  RAD  2  14   2  15   2
M  END
