Coordinates from ORCA-job p-NO2-Ph-N2-OOCH-B3LYPG-aug-cc-pVDZ-scan-d09-49-n400
 OpenBabel10311713223D

 19 17  0  0  0  0  0  0  0  0999 V2000
   15.7943    9.3693   -2.2553 C   0  0  0  0  0  0  0  0  0  0  0  0
   14.5116    9.0849   -1.7453 C   0  0  0  0  0  0  0  0  0  0  0  0
   14.2516    7.7599   -1.9813 C   0  0  0  0  0  0  0  0  0  0  0  0
   14.8456    6.7783   -2.5117 C   0  0  0  0  0  0  0  0  0  0  0  0
   16.1284    7.0272   -3.0335 C   0  0  0  0  0  0  0  0  0  0  0  0
   16.5586    8.3599   -2.8744 C   0  0  0  0  0  0  0  0  0  0  0  0
   16.2064   10.3728   -2.1751 H   0  0  0  0  0  0  0  0  0  0  0  0
   13.8774    9.8200   -1.2586 H   0  0  0  0  0  0  0  0  0  0  0  0
   14.3045    4.7916   -2.6817 H   0  0  0  0  0  0  0  0  0  0  0  0
   16.7641    6.2913   -3.5194 H   0  0  0  0  0  0  0  0  0  0  0  0
   17.8979    8.7264   -3.3887 N   0  0  0  0  0  0  0  0  0  0  0  0
   18.2698    9.8885   -3.2477 O   0  0  0  0  0  0  0  0  0  0  0  0
   18.5584    7.8435   -3.9277 O   0  0  0  0  0  0  0  0  0  0  0  0
   12.0495    7.4947   -1.0813 N   0  0  0  0  0  0  0  0  0  0  0  0
   11.1457    6.8725   -0.9585 N   0  0  0  0  0  0  0  0  0  0  0  0
   13.1544    2.2666   -2.0895 H   0  0  0  0  0  0  0  0  0  0  0  0
   13.2155    3.3676   -2.0309 C   0  0  0  0  0  0  0  0  0  0  0  0
   12.4484    4.0588   -1.4029 O   0  0  0  0  0  0  0  0  0  0  0  0
   14.2540    3.8087   -2.7539 O   0  0  0  0  0  0  0  0  0  0  0  0
  1  7  1  0  0  0  0
  1  2  2  0  0  0  0
  2  8  1  0  0  0  0
  3  2  1  0  0  0  0
  4  3  2  0  0  0  0
  5  6  2  0  0  0  0
  5  4  1  0  0  0  0
  6  1  1  0  0  0  0
 10  5  1  0  0  0  0
 11 12  2  0  0  0  0
 11  6  1  0  0  0  0
 13 11  2  0  0  0  0
 14 15  3  0  0  0  0
 16 17  1  0  0  0  0
 17 18  2  0  0  0  0
 19  9  1  0  0  0  0
 19 17  1  0  0  0  0
M  RAD  2   3   2   4   2
M  END
