Coordinates from ORCA-job p-NO2-Ph-N2-OOCH-B3LYPG-aug-cc-pVDZ-scan-d09-49-n400
 OpenBabel10311713223D

 19 17  0  0  0  0  0  0  0  0999 V2000
   15.8481    9.3395   -2.3104 C   0  0  0  0  0  0  0  0  0  0  0  0
   14.5876    8.9327   -1.8231 C   0  0  0  0  0  0  0  0  0  0  0  0
   14.4506    7.5897   -2.0868 C   0  0  0  0  0  0  0  0  0  0  0  0
   15.1705    6.7172   -2.6326 C   0  0  0  0  0  0  0  0  0  0  0  0
   16.4293    7.0548   -3.1372 C   0  0  0  0  0  0  0  0  0  0  0  0
   16.7179    8.4233   -2.9386 C   0  0  0  0  0  0  0  0  0  0  0  0
   16.1649   10.3751   -2.2054 H   0  0  0  0  0  0  0  0  0  0  0  0
   13.8853    9.6002   -1.3330 H   0  0  0  0  0  0  0  0  0  0  0  0
   14.2825    4.6215   -2.6421 H   0  0  0  0  0  0  0  0  0  0  0  0
   17.1365    6.3915   -3.6273 H   0  0  0  0  0  0  0  0  0  0  0  0
   18.0226    8.9295   -3.4227 N   0  0  0  0  0  0  0  0  0  0  0  0
   18.2812   10.1169   -3.2454 O   0  0  0  0  0  0  0  0  0  0  0  0
   18.7766    8.1246   -3.9615 O   0  0  0  0  0  0  0  0  0  0  0  0
   11.5081    7.4913   -0.7685 N   0  0  0  0  0  0  0  0  0  0  0  0
   10.5378    6.9942   -0.5963 N   0  0  0  0  0  0  0  0  0  0  0  0
   12.9127    2.2224   -2.0328 H   0  0  0  0  0  0  0  0  0  0  0  0
   13.0512    3.3173   -2.0107 C   0  0  0  0  0  0  0  0  0  0  0  0
   12.3019    4.0918   -1.4670 O   0  0  0  0  0  0  0  0  0  0  0  0
   14.1708    3.6490   -2.6762 O   0  0  0  0  0  0  0  0  0  0  0  0
  1  7  1  0  0  0  0
  1  2  2  0  0  0  0
  2  8  1  0  0  0  0
  3  2  1  0  0  0  0
  4  3  2  0  0  0  0
  5  6  2  0  0  0  0
  5  4  1  0  0  0  0
  6  1  1  0  0  0  0
 10  5  1  0  0  0  0
 11 12  2  0  0  0  0
 11  6  1  0  0  0  0
 13 11  2  0  0  0  0
 14 15  3  0  0  0  0
 16 17  1  0  0  0  0
 17 18  2  0  0  0  0
 19  9  1  0  0  0  0
 19 17  1  0  0  0  0
M  RAD  2   3   2   4   2
M  END
