Coordinates from ORCA-job p-NO2-Ph-N2-OOCH-B3LYPG-aug-cc-pVDZ-scan-d09-49-n400
 OpenBabel10311713223D

 19 17  0  0  0  0  0  0  0  0999 V2000
   15.8615    9.2879   -2.3321 C   0  0  0  0  0  0  0  0  0  0  0  0
   14.6255    8.7830   -1.8747 C   0  0  0  0  0  0  0  0  0  0  0  0
   14.5794    7.4398   -2.1764 C   0  0  0  0  0  0  0  0  0  0  0  0
   15.3740    6.6476   -2.7356 C   0  0  0  0  0  0  0  0  0  0  0  0
   16.6128    7.0728   -3.2141 C   0  0  0  0  0  0  0  0  0  0  0  0
   16.8017    8.4526   -2.9723 C   0  0  0  0  0  0  0  0  0  0  0  0
   16.1055   10.3392   -2.1942 H   0  0  0  0  0  0  0  0  0  0  0  0
   13.8737    9.3884   -1.3771 H   0  0  0  0  0  0  0  0  0  0  0  0
   14.2718    4.5283   -2.6278 H   0  0  0  0  0  0  0  0  0  0  0  0
   17.3696    6.4728   -3.7110 H   0  0  0  0  0  0  0  0  0  0  0  0
   18.0748    9.0610   -3.4221 N   0  0  0  0  0  0  0  0  0  0  0  0
   18.2456   10.2591   -3.2143 O   0  0  0  0  0  0  0  0  0  0  0  0
   18.8872    8.3266   -3.9766 O   0  0  0  0  0  0  0  0  0  0  0  0
   11.2531    7.5277   -0.6119 N   0  0  0  0  0  0  0  0  0  0  0  0
   10.2527    7.1042   -0.4163 N   0  0  0  0  0  0  0  0  0  0  0  0
   12.7519    2.2395   -1.9629 H   0  0  0  0  0  0  0  0  0  0  0  0
   12.9524    3.3247   -1.9811 C   0  0  0  0  0  0  0  0  0  0  0  0
   12.2330    4.1630   -1.4946 O   0  0  0  0  0  0  0  0  0  0  0  0
   14.1099    3.5641   -2.6226 O   0  0  0  0  0  0  0  0  0  0  0  0
  1  7  1  0  0  0  0
  1  2  2  0  0  0  0
  2  8  1  0  0  0  0
  3  2  1  0  0  0  0
  4  3  2  0  0  0  0
  5  6  2  0  0  0  0
  5  4  1  0  0  0  0
  6  1  1  0  0  0  0
  9 19  1  0  0  0  0
 10  5  1  0  0  0  0
 11 12  2  0  0  0  0
 11  6  1  0  0  0  0
 13 11  2  0  0  0  0
 14 15  3  0  0  0  0
 17 16  1  0  0  0  0
 17 18  2  0  0  0  0
 19 17  1  0  0  0  0
M  RAD  2   3   2   4   2
M  END
