Coordinates from ORCA-job p-NO2-Ph-N2-OOCH-B3LYPG-aug-cc-pVDZ-scan-d09-49-n400
 OpenBabel10311713223D

 19 17  0  0  0  0  0  0  0  0999 V2000
   15.7841    9.3670   -2.2399 C   0  0  0  0  0  0  0  0  0  0  0  0
   14.5007    9.0890   -1.7337 C   0  0  0  0  0  0  0  0  0  0  0  0
   14.2224    7.7682   -1.9757 C   0  0  0  0  0  0  0  0  0  0  0  0
   14.8009    6.7746   -2.5114 C   0  0  0  0  0  0  0  0  0  0  0  0
   16.0877    7.0274   -3.0285 C   0  0  0  0  0  0  0  0  0  0  0  0
   16.5359    8.3518   -2.8643 C   0  0  0  0  0  0  0  0  0  0  0  0
   16.2057   10.3657   -2.1530 H   0  0  0  0  0  0  0  0  0  0  0  0
   13.8705    9.8246   -1.2419 H   0  0  0  0  0  0  0  0  0  0  0  0
   14.2885    4.8303   -2.6930 H   0  0  0  0  0  0  0  0  0  0  0  0
   16.7161    6.2876   -3.5186 H   0  0  0  0  0  0  0  0  0  0  0  0
   17.8796    8.7047   -3.3770 N   0  0  0  0  0  0  0  0  0  0  0  0
   18.2622    9.8634   -3.2351 O   0  0  0  0  0  0  0  0  0  0  0  0
   18.5273    7.8187   -3.9258 O   0  0  0  0  0  0  0  0  0  0  0  0
   12.1655    7.4726   -1.1574 N   0  0  0  0  0  0  0  0  0  0  0  0
   11.2777    6.8238   -1.0542 N   0  0  0  0  0  0  0  0  0  0  0  0
   13.1694    2.2942   -2.0730 H   0  0  0  0  0  0  0  0  0  0  0  0
   13.2277    3.3954   -2.0126 C   0  0  0  0  0  0  0  0  0  0  0  0
   12.4801    4.0781   -1.3509 O   0  0  0  0  0  0  0  0  0  0  0  0
   14.2341    3.8453   -2.7712 O   0  0  0  0  0  0  0  0  0  0  0  0
  1  7  1  0  0  0  0
  1  2  2  0  0  0  0
  2  8  1  0  0  0  0
  3  2  1  0  0  0  0
  4  3  2  0  0  0  0
  5  6  2  0  0  0  0
  5  4  1  0  0  0  0
  6  1  1  0  0  0  0
 10  5  1  0  0  0  0
 11 12  2  0  0  0  0
 11  6  1  0  0  0  0
 13 11  2  0  0  0  0
 14 15  3  0  0  0  0
 16 17  1  0  0  0  0
 17 18  2  0  0  0  0
 19  9  1  0  0  0  0
 19 17  1  0  0  0  0
M  RAD  2   3   2   4   2
M  END
