Coordinates from ORCA-job p-NO2-Ph-N2-OOCH-B3LYPG-aug-cc-pVDZ-scan-d09-49-n400
 OpenBabel10311713223D

 19 17  0  0  0  0  0  0  0  0999 V2000
   15.8631    9.2824   -2.3320 C   0  0  0  0  0  0  0  0  0  0  0  0
   14.6288    8.7697   -1.8785 C   0  0  0  0  0  0  0  0  0  0  0  0
   14.5902    7.4278   -2.1869 C   0  0  0  0  0  0  0  0  0  0  0  0
   15.3898    6.6417   -2.7473 C   0  0  0  0  0  0  0  0  0  0  0  0
   16.6270    7.0748   -3.2225 C   0  0  0  0  0  0  0  0  0  0  0  0
   16.8085    8.4545   -2.9744 C   0  0  0  0  0  0  0  0  0  0  0  0
   16.1019   10.3344   -2.1894 H   0  0  0  0  0  0  0  0  0  0  0  0
   13.8731    9.3690   -1.3795 H   0  0  0  0  0  0  0  0  0  0  0  0
   14.2718    4.5199   -2.6269 H   0  0  0  0  0  0  0  0  0  0  0  0
   17.3878    6.4808   -3.7205 H   0  0  0  0  0  0  0  0  0  0  0  0
   18.0793    9.0714   -3.4194 N   0  0  0  0  0  0  0  0  0  0  0  0
   18.2416   10.2705   -3.2106 O   0  0  0  0  0  0  0  0  0  0  0  0
   18.8943    8.3445   -3.9800 O   0  0  0  0  0  0  0  0  0  0  0  0
   11.2305    7.5351   -0.6003 N   0  0  0  0  0  0  0  0  0  0  0  0
   10.2275    7.1183   -0.4035 N   0  0  0  0  0  0  0  0  0  0  0  0
   12.7413    2.2400   -1.9553 H   0  0  0  0  0  0  0  0  0  0  0  0
   12.9458    3.3243   -1.9773 C   0  0  0  0  0  0  0  0  0  0  0  0
   12.2282    4.1669   -1.4957 O   0  0  0  0  0  0  0  0  0  0  0  0
   14.1056    3.5565   -2.6175 O   0  0  0  0  0  0  0  0  0  0  0  0
  1  7  1  0  0  0  0
  1  2  2  0  0  0  0
  2  8  1  0  0  0  0
  3  2  1  0  0  0  0
  4  3  2  0  0  0  0
  5  6  2  0  0  0  0
  5  4  1  0  0  0  0
  6  1  1  0  0  0  0
  9 19  1  0  0  0  0
 10  5  1  0  0  0  0
 11 12  2  0  0  0  0
 11  6  1  0  0  0  0
 13 11  2  0  0  0  0
 14 15  3  0  0  0  0
 17 16  1  0  0  0  0
 17 18  2  0  0  0  0
 19 17  1  0  0  0  0
M  RAD  2   3   2   4   2
M  END
