Coordinates from ORCA-job p-NO2-Ph-N2-OOCH-B3LYPG-aug-cc-pVDZ-scan-d09-49-n400
 OpenBabel10311713223D

 19 17  0  0  0  0  0  0  0  0999 V2000
   15.8354    9.3550   -2.2929 C   0  0  0  0  0  0  0  0  0  0  0  0
   14.5647    8.9945   -1.7954 C   0  0  0  0  0  0  0  0  0  0  0  0
   14.3833    7.6561   -2.0478 C   0  0  0  0  0  0  0  0  0  0  0  0
   15.0640    6.7489   -2.5880 C   0  0  0  0  0  0  0  0  0  0  0  0
   16.3312    7.0450   -3.1014 C   0  0  0  0  0  0  0  0  0  0  0  0
   16.6692    8.4040   -2.9173 C   0  0  0  0  0  0  0  0  0  0  0  0
   16.1874   10.3802   -2.1985 H   0  0  0  0  0  0  0  0  0  0  0  0
   13.8878    9.6891   -1.3073 H   0  0  0  0  0  0  0  0  0  0  0  0
   14.2873    4.6709   -2.6565 H   0  0  0  0  0  0  0  0  0  0  0  0
   17.0129    6.3538   -3.5893 H   0  0  0  0  0  0  0  0  0  0  0  0
   17.9877    8.8606   -3.4130 N   0  0  0  0  0  0  0  0  0  0  0  0
   18.2852   10.0415   -3.2541 O   0  0  0  0  0  0  0  0  0  0  0  0
   18.7072    8.0272   -3.9556 O   0  0  0  0  0  0  0  0  0  0  0  0
   11.6598    7.5008   -0.8604 N   0  0  0  0  0  0  0  0  0  0  0  0
   10.7062    6.9674   -0.7043 N   0  0  0  0  0  0  0  0  0  0  0  0
   13.0058    2.2185   -2.0595 H   0  0  0  0  0  0  0  0  0  0  0  0
   13.1098    3.3169   -2.0219 C   0  0  0  0  0  0  0  0  0  0  0  0
   12.3476    4.0572   -1.4492 O   0  0  0  0  0  0  0  0  0  0  0  0
   14.2033    3.6949   -2.7050 O   0  0  0  0  0  0  0  0  0  0  0  0
  1  7  1  0  0  0  0
  1  2  2  0  0  0  0
  2  8  1  0  0  0  0
  3  2  1  0  0  0  0
  4  3  2  0  0  0  0
  5  6  2  0  0  0  0
  5  4  1  0  0  0  0
  6  1  1  0  0  0  0
 10  5  1  0  0  0  0
 11 12  2  0  0  0  0
 11  6  1  0  0  0  0
 13 11  2  0  0  0  0
 14 15  3  0  0  0  0
 16 17  1  0  0  0  0
 17 18  2  0  0  0  0
 19  9  1  0  0  0  0
 19 17  1  0  0  0  0
M  RAD  2   3   2   4   2
M  END
