Coordinates from ORCA-job p-NO2-Ph-N2-OOCH-B3LYPG-aug-cc-pVDZ-scan-d09-49-n400
 OpenBabel10311713223D

 19 19  0  0  0  0  0  0  0  0999 V2000
   15.4046    8.9504   -2.9479 C   0  0  0  0  0  0  0  0  0  0  0  0
   14.3571    8.2663   -2.3621 C   0  0  0  0  0  0  0  0  0  0  0  0
   14.5854    7.0347   -1.6450 C   0  0  0  0  0  0  0  0  0  0  0  0
   15.9473    6.5629   -1.5687 C   0  0  0  0  0  0  0  0  0  0  0  0
   16.9761    7.2671   -2.1638 C   0  0  0  0  0  0  0  0  0  0  0  0
   16.7077    8.4553   -2.8489 C   0  0  0  0  0  0  0  0  0  0  0  0
   15.2211    9.8754   -3.4899 H   0  0  0  0  0  0  0  0  0  0  0  0
   13.3352    8.6353   -2.4264 H   0  0  0  0  0  0  0  0  0  0  0  0
   16.1350    5.6363   -1.0295 H   0  0  0  0  0  0  0  0  0  0  0  0
   17.9984    6.9006   -2.1042 H   0  0  0  0  0  0  0  0  0  0  0  0
   17.8075    9.1919   -3.4717 N   0  0  0  0  0  0  0  0  0  0  0  0
   17.5337   10.2345   -4.0652 O   0  0  0  0  0  0  0  0  0  0  0  0
   18.9414    8.7265   -3.3629 O   0  0  0  0  0  0  0  0  0  0  0  0
   13.7534    6.4861   -1.1552 N   0  0  0  0  0  0  0  0  0  0  0  0
   12.8658    5.7683   -0.9172 N   0  0  0  0  0  0  0  0  0  0  0  0
   11.5175    3.4173   -3.2713 H   0  0  0  0  0  0  0  0  0  0  0  0
   11.6213    3.9707   -2.3088 C   0  0  0  0  0  0  0  0  0  0  0  0
   10.9054    3.7682   -1.3550 O   0  0  0  0  0  0  0  0  0  0  0  0
   12.6221    4.8347   -2.4238 O   0  0  0  0  0  0  0  0  0  0  0  0
  1  6  2  0  0  0  0
  1  2  1  0  0  0  0
  2  3  2  0  0  0  0
  3  4  1  0  0  0  0
  3 14  1  0  0  0  0
  4  9  1  0  0  0  0
  5 10  1  0  0  0  0
  5  4  2  0  0  0  0
  6  5  1  0  0  0  0
  7  1  1  0  0  0  0
  8  2  1  0  0  0  0
 11 13  2  0  0  0  0
 11  6  1  0  0  0  0
 12 11  2  0  0  0  0
 14 15  1  0  0  0  0
 16 17  1  0  0  0  0
 17 18  2  0  0  0  0
 19 17  1  0  0  0  0
 19 15  1  0  0  0  0
M  RAD  2  14   2  15   2
M  END
