Coordinates from ORCA-job p-NO2-Ph-N2-OOCH-B3LYPG-aug-cc-pVDZ-scan-d09-49-n400
 OpenBabel10311713223D

 19 17  0  0  0  0  0  0  0  0999 V2000
   15.8612    9.2904   -2.3308 C   0  0  0  0  0  0  0  0  0  0  0  0
   14.6238    8.7902   -1.8722 C   0  0  0  0  0  0  0  0  0  0  0  0
   14.5740    7.4466   -2.1707 C   0  0  0  0  0  0  0  0  0  0  0  0
   15.3654    6.6505   -2.7290 C   0  0  0  0  0  0  0  0  0  0  0  0
   16.6054    7.0712   -3.2084 C   0  0  0  0  0  0  0  0  0  0  0  0
   16.7988    8.4508   -2.9694 C   0  0  0  0  0  0  0  0  0  0  0  0
   16.1083   10.3413   -2.1951 H   0  0  0  0  0  0  0  0  0  0  0  0
   13.8739    9.3990   -1.3758 H   0  0  0  0  0  0  0  0  0  0  0  0
   14.2722    4.5334   -2.6286 H   0  0  0  0  0  0  0  0  0  0  0  0
   17.3602    6.4678   -3.7044 H   0  0  0  0  0  0  0  0  0  0  0  0
   18.0737    9.0544   -3.4206 N   0  0  0  0  0  0  0  0  0  0  0  0
   18.2458   10.2536   -3.2202 O   0  0  0  0  0  0  0  0  0  0  0  0
   18.8813    8.3176   -3.9790 O   0  0  0  0  0  0  0  0  0  0  0  0
   11.2639    7.5249   -0.6184 N   0  0  0  0  0  0  0  0  0  0  0  0
   10.2647    7.0979   -0.4239 N   0  0  0  0  0  0  0  0  0  0  0  0
   12.7587    2.2391   -1.9676 H   0  0  0  0  0  0  0  0  0  0  0  0
   12.9565    3.3248   -1.9834 C   0  0  0  0  0  0  0  0  0  0  0  0
   12.2357    4.1602   -1.4941 O   0  0  0  0  0  0  0  0  0  0  0  0
   14.1126    3.5686   -2.6259 O   0  0  0  0  0  0  0  0  0  0  0  0
  1  7  1  0  0  0  0
  1  2  2  0  0  0  0
  2  8  1  0  0  0  0
  3  2  1  0  0  0  0
  4  3  2  0  0  0  0
  5  6  2  0  0  0  0
  5  4  1  0  0  0  0
  6  1  1  0  0  0  0
  9 19  1  0  0  0  0
 10  5  1  0  0  0  0
 11 12  2  0  0  0  0
 11  6  1  0  0  0  0
 13 11  2  0  0  0  0
 14 15  3  0  0  0  0
 17 16  1  0  0  0  0
 17 18  2  0  0  0  0
 19 17  1  0  0  0  0
M  RAD  2   3   2   4   2
M  END
