Coordinates from ORCA-job p-NO2-Ph-N2-OOCH-B3LYPG-aug-cc-pVDZ-scan-d09-49-n400
 OpenBabel10311713223D

 19 17  0  0  0  0  0  0  0  0999 V2000
   15.7817    9.3645   -2.2348 C   0  0  0  0  0  0  0  0  0  0  0  0
   14.4973    9.0877   -1.7328 C   0  0  0  0  0  0  0  0  0  0  0  0
   14.2109    7.7690   -1.9798 C   0  0  0  0  0  0  0  0  0  0  0  0
   14.7847    6.7709   -2.5195 C   0  0  0  0  0  0  0  0  0  0  0  0
   16.0737    7.0280   -3.0319 C   0  0  0  0  0  0  0  0  0  0  0  0
   16.5291    8.3487   -2.8624 C   0  0  0  0  0  0  0  0  0  0  0  0
   16.2069   10.3612   -2.1429 H   0  0  0  0  0  0  0  0  0  0  0  0
   13.8686    9.8233   -1.2388 H   0  0  0  0  0  0  0  0  0  0  0  0
   14.2761    4.8458   -2.7070 H   0  0  0  0  0  0  0  0  0  0  0  0
   16.7004    6.2881   -3.5245 H   0  0  0  0  0  0  0  0  0  0  0  0
   17.8751    8.6976   -3.3722 N   0  0  0  0  0  0  0  0  0  0  0  0
   18.2654    9.8524   -3.2192 O   0  0  0  0  0  0  0  0  0  0  0  0
   18.5218    7.8097   -3.9190 O   0  0  0  0  0  0  0  0  0  0  0  0
   12.1890    7.4731   -1.1832 N   0  0  0  0  0  0  0  0  0  0  0  0
   11.2994    6.8261   -1.0811 N   0  0  0  0  0  0  0  0  0  0  0  0
   13.1812    2.3004   -2.0704 H   0  0  0  0  0  0  0  0  0  0  0  0
   13.2399    3.4012   -2.0025 C   0  0  0  0  0  0  0  0  0  0  0  0
   12.5194    4.0749   -1.3019 O   0  0  0  0  0  0  0  0  0  0  0  0
   14.2156    3.8599   -2.7935 O   0  0  0  0  0  0  0  0  0  0  0  0
  1  7  1  0  0  0  0
  1  2  2  0  0  0  0
  2  8  1  0  0  0  0
  3  2  1  0  0  0  0
  4  3  2  0  0  0  0
  5  6  2  0  0  0  0
  5  4  1  0  0  0  0
  6  1  1  0  0  0  0
 10  5  1  0  0  0  0
 11 12  2  0  0  0  0
 11  6  1  0  0  0  0
 13 11  2  0  0  0  0
 14 15  3  0  0  0  0
 16 17  1  0  0  0  0
 17 18  2  0  0  0  0
 19  9  1  0  0  0  0
 19 17  1  0  0  0  0
M  RAD  2   3   2   4   2
M  END
