Coordinates from ORCA-job p-NO2-Ph-N2-OOCH-B3LYPG-aug-cc-pVDZ-scan-d09-49-n400
 OpenBabel10311713233D

 19 17  0  0  0  0  0  0  0  0999 V2000
   15.7184    8.8768   -2.3560 C   0  0  0  0  0  0  0  0  0  0  0  0
   14.6752    7.9786   -2.0528 C   0  0  0  0  0  0  0  0  0  0  0  0
   15.0196    6.7160   -2.5066 C   0  0  0  0  0  0  0  0  0  0  0  0
   16.0487    6.3244   -3.1019 C   0  0  0  0  0  0  0  0  0  0  0  0
   17.1293    7.1218   -3.4465 C   0  0  0  0  0  0  0  0  0  0  0  0
   16.8871    8.4500   -3.0237 C   0  0  0  0  0  0  0  0  0  0  0  0
   15.6345    9.9249   -2.0762 H   0  0  0  0  0  0  0  0  0  0  0  0
   13.7615    8.2731   -1.5440 H   0  0  0  0  0  0  0  0  0  0  0  0
   14.2803    4.2795   -2.6288 H   0  0  0  0  0  0  0  0  0  0  0  0
   18.0435    6.8382   -3.9590 H   0  0  0  0  0  0  0  0  0  0  0  0
   17.9357    9.4573   -3.3055 N   0  0  0  0  0  0  0  0  0  0  0  0
   17.7387   10.6121   -2.9381 O   0  0  0  0  0  0  0  0  0  0  0  0
   18.9478    9.0730   -3.8848 O   0  0  0  0  0  0  0  0  0  0  0  0
   11.2293    7.8881   -0.5158 N   0  0  0  0  0  0  0  0  0  0  0  0
   10.2490    7.5297   -0.1570 N   0  0  0  0  0  0  0  0  0  0  0  0
   12.1358    2.7445   -1.6298 H   0  0  0  0  0  0  0  0  0  0  0  0
   12.6799    3.6845   -1.8228 C   0  0  0  0  0  0  0  0  0  0  0  0
   12.2897    4.7821   -1.5029 O   0  0  0  0  0  0  0  0  0  0  0  0
   13.8322    3.4278   -2.4649 O   0  0  0  0  0  0  0  0  0  0  0  0
  1  7  1  0  0  0  0
  1  2  1  0  0  0  0
  2  8  1  0  0  0  0
  3  2  2  0  0  0  0
  4  3  1  0  0  0  0
  5  4  2  0  0  0  0
  5  6  1  0  0  0  0
  6  1  2  0  0  0  0
  9 19  1  0  0  0  0
 10  5  1  0  0  0  0
 11  6  1  0  0  0  0
 11 12  2  0  0  0  0
 13 11  2  0  0  0  0
 14 15  3  0  0  0  0
 17 16  1  0  0  0  0
 17 18  2  0  0  0  0
 19 17  1  0  0  0  0
M  RAD  2   3   2   4   2
M  END
