Coordinates from ORCA-job p-NO2-Ph-N2-OOCH-B3LYPG-aug-cc-pVDZ-scan-d09-49-n400
 OpenBabel10311713223D

 19 19  0  0  0  0  0  0  0  0999 V2000
   15.4366    9.1497   -2.7578 C   0  0  0  0  0  0  0  0  0  0  0  0
   14.3283    8.6381   -2.0873 C   0  0  0  0  0  0  0  0  0  0  0  0
   14.3508    7.3189   -1.6139 C   0  0  0  0  0  0  0  0  0  0  0  0
   15.4971    6.5210   -1.7501 C   0  0  0  0  0  0  0  0  0  0  0  0
   16.6180    7.0423   -2.3901 C   0  0  0  0  0  0  0  0  0  0  0  0
   16.5666    8.3430   -2.8957 C   0  0  0  0  0  0  0  0  0  0  0  0
   15.4422   10.1613   -3.1551 H   0  0  0  0  0  0  0  0  0  0  0  0
   13.4408    9.2492   -1.9310 H   0  0  0  0  0  0  0  0  0  0  0  0
   15.5105    5.5087   -1.3547 H   0  0  0  0  0  0  0  0  0  0  0  0
   17.5240    6.4537   -2.5097 H   0  0  0  0  0  0  0  0  0  0  0  0
   17.7525    8.8868   -3.5887 N   0  0  0  0  0  0  0  0  0  0  0  0
   17.6813   10.0327   -4.0239 O   0  0  0  0  0  0  0  0  0  0  0  0
   18.7368    8.1593   -3.6880 O   0  0  0  0  0  0  0  0  0  0  0  0
   13.2150    6.8948   -0.8722 N   0  0  0  0  0  0  0  0  0  0  0  0
   12.5694    5.8808   -0.9891 N   0  0  0  0  0  0  0  0  0  0  0  0
   12.7282    3.3549   -3.2076 H   0  0  0  0  0  0  0  0  0  0  0  0
   12.3359    3.8795   -2.3139 C   0  0  0  0  0  0  0  0  0  0  0  0
   11.4334    3.4898   -1.6284 O   0  0  0  0  0  0  0  0  0  0  0  0
   13.0690    5.0180   -2.1602 O   0  0  0  0  0  0  0  0  0  0  0  0
  1  2  1  0  0  0  0
  2  8  1  0  0  0  0
  2  3  2  0  0  0  0
  3 14  1  0  0  0  0
  4  3  1  0  0  0  0
  4  9  1  0  0  0  0
  5  4  2  0  0  0  0
  6  1  2  0  0  0  0
  6  5  1  0  0  0  0
  7  1  1  0  0  0  0
 10  5  1  0  0  0  0
 11  6  1  0  0  0  0
 12 11  2  0  0  0  0
 13 11  2  0  0  0  0
 15 14  1  0  0  0  0
 16 17  1  0  0  0  0
 17 19  1  0  0  0  0
 17 18  2  0  0  0  0
 19 15  1  0  0  0  0
M  RAD  2  14   2  15   2
M  END
