Coordinates from ORCA-job p-NO2-Ph-N2-OOCH-B3LYPG-aug-cc-pVDZ-scan-d09-49-n400
 OpenBabel10311713233D

 19 17  0  0  0  0  0  0  0  0999 V2000
   15.7542    8.9935   -2.3407 C   0  0  0  0  0  0  0  0  0  0  0  0
   14.6525    8.1805   -2.0043 C   0  0  0  0  0  0  0  0  0  0  0  0
   14.8994    6.8894   -2.4369 C   0  0  0  0  0  0  0  0  0  0  0  0
   15.8856    6.4040   -3.0362 C   0  0  0  0  0  0  0  0  0  0  0  0
   17.0153    7.1169   -3.4108 C   0  0  0  0  0  0  0  0  0  0  0  0
   16.8779    8.4678   -3.0145 C   0  0  0  0  0  0  0  0  0  0  0  0
   15.7513   10.0504   -2.0824 H   0  0  0  0  0  0  0  0  0  0  0  0
   13.7707    8.5499   -1.4889 H   0  0  0  0  0  0  0  0  0  0  0  0
   14.2464    4.3283   -2.6168 H   0  0  0  0  0  0  0  0  0  0  0  0
   17.8992    6.7568   -3.9285 H   0  0  0  0  0  0  0  0  0  0  0  0
   17.9932    9.3893   -3.3318 N   0  0  0  0  0  0  0  0  0  0  0  0
   17.8845   10.5639   -2.9913 O   0  0  0  0  0  0  0  0  0  0  0  0
   18.9639    8.9207   -3.9196 O   0  0  0  0  0  0  0  0  0  0  0  0
   11.2908    7.7710   -0.5908 N   0  0  0  0  0  0  0  0  0  0  0  0
   10.3037    7.4176   -0.2460 N   0  0  0  0  0  0  0  0  0  0  0  0
   12.2490    2.5726   -1.6768 H   0  0  0  0  0  0  0  0  0  0  0  0
   12.7046    3.5644   -1.8373 C   0  0  0  0  0  0  0  0  0  0  0  0
   12.2187    4.6103   -1.4786 O   0  0  0  0  0  0  0  0  0  0  0  0
   13.8752    3.4351   -2.4852 O   0  0  0  0  0  0  0  0  0  0  0  0
  1  7  1  0  0  0  0
  1  2  1  0  0  0  0
  2  8  1  0  0  0  0
  3  2  2  0  0  0  0
  4  3  1  0  0  0  0
  5  4  2  0  0  0  0
  5  6  1  0  0  0  0
  6  1  2  0  0  0  0
  9 19  1  0  0  0  0
 10  5  1  0  0  0  0
 11  6  1  0  0  0  0
 11 12  2  0  0  0  0
 13 11  2  0  0  0  0
 14 15  3  0  0  0  0
 17 16  1  0  0  0  0
 17 18  2  0  0  0  0
 19 17  1  0  0  0  0
M  RAD  2   3   2   4   2
M  END
