Coordinates from ORCA-job p-NO2-Ph-N2-OOCH-B3LYPG-aug-cc-pVDZ-scan-d09-49-n400
 OpenBabel10311713233D

 19 17  0  0  0  0  0  0  0  0999 V2000
   15.6868    8.7844   -2.3702 C   0  0  0  0  0  0  0  0  0  0  0  0
   14.6921    7.8254   -2.0913 C   0  0  0  0  0  0  0  0  0  0  0  0
   15.1109    6.5887   -2.5559 C   0  0  0  0  0  0  0  0  0  0  0  0
   16.1686    6.2668   -3.1425 C   0  0  0  0  0  0  0  0  0  0  0  0
   17.2079    7.1256   -3.4640 C   0  0  0  0  0  0  0  0  0  0  0  0
   16.8858    8.4326   -3.0280 C   0  0  0  0  0  0  0  0  0  0  0  0
   15.5411    9.8224   -2.0787 H   0  0  0  0  0  0  0  0  0  0  0  0
   13.7575    8.0621   -1.5901 H   0  0  0  0  0  0  0  0  0  0  0  0
   14.3169    4.2350   -2.6284 H   0  0  0  0  0  0  0  0  0  0  0  0
   18.1425    6.9002   -3.9682 H   0  0  0  0  0  0  0  0  0  0  0  0
   17.8795    9.5005   -3.2842 N   0  0  0  0  0  0  0  0  0  0  0  0
   17.6150   10.6371   -2.9029 O   0  0  0  0  0  0  0  0  0  0  0  0
   18.9199    9.1803   -3.8526 O   0  0  0  0  0  0  0  0  0  0  0  0
   11.2019    7.9766   -0.4558 N   0  0  0  0  0  0  0  0  0  0  0  0
   10.2208    7.6413   -0.0773 N   0  0  0  0  0  0  0  0  0  0  0  0
   12.0595    2.8876   -1.6080 H   0  0  0  0  0  0  0  0  0  0  0  0
   12.6690    3.7806   -1.8274 C   0  0  0  0  0  0  0  0  0  0  0  0
   12.3521    4.9129   -1.5495 O   0  0  0  0  0  0  0  0  0  0  0  0
   13.8084    3.4222   -2.4423 O   0  0  0  0  0  0  0  0  0  0  0  0
  1  2  1  0  0  0  0
  1  7  1  0  0  0  0
  2  8  1  0  0  0  0
  3  2  2  0  0  0  0
  4  3  1  0  0  0  0
  5  4  2  0  0  0  0
  5  6  1  0  0  0  0
  6  1  2  0  0  0  0
  9 19  1  0  0  0  0
 10  5  1  0  0  0  0
 11  6  1  0  0  0  0
 11 12  2  0  0  0  0
 13 11  2  0  0  0  0
 14 15  3  0  0  0  0
 17 16  1  0  0  0  0
 17 18  2  0  0  0  0
 19 17  1  0  0  0  0
M  RAD  2   3   2   4   2
M  END
