Coordinates from ORCA-job p-NO2-Ph-N2-OOCH-B3LYPG-aug-cc-pVDZ-scan-d09-49-n400
 OpenBabel10311713223D

 19 19  0  0  0  0  0  0  0  0999 V2000
   15.4571    8.9704   -2.9839 C   0  0  0  0  0  0  0  0  0  0  0  0
   14.3818    8.2156   -2.6075 C   0  0  0  0  0  0  0  0  0  0  0  0
   14.5394    6.8578   -1.9533 C   0  0  0  0  0  0  0  0  0  0  0  0
   15.9977    6.4755   -1.7984 C   0  0  0  0  0  0  0  0  0  0  0  0
   17.0116    7.2962   -2.2055 C   0  0  0  0  0  0  0  0  0  0  0  0
   16.7799    8.5439   -2.8010 C   0  0  0  0  0  0  0  0  0  0  0  0
   15.2742    9.9418   -3.4434 H   0  0  0  0  0  0  0  0  0  0  0  0
   13.3461    8.5210   -2.7355 H   0  0  0  0  0  0  0  0  0  0  0  0
   16.1467    5.5043   -1.3326 H   0  0  0  0  0  0  0  0  0  0  0  0
   18.0393    6.9638   -2.0587 H   0  0  0  0  0  0  0  0  0  0  0  0
   17.8760    9.3691   -3.2152 N   0  0  0  0  0  0  0  0  0  0  0  0
   17.6208   10.4631   -3.7361 O   0  0  0  0  0  0  0  0  0  0  0  0
   19.0265    8.9491   -3.0321 O   0  0  0  0  0  0  0  0  0  0  0  0
   13.8206    6.3161   -1.6818 N   0  0  0  0  0  0  0  0  0  0  0  0
   12.8935    5.6474   -1.2513 N   0  0  0  0  0  0  0  0  0  0  0  0
   11.2145    3.3190   -2.8562 H   0  0  0  0  0  0  0  0  0  0  0  0
   11.4364    3.9440   -1.9732 C   0  0  0  0  0  0  0  0  0  0  0  0
   10.8818    3.9211   -0.9186 O   0  0  0  0  0  0  0  0  0  0  0  0
   12.4923    4.7632   -2.3330 O   0  0  0  0  0  0  0  0  0  0  0  0
  1  6  2  0  0  0  0
  1  2  1  0  0  0  0
  2  3  2  0  0  0  0
  3  4  1  0  0  0  0
  3 14  1  0  0  0  0
  4  9  1  0  0  0  0
  5 10  1  0  0  0  0
  5  4  2  0  0  0  0
  6  5  1  0  0  0  0
  7  1  1  0  0  0  0
  8  2  1  0  0  0  0
 11 13  2  0  0  0  0
 11  6  1  0  0  0  0
 12 11  2  0  0  0  0
 14 15  1  0  0  0  0
 16 17  1  0  0  0  0
 17 18  2  0  0  0  0
 19 17  1  0  0  0  0
 19 15  1  0  0  0  0
M  RAD  2  14   2  15   2
M  END
