Coordinates from ORCA-job p-NO2-Ph-N2-OOCH-B3LYPG-aug-cc-pVDZ-scan-d09-49-n400
 OpenBabel10311713223D

 19 17  0  0  0  0  0  0  0  0999 V2000
   15.8188    9.3647   -2.2765 C   0  0  0  0  0  0  0  0  0  0  0  0
   14.5412    9.0447   -1.7703 C   0  0  0  0  0  0  0  0  0  0  0  0
   14.3215    7.7119   -2.0129 C   0  0  0  0  0  0  0  0  0  0  0  0
   14.9609    6.7691   -2.5476 C   0  0  0  0  0  0  0  0  0  0  0  0
   16.2353    7.0355   -3.0679 C   0  0  0  0  0  0  0  0  0  0  0  0
   16.6184    8.3834   -2.8977 C   0  0  0  0  0  0  0  0  0  0  0  0
   16.2015   10.3796   -2.1914 H   0  0  0  0  0  0  0  0  0  0  0  0
   13.8863    9.7611   -1.2837 H   0  0  0  0  0  0  0  0  0  0  0  0
   14.3030    4.7200   -2.6687 H   0  0  0  0  0  0  0  0  0  0  0  0
   16.8938    6.3208   -3.5544 H   0  0  0  0  0  0  0  0  0  0  0  0
   17.9475    8.7948   -3.4043 N   0  0  0  0  0  0  0  0  0  0  0  0
   18.2824    9.9670   -3.2558 O   0  0  0  0  0  0  0  0  0  0  0  0
   18.6376    7.9355   -3.9445 O   0  0  0  0  0  0  0  0  0  0  0  0
   11.8207    7.5038   -0.9519 N   0  0  0  0  0  0  0  0  0  0  0  0
   10.8869    6.9321   -0.8120 N   0  0  0  0  0  0  0  0  0  0  0  0
   13.0823    2.2331   -2.0787 H   0  0  0  0  0  0  0  0  0  0  0  0
   13.1645    3.3330   -2.0320 C   0  0  0  0  0  0  0  0  0  0  0  0
   12.3956    4.0511   -1.4394 O   0  0  0  0  0  0  0  0  0  0  0  0
   14.2378    3.7412   -2.7276 O   0  0  0  0  0  0  0  0  0  0  0  0
  1  7  1  0  0  0  0
  1  2  2  0  0  0  0
  2  8  1  0  0  0  0
  3  2  1  0  0  0  0
  4  3  2  0  0  0  0
  5  6  2  0  0  0  0
  5  4  1  0  0  0  0
  6  1  1  0  0  0  0
 10  5  1  0  0  0  0
 11 12  2  0  0  0  0
 11  6  1  0  0  0  0
 13 11  2  0  0  0  0
 14 15  3  0  0  0  0
 16 17  1  0  0  0  0
 17 18  2  0  0  0  0
 19  9  1  0  0  0  0
 19 17  1  0  0  0  0
M  RAD  2   3   2   4   2
M  END
