Coordinates from ORCA-job p-NO2-Ph-N2-OOCH-B3LYPG-aug-cc-pVDZ-scan-d09-49-n400
 OpenBabel10311713223D

 19 17  0  0  0  0  0  0  0  0999 V2000
   15.8433    9.3437   -2.3046 C   0  0  0  0  0  0  0  0  0  0  0  0
   14.5795    8.9500   -1.8148 C   0  0  0  0  0  0  0  0  0  0  0  0
   14.4305    7.6085   -2.0761 C   0  0  0  0  0  0  0  0  0  0  0  0
   15.1391    6.7265   -2.6200 C   0  0  0  0  0  0  0  0  0  0  0  0
   16.4005    7.0517   -3.1267 C   0  0  0  0  0  0  0  0  0  0  0  0
   16.7033    8.4177   -2.9317 C   0  0  0  0  0  0  0  0  0  0  0  0
   16.1701   10.3765   -2.2021 H   0  0  0  0  0  0  0  0  0  0  0  0
   13.8845    9.6255   -1.3253 H   0  0  0  0  0  0  0  0  0  0  0  0
   14.2813    4.6362   -2.6482 H   0  0  0  0  0  0  0  0  0  0  0  0
   17.1005    6.3803   -3.6162 H   0  0  0  0  0  0  0  0  0  0  0  0
   18.0123    8.9099   -3.4185 N   0  0  0  0  0  0  0  0  0  0  0  0
   18.2814   10.0958   -3.2473 O   0  0  0  0  0  0  0  0  0  0  0  0
   18.7561    8.0971   -3.9596 O   0  0  0  0  0  0  0  0  0  0  0  0
   11.5583    7.4989   -0.7982 N   0  0  0  0  0  0  0  0  0  0  0  0
   10.5924    6.9919   -0.6298 N   0  0  0  0  0  0  0  0  0  0  0  0
   12.9420    2.2183   -2.0407 H   0  0  0  0  0  0  0  0  0  0  0  0
   13.0682    3.3146   -2.0131 C   0  0  0  0  0  0  0  0  0  0  0  0
   12.3147    4.0768   -1.4578 O   0  0  0  0  0  0  0  0  0  0  0  0
   14.1780    3.6625   -2.6867 O   0  0  0  0  0  0  0  0  0  0  0  0
  1  7  1  0  0  0  0
  1  2  2  0  0  0  0
  2  8  1  0  0  0  0
  3  2  1  0  0  0  0
  4  3  2  0  0  0  0
  5  6  2  0  0  0  0
  5  4  1  0  0  0  0
  6  1  1  0  0  0  0
 10  5  1  0  0  0  0
 11 12  2  0  0  0  0
 11  6  1  0  0  0  0
 13 11  2  0  0  0  0
 14 15  3  0  0  0  0
 16 17  1  0  0  0  0
 17 18  2  0  0  0  0
 19  9  1  0  0  0  0
 19 17  1  0  0  0  0
M  RAD  2   3   2   4   2
M  END
