Coordinates from ORCA-job Ph-N2-HSO4-B3LYPG-aug-cc-pVDZ-scan-d09-49-n400
 OpenBabel11081710403D

 19 19  0  0  1  0  0  0  0  0999 V2000
   -0.3976    0.0124   -0.7246 C   0  0  0  0  0  0  0  0  0  0  0  0
    0.5219    0.8852   -1.1782 C   0  0  0  0  0  0  0  0  0  0  0  0
    1.6702    1.3334   -0.3329 C   0  0  0  0  0  0  0  0  0  0  0  0
    1.8693    0.5720    1.0233 C   0  0  1  0  0  0  0  0  0  0  0  0
    0.7198   -0.2823    1.4359 C   0  0  0  0  0  0  0  0  0  0  0  0
   -0.3150   -0.5474    0.6172 C   0  0  0  0  0  0  0  0  0  0  0  0
   -1.2256   -0.2796   -1.3702 H   0  0  0  0  0  0  0  0  0  0  0  0
    0.4826    1.3192   -2.1775 H   0  0  0  0  0  0  0  0  0  0  0  0
    2.3059    2.0216   -0.5849 N   0  0  0  0  0  0  0  0  0  0  0  0
    3.0945    2.8456   -0.8700 N   0  0  0  0  0  0  0  0  0  0  0  0
   -1.1211   -1.1968    0.9598 H   0  0  0  0  0  0  0  0  0  0  0  0
    0.7810   -0.7041    2.4389 H   0  0  0  0  0  0  0  0  0  0  0  0
    2.1319    1.3113    1.7899 H   0  0  0  0  0  0  0  0  0  0  0  0
    4.2589   -0.2273    1.9401 S   0  0  0  0  0  0  0  0  0  0  0  0
    3.6698   -0.2188    3.2838 O   0  0  0  0  0  0  0  0  0  0  0  0
    5.2565   -1.2000    1.4850 O   0  0  0  0  0  0  0  0  0  0  0  0
    3.0645   -0.2838    0.8029 O   0  0  0  0  0  0  0  0  0  0  0  0
    4.8377    1.3030    1.7383 O   0  0  0  0  0  0  0  0  0  0  0  0
    5.3565    1.3279    0.9147 H   0  0  0  0  0  0  0  0  0  0  0  0
  1  6  1  0  0  0  0
  2  1  1  0  0  0  0
  2  3  2  0  0  0  0
  3  4  1  0  0  0  0
  4  5  1  0  0  0  0
  4 13  1  1  0  0  0
  5 12  1  0  0  0  0
  6 11  1  0  0  0  0
  6  5  2  0  0  0  0
  7  1  1  0  0  0  0
  8  2  1  0  0  0  0
  9  3  1  0  0  0  0
 10  9  1  0  0  0  0
 14 15  2  0  0  0  0
 16 14  2  0  0  0  0
 17  4  1  0  0  0  0
 17 14  1  0  0  0  0
 18 14  1  0  0  0  0
 19 18  1  0  0  0  0
M  RAD  3   1   2   9   2  10   3
M  END
