Coordinates from ORCA-job Ph-N2-HSO4-B3LYPG-aug-cc-pVDZ-scan-d09-49-n400
 OpenBabel11081710403D

 19 17  0  0  0  0  0  0  0  0999 V2000
   -1.1153    0.2885   -0.5441 C   0  0  0  0  0  0  0  0  0  0  0  0
    0.0215    0.8260   -1.1998 C   0  0  0  0  0  0  0  0  0  0  0  0
    1.0808    0.6617   -0.3531 C   0  0  0  0  0  0  0  0  0  0  0  0
    1.3193    0.1798    0.7943 C   0  0  0  0  0  0  0  0  0  0  0  0
    0.1796   -0.3557    1.4501 C   0  0  0  0  0  0  0  0  0  0  0  0
   -1.0325   -0.2823    0.7392 C   0  0  0  0  0  0  0  0  0  0  0  0
   -2.0739    0.3268   -1.0642 H   0  0  0  0  0  0  0  0  0  0  0  0
    0.0010    1.2733   -2.1883 H   0  0  0  0  0  0  0  0  0  0  0  0
    2.9525    1.7619   -1.7363 N   0  0  0  0  0  0  0  0  0  0  0  0
    3.9349    2.2517   -1.8517 N   0  0  0  0  0  0  0  0  0  0  0  0
   -1.9390   -0.6831    1.1956 H   0  0  0  0  0  0  0  0  0  0  0  0
    0.2273   -0.8053    2.4420 H   0  0  0  0  0  0  0  0  0  0  0  0
    2.8989   -0.0447    1.7510 H   0  0  0  0  0  0  0  0  0  0  0  0
    5.0771    0.0527    1.7270 S   0  0  0  0  0  0  0  0  0  0  0  0
    3.6361   -0.2744    2.3950 O   0  0  0  0  0  0  0  0  0  0  0  0
    6.0784   -0.5851    2.5924 O   0  0  0  0  0  0  0  0  0  0  0  0
    5.0167   -0.1365    0.2725 O   0  0  0  0  0  0  0  0  0  0  0  0
    5.1885    1.6922    1.9326 O   0  0  0  0  0  0  0  0  0  0  0  0
    5.5098    1.8439    2.8373 H   0  0  0  0  0  0  0  0  0  0  0  0
  1  6  1  0  0  0  0
  2  1  2  0  0  0  0
  2  3  1  0  0  0  0
  3  4  2  0  0  0  0
  4  5  1  0  0  0  0
  5 12  1  0  0  0  0
  6 11  1  0  0  0  0
  6  5  2  0  0  0  0
  7  1  1  0  0  0  0
  8  2  1  0  0  0  0
 10  9  3  0  0  0  0
 13 15  1  0  0  0  0
 14 18  1  0  0  0  0
 14 15  1  0  0  0  0
 14 16  2  0  0  0  0
 17 14  2  0  0  0  0
 18 19  1  0  0  0  0
M  RAD  2   3   2   4   2
M  END
