Coordinates from ORCA-job Ph-N2-HSO4-B3LYPG-aug-cc-pVDZ-scan-d09-49-n400
 OpenBabel11081710403D

 19 19  0  0  1  0  0  0  0  0999 V2000
   -0.3670   -0.0997   -0.7328 C   0  0  0  0  0  0  0  0  0  0  0  0
    0.4924    0.8468   -1.1881 C   0  0  0  0  0  0  0  0  0  0  0  0
    1.5357    1.3436   -0.3137 C   0  0  0  0  0  0  0  0  0  0  0  0
    1.8491    0.6769    0.9942 C   0  0  1  0  0  0  0  0  0  0  0  0
    0.7399   -0.2020    1.4573 C   0  0  0  0  0  0  0  0  0  0  0  0
   -0.2594   -0.5847    0.6297 C   0  0  0  0  0  0  0  0  0  0  0  0
   -1.1579   -0.4771   -1.3788 H   0  0  0  0  0  0  0  0  0  0  0  0
    0.4183    1.2616   -2.1928 H   0  0  0  0  0  0  0  0  0  0  0  0
    2.2515    2.3223   -0.6599 N   0  0  0  0  0  0  0  0  0  0  0  0
    2.9105    3.2056   -0.9610 N   0  0  0  0  0  0  0  0  0  0  0  0
   -1.0256   -1.2674    0.9995 H   0  0  0  0  0  0  0  0  0  0  0  0
    0.8029   -0.5613    2.4828 H   0  0  0  0  0  0  0  0  0  0  0  0
    2.1682    1.3954    1.7555 H   0  0  0  0  0  0  0  0  0  0  0  0
    4.2023   -0.2999    1.9213 S   0  0  0  0  0  0  0  0  0  0  0  0
    3.5497   -0.2552    3.2368 O   0  0  0  0  0  0  0  0  0  0  0  0
    5.1471   -1.3483    1.5134 O   0  0  0  0  0  0  0  0  0  0  0  0
    3.0895   -0.2059    0.7330 O   0  0  0  0  0  0  0  0  0  0  0  0
    4.9643    1.1682    1.7888 O   0  0  0  0  0  0  0  0  0  0  0  0
    5.6502    1.0725    1.1064 H   0  0  0  0  0  0  0  0  0  0  0  0
  1  6  1  0  0  0  0
  2  1  1  0  0  0  0
  2  3  2  0  0  0  0
  3  4  1  0  0  0  0
  4  5  1  0  0  0  0
  4 13  1  1  0  0  0
  5 12  1  0  0  0  0
  6 11  1  0  0  0  0
  6  5  2  0  0  0  0
  7  1  1  0  0  0  0
  8  2  1  0  0  0  0
  9  3  1  0  0  0  0
 10  9  1  0  0  0  0
 14 15  2  0  0  0  0
 16 14  2  0  0  0  0
 17  4  1  0  0  0  0
 17 14  1  0  0  0  0
 18 14  1  0  0  0  0
 19 18  1  0  0  0  0
M  RAD  3   1   2   9   2  10   3
M  END
