Coordinates from ORCA-job Ph-N2-HSO4-B3LYPG-aug-cc-pVDZ-scan-d09-49-n400
 OpenBabel11081710403D

 19 19  0  0  1  0  0  0  0  0999 V2000
   -0.3709   -0.0514   -0.7267 C   0  0  0  0  0  0  0  0  0  0  0  0
    0.5134    0.8565   -1.1913 C   0  0  0  0  0  0  0  0  0  0  0  0
    1.6085    1.3621   -0.3363 C   0  0  0  0  0  0  0  0  0  0  0  0
    1.8706    0.6403    0.9980 C   0  0  1  0  0  0  0  0  0  0  0  0
    0.7414   -0.2207    1.4513 C   0  0  0  0  0  0  0  0  0  0  0  0
   -0.2773   -0.5558    0.6343 C   0  0  0  0  0  0  0  0  0  0  0  0
   -1.1764   -0.4015   -1.3713 H   0  0  0  0  0  0  0  0  0  0  0  0
    0.4566    1.2650   -2.2002 H   0  0  0  0  0  0  0  0  0  0  0  0
    2.2412    2.1648   -0.6187 N   0  0  0  0  0  0  0  0  0  0  0  0
    2.9478    3.0389   -0.9136 N   0  0  0  0  0  0  0  0  0  0  0  0
   -1.0638   -1.2175    0.9987 H   0  0  0  0  0  0  0  0  0  0  0  0
    0.8073   -0.5980    2.4708 H   0  0  0  0  0  0  0  0  0  0  0  0
    2.1658    1.3734    1.7574 H   0  0  0  0  0  0  0  0  0  0  0  0
    4.2208   -0.2825    1.9229 S   0  0  0  0  0  0  0  0  0  0  0  0
    3.5830   -0.2870    3.2449 O   0  0  0  0  0  0  0  0  0  0  0  0
    5.1900   -1.2883    1.4743 O   0  0  0  0  0  0  0  0  0  0  0  0
    3.0779   -0.2253    0.7454 O   0  0  0  0  0  0  0  0  0  0  0  0
    4.9026    1.2182    1.8002 O   0  0  0  0  0  0  0  0  0  0  0  0
    5.5231    1.2002    1.0511 H   0  0  0  0  0  0  0  0  0  0  0  0
  1  6  1  0  0  0  0
  2  1  1  0  0  0  0
  2  3  2  0  0  0  0
  3  4  1  0  0  0  0
  4  5  1  0  0  0  0
  4 13  1  1  0  0  0
  5 12  1  0  0  0  0
  6 11  1  0  0  0  0
  6  5  2  0  0  0  0
  7  1  1  0  0  0  0
  8  2  1  0  0  0  0
  9  3  1  0  0  0  0
 10  9  1  0  0  0  0
 14 15  2  0  0  0  0
 16 14  2  0  0  0  0
 17  4  1  0  0  0  0
 17 14  1  0  0  0  0
 18 14  1  0  0  0  0
 19 18  1  0  0  0  0
M  RAD  3   1   2   9   2  10   3
M  END
