Coordinates from ORCA-job Ph-N2-HSO4-B3LYPG-aug-cc-pVDZ-scan-d09-49-n400
 OpenBabel11081710403D

 19 18  0  0  0  0  0  0  0  0999 V2000
   -0.7889    0.1385   -0.7707 C   0  0  0  0  0  0  0  0  0  0  0  0
    0.4359    0.7502   -1.0711 C   0  0  0  0  0  0  0  0  0  0  0  0
    1.3381    0.7403   -0.0272 C   0  0  0  0  0  0  0  0  0  0  0  0
    1.2239    0.2245    1.2387 C   0  0  0  0  0  0  0  0  0  0  0  0
   -0.0253   -0.3641    1.4900 C   0  0  0  0  0  0  0  0  0  0  0  0
   -1.0121   -0.4100    0.4981 C   0  0  0  0  0  0  0  0  0  0  0  0
   -1.5599    0.0952   -1.5391 H   0  0  0  0  0  0  0  0  0  0  0  0
    0.6512    1.1861   -2.0430 H   0  0  0  0  0  0  0  0  0  0  0  0
    2.8046    1.5229   -0.3929 N   0  0  0  0  0  0  0  0  0  0  0  0
    3.4046    2.3350   -0.8543 N   0  0  0  0  0  0  0  0  0  0  0  0
   -1.9695   -0.8838    0.7140 H   0  0  0  0  0  0  0  0  0  0  0  0
   -0.2094   -0.7954    2.4733 H   0  0  0  0  0  0  0  0  0  0  0  0
    2.0406    0.2782    1.9678 H   0  0  0  0  0  0  0  0  0  0  0  0
    4.8055    0.2183    1.7163 S   0  0  0  0  0  0  0  0  0  0  0  0
    3.8242    0.5759    2.7885 O   0  0  0  0  0  0  0  0  0  0  0  0
    5.9382   -0.6746    2.0673 O   0  0  0  0  0  0  0  0  0  0  0  0
    4.0960   -0.1738    0.4187 O   0  0  0  0  0  0  0  0  0  0  0  0
    5.5135    1.7118    1.3360 O   0  0  0  0  0  0  0  0  0  0  0  0
    6.4505    1.5162    1.1811 H   0  0  0  0  0  0  0  0  0  0  0  0
  1  6  1  0  0  0  0
  2  1  2  0  0  0  0
  2  3  1  0  0  0  0
  3  4  2  0  0  0  0
  4  5  1  0  0  0  0
  4 13  1  0  0  0  0
  5 12  1  0  0  0  0
  6 11  1  0  0  0  0
  6  5  2  0  0  0  0
  7  1  1  0  0  0  0
  8  2  1  0  0  0  0
  9  3  1  0  0  0  0
 10  9  2  0  0  0  0
 14 16  2  0  0  0  0
 14 15  1  0  0  0  0
 17 14  2  0  0  0  0
 18 14  1  0  0  0  0
 19 18  1  0  0  0  0
M  RAD  2  10   2  15   2
M  END
