Coordinates from ORCA-job Ph-N2-HSO4-B3LYPG-aug-cc-pVDZ-scan-d09-49-n400
 OpenBabel11081710403D

 19 17  0  0  0  0  0  0  0  0999 V2000
   -1.1296    0.2975   -0.5129 C   0  0  0  0  0  0  0  0  0  0  0  0
    0.0340    0.8103   -1.1438 C   0  0  0  0  0  0  0  0  0  0  0  0
    1.0691    0.6041   -0.2763 C   0  0  0  0  0  0  0  0  0  0  0  0
    1.2561    0.1014    0.8681 C   0  0  0  0  0  0  0  0  0  0  0  0
    0.0998   -0.4107    1.5057 C   0  0  0  0  0  0  0  0  0  0  0  0
   -1.0920   -0.2905    0.7654 C   0  0  0  0  0  0  0  0  0  0  0  0
   -2.0769    0.3690   -1.0502 H   0  0  0  0  0  0  0  0  0  0  0  0
    0.0447    1.2690   -2.1276 H   0  0  0  0  0  0  0  0  0  0  0  0
    3.1594    1.8568   -1.9478 N   0  0  0  0  0  0  0  0  0  0  0  0
    4.1252    2.3547   -2.1420 N   0  0  0  0  0  0  0  0  0  0  0  0
   -2.0207   -0.6684    1.1962 H   0  0  0  0  0  0  0  0  0  0  0  0
    0.1134   -0.8719    2.4929 H   0  0  0  0  0  0  0  0  0  0  0  0
    2.9149   -0.1129    1.7813 H   0  0  0  0  0  0  0  0  0  0  0  0
    5.0852    0.0763    1.7178 S   0  0  0  0  0  0  0  0  0  0  0  0
    3.6692   -0.3380    2.3981 O   0  0  0  0  0  0  0  0  0  0  0  0
    6.1239   -0.5448    2.5501 O   0  0  0  0  0  0  0  0  0  0  0  0
    5.0106   -0.0698    0.2595 O   0  0  0  0  0  0  0  0  0  0  0  0
    5.1248    1.7108    1.9757 O   0  0  0  0  0  0  0  0  0  0  0  0
    5.4506    1.8484    2.8812 H   0  0  0  0  0  0  0  0  0  0  0  0
  1  6  1  0  0  0  0
  2  1  2  0  0  0  0
  2  3  1  0  0  0  0
  3  4  2  0  0  0  0
  4  5  1  0  0  0  0
  5 12  1  0  0  0  0
  6 11  1  0  0  0  0
  6  5  2  0  0  0  0
  7  1  1  0  0  0  0
  8  2  1  0  0  0  0
 10  9  3  0  0  0  0
 13 15  1  0  0  0  0
 14 18  1  0  0  0  0
 14 15  1  0  0  0  0
 14 16  2  0  0  0  0
 17 14  2  0  0  0  0
 18 19  1  0  0  0  0
M  RAD  2   3   2   4   2
M  END
