Coordinates from ORCA-job Ph-N2-HSO4-B3LYPG-aug-cc-pVDZ-scan-d09-49-n400
 OpenBabel11081710403D

 19 17  0  0  0  0  0  0  0  0999 V2000
   -1.1247    0.2947   -0.5301 C   0  0  0  0  0  0  0  0  0  0  0  0
    0.0264    0.8186   -1.1755 C   0  0  0  0  0  0  0  0  0  0  0  0
    1.0677    0.6305   -0.3145 C   0  0  0  0  0  0  0  0  0  0  0  0
    1.2864    0.1408    0.8311 C   0  0  0  0  0  0  0  0  0  0  0  0
    0.1371   -0.3811    1.4781 C   0  0  0  0  0  0  0  0  0  0  0  0
   -1.0651   -0.2835    0.7517 C   0  0  0  0  0  0  0  0  0  0  0  0
   -2.0782    0.3498   -1.0584 H   0  0  0  0  0  0  0  0  0  0  0  0
    0.0226    1.2705   -2.1622 H   0  0  0  0  0  0  0  0  0  0  0  0
    3.0401    1.7995   -1.8413 N   0  0  0  0  0  0  0  0  0  0  0  0
    4.0162    2.2902   -1.9982 N   0  0  0  0  0  0  0  0  0  0  0  0
   -1.9836   -0.6712    1.1953 H   0  0  0  0  0  0  0  0  0  0  0  0
    0.1668   -0.8356    2.4682 H   0  0  0  0  0  0  0  0  0  0  0  0
    2.9125   -0.0772    1.7573 H   0  0  0  0  0  0  0  0  0  0  0  0
    5.0926    0.0676    1.7224 S   0  0  0  0  0  0  0  0  0  0  0  0
    3.6590   -0.3097    2.3848 O   0  0  0  0  0  0  0  0  0  0  0  0
    6.1052   -0.5687    2.5753 O   0  0  0  0  0  0  0  0  0  0  0  0
    5.0396   -0.0889    0.2638 O   0  0  0  0  0  0  0  0  0  0  0  0
    5.1648    1.7035    1.9666 O   0  0  0  0  0  0  0  0  0  0  0  0
    5.4764    1.8417    2.8769 H   0  0  0  0  0  0  0  0  0  0  0  0
  1  6  1  0  0  0  0
  2  1  2  0  0  0  0
  2  3  1  0  0  0  0
  3  4  2  0  0  0  0
  4  5  1  0  0  0  0
  5 12  1  0  0  0  0
  6 11  1  0  0  0  0
  6  5  2  0  0  0  0
  7  1  1  0  0  0  0
  8  2  1  0  0  0  0
 10  9  3  0  0  0  0
 13 15  1  0  0  0  0
 14 18  1  0  0  0  0
 14 15  1  0  0  0  0
 14 16  2  0  0  0  0
 17 14  2  0  0  0  0
 18 19  1  0  0  0  0
M  RAD  2   3   2   4   2
M  END
