Coordinates from ORCA-job Ph-N2-HSO4-B3LYPG-aug-cc-pVDZ-scan-d09-49-n400
 OpenBabel11081710403D

 19 17  0  0  0  0  0  0  0  0999 V2000
   -1.1132    0.3138   -0.4581 C   0  0  0  0  0  0  0  0  0  0  0  0
    0.1046    0.7739   -1.0247 C   0  0  0  0  0  0  0  0  0  0  0  0
    1.0870    0.4970   -0.1142 C   0  0  0  0  0  0  0  0  0  0  0  0
    1.1781   -0.0370    1.0253 C   0  0  0  0  0  0  0  0  0  0  0  0
   -0.0255   -0.4989    1.6044 C   0  0  0  0  0  0  0  0  0  0  0  0
   -1.1705   -0.2985    0.8079 C   0  0  0  0  0  0  0  0  0  0  0  0
   -2.0289    0.4467   -1.0371 H   0  0  0  0  0  0  0  0  0  0  0  0
    0.1844    1.2489   -1.9977 H   0  0  0  0  0  0  0  0  0  0  0  0
    3.4869    2.0367   -2.3717 N   0  0  0  0  0  0  0  0  0  0  0  0
    4.4048    2.5561   -2.6979 N   0  0  0  0  0  0  0  0  0  0  0  0
   -2.1389   -0.6319    1.1847 H   0  0  0  0  0  0  0  0  0  0  0  0
   -0.0848   -0.9773    2.5814 H   0  0  0  0  0  0  0  0  0  0  0  0
    2.9137   -0.2510    1.8684 H   0  0  0  0  0  0  0  0  0  0  0  0
    5.0514    0.1172    1.6986 S   0  0  0  0  0  0  0  0  0  0  0  0
    3.7147   -0.4571    2.4248 O   0  0  0  0  0  0  0  0  0  0  0  0
    6.1821   -0.4689    2.4297 O   0  0  0  0  0  0  0  0  0  0  0  0
    4.9019    0.0587    0.2401 O   0  0  0  0  0  0  0  0  0  0  0  0
    4.9755    1.7287    2.0660 O   0  0  0  0  0  0  0  0  0  0  0  0
    5.3383    1.8342    2.9618 H   0  0  0  0  0  0  0  0  0  0  0  0
  1  6  1  0  0  0  0
  2  1  2  0  0  0  0
  2  3  1  0  0  0  0
  3  4  2  0  0  0  0
  4  5  1  0  0  0  0
  5 12  1  0  0  0  0
  6 11  1  0  0  0  0
  6  5  2  0  0  0  0
  7  1  1  0  0  0  0
  8  2  1  0  0  0  0
 10  9  3  0  0  0  0
 13 15  1  0  0  0  0
 14 18  1  0  0  0  0
 14 15  1  0  0  0  0
 14 16  2  0  0  0  0
 17 14  2  0  0  0  0
 18 19  1  0  0  0  0
M  RAD  2   3   2   4   2
M  END
