Coordinates from ORCA-job Ph-N2-HSO4-B3LYPG-aug-cc-pVDZ-scan-d09-49-n400
 OpenBabel11081710403D

 19 17  0  0  0  0  0  0  0  0999 V2000
   -1.0861    0.3182   -0.4453 C   0  0  0  0  0  0  0  0  0  0  0  0
    0.1562    0.7446   -0.9846 C   0  0  0  0  0  0  0  0  0  0  0  0
    1.1101    0.4434   -0.0514 C   0  0  0  0  0  0  0  0  0  0  0  0
    1.1573   -0.0902    1.0906 C   0  0  0  0  0  0  0  0  0  0  0  0
   -0.0694   -0.5193    1.6439 C   0  0  0  0  0  0  0  0  0  0  0  0
   -1.1895   -0.2898    0.8201 C   0  0  0  0  0  0  0  0  0  0  0  0
   -1.9844    0.4743   -1.0455 H   0  0  0  0  0  0  0  0  0  0  0  0
    0.2710    1.2156   -1.9560 H   0  0  0  0  0  0  0  0  0  0  0  0
    3.5489    2.1252   -2.5686 N   0  0  0  0  0  0  0  0  0  0  0  0
    4.4373    2.6612   -2.9461 N   0  0  0  0  0  0  0  0  0  0  0  0
   -2.1751   -0.5960    1.1745 H   0  0  0  0  0  0  0  0  0  0  0  0
   -0.1642   -0.9936    2.6201 H   0  0  0  0  0  0  0  0  0  0  0  0
    2.9123   -0.3084    1.9151 H   0  0  0  0  0  0  0  0  0  0  0  0
    5.0317    0.1265    1.7032 S   0  0  0  0  0  0  0  0  0  0  0  0
    3.7315   -0.5083    2.4457 O   0  0  0  0  0  0  0  0  0  0  0  0
    6.1980   -0.4537    2.3811 O   0  0  0  0  0  0  0  0  0  0  0  0
    4.8410    0.1140    0.2483 O   0  0  0  0  0  0  0  0  0  0  0  0
    4.9249    1.7217    2.1290 O   0  0  0  0  0  0  0  0  0  0  0  0
    5.3104    1.8060    3.0175 H   0  0  0  0  0  0  0  0  0  0  0  0
  1  6  1  0  0  0  0
  2  1  2  0  0  0  0
  2  3  1  0  0  0  0
  3  4  2  0  0  0  0
  4  5  1  0  0  0  0
  5 12  1  0  0  0  0
  6 11  1  0  0  0  0
  6  5  2  0  0  0  0
  7  1  1  0  0  0  0
  8  2  1  0  0  0  0
 10  9  3  0  0  0  0
 13 15  1  0  0  0  0
 14 18  1  0  0  0  0
 14 16  2  0  0  0  0
 14 15  1  0  0  0  0
 17 14  2  0  0  0  0
 18 19  1  0  0  0  0
M  RAD  2   3   2   4   2
M  END
