Coordinates from ORCA-job Ph-N2-HSO4-B3LYPG-aug-cc-pVDZ-scan-d09-49-n400
 OpenBabel11081710403D

 19 17  0  0  0  0  0  0  0  0999 V2000
   -1.1298    0.3004   -0.5022 C   0  0  0  0  0  0  0  0  0  0  0  0
    0.0422    0.8053   -1.1244 C   0  0  0  0  0  0  0  0  0  0  0  0
    1.0701    0.5862   -0.2510 C   0  0  0  0  0  0  0  0  0  0  0  0
    1.2420    0.0773    0.8923 C   0  0  0  0  0  0  0  0  0  0  0  0
    0.0792   -0.4271    1.5226 C   0  0  0  0  0  0  0  0  0  0  0  0
   -1.1062   -0.2927    0.7741 C   0  0  0  0  0  0  0  0  0  0  0  0
   -2.0731    0.3826   -1.0451 H   0  0  0  0  0  0  0  0  0  0  0  0
    0.0627    1.2675   -2.1064 H   0  0  0  0  0  0  0  0  0  0  0  0
    3.2256    1.8890   -2.0159 N   0  0  0  0  0  0  0  0  0  0  0  0
    4.1843    2.3912   -2.2328 N   0  0  0  0  0  0  0  0  0  0  0  0
   -2.0414   -0.6635    1.1970 H   0  0  0  0  0  0  0  0  0  0  0  0
    0.0821   -0.8918    2.5081 H   0  0  0  0  0  0  0  0  0  0  0  0
    2.9142   -0.1388    1.7956 H   0  0  0  0  0  0  0  0  0  0  0  0
    5.0800    0.0824    1.7142 S   0  0  0  0  0  0  0  0  0  0  0  0
    3.6761   -0.3595    2.4034 O   0  0  0  0  0  0  0  0  0  0  0  0
    6.1348   -0.5293    2.5328 O   0  0  0  0  0  0  0  0  0  0  0  0
    4.9948   -0.0535    0.2555 O   0  0  0  0  0  0  0  0  0  0  0  0
    5.0963    1.7151    1.9850 O   0  0  0  0  0  0  0  0  0  0  0  0
    5.4277    1.8506    2.8888 H   0  0  0  0  0  0  0  0  0  0  0  0
  1  6  1  0  0  0  0
  2  1  2  0  0  0  0
  2  3  1  0  0  0  0
  3  4  2  0  0  0  0
  4  5  1  0  0  0  0
  5 12  1  0  0  0  0
  6 11  1  0  0  0  0
  6  5  2  0  0  0  0
  7  1  1  0  0  0  0
  8  2  1  0  0  0  0
 10  9  3  0  0  0  0
 13 15  1  0  0  0  0
 14 18  1  0  0  0  0
 14 15  1  0  0  0  0
 14 16  2  0  0  0  0
 17 14  2  0  0  0  0
 18 19  1  0  0  0  0
M  RAD  2   3   2   4   2
M  END
