Coordinates from ORCA-job Ph-N2-HSO4-B3LYPG-aug-cc-pVDZ-scan-d09-49-n400
 OpenBabel11081710403D

 19 17  0  0  0  0  0  0  0  0999 V2000
   -1.0932    0.3165   -0.4480 C   0  0  0  0  0  0  0  0  0  0  0  0
    0.1439    0.7510   -0.9931 C   0  0  0  0  0  0  0  0  0  0  0  0
    1.1019    0.4541   -0.0630 C   0  0  0  0  0  0  0  0  0  0  0  0
    1.1591   -0.0794    1.0780 C   0  0  0  0  0  0  0  0  0  0  0  0
   -0.0623   -0.5163    1.6367 C   0  0  0  0  0  0  0  0  0  0  0  0
   -1.1873   -0.2929    0.8178 C   0  0  0  0  0  0  0  0  0  0  0  0
   -1.9951    0.4674   -1.0440 H   0  0  0  0  0  0  0  0  0  0  0  0
    0.2521    1.2234   -1.9647 H   0  0  0  0  0  0  0  0  0  0  0  0
    3.5411    2.1061   -2.5218 N   0  0  0  0  0  0  0  0  0  0  0  0
    4.4369    2.6380   -2.8872 N   0  0  0  0  0  0  0  0  0  0  0  0
   -2.1695   -0.6054    1.1762 H   0  0  0  0  0  0  0  0  0  0  0  0
   -0.1498   -0.9917    2.6131 H   0  0  0  0  0  0  0  0  0  0  0  0
    2.9117   -0.2940    1.9041 H   0  0  0  0  0  0  0  0  0  0  0  0
    5.0368    0.1254    1.6999 S   0  0  0  0  0  0  0  0  0  0  0  0
    3.7275   -0.4944    2.4400 O   0  0  0  0  0  0  0  0  0  0  0  0
    6.1945   -0.4574    2.3901 O   0  0  0  0  0  0  0  0  0  0  0  0
    4.8560    0.1026    0.2436 O   0  0  0  0  0  0  0  0  0  0  0  0
    4.9384    1.7248    2.1119 O   0  0  0  0  0  0  0  0  0  0  0  0
    5.3190    1.8138    3.0020 H   0  0  0  0  0  0  0  0  0  0  0  0
  1  6  1  0  0  0  0
  2  1  2  0  0  0  0
  2  3  1  0  0  0  0
  3  4  2  0  0  0  0
  4  5  1  0  0  0  0
  5 12  1  0  0  0  0
  6 11  1  0  0  0  0
  6  5  2  0  0  0  0
  7  1  1  0  0  0  0
  8  2  1  0  0  0  0
 10  9  3  0  0  0  0
 13 15  1  0  0  0  0
 14 18  1  0  0  0  0
 14 16  2  0  0  0  0
 14 15  1  0  0  0  0
 17 14  2  0  0  0  0
 18 19  1  0  0  0  0
M  RAD  2   3   2   4   2
M  END
