Coordinates from ORCA-job Ph-N2-HSO4-B3LYPG-aug-cc-pVDZ-scan-d09-49-n400
 OpenBabel11081710403D

 19 19  0  0  1  0  0  0  0  0999 V2000
   -0.3778   -0.1214   -0.7408 C   0  0  0  0  0  0  0  0  0  0  0  0
    0.4737    0.8483   -1.1809 C   0  0  0  0  0  0  0  0  0  0  0  0
    1.4828    1.3191   -0.2832 C   0  0  1  0  0  0  0  0  0  0  0  0
    1.8188    0.6855    1.0073 C   0  0  1  0  0  0  0  0  0  0  0  0
    0.7214   -0.2079    1.4575 C   0  0  0  0  0  0  0  0  0  0  0  0
   -0.2647   -0.6089    0.6153 C   0  0  0  0  0  0  0  0  0  0  0  0
   -1.1601   -0.5040   -1.3935 H   0  0  0  0  0  0  0  0  0  0  0  0
    0.3990    1.2781   -2.1787 H   0  0  0  0  0  0  0  0  0  0  0  0
    2.2856    2.4108   -0.6773 N   0  0  0  0  0  0  0  0  0  0  0  0
    2.9398    3.2831   -0.9803 N   0  0  0  0  0  0  0  0  0  0  0  0
   -1.0190   -1.3078    0.9794 H   0  0  0  0  0  0  0  0  0  0  0  0
    0.7774   -0.5681    2.4829 H   0  0  0  0  0  0  0  0  0  0  0  0
    2.1545    1.3883    1.7737 H   0  0  0  0  0  0  0  0  0  0  0  0
    4.2064   -0.2918    1.9240 S   0  0  0  0  0  0  0  0  0  0  0  0
    3.5622   -0.1875    3.2419 O   0  0  0  0  0  0  0  0  0  0  0  0
    5.1410   -1.3682    1.5616 O   0  0  0  0  0  0  0  0  0  0  0  0
    3.0969   -0.2147    0.7444 O   0  0  0  0  0  0  0  0  0  0  0  0
    5.0049    1.1568    1.7395 O   0  0  0  0  0  0  0  0  0  0  0  0
    5.7189    1.0018    1.0986 H   0  0  0  0  0  0  0  0  0  0  0  0
  1  6  1  0  0  0  0
  2  1  2  0  0  0  0
  2  3  1  0  0  0  0
  3  9  1  6  0  0  0
  3  4  1  0  0  0  0
  4  5  1  0  0  0  0
  4 13  1  1  0  0  0
  5 12  1  0  0  0  0
  6 11  1  0  0  0  0
  6  5  2  0  0  0  0
  7  1  1  0  0  0  0
  8  2  1  0  0  0  0
 10  9  1  0  0  0  0
 14 15  2  0  0  0  0
 16 14  2  0  0  0  0
 17  4  1  0  0  0  0
 17 14  1  0  0  0  0
 18 14  1  0  0  0  0
 19 18  1  0  0  0  0
M  RAD  3   3   2   9   2  10   3
M  END
