Coordinates from ORCA-job Ph-N2-HSO4-B3LYPG-aug-cc-pVDZ-scan-d09-49-n400
 OpenBabel11081710403D

 19 17  0  0  0  0  0  0  0  0999 V2000
   -1.0533    0.3229   -0.4355 C   0  0  0  0  0  0  0  0  0  0  0  0
    0.2112    0.7076   -0.9539 C   0  0  0  0  0  0  0  0  0  0  0  0
    1.1368    0.3841    0.0000 C   0  0  0  0  0  0  0  0  0  0  0  0
    1.1456   -0.1424    1.1461 C   0  0  0  0  0  0  0  0  0  0  0  0
   -0.1033   -0.5304    1.6789 C   0  0  0  0  0  0  0  0  0  0  0  0
   -1.1996   -0.2726    0.8318 C   0  0  0  0  0  0  0  0  0  0  0  0
   -1.9349    0.5014   -1.0539 H   0  0  0  0  0  0  0  0  0  0  0  0
    0.3592    1.1684   -1.9258 H   0  0  0  0  0  0  0  0  0  0  0  0
    3.5780    2.2231   -2.7749 N   0  0  0  0  0  0  0  0  0  0  0  0
    4.4298    2.7806   -3.2024 N   0  0  0  0  0  0  0  0  0  0  0  0
   -2.2010   -0.5461    1.1687 H   0  0  0  0  0  0  0  0  0  0  0  0
   -0.2313   -0.9944    2.6562 H   0  0  0  0  0  0  0  0  0  0  0  0
    2.9111   -0.3677    1.9603 H   0  0  0  0  0  0  0  0  0  0  0  0
    5.0127    0.1286    1.7200 S   0  0  0  0  0  0  0  0  0  0  0  0
    3.7449   -0.5618    2.4693 O   0  0  0  0  0  0  0  0  0  0  0  0
    6.2077   -0.4450    2.3518 O   0  0  0  0  0  0  0  0  0  0  0  0
    4.7889    0.1595    0.2699 O   0  0  0  0  0  0  0  0  0  0  0  0
    4.8781    1.7057    2.2012 O   0  0  0  0  0  0  0  0  0  0  0  0
    5.2812    1.7699    3.0835 H   0  0  0  0  0  0  0  0  0  0  0  0
  1  6  1  0  0  0  0
  2  1  2  0  0  0  0
  2  3  1  0  0  0  0
  3  4  2  0  0  0  0
  4  5  1  0  0  0  0
  5 12  1  0  0  0  0
  6 11  1  0  0  0  0
  6  5  2  0  0  0  0
  7  1  1  0  0  0  0
  8  2  1  0  0  0  0
 10  9  3  0  0  0  0
 13 15  1  0  0  0  0
 14 18  1  0  0  0  0
 14 16  2  0  0  0  0
 14 15  1  0  0  0  0
 17 14  2  0  0  0  0
 18 19  1  0  0  0  0
M  RAD  2   3   2   4   2
M  END
