Coordinates from ORCA-job Ph-N2-HSO4-B3LYPG-aug-cc-pVDZ-scan-d09-49-n400
 OpenBabel11081710403D

 19 17  0  0  0  0  0  0  0  0999 V2000
   -1.1269    0.2960   -0.5264 C   0  0  0  0  0  0  0  0  0  0  0  0
    0.0282    0.8171   -1.1673 C   0  0  0  0  0  0  0  0  0  0  0  0
    1.0654    0.6229   -0.3026 C   0  0  0  0  0  0  0  0  0  0  0  0
    1.2776    0.1299    0.8423 C   0  0  0  0  0  0  0  0  0  0  0  0
    0.1250   -0.3892    1.4853 C   0  0  0  0  0  0  0  0  0  0  0  0
   -1.0741   -0.2852    0.7544 C   0  0  0  0  0  0  0  0  0  0  0  0
   -2.0785    0.3558   -1.0577 H   0  0  0  0  0  0  0  0  0  0  0  0
    0.0292    1.2711   -2.1531 H   0  0  0  0  0  0  0  0  0  0  0  0
    3.0670    1.8124   -1.8664 N   0  0  0  0  0  0  0  0  0  0  0  0
    4.0407    2.3048   -2.0327 N   0  0  0  0  0  0  0  0  0  0  0  0
   -1.9957   -0.6702    1.1938 H   0  0  0  0  0  0  0  0  0  0  0  0
    0.1497   -0.8459    2.4746 H   0  0  0  0  0  0  0  0  0  0  0  0
    2.9151   -0.0843    1.7607 H   0  0  0  0  0  0  0  0  0  0  0  0
    5.0949    0.0698    1.7212 S   0  0  0  0  0  0  0  0  0  0  0  0
    3.6639   -0.3162    2.3847 O   0  0  0  0  0  0  0  0  0  0  0  0
    6.1111   -0.5626    2.5727 O   0  0  0  0  0  0  0  0  0  0  0  0
    5.0421   -0.0850    0.2624 O   0  0  0  0  0  0  0  0  0  0  0  0
    5.1584    1.7057    1.9674 O   0  0  0  0  0  0  0  0  0  0  0  0
    5.4687    1.8445    2.8782 H   0  0  0  0  0  0  0  0  0  0  0  0
  1  6  1  0  0  0  0
  2  1  2  0  0  0  0
  2  3  1  0  0  0  0
  3  4  2  0  0  0  0
  4  5  1  0  0  0  0
  5 12  1  0  0  0  0
  6 11  1  0  0  0  0
  6  5  2  0  0  0  0
  7  1  1  0  0  0  0
  8  2  1  0  0  0  0
 10  9  3  0  0  0  0
 13 15  1  0  0  0  0
 14 18  1  0  0  0  0
 14 15  1  0  0  0  0
 14 16  2  0  0  0  0
 17 14  2  0  0  0  0
 18 19  1  0  0  0  0
M  RAD  2   3   2   4   2
M  END
