Coordinates from ORCA-job Ph-N2-HSO4-B3LYPG-aug-cc-pVDZ-scan-d09-49-n400
 OpenBabel11081710403D

 19 19  0  0  1  0  0  0  0  0999 V2000
   -0.3663   -0.0660   -0.7280 C   0  0  0  0  0  0  0  0  0  0  0  0
    0.5101    0.8519   -1.1921 C   0  0  0  0  0  0  0  0  0  0  0  0
    1.5910    1.3622   -0.3330 C   0  0  0  0  0  0  0  0  0  0  0  0
    1.8676    0.6541    0.9946 C   0  0  1  0  0  0  0  0  0  0  0  0
    0.7436   -0.2104    1.4540 C   0  0  0  0  0  0  0  0  0  0  0  0
   -0.2697   -0.5610    0.6354 C   0  0  0  0  0  0  0  0  0  0  0  0
   -1.1667   -0.4268   -1.3726 H   0  0  0  0  0  0  0  0  0  0  0  0
    0.4484    1.2584   -2.2015 H   0  0  0  0  0  0  0  0  0  0  0  0
    2.2345    2.2047   -0.6281 N   0  0  0  0  0  0  0  0  0  0  0  0
    2.9234    3.0860   -0.9247 N   0  0  0  0  0  0  0  0  0  0  0  0
   -1.0509   -1.2272    1.0030 H   0  0  0  0  0  0  0  0  0  0  0  0
    0.8092   -0.5797    2.4763 H   0  0  0  0  0  0  0  0  0  0  0  0
    2.1702    1.3839    1.7537 H   0  0  0  0  0  0  0  0  0  0  0  0
    4.2133   -0.2913    1.9205 S   0  0  0  0  0  0  0  0  0  0  0  0
    3.5682   -0.2890    3.2393 O   0  0  0  0  0  0  0  0  0  0  0  0
    5.1753   -1.3077    1.4787 O   0  0  0  0  0  0  0  0  0  0  0  0
    3.0811   -0.2158    0.7377 O   0  0  0  0  0  0  0  0  0  0  0  0
    4.9192    1.2005    1.8047 O   0  0  0  0  0  0  0  0  0  0  0  0
    5.5601    1.1646    1.0737 H   0  0  0  0  0  0  0  0  0  0  0  0
  1  6  1  0  0  0  0
  2  1  1  0  0  0  0
  2  3  2  0  0  0  0
  3  4  1  0  0  0  0
  4  5  1  0  0  0  0
  4 13  1  1  0  0  0
  5 12  1  0  0  0  0
  6 11  1  0  0  0  0
  6  5  2  0  0  0  0
  7  1  1  0  0  0  0
  8  2  1  0  0  0  0
  9  3  1  0  0  0  0
 10  9  1  0  0  0  0
 14 15  2  0  0  0  0
 16 14  2  0  0  0  0
 17  4  1  0  0  0  0
 17 14  1  0  0  0  0
 18 14  1  0  0  0  0
 19 18  1  0  0  0  0
M  RAD  3   1   2   9   2  10   3
M  END
