Coordinates from ORCA-job Ph-N2-HSO4-B3LYPG-aug-cc-pVDZ-scan-d09-49-n400
 OpenBabel11081710403D

 19 17  0  0  0  0  0  0  0  0999 V2000
   -1.1232    0.2938   -0.5324 C   0  0  0  0  0  0  0  0  0  0  0  0
    0.0255    0.8193   -1.1803 C   0  0  0  0  0  0  0  0  0  0  0  0
    1.0695    0.6352   -0.3217 C   0  0  0  0  0  0  0  0  0  0  0  0
    1.2917    0.1473    0.8242 C   0  0  0  0  0  0  0  0  0  0  0  0
    0.1445   -0.3763    1.4737 C   0  0  0  0  0  0  0  0  0  0  0  0
   -1.0596   -0.2826    0.7501 C   0  0  0  0  0  0  0  0  0  0  0  0
   -2.0777    0.3461   -1.0589 H   0  0  0  0  0  0  0  0  0  0  0  0
    0.0188    1.2701   -2.1676 H   0  0  0  0  0  0  0  0  0  0  0  0
    3.0241    1.7921   -1.8265 N   0  0  0  0  0  0  0  0  0  0  0  0
    4.0016    2.2818   -1.9780 N   0  0  0  0  0  0  0  0  0  0  0  0
   -1.9761   -0.6719    1.1962 H   0  0  0  0  0  0  0  0  0  0  0  0
    0.1773   -0.8295    2.4644 H   0  0  0  0  0  0  0  0  0  0  0  0
    2.9107   -0.0730    1.7560 H   0  0  0  0  0  0  0  0  0  0  0  0
    5.0905    0.0662    1.7233 S   0  0  0  0  0  0  0  0  0  0  0  0
    3.6557   -0.3055    2.3858 O   0  0  0  0  0  0  0  0  0  0  0  0
    6.1016   -0.5726    2.5762 O   0  0  0  0  0  0  0  0  0  0  0  0
    5.0362   -0.0912    0.2648 O   0  0  0  0  0  0  0  0  0  0  0  0
    5.1686    1.7021    1.9662 O   0  0  0  0  0  0  0  0  0  0  0  0
    5.4820    1.8399    2.8760 H   0  0  0  0  0  0  0  0  0  0  0  0
  1  6  1  0  0  0  0
  2  1  2  0  0  0  0
  2  3  1  0  0  0  0
  3  4  2  0  0  0  0
  4  5  1  0  0  0  0
  5 12  1  0  0  0  0
  6 11  1  0  0  0  0
  6  5  2  0  0  0  0
  7  1  1  0  0  0  0
  8  2  1  0  0  0  0
 10  9  3  0  0  0  0
 13 15  1  0  0  0  0
 14 18  1  0  0  0  0
 14 15  1  0  0  0  0
 14 16  2  0  0  0  0
 17 14  2  0  0  0  0
 18 19  1  0  0  0  0
M  RAD  2   3   2   4   2
M  END
