Coordinates from ORCA-job Ph-N2-HSO4-B3LYPG-aug-cc-pVDZ-scan-d09-49-n400
 OpenBabel11081710403D

 19 19  0  0  1  0  0  0  0  0999 V2000
   -0.3741   -0.0404   -0.7261 C   0  0  0  0  0  0  0  0  0  0  0  0
    0.5161    0.8605   -1.1905 C   0  0  0  0  0  0  0  0  0  0  0  0
    1.6214    1.3608   -0.3381 C   0  0  0  0  0  0  0  0  0  0  0  0
    1.8724    0.6302    1.0010 C   0  0  1  0  0  0  0  0  0  0  0  0
    0.7390   -0.2282    1.4493 C   0  0  0  0  0  0  0  0  0  0  0  0
   -0.2829   -0.5519    0.6328 C   0  0  0  0  0  0  0  0  0  0  0  0
   -1.1833   -0.3821   -1.3708 H   0  0  0  0  0  0  0  0  0  0  0  0
    0.4630    1.2713   -2.1988 H   0  0  0  0  0  0  0  0  0  0  0  0
    2.2455    2.1338   -0.6111 N   0  0  0  0  0  0  0  0  0  0  0  0
    2.9652    3.0022   -0.9048 N   0  0  0  0  0  0  0  0  0  0  0  0
   -1.0734   -1.2102    0.9946 H   0  0  0  0  0  0  0  0  0  0  0  0
    0.8044   -0.6112    2.4669 H   0  0  0  0  0  0  0  0  0  0  0  0
    2.1629    1.3653    1.7605 H   0  0  0  0  0  0  0  0  0  0  0  0
    4.2269   -0.2756    1.9246 S   0  0  0  0  0  0  0  0  0  0  0  0
    3.5955   -0.2844    3.2495 O   0  0  0  0  0  0  0  0  0  0  0  0
    5.2021   -1.2730    1.4714 O   0  0  0  0  0  0  0  0  0  0  0  0
    3.0759   -0.2334    0.7521 O   0  0  0  0  0  0  0  0  0  0  0  0
    4.8901    1.2319    1.7954 O   0  0  0  0  0  0  0  0  0  0  0  0
    5.4953    1.2259    1.0335 H   0  0  0  0  0  0  0  0  0  0  0  0
  1  6  1  0  0  0  0
  2  1  1  0  0  0  0
  2  3  2  0  0  0  0
  3  4  1  0  0  0  0
  4  5  1  0  0  0  0
  4 13  1  1  0  0  0
  5 12  1  0  0  0  0
  6 11  1  0  0  0  0
  6  5  2  0  0  0  0
  7  1  1  0  0  0  0
  8  2  1  0  0  0  0
  9  3  1  0  0  0  0
 10  9  1  0  0  0  0
 14 15  2  0  0  0  0
 16 14  2  0  0  0  0
 17  4  1  0  0  0  0
 17 14  1  0  0  0  0
 18 14  1  0  0  0  0
 19 18  1  0  0  0  0
M  RAD  3   1   2   9   2  10   3
M  END
