Coordinates from ORCA-job Ph-N2-HSO4-B3LYPG-aug-cc-pVDZ-scan-d09-49-n400
 OpenBabel11081710403D

 19 17  0  0  0  0  0  0  0  0999 V2000
   -1.1299    0.2992   -0.5066 C   0  0  0  0  0  0  0  0  0  0  0  0
    0.0384    0.8074   -1.1327 C   0  0  0  0  0  0  0  0  0  0  0  0
    1.0696    0.5938   -0.2619 C   0  0  0  0  0  0  0  0  0  0  0  0
    1.2480    0.0875    0.8818 C   0  0  0  0  0  0  0  0  0  0  0  0
    0.0882   -0.4202    1.5154 C   0  0  0  0  0  0  0  0  0  0  0  0
   -1.1001   -0.2918    0.7706 C   0  0  0  0  0  0  0  0  0  0  0  0
   -2.0750    0.3769   -1.0469 H   0  0  0  0  0  0  0  0  0  0  0  0
    0.0546    1.2682   -2.1155 H   0  0  0  0  0  0  0  0  0  0  0  0
    3.1986    1.8757   -1.9871 N   0  0  0  0  0  0  0  0  0  0  0  0
    4.1604    2.3761   -2.1945 N   0  0  0  0  0  0  0  0  0  0  0  0
   -2.0325   -0.6655    1.1970 H   0  0  0  0  0  0  0  0  0  0  0  0
    0.0957   -0.8834    2.5017 H   0  0  0  0  0  0  0  0  0  0  0  0
    2.9144   -0.1283    1.7896 H   0  0  0  0  0  0  0  0  0  0  0  0
    5.0821    0.0798    1.7158 S   0  0  0  0  0  0  0  0  0  0  0  0
    3.6730   -0.3508    2.4012 O   0  0  0  0  0  0  0  0  0  0  0  0
    6.1302   -0.5356    2.5403 O   0  0  0  0  0  0  0  0  0  0  0  0
    5.0014   -0.0607    0.2572 O   0  0  0  0  0  0  0  0  0  0  0  0
    5.1078    1.7133    1.9808 O   0  0  0  0  0  0  0  0  0  0  0  0
    5.4368    1.8500    2.8852 H   0  0  0  0  0  0  0  0  0  0  0  0
  1  6  1  0  0  0  0
  2  1  2  0  0  0  0
  2  3  1  0  0  0  0
  3  4  2  0  0  0  0
  4  5  1  0  0  0  0
  5 12  1  0  0  0  0
  6 11  1  0  0  0  0
  6  5  2  0  0  0  0
  7  1  1  0  0  0  0
  8  2  1  0  0  0  0
 10  9  3  0  0  0  0
 13 15  1  0  0  0  0
 14 18  1  0  0  0  0
 14 15  1  0  0  0  0
 14 16  2  0  0  0  0
 17 14  2  0  0  0  0
 18 19  1  0  0  0  0
M  RAD  2   3   2   4   2
M  END
