Coordinates from ORCA-job Ph-N2-HSO4-B3LYPG-aug-cc-pVDZ-scan-d09-49-n400
 OpenBabel11081710403D

 19 17  0  0  0  0  0  0  0  0999 V2000
   -1.0765    0.3198   -0.4429 C   0  0  0  0  0  0  0  0  0  0  0  0
    0.1725    0.7375   -0.9739 C   0  0  0  0  0  0  0  0  0  0  0  0
    1.1156    0.4286   -0.0325 C   0  0  0  0  0  0  0  0  0  0  0  0
    1.1517   -0.1045    1.1095 C   0  0  0  0  0  0  0  0  0  0  0  0
   -0.0814   -0.5248    1.6547 C   0  0  0  0  0  0  0  0  0  0  0  0
   -1.1935   -0.2872    0.8223 C   0  0  0  0  0  0  0  0  0  0  0  0
   -1.9694    0.4820   -1.0494 H   0  0  0  0  0  0  0  0  0  0  0  0
    0.2981    1.2077   -1.9445 H   0  0  0  0  0  0  0  0  0  0  0  0
    3.5584    2.1507   -2.6266 N   0  0  0  0  0  0  0  0  0  0  0  0
    4.4372    2.6918   -3.0188 N   0  0  0  0  0  0  0  0  0  0  0  0
   -2.1840   -0.5862    1.1694 H   0  0  0  0  0  0  0  0  0  0  0  0
   -0.1866   -0.9979    2.6304 H   0  0  0  0  0  0  0  0  0  0  0  0
    2.9112   -0.3239    1.9297 H   0  0  0  0  0  0  0  0  0  0  0  0
    5.0269    0.1278    1.7066 S   0  0  0  0  0  0  0  0  0  0  0  0
    3.7355   -0.5216    2.4532 O   0  0  0  0  0  0  0  0  0  0  0  0
    6.2012   -0.4513    2.3714 O   0  0  0  0  0  0  0  0  0  0  0  0
    4.8266    0.1268    0.2526 O   0  0  0  0  0  0  0  0  0  0  0  0
    4.9134    1.7185    2.1469 O   0  0  0  0  0  0  0  0  0  0  0  0
    5.3046    1.7975    3.0334 H   0  0  0  0  0  0  0  0  0  0  0  0
  1  6  1  0  0  0  0
  2  1  2  0  0  0  0
  2  3  1  0  0  0  0
  3  4  2  0  0  0  0
  4  5  1  0  0  0  0
  5 12  1  0  0  0  0
  6 11  1  0  0  0  0
  6  5  2  0  0  0  0
  7  1  1  0  0  0  0
  8  2  1  0  0  0  0
 10  9  3  0  0  0  0
 13 15  1  0  0  0  0
 14 18  1  0  0  0  0
 14 16  2  0  0  0  0
 14 15  1  0  0  0  0
 17 14  2  0  0  0  0
 18 19  1  0  0  0  0
M  RAD  2   3   2   4   2
M  END
