Coordinates from ORCA-job Ph-N2-HSO4-B3LYPG-aug-cc-pVDZ-scan-d09-49-n400
 OpenBabel11081710403D

 19 17  0  0  0  0  0  0  0  0999 V2000
   -0.6685    0.4443   -0.4096 C   0  0  0  0  0  0  0  0  0  0  0  0
    0.7101    0.6896   -0.6443 C   0  0  0  0  0  0  0  0  0  0  0  0
    1.3719    0.1873    0.4391 C   0  0  0  0  0  0  0  0  0  0  0  0
    1.1133   -0.4046    1.5268 C   0  0  0  0  0  0  0  0  0  0  0  0
   -0.2599   -0.6499    1.7652 C   0  0  0  0  0  0  0  0  0  0  0  0
   -1.1313   -0.2017    0.7538 C   0  0  0  0  0  0  0  0  0  0  0  0
   -1.3818    0.7745   -1.1668 H   0  0  0  0  0  0  0  0  0  0  0  0
    1.1020    1.1833   -1.5285 H   0  0  0  0  0  0  0  0  0  0  0  0
    3.2519    2.3257   -3.2745 N   0  0  0  0  0  0  0  0  0  0  0  0
    4.2364    2.6422   -3.6609 N   0  0  0  0  0  0  0  0  0  0  0  0
   -2.2046   -0.3601    0.8716 H   0  0  0  0  0  0  0  0  0  0  0  0
   -0.6348   -1.1496    2.6583 H   0  0  0  0  0  0  0  0  0  0  0  0
    2.8986   -0.6684    2.2398 H   0  0  0  0  0  0  0  0  0  0  0  0
    4.7436    0.2540    1.5926 S   0  0  0  0  0  0  0  0  0  0  0  0
    3.8622   -0.7604    2.4974 O   0  0  0  0  0  0  0  0  0  0  0  0
    6.1409   -0.1672    1.7396 O   0  0  0  0  0  0  0  0  0  0  0  0
    4.0955    0.4602    0.2855 O   0  0  0  0  0  0  0  0  0  0  0  0
    4.5452    1.6916    2.3810 O   0  0  0  0  0  0  0  0  0  0  0  0
    5.1710    1.7006    3.1252 H   0  0  0  0  0  0  0  0  0  0  0  0
  1  6  1  0  0  0  0
  2  1  2  0  0  0  0
  2  3  1  0  0  0  0
  3  4  2  0  0  0  0
  4  5  1  0  0  0  0
  5 12  1  0  0  0  0
  6 11  1  0  0  0  0
  6  5  2  0  0  0  0
  7  1  1  0  0  0  0
  8  2  1  0  0  0  0
 10  9  3  0  0  0  0
 13 15  1  0  0  0  0
 14 16  2  0  0  0  0
 14 18  1  0  0  0  0
 14 15  1  0  0  0  0
 17 14  2  0  0  0  0
 18 19  1  0  0  0  0
M  RAD  2   3   2   4   2
M  END
