Coordinates from ORCA-job Ph-N2-HSO4-B3LYPG-aug-cc-pVDZ-scan-d09-49-n400
 OpenBabel11081710403D

 19 17  0  0  0  0  0  0  0  0999 V2000
   -1.1193    0.2920   -0.5360 C   0  0  0  0  0  0  0  0  0  0  0  0
    0.0238    0.8207   -1.1890 C   0  0  0  0  0  0  0  0  0  0  0  0
    1.0762    0.6456   -0.3375 C   0  0  0  0  0  0  0  0  0  0  0  0
    1.3036    0.1606    0.8093 C   0  0  0  0  0  0  0  0  0  0  0  0
    0.1611   -0.3664    1.4645 C   0  0  0  0  0  0  0  0  0  0  0  0
   -1.0469   -0.2808    0.7474 C   0  0  0  0  0  0  0  0  0  0  0  0
   -2.0761    0.3388   -1.0588 H   0  0  0  0  0  0  0  0  0  0  0  0
    0.0104    1.2691   -2.1775 H   0  0  0  0  0  0  0  0  0  0  0  0
    2.9935    1.7784   -1.8004 N   0  0  0  0  0  0  0  0  0  0  0  0
    3.9733    2.2666   -1.9419 N   0  0  0  0  0  0  0  0  0  0  0  0
   -1.9591   -0.6737    1.1994 H   0  0  0  0  0  0  0  0  0  0  0  0
    0.2012   -0.8171    2.4561 H   0  0  0  0  0  0  0  0  0  0  0  0
    2.9067   -0.0650    1.7541 H   0  0  0  0  0  0  0  0  0  0  0  0
    5.0838    0.0630    1.7259 S   0  0  0  0  0  0  0  0  0  0  0  0
    3.6477   -0.2981    2.3896 O   0  0  0  0  0  0  0  0  0  0  0  0
    6.0933   -0.5806    2.5772 O   0  0  0  0  0  0  0  0  0  0  0  0
    5.0240   -0.0959    0.2679 O   0  0  0  0  0  0  0  0  0  0  0  0
    5.1730    1.6987    1.9666 O   0  0  0  0  0  0  0  0  0  0  0  0
    5.4915    1.8356    2.8747 H   0  0  0  0  0  0  0  0  0  0  0  0
  1  6  1  0  0  0  0
  2  1  2  0  0  0  0
  2  3  1  0  0  0  0
  3  4  2  0  0  0  0
  4  5  1  0  0  0  0
  5 12  1  0  0  0  0
  6 11  1  0  0  0  0
  6  5  2  0  0  0  0
  7  1  1  0  0  0  0
  8  2  1  0  0  0  0
 10  9  3  0  0  0  0
 13 15  1  0  0  0  0
 14 18  1  0  0  0  0
 14 15  1  0  0  0  0
 14 16  2  0  0  0  0
 17 14  2  0  0  0  0
 18 19  1  0  0  0  0
M  RAD  2   3   2   4   2
M  END
