Coordinates from ORCA-job Ph-N2-HSO4-B3LYPG-aug-cc-pVDZ-scan-d09-49-n400
 OpenBabel11081710403D

 19 17  0  0  0  0  0  0  0  0999 V2000
   -1.1107    0.3143   -0.4565 C   0  0  0  0  0  0  0  0  0  0  0  0
    0.1102    0.7704   -1.0198 C   0  0  0  0  0  0  0  0  0  0  0  0
    1.0892    0.4903   -0.1067 C   0  0  0  0  0  0  0  0  0  0  0  0
    1.1751   -0.0437    1.0332 C   0  0  0  0  0  0  0  0  0  0  0  0
   -0.0313   -0.5017    1.6092 C   0  0  0  0  0  0  0  0  0  0  0  0
   -1.1734   -0.2976    0.8095 C   0  0  0  0  0  0  0  0  0  0  0  0
   -2.0243    0.4502   -1.0380 H   0  0  0  0  0  0  0  0  0  0  0  0
    0.1941    1.2451   -1.9926 H   0  0  0  0  0  0  0  0  0  0  0  0
    3.4959    2.0469   -2.3938 N   0  0  0  0  0  0  0  0  0  0  0  0
    4.4106    2.5682   -2.7259 N   0  0  0  0  0  0  0  0  0  0  0  0
   -2.1440   -0.6278    1.1836 H   0  0  0  0  0  0  0  0  0  0  0  0
   -0.0949   -0.9798    2.5861 H   0  0  0  0  0  0  0  0  0  0  0  0
    2.9139   -0.2576    1.8734 H   0  0  0  0  0  0  0  0  0  0  0  0
    5.0496    0.1186    1.6986 S   0  0  0  0  0  0  0  0  0  0  0  0
    3.7171   -0.4630    2.4268 O   0  0  0  0  0  0  0  0  0  0  0  0
    6.1845   -0.4667    2.4239 O   0  0  0  0  0  0  0  0  0  0  0  0
    4.8957    0.0653    0.2403 O   0  0  0  0  0  0  0  0  0  0  0  0
    4.9696    1.7284    2.0726 O   0  0  0  0  0  0  0  0  0  0  0  0
    5.3348    1.8316    2.9676 H   0  0  0  0  0  0  0  0  0  0  0  0
  1  6  1  0  0  0  0
  2  1  2  0  0  0  0
  2  3  1  0  0  0  0
  3  4  2  0  0  0  0
  4  5  1  0  0  0  0
  5 12  1  0  0  0  0
  6 11  1  0  0  0  0
  6  5  2  0  0  0  0
  7  1  1  0  0  0  0
  8  2  1  0  0  0  0
 10  9  3  0  0  0  0
 13 15  1  0  0  0  0
 14 18  1  0  0  0  0
 14 16  2  0  0  0  0
 14 15  1  0  0  0  0
 17 14  2  0  0  0  0
 18 19  1  0  0  0  0
M  RAD  2   3   2   4   2
M  END
