Coordinates from ORCA-job Ph-N2-HSO4-B3LYPG-aug-cc-pVDZ-scan-d09-49-n400
 OpenBabel11081710403D

 19 17  0  0  0  0  0  0  0  0999 V2000
   -1.0676    0.3216   -0.4402 C   0  0  0  0  0  0  0  0  0  0  0  0
    0.1871    0.7289   -0.9658 C   0  0  0  0  0  0  0  0  0  0  0  0
    1.1229    0.4144   -0.0188 C   0  0  0  0  0  0  0  0  0  0  0  0
    1.1490   -0.1178    1.1239 C   0  0  0  0  0  0  0  0  0  0  0  0
   -0.0897   -0.5282    1.6635 C   0  0  0  0  0  0  0  0  0  0  0  0
   -1.1957   -0.2830    0.8251 C   0  0  0  0  0  0  0  0  0  0  0  0
   -1.9562    0.4896   -1.0513 H   0  0  0  0  0  0  0  0  0  0  0  0
    0.3214    1.1970   -1.9362 H   0  0  0  0  0  0  0  0  0  0  0  0
    3.5647    2.1747   -2.6798 N   0  0  0  0  0  0  0  0  0  0  0  0
    4.4342    2.7212   -3.0852 N   0  0  0  0  0  0  0  0  0  0  0  0
   -2.1903   -0.5740    1.1674 H   0  0  0  0  0  0  0  0  0  0  0  0
   -0.2035   -0.9994    2.6391 H   0  0  0  0  0  0  0  0  0  0  0  0
    2.9107   -0.3390    1.9415 H   0  0  0  0  0  0  0  0  0  0  0  0
    5.0218    0.1283    1.7111 S   0  0  0  0  0  0  0  0  0  0  0  0
    3.7387   -0.5352    2.4595 O   0  0  0  0  0  0  0  0  0  0  0  0
    6.2035   -0.4490    2.3643 O   0  0  0  0  0  0  0  0  0  0  0  0
    4.8131    0.1382    0.2583 O   0  0  0  0  0  0  0  0  0  0  0  0
    4.9011    1.7145    2.1652 O   0  0  0  0  0  0  0  0  0  0  0  0
    5.2965    1.7886    3.0502 H   0  0  0  0  0  0  0  0  0  0  0  0
  1  6  1  0  0  0  0
  2  1  2  0  0  0  0
  2  3  1  0  0  0  0
  3  4  2  0  0  0  0
  4  5  1  0  0  0  0
  5 12  1  0  0  0  0
  6 11  1  0  0  0  0
  6  5  2  0  0  0  0
  7  1  1  0  0  0  0
  8  2  1  0  0  0  0
 10  9  3  0  0  0  0
 13 15  1  0  0  0  0
 14 18  1  0  0  0  0
 14 16  2  0  0  0  0
 14 15  1  0  0  0  0
 17 14  2  0  0  0  0
 18 19  1  0  0  0  0
M  RAD  2   3   2   4   2
M  END
