Coordinates from ORCA-job Ph-N2-HSO4-B3LYPG-aug-cc-pVDZ-scan-d09-49-n400
 OpenBabel11081710403D

 19 17  0  0  0  0  0  0  0  0999 V2000
   -1.1260    0.3073   -0.4758 C   0  0  0  0  0  0  0  0  0  0  0  0
    0.0686    0.7912   -1.0715 C   0  0  0  0  0  0  0  0  0  0  0  0
    1.0746    0.5402   -0.1805 C   0  0  0  0  0  0  0  0  0  0  0  0
    1.2075    0.0170    0.9605 C   0  0  0  0  0  0  0  0  0  0  0  0
    0.0250   -0.4671    1.5668 C   0  0  0  0  0  0  0  0  0  0  0  0
   -1.1414   -0.2980    0.7951 C   0  0  0  0  0  0  0  0  0  0  0  0
   -2.0568    0.4159   -1.0355 H   0  0  0  0  0  0  0  0  0  0  0  0
    0.1179    1.2619   -2.0486 H   0  0  0  0  0  0  0  0  0  0  0  0
    3.3866    1.9668   -2.2019 N   0  0  0  0  0  0  0  0  0  0  0  0
    4.3254    2.4777   -2.4775 N   0  0  0  0  0  0  0  0  0  0  0  0
   -2.0933   -0.6505    1.1956 H   0  0  0  0  0  0  0  0  0  0  0  0
   -0.0021   -0.9403    2.5478 H   0  0  0  0  0  0  0  0  0  0  0  0
    2.9118   -0.2020    1.8326 H   0  0  0  0  0  0  0  0  0  0  0  0
    5.0637    0.1020    1.7033 S   0  0  0  0  0  0  0  0  0  0  0  0
    3.6951   -0.4144    2.4134 O   0  0  0  0  0  0  0  0  0  0  0  0
    6.1609   -0.4933    2.4770 O   0  0  0  0  0  0  0  0  0  0  0  0
    4.9460    0.0061    0.2437 O   0  0  0  0  0  0  0  0  0  0  0  0
    5.0249    1.7250    2.0238 O   0  0  0  0  0  0  0  0  0  0  0  0
    5.3733    1.8462    2.9232 H   0  0  0  0  0  0  0  0  0  0  0  0
  1  6  1  0  0  0  0
  2  1  2  0  0  0  0
  2  3  1  0  0  0  0
  3  4  2  0  0  0  0
  4  5  1  0  0  0  0
  5 12  1  0  0  0  0
  6 11  1  0  0  0  0
  6  5  2  0  0  0  0
  7  1  1  0  0  0  0
  8  2  1  0  0  0  0
 10  9  3  0  0  0  0
 13 15  1  0  0  0  0
 14 18  1  0  0  0  0
 14 15  1  0  0  0  0
 14 16  2  0  0  0  0
 17 14  2  0  0  0  0
 18 19  1  0  0  0  0
M  RAD  2   3   2   4   2
M  END
