Coordinates from ORCA-job Ph-N2-HSO4-B3LYPG-aug-cc-pVDZ-scan-d09-49-n400
 OpenBabel11081710403D

 19 17  0  0  0  0  0  0  0  0999 V2000
   -1.1180    0.2922   -0.5376 C   0  0  0  0  0  0  0  0  0  0  0  0
    0.0227    0.8219   -1.1935 C   0  0  0  0  0  0  0  0  0  0  0  0
    1.0778    0.6495   -0.3448 C   0  0  0  0  0  0  0  0  0  0  0  0
    1.3096    0.1660    0.8021 C   0  0  0  0  0  0  0  0  0  0  0  0
    0.1687   -0.3621    1.4597 C   0  0  0  0  0  0  0  0  0  0  0  0
   -1.0414   -0.2793    0.7461 C   0  0  0  0  0  0  0  0  0  0  0  0
   -2.0761    0.3370   -1.0583 H   0  0  0  0  0  0  0  0  0  0  0  0
    0.0062    1.2695   -2.1823 H   0  0  0  0  0  0  0  0  0  0  0  0
    2.9790    1.7683   -1.7848 N   0  0  0  0  0  0  0  0  0  0  0  0
    3.9604    2.2548   -1.9202 N   0  0  0  0  0  0  0  0  0  0  0  0
   -1.9516   -0.6733    1.2010 H   0  0  0  0  0  0  0  0  0  0  0  0
    0.2121   -0.8118    2.4517 H   0  0  0  0  0  0  0  0  0  0  0  0
    2.9049   -0.0619    1.7514 H   0  0  0  0  0  0  0  0  0  0  0  0
    5.0820    0.0625    1.7260 S   0  0  0  0  0  0  0  0  0  0  0  0
    3.6450   -0.2960    2.3884 O   0  0  0  0  0  0  0  0  0  0  0  0
    6.0904   -0.5824    2.5776 O   0  0  0  0  0  0  0  0  0  0  0  0
    5.0227   -0.0963    0.2679 O   0  0  0  0  0  0  0  0  0  0  0  0
    5.1741    1.6982    1.9666 O   0  0  0  0  0  0  0  0  0  0  0  0
    5.4933    1.8345    2.8745 H   0  0  0  0  0  0  0  0  0  0  0  0
  1  6  1  0  0  0  0
  2  1  2  0  0  0  0
  2  3  1  0  0  0  0
  3  4  2  0  0  0  0
  4  5  1  0  0  0  0
  5 12  1  0  0  0  0
  6 11  1  0  0  0  0
  6  5  2  0  0  0  0
  7  1  1  0  0  0  0
  8  2  1  0  0  0  0
 10  9  3  0  0  0  0
 13 15  1  0  0  0  0
 14 18  1  0  0  0  0
 14 15  1  0  0  0  0
 14 16  2  0  0  0  0
 17 14  2  0  0  0  0
 18 19  1  0  0  0  0
M  RAD  2   3   2   4   2
M  END
