Coordinates from ORCA-job Ph-N2-HSO4-B3LYPG-aug-cc-pVDZ-scan-d09-49-n400
 OpenBabel11081710403D

 19 17  0  0  0  0  0  0  0  0999 V2000
   -0.7278    0.4406   -0.4148 C   0  0  0  0  0  0  0  0  0  0  0  0
    0.6405    0.7023   -0.6890 C   0  0  0  0  0  0  0  0  0  0  0  0
    1.3403    0.2104    0.3758 C   0  0  0  0  0  0  0  0  0  0  0  0
    1.1143   -0.3813    1.4695 C   0  0  0  0  0  0  0  0  0  0  0  0
   -0.2465   -0.6447    1.7505 C   0  0  0  0  0  0  0  0  0  0  0  0
   -1.1504   -0.2086    0.7621 C   0  0  0  0  0  0  0  0  0  0  0  0
   -1.4664    0.7604   -1.1520 H   0  0  0  0  0  0  0  0  0  0  0  0
    1.0027    1.1989   -1.5840 H   0  0  0  0  0  0  0  0  0  0  0  0
    3.2996    2.2258   -3.0596 N   0  0  0  0  0  0  0  0  0  0  0  0
    4.3291    2.5139   -3.3349 N   0  0  0  0  0  0  0  0  0  0  0  0
   -2.2180   -0.3795    0.9099 H   0  0  0  0  0  0  0  0  0  0  0  0
   -0.5898   -1.1469    2.6546 H   0  0  0  0  0  0  0  0  0  0  0  0
    2.9180   -0.6364    2.1674 H   0  0  0  0  0  0  0  0  0  0  0  0
    4.7735    0.2813    1.5433 S   0  0  0  0  0  0  0  0  0  0  0  0
    3.8764   -0.7317    2.4367 O   0  0  0  0  0  0  0  0  0  0  0  0
    6.1668   -0.1460    1.7112 O   0  0  0  0  0  0  0  0  0  0  0  0
    4.1432    0.4906    0.2292 O   0  0  0  0  0  0  0  0  0  0  0  0
    4.5694    1.7182    2.3323 O   0  0  0  0  0  0  0  0  0  0  0  0
    5.1870    1.7241    3.0833 H   0  0  0  0  0  0  0  0  0  0  0  0
  1  6  1  0  0  0  0
  2  1  2  0  0  0  0
  2  3  1  0  0  0  0
  3  4  2  0  0  0  0
  4  5  1  0  0  0  0
  5 12  1  0  0  0  0
  6 11  1  0  0  0  0
  6  5  2  0  0  0  0
  7  1  1  0  0  0  0
  8  2  1  0  0  0  0
 10  9  3  0  0  0  0
 13 15  1  0  0  0  0
 14 16  2  0  0  0  0
 14 18  1  0  0  0  0
 14 15  1  0  0  0  0
 17 14  2  0  0  0  0
 18 19  1  0  0  0  0
M  RAD  2   3   2   4   2
M  END
