Coordinates from ORCA-job Ph-N2-HSO4-B3LYPG-aug-cc-pVDZ-scan-d09-49-n400
 OpenBabel11081710403D

 19 17  0  0  0  0  0  0  0  0999 V2000
   -1.0287    0.3253   -0.4314 C   0  0  0  0  0  0  0  0  0  0  0  0
    0.2491    0.6835   -0.9360 C   0  0  0  0  0  0  0  0  0  0  0  0
    1.1565    0.3474    0.0310 C   0  0  0  0  0  0  0  0  0  0  0  0
    1.1405   -0.1723    1.1801 C   0  0  0  0  0  0  0  0  0  0  0  0
   -0.1217   -0.5342    1.6994 C   0  0  0  0  0  0  0  0  0  0  0  0
   -1.2022   -0.2604    0.8372 C   0  0  0  0  0  0  0  0  0  0  0  0
   -1.8990    0.5168   -1.0617 H   0  0  0  0  0  0  0  0  0  0  0  0
    0.4177    1.1364   -1.9083 H   0  0  0  0  0  0  0  0  0  0  0  0
    3.5824    2.2903   -2.9093 N   0  0  0  0  0  0  0  0  0  0  0  0
    4.4081    2.8615   -3.3687 N   0  0  0  0  0  0  0  0  0  0  0  0
   -2.2127   -0.5129    1.1628 H   0  0  0  0  0  0  0  0  0  0  0  0
   -0.2707   -0.9899    2.6777 H   0  0  0  0  0  0  0  0  0  0  0  0
    2.9092   -0.4046    1.9922 H   0  0  0  0  0  0  0  0  0  0  0  0
    4.9994    0.1258    1.7355 S   0  0  0  0  0  0  0  0  0  0  0  0
    3.7511   -0.5949    2.4891 O   0  0  0  0  0  0  0  0  0  0  0  0
    6.2106   -0.4435    2.3397 O   0  0  0  0  0  0  0  0  0  0  0  0
    4.7545    0.1804    0.2894 O   0  0  0  0  0  0  0  0  0  0  0  0
    4.8513    1.6917    2.2477 O   0  0  0  0  0  0  0  0  0  0  0  0
    5.2662    1.7451    3.1253 H   0  0  0  0  0  0  0  0  0  0  0  0
  1  6  1  0  0  0  0
  2  1  2  0  0  0  0
  2  3  1  0  0  0  0
  3  4  2  0  0  0  0
  4  5  1  0  0  0  0
  5 12  1  0  0  0  0
  6 11  1  0  0  0  0
  6  5  2  0  0  0  0
  7  1  1  0  0  0  0
  8  2  1  0  0  0  0
 10  9  3  0  0  0  0
 13 15  1  0  0  0  0
 14 18  1  0  0  0  0
 14 16  2  0  0  0  0
 14 15  1  0  0  0  0
 17 14  2  0  0  0  0
 18 19  1  0  0  0  0
M  RAD  2   3   2   4   2
M  END
