Coordinates from ORCA-job Ph-N2-HSO4-B3LYPG-aug-cc-pVDZ-scan-d09-49-n400
 OpenBabel11081710403D

 19 17  0  0  0  0  0  0  0  0999 V2000
   -1.1285    0.2972   -0.5226 C   0  0  0  0  0  0  0  0  0  0  0  0
    0.0307    0.8155   -1.1588 C   0  0  0  0  0  0  0  0  0  0  0  0
    1.0639    0.6154   -0.2907 C   0  0  0  0  0  0  0  0  0  0  0  0
    1.2689    0.1191    0.8537 C   0  0  0  0  0  0  0  0  0  0  0  0
    0.1134   -0.3974    1.4926 C   0  0  0  0  0  0  0  0  0  0  0  0
   -1.0825   -0.2870    0.7571 C   0  0  0  0  0  0  0  0  0  0  0  0
   -2.0780    0.3615   -1.0571 H   0  0  0  0  0  0  0  0  0  0  0  0
    0.0364    1.2715   -2.1437 H   0  0  0  0  0  0  0  0  0  0  0  0
    3.0940    1.8257   -1.8921 N   0  0  0  0  0  0  0  0  0  0  0  0
    4.0652    2.3198   -2.0678 N   0  0  0  0  0  0  0  0  0  0  0  0
   -2.0072   -0.6694    1.1922 H   0  0  0  0  0  0  0  0  0  0  0  0
    0.1328   -0.8561    2.4810 H   0  0  0  0  0  0  0  0  0  0  0  0
    2.9170   -0.0916    1.7651 H   0  0  0  0  0  0  0  0  0  0  0  0
    5.0961    0.0722    1.7198 S   0  0  0  0  0  0  0  0  0  0  0  0
    3.6681   -0.3224    2.3857 O   0  0  0  0  0  0  0  0  0  0  0  0
    6.1166   -0.5566    2.5687 O   0  0  0  0  0  0  0  0  0  0  0  0
    5.0416   -0.0808    0.2609 O   0  0  0  0  0  0  0  0  0  0  0  0
    5.1514    1.7079    1.9684 O   0  0  0  0  0  0  0  0  0  0  0  0
    5.4619    1.8470    2.8791 H   0  0  0  0  0  0  0  0  0  0  0  0
  1  6  1  0  0  0  0
  2  1  2  0  0  0  0
  2  3  1  0  0  0  0
  3  4  2  0  0  0  0
  4  5  1  0  0  0  0
  5 12  1  0  0  0  0
  6 11  1  0  0  0  0
  6  5  2  0  0  0  0
  7  1  1  0  0  0  0
  8  2  1  0  0  0  0
 10  9  3  0  0  0  0
 13 15  1  0  0  0  0
 14 18  1  0  0  0  0
 14 15  1  0  0  0  0
 14 16  2  0  0  0  0
 17 14  2  0  0  0  0
 18 19  1  0  0  0  0
M  RAD  2   3   2   4   2
M  END
