Coordinates from ORCA-job Ph-N2-HSO4-B3LYPG-aug-cc-pVDZ-scan-d09-49-n400
 OpenBabel11081710403D

 19 17  0  0  0  0  0  0  0  0999 V2000
   -1.1275    0.3053   -0.4850 C   0  0  0  0  0  0  0  0  0  0  0  0
    0.0593    0.7963   -1.0902 C   0  0  0  0  0  0  0  0  0  0  0  0
    1.0732    0.5560   -0.2055 C   0  0  0  0  0  0  0  0  0  0  0  0
    1.2194    0.0374    0.9363 C   0  0  0  0  0  0  0  0  0  0  0  0
    0.0439   -0.4536    1.5514 C   0  0  0  0  0  0  0  0  0  0  0  0
   -1.1293   -0.2959    0.7879 C   0  0  0  0  0  0  0  0  0  0  0  0
   -2.0629    0.4051   -1.0387 H   0  0  0  0  0  0  0  0  0  0  0  0
    0.0985    1.2642   -2.0690 H   0  0  0  0  0  0  0  0  0  0  0  0
    3.3304    1.9398   -2.1347 N   0  0  0  0  0  0  0  0  0  0  0  0
    4.2763    2.4481   -2.3901 N   0  0  0  0  0  0  0  0  0  0  0  0
   -2.0756   -0.6546    1.1963 H   0  0  0  0  0  0  0  0  0  0  0  0
    0.0272   -0.9239    2.5341 H   0  0  0  0  0  0  0  0  0  0  0  0
    2.9130   -0.1806    1.8192 H   0  0  0  0  0  0  0  0  0  0  0  0
    5.0701    0.0946    1.7071 S   0  0  0  0  0  0  0  0  0  0  0  0
    3.6886   -0.3958    2.4099 O   0  0  0  0  0  0  0  0  0  0  0  0
    6.1524   -0.5049    2.4984 O   0  0  0  0  0  0  0  0  0  0  0  0
    4.9652   -0.0175    0.2477 O   0  0  0  0  0  0  0  0  0  0  0  0
    5.0489    1.7218    2.0076 O   0  0  0  0  0  0  0  0  0  0  0  0
    5.3905    1.8495    2.9087 H   0  0  0  0  0  0  0  0  0  0  0  0
  1  6  1  0  0  0  0
  2  1  2  0  0  0  0
  2  3  1  0  0  0  0
  3  4  2  0  0  0  0
  4  5  1  0  0  0  0
  5 12  1  0  0  0  0
  6 11  1  0  0  0  0
  6  5  2  0  0  0  0
  7  1  1  0  0  0  0
  8  2  1  0  0  0  0
 10  9  3  0  0  0  0
 13 15  1  0  0  0  0
 14 18  1  0  0  0  0
 14 15  1  0  0  0  0
 14 16  2  0  0  0  0
 17 14  2  0  0  0  0
 18 19  1  0  0  0  0
M  RAD  2   3   2   4   2
M  END
