Coordinates from ORCA-job Ph-N2-HSO4-B3LYPG-aug-cc-pVDZ-scan-d09-49-n400
 OpenBabel11081710403D

 19 17  0  0  0  0  0  0  0  0999 V2000
   -1.1161    0.2925   -0.5383 C   0  0  0  0  0  0  0  0  0  0  0  0
    0.0233    0.8226   -1.1957 C   0  0  0  0  0  0  0  0  0  0  0  0
    1.0805    0.6518   -0.3489 C   0  0  0  0  0  0  0  0  0  0  0  0
    1.3148    0.1692    0.7982 C   0  0  0  0  0  0  0  0  0  0  0  0
    0.1744   -0.3593    1.4568 C   0  0  0  0  0  0  0  0  0  0  0  0
   -1.0370   -0.2783    0.7455 C   0  0  0  0  0  0  0  0  0  0  0  0
   -2.0748    0.3364   -1.0578 H   0  0  0  0  0  0  0  0  0  0  0  0
    0.0043    1.2694   -2.1849 H   0  0  0  0  0  0  0  0  0  0  0  0
    2.9715    1.7606   -1.7734 N   0  0  0  0  0  0  0  0  0  0  0  0
    3.9542    2.2458   -1.9045 N   0  0  0  0  0  0  0  0  0  0  0  0
   -1.9460   -0.6729    1.2022 H   0  0  0  0  0  0  0  0  0  0  0  0
    0.2197   -0.8084    2.4490 H   0  0  0  0  0  0  0  0  0  0  0  0
    2.9023   -0.0602    1.7498 H   0  0  0  0  0  0  0  0  0  0  0  0
    5.0784    0.0629    1.7247 S   0  0  0  0  0  0  0  0  0  0  0  0
    3.6420   -0.2950    2.3877 O   0  0  0  0  0  0  0  0  0  0  0  0
    6.0879   -0.5829    2.5744 O   0  0  0  0  0  0  0  0  0  0  0  0
    5.0171   -0.0949    0.2665 O   0  0  0  0  0  0  0  0  0  0  0  0
    5.1718    1.6985    1.9664 O   0  0  0  0  0  0  0  0  0  0  0  0
    5.4934    1.8338    2.8737 H   0  0  0  0  0  0  0  0  0  0  0  0
  1  6  1  0  0  0  0
  2  1  2  0  0  0  0
  2  3  1  0  0  0  0
  3  4  2  0  0  0  0
  4  5  1  0  0  0  0
  5 12  1  0  0  0  0
  6 11  1  0  0  0  0
  6  5  2  0  0  0  0
  7  1  1  0  0  0  0
  8  2  1  0  0  0  0
 10  9  3  0  0  0  0
 13 15  1  0  0  0  0
 14 18  1  0  0  0  0
 14 15  1  0  0  0  0
 14 16  2  0  0  0  0
 17 14  2  0  0  0  0
 18 19  1  0  0  0  0
M  RAD  2   3   2   4   2
M  END
