Coordinates from ORCA-job Ph-N2-HSO4-B3LYPG-aug-cc-pVDZ-scan-d09-49-n400
 OpenBabel11081710403D

 19 18  0  0  0  0  0  0  0  0999 V2000
   -0.7271    0.1412   -0.7938 C   0  0  0  0  0  0  0  0  0  0  0  0
    0.4800    0.7857   -1.0514 C   0  0  0  0  0  0  0  0  0  0  0  0
    1.4120    0.8224   -0.0054 C   0  0  0  0  0  0  0  0  0  0  0  0
    1.2256    0.2659    1.2603 C   0  0  0  0  0  0  0  0  0  0  0  0
   -0.0031   -0.3564    1.4819 C   0  0  0  0  0  0  0  0  0  0  0  0
   -0.9655   -0.4236    0.4671 C   0  0  0  0  0  0  0  0  0  0  0  0
   -1.4797    0.0796   -1.5786 H   0  0  0  0  0  0  0  0  0  0  0  0
    0.6977    1.2344   -2.0185 H   0  0  0  0  0  0  0  0  0  0  0  0
    2.6410    1.5398   -0.2907 N   0  0  0  0  0  0  0  0  0  0  0  0
    3.3790    2.2830   -0.6642 N   0  0  0  0  0  0  0  0  0  0  0  0
   -1.9137   -0.9268    0.6567 H   0  0  0  0  0  0  0  0  0  0  0  0
   -0.1999   -0.8042    2.4549 H   0  0  0  0  0  0  0  0  0  0  0  0
    2.0224    0.3251    2.0085 H   0  0  0  0  0  0  0  0  0  0  0  0
    4.7760    0.1931    1.7207 S   0  0  0  0  0  0  0  0  0  0  0  0
    3.8422    0.6527    2.7998 O   0  0  0  0  0  0  0  0  0  0  0  0
    5.9454   -0.6331    2.1131 O   0  0  0  0  0  0  0  0  0  0  0  0
    4.0175   -0.3141    0.5046 O   0  0  0  0  0  0  0  0  0  0  0  0
    5.4446    1.6663    1.1700 O   0  0  0  0  0  0  0  0  0  0  0  0
    6.3675    1.4604    0.9564 H   0  0  0  0  0  0  0  0  0  0  0  0
  1  6  1  0  0  0  0
  2  1  2  0  0  0  0
  2  3  1  0  0  0  0
  3  4  2  0  0  0  0
  4  5  1  0  0  0  0
  4 13  1  0  0  0  0
  5 12  1  0  0  0  0
  6 11  1  0  0  0  0
  6  5  2  0  0  0  0
  7  1  1  0  0  0  0
  8  2  1  0  0  0  0
  9  3  1  0  0  0  0
 10  9  1  0  0  0  0
 14 16  2  0  0  0  0
 14 15  1  0  0  0  0
 17 14  2  0  0  0  0
 18 14  1  0  0  0  0
 19 18  1  0  0  0  0
M  RAD  3   9   2  10   3  15   2
M  END
