Coordinates from ORCA-job Ph-N2-HSO4-B3LYPG-aug-cc-pVDZ-scan-d09-49-n400
 OpenBabel11081710403D

 19 17  0  0  0  0  0  0  0  0999 V2000
   -1.1298    0.3002   -0.5031 C   0  0  0  0  0  0  0  0  0  0  0  0
    0.0414    0.8057   -1.1261 C   0  0  0  0  0  0  0  0  0  0  0  0
    1.0700    0.5877   -0.2532 C   0  0  0  0  0  0  0  0  0  0  0  0
    1.2432    0.0793    0.8902 C   0  0  0  0  0  0  0  0  0  0  0  0
    0.0810   -0.4257    1.5212 C   0  0  0  0  0  0  0  0  0  0  0  0
   -1.1050   -0.2925    0.7734 C   0  0  0  0  0  0  0  0  0  0  0  0
   -2.0735    0.3815   -1.0455 H   0  0  0  0  0  0  0  0  0  0  0  0
    0.0610    1.2676   -2.1082 H   0  0  0  0  0  0  0  0  0  0  0  0
    3.2203    1.8864   -2.0101 N   0  0  0  0  0  0  0  0  0  0  0  0
    4.1796    2.3881   -2.2251 N   0  0  0  0  0  0  0  0  0  0  0  0
   -2.0396   -0.6639    1.1970 H   0  0  0  0  0  0  0  0  0  0  0  0
    0.0848   -0.8902    2.5068 H   0  0  0  0  0  0  0  0  0  0  0  0
    2.9143   -0.1368    1.7944 H   0  0  0  0  0  0  0  0  0  0  0  0
    5.0804    0.0819    1.7145 S   0  0  0  0  0  0  0  0  0  0  0  0
    3.6755   -0.3578    2.4029 O   0  0  0  0  0  0  0  0  0  0  0  0
    6.1339   -0.5305    2.5344 O   0  0  0  0  0  0  0  0  0  0  0  0
    4.9962   -0.0550    0.2559 O   0  0  0  0  0  0  0  0  0  0  0  0
    5.0985    1.7148    1.9841 O   0  0  0  0  0  0  0  0  0  0  0  0
    5.4295    1.8505    2.8880 H   0  0  0  0  0  0  0  0  0  0  0  0
  1  6  1  0  0  0  0
  2  1  2  0  0  0  0
  2  3  1  0  0  0  0
  3  4  2  0  0  0  0
  4  5  1  0  0  0  0
  5 12  1  0  0  0  0
  6 11  1  0  0  0  0
  6  5  2  0  0  0  0
  7  1  1  0  0  0  0
  8  2  1  0  0  0  0
 10  9  3  0  0  0  0
 13 15  1  0  0  0  0
 14 18  1  0  0  0  0
 14 15  1  0  0  0  0
 14 16  2  0  0  0  0
 17 14  2  0  0  0  0
 18 19  1  0  0  0  0
M  RAD  2   3   2   4   2
M  END
