Coordinates from ORCA-job Ph-N2-HSO4-B3LYPG-aug-cc-pVDZ-scan-d09-49-n400
 OpenBabel11081710403D

 19 17  0  0  0  0  0  0  0  0999 V2000
   -1.1001    0.3157   -0.4508 C   0  0  0  0  0  0  0  0  0  0  0  0
    0.1313    0.7576   -1.0023 C   0  0  0  0  0  0  0  0  0  0  0  0
    1.0981    0.4670   -0.0793 C   0  0  0  0  0  0  0  0  0  0  0  0
    1.1649   -0.0670    1.0617 C   0  0  0  0  0  0  0  0  0  0  0  0
   -0.0515   -0.5111    1.6267 C   0  0  0  0  0  0  0  0  0  0  0  0
   -1.1828   -0.2945    0.8150 C   0  0  0  0  0  0  0  0  0  0  0  0
   -2.0063    0.4614   -1.0416 H   0  0  0  0  0  0  0  0  0  0  0  0
    0.2305    1.2306   -1.9745 H   0  0  0  0  0  0  0  0  0  0  0  0
    3.5262    2.0856   -2.4777 N   0  0  0  0  0  0  0  0  0  0  0  0
    4.4286    2.6139   -2.8317 N   0  0  0  0  0  0  0  0  0  0  0  0
   -2.1609   -0.6132    1.1794 H   0  0  0  0  0  0  0  0  0  0  0  0
   -0.1303   -0.9874    2.6033 H   0  0  0  0  0  0  0  0  0  0  0  0
    2.9133   -0.2814    1.8932 H   0  0  0  0  0  0  0  0  0  0  0  0
    5.0415    0.1230    1.6999 S   0  0  0  0  0  0  0  0  0  0  0  0
    3.7243   -0.4839    2.4357 O   0  0  0  0  0  0  0  0  0  0  0  0
    6.1917   -0.4605    2.4021 O   0  0  0  0  0  0  0  0  0  0  0  0
    4.8696    0.0896    0.2430 O   0  0  0  0  0  0  0  0  0  0  0  0
    4.9490    1.7260    2.0989 O   0  0  0  0  0  0  0  0  0  0  0  0
    5.3244    1.8199    2.9907 H   0  0  0  0  0  0  0  0  0  0  0  0
  1  6  1  0  0  0  0
  2  1  2  0  0  0  0
  2  3  1  0  0  0  0
  3  4  2  0  0  0  0
  4  5  1  0  0  0  0
  5 12  1  0  0  0  0
  6 11  1  0  0  0  0
  6  5  2  0  0  0  0
  7  1  1  0  0  0  0
  8  2  1  0  0  0  0
 10  9  3  0  0  0  0
 13 15  1  0  0  0  0
 14 18  1  0  0  0  0
 14 16  2  0  0  0  0
 14 15  1  0  0  0  0
 17 14  2  0  0  0  0
 18 19  1  0  0  0  0
M  RAD  2   3   2   4   2
M  END
