Coordinates from ORCA-job Ph-N2-HSO4-B3LYPG-aug-cc-pVDZ-scan-d09-49-n400
 OpenBabel11081710403D

 19 17  0  0  0  0  0  0  0  0999 V2000
   -1.0732    0.3205   -0.4421 C   0  0  0  0  0  0  0  0  0  0  0  0
    0.1777    0.7354   -0.9706 C   0  0  0  0  0  0  0  0  0  0  0  0
    1.1182    0.4245   -0.0272 C   0  0  0  0  0  0  0  0  0  0  0  0
    1.1507   -0.1086    1.1149 C   0  0  0  0  0  0  0  0  0  0  0  0
   -0.0843   -0.5261    1.6577 C   0  0  0  0  0  0  0  0  0  0  0  0
   -1.1942   -0.2862    0.8229 C   0  0  0  0  0  0  0  0  0  0  0  0
   -1.9645    0.4845   -1.0504 H   0  0  0  0  0  0  0  0  0  0  0  0
    0.3064    1.2052   -1.9410 H   0  0  0  0  0  0  0  0  0  0  0  0
    3.5600    2.1585   -2.6450 N   0  0  0  0  0  0  0  0  0  0  0  0
    4.4357    2.7012   -3.0419 N   0  0  0  0  0  0  0  0  0  0  0  0
   -2.1861   -0.5830    1.1679 H   0  0  0  0  0  0  0  0  0  0  0  0
   -0.1926   -0.9989    2.6332 H   0  0  0  0  0  0  0  0  0  0  0  0
    2.9109   -0.3288    1.9342 H   0  0  0  0  0  0  0  0  0  0  0  0
    5.0251    0.1278    1.7082 S   0  0  0  0  0  0  0  0  0  0  0  0
    3.7365   -0.5259    2.4558 O   0  0  0  0  0  0  0  0  0  0  0  0
    6.2019   -0.4507    2.3691 O   0  0  0  0  0  0  0  0  0  0  0  0
    4.8218    0.1302    0.2546 O   0  0  0  0  0  0  0  0  0  0  0  0
    4.9094    1.7172    2.1527 O   0  0  0  0  0  0  0  0  0  0  0  0
    5.3022    1.7947    3.0387 H   0  0  0  0  0  0  0  0  0  0  0  0
  1  6  1  0  0  0  0
  2  1  2  0  0  0  0
  2  3  1  0  0  0  0
  3  4  2  0  0  0  0
  4  5  1  0  0  0  0
  5 12  1  0  0  0  0
  6 11  1  0  0  0  0
  6  5  2  0  0  0  0
  7  1  1  0  0  0  0
  8  2  1  0  0  0  0
 10  9  3  0  0  0  0
 13 15  1  0  0  0  0
 14 18  1  0  0  0  0
 14 16  2  0  0  0  0
 14 15  1  0  0  0  0
 17 14  2  0  0  0  0
 18 19  1  0  0  0  0
M  RAD  2   3   2   4   2
M  END
