Coordinates from ORCA-job Ph-N2-HSO4-B3LYPG-aug-cc-pVDZ-scan-d09-49-n400
 OpenBabel11081710403D

 19 17  0  0  0  0  0  0  0  0999 V2000
   -1.1298    0.2985   -0.5092 C   0  0  0  0  0  0  0  0  0  0  0  0
    0.0364    0.8087   -1.1376 C   0  0  0  0  0  0  0  0  0  0  0  0
    1.0693    0.5983   -0.2683 C   0  0  0  0  0  0  0  0  0  0  0  0
    1.2516    0.0935    0.8757 C   0  0  0  0  0  0  0  0  0  0  0  0
    0.0933   -0.4161    1.5112 C   0  0  0  0  0  0  0  0  0  0  0  0
   -1.0966   -0.2912    0.7685 C   0  0  0  0  0  0  0  0  0  0  0  0
   -2.0760    0.3735   -1.0482 H   0  0  0  0  0  0  0  0  0  0  0  0
    0.0501    1.2686   -2.1208 H   0  0  0  0  0  0  0  0  0  0  0  0
    3.1821    1.8676   -1.9702 N   0  0  0  0  0  0  0  0  0  0  0  0
    4.1456    2.3669   -2.1718 N   0  0  0  0  0  0  0  0  0  0  0  0
   -2.0273   -0.6668    1.1968 H   0  0  0  0  0  0  0  0  0  0  0  0
    0.1036   -0.8785    2.4979 H   0  0  0  0  0  0  0  0  0  0  0  0
    2.9146   -0.1218    1.7861 H   0  0  0  0  0  0  0  0  0  0  0  0
    5.0834    0.0783    1.7167 S   0  0  0  0  0  0  0  0  0  0  0  0
    3.6713   -0.3454    2.3999 O   0  0  0  0  0  0  0  0  0  0  0  0
    6.1275   -0.5395    2.5446 O   0  0  0  0  0  0  0  0  0  0  0  0
    5.0053   -0.0648    0.2582 O   0  0  0  0  0  0  0  0  0  0  0  0
    5.1148    1.7122    1.9785 O   0  0  0  0  0  0  0  0  0  0  0  0
    5.4425    1.8494    2.8834 H   0  0  0  0  0  0  0  0  0  0  0  0
  1  6  1  0  0  0  0
  2  1  2  0  0  0  0
  2  3  1  0  0  0  0
  3  4  2  0  0  0  0
  4  5  1  0  0  0  0
  5 12  1  0  0  0  0
  6 11  1  0  0  0  0
  6  5  2  0  0  0  0
  7  1  1  0  0  0  0
  8  2  1  0  0  0  0
 10  9  3  0  0  0  0
 13 15  1  0  0  0  0
 14 18  1  0  0  0  0
 14 15  1  0  0  0  0
 14 16  2  0  0  0  0
 17 14  2  0  0  0  0
 18 19  1  0  0  0  0
M  RAD  2   3   2   4   2
M  END
