Coordinates from ORCA-job Ph-N2-HSO4-B3LYPG-aug-cc-pVDZ-scan-d09-49-n400
 OpenBabel11081710403D

 19 19  0  0  1  0  0  0  0  0999 V2000
   -0.3635   -0.0825   -0.7305 C   0  0  0  0  0  0  0  0  0  0  0  0
    0.5040    0.8490   -1.1918 C   0  0  0  0  0  0  0  0  0  0  0  0
    1.5668    1.3572   -0.3261 C   0  0  0  0  0  0  0  0  0  0  0  0
    1.8610    0.6686    0.9925 C   0  0  1  0  0  0  0  0  0  0  0  0
    0.7441   -0.2019    1.4561 C   0  0  0  0  0  0  0  0  0  0  0  0
   -0.2622   -0.5698    0.6338 C   0  0  0  0  0  0  0  0  0  0  0  0
   -1.1586   -0.4536   -1.3755 H   0  0  0  0  0  0  0  0  0  0  0  0
    0.4358    1.2570   -2.1998 H   0  0  0  0  0  0  0  0  0  0  0  0
    2.2323    2.2547   -0.6403 N   0  0  0  0  0  0  0  0  0  0  0  0
    2.9030    3.1405   -0.9391 N   0  0  0  0  0  0  0  0  0  0  0  0
   -1.0364   -1.2431    1.0036 H   0  0  0  0  0  0  0  0  0  0  0  0
    0.8083   -0.5641    2.4808 H   0  0  0  0  0  0  0  0  0  0  0  0
    2.1728    1.3931    1.7522 H   0  0  0  0  0  0  0  0  0  0  0  0
    4.2064   -0.2981    1.9193 S   0  0  0  0  0  0  0  0  0  0  0  0
    3.5553   -0.2799    3.2356 O   0  0  0  0  0  0  0  0  0  0  0  0
    5.1597   -1.3294    1.4911 O   0  0  0  0  0  0  0  0  0  0  0  0
    3.0857   -0.2078    0.7323 O   0  0  0  0  0  0  0  0  0  0  0  0
    4.9413    1.1822    1.8023 O   0  0  0  0  0  0  0  0  0  0  0  0
    5.6059    1.1191    1.0950 H   0  0  0  0  0  0  0  0  0  0  0  0
  1  6  1  0  0  0  0
  2  1  1  0  0  0  0
  2  3  2  0  0  0  0
  3  4  1  0  0  0  0
  4  5  1  0  0  0  0
  4 13  1  1  0  0  0
  5 12  1  0  0  0  0
  6 11  1  0  0  0  0
  6  5  2  0  0  0  0
  7  1  1  0  0  0  0
  8  2  1  0  0  0  0
  9  3  1  0  0  0  0
 10  9  1  0  0  0  0
 14 15  2  0  0  0  0
 16 14  2  0  0  0  0
 17  4  1  0  0  0  0
 17 14  1  0  0  0  0
 18 14  1  0  0  0  0
 19 18  1  0  0  0  0
M  RAD  3   1   2   9   2  10   3
M  END
