Coordinates from ORCA-job Ph-N2-HSO4-B3LYPG-aug-cc-pVDZ-scan-d09-49-n400
 OpenBabel11081710403D

 19 19  0  0  1  0  0  0  0  0999 V2000
   -0.4228    0.0796   -0.7201 C   0  0  0  0  0  0  0  0  0  0  0  0
    0.5314    0.9199   -1.1590 C   0  0  0  0  0  0  0  0  0  0  0  0
    1.7238    1.2833   -0.3248 C   0  0  0  0  0  0  0  0  0  0  0  0
    1.8656    0.5048    1.0511 C   0  0  1  0  0  0  0  0  0  0  0  0
    0.6992   -0.3488    1.4161 C   0  0  0  0  0  0  0  0  0  0  0  0
   -0.3482   -0.5431    0.5954 C   0  0  0  0  0  0  0  0  0  0  0  0
   -1.2735   -0.1467   -1.3629 H   0  0  0  0  0  0  0  0  0  0  0  0
    0.5034    1.3869   -2.1438 H   0  0  0  0  0  0  0  0  0  0  0  0
    2.3892    1.8880   -0.5627 N   0  0  0  0  0  0  0  0  0  0  0  0
    3.2608    2.6404   -0.8324 N   0  0  0  0  0  0  0  0  0  0  0  0
   -1.1702   -1.1849    0.9129 H   0  0  0  0  0  0  0  0  0  0  0  0
    0.7540   -0.8213    2.3971 H   0  0  0  0  0  0  0  0  0  0  0  0
    2.0897    1.2497    1.8255 H   0  0  0  0  0  0  0  0  0  0  0  0
    4.2993   -0.1638    1.9589 S   0  0  0  0  0  0  0  0  0  0  0  0
    3.7680   -0.1298    3.3258 O   0  0  0  0  0  0  0  0  0  0  0  0
    5.3200   -1.1085    1.4990 O   0  0  0  0  0  0  0  0  0  0  0  0
    3.0568   -0.3416    0.8751 O   0  0  0  0  0  0  0  0  0  0  0  0
    4.7729    1.3838    1.6703 O   0  0  0  0  0  0  0  0  0  0  0  0
    5.1423    1.4435    0.7699 H   0  0  0  0  0  0  0  0  0  0  0  0
  1  6  1  0  0  0  0
  2  1  1  0  0  0  0
  2  3  2  0  0  0  0
  3  4  1  0  0  0  0
  4  5  1  0  0  0  0
  4 13  1  1  0  0  0
  5 12  1  0  0  0  0
  6 11  1  0  0  0  0
  6  5  2  0  0  0  0
  7  1  1  0  0  0  0
  8  2  1  0  0  0  0
  9  3  1  0  0  0  0
 10  9  1  0  0  0  0
 14 15  2  0  0  0  0
 16 14  2  0  0  0  0
 17  4  1  0  0  0  0
 17 14  1  0  0  0  0
 18 14  1  0  0  0  0
 19 18  1  0  0  0  0
M  RAD  3   1   2   9   2  10   3
M  END
