Coordinates from ORCA-job Ph-N2-HSO4-B3LYPG-aug-cc-pVDZ-scan-d09-49-n400
 OpenBabel11081710403D

 19 19  0  0  1  0  0  0  0  0999 V2000
   -0.3648   -0.0913   -0.7311 C   0  0  0  0  0  0  0  0  0  0  0  0
    0.4985    0.8471   -1.1900 C   0  0  0  0  0  0  0  0  0  0  0  0
    1.5522    1.3512   -0.3208 C   0  0  0  0  0  0  0  0  0  0  0  0
    1.8558    0.6726    0.9928 C   0  0  1  0  0  0  0  0  0  0  0  0
    0.7426   -0.2017    1.4570 C   0  0  0  0  0  0  0  0  0  0  0  0
   -0.2605   -0.5770    0.6327 C   0  0  0  0  0  0  0  0  0  0  0  0
   -1.1578   -0.4659   -1.3764 H   0  0  0  0  0  0  0  0  0  0  0  0
    0.4274    1.2577   -2.1967 H   0  0  0  0  0  0  0  0  0  0  0  0
    2.2424    2.2897   -0.6508 N   0  0  0  0  0  0  0  0  0  0  0  0
    2.9068    3.1747   -0.9508 N   0  0  0  0  0  0  0  0  0  0  0  0
   -1.0310   -1.2546    1.0029 H   0  0  0  0  0  0  0  0  0  0  0  0
    0.8067   -0.5621    2.4822 H   0  0  0  0  0  0  0  0  0  0  0  0
    2.1707    1.3947    1.7530 H   0  0  0  0  0  0  0  0  0  0  0  0
    4.2037   -0.2999    1.9201 S   0  0  0  0  0  0  0  0  0  0  0  0
    3.5513   -0.2705    3.2358 O   0  0  0  0  0  0  0  0  0  0  0  0
    5.1528   -1.3390    1.5004 O   0  0  0  0  0  0  0  0  0  0  0  0
    3.0871   -0.2063    0.7319 O   0  0  0  0  0  0  0  0  0  0  0  0
    4.9515    1.1747    1.7976 O   0  0  0  0  0  0  0  0  0  0  0  0
    5.6262    1.0972    1.1016 H   0  0  0  0  0  0  0  0  0  0  0  0
  1  6  1  0  0  0  0
  2  1  1  0  0  0  0
  2  3  2  0  0  0  0
  3  4  1  0  0  0  0
  4  5  1  0  0  0  0
  4 13  1  1  0  0  0
  5 12  1  0  0  0  0
  6 11  1  0  0  0  0
  6  5  2  0  0  0  0
  7  1  1  0  0  0  0
  8  2  1  0  0  0  0
  9  3  1  0  0  0  0
 10  9  1  0  0  0  0
 14 15  2  0  0  0  0
 16 14  2  0  0  0  0
 17  4  1  0  0  0  0
 17 14  1  0  0  0  0
 18 14  1  0  0  0  0
 19 18  1  0  0  0  0
M  RAD  3   1   2   9   2  10   3
M  END
