Coordinates from ORCA-job Ph-N2-HSO4-B3LYPG-aug-cc-pVDZ-scan-d09-49-n400
 OpenBabel11081710403D

 19 17  0  0  0  0  0  0  0  0999 V2000
   -1.1297    0.3009   -0.5006 C   0  0  0  0  0  0  0  0  0  0  0  0
    0.0438    0.8044   -1.1211 C   0  0  0  0  0  0  0  0  0  0  0  0
    1.0703    0.5832   -0.2465 C   0  0  0  0  0  0  0  0  0  0  0  0
    1.2396    0.0733    0.8966 C   0  0  0  0  0  0  0  0  0  0  0  0
    0.0756   -0.4298    1.5255 C   0  0  0  0  0  0  0  0  0  0  0  0
   -1.1086   -0.2931    0.7755 C   0  0  0  0  0  0  0  0  0  0  0  0
   -2.0722    0.3848   -1.0445 H   0  0  0  0  0  0  0  0  0  0  0  0
    0.0661    1.2672   -2.1027 H   0  0  0  0  0  0  0  0  0  0  0  0
    3.2362    1.8944   -2.0275 N   0  0  0  0  0  0  0  0  0  0  0  0
    4.1937    2.3972   -2.2483 N   0  0  0  0  0  0  0  0  0  0  0  0
   -2.0449   -0.6627    1.1969 H   0  0  0  0  0  0  0  0  0  0  0  0
    0.0765   -0.8952    2.5107 H   0  0  0  0  0  0  0  0  0  0  0  0
    2.9141   -0.1430    1.7980 H   0  0  0  0  0  0  0  0  0  0  0  0
    5.0791    0.0835    1.7136 S   0  0  0  0  0  0  0  0  0  0  0  0
    3.6773   -0.3629    2.4042 O   0  0  0  0  0  0  0  0  0  0  0  0
    6.1366   -0.5269    2.5297 O   0  0  0  0  0  0  0  0  0  0  0  0
    4.9920   -0.0504    0.2548 O   0  0  0  0  0  0  0  0  0  0  0  0
    5.0918    1.7158    1.9868 O   0  0  0  0  0  0  0  0  0  0  0  0
    5.4243    1.8507    2.8903 H   0  0  0  0  0  0  0  0  0  0  0  0
  1  6  1  0  0  0  0
  2  1  2  0  0  0  0
  2  3  1  0  0  0  0
  3  4  2  0  0  0  0
  4  5  1  0  0  0  0
  5 12  1  0  0  0  0
  6 11  1  0  0  0  0
  6  5  2  0  0  0  0
  7  1  1  0  0  0  0
  8  2  1  0  0  0  0
 10  9  3  0  0  0  0
 13 15  1  0  0  0  0
 14 18  1  0  0  0  0
 14 15  1  0  0  0  0
 14 16  2  0  0  0  0
 17 14  2  0  0  0  0
 18 19  1  0  0  0  0
M  RAD  2   3   2   4   2
M  END
