Coordinates from ORCA-job Ph-N2-HSO4-B3LYPG-aug-cc-pVDZ-scan-d09-49-n400
 OpenBabel11081710403D

 19 17  0  0  0  0  0  0  0  0999 V2000
   -0.9058    0.1367   -0.6744 C   0  0  0  0  0  0  0  0  0  0  0  0
    0.2752    0.7677   -1.1277 C   0  0  0  0  0  0  0  0  0  0  0  0
    1.2015    0.7283   -0.1363 C   0  0  0  0  0  0  0  0  0  0  0  0
    1.3385    0.2813    1.1072 C   0  0  0  0  0  0  0  0  0  0  0  0
    0.1130   -0.3354    1.4911 C   0  0  0  0  0  0  0  0  0  0  0  0
   -0.9762   -0.4017    0.6169 C   0  0  0  0  0  0  0  0  0  0  0  0
   -1.7529    0.0837   -1.3584 H   0  0  0  0  0  0  0  0  0  0  0  0
    0.3920    1.2018   -2.1152 H   0  0  0  0  0  0  0  0  0  0  0  0
    2.9187    1.7648   -0.8323 N   0  0  0  0  0  0  0  0  0  0  0  0
    3.7075    2.4061   -1.2589 N   0  0  0  0  0  0  0  0  0  0  0  0
   -1.8962   -0.8857    0.9433 H   0  0  0  0  0  0  0  0  0  0  0  0
    0.0648   -0.7661    2.4918 H   0  0  0  0  0  0  0  0  0  0  0  0
    2.2666    0.3147    1.7747 H   0  0  0  0  0  0  0  0  0  0  0  0
    4.7874    0.0740    1.6683 S   0  0  0  0  0  0  0  0  0  0  0  0
    3.6273    0.3396    2.6298 O   0  0  0  0  0  0  0  0  0  0  0  0
    5.8941   -0.7111    2.2700 O   0  0  0  0  0  0  0  0  0  0  0  0
    4.2875   -0.3182    0.3126 O   0  0  0  0  0  0  0  0  0  0  0  0
    5.4398    1.6133    1.3838 O   0  0  0  0  0  0  0  0  0  0  0  0
    6.1789    1.6975    2.0053 H   0  0  0  0  0  0  0  0  0  0  0  0
  1  6  1  0  0  0  0
  2  1  2  0  0  0  0
  2  3  1  0  0  0  0
  3  4  2  0  0  0  0
  4  5  1  0  0  0  0
  4 13  1  0  0  0  0
  5 12  1  0  0  0  0
  6 11  1  0  0  0  0
  6  5  2  0  0  0  0
  7  1  1  0  0  0  0
  8  2  1  0  0  0  0
 10  9  3  0  0  0  0
 14 16  2  0  0  0  0
 14 15  1  0  0  0  0
 17 14  2  0  0  0  0
 18 14  1  0  0  0  0
 18 19  1  0  0  0  0
M  RAD  2   3   2  15   2
M  END
