Coordinates from ORCA-job Ph-N2-HSO4-B3LYPG-aug-cc-pVDZ-scan-d09-49-n400
 OpenBabel11081710403D

 19 18  0  0  0  0  0  0  0  0999 V2000
   -0.7395    0.1386   -0.7900 C   0  0  0  0  0  0  0  0  0  0  0  0
    0.4694    0.7813   -1.0542 C   0  0  0  0  0  0  0  0  0  0  0  0
    1.3924    0.8095   -0.0076 C   0  0  0  0  0  0  0  0  0  0  0  0
    1.2227    0.2616    1.2575 C   0  0  0  0  0  0  0  0  0  0  0  0
   -0.0078   -0.3595    1.4832 C   0  0  0  0  0  0  0  0  0  0  0  0
   -0.9738   -0.4251    0.4717 C   0  0  0  0  0  0  0  0  0  0  0  0
   -1.4951    0.0784   -1.5720 H   0  0  0  0  0  0  0  0  0  0  0  0
    0.6867    1.2292   -2.0215 H   0  0  0  0  0  0  0  0  0  0  0  0
    2.6759    1.5495   -0.3073 N   0  0  0  0  0  0  0  0  0  0  0  0
    3.4072    2.2950   -0.6847 N   0  0  0  0  0  0  0  0  0  0  0  0
   -1.9224   -0.9263    0.6649 H   0  0  0  0  0  0  0  0  0  0  0  0
   -0.2013   -0.8060    2.4575 H   0  0  0  0  0  0  0  0  0  0  0  0
    2.0233    0.3219    2.0017 H   0  0  0  0  0  0  0  0  0  0  0  0
    4.7787    0.1957    1.7188 S   0  0  0  0  0  0  0  0  0  0  0  0
    3.8381    0.6459    2.7956 O   0  0  0  0  0  0  0  0  0  0  0  0
    5.9428   -0.6379    2.1109 O   0  0  0  0  0  0  0  0  0  0  0  0
    4.0280   -0.2990    0.4919 O   0  0  0  0  0  0  0  0  0  0  0  0
    5.4549    1.6715    1.1870 O   0  0  0  0  0  0  0  0  0  0  0  0
    6.3815    1.4674    0.9882 H   0  0  0  0  0  0  0  0  0  0  0  0
  1  6  1  0  0  0  0
  2  1  2  0  0  0  0
  2  3  1  0  0  0  0
  3  4  2  0  0  0  0
  4  5  1  0  0  0  0
  4 13  1  0  0  0  0
  5 12  1  0  0  0  0
  6 11  1  0  0  0  0
  6  5  2  0  0  0  0
  7  1  1  0  0  0  0
  8  2  1  0  0  0  0
  9  3  1  0  0  0  0
 10  9  1  0  0  0  0
 14 16  2  0  0  0  0
 14 15  1  0  0  0  0
 17 14  2  0  0  0  0
 18 14  1  0  0  0  0
 19 18  1  0  0  0  0
M  RAD  3   9   2  10   3  15   2
M  END
