Coordinates from ORCA-job Ph-N2-HSO4-B3LYPG-aug-cc-pVDZ-scan-d09-49-n400
 OpenBabel11081710403D

 19 17  0  0  0  0  0  0  0  0999 V2000
   -1.0905    0.3170   -0.4471 C   0  0  0  0  0  0  0  0  0  0  0  0
    0.1486    0.7486   -0.9899 C   0  0  0  0  0  0  0  0  0  0  0  0
    1.1041    0.4497   -0.0578 C   0  0  0  0  0  0  0  0  0  0  0  0
    1.1576   -0.0837    1.0833 C   0  0  0  0  0  0  0  0  0  0  0  0
   -0.0657   -0.5178    1.6399 C   0  0  0  0  0  0  0  0  0  0  0  0
   -1.1885   -0.2920    0.8186 C   0  0  0  0  0  0  0  0  0  0  0  0
   -1.9910    0.4697   -1.0449 H   0  0  0  0  0  0  0  0  0  0  0  0
    0.2597    1.2206   -1.9613 H   0  0  0  0  0  0  0  0  0  0  0  0
    3.5450    2.1134   -2.5385 N   0  0  0  0  0  0  0  0  0  0  0  0
    4.4381    2.6467   -2.9082 N   0  0  0  0  0  0  0  0  0  0  0  0
   -2.1722   -0.6022    1.1752 H   0  0  0  0  0  0  0  0  0  0  0  0
   -0.1561   -0.9928    2.6162 H   0  0  0  0  0  0  0  0  0  0  0  0
    2.9116   -0.2991    1.9083 H   0  0  0  0  0  0  0  0  0  0  0  0
    5.0350    0.1261    1.7005 S   0  0  0  0  0  0  0  0  0  0  0  0
    3.7290   -0.4989    2.4420 O   0  0  0  0  0  0  0  0  0  0  0  0
    6.1958   -0.4562    2.3860 O   0  0  0  0  0  0  0  0  0  0  0  0
    4.8505    0.1072    0.2446 O   0  0  0  0  0  0  0  0  0  0  0  0
    4.9341    1.7240    2.1176 O   0  0  0  0  0  0  0  0  0  0  0  0
    5.3168    1.8112    3.0070 H   0  0  0  0  0  0  0  0  0  0  0  0
  1  6  1  0  0  0  0
  2  1  2  0  0  0  0
  2  3  1  0  0  0  0
  3  4  2  0  0  0  0
  4  5  1  0  0  0  0
  5 12  1  0  0  0  0
  6 11  1  0  0  0  0
  6  5  2  0  0  0  0
  7  1  1  0  0  0  0
  8  2  1  0  0  0  0
 10  9  3  0  0  0  0
 13 15  1  0  0  0  0
 14 18  1  0  0  0  0
 14 16  2  0  0  0  0
 14 15  1  0  0  0  0
 17 14  2  0  0  0  0
 18 19  1  0  0  0  0
M  RAD  2   3   2   4   2
M  END
