Coordinates from ORCA-job Ph-N2-HSO4-B3LYPG-aug-cc-pVDZ-scan-d09-49-n400
 OpenBabel11081710403D

 19 17  0  0  0  0  0  0  0  0999 V2000
   -0.9323    0.1288   -0.6376 C   0  0  0  0  0  0  0  0  0  0  0  0
    0.2410    0.7584   -1.1285 C   0  0  0  0  0  0  0  0  0  0  0  0
    1.1619    0.7017   -0.1414 C   0  0  0  0  0  0  0  0  0  0  0  0
    1.3565    0.2773    1.0832 C   0  0  0  0  0  0  0  0  0  0  0  0
    0.1355   -0.3393    1.5082 C   0  0  0  0  0  0  0  0  0  0  0  0
   -0.9734   -0.4043    0.6579 C   0  0  0  0  0  0  0  0  0  0  0  0
   -1.7963    0.0773   -1.3010 H   0  0  0  0  0  0  0  0  0  0  0  0
    0.3366    1.1909   -2.1185 H   0  0  0  0  0  0  0  0  0  0  0  0
    3.0015    1.9102   -1.0301 N   0  0  0  0  0  0  0  0  0  0  0  0
    3.8268    2.4966   -1.4673 N   0  0  0  0  0  0  0  0  0  0  0  0
   -1.8874   -0.8836    1.0076 H   0  0  0  0  0  0  0  0  0  0  0  0
    0.1134   -0.7666    2.5116 H   0  0  0  0  0  0  0  0  0  0  0  0
    2.3357    0.2925    1.7551 H   0  0  0  0  0  0  0  0  0  0  0  0
    4.7831    0.0469    1.6604 S   0  0  0  0  0  0  0  0  0  0  0  0
    3.5512    0.2550    2.5694 O   0  0  0  0  0  0  0  0  0  0  0  0
    5.8481   -0.7365    2.3310 O   0  0  0  0  0  0  0  0  0  0  0  0
    4.3694   -0.3112    0.2747 O   0  0  0  0  0  0  0  0  0  0  0  0
    5.4102    1.6022    1.4809 O   0  0  0  0  0  0  0  0  0  0  0  0
    6.0801    1.6950    2.1760 H   0  0  0  0  0  0  0  0  0  0  0  0
  1  6  1  0  0  0  0
  2  1  2  0  0  0  0
  2  3  1  0  0  0  0
  3  4  2  0  0  0  0
  4  5  1  0  0  0  0
  4 13  1  0  0  0  0
  5 12  1  0  0  0  0
  6 11  1  0  0  0  0
  6  5  2  0  0  0  0
  7  1  1  0  0  0  0
  8  2  1  0  0  0  0
 10  9  3  0  0  0  0
 14 16  2  0  0  0  0
 14 15  1  0  0  0  0
 17 14  2  0  0  0  0
 18 14  1  0  0  0  0
 18 19  1  0  0  0  0
M  RAD  2   3   2  15   2
M  END
