Coordinates from ORCA-job Ph-N2-HSO4-B3LYPG-aug-cc-pVDZ-scan-d09-49-n400
 OpenBabel11081710403D

 19 17  0  0  0  0  0  0  0  0999 V2000
   -0.7353    0.4405   -0.4166 C   0  0  0  0  0  0  0  0  0  0  0  0
    0.6316    0.7039   -0.6959 C   0  0  0  0  0  0  0  0  0  0  0  0
    1.3362    0.2137    0.3666 C   0  0  0  0  0  0  0  0  0  0  0  0
    1.1145   -0.3776    1.4612 C   0  0  0  0  0  0  0  0  0  0  0  0
   -0.2447   -0.6430    1.7476 C   0  0  0  0  0  0  0  0  0  0  0  0
   -1.1526   -0.2087    0.7621 C   0  0  0  0  0  0  0  0  0  0  0  0
   -1.4772    0.7588   -1.1512 H   0  0  0  0  0  0  0  0  0  0  0  0
    0.9909    1.2005   -1.5920 H   0  0  0  0  0  0  0  0  0  0  0  0
    3.2987    2.2134   -3.0374 N   0  0  0  0  0  0  0  0  0  0  0  0
    4.3321    2.4999   -3.2991 N   0  0  0  0  0  0  0  0  0  0  0  0
   -2.2195   -0.3810    0.9139 H   0  0  0  0  0  0  0  0  0  0  0  0
   -0.5840   -1.1451    2.6533 H   0  0  0  0  0  0  0  0  0  0  0  0
    2.9218   -0.6325    2.1589 H   0  0  0  0  0  0  0  0  0  0  0  0
    4.7802    0.2836    1.5402 S   0  0  0  0  0  0  0  0  0  0  0  0
    3.8789   -0.7286    2.4306 O   0  0  0  0  0  0  0  0  0  0  0  0
    6.1722   -0.1458    1.7141 O   0  0  0  0  0  0  0  0  0  0  0  0
    4.1554    0.4933    0.2239 O   0  0  0  0  0  0  0  0  0  0  0  0
    4.5742    1.7206    2.3287 O   0  0  0  0  0  0  0  0  0  0  0  0
    5.1883    1.7254    3.0826 H   0  0  0  0  0  0  0  0  0  0  0  0
  1  6  1  0  0  0  0
  2  1  2  0  0  0  0
  2  3  1  0  0  0  0
  3  4  2  0  0  0  0
  4  5  1  0  0  0  0
  5 12  1  0  0  0  0
  6 11  1  0  0  0  0
  6  5  2  0  0  0  0
  7  1  1  0  0  0  0
  8  2  1  0  0  0  0
 10  9  3  0  0  0  0
 13 15  1  0  0  0  0
 14 16  2  0  0  0  0
 14 18  1  0  0  0  0
 14 15  1  0  0  0  0
 17 14  2  0  0  0  0
 18 19  1  0  0  0  0
M  RAD  2   3   2   4   2
M  END
