Coordinates from ORCA-job Ph-N2-HSO4-B3LYPG-aug-cc-pVDZ-scan-d09-49-n400
 OpenBabel11081710403D

 19 17  0  0  0  0  0  0  0  0999 V2000
   -0.8987    0.1449   -0.6817 C   0  0  0  0  0  0  0  0  0  0  0  0
    0.2882    0.7703   -1.1239 C   0  0  0  0  0  0  0  0  0  0  0  0
    1.2146    0.7266   -0.1305 C   0  0  0  0  0  0  0  0  0  0  0  0
    1.3330    0.2698    1.1163 C   0  0  0  0  0  0  0  0  0  0  0  0
    0.1029   -0.3399    1.4889 C   0  0  0  0  0  0  0  0  0  0  0  0
   -0.9809   -0.3975    0.6070 C   0  0  0  0  0  0  0  0  0  0  0  0
   -1.7415    0.0980   -1.3713 H   0  0  0  0  0  0  0  0  0  0  0  0
    0.4130    1.2061   -2.1097 H   0  0  0  0  0  0  0  0  0  0  0  0
    2.9077    1.7230   -0.7922 N   0  0  0  0  0  0  0  0  0  0  0  0
    3.6775    2.3790   -1.2312 N   0  0  0  0  0  0  0  0  0  0  0  0
   -1.9057   -0.8775    0.9255 H   0  0  0  0  0  0  0  0  0  0  0  0
    0.0436   -0.7728    2.4879 H   0  0  0  0  0  0  0  0  0  0  0  0
    2.2510    0.3026    1.7845 H   0  0  0  0  0  0  0  0  0  0  0  0
    4.7906    0.0852    1.6714 S   0  0  0  0  0  0  0  0  0  0  0  0
    3.6486    0.3513    2.6483 O   0  0  0  0  0  0  0  0  0  0  0  0
    5.9132   -0.6969    2.2479 O   0  0  0  0  0  0  0  0  0  0  0  0
    4.2695   -0.3115    0.3224 O   0  0  0  0  0  0  0  0  0  0  0  0
    5.4366    1.6261    1.3689 O   0  0  0  0  0  0  0  0  0  0  0  0
    6.1985    1.7046    1.9628 H   0  0  0  0  0  0  0  0  0  0  0  0
  1  6  1  0  0  0  0
  2  1  2  0  0  0  0
  2  3  1  0  0  0  0
  3  4  2  0  0  0  0
  4  5  1  0  0  0  0
  4 13  1  0  0  0  0
  5 12  1  0  0  0  0
  6 11  1  0  0  0  0
  6  5  2  0  0  0  0
  7  1  1  0  0  0  0
  8  2  1  0  0  0  0
 10  9  3  0  0  0  0
 14 16  2  0  0  0  0
 14 15  1  0  0  0  0
 17 14  2  0  0  0  0
 18 14  1  0  0  0  0
 18 19  1  0  0  0  0
M  RAD  2   3   2  15   2
M  END
