Coordinates from ORCA-job Ph-N2-HSO4-B3LYPG-aug-cc-pVDZ-scan-d09-49-n400
 OpenBabel11081710403D

 19 17  0  0  0  0  0  0  0  0999 V2000
   -1.0807    0.3191   -0.4439 C   0  0  0  0  0  0  0  0  0  0  0  0
    0.1654    0.7403   -0.9784 C   0  0  0  0  0  0  0  0  0  0  0  0
    1.1141    0.4351   -0.0413 C   0  0  0  0  0  0  0  0  0  0  0  0
    1.1546   -0.0982    1.1010 C   0  0  0  0  0  0  0  0  0  0  0  0
   -0.0758   -0.5220    1.6498 C   0  0  0  0  0  0  0  0  0  0  0  0
   -1.1916   -0.2881    0.8214 C   0  0  0  0  0  0  0  0  0  0  0  0
   -1.9760    0.4787   -1.0475 H   0  0  0  0  0  0  0  0  0  0  0  0
    0.2861    1.2106   -1.9495 H   0  0  0  0  0  0  0  0  0  0  0  0
    3.5541    2.1403   -2.6035 N   0  0  0  0  0  0  0  0  0  0  0  0
    4.4368    2.6794   -2.9899 N   0  0  0  0  0  0  0  0  0  0  0  0
   -2.1800   -0.5901    1.1719 H   0  0  0  0  0  0  0  0  0  0  0  0
   -0.1765   -0.9956    2.6257 H   0  0  0  0  0  0  0  0  0  0  0  0
    2.9121   -0.3178    1.9239 H   0  0  0  0  0  0  0  0  0  0  0  0
    5.0287    0.1271    1.7058 S   0  0  0  0  0  0  0  0  0  0  0  0
    3.7340   -0.5167    2.4506 O   0  0  0  0  0  0  0  0  0  0  0  0
    6.2001   -0.4523    2.3755 O   0  0  0  0  0  0  0  0  0  0  0  0
    4.8317    0.1216    0.2516 O   0  0  0  0  0  0  0  0  0  0  0  0
    4.9177    1.7195    2.1406 O   0  0  0  0  0  0  0  0  0  0  0  0
    5.3067    1.8005    3.0278 H   0  0  0  0  0  0  0  0  0  0  0  0
  1  6  1  0  0  0  0
  2  1  2  0  0  0  0
  2  3  1  0  0  0  0
  3  4  2  0  0  0  0
  4  5  1  0  0  0  0
  5 12  1  0  0  0  0
  6 11  1  0  0  0  0
  6  5  2  0  0  0  0
  7  1  1  0  0  0  0
  8  2  1  0  0  0  0
 10  9  3  0  0  0  0
 13 15  1  0  0  0  0
 14 18  1  0  0  0  0
 14 16  2  0  0  0  0
 14 15  1  0  0  0  0
 17 14  2  0  0  0  0
 18 19  1  0  0  0  0
M  RAD  2   3   2   4   2
M  END
