Coordinates from ORCA-job Ph-N2-HSO4-B3LYPG-aug-cc-pVDZ-scan-d09-49-n400
 OpenBabel11081710403D

 19 17  0  0  0  0  0  0  0  0999 V2000
   -1.1243    0.3085   -0.4680 C   0  0  0  0  0  0  0  0  0  0  0  0
    0.0773    0.7870   -1.0544 C   0  0  0  0  0  0  0  0  0  0  0  0
    1.0743    0.5262   -0.1564 C   0  0  0  0  0  0  0  0  0  0  0  0
    1.1958   -0.0007    0.9833 C   0  0  0  0  0  0  0  0  0  0  0  0
    0.0071   -0.4794    1.5809 C   0  0  0  0  0  0  0  0  0  0  0  0
   -1.1527   -0.3004    0.8012 C   0  0  0  0  0  0  0  0  0  0  0  0
   -2.0506    0.4245   -1.0337 H   0  0  0  0  0  0  0  0  0  0  0  0
    0.1362    1.2600   -2.0297 H   0  0  0  0  0  0  0  0  0  0  0  0
    3.4363    1.9906   -2.2615 N   0  0  0  0  0  0  0  0  0  0  0  0
    4.3690    2.5031   -2.5547 N   0  0  0  0  0  0  0  0  0  0  0  0
   -2.1098   -0.6479    1.1937 H   0  0  0  0  0  0  0  0  0  0  0  0
   -0.0298   -0.9551    2.5604 H   0  0  0  0  0  0  0  0  0  0  0  0
    2.9103   -0.2194    1.8442 H   0  0  0  0  0  0  0  0  0  0  0  0
    5.0583    0.1090    1.6993 S   0  0  0  0  0  0  0  0  0  0  0  0
    3.7009   -0.4293    2.4155 O   0  0  0  0  0  0  0  0  0  0  0  0
    6.1677   -0.4839    2.4573 O   0  0  0  0  0  0  0  0  0  0  0  0
    4.9297    0.0281    0.2396 O   0  0  0  0  0  0  0  0  0  0  0  0
    5.0060    1.7279    2.0381 O   0  0  0  0  0  0  0  0  0  0  0  0
    5.3599    1.8425    2.9362 H   0  0  0  0  0  0  0  0  0  0  0  0
  1  6  1  0  0  0  0
  2  1  2  0  0  0  0
  2  3  1  0  0  0  0
  3  4  2  0  0  0  0
  4  5  1  0  0  0  0
  5 12  1  0  0  0  0
  6 11  1  0  0  0  0
  6  5  2  0  0  0  0
  7  1  1  0  0  0  0
  8  2  1  0  0  0  0
 10  9  3  0  0  0  0
 13 15  1  0  0  0  0
 14 18  1  0  0  0  0
 14 15  1  0  0  0  0
 14 16  2  0  0  0  0
 17 14  2  0  0  0  0
 18 19  1  0  0  0  0
M  RAD  2   3   2   4   2
M  END
