Coordinates from ORCA-job Ph-N2-HSO4-B3LYPG-aug-cc-pVDZ-scan-d09-49-n400
 OpenBabel11081710403D

 19 17  0  0  0  0  0  0  0  0999 V2000
   -1.0943    0.3165   -0.4482 C   0  0  0  0  0  0  0  0  0  0  0  0
    0.1419    0.7517   -0.9942 C   0  0  0  0  0  0  0  0  0  0  0  0
    1.1031    0.4566   -0.0667 C   0  0  0  0  0  0  0  0  0  0  0  0
    1.1612   -0.0773    1.0748 C   0  0  0  0  0  0  0  0  0  0  0  0
   -0.0597   -0.5149    1.6346 C   0  0  0  0  0  0  0  0  0  0  0  0
   -1.1861   -0.2928    0.8174 C   0  0  0  0  0  0  0  0  0  0  0  0
   -1.9970    0.4667   -1.0432 H   0  0  0  0  0  0  0  0  0  0  0  0
    0.2480    1.2239   -1.9661 H   0  0  0  0  0  0  0  0  0  0  0  0
    3.5382    2.1035   -2.5175 N   0  0  0  0  0  0  0  0  0  0  0  0
    4.4347    2.6351   -2.8818 N   0  0  0  0  0  0  0  0  0  0  0  0
   -2.1675   -0.6062    1.1773 H   0  0  0  0  0  0  0  0  0  0  0  0
   -0.1456   -0.9904    2.6110 H   0  0  0  0  0  0  0  0  0  0  0  0
    2.9125   -0.2928    1.9026 H   0  0  0  0  0  0  0  0  0  0  0  0
    5.0370    0.1247    1.7009 S   0  0  0  0  0  0  0  0  0  0  0  0
    3.7271   -0.4940    2.4399 O   0  0  0  0  0  0  0  0  0  0  0  0
    6.1941   -0.4579    2.3923 O   0  0  0  0  0  0  0  0  0  0  0  0
    4.8568    0.1005    0.2448 O   0  0  0  0  0  0  0  0  0  0  0  0
    4.9388    1.7244    2.1116 O   0  0  0  0  0  0  0  0  0  0  0  0
    5.3187    1.8139    3.0020 H   0  0  0  0  0  0  0  0  0  0  0  0
  1  6  1  0  0  0  0
  2  1  2  0  0  0  0
  2  3  1  0  0  0  0
  3  4  2  0  0  0  0
  4  5  1  0  0  0  0
  5 12  1  0  0  0  0
  6 11  1  0  0  0  0
  6  5  2  0  0  0  0
  7  1  1  0  0  0  0
  8  2  1  0  0  0  0
 10  9  3  0  0  0  0
 13 15  1  0  0  0  0
 14 18  1  0  0  0  0
 14 16  2  0  0  0  0
 14 15  1  0  0  0  0
 17 14  2  0  0  0  0
 18 19  1  0  0  0  0
M  RAD  2   3   2   4   2
M  END
