Coordinates from ORCA-job Ph-N2-HSO4-B3LYPG-aug-cc-pVDZ-scan-d09-49-n400
 OpenBabel11081710403D

 19 17  0  0  0  0  0  0  0  0999 V2000
   -1.1264    0.3069   -0.4783 C   0  0  0  0  0  0  0  0  0  0  0  0
    0.0662    0.7927   -1.0766 C   0  0  0  0  0  0  0  0  0  0  0  0
    1.0743    0.5444   -0.1873 C   0  0  0  0  0  0  0  0  0  0  0  0
    1.2108    0.0224    0.9539 C   0  0  0  0  0  0  0  0  0  0  0  0
    0.0302   -0.4635    1.5626 C   0  0  0  0  0  0  0  0  0  0  0  0
   -1.1381   -0.2973    0.7932 C   0  0  0  0  0  0  0  0  0  0  0  0
   -2.0584    0.4132   -1.0363 H   0  0  0  0  0  0  0  0  0  0  0  0
    0.1126    1.2626   -2.0541 H   0  0  0  0  0  0  0  0  0  0  0  0
    3.3713    1.9594   -2.1836 N   0  0  0  0  0  0  0  0  0  0  0  0
    4.3120    2.4697   -2.4539 N   0  0  0  0  0  0  0  0  0  0  0  0
   -2.0885   -0.6514    1.1959 H   0  0  0  0  0  0  0  0  0  0  0  0
    0.0059   -0.9360    2.5441 H   0  0  0  0  0  0  0  0  0  0  0  0
    2.9121   -0.1964    1.8289 H   0  0  0  0  0  0  0  0  0  0  0  0
    5.0655    0.0999    1.7044 S   0  0  0  0  0  0  0  0  0  0  0  0
    3.6934   -0.4096    2.4124 O   0  0  0  0  0  0  0  0  0  0  0  0
    6.1587   -0.4962    2.4830 O   0  0  0  0  0  0  0  0  0  0  0  0
    4.9515   -0.0006    0.2448 O   0  0  0  0  0  0  0  0  0  0  0  0
    5.0311    1.7242    2.0192 O   0  0  0  0  0  0  0  0  0  0  0  0
    5.3775    1.8473    2.9192 H   0  0  0  0  0  0  0  0  0  0  0  0
  1  6  1  0  0  0  0
  2  1  2  0  0  0  0
  2  3  1  0  0  0  0
  3  4  2  0  0  0  0
  4  5  1  0  0  0  0
  5 12  1  0  0  0  0
  6 11  1  0  0  0  0
  6  5  2  0  0  0  0
  7  1  1  0  0  0  0
  8  2  1  0  0  0  0
 10  9  3  0  0  0  0
 13 15  1  0  0  0  0
 14 18  1  0  0  0  0
 14 15  1  0  0  0  0
 14 16  2  0  0  0  0
 17 14  2  0  0  0  0
 18 19  1  0  0  0  0
M  RAD  2   3   2   4   2
M  END
