Coordinates from ORCA-job Ph-N2-HSO4-B3LYPG-aug-cc-pVDZ-scan-d09-49-n400
 OpenBabel11081710403D

 19 17  0  0  0  0  0  0  0  0999 V2000
   -1.1084    0.2893   -0.5554 C   0  0  0  0  0  0  0  0  0  0  0  0
    0.0187    0.8356   -1.2178 C   0  0  0  0  0  0  0  0  0  0  0  0
    1.0864    0.6826   -0.3810 C   0  0  0  0  0  0  0  0  0  0  0  0
    1.3444    0.2030    0.7665 C   0  0  0  0  0  0  0  0  0  0  0  0
    0.2094   -0.3410    1.4254 C   0  0  0  0  0  0  0  0  0  0  0  0
   -1.0099   -0.2803    0.7273 C   0  0  0  0  0  0  0  0  0  0  0  0
   -2.0711    0.3184   -1.0682 H   0  0  0  0  0  0  0  0  0  0  0  0
   -0.0128    1.2822   -2.2070 H   0  0  0  0  0  0  0  0  0  0  0  0
    2.8751    1.7124   -1.6327 N   0  0  0  0  0  0  0  0  0  0  0  0
    3.8621    2.2021   -1.7026 N   0  0  0  0  0  0  0  0  0  0  0  0
   -1.9084   -0.6897    1.1917 H   0  0  0  0  0  0  0  0  0  0  0  0
    0.2692   -0.7903    2.4170 H   0  0  0  0  0  0  0  0  0  0  0  0
    2.8905   -0.0107    1.7312 H   0  0  0  0  0  0  0  0  0  0  0  0
    5.0727    0.0441    1.7267 S   0  0  0  0  0  0  0  0  0  0  0  0
    3.6216   -0.2374    2.3888 O   0  0  0  0  0  0  0  0  0  0  0  0
    6.0559   -0.5919    2.6141 O   0  0  0  0  0  0  0  0  0  0  0  0
    5.0220   -0.1774    0.2760 O   0  0  0  0  0  0  0  0  0  0  0  0
    5.2161    1.6865    1.8932 O   0  0  0  0  0  0  0  0  0  0  0  0
    5.5283    1.8539    2.7983 H   0  0  0  0  0  0  0  0  0  0  0  0
  1  6  1  0  0  0  0
  2  1  2  0  0  0  0
  2  3  1  0  0  0  0
  3  4  2  0  0  0  0
  4  5  1  0  0  0  0
  5 12  1  0  0  0  0
  6 11  1  0  0  0  0
  6  5  2  0  0  0  0
  7  1  1  0  0  0  0
  8  2  1  0  0  0  0
 10  9  3  0  0  0  0
 13 15  1  0  0  0  0
 14 18  1  0  0  0  0
 14 15  1  0  0  0  0
 14 16  2  0  0  0  0
 17 14  2  0  0  0  0
 18 19  1  0  0  0  0
M  RAD  2   3   2   4   2
M  END
