Coordinates from ORCA-job Ph-N2-HSO4-B3LYPG-aug-cc-pVDZ-scan-d09-49-n400
 OpenBabel11081710403D

 19 17  0  0  0  0  0  0  0  0999 V2000
   -1.0370    0.3244   -0.4320 C   0  0  0  0  0  0  0  0  0  0  0  0
    0.2372    0.6899   -0.9411 C   0  0  0  0  0  0  0  0  0  0  0  0
    1.1480    0.3564    0.0237 C   0  0  0  0  0  0  0  0  0  0  0  0
    1.1401   -0.1652    1.1714 C   0  0  0  0  0  0  0  0  0  0  0  0
   -0.1183   -0.5343    1.6947 C   0  0  0  0  0  0  0  0  0  0  0  0
   -1.2031   -0.2643    0.8364 C   0  0  0  0  0  0  0  0  0  0  0  0
   -1.9106    0.5125   -1.0589 H   0  0  0  0  0  0  0  0  0  0  0  0
    0.4005    1.1453   -1.9132 H   0  0  0  0  0  0  0  0  0  0  0  0
    3.5864    2.2702   -2.8669 N   0  0  0  0  0  0  0  0  0  0  0  0
    4.4206    2.8372   -3.3159 N   0  0  0  0  0  0  0  0  0  0  0  0
   -2.2112   -0.5225    1.1651 H   0  0  0  0  0  0  0  0  0  0  0  0
   -0.2616   -0.9924    2.6727 H   0  0  0  0  0  0  0  0  0  0  0  0
    2.9097   -0.3934    1.9812 H   0  0  0  0  0  0  0  0  0  0  0  0
    5.0043    0.1279    1.7285 S   0  0  0  0  0  0  0  0  0  0  0  0
    3.7499   -0.5845    2.4807 O   0  0  0  0  0  0  0  0  0  0  0  0
    6.2104   -0.4428    2.3416 O   0  0  0  0  0  0  0  0  0  0  0  0
    4.7671    0.1760    0.2807 O   0  0  0  0  0  0  0  0  0  0  0  0
    4.8594    1.6971    2.2317 O   0  0  0  0  0  0  0  0  0  0  0  0
    5.2699    1.7537    3.1111 H   0  0  0  0  0  0  0  0  0  0  0  0
  1  6  1  0  0  0  0
  2  1  2  0  0  0  0
  2  3  1  0  0  0  0
  3  4  2  0  0  0  0
  4  5  1  0  0  0  0
  5 12  1  0  0  0  0
  6 11  1  0  0  0  0
  6  5  2  0  0  0  0
  7  1  1  0  0  0  0
  8  2  1  0  0  0  0
 10  9  3  0  0  0  0
 13 15  1  0  0  0  0
 14 18  1  0  0  0  0
 14 16  2  0  0  0  0
 14 15  1  0  0  0  0
 17 14  2  0  0  0  0
 18 19  1  0  0  0  0
M  RAD  2   3   2   4   2
M  END
