Coordinates from ORCA-job Ph-N2-HSO4-B3LYPG-aug-cc-pVDZ-scan-d09-49-n400
 OpenBabel11081710403D

 19 17  0  0  0  0  0  0  0  0999 V2000
   -0.9211    0.1268   -0.6563 C   0  0  0  0  0  0  0  0  0  0  0  0
    0.2521    0.7599   -1.1337 C   0  0  0  0  0  0  0  0  0  0  0  0
    1.1789    0.7199   -0.1467 C   0  0  0  0  0  0  0  0  0  0  0  0
    1.3511    0.2901    1.0878 C   0  0  0  0  0  0  0  0  0  0  0  0
    0.1308   -0.3311    1.4973 C   0  0  0  0  0  0  0  0  0  0  0  0
   -0.9707   -0.4047    0.6393 C   0  0  0  0  0  0  0  0  0  0  0  0
   -1.7783    0.0691   -1.3277 H   0  0  0  0  0  0  0  0  0  0  0  0
    0.3545    1.1906   -2.1241 H   0  0  0  0  0  0  0  0  0  0  0  0
    2.9541    1.8457   -0.9301 N   0  0  0  0  0  0  0  0  0  0  0  0
    3.7626    2.4673   -1.3493 N   0  0  0  0  0  0  0  0  0  0  0  0
   -1.8844   -0.8891    0.9823 H   0  0  0  0  0  0  0  0  0  0  0  0
    0.1020   -0.7574    2.5008 H   0  0  0  0  0  0  0  0  0  0  0  0
    2.3044    0.3159    1.7574 H   0  0  0  0  0  0  0  0  0  0  0  0
    4.7830    0.0555    1.6649 S   0  0  0  0  0  0  0  0  0  0  0  0
    3.5826    0.3017    2.5947 O   0  0  0  0  0  0  0  0  0  0  0  0
    5.8610   -0.7326    2.3108 O   0  0  0  0  0  0  0  0  0  0  0  0
    4.3307   -0.3210    0.2929 O   0  0  0  0  0  0  0  0  0  0  0  0
    5.4335    1.5988    1.4338 O   0  0  0  0  0  0  0  0  0  0  0  0
    6.1350    1.6860    2.0974 H   0  0  0  0  0  0  0  0  0  0  0  0
  1  6  1  0  0  0  0
  2  1  2  0  0  0  0
  2  3  1  0  0  0  0
  3  4  2  0  0  0  0
  4  5  1  0  0  0  0
  4 13  1  0  0  0  0
  5 12  1  0  0  0  0
  6 11  1  0  0  0  0
  6  5  2  0  0  0  0
  7  1  1  0  0  0  0
  8  2  1  0  0  0  0
 10  9  3  0  0  0  0
 14 16  2  0  0  0  0
 14 15  1  0  0  0  0
 17 14  2  0  0  0  0
 18 14  1  0  0  0  0
 18 19  1  0  0  0  0
M  RAD  2   3   2  15   2
M  END
