Coordinates from ORCA-job Ph-N2-HSO4-B3LYPG-aug-cc-pVDZ-scan-d09-49-n400
 OpenBabel11081710403D

 19 18  0  0  0  0  0  0  0  0999 V2000
   -0.7584    0.1333   -0.7832 C   0  0  0  0  0  0  0  0  0  0  0  0
    0.4542    0.7709   -1.0604 C   0  0  0  0  0  0  0  0  0  0  0  0
    1.3630    0.7871   -0.0119 C   0  0  0  0  0  0  0  0  0  0  0  0
    1.2204    0.2542    1.2534 C   0  0  0  0  0  0  0  0  0  0  0  0
   -0.0146   -0.3620    1.4866 C   0  0  0  0  0  0  0  0  0  0  0  0
   -0.9869   -0.4254    0.4811 C   0  0  0  0  0  0  0  0  0  0  0  0
   -1.5187    0.0752   -1.5609 H   0  0  0  0  0  0  0  0  0  0  0  0
    0.6709    1.2148   -2.0289 H   0  0  0  0  0  0  0  0  0  0  0  0
    2.7289    1.5580   -0.3371 N   0  0  0  0  0  0  0  0  0  0  0  0
    3.4301    2.3222   -0.7299 N   0  0  0  0  0  0  0  0  0  0  0  0
   -1.9365   -0.9216    0.6816 H   0  0  0  0  0  0  0  0  0  0  0  0
   -0.2035   -0.8041    2.4639 H   0  0  0  0  0  0  0  0  0  0  0  0
    2.0283    0.3155    1.9906 H   0  0  0  0  0  0  0  0  0  0  0  0
    4.7834    0.2013    1.7123 S   0  0  0  0  0  0  0  0  0  0  0  0
    3.8297    0.6301    2.7861 O   0  0  0  0  0  0  0  0  0  0  0  0
    5.9339   -0.6533    2.0998 O   0  0  0  0  0  0  0  0  0  0  0  0
    4.0458   -0.2619    0.4632 O   0  0  0  0  0  0  0  0  0  0  0  0
    5.4789    1.6799    1.2239 O   0  0  0  0  0  0  0  0  0  0  0  0
    6.4128    1.4772    1.0613 H   0  0  0  0  0  0  0  0  0  0  0  0
  1  6  1  0  0  0  0
  2  1  2  0  0  0  0
  2  3  1  0  0  0  0
  3  4  2  0  0  0  0
  4  5  1  0  0  0  0
  4 13  1  0  0  0  0
  5 12  1  0  0  0  0
  6 11  1  0  0  0  0
  6  5  2  0  0  0  0
  7  1  1  0  0  0  0
  8  2  1  0  0  0  0
  9  3  1  0  0  0  0
 10  9  1  0  0  0  0
 14 16  2  0  0  0  0
 14 15  1  0  0  0  0
 17 14  2  0  0  0  0
 18 14  1  0  0  0  0
 19 18  1  0  0  0  0
M  RAD  3   9   2  10   3  15   2
M  END
