Coordinates from ORCA-job Ph-N2-HSO4-B3LYPG-aug-cc-pVDZ-scan-d09-49-n400
 OpenBabel11081710403D

 19 17  0  0  0  0  0  0  0  0999 V2000
   -1.1209    0.3114   -0.4631 C   0  0  0  0  0  0  0  0  0  0  0  0
    0.0867    0.7858   -1.0398 C   0  0  0  0  0  0  0  0  0  0  0  0
    1.0796    0.5185   -0.1381 C   0  0  0  0  0  0  0  0  0  0  0  0
    1.1883   -0.0139    1.0009 C   0  0  0  0  0  0  0  0  0  0  0  0
   -0.0062   -0.4889    1.5892 C   0  0  0  0  0  0  0  0  0  0  0  0
   -1.1602   -0.3017    0.8031 C   0  0  0  0  0  0  0  0  0  0  0  0
   -2.0429    0.4341   -1.0343 H   0  0  0  0  0  0  0  0  0  0  0  0
    0.1528    1.2619   -2.0133 H   0  0  0  0  0  0  0  0  0  0  0  0
    3.4589    2.0058   -2.3073 N   0  0  0  0  0  0  0  0  0  0  0  0
    4.3862    2.5194   -2.6156 N   0  0  0  0  0  0  0  0  0  0  0  0
   -2.1214   -0.6460    1.1884 H   0  0  0  0  0  0  0  0  0  0  0  0
   -0.0517   -0.9680    2.5667 H   0  0  0  0  0  0  0  0  0  0  0  0
    2.9128   -0.2309    1.8534 H   0  0  0  0  0  0  0  0  0  0  0  0
    5.0564    0.1123    1.6996 S   0  0  0  0  0  0  0  0  0  0  0  0
    3.7071   -0.4402    2.4189 O   0  0  0  0  0  0  0  0  0  0  0  0
    6.1739   -0.4765    2.4487 O   0  0  0  0  0  0  0  0  0  0  0  0
    4.9210    0.0386    0.2405 O   0  0  0  0  0  0  0  0  0  0  0  0
    4.9931    1.7287    2.0478 O   0  0  0  0  0  0  0  0  0  0  0  0
    5.3483    1.8409    2.9458 H   0  0  0  0  0  0  0  0  0  0  0  0
  1  6  1  0  0  0  0
  2  1  2  0  0  0  0
  2  3  1  0  0  0  0
  3  4  2  0  0  0  0
  4  5  1  0  0  0  0
  5 12  1  0  0  0  0
  6 11  1  0  0  0  0
  6  5  2  0  0  0  0
  7  1  1  0  0  0  0
  8  2  1  0  0  0  0
 10  9  3  0  0  0  0
 13 15  1  0  0  0  0
 14 18  1  0  0  0  0
 14 15  1  0  0  0  0
 14 16  2  0  0  0  0
 17 14  2  0  0  0  0
 18 19  1  0  0  0  0
M  RAD  2   3   2   4   2
M  END
