Coordinates from ORCA-job Ph-N2-HSO4-B3LYPG-aug-cc-pVDZ-scan-d09-49-n400
 OpenBabel11081710403D

 19 17  0  0  0  0  0  0  0  0999 V2000
   -1.1262    0.3070   -0.4775 C   0  0  0  0  0  0  0  0  0  0  0  0
    0.0670    0.7922   -1.0749 C   0  0  0  0  0  0  0  0  0  0  0  0
    1.0744    0.5430   -0.1851 C   0  0  0  0  0  0  0  0  0  0  0  0
    1.2097    0.0206    0.9561 C   0  0  0  0  0  0  0  0  0  0  0  0
    0.0285   -0.4647    1.5640 C   0  0  0  0  0  0  0  0  0  0  0  0
   -1.1392   -0.2975    0.7938 C   0  0  0  0  0  0  0  0  0  0  0  0
   -2.0579    0.4141   -1.0360 H   0  0  0  0  0  0  0  0  0  0  0  0
    0.1144    1.2623   -2.0523 H   0  0  0  0  0  0  0  0  0  0  0  0
    3.3763    1.9619   -2.1897 N   0  0  0  0  0  0  0  0  0  0  0  0
    4.3164    2.4724   -2.4618 N   0  0  0  0  0  0  0  0  0  0  0  0
   -2.0901   -0.6511    1.1958 H   0  0  0  0  0  0  0  0  0  0  0  0
    0.0032   -0.9374    2.5453 H   0  0  0  0  0  0  0  0  0  0  0  0
    2.9121   -0.1983    1.8302 H   0  0  0  0  0  0  0  0  0  0  0  0
    5.0649    0.1006    1.7041 S   0  0  0  0  0  0  0  0  0  0  0  0
    3.6940   -0.4112    2.4128 O   0  0  0  0  0  0  0  0  0  0  0  0
    6.1595   -0.4953    2.4811 O   0  0  0  0  0  0  0  0  0  0  0  0
    4.9497    0.0016    0.2445 O   0  0  0  0  0  0  0  0  0  0  0  0
    5.0291    1.7244    2.0207 O   0  0  0  0  0  0  0  0  0  0  0  0
    5.3761    1.8469    2.9205 H   0  0  0  0  0  0  0  0  0  0  0  0
  1  6  1  0  0  0  0
  2  1  2  0  0  0  0
  2  3  1  0  0  0  0
  3  4  2  0  0  0  0
  4  5  1  0  0  0  0
  5 12  1  0  0  0  0
  6 11  1  0  0  0  0
  6  5  2  0  0  0  0
  7  1  1  0  0  0  0
  8  2  1  0  0  0  0
 10  9  3  0  0  0  0
 13 15  1  0  0  0  0
 14 18  1  0  0  0  0
 14 15  1  0  0  0  0
 14 16  2  0  0  0  0
 17 14  2  0  0  0  0
 18 19  1  0  0  0  0
M  RAD  2   3   2   4   2
M  END
