Coordinates from ORCA-job Ph-N2-HSO4-B3LYPG-aug-cc-pVDZ-scan-d09-49-n400
 OpenBabel11081710403D

 19 17  0  0  0  0  0  0  0  0999 V2000
   -1.1258    0.3074   -0.4750 C   0  0  0  0  0  0  0  0  0  0  0  0
    0.0694    0.7908   -1.0698 C   0  0  0  0  0  0  0  0  0  0  0  0
    1.0747    0.5388   -0.1783 C   0  0  0  0  0  0  0  0  0  0  0  0
    1.2064    0.0152    0.9627 C   0  0  0  0  0  0  0  0  0  0  0  0
    0.0233   -0.4683    1.5682 C   0  0  0  0  0  0  0  0  0  0  0  0
   -1.1425   -0.2982    0.7958 C   0  0  0  0  0  0  0  0  0  0  0  0
   -2.0562    0.4167   -1.0352 H   0  0  0  0  0  0  0  0  0  0  0  0
    0.1196    1.2616   -2.0467 H   0  0  0  0  0  0  0  0  0  0  0  0
    3.3917    1.9692   -2.2079 N   0  0  0  0  0  0  0  0  0  0  0  0
    4.3299    2.4803   -2.4854 N   0  0  0  0  0  0  0  0  0  0  0  0
   -2.0949   -0.6502    1.1956 H   0  0  0  0  0  0  0  0  0  0  0  0
   -0.0048   -0.9417    2.5491 H   0  0  0  0  0  0  0  0  0  0  0  0
    2.9117   -0.2038    1.8338 H   0  0  0  0  0  0  0  0  0  0  0  0
    5.0630    0.1026    1.7030 S   0  0  0  0  0  0  0  0  0  0  0  0
    3.6957   -0.4160    2.4137 O   0  0  0  0  0  0  0  0  0  0  0  0
    6.1616   -0.4923    2.4750 O   0  0  0  0  0  0  0  0  0  0  0  0
    4.9442    0.0083    0.2434 O   0  0  0  0  0  0  0  0  0  0  0  0
    5.0229    1.7253    2.0253 O   0  0  0  0  0  0  0  0  0  0  0  0
    5.3718    1.8458    2.9246 H   0  0  0  0  0  0  0  0  0  0  0  0
  1  6  1  0  0  0  0
  2  1  2  0  0  0  0
  2  3  1  0  0  0  0
  3  4  2  0  0  0  0
  4  5  1  0  0  0  0
  5 12  1  0  0  0  0
  6 11  1  0  0  0  0
  6  5  2  0  0  0  0
  7  1  1  0  0  0  0
  8  2  1  0  0  0  0
 10  9  3  0  0  0  0
 13 15  1  0  0  0  0
 14 18  1  0  0  0  0
 14 15  1  0  0  0  0
 14 16  2  0  0  0  0
 17 14  2  0  0  0  0
 18 19  1  0  0  0  0
M  RAD  2   3   2   4   2
M  END
