Coordinates from ORCA-job Ph-N2-HSO4-B3LYPG-aug-cc-pVDZ-scan-d09-49-n400
 OpenBabel11081710403D

 19 19  0  0  1  0  0  0  0  0999 V2000
   -0.3656   -0.0947   -0.7317 C   0  0  0  0  0  0  0  0  0  0  0  0
    0.4961    0.8469   -1.1892 C   0  0  0  0  0  0  0  0  0  0  0  0
    1.5457    1.3482   -0.3181 C   0  0  0  0  0  0  0  0  0  0  0  0
    1.8533    0.6744    0.9932 C   0  0  1  0  0  0  0  0  0  0  0  0
    0.7417   -0.2017    1.4571 C   0  0  0  0  0  0  0  0  0  0  0  0
   -0.2599   -0.5800    0.6316 C   0  0  0  0  0  0  0  0  0  0  0  0
   -1.1577   -0.4705   -1.3773 H   0  0  0  0  0  0  0  0  0  0  0  0
    0.4237    1.2591   -2.1952 H   0  0  0  0  0  0  0  0  0  0  0  0
    2.2459    2.3029   -0.6545 N   0  0  0  0  0  0  0  0  0  0  0  0
    2.9079    3.1874   -0.9549 N   0  0  0  0  0  0  0  0  0  0  0  0
   -1.0287   -1.2596    1.0017 H   0  0  0  0  0  0  0  0  0  0  0  0
    0.8054   -0.5616    2.4825 H   0  0  0  0  0  0  0  0  0  0  0  0
    2.1698    1.3951    1.7538 H   0  0  0  0  0  0  0  0  0  0  0  0
    4.2030   -0.3000    1.9206 S   0  0  0  0  0  0  0  0  0  0  0  0
    3.5504   -0.2646    3.2361 O   0  0  0  0  0  0  0  0  0  0  0  0
    5.1503   -1.3429    1.5055 O   0  0  0  0  0  0  0  0  0  0  0  0
    3.0880   -0.2060    0.7322 O   0  0  0  0  0  0  0  0  0  0  0  0
    4.9566    1.1719    1.7944 O   0  0  0  0  0  0  0  0  0  0  0  0
    5.6358    1.0872    1.1037 H   0  0  0  0  0  0  0  0  0  0  0  0
  1  6  1  0  0  0  0
  2  1  1  0  0  0  0
  2  3  2  0  0  0  0
  3  4  1  0  0  0  0
  4  5  1  0  0  0  0
  4 13  1  1  0  0  0
  5 12  1  0  0  0  0
  6 11  1  0  0  0  0
  6  5  2  0  0  0  0
  7  1  1  0  0  0  0
  8  2  1  0  0  0  0
  9  3  1  0  0  0  0
 10  9  1  0  0  0  0
 14 15  2  0  0  0  0
 16 14  2  0  0  0  0
 17  4  1  0  0  0  0
 17 14  1  0  0  0  0
 18 14  1  0  0  0  0
 19 18  1  0  0  0  0
M  RAD  3   1   2   9   2  10   3
M  END
