Coordinates from ORCA-job Ph-N2-HSO4-B3LYPG-aug-cc-pVDZ-scan-d09-49-n400
 OpenBabel11081710403D

 19 17  0  0  0  0  0  0  0  0999 V2000
   -0.8871    0.1769   -0.6950 C   0  0  0  0  0  0  0  0  0  0  0  0
    0.3172    0.7764   -1.1151 C   0  0  0  0  0  0  0  0  0  0  0  0
    1.2543    0.7119   -0.1255 C   0  0  0  0  0  0  0  0  0  0  0  0
    1.3231    0.2262    1.1272 C   0  0  0  0  0  0  0  0  0  0  0  0
    0.0794   -0.3530    1.4806 C   0  0  0  0  0  0  0  0  0  0  0  0
   -0.9961   -0.3762    0.5869 C   0  0  0  0  0  0  0  0  0  0  0  0
   -1.7244    0.1552   -1.3921 H   0  0  0  0  0  0  0  0  0  0  0  0
    0.4587    1.2181   -2.0963 H   0  0  0  0  0  0  0  0  0  0  0  0
    2.8885    1.6027   -0.7161 N   0  0  0  0  0  0  0  0  0  0  0  0
    3.6213    2.2834   -1.1817 N   0  0  0  0  0  0  0  0  0  0  0  0
   -1.9358   -0.8367    0.8905 H   0  0  0  0  0  0  0  0  0  0  0  0
   -0.0061   -0.7915    2.4749 H   0  0  0  0  0  0  0  0  0  0  0  0
    2.2207    0.2436    1.7952 H   0  0  0  0  0  0  0  0  0  0  0  0
    4.8038    0.1171    1.6892 S   0  0  0  0  0  0  0  0  0  0  0  0
    3.7012    0.3310    2.7080 O   0  0  0  0  0  0  0  0  0  0  0  0
    5.9860   -0.6360    2.1806 O   0  0  0  0  0  0  0  0  0  0  0  0
    4.2394   -0.2821    0.3503 O   0  0  0  0  0  0  0  0  0  0  0  0
    5.3874    1.6856    1.3774 O   0  0  0  0  0  0  0  0  0  0  0  0
    6.2302    1.7391    1.8525 H   0  0  0  0  0  0  0  0  0  0  0  0
  1  6  1  0  0  0  0
  2  1  2  0  0  0  0
  2  3  1  0  0  0  0
  3  4  2  0  0  0  0
  4  5  1  0  0  0  0
  4 13  1  0  0  0  0
  5 12  1  0  0  0  0
  6 11  1  0  0  0  0
  6  5  2  0  0  0  0
  7  1  1  0  0  0  0
  8  2  1  0  0  0  0
 10  9  3  0  0  0  0
 14 16  2  0  0  0  0
 14 15  1  0  0  0  0
 17 14  2  0  0  0  0
 18 14  1  0  0  0  0
 18 19  1  0  0  0  0
M  RAD  2   3   2  15   2
M  END
