Coordinates from ORCA-job Ph-N2-HSO4-B3LYPG-aug-cc-pVDZ-scan-d09-49-n400
 OpenBabel11081710403D

 19 19  0  0  1  0  0  0  0  0999 V2000
   -0.3722   -0.1118   -0.7363 C   0  0  0  0  0  0  0  0  0  0  0  0
    0.4822    0.8471   -1.1846 C   0  0  0  0  0  0  0  0  0  0  0  0
    1.5085    1.3308   -0.2996 C   0  0  0  0  0  0  0  0  0  0  0  0
    1.8352    0.6823    0.9992 C   0  0  1  0  0  0  0  0  0  0  0  0
    0.7325   -0.2042    1.4575 C   0  0  0  0  0  0  0  0  0  0  0  0
   -0.2603   -0.5973    0.6232 C   0  0  0  0  0  0  0  0  0  0  0  0
   -1.1593   -0.4925   -1.3847 H   0  0  0  0  0  0  0  0  0  0  0  0
    0.4058    1.2696   -2.1857 H   0  0  0  0  0  0  0  0  0  0  0  0
    2.2684    2.3713   -0.6718 N   0  0  0  0  0  0  0  0  0  0  0  0
    2.9228    3.2498   -0.9746 N   0  0  0  0  0  0  0  0  0  0  0  0
   -1.0200   -1.2885    0.9911 H   0  0  0  0  0  0  0  0  0  0  0  0
    0.7926   -0.5633    2.4832 H   0  0  0  0  0  0  0  0  0  0  0  0
    2.1625    1.3935    1.7627 H   0  0  0  0  0  0  0  0  0  0  0  0
    4.2027   -0.2974    1.9229 S   0  0  0  0  0  0  0  0  0  0  0  0
    3.5524   -0.2248    3.2390 O   0  0  0  0  0  0  0  0  0  0  0  0
    5.1419   -1.3603    1.5367 O   0  0  0  0  0  0  0  0  0  0  0  0
    3.0936   -0.2083    0.7372 O   0  0  0  0  0  0  0  0  0  0  0  0
    4.9851    1.1607    1.7683 O   0  0  0  0  0  0  0  0  0  0  0  0
    5.6872    1.0348    1.1079 H   0  0  0  0  0  0  0  0  0  0  0  0
  1  6  1  0  0  0  0
  2  1  1  0  0  0  0
  2  3  2  0  0  0  0
  3  4  1  0  0  0  0
  4  5  1  0  0  0  0
  4 13  1  1  0  0  0
  5 12  1  0  0  0  0
  6 11  1  0  0  0  0
  6  5  2  0  0  0  0
  7  1  1  0  0  0  0
  8  2  1  0  0  0  0
  9  3  1  0  0  0  0
 10  9  1  0  0  0  0
 14 15  2  0  0  0  0
 16 14  2  0  0  0  0
 17  4  1  0  0  0  0
 17 14  1  0  0  0  0
 18 14  1  0  0  0  0
 19 18  1  0  0  0  0
M  RAD  3   1   2   9   2  10   3
M  END
