Coordinates from ORCA-job Ph-N2-HSO4-B3LYPG-aug-cc-pVDZ-scan-d09-49-n400
 OpenBabel11081710403D

 19 17  0  0  0  0  0  0  0  0999 V2000
   -1.1105    0.2878   -0.5514 C   0  0  0  0  0  0  0  0  0  0  0  0
    0.0212    0.8305   -1.2102 C   0  0  0  0  0  0  0  0  0  0  0  0
    1.0830    0.6730   -0.3673 C   0  0  0  0  0  0  0  0  0  0  0  0
    1.3341    0.1942    0.7806 C   0  0  0  0  0  0  0  0  0  0  0  0
    0.1959   -0.3462    1.4368 C   0  0  0  0  0  0  0  0  0  0  0  0
   -1.0196   -0.2814    0.7321 C   0  0  0  0  0  0  0  0  0  0  0  0
   -2.0708    0.3201   -1.0686 H   0  0  0  0  0  0  0  0  0  0  0  0
   -0.0044    1.2770   -2.1995 H   0  0  0  0  0  0  0  0  0  0  0  0
    2.9095    1.7331   -1.6750 N   0  0  0  0  0  0  0  0  0  0  0  0
    3.8943    2.2241   -1.7631 N   0  0  0  0  0  0  0  0  0  0  0  0
   -1.9216   -0.6873    1.1928 H   0  0  0  0  0  0  0  0  0  0  0  0
    0.2498   -0.7948    2.4290 H   0  0  0  0  0  0  0  0  0  0  0  0
    2.8923   -0.0250    1.7416 H   0  0  0  0  0  0  0  0  0  0  0  0
    5.0728    0.0484    1.7249 S   0  0  0  0  0  0  0  0  0  0  0  0
    3.6273   -0.2526    2.3923 O   0  0  0  0  0  0  0  0  0  0  0  0
    6.0656   -0.5899    2.5998 O   0  0  0  0  0  0  0  0  0  0  0  0
    5.0147   -0.1573    0.2723 O   0  0  0  0  0  0  0  0  0  0  0  0
    5.2039    1.6895    1.9102 O   0  0  0  0  0  0  0  0  0  0  0  0
    5.5243    1.8484    2.8141 H   0  0  0  0  0  0  0  0  0  0  0  0
  1  6  1  0  0  0  0
  2  1  2  0  0  0  0
  2  3  1  0  0  0  0
  3  4  2  0  0  0  0
  4  5  1  0  0  0  0
  5 12  1  0  0  0  0
  6 11  1  0  0  0  0
  6  5  2  0  0  0  0
  7  1  1  0  0  0  0
  8  2  1  0  0  0  0
 10  9  3  0  0  0  0
 13 15  1  0  0  0  0
 14 18  1  0  0  0  0
 14 15  1  0  0  0  0
 14 16  2  0  0  0  0
 17 14  2  0  0  0  0
 18 19  1  0  0  0  0
M  RAD  2   3   2   4   2
M  END
