Coordinates from ORCA-job Ph-N2-HSO4-B3LYPG-aug-cc-pVDZ-scan-d09-49-n400
 OpenBabel11081710403D

 19 17  0  0  0  0  0  0  0  0999 V2000
   -1.1292    0.2965   -0.5177 C   0  0  0  0  0  0  0  0  0  0  0  0
    0.0315    0.8123   -1.1511 C   0  0  0  0  0  0  0  0  0  0  0  0
    1.0686    0.6109   -0.2850 C   0  0  0  0  0  0  0  0  0  0  0  0
    1.2616    0.1107    0.8600 C   0  0  0  0  0  0  0  0  0  0  0  0
    0.1067   -0.4043    1.4990 C   0  0  0  0  0  0  0  0  0  0  0  0
   -1.0870   -0.2895    0.7614 C   0  0  0  0  0  0  0  0  0  0  0  0
   -2.0777    0.3641   -1.0535 H   0  0  0  0  0  0  0  0  0  0  0  0
    0.0395    1.2697   -2.1355 H   0  0  0  0  0  0  0  0  0  0  0  0
    3.1295    1.8427   -1.9204 N   0  0  0  0  0  0  0  0  0  0  0  0
    4.0980    2.3388   -2.1054 N   0  0  0  0  0  0  0  0  0  0  0  0
   -2.0134   -0.6701    1.1946 H   0  0  0  0  0  0  0  0  0  0  0  0
    0.1237   -0.8641    2.4868 H   0  0  0  0  0  0  0  0  0  0  0  0
    2.9161   -0.1012    1.7744 H   0  0  0  0  0  0  0  0  0  0  0  0
    5.0887    0.0741    1.7192 S   0  0  0  0  0  0  0  0  0  0  0  0
    3.6674   -0.3288    2.3945 O   0  0  0  0  0  0  0  0  0  0  0  0
    6.1198   -0.5515    2.5575 O   0  0  0  0  0  0  0  0  0  0  0  0
    5.0199   -0.0755    0.2609 O   0  0  0  0  0  0  0  0  0  0  0  0
    5.1381    1.7092    1.9724 O   0  0  0  0  0  0  0  0  0  0  0  0
    5.4600    1.8473    2.8792 H   0  0  0  0  0  0  0  0  0  0  0  0
  1  6  1  0  0  0  0
  2  1  2  0  0  0  0
  2  3  1  0  0  0  0
  3  4  2  0  0  0  0
  4  5  1  0  0  0  0
  5 12  1  0  0  0  0
  6 11  1  0  0  0  0
  6  5  2  0  0  0  0
  7  1  1  0  0  0  0
  8  2  1  0  0  0  0
 10  9  3  0  0  0  0
 13 15  1  0  0  0  0
 14 18  1  0  0  0  0
 14 15  1  0  0  0  0
 14 16  2  0  0  0  0
 17 14  2  0  0  0  0
 18 19  1  0  0  0  0
M  RAD  2   3   2   4   2
M  END
