Coordinates from ORCA-job Ph-N2-HSO4-B3LYPG-aug-cc-pVDZ-scan-d09-49-n400
 OpenBabel11081710403D

 19 18  0  0  0  0  0  0  0  0999 V2000
   -0.7313    0.1403   -0.7926 C   0  0  0  0  0  0  0  0  0  0  0  0
    0.4762    0.7845   -1.0523 C   0  0  0  0  0  0  0  0  0  0  0  0
    1.4056    0.8185   -0.0064 C   0  0  0  0  0  0  0  0  0  0  0  0
    1.2246    0.2646    1.2590 C   0  0  0  0  0  0  0  0  0  0  0  0
   -0.0045   -0.3575    1.4821 C   0  0  0  0  0  0  0  0  0  0  0  0
   -0.9682   -0.4243    0.4685 C   0  0  0  0  0  0  0  0  0  0  0  0
   -1.4849    0.0791   -1.5764 H   0  0  0  0  0  0  0  0  0  0  0  0
    0.6937    1.2332   -2.0194 H   0  0  0  0  0  0  0  0  0  0  0  0
    2.6526    1.5439   -0.2959 N   0  0  0  0  0  0  0  0  0  0  0  0
    3.3902    2.2865   -0.6698 N   0  0  0  0  0  0  0  0  0  0  0  0
   -1.9165   -0.9269    0.6593 H   0  0  0  0  0  0  0  0  0  0  0  0
   -0.1999   -0.8051    2.4556 H   0  0  0  0  0  0  0  0  0  0  0  0
    2.0224    0.3241    2.0060 H   0  0  0  0  0  0  0  0  0  0  0  0
    4.7768    0.1937    1.7206 S   0  0  0  0  0  0  0  0  0  0  0  0
    3.8409    0.6507    2.7988 O   0  0  0  0  0  0  0  0  0  0  0  0
    5.9449   -0.6341    2.1133 O   0  0  0  0  0  0  0  0  0  0  0  0
    4.0210   -0.3103    0.5014 O   0  0  0  0  0  0  0  0  0  0  0  0
    5.4472    1.6678    1.1751 O   0  0  0  0  0  0  0  0  0  0  0  0
    6.3709    1.4626    0.9646 H   0  0  0  0  0  0  0  0  0  0  0  0
  1  6  1  0  0  0  0
  2  1  2  0  0  0  0
  2  3  1  0  0  0  0
  3  4  2  0  0  0  0
  4  5  1  0  0  0  0
  4 13  1  0  0  0  0
  5 12  1  0  0  0  0
  6 11  1  0  0  0  0
  6  5  2  0  0  0  0
  7  1  1  0  0  0  0
  8  2  1  0  0  0  0
  9  3  1  0  0  0  0
 10  9  1  0  0  0  0
 14 16  2  0  0  0  0
 14 15  1  0  0  0  0
 17 14  2  0  0  0  0
 18 14  1  0  0  0  0
 19 18  1  0  0  0  0
M  RAD  3   9   2  10   3  15   2
M  END
