Coordinates from ORCA-job Ph-N2-HSO4-B3LYPG-aug-cc-pVDZ-scan-d09-49-n400
 OpenBabel11081710403D

 19 17  0  0  0  0  0  0  0  0999 V2000
   -0.7525    0.4398   -0.4225 C   0  0  0  0  0  0  0  0  0  0  0  0
    0.6098    0.7074   -0.7194 C   0  0  0  0  0  0  0  0  0  0  0  0
    1.3311    0.2240    0.3350 C   0  0  0  0  0  0  0  0  0  0  0  0
    1.1217   -0.3641    1.4332 C   0  0  0  0  0  0  0  0  0  0  0  0
   -0.2314   -0.6348    1.7395 C   0  0  0  0  0  0  0  0  0  0  0  0
   -1.1529   -0.2069    0.7634 C   0  0  0  0  0  0  0  0  0  0  0  0
   -1.5045    0.7528   -1.1490 H   0  0  0  0  0  0  0  0  0  0  0  0
    0.9582    1.2017   -1.6207 H   0  0  0  0  0  0  0  0  0  0  0  0
    3.2810    2.1863   -3.0202 N   0  0  0  0  0  0  0  0  0  0  0  0
    4.3159    2.4880   -3.2579 N   0  0  0  0  0  0  0  0  0  0  0  0
   -2.2171   -0.3827    0.9289 H   0  0  0  0  0  0  0  0  0  0  0  0
   -0.5571   -1.1352    2.6510 H   0  0  0  0  0  0  0  0  0  0  0  0
    2.9242   -0.6235    2.1383 H   0  0  0  0  0  0  0  0  0  0  0  0
    4.7978    0.2831    1.5509 S   0  0  0  0  0  0  0  0  0  0  0  0
    3.8761   -0.7266    2.4247 O   0  0  0  0  0  0  0  0  0  0  0  0
    6.1843   -0.1551    1.7464 O   0  0  0  0  0  0  0  0  0  0  0  0
    4.1943    0.5000    0.2263 O   0  0  0  0  0  0  0  0  0  0  0  0
    4.5887    1.7188    2.3414 O   0  0  0  0  0  0  0  0  0  0  0  0
    5.1941    1.7185    3.1022 H   0  0  0  0  0  0  0  0  0  0  0  0
  1  6  1  0  0  0  0
  2  1  2  0  0  0  0
  2  3  1  0  0  0  0
  3  4  2  0  0  0  0
  4  5  1  0  0  0  0
  5 12  1  0  0  0  0
  6 11  1  0  0  0  0
  6  5  2  0  0  0  0
  7  1  1  0  0  0  0
  8  2  1  0  0  0  0
 10  9  3  0  0  0  0
 13 15  1  0  0  0  0
 14 16  2  0  0  0  0
 14 18  1  0  0  0  0
 14 15  1  0  0  0  0
 17 14  2  0  0  0  0
 18 19  1  0  0  0  0
M  RAD  2   3   2   4   2
M  END
