Coordinates from ORCA-job Ph-N2-HSO4-B3LYPG-aug-cc-pVDZ-scan-d09-49-n400
 OpenBabel11081710403D

 19 17  0  0  0  0  0  0  0  0999 V2000
   -0.7572    0.4400   -0.4273 C   0  0  0  0  0  0  0  0  0  0  0  0
    0.6033    0.7074   -0.7326 C   0  0  0  0  0  0  0  0  0  0  0  0
    1.3307    0.2271    0.3198 C   0  0  0  0  0  0  0  0  0  0  0  0
    1.1256   -0.3579    1.4200 C   0  0  0  0  0  0  0  0  0  0  0  0
   -0.2251   -0.6287    1.7352 C   0  0  0  0  0  0  0  0  0  0  0  0
   -1.1514   -0.2036    0.7623 C   0  0  0  0  0  0  0  0  0  0  0  0
   -1.5133    0.7507   -1.1506 H   0  0  0  0  0  0  0  0  0  0  0  0
    0.9456    1.2001   -1.6374 H   0  0  0  0  0  0  0  0  0  0  0  0
    3.2527    2.1804   -3.0439 N   0  0  0  0  0  0  0  0  0  0  0  0
    4.2839    2.4964   -3.2790 N   0  0  0  0  0  0  0  0  0  0  0  0
   -2.2148   -0.3793    0.9337 H   0  0  0  0  0  0  0  0  0  0  0  0
   -0.5459   -1.1267    2.6497 H   0  0  0  0  0  0  0  0  0  0  0  0
    2.9274   -0.6213    2.1317 H   0  0  0  0  0  0  0  0  0  0  0  0
    4.8112    0.2798    1.5687 S   0  0  0  0  0  0  0  0  0  0  0  0
    3.8753   -0.7303    2.4277 O   0  0  0  0  0  0  0  0  0  0  0  0
    6.1934   -0.1661    1.7783 O   0  0  0  0  0  0  0  0  0  0  0  0
    4.2234    0.5059    0.2391 O   0  0  0  0  0  0  0  0  0  0  0  0
    4.5997    1.7123    2.3646 O   0  0  0  0  0  0  0  0  0  0  0  0
    5.1972    1.7053    3.1316 H   0  0  0  0  0  0  0  0  0  0  0  0
  1  6  1  0  0  0  0
  2  1  2  0  0  0  0
  2  3  1  0  0  0  0
  3  4  2  0  0  0  0
  4  5  1  0  0  0  0
  5 12  1  0  0  0  0
  6 11  1  0  0  0  0
  6  5  2  0  0  0  0
  7  1  1  0  0  0  0
  8  2  1  0  0  0  0
 10  9  3  0  0  0  0
 13 15  1  0  0  0  0
 14 16  2  0  0  0  0
 14 18  1  0  0  0  0
 14 15  1  0  0  0  0
 17 14  2  0  0  0  0
 18 19  1  0  0  0  0
M  RAD  2   3   2   4   2
M  END
