Coordinates from ORCA-job Ph-N2-HSO4-B3LYPG-aug-cc-pVDZ-scan-d09-49-n400
 OpenBabel11081710403D

 19 19  0  0  1  0  0  0  0  0999 V2000
   -0.3634   -0.0761   -0.7298 C   0  0  0  0  0  0  0  0  0  0  0  0
    0.5072    0.8501   -1.1924 C   0  0  0  0  0  0  0  0  0  0  0  0
    1.5773    1.3608   -0.3295 C   0  0  0  0  0  0  0  0  0  0  0  0
    1.8643    0.6638    0.9930 C   0  0  1  0  0  0  0  0  0  0  0  0
    0.7445   -0.2042    1.4553 C   0  0  0  0  0  0  0  0  0  0  0  0
   -0.2644   -0.5657    0.6345 C   0  0  0  0  0  0  0  0  0  0  0  0
   -1.1603   -0.4437   -1.3747 H   0  0  0  0  0  0  0  0  0  0  0  0
    0.4416    1.2570   -2.2012 H   0  0  0  0  0  0  0  0  0  0  0  0
    2.2295    2.2327   -0.6338 N   0  0  0  0  0  0  0  0  0  0  0  0
    2.9062    3.1182   -0.9313 N   0  0  0  0  0  0  0  0  0  0  0  0
   -1.0414   -1.2362    1.0036 H   0  0  0  0  0  0  0  0  0  0  0  0
    0.8092   -0.5687    2.4792 H   0  0  0  0  0  0  0  0  0  0  0  0
    2.1723    1.3906    1.7523 H   0  0  0  0  0  0  0  0  0  0  0  0
    4.2088   -0.2957    1.9196 S   0  0  0  0  0  0  0  0  0  0  0  0
    3.5594   -0.2834    3.2366 O   0  0  0  0  0  0  0  0  0  0  0  0
    5.1643   -1.3222    1.4860 O   0  0  0  0  0  0  0  0  0  0  0  0
    3.0839   -0.2098    0.7337 O   0  0  0  0  0  0  0  0  0  0  0  0
    4.9338    1.1883    1.8036 O   0  0  0  0  0  0  0  0  0  0  0  0
    5.5890    1.1357    1.0867 H   0  0  0  0  0  0  0  0  0  0  0  0
  1  6  1  0  0  0  0
  2  1  1  0  0  0  0
  2  3  2  0  0  0  0
  3  4  1  0  0  0  0
  4  5  1  0  0  0  0
  4 13  1  1  0  0  0
  5 12  1  0  0  0  0
  6 11  1  0  0  0  0
  6  5  2  0  0  0  0
  7  1  1  0  0  0  0
  8  2  1  0  0  0  0
  9  3  1  0  0  0  0
 10  9  1  0  0  0  0
 14 15  2  0  0  0  0
 16 14  2  0  0  0  0
 17  4  1  0  0  0  0
 17 14  1  0  0  0  0
 18 14  1  0  0  0  0
 19 18  1  0  0  0  0
M  RAD  3   1   2   9   2  10   3
M  END
