Coordinates from ORCA-job Ph-N2-HSO4-B3LYPG-aug-cc-pVDZ-scan-d09-49-n400
 OpenBabel11081710403D

 19 19  0  0  1  0  0  0  0  0999 V2000
   -0.3745   -0.1160   -0.7380 C   0  0  0  0  0  0  0  0  0  0  0  0
    0.4785    0.8475   -1.1831 C   0  0  0  0  0  0  0  0  0  0  0  0
    1.4978    1.3258   -0.2932 C   0  0  1  0  0  0  0  0  0  0  0  0
    1.8288    0.6838    1.0021 C   0  0  1  0  0  0  0  0  0  0  0  0
    0.7284   -0.2056    1.4575 C   0  0  0  0  0  0  0  0  0  0  0  0
   -0.2617   -0.6022    0.6202 C   0  0  0  0  0  0  0  0  0  0  0  0
   -1.1598   -0.4976   -1.3879 H   0  0  0  0  0  0  0  0  0  0  0  0
    0.4023    1.2730   -2.1828 H   0  0  0  0  0  0  0  0  0  0  0  0
    2.2755    2.3886   -0.6749 N   0  0  0  0  0  0  0  0  0  0  0  0
    2.9293    3.2648   -0.9780 N   0  0  0  0  0  0  0  0  0  0  0  0
   -1.0191   -1.2966    0.9867 H   0  0  0  0  0  0  0  0  0  0  0  0
    0.7869   -0.5650    2.4831 H   0  0  0  0  0  0  0  0  0  0  0  0
    2.1595    1.3918    1.7667 H   0  0  0  0  0  0  0  0  0  0  0  0
    4.2039   -0.2955    1.9234 S   0  0  0  0  0  0  0  0  0  0  0  0
    3.5556   -0.2103    3.2402 O   0  0  0  0  0  0  0  0  0  0  0  0
    5.1411   -1.3640    1.5467 O   0  0  0  0  0  0  0  0  0  0  0  0
    3.0950   -0.2105    0.7398 O   0  0  0  0  0  0  0  0  0  0  0  0
    4.9933    1.1587    1.7575 O   0  0  0  0  0  0  0  0  0  0  0  0
    5.7007    1.0208    1.1054 H   0  0  0  0  0  0  0  0  0  0  0  0
  1  6  1  0  0  0  0
  2  1  2  0  0  0  0
  2  3  1  0  0  0  0
  3  9  1  6  0  0  0
  3  4  1  0  0  0  0
  4  5  1  0  0  0  0
  4 13  1  1  0  0  0
  5 12  1  0  0  0  0
  6 11  1  0  0  0  0
  6  5  2  0  0  0  0
  7  1  1  0  0  0  0
  8  2  1  0  0  0  0
 10  9  1  0  0  0  0
 14 15  2  0  0  0  0
 16 14  2  0  0  0  0
 17  4  1  0  0  0  0
 17 14  1  0  0  0  0
 18 14  1  0  0  0  0
 19 18  1  0  0  0  0
M  RAD  3   3   2   9   2  10   3
M  END
