Coordinates from ORCA-job Ph-N2-HSO4-B3LYPG-aug-cc-pVDZ-scan-d09-49-n400
 OpenBabel11081710403D

 19 18  0  0  0  0  0  0  0  0999 V2000
   -0.7800    0.1383   -0.7749 C   0  0  0  0  0  0  0  0  0  0  0  0
    0.4450    0.7504   -1.0678 C   0  0  0  0  0  0  0  0  0  0  0  0
    1.3493    0.7457   -0.0227 C   0  0  0  0  0  0  0  0  0  0  0  0
    1.2208    0.2267    1.2432 C   0  0  0  0  0  0  0  0  0  0  0  0
   -0.0278   -0.3622    1.4899 C   0  0  0  0  0  0  0  0  0  0  0  0
   -1.0096   -0.4099    0.4931 C   0  0  0  0  0  0  0  0  0  0  0  0
   -1.5473    0.0936   -1.5469 H   0  0  0  0  0  0  0  0  0  0  0  0
    0.6639    1.1861   -2.0392 H   0  0  0  0  0  0  0  0  0  0  0  0
    2.7904    1.5169   -0.3747 N   0  0  0  0  0  0  0  0  0  0  0  0
    3.3958    2.3286   -0.8309 N   0  0  0  0  0  0  0  0  0  0  0  0
   -1.9677   -0.8846    0.7042 H   0  0  0  0  0  0  0  0  0  0  0  0
   -0.2171   -0.7933    2.4722 H   0  0  0  0  0  0  0  0  0  0  0  0
    2.0317    0.2802    1.9775 H   0  0  0  0  0  0  0  0  0  0  0  0
    4.8049    0.2193    1.7167 S   0  0  0  0  0  0  0  0  0  0  0  0
    3.8364    0.5823    2.7974 O   0  0  0  0  0  0  0  0  0  0  0  0
    5.9413   -0.6727    2.0568 O   0  0  0  0  0  0  0  0  0  0  0  0
    4.0804   -0.1783    0.4283 O   0  0  0  0  0  0  0  0  0  0  0  0
    5.5087    1.7108    1.3198 O   0  0  0  0  0  0  0  0  0  0  0  0
    6.4427    1.5136    1.1496 H   0  0  0  0  0  0  0  0  0  0  0  0
  1  6  1  0  0  0  0
  2  1  2  0  0  0  0
  2  3  1  0  0  0  0
  3  4  2  0  0  0  0
  4  5  1  0  0  0  0
  4 13  1  0  0  0  0
  5 12  1  0  0  0  0
  6 11  1  0  0  0  0
  6  5  2  0  0  0  0
  7  1  1  0  0  0  0
  8  2  1  0  0  0  0
  9  3  1  0  0  0  0
 10  9  2  0  0  0  0
 14 16  2  0  0  0  0
 14 15  1  0  0  0  0
 17 14  2  0  0  0  0
 18 14  1  0  0  0  0
 19 18  1  0  0  0  0
M  RAD  2  10   2  15   2
M  END
