Coordinates from ORCA-job Ph-N2-HSO4-B3LYPG-aug-cc-pVDZ-scan-d09-49-n400
 OpenBabel11081710403D

 19 19  0  0  1  0  0  0  0  0999 V2000
   -0.3739   -0.0429   -0.7262 C   0  0  0  0  0  0  0  0  0  0  0  0
    0.5151    0.8593   -1.1908 C   0  0  0  0  0  0  0  0  0  0  0  0
    1.6198    1.3592   -0.3387 C   0  0  0  0  0  0  0  0  0  0  0  0
    1.8721    0.6310    1.0001 C   0  0  1  0  0  0  0  0  0  0  0  0
    0.7395   -0.2276    1.4494 C   0  0  0  0  0  0  0  0  0  0  0  0
   -0.2819   -0.5535    0.6329 C   0  0  0  0  0  0  0  0  0  0  0  0
   -1.1830   -0.3855   -1.3705 H   0  0  0  0  0  0  0  0  0  0  0  0
    0.4606    1.2704   -2.1989 H   0  0  0  0  0  0  0  0  0  0  0  0
    2.2465    2.1429   -0.6133 N   0  0  0  0  0  0  0  0  0  0  0  0
    2.9617    3.0144   -0.9056 N   0  0  0  0  0  0  0  0  0  0  0  0
   -1.0718   -1.2122    0.9953 H   0  0  0  0  0  0  0  0  0  0  0  0
    0.8048   -0.6094    2.4675 H   0  0  0  0  0  0  0  0  0  0  0  0
    2.1631    1.3662    1.7593 H   0  0  0  0  0  0  0  0  0  0  0  0
    4.2258   -0.2767    1.9252 S   0  0  0  0  0  0  0  0  0  0  0  0
    3.5930   -0.2824    3.2494 O   0  0  0  0  0  0  0  0  0  0  0  0
    5.1994   -1.2770    1.4746 O   0  0  0  0  0  0  0  0  0  0  0  0
    3.0764   -0.2330    0.7515 O   0  0  0  0  0  0  0  0  0  0  0  0
    4.8932    1.2290    1.7950 O   0  0  0  0  0  0  0  0  0  0  0  0
    5.5014    1.2192    1.0354 H   0  0  0  0  0  0  0  0  0  0  0  0
  1  6  1  0  0  0  0
  2  1  1  0  0  0  0
  2  3  2  0  0  0  0
  3  4  1  0  0  0  0
  4  5  1  0  0  0  0
  4 13  1  1  0  0  0
  5 12  1  0  0  0  0
  6 11  1  0  0  0  0
  6  5  2  0  0  0  0
  7  1  1  0  0  0  0
  8  2  1  0  0  0  0
  9  3  1  0  0  0  0
 10  9  1  0  0  0  0
 14 15  2  0  0  0  0
 16 14  2  0  0  0  0
 17  4  1  0  0  0  0
 17 14  1  0  0  0  0
 18 14  1  0  0  0  0
 19 18  1  0  0  0  0
M  RAD  3   1   2   9   2  10   3
M  END
