Coordinates from ORCA-job Ph-N2-HSO4-B3LYPG-aug-cc-pVDZ-scan-d09-49-n400
 OpenBabel11081710403D

 19 19  0  0  1  0  0  0  0  0999 V2000
   -0.3938    0.0010   -0.7253 C   0  0  0  0  0  0  0  0  0  0  0  0
    0.5192    0.8802   -1.1819 C   0  0  0  0  0  0  0  0  0  0  0  0
    1.6590    1.3383   -0.3363 C   0  0  0  0  0  0  0  0  0  0  0  0
    1.8716    0.5856    1.0158 C   0  0  1  0  0  0  0  0  0  0  0  0
    0.7258   -0.2699    1.4374 C   0  0  0  0  0  0  0  0  0  0  0  0
   -0.3072   -0.5484    0.6202 C   0  0  0  0  0  0  0  0  0  0  0  0
   -1.2189   -0.3015   -1.3697 H   0  0  0  0  0  0  0  0  0  0  0  0
    0.4748    1.3095   -2.1830 H   0  0  0  0  0  0  0  0  0  0  0  0
    2.2882    2.0453   -0.5912 N   0  0  0  0  0  0  0  0  0  0  0  0
    3.0589    2.8823   -0.8765 N   0  0  0  0  0  0  0  0  0  0  0  0
   -1.1092   -1.2000    0.9680 H   0  0  0  0  0  0  0  0  0  0  0  0
    0.7892   -0.6833    2.4437 H   0  0  0  0  0  0  0  0  0  0  0  0
    2.1400    1.3240    1.7810 H   0  0  0  0  0  0  0  0  0  0  0  0
    4.2517   -0.2383    1.9382 S   0  0  0  0  0  0  0  0  0  0  0  0
    3.6505   -0.2318    3.2766 O   0  0  0  0  0  0  0  0  0  0  0  0
    5.2441   -1.2182    1.4864 O   0  0  0  0  0  0  0  0  0  0  0  0
    3.0687   -0.2721    0.7903 O   0  0  0  0  0  0  0  0  0  0  0  0
    4.8521    1.2864    1.7522 O   0  0  0  0  0  0  0  0  0  0  0  0
    5.3970    1.3024    0.9457 H   0  0  0  0  0  0  0  0  0  0  0  0
  1  6  1  0  0  0  0
  2  1  1  0  0  0  0
  2  3  2  0  0  0  0
  3  4  1  0  0  0  0
  4  5  1  0  0  0  0
  4 13  1  1  0  0  0
  5 12  1  0  0  0  0
  6 11  1  0  0  0  0
  6  5  2  0  0  0  0
  7  1  1  0  0  0  0
  8  2  1  0  0  0  0
  9  3  1  0  0  0  0
 10  9  1  0  0  0  0
 14 15  2  0  0  0  0
 16 14  2  0  0  0  0
 17  4  1  0  0  0  0
 17 14  1  0  0  0  0
 18 14  1  0  0  0  0
 19 18  1  0  0  0  0
M  RAD  3   1   2   9   2  10   3
M  END
