Coordinates from ORCA-job Ph-N2-HSO4-B3LYPG-aug-cc-pVDZ-scan-d09-49-n400
 OpenBabel11081710403D

 19 18  0  0  0  0  0  0  0  0999 V2000
   -0.8041    0.1372   -0.7638 C   0  0  0  0  0  0  0  0  0  0  0  0
    0.4185    0.7506   -1.0780 C   0  0  0  0  0  0  0  0  0  0  0  0
    1.3181    0.7343   -0.0368 C   0  0  0  0  0  0  0  0  0  0  0  0
    1.2302    0.2240    1.2286 C   0  0  0  0  0  0  0  0  0  0  0  0
   -0.0186   -0.3664    1.4894 C   0  0  0  0  0  0  0  0  0  0  0  0
   -1.0144   -0.4120    0.5067 C   0  0  0  0  0  0  0  0  0  0  0  0
   -1.5819    0.0946   -1.5256 H   0  0  0  0  0  0  0  0  0  0  0  0
    0.6264    1.1873   -2.0507 H   0  0  0  0  0  0  0  0  0  0  0  0
    2.8253    1.5388   -0.4254 N   0  0  0  0  0  0  0  0  0  0  0  0
    3.4217    2.3493   -0.8918 N   0  0  0  0  0  0  0  0  0  0  0  0
   -1.9694   -0.8863    0.7315 H   0  0  0  0  0  0  0  0  0  0  0  0
   -0.1919   -0.7984    2.4745 H   0  0  0  0  0  0  0  0  0  0  0  0
    2.0561    0.2784    1.9499 H   0  0  0  0  0  0  0  0  0  0  0  0
    4.8055    0.2151    1.7170 S   0  0  0  0  0  0  0  0  0  0  0  0
    3.8052    0.5669    2.7757 O   0  0  0  0  0  0  0  0  0  0  0  0
    5.9309   -0.6801    2.0863 O   0  0  0  0  0  0  0  0  0  0  0  0
    4.1181   -0.1679    0.4068 O   0  0  0  0  0  0  0  0  0  0  0  0
    5.5223    1.7102    1.3614 O   0  0  0  0  0  0  0  0  0  0  0  0
    6.4638    1.5158    1.2357 H   0  0  0  0  0  0  0  0  0  0  0  0
  1  6  1  0  0  0  0
  2  1  2  0  0  0  0
  2  3  1  0  0  0  0
  3  4  2  0  0  0  0
  4  5  1  0  0  0  0
  4 13  1  0  0  0  0
  5 12  1  0  0  0  0
  6 11  1  0  0  0  0
  6  5  2  0  0  0  0
  7  1  1  0  0  0  0
  8  2  1  0  0  0  0
  9  3  1  0  0  0  0
 10  9  2  0  0  0  0
 14 16  2  0  0  0  0
 14 15  1  0  0  0  0
 17 14  2  0  0  0  0
 18 14  1  0  0  0  0
 19 18  1  0  0  0  0
M  RAD  2  10   2  15   2
M  END
