Coordinates from ORCA-job Ph-N2-HSO4-B3LYPG-aug-cc-pVDZ-scan-d09-49-n400
 OpenBabel11081710403D

 19 18  0  0  0  0  0  0  0  0999 V2000
   -0.7375    0.1391   -0.7907 C   0  0  0  0  0  0  0  0  0  0  0  0
    0.4710    0.7823   -1.0537 C   0  0  0  0  0  0  0  0  0  0  0  0
    1.3957    0.8119   -0.0074 C   0  0  0  0  0  0  0  0  0  0  0  0
    1.2231    0.2624    1.2578 C   0  0  0  0  0  0  0  0  0  0  0  0
   -0.0070   -0.3591    1.4829 C   0  0  0  0  0  0  0  0  0  0  0  0
   -0.9724   -0.4250    0.4709 C   0  0  0  0  0  0  0  0  0  0  0  0
   -1.4926    0.0786   -1.5731 H   0  0  0  0  0  0  0  0  0  0  0  0
    0.6884    1.2304   -2.0209 H   0  0  0  0  0  0  0  0  0  0  0  0
    2.6700    1.5483   -0.3044 N   0  0  0  0  0  0  0  0  0  0  0  0
    3.4035    2.2926   -0.6807 N   0  0  0  0  0  0  0  0  0  0  0  0
   -1.9209   -0.9266    0.6634 H   0  0  0  0  0  0  0  0  0  0  0  0
   -0.2009   -0.8059    2.4569 H   0  0  0  0  0  0  0  0  0  0  0  0
    2.0230    0.3225    2.0028 H   0  0  0  0  0  0  0  0  0  0  0  0
    4.7782    0.1951    1.7194 S   0  0  0  0  0  0  0  0  0  0  0  0
    3.8389    0.6472    2.7966 O   0  0  0  0  0  0  0  0  0  0  0  0
    5.9435   -0.6368    2.1118 O   0  0  0  0  0  0  0  0  0  0  0  0
    4.0263   -0.3023    0.4946 O   0  0  0  0  0  0  0  0  0  0  0  0
    5.4528    1.6705    1.1838 O   0  0  0  0  0  0  0  0  0  0  0  0
    6.3786    1.4661    0.9816 H   0  0  0  0  0  0  0  0  0  0  0  0
  1  6  1  0  0  0  0
  2  1  2  0  0  0  0
  2  3  1  0  0  0  0
  3  4  2  0  0  0  0
  4  5  1  0  0  0  0
  4 13  1  0  0  0  0
  5 12  1  0  0  0  0
  6 11  1  0  0  0  0
  6  5  2  0  0  0  0
  7  1  1  0  0  0  0
  8  2  1  0  0  0  0
  9  3  1  0  0  0  0
 10  9  1  0  0  0  0
 14 16  2  0  0  0  0
 14 15  1  0  0  0  0
 17 14  2  0  0  0  0
 18 14  1  0  0  0  0
 19 18  1  0  0  0  0
M  RAD  3   9   2  10   3  15   2
M  END
