Coordinates from ORCA-job Ph-N2-HSO4-B3LYPG-aug-cc-pVDZ-scan-d09-49-n400
 OpenBabel11081710403D

 19 18  0  0  0  0  0  0  0  0999 V2000
   -0.7830    0.1392   -0.7725 C   0  0  0  0  0  0  0  0  0  0  0  0
    0.4424    0.7508   -1.0699 C   0  0  0  0  0  0  0  0  0  0  0  0
    1.3447    0.7423   -0.0247 C   0  0  0  0  0  0  0  0  0  0  0  0
    1.2247    0.2254    1.2414 C   0  0  0  0  0  0  0  0  0  0  0  0
   -0.0249   -0.3625    1.4902 C   0  0  0  0  0  0  0  0  0  0  0  0
   -1.0093   -0.4089    0.4959 C   0  0  0  0  0  0  0  0  0  0  0  0
   -1.5523    0.0957   -1.5426 H   0  0  0  0  0  0  0  0  0  0  0  0
    0.6593    1.1865   -2.0414 H   0  0  0  0  0  0  0  0  0  0  0  0
    2.7936    1.5172   -0.3846 N   0  0  0  0  0  0  0  0  0  0  0  0
    3.3937    2.3297   -0.8457 N   0  0  0  0  0  0  0  0  0  0  0  0
   -1.9673   -0.8826    0.7096 H   0  0  0  0  0  0  0  0  0  0  0  0
   -0.2116   -0.7936    2.4730 H   0  0  0  0  0  0  0  0  0  0  0  0
    2.0391    0.2787    1.9728 H   0  0  0  0  0  0  0  0  0  0  0  0
    4.8039    0.2183    1.7159 S   0  0  0  0  0  0  0  0  0  0  0  0
    3.8281    0.5775    2.7924 O   0  0  0  0  0  0  0  0  0  0  0  0
    5.9386   -0.6740    2.0615 O   0  0  0  0  0  0  0  0  0  0  0  0
    4.0876   -0.1759    0.4224 O   0  0  0  0  0  0  0  0  0  0  0  0
    5.5094    1.7117    1.3299 O   0  0  0  0  0  0  0  0  0  0  0  0
    6.4451    1.5159    1.1680 H   0  0  0  0  0  0  0  0  0  0  0  0
  1  6  1  0  0  0  0
  2  1  2  0  0  0  0
  2  3  1  0  0  0  0
  3  4  2  0  0  0  0
  4  5  1  0  0  0  0
  4 13  1  0  0  0  0
  5 12  1  0  0  0  0
  6 11  1  0  0  0  0
  6  5  2  0  0  0  0
  7  1  1  0  0  0  0
  8  2  1  0  0  0  0
  9  3  1  0  0  0  0
 10  9  2  0  0  0  0
 14 16  2  0  0  0  0
 14 15  1  0  0  0  0
 17 14  2  0  0  0  0
 18 14  1  0  0  0  0
 19 18  1  0  0  0  0
M  RAD  2  10   2  15   2
M  END
