Coordinates from ORCA-job Ph-N2-HSO4-B3LYPG-aug-cc-pVDZ-scan-d09-49-n400
 OpenBabel11081710403D

 19 18  0  0  0  0  0  0  0  0999 V2000
   -0.7519    0.1351   -0.7856 C   0  0  0  0  0  0  0  0  0  0  0  0
    0.4596    0.7745   -1.0580 C   0  0  0  0  0  0  0  0  0  0  0  0
    1.3728    0.7946   -0.0100 C   0  0  0  0  0  0  0  0  0  0  0  0
    1.2208    0.2567    1.2551 C   0  0  0  0  0  0  0  0  0  0  0  0
   -0.0127   -0.3613    1.4855 C   0  0  0  0  0  0  0  0  0  0  0  0
   -0.9826   -0.4254    0.4776 C   0  0  0  0  0  0  0  0  0  0  0  0
   -1.5105    0.0763   -1.5649 H   0  0  0  0  0  0  0  0  0  0  0  0
    0.6767    1.2198   -2.0261 H   0  0  0  0  0  0  0  0  0  0  0  0
    2.7113    1.5554   -0.3263 N   0  0  0  0  0  0  0  0  0  0  0  0
    3.4241    2.3123   -0.7130 N   0  0  0  0  0  0  0  0  0  0  0  0
   -1.9319   -0.9234    0.6754 H   0  0  0  0  0  0  0  0  0  0  0  0
   -0.2034   -0.8050    2.4616 H   0  0  0  0  0  0  0  0  0  0  0  0
    2.0261    0.3177    1.9948 H   0  0  0  0  0  0  0  0  0  0  0  0
    4.7817    0.1993    1.7144 S   0  0  0  0  0  0  0  0  0  0  0  0
    3.8329    0.6359    2.7895 O   0  0  0  0  0  0  0  0  0  0  0  0
    5.9373   -0.6475    2.1035 O   0  0  0  0  0  0  0  0  0  0  0  0
    4.0392   -0.2754    0.4733 O   0  0  0  0  0  0  0  0  0  0  0  0
    5.4702    1.6772    1.2100 O   0  0  0  0  0  0  0  0  0  0  0  0
    6.4018    1.4743    1.0347 H   0  0  0  0  0  0  0  0  0  0  0  0
  1  6  1  0  0  0  0
  2  1  2  0  0  0  0
  2  3  1  0  0  0  0
  3  4  2  0  0  0  0
  4  5  1  0  0  0  0
  4 13  1  0  0  0  0
  5 12  1  0  0  0  0
  6 11  1  0  0  0  0
  6  5  2  0  0  0  0
  7  1  1  0  0  0  0
  8  2  1  0  0  0  0
  9  3  1  0  0  0  0
 10  9  1  0  0  0  0
 14 16  2  0  0  0  0
 14 15  1  0  0  0  0
 17 14  2  0  0  0  0
 18 14  1  0  0  0  0
 19 18  1  0  0  0  0
M  RAD  3   9   2  10   3  15   2
M  END
