Coordinates from ORCA-job Ph-N2-HSO4-B3LYPG-aug-cc-pVDZ-scan-d09-49-n400
 OpenBabel11081710403D

 19 17  0  0  0  0  0  0  0  0999 V2000
   -1.0968    0.3163   -0.4490 C   0  0  0  0  0  0  0  0  0  0  0  0
    0.1374    0.7543   -0.9973 C   0  0  0  0  0  0  0  0  0  0  0  0
    1.1008    0.4608   -0.0717 C   0  0  0  0  0  0  0  0  0  0  0  0
    1.1628   -0.0732    1.0696 C   0  0  0  0  0  0  0  0  0  0  0  0
   -0.0564   -0.5135    1.6313 C   0  0  0  0  0  0  0  0  0  0  0  0
   -1.1848   -0.2935    0.8166 C   0  0  0  0  0  0  0  0  0  0  0  0
   -2.0010    0.4648   -1.0422 H   0  0  0  0  0  0  0  0  0  0  0  0
    0.2406    1.2269   -1.9693 H   0  0  0  0  0  0  0  0  0  0  0  0
    3.5339    2.0960   -2.5009 N   0  0  0  0  0  0  0  0  0  0  0  0
    4.4328    2.6261   -2.8610 N   0  0  0  0  0  0  0  0  0  0  0  0
   -2.1649   -0.6090    1.1783 H   0  0  0  0  0  0  0  0  0  0  0  0
   -0.1394   -0.9894    2.6078 H   0  0  0  0  0  0  0  0  0  0  0  0
    2.9129   -0.2882    1.8981 H   0  0  0  0  0  0  0  0  0  0  0  0
    5.0392    0.1240    1.7002 S   0  0  0  0  0  0  0  0  0  0  0  0
    3.7261   -0.4901    2.4374 O   0  0  0  0  0  0  0  0  0  0  0  0
    6.1932   -0.4585    2.3969 O   0  0  0  0  0  0  0  0  0  0  0  0
    4.8634    0.0957    0.2437 O   0  0  0  0  0  0  0  0  0  0  0  0
    4.9425    1.7251    2.1058 O   0  0  0  0  0  0  0  0  0  0  0  0
    5.3195    1.8167    2.9972 H   0  0  0  0  0  0  0  0  0  0  0  0
  1  6  1  0  0  0  0
  2  1  2  0  0  0  0
  2  3  1  0  0  0  0
  3  4  2  0  0  0  0
  4  5  1  0  0  0  0
  5 12  1  0  0  0  0
  6 11  1  0  0  0  0
  6  5  2  0  0  0  0
  7  1  1  0  0  0  0
  8  2  1  0  0  0  0
 10  9  3  0  0  0  0
 13 15  1  0  0  0  0
 14 18  1  0  0  0  0
 14 16  2  0  0  0  0
 14 15  1  0  0  0  0
 17 14  2  0  0  0  0
 18 19  1  0  0  0  0
M  RAD  2   3   2   4   2
M  END
