Coordinates from ORCA-job Ph-N2-HSO4-B3LYPG-aug-cc-pVDZ-scan-d09-49-n400
 OpenBabel11081710403D

 19 17  0  0  0  0  0  0  0  0999 V2000
   -0.7433    0.4398   -0.4184 C   0  0  0  0  0  0  0  0  0  0  0  0
    0.6216    0.7060   -0.7046 C   0  0  0  0  0  0  0  0  0  0  0  0
    1.3324    0.2183    0.3551 C   0  0  0  0  0  0  0  0  0  0  0  0
    1.1161   -0.3720    1.4509 C   0  0  0  0  0  0  0  0  0  0  0  0
   -0.2405   -0.6404    1.7452 C   0  0  0  0  0  0  0  0  0  0  0  0
   -1.1538   -0.2089    0.7632 C   0  0  0  0  0  0  0  0  0  0  0  0
   -1.4894    0.7556   -1.1498 H   0  0  0  0  0  0  0  0  0  0  0  0
    0.9767    1.2022   -1.6027 H   0  0  0  0  0  0  0  0  0  0  0  0
    3.2984    2.2011   -3.0178 N   0  0  0  0  0  0  0  0  0  0  0  0
    4.3331    2.4950   -3.2660 N   0  0  0  0  0  0  0  0  0  0  0  0
   -2.2195   -0.3833    0.9201 H   0  0  0  0  0  0  0  0  0  0  0  0
   -0.5743   -1.1423    2.6530 H   0  0  0  0  0  0  0  0  0  0  0  0
    2.9217   -0.6277    2.1513 H   0  0  0  0  0  0  0  0  0  0  0  0
    4.7872    0.2825    1.5396 S   0  0  0  0  0  0  0  0  0  0  0  0
    3.8777   -0.7256    2.4274 O   0  0  0  0  0  0  0  0  0  0  0  0
    6.1771   -0.1489    1.7250 O   0  0  0  0  0  0  0  0  0  0  0  0
    4.1724    0.4895    0.2180 O   0  0  0  0  0  0  0  0  0  0  0  0
    4.5788    1.7221    2.3227 O   0  0  0  0  0  0  0  0  0  0  0  0
    5.1893    1.7285    3.0794 H   0  0  0  0  0  0  0  0  0  0  0  0
  1  6  1  0  0  0  0
  2  1  2  0  0  0  0
  2  3  1  0  0  0  0
  3  4  2  0  0  0  0
  4  5  1  0  0  0  0
  5 12  1  0  0  0  0
  6 11  1  0  0  0  0
  6  5  2  0  0  0  0
  7  1  1  0  0  0  0
  8  2  1  0  0  0  0
 10  9  3  0  0  0  0
 13 15  1  0  0  0  0
 14 16  2  0  0  0  0
 14 18  1  0  0  0  0
 14 15  1  0  0  0  0
 17 14  2  0  0  0  0
 18 19  1  0  0  0  0
M  RAD  2   3   2   4   2
M  END
