Coordinates from ORCA-job Ph-N2-HSO4-B3LYPG-aug-cc-pVDZ-scan-d09-49-n400
 OpenBabel11081710403D

 19 17  0  0  0  0  0  0  0  0999 V2000
   -1.0350    0.3246   -0.4317 C   0  0  0  0  0  0  0  0  0  0  0  0
    0.2400    0.6880   -0.9397 C   0  0  0  0  0  0  0  0  0  0  0  0
    1.1514    0.3544    0.0244 C   0  0  0  0  0  0  0  0  0  0  0  0
    1.1412   -0.1667    1.1729 C   0  0  0  0  0  0  0  0  0  0  0  0
   -0.1184   -0.5336    1.6954 C   0  0  0  0  0  0  0  0  0  0  0  0
   -1.2025   -0.2630    0.8367 C   0  0  0  0  0  0  0  0  0  0  0  0
   -1.9079    0.5136   -1.0593 H   0  0  0  0  0  0  0  0  0  0  0  0
    0.4041    1.1424   -1.9120 H   0  0  0  0  0  0  0  0  0  0  0  0
    3.5847    2.2761   -2.8799 N   0  0  0  0  0  0  0  0  0  0  0  0
    4.4164    2.8444   -3.3321 N   0  0  0  0  0  0  0  0  0  0  0  0
   -2.2111   -0.5196    1.1651 H   0  0  0  0  0  0  0  0  0  0  0  0
   -0.2628   -0.9910    2.6735 H   0  0  0  0  0  0  0  0  0  0  0  0
    2.9100   -0.3966    1.9839 H   0  0  0  0  0  0  0  0  0  0  0  0
    5.0028    0.1269    1.7314 S   0  0  0  0  0  0  0  0  0  0  0  0
    3.7502   -0.5880    2.4833 O   0  0  0  0  0  0  0  0  0  0  0  0
    6.2105   -0.4430    2.3421 O   0  0  0  0  0  0  0  0  0  0  0  0
    4.7633    0.1767    0.2842 O   0  0  0  0  0  0  0  0  0  0  0  0
    4.8566    1.6951    2.2371 O   0  0  0  0  0  0  0  0  0  0  0  0
    5.2680    1.7508    3.1162 H   0  0  0  0  0  0  0  0  0  0  0  0
  1  6  1  0  0  0  0
  2  1  2  0  0  0  0
  2  3  1  0  0  0  0
  3  4  2  0  0  0  0
  4  5  1  0  0  0  0
  5 12  1  0  0  0  0
  6 11  1  0  0  0  0
  6  5  2  0  0  0  0
  7  1  1  0  0  0  0
  8  2  1  0  0  0  0
 10  9  3  0  0  0  0
 13 15  1  0  0  0  0
 14 18  1  0  0  0  0
 14 16  2  0  0  0  0
 14 15  1  0  0  0  0
 17 14  2  0  0  0  0
 18 19  1  0  0  0  0
M  RAD  2   3   2   4   2
M  END
