Coordinates from ORCA-job Ph-N2-HSO4-B3LYPG-aug-cc-pVDZ-scan-d09-49-n400
 OpenBabel11081710403D

 19 17  0  0  0  0  0  0  0  0999 V2000
   -0.9091    0.1304   -0.6663 C   0  0  0  0  0  0  0  0  0  0  0  0
    0.2675    0.7648   -1.1310 C   0  0  0  0  0  0  0  0  0  0  0  0
    1.1918    0.7265   -0.1402 C   0  0  0  0  0  0  0  0  0  0  0  0
    1.3475    0.2895    1.0989 C   0  0  0  0  0  0  0  0  0  0  0  0
    0.1249   -0.3319    1.4944 C   0  0  0  0  0  0  0  0  0  0  0  0
   -0.9695   -0.4041    0.6272 C   0  0  0  0  0  0  0  0  0  0  0  0
   -1.7602    0.0734   -1.3452 H   0  0  0  0  0  0  0  0  0  0  0  0
    0.3774    1.1970   -2.1200 H   0  0  0  0  0  0  0  0  0  0  0  0
    2.9271    1.8069   -0.8780 N   0  0  0  0  0  0  0  0  0  0  0  0
    3.7238    2.4403   -1.3019 N   0  0  0  0  0  0  0  0  0  0  0  0
   -1.8858   -0.8900    0.9612 H   0  0  0  0  0  0  0  0  0  0  0  0
    0.0867   -0.7603    2.4966 H   0  0  0  0  0  0  0  0  0  0  0  0
    2.2873    0.3205    1.7685 H   0  0  0  0  0  0  0  0  0  0  0  0
    4.7808    0.0632    1.6666 S   0  0  0  0  0  0  0  0  0  0  0  0
    3.6030    0.3265    2.6132 O   0  0  0  0  0  0  0  0  0  0  0  0
    5.8716   -0.7254    2.2913 O   0  0  0  0  0  0  0  0  0  0  0  0
    4.3006   -0.3242    0.3051 O   0  0  0  0  0  0  0  0  0  0  0  0
    5.4374    1.6017    1.4045 O   0  0  0  0  0  0  0  0  0  0  0  0
    6.1589    1.6865    2.0465 H   0  0  0  0  0  0  0  0  0  0  0  0
  1  6  1  0  0  0  0
  2  1  2  0  0  0  0
  2  3  1  0  0  0  0
  3  4  2  0  0  0  0
  4  5  1  0  0  0  0
  4 13  1  0  0  0  0
  5 12  1  0  0  0  0
  6 11  1  0  0  0  0
  6  5  2  0  0  0  0
  7  1  1  0  0  0  0
  8  2  1  0  0  0  0
 10  9  3  0  0  0  0
 14 16  2  0  0  0  0
 14 15  1  0  0  0  0
 17 14  2  0  0  0  0
 18 14  1  0  0  0  0
 18 19  1  0  0  0  0
M  RAD  2   3   2  15   2
M  END
