Coordinates from ORCA-job Ph-N2-HSO4-B3LYPG-aug-cc-pVDZ-scan-d09-49-n400
 OpenBabel11081710403D

 19 17  0  0  0  0  0  0  0  0999 V2000
   -1.0574    0.3227   -0.4367 C   0  0  0  0  0  0  0  0  0  0  0  0
    0.2046    0.7136   -0.9574 C   0  0  0  0  0  0  0  0  0  0  0  0
    1.1317    0.3919   -0.0042 C   0  0  0  0  0  0  0  0  0  0  0  0
    1.1457   -0.1363    1.1405 C   0  0  0  0  0  0  0  0  0  0  0  0
   -0.1003   -0.5305    1.6752 C   0  0  0  0  0  0  0  0  0  0  0  0
   -1.1991   -0.2757    0.8301 C   0  0  0  0  0  0  0  0  0  0  0  0
   -1.9409    0.4986   -1.0531 H   0  0  0  0  0  0  0  0  0  0  0  0
    0.3492    1.1767   -1.9287 H   0  0  0  0  0  0  0  0  0  0  0  0
    3.5757    2.2088   -2.7463 N   0  0  0  0  0  0  0  0  0  0  0  0
    4.4328    2.7631   -3.1671 N   0  0  0  0  0  0  0  0  0  0  0  0
   -2.1987   -0.5539    1.1682 H   0  0  0  0  0  0  0  0  0  0  0  0
   -0.2246   -0.9968    2.6519 H   0  0  0  0  0  0  0  0  0  0  0  0
    2.9106   -0.3596    1.9547 H   0  0  0  0  0  0  0  0  0  0  0  0
    5.0156    0.1292    1.7163 S   0  0  0  0  0  0  0  0  0  0  0  0
    3.7434   -0.5539    2.4657 O   0  0  0  0  0  0  0  0  0  0  0  0
    6.2067   -0.4456    2.3545 O   0  0  0  0  0  0  0  0  0  0  0  0
    4.7967    0.1543    0.2652 O   0  0  0  0  0  0  0  0  0  0  0  0
    4.8847    1.7089    2.1897 O   0  0  0  0  0  0  0  0  0  0  0  0
    5.2854    1.7760    3.0730 H   0  0  0  0  0  0  0  0  0  0  0  0
  1  6  1  0  0  0  0
  2  1  2  0  0  0  0
  2  3  1  0  0  0  0
  3  4  2  0  0  0  0
  4  5  1  0  0  0  0
  5 12  1  0  0  0  0
  6 11  1  0  0  0  0
  6  5  2  0  0  0  0
  7  1  1  0  0  0  0
  8  2  1  0  0  0  0
 10  9  3  0  0  0  0
 13 15  1  0  0  0  0
 14 18  1  0  0  0  0
 14 16  2  0  0  0  0
 14 15  1  0  0  0  0
 17 14  2  0  0  0  0
 18 19  1  0  0  0  0
M  RAD  2   3   2   4   2
M  END
