Coordinates from ORCA-job Ph-N2-HSO4-B3LYPG-aug-cc-pVDZ-scan-d09-49-n400
 OpenBabel11081710403D

 19 19  0  0  1  0  0  0  0  0999 V2000
   -0.3684   -0.0591   -0.7274 C   0  0  0  0  0  0  0  0  0  0  0  0
    0.5117    0.8540   -1.1920 C   0  0  0  0  0  0  0  0  0  0  0  0
    1.6003    1.3615   -0.3355 C   0  0  0  0  0  0  0  0  0  0  0  0
    1.8695    0.6473    0.9957 C   0  0  1  0  0  0  0  0  0  0  0  0
    0.7429   -0.2152    1.4525 C   0  0  0  0  0  0  0  0  0  0  0  0
   -0.2731   -0.5585    0.6348 C   0  0  0  0  0  0  0  0  0  0  0  0
   -1.1716   -0.4145   -1.3718 H   0  0  0  0  0  0  0  0  0  0  0  0
    0.4519    1.2616   -2.2011 H   0  0  0  0  0  0  0  0  0  0  0  0
    2.2370    2.1856   -0.6235 N   0  0  0  0  0  0  0  0  0  0  0  0
    2.9330    3.0649   -0.9184 N   0  0  0  0  0  0  0  0  0  0  0  0
   -1.0570   -1.2222    1.0012 H   0  0  0  0  0  0  0  0  0  0  0  0
    0.8085   -0.5879    2.4737 H   0  0  0  0  0  0  0  0  0  0  0  0
    2.1685    1.3790    1.7547 H   0  0  0  0  0  0  0  0  0  0  0  0
    4.2169   -0.2873    1.9220 S   0  0  0  0  0  0  0  0  0  0  0  0
    3.5749   -0.2879    3.2421 O   0  0  0  0  0  0  0  0  0  0  0  0
    5.1823   -1.2989    1.4774 O   0  0  0  0  0  0  0  0  0  0  0  0
    3.0799   -0.2207    0.7413 O   0  0  0  0  0  0  0  0  0  0  0  0
    4.9115    1.2087    1.8027 O   0  0  0  0  0  0  0  0  0  0  0  0
    5.5429    1.1811    1.0631 H   0  0  0  0  0  0  0  0  0  0  0  0
  1  6  1  0  0  0  0
  2  1  1  0  0  0  0
  2  3  2  0  0  0  0
  3  4  1  0  0  0  0
  4  5  1  0  0  0  0
  4 13  1  1  0  0  0
  5 12  1  0  0  0  0
  6 11  1  0  0  0  0
  6  5  2  0  0  0  0
  7  1  1  0  0  0  0
  8  2  1  0  0  0  0
  9  3  1  0  0  0  0
 10  9  1  0  0  0  0
 14 15  2  0  0  0  0
 16 14  2  0  0  0  0
 17  4  1  0  0  0  0
 17 14  1  0  0  0  0
 18 14  1  0  0  0  0
 19 18  1  0  0  0  0
M  RAD  3   1   2   9   2  10   3
M  END
