Coordinates from ORCA-job Ph-N2-HSO4-B3LYPG-aug-cc-pVDZ-scan-d09-49-n400
 OpenBabel11081710403D

 19 17  0  0  0  0  0  0  0  0999 V2000
   -1.1097    0.3143   -0.4563 C   0  0  0  0  0  0  0  0  0  0  0  0
    0.1121    0.7697   -1.0187 C   0  0  0  0  0  0  0  0  0  0  0  0
    1.0878    0.4878   -0.1030 C   0  0  0  0  0  0  0  0  0  0  0  0
    1.1728   -0.0459    1.0363 C   0  0  0  0  0  0  0  0  0  0  0  0
   -0.0340   -0.5032    1.6115 C   0  0  0  0  0  0  0  0  0  0  0  0
   -1.1748   -0.2979    0.8099 C   0  0  0  0  0  0  0  0  0  0  0  0
   -2.0226    0.4508   -1.0389 H   0  0  0  0  0  0  0  0  0  0  0  0
    0.1981    1.2446   -1.9912 H   0  0  0  0  0  0  0  0  0  0  0  0
    3.4993    2.0495   -2.3978 N   0  0  0  0  0  0  0  0  0  0  0  0
    4.4134    2.5711   -2.7309 N   0  0  0  0  0  0  0  0  0  0  0  0
   -2.1461   -0.6272    1.1826 H   0  0  0  0  0  0  0  0  0  0  0  0
   -0.0991   -0.9812    2.5883 H   0  0  0  0  0  0  0  0  0  0  0  0
    2.9130   -0.2587    1.8747 H   0  0  0  0  0  0  0  0  0  0  0  0
    5.0494    0.1194    1.6975 S   0  0  0  0  0  0  0  0  0  0  0  0
    3.7174   -0.4632    2.4269 O   0  0  0  0  0  0  0  0  0  0  0  0
    6.1849   -0.4663    2.4215 O   0  0  0  0  0  0  0  0  0  0  0  0
    4.8949    0.0674    0.2390 O   0  0  0  0  0  0  0  0  0  0  0  0
    4.9694    1.7289    2.0727 O   0  0  0  0  0  0  0  0  0  0  0  0
    5.3355    1.8315    2.9675 H   0  0  0  0  0  0  0  0  0  0  0  0
  1  6  1  0  0  0  0
  2  1  2  0  0  0  0
  2  3  1  0  0  0  0
  3  4  2  0  0  0  0
  4  5  1  0  0  0  0
  5 12  1  0  0  0  0
  6 11  1  0  0  0  0
  6  5  2  0  0  0  0
  7  1  1  0  0  0  0
  8  2  1  0  0  0  0
 10  9  3  0  0  0  0
 13 15  1  0  0  0  0
 14 18  1  0  0  0  0
 14 16  2  0  0  0  0
 14 15  1  0  0  0  0
 17 14  2  0  0  0  0
 18 19  1  0  0  0  0
M  RAD  2   3   2   4   2
M  END
