Coordinates from ORCA-job Ph-N2-HSO4-B3LYPG-aug-cc-pVDZ-scan-d09-49-n400
 OpenBabel11081710403D

 19 17  0  0  0  0  0  0  0  0999 V2000
   -1.1216    0.3107   -0.4647 C   0  0  0  0  0  0  0  0  0  0  0  0
    0.0853    0.7863   -1.0433 C   0  0  0  0  0  0  0  0  0  0  0  0
    1.0753    0.5187   -0.1398 C   0  0  0  0  0  0  0  0  0  0  0  0
    1.1879   -0.0119    0.9989 C   0  0  0  0  0  0  0  0  0  0  0  0
   -0.0053   -0.4877    1.5889 C   0  0  0  0  0  0  0  0  0  0  0  0
   -1.1598   -0.3017    0.8026 C   0  0  0  0  0  0  0  0  0  0  0  0
   -2.0442    0.4320   -1.0352 H   0  0  0  0  0  0  0  0  0  0  0  0
    0.1510    1.2617   -2.0171 H   0  0  0  0  0  0  0  0  0  0  0  0
    3.4548    2.0024   -2.2947 N   0  0  0  0  0  0  0  0  0  0  0  0
    4.3836    2.5156   -2.5988 N   0  0  0  0  0  0  0  0  0  0  0  0
   -2.1207   -0.6464    1.1883 H   0  0  0  0  0  0  0  0  0  0  0  0
   -0.0498   -0.9661    2.5668 H   0  0  0  0  0  0  0  0  0  0  0  0
    2.9116   -0.2279    1.8513 H   0  0  0  0  0  0  0  0  0  0  0  0
    5.0583    0.1122    1.6980 S   0  0  0  0  0  0  0  0  0  0  0  0
    3.7063   -0.4366    2.4169 O   0  0  0  0  0  0  0  0  0  0  0  0
    6.1729   -0.4780    2.4503 O   0  0  0  0  0  0  0  0  0  0  0  0
    4.9263    0.0365    0.2382 O   0  0  0  0  0  0  0  0  0  0  0  0
    4.9979    1.7293    2.0432 O   0  0  0  0  0  0  0  0  0  0  0  0
    5.3519    1.8423    2.9416 H   0  0  0  0  0  0  0  0  0  0  0  0
  1  6  1  0  0  0  0
  2  1  2  0  0  0  0
  2  3  1  0  0  0  0
  3  4  2  0  0  0  0
  4  5  1  0  0  0  0
  5 12  1  0  0  0  0
  6 11  1  0  0  0  0
  6  5  2  0  0  0  0
  7  1  1  0  0  0  0
  8  2  1  0  0  0  0
 10  9  3  0  0  0  0
 13 15  1  0  0  0  0
 14 18  1  0  0  0  0
 14 15  1  0  0  0  0
 14 16  2  0  0  0  0
 17 14  2  0  0  0  0
 18 19  1  0  0  0  0
M  RAD  2   3   2   4   2
M  END
