Coordinates from ORCA-job Ph-N2-HSO4-B3LYPG-aug-cc-pVDZ-scan-d09-49-n400
 OpenBabel11081710403D

 19 17  0  0  0  0  0  0  0  0999 V2000
   -1.1288    0.2974   -0.5219 C   0  0  0  0  0  0  0  0  0  0  0  0
    0.0312    0.8152   -1.1571 C   0  0  0  0  0  0  0  0  0  0  0  0
    1.0637    0.6139   -0.2883 C   0  0  0  0  0  0  0  0  0  0  0  0
    1.2672    0.1170    0.8560 C   0  0  0  0  0  0  0  0  0  0  0  0
    0.1111   -0.3990    1.4941 C   0  0  0  0  0  0  0  0  0  0  0  0
   -1.0841   -0.2874    0.7577 C   0  0  0  0  0  0  0  0  0  0  0  0
   -2.0779    0.3627   -1.0569 H   0  0  0  0  0  0  0  0  0  0  0  0
    0.0380    1.2716   -2.1418 H   0  0  0  0  0  0  0  0  0  0  0  0
    3.0994    1.8284   -1.8973 N   0  0  0  0  0  0  0  0  0  0  0  0
    4.0701    2.3228   -2.0749 N   0  0  0  0  0  0  0  0  0  0  0  0
   -2.0095   -0.6693    1.1919 H   0  0  0  0  0  0  0  0  0  0  0  0
    0.1295   -0.8581    2.4823 H   0  0  0  0  0  0  0  0  0  0  0  0
    2.9173   -0.0931    1.7661 H   0  0  0  0  0  0  0  0  0  0  0  0
    5.0962    0.0726    1.7195 S   0  0  0  0  0  0  0  0  0  0  0  0
    3.6689   -0.3236    2.3860 O   0  0  0  0  0  0  0  0  0  0  0  0
    6.1176   -0.5554    2.5678 O   0  0  0  0  0  0  0  0  0  0  0  0
    5.0412   -0.0799    0.2606 O   0  0  0  0  0  0  0  0  0  0  0  0
    5.1499    1.7083    1.9687 O   0  0  0  0  0  0  0  0  0  0  0  0
    5.4605    1.8474    2.8792 H   0  0  0  0  0  0  0  0  0  0  0  0
  1  6  1  0  0  0  0
  2  1  2  0  0  0  0
  2  3  1  0  0  0  0
  3  4  2  0  0  0  0
  4  5  1  0  0  0  0
  5 12  1  0  0  0  0
  6 11  1  0  0  0  0
  6  5  2  0  0  0  0
  7  1  1  0  0  0  0
  8  2  1  0  0  0  0
 10  9  3  0  0  0  0
 13 15  1  0  0  0  0
 14 18  1  0  0  0  0
 14 15  1  0  0  0  0
 14 16  2  0  0  0  0
 17 14  2  0  0  0  0
 18 19  1  0  0  0  0
M  RAD  2   3   2   4   2
M  END
