Coordinates from ORCA-job Ph-N2-HSO4-B3LYPG-aug-cc-pVDZ-scan-d09-49-n400
 OpenBabel11081710403D

 19 17  0  0  0  0  0  0  0  0999 V2000
   -0.7386    0.4413   -0.4164 C   0  0  0  0  0  0  0  0  0  0  0  0
    0.6278    0.7052   -0.6977 C   0  0  0  0  0  0  0  0  0  0  0  0
    1.3344    0.2150    0.3633 C   0  0  0  0  0  0  0  0  0  0  0  0
    1.1144   -0.3766    1.4583 C   0  0  0  0  0  0  0  0  0  0  0  0
   -0.2443   -0.6424    1.7468 C   0  0  0  0  0  0  0  0  0  0  0  0
   -1.1538   -0.2081    0.7628 C   0  0  0  0  0  0  0  0  0  0  0  0
   -1.4818    0.7595   -1.1497 H   0  0  0  0  0  0  0  0  0  0  0  0
    0.9862    1.2021   -1.5938 H   0  0  0  0  0  0  0  0  0  0  0  0
    3.2980    2.2107   -3.0294 N   0  0  0  0  0  0  0  0  0  0  0  0
    4.3327    2.4967   -3.2865 N   0  0  0  0  0  0  0  0  0  0  0  0
   -2.2204   -0.3808    0.9162 H   0  0  0  0  0  0  0  0  0  0  0  0
   -0.5822   -1.1447    2.6529 H   0  0  0  0  0  0  0  0  0  0  0  0
    2.9237   -0.6320    2.1551 H   0  0  0  0  0  0  0  0  0  0  0  0
    4.7854    0.2820    1.5392 S   0  0  0  0  0  0  0  0  0  0  0  0
    3.8805   -0.7289    2.4275 O   0  0  0  0  0  0  0  0  0  0  0  0
    6.1769   -0.1447    1.7235 O   0  0  0  0  0  0  0  0  0  0  0  0
    4.1692    0.4864    0.2180 O   0  0  0  0  0  0  0  0  0  0  0  0
    4.5721    1.7213    2.3217 O   0  0  0  0  0  0  0  0  0  0  0  0
    5.1812    1.7293    3.0796 H   0  0  0  0  0  0  0  0  0  0  0  0
  1  6  1  0  0  0  0
  2  1  2  0  0  0  0
  2  3  1  0  0  0  0
  3  4  2  0  0  0  0
  4  5  1  0  0  0  0
  5 12  1  0  0  0  0
  6 11  1  0  0  0  0
  6  5  2  0  0  0  0
  7  1  1  0  0  0  0
  8  2  1  0  0  0  0
 10  9  3  0  0  0  0
 13 15  1  0  0  0  0
 14 16  2  0  0  0  0
 14 18  1  0  0  0  0
 14 15  1  0  0  0  0
 17 14  2  0  0  0  0
 18 19  1  0  0  0  0
M  RAD  2   3   2   4   2
M  END
