Coordinates from ORCA-job Ph-N2-HSO4-B3LYPG-aug-cc-pVDZ-scan-d09-49-n400
 OpenBabel11081710403D

 19 17  0  0  0  0  0  0  0  0999 V2000
   -1.1129    0.2875   -0.5456 C   0  0  0  0  0  0  0  0  0  0  0  0
    0.0229    0.8274   -1.2011 C   0  0  0  0  0  0  0  0  0  0  0  0
    1.0800    0.6641   -0.3535 C   0  0  0  0  0  0  0  0  0  0  0  0
    1.3210    0.1828    0.7938 C   0  0  0  0  0  0  0  0  0  0  0  0
    0.1820   -0.3548    1.4489 C   0  0  0  0  0  0  0  0  0  0  0  0
   -1.0299   -0.2835    0.7378 C   0  0  0  0  0  0  0  0  0  0  0  0
   -2.0715    0.3241   -1.0659 H   0  0  0  0  0  0  0  0  0  0  0  0
    0.0011    1.2748   -2.1900 H   0  0  0  0  0  0  0  0  0  0  0  0
    2.9456    1.7625   -1.7275 N   0  0  0  0  0  0  0  0  0  0  0  0
    3.9276    2.2541   -1.8387 N   0  0  0  0  0  0  0  0  0  0  0  0
   -1.9358   -0.6860    1.1938 H   0  0  0  0  0  0  0  0  0  0  0  0
    0.2303   -0.8044    2.4408 H   0  0  0  0  0  0  0  0  0  0  0  0
    2.8966   -0.0401    1.7516 H   0  0  0  0  0  0  0  0  0  0  0  0
    5.0754    0.0496    1.7278 S   0  0  0  0  0  0  0  0  0  0  0  0
    3.6333   -0.2683    2.3973 O   0  0  0  0  0  0  0  0  0  0  0  0
    6.0745   -0.5864    2.5969 O   0  0  0  0  0  0  0  0  0  0  0  0
    5.0147   -0.1480    0.2743 O   0  0  0  0  0  0  0  0  0  0  0  0
    5.1926    1.6900    1.9235 O   0  0  0  0  0  0  0  0  0  0  0  0
    5.5141    1.8460    2.8274 H   0  0  0  0  0  0  0  0  0  0  0  0
  1  6  1  0  0  0  0
  2  1  2  0  0  0  0
  2  3  1  0  0  0  0
  3  4  2  0  0  0  0
  4  5  1  0  0  0  0
  5 12  1  0  0  0  0
  6 11  1  0  0  0  0
  6  5  2  0  0  0  0
  7  1  1  0  0  0  0
  8  2  1  0  0  0  0
 10  9  3  0  0  0  0
 13 15  1  0  0  0  0
 14 18  1  0  0  0  0
 14 15  1  0  0  0  0
 14 16  2  0  0  0  0
 17 14  2  0  0  0  0
 18 19  1  0  0  0  0
M  RAD  2   3   2   4   2
M  END
