Coordinates from ORCA-job Ph-N2-HSO4-B3LYPG-aug-cc-pVDZ-scan-d09-49-n400
 OpenBabel11081710403D

 19 17  0  0  0  0  0  0  0  0999 V2000
   -1.1257    0.2953   -0.5286 C   0  0  0  0  0  0  0  0  0  0  0  0
    0.0270    0.8180   -1.1722 C   0  0  0  0  0  0  0  0  0  0  0  0
    1.0666    0.6275   -0.3097 C   0  0  0  0  0  0  0  0  0  0  0  0
    1.2829    0.1364    0.8355 C   0  0  0  0  0  0  0  0  0  0  0  0
    0.1322   -0.3844    1.4809 C   0  0  0  0  0  0  0  0  0  0  0  0
   -1.0688   -0.2841    0.7528 C   0  0  0  0  0  0  0  0  0  0  0  0
   -2.0784    0.3522   -1.0581 H   0  0  0  0  0  0  0  0  0  0  0  0
    0.0251    1.2708   -2.1586 H   0  0  0  0  0  0  0  0  0  0  0  0
    3.0507    1.8047   -1.8513 N   0  0  0  0  0  0  0  0  0  0  0  0
    4.0260    2.2960   -2.0120 N   0  0  0  0  0  0  0  0  0  0  0  0
   -1.9885   -0.6708    1.1947 H   0  0  0  0  0  0  0  0  0  0  0  0
    0.1599   -0.8397    2.4708 H   0  0  0  0  0  0  0  0  0  0  0  0
    2.9137   -0.0801    1.7586 H   0  0  0  0  0  0  0  0  0  0  0  0
    5.0937    0.0685    1.7220 S   0  0  0  0  0  0  0  0  0  0  0  0
    3.6611   -0.3124    2.3846 O   0  0  0  0  0  0  0  0  0  0  0  0
    6.1077   -0.5662    2.5745 O   0  0  0  0  0  0  0  0  0  0  0  0
    5.0411   -0.0874    0.2633 O   0  0  0  0  0  0  0  0  0  0  0  0
    5.1623    1.7043    1.9669 O   0  0  0  0  0  0  0  0  0  0  0  0
    5.4732    1.8429    2.8775 H   0  0  0  0  0  0  0  0  0  0  0  0
  1  6  1  0  0  0  0
  2  1  2  0  0  0  0
  2  3  1  0  0  0  0
  3  4  2  0  0  0  0
  4  5  1  0  0  0  0
  5 12  1  0  0  0  0
  6 11  1  0  0  0  0
  6  5  2  0  0  0  0
  7  1  1  0  0  0  0
  8  2  1  0  0  0  0
 10  9  3  0  0  0  0
 13 15  1  0  0  0  0
 14 18  1  0  0  0  0
 14 15  1  0  0  0  0
 14 16  2  0  0  0  0
 17 14  2  0  0  0  0
 18 19  1  0  0  0  0
M  RAD  2   3   2   4   2
M  END
