Coordinates from ORCA-job Ph-N2-HSO4-B3LYPG-aug-cc-pVDZ-scan-d09-49-n400
 OpenBabel11081710403D

 19 17  0  0  0  0  0  0  0  0999 V2000
   -0.6904    0.4421   -0.4091 C   0  0  0  0  0  0  0  0  0  0  0  0
    0.6848    0.6935   -0.6570 C   0  0  0  0  0  0  0  0  0  0  0  0
    1.3595    0.1944    0.4200 C   0  0  0  0  0  0  0  0  0  0  0  0
    1.1124   -0.3981    1.5097 C   0  0  0  0  0  0  0  0  0  0  0  0
   -0.2568   -0.6500    1.7622 C   0  0  0  0  0  0  0  0  0  0  0  0
   -1.1394   -0.2058    0.7587 C   0  0  0  0  0  0  0  0  0  0  0  0
   -1.4124    0.7688   -1.1595 H   0  0  0  0  0  0  0  0  0  0  0  0
    1.0664    1.1887   -1.5448 H   0  0  0  0  0  0  0  0  0  0  0  0
    3.2834    2.2920   -3.1927 N   0  0  0  0  0  0  0  0  0  0  0  0
    4.2867    2.5954   -3.5392 N   0  0  0  0  0  0  0  0  0  0  0  0
   -2.2109   -0.3688    0.8866 H   0  0  0  0  0  0  0  0  0  0  0  0
   -0.6209   -1.1511    2.6589 H   0  0  0  0  0  0  0  0  0  0  0  0
    2.9046   -0.6573    2.2143 H   0  0  0  0  0  0  0  0  0  0  0  0
    4.7499    0.2658    1.5691 S   0  0  0  0  0  0  0  0  0  0  0  0
    3.8675   -0.7491    2.4730 O   0  0  0  0  0  0  0  0  0  0  0  0
    6.1470   -0.1558    1.7181 O   0  0  0  0  0  0  0  0  0  0  0  0
    4.1029    0.4725    0.2619 O   0  0  0  0  0  0  0  0  0  0  0  0
    4.5509    1.7029    2.3584 O   0  0  0  0  0  0  0  0  0  0  0  0
    5.1767    1.7116    3.1026 H   0  0  0  0  0  0  0  0  0  0  0  0
  1  6  1  0  0  0  0
  2  1  2  0  0  0  0
  2  3  1  0  0  0  0
  3  4  2  0  0  0  0
  4  5  1  0  0  0  0
  5 12  1  0  0  0  0
  6 11  1  0  0  0  0
  6  5  2  0  0  0  0
  7  1  1  0  0  0  0
  8  2  1  0  0  0  0
 10  9  3  0  0  0  0
 13 15  1  0  0  0  0
 14 16  2  0  0  0  0
 14 18  1  0  0  0  0
 14 15  1  0  0  0  0
 17 14  2  0  0  0  0
 18 19  1  0  0  0  0
M  RAD  2   3   2   4   2
M  END
