Coordinates from ORCA-job Ph-N2-HSO4-B3LYPG-aug-cc-pVDZ-scan-d09-49-n400
 OpenBabel11081710403D

 19 17  0  0  0  0  0  0  0  0999 V2000
   -0.6165    0.4511   -0.4150 C   0  0  0  0  0  0  0  0  0  0  0  0
    0.7690    0.6822   -0.6209 C   0  0  0  0  0  0  0  0  0  0  0  0
    1.4024    0.1736    0.4760 C   0  0  0  0  0  0  0  0  0  0  0  0
    1.1181   -0.4158    1.5594 C   0  0  0  0  0  0  0  0  0  0  0  0
   -0.2631   -0.6461    1.7676 C   0  0  0  0  0  0  0  0  0  0  0  0
   -1.1094   -0.1898    0.7388 C   0  0  0  0  0  0  0  0  0  0  0  0
   -1.3105    0.7883   -1.1869 H   0  0  0  0  0  0  0  0  0  0  0  0
    1.1837    1.1716   -1.4971 H   0  0  0  0  0  0  0  0  0  0  0  0
    3.1557    2.4001   -3.4721 N   0  0  0  0  0  0  0  0  0  0  0  0
    4.0883    2.7494   -3.9485 N   0  0  0  0  0  0  0  0  0  0  0  0
   -2.1864   -0.3374    0.8348 H   0  0  0  0  0  0  0  0  0  0  0  0
   -0.6615   -1.1417    2.6528 H   0  0  0  0  0  0  0  0  0  0  0  0
    2.8847   -0.6924    2.2965 H   0  0  0  0  0  0  0  0  0  0  0  0
    4.7357    0.2235    1.6573 S   0  0  0  0  0  0  0  0  0  0  0  0
    3.8479   -0.7875    2.5581 O   0  0  0  0  0  0  0  0  0  0  0  0
    6.1314   -0.2013    1.8089 O   0  0  0  0  0  0  0  0  0  0  0  0
    4.0938    0.4315    0.3469 O   0  0  0  0  0  0  0  0  0  0  0  0
    4.5383    1.6623    2.4436 O   0  0  0  0  0  0  0  0  0  0  0  0
    5.1601    1.6697    3.1912 H   0  0  0  0  0  0  0  0  0  0  0  0
  1  6  1  0  0  0  0
  2  1  2  0  0  0  0
  2  3  1  0  0  0  0
  3  4  2  0  0  0  0
  4  5  1  0  0  0  0
  5 12  1  0  0  0  0
  6 11  1  0  0  0  0
  6  5  2  0  0  0  0
  7  1  1  0  0  0  0
  8  2  1  0  0  0  0
 10  9  3  0  0  0  0
 13 15  1  0  0  0  0
 14 16  2  0  0  0  0
 14 18  1  0  0  0  0
 14 15  1  0  0  0  0
 17 14  2  0  0  0  0
 18 19  1  0  0  0  0
M  RAD  2   3   2   4   2
M  END
