Coordinates from ORCA-job Ph-N2-HSO4-B3LYPG-aug-cc-pVDZ-scan-d09-49-n400
 OpenBabel11081710403D

 19 17  0  0  0  0  0  0  0  0999 V2000
   -0.9021    0.1385   -0.6765 C   0  0  0  0  0  0  0  0  0  0  0  0
    0.2798    0.7688   -1.1273 C   0  0  0  0  0  0  0  0  0  0  0  0
    1.2061    0.7294   -0.1351 C   0  0  0  0  0  0  0  0  0  0  0  0
    1.3389    0.2811    1.1095 C   0  0  0  0  0  0  0  0  0  0  0  0
    0.1125   -0.3347    1.4906 C   0  0  0  0  0  0  0  0  0  0  0  0
   -0.9752   -0.4002    0.6145 C   0  0  0  0  0  0  0  0  0  0  0  0
   -1.7480    0.0859   -1.3620 H   0  0  0  0  0  0  0  0  0  0  0  0
    0.3983    1.2028   -2.1146 H   0  0  0  0  0  0  0  0  0  0  0  0
    2.9094    1.7539   -0.8220 N   0  0  0  0  0  0  0  0  0  0  0  0
    3.6963    2.3969   -1.2496 N   0  0  0  0  0  0  0  0  0  0  0  0
   -1.8961   -0.8837    0.9391 H   0  0  0  0  0  0  0  0  0  0  0  0
    0.0619   -0.7657    2.4910 H   0  0  0  0  0  0  0  0  0  0  0  0
    2.2651    0.3139    1.7780 H   0  0  0  0  0  0  0  0  0  0  0  0
    4.7869    0.0754    1.6680 S   0  0  0  0  0  0  0  0  0  0  0  0
    3.6314    0.3405    2.6341 O   0  0  0  0  0  0  0  0  0  0  0  0
    5.8979   -0.7086    2.2633 O   0  0  0  0  0  0  0  0  0  0  0  0
    4.2810   -0.3174    0.3144 O   0  0  0  0  0  0  0  0  0  0  0  0
    5.4369    1.6155    1.3801 O   0  0  0  0  0  0  0  0  0  0  0  0
    6.1807    1.6991    1.9959 H   0  0  0  0  0  0  0  0  0  0  0  0
  1  6  1  0  0  0  0
  2  1  2  0  0  0  0
  2  3  1  0  0  0  0
  3  4  2  0  0  0  0
  4  5  1  0  0  0  0
  4 13  1  0  0  0  0
  5 12  1  0  0  0  0
  6 11  1  0  0  0  0
  6  5  2  0  0  0  0
  7  1  1  0  0  0  0
  8  2  1  0  0  0  0
 10  9  3  0  0  0  0
 14 16  2  0  0  0  0
 14 15  1  0  0  0  0
 17 14  2  0  0  0  0
 18 14  1  0  0  0  0
 18 19  1  0  0  0  0
M  RAD  2   3   2  15   2
M  END
