Coordinates from ORCA-job Ph-N2-HSO4-B3LYPG-aug-cc-pVDZ-scan-d09-49-n400
 OpenBabel11081710403D

 19 17  0  0  0  0  0  0  0  0999 V2000
   -0.6826    0.4428   -0.4089 C   0  0  0  0  0  0  0  0  0  0  0  0
    0.6939    0.6920   -0.6520 C   0  0  0  0  0  0  0  0  0  0  0  0
    1.3638    0.1917    0.4274 C   0  0  0  0  0  0  0  0  0  0  0  0
    1.1126   -0.4007    1.5163 C   0  0  0  0  0  0  0  0  0  0  0  0
   -0.2581   -0.6502    1.7636 C   0  0  0  0  0  0  0  0  0  0  0  0
   -1.1367   -0.2045    0.7572 C   0  0  0  0  0  0  0  0  0  0  0  0
   -1.4014    0.7709   -1.1618 H   0  0  0  0  0  0  0  0  0  0  0  0
    1.0793    1.1867   -1.5384 H   0  0  0  0  0  0  0  0  0  0  0  0
    3.2738    2.3046   -3.2221 N   0  0  0  0  0  0  0  0  0  0  0  0
    4.2707    2.6122   -3.5828 N   0  0  0  0  0  0  0  0  0  0  0  0
   -2.2088   -0.3659    0.8814 H   0  0  0  0  0  0  0  0  0  0  0  0
   -0.6262   -1.1509    2.6590 H   0  0  0  0  0  0  0  0  0  0  0  0
    2.9024   -0.6615    2.2236 H   0  0  0  0  0  0  0  0  0  0  0  0
    4.7472    0.2617    1.5769 S   0  0  0  0  0  0  0  0  0  0  0  0
    3.8657   -0.7532    2.4815 O   0  0  0  0  0  0  0  0  0  0  0  0
    6.1445   -0.1594    1.7247 O   0  0  0  0  0  0  0  0  0  0  0  0
    4.0992    0.4681    0.2700 O   0  0  0  0  0  0  0  0  0  0  0  0
    4.5483    1.6990    2.3660 O   0  0  0  0  0  0  0  0  0  0  0  0
    5.1743    1.7079    3.1099 H   0  0  0  0  0  0  0  0  0  0  0  0
  1  6  1  0  0  0  0
  2  1  2  0  0  0  0
  2  3  1  0  0  0  0
  3  4  2  0  0  0  0
  4  5  1  0  0  0  0
  5 12  1  0  0  0  0
  6 11  1  0  0  0  0
  6  5  2  0  0  0  0
  7  1  1  0  0  0  0
  8  2  1  0  0  0  0
 10  9  3  0  0  0  0
 13 15  1  0  0  0  0
 14 16  2  0  0  0  0
 14 18  1  0  0  0  0
 14 15  1  0  0  0  0
 17 14  2  0  0  0  0
 18 19  1  0  0  0  0
M  RAD  2   3   2   4   2
M  END
