Coordinates from ORCA-job Ph-N2-HSO4-B3LYPG-aug-cc-pVDZ-scan-d09-49-n400
 OpenBabel11081710403D

 19 17  0  0  0  0  0  0  0  0999 V2000
   -1.0700    0.3212   -0.4412 C   0  0  0  0  0  0  0  0  0  0  0  0
    0.1829    0.7327   -0.9678 C   0  0  0  0  0  0  0  0  0  0  0  0
    1.1208    0.4199   -0.0223 C   0  0  0  0  0  0  0  0  0  0  0  0
    1.1498   -0.1130    1.1199 C   0  0  0  0  0  0  0  0  0  0  0  0
   -0.0872   -0.5274    1.6605 C   0  0  0  0  0  0  0  0  0  0  0  0
   -1.1949   -0.2848    0.8237 C   0  0  0  0  0  0  0  0  0  0  0  0
   -1.9599    0.4873   -1.0512 H   0  0  0  0  0  0  0  0  0  0  0  0
    0.3146    1.2021   -1.9380 H   0  0  0  0  0  0  0  0  0  0  0  0
    3.5616    2.1664   -2.6632 N   0  0  0  0  0  0  0  0  0  0  0  0
    4.4340    2.7108   -3.0648 N   0  0  0  0  0  0  0  0  0  0  0  0
   -2.1881   -0.5791    1.1669 H   0  0  0  0  0  0  0  0  0  0  0  0
   -0.1984   -0.9998    2.6359 H   0  0  0  0  0  0  0  0  0  0  0  0
    2.9107   -0.3339    1.9384 H   0  0  0  0  0  0  0  0  0  0  0  0
    5.0234    0.1279    1.7098 S   0  0  0  0  0  0  0  0  0  0  0  0
    3.7376   -0.5305    2.4581 O   0  0  0  0  0  0  0  0  0  0  0  0
    6.2027   -0.4498    2.3668 O   0  0  0  0  0  0  0  0  0  0  0  0
    4.8172    0.1338    0.2567 O   0  0  0  0  0  0  0  0  0  0  0  0
    4.9053    1.7158    2.1589 O   0  0  0  0  0  0  0  0  0  0  0  0
    5.2995    1.7918    3.0443 H   0  0  0  0  0  0  0  0  0  0  0  0
  1  6  1  0  0  0  0
  2  1  2  0  0  0  0
  2  3  1  0  0  0  0
  3  4  2  0  0  0  0
  4  5  1  0  0  0  0
  5 12  1  0  0  0  0
  6 11  1  0  0  0  0
  6  5  2  0  0  0  0
  7  1  1  0  0  0  0
  8  2  1  0  0  0  0
 10  9  3  0  0  0  0
 13 15  1  0  0  0  0
 14 18  1  0  0  0  0
 14 16  2  0  0  0  0
 14 15  1  0  0  0  0
 17 14  2  0  0  0  0
 18 19  1  0  0  0  0
M  RAD  2   3   2   4   2
M  END
