Coordinates from ORCA-job Ph-N2-HSO4-B3LYPG-aug-cc-pVDZ-scan-d09-49-n400
 OpenBabel11081710403D

 19 17  0  0  0  0  0  0  0  0999 V2000
   -0.8936    0.1682   -0.6879 C   0  0  0  0  0  0  0  0  0  0  0  0
    0.3051    0.7752   -1.1183 C   0  0  0  0  0  0  0  0  0  0  0  0
    1.2382    0.7142   -0.1283 C   0  0  0  0  0  0  0  0  0  0  0  0
    1.3294    0.2378    1.1210 C   0  0  0  0  0  0  0  0  0  0  0  0
    0.0895   -0.3502    1.4831 C   0  0  0  0  0  0  0  0  0  0  0  0
   -0.9912   -0.3824    0.5960 C   0  0  0  0  0  0  0  0  0  0  0  0
   -1.7344    0.1403   -1.3808 H   0  0  0  0  0  0  0  0  0  0  0  0
    0.4396    1.2156   -2.1009 H   0  0  0  0  0  0  0  0  0  0  0  0
    2.9004    1.6425   -0.7496 N   0  0  0  0  0  0  0  0  0  0  0  0
    3.6408    2.3169   -1.2117 N   0  0  0  0  0  0  0  0  0  0  0  0
   -1.9259   -0.8484    0.9066 H   0  0  0  0  0  0  0  0  0  0  0  0
    0.0151   -0.7875    2.4790 H   0  0  0  0  0  0  0  0  0  0  0  0
    2.2356    0.2596    1.7879 H   0  0  0  0  0  0  0  0  0  0  0  0
    4.8001    0.1055    1.6821 S   0  0  0  0  0  0  0  0  0  0  0  0
    3.6790    0.3377    2.6824 O   0  0  0  0  0  0  0  0  0  0  0  0
    5.9598   -0.6571    2.2107 O   0  0  0  0  0  0  0  0  0  0  0  0
    4.2566   -0.2937    0.3380 O   0  0  0  0  0  0  0  0  0  0  0  0
    5.4061    1.6643    1.3739 O   0  0  0  0  0  0  0  0  0  0  0  0
    6.2116    1.7330    1.9083 H   0  0  0  0  0  0  0  0  0  0  0  0
  1  6  1  0  0  0  0
  2  1  2  0  0  0  0
  2  3  1  0  0  0  0
  3  4  2  0  0  0  0
  4  5  1  0  0  0  0
  4 13  1  0  0  0  0
  5 12  1  0  0  0  0
  6 11  1  0  0  0  0
  6  5  2  0  0  0  0
  7  1  1  0  0  0  0
  8  2  1  0  0  0  0
 10  9  3  0  0  0  0
 14 16  2  0  0  0  0
 14 15  1  0  0  0  0
 17 14  2  0  0  0  0
 18 14  1  0  0  0  0
 18 19  1  0  0  0  0
M  RAD  2   3   2  15   2
M  END
