Coordinates from ORCA-job Ph-N2-HSO4-B3LYPG-aug-cc-pVDZ-scan-d09-49-n400
 OpenBabel11081710403D

 19 19  0  0  1  0  0  0  0  0999 V2000
   -0.3737   -0.1146   -0.7374 C   0  0  0  0  0  0  0  0  0  0  0  0
    0.4797    0.8474   -1.1836 C   0  0  0  0  0  0  0  0  0  0  0  0
    1.5014    1.3274   -0.2954 C   0  0  0  0  0  0  0  0  0  0  0  0
    1.8310    0.6833    1.0011 C   0  0  1  0  0  0  0  0  0  0  0  0
    0.7298   -0.2051    1.4575 C   0  0  0  0  0  0  0  0  0  0  0  0
   -0.2612   -0.6006    0.6212 C   0  0  0  0  0  0  0  0  0  0  0  0
   -1.1596   -0.4960   -1.3867 H   0  0  0  0  0  0  0  0  0  0  0  0
    0.4034    1.2718   -2.1838 H   0  0  0  0  0  0  0  0  0  0  0  0
    2.2731    2.3829   -0.6740 N   0  0  0  0  0  0  0  0  0  0  0  0
    2.9270    3.2599   -0.9770 N   0  0  0  0  0  0  0  0  0  0  0  0
   -1.0193   -1.2939    0.9882 H   0  0  0  0  0  0  0  0  0  0  0  0
    0.7889   -0.5644    2.4831 H   0  0  0  0  0  0  0  0  0  0  0  0
    2.1606    1.3924    1.7653 H   0  0  0  0  0  0  0  0  0  0  0  0
    4.2034   -0.2962    1.9232 S   0  0  0  0  0  0  0  0  0  0  0  0
    3.5543   -0.2154    3.2398 O   0  0  0  0  0  0  0  0  0  0  0  0
    5.1413   -1.3628    1.5433 O   0  0  0  0  0  0  0  0  0  0  0  0
    3.0946   -0.2097    0.7389 O   0  0  0  0  0  0  0  0  0  0  0  0
    4.9905    1.1593    1.7614 O   0  0  0  0  0  0  0  0  0  0  0  0
    5.6962    1.0255    1.1065 H   0  0  0  0  0  0  0  0  0  0  0  0
  1  6  1  0  0  0  0
  2  1  1  0  0  0  0
  2  3  2  0  0  0  0
  3  4  1  0  0  0  0
  4  5  1  0  0  0  0
  4 13  1  1  0  0  0
  5 12  1  0  0  0  0
  6 11  1  0  0  0  0
  6  5  2  0  0  0  0
  7  1  1  0  0  0  0
  8  2  1  0  0  0  0
  9  3  1  0  0  0  0
 10  9  1  0  0  0  0
 14 15  2  0  0  0  0
 16 14  2  0  0  0  0
 17  4  1  0  0  0  0
 17 14  1  0  0  0  0
 18 14  1  0  0  0  0
 19 18  1  0  0  0  0
M  RAD  3   1   2   9   2  10   3
M  END
