Coordinates from ORCA-job Ph-N2-HSO4-B3LYPG-aug-cc-pVDZ-scan-d09-49-n400
 OpenBabel11081710403D

 19 17  0  0  0  0  0  0  0  0999 V2000
   -0.7480    0.4370   -0.4222 C   0  0  0  0  0  0  0  0  0  0  0  0
    0.6151    0.7099   -0.7106 C   0  0  0  0  0  0  0  0  0  0  0  0
    1.3312    0.2275    0.3481 C   0  0  0  0  0  0  0  0  0  0  0  0
    1.1175   -0.3626    1.4444 C   0  0  0  0  0  0  0  0  0  0  0  0
   -0.2366   -0.6380    1.7418 C   0  0  0  0  0  0  0  0  0  0  0  0
   -1.1535   -0.2123    0.7605 C   0  0  0  0  0  0  0  0  0  0  0  0
   -1.4966    0.7482   -1.1530 H   0  0  0  0  0  0  0  0  0  0  0  0
    0.9663    1.2068   -1.6098 H   0  0  0  0  0  0  0  0  0  0  0  0
    3.2880    2.2066   -3.0063 N   0  0  0  0  0  0  0  0  0  0  0  0
    4.3220    2.5117   -3.2439 N   0  0  0  0  0  0  0  0  0  0  0  0
   -2.2181   -0.3918    0.9193 H   0  0  0  0  0  0  0  0  0  0  0  0
   -0.5664   -1.1405    2.6507 H   0  0  0  0  0  0  0  0  0  0  0  0
    2.9176   -0.6147    2.1568 H   0  0  0  0  0  0  0  0  0  0  0  0
    4.7947    0.2684    1.5455 S   0  0  0  0  0  0  0  0  0  0  0  0
    3.8695   -0.7151    2.4448 O   0  0  0  0  0  0  0  0  0  0  0  0
    6.1797   -0.1696    1.7521 O   0  0  0  0  0  0  0  0  0  0  0  0
    4.1921    0.4533    0.2156 O   0  0  0  0  0  0  0  0  0  0  0  0
    4.5909    1.7248    2.2986 O   0  0  0  0  0  0  0  0  0  0  0  0
    5.1963    1.7418    3.0593 H   0  0  0  0  0  0  0  0  0  0  0  0
  1  6  1  0  0  0  0
  2  1  2  0  0  0  0
  2  3  1  0  0  0  0
  3  4  2  0  0  0  0
  4  5  1  0  0  0  0
  5 12  1  0  0  0  0
  6 11  1  0  0  0  0
  6  5  2  0  0  0  0
  7  1  1  0  0  0  0
  8  2  1  0  0  0  0
 10  9  3  0  0  0  0
 13 15  1  0  0  0  0
 14 16  2  0  0  0  0
 14 18  1  0  0  0  0
 14 15  1  0  0  0  0
 17 14  2  0  0  0  0
 18 19  1  0  0  0  0
M  RAD  2   3   2   4   2
M  END
