Coordinates from ORCA-job Ph-N2-HSO4-B3LYPG-aug-cc-pVDZ-scan-d09-49-n400
 OpenBabel11081710403D

 19 17  0  0  0  0  0  0  0  0999 V2000
   -1.1296    0.3011   -0.4997 C   0  0  0  0  0  0  0  0  0  0  0  0
    0.0446    0.8039   -1.1194 C   0  0  0  0  0  0  0  0  0  0  0  0
    1.0705    0.5817   -0.2442 C   0  0  0  0  0  0  0  0  0  0  0  0
    1.2384    0.0712    0.8989 C   0  0  0  0  0  0  0  0  0  0  0  0
    0.0738   -0.4312    1.5269 C   0  0  0  0  0  0  0  0  0  0  0  0
   -1.1098   -0.2933    0.7761 C   0  0  0  0  0  0  0  0  0  0  0  0
   -2.0718    0.3859   -1.0442 H   0  0  0  0  0  0  0  0  0  0  0  0
    0.0679    1.2670   -2.1009 H   0  0  0  0  0  0  0  0  0  0  0  0
    3.2415    1.8970   -2.0333 N   0  0  0  0  0  0  0  0  0  0  0  0
    4.1984    2.4001   -2.2560 N   0  0  0  0  0  0  0  0  0  0  0  0
   -2.0467   -0.6623    1.1968 H   0  0  0  0  0  0  0  0  0  0  0  0
    0.0737   -0.8968    2.5121 H   0  0  0  0  0  0  0  0  0  0  0  0
    2.9140   -0.1450    1.7992 H   0  0  0  0  0  0  0  0  0  0  0  0
    5.0786    0.0841    1.7132 S   0  0  0  0  0  0  0  0  0  0  0  0
    3.6779   -0.3646    2.4046 O   0  0  0  0  0  0  0  0  0  0  0  0
    6.1375   -0.5257    2.5280 O   0  0  0  0  0  0  0  0  0  0  0  0
    4.9905   -0.0488    0.2544 O   0  0  0  0  0  0  0  0  0  0  0  0
    5.0895    1.7162    1.9877 O   0  0  0  0  0  0  0  0  0  0  0  0
    5.4225    1.8508    2.8911 H   0  0  0  0  0  0  0  0  0  0  0  0
  1  6  1  0  0  0  0
  2  1  2  0  0  0  0
  2  3  1  0  0  0  0
  3  4  2  0  0  0  0
  4  5  1  0  0  0  0
  5 12  1  0  0  0  0
  6 11  1  0  0  0  0
  6  5  2  0  0  0  0
  7  1  1  0  0  0  0
  8  2  1  0  0  0  0
 10  9  3  0  0  0  0
 13 15  1  0  0  0  0
 14 18  1  0  0  0  0
 14 15  1  0  0  0  0
 14 16  2  0  0  0  0
 17 14  2  0  0  0  0
 18 19  1  0  0  0  0
M  RAD  2   3   2   4   2
M  END
