Coordinates from ORCA-job Ph-N2-HSO4-B3LYPG-aug-cc-pVDZ-scan-d09-49-n400
 OpenBabel11081710403D

 19 17  0  0  0  0  0  0  0  0999 V2000
   -1.1242    0.2944   -0.5309 C   0  0  0  0  0  0  0  0  0  0  0  0
    0.0260    0.8188   -1.1771 C   0  0  0  0  0  0  0  0  0  0  0  0
    1.0682    0.6321   -0.3168 C   0  0  0  0  0  0  0  0  0  0  0  0
    1.2882    0.1429    0.8288 C   0  0  0  0  0  0  0  0  0  0  0  0
    0.1395   -0.3795    1.4766 C   0  0  0  0  0  0  0  0  0  0  0  0
   -1.0633   -0.2832    0.7512 C   0  0  0  0  0  0  0  0  0  0  0  0
   -2.0781    0.3486   -1.0586 H   0  0  0  0  0  0  0  0  0  0  0  0
    0.0213    1.2704   -2.1640 H   0  0  0  0  0  0  0  0  0  0  0  0
    3.0347    1.7970   -1.8363 N   0  0  0  0  0  0  0  0  0  0  0  0
    4.0114    2.2874   -1.9914 N   0  0  0  0  0  0  0  0  0  0  0  0
   -1.9812   -0.6714    1.1956 H   0  0  0  0  0  0  0  0  0  0  0  0
    0.1703   -0.8336    2.4670 H   0  0  0  0  0  0  0  0  0  0  0  0
    2.9119   -0.0758    1.7568 H   0  0  0  0  0  0  0  0  0  0  0  0
    5.0920    0.0671    1.7227 S   0  0  0  0  0  0  0  0  0  0  0  0
    3.6579   -0.3083    2.3851 O   0  0  0  0  0  0  0  0  0  0  0  0
    6.1040   -0.5700    2.5756 O   0  0  0  0  0  0  0  0  0  0  0  0
    5.0386   -0.0897    0.2641 O   0  0  0  0  0  0  0  0  0  0  0  0
    5.1661    1.7030    1.9664 O   0  0  0  0  0  0  0  0  0  0  0  0
    5.4782    1.8411    2.8766 H   0  0  0  0  0  0  0  0  0  0  0  0
  1  6  1  0  0  0  0
  2  1  2  0  0  0  0
  2  3  1  0  0  0  0
  3  4  2  0  0  0  0
  4  5  1  0  0  0  0
  5 12  1  0  0  0  0
  6 11  1  0  0  0  0
  6  5  2  0  0  0  0
  7  1  1  0  0  0  0
  8  2  1  0  0  0  0
 10  9  3  0  0  0  0
 13 15  1  0  0  0  0
 14 18  1  0  0  0  0
 14 15  1  0  0  0  0
 14 16  2  0  0  0  0
 17 14  2  0  0  0  0
 18 19  1  0  0  0  0
M  RAD  2   3   2   4   2
M  END
