Coordinates from ORCA-job Ph-N2-HSO4-B3LYPG-aug-cc-pVDZ-scan-d09-49-n400
 OpenBabel11081710403D

 19 17  0  0  0  0  0  0  0  0999 V2000
   -0.7168    0.4407   -0.4123 C   0  0  0  0  0  0  0  0  0  0  0  0
    0.6537    0.6995   -0.6783 C   0  0  0  0  0  0  0  0  0  0  0  0
    1.3458    0.2053    0.3903 C   0  0  0  0  0  0  0  0  0  0  0  0
    1.1133   -0.3869    1.4827 C   0  0  0  0  0  0  0  0  0  0  0  0
   -0.2501   -0.6470    1.7547 C   0  0  0  0  0  0  0  0  0  0  0  0
   -1.1475   -0.2083    0.7617 C   0  0  0  0  0  0  0  0  0  0  0  0
   -1.4502    0.7627   -1.1536 H   0  0  0  0  0  0  0  0  0  0  0  0
    1.0217    1.1959   -1.5711 H   0  0  0  0  0  0  0  0  0  0  0  0
    3.2995    2.2465   -3.0979 N   0  0  0  0  0  0  0  0  0  0  0  0
    4.3219    2.5380   -3.3949 N   0  0  0  0  0  0  0  0  0  0  0  0
   -2.2163   -0.3770    0.9033 H   0  0  0  0  0  0  0  0  0  0  0  0
   -0.5998   -1.1491    2.6565 H   0  0  0  0  0  0  0  0  0  0  0  0
    2.9134   -0.6427    2.1816 H   0  0  0  0  0  0  0  0  0  0  0  0
    4.7649    0.2773    1.5492 S   0  0  0  0  0  0  0  0  0  0  0  0
    3.8735   -0.7366    2.4469 O   0  0  0  0  0  0  0  0  0  0  0  0
    6.1597   -0.1478    1.7097 O   0  0  0  0  0  0  0  0  0  0  0  0
    4.1279    0.4855    0.2379 O   0  0  0  0  0  0  0  0  0  0  0  0
    4.5629    1.7142    2.3385 O   0  0  0  0  0  0  0  0  0  0  0  0
    5.1842    1.7213    3.0865 H   0  0  0  0  0  0  0  0  0  0  0  0
  1  6  1  0  0  0  0
  2  1  2  0  0  0  0
  2  3  1  0  0  0  0
  3  4  2  0  0  0  0
  4  5  1  0  0  0  0
  5 12  1  0  0  0  0
  6 11  1  0  0  0  0
  6  5  2  0  0  0  0
  7  1  1  0  0  0  0
  8  2  1  0  0  0  0
 10  9  3  0  0  0  0
 13 15  1  0  0  0  0
 14 16  2  0  0  0  0
 14 18  1  0  0  0  0
 14 15  1  0  0  0  0
 17 14  2  0  0  0  0
 18 19  1  0  0  0  0
M  RAD  2   3   2   4   2
M  END
