Coordinates from ORCA-job Ph-N2-HSO4-B3LYPG-aug-cc-pVDZ-scan-d09-49-n400
 OpenBabel11081710403D

 19 17  0  0  0  0  0  0  0  0999 V2000
   -1.1184    0.2922   -0.5373 C   0  0  0  0  0  0  0  0  0  0  0  0
    0.0233    0.8217   -1.1923 C   0  0  0  0  0  0  0  0  0  0  0  0
    1.0765    0.6479   -0.3420 C   0  0  0  0  0  0  0  0  0  0  0  0
    1.3075    0.1642    0.8048 C   0  0  0  0  0  0  0  0  0  0  0  0
    0.1660   -0.3635    1.4615 C   0  0  0  0  0  0  0  0  0  0  0  0
   -1.0434   -0.2798    0.7464 C   0  0  0  0  0  0  0  0  0  0  0  0
   -2.0760    0.3376   -1.0587 H   0  0  0  0  0  0  0  0  0  0  0  0
    0.0079    1.2695   -2.1810 H   0  0  0  0  0  0  0  0  0  0  0  0
    2.9831    1.7712   -1.7896 N   0  0  0  0  0  0  0  0  0  0  0  0
    3.9641    2.2583   -1.9268 N   0  0  0  0  0  0  0  0  0  0  0  0
   -1.9544   -0.6734    1.2001 H   0  0  0  0  0  0  0  0  0  0  0  0
    0.2082   -0.8135    2.4533 H   0  0  0  0  0  0  0  0  0  0  0  0
    2.9054   -0.0629    1.7524 H   0  0  0  0  0  0  0  0  0  0  0  0
    5.0830    0.0628    1.7259 S   0  0  0  0  0  0  0  0  0  0  0  0
    3.6462   -0.2966    2.3886 O   0  0  0  0  0  0  0  0  0  0  0  0
    6.0914   -0.5820    2.5775 O   0  0  0  0  0  0  0  0  0  0  0  0
    5.0241   -0.0959    0.2676 O   0  0  0  0  0  0  0  0  0  0  0  0
    5.1743    1.6985    1.9665 O   0  0  0  0  0  0  0  0  0  0  0  0
    5.4929    1.8349    2.8747 H   0  0  0  0  0  0  0  0  0  0  0  0
  1  6  1  0  0  0  0
  2  1  2  0  0  0  0
  2  3  1  0  0  0  0
  3  4  2  0  0  0  0
  4  5  1  0  0  0  0
  5 12  1  0  0  0  0
  6 11  1  0  0  0  0
  6  5  2  0  0  0  0
  7  1  1  0  0  0  0
  8  2  1  0  0  0  0
 10  9  3  0  0  0  0
 13 15  1  0  0  0  0
 14 18  1  0  0  0  0
 14 15  1  0  0  0  0
 14 16  2  0  0  0  0
 17 14  2  0  0  0  0
 18 19  1  0  0  0  0
M  RAD  2   3   2   4   2
M  END
