Coordinates from ORCA-job Ph-N2-HSO4-B3LYPG-aug-cc-pVDZ-scan-d09-49-n400
 OpenBabel11081710403D

 19 17  0  0  0  0  0  0  0  0999 V2000
   -1.1268    0.3064   -0.4808 C   0  0  0  0  0  0  0  0  0  0  0  0
    0.0636    0.7941   -1.0817 C   0  0  0  0  0  0  0  0  0  0  0  0
    1.0739    0.5486   -0.1941 C   0  0  0  0  0  0  0  0  0  0  0  0
    1.2141    0.0279    0.9473 C   0  0  0  0  0  0  0  0  0  0  0  0
    0.0354   -0.4598    1.5584 C   0  0  0  0  0  0  0  0  0  0  0  0
   -1.1348   -0.2967    0.7913 C   0  0  0  0  0  0  0  0  0  0  0  0
   -2.0601    0.4103   -1.0371 H   0  0  0  0  0  0  0  0  0  0  0  0
    0.1074    1.2632   -2.0597 H   0  0  0  0  0  0  0  0  0  0  0  0
    3.3560    1.9520   -2.1653 N   0  0  0  0  0  0  0  0  0  0  0  0
    4.2986    2.4616   -2.4300 N   0  0  0  0  0  0  0  0  0  0  0  0
   -2.0837   -0.6525    1.1961 H   0  0  0  0  0  0  0  0  0  0  0  0
    0.0139   -0.9315    2.5403 H   0  0  0  0  0  0  0  0  0  0  0  0
    2.9125   -0.1907    1.8253 H   0  0  0  0  0  0  0  0  0  0  0  0
    5.0673    0.0979    1.7054 S   0  0  0  0  0  0  0  0  0  0  0  0
    3.6917   -0.4047    2.4114 O   0  0  0  0  0  0  0  0  0  0  0  0
    6.1565   -0.4993    2.4889 O   0  0  0  0  0  0  0  0  0  0  0  0
    4.9568   -0.0070    0.2459 O   0  0  0  0  0  0  0  0  0  0  0  0
    5.0375    1.7233    2.0147 O   0  0  0  0  0  0  0  0  0  0  0  0
    5.3819    1.8483    2.9152 H   0  0  0  0  0  0  0  0  0  0  0  0
  1  6  1  0  0  0  0
  2  1  2  0  0  0  0
  2  3  1  0  0  0  0
  3  4  2  0  0  0  0
  4  5  1  0  0  0  0
  5 12  1  0  0  0  0
  6 11  1  0  0  0  0
  6  5  2  0  0  0  0
  7  1  1  0  0  0  0
  8  2  1  0  0  0  0
 10  9  3  0  0  0  0
 13 15  1  0  0  0  0
 14 18  1  0  0  0  0
 14 15  1  0  0  0  0
 14 16  2  0  0  0  0
 17 14  2  0  0  0  0
 18 19  1  0  0  0  0
M  RAD  2   3   2   4   2
M  END
