Coordinates from ORCA-job Ph-N2-HSO4-B3LYPG-aug-cc-pVDZ-scan-d09-49-n400
 OpenBabel11081710403D

 19 17  0  0  0  0  0  0  0  0999 V2000
   -0.7234    0.4406   -0.4137 C   0  0  0  0  0  0  0  0  0  0  0  0
    0.6458    0.7012   -0.6846 C   0  0  0  0  0  0  0  0  0  0  0  0
    1.3425    0.2084    0.3817 C   0  0  0  0  0  0  0  0  0  0  0  0
    1.1139   -0.3836    1.4749 C   0  0  0  0  0  0  0  0  0  0  0  0
   -0.2480   -0.6457    1.7522 C   0  0  0  0  0  0  0  0  0  0  0  0
   -1.1492   -0.2085    0.7620 C   0  0  0  0  0  0  0  0  0  0  0  0
   -1.4599    0.7613   -1.1526 H   0  0  0  0  0  0  0  0  0  0  0  0
    1.0102    1.1977   -1.5788 H   0  0  0  0  0  0  0  0  0  0  0  0
    3.3000    2.2341   -3.0746 N   0  0  0  0  0  0  0  0  0  0  0  0
    4.3267    2.5234   -3.3587 N   0  0  0  0  0  0  0  0  0  0  0  0
   -2.2173   -0.3785    0.9073 H   0  0  0  0  0  0  0  0  0  0  0  0
   -0.5938   -1.1479    2.6554 H   0  0  0  0  0  0  0  0  0  0  0  0
    2.9160   -0.6390    2.1730 H   0  0  0  0  0  0  0  0  0  0  0  0
    4.7699    0.2797    1.5455 S   0  0  0  0  0  0  0  0  0  0  0  0
    3.8752   -0.7337    2.4407 O   0  0  0  0  0  0  0  0  0  0  0  0
    6.1639   -0.1466    1.7103 O   0  0  0  0  0  0  0  0  0  0  0  0
    4.1367    0.4885    0.2326 O   0  0  0  0  0  0  0  0  0  0  0  0
    4.5667    1.7166    2.3346 O   0  0  0  0  0  0  0  0  0  0  0  0
    5.1859    1.7231    3.0842 H   0  0  0  0  0  0  0  0  0  0  0  0
  1  6  1  0  0  0  0
  2  1  2  0  0  0  0
  2  3  1  0  0  0  0
  3  4  2  0  0  0  0
  4  5  1  0  0  0  0
  5 12  1  0  0  0  0
  6 11  1  0  0  0  0
  6  5  2  0  0  0  0
  7  1  1  0  0  0  0
  8  2  1  0  0  0  0
 10  9  3  0  0  0  0
 13 15  1  0  0  0  0
 14 16  2  0  0  0  0
 14 18  1  0  0  0  0
 14 15  1  0  0  0  0
 17 14  2  0  0  0  0
 18 19  1  0  0  0  0
M  RAD  2   3   2   4   2
M  END
