Coordinates from ORCA-job Ph-N2-HSO4-B3LYPG-aug-cc-pVDZ-scan-d09-49-n400
 OpenBabel11081710403D

 19 17  0  0  0  0  0  0  0  0999 V2000
   -1.1043    0.2777   -0.5657 C   0  0  0  0  0  0  0  0  0  0  0  0
    0.0155    0.8702   -1.1987 C   0  0  0  0  0  0  0  0  0  0  0  0
    1.0764    0.7304   -0.3506 C   0  0  0  0  0  0  0  0  0  0  0  0
    1.3367    0.2368    0.7917 C   0  0  0  0  0  0  0  0  0  0  0  0
    0.2051   -0.3525    1.4196 C   0  0  0  0  0  0  0  0  0  0  0  0
   -1.0058   -0.3145    0.7067 C   0  0  0  0  0  0  0  0  0  0  0  0
   -2.0599    0.2895   -1.0922 H   0  0  0  0  0  0  0  0  0  0  0  0
   -0.0129    1.3382   -2.1779 H   0  0  0  0  0  0  0  0  0  0  0  0
    2.8586    1.7647   -1.5689 N   0  0  0  0  0  0  0  0  0  0  0  0
    3.8932    2.1266   -1.6998 N   0  0  0  0  0  0  0  0  0  0  0  0
   -1.8974   -0.7595    1.1511 H   0  0  0  0  0  0  0  0  0  0  0  0
    0.2645   -0.8194    2.4032 H   0  0  0  0  0  0  0  0  0  0  0  0
    2.8760    0.0396    1.7573 H   0  0  0  0  0  0  0  0  0  0  0  0
    5.0601    0.0327    1.7300 S   0  0  0  0  0  0  0  0  0  0  0  0
    3.6096   -0.1803    2.4166 O   0  0  0  0  0  0  0  0  0  0  0  0
    6.0356   -0.5917    2.6340 O   0  0  0  0  0  0  0  0  0  0  0  0
    4.9891   -0.2479    0.2904 O   0  0  0  0  0  0  0  0  0  0  0  0
    5.2494    1.6767    1.8246 O   0  0  0  0  0  0  0  0  0  0  0  0
    5.5723    1.8741    2.7201 H   0  0  0  0  0  0  0  0  0  0  0  0
  1  6  1  0  0  0  0
  2  1  2  0  0  0  0
  2  3  1  0  0  0  0
  3  4  2  0  0  0  0
  4  5  1  0  0  0  0
  5 12  1  0  0  0  0
  6 11  1  0  0  0  0
  6  5  2  0  0  0  0
  7  1  1  0  0  0  0
  8  2  1  0  0  0  0
 10  9  3  0  0  0  0
 13 15  1  0  0  0  0
 14 18  1  0  0  0  0
 14 15  1  0  0  0  0
 14 16  2  0  0  0  0
 17 14  2  0  0  0  0
 18 19  1  0  0  0  0
M  RAD  2   3   2   4   2
M  END
