Coordinates from ORCA-job Ph-N2-HSO4-B3LYPG-aug-cc-pVDZ-scan-d09-49-n400
 OpenBabel11081710403D

 19 17  0  0  0  0  0  0  0  0999 V2000
   -1.0324    0.3246   -0.4320 C   0  0  0  0  0  0  0  0  0  0  0  0
    0.2436    0.6861   -0.9386 C   0  0  0  0  0  0  0  0  0  0  0  0
    1.1544    0.3522    0.0261 C   0  0  0  0  0  0  0  0  0  0  0  0
    1.1414   -0.1681    1.1750 C   0  0  0  0  0  0  0  0  0  0  0  0
   -0.1188   -0.5332    1.6966 C   0  0  0  0  0  0  0  0  0  0  0  0
   -1.2018   -0.2620    0.8367 C   0  0  0  0  0  0  0  0  0  0  0  0
   -1.9042    0.5143   -1.0607 H   0  0  0  0  0  0  0  0  0  0  0  0
    0.4091    1.1397   -1.9110 H   0  0  0  0  0  0  0  0  0  0  0  0
    3.5826    2.2819   -2.8917 N   0  0  0  0  0  0  0  0  0  0  0  0
    4.4119    2.8515   -3.3469 N   0  0  0  0  0  0  0  0  0  0  0  0
   -2.2109   -0.5174    1.1645 H   0  0  0  0  0  0  0  0  0  0  0  0
   -0.2646   -0.9897    2.6750 H   0  0  0  0  0  0  0  0  0  0  0  0
    2.9092   -0.3995    1.9878 H   0  0  0  0  0  0  0  0  0  0  0  0
    5.0007    0.1261    1.7336 S   0  0  0  0  0  0  0  0  0  0  0  0
    3.7498   -0.5905    2.4867 O   0  0  0  0  0  0  0  0  0  0  0  0
    6.2099   -0.4441    2.3408 O   0  0  0  0  0  0  0  0  0  0  0  0
    4.7577    0.1782    0.2872 O   0  0  0  0  0  0  0  0  0  0  0  0
    4.8549    1.6934    2.2423 O   0  0  0  0  0  0  0  0  0  0  0  0
    5.2691    1.7480    3.1202 H   0  0  0  0  0  0  0  0  0  0  0  0
  1  6  1  0  0  0  0
  2  1  2  0  0  0  0
  2  3  1  0  0  0  0
  3  4  2  0  0  0  0
  4  5  1  0  0  0  0
  5 12  1  0  0  0  0
  6 11  1  0  0  0  0
  6  5  2  0  0  0  0
  7  1  1  0  0  0  0
  8  2  1  0  0  0  0
 10  9  3  0  0  0  0
 13 15  1  0  0  0  0
 14 18  1  0  0  0  0
 14 16  2  0  0  0  0
 14 15  1  0  0  0  0
 17 14  2  0  0  0  0
 18 19  1  0  0  0  0
M  RAD  2   3   2   4   2
M  END
