Coordinates from ORCA-job Ph-N2-HSO4-B3LYPG-aug-cc-pVDZ-scan-d09-49-n400
 OpenBabel11081710403D

 19 17  0  0  0  0  0  0  0  0999 V2000
   -0.7028    0.4412   -0.4101 C   0  0  0  0  0  0  0  0  0  0  0  0
    0.6703    0.6961   -0.6662 C   0  0  0  0  0  0  0  0  0  0  0  0
    1.3529    0.1992    0.4070 C   0  0  0  0  0  0  0  0  0  0  0  0
    1.1125   -0.3933    1.4979 C   0  0  0  0  0  0  0  0  0  0  0  0
   -0.2541   -0.6491    1.7593 C   0  0  0  0  0  0  0  0  0  0  0  0
   -1.1435   -0.2073    0.7605 C   0  0  0  0  0  0  0  0  0  0  0  0
   -1.4301    0.7658   -1.1564 H   0  0  0  0  0  0  0  0  0  0  0  0
    1.0457    1.1919   -1.5563 H   0  0  0  0  0  0  0  0  0  0  0  0
    3.2941    2.2712   -3.1473 N   0  0  0  0  0  0  0  0  0  0  0  0
    4.3068    2.5684   -3.4708 N   0  0  0  0  0  0  0  0  0  0  0  0
   -2.2137   -0.3731    0.8946 H   0  0  0  0  0  0  0  0  0  0  0  0
   -0.6116   -1.1507    2.6582 H   0  0  0  0  0  0  0  0  0  0  0  0
    2.9084   -0.6505    2.1992 H   0  0  0  0  0  0  0  0  0  0  0  0
    4.7559    0.2716    1.5585 S   0  0  0  0  0  0  0  0  0  0  0  0
    3.8703   -0.7430    2.4603 O   0  0  0  0  0  0  0  0  0  0  0  0
    6.1521   -0.1513    1.7115 O   0  0  0  0  0  0  0  0  0  0  0  0
    4.1122    0.4790    0.2500 O   0  0  0  0  0  0  0  0  0  0  0  0
    4.5560    1.7086    2.3481 O   0  0  0  0  0  0  0  0  0  0  0  0
    5.1804    1.7166    3.0935 H   0  0  0  0  0  0  0  0  0  0  0  0
  1  6  1  0  0  0  0
  2  1  2  0  0  0  0
  2  3  1  0  0  0  0
  3  4  2  0  0  0  0
  4  5  1  0  0  0  0
  5 12  1  0  0  0  0
  6 11  1  0  0  0  0
  6  5  2  0  0  0  0
  7  1  1  0  0  0  0
  8  2  1  0  0  0  0
 10  9  3  0  0  0  0
 13 15  1  0  0  0  0
 14 16  2  0  0  0  0
 14 18  1  0  0  0  0
 14 15  1  0  0  0  0
 17 14  2  0  0  0  0
 18 19  1  0  0  0  0
M  RAD  2   3   2   4   2
M  END
