Coordinates from ORCA-job Ph-N2-HSO4-B3LYPG-aug-cc-pVDZ-scan-d09-49-n400
 OpenBabel11081710403D

 19 17  0  0  0  0  0  0  0  0999 V2000
   -0.7004    0.4413   -0.4098 C   0  0  0  0  0  0  0  0  0  0  0  0
    0.6731    0.6956   -0.6643 C   0  0  0  0  0  0  0  0  0  0  0  0
    1.3541    0.1982    0.4097 C   0  0  0  0  0  0  0  0  0  0  0  0
    1.1124   -0.3943    1.5003 C   0  0  0  0  0  0  0  0  0  0  0  0
   -0.2547   -0.6493    1.7599 C   0  0  0  0  0  0  0  0  0  0  0  0
   -1.1427   -0.2071    0.7602 C   0  0  0  0  0  0  0  0  0  0  0  0
   -1.4266    0.7663   -1.1570 H   0  0  0  0  0  0  0  0  0  0  0  0
    1.0498    1.1913   -1.5539 H   0  0  0  0  0  0  0  0  0  0  0  0
    3.2924    2.2753   -3.1561 N   0  0  0  0  0  0  0  0  0  0  0  0
    4.3033    2.5737   -3.4842 N   0  0  0  0  0  0  0  0  0  0  0  0
   -2.2132   -0.3723    0.8930 H   0  0  0  0  0  0  0  0  0  0  0  0
   -0.6135   -1.1509    2.6584 H   0  0  0  0  0  0  0  0  0  0  0  0
    2.9076   -0.6519    2.2022 H   0  0  0  0  0  0  0  0  0  0  0  0
    4.7546    0.2705    1.5604 S   0  0  0  0  0  0  0  0  0  0  0  0
    3.8697   -0.7441    2.4628 O   0  0  0  0  0  0  0  0  0  0  0  0
    6.1510   -0.1521    1.7124 O   0  0  0  0  0  0  0  0  0  0  0  0
    4.1101    0.4778    0.2523 O   0  0  0  0  0  0  0  0  0  0  0  0
    4.5549    1.7075    2.3501 O   0  0  0  0  0  0  0  0  0  0  0  0
    5.1797    1.7157    3.0951 H   0  0  0  0  0  0  0  0  0  0  0  0
  1  6  1  0  0  0  0
  2  1  2  0  0  0  0
  2  3  1  0  0  0  0
  3  4  2  0  0  0  0
  4  5  1  0  0  0  0
  5 12  1  0  0  0  0
  6 11  1  0  0  0  0
  6  5  2  0  0  0  0
  7  1  1  0  0  0  0
  8  2  1  0  0  0  0
 10  9  3  0  0  0  0
 13 15  1  0  0  0  0
 14 16  2  0  0  0  0
 14 18  1  0  0  0  0
 14 15  1  0  0  0  0
 17 14  2  0  0  0  0
 18 19  1  0  0  0  0
M  RAD  2   3   2   4   2
M  END
