Coordinates from ORCA-job Ph-N2-HSO4-B3LYPG-aug-cc-pVDZ-scan-d09-49-n400
 OpenBabel11081710403D

 19 17  0  0  0  0  0  0  0  0999 V2000
   -0.6048    0.4529   -0.4168 C   0  0  0  0  0  0  0  0  0  0  0  0
    0.7821    0.6808   -0.6167 C   0  0  0  0  0  0  0  0  0  0  0  0
    1.4095    0.1710    0.4831 C   0  0  0  0  0  0  0  0  0  0  0  0
    1.1196   -0.4177    1.5655 C   0  0  0  0  0  0  0  0  0  0  0  0
   -0.2633   -0.6446    1.7673 C   0  0  0  0  0  0  0  0  0  0  0  0
   -1.1042   -0.1867    0.7349 C   0  0  0  0  0  0  0  0  0  0  0  0
   -1.2947    0.7915   -1.1918 H   0  0  0  0  0  0  0  0  0  0  0  0
    1.2014    1.1692   -1.4913 H   0  0  0  0  0  0  0  0  0  0  0  0
    3.1309    2.4163   -3.5176 N   0  0  0  0  0  0  0  0  0  0  0  0
    4.0507    2.7731   -4.0131 N   0  0  0  0  0  0  0  0  0  0  0  0
   -2.1819   -0.3320    0.8263 H   0  0  0  0  0  0  0  0  0  0  0  0
   -0.6667   -1.1392    2.6509 H   0  0  0  0  0  0  0  0  0  0  0  0
    2.8817   -0.6975    2.3088 H   0  0  0  0  0  0  0  0  0  0  0  0
    4.7352    0.2161    1.6734 S   0  0  0  0  0  0  0  0  0  0  0  0
    3.8444   -0.7938    2.5724 O   0  0  0  0  0  0  0  0  0  0  0  0
    6.1301   -0.2100    1.8277 O   0  0  0  0  0  0  0  0  0  0  0  0
    4.0962    0.4247    0.3616 O   0  0  0  0  0  0  0  0  0  0  0  0
    4.5376    1.6553    2.4589 O   0  0  0  0  0  0  0  0  0  0  0  0
    5.1578    1.6621    3.2079 H   0  0  0  0  0  0  0  0  0  0  0  0
  1  6  1  0  0  0  0
  2  1  2  0  0  0  0
  2  3  1  0  0  0  0
  3  4  2  0  0  0  0
  4  5  1  0  0  0  0
  5 12  1  0  0  0  0
  6 11  1  0  0  0  0
  6  5  2  0  0  0  0
  7  1  1  0  0  0  0
  8  2  1  0  0  0  0
 10  9  3  0  0  0  0
 13 15  1  0  0  0  0
 14 16  2  0  0  0  0
 14 18  1  0  0  0  0
 14 15  1  0  0  0  0
 17 14  2  0  0  0  0
 18 19  1  0  0  0  0
M  RAD  2   3   2   4   2
M  END
