Coordinates from ORCA-job Ph-N2-HSO4-B3LYPG-aug-cc-pVDZ-scan-d09-49-n400
 OpenBabel11081710403D

 19 17  0  0  0  0  0  0  0  0999 V2000
   -0.8977    0.1420   -0.6795 C   0  0  0  0  0  0  0  0  0  0  0  0
    0.2872    0.7701   -1.1251 C   0  0  0  0  0  0  0  0  0  0  0  0
    1.2123    0.7280   -0.1314 C   0  0  0  0  0  0  0  0  0  0  0  0
    1.3375    0.2751    1.1141 C   0  0  0  0  0  0  0  0  0  0  0  0
    0.1088   -0.3377    1.4898 C   0  0  0  0  0  0  0  0  0  0  0  0
   -0.9763   -0.3989    0.6101 C   0  0  0  0  0  0  0  0  0  0  0  0
   -1.7414    0.0927   -1.3678 H   0  0  0  0  0  0  0  0  0  0  0  0
    0.4096    1.2053   -2.1114 H   0  0  0  0  0  0  0  0  0  0  0  0
    2.9055    1.7372   -0.8047 N   0  0  0  0  0  0  0  0  0  0  0  0
    3.6784    2.3908   -1.2418 N   0  0  0  0  0  0  0  0  0  0  0  0
   -1.8994   -0.8807    0.9308 H   0  0  0  0  0  0  0  0  0  0  0  0
    0.0533   -0.7699    2.4894 H   0  0  0  0  0  0  0  0  0  0  0  0
    2.2589    0.3082    1.7831 H   0  0  0  0  0  0  0  0  0  0  0  0
    4.7862    0.0805    1.6703 S   0  0  0  0  0  0  0  0  0  0  0  0
    3.6393    0.3499    2.6425 O   0  0  0  0  0  0  0  0  0  0  0  0
    5.9026   -0.7037    2.2555 O   0  0  0  0  0  0  0  0  0  0  0  0
    4.2695   -0.3164    0.3207 O   0  0  0  0  0  0  0  0  0  0  0  0
    5.4363    1.6195    1.3721 O   0  0  0  0  0  0  0  0  0  0  0  0
    6.1910    1.6995    1.9749 H   0  0  0  0  0  0  0  0  0  0  0  0
  1  6  1  0  0  0  0
  2  1  2  0  0  0  0
  2  3  1  0  0  0  0
  3  4  2  0  0  0  0
  4  5  1  0  0  0  0
  4 13  1  0  0  0  0
  5 12  1  0  0  0  0
  6 11  1  0  0  0  0
  6  5  2  0  0  0  0
  7  1  1  0  0  0  0
  8  2  1  0  0  0  0
 10  9  3  0  0  0  0
 14 16  2  0  0  0  0
 14 15  1  0  0  0  0
 17 14  2  0  0  0  0
 18 14  1  0  0  0  0
 18 19  1  0  0  0  0
M  RAD  2   3   2  15   2
M  END
