Coordinates from ORCA-job Ph-N2-HSO4-B3LYPG-aug-cc-pVDZ-scan-d09-49-n400
 OpenBabel11081710403D

 19 17  0  0  0  0  0  0  0  0999 V2000
   -0.6193    0.4507   -0.4146 C   0  0  0  0  0  0  0  0  0  0  0  0
    0.7659    0.6825   -0.6221 C   0  0  0  0  0  0  0  0  0  0  0  0
    1.4008    0.1742    0.4742 C   0  0  0  0  0  0  0  0  0  0  0  0
    1.1178   -0.4153    1.5578 C   0  0  0  0  0  0  0  0  0  0  0  0
   -0.2631   -0.6464    1.7675 C   0  0  0  0  0  0  0  0  0  0  0  0
   -1.1107   -0.1905    0.7397 C   0  0  0  0  0  0  0  0  0  0  0  0
   -1.3143    0.7876   -1.1858 H   0  0  0  0  0  0  0  0  0  0  0  0
    1.1794    1.1722   -1.4987 H   0  0  0  0  0  0  0  0  0  0  0  0
    3.1613    2.3960   -3.4610 N   0  0  0  0  0  0  0  0  0  0  0  0
    4.0969    2.7437   -3.9328 N   0  0  0  0  0  0  0  0  0  0  0  0
   -2.1874   -0.3387    0.8368 H   0  0  0  0  0  0  0  0  0  0  0  0
   -0.6603   -1.1422    2.6532 H   0  0  0  0  0  0  0  0  0  0  0  0
    2.8854   -0.6911    2.2935 H   0  0  0  0  0  0  0  0  0  0  0  0
    4.7360    0.2252    1.6535 S   0  0  0  0  0  0  0  0  0  0  0  0
    3.8487   -0.7860    2.5548 O   0  0  0  0  0  0  0  0  0  0  0  0
    6.1317   -0.1993    1.8046 O   0  0  0  0  0  0  0  0  0  0  0  0
    4.0934    0.4331    0.3435 O   0  0  0  0  0  0  0  0  0  0  0  0
    4.5386    1.6640    2.4400 O   0  0  0  0  0  0  0  0  0  0  0  0
    5.1607    1.6715    3.1873 H   0  0  0  0  0  0  0  0  0  0  0  0
  1  6  1  0  0  0  0
  2  1  2  0  0  0  0
  2  3  1  0  0  0  0
  3  4  2  0  0  0  0
  4  5  1  0  0  0  0
  5 12  1  0  0  0  0
  6 11  1  0  0  0  0
  6  5  2  0  0  0  0
  7  1  1  0  0  0  0
  8  2  1  0  0  0  0
 10  9  3  0  0  0  0
 13 15  1  0  0  0  0
 14 16  2  0  0  0  0
 14 18  1  0  0  0  0
 14 15  1  0  0  0  0
 17 14  2  0  0  0  0
 18 19  1  0  0  0  0
M  RAD  2   3   2   4   2
M  END
