Coordinates from ORCA-job Ph-N2-HSO4-B3LYPG-aug-cc-pVDZ-scan-d09-49-n400
 OpenBabel11081710403D

 19 17  0  0  0  0  0  0  0  0999 V2000
   -0.8878    0.1747   -0.6938 C   0  0  0  0  0  0  0  0  0  0  0  0
    0.3152    0.7765   -1.1156 C   0  0  0  0  0  0  0  0  0  0  0  0
    1.2510    0.7129   -0.1256 C   0  0  0  0  0  0  0  0  0  0  0  0
    1.3246    0.2287    1.1263 C   0  0  0  0  0  0  0  0  0  0  0  0
    0.0818   -0.3530    1.4811 C   0  0  0  0  0  0  0  0  0  0  0  0
   -0.9945   -0.3784    0.5883 C   0  0  0  0  0  0  0  0  0  0  0  0
   -1.7256    0.1515   -1.3903 H   0  0  0  0  0  0  0  0  0  0  0  0
    0.4553    1.2183   -2.0970 H   0  0  0  0  0  0  0  0  0  0  0  0
    2.8911    1.6114   -0.7211 N   0  0  0  0  0  0  0  0  0  0  0  0
    3.6234    2.2927   -1.1868 N   0  0  0  0  0  0  0  0  0  0  0  0
   -1.9330   -0.8406    0.8929 H   0  0  0  0  0  0  0  0  0  0  0  0
   -0.0015   -0.7915    2.4756 H   0  0  0  0  0  0  0  0  0  0  0  0
    2.2236    0.2480    1.7941 H   0  0  0  0  0  0  0  0  0  0  0  0
    4.8020    0.1149    1.6882 S   0  0  0  0  0  0  0  0  0  0  0  0
    3.6963    0.3373    2.7031 O   0  0  0  0  0  0  0  0  0  0  0  0
    5.9783   -0.6414    2.1887 O   0  0  0  0  0  0  0  0  0  0  0  0
    4.2406   -0.2867    0.3494 O   0  0  0  0  0  0  0  0  0  0  0  0
    5.3931    1.6794    1.3725 O   0  0  0  0  0  0  0  0  0  0  0  0
    6.2277    1.7365    1.8614 H   0  0  0  0  0  0  0  0  0  0  0  0
  1  6  1  0  0  0  0
  2  1  2  0  0  0  0
  2  3  1  0  0  0  0
  3  4  2  0  0  0  0
  4  5  1  0  0  0  0
  4 13  1  0  0  0  0
  5 12  1  0  0  0  0
  6 11  1  0  0  0  0
  6  5  2  0  0  0  0
  7  1  1  0  0  0  0
  8  2  1  0  0  0  0
 10  9  3  0  0  0  0
 14 16  2  0  0  0  0
 14 15  1  0  0  0  0
 17 14  2  0  0  0  0
 18 14  1  0  0  0  0
 18 19  1  0  0  0  0
M  RAD  2   3   2  15   2
M  END
