Coordinates from ORCA-job Ph-N2-HSO4-B3LYPG-aug-cc-pVDZ-scan-d09-49-n400
 OpenBabel11081710403D

 19 17  0  0  0  0  0  0  0  0999 V2000
   -0.6247    0.4500   -0.4140 C   0  0  0  0  0  0  0  0  0  0  0  0
    0.7598    0.6833   -0.6244 C   0  0  0  0  0  0  0  0  0  0  0  0
    1.3976    0.1756    0.4705 C   0  0  0  0  0  0  0  0  0  0  0  0
    1.1172   -0.4142    1.5546 C   0  0  0  0  0  0  0  0  0  0  0  0
   -0.2629   -0.6468    1.7674 C   0  0  0  0  0  0  0  0  0  0  0  0
   -1.1130   -0.1918    0.7412 C   0  0  0  0  0  0  0  0  0  0  0  0
   -1.3217    0.7861   -1.1837 H   0  0  0  0  0  0  0  0  0  0  0  0
    1.1709    1.1735   -1.5018 H   0  0  0  0  0  0  0  0  0  0  0  0
    3.1719    2.3879   -3.4391 N   0  0  0  0  0  0  0  0  0  0  0  0
    4.1131    2.7323   -3.9021 N   0  0  0  0  0  0  0  0  0  0  0  0
   -2.1895   -0.3411    0.8406 H   0  0  0  0  0  0  0  0  0  0  0  0
   -0.6577   -1.1431    2.6538 H   0  0  0  0  0  0  0  0  0  0  0  0
    2.8869   -0.6885    2.2876 H   0  0  0  0  0  0  0  0  0  0  0  0
    4.7366    0.2285    1.6463 S   0  0  0  0  0  0  0  0  0  0  0  0
    3.8503   -0.7830    2.5483 O   0  0  0  0  0  0  0  0  0  0  0  0
    6.1326   -0.1955    1.7967 O   0  0  0  0  0  0  0  0  0  0  0  0
    4.0931    0.4361    0.3368 O   0  0  0  0  0  0  0  0  0  0  0  0
    4.5392    1.6672    2.4330 O   0  0  0  0  0  0  0  0  0  0  0  0
    5.1619    1.6749    3.1798 H   0  0  0  0  0  0  0  0  0  0  0  0
  1  6  1  0  0  0  0
  2  1  2  0  0  0  0
  2  3  1  0  0  0  0
  3  4  2  0  0  0  0
  4  5  1  0  0  0  0
  5 12  1  0  0  0  0
  6 11  1  0  0  0  0
  6  5  2  0  0  0  0
  7  1  1  0  0  0  0
  8  2  1  0  0  0  0
 10  9  3  0  0  0  0
 13 15  1  0  0  0  0
 14 16  2  0  0  0  0
 14 18  1  0  0  0  0
 14 15  1  0  0  0  0
 17 14  2  0  0  0  0
 18 19  1  0  0  0  0
M  RAD  2   3   2   4   2
M  END
