Coordinates from ORCA-job Ph-N2-HSO4-B3LYPG-aug-cc-pVDZ-scan-d09-49-n400
 OpenBabel11081710403D

 19 17  0  0  0  0  0  0  0  0999 V2000
   -0.6302    0.4493   -0.4135 C   0  0  0  0  0  0  0  0  0  0  0  0
    0.7537    0.6841   -0.6268 C   0  0  0  0  0  0  0  0  0  0  0  0
    1.3944    0.1771    0.4667 C   0  0  0  0  0  0  0  0  0  0  0  0
    1.1167   -0.4130    1.5512 C   0  0  0  0  0  0  0  0  0  0  0  0
   -0.2626   -0.6473    1.7671 C   0  0  0  0  0  0  0  0  0  0  0  0
   -1.1154   -0.1931    0.7428 C   0  0  0  0  0  0  0  0  0  0  0  0
   -1.3292    0.7846   -1.1817 H   0  0  0  0  0  0  0  0  0  0  0  0
    1.1623    1.1747   -1.5051 H   0  0  0  0  0  0  0  0  0  0  0  0
    3.1821    2.3798   -3.4174 N   0  0  0  0  0  0  0  0  0  0  0  0
    4.1287    2.7210   -3.8714 N   0  0  0  0  0  0  0  0  0  0  0  0
   -2.1914   -0.3436    0.8443 H   0  0  0  0  0  0  0  0  0  0  0  0
   -0.6550   -1.1440    2.6544 H   0  0  0  0  0  0  0  0  0  0  0  0
    2.8884   -0.6860    2.2817 H   0  0  0  0  0  0  0  0  0  0  0  0
    4.7374    0.2318    1.6394 S   0  0  0  0  0  0  0  0  0  0  0  0
    3.8518   -0.7801    2.5418 O   0  0  0  0  0  0  0  0  0  0  0  0
    6.1336   -0.1919    1.7891 O   0  0  0  0  0  0  0  0  0  0  0  0
    4.0931    0.4392    0.3302 O   0  0  0  0  0  0  0  0  0  0  0  0
    4.5400    1.6703    2.4262 O   0  0  0  0  0  0  0  0  0  0  0  0
    5.1632    1.6783    3.1726 H   0  0  0  0  0  0  0  0  0  0  0  0
  1  6  1  0  0  0  0
  2  1  2  0  0  0  0
  2  3  1  0  0  0  0
  3  4  2  0  0  0  0
  4  5  1  0  0  0  0
  5 12  1  0  0  0  0
  6 11  1  0  0  0  0
  6  5  2  0  0  0  0
  7  1  1  0  0  0  0
  8  2  1  0  0  0  0
 10  9  3  0  0  0  0
 13 15  1  0  0  0  0
 14 16  2  0  0  0  0
 14 18  1  0  0  0  0
 14 15  1  0  0  0  0
 17 14  2  0  0  0  0
 18 19  1  0  0  0  0
M  RAD  2   3   2   4   2
M  END
