Coordinates from ORCA-job Ph-N2-HSO4-B3LYPG-aug-cc-pVDZ-scan-d09-49-n400
 OpenBabel11081710403D

 19 17  0  0  0  0  0  0  0  0999 V2000
   -0.7592    0.4375   -0.4291 C   0  0  0  0  0  0  0  0  0  0  0  0
    0.6009    0.7093   -0.7325 C   0  0  0  0  0  0  0  0  0  0  0  0
    1.3288    0.2320    0.3207 C   0  0  0  0  0  0  0  0  0  0  0  0
    1.1238   -0.3534    1.4206 C   0  0  0  0  0  0  0  0  0  0  0  0
   -0.2263   -0.6287    1.7344 C   0  0  0  0  0  0  0  0  0  0  0  0
   -1.1527   -0.2070    0.7602 C   0  0  0  0  0  0  0  0  0  0  0  0
   -1.5152    0.7454   -1.1536 H   0  0  0  0  0  0  0  0  0  0  0  0
    0.9438    1.2032   -1.6364 H   0  0  0  0  0  0  0  0  0  0  0  0
    3.2531    2.1867   -3.0278 N   0  0  0  0  0  0  0  0  0  0  0  0
    4.2842    2.5091   -3.2550 N   0  0  0  0  0  0  0  0  0  0  0  0
   -2.2157   -0.3861    0.9302 H   0  0  0  0  0  0  0  0  0  0  0  0
   -0.5465   -1.1274    2.6488 H   0  0  0  0  0  0  0  0  0  0  0  0
    2.9245   -0.6122    2.1392 H   0  0  0  0  0  0  0  0  0  0  0  0
    4.8141    0.2700    1.5669 S   0  0  0  0  0  0  0  0  0  0  0  0
    3.8707   -0.7211    2.4397 O   0  0  0  0  0  0  0  0  0  0  0  0
    6.1934   -0.1788    1.7888 O   0  0  0  0  0  0  0  0  0  0  0  0
    4.2316    0.4761    0.2318 O   0  0  0  0  0  0  0  0  0  0  0  0
    4.6066    1.7167    2.3379 O   0  0  0  0  0  0  0  0  0  0  0  0
    5.2018    1.7199    3.1067 H   0  0  0  0  0  0  0  0  0  0  0  0
  1  6  1  0  0  0  0
  2  1  2  0  0  0  0
  2  3  1  0  0  0  0
  3  4  2  0  0  0  0
  4  5  1  0  0  0  0
  5 12  1  0  0  0  0
  6 11  1  0  0  0  0
  6  5  2  0  0  0  0
  7  1  1  0  0  0  0
  8  2  1  0  0  0  0
 10  9  3  0  0  0  0
 13 15  1  0  0  0  0
 14 16  2  0  0  0  0
 14 18  1  0  0  0  0
 14 15  1  0  0  0  0
 17 14  2  0  0  0  0
 18 19  1  0  0  0  0
M  RAD  2   3   2   4   2
M  END
