Coordinates from ORCA-job Ph-N2-HSO4-B3LYPG-aug-cc-pVDZ-scan-d09-49-n400
 OpenBabel11081710403D

 19 17  0  0  0  0  0  0  0  0999 V2000
   -0.9041    0.1376   -0.6755 C   0  0  0  0  0  0  0  0  0  0  0  0
    0.2774    0.7683   -1.1275 C   0  0  0  0  0  0  0  0  0  0  0  0
    1.2038    0.7289   -0.1357 C   0  0  0  0  0  0  0  0  0  0  0  0
    1.3385    0.2812    1.1084 C   0  0  0  0  0  0  0  0  0  0  0  0
    0.1126   -0.3351    1.4908 C   0  0  0  0  0  0  0  0  0  0  0  0
   -0.9759   -0.4010    0.6156 C   0  0  0  0  0  0  0  0  0  0  0  0
   -1.7506    0.0848   -1.3602 H   0  0  0  0  0  0  0  0  0  0  0  0
    0.3950    1.2023   -2.1149 H   0  0  0  0  0  0  0  0  0  0  0  0
    2.9143    1.7592   -0.8269 N   0  0  0  0  0  0  0  0  0  0  0  0
    3.7022    2.4013   -1.2539 N   0  0  0  0  0  0  0  0  0  0  0  0
   -1.8963   -0.8847    0.9412 H   0  0  0  0  0  0  0  0  0  0  0  0
    0.0631   -0.7660    2.4914 H   0  0  0  0  0  0  0  0  0  0  0  0
    2.2656    0.3143    1.7763 H   0  0  0  0  0  0  0  0  0  0  0  0
    4.7873    0.0748    1.6682 S   0  0  0  0  0  0  0  0  0  0  0  0
    3.6296    0.3401    2.6320 O   0  0  0  0  0  0  0  0  0  0  0  0
    5.8962   -0.7097    2.2666 O   0  0  0  0  0  0  0  0  0  0  0  0
    4.2844   -0.3177    0.3135 O   0  0  0  0  0  0  0  0  0  0  0  0
    5.4385    1.6145    1.3818 O   0  0  0  0  0  0  0  0  0  0  0  0
    6.1800    1.6984    2.0003 H   0  0  0  0  0  0  0  0  0  0  0  0
  1  6  1  0  0  0  0
  2  1  2  0  0  0  0
  2  3  1  0  0  0  0
  3  4  2  0  0  0  0
  4  5  1  0  0  0  0
  4 13  1  0  0  0  0
  5 12  1  0  0  0  0
  6 11  1  0  0  0  0
  6  5  2  0  0  0  0
  7  1  1  0  0  0  0
  8  2  1  0  0  0  0
 10  9  3  0  0  0  0
 14 16  2  0  0  0  0
 14 15  1  0  0  0  0
 17 14  2  0  0  0  0
 18 14  1  0  0  0  0
 18 19  1  0  0  0  0
M  RAD  2   3   2  15   2
M  END
