Coordinates from ORCA-job Ph-N2-HSO4-B3LYPG-aug-cc-pVDZ-scan-d09-49-n400
 OpenBabel11081710403D

 19 17  0  0  0  0  0  0  0  0999 V2000
   -0.8916    0.1728   -0.6901 C   0  0  0  0  0  0  0  0  0  0  0  0
    0.3094    0.7766   -1.1173 C   0  0  0  0  0  0  0  0  0  0  0  0
    1.2444    0.7128   -0.1280 C   0  0  0  0  0  0  0  0  0  0  0  0
    1.3282    0.2319    1.1222 C   0  0  0  0  0  0  0  0  0  0  0  0
    0.0867   -0.3522    1.4815 C   0  0  0  0  0  0  0  0  0  0  0  0
   -0.9928   -0.3796    0.5927 C   0  0  0  0  0  0  0  0  0  0  0  0
   -1.7316    0.1484   -1.3840 H   0  0  0  0  0  0  0  0  0  0  0  0
    0.4460    1.2181   -2.0992 H   0  0  0  0  0  0  0  0  0  0  0  0
    2.8957    1.6255   -0.7373 N   0  0  0  0  0  0  0  0  0  0  0  0
    3.6309    2.3038   -1.2022 N   0  0  0  0  0  0  0  0  0  0  0  0
   -1.9294   -0.8431    0.9010 H   0  0  0  0  0  0  0  0  0  0  0  0
    0.0085   -0.7905    2.4766 H   0  0  0  0  0  0  0  0  0  0  0  0
    2.2316    0.2517    1.7888 H   0  0  0  0  0  0  0  0  0  0  0  0
    4.8018    0.1098    1.6860 S   0  0  0  0  0  0  0  0  0  0  0  0
    3.6867    0.3366    2.6921 O   0  0  0  0  0  0  0  0  0  0  0  0
    5.9700   -0.6477    2.2030 O   0  0  0  0  0  0  0  0  0  0  0  0
    4.2515   -0.2925    0.3443 O   0  0  0  0  0  0  0  0  0  0  0  0
    5.3987    1.6718    1.3733 O   0  0  0  0  0  0  0  0  0  0  0  0
    6.2169    1.7372    1.8882 H   0  0  0  0  0  0  0  0  0  0  0  0
  1  6  1  0  0  0  0
  2  1  2  0  0  0  0
  2  3  1  0  0  0  0
  3  4  2  0  0  0  0
  4  5  1  0  0  0  0
  4 13  1  0  0  0  0
  5 12  1  0  0  0  0
  6 11  1  0  0  0  0
  6  5  2  0  0  0  0
  7  1  1  0  0  0  0
  8  2  1  0  0  0  0
 10  9  3  0  0  0  0
 14 16  2  0  0  0  0
 14 15  1  0  0  0  0
 17 14  2  0  0  0  0
 18 14  1  0  0  0  0
 18 19  1  0  0  0  0
M  RAD  2   3   2  15   2
M  END
