Coordinates from ORCA-job Ph-N2-HSO4-B3LYPG-aug-cc-pVDZ-scan-d09-49-n400
 OpenBabel11081710403D

 19 17  0  0  0  0  0  0  0  0999 V2000
   -1.1135    0.2891   -0.5453 C   0  0  0  0  0  0  0  0  0  0  0  0
    0.0224    0.8263   -1.2023 C   0  0  0  0  0  0  0  0  0  0  0  0
    1.0811    0.6628   -0.3563 C   0  0  0  0  0  0  0  0  0  0  0  0
    1.3226    0.1821    0.7913 C   0  0  0  0  0  0  0  0  0  0  0  0
    0.1833   -0.3532    1.4480 C   0  0  0  0  0  0  0  0  0  0  0  0
   -1.0294   -0.2808    0.7385 C   0  0  0  0  0  0  0  0  0  0  0  0
   -2.0726    0.3266   -1.0645 H   0  0  0  0  0  0  0  0  0  0  0  0
    0.0007    1.2730   -2.1916 H   0  0  0  0  0  0  0  0  0  0  0  0
    2.9441    1.7514   -1.7231 N   0  0  0  0  0  0  0  0  0  0  0  0
    3.9275    2.2406   -1.8323 N   0  0  0  0  0  0  0  0  0  0  0  0
   -1.9352   -0.6817    1.1962 H   0  0  0  0  0  0  0  0  0  0  0  0
    0.2322   -0.8020    2.4402 H   0  0  0  0  0  0  0  0  0  0  0  0
    2.8974   -0.0424    1.7477 H   0  0  0  0  0  0  0  0  0  0  0  0
    5.0758    0.0540    1.7245 S   0  0  0  0  0  0  0  0  0  0  0  0
    3.6347   -0.2728    2.3918 O   0  0  0  0  0  0  0  0  0  0  0  0
    6.0769   -0.5858    2.5886 O   0  0  0  0  0  0  0  0  0  0  0  0
    5.0154   -0.1324    0.2696 O   0  0  0  0  0  0  0  0  0  0  0  0
    5.1886    1.6933    1.9327 O   0  0  0  0  0  0  0  0  0  0  0  0
    5.5098    1.8433    2.8378 H   0  0  0  0  0  0  0  0  0  0  0  0
  1  6  1  0  0  0  0
  2  1  2  0  0  0  0
  2  3  1  0  0  0  0
  3  4  2  0  0  0  0
  4  5  1  0  0  0  0
  5 12  1  0  0  0  0
  6 11  1  0  0  0  0
  6  5  2  0  0  0  0
  7  1  1  0  0  0  0
  8  2  1  0  0  0  0
 10  9  3  0  0  0  0
 13 15  1  0  0  0  0
 14 18  1  0  0  0  0
 14 15  1  0  0  0  0
 14 16  2  0  0  0  0
 17 14  2  0  0  0  0
 18 19  1  0  0  0  0
M  RAD  2   3   2   4   2
M  END
