Coordinates from ORCA-job Ph-N2-HSO4-B3LYPG-aug-cc-pVDZ-scan-d09-49-n400
 OpenBabel11081710403D

 19 17  0  0  0  0  0  0  0  0999 V2000
   -0.6108    0.4520   -0.4158 C   0  0  0  0  0  0  0  0  0  0  0  0
    0.7754    0.6815   -0.6188 C   0  0  0  0  0  0  0  0  0  0  0  0
    1.4059    0.1722    0.4796 C   0  0  0  0  0  0  0  0  0  0  0  0
    1.1188   -0.4168    1.5625 C   0  0  0  0  0  0  0  0  0  0  0  0
   -0.2632   -0.6454    1.7675 C   0  0  0  0  0  0  0  0  0  0  0  0
   -1.1069   -0.1883    0.7370 C   0  0  0  0  0  0  0  0  0  0  0  0
   -1.3028    0.7898   -1.1892 H   0  0  0  0  0  0  0  0  0  0  0  0
    1.1924    1.1704   -1.4942 H   0  0  0  0  0  0  0  0  0  0  0  0
    3.1438    2.4082   -3.4946 N   0  0  0  0  0  0  0  0  0  0  0  0
    4.0704    2.7611   -3.9802 N   0  0  0  0  0  0  0  0  0  0  0  0
   -2.1842   -0.3348    0.8307 H   0  0  0  0  0  0  0  0  0  0  0  0
   -0.6641   -1.1405    2.6519 H   0  0  0  0  0  0  0  0  0  0  0  0
    2.8832   -0.6949    2.3025 H   0  0  0  0  0  0  0  0  0  0  0  0
    4.7354    0.2199    1.6651 S   0  0  0  0  0  0  0  0  0  0  0  0
    3.8462   -0.7906    2.5651 O   0  0  0  0  0  0  0  0  0  0  0  0
    6.1307   -0.2055    1.8179 O   0  0  0  0  0  0  0  0  0  0  0  0
    4.0948    0.4282    0.3541 O   0  0  0  0  0  0  0  0  0  0  0  0
    4.5379    1.6589    2.4511 O   0  0  0  0  0  0  0  0  0  0  0  0
    5.1590    1.6660    3.1993 H   0  0  0  0  0  0  0  0  0  0  0  0
  1  6  1  0  0  0  0
  2  1  2  0  0  0  0
  2  3  1  0  0  0  0
  3  4  2  0  0  0  0
  4  5  1  0  0  0  0
  5 12  1  0  0  0  0
  6 11  1  0  0  0  0
  6  5  2  0  0  0  0
  7  1  1  0  0  0  0
  8  2  1  0  0  0  0
 10  9  3  0  0  0  0
 13 15  1  0  0  0  0
 14 16  2  0  0  0  0
 14 18  1  0  0  0  0
 14 15  1  0  0  0  0
 17 14  2  0  0  0  0
 18 19  1  0  0  0  0
M  RAD  2   3   2   4   2
M  END
