Coordinates from ORCA-job Ph-N2-HSO4-B3LYPG-aug-cc-pVDZ-scan-d09-49-n400
 OpenBabel11081710403D

 19 17  0  0  0  0  0  0  0  0999 V2000
   -1.1297    0.3007   -0.5014 C   0  0  0  0  0  0  0  0  0  0  0  0
    0.0430    0.8048   -1.1228 C   0  0  0  0  0  0  0  0  0  0  0  0
    1.0702    0.5847   -0.2487 C   0  0  0  0  0  0  0  0  0  0  0  0
    1.2408    0.0753    0.8945 C   0  0  0  0  0  0  0  0  0  0  0  0
    0.0774   -0.4285    1.5240 C   0  0  0  0  0  0  0  0  0  0  0  0
   -1.1074   -0.2929    0.7748 C   0  0  0  0  0  0  0  0  0  0  0  0
   -2.0727    0.3837   -1.0448 H   0  0  0  0  0  0  0  0  0  0  0  0
    0.0644    1.2674   -2.1046 H   0  0  0  0  0  0  0  0  0  0  0  0
    3.2309    1.8917   -2.0217 N   0  0  0  0  0  0  0  0  0  0  0  0
    4.1890    2.3942   -2.2406 N   0  0  0  0  0  0  0  0  0  0  0  0
   -2.0431   -0.6631    1.1970 H   0  0  0  0  0  0  0  0  0  0  0  0
    0.0793   -0.8935    2.5094 H   0  0  0  0  0  0  0  0  0  0  0  0
    2.9142   -0.1409    1.7968 H   0  0  0  0  0  0  0  0  0  0  0  0
    5.0796    0.0830    1.7139 S   0  0  0  0  0  0  0  0  0  0  0  0
    3.6767   -0.3612    2.4038 O   0  0  0  0  0  0  0  0  0  0  0  0
    6.1357   -0.5281    2.5313 O   0  0  0  0  0  0  0  0  0  0  0  0
    4.9934   -0.0519    0.2552 O   0  0  0  0  0  0  0  0  0  0  0  0
    5.0940    1.7155    1.9859 O   0  0  0  0  0  0  0  0  0  0  0  0
    5.4260    1.8507    2.8895 H   0  0  0  0  0  0  0  0  0  0  0  0
  1  6  1  0  0  0  0
  2  1  2  0  0  0  0
  2  3  1  0  0  0  0
  3  4  2  0  0  0  0
  4  5  1  0  0  0  0
  5 12  1  0  0  0  0
  6 11  1  0  0  0  0
  6  5  2  0  0  0  0
  7  1  1  0  0  0  0
  8  2  1  0  0  0  0
 10  9  3  0  0  0  0
 13 15  1  0  0  0  0
 14 18  1  0  0  0  0
 14 15  1  0  0  0  0
 14 16  2  0  0  0  0
 17 14  2  0  0  0  0
 18 19  1  0  0  0  0
M  RAD  2   3   2   4   2
M  END
