Coordinates from ORCA-job Ph-N2-HSO4-B3LYPG-aug-cc-pVDZ-scan-d09-49-n400
 OpenBabel11081710403D

 19 17  0  0  0  0  0  0  0  0999 V2000
   -0.7122    0.4408   -0.4114 C   0  0  0  0  0  0  0  0  0  0  0  0
    0.6591    0.6984   -0.6741 C   0  0  0  0  0  0  0  0  0  0  0  0
    1.3480    0.2033    0.3960 C   0  0  0  0  0  0  0  0  0  0  0  0
    1.1130   -0.3891    1.4878 C   0  0  0  0  0  0  0  0  0  0  0  0
   -0.2515   -0.6478    1.7564 C   0  0  0  0  0  0  0  0  0  0  0  0
   -1.1462   -0.2081    0.7614 C   0  0  0  0  0  0  0  0  0  0  0  0
   -1.4436    0.7637   -1.1544 H   0  0  0  0  0  0  0  0  0  0  0  0
    1.0295    1.1946   -1.5661 H   0  0  0  0  0  0  0  0  0  0  0  0
    3.2985    2.2547   -3.1138 N   0  0  0  0  0  0  0  0  0  0  0  0
    4.3179    2.5479   -3.4196 N   0  0  0  0  0  0  0  0  0  0  0  0
   -2.2155   -0.3758    0.9005 H   0  0  0  0  0  0  0  0  0  0  0  0
   -0.6038   -1.1498    2.6572 H   0  0  0  0  0  0  0  0  0  0  0  0
    2.9117   -0.6453    2.1874 H   0  0  0  0  0  0  0  0  0  0  0  0
    4.7616    0.2756    1.5519 S   0  0  0  0  0  0  0  0  0  0  0  0
    3.8724   -0.7386    2.4512 O   0  0  0  0  0  0  0  0  0  0  0  0
    6.1570   -0.1488    1.7096 O   0  0  0  0  0  0  0  0  0  0  0  0
    4.1221    0.4835    0.2418 O   0  0  0  0  0  0  0  0  0  0  0  0
    4.5605    1.7125    2.3415 O   0  0  0  0  0  0  0  0  0  0  0  0
    5.1831    1.7198    3.0884 H   0  0  0  0  0  0  0  0  0  0  0  0
  1  6  1  0  0  0  0
  2  1  2  0  0  0  0
  2  3  1  0  0  0  0
  3  4  2  0  0  0  0
  4  5  1  0  0  0  0
  5 12  1  0  0  0  0
  6 11  1  0  0  0  0
  6  5  2  0  0  0  0
  7  1  1  0  0  0  0
  8  2  1  0  0  0  0
 10  9  3  0  0  0  0
 13 15  1  0  0  0  0
 14 16  2  0  0  0  0
 14 18  1  0  0  0  0
 14 15  1  0  0  0  0
 17 14  2  0  0  0  0
 18 19  1  0  0  0  0
M  RAD  2   3   2   4   2
M  END
