Coordinates from ORCA-job Ph-N2-HSO4-B3LYPG-aug-cc-pVDZ-scan-d09-49-n400
 OpenBabel11081710403D

 19 17  0  0  0  0  0  0  0  0999 V2000
   -1.1287    0.2966   -0.5195 C   0  0  0  0  0  0  0  0  0  0  0  0
    0.0316    0.8131   -1.1531 C   0  0  0  0  0  0  0  0  0  0  0  0
    1.0682    0.6129   -0.2869 C   0  0  0  0  0  0  0  0  0  0  0  0
    1.2639    0.1137    0.8577 C   0  0  0  0  0  0  0  0  0  0  0  0
    0.1090   -0.4017    1.4965 C   0  0  0  0  0  0  0  0  0  0  0  0
   -1.0854   -0.2888    0.7598 C   0  0  0  0  0  0  0  0  0  0  0  0
   -2.0772    0.3632   -1.0554 H   0  0  0  0  0  0  0  0  0  0  0  0
    0.0389    1.2701   -2.1377 H   0  0  0  0  0  0  0  0  0  0  0  0
    3.1166    1.8361   -1.9089 N   0  0  0  0  0  0  0  0  0  0  0  0
    4.0861    2.3314   -2.0905 N   0  0  0  0  0  0  0  0  0  0  0  0
   -2.0111   -0.6703    1.1937 H   0  0  0  0  0  0  0  0  0  0  0  0
    0.1271   -0.8611    2.4846 H   0  0  0  0  0  0  0  0  0  0  0  0
    2.9162   -0.0967    1.7705 H   0  0  0  0  0  0  0  0  0  0  0  0
    5.0907    0.0735    1.7191 S   0  0  0  0  0  0  0  0  0  0  0  0
    3.6671   -0.3257    2.3913 O   0  0  0  0  0  0  0  0  0  0  0  0
    6.1181   -0.5537    2.5607 O   0  0  0  0  0  0  0  0  0  0  0  0
    5.0262   -0.0773    0.2606 O   0  0  0  0  0  0  0  0  0  0  0  0
    5.1431    1.7088    1.9705 O   0  0  0  0  0  0  0  0  0  0  0  0
    5.4614    1.8472    2.8785 H   0  0  0  0  0  0  0  0  0  0  0  0
  1  6  1  0  0  0  0
  2  1  2  0  0  0  0
  2  3  1  0  0  0  0
  3  4  2  0  0  0  0
  4  5  1  0  0  0  0
  5 12  1  0  0  0  0
  6 11  1  0  0  0  0
  6  5  2  0  0  0  0
  7  1  1  0  0  0  0
  8  2  1  0  0  0  0
 10  9  3  0  0  0  0
 13 15  1  0  0  0  0
 14 18  1  0  0  0  0
 14 15  1  0  0  0  0
 14 16  2  0  0  0  0
 17 14  2  0  0  0  0
 18 19  1  0  0  0  0
M  RAD  2   3   2   4   2
M  END
