Coordinates from ORCA-job Ph-N2-HSO4-B3LYPG-aug-cc-pVDZ-scan-d09-49-n400
 OpenBabel11081710403D

 19 19  0  0  1  0  0  0  0  0999 V2000
   -0.3644   -0.0896   -0.7308 C   0  0  0  0  0  0  0  0  0  0  0  0
    0.4997    0.8472   -1.1903 C   0  0  0  0  0  0  0  0  0  0  0  0
    1.5555    1.3527   -0.3220 C   0  0  0  0  0  0  0  0  0  0  0  0
    1.8570    0.6717    0.9927 C   0  0  1  0  0  0  0  0  0  0  0  0
    0.7430   -0.2017    1.4569 C   0  0  0  0  0  0  0  0  0  0  0  0
   -0.2609   -0.5754    0.6332 C   0  0  0  0  0  0  0  0  0  0  0  0
   -1.1578   -0.4635   -1.3760 H   0  0  0  0  0  0  0  0  0  0  0  0
    0.4293    1.2571   -2.1975 H   0  0  0  0  0  0  0  0  0  0  0  0
    2.2408    2.2829   -0.6489 N   0  0  0  0  0  0  0  0  0  0  0  0
    2.9064    3.1681   -0.9487 N   0  0  0  0  0  0  0  0  0  0  0  0
   -1.0322   -1.2521    1.0034 H   0  0  0  0  0  0  0  0  0  0  0  0
    0.8072   -0.5624    2.4820 H   0  0  0  0  0  0  0  0  0  0  0  0
    2.1711    1.3944    1.7527 H   0  0  0  0  0  0  0  0  0  0  0  0
    4.2041   -0.2997    1.9199 S   0  0  0  0  0  0  0  0  0  0  0  0
    3.5519   -0.2731    3.2356 O   0  0  0  0  0  0  0  0  0  0  0  0
    5.1541   -1.3370    1.4980 O   0  0  0  0  0  0  0  0  0  0  0  0
    3.0866   -0.2066    0.7319 O   0  0  0  0  0  0  0  0  0  0  0  0
    4.9489    1.1762    1.7990 O   0  0  0  0  0  0  0  0  0  0  0  0
    5.6214    1.1022    1.1004 H   0  0  0  0  0  0  0  0  0  0  0  0
  1  6  1  0  0  0  0
  2  1  1  0  0  0  0
  2  3  2  0  0  0  0
  3  4  1  0  0  0  0
  4  5  1  0  0  0  0
  4 13  1  1  0  0  0
  5 12  1  0  0  0  0
  6 11  1  0  0  0  0
  6  5  2  0  0  0  0
  7  1  1  0  0  0  0
  8  2  1  0  0  0  0
  9  3  1  0  0  0  0
 10  9  1  0  0  0  0
 14 15  2  0  0  0  0
 16 14  2  0  0  0  0
 17  4  1  0  0  0  0
 17 14  1  0  0  0  0
 18 14  1  0  0  0  0
 19 18  1  0  0  0  0
M  RAD  3   1   2   9   2  10   3
M  END
