Coordinates from ORCA-job Ph-N2-HSO4-B3LYPG-aug-cc-pVDZ-scan-d09-49-n400
 OpenBabel11081710403D

 19 17  0  0  0  0  0  0  0  0999 V2000
   -1.0494    0.3232   -0.4346 C   0  0  0  0  0  0  0  0  0  0  0  0
    0.2178    0.7029   -0.9507 C   0  0  0  0  0  0  0  0  0  0  0  0
    1.1382    0.3762    0.0073 C   0  0  0  0  0  0  0  0  0  0  0  0
    1.1430   -0.1489    1.1535 C   0  0  0  0  0  0  0  0  0  0  0  0
   -0.1084   -0.5321    1.6837 C   0  0  0  0  0  0  0  0  0  0  0  0
   -1.2013   -0.2708    0.8332 C   0  0  0  0  0  0  0  0  0  0  0  0
   -1.9288    0.5043   -1.0553 H   0  0  0  0  0  0  0  0  0  0  0  0
    0.3704    1.1625   -1.9226 H   0  0  0  0  0  0  0  0  0  0  0  0
    3.5820    2.2349   -2.7968 N   0  0  0  0  0  0  0  0  0  0  0  0
    4.4296    2.7948   -3.2293 N   0  0  0  0  0  0  0  0  0  0  0  0
   -2.2046   -0.5402    1.1675 H   0  0  0  0  0  0  0  0  0  0  0  0
   -0.2406   -0.9946    2.6612 H   0  0  0  0  0  0  0  0  0  0  0  0
    2.9104   -0.3740    1.9654 H   0  0  0  0  0  0  0  0  0  0  0  0
    5.0110    0.1291    1.7210 S   0  0  0  0  0  0  0  0  0  0  0  0
    3.7464   -0.5668    2.4714 O   0  0  0  0  0  0  0  0  0  0  0  0
    6.2086   -0.4443    2.3481 O   0  0  0  0  0  0  0  0  0  0  0  0
    4.7842    0.1648    0.2712 O   0  0  0  0  0  0  0  0  0  0  0  0
    4.8741    1.7042    2.2079 O   0  0  0  0  0  0  0  0  0  0  0  0
    5.2792    1.7664    3.0895 H   0  0  0  0  0  0  0  0  0  0  0  0
  1  6  1  0  0  0  0
  2  1  2  0  0  0  0
  2  3  1  0  0  0  0
  3  4  2  0  0  0  0
  4  5  1  0  0  0  0
  5 12  1  0  0  0  0
  6 11  1  0  0  0  0
  6  5  2  0  0  0  0
  7  1  1  0  0  0  0
  8  2  1  0  0  0  0
 10  9  3  0  0  0  0
 13 15  1  0  0  0  0
 14 18  1  0  0  0  0
 14 16  2  0  0  0  0
 14 15  1  0  0  0  0
 17 14  2  0  0  0  0
 18 19  1  0  0  0  0
M  RAD  2   3   2   4   2
M  END
