Coordinates from ORCA-job Ph-N2-HSO4-B3LYPG-aug-cc-pVDZ-scan-d09-49-n400
 OpenBabel11081710403D

 19 17  0  0  0  0  0  0  0  0999 V2000
   -1.0958    0.3163   -0.4489 C   0  0  0  0  0  0  0  0  0  0  0  0
    0.1393    0.7536   -0.9963 C   0  0  0  0  0  0  0  0  0  0  0  0
    1.0995    0.4584   -0.0681 C   0  0  0  0  0  0  0  0  0  0  0  0
    1.1607   -0.0753    1.0727 C   0  0  0  0  0  0  0  0  0  0  0  0
   -0.0589   -0.5148    1.6335 C   0  0  0  0  0  0  0  0  0  0  0  0
   -1.1860   -0.2937    0.8170 C   0  0  0  0  0  0  0  0  0  0  0  0
   -1.9993    0.4654   -1.0430 H   0  0  0  0  0  0  0  0  0  0  0  0
    0.2445    1.2264   -1.9679 H   0  0  0  0  0  0  0  0  0  0  0  0
    3.5369    2.0987   -2.5054 N   0  0  0  0  0  0  0  0  0  0  0  0
    4.4352    2.6291   -2.8665 N   0  0  0  0  0  0  0  0  0  0  0  0
   -2.1669   -0.6083    1.1773 H   0  0  0  0  0  0  0  0  0  0  0  0
   -0.1434   -0.9907    2.6099 H   0  0  0  0  0  0  0  0  0  0  0  0
    2.9121   -0.2893    1.8995 H   0  0  0  0  0  0  0  0  0  0  0  0
    5.0389    0.1247    1.6993 S   0  0  0  0  0  0  0  0  0  0  0  0
    3.7264   -0.4905    2.4375 O   0  0  0  0  0  0  0  0  0  0  0  0
    6.1934   -0.4582    2.3948 O   0  0  0  0  0  0  0  0  0  0  0  0
    4.8626    0.0977    0.2426 O   0  0  0  0  0  0  0  0  0  0  0  0
    4.9423    1.7255    2.1061 O   0  0  0  0  0  0  0  0  0  0  0  0
    5.3201    1.8165    2.9973 H   0  0  0  0  0  0  0  0  0  0  0  0
  1  6  1  0  0  0  0
  2  1  2  0  0  0  0
  2  3  1  0  0  0  0
  3  4  2  0  0  0  0
  4  5  1  0  0  0  0
  5 12  1  0  0  0  0
  6 11  1  0  0  0  0
  6  5  2  0  0  0  0
  7  1  1  0  0  0  0
  8  2  1  0  0  0  0
 10  9  3  0  0  0  0
 13 15  1  0  0  0  0
 14 18  1  0  0  0  0
 14 16  2  0  0  0  0
 14 15  1  0  0  0  0
 17 14  2  0  0  0  0
 18 19  1  0  0  0  0
M  RAD  2   3   2   4   2
M  END
