Coordinates from ORCA-job Ph-N2-HSO4-B3LYPG-aug-cc-pVDZ-scan-d09-49-n400
 OpenBabel11081710403D

 19 17  0  0  0  0  0  0  0  0999 V2000
   -1.1122    0.2869   -0.5514 C   0  0  0  0  0  0  0  0  0  0  0  0
    0.0203    0.8300   -1.2084 C   0  0  0  0  0  0  0  0  0  0  0  0
    1.0833    0.6731   -0.3650 C   0  0  0  0  0  0  0  0  0  0  0  0
    1.3311    0.1934    0.7829 C   0  0  0  0  0  0  0  0  0  0  0  0
    0.1926   -0.3476    1.4382 C   0  0  0  0  0  0  0  0  0  0  0  0
   -1.0223   -0.2826    0.7319 C   0  0  0  0  0  0  0  0  0  0  0  0
   -2.0720    0.3194   -1.0696 H   0  0  0  0  0  0  0  0  0  0  0  0
   -0.0035    1.2770   -2.1972 H   0  0  0  0  0  0  0  0  0  0  0  0
    2.9165    1.7395   -1.6773 N   0  0  0  0  0  0  0  0  0  0  0  0
    3.9010    2.2307   -1.7671 N   0  0  0  0  0  0  0  0  0  0  0  0
   -1.9247   -0.6889    1.1916 H   0  0  0  0  0  0  0  0  0  0  0  0
    0.2453   -0.7966    2.4302 H   0  0  0  0  0  0  0  0  0  0  0  0
    2.8935   -0.0262    1.7442 H   0  0  0  0  0  0  0  0  0  0  0  0
    5.0737    0.0474    1.7251 S   0  0  0  0  0  0  0  0  0  0  0  0
    3.6286   -0.2528    2.3943 O   0  0  0  0  0  0  0  0  0  0  0  0
    6.0671   -0.5880    2.6014 O   0  0  0  0  0  0  0  0  0  0  0  0
    5.0147   -0.1627    0.2732 O   0  0  0  0  0  0  0  0  0  0  0  0
    5.2038    1.6889    1.9057 O   0  0  0  0  0  0  0  0  0  0  0  0
    5.5247    1.8506    2.8088 H   0  0  0  0  0  0  0  0  0  0  0  0
  1  6  1  0  0  0  0
  2  1  2  0  0  0  0
  2  3  1  0  0  0  0
  3  4  2  0  0  0  0
  4  5  1  0  0  0  0
  5 12  1  0  0  0  0
  6 11  1  0  0  0  0
  6  5  2  0  0  0  0
  7  1  1  0  0  0  0
  8  2  1  0  0  0  0
 10  9  3  0  0  0  0
 13 15  1  0  0  0  0
 14 18  1  0  0  0  0
 14 15  1  0  0  0  0
 14 16  2  0  0  0  0
 17 14  2  0  0  0  0
 18 19  1  0  0  0  0
M  RAD  2   3   2   4   2
M  END
