Coordinates from ORCA-job Ph-N2-HSO4-B3LYPG-aug-cc-pVDZ-scan-d09-49-n400
 OpenBabel11081710403D

 19 17  0  0  0  0  0  0  0  0999 V2000
   -1.1085    0.2877   -0.5543 C   0  0  0  0  0  0  0  0  0  0  0  0
    0.0203    0.8344   -1.2148 C   0  0  0  0  0  0  0  0  0  0  0  0
    1.0842    0.6797   -0.3745 C   0  0  0  0  0  0  0  0  0  0  0  0
    1.3412    0.2007    0.7730 C   0  0  0  0  0  0  0  0  0  0  0  0
    0.2047   -0.3433    1.4297 C   0  0  0  0  0  0  0  0  0  0  0  0
   -1.0129   -0.2822    0.7285 C   0  0  0  0  0  0  0  0  0  0  0  0
   -2.0700    0.3172   -1.0693 H   0  0  0  0  0  0  0  0  0  0  0  0
   -0.0102    1.2811   -2.2039 H   0  0  0  0  0  0  0  0  0  0  0  0
    2.8862    1.7256   -1.6518 N   0  0  0  0  0  0  0  0  0  0  0  0
    3.8712    2.2178   -1.7295 N   0  0  0  0  0  0  0  0  0  0  0  0
   -1.9126   -0.6914    1.1908 H   0  0  0  0  0  0  0  0  0  0  0  0
    0.2622   -0.7926    2.4214 H   0  0  0  0  0  0  0  0  0  0  0  0
    2.8900   -0.0137    1.7372 H   0  0  0  0  0  0  0  0  0  0  0  0
    5.0719    0.0432    1.7285 S   0  0  0  0  0  0  0  0  0  0  0  0
    3.6223   -0.2396    2.3934 O   0  0  0  0  0  0  0  0  0  0  0  0
    6.0573   -0.5929    2.6134 O   0  0  0  0  0  0  0  0  0  0  0  0
    5.0180   -0.1775    0.2778 O   0  0  0  0  0  0  0  0  0  0  0  0
    5.2149    1.6854    1.8961 O   0  0  0  0  0  0  0  0  0  0  0  0
    5.5313    1.8520    2.8000 H   0  0  0  0  0  0  0  0  0  0  0  0
  1  6  1  0  0  0  0
  2  1  2  0  0  0  0
  2  3  1  0  0  0  0
  3  4  2  0  0  0  0
  4  5  1  0  0  0  0
  5 12  1  0  0  0  0
  6 11  1  0  0  0  0
  6  5  2  0  0  0  0
  7  1  1  0  0  0  0
  8  2  1  0  0  0  0
 10  9  3  0  0  0  0
 13 15  1  0  0  0  0
 14 18  1  0  0  0  0
 14 15  1  0  0  0  0
 14 16  2  0  0  0  0
 17 14  2  0  0  0  0
 18 19  1  0  0  0  0
M  RAD  2   3   2   4   2
M  END
