Coordinates from ORCA-job Ph-N2-HSO4-B3LYPG-aug-cc-pVDZ-scan-d09-49-n400
 OpenBabel11081710403D

 19 17  0  0  0  0  0  0  0  0999 V2000
   -1.1219    0.2932   -0.5338 C   0  0  0  0  0  0  0  0  0  0  0  0
    0.0250    0.8198   -1.1834 C   0  0  0  0  0  0  0  0  0  0  0  0
    1.0711    0.6385   -0.3266 C   0  0  0  0  0  0  0  0  0  0  0  0
    1.2953    0.1517    0.8195 C   0  0  0  0  0  0  0  0  0  0  0  0
    0.1496   -0.3731    1.4708 C   0  0  0  0  0  0  0  0  0  0  0  0
   -1.0556   -0.2820    0.7490 C   0  0  0  0  0  0  0  0  0  0  0  0
   -2.0772    0.3435   -1.0592 H   0  0  0  0  0  0  0  0  0  0  0  0
    0.0163    1.2698   -2.1711 H   0  0  0  0  0  0  0  0  0  0  0  0
    3.0136    1.7873   -1.8171 N   0  0  0  0  0  0  0  0  0  0  0  0
    3.9919    2.2765   -1.9649 N   0  0  0  0  0  0  0  0  0  0  0  0
   -1.9708   -0.6725    1.1969 H   0  0  0  0  0  0  0  0  0  0  0  0
    0.1847   -0.8254    2.4619 H   0  0  0  0  0  0  0  0  0  0  0  0
    2.9092   -0.0702    1.7554 H   0  0  0  0  0  0  0  0  0  0  0  0
    5.0887    0.0653    1.7239 S   0  0  0  0  0  0  0  0  0  0  0  0
    3.6532   -0.3026    2.3868 O   0  0  0  0  0  0  0  0  0  0  0  0
    6.0989   -0.5754    2.5765 O   0  0  0  0  0  0  0  0  0  0  0  0
    5.0328   -0.0927    0.2655 O   0  0  0  0  0  0  0  0  0  0  0  0
    5.1708    1.7011    1.9661 O   0  0  0  0  0  0  0  0  0  0  0  0
    5.4859    1.8385    2.8753 H   0  0  0  0  0  0  0  0  0  0  0  0
  1  6  1  0  0  0  0
  2  1  2  0  0  0  0
  2  3  1  0  0  0  0
  3  4  2  0  0  0  0
  4  5  1  0  0  0  0
  5 12  1  0  0  0  0
  6 11  1  0  0  0  0
  6  5  2  0  0  0  0
  7  1  1  0  0  0  0
  8  2  1  0  0  0  0
 10  9  3  0  0  0  0
 13 15  1  0  0  0  0
 14 18  1  0  0  0  0
 14 15  1  0  0  0  0
 14 16  2  0  0  0  0
 17 14  2  0  0  0  0
 18 19  1  0  0  0  0
M  RAD  2   3   2   4   2
M  END
