Coordinates from ORCA-job Ph-N2-HSO4-B3LYPG-aug-cc-pVDZ-scan-d09-49-n400
 OpenBabel11081710403D

 19 17  0  0  0  0  0  0  0  0999 V2000
   -1.1253    0.3079   -0.4709 C   0  0  0  0  0  0  0  0  0  0  0  0
    0.0733    0.7884   -1.0615 C   0  0  0  0  0  0  0  0  0  0  0  0
    1.0750    0.5321   -0.1671 C   0  0  0  0  0  0  0  0  0  0  0  0
    1.2011    0.0066    0.9735 C   0  0  0  0  0  0  0  0  0  0  0  0
    0.0149   -0.4742    1.5750 C   0  0  0  0  0  0  0  0  0  0  0  0
   -1.1478   -0.2993    0.7990 C   0  0  0  0  0  0  0  0  0  0  0  0
   -2.0536    0.4209   -1.0339 H   0  0  0  0  0  0  0  0  0  0  0  0
    0.1279    1.2605   -2.0376 H   0  0  0  0  0  0  0  0  0  0  0  0
    3.4173    1.9814   -2.2385 N   0  0  0  0  0  0  0  0  0  0  0  0
    4.3524    2.4934   -2.5247 N   0  0  0  0  0  0  0  0  0  0  0  0
   -2.1027   -0.6489    1.1953 H   0  0  0  0  0  0  0  0  0  0  0  0
   -0.0177   -0.9487    2.5552 H   0  0  0  0  0  0  0  0  0  0  0  0
    2.9110   -0.2128    1.8396 H   0  0  0  0  0  0  0  0  0  0  0  0
    5.0599    0.1061    1.7013 S   0  0  0  0  0  0  0  0  0  0  0  0
    3.6984   -0.4239    2.4151 O   0  0  0  0  0  0  0  0  0  0  0  0
    6.1649   -0.4877    2.4649 O   0  0  0  0  0  0  0  0  0  0  0  0
    4.9350    0.0195    0.2417 O   0  0  0  0  0  0  0  0  0  0  0  0
    5.0127    1.7265    2.0332 O   0  0  0  0  0  0  0  0  0  0  0  0
    5.3650    1.8436    2.9317 H   0  0  0  0  0  0  0  0  0  0  0  0
  1  6  1  0  0  0  0
  2  1  2  0  0  0  0
  2  3  1  0  0  0  0
  3  4  2  0  0  0  0
  4  5  1  0  0  0  0
  5 12  1  0  0  0  0
  6 11  1  0  0  0  0
  6  5  2  0  0  0  0
  7  1  1  0  0  0  0
  8  2  1  0  0  0  0
 10  9  3  0  0  0  0
 13 15  1  0  0  0  0
 14 18  1  0  0  0  0
 14 15  1  0  0  0  0
 14 16  2  0  0  0  0
 17 14  2  0  0  0  0
 18 19  1  0  0  0  0
M  RAD  2   3   2   4   2
M  END
