Coordinates from ORCA-job Ph-N2-HSO4-B3LYPG-aug-cc-pVDZ-scan-d09-49-n400
 OpenBabel11081710403D

 19 18  0  0  0  0  0  0  0  0999 V2000
   -0.7354    0.1395   -0.7913 C   0  0  0  0  0  0  0  0  0  0  0  0
    0.4727    0.7831   -1.0532 C   0  0  0  0  0  0  0  0  0  0  0  0
    1.3990    0.8142   -0.0071 C   0  0  0  0  0  0  0  0  0  0  0  0
    1.2236    0.2631    1.2581 C   0  0  0  0  0  0  0  0  0  0  0  0
   -0.0061   -0.3586    1.4826 C   0  0  0  0  0  0  0  0  0  0  0  0
   -0.9710   -0.4248    0.4701 C   0  0  0  0  0  0  0  0  0  0  0  0
   -1.4901    0.0788   -1.5742 H   0  0  0  0  0  0  0  0  0  0  0  0
    0.6901    1.2315   -2.0204 H   0  0  0  0  0  0  0  0  0  0  0  0
    2.6642    1.5470   -0.3015 N   0  0  0  0  0  0  0  0  0  0  0  0
    3.3994    2.2904   -0.6769 N   0  0  0  0  0  0  0  0  0  0  0  0
   -1.9194   -0.9268    0.6620 H   0  0  0  0  0  0  0  0  0  0  0  0
   -0.2005   -0.8057    2.4564 H   0  0  0  0  0  0  0  0  0  0  0  0
    2.0228    0.3231    2.0038 H   0  0  0  0  0  0  0  0  0  0  0  0
    4.7778    0.1946    1.7199 S   0  0  0  0  0  0  0  0  0  0  0  0
    3.8396    0.6485    2.7974 O   0  0  0  0  0  0  0  0  0  0  0  0
    5.9440   -0.6357    2.1125 O   0  0  0  0  0  0  0  0  0  0  0  0
    4.0245   -0.3052    0.4971 O   0  0  0  0  0  0  0  0  0  0  0  0
    5.4508    1.6696    1.1807 O   0  0  0  0  0  0  0  0  0  0  0  0
    6.3758    1.4649    0.9754 H   0  0  0  0  0  0  0  0  0  0  0  0
  1  6  1  0  0  0  0
  2  1  2  0  0  0  0
  2  3  1  0  0  0  0
  3  4  2  0  0  0  0
  4  5  1  0  0  0  0
  4 13  1  0  0  0  0
  5 12  1  0  0  0  0
  6 11  1  0  0  0  0
  6  5  2  0  0  0  0
  7  1  1  0  0  0  0
  8  2  1  0  0  0  0
  9  3  1  0  0  0  0
 10  9  1  0  0  0  0
 14 16  2  0  0  0  0
 14 15  1  0  0  0  0
 17 14  2  0  0  0  0
 18 14  1  0  0  0  0
 19 18  1  0  0  0  0
M  RAD  3   9   2  10   3  15   2
M  END
