Coordinates from ORCA-job Ph-N2-HSO4-B3LYPG-aug-cc-pVDZ-scan-d09-49-n400
 OpenBabel11081710403D

 19 18  0  0  0  0  0  0  0  0999 V2000
   -0.7695    0.1395   -0.7786 C   0  0  0  0  0  0  0  0  0  0  0  0
    0.4564    0.7509   -1.0638 C   0  0  0  0  0  0  0  0  0  0  0  0
    1.3640    0.7509   -0.0175 C   0  0  0  0  0  0  0  0  0  0  0  0
    1.2191    0.2280    1.2487 C   0  0  0  0  0  0  0  0  0  0  0  0
   -0.0294   -0.3599    1.4902 C   0  0  0  0  0  0  0  0  0  0  0  0
   -1.0062   -0.4082    0.4884 C   0  0  0  0  0  0  0  0  0  0  0  0
   -1.5329    0.0942   -1.5543 H   0  0  0  0  0  0  0  0  0  0  0  0
    0.6785    1.1860   -2.0349 H   0  0  0  0  0  0  0  0  0  0  0  0
    2.7702    1.5064   -0.3560 N   0  0  0  0  0  0  0  0  0  0  0  0
    3.3777    2.3183   -0.8109 N   0  0  0  0  0  0  0  0  0  0  0  0
   -1.9654   -0.8828    0.6947 H   0  0  0  0  0  0  0  0  0  0  0  0
   -0.2246   -0.7906    2.4715 H   0  0  0  0  0  0  0  0  0  0  0  0
    2.0254    0.2811    1.9871 H   0  0  0  0  0  0  0  0  0  0  0  0
    4.8038    0.2202    1.7147 S   0  0  0  0  0  0  0  0  0  0  0  0
    3.8449    0.5872    2.8021 O   0  0  0  0  0  0  0  0  0  0  0  0
    5.9439   -0.6698    2.0473 O   0  0  0  0  0  0  0  0  0  0  0  0
    4.0677   -0.1830    0.4341 O   0  0  0  0  0  0  0  0  0  0  0  0
    5.5029    1.7102    1.3035 O   0  0  0  0  0  0  0  0  0  0  0  0
    6.4352    1.5129    1.1250 H   0  0  0  0  0  0  0  0  0  0  0  0
  1  6  1  0  0  0  0
  2  1  2  0  0  0  0
  2  3  1  0  0  0  0
  3  4  2  0  0  0  0
  4  5  1  0  0  0  0
  4 13  1  0  0  0  0
  5 12  1  0  0  0  0
  6 11  1  0  0  0  0
  6  5  2  0  0  0  0
  7  1  1  0  0  0  0
  8  2  1  0  0  0  0
  9  3  1  0  0  0  0
 10  9  2  0  0  0  0
 14 16  2  0  0  0  0
 14 15  1  0  0  0  0
 17 14  2  0  0  0  0
 18 14  1  0  0  0  0
 19 18  1  0  0  0  0
M  RAD  2  10   2  15   2
M  END
