Coordinates from ORCA-job Ph-N2-HSO4-B3LYPG-aug-cc-pVDZ-scan-d09-49-n400
 OpenBabel11081710403D

 19 18  0  0  0  0  0  0  0  0999 V2000
   -0.7917    0.1381   -0.7696 C   0  0  0  0  0  0  0  0  0  0  0  0
    0.4328    0.7501   -1.0720 C   0  0  0  0  0  0  0  0  0  0  0  0
    1.3344    0.7394   -0.0285 C   0  0  0  0  0  0  0  0  0  0  0  0
    1.2241    0.2242    1.2372 C   0  0  0  0  0  0  0  0  0  0  0  0
   -0.0249   -0.3647    1.4900 C   0  0  0  0  0  0  0  0  0  0  0  0
   -1.0130   -0.4106    0.4994 C   0  0  0  0  0  0  0  0  0  0  0  0
   -1.5637    0.0950   -1.5371 H   0  0  0  0  0  0  0  0  0  0  0  0
    0.6471    1.1863   -2.0439 H   0  0  0  0  0  0  0  0  0  0  0  0
    2.8095    1.5259   -0.3978 N   0  0  0  0  0  0  0  0  0  0  0  0
    3.4091    2.3379   -0.8598 N   0  0  0  0  0  0  0  0  0  0  0  0
   -1.9700   -0.8846    0.7165 H   0  0  0  0  0  0  0  0  0  0  0  0
   -0.2073   -0.7963    2.4734 H   0  0  0  0  0  0  0  0  0  0  0  0
    2.0421    0.2782    1.9652 H   0  0  0  0  0  0  0  0  0  0  0  0
    4.8059    0.2180    1.7164 S   0  0  0  0  0  0  0  0  0  0  0  0
    3.8215    0.5751    2.7862 O   0  0  0  0  0  0  0  0  0  0  0  0
    5.9372   -0.6754    2.0706 O   0  0  0  0  0  0  0  0  0  0  0  0
    4.1000   -0.1729    0.4167 O   0  0  0  0  0  0  0  0  0  0  0  0
    5.5155    1.7116    1.3396 O   0  0  0  0  0  0  0  0  0  0  0  0
    6.4531    1.5160    1.1890 H   0  0  0  0  0  0  0  0  0  0  0  0
  1  6  1  0  0  0  0
  2  1  2  0  0  0  0
  2  3  1  0  0  0  0
  3  4  2  0  0  0  0
  4  5  1  0  0  0  0
  4 13  1  0  0  0  0
  5 12  1  0  0  0  0
  6 11  1  0  0  0  0
  6  5  2  0  0  0  0
  7  1  1  0  0  0  0
  8  2  1  0  0  0  0
  9  3  1  0  0  0  0
 10  9  2  0  0  0  0
 14 16  2  0  0  0  0
 14 15  1  0  0  0  0
 17 14  2  0  0  0  0
 18 14  1  0  0  0  0
 19 18  1  0  0  0  0
M  RAD  2  10   2  15   2
M  END
