Coordinates from ORCA-job Ph-N2-HSO4-B3LYPG-aug-cc-pVDZ-scan-d09-49-n400
 OpenBabel11081710403D

 19 19  0  0  1  0  0  0  0  0999 V2000
   -0.4245    0.0900   -0.7195 C   0  0  0  0  0  0  0  0  0  0  0  0
    0.5354    0.9243   -1.1566 C   0  0  0  0  0  0  0  0  0  0  0  0
    1.7359    1.2748   -0.3244 C   0  0  0  0  0  0  0  0  0  0  0  0
    1.8652    0.4933    1.0573 C   0  0  1  0  0  0  0  0  0  0  0  0
    0.6951   -0.3586    1.4143 C   0  0  0  0  0  0  0  0  0  0  0  0
   -0.3531   -0.5414    0.5923 C   0  0  0  0  0  0  0  0  0  0  0  0
   -1.2784   -0.1257   -1.3618 H   0  0  0  0  0  0  0  0  0  0  0  0
    0.5099    1.3961   -2.1392 H   0  0  0  0  0  0  0  0  0  0  0  0
    2.4023    1.8648   -0.5575 N   0  0  0  0  0  0  0  0  0  0  0  0
    3.2870    2.6075   -0.8229 N   0  0  0  0  0  0  0  0  0  0  0  0
   -1.1787   -1.1807    0.9056 H   0  0  0  0  0  0  0  0  0  0  0  0
    0.7468   -0.8378    2.3923 H   0  0  0  0  0  0  0  0  0  0  0  0
    2.0837    1.2405    1.8311 H   0  0  0  0  0  0  0  0  0  0  0  0
    4.3065   -0.1538    1.9603 S   0  0  0  0  0  0  0  0  0  0  0  0
    3.7865   -0.1177    3.3315 O   0  0  0  0  0  0  0  0  0  0  0  0
    5.3305   -1.0926    1.4966 O   0  0  0  0  0  0  0  0  0  0  0  0
    3.0552   -0.3512    0.8877 O   0  0  0  0  0  0  0  0  0  0  0  0
    4.7604    1.3964    1.6589 O   0  0  0  0  0  0  0  0  0  0  0  0
    5.0962    1.4632    0.7453 H   0  0  0  0  0  0  0  0  0  0  0  0
  1  6  1  0  0  0  0
  2  1  1  0  0  0  0
  2  3  2  0  0  0  0
  3  4  1  0  0  0  0
  4  5  1  0  0  0  0
  4 13  1  1  0  0  0
  5 12  1  0  0  0  0
  6 11  1  0  0  0  0
  6  5  2  0  0  0  0
  7  1  1  0  0  0  0
  8  2  1  0  0  0  0
  9  3  1  0  0  0  0
 10  9  1  0  0  0  0
 14 15  2  0  0  0  0
 16 14  2  0  0  0  0
 17  4  1  0  0  0  0
 17 14  1  0  0  0  0
 18 14  1  0  0  0  0
 19 18  1  0  0  0  0
M  RAD  3   1   2   9   2  10   3
M  END
