Coordinates from ORCA-job Ph-N2-HSO4-B3LYPG-aug-cc-pVDZ-scan-d09-49-n400
 OpenBabel11081710403D

 19 17  0  0  0  0  0  0  0  0999 V2000
   -1.1035    0.3153   -0.4526 C   0  0  0  0  0  0  0  0  0  0  0  0
    0.1251    0.7621   -1.0077 C   0  0  0  0  0  0  0  0  0  0  0  0
    1.0918    0.4729   -0.0849 C   0  0  0  0  0  0  0  0  0  0  0  0
    1.1656   -0.0610    1.0550 C   0  0  0  0  0  0  0  0  0  0  0  0
   -0.0477   -0.5097    1.6228 C   0  0  0  0  0  0  0  0  0  0  0  0
   -1.1814   -0.2962    0.8133 C   0  0  0  0  0  0  0  0  0  0  0  0
   -2.0118    0.4581   -1.0410 H   0  0  0  0  0  0  0  0  0  0  0  0
    0.2210    1.2362   -1.9796 H   0  0  0  0  0  0  0  0  0  0  0  0
    3.5193    2.0732   -2.4486 N   0  0  0  0  0  0  0  0  0  0  0  0
    4.4262    2.5989   -2.7950 N   0  0  0  0  0  0  0  0  0  0  0  0
   -2.1577   -0.6182    1.1795 H   0  0  0  0  0  0  0  0  0  0  0  0
   -0.1226   -0.9869    2.5993 H   0  0  0  0  0  0  0  0  0  0  0  0
    2.9129   -0.2733    1.8864 H   0  0  0  0  0  0  0  0  0  0  0  0
    5.0455    0.1224    1.6975 S   0  0  0  0  0  0  0  0  0  0  0  0
    3.7226   -0.4759    2.4312 O   0  0  0  0  0  0  0  0  0  0  0  0
    6.1899   -0.4619    2.4086 O   0  0  0  0  0  0  0  0  0  0  0  0
    4.8815    0.0820    0.2395 O   0  0  0  0  0  0  0  0  0  0  0  0
    4.9571    1.7279    2.0873 O   0  0  0  0  0  0  0  0  0  0  0  0
    5.3281    1.8252    2.9806 H   0  0  0  0  0  0  0  0  0  0  0  0
  1  6  1  0  0  0  0
  2  1  2  0  0  0  0
  2  3  1  0  0  0  0
  3  4  2  0  0  0  0
  4  5  1  0  0  0  0
  5 12  1  0  0  0  0
  6 11  1  0  0  0  0
  6  5  2  0  0  0  0
  7  1  1  0  0  0  0
  8  2  1  0  0  0  0
 10  9  3  0  0  0  0
 13 15  1  0  0  0  0
 14 18  1  0  0  0  0
 14 16  2  0  0  0  0
 14 15  1  0  0  0  0
 17 14  2  0  0  0  0
 18 19  1  0  0  0  0
M  RAD  2   3   2   4   2
M  END
