Coordinates from ORCA-job Ph-N2-HSO4-B3LYPG-aug-cc-pVDZ-scan-d09-49-n400
 OpenBabel11081710403D

 19 17  0  0  0  0  0  0  0  0999 V2000
   -1.1262    0.2955   -0.5279 C   0  0  0  0  0  0  0  0  0  0  0  0
    0.0274    0.8177   -1.1706 C   0  0  0  0  0  0  0  0  0  0  0  0
    1.0662    0.6260   -0.3074 C   0  0  0  0  0  0  0  0  0  0  0  0
    1.2811    0.1343    0.8378 C   0  0  0  0  0  0  0  0  0  0  0  0
    0.1298   -0.3860    1.4824 C   0  0  0  0  0  0  0  0  0  0  0  0
   -1.0706   -0.2845    0.7534 C   0  0  0  0  0  0  0  0  0  0  0  0
   -2.0785    0.3534   -1.0580 H   0  0  0  0  0  0  0  0  0  0  0  0
    0.0264    1.2709   -2.1568 H   0  0  0  0  0  0  0  0  0  0  0  0
    3.0561    1.8072   -1.8563 N   0  0  0  0  0  0  0  0  0  0  0  0
    4.0309    2.2989   -2.0189 N   0  0  0  0  0  0  0  0  0  0  0  0
   -1.9909   -0.6706    1.1944 H   0  0  0  0  0  0  0  0  0  0  0  0
    0.1565   -0.8418    2.4720 H   0  0  0  0  0  0  0  0  0  0  0  0
    2.9142   -0.0815    1.7592 H   0  0  0  0  0  0  0  0  0  0  0  0
    5.0942    0.0689    1.7217 S   0  0  0  0  0  0  0  0  0  0  0  0
    3.6620   -0.3137    2.3846 O   0  0  0  0  0  0  0  0  0  0  0  0
    6.1088   -0.5650    2.5740 O   0  0  0  0  0  0  0  0  0  0  0  0
    5.0416   -0.0867    0.2630 O   0  0  0  0  0  0  0  0  0  0  0  0
    5.1610    1.7048    1.9671 O   0  0  0  0  0  0  0  0  0  0  0  0
    5.4716    1.8434    2.8778 H   0  0  0  0  0  0  0  0  0  0  0  0
  1  6  1  0  0  0  0
  2  1  2  0  0  0  0
  2  3  1  0  0  0  0
  3  4  2  0  0  0  0
  4  5  1  0  0  0  0
  5 12  1  0  0  0  0
  6 11  1  0  0  0  0
  6  5  2  0  0  0  0
  7  1  1  0  0  0  0
  8  2  1  0  0  0  0
 10  9  3  0  0  0  0
 13 15  1  0  0  0  0
 14 18  1  0  0  0  0
 14 15  1  0  0  0  0
 14 16  2  0  0  0  0
 17 14  2  0  0  0  0
 18 19  1  0  0  0  0
M  RAD  2   3   2   4   2
M  END
