Coordinates from ORCA-job Ph-N2-HSO4-B3LYPG-aug-cc-pVDZ-scan-d09-49-n400
 OpenBabel11081710403D

 19 17  0  0  0  0  0  0  0  0999 V2000
   -0.8954    0.1489   -0.6839 C   0  0  0  0  0  0  0  0  0  0  0  0
    0.2938    0.7717   -1.1223 C   0  0  0  0  0  0  0  0  0  0  0  0
    1.2207    0.7256   -0.1285 C   0  0  0  0  0  0  0  0  0  0  0  0
    1.3324    0.2650    1.1191 C   0  0  0  0  0  0  0  0  0  0  0  0
    0.1003   -0.3412    1.4881 C   0  0  0  0  0  0  0  0  0  0  0  0
   -0.9817   -0.3949    0.6039 C   0  0  0  0  0  0  0  0  0  0  0  0
   -1.7370    0.1051   -1.3751 H   0  0  0  0  0  0  0  0  0  0  0  0
    0.4213    1.2084   -2.1074 H   0  0  0  0  0  0  0  0  0  0  0  0
    2.9032    1.7059   -0.7786 N   0  0  0  0  0  0  0  0  0  0  0  0
    3.6676    2.3655   -1.2217 N   0  0  0  0  0  0  0  0  0  0  0  0
   -1.9085   -0.8729    0.9197 H   0  0  0  0  0  0  0  0  0  0  0  0
    0.0372   -0.7749    2.4865 H   0  0  0  0  0  0  0  0  0  0  0  0
    2.2473    0.2964    1.7877 H   0  0  0  0  0  0  0  0  0  0  0  0
    4.7910    0.0888    1.6721 S   0  0  0  0  0  0  0  0  0  0  0  0
    3.6553    0.3510    2.6556 O   0  0  0  0  0  0  0  0  0  0  0  0
    5.9214   -0.6898    2.2382 O   0  0  0  0  0  0  0  0  0  0  0  0
    4.2624   -0.3097    0.3257 O   0  0  0  0  0  0  0  0  0  0  0  0
    5.4303    1.6323    1.3645 O   0  0  0  0  0  0  0  0  0  0  0  0
    6.2002    1.7102    1.9480 H   0  0  0  0  0  0  0  0  0  0  0  0
  1  6  1  0  0  0  0
  2  1  2  0  0  0  0
  2  3  1  0  0  0  0
  3  4  2  0  0  0  0
  4  5  1  0  0  0  0
  4 13  1  0  0  0  0
  5 12  1  0  0  0  0
  6 11  1  0  0  0  0
  6  5  2  0  0  0  0
  7  1  1  0  0  0  0
  8  2  1  0  0  0  0
 10  9  3  0  0  0  0
 14 16  2  0  0  0  0
 14 15  1  0  0  0  0
 17 14  2  0  0  0  0
 18 14  1  0  0  0  0
 18 19  1  0  0  0  0
M  RAD  2   3   2  15   2
M  END
