Coordinates from ORCA-job Ph-N2-HSO4-B3LYPG-aug-cc-pVDZ-scan-d09-49-n400
 OpenBabel11081710403D

 19 19  0  0  1  0  0  0  0  0999 V2000
   -0.3637   -0.0842   -0.7304 C   0  0  0  0  0  0  0  0  0  0  0  0
    0.5031    0.8482   -1.1914 C   0  0  0  0  0  0  0  0  0  0  0  0
    1.5645    1.3565   -0.3252 C   0  0  0  0  0  0  0  0  0  0  0  0
    1.8600    0.6691    0.9928 C   0  0  1  0  0  0  0  0  0  0  0  0
    0.7438   -0.2020    1.4565 C   0  0  0  0  0  0  0  0  0  0  0  0
   -0.2620   -0.5711    0.6340 C   0  0  0  0  0  0  0  0  0  0  0  0
   -1.1584   -0.4560   -1.3754 H   0  0  0  0  0  0  0  0  0  0  0  0
    0.4345    1.2564   -2.1994 H   0  0  0  0  0  0  0  0  0  0  0  0
    2.2352    2.2620   -0.6426 N   0  0  0  0  0  0  0  0  0  0  0  0
    2.9050    3.1477   -0.9417 N   0  0  0  0  0  0  0  0  0  0  0  0
   -1.0357   -1.2451    1.0039 H   0  0  0  0  0  0  0  0  0  0  0  0
    0.8080   -0.5639    2.4813 H   0  0  0  0  0  0  0  0  0  0  0  0
    2.1723    1.3932    1.7525 H   0  0  0  0  0  0  0  0  0  0  0  0
    4.2058   -0.2986    1.9193 S   0  0  0  0  0  0  0  0  0  0  0  0
    3.5544   -0.2791    3.2355 O   0  0  0  0  0  0  0  0  0  0  0  0
    5.1584   -1.3310    1.4921 O   0  0  0  0  0  0  0  0  0  0  0  0
    3.0856   -0.2076    0.7322 O   0  0  0  0  0  0  0  0  0  0  0  0
    4.9424    1.1809    1.8017 O   0  0  0  0  0  0  0  0  0  0  0  0
    5.6084    1.1159    1.0960 H   0  0  0  0  0  0  0  0  0  0  0  0
  1  6  1  0  0  0  0
  2  1  1  0  0  0  0
  2  3  2  0  0  0  0
  3  4  1  0  0  0  0
  4  5  1  0  0  0  0
  4 13  1  1  0  0  0
  5 12  1  0  0  0  0
  6 11  1  0  0  0  0
  6  5  2  0  0  0  0
  7  1  1  0  0  0  0
  8  2  1  0  0  0  0
  9  3  1  0  0  0  0
 10  9  1  0  0  0  0
 14 15  2  0  0  0  0
 16 14  2  0  0  0  0
 17  4  1  0  0  0  0
 17 14  1  0  0  0  0
 18 14  1  0  0  0  0
 19 18  1  0  0  0  0
M  RAD  3   1   2   9   2  10   3
M  END
