Coordinates from ORCA-job Ph-N2-HSO4-B3LYPG-aug-cc-pVDZ-scan-d09-49-n400
 OpenBabel11081710403D

 19 17  0  0  0  0  0  0  0  0999 V2000
   -0.7448    0.4395   -0.4192 C   0  0  0  0  0  0  0  0  0  0  0  0
    0.6194    0.7067   -0.7077 C   0  0  0  0  0  0  0  0  0  0  0  0
    1.3334    0.2207    0.3505 C   0  0  0  0  0  0  0  0  0  0  0  0
    1.1185   -0.3694    1.4469 C   0  0  0  0  0  0  0  0  0  0  0  0
   -0.2371   -0.6392    1.7437 C   0  0  0  0  0  0  0  0  0  0  0  0
   -1.1526   -0.2090    0.7631 C   0  0  0  0  0  0  0  0  0  0  0  0
   -1.4923    0.7543   -1.1497 H   0  0  0  0  0  0  0  0  0  0  0  0
    0.9727    1.2026   -1.6065 H   0  0  0  0  0  0  0  0  0  0  0  0
    3.2963    2.1980   -3.0144 N   0  0  0  0  0  0  0  0  0  0  0  0
    4.3310    2.4937   -3.2601 N   0  0  0  0  0  0  0  0  0  0  0  0
   -2.2179   -0.3844    0.9220 H   0  0  0  0  0  0  0  0  0  0  0  0
   -0.5688   -1.1410    2.6523 H   0  0  0  0  0  0  0  0  0  0  0  0
    2.9207   -0.6258    2.1497 H   0  0  0  0  0  0  0  0  0  0  0  0
    4.7869    0.2818    1.5411 S   0  0  0  0  0  0  0  0  0  0  0  0
    3.8756   -0.7248    2.4285 O   0  0  0  0  0  0  0  0  0  0  0  0
    6.1764   -0.1512    1.7269 O   0  0  0  0  0  0  0  0  0  0  0  0
    4.1718    0.4891    0.2200 O   0  0  0  0  0  0  0  0  0  0  0  0
    4.5806    1.7219    2.3240 O   0  0  0  0  0  0  0  0  0  0  0  0
    5.1918    1.7279    3.0802 H   0  0  0  0  0  0  0  0  0  0  0  0
  1  6  1  0  0  0  0
  2  1  2  0  0  0  0
  2  3  1  0  0  0  0
  3  4  2  0  0  0  0
  4  5  1  0  0  0  0
  5 12  1  0  0  0  0
  6 11  1  0  0  0  0
  6  5  2  0  0  0  0
  7  1  1  0  0  0  0
  8  2  1  0  0  0  0
 10  9  3  0  0  0  0
 13 15  1  0  0  0  0
 14 16  2  0  0  0  0
 14 18  1  0  0  0  0
 14 15  1  0  0  0  0
 17 14  2  0  0  0  0
 18 19  1  0  0  0  0
M  RAD  2   3   2   4   2
M  END
