Coordinates from ORCA-job Ph-N2-HSO4-B3LYPG-aug-cc-pVDZ-scan-d09-49-n400
 OpenBabel11081710403D

 19 17  0  0  0  0  0  0  0  0999 V2000
   -0.8909    0.1688   -0.6899 C   0  0  0  0  0  0  0  0  0  0  0  0
    0.3085    0.7761   -1.1172 C   0  0  0  0  0  0  0  0  0  0  0  0
    1.2409    0.7154   -0.1261 C   0  0  0  0  0  0  0  0  0  0  0  0
    1.3279    0.2376    1.1237 C   0  0  0  0  0  0  0  0  0  0  0  0
    0.0877   -0.3508    1.4828 C   0  0  0  0  0  0  0  0  0  0  0  0
   -0.9911   -0.3827    0.5934 C   0  0  0  0  0  0  0  0  0  0  0  0
   -1.7302    0.1410   -1.3845 H   0  0  0  0  0  0  0  0  0  0  0  0
    0.4449    1.2168   -2.0994 H   0  0  0  0  0  0  0  0  0  0  0  0
    2.8975    1.6373   -0.7400 N   0  0  0  0  0  0  0  0  0  0  0  0
    3.6354    2.3138   -1.2031 N   0  0  0  0  0  0  0  0  0  0  0  0
   -1.9263   -0.8490    0.9017 H   0  0  0  0  0  0  0  0  0  0  0  0
    0.0110   -0.7887    2.4783 H   0  0  0  0  0  0  0  0  0  0  0  0
    2.2320    0.2599    1.7918 H   0  0  0  0  0  0  0  0  0  0  0  0
    4.7994    0.1069    1.6831 S   0  0  0  0  0  0  0  0  0  0  0  0
    3.6831    0.3416    2.6874 O   0  0  0  0  0  0  0  0  0  0  0  0
    5.9622   -0.6544    2.2065 O   0  0  0  0  0  0  0  0  0  0  0  0
    4.2498   -0.2955    0.3418 O   0  0  0  0  0  0  0  0  0  0  0  0
    5.4040    1.6652    1.3682 O   0  0  0  0  0  0  0  0  0  0  0  0
    6.2159    1.7322    1.8929 H   0  0  0  0  0  0  0  0  0  0  0  0
  1  6  1  0  0  0  0
  2  1  2  0  0  0  0
  2  3  1  0  0  0  0
  3  4  2  0  0  0  0
  4  5  1  0  0  0  0
  4 13  1  0  0  0  0
  5 12  1  0  0  0  0
  6 11  1  0  0  0  0
  6  5  2  0  0  0  0
  7  1  1  0  0  0  0
  8  2  1  0  0  0  0
 10  9  3  0  0  0  0
 14 16  2  0  0  0  0
 14 15  1  0  0  0  0
 17 14  2  0  0  0  0
 18 14  1  0  0  0  0
 18 19  1  0  0  0  0
M  RAD  2   3   2  15   2
M  END
