Coordinates from ORCA-job Ph-N2-HSO4-B3LYPG-aug-cc-pVDZ-scan-d09-49-n400
 OpenBabel11081710403D

 19 17  0  0  0  0  0  0  0  0999 V2000
   -1.1202    0.3120   -0.4627 C   0  0  0  0  0  0  0  0  0  0  0  0
    0.0887    0.7844   -1.0389 C   0  0  0  0  0  0  0  0  0  0  0  0
    1.0783    0.5155   -0.1346 C   0  0  0  0  0  0  0  0  0  0  0  0
    1.1859   -0.0167    1.0039 C   0  0  0  0  0  0  0  0  0  0  0  0
   -0.0089   -0.4911    1.5912 C   0  0  0  0  0  0  0  0  0  0  0  0
   -1.1618   -0.3017    0.8036 C   0  0  0  0  0  0  0  0  0  0  0  0
   -2.0415    0.4361   -1.0348 H   0  0  0  0  0  0  0  0  0  0  0  0
    0.1570    1.2608   -2.0121 H   0  0  0  0  0  0  0  0  0  0  0  0
    3.4624    2.0083   -2.3112 N   0  0  0  0  0  0  0  0  0  0  0  0
    4.3891    2.5222   -2.6204 N   0  0  0  0  0  0  0  0  0  0  0  0
   -2.1240   -0.6447    1.1877 H   0  0  0  0  0  0  0  0  0  0  0  0
   -0.0559   -0.9702    2.5686 H   0  0  0  0  0  0  0  0  0  0  0  0
    2.9121   -0.2322    1.8546 H   0  0  0  0  0  0  0  0  0  0  0  0
    5.0564    0.1133    1.6985 S   0  0  0  0  0  0  0  0  0  0  0  0
    3.7076   -0.4405    2.4189 O   0  0  0  0  0  0  0  0  0  0  0  0
    6.1746   -0.4757    2.4465 O   0  0  0  0  0  0  0  0  0  0  0  0
    4.9204    0.0408    0.2392 O   0  0  0  0  0  0  0  0  0  0  0  0
    4.9927    1.7295    2.0479 O   0  0  0  0  0  0  0  0  0  0  0  0
    5.3487    1.8412    2.9456 H   0  0  0  0  0  0  0  0  0  0  0  0
  1  6  1  0  0  0  0
  2  1  2  0  0  0  0
  2  3  1  0  0  0  0
  3  4  2  0  0  0  0
  4  5  1  0  0  0  0
  5 12  1  0  0  0  0
  6 11  1  0  0  0  0
  6  5  2  0  0  0  0
  7  1  1  0  0  0  0
  8  2  1  0  0  0  0
 10  9  3  0  0  0  0
 13 15  1  0  0  0  0
 14 18  1  0  0  0  0
 14 15  1  0  0  0  0
 14 16  2  0  0  0  0
 17 14  2  0  0  0  0
 18 19  1  0  0  0  0
M  RAD  2   3   2   4   2
M  END
