Coordinates from ORCA-job Ph-N2-HSO4-B3LYPG-aug-cc-pVDZ-scan-d09-49-n400
 OpenBabel11081710403D

 19 18  0  0  0  0  0  0  0  0999 V2000
   -0.7946    0.1377   -0.7685 C   0  0  0  0  0  0  0  0  0  0  0  0
    0.4295    0.7501   -1.0730 C   0  0  0  0  0  0  0  0  0  0  0  0
    1.3306    0.7384   -0.0300 C   0  0  0  0  0  0  0  0  0  0  0  0
    1.2245    0.2241    1.2356 C   0  0  0  0  0  0  0  0  0  0  0  0
   -0.0242   -0.3654    1.4899 C   0  0  0  0  0  0  0  0  0  0  0  0
   -1.0138   -0.4113    0.5007 C   0  0  0  0  0  0  0  0  0  0  0  0
   -1.5676    0.0946   -1.5349 H   0  0  0  0  0  0  0  0  0  0  0  0
    0.6427    1.1864   -2.0450 H   0  0  0  0  0  0  0  0  0  0  0  0
    2.8142    1.5292   -0.4031 N   0  0  0  0  0  0  0  0  0  0  0  0
    3.4132    2.3409   -0.8655 N   0  0  0  0  0  0  0  0  0  0  0  0
   -1.9704   -0.8854    0.7192 H   0  0  0  0  0  0  0  0  0  0  0  0
   -0.2049   -0.7971    2.4736 H   0  0  0  0  0  0  0  0  0  0  0  0
    2.0440    0.2784    1.9624 H   0  0  0  0  0  0  0  0  0  0  0  0
    4.8061    0.2177    1.7165 S   0  0  0  0  0  0  0  0  0  0  0  0
    3.8185    0.5743    2.7838 O   0  0  0  0  0  0  0  0  0  0  0  0
    5.9360   -0.6763    2.0740 O   0  0  0  0  0  0  0  0  0  0  0  0
    4.1041   -0.1719    0.4145 O   0  0  0  0  0  0  0  0  0  0  0  0
    5.5177    1.7113    1.3435 O   0  0  0  0  0  0  0  0  0  0  0  0
    6.4561    1.5155    1.1976 H   0  0  0  0  0  0  0  0  0  0  0  0
  1  6  1  0  0  0  0
  2  1  2  0  0  0  0
  2  3  1  0  0  0  0
  3  4  2  0  0  0  0
  4  5  1  0  0  0  0
  4 13  1  0  0  0  0
  5 12  1  0  0  0  0
  6 11  1  0  0  0  0
  6  5  2  0  0  0  0
  7  1  1  0  0  0  0
  8  2  1  0  0  0  0
  9  3  1  0  0  0  0
 10  9  2  0  0  0  0
 14 16  2  0  0  0  0
 14 15  1  0  0  0  0
 17 14  2  0  0  0  0
 18 14  1  0  0  0  0
 19 18  1  0  0  0  0
M  RAD  2  10   2  15   2
M  END
