Coordinates from ORCA-job Ph-N2-HSO4-B3LYPG-aug-cc-pVDZ-scan-d09-49-n400
 OpenBabel11081710403D

 19 18  0  0  0  0  0  0  0  0999 V2000
   -0.8012    0.1375   -0.7648 C   0  0  0  0  0  0  0  0  0  0  0  0
    0.4218    0.7510   -1.0774 C   0  0  0  0  0  0  0  0  0  0  0  0
    1.3211    0.7352   -0.0354 C   0  0  0  0  0  0  0  0  0  0  0  0
    1.2306    0.2245    1.2301 C   0  0  0  0  0  0  0  0  0  0  0  0
   -0.0184   -0.3657    1.4895 C   0  0  0  0  0  0  0  0  0  0  0  0
   -1.0130   -0.4115    0.5055 C   0  0  0  0  0  0  0  0  0  0  0  0
   -1.5781    0.0948   -1.5275 H   0  0  0  0  0  0  0  0  0  0  0  0
    0.6306    1.1876   -2.0499 H   0  0  0  0  0  0  0  0  0  0  0  0
    2.8196    1.5356   -0.4211 N   0  0  0  0  0  0  0  0  0  0  0  0
    3.4153    2.3470   -0.8873 N   0  0  0  0  0  0  0  0  0  0  0  0
   -1.9683   -0.8858    0.7292 H   0  0  0  0  0  0  0  0  0  0  0  0
   -0.1931   -0.7976    2.4743 H   0  0  0  0  0  0  0  0  0  0  0  0
    2.0553    0.2788    1.9525 H   0  0  0  0  0  0  0  0  0  0  0  0
    4.8048    0.2153    1.7168 S   0  0  0  0  0  0  0  0  0  0  0  0
    3.8072    0.5682    2.7773 O   0  0  0  0  0  0  0  0  0  0  0  0
    5.9309   -0.6800    2.0837 O   0  0  0  0  0  0  0  0  0  0  0  0
    4.1140   -0.1689    0.4084 O   0  0  0  0  0  0  0  0  0  0  0  0
    5.5209    1.7100    1.3584 O   0  0  0  0  0  0  0  0  0  0  0  0
    6.4618    1.5152    1.2290 H   0  0  0  0  0  0  0  0  0  0  0  0
  1  6  1  0  0  0  0
  2  1  2  0  0  0  0
  2  3  1  0  0  0  0
  3  4  2  0  0  0  0
  4  5  1  0  0  0  0
  4 13  1  0  0  0  0
  5 12  1  0  0  0  0
  6 11  1  0  0  0  0
  6  5  2  0  0  0  0
  7  1  1  0  0  0  0
  8  2  1  0  0  0  0
  9  3  1  0  0  0  0
 10  9  2  0  0  0  0
 14 16  2  0  0  0  0
 14 15  1  0  0  0  0
 17 14  2  0  0  0  0
 18 14  1  0  0  0  0
 19 18  1  0  0  0  0
M  RAD  2  10   2  15   2
M  END
