Coordinates from ORCA-job 4-NO2-Ph-N2-OH-B3LYPG-6-31G_dp-MTMO-d009-169-n900
 OpenBabel09051908013D

 17 15  0  0  0  0  0  0  0  0999 V2000
   -0.9294   -1.1356   -1.0678 C   0  0  0  0  0  0  0  0  0  0  0  0
    0.0686   -0.2332   -0.6545 C   0  0  0  0  0  0  0  0  0  0  0  0
   -0.3952    0.7979    0.0926 C   0  0  0  0  0  0  0  0  0  0  0  0
   -1.6527    1.1185    0.5162 C   0  0  0  0  0  0  0  0  0  0  0  0
   -2.6341    0.2041    0.0928 C   0  0  0  0  0  0  0  0  0  0  0  0
   -2.2496   -0.8920   -0.6832 C   0  0  0  0  0  0  0  0  0  0  0  0
   -0.6923   -2.0048   -1.6709 H   0  0  0  0  0  0  0  0  0  0  0  0
    1.1205   -0.3669   -0.9225 H   0  0  0  0  0  0  0  0  0  0  0  0
   -1.9031    1.9854    1.1187 H   0  0  0  0  0  0  0  0  0  0  0  0
   -3.6769    0.3366    0.3588 H   0  0  0  0  0  0  0  0  0  0  0  0
    3.0607    1.6146    0.0157 N   0  0  0  0  0  0  0  0  0  0  0  0
    3.0652    0.6694   -0.5865 N   0  0  0  0  0  0  0  0  0  0  0  0
    4.7751    0.0491   -1.2853 O   0  0  0  0  0  0  0  0  0  0  0  0
    4.3937   -0.7437   -1.7018 H   0  0  0  0  0  0  0  0  0  0  0  0
   -3.2930   -1.8394   -1.1199 N   0  0  0  0  0  0  0  0  0  0  0  0
   -4.4496   -1.6060   -0.7764 O   0  0  0  0  0  0  0  0  0  0  0  0
   -2.9371   -2.7997   -1.7990 O   0  0  0  0  0  0  0  0  0  0  0  0
  1  6  2  0  0  0  0
  1  2  1  0  0  0  0
  2  3  2  0  0  0  0
  3  4  1  0  0  0  0
  4  9  1  0  0  0  0
  5 10  1  0  0  0  0
  5  4  2  0  0  0  0
  6  5  1  0  0  0  0
  7  1  1  0  0  0  0
  8  2  1  0  0  0  0
 12 11  3  0  0  0  0
 14 13  1  0  0  0  0
 15 16  2  0  0  0  0
 15  6  1  0  0  0  0
 17 15  2  0  0  0  0
M  RAD  2   3   2  13   2
M  END
