Coordinates from ORCA-job 4-NO2-Ph-N2-OH-B3LYPG-6-31G_dp-MTMO-d009-169-n900
 OpenBabel09051908013D

 17 16  0  0  0  0  0  0  0  0999 V2000
   -1.0498   -1.4884   -1.2723 C   0  0  0  0  0  0  0  0  0  0  0  0
    0.1846   -0.8652   -1.0783 C   0  0  0  0  0  0  0  0  0  0  0  0
    0.1873    0.2929   -0.3306 C   0  0  0  0  0  0  0  0  0  0  0  0
   -0.9156    0.8907    0.2422 C   0  0  0  0  0  0  0  0  0  0  0  0
   -2.1485    0.2637    0.0454 C   0  0  0  0  0  0  0  0  0  0  0  0
   -2.1886   -0.9111   -0.7070 C   0  0  0  0  0  0  0  0  0  0  0  0
   -1.1453   -2.4025   -1.8450 H   0  0  0  0  0  0  0  0  0  0  0  0
    1.1053   -1.2627   -1.4909 H   0  0  0  0  0  0  0  0  0  0  0  0
   -0.8230    1.8058    0.8154 H   0  0  0  0  0  0  0  0  0  0  0  0
   -3.0661    0.6637    0.4582 H   0  0  0  0  0  0  0  0  0  0  0  0
    1.8533    1.2194   -0.0150 N   0  0  0  0  0  0  0  0  0  0  0  0
    2.6789    0.5431   -0.6001 N   0  0  0  0  0  0  0  0  0  0  0  0
    3.9582    1.1230   -0.4439 O   0  0  0  0  0  0  0  0  0  0  0  0
    4.5137    0.5049   -0.9433 H   0  0  0  0  0  0  0  0  0  0  0  0
   -3.4896   -1.5711   -0.9154 N   0  0  0  0  0  0  0  0  0  0  0  0
   -4.4805   -1.0485   -0.4080 O   0  0  0  0  0  0  0  0  0  0  0  0
   -3.5034   -2.6030   -1.5845 O   0  0  0  0  0  0  0  0  0  0  0  0
  1  2  2  0  0  0  0
  1  6  1  0  0  0  0
  2  3  1  0  0  0  0
  3  4  2  0  0  0  0
  4  9  1  0  0  0  0
  5  4  1  0  0  0  0
  5 10  1  0  0  0  0
  6  5  2  0  0  0  0
  7  1  1  0  0  0  0
  8  2  1  0  0  0  0
 12 13  1  0  0  0  0
 12 11  1  0  0  0  0
 14 13  1  0  0  0  0
 15  6  1  0  0  0  0
 15 16  2  0  0  0  0
 17 15  2  0  0  0  0
M  RAD  3   3   2  11   3  12   2
M  END
