Coordinates from ORCA-job 4-NO2-Ph-N2-OH-B3LYPG-6-31G_dp-MTMO-d009-169-n900
 OpenBabel09051908023D

 17 16  0  0  0  0  0  0  0  0999 V2000
    0.5849    0.7392    0.4069 C   0  0  0  0  0  0  0  0  0  0  0  0
    0.3937    1.1992    1.7009 C   0  0  0  0  0  0  0  0  0  0  0  0
   -0.7878    0.8797    2.3882 C   0  0  0  0  0  0  0  0  0  0  0  0
   -1.7752    0.0964    1.7710 C   0  0  0  0  0  0  0  0  0  0  0  0
   -1.5853   -0.3654    0.4748 C   0  0  0  0  0  0  0  0  0  0  0  0
   -0.4070   -0.0394   -0.1955 C   0  0  0  0  0  0  0  0  0  0  0  0
    1.4856    0.9702   -0.1479 H   0  0  0  0  0  0  0  0  0  0  0  0
    1.1422    1.8051    2.1993 H   0  0  0  0  0  0  0  0  0  0  0  0
   -2.6885   -0.1501    2.3070 H   0  0  0  0  0  0  0  0  0  0  0  0
   -2.3305   -0.9709   -0.0256 H   0  0  0  0  0  0  0  0  0  0  0  0
    0.1627   -4.3927  -11.7892 N   0  0  0  0  0  0  0  0  0  0  0  0
    0.6254   -5.1027  -11.0797 N   0  0  0  0  0  0  0  0  0  0  0  0
   -0.9189    1.3584    3.6507 O   0  0  0  0  0  0  0  0  0  0  0  0
   -1.7680    1.0795    4.0187 H   0  0  0  0  0  0  0  0  0  0  0  0
   -0.2065   -0.5238   -1.5605 N   0  0  0  0  0  0  0  0  0  0  0  0
   -1.1002   -1.2072   -2.0642 O   0  0  0  0  0  0  0  0  0  0  0  0
    0.8444   -0.2210   -2.1279 O   0  0  0  0  0  0  0  0  0  0  0  0
  1  2  1  0  0  0  0
  2  8  1  0  0  0  0
  2  3  2  0  0  0  0
  3 13  1  0  0  0  0
  4  9  1  0  0  0  0
  4  3  1  0  0  0  0
  5  4  2  0  0  0  0
  6  1  2  0  0  0  0
  6  5  1  0  0  0  0
  7  1  1  0  0  0  0
 10  5  1  0  0  0  0
 11 12  3  0  0  0  0
 13 14  1  0  0  0  0
 15  6  1  0  0  0  0
 16 15  2  0  0  0  0
 17 15  2  0  0  0  0
M  END
