Coordinates from ORCA-job 4-NO2-Ph-N2-OH-B3LYPG-6-31G_dp-MTMO-d009-169-n900
 OpenBabel09051908023D

 17 16  0  0  0  0  0  0  0  0999 V2000
    0.5847    0.7399    0.4088 C   0  0  0  0  0  0  0  0  0  0  0  0
    0.3935    1.2000    1.7027 C   0  0  0  0  0  0  0  0  0  0  0  0
   -0.7880    0.8806    2.3900 C   0  0  0  0  0  0  0  0  0  0  0  0
   -1.7754    0.0972    1.7730 C   0  0  0  0  0  0  0  0  0  0  0  0
   -1.5854   -0.3647    0.4768 C   0  0  0  0  0  0  0  0  0  0  0  0
   -0.4071   -0.0388   -0.1935 C   0  0  0  0  0  0  0  0  0  0  0  0
    1.4854    0.9709   -0.1460 H   0  0  0  0  0  0  0  0  0  0  0  0
    1.1420    1.8060    2.2011 H   0  0  0  0  0  0  0  0  0  0  0  0
   -2.6887   -0.1492    2.3089 H   0  0  0  0  0  0  0  0  0  0  0  0
   -2.3306   -0.9702   -0.0236 H   0  0  0  0  0  0  0  0  0  0  0  0
    0.1638   -4.3986  -11.8038 N   0  0  0  0  0  0  0  0  0  0  0  0
    0.6265   -5.1081  -11.0938 N   0  0  0  0  0  0  0  0  0  0  0  0
   -0.9191    1.3594    3.6525 O   0  0  0  0  0  0  0  0  0  0  0  0
   -1.7682    1.0805    4.0205 H   0  0  0  0  0  0  0  0  0  0  0  0
   -0.2066   -0.5233   -1.5585 N   0  0  0  0  0  0  0  0  0  0  0  0
   -1.1003   -1.2067   -2.0622 O   0  0  0  0  0  0  0  0  0  0  0  0
    0.8443   -0.2205   -2.1259 O   0  0  0  0  0  0  0  0  0  0  0  0
  1  2  1  0  0  0  0
  2  8  1  0  0  0  0
  2  3  2  0  0  0  0
  3 13  1  0  0  0  0
  4  9  1  0  0  0  0
  4  3  1  0  0  0  0
  5  4  2  0  0  0  0
  6  1  2  0  0  0  0
  6  5  1  0  0  0  0
  7  1  1  0  0  0  0
 10  5  1  0  0  0  0
 11 12  3  0  0  0  0
 13 14  1  0  0  0  0
 15  6  1  0  0  0  0
 16 15  2  0  0  0  0
 17 15  2  0  0  0  0
M  END
