Coordinates from ORCA-job 4-NO2-Ph-N2-OH-B3LYPG-6-31G_dp-MTMO-d009-169-n900
 OpenBabel09051908013D

 17 16  0  0  0  0  0  0  0  0999 V2000
   -0.5507   -0.6026   -1.2873 C   0  0  0  0  0  0  0  0  0  0  0  0
    0.3571    0.0698   -0.4827 C   0  0  0  0  0  0  0  0  0  0  0  0
   -0.0164    0.4658    0.8115 C   0  0  0  0  0  0  0  0  0  0  0  0
   -1.3037    0.1837    1.2939 C   0  0  0  0  0  0  0  0  0  0  0  0
   -2.2140   -0.4899    0.4889 C   0  0  0  0  0  0  0  0  0  0  0  0
   -1.8291   -0.8769   -0.7943 C   0  0  0  0  0  0  0  0  0  0  0  0
   -0.2905   -0.9198   -2.2890 H   0  0  0  0  0  0  0  0  0  0  0  0
    1.3568    0.2996   -0.8337 H   0  0  0  0  0  0  0  0  0  0  0  0
   -1.5896    0.4924    2.2960 H   0  0  0  0  0  0  0  0  0  0  0  0
   -3.2134   -0.7209    0.8351 H   0  0  0  0  0  0  0  0  0  0  0  0
    4.6724    0.0274   -4.6588 N   0  0  0  0  0  0  0  0  0  0  0  0
    3.9450    0.0719   -3.8279 N   0  0  0  0  0  0  0  0  0  0  0  0
    0.9141    1.1208    1.5509 O   0  0  0  0  0  0  0  0  0  0  0  0
    0.5454    1.3458    2.4154 H   0  0  0  0  0  0  0  0  0  0  0  0
   -2.7868   -1.5854   -1.6420 N   0  0  0  0  0  0  0  0  0  0  0  0
   -3.9068   -1.8101   -1.1788 O   0  0  0  0  0  0  0  0  0  0  0  0
   -2.4189   -1.9170   -2.7703 O   0  0  0  0  0  0  0  0  0  0  0  0
  1  6  2  0  0  0  0
  1  2  1  0  0  0  0
  2  3  2  0  0  0  0
  3  4  1  0  0  0  0
  3 13  1  0  0  0  0
  4  9  1  0  0  0  0
  5 10  1  0  0  0  0
  5  4  2  0  0  0  0
  6  5  1  0  0  0  0
  7  1  1  0  0  0  0
  8  2  1  0  0  0  0
 11 12  3  0  0  0  0
 13 14  1  0  0  0  0
 15 16  2  0  0  0  0
 15  6  1  0  0  0  0
 17 15  2  0  0  0  0
M  END
