Coordinates from ORCA-job 4-NO2-Ph-N2-OH-B3LYPG-6-31G_dp-MTMO-d009-169-n900
 OpenBabel09051908013D

 17 16  0  0  0  0  0  0  0  0999 V2000
   -0.5416   -0.6157   -1.3271 C   0  0  0  0  0  0  0  0  0  0  0  0
    0.3807    0.0557   -0.5384 C   0  0  0  0  0  0  0  0  0  0  0  0
    0.0262    0.4602    0.7585 C   0  0  0  0  0  0  0  0  0  0  0  0
   -1.2560    0.1877    1.2593 C   0  0  0  0  0  0  0  0  0  0  0  0
   -2.1808   -0.4850    0.4701 C   0  0  0  0  0  0  0  0  0  0  0  0
   -1.8149   -0.8805   -0.8160 C   0  0  0  0  0  0  0  0  0  0  0  0
   -0.2968   -0.9396   -2.3305 H   0  0  0  0  0  0  0  0  0  0  0  0
    1.3766    0.2775   -0.9051 H   0  0  0  0  0  0  0  0  0  0  0  0
   -1.5268    0.5031    2.2636 H   0  0  0  0  0  0  0  0  0  0  0  0
   -3.1768   -0.7088    0.8305 H   0  0  0  0  0  0  0  0  0  0  0  0
    4.4826    0.0613   -4.3974 N   0  0  0  0  0  0  0  0  0  0  0  0
    3.7415    0.0979   -3.5781 N   0  0  0  0  0  0  0  0  0  0  0  0
    0.9698    1.1140    1.4822 O   0  0  0  0  0  0  0  0  0  0  0  0
    0.6135    1.3459    2.3502 H   0  0  0  0  0  0  0  0  0  0  0  0
   -2.7875   -1.5880   -1.6474 N   0  0  0  0  0  0  0  0  0  0  0  0
   -3.9025   -1.8041   -1.1686 O   0  0  0  0  0  0  0  0  0  0  0  0
   -2.4362   -1.9273   -2.7788 O   0  0  0  0  0  0  0  0  0  0  0  0
  1  6  2  0  0  0  0
  1  2  1  0  0  0  0
  2  3  2  0  0  0  0
  3  4  1  0  0  0  0
  3 13  1  0  0  0  0
  4  9  1  0  0  0  0
  5 10  1  0  0  0  0
  5  4  2  0  0  0  0
  6  5  1  0  0  0  0
  7  1  1  0  0  0  0
  8  2  1  0  0  0  0
 11 12  3  0  0  0  0
 13 14  1  0  0  0  0
 15 16  2  0  0  0  0
 15  6  1  0  0  0  0
 17 15  2  0  0  0  0
M  END
