Coordinates from ORCA-job 4-NO2-Ph-N2-OH-B3LYPG-6-31G_dp-MTMO-d009-169-n900
 OpenBabel09051908013D

 17 16  0  0  0  0  0  0  0  0999 V2000
    0.6145    0.5983    0.0367 C   0  0  0  0  0  0  0  0  0  0  0  0
    0.4287    1.0316    1.3406 C   0  0  0  0  0  0  0  0  0  0  0  0
   -0.7513    0.7007    2.0251 C   0  0  0  0  0  0  0  0  0  0  0  0
   -1.7426   -0.0671    1.3950 C   0  0  0  0  0  0  0  0  0  0  0  0
   -1.5581   -0.5021    0.0887 C   0  0  0  0  0  0  0  0  0  0  0  0
   -0.3812   -0.1650   -0.5786 C   0  0  0  0  0  0  0  0  0  0  0  0
    1.5140    0.8388   -0.5161 H   0  0  0  0  0  0  0  0  0  0  0  0
    1.1804    1.6251    1.8492 H   0  0  0  0  0  0  0  0  0  0  0  0
   -2.6548   -0.3227    1.9286 H   0  0  0  0  0  0  0  0  0  0  0  0
   -2.3065   -1.0951   -0.4219 H   0  0  0  0  0  0  0  0  0  0  0  0
   -0.0532   -3.2577   -8.9472 N   0  0  0  0  0  0  0  0  0  0  0  0
    0.3898   -4.0299   -8.2922 N   0  0  0  0  0  0  0  0  0  0  0  0
   -0.8769    1.1532    3.2978 O   0  0  0  0  0  0  0  0  0  0  0  0
   -1.7254    0.8688    3.6628 H   0  0  0  0  0  0  0  0  0  0  0  0
   -0.1864   -0.6213   -1.9540 N   0  0  0  0  0  0  0  0  0  0  0  0
   -1.0836   -1.2915   -2.4691 O   0  0  0  0  0  0  0  0  0  0  0  0
    0.8636   -0.3098   -2.5184 O   0  0  0  0  0  0  0  0  0  0  0  0
  1  2  1  0  0  0  0
  2  8  1  0  0  0  0
  2  3  2  0  0  0  0
  3 13  1  0  0  0  0
  4  9  1  0  0  0  0
  4  3  1  0  0  0  0
  5  4  2  0  0  0  0
  6  1  2  0  0  0  0
  6  5  1  0  0  0  0
  7  1  1  0  0  0  0
 10  5  1  0  0  0  0
 11 12  3  0  0  0  0
 13 14  1  0  0  0  0
 15  6  1  0  0  0  0
 16 15  2  0  0  0  0
 17 15  2  0  0  0  0
M  END
