Coordinates from ORCA-job 4-NO2-Ph-N2-OH-B3LYPG-6-31G_dp-MTMO-d009-169-n900
 OpenBabel09051908013D

 17 16  0  0  0  0  0  0  0  0999 V2000
   -0.9026   -0.9433   -1.6477 C   0  0  0  0  0  0  0  0  0  0  0  0
    0.2579   -0.3369   -1.1904 C   0  0  0  0  0  0  0  0  0  0  0  0
    0.2837    0.2430    0.0878 C   0  0  0  0  0  0  0  0  0  0  0  0
   -0.8573    0.2120    0.9040 C   0  0  0  0  0  0  0  0  0  0  0  0
   -2.0204   -0.3949    0.4464 C   0  0  0  0  0  0  0  0  0  0  0  0
   -2.0321   -0.9670   -0.8252 C   0  0  0  0  0  0  0  0  0  0  0  0
   -0.9531   -1.3986   -2.6286 H   0  0  0  0  0  0  0  0  0  0  0  0
    1.1533   -0.2973   -1.8004 H   0  0  0  0  0  0  0  0  0  0  0  0
   -0.8322    0.6621    1.8931 H   0  0  0  0  0  0  0  0  0  0  0  0
   -2.9162   -0.4340    1.0535 H   0  0  0  0  0  0  0  0  0  0  0  0
    4.6665    1.3418   -1.8192 N   0  0  0  0  0  0  0  0  0  0  0  0
    3.7572    0.7791   -2.0978 N   0  0  0  0  0  0  0  0  0  0  0  0
    1.4474    0.8222    0.4807 O   0  0  0  0  0  0  0  0  0  0  0  0
    1.3474    1.1828    1.3719 H   0  0  0  0  0  0  0  0  0  0  0  0
   -3.2561   -1.6054   -1.3074 N   0  0  0  0  0  0  0  0  0  0  0  0
   -4.2365   -1.6047   -0.5604 O   0  0  0  0  0  0  0  0  0  0  0  0
   -3.2359   -2.1064   -2.4331 O   0  0  0  0  0  0  0  0  0  0  0  0
  1  2  2  0  0  0  0
  1  6  1  0  0  0  0
  2  3  1  0  0  0  0
  3 13  1  0  0  0  0
  3  4  2  0  0  0  0
  4  9  1  0  0  0  0
  5  4  1  0  0  0  0
  5 10  1  0  0  0  0
  6  5  2  0  0  0  0
  7  1  1  0  0  0  0
  8  2  1  0  0  0  0
 12 11  3  0  0  0  0
 13 14  1  0  0  0  0
 15  6  1  0  0  0  0
 15 16  2  0  0  0  0
 17 15  2  0  0  0  0
M  END
