Coordinates from ORCA-job 4-NO2-Ph-N2-OH-B3LYPG-6-31G_dp-MTMO-d009-169-n900
 OpenBabel09051908013D

 17 16  0  0  0  0  0  0  0  0999 V2000
    0.5999    0.4309   -0.2794 C   0  0  0  0  0  0  0  0  0  0  0  0
    0.4880    0.8554    1.0360 C   0  0  0  0  0  0  0  0  0  0  0  0
   -0.6760    0.5678    1.7664 C   0  0  0  0  0  0  0  0  0  0  0  0
   -1.7254   -0.1481    1.1699 C   0  0  0  0  0  0  0  0  0  0  0  0
   -1.6150   -0.5741   -0.1478 C   0  0  0  0  0  0  0  0  0  0  0  0
   -0.4532   -0.2803   -0.8609 C   0  0  0  0  0  0  0  0  0  0  0  0
    1.4853    0.6388   -0.8672 H   0  0  0  0  0  0  0  0  0  0  0  0
    1.2859    1.4090    1.5183 H   0  0  0  0  0  0  0  0  0  0  0  0
   -2.6249   -0.3705    1.7389 H   0  0  0  0  0  0  0  0  0  0  0  0
   -2.4096   -1.1277   -0.6322 H   0  0  0  0  0  0  0  0  0  0  0  0
    0.1927   -2.6150   -7.1193 N   0  0  0  0  0  0  0  0  0  0  0  0
    0.3411   -2.8672   -6.0533 N   0  0  0  0  0  0  0  0  0  0  0  0
   -0.7285    1.0089    3.0482 O   0  0  0  0  0  0  0  0  0  0  0  0
   -1.5725    0.7558    3.4456 H   0  0  0  0  0  0  0  0  0  0  0  0
   -0.3361   -0.7266   -2.2489 N   0  0  0  0  0  0  0  0  0  0  0  0
   -1.2829   -1.3492   -2.7339 O   0  0  0  0  0  0  0  0  0  0  0  0
    0.7022   -0.4535   -2.8534 O   0  0  0  0  0  0  0  0  0  0  0  0
  1  2  1  0  0  0  0
  2  8  1  0  0  0  0
  2  3  2  0  0  0  0
  3 13  1  0  0  0  0
  4  9  1  0  0  0  0
  4  3  1  0  0  0  0
  5  4  2  0  0  0  0
  6  1  2  0  0  0  0
  6  5  1  0  0  0  0
  7  1  1  0  0  0  0
 10  5  1  0  0  0  0
 11 12  3  0  0  0  0
 13 14  1  0  0  0  0
 15  6  1  0  0  0  0
 16 15  2  0  0  0  0
 17 15  2  0  0  0  0
M  END
