Coordinates from ORCA-job 4-NO2-Ph-N2-OH-B3LYPG-6-31G_dp-MTMO-d009-169-n900
 OpenBabel09051908013D

 17 17  0  0  0  0  0  0  0  0999 V2000
   -1.0777   -1.6166   -1.2756 C   0  0  0  0  0  0  0  0  0  0  0  0
    0.1918   -1.1004   -1.3144 C   0  0  0  0  0  0  0  0  0  0  0  0
    0.5190    0.2147   -0.7204 C   0  0  0  0  0  0  0  0  0  0  0  0
   -0.6397    0.8888   -0.0939 C   0  0  0  0  0  0  0  0  0  0  0  0
   -1.8889    0.3241   -0.0864 C   0  0  0  0  0  0  0  0  0  0  0  0
   -2.1317   -0.9251   -0.6684 C   0  0  0  0  0  0  0  0  0  0  0  0
   -1.2766   -2.5836   -1.7240 H   0  0  0  0  0  0  0  0  0  0  0  0
    1.0158   -1.6287   -1.7801 H   0  0  0  0  0  0  0  0  0  0  0  0
   -0.4411    1.8564    0.3520 H   0  0  0  0  0  0  0  0  0  0  0  0
   -2.7132    0.8524    0.3798 H   0  0  0  0  0  0  0  0  0  0  0  0
    1.4594    0.6208   -0.7420 N   0  0  0  0  0  0  0  0  0  0  0  0
    2.5507    1.1381   -0.8442 N   0  0  0  0  0  0  0  0  0  0  0  0
    3.3488    0.7926    0.2739 O   0  0  0  0  0  0  0  0  0  0  0  0
    4.1796    1.2566    0.0803 H   0  0  0  0  0  0  0  0  0  0  0  0
   -3.4520   -1.4922   -0.6432 N   0  0  0  0  0  0  0  0  0  0  0  0
   -4.3528   -0.8451   -0.0923 O   0  0  0  0  0  0  0  0  0  0  0  0
   -3.6205   -2.5982   -1.1741 O   0  0  0  0  0  0  0  0  0  0  0  0
  1  6  1  0  0  0  0
  2  1  2  0  0  0  0
  2  3  1  0  0  0  0
  3  4  2  0  0  0  0
  4  5  1  0  0  0  0
  4  9  1  0  0  0  0
  5 10  1  0  0  0  0
  6 15  1  0  0  0  0
  6  5  2  0  0  0  0
  7  1  1  0  0  0  0
  8  2  1  0  0  0  0
 11  3  1  0  0  0  0
 12 11  1  0  0  0  0
 12 13  1  0  0  0  0
 14 13  1  0  0  0  0
 15 16  2  0  0  0  0
 17 15  2  0  0  0  0
M  RAD  2  11   2  12   2
M  END
