Coordinates from ORCA-job 4-NO2-Ph-N2-OH-B3LYPG-6-31G_dp-MTMO-d009-169-n900
 OpenBabel09051908013D

 17 16  0  0  0  0  0  0  0  0999 V2000
    0.6070    0.4002   -0.3713 C   0  0  0  0  0  0  0  0  0  0  0  0
    0.5012    0.8144    0.9479 C   0  0  0  0  0  0  0  0  0  0  0  0
   -0.6604    0.5238    1.6812 C   0  0  0  0  0  0  0  0  0  0  0  0
   -1.7136   -0.1852    1.0827 C   0  0  0  0  0  0  0  0  0  0  0  0
   -1.6094   -0.6010   -0.2388 C   0  0  0  0  0  0  0  0  0  0  0  0
   -0.4499   -0.3041   -0.9546 C   0  0  0  0  0  0  0  0  0  0  0  0
    1.4907    0.6112   -0.9605 H   0  0  0  0  0  0  0  0  0  0  0  0
    1.3025    1.3623    1.4312 H   0  0  0  0  0  0  0  0  0  0  0  0
   -2.6114   -0.4105    1.6533 H   0  0  0  0  0  0  0  0  0  0  0  0
   -2.4075   -1.1489   -0.7240 H   0  0  0  0  0  0  0  0  0  0  0  0
    0.0947   -2.3305   -6.4218 N   0  0  0  0  0  0  0  0  0  0  0  0
    0.3170   -2.6772   -5.3959 N   0  0  0  0  0  0  0  0  0  0  0  0
   -0.7068    0.9548    2.9664 O   0  0  0  0  0  0  0  0  0  0  0  0
   -1.5496    0.7005    3.3655 H   0  0  0  0  0  0  0  0  0  0  0  0
   -0.3397   -0.7386   -2.3468 N   0  0  0  0  0  0  0  0  0  0  0  0
   -1.2899   -1.3551   -2.8334 O   0  0  0  0  0  0  0  0  0  0  0  0
    0.6961   -0.4618   -2.9541 O   0  0  0  0  0  0  0  0  0  0  0  0
  1  2  1  0  0  0  0
  2  8  1  0  0  0  0
  2  3  2  0  0  0  0
  3 13  1  0  0  0  0
  4  9  1  0  0  0  0
  4  3  1  0  0  0  0
  5  4  2  0  0  0  0
  6  1  2  0  0  0  0
  6  5  1  0  0  0  0
  7  1  1  0  0  0  0
 10  5  1  0  0  0  0
 11 12  3  0  0  0  0
 13 14  1  0  0  0  0
 15  6  1  0  0  0  0
 16 15  2  0  0  0  0
 17 15  2  0  0  0  0
M  END
