Coordinates from ORCA-job 4-NO2-Ph-N2-OH-B3LYPG-6-31G_dp-MTMO-d009-169-n900
 OpenBabel09051908023D

 17 16  0  0  0  0  0  0  0  0999 V2000
    0.5960    0.6848    0.2646 C   0  0  0  0  0  0  0  0  0  0  0  0
    0.4072    1.1351    1.5622 C   0  0  0  0  0  0  0  0  0  0  0  0
   -0.7736    0.8116    2.2489 C   0  0  0  0  0  0  0  0  0  0  0  0
   -1.7627    0.0340    1.6273 C   0  0  0  0  0  0  0  0  0  0  0  0
   -1.5751   -0.4181    0.3273 C   0  0  0  0  0  0  0  0  0  0  0  0
   -0.3976   -0.0882   -0.3423 C   0  0  0  0  0  0  0  0  0  0  0  0
    1.4961    0.9192   -0.2899 H   0  0  0  0  0  0  0  0  0  0  0  0
    1.1571    1.7365    2.0642 H   0  0  0  0  0  0  0  0  0  0  0  0
   -2.6754   -0.2157    2.1627 H   0  0  0  0  0  0  0  0  0  0  0  0
   -2.3217   -1.0189   -0.1766 H   0  0  0  0  0  0  0  0  0  0  0  0
    0.0814   -3.9529  -10.6968 N   0  0  0  0  0  0  0  0  0  0  0  0
    0.5359   -4.6941  -10.0144 N   0  0  0  0  0  0  0  0  0  0  0  0
   -0.9022    1.2808    3.5152 O   0  0  0  0  0  0  0  0  0  0  0  0
   -1.7510    1.0000    3.8824 H   0  0  0  0  0  0  0  0  0  0  0  0
   -0.1996   -0.5623   -1.7113 N   0  0  0  0  0  0  0  0  0  0  0  0
   -1.0948   -1.2408   -2.2189 O   0  0  0  0  0  0  0  0  0  0  0  0
    0.8508   -0.2564   -2.2779 O   0  0  0  0  0  0  0  0  0  0  0  0
  1  2  1  0  0  0  0
  2  8  1  0  0  0  0
  2  3  2  0  0  0  0
  3 13  1  0  0  0  0
  4  9  1  0  0  0  0
  4  3  1  0  0  0  0
  5  4  2  0  0  0  0
  6  1  2  0  0  0  0
  6  5  1  0  0  0  0
  7  1  1  0  0  0  0
 10  5  1  0  0  0  0
 11 12  3  0  0  0  0
 13 14  1  0  0  0  0
 15  6  1  0  0  0  0
 16 15  2  0  0  0  0
 17 15  2  0  0  0  0
M  END
