Coordinates from ORCA-job 4-NO2-Ph-N2-OH-B3LYPG-6-31G_dp-MTMO-d009-169-n900
 OpenBabel09051908023D

 17 16  0  0  0  0  0  0  0  0999 V2000
    0.6001    0.6652    0.2132 C   0  0  0  0  0  0  0  0  0  0  0  0
    0.4121    1.1119    1.5123 C   0  0  0  0  0  0  0  0  0  0  0  0
   -0.7684    0.7867    2.1986 C   0  0  0  0  0  0  0  0  0  0  0  0
   -1.7581    0.0113    1.5753 C   0  0  0  0  0  0  0  0  0  0  0  0
   -1.5715   -0.4369    0.2739 C   0  0  0  0  0  0  0  0  0  0  0  0
   -0.3941   -0.1055   -0.3954 C   0  0  0  0  0  0  0  0  0  0  0  0
    1.5000    0.9009   -0.3410 H   0  0  0  0  0  0  0  0  0  0  0  0
    1.1625    1.7114    2.0156 H   0  0  0  0  0  0  0  0  0  0  0  0
   -2.6707   -0.2395    2.1104 H   0  0  0  0  0  0  0  0  0  0  0  0
   -2.3185   -1.0361   -0.2315 H   0  0  0  0  0  0  0  0  0  0  0  0
    0.0520   -3.7958  -10.3032 N   0  0  0  0  0  0  0  0  0  0  0  0
    0.5034   -4.5453   -9.6279 N   0  0  0  0  0  0  0  0  0  0  0  0
   -0.8962    1.2523    3.4664 O   0  0  0  0  0  0  0  0  0  0  0  0
   -1.7449    0.9708    3.8332 H   0  0  0  0  0  0  0  0  0  0  0  0
   -0.1970   -0.5758   -1.7658 N   0  0  0  0  0  0  0  0  0  0  0  0
   -1.0928   -1.2524   -2.2750 O   0  0  0  0  0  0  0  0  0  0  0  0
    0.8532   -0.2687   -2.3321 O   0  0  0  0  0  0  0  0  0  0  0  0
  1  2  1  0  0  0  0
  2  8  1  0  0  0  0
  2  3  2  0  0  0  0
  3 13  1  0  0  0  0
  4  9  1  0  0  0  0
  4  3  1  0  0  0  0
  5  4  2  0  0  0  0
  6  1  2  0  0  0  0
  6  5  1  0  0  0  0
  7  1  1  0  0  0  0
 10  5  1  0  0  0  0
 11 12  3  0  0  0  0
 13 14  1  0  0  0  0
 15  6  1  0  0  0  0
 16 15  2  0  0  0  0
 17 15  2  0  0  0  0
M  END
