Coordinates from ORCA-job 4-NO2-Ph-N2-OH-B3LYPG-6-31G_dp-MTMO-d009-169-n900
 OpenBabel09051908013D

 17 16  0  0  0  0  0  0  0  0999 V2000
   -0.9439   -1.2332   -1.1290 C   0  0  0  0  0  0  0  0  0  0  0  0
    0.1158   -0.3873   -0.7640 C   0  0  0  0  0  0  0  0  0  0  0  0
   -0.2340    0.6849   -0.0101 C   0  0  0  0  0  0  0  0  0  0  0  0
   -1.4606    1.0762    0.4550 C   0  0  0  0  0  0  0  0  0  0  0  0
   -2.5124    0.2218    0.0842 C   0  0  0  0  0  0  0  0  0  0  0  0
   -2.2304   -0.9041   -0.6939 C   0  0  0  0  0  0  0  0  0  0  0  0
   -0.7899   -2.1220   -1.7300 H   0  0  0  0  0  0  0  0  0  0  0  0
    1.1528   -0.5775   -1.0662 H   0  0  0  0  0  0  0  0  0  0  0  0
   -1.6343    1.9622    1.0564 H   0  0  0  0  0  0  0  0  0  0  0  0
   -3.5336    0.4191    0.3895 H   0  0  0  0  0  0  0  0  0  0  0  0
    2.7863    1.5521    0.0214 N   0  0  0  0  0  0  0  0  0  0  0  0
    3.0133    0.6119   -0.6136 N   0  0  0  0  0  0  0  0  0  0  0  0
    4.4806    0.3612   -1.0269 O   0  0  0  0  0  0  0  0  0  0  0  0
    4.3629   -0.4679   -1.5201 H   0  0  0  0  0  0  0  0  0  0  0  0
   -3.3467   -1.7871   -1.0764 N   0  0  0  0  0  0  0  0  0  0  0  0
   -4.4728   -1.4823   -0.6879 O   0  0  0  0  0  0  0  0  0  0  0  0
   -3.0820   -2.7734   -1.7615 O   0  0  0  0  0  0  0  0  0  0  0  0
  1  2  2  0  0  0  0
  1  6  1  0  0  0  0
  2  3  1  0  0  0  0
  3  4  2  0  0  0  0
  4  9  1  0  0  0  0
  5 10  1  0  0  0  0
  5  4  1  0  0  0  0
  6  5  2  0  0  0  0
  7  1  1  0  0  0  0
  8  2  1  0  0  0  0
 12 11  2  0  0  0  0
 13 12  1  0  0  0  0
 14 13  1  0  0  0  0
 15  6  1  0  0  0  0
 15 16  2  0  0  0  0
 17 15  2  0  0  0  0
M  RAD  2   3   2  11   2
M  END
