Coordinates from ORCA-job 4-NO2-Ph-N2-OH-B3LYPG-6-31G_dp-MTMO-d009-169-n900
 OpenBabel09051908013D

 17 16  0  0  0  0  0  0  0  0999 V2000
   -0.5387   -0.6234   -1.3476 C   0  0  0  0  0  0  0  0  0  0  0  0
    0.3914    0.0474   -0.5677 C   0  0  0  0  0  0  0  0  0  0  0  0
    0.0477    0.4568    0.7306 C   0  0  0  0  0  0  0  0  0  0  0  0
   -1.2317    0.1898    1.2416 C   0  0  0  0  0  0  0  0  0  0  0  0
   -2.1642   -0.4823    0.4612 C   0  0  0  0  0  0  0  0  0  0  0  0
   -1.8091   -0.8827   -0.8264 C   0  0  0  0  0  0  0  0  0  0  0  0
   -0.3021   -0.9509   -2.3518 H   0  0  0  0  0  0  0  0  0  0  0  0
    1.3854    0.2648   -0.9428 H   0  0  0  0  0  0  0  0  0  0  0  0
   -1.4941    0.5090    2.2469 H   0  0  0  0  0  0  0  0  0  0  0  0
   -3.1583   -0.7019    0.8294 H   0  0  0  0  0  0  0  0  0  0  0  0
    4.3957    0.0836   -4.2617 N   0  0  0  0  0  0  0  0  0  0  0  0
    3.6417    0.1117   -3.4540 N   0  0  0  0  0  0  0  0  0  0  0  0
    0.9985    1.1099    1.4455 O   0  0  0  0  0  0  0  0  0  0  0  0
    0.6490    1.3456    2.3152 H   0  0  0  0  0  0  0  0  0  0  0  0
   -2.7900   -1.5894   -1.6486 N   0  0  0  0  0  0  0  0  0  0  0  0
   -3.9022   -1.8004   -1.1611 O   0  0  0  0  0  0  0  0  0  0  0  0
   -2.4481   -1.9332   -2.7815 O   0  0  0  0  0  0  0  0  0  0  0  0
  1  6  2  0  0  0  0
  1  2  1  0  0  0  0
  2  3  2  0  0  0  0
  3  4  1  0  0  0  0
  3 13  1  0  0  0  0
  4  9  1  0  0  0  0
  5 10  1  0  0  0  0
  5  4  2  0  0  0  0
  6  5  1  0  0  0  0
  7  1  1  0  0  0  0
  8  2  1  0  0  0  0
 11 12  3  0  0  0  0
 13 14  1  0  0  0  0
 15 16  2  0  0  0  0
 15  6  1  0  0  0  0
 17 15  2  0  0  0  0
M  END
