Coordinates from ORCA-job 4-NO2-Ph-N2-OH-B3LYPG-6-31G_dp-MTMO-d009-169-n900
 OpenBabel09051908023D

 17 16  0  0  0  0  0  0  0  0999 V2000
    0.5950    0.6899    0.2779 C   0  0  0  0  0  0  0  0  0  0  0  0
    0.4059    1.1411    1.5752 C   0  0  0  0  0  0  0  0  0  0  0  0
   -0.7749    0.8180    2.2619 C   0  0  0  0  0  0  0  0  0  0  0  0
   -1.7638    0.0398    1.6408 C   0  0  0  0  0  0  0  0  0  0  0  0
   -1.5761   -0.4132    0.3412 C   0  0  0  0  0  0  0  0  0  0  0  0
   -0.3984   -0.0836   -0.3285 C   0  0  0  0  0  0  0  0  0  0  0  0
    1.4951    0.9239   -0.2766 H   0  0  0  0  0  0  0  0  0  0  0  0
    1.1557    1.7429    2.0768 H   0  0  0  0  0  0  0  0  0  0  0  0
   -2.6767   -0.2095    2.1762 H   0  0  0  0  0  0  0  0  0  0  0  0
   -2.3225   -1.0145   -0.1625 H   0  0  0  0  0  0  0  0  0  0  0  0
    0.0890   -3.9937  -10.7988 N   0  0  0  0  0  0  0  0  0  0  0  0
    0.5443   -4.7326  -10.1144 N   0  0  0  0  0  0  0  0  0  0  0  0
   -0.9037    1.2882    3.5279 O   0  0  0  0  0  0  0  0  0  0  0  0
   -1.7526    1.0075    3.8951 H   0  0  0  0  0  0  0  0  0  0  0  0
   -0.2002   -0.5588   -1.6971 N   0  0  0  0  0  0  0  0  0  0  0  0
   -1.0953   -1.2378   -2.2043 O   0  0  0  0  0  0  0  0  0  0  0  0
    0.8502   -0.2532   -2.2638 O   0  0  0  0  0  0  0  0  0  0  0  0
  1  2  1  0  0  0  0
  2  8  1  0  0  0  0
  2  3  2  0  0  0  0
  3 13  1  0  0  0  0
  4  9  1  0  0  0  0
  4  3  1  0  0  0  0
  5  4  2  0  0  0  0
  6  1  2  0  0  0  0
  6  5  1  0  0  0  0
  7  1  1  0  0  0  0
 10  5  1  0  0  0  0
 11 12  3  0  0  0  0
 13 14  1  0  0  0  0
 15  6  1  0  0  0  0
 16 15  2  0  0  0  0
 17 15  2  0  0  0  0
M  END
