Coordinates from ORCA-job 4-NO2-Ph-N2-OH-B3LYPG-6-31G_dp-MTMO-d009-169-n900
 OpenBabel09051908013D

 17 16  0  0  0  0  0  0  0  0999 V2000
   -0.5609   -0.5849   -1.2327 C   0  0  0  0  0  0  0  0  0  0  0  0
    0.3269    0.0884   -0.4070 C   0  0  0  0  0  0  0  0  0  0  0  0
   -0.0731    0.4730    0.8826 C   0  0  0  0  0  0  0  0  0  0  0  0
   -1.3671    0.1786    1.3389 C   0  0  0  0  0  0  0  0  0  0  0  0
   -2.2577   -0.4960    0.5128 C   0  0  0  0  0  0  0  0  0  0  0  0
   -1.8464   -0.8716   -0.7656 C   0  0  0  0  0  0  0  0  0  0  0  0
   -0.2801   -0.8936   -2.2316 H   0  0  0  0  0  0  0  0  0  0  0  0
    1.3313    0.3278   -0.7376 H   0  0  0  0  0  0  0  0  0  0  0  0
   -1.6736    0.4785    2.3377 H   0  0  0  0  0  0  0  0  0  0  0  0
   -3.2615   -0.7361    0.8391 H   0  0  0  0  0  0  0  0  0  0  0  0
    4.9194   -0.0174   -5.0041 N   0  0  0  0  0  0  0  0  0  0  0  0
    4.2053    0.0341   -4.1621 N   0  0  0  0  0  0  0  0  0  0  0  0
    0.8390    1.1293    1.6433 O   0  0  0  0  0  0  0  0  0  0  0  0
    0.4532    1.3452    2.5028 H   0  0  0  0  0  0  0  0  0  0  0  0
   -2.7828   -1.5813   -1.6356 N   0  0  0  0  0  0  0  0  0  0  0  0
   -3.9095   -1.8173   -1.1948 O   0  0  0  0  0  0  0  0  0  0  0  0
   -2.3915   -1.9024   -2.7591 O   0  0  0  0  0  0  0  0  0  0  0  0
  1  6  2  0  0  0  0
  1  2  1  0  0  0  0
  2  3  2  0  0  0  0
  3  4  1  0  0  0  0
  3 13  1  0  0  0  0
  4  9  1  0  0  0  0
  5 10  1  0  0  0  0
  5  4  2  0  0  0  0
  6  5  1  0  0  0  0
  7  1  1  0  0  0  0
  8  2  1  0  0  0  0
 11 12  3  0  0  0  0
 13 14  1  0  0  0  0
 15 16  2  0  0  0  0
 15  6  1  0  0  0  0
 17 15  2  0  0  0  0
M  END
