Coordinates from ORCA-job 4-NO2-Ph-N2-OH-B3LYPG-6-31G_dp-MTMO-d009-169-n900
 OpenBabel09051908013D

 17 16  0  0  0  0  0  0  0  0999 V2000
   -0.8423   -0.8587   -1.5991 C   0  0  0  0  0  0  0  0  0  0  0  0
    0.2734   -0.2241   -1.0736 C   0  0  0  0  0  0  0  0  0  0  0  0
    0.2245    0.3091    0.2241 C   0  0  0  0  0  0  0  0  0  0  0  0
   -0.9458    0.2025    0.9909 C   0  0  0  0  0  0  0  0  0  0  0  0
   -2.0641   -0.4328    0.4652 C   0  0  0  0  0  0  0  0  0  0  0  0
   -2.0017   -0.9574   -0.8253 C   0  0  0  0  0  0  0  0  0  0  0  0
   -0.8357   -1.2795   -2.5964 H   0  0  0  0  0  0  0  0  0  0  0  0
    1.1898   -0.1280   -1.6453 H   0  0  0  0  0  0  0  0  0  0  0  0
   -0.9779    0.6166    1.9953 H   0  0  0  0  0  0  0  0  0  0  0  0
   -2.9805   -0.5297    1.0339 H   0  0  0  0  0  0  0  0  0  0  0  0
    4.7840    1.0449   -2.3311 N   0  0  0  0  0  0  0  0  0  0  0  0
    3.7640    0.6257   -2.4015 N   0  0  0  0  0  0  0  0  0  0  0  0
    1.3462    0.9195    0.6849 O   0  0  0  0  0  0  0  0  0  0  0  0
    1.1945    1.2464    1.5817 H   0  0  0  0  0  0  0  0  0  0  0  0
   -3.1781   -1.6254   -1.3803 N   0  0  0  0  0  0  0  0  0  0  0  0
   -4.1871   -1.6909   -0.6754 O   0  0  0  0  0  0  0  0  0  0  0  0
   -3.0923   -2.0836   -2.5210 O   0  0  0  0  0  0  0  0  0  0  0  0
  1  2  2  0  0  0  0
  1  6  1  0  0  0  0
  2  3  1  0  0  0  0
  3 13  1  0  0  0  0
  3  4  2  0  0  0  0
  4  9  1  0  0  0  0
  5  4  1  0  0  0  0
  5 10  1  0  0  0  0
  6  5  2  0  0  0  0
  7  1  1  0  0  0  0
  8  2  1  0  0  0  0
 12 11  3  0  0  0  0
 13 14  1  0  0  0  0
 15  6  1  0  0  0  0
 15 16  2  0  0  0  0
 17 15  2  0  0  0  0
M  END
