Coordinates from ORCA-job 4-NO2-Ph-N2-OH-B3LYPG-6-31G_dp-MTMO-d009-169-n900
 OpenBabel09051908013D

 17 16  0  0  0  0  0  0  0  0999 V2000
   -0.5389   -0.6210   -1.3418 C   0  0  0  0  0  0  0  0  0  0  0  0
    0.3888    0.0500   -0.5592 C   0  0  0  0  0  0  0  0  0  0  0  0
    0.0417    0.4579    0.7387 C   0  0  0  0  0  0  0  0  0  0  0  0
   -1.2385    0.1892    1.2465 C   0  0  0  0  0  0  0  0  0  0  0  0
   -2.1687   -0.4831    0.4634 C   0  0  0  0  0  0  0  0  0  0  0  0
   -1.8103   -0.8819   -0.8237 C   0  0  0  0  0  0  0  0  0  0  0  0
   -0.3000   -0.9474   -2.3458 H   0  0  0  0  0  0  0  0  0  0  0  0
    1.3833    0.2688   -0.9318 H   0  0  0  0  0  0  0  0  0  0  0  0
   -1.5035    0.5073    2.2516 H   0  0  0  0  0  0  0  0  0  0  0  0
   -3.1634   -0.7040    0.8293 H   0  0  0  0  0  0  0  0  0  0  0  0
    4.4174    0.0762   -4.2999 N   0  0  0  0  0  0  0  0  0  0  0  0
    3.6677    0.1073   -3.4883 N   0  0  0  0  0  0  0  0  0  0  0  0
    0.9904    1.1112    1.4563 O   0  0  0  0  0  0  0  0  0  0  0  0
    0.6388    1.3458    2.3254 H   0  0  0  0  0  0  0  0  0  0  0  0
   -2.7886   -1.5889   -1.6487 N   0  0  0  0  0  0  0  0  0  0  0  0
   -3.9017   -1.8016   -1.1639 O   0  0  0  0  0  0  0  0  0  0  0  0
   -2.4438   -1.9313   -2.7812 O   0  0  0  0  0  0  0  0  0  0  0  0
  1  6  2  0  0  0  0
  1  2  1  0  0  0  0
  2  3  2  0  0  0  0
  3  4  1  0  0  0  0
  3 13  1  0  0  0  0
  4  9  1  0  0  0  0
  5 10  1  0  0  0  0
  5  4  2  0  0  0  0
  6  5  1  0  0  0  0
  7  1  1  0  0  0  0
  8  2  1  0  0  0  0
 11 12  3  0  0  0  0
 13 14  1  0  0  0  0
 15 16  2  0  0  0  0
 15  6  1  0  0  0  0
 17 15  2  0  0  0  0
M  END
