Coordinates from ORCA-job 4-NO2-Ph-N2-OH-B3LYPG-6-31G_dp-MTMO-d009-169-n900
 OpenBabel09051908013D

 17 16  0  0  0  0  0  0  0  0999 V2000
    0.6046    0.6436    0.1561 C   0  0  0  0  0  0  0  0  0  0  0  0
    0.4176    1.0859    1.4568 C   0  0  0  0  0  0  0  0  0  0  0  0
   -0.7628    0.7590    2.1427 C   0  0  0  0  0  0  0  0  0  0  0  0
   -1.7531   -0.0139    1.5173 C   0  0  0  0  0  0  0  0  0  0  0  0
   -1.5673   -0.4579    0.2143 C   0  0  0  0  0  0  0  0  0  0  0  0
   -0.3902   -0.1248   -0.4545 C   0  0  0  0  0  0  0  0  0  0  0  0
    1.5044    0.8807   -0.3977 H   0  0  0  0  0  0  0  0  0  0  0  0
    1.1684    1.6835    1.9617 H   0  0  0  0  0  0  0  0  0  0  0  0
   -2.6655   -0.2662    2.0521 H   0  0  0  0  0  0  0  0  0  0  0  0
   -2.3149   -1.0551   -0.2926 H   0  0  0  0  0  0  0  0  0  0  0  0
    0.0188   -3.6218   -9.8659 N   0  0  0  0  0  0  0  0  0  0  0  0
    0.4671   -4.3794   -9.1975 N   0  0  0  0  0  0  0  0  0  0  0  0
   -0.8896    1.2205    3.4121 O   0  0  0  0  0  0  0  0  0  0  0  0
   -1.7383    0.9381    3.7784 H   0  0  0  0  0  0  0  0  0  0  0  0
   -0.1940   -0.5906   -1.8266 N   0  0  0  0  0  0  0  0  0  0  0  0
   -1.0904   -1.2651   -2.3375 O   0  0  0  0  0  0  0  0  0  0  0  0
    0.8561   -0.2821   -2.3923 O   0  0  0  0  0  0  0  0  0  0  0  0
  1  2  1  0  0  0  0
  2  8  1  0  0  0  0
  2  3  2  0  0  0  0
  3 13  1  0  0  0  0
  4  9  1  0  0  0  0
  4  3  1  0  0  0  0
  5  4  2  0  0  0  0
  6  1  2  0  0  0  0
  6  5  1  0  0  0  0
  7  1  1  0  0  0  0
 10  5  1  0  0  0  0
 11 12  3  0  0  0  0
 13 14  1  0  0  0  0
 15  6  1  0  0  0  0
 16 15  2  0  0  0  0
 17 15  2  0  0  0  0
M  END
