Coordinates from ORCA-job 4-NO2-Ph-N2-OH-B3LYPG-6-31G_dp-MTMO-d009-169-n900
 OpenBabel09051908013D

 17 16  0  0  0  0  0  0  0  0999 V2000
   -0.5567   -0.6533   -1.3929 C   0  0  0  0  0  0  0  0  0  0  0  0
    0.3989    0.0149   -0.6422 C   0  0  0  0  0  0  0  0  0  0  0  0
    0.0897    0.4422    0.6590 C   0  0  0  0  0  0  0  0  0  0  0  0
   -1.1804    0.1956    1.2024 C   0  0  0  0  0  0  0  0  0  0  0  0
   -2.1383   -0.4740    0.4511 C   0  0  0  0  0  0  0  0  0  0  0  0
   -1.8175   -0.8921   -0.8398 C   0  0  0  0  0  0  0  0  0  0  0  0
   -0.3471   -0.9940   -2.3987 H   0  0  0  0  0  0  0  0  0  0  0  0
    1.3863    0.2165   -1.0424 H   0  0  0  0  0  0  0  0  0  0  0  0
   -1.4159    0.5284    2.2100 H   0  0  0  0  0  0  0  0  0  0  0  0
   -3.1261   -0.6783    0.8442 H   0  0  0  0  0  0  0  0  0  0  0  0
    4.3224    0.1949   -3.9667 N   0  0  0  0  0  0  0  0  0  0  0  0
    3.5225    0.1599   -3.2050 N   0  0  0  0  0  0  0  0  0  0  0  0
    1.0640    1.0921    1.3448 O   0  0  0  0  0  0  0  0  0  0  0  0
    0.7367    1.3416    2.2193 H   0  0  0  0  0  0  0  0  0  0  0  0
   -2.8253   -1.5958   -1.6315 N   0  0  0  0  0  0  0  0  0  0  0  0
   -3.9285   -1.7884   -1.1166 O   0  0  0  0  0  0  0  0  0  0  0  0
   -2.5137   -1.9558   -2.7681 O   0  0  0  0  0  0  0  0  0  0  0  0
  1  6  2  0  0  0  0
  1  2  1  0  0  0  0
  2  3  2  0  0  0  0
  3  4  1  0  0  0  0
  3 13  1  0  0  0  0
  4  9  1  0  0  0  0
  5 10  1  0  0  0  0
  5  4  2  0  0  0  0
  6  5  1  0  0  0  0
  7  1  1  0  0  0  0
  8  2  1  0  0  0  0
 11 12  3  0  0  0  0
 13 14  1  0  0  0  0
 15 16  2  0  0  0  0
 15  6  1  0  0  0  0
 17 15  2  0  0  0  0
M  END
