Coordinates from ORCA-job 4-NO2-Ph-N2-OH-B3LYPG-6-31G_dp-MTMO-d009-169-n900
 OpenBabel09051908013D

 17 16  0  0  0  0  0  0  0  0999 V2000
    0.6342    0.5216   -0.1678 C   0  0  0  0  0  0  0  0  0  0  0  0
    0.4457    0.9398    1.1407 C   0  0  0  0  0  0  0  0  0  0  0  0
   -0.7352    0.6001    1.8194 C   0  0  0  0  0  0  0  0  0  0  0  0
   -1.7248   -0.1612    1.1788 C   0  0  0  0  0  0  0  0  0  0  0  0
   -1.5377   -0.5810   -0.1321 C   0  0  0  0  0  0  0  0  0  0  0  0
   -0.3600   -0.2354   -0.7935 C   0  0  0  0  0  0  0  0  0  0  0  0
    1.5345    0.7690   -0.7161 H   0  0  0  0  0  0  0  0  0  0  0  0
    1.1961    1.5279    1.6573 H   0  0  0  0  0  0  0  0  0  0  0  0
   -2.6377   -0.4236    1.7077 H   0  0  0  0  0  0  0  0  0  0  0  0
   -2.2847   -1.1687   -0.6506 H   0  0  0  0  0  0  0  0  0  0  0  0
   -0.1965   -2.6215   -7.3434 N   0  0  0  0  0  0  0  0  0  0  0  0
    0.2436   -3.4241   -6.7238 N   0  0  0  0  0  0  0  0  0  0  0  0
   -0.8631    1.0380    3.0970 O   0  0  0  0  0  0  0  0  0  0  0  0
   -1.7119    0.7488    3.4575 H   0  0  0  0  0  0  0  0  0  0  0  0
   -0.1622   -0.6763   -2.1736 N   0  0  0  0  0  0  0  0  0  0  0  0
   -1.0581   -1.3409   -2.6981 O   0  0  0  0  0  0  0  0  0  0  0  0
    0.8887   -0.3581   -2.7325 O   0  0  0  0  0  0  0  0  0  0  0  0
  1  2  1  0  0  0  0
  2  8  1  0  0  0  0
  2  3  2  0  0  0  0
  3 13  1  0  0  0  0
  4  9  1  0  0  0  0
  4  3  1  0  0  0  0
  5  4  2  0  0  0  0
  6  1  2  0  0  0  0
  6  5  1  0  0  0  0
  7  1  1  0  0  0  0
 10  5  1  0  0  0  0
 11 12  3  0  0  0  0
 13 14  1  0  0  0  0
 15  6  1  0  0  0  0
 16 15  2  0  0  0  0
 17 15  2  0  0  0  0
M  END
