Coordinates from ORCA-job 4-NO2-Ph-N2-OH-B3LYPG-6-31G_dp-MTMO-d009-169-n900
 OpenBabel09051908013D

 17 16  0  0  0  0  0  0  0  0999 V2000
   -0.5439   -0.6121   -1.3162 C   0  0  0  0  0  0  0  0  0  0  0  0
    0.3743    0.0596   -0.5231 C   0  0  0  0  0  0  0  0  0  0  0  0
    0.0146    0.4618    0.7731 C   0  0  0  0  0  0  0  0  0  0  0  0
   -1.2691    0.1866    1.2688 C   0  0  0  0  0  0  0  0  0  0  0  0
   -2.1899   -0.4864    0.4752 C   0  0  0  0  0  0  0  0  0  0  0  0
   -1.8188   -0.8795   -0.8101 C   0  0  0  0  0  0  0  0  0  0  0  0
   -0.2950   -0.9341   -2.3192 H   0  0  0  0  0  0  0  0  0  0  0  0
    1.3714    0.2836   -0.8857 H   0  0  0  0  0  0  0  0  0  0  0  0
   -1.5440    0.5002    2.2725 H   0  0  0  0  0  0  0  0  0  0  0  0
   -3.1868   -0.7121    0.8317 H   0  0  0  0  0  0  0  0  0  0  0  0
    4.5334    0.0514   -4.4693 N   0  0  0  0  0  0  0  0  0  0  0  0
    3.7974    0.0911   -3.6457 N   0  0  0  0  0  0  0  0  0  0  0  0
    0.9546    1.1160    1.5011 O   0  0  0  0  0  0  0  0  0  0  0  0
    0.5949    1.3460    2.3682 H   0  0  0  0  0  0  0  0  0  0  0  0
   -2.7872   -1.5873   -1.6461 N   0  0  0  0  0  0  0  0  0  0  0  0
   -3.9036   -1.8058   -1.1716 O   0  0  0  0  0  0  0  0  0  0  0  0
   -2.4313   -1.9244   -2.7767 O   0  0  0  0  0  0  0  0  0  0  0  0
  1  6  2  0  0  0  0
  1  2  1  0  0  0  0
  2  3  2  0  0  0  0
  3  4  1  0  0  0  0
  3 13  1  0  0  0  0
  4  9  1  0  0  0  0
  5 10  1  0  0  0  0
  5  4  2  0  0  0  0
  6  5  1  0  0  0  0
  7  1  1  0  0  0  0
  8  2  1  0  0  0  0
 11 12  3  0  0  0  0
 13 14  1  0  0  0  0
 15 16  2  0  0  0  0
 15  6  1  0  0  0  0
 17 15  2  0  0  0  0
M  END
