Coordinates from ORCA-job 4-NO2-Ph-N2-OH-B3LYPG-6-31G_dp-MTMO-d009-169-n900
 OpenBabel09051908013D

 17 16  0  0  0  0  0  0  0  0999 V2000
    0.6055    0.4026   -0.3830 C   0  0  0  0  0  0  0  0  0  0  0  0
    0.5037    0.8079    0.9392 C   0  0  0  0  0  0  0  0  0  0  0  0
   -0.6563    0.5133    1.6735 C   0  0  0  0  0  0  0  0  0  0  0  0
   -1.7119   -0.1905    1.0733 C   0  0  0  0  0  0  0  0  0  0  0  0
   -1.6117   -0.5974   -0.2513 C   0  0  0  0  0  0  0  0  0  0  0  0
   -0.4538   -0.2967   -0.9680 C   0  0  0  0  0  0  0  0  0  0  0  0
    1.4878    0.6166   -0.9732 H   0  0  0  0  0  0  0  0  0  0  0  0
    1.3067    1.3518    1.4242 H   0  0  0  0  0  0  0  0  0  0  0  0
   -2.6082   -0.4188    1.6448 H   0  0  0  0  0  0  0  0  0  0  0  0
   -2.4115   -1.1413   -0.7380 H   0  0  0  0  0  0  0  0  0  0  0  0
    0.0869   -2.3090   -6.3283 N   0  0  0  0  0  0  0  0  0  0  0  0
    0.3332   -2.6999   -5.3241 N   0  0  0  0  0  0  0  0  0  0  0  0
   -0.6986    0.9355    2.9617 O   0  0  0  0  0  0  0  0  0  0  0  0
   -1.5406    0.6793    3.3615 H   0  0  0  0  0  0  0  0  0  0  0  0
   -0.3476   -0.7220   -2.3630 N   0  0  0  0  0  0  0  0  0  0  0  0
   -1.2997   -1.3342   -2.8513 O   0  0  0  0  0  0  0  0  0  0  0  0
    0.6870   -0.4426   -2.9711 O   0  0  0  0  0  0  0  0  0  0  0  0
  1  2  1  0  0  0  0
  2  8  1  0  0  0  0
  2  3  2  0  0  0  0
  3 13  1  0  0  0  0
  4  9  1  0  0  0  0
  4  3  1  0  0  0  0
  5  4  2  0  0  0  0
  6  1  2  0  0  0  0
  6  5  1  0  0  0  0
  7  1  1  0  0  0  0
 10  5  1  0  0  0  0
 11 12  3  0  0  0  0
 13 14  1  0  0  0  0
 15  6  1  0  0  0  0
 16 15  2  0  0  0  0
 17 15  2  0  0  0  0
M  END
