Coordinates from ORCA-job 4-NO2-Ph-N2-OH-B3LYPG-6-31G_dp-MTMO-d009-169-n900
 OpenBabel09051908013D

 17 16  0  0  0  0  0  0  0  0999 V2000
    0.6335    0.5236   -0.1624 C   0  0  0  0  0  0  0  0  0  0  0  0
    0.4453    0.9422    1.1460 C   0  0  0  0  0  0  0  0  0  0  0  0
   -0.7355    0.6028    1.8250 C   0  0  0  0  0  0  0  0  0  0  0  0
   -1.7253   -0.1586    1.1847 C   0  0  0  0  0  0  0  0  0  0  0  0
   -1.5384   -0.5788   -0.1260 C   0  0  0  0  0  0  0  0  0  0  0  0
   -0.3608   -0.2335   -0.7878 C   0  0  0  0  0  0  0  0  0  0  0  0
    1.5338    0.7708   -0.7109 H   0  0  0  0  0  0  0  0  0  0  0  0
    1.1959    1.5304    1.6623 H   0  0  0  0  0  0  0  0  0  0  0  0
   -2.6381   -0.4208    1.7139 H   0  0  0  0  0  0  0  0  0  0  0  0
   -2.2856   -1.1666   -0.6443 H   0  0  0  0  0  0  0  0  0  0  0  0
   -0.1916   -2.6388   -7.3872 N   0  0  0  0  0  0  0  0  0  0  0  0
    0.2477   -3.4403   -6.7658 N   0  0  0  0  0  0  0  0  0  0  0  0
   -0.8632    1.0410    3.1024 O   0  0  0  0  0  0  0  0  0  0  0  0
   -1.7120    0.7521    3.4632 H   0  0  0  0  0  0  0  0  0  0  0  0
   -0.1633   -0.6747   -2.1677 N   0  0  0  0  0  0  0  0  0  0  0  0
   -1.0593   -1.3394   -2.6919 O   0  0  0  0  0  0  0  0  0  0  0  0
    0.8876   -0.3568   -2.7269 O   0  0  0  0  0  0  0  0  0  0  0  0
  1  2  1  0  0  0  0
  2  8  1  0  0  0  0
  2  3  2  0  0  0  0
  3 13  1  0  0  0  0
  4  9  1  0  0  0  0
  4  3  1  0  0  0  0
  5  4  2  0  0  0  0
  6  1  2  0  0  0  0
  6  5  1  0  0  0  0
  7  1  1  0  0  0  0
 10  5  1  0  0  0  0
 11 12  3  0  0  0  0
 13 14  1  0  0  0  0
 15  6  1  0  0  0  0
 16 15  2  0  0  0  0
 17 15  2  0  0  0  0
M  END
