Coordinates from ORCA-job 4-NO2-Ph-N2-OH-B3LYPG-6-31G_dp-MTMO-d009-169-n900
 OpenBabel09051908013D

 17 16  0  0  0  0  0  0  0  0999 V2000
   -0.9134   -0.9745   -1.6599 C   0  0  0  0  0  0  0  0  0  0  0  0
    0.2617   -0.3820   -1.2224 C   0  0  0  0  0  0  0  0  0  0  0  0
    0.3102    0.2159    0.0468 C   0  0  0  0  0  0  0  0  0  0  0  0
   -0.8232    0.2169    0.8739 C   0  0  0  0  0  0  0  0  0  0  0  0
   -2.0011   -0.3762    0.4363 C   0  0  0  0  0  0  0  0  0  0  0  0
   -2.0351   -0.9665   -0.8265 C   0  0  0  0  0  0  0  0  0  0  0  0
   -0.9812   -1.4431   -2.6335 H   0  0  0  0  0  0  0  0  0  0  0  0
    1.1518   -0.3673   -1.8412 H   0  0  0  0  0  0  0  0  0  0  0  0
   -0.7811    0.6807    1.8561 H   0  0  0  0  0  0  0  0  0  0  0  0
   -2.8915   -0.3904    1.0524 H   0  0  0  0  0  0  0  0  0  0  0  0
    4.5360    1.4561   -1.6195 N   0  0  0  0  0  0  0  0  0  0  0  0
    3.7427    0.8108   -2.0383 N   0  0  0  0  0  0  0  0  0  0  0  0
    1.4876    0.7803    0.4201 O   0  0  0  0  0  0  0  0  0  0  0  0
    1.4037    1.1541    1.3075 H   0  0  0  0  0  0  0  0  0  0  0  0
   -3.2747   -1.5904   -1.2876 N   0  0  0  0  0  0  0  0  0  0  0  0
   -4.2471   -1.5628   -0.5308 O   0  0  0  0  0  0  0  0  0  0  0  0
   -3.2745   -2.1071   -2.4064 O   0  0  0  0  0  0  0  0  0  0  0  0
  1  2  2  0  0  0  0
  1  6  1  0  0  0  0
  2  3  1  0  0  0  0
  3 13  1  0  0  0  0
  3  4  2  0  0  0  0
  4  9  1  0  0  0  0
  5  4  1  0  0  0  0
  5 10  1  0  0  0  0
  6  5  2  0  0  0  0
  7  1  1  0  0  0  0
  8  2  1  0  0  0  0
 12 11  3  0  0  0  0
 13 14  1  0  0  0  0
 15  6  1  0  0  0  0
 15 16  2  0  0  0  0
 17 15  2  0  0  0  0
M  END
