Coordinates from ORCA-job 4-NO2-Ph-N2-OH-B3LYPG-6-31G_dp-MTMO-d009-169-n900
 OpenBabel09051908013D

 17 16  0  0  0  0  0  0  0  0999 V2000
   -1.0423   -1.4070   -1.2231 C   0  0  0  0  0  0  0  0  0  0  0  0
    0.1316   -0.6890   -0.9586 C   0  0  0  0  0  0  0  0  0  0  0  0
   -0.0238    0.4369   -0.2032 C   0  0  0  0  0  0  0  0  0  0  0  0
   -1.1676    0.9671    0.3351 C   0  0  0  0  0  0  0  0  0  0  0  0
   -2.3361    0.2399    0.0639 C   0  0  0  0  0  0  0  0  0  0  0  0
   -2.2463   -0.9232   -0.7046 C   0  0  0  0  0  0  0  0  0  0  0  0
   -1.0398   -2.3169   -1.8114 H   0  0  0  0  0  0  0  0  0  0  0  0
    1.1096   -0.9974   -1.3259 H   0  0  0  0  0  0  0  0  0  0  0  0
   -1.1858    1.8769    0.9247 H   0  0  0  0  0  0  0  0  0  0  0  0
   -3.3018    0.5605    0.4362 H   0  0  0  0  0  0  0  0  0  0  0  0
    2.3289    1.4490    0.0428 N   0  0  0  0  0  0  0  0  0  0  0  0
    2.8967    0.6224   -0.5833 N   0  0  0  0  0  0  0  0  0  0  0  0
    4.3431    0.8565   -0.6846 O   0  0  0  0  0  0  0  0  0  0  0  0
    4.6051    0.0878   -1.2162 H   0  0  0  0  0  0  0  0  0  0  0  0
   -3.4821   -1.6758   -0.9829 N   0  0  0  0  0  0  0  0  0  0  0  0
   -4.5335   -1.2350   -0.5219 O   0  0  0  0  0  0  0  0  0  0  0  0
   -3.3849   -2.6980   -1.6599 O   0  0  0  0  0  0  0  0  0  0  0  0
  1  2  2  0  0  0  0
  1  6  1  0  0  0  0
  2  3  1  0  0  0  0
  3  4  2  0  0  0  0
  4  9  1  0  0  0  0
  5  4  1  0  0  0  0
  5 10  1  0  0  0  0
  6  5  2  0  0  0  0
  7  1  1  0  0  0  0
  8  2  1  0  0  0  0
 12 11  1  0  0  0  0
 13 12  1  0  0  0  0
 14 13  1  0  0  0  0
 15  6  1  0  0  0  0
 15 16  2  0  0  0  0
 17 15  2  0  0  0  0
M  RAD  3   3   2  11   3  12   2
M  END
