Coordinates from ORCA-job 4-NO2-Ph-N2-OH-B3LYPG-6-31G_dp-MTMO-d009-169-n900
 OpenBabel09051908013D

 17 17  0  0  0  0  0  0  0  0999 V2000
   -1.0218   -1.5066   -1.2660 C   0  0  0  0  0  0  0  0  0  0  0  0
    0.2266   -0.9283   -1.0758 C   0  0  0  0  0  0  0  0  0  0  0  0
    0.3329    0.2571   -0.3337 C   0  0  0  0  0  0  0  0  0  0  0  0
   -0.8008    0.8563    0.2233 C   0  0  0  0  0  0  0  0  0  0  0  0
   -2.0552    0.2836    0.0351 C   0  0  0  0  0  0  0  0  0  0  0  0
   -2.1445   -0.8909   -0.7086 C   0  0  0  0  0  0  0  0  0  0  0  0
   -1.1450   -2.4222   -1.8304 H   0  0  0  0  0  0  0  0  0  0  0  0
    1.1165   -1.3831   -1.4932 H   0  0  0  0  0  0  0  0  0  0  0  0
   -0.6796    1.7689    0.7958 H   0  0  0  0  0  0  0  0  0  0  0  0
   -2.9532    0.7230    0.4498 H   0  0  0  0  0  0  0  0  0  0  0  0
    1.5943    0.9578   -0.0556 N   0  0  0  0  0  0  0  0  0  0  0  0
    2.5518    0.4844   -0.6805 N   0  0  0  0  0  0  0  0  0  0  0  0
    3.6957    1.1930   -0.3510 O   0  0  0  0  0  0  0  0  0  0  0  0
    4.3731    0.7564   -0.8901 H   0  0  0  0  0  0  0  0  0  0  0  0
   -3.4658   -1.5063   -0.9114 N   0  0  0  0  0  0  0  0  0  0  0  0
   -4.4382   -0.9468   -0.4065 O   0  0  0  0  0  0  0  0  0  0  0  0
   -3.5161   -2.5417   -1.5744 O   0  0  0  0  0  0  0  0  0  0  0  0
  1  2  2  0  0  0  0
  1  6  1  0  0  0  0
  2  3  1  0  0  0  0
  3 11  1  0  0  0  0
  3  4  2  0  0  0  0
  4  9  1  0  0  0  0
  5  4  1  0  0  0  0
  5 10  1  0  0  0  0
  6  5  2  0  0  0  0
  7  1  1  0  0  0  0
  8  2  1  0  0  0  0
 12 13  1  0  0  0  0
 12 11  1  0  0  0  0
 14 13  1  0  0  0  0
 15  6  1  0  0  0  0
 15 16  2  0  0  0  0
 17 15  2  0  0  0  0
M  RAD  2  11   2  12   2
M  END
