Coordinates from ORCA-job 4-NO2-Ph-N2-OH-B3LYPG-6-31G_dp-MTMO-d009-169-n900
 OpenBabel09051908013D

 17 16  0  0  0  0  0  0  0  0999 V2000
   -0.9076   -1.0041   -1.6612 C   0  0  0  0  0  0  0  0  0  0  0  0
    0.2790   -0.4295   -1.2306 C   0  0  0  0  0  0  0  0  0  0  0  0
    0.3385    0.1856    0.0298 C   0  0  0  0  0  0  0  0  0  0  0  0
   -0.7955    0.2217    0.8553 C   0  0  0  0  0  0  0  0  0  0  0  0
   -1.9848   -0.3535    0.4247 C   0  0  0  0  0  0  0  0  0  0  0  0
   -2.0297   -0.9612   -0.8294 C   0  0  0  0  0  0  0  0  0  0  0  0
   -0.9838   -1.4850   -2.6281 H   0  0  0  0  0  0  0  0  0  0  0  0
    1.1692   -0.4423   -1.8495 H   0  0  0  0  0  0  0  0  0  0  0  0
   -0.7449    0.6986    1.8308 H   0  0  0  0  0  0  0  0  0  0  0  0
   -2.8759   -0.3403    1.0397 H   0  0  0  0  0  0  0  0  0  0  0  0
    4.3218    1.5654   -1.4787 N   0  0  0  0  0  0  0  0  0  0  0  0
    3.7340    0.8212   -2.0458 N   0  0  0  0  0  0  0  0  0  0  0  0
    1.5266    0.7308    0.3971 O   0  0  0  0  0  0  0  0  0  0  0  0
    1.4494    1.1202    1.2783 H   0  0  0  0  0  0  0  0  0  0  0  0
   -3.2813   -1.5663   -1.2831 N   0  0  0  0  0  0  0  0  0  0  0  0
   -4.2535   -1.5086   -0.5277 O   0  0  0  0  0  0  0  0  0  0  0  0
   -3.2907   -2.0982   -2.3947 O   0  0  0  0  0  0  0  0  0  0  0  0
  1  2  2  0  0  0  0
  1  6  1  0  0  0  0
  2  3  1  0  0  0  0
  3 13  1  0  0  0  0
  3  4  2  0  0  0  0
  4  9  1  0  0  0  0
  5  4  1  0  0  0  0
  5 10  1  0  0  0  0
  6  5  2  0  0  0  0
  7  1  1  0  0  0  0
  8  2  1  0  0  0  0
 12 11  3  0  0  0  0
 13 14  1  0  0  0  0
 15  6  1  0  0  0  0
 15 16  2  0  0  0  0
 17 15  2  0  0  0  0
M  END
