Coordinates from ORCA-job 4-NO2-Ph-N2-OH-B3LYPG-6-31G_dp-MTMO-d009-169-n900
 OpenBabel09051908023D

 17 16  0  0  0  0  0  0  0  0999 V2000
    0.6007    0.6623    0.2056 C   0  0  0  0  0  0  0  0  0  0  0  0
    0.4129    1.1084    1.5049 C   0  0  0  0  0  0  0  0  0  0  0  0
   -0.7677    0.7831    2.1911 C   0  0  0  0  0  0  0  0  0  0  0  0
   -1.7575    0.0080    1.5676 C   0  0  0  0  0  0  0  0  0  0  0  0
   -1.5709   -0.4397    0.2659 C   0  0  0  0  0  0  0  0  0  0  0  0
   -0.3936   -0.1081   -0.4033 C   0  0  0  0  0  0  0  0  0  0  0  0
    1.5006    0.8982   -0.3486 H   0  0  0  0  0  0  0  0  0  0  0  0
    1.1633    1.7077    2.0084 H   0  0  0  0  0  0  0  0  0  0  0  0
   -2.6700   -0.2431    2.1027 H   0  0  0  0  0  0  0  0  0  0  0  0
   -2.3180   -1.0386   -0.2396 H   0  0  0  0  0  0  0  0  0  0  0  0
    0.0476   -3.7725  -10.2449 N   0  0  0  0  0  0  0  0  0  0  0  0
    0.4985   -4.5232   -9.5706 N   0  0  0  0  0  0  0  0  0  0  0  0
   -0.8953    1.2481    3.4592 O   0  0  0  0  0  0  0  0  0  0  0  0
   -1.7440    0.9664    3.8259 H   0  0  0  0  0  0  0  0  0  0  0  0
   -0.1967   -0.5778   -1.7739 N   0  0  0  0  0  0  0  0  0  0  0  0
   -1.0925   -1.2541   -2.2833 O   0  0  0  0  0  0  0  0  0  0  0  0
    0.8536   -0.2705   -2.3401 O   0  0  0  0  0  0  0  0  0  0  0  0
  1  2  1  0  0  0  0
  2  8  1  0  0  0  0
  2  3  2  0  0  0  0
  3 13  1  0  0  0  0
  4  9  1  0  0  0  0
  4  3  1  0  0  0  0
  5  4  2  0  0  0  0
  6  1  2  0  0  0  0
  6  5  1  0  0  0  0
  7  1  1  0  0  0  0
 10  5  1  0  0  0  0
 11 12  3  0  0  0  0
 13 14  1  0  0  0  0
 15  6  1  0  0  0  0
 16 15  2  0  0  0  0
 17 15  2  0  0  0  0
M  END
