Coordinates from ORCA-job 4-NO2-Ph-N2-OH-B3LYPG-6-31G_dp-MTMO-d009-169-n900
 OpenBabel09051908013D

 17 15  0  0  0  0  0  0  0  0999 V2000
   -0.8726   -1.0017   -1.0350 C   0  0  0  0  0  0  0  0  0  0  0  0
    0.0430   -0.0382   -0.5687 C   0  0  0  0  0  0  0  0  0  0  0  0
   -0.5218    0.9294    0.1928 C   0  0  0  0  0  0  0  0  0  0  0  0
   -1.8107    1.1391    0.5903 C   0  0  0  0  0  0  0  0  0  0  0  0
   -2.7066    0.1643    0.1148 C   0  0  0  0  0  0  0  0  0  0  0  0
   -2.2170   -0.8740   -0.6810 C   0  0  0  0  0  0  0  0  0  0  0  0
   -0.5517   -1.8304   -1.6565 H   0  0  0  0  0  0  0  0  0  0  0  0
    1.1072   -0.0899   -0.8140 H   0  0  0  0  0  0  0  0  0  0  0  0
   -2.1438    1.9651    1.2103 H   0  0  0  0  0  0  0  0  0  0  0  0
   -3.7628    0.2073    0.3564 H   0  0  0  0  0  0  0  0  0  0  0  0
    3.3300    1.7138   -0.1202 N   0  0  0  0  0  0  0  0  0  0  0  0
    3.1169    0.7503   -0.6357 N   0  0  0  0  0  0  0  0  0  0  0  0
    4.7347   -0.3569   -1.4101 O   0  0  0  0  0  0  0  0  0  0  0  0
    4.1682   -1.0853   -1.7212 H   0  0  0  0  0  0  0  0  0  0  0  0
   -3.1704   -1.8873   -1.1728 N   0  0  0  0  0  0  0  0  0  0  0  0
   -4.3493   -1.7582   -0.8510 O   0  0  0  0  0  0  0  0  0  0  0  0
   -2.7223   -2.7930   -1.8715 O   0  0  0  0  0  0  0  0  0  0  0  0
  1  6  2  0  0  0  0
  1  2  1  0  0  0  0
  2  3  2  0  0  0  0
  3  4  1  0  0  0  0
  4  9  1  0  0  0  0
  5 10  1  0  0  0  0
  5  4  2  0  0  0  0
  6  5  1  0  0  0  0
  7  1  1  0  0  0  0
  8  2  1  0  0  0  0
 12 11  3  0  0  0  0
 14 13  1  0  0  0  0
 15 16  2  0  0  0  0
 15  6  1  0  0  0  0
 17 15  2  0  0  0  0
M  RAD  2   3   2  13   2
M  END
