Coordinates from ORCA-job 4-NO2-Ph-N2-OH-B3LYPG-6-31G_dp-MTMO-d009-169-n900
 OpenBabel09051908013D

 17 16  0  0  0  0  0  0  0  0999 V2000
    0.6272    0.5461   -0.1019 C   0  0  0  0  0  0  0  0  0  0  0  0
    0.4407    0.9690    1.2053 C   0  0  0  0  0  0  0  0  0  0  0  0
   -0.7395    0.6326    1.8867 C   0  0  0  0  0  0  0  0  0  0  0  0
   -1.7306   -0.1302    1.2500 C   0  0  0  0  0  0  0  0  0  0  0  0
   -1.5454   -0.5547   -0.0596 C   0  0  0  0  0  0  0  0  0  0  0  0
   -0.3683   -0.2123   -0.7237 C   0  0  0  0  0  0  0  0  0  0  0  0
    1.5269    0.7910   -0.6523 H   0  0  0  0  0  0  0  0  0  0  0  0
    1.1922    1.5585    1.7189 H   0  0  0  0  0  0  0  0  0  0  0  0
   -2.6430   -0.3901    1.7811 H   0  0  0  0  0  0  0  0  0  0  0  0
   -2.2936   -1.1437   -0.5751 H   0  0  0  0  0  0  0  0  0  0  0  0
   -0.1445   -2.8299   -7.8683 N   0  0  0  0  0  0  0  0  0  0  0  0
    0.2936   -3.6205   -7.2323 N   0  0  0  0  0  0  0  0  0  0  0  0
   -0.8655    1.0750    3.1629 O   0  0  0  0  0  0  0  0  0  0  0  0
   -1.7142    0.7877    3.5254 H   0  0  0  0  0  0  0  0  0  0  0  0
   -0.1728   -0.6579   -2.1026 N   0  0  0  0  0  0  0  0  0  0  0  0
   -1.0698   -1.3239   -2.6235 O   0  0  0  0  0  0  0  0  0  0  0  0
    0.8775   -0.3422   -2.6640 O   0  0  0  0  0  0  0  0  0  0  0  0
  1  2  1  0  0  0  0
  2  8  1  0  0  0  0
  2  3  2  0  0  0  0
  3 13  1  0  0  0  0
  4  9  1  0  0  0  0
  4  3  1  0  0  0  0
  5  4  2  0  0  0  0
  6  1  2  0  0  0  0
  6  5  1  0  0  0  0
  7  1  1  0  0  0  0
 10  5  1  0  0  0  0
 11 12  3  0  0  0  0
 13 14  1  0  0  0  0
 15  6  1  0  0  0  0
 16 15  2  0  0  0  0
 17 15  2  0  0  0  0
M  END
