Coordinates from ORCA-job 4-NO2-Ph-N2-OH-B3LYPG-6-31G_dp-MTMO-d009-169-n900
 OpenBabel09051908013D

 17 16  0  0  0  0  0  0  0  0999 V2000
   -0.6643   -0.7278   -1.4775 C   0  0  0  0  0  0  0  0  0  0  0  0
    0.3555   -0.0673   -0.8088 C   0  0  0  0  0  0  0  0  0  0  0  0
    0.1437    0.3990    0.4981 C   0  0  0  0  0  0  0  0  0  0  0  0
   -1.0931    0.1988    1.1299 C   0  0  0  0  0  0  0  0  0  0  0  0
   -2.1152   -0.4630    0.4607 C   0  0  0  0  0  0  0  0  0  0  0  0
   -1.8912   -0.9201   -0.8373 C   0  0  0  0  0  0  0  0  0  0  0  0
   -0.5306   -1.0975   -2.4861 H   0  0  0  0  0  0  0  0  0  0  0  0
    1.3190    0.0993   -1.2774 H   0  0  0  0  0  0  0  0  0  0  0  0
   -1.2530    0.5610    2.1422 H   0  0  0  0  0  0  0  0  0  0  0  0
   -3.0795   -0.6313    0.9237 H   0  0  0  0  0  0  0  0  0  0  0  0
    4.5484    0.5198   -3.3733 N   0  0  0  0  0  0  0  0  0  0  0  0
    3.5844    0.3161   -2.8731 N   0  0  0  0  0  0  0  0  0  0  0  0
    1.1766    1.0397    1.1020 O   0  0  0  0  0  0  0  0  0  0  0  0
    0.9133    1.3186    1.9891 H   0  0  0  0  0  0  0  0  0  0  0  0
   -2.9662   -1.6151   -1.5435 N   0  0  0  0  0  0  0  0  0  0  0  0
   -4.0381   -1.7653   -0.9535 O   0  0  0  0  0  0  0  0  0  0  0  0
   -2.7387   -2.0106   -2.6882 O   0  0  0  0  0  0  0  0  0  0  0  0
  1  6  2  0  0  0  0
  1  2  1  0  0  0  0
  2  3  2  0  0  0  0
  3 13  1  0  0  0  0
  3  4  1  0  0  0  0
  4  9  1  0  0  0  0
  5 10  1  0  0  0  0
  5  4  2  0  0  0  0
  6  5  1  0  0  0  0
  7  1  1  0  0  0  0
  8  2  1  0  0  0  0
 11 12  3  0  0  0  0
 13 14  1  0  0  0  0
 15 16  2  0  0  0  0
 15  6  1  0  0  0  0
 17 15  2  0  0  0  0
M  END
