Coordinates from ORCA-job 4-NO2-Ph-N2-OH-B3LYPG-6-31G_dp-MTMO-d009-169-n900
 OpenBabel09051908013D

 17 16  0  0  0  0  0  0  0  0999 V2000
    0.6250    0.5545   -0.0797 C   0  0  0  0  0  0  0  0  0  0  0  0
    0.4389    0.9790    1.2271 C   0  0  0  0  0  0  0  0  0  0  0  0
   -0.7412    0.6435    1.9091 C   0  0  0  0  0  0  0  0  0  0  0  0
   -1.7325   -0.1199    1.2736 C   0  0  0  0  0  0  0  0  0  0  0  0
   -1.5477   -0.5461   -0.0355 C   0  0  0  0  0  0  0  0  0  0  0  0
   -0.3707   -0.2046   -0.7003 C   0  0  0  0  0  0  0  0  0  0  0  0
    1.5246    0.7986   -0.6306 H   0  0  0  0  0  0  0  0  0  0  0  0
    1.1906    1.5690    1.7398 H   0  0  0  0  0  0  0  0  0  0  0  0
   -2.6448   -0.3791    1.8053 H   0  0  0  0  0  0  0  0  0  0  0  0
   -2.2960   -1.1356   -0.5502 H   0  0  0  0  0  0  0  0  0  0  0  0
   -0.1288   -2.8994   -8.0432 N   0  0  0  0  0  0  0  0  0  0  0  0
    0.3098   -3.6866   -7.4032 N   0  0  0  0  0  0  0  0  0  0  0  0
   -0.8669    1.0875    3.1848 O   0  0  0  0  0  0  0  0  0  0  0  0
   -1.7155    0.8007    3.5479 H   0  0  0  0  0  0  0  0  0  0  0  0
   -0.1756   -0.6519   -2.0787 N   0  0  0  0  0  0  0  0  0  0  0  0
   -1.0728   -1.3184   -2.5985 O   0  0  0  0  0  0  0  0  0  0  0  0
    0.8746   -0.3368   -2.6407 O   0  0  0  0  0  0  0  0  0  0  0  0
  1  2  1  0  0  0  0
  2  8  1  0  0  0  0
  2  3  2  0  0  0  0
  3 13  1  0  0  0  0
  4  9  1  0  0  0  0
  4  3  1  0  0  0  0
  5  4  2  0  0  0  0
  6  1  2  0  0  0  0
  6  5  1  0  0  0  0
  7  1  1  0  0  0  0
 10  5  1  0  0  0  0
 11 12  3  0  0  0  0
 13 14  1  0  0  0  0
 15  6  1  0  0  0  0
 16 15  2  0  0  0  0
 17 15  2  0  0  0  0
M  END
