Coordinates from ORCA-job 4-NO2-Ph-N2-OH-B3LYPG-6-31G_dp-MTMO-d009-169-n900
 OpenBabel09051908013D

 17 16  0  0  0  0  0  0  0  0999 V2000
   -1.0033   -1.3315   -1.1832 C   0  0  0  0  0  0  0  0  0  0  0  0
    0.1214   -0.5531   -0.8728 C   0  0  0  0  0  0  0  0  0  0  0  0
   -0.1234    0.5509   -0.1155 C   0  0  0  0  0  0  0  0  0  0  0  0
   -1.3063    1.0192    0.3918 C   0  0  0  0  0  0  0  0  0  0  0  0
   -2.4247    0.2317    0.0749 C   0  0  0  0  0  0  0  0  0  0  0  0
   -2.2475   -0.9171   -0.7002 C   0  0  0  0  0  0  0  0  0  0  0  0
   -0.9323   -2.2340   -1.7789 H   0  0  0  0  0  0  0  0  0  0  0  0
    1.1285   -0.8070   -1.2111 H   0  0  0  0  0  0  0  0  0  0  0  0
   -1.3962    1.9203    0.9887 H   0  0  0  0  0  0  0  0  0  0  0  0
   -3.4177    0.4966    0.4186 H   0  0  0  0  0  0  0  0  0  0  0  0
    2.5451    1.5102    0.0404 N   0  0  0  0  0  0  0  0  0  0  0  0
    2.9641    0.6225   -0.5959 N   0  0  0  0  0  0  0  0  0  0  0  0
    4.4411    0.6406   -0.8397 O   0  0  0  0  0  0  0  0  0  0  0  0
    4.5330   -0.1732   -1.3619 H   0  0  0  0  0  0  0  0  0  0  0  0
   -3.4321   -1.7310   -1.0254 N   0  0  0  0  0  0  0  0  0  0  0  0
   -4.5198   -1.3508   -0.5957 O   0  0  0  0  0  0  0  0  0  0  0  0
   -3.2590   -2.7398   -1.7072 O   0  0  0  0  0  0  0  0  0  0  0  0
  1  2  2  0  0  0  0
  1  6  1  0  0  0  0
  2  3  1  0  0  0  0
  3  4  2  0  0  0  0
  4  9  1  0  0  0  0
  5  4  1  0  0  0  0
  5 10  1  0  0  0  0
  6  5  2  0  0  0  0
  7  1  1  0  0  0  0
  8  2  1  0  0  0  0
 12 11  2  0  0  0  0
 13 12  1  0  0  0  0
 14 13  1  0  0  0  0
 15  6  1  0  0  0  0
 15 16  2  0  0  0  0
 17 15  2  0  0  0  0
M  RAD  2   3   2  11   2
M  END
