Coordinates from ORCA-job 4-NO2-Ph-N2-OH-B3LYPG-6-31G_dp-MTMO-d009-169-n900
 OpenBabel09051908013D

 17 16  0  0  0  0  0  0  0  0999 V2000
   -0.9107   -1.1614   -1.0875 C   0  0  0  0  0  0  0  0  0  0  0  0
    0.1023   -0.2726   -0.6857 C   0  0  0  0  0  0  0  0  0  0  0  0
   -0.3262    0.7706    0.0630 C   0  0  0  0  0  0  0  0  0  0  0  0
   -1.5771    1.1101    0.4980 C   0  0  0  0  0  0  0  0  0  0  0  0
   -2.5782    0.2120    0.0889 C   0  0  0  0  0  0  0  0  0  0  0  0
   -2.2223   -0.8934   -0.6884 C   0  0  0  0  0  0  0  0  0  0  0  0
   -0.6975   -2.0367   -1.6903 H   0  0  0  0  0  0  0  0  0  0  0  0
    1.1544   -0.4198   -0.9624 H   0  0  0  0  0  0  0  0  0  0  0  0
   -1.8071    1.9825    1.1006 H   0  0  0  0  0  0  0  0  0  0  0  0
   -3.6157    0.3619    0.3655 H   0  0  0  0  0  0  0  0  0  0  0  0
    2.9675    1.5777    0.0051 N   0  0  0  0  0  0  0  0  0  0  0  0
    3.0380    0.6236   -0.6125 N   0  0  0  0  0  0  0  0  0  0  0  0
    4.5578    0.1480   -1.1816 O   0  0  0  0  0  0  0  0  0  0  0  0
    4.2650   -0.6647   -1.6286 H   0  0  0  0  0  0  0  0  0  0  0  0
   -3.2867   -1.8227   -1.1104 N   0  0  0  0  0  0  0  0  0  0  0  0
   -4.4359   -1.5697   -0.7545 O   0  0  0  0  0  0  0  0  0  0  0  0
   -2.9568   -2.7909   -1.7922 O   0  0  0  0  0  0  0  0  0  0  0  0
  1  6  2  0  0  0  0
  1  2  1  0  0  0  0
  2  3  2  0  0  0  0
  3  4  1  0  0  0  0
  4  9  1  0  0  0  0
  5 10  1  0  0  0  0
  5  4  2  0  0  0  0
  6  5  1  0  0  0  0
  7  1  1  0  0  0  0
  8  2  1  0  0  0  0
 12 11  2  0  0  0  0
 13 12  1  0  0  0  0
 14 13  1  0  0  0  0
 15 16  2  0  0  0  0
 15  6  1  0  0  0  0
 17 15  2  0  0  0  0
M  RAD  2   3   2  11   2
M  END
