Coordinates from ORCA-job 4-NO2-Ph-N2-OH-B3LYPG-6-31G_dp-MTMO-d009-169-n900
 OpenBabel09051908013D

 17 15  0  0  0  0  0  0  0  0999 V2000
   -0.9205   -1.1108   -1.0549 C   0  0  0  0  0  0  0  0  0  0  0  0
    0.0607   -0.1948   -0.6303 C   0  0  0  0  0  0  0  0  0  0  0  0
   -0.4265    0.8265    0.1154 C   0  0  0  0  0  0  0  0  0  0  0  0
   -1.6923    1.1269    0.5285 C   0  0  0  0  0  0  0  0  0  0  0  0
   -2.6559    0.1990    0.0937 C   0  0  0  0  0  0  0  0  0  0  0  0
   -2.2475   -0.8888   -0.6818 C   0  0  0  0  0  0  0  0  0  0  0  0
   -0.6642   -1.9744   -1.6584 H   0  0  0  0  0  0  0  0  0  0  0  0
    1.1161   -0.3140   -0.8902 H   0  0  0  0  0  0  0  0  0  0  0  0
   -1.9614    1.9881    1.1313 H   0  0  0  0  0  0  0  0  0  0  0  0
   -3.7030    0.3150    0.3507 H   0  0  0  0  0  0  0  0  0  0  0  0
    3.1236    1.6274    0.0127 N   0  0  0  0  0  0  0  0  0  0  0  0
    3.0800    0.6820   -0.5823 N   0  0  0  0  0  0  0  0  0  0  0  0
    4.7949   -0.0285   -1.3359 O   0  0  0  0  0  0  0  0  0  0  0  0
    4.3695   -0.8073   -1.7364 H   0  0  0  0  0  0  0  0  0  0  0  0
   -3.2721   -1.8512   -1.1303 N   0  0  0  0  0  0  0  0  0  0  0  0
   -4.4352   -1.6364   -0.7967 O   0  0  0  0  0  0  0  0  0  0  0  0
   -2.8951   -2.8041   -1.8083 O   0  0  0  0  0  0  0  0  0  0  0  0
  1  6  2  0  0  0  0
  1  2  1  0  0  0  0
  2  3  2  0  0  0  0
  3  4  1  0  0  0  0
  4  9  1  0  0  0  0
  5 10  1  0  0  0  0
  5  4  2  0  0  0  0
  6  5  1  0  0  0  0
  7  1  1  0  0  0  0
  8  2  1  0  0  0  0
 12 11  3  0  0  0  0
 14 13  1  0  0  0  0
 15 16  2  0  0  0  0
 15  6  1  0  0  0  0
 17 15  2  0  0  0  0
M  RAD  2   3   2  13   2
M  END
