Coordinates from ORCA-job 4-NO2-Ph-N2-OH-B3LYPG-6-31G_dp-MTMO-d009-169-n900
 OpenBabel09051908013D

 17 16  0  0  0  0  0  0  0  0999 V2000
   -0.5398   -0.6190   -1.3363 C   0  0  0  0  0  0  0  0  0  0  0  0
    0.3858    0.0522   -0.5513 C   0  0  0  0  0  0  0  0  0  0  0  0
    0.0359    0.4588    0.7462 C   0  0  0  0  0  0  0  0  0  0  0  0
   -1.2451    0.1886    1.2514 C   0  0  0  0  0  0  0  0  0  0  0  0
   -2.1732   -0.4839    0.4659 C   0  0  0  0  0  0  0  0  0  0  0  0
   -1.8119   -0.8814   -0.8209 C   0  0  0  0  0  0  0  0  0  0  0  0
   -0.2985   -0.9443   -2.3401 H   0  0  0  0  0  0  0  0  0  0  0  0
    1.3809    0.2723   -0.9214 H   0  0  0  0  0  0  0  0  0  0  0  0
   -1.5124    0.5056    2.2561 H   0  0  0  0  0  0  0  0  0  0  0  0
   -3.1683   -0.7059    0.8296 H   0  0  0  0  0  0  0  0  0  0  0  0
    4.4413    0.0703   -4.3368 N   0  0  0  0  0  0  0  0  0  0  0  0
    3.6952    0.1036   -3.5220 N   0  0  0  0  0  0  0  0  0  0  0  0
    0.9826    1.1124    1.4662 O   0  0  0  0  0  0  0  0  0  0  0  0
    0.6292    1.3459    2.3349 H   0  0  0  0  0  0  0  0  0  0  0  0
   -2.7880   -1.5885   -1.6483 N   0  0  0  0  0  0  0  0  0  0  0  0
   -3.9019   -1.8025   -1.1658 O   0  0  0  0  0  0  0  0  0  0  0  0
   -2.4408   -1.9297   -2.7804 O   0  0  0  0  0  0  0  0  0  0  0  0
  1  6  2  0  0  0  0
  1  2  1  0  0  0  0
  2  3  2  0  0  0  0
  3  4  1  0  0  0  0
  3 13  1  0  0  0  0
  4  9  1  0  0  0  0
  5 10  1  0  0  0  0
  5  4  2  0  0  0  0
  6  5  1  0  0  0  0
  7  1  1  0  0  0  0
  8  2  1  0  0  0  0
 11 12  3  0  0  0  0
 13 14  1  0  0  0  0
 15 16  2  0  0  0  0
 15  6  1  0  0  0  0
 17 15  2  0  0  0  0
M  END
