Coordinates from ORCA-job 4-NO2-Ph-N2-OH-B3LYPG-6-31G_dp-MTMO-d009-169-n900
 OpenBabel09051908023D

 17 16  0  0  0  0  0  0  0  0999 V2000
    0.5948    0.6906    0.2798 C   0  0  0  0  0  0  0  0  0  0  0  0
    0.4058    1.1420    1.5770 C   0  0  0  0  0  0  0  0  0  0  0  0
   -0.7751    0.8189    2.2638 C   0  0  0  0  0  0  0  0  0  0  0  0
   -1.7640    0.0407    1.6427 C   0  0  0  0  0  0  0  0  0  0  0  0
   -1.5762   -0.4125    0.3431 C   0  0  0  0  0  0  0  0  0  0  0  0
   -0.3986   -0.0830   -0.3266 C   0  0  0  0  0  0  0  0  0  0  0  0
    1.4950    0.9246   -0.2747 H   0  0  0  0  0  0  0  0  0  0  0  0
    1.1555    1.7439    2.0786 H   0  0  0  0  0  0  0  0  0  0  0  0
   -2.6768   -0.2086    2.1782 H   0  0  0  0  0  0  0  0  0  0  0  0
   -2.3226   -1.0139   -0.1604 H   0  0  0  0  0  0  0  0  0  0  0  0
    0.0901   -3.9995  -10.8133 N   0  0  0  0  0  0  0  0  0  0  0  0
    0.5455   -4.7381  -10.1287 N   0  0  0  0  0  0  0  0  0  0  0  0
   -0.9040    1.2892    3.5297 O   0  0  0  0  0  0  0  0  0  0  0  0
   -1.7529    1.0086    3.8969 H   0  0  0  0  0  0  0  0  0  0  0  0
   -0.2003   -0.5583   -1.6951 N   0  0  0  0  0  0  0  0  0  0  0  0
   -1.0954   -1.2373   -2.2023 O   0  0  0  0  0  0  0  0  0  0  0  0
    0.8501   -0.2527   -2.2618 O   0  0  0  0  0  0  0  0  0  0  0  0
  1  2  1  0  0  0  0
  2  8  1  0  0  0  0
  2  3  2  0  0  0  0
  3 13  1  0  0  0  0
  4  9  1  0  0  0  0
  4  3  1  0  0  0  0
  5  4  2  0  0  0  0
  6  1  2  0  0  0  0
  6  5  1  0  0  0  0
  7  1  1  0  0  0  0
 10  5  1  0  0  0  0
 11 12  3  0  0  0  0
 13 14  1  0  0  0  0
 15  6  1  0  0  0  0
 16 15  2  0  0  0  0
 17 15  2  0  0  0  0
M  END
