Coordinates from ORCA-job 4-NO2-Ph-N2-OH-B3LYPG-6-31G_dp-MTMO-d009-169-n900
 OpenBabel09051908013D

 17 16  0  0  0  0  0  0  0  0999 V2000
    0.6149    0.5969    0.0329 C   0  0  0  0  0  0  0  0  0  0  0  0
    0.4291    1.0299    1.3369 C   0  0  0  0  0  0  0  0  0  0  0  0
   -0.7510    0.6988    2.0213 C   0  0  0  0  0  0  0  0  0  0  0  0
   -1.7423   -0.0688    1.3911 C   0  0  0  0  0  0  0  0  0  0  0  0
   -1.5578   -0.5035    0.0847 C   0  0  0  0  0  0  0  0  0  0  0  0
   -0.3809   -0.1663   -0.5825 C   0  0  0  0  0  0  0  0  0  0  0  0
    1.5144    0.8375   -0.5198 H   0  0  0  0  0  0  0  0  0  0  0  0
    1.1807    1.6233    1.8456 H   0  0  0  0  0  0  0  0  0  0  0  0
   -2.6545   -0.3245    1.9246 H   0  0  0  0  0  0  0  0  0  0  0  0
   -2.3062   -1.0964   -0.4260 H   0  0  0  0  0  0  0  0  0  0  0  0
   -0.0556   -3.2461   -8.9181 N   0  0  0  0  0  0  0  0  0  0  0  0
    0.3873   -4.0188   -8.2635 N   0  0  0  0  0  0  0  0  0  0  0  0
   -0.8765    1.1511    3.2942 O   0  0  0  0  0  0  0  0  0  0  0  0
   -1.7251    0.8666    3.6591 H   0  0  0  0  0  0  0  0  0  0  0  0
   -0.1861   -0.6223   -1.9581 N   0  0  0  0  0  0  0  0  0  0  0  0
   -1.0834   -1.2923   -2.4733 O   0  0  0  0  0  0  0  0  0  0  0  0
    0.8639   -0.3106   -2.5224 O   0  0  0  0  0  0  0  0  0  0  0  0
  1  2  1  0  0  0  0
  2  8  1  0  0  0  0
  2  3  2  0  0  0  0
  3 13  1  0  0  0  0
  4  9  1  0  0  0  0
  4  3  1  0  0  0  0
  5  4  2  0  0  0  0
  6  1  2  0  0  0  0
  6  5  1  0  0  0  0
  7  1  1  0  0  0  0
 10  5  1  0  0  0  0
 11 12  3  0  0  0  0
 13 14  1  0  0  0  0
 15  6  1  0  0  0  0
 16 15  2  0  0  0  0
 17 15  2  0  0  0  0
M  END
