Coordinates from ORCA-job 4-NO2-Ph-N2-OH-B3LYPG-6-31G_dp-MTMO-d009-169-n900
 OpenBabel09051908013D

 17 15  0  0  0  0  0  0  0  0999 V2000
   -0.9083   -1.0827   -1.0446 C   0  0  0  0  0  0  0  0  0  0  0  0
    0.0546   -0.1526   -0.6078 C   0  0  0  0  0  0  0  0  0  0  0  0
   -0.4563    0.8564    0.1387 C   0  0  0  0  0  0  0  0  0  0  0  0
   -1.7300    1.1337    0.5433 C   0  0  0  0  0  0  0  0  0  0  0  0
   -2.6746    0.1918    0.0967 C   0  0  0  0  0  0  0  0  0  0  0  0
   -2.2417   -0.8850   -0.6809 C   0  0  0  0  0  0  0  0  0  0  0  0
   -0.6325   -1.9387   -1.6504 H   0  0  0  0  0  0  0  0  0  0  0  0
    1.1133   -0.2546   -0.8608 H   0  0  0  0  0  0  0  0  0  0  0  0
   -2.0184    1.9872    1.1482 H   0  0  0  0  0  0  0  0  0  0  0  0
   -3.7253    0.2890    0.3462 H   0  0  0  0  0  0  0  0  0  0  0  0
    3.1862    1.6455   -0.0054 N   0  0  0  0  0  0  0  0  0  0  0  0
    3.0934    0.6965   -0.5855 N   0  0  0  0  0  0  0  0  0  0  0  0
    4.7935   -0.1134   -1.3781 O   0  0  0  0  0  0  0  0  0  0  0  0
    4.3268   -0.8812   -1.7531 H   0  0  0  0  0  0  0  0  0  0  0  0
   -3.2463   -1.8626   -1.1420 N   0  0  0  0  0  0  0  0  0  0  0  0
   -4.4153   -1.6693   -0.8161 O   0  0  0  0  0  0  0  0  0  0  0  0
   -2.8478   -2.8054   -1.8217 O   0  0  0  0  0  0  0  0  0  0  0  0
  1  6  2  0  0  0  0
  1  2  1  0  0  0  0
  2  3  2  0  0  0  0
  3  4  1  0  0  0  0
  4  9  1  0  0  0  0
  5 10  1  0  0  0  0
  5  4  2  0  0  0  0
  6  5  1  0  0  0  0
  7  1  1  0  0  0  0
  8  2  1  0  0  0  0
 12 11  3  0  0  0  0
 14 13  1  0  0  0  0
 15 16  2  0  0  0  0
 15  6  1  0  0  0  0
 17 15  2  0  0  0  0
M  RAD  2   3   2  13   2
M  END
