Coordinates from ORCA-job 4-NO2-Ph-N2-OH-B3LYPG-6-31G_dp-MTMO-d009-169-n900
 OpenBabel09051908023D

 17 16  0  0  0  0  0  0  0  0999 V2000
    0.5909    0.7094    0.3292 C   0  0  0  0  0  0  0  0  0  0  0  0
    0.4010    1.1643    1.6251 C   0  0  0  0  0  0  0  0  0  0  0  0
   -0.7801    0.8426    2.3121 C   0  0  0  0  0  0  0  0  0  0  0  0
   -1.7683    0.0624    1.6926 C   0  0  0  0  0  0  0  0  0  0  0  0
   -1.5797   -0.3942    0.3944 C   0  0  0  0  0  0  0  0  0  0  0  0
   -0.4018   -0.0661   -0.2756 C   0  0  0  0  0  0  0  0  0  0  0  0
    1.4913    0.9422   -0.2255 H   0  0  0  0  0  0  0  0  0  0  0  0
    1.1503    1.7678    2.1254 H   0  0  0  0  0  0  0  0  0  0  0  0
   -2.6814   -0.1858    2.2283 H   0  0  0  0  0  0  0  0  0  0  0  0
   -2.3257   -0.9973   -0.1079 H   0  0  0  0  0  0  0  0  0  0  0  0
    0.1182   -4.1516  -11.1921 N   0  0  0  0  0  0  0  0  0  0  0  0
    0.5767   -4.8804  -10.4992 N   0  0  0  0  0  0  0  0  0  0  0  0
   -0.9098    1.3163    3.5767 O   0  0  0  0  0  0  0  0  0  0  0  0
   -1.7588    1.0364    3.9442 H   0  0  0  0  0  0  0  0  0  0  0  0
   -0.2027   -0.5451   -1.6427 N   0  0  0  0  0  0  0  0  0  0  0  0
   -1.0972   -1.2259   -2.1485 O   0  0  0  0  0  0  0  0  0  0  0  0
    0.8479   -0.2406   -2.2097 O   0  0  0  0  0  0  0  0  0  0  0  0
  1  2  1  0  0  0  0
  2  8  1  0  0  0  0
  2  3  2  0  0  0  0
  3 13  1  0  0  0  0
  4  9  1  0  0  0  0
  4  3  1  0  0  0  0
  5  4  2  0  0  0  0
  6  1  2  0  0  0  0
  6  5  1  0  0  0  0
  7  1  1  0  0  0  0
 10  5  1  0  0  0  0
 11 12  3  0  0  0  0
 13 14  1  0  0  0  0
 15  6  1  0  0  0  0
 16 15  2  0  0  0  0
 17 15  2  0  0  0  0
M  END
