Coordinates from ORCA-job 4-NO2-Ph-N2-OH-B3LYPG-6-31G_dp-MTMO-d009-169-n900
 OpenBabel09051908013D

 17 16  0  0  0  0  0  0  0  0999 V2000
    0.6043    0.6450    0.1599 C   0  0  0  0  0  0  0  0  0  0  0  0
    0.4172    1.0877    1.4605 C   0  0  0  0  0  0  0  0  0  0  0  0
   -0.7631    0.7609    2.1464 C   0  0  0  0  0  0  0  0  0  0  0  0
   -1.7534   -0.0122    1.5212 C   0  0  0  0  0  0  0  0  0  0  0  0
   -1.5676   -0.4565    0.2183 C   0  0  0  0  0  0  0  0  0  0  0  0
   -0.3904   -0.1235   -0.4505 C   0  0  0  0  0  0  0  0  0  0  0  0
    1.5041    0.8821   -0.3939 H   0  0  0  0  0  0  0  0  0  0  0  0
    1.1681    1.6854    1.9653 H   0  0  0  0  0  0  0  0  0  0  0  0
   -2.6659   -0.2644    2.0560 H   0  0  0  0  0  0  0  0  0  0  0  0
   -2.3151   -1.0538   -0.2885 H   0  0  0  0  0  0  0  0  0  0  0  0
    0.0210   -3.6334   -9.8951 N   0  0  0  0  0  0  0  0  0  0  0  0
    0.4695   -4.3905   -9.2263 N   0  0  0  0  0  0  0  0  0  0  0  0
   -0.8901    1.2226    3.4157 O   0  0  0  0  0  0  0  0  0  0  0  0
   -1.7387    0.9403    3.7821 H   0  0  0  0  0  0  0  0  0  0  0  0
   -0.1942   -0.5896   -1.8225 N   0  0  0  0  0  0  0  0  0  0  0  0
   -1.0905   -1.2642   -2.3333 O   0  0  0  0  0  0  0  0  0  0  0  0
    0.8559   -0.2812   -2.3883 O   0  0  0  0  0  0  0  0  0  0  0  0
  1  2  1  0  0  0  0
  2  8  1  0  0  0  0
  2  3  2  0  0  0  0
  3 13  1  0  0  0  0
  4  9  1  0  0  0  0
  4  3  1  0  0  0  0
  5  4  2  0  0  0  0
  6  1  2  0  0  0  0
  6  5  1  0  0  0  0
  7  1  1  0  0  0  0
 10  5  1  0  0  0  0
 11 12  3  0  0  0  0
 13 14  1  0  0  0  0
 15  6  1  0  0  0  0
 16 15  2  0  0  0  0
 17 15  2  0  0  0  0
M  END
