Coordinates from ORCA-job 4-NO2-Ph-N2-OH-B3LYPG-6-31G_dp-MTMO-d009-169-n900
 OpenBabel09051908013D

 17 16  0  0  0  0  0  0  0  0999 V2000
    0.6066    0.6342    0.1314 C   0  0  0  0  0  0  0  0  0  0  0  0
    0.4199    1.0747    1.4328 C   0  0  0  0  0  0  0  0  0  0  0  0
   -0.7603    0.7470    2.1184 C   0  0  0  0  0  0  0  0  0  0  0  0
   -1.7509   -0.0248    1.4921 C   0  0  0  0  0  0  0  0  0  0  0  0
   -1.5655   -0.4670    0.1884 C   0  0  0  0  0  0  0  0  0  0  0  0
   -0.3884   -0.1331   -0.4801 C   0  0  0  0  0  0  0  0  0  0  0  0
    1.5063    0.8720   -0.4222 H   0  0  0  0  0  0  0  0  0  0  0  0
    1.1710    1.6715    1.9384 H   0  0  0  0  0  0  0  0  0  0  0  0
   -2.6633   -0.2778    2.0267 H   0  0  0  0  0  0  0  0  0  0  0  0
   -2.3132   -1.0633   -0.3192 H   0  0  0  0  0  0  0  0  0  0  0  0
    0.0042   -3.5466   -9.6763 N   0  0  0  0  0  0  0  0  0  0  0  0
    0.4513   -4.3073   -9.0108 N   0  0  0  0  0  0  0  0  0  0  0  0
   -0.8869    1.2066    3.3885 O   0  0  0  0  0  0  0  0  0  0  0  0
   -1.7355    0.9238    3.7546 H   0  0  0  0  0  0  0  0  0  0  0  0
   -0.1926   -0.5970   -1.8529 N   0  0  0  0  0  0  0  0  0  0  0  0
   -1.0892   -1.2705   -2.3646 O   0  0  0  0  0  0  0  0  0  0  0  0
    0.8575   -0.2879   -2.4184 O   0  0  0  0  0  0  0  0  0  0  0  0
  1  2  1  0  0  0  0
  2  8  1  0  0  0  0
  2  3  2  0  0  0  0
  3 13  1  0  0  0  0
  4  9  1  0  0  0  0
  4  3  1  0  0  0  0
  5  4  2  0  0  0  0
  6  1  2  0  0  0  0
  6  5  1  0  0  0  0
  7  1  1  0  0  0  0
 10  5  1  0  0  0  0
 11 12  3  0  0  0  0
 13 14  1  0  0  0  0
 15  6  1  0  0  0  0
 16 15  2  0  0  0  0
 17 15  2  0  0  0  0
M  END
