Coordinates from ORCA-job 4-NO2-Ph-N2-OH-B3LYPG-6-31G_dp-MTMO-d009-169-n900
 OpenBabel09051908013D

 17 16  0  0  0  0  0  0  0  0999 V2000
   -0.9803   -1.2919   -1.1618 C   0  0  0  0  0  0  0  0  0  0  0  0
    0.1185   -0.4852   -0.8289 C   0  0  0  0  0  0  0  0  0  0  0  0
   -0.1695    0.6066   -0.0722 C   0  0  0  0  0  0  0  0  0  0  0  0
   -1.3710    1.0433    0.4185 C   0  0  0  0  0  0  0  0  0  0  0  0
   -2.4629    0.2277    0.0795 C   0  0  0  0  0  0  0  0  0  0  0  0
   -2.2427   -0.9124   -0.6977 C   0  0  0  0  0  0  0  0  0  0  0  0
   -0.8754   -2.1894   -1.7601 H   0  0  0  0  0  0  0  0  0  0  0  0
    1.1385   -0.7129   -1.1526 H   0  0  0  0  0  0  0  0  0  0  0  0
   -1.4955    1.9389    1.0177 H   0  0  0  0  0  0  0  0  0  0  0  0
   -3.4681    0.4648    0.4080 H   0  0  0  0  0  0  0  0  0  0  0  0
    2.6451    1.5313    0.0335 N   0  0  0  0  0  0  0  0  0  0  0  0
    2.9880    0.6187   -0.6034 N   0  0  0  0  0  0  0  0  0  0  0  0
    4.4664    0.5286   -0.9162 O   0  0  0  0  0  0  0  0  0  0  0  0
    4.4738   -0.2972   -1.4279 H   0  0  0  0  0  0  0  0  0  0  0  0
   -3.4002   -1.7552   -1.0464 N   0  0  0  0  0  0  0  0  0  0  0  0
   -4.5042   -1.4061   -0.6325 O   0  0  0  0  0  0  0  0  0  0  0  0
   -3.1896   -2.7552   -1.7306 O   0  0  0  0  0  0  0  0  0  0  0  0
  1  2  2  0  0  0  0
  1  6  1  0  0  0  0
  2  3  1  0  0  0  0
  3  4  2  0  0  0  0
  4  9  1  0  0  0  0
  5 10  1  0  0  0  0
  5  4  1  0  0  0  0
  6  5  2  0  0  0  0
  7  1  1  0  0  0  0
  8  2  1  0  0  0  0
 12 11  2  0  0  0  0
 13 12  1  0  0  0  0
 14 13  1  0  0  0  0
 15  6  1  0  0  0  0
 15 16  2  0  0  0  0
 17 15  2  0  0  0  0
M  RAD  2   3   2  11   2
M  END
