Coordinates from ORCA-job 4-NO2-Ph-N2-OH-B3LYPG-6-31G_dp-MTMO-d009-169-n900
 OpenBabel09051908013D

 17 16  0  0  0  0  0  0  0  0999 V2000
   -0.9134   -0.9648   -1.6551 C   0  0  0  0  0  0  0  0  0  0  0  0
    0.2567   -0.3674   -1.2108 C   0  0  0  0  0  0  0  0  0  0  0  0
    0.2975    0.2242    0.0616 C   0  0  0  0  0  0  0  0  0  0  0  0
   -0.8385    0.2140    0.8852 C   0  0  0  0  0  0  0  0  0  0  0  0
   -2.0113   -0.3839    0.4408 C   0  0  0  0  0  0  0  0  0  0  0  0
   -2.0378   -0.9679   -0.8252 C   0  0  0  0  0  0  0  0  0  0  0  0
   -0.9754   -1.4287   -2.6312 H   0  0  0  0  0  0  0  0  0  0  0  0
    1.1487   -0.3439   -1.8266 H   0  0  0  0  0  0  0  0  0  0  0  0
   -0.8022    0.6730    1.8698 H   0  0  0  0  0  0  0  0  0  0  0  0
   -2.9036   -0.4068    1.0539 H   0  0  0  0  0  0  0  0  0  0  0  0
    4.6143    1.4253   -1.7024 N   0  0  0  0  0  0  0  0  0  0  0  0
    3.7688    0.8079   -2.0563 N   0  0  0  0  0  0  0  0  0  0  0  0
    1.4702    0.7937    0.4413 O   0  0  0  0  0  0  0  0  0  0  0  0
    1.3813    1.1632    1.3300 H   0  0  0  0  0  0  0  0  0  0  0  0
   -3.2721   -1.5968   -1.2934 N   0  0  0  0  0  0  0  0  0  0  0  0
   -4.2473   -1.5785   -0.5399 O   0  0  0  0  0  0  0  0  0  0  0  0
   -3.2651   -2.1081   -2.4147 O   0  0  0  0  0  0  0  0  0  0  0  0
  1  2  2  0  0  0  0
  1  6  1  0  0  0  0
  2  3  1  0  0  0  0
  3 13  1  0  0  0  0
  3  4  2  0  0  0  0
  4  9  1  0  0  0  0
  5  4  1  0  0  0  0
  5 10  1  0  0  0  0
  6  5  2  0  0  0  0
  7  1  1  0  0  0  0
  8  2  1  0  0  0  0
 12 11  3  0  0  0  0
 13 14  1  0  0  0  0
 15  6  1  0  0  0  0
 15 16  2  0  0  0  0
 17 15  2  0  0  0  0
M  END
