Coordinates from ORCA-job 4-NO2-Ph-N2-OH-B3LYPG-6-31G_dp-MTMO-d009-169-n900
 OpenBabel09051908013D

 17 16  0  0  0  0  0  0  0  0999 V2000
    0.6123    0.6084    0.0632 C   0  0  0  0  0  0  0  0  0  0  0  0
    0.4263    1.0437    1.3664 C   0  0  0  0  0  0  0  0  0  0  0  0
   -0.7538    0.7136    2.0512 C   0  0  0  0  0  0  0  0  0  0  0  0
   -1.7450   -0.0553    1.4222 C   0  0  0  0  0  0  0  0  0  0  0  0
   -1.5602   -0.4922    0.1167 C   0  0  0  0  0  0  0  0  0  0  0  0
   -0.3833   -0.1560   -0.5510 C   0  0  0  0  0  0  0  0  0  0  0  0
    1.5118    0.8480   -0.4899 H   0  0  0  0  0  0  0  0  0  0  0  0
    1.1778    1.6380    1.8741 H   0  0  0  0  0  0  0  0  0  0  0  0
   -2.6572   -0.3101    1.9562 H   0  0  0  0  0  0  0  0  0  0  0  0
   -2.3085   -1.0862   -0.3931 H   0  0  0  0  0  0  0  0  0  0  0  0
   -0.0369   -3.3385   -9.1514 N   0  0  0  0  0  0  0  0  0  0  0  0
    0.4072   -4.1076   -8.4934 N   0  0  0  0  0  0  0  0  0  0  0  0
   -0.8795    1.1681    3.3232 O   0  0  0  0  0  0  0  0  0  0  0  0
   -1.7281    0.8842    3.6886 H   0  0  0  0  0  0  0  0  0  0  0  0
   -0.1883   -0.6145   -1.9258 N   0  0  0  0  0  0  0  0  0  0  0  0
   -1.0854   -1.2856   -2.4399 O   0  0  0  0  0  0  0  0  0  0  0  0
    0.8617   -0.3037   -2.4905 O   0  0  0  0  0  0  0  0  0  0  0  0
  1  2  1  0  0  0  0
  2  8  1  0  0  0  0
  2  3  2  0  0  0  0
  3 13  1  0  0  0  0
  4  9  1  0  0  0  0
  4  3  1  0  0  0  0
  5  4  2  0  0  0  0
  6  1  2  0  0  0  0
  6  5  1  0  0  0  0
  7  1  1  0  0  0  0
 10  5  1  0  0  0  0
 11 12  3  0  0  0  0
 13 14  1  0  0  0  0
 15  6  1  0  0  0  0
 16 15  2  0  0  0  0
 17 15  2  0  0  0  0
M  END
