Coordinates from ORCA-job 4-NO2-Ph-N2-OH-B3LYPG-6-31G_dp-MTMO-d009-169-n900
 OpenBabel09051908013D

 17 15  0  0  0  0  0  0  0  0999 V2000
   -0.9185   -1.1059   -1.0526 C   0  0  0  0  0  0  0  0  0  0  0  0
    0.0593   -0.1873   -0.6256 C   0  0  0  0  0  0  0  0  0  0  0  0
   -0.4327    0.8320    0.1200 C   0  0  0  0  0  0  0  0  0  0  0  0
   -1.7000    1.1284    0.5311 C   0  0  0  0  0  0  0  0  0  0  0  0
   -2.6600    0.1978    0.0940 C   0  0  0  0  0  0  0  0  0  0  0  0
   -2.2469   -0.8882   -0.6815 C   0  0  0  0  0  0  0  0  0  0  0  0
   -0.6585   -1.9683   -1.6562 H   0  0  0  0  0  0  0  0  0  0  0  0
    1.1154   -0.3032   -0.8838 H   0  0  0  0  0  0  0  0  0  0  0  0
   -1.9728    1.9883    1.1340 H   0  0  0  0  0  0  0  0  0  0  0  0
   -3.7078    0.3104    0.3493 H   0  0  0  0  0  0  0  0  0  0  0  0
    3.1359    1.6315    0.0111 N   0  0  0  0  0  0  0  0  0  0  0  0
    3.0827    0.6853   -0.5807 N   0  0  0  0  0  0  0  0  0  0  0  0
    4.7980   -0.0448   -1.3466 O   0  0  0  0  0  0  0  0  0  0  0  0
    4.3633   -0.8211   -1.7419 H   0  0  0  0  0  0  0  0  0  0  0  0
   -3.2678   -1.8534   -1.1325 N   0  0  0  0  0  0  0  0  0  0  0  0
   -4.4321   -1.6424   -0.8008 O   0  0  0  0  0  0  0  0  0  0  0  0
   -2.8867   -2.8046   -1.8105 O   0  0  0  0  0  0  0  0  0  0  0  0
  1  6  2  0  0  0  0
  1  2  1  0  0  0  0
  2  3  2  0  0  0  0
  3  4  1  0  0  0  0
  4  9  1  0  0  0  0
  5 10  1  0  0  0  0
  5  4  2  0  0  0  0
  6  5  1  0  0  0  0
  7  1  1  0  0  0  0
  8  2  1  0  0  0  0
 12 11  3  0  0  0  0
 14 13  1  0  0  0  0
 15 16  2  0  0  0  0
 15  6  1  0  0  0  0
 17 15  2  0  0  0  0
M  RAD  2   3   2  13   2
M  END
