Coordinates from ORCA-job 4-NO2-Ph-N2-OH-B3LYPG-6-31G_dp-MTMO-d009-169-n900
 OpenBabel09051908013D

 17 16  0  0  0  0  0  0  0  0999 V2000
   -0.7065   -0.7506   -1.5048 C   0  0  0  0  0  0  0  0  0  0  0  0
    0.3341   -0.0929   -0.8660 C   0  0  0  0  0  0  0  0  0  0  0  0
    0.1575    0.3842    0.4423 C   0  0  0  0  0  0  0  0  0  0  0  0
   -1.0649    0.1975    1.1054 C   0  0  0  0  0  0  0  0  0  0  0  0
   -2.1078   -0.4613    0.4661 C   0  0  0  0  0  0  0  0  0  0  0  0
   -1.9189   -0.9293   -0.8335 C   0  0  0  0  0  0  0  0  0  0  0  0
   -0.6005   -1.1284   -2.5137 H   0  0  0  0  0  0  0  0  0  0  0  0
    1.2871    0.0634   -1.3588 H   0  0  0  0  0  0  0  0  0  0  0  0
   -1.1973    0.5680    2.1187 H   0  0  0  0  0  0  0  0  0  0  0  0
   -3.0616   -0.6190    0.9541 H   0  0  0  0  0  0  0  0  0  0  0  0
    4.6470    0.6228   -3.1564 N   0  0  0  0  0  0  0  0  0  0  0  0
    3.6323    0.3769   -2.7947 N   0  0  0  0  0  0  0  0  0  0  0  0
    1.2094    1.0215    1.0164 O   0  0  0  0  0  0  0  0  0  0  0  0
    0.9698    1.3083    1.9077 H   0  0  0  0  0  0  0  0  0  0  0  0
   -3.0157   -1.6212   -1.5086 N   0  0  0  0  0  0  0  0  0  0  0  0
   -4.0742   -1.7588   -0.8919 O   0  0  0  0  0  0  0  0  0  0  0  0
   -2.8187   -2.0268   -2.6554 O   0  0  0  0  0  0  0  0  0  0  0  0
  1  2  2  0  0  0  0
  1  6  1  0  0  0  0
  2  3  1  0  0  0  0
  3 13  1  0  0  0  0
  3  4  2  0  0  0  0
  4  9  1  0  0  0  0
  5 10  1  0  0  0  0
  5  4  1  0  0  0  0
  6  5  2  0  0  0  0
  7  1  1  0  0  0  0
  8  2  1  0  0  0  0
 11 12  3  0  0  0  0
 13 14  1  0  0  0  0
 15 16  2  0  0  0  0
 15  6  1  0  0  0  0
 17 15  2  0  0  0  0
M  END
