Coordinates from ORCA-job 4-NO2-Ph-N2-OH-B3LYPG-6-31G_dp-MTMO-d009-169-n900
 OpenBabel09051908013D

 17 16  0  0  0  0  0  0  0  0999 V2000
   -0.7908   -0.8111   -1.5626 C   0  0  0  0  0  0  0  0  0  0  0  0
    0.2950   -0.1645   -0.9911 C   0  0  0  0  0  0  0  0  0  0  0  0
    0.1950    0.3437    0.3137 C   0  0  0  0  0  0  0  0  0  0  0  0
   -0.9962    0.1996    1.0411 C   0  0  0  0  0  0  0  0  0  0  0  0
   -2.0845   -0.4479    0.4693 C   0  0  0  0  0  0  0  0  0  0  0  0
   -1.9715   -0.9471   -0.8276 C   0  0  0  0  0  0  0  0  0  0  0  0
   -0.7448   -1.2128   -2.5666 H   0  0  0  0  0  0  0  0  0  0  0  0
    1.2261   -0.0403   -1.5328 H   0  0  0  0  0  0  0  0  0  0  0  0
   -1.0683    0.5942    2.0513 H   0  0  0  0  0  0  0  0  0  0  0  0
   -3.0158   -0.5730    1.0076 H   0  0  0  0  0  0  0  0  0  0  0  0
    4.7618    0.8760   -2.6571 N   0  0  0  0  0  0  0  0  0  0  0  0
    3.7219    0.5090   -2.5867 N   0  0  0  0  0  0  0  0  0  0  0  0
    1.2887    0.9679    0.8206 O   0  0  0  0  0  0  0  0  0  0  0  0
    1.1015    1.2769    1.7171 H   0  0  0  0  0  0  0  0  0  0  0  0
   -3.1161   -1.6275   -1.4317 N   0  0  0  0  0  0  0  0  0  0  0  0
   -4.1451   -1.7266   -0.7602 O   0  0  0  0  0  0  0  0  0  0  0  0
   -2.9857   -2.0620   -2.5774 O   0  0  0  0  0  0  0  0  0  0  0  0
  1  2  2  0  0  0  0
  1  6  1  0  0  0  0
  2  3  1  0  0  0  0
  3 13  1  0  0  0  0
  3  4  2  0  0  0  0
  4  9  1  0  0  0  0
  5 10  1  0  0  0  0
  5  4  1  0  0  0  0
  6  5  2  0  0  0  0
  7  1  1  0  0  0  0
  8  2  1  0  0  0  0
 11 12  3  0  0  0  0
 13 14  1  0  0  0  0
 15  6  1  0  0  0  0
 15 16  2  0  0  0  0
 17 15  2  0  0  0  0
M  END
