Coordinates from ORCA-job 4-NO2-Ph-N2-OH-B3LYPG-6-31G_dp-MTMO-d009-169-n900
 OpenBabel09051908013D

 17 16  0  0  0  0  0  0  0  0999 V2000
   -1.0557   -1.4821   -1.2678 C   0  0  0  0  0  0  0  0  0  0  0  0
    0.1726   -0.8466   -1.0655 C   0  0  0  0  0  0  0  0  0  0  0  0
    0.1493    0.3060   -0.3166 C   0  0  0  0  0  0  0  0  0  0  0  0
   -0.9534    0.8998    0.2544 C   0  0  0  0  0  0  0  0  0  0  0  0
   -2.1790    0.2585    0.0478 C   0  0  0  0  0  0  0  0  0  0  0  0
   -2.2025   -0.9155   -0.7073 C   0  0  0  0  0  0  0  0  0  0  0  0
   -1.1397   -2.3961   -1.8428 H   0  0  0  0  0  0  0  0  0  0  0  0
    1.1023   -1.2310   -1.4719 H   0  0  0  0  0  0  0  0  0  0  0  0
   -0.8745    1.8148    0.8298 H   0  0  0  0  0  0  0  0  0  0  0  0
   -3.1032    0.6483    0.4558 H   0  0  0  0  0  0  0  0  0  0  0  0
    1.9373    1.2717    0.0014 N   0  0  0  0  0  0  0  0  0  0  0  0
    2.7208    0.5650   -0.5919 N   0  0  0  0  0  0  0  0  0  0  0  0
    4.0362    1.0956   -0.4754 O   0  0  0  0  0  0  0  0  0  0  0  0
    4.5476    0.4463   -0.9826 H   0  0  0  0  0  0  0  0  0  0  0  0
   -3.4962   -1.5872   -0.9241 N   0  0  0  0  0  0  0  0  0  0  0  0
   -4.4948   -1.0747   -0.4218 O   0  0  0  0  0  0  0  0  0  0  0  0
   -3.4964   -2.6183   -1.5947 O   0  0  0  0  0  0  0  0  0  0  0  0
  1  2  2  0  0  0  0
  1  6  1  0  0  0  0
  2  3  1  0  0  0  0
  3  4  2  0  0  0  0
  4  9  1  0  0  0  0
  5  4  1  0  0  0  0
  5 10  1  0  0  0  0
  6  5  2  0  0  0  0
  7  1  1  0  0  0  0
  8  2  1  0  0  0  0
 12 13  1  0  0  0  0
 12 11  1  0  0  0  0
 14 13  1  0  0  0  0
 15  6  1  0  0  0  0
 15 16  2  0  0  0  0
 17 15  2  0  0  0  0
M  RAD  3   3   2  11   3  12   2
M  END
