Coordinates from ORCA-job 4-NO2-Ph-N2-OH-B3LYPG-6-31G_dp-MTMO-d009-169-n900
 OpenBabel09051908013D

 17 16  0  0  0  0  0  0  0  0999 V2000
    0.6141    0.6005    0.0424 C   0  0  0  0  0  0  0  0  0  0  0  0
    0.4282    1.0342    1.3461 C   0  0  0  0  0  0  0  0  0  0  0  0
   -0.7518    0.7035    2.0307 C   0  0  0  0  0  0  0  0  0  0  0  0
   -1.7431   -0.0646    1.4008 C   0  0  0  0  0  0  0  0  0  0  0  0
   -1.5586   -0.5000    0.0947 C   0  0  0  0  0  0  0  0  0  0  0  0
   -0.3817   -0.1631   -0.5727 C   0  0  0  0  0  0  0  0  0  0  0  0
    1.5136    0.8408   -0.5105 H   0  0  0  0  0  0  0  0  0  0  0  0
    1.1798    1.6279    1.8545 H   0  0  0  0  0  0  0  0  0  0  0  0
   -2.6553   -0.3200    1.9345 H   0  0  0  0  0  0  0  0  0  0  0  0
   -2.3069   -1.0932   -0.4157 H   0  0  0  0  0  0  0  0  0  0  0  0
   -0.0497   -3.2750   -8.9910 N   0  0  0  0  0  0  0  0  0  0  0  0
    0.3935   -4.0465   -8.3353 N   0  0  0  0  0  0  0  0  0  0  0  0
   -0.8774    1.1564    3.3032 O   0  0  0  0  0  0  0  0  0  0  0  0
   -1.7260    0.8721    3.6683 H   0  0  0  0  0  0  0  0  0  0  0  0
   -0.1868   -0.6199   -1.9480 N   0  0  0  0  0  0  0  0  0  0  0  0
   -1.0840   -1.2902   -2.4628 O   0  0  0  0  0  0  0  0  0  0  0  0
    0.8632   -0.3085   -2.5124 O   0  0  0  0  0  0  0  0  0  0  0  0
  1  2  1  0  0  0  0
  2  8  1  0  0  0  0
  2  3  2  0  0  0  0
  3 13  1  0  0  0  0
  4  9  1  0  0  0  0
  4  3  1  0  0  0  0
  5  4  2  0  0  0  0
  6  1  2  0  0  0  0
  6  5  1  0  0  0  0
  7  1  1  0  0  0  0
 10  5  1  0  0  0  0
 11 12  3  0  0  0  0
 13 14  1  0  0  0  0
 15  6  1  0  0  0  0
 16 15  2  0  0  0  0
 17 15  2  0  0  0  0
M  END
