Coordinates from ORCA-job 4-NO2-Ph-N2-OH-B3LYPG-6-31G_dp-MTMO-d009-169-n900
 OpenBabel09051908013D

 17 16  0  0  0  0  0  0  0  0999 V2000
    0.6215    0.5685   -0.0424 C   0  0  0  0  0  0  0  0  0  0  0  0
    0.4358    0.9958    1.2636 C   0  0  0  0  0  0  0  0  0  0  0  0
   -0.7443    0.6619    1.9465 C   0  0  0  0  0  0  0  0  0  0  0  0
   -1.7357   -0.1029    1.3129 C   0  0  0  0  0  0  0  0  0  0  0  0
   -1.5513   -0.5318    0.0046 C   0  0  0  0  0  0  0  0  0  0  0  0
   -0.3744   -0.1918   -0.6612 C   0  0  0  0  0  0  0  0  0  0  0  0
    1.5210    0.8114   -0.5940 H   0  0  0  0  0  0  0  0  0  0  0  0
    1.1875    1.5868    1.7748 H   0  0  0  0  0  0  0  0  0  0  0  0
   -2.6480   -0.3608    1.8453 H   0  0  0  0  0  0  0  0  0  0  0  0
   -2.2998   -1.1223   -0.5086 H   0  0  0  0  0  0  0  0  0  0  0  0
   -0.1036   -3.0151   -8.3348 N   0  0  0  0  0  0  0  0  0  0  0  0
    0.3363   -3.7970   -7.6893 N   0  0  0  0  0  0  0  0  0  0  0  0
   -0.8697    1.1086    3.2213 O   0  0  0  0  0  0  0  0  0  0  0  0
   -1.7183    0.8226    3.5851 H   0  0  0  0  0  0  0  0  0  0  0  0
   -0.1796   -0.6419   -2.0386 N   0  0  0  0  0  0  0  0  0  0  0  0
   -1.0770   -1.3095   -2.5569 O   0  0  0  0  0  0  0  0  0  0  0  0
    0.8705   -0.3281   -2.6016 O   0  0  0  0  0  0  0  0  0  0  0  0
  1  2  1  0  0  0  0
  2  8  1  0  0  0  0
  2  3  2  0  0  0  0
  3 13  1  0  0  0  0
  4  9  1  0  0  0  0
  4  3  1  0  0  0  0
  5  4  2  0  0  0  0
  6  1  2  0  0  0  0
  6  5  1  0  0  0  0
  7  1  1  0  0  0  0
 10  5  1  0  0  0  0
 11 12  3  0  0  0  0
 13 14  1  0  0  0  0
 15  6  1  0  0  0  0
 16 15  2  0  0  0  0
 17 15  2  0  0  0  0
M  END
