Coordinates from ORCA-job 4-NO2-Ph-N2-OH-B3LYPG-6-31G_dp-MTMO-d009-169-n900
 OpenBabel09051908023D

 17 16  0  0  0  0  0  0  0  0999 V2000
    0.6010    0.6609    0.2018 C   0  0  0  0  0  0  0  0  0  0  0  0
    0.4132    1.1067    1.5012 C   0  0  0  0  0  0  0  0  0  0  0  0
   -0.7673    0.7812    2.1874 C   0  0  0  0  0  0  0  0  0  0  0  0
   -1.7571    0.0063    1.5637 C   0  0  0  0  0  0  0  0  0  0  0  0
   -1.5706   -0.4411    0.2620 C   0  0  0  0  0  0  0  0  0  0  0  0
   -0.3933   -0.1094   -0.4072 C   0  0  0  0  0  0  0  0  0  0  0  0
    1.5008    0.8968   -0.3524 H   0  0  0  0  0  0  0  0  0  0  0  0
    1.1637    1.7059    2.0048 H   0  0  0  0  0  0  0  0  0  0  0  0
   -2.6697   -0.2449    2.0988 H   0  0  0  0  0  0  0  0  0  0  0  0
   -2.3178   -1.0399   -0.2437 H   0  0  0  0  0  0  0  0  0  0  0  0
    0.0454   -3.7609  -10.2158 N   0  0  0  0  0  0  0  0  0  0  0  0
    0.4961   -4.5122   -9.5419 N   0  0  0  0  0  0  0  0  0  0  0  0
   -0.8948    1.2460    3.4555 O   0  0  0  0  0  0  0  0  0  0  0  0
   -1.7436    0.9643    3.8222 H   0  0  0  0  0  0  0  0  0  0  0  0
   -0.1965   -0.5788   -1.7780 N   0  0  0  0  0  0  0  0  0  0  0  0
   -1.0924   -1.2550   -2.2875 O   0  0  0  0  0  0  0  0  0  0  0  0
    0.8538   -0.2714   -2.3441 O   0  0  0  0  0  0  0  0  0  0  0  0
  1  2  1  0  0  0  0
  2  8  1  0  0  0  0
  2  3  2  0  0  0  0
  3 13  1  0  0  0  0
  4  9  1  0  0  0  0
  4  3  1  0  0  0  0
  5  4  2  0  0  0  0
  6  1  2  0  0  0  0
  6  5  1  0  0  0  0
  7  1  1  0  0  0  0
 10  5  1  0  0  0  0
 11 12  3  0  0  0  0
 13 14  1  0  0  0  0
 15  6  1  0  0  0  0
 16 15  2  0  0  0  0
 17 15  2  0  0  0  0
M  END
