Coordinates from ORCA-job 4-NO2-Ph-N2-OH-B3LYPG-6-31G_dp-MTMO-d009-169-n900
 OpenBabel09051908013D

 17 16  0  0  0  0  0  0  0  0999 V2000
   -0.5400   -0.6182   -1.3343 C   0  0  0  0  0  0  0  0  0  0  0  0
    0.3849    0.0530   -0.5486 C   0  0  0  0  0  0  0  0  0  0  0  0
    0.0339    0.4592    0.7488 C   0  0  0  0  0  0  0  0  0  0  0  0
   -1.2473    0.1885    1.2530 C   0  0  0  0  0  0  0  0  0  0  0  0
   -2.1747   -0.4841    0.4667 C   0  0  0  0  0  0  0  0  0  0  0  0
   -1.8124   -0.8811   -0.8199 C   0  0  0  0  0  0  0  0  0  0  0  0
   -0.2980   -0.9433   -2.3381 H   0  0  0  0  0  0  0  0  0  0  0  0
    1.3801    0.2734   -0.9181 H   0  0  0  0  0  0  0  0  0  0  0  0
   -1.5153    0.5051    2.2576 H   0  0  0  0  0  0  0  0  0  0  0  0
   -3.1701   -0.7065    0.8297 H   0  0  0  0  0  0  0  0  0  0  0  0
    4.4490    0.0682   -4.3492 N   0  0  0  0  0  0  0  0  0  0  0  0
    3.7041    0.1023   -3.5333 N   0  0  0  0  0  0  0  0  0  0  0  0
    0.9799    1.1127    1.4696 O   0  0  0  0  0  0  0  0  0  0  0  0
    0.6259    1.3459    2.3381 H   0  0  0  0  0  0  0  0  0  0  0  0
   -2.7877   -1.5884   -1.6483 N   0  0  0  0  0  0  0  0  0  0  0  0
   -3.9018   -1.8029   -1.1666 O   0  0  0  0  0  0  0  0  0  0  0  0
   -2.4396   -1.9292   -2.7802 O   0  0  0  0  0  0  0  0  0  0  0  0
  1  6  2  0  0  0  0
  1  2  1  0  0  0  0
  2  3  2  0  0  0  0
  3  4  1  0  0  0  0
  3 13  1  0  0  0  0
  4  9  1  0  0  0  0
  5 10  1  0  0  0  0
  5  4  2  0  0  0  0
  6  5  1  0  0  0  0
  7  1  1  0  0  0  0
  8  2  1  0  0  0  0
 11 12  3  0  0  0  0
 13 14  1  0  0  0  0
 15 16  2  0  0  0  0
 15  6  1  0  0  0  0
 17 15  2  0  0  0  0
M  END
