Coordinates from ORCA-job 4-NO2-Ph-N2-OH-B3LYPG-6-31G_dp-MTMO-d009-169-n900
 OpenBabel09051908013D

 17 16  0  0  0  0  0  0  0  0999 V2000
   -0.5399   -0.6308   -1.3637 C   0  0  0  0  0  0  0  0  0  0  0  0
    0.3975    0.0394   -0.5921 C   0  0  0  0  0  0  0  0  0  0  0  0
    0.0637    0.4534    0.7074 C   0  0  0  0  0  0  0  0  0  0  0  0
   -1.2129    0.1914    1.2279 C   0  0  0  0  0  0  0  0  0  0  0  0
   -2.1527   -0.4801    0.4557 C   0  0  0  0  0  0  0  0  0  0  0  0
   -1.8075   -0.8849   -0.8332 C   0  0  0  0  0  0  0  0  0  0  0  0
   -0.3110   -0.9615   -2.3687 H   0  0  0  0  0  0  0  0  0  0  0  0
    1.3894    0.2529   -0.9748 H   0  0  0  0  0  0  0  0  0  0  0  0
   -1.4676    0.5140    2.2341 H   0  0  0  0  0  0  0  0  0  0  0  0
   -3.1449   -0.6959    0.8311 H   0  0  0  0  0  0  0  0  0  0  0  0
    4.3458    0.1076   -4.1551 N   0  0  0  0  0  0  0  0  0  0  0  0
    3.5761    0.1257   -3.3621 N   0  0  0  0  0  0  0  0  0  0  0  0
    1.0212    1.1057    1.4141 O   0  0  0  0  0  0  0  0  0  0  0  0
    0.6781    1.3450    2.2853 H   0  0  0  0  0  0  0  0  0  0  0  0
   -2.7960   -1.5909   -1.6468 N   0  0  0  0  0  0  0  0  0  0  0  0
   -3.9056   -1.7974   -1.1512 O   0  0  0  0  0  0  0  0  0  0  0  0
   -2.4628   -1.9389   -2.7810 O   0  0  0  0  0  0  0  0  0  0  0  0
  1  6  2  0  0  0  0
  1  2  1  0  0  0  0
  2  3  2  0  0  0  0
  3  4  1  0  0  0  0
  3 13  1  0  0  0  0
  4  9  1  0  0  0  0
  5 10  1  0  0  0  0
  5  4  2  0  0  0  0
  6  5  1  0  0  0  0
  7  1  1  0  0  0  0
  8  2  1  0  0  0  0
 11 12  3  0  0  0  0
 13 14  1  0  0  0  0
 15 16  2  0  0  0  0
 15  6  1  0  0  0  0
 17 15  2  0  0  0  0
M  END
