Coordinates from ORCA-job 4-NO2-Ph-N2-OH-B3LYPG-6-31G_dp-MTMO-d009-169-n900
 OpenBabel09051908013D

 17 17  0  0  0  0  0  0  0  0999 V2000
   -1.0292   -1.4978   -1.2758 C   0  0  0  0  0  0  0  0  0  0  0  0
    0.2154   -0.9033   -1.0954 C   0  0  0  0  0  0  0  0  0  0  0  0
    0.2956    0.2737   -0.3508 C   0  0  0  0  0  0  0  0  0  0  0  0
   -0.8264    0.8694    0.2179 C   0  0  0  0  0  0  0  0  0  0  0  0
   -2.0749    0.2779    0.0395 C   0  0  0  0  0  0  0  0  0  0  0  0
   -2.1532   -0.8971   -0.7058 C   0  0  0  0  0  0  0  0  0  0  0  0
   -1.1469   -2.4123   -1.8433 H   0  0  0  0  0  0  0  0  0  0  0  0
    1.1111   -1.3386   -1.5214 H   0  0  0  0  0  0  0  0  0  0  0  0
   -0.7098    1.7842    0.7876 H   0  0  0  0  0  0  0  0  0  0  0  0
   -2.9763    0.7039    0.4609 H   0  0  0  0  0  0  0  0  0  0  0  0
    1.6420    1.0441   -0.0706 N   0  0  0  0  0  0  0  0  0  0  0  0
    2.5809    0.4809   -0.6375 N   0  0  0  0  0  0  0  0  0  0  0  0
    3.7527    1.1803   -0.3717 O   0  0  0  0  0  0  0  0  0  0  0  0
    4.4147    0.6644   -0.8569 H   0  0  0  0  0  0  0  0  0  0  0  0
   -3.4691   -1.5289   -0.8997 N   0  0  0  0  0  0  0  0  0  0  0  0
   -4.4440   -0.9831   -0.3851 O   0  0  0  0  0  0  0  0  0  0  0  0
   -3.5118   -2.5629   -1.5650 O   0  0  0  0  0  0  0  0  0  0  0  0
  1  2  2  0  0  0  0
  1  6  1  0  0  0  0
  2  3  1  0  0  0  0
  3 11  1  0  0  0  0
  3  4  2  0  0  0  0
  4  9  1  0  0  0  0
  5  4  1  0  0  0  0
  5 10  1  0  0  0  0
  6  5  2  0  0  0  0
  7  1  1  0  0  0  0
  8  2  1  0  0  0  0
 12 13  1  0  0  0  0
 12 11  1  0  0  0  0
 14 13  1  0  0  0  0
 15  6  1  0  0  0  0
 15 16  2  0  0  0  0
 17 15  2  0  0  0  0
M  RAD  2  11   2  12   2
M  END
