Coordinates from ORCA-job 4-NO2-Ph-N2-OH-B3LYPG-6-31G_dp-MTMO-d009-169-n900
 OpenBabel09051908013D

 17 16  0  0  0  0  0  0  0  0999 V2000
   -0.9260   -1.2043   -1.1128 C   0  0  0  0  0  0  0  0  0  0  0  0
    0.1141   -0.3401   -0.7325 C   0  0  0  0  0  0  0  0  0  0  0  0
   -0.2655    0.7215    0.0195 C   0  0  0  0  0  0  0  0  0  0  0  0
   -1.5034    1.0909    0.4720 C   0  0  0  0  0  0  0  0  0  0  0  0
   -2.5350    0.2186    0.0858 C   0  0  0  0  0  0  0  0  0  0  0  0
   -2.2232   -0.8996   -0.6922 C   0  0  0  0  0  0  0  0  0  0  0  0
   -0.7484   -2.0881   -1.7146 H   0  0  0  0  0  0  0  0  0  0  0  0
    1.1585   -0.5124   -1.0242 H   0  0  0  0  0  0  0  0  0  0  0  0
   -1.7004    1.9716    1.0739 H   0  0  0  0  0  0  0  0  0  0  0  0
   -3.5631    0.3967    0.3795 H   0  0  0  0  0  0  0  0  0  0  0  0
    2.8555    1.5592    0.0144 N   0  0  0  0  0  0  0  0  0  0  0  0
    3.0233    0.6096   -0.6176 N   0  0  0  0  0  0  0  0  0  0  0  0
    4.4833    0.2782   -1.0814 O   0  0  0  0  0  0  0  0  0  0  0  0
    4.3032   -0.5471   -1.5623 H   0  0  0  0  0  0  0  0  0  0  0  0
   -3.3189   -1.8015   -1.0906 N   0  0  0  0  0  0  0  0  0  0  0  0
   -4.4549   -1.5178   -0.7152 O   0  0  0  0  0  0  0  0  0  0  0  0
   -3.0281   -2.7810   -1.7747 O   0  0  0  0  0  0  0  0  0  0  0  0
  1  2  2  0  0  0  0
  1  6  1  0  0  0  0
  2  3  1  0  0  0  0
  3  4  2  0  0  0  0
  4  9  1  0  0  0  0
  5 10  1  0  0  0  0
  5  4  1  0  0  0  0
  6  5  2  0  0  0  0
  7  1  1  0  0  0  0
  8  2  1  0  0  0  0
 12 11  2  0  0  0  0
 13 12  1  0  0  0  0
 14 13  1  0  0  0  0
 15 16  2  0  0  0  0
 15  6  1  0  0  0  0
 17 15  2  0  0  0  0
M  RAD  2   3   2  11   2
M  END
