Coordinates from ORCA-job 4-NO2-Ph-N2-OH-B3LYPG-6-31G_dp-MTMO-d009-169-n900
 OpenBabel09051908013D

 17 16  0  0  0  0  0  0  0  0999 V2000
   -1.0421   -1.4043   -1.2215 C   0  0  0  0  0  0  0  0  0  0  0  0
    0.1301   -0.6839   -0.9552 C   0  0  0  0  0  0  0  0  0  0  0  0
   -0.0295    0.4412   -0.1995 C   0  0  0  0  0  0  0  0  0  0  0  0
   -1.1747    0.9690    0.3376 C   0  0  0  0  0  0  0  0  0  0  0  0
   -2.3413    0.2392    0.0644 C   0  0  0  0  0  0  0  0  0  0  0  0
   -2.2478   -0.9234   -0.7044 C   0  0  0  0  0  0  0  0  0  0  0  0
   -1.0368   -2.3140   -1.8101 H   0  0  0  0  0  0  0  0  0  0  0  0
    1.1091   -0.9905   -1.3215 H   0  0  0  0  0  0  0  0  0  0  0  0
   -1.1958    1.8785    0.9275 H   0  0  0  0  0  0  0  0  0  0  0  0
   -3.3083    0.5575    0.4355 H   0  0  0  0  0  0  0  0  0  0  0  0
    2.3426    1.4542    0.0438 N   0  0  0  0  0  0  0  0  0  0  0  0
    2.9034    0.6247   -0.5831 N   0  0  0  0  0  0  0  0  0  0  0  0
    4.3530    0.8485   -0.6914 O   0  0  0  0  0  0  0  0  0  0  0  0
    4.6063    0.0769   -1.2232 H   0  0  0  0  0  0  0  0  0  0  0  0
   -3.4816   -1.6786   -0.9847 N   0  0  0  0  0  0  0  0  0  0  0  0
   -4.5346   -1.2402   -0.5252 O   0  0  0  0  0  0  0  0  0  0  0  0
   -3.3812   -2.7003   -1.6619 O   0  0  0  0  0  0  0  0  0  0  0  0
  1  2  2  0  0  0  0
  1  6  1  0  0  0  0
  2  3  1  0  0  0  0
  3  4  2  0  0  0  0
  4  9  1  0  0  0  0
  5  4  1  0  0  0  0
  5 10  1  0  0  0  0
  6  5  2  0  0  0  0
  7  1  1  0  0  0  0
  8  2  1  0  0  0  0
 12 11  1  0  0  0  0
 13 12  1  0  0  0  0
 14 13  1  0  0  0  0
 15  6  1  0  0  0  0
 15 16  2  0  0  0  0
 17 15  2  0  0  0  0
M  RAD  3   3   2  11   3  12   2
M  END
