Coordinates from ORCA-job 4-NO2-Ph-N2-OH-B3LYPG-6-31G_dp-MTMO-d009-169-n900
 OpenBabel09051908023D

 17 16  0  0  0  0  0  0  0  0999 V2000
    0.5730    0.7974    0.5578 C   0  0  0  0  0  0  0  0  0  0  0  0
    0.3795    1.2664    1.8482 C   0  0  0  0  0  0  0  0  0  0  0  0
   -0.8026    0.9504    2.5360 C   0  0  0  0  0  0  0  0  0  0  0  0
   -1.7882    0.1617    1.9231 C   0  0  0  0  0  0  0  0  0  0  0  0
   -1.5960   -0.3090    0.6305 C   0  0  0  0  0  0  0  0  0  0  0  0
   -0.4172    0.0135   -0.0405 C   0  0  0  0  0  0  0  0  0  0  0  0
    1.4742    1.0256    0.0025 H   0  0  0  0  0  0  0  0  0  0  0  0
    1.1267    1.8767    2.3433 H   0  0  0  0  0  0  0  0  0  0  0  0
   -2.7021   -0.0820    2.4595 H   0  0  0  0  0  0  0  0  0  0  0  0
   -2.3399   -0.9189    0.1332 H   0  0  0  0  0  0  0  0  0  0  0  0
    0.2560   -4.8661  -12.9537 N   0  0  0  0  0  0  0  0  0  0  0  0
    0.7124   -5.5312  -12.1981 N   0  0  0  0  0  0  0  0  0  0  0  0
   -0.9360    1.4379    3.7950 O   0  0  0  0  0  0  0  0  0  0  0  0
   -1.7853    1.1606    4.1637 H   0  0  0  0  0  0  0  0  0  0  0  0
   -0.2142   -0.4802   -1.4018 N   0  0  0  0  0  0  0  0  0  0  0  0
   -1.1064   -1.1681   -1.9019 O   0  0  0  0  0  0  0  0  0  0  0  0
    0.8371   -0.1802   -1.9698 O   0  0  0  0  0  0  0  0  0  0  0  0
  1  2  1  0  0  0  0
  2  8  1  0  0  0  0
  2  3  2  0  0  0  0
  3 13  1  0  0  0  0
  4  9  1  0  0  0  0
  4  3  1  0  0  0  0
  5  4  2  0  0  0  0
  6  1  2  0  0  0  0
  6  5  1  0  0  0  0
  7  1  1  0  0  0  0
 10  5  1  0  0  0  0
 11 12  3  0  0  0  0
 13 14  1  0  0  0  0
 15  6  1  0  0  0  0
 16 15  2  0  0  0  0
 17 15  2  0  0  0  0
M  END
