Coordinates from ORCA-job 4-NO2-Ph-N2-OH-B3LYPG-6-31G_dp-MTMO-d009-169-n900
 OpenBabel09051908023D

 17 16  0  0  0  0  0  0  0  0999 V2000
    0.5900    0.7138    0.3406 C   0  0  0  0  0  0  0  0  0  0  0  0
    0.4000    1.1694    1.6362 C   0  0  0  0  0  0  0  0  0  0  0  0
   -0.7812    0.8481    2.3232 C   0  0  0  0  0  0  0  0  0  0  0  0
   -1.7694    0.0674    1.7041 C   0  0  0  0  0  0  0  0  0  0  0  0
   -1.5805   -0.3900    0.4062 C   0  0  0  0  0  0  0  0  0  0  0  0
   -0.4026   -0.0622   -0.2638 C   0  0  0  0  0  0  0  0  0  0  0  0
    1.4905    0.9463   -0.2141 H   0  0  0  0  0  0  0  0  0  0  0  0
    1.1491    1.7733    2.1362 H   0  0  0  0  0  0  0  0  0  0  0  0
   -2.6824   -0.1805    2.2398 H   0  0  0  0  0  0  0  0  0  0  0  0
   -2.3264   -0.9934   -0.0959 H   0  0  0  0  0  0  0  0  0  0  0  0
    0.1247   -4.1867  -11.2795 N   0  0  0  0  0  0  0  0  0  0  0  0
    0.5839   -4.9131  -10.5845 N   0  0  0  0  0  0  0  0  0  0  0  0
   -0.9111    1.3225    3.5875 O   0  0  0  0  0  0  0  0  0  0  0  0
   -1.7601    1.0428    3.9551 H   0  0  0  0  0  0  0  0  0  0  0  0
   -0.2033   -0.5420   -1.6307 N   0  0  0  0  0  0  0  0  0  0  0  0
   -1.0977   -1.2232   -2.1361 O   0  0  0  0  0  0  0  0  0  0  0  0
    0.8474   -0.2378   -2.1977 O   0  0  0  0  0  0  0  0  0  0  0  0
  1  2  1  0  0  0  0
  2  8  1  0  0  0  0
  2  3  2  0  0  0  0
  3 13  1  0  0  0  0
  4  9  1  0  0  0  0
  4  3  1  0  0  0  0
  5  4  2  0  0  0  0
  6  1  2  0  0  0  0
  6  5  1  0  0  0  0
  7  1  1  0  0  0  0
 10  5  1  0  0  0  0
 11 12  3  0  0  0  0
 13 14  1  0  0  0  0
 15  6  1  0  0  0  0
 16 15  2  0  0  0  0
 17 15  2  0  0  0  0
M  END
