Coordinates from ORCA-job 4-NO2-Ph-N2-OH-B3LYPG-6-31G_dp-MTMO-d009-169-n900
 OpenBabel09051908013D

 17 16  0  0  0  0  0  0  0  0999 V2000
   -0.7799   -0.8013   -1.5538 C   0  0  0  0  0  0  0  0  0  0  0  0
    0.2992   -0.1525   -0.9722 C   0  0  0  0  0  0  0  0  0  0  0  0
    0.1879    0.3505    0.3336 C   0  0  0  0  0  0  0  0  0  0  0  0
   -1.0079    0.1989    1.0519 C   0  0  0  0  0  0  0  0  0  0  0  0
   -2.0895   -0.4509    0.4700 C   0  0  0  0  0  0  0  0  0  0  0  0
   -1.9653   -0.9449   -0.8279 C   0  0  0  0  0  0  0  0  0  0  0  0
   -0.7250   -1.1990   -2.5590 H   0  0  0  0  0  0  0  0  0  0  0  0
    1.2333   -0.0228   -1.5073 H   0  0  0  0  0  0  0  0  0  0  0  0
   -1.0889    0.5894    2.0630 H   0  0  0  0  0  0  0  0  0  0  0  0
   -3.0240   -0.5817    1.0013 H   0  0  0  0  0  0  0  0  0  0  0  0
    4.7593    0.8395   -2.7347 N   0  0  0  0  0  0  0  0  0  0  0  0
    3.7176    0.4876   -2.6249 N   0  0  0  0  0  0  0  0  0  0  0  0
    1.2753    0.9773    0.8507 O   0  0  0  0  0  0  0  0  0  0  0  0
    1.0801    1.2825    1.7468 H   0  0  0  0  0  0  0  0  0  0  0  0
   -3.1028   -1.6275   -1.4427 N   0  0  0  0  0  0  0  0  0  0  0  0
   -4.1361   -1.7335   -0.7789 O   0  0  0  0  0  0  0  0  0  0  0  0
   -2.9625   -2.0571   -2.5891 O   0  0  0  0  0  0  0  0  0  0  0  0
  1  2  2  0  0  0  0
  1  6  1  0  0  0  0
  2  3  1  0  0  0  0
  3 13  1  0  0  0  0
  3  4  2  0  0  0  0
  4  9  1  0  0  0  0
  5 10  1  0  0  0  0
  5  4  1  0  0  0  0
  6  5  2  0  0  0  0
  7  1  1  0  0  0  0
  8  2  1  0  0  0  0
 11 12  3  0  0  0  0
 13 14  1  0  0  0  0
 15  6  1  0  0  0  0
 15 16  2  0  0  0  0
 17 15  2  0  0  0  0
M  END
