Coordinates from ORCA-job 4-NO2-Ph-N2-OH-B3LYPG-6-31G_dp-MTMO-d009-169-n900
 OpenBabel09051908023D

 17 16  0  0  0  0  0  0  0  0999 V2000
    0.6025    0.6537    0.1828 C   0  0  0  0  0  0  0  0  0  0  0  0
    0.4150    1.0980    1.4827 C   0  0  0  0  0  0  0  0  0  0  0  0
   -0.7654    0.7720    2.1688 C   0  0  0  0  0  0  0  0  0  0  0  0
   -1.7554   -0.0021    1.5444 C   0  0  0  0  0  0  0  0  0  0  0  0
   -1.5692   -0.4481    0.2421 C   0  0  0  0  0  0  0  0  0  0  0  0
   -0.3920   -0.1158   -0.4269 C   0  0  0  0  0  0  0  0  0  0  0  0
    1.5023    0.8901   -0.3713 H   0  0  0  0  0  0  0  0  0  0  0  0
    1.1657    1.6966    1.9868 H   0  0  0  0  0  0  0  0  0  0  0  0
   -2.6679   -0.2538    2.0793 H   0  0  0  0  0  0  0  0  0  0  0  0
   -2.3166   -1.0462   -0.2641 H   0  0  0  0  0  0  0  0  0  0  0  0
    0.0343   -3.7029  -10.0700 N   0  0  0  0  0  0  0  0  0  0  0  0
    0.4840   -4.4569   -9.3985 N   0  0  0  0  0  0  0  0  0  0  0  0
   -0.8927    1.2354    3.4374 O   0  0  0  0  0  0  0  0  0  0  0  0
   -1.7414    0.9534    3.8040 H   0  0  0  0  0  0  0  0  0  0  0  0
   -0.1955   -0.5837   -1.7982 N   0  0  0  0  0  0  0  0  0  0  0  0
   -1.0915   -1.2592   -2.3083 O   0  0  0  0  0  0  0  0  0  0  0  0
    0.8547   -0.2759   -2.3642 O   0  0  0  0  0  0  0  0  0  0  0  0
  1  2  1  0  0  0  0
  2  8  1  0  0  0  0
  2  3  2  0  0  0  0
  3 13  1  0  0  0  0
  4  9  1  0  0  0  0
  4  3  1  0  0  0  0
  5  4  2  0  0  0  0
  6  1  2  0  0  0  0
  6  5  1  0  0  0  0
  7  1  1  0  0  0  0
 10  5  1  0  0  0  0
 11 12  3  0  0  0  0
 13 14  1  0  0  0  0
 15  6  1  0  0  0  0
 16 15  2  0  0  0  0
 17 15  2  0  0  0  0
M  END
