Coordinates from ORCA-job 4-NO2-Ph-N2-OH-B3LYPG-6-31G_dp-MTMO-d009-169-n900
 OpenBabel09051908013D

 17 16  0  0  0  0  0  0  0  0999 V2000
   -0.9149   -0.9731   -1.6586 C   0  0  0  0  0  0  0  0  0  0  0  0
    0.2592   -0.3795   -1.2199 C   0  0  0  0  0  0  0  0  0  0  0  0
    0.3062    0.2171    0.0500 C   0  0  0  0  0  0  0  0  0  0  0  0
   -0.8276    0.2159    0.8765 C   0  0  0  0  0  0  0  0  0  0  0  0
   -2.0045   -0.3783    0.4376 C   0  0  0  0  0  0  0  0  0  0  0  0
   -2.0371   -0.9673   -0.8258 C   0  0  0  0  0  0  0  0  0  0  0  0
   -0.9816   -1.4407   -2.6327 H   0  0  0  0  0  0  0  0  0  0  0  0
    1.1497   -0.3629   -1.8381 H   0  0  0  0  0  0  0  0  0  0  0  0
   -0.7866    0.6788    1.8592 H   0  0  0  0  0  0  0  0  0  0  0  0
   -2.8953   -0.3942    1.0531 H   0  0  0  0  0  0  0  0  0  0  0  0
    4.5644    1.4516   -1.6387 N   0  0  0  0  0  0  0  0  0  0  0  0
    3.7568    0.8154   -2.0438 N   0  0  0  0  0  0  0  0  0  0  0  0
    1.4827    0.7826    0.4243 O   0  0  0  0  0  0  0  0  0  0  0  0
    1.3980    1.1558    1.3118 H   0  0  0  0  0  0  0  0  0  0  0  0
   -3.2756   -1.5923   -1.2883 N   0  0  0  0  0  0  0  0  0  0  0  0
   -4.2486   -1.5664   -0.5321 O   0  0  0  0  0  0  0  0  0  0  0  0
   -3.2741   -2.1078   -2.4076 O   0  0  0  0  0  0  0  0  0  0  0  0
  1  2  2  0  0  0  0
  1  6  1  0  0  0  0
  2  3  1  0  0  0  0
  3 13  1  0  0  0  0
  3  4  2  0  0  0  0
  4  9  1  0  0  0  0
  5  4  1  0  0  0  0
  5 10  1  0  0  0  0
  6  5  2  0  0  0  0
  7  1  1  0  0  0  0
  8  2  1  0  0  0  0
 12 11  3  0  0  0  0
 13 14  1  0  0  0  0
 15  6  1  0  0  0  0
 15 16  2  0  0  0  0
 17 15  2  0  0  0  0
M  END
