Coordinates from ORCA-job 4-NO2-Ph-N2-OH-B3LYPG-6-31G_dp-MTMO-d009-169-n900
 OpenBabel09051908013D

 17 17  0  0  0  0  0  0  0  0999 V2000
   -1.0043   -1.5416   -1.2309 C   0  0  0  0  0  0  0  0  0  0  0  0
    0.2541   -1.0133   -1.0137 C   0  0  0  0  0  0  0  0  0  0  0  0
    0.4462    0.2033   -0.2747 C   0  0  0  0  0  0  0  0  0  0  0  0
   -0.7337    0.8117    0.2627 C   0  0  0  0  0  0  0  0  0  0  0  0
   -1.9965    0.3008    0.0219 C   0  0  0  0  0  0  0  0  0  0  0  0
   -2.1212   -0.8740   -0.7222 C   0  0  0  0  0  0  0  0  0  0  0  0
   -1.1452   -2.4641   -1.7803 H   0  0  0  0  0  0  0  0  0  0  0  0
    1.1365   -1.5377   -1.3642 H   0  0  0  0  0  0  0  0  0  0  0  0
   -0.6054    1.7192    0.8437 H   0  0  0  0  0  0  0  0  0  0  0  0
   -2.8859    0.7778    0.4134 H   0  0  0  0  0  0  0  0  0  0  0  0
    1.4826    0.6988   -0.0696 N   0  0  0  0  0  0  0  0  0  0  0  0
    2.4450    0.6104   -0.8679 N   0  0  0  0  0  0  0  0  0  0  0  0
    3.5709    1.1303   -0.2686 O   0  0  0  0  0  0  0  0  0  0  0  0
    4.2316    1.0737   -0.9767 H   0  0  0  0  0  0  0  0  0  0  0  0
   -3.4542   -1.4351   -0.9538 N   0  0  0  0  0  0  0  0  0  0  0  0
   -4.4197   -0.8226   -0.4950 O   0  0  0  0  0  0  0  0  0  0  0  0
   -3.5299   -2.4831   -1.5973 O   0  0  0  0  0  0  0  0  0  0  0  0
  1  2  2  0  0  0  0
  1  6  1  0  0  0  0
  2  3  1  0  0  0  0
  3 11  1  0  0  0  0
  3  4  2  0  0  0  0
  4  9  1  0  0  0  0
  5  4  1  0  0  0  0
  5 10  1  0  0  0  0
  6  5  2  0  0  0  0
  7  1  1  0  0  0  0
  8  2  1  0  0  0  0
 12 13  1  0  0  0  0
 12 11  1  0  0  0  0
 14 13  1  0  0  0  0
 15  6  1  0  0  0  0
 15 16  2  0  0  0  0
 17 15  2  0  0  0  0
M  RAD  2  11   2  12   2
M  END
