Coordinates from ORCA-job 4-NO2-Ph-N2-OH-B3LYPG-6-31G_dp-MTMO-d009-169-n900
 OpenBabel09051908023D

 17 16  0  0  0  0  0  0  0  0999 V2000
    0.5800    0.7631    0.4693 C   0  0  0  0  0  0  0  0  0  0  0  0
    0.3878    1.2270    1.7617 C   0  0  0  0  0  0  0  0  0  0  0  0
   -0.7940    0.9091    2.4492 C   0  0  0  0  0  0  0  0  0  0  0  0
   -1.7806    0.1235    1.8339 C   0  0  0  0  0  0  0  0  0  0  0  0
   -1.5897   -0.3421    0.5392 C   0  0  0  0  0  0  0  0  0  0  0  0
   -0.4112   -0.0177   -0.1314 C   0  0  0  0  0  0  0  0  0  0  0  0
    1.4809    0.9928   -0.0858 H   0  0  0  0  0  0  0  0  0  0  0  0
    1.1358    1.8348    2.2587 H   0  0  0  0  0  0  0  0  0  0  0  0
   -2.6942   -0.1217    2.3700 H   0  0  0  0  0  0  0  0  0  0  0  0
   -2.3344   -0.9495    0.0401 H   0  0  0  0  0  0  0  0  0  0  0  0
    0.1995   -4.5879  -12.2696 N   0  0  0  0  0  0  0  0  0  0  0  0
    0.6631   -5.2797  -11.5429 N   0  0  0  0  0  0  0  0  0  0  0  0
   -0.9260    1.3916    3.7102 O   0  0  0  0  0  0  0  0  0  0  0  0
   -1.7752    1.1134    4.0785 H   0  0  0  0  0  0  0  0  0  0  0  0
   -0.2096   -0.5062   -1.4948 N   0  0  0  0  0  0  0  0  0  0  0  0
   -1.1027   -1.1915   -1.9970 O   0  0  0  0  0  0  0  0  0  0  0  0
    0.8414   -0.2046   -2.0625 O   0  0  0  0  0  0  0  0  0  0  0  0
  1  2  1  0  0  0  0
  2  8  1  0  0  0  0
  2  3  2  0  0  0  0
  3 13  1  0  0  0  0
  4  9  1  0  0  0  0
  4  3  1  0  0  0  0
  5  4  2  0  0  0  0
  6  1  2  0  0  0  0
  6  5  1  0  0  0  0
  7  1  1  0  0  0  0
 10  5  1  0  0  0  0
 11 12  3  0  0  0  0
 13 14  1  0  0  0  0
 15  6  1  0  0  0  0
 16 15  2  0  0  0  0
 17 15  2  0  0  0  0
M  END
