Coordinates from ORCA-job 4-NO2-Ph-N2-OH-B3LYPG-6-31G_dp-MTMO-d009-169-n900
 OpenBabel09051908013D

 17 16  0  0  0  0  0  0  0  0999 V2000
    0.6246    0.5559   -0.0760 C   0  0  0  0  0  0  0  0  0  0  0  0
    0.4386    0.9807    1.2307 C   0  0  0  0  0  0  0  0  0  0  0  0
   -0.7415    0.6454    1.9128 C   0  0  0  0  0  0  0  0  0  0  0  0
   -1.7328   -0.1182    1.2776 C   0  0  0  0  0  0  0  0  0  0  0  0
   -1.5481   -0.5446   -0.0315 C   0  0  0  0  0  0  0  0  0  0  0  0
   -0.3711   -0.2033   -0.6964 C   0  0  0  0  0  0  0  0  0  0  0  0
    1.5243    0.7998   -0.6270 H   0  0  0  0  0  0  0  0  0  0  0  0
    1.1903    1.5708    1.7432 H   0  0  0  0  0  0  0  0  0  0  0  0
   -2.6451   -0.3772    1.8093 H   0  0  0  0  0  0  0  0  0  0  0  0
   -2.2964   -1.1343   -0.5460 H   0  0  0  0  0  0  0  0  0  0  0  0
   -0.1263   -2.9110   -8.0724 N   0  0  0  0  0  0  0  0  0  0  0  0
    0.3125   -3.6976   -7.4318 N   0  0  0  0  0  0  0  0  0  0  0  0
   -0.8672    1.0896    3.1885 O   0  0  0  0  0  0  0  0  0  0  0  0
   -1.7158    0.8029    3.5516 H   0  0  0  0  0  0  0  0  0  0  0  0
   -0.1760   -0.6509   -2.0747 N   0  0  0  0  0  0  0  0  0  0  0  0
   -1.0732   -1.3175   -2.5944 O   0  0  0  0  0  0  0  0  0  0  0  0
    0.8742   -0.3360   -2.6368 O   0  0  0  0  0  0  0  0  0  0  0  0
  1  2  1  0  0  0  0
  2  8  1  0  0  0  0
  2  3  2  0  0  0  0
  3 13  1  0  0  0  0
  4  9  1  0  0  0  0
  4  3  1  0  0  0  0
  5  4  2  0  0  0  0
  6  1  2  0  0  0  0
  6  5  1  0  0  0  0
  7  1  1  0  0  0  0
 10  5  1  0  0  0  0
 11 12  3  0  0  0  0
 13 14  1  0  0  0  0
 15  6  1  0  0  0  0
 16 15  2  0  0  0  0
 17 15  2  0  0  0  0
M  END
