Coordinates from ORCA-job 4-NO2-Ph-N2-OH-B3LYPG-6-31G_dp-MTMO-d009-169-n900
 OpenBabel09051908013D

 17 16  0  0  0  0  0  0  0  0999 V2000
   -1.0487   -1.4202   -1.2303 C   0  0  0  0  0  0  0  0  0  0  0  0
    0.1340   -0.7141   -0.9750 C   0  0  0  0  0  0  0  0  0  0  0  0
   -0.0038    0.4156   -0.2202 C   0  0  0  0  0  0  0  0  0  0  0  0
   -1.1402    0.9567    0.3238 C   0  0  0  0  0  0  0  0  0  0  0  0
   -2.3177    0.2414    0.0617 C   0  0  0  0  0  0  0  0  0  0  0  0
   -2.2445   -0.9238   -0.7052 C   0  0  0  0  0  0  0  0  0  0  0  0
   -1.0591   -2.3311   -1.8169 H   0  0  0  0  0  0  0  0  0  0  0  0
    1.1056   -1.0333   -1.3481 H   0  0  0  0  0  0  0  0  0  0  0  0
   -1.1445    1.8677    0.9116 H   0  0  0  0  0  0  0  0  0  0  0  0
   -3.2777    0.5724    0.4394 H   0  0  0  0  0  0  0  0  0  0  0  0
    2.2858    1.4344    0.0410 N   0  0  0  0  0  0  0  0  0  0  0  0
    2.8816    0.6210   -0.5815 N   0  0  0  0  0  0  0  0  0  0  0  0
    4.3175    0.8957   -0.6549 O   0  0  0  0  0  0  0  0  0  0  0  0
    4.6121    0.1382   -1.1855 H   0  0  0  0  0  0  0  0  0  0  0  0
   -3.4894   -1.6647   -0.9746 N   0  0  0  0  0  0  0  0  0  0  0  0
   -4.5335   -1.2130   -0.5075 O   0  0  0  0  0  0  0  0  0  0  0  0
   -3.4066   -2.6886   -1.6508 O   0  0  0  0  0  0  0  0  0  0  0  0
  1  2  2  0  0  0  0
  1  6  1  0  0  0  0
  2  3  1  0  0  0  0
  3  4  2  0  0  0  0
  4  9  1  0  0  0  0
  5  4  1  0  0  0  0
  5 10  1  0  0  0  0
  6  5  2  0  0  0  0
  7  1  1  0  0  0  0
  8  2  1  0  0  0  0
 12 11  1  0  0  0  0
 13 12  1  0  0  0  0
 14 13  1  0  0  0  0
 15  6  1  0  0  0  0
 15 16  2  0  0  0  0
 17 15  2  0  0  0  0
M  RAD  3   3   2  11   3  12   2
M  END
