Coordinates from ORCA-job 4-NO2-Ph-N2-OH-B3LYPG-6-31G_dp-MTMO-d009-169-n900
 OpenBabel09051908013D

 17 16  0  0  0  0  0  0  0  0999 V2000
    0.6212    0.5699   -0.0386 C   0  0  0  0  0  0  0  0  0  0  0  0
    0.4354    0.9975    1.2672 C   0  0  0  0  0  0  0  0  0  0  0  0
   -0.7446    0.6637    1.9503 C   0  0  0  0  0  0  0  0  0  0  0  0
   -1.7361   -0.1012    1.3168 C   0  0  0  0  0  0  0  0  0  0  0  0
   -1.5516   -0.5304    0.0087 C   0  0  0  0  0  0  0  0  0  0  0  0
   -0.3748   -0.1905   -0.6572 C   0  0  0  0  0  0  0  0  0  0  0  0
    1.5207    0.8127   -0.5903 H   0  0  0  0  0  0  0  0  0  0  0  0
    1.1872    1.5886    1.7783 H   0  0  0  0  0  0  0  0  0  0  0  0
   -2.6483   -0.3589    1.8493 H   0  0  0  0  0  0  0  0  0  0  0  0
   -2.3001   -1.1210   -0.5045 H   0  0  0  0  0  0  0  0  0  0  0  0
   -0.1012   -3.0266   -8.3640 N   0  0  0  0  0  0  0  0  0  0  0  0
    0.3389   -3.8081   -7.7179 N   0  0  0  0  0  0  0  0  0  0  0  0
   -0.8700    1.1107    3.2250 O   0  0  0  0  0  0  0  0  0  0  0  0
   -1.7186    0.8248    3.5888 H   0  0  0  0  0  0  0  0  0  0  0  0
   -0.1800   -0.6409   -2.0346 N   0  0  0  0  0  0  0  0  0  0  0  0
   -1.0774   -1.3086   -2.5527 O   0  0  0  0  0  0  0  0  0  0  0  0
    0.8701   -0.3272   -2.5976 O   0  0  0  0  0  0  0  0  0  0  0  0
  1  2  1  0  0  0  0
  2  8  1  0  0  0  0
  2  3  2  0  0  0  0
  3 13  1  0  0  0  0
  4  9  1  0  0  0  0
  4  3  1  0  0  0  0
  5  4  2  0  0  0  0
  6  1  2  0  0  0  0
  6  5  1  0  0  0  0
  7  1  1  0  0  0  0
 10  5  1  0  0  0  0
 11 12  3  0  0  0  0
 13 14  1  0  0  0  0
 15  6  1  0  0  0  0
 16 15  2  0  0  0  0
 17 15  2  0  0  0  0
M  END
