Coordinates from ORCA-job 4-NO2-Ph-N2-OH-B3LYPG-6-31G_dp-MTMO-d009-169-n900
 OpenBabel09051908023D

 17 16  0  0  0  0  0  0  0  0999 V2000
    0.5939    0.6949    0.2912 C   0  0  0  0  0  0  0  0  0  0  0  0
    0.4047    1.1472    1.5881 C   0  0  0  0  0  0  0  0  0  0  0  0
   -0.7763    0.8244    2.2749 C   0  0  0  0  0  0  0  0  0  0  0  0
   -1.7650    0.0457    1.6542 C   0  0  0  0  0  0  0  0  0  0  0  0
   -1.5770   -0.4082    0.3550 C   0  0  0  0  0  0  0  0  0  0  0  0
   -0.3993   -0.0791   -0.3148 C   0  0  0  0  0  0  0  0  0  0  0  0
    1.4941    0.9287   -0.2633 H   0  0  0  0  0  0  0  0  0  0  0  0
    1.1543    1.7494    2.0894 H   0  0  0  0  0  0  0  0  0  0  0  0
   -2.6779   -0.2033    2.1897 H   0  0  0  0  0  0  0  0  0  0  0  0
   -2.3234   -1.0100   -0.1483 H   0  0  0  0  0  0  0  0  0  0  0  0
    0.0966   -4.0346  -10.9008 N   0  0  0  0  0  0  0  0  0  0  0  0
    0.5528   -4.7710  -10.2143 N   0  0  0  0  0  0  0  0  0  0  0  0
   -0.9053    1.2955    3.5406 O   0  0  0  0  0  0  0  0  0  0  0  0
   -1.7542    1.0151    3.9079 H   0  0  0  0  0  0  0  0  0  0  0  0
   -0.2009   -0.5553   -1.6830 N   0  0  0  0  0  0  0  0  0  0  0  0
   -1.0958   -1.2347   -2.1898 O   0  0  0  0  0  0  0  0  0  0  0  0
    0.8496   -0.2500   -2.2498 O   0  0  0  0  0  0  0  0  0  0  0  0
  1  2  1  0  0  0  0
  2  8  1  0  0  0  0
  2  3  2  0  0  0  0
  3 13  1  0  0  0  0
  4  9  1  0  0  0  0
  4  3  1  0  0  0  0
  5  4  2  0  0  0  0
  6  1  2  0  0  0  0
  6  5  1  0  0  0  0
  7  1  1  0  0  0  0
 10  5  1  0  0  0  0
 11 12  3  0  0  0  0
 13 14  1  0  0  0  0
 15  6  1  0  0  0  0
 16 15  2  0  0  0  0
 17 15  2  0  0  0  0
M  END
