Coordinates from ORCA-job 4-NO2-Ph-N2-OH-B3LYPG-6-31G_dp-MTMO-d009-169-n900
 OpenBabel09051908013D

 17 16  0  0  0  0  0  0  0  0999 V2000
   -1.0458   -1.4128   -1.2261 C   0  0  0  0  0  0  0  0  0  0  0  0
    0.1321   -0.6999   -0.9656 C   0  0  0  0  0  0  0  0  0  0  0  0
   -0.0165    0.4276   -0.2104 C   0  0  0  0  0  0  0  0  0  0  0  0
   -1.1569    0.9626    0.3304 C   0  0  0  0  0  0  0  0  0  0  0  0
   -2.3293    0.2404    0.0630 C   0  0  0  0  0  0  0  0  0  0  0  0
   -2.2464   -0.9237   -0.7049 C   0  0  0  0  0  0  0  0  0  0  0  0
   -1.0488   -2.3231   -1.8137 H   0  0  0  0  0  0  0  0  0  0  0  0
    1.1070   -1.0134   -1.3356 H   0  0  0  0  0  0  0  0  0  0  0  0
   -1.1691    1.8729    0.9192 H   0  0  0  0  0  0  0  0  0  0  0  0
   -3.2927    0.5652    0.4375 H   0  0  0  0  0  0  0  0  0  0  0  0
    2.3138    1.4446    0.0427 N   0  0  0  0  0  0  0  0  0  0  0  0
    2.8927    0.6233   -0.5820 N   0  0  0  0  0  0  0  0  0  0  0  0
    4.3358    0.8735   -0.6723 O   0  0  0  0  0  0  0  0  0  0  0  0
    4.6103    0.1091   -1.2037 H   0  0  0  0  0  0  0  0  0  0  0  0
   -3.4861   -1.6714   -0.9795 N   0  0  0  0  0  0  0  0  0  0  0  0
   -4.5344   -1.2260   -0.5159 O   0  0  0  0  0  0  0  0  0  0  0  0
   -3.3949   -2.6943   -1.6561 O   0  0  0  0  0  0  0  0  0  0  0  0
  1  2  2  0  0  0  0
  1  6  1  0  0  0  0
  2  3  1  0  0  0  0
  3  4  2  0  0  0  0
  4  9  1  0  0  0  0
  5  4  1  0  0  0  0
  5 10  1  0  0  0  0
  6  5  2  0  0  0  0
  7  1  1  0  0  0  0
  8  2  1  0  0  0  0
 12 11  1  0  0  0  0
 13 12  1  0  0  0  0
 14 13  1  0  0  0  0
 15  6  1  0  0  0  0
 15 16  2  0  0  0  0
 17 15  2  0  0  0  0
M  RAD  3   3   2  11   3  12   2
M  END
