Coordinates from ORCA-job 4-NO2-Ph-N2-OH-B3LYPG-6-31G_dp-MTMO-d009-169-n900
 OpenBabel09051908023D

 17 16  0  0  0  0  0  0  0  0999 V2000
    0.5834    0.7464    0.4258 C   0  0  0  0  0  0  0  0  0  0  0  0
    0.3919    1.2076    1.7193 C   0  0  0  0  0  0  0  0  0  0  0  0
   -0.7897    0.8886    2.4067 C   0  0  0  0  0  0  0  0  0  0  0  0
   -1.7768    0.1046    1.7901 C   0  0  0  0  0  0  0  0  0  0  0  0
   -1.5866   -0.3584    0.4944 C   0  0  0  0  0  0  0  0  0  0  0  0
   -0.4083   -0.0329   -0.1760 C   0  0  0  0  0  0  0  0  0  0  0  0
    1.4842    0.9770   -0.1291 H   0  0  0  0  0  0  0  0  0  0  0  0
    1.1403    1.8141    2.2173 H   0  0  0  0  0  0  0  0  0  0  0  0
   -2.6903   -0.1414    2.3261 H   0  0  0  0  0  0  0  0  0  0  0  0
   -2.3317   -0.9644   -0.0057 H   0  0  0  0  0  0  0  0  0  0  0  0
    0.1737   -4.4518  -11.9348 N   0  0  0  0  0  0  0  0  0  0  0  0
    0.6370   -5.1565  -11.2205 N   0  0  0  0  0  0  0  0  0  0  0  0
   -0.9210    1.3685    3.6688 O   0  0  0  0  0  0  0  0  0  0  0  0
   -1.7702    1.0899    4.0368 H   0  0  0  0  0  0  0  0  0  0  0  0
   -0.2074   -0.5185   -1.5406 N   0  0  0  0  0  0  0  0  0  0  0  0
   -1.1009   -1.2025   -2.0438 O   0  0  0  0  0  0  0  0  0  0  0  0
    0.8435   -0.2161   -2.1080 O   0  0  0  0  0  0  0  0  0  0  0  0
  1  2  1  0  0  0  0
  2  8  1  0  0  0  0
  2  3  2  0  0  0  0
  3 13  1  0  0  0  0
  4  9  1  0  0  0  0
  4  3  1  0  0  0  0
  5  4  2  0  0  0  0
  6  1  2  0  0  0  0
  6  5  1  0  0  0  0
  7  1  1  0  0  0  0
 10  5  1  0  0  0  0
 11 12  3  0  0  0  0
 13 14  1  0  0  0  0
 15  6  1  0  0  0  0
 16 15  2  0  0  0  0
 17 15  2  0  0  0  0
M  END
