Coordinates from ORCA-job 4-NO2-Ph-N2-OH-B3LYPG-6-31G_dp-MTMO-d009-169-n900
 OpenBabel09051908013D

 17 16  0  0  0  0  0  0  0  0999 V2000
   -0.6200   -0.7006   -1.4474 C   0  0  0  0  0  0  0  0  0  0  0  0
    0.3762   -0.0371   -0.7469 C   0  0  0  0  0  0  0  0  0  0  0  0
    0.1267    0.4155    0.5583 C   0  0  0  0  0  0  0  0  0  0  0  0
   -1.1240    0.1985    1.1564 C   0  0  0  0  0  0  0  0  0  0  0  0
   -2.1224   -0.4663    0.4554 C   0  0  0  0  0  0  0  0  0  0  0  0
   -1.8611   -0.9096   -0.8404 C   0  0  0  0  0  0  0  0  0  0  0  0
   -0.4571   -1.0600   -2.4554 H   0  0  0  0  0  0  0  0  0  0  0  0
    1.3495    0.1418   -1.1898 H   0  0  0  0  0  0  0  0  0  0  0  0
   -1.3129    0.5505    2.1673 H   0  0  0  0  0  0  0  0  0  0  0  0
   -3.0967   -0.6477    0.8915 H   0  0  0  0  0  0  0  0  0  0  0  0
    4.4486    0.3969   -3.5893 N   0  0  0  0  0  0  0  0  0  0  0  0
    3.5353    0.2570   -2.9831 N   0  0  0  0  0  0  0  0  0  0  0  0
    1.1381    1.0598    1.1940 O   0  0  0  0  0  0  0  0  0  0  0  0
    0.8499    1.3286    2.0764 H   0  0  0  0  0  0  0  0  0  0  0  0
   -2.9114   -1.6081   -1.5798 N   0  0  0  0  0  0  0  0  0  0  0  0
   -3.9963   -1.7735   -1.0184 O   0  0  0  0  0  0  0  0  0  0  0  0
   -2.6515   -1.9910   -2.7219 O   0  0  0  0  0  0  0  0  0  0  0  0
  1  6  2  0  0  0  0
  1  2  1  0  0  0  0
  2  3  2  0  0  0  0
  3  4  1  0  0  0  0
  3 13  1  0  0  0  0
  4  9  1  0  0  0  0
  5 10  1  0  0  0  0
  5  4  2  0  0  0  0
  6  5  1  0  0  0  0
  7  1  1  0  0  0  0
  8  2  1  0  0  0  0
 11 12  3  0  0  0  0
 13 14  1  0  0  0  0
 15 16  2  0  0  0  0
 15  6  1  0  0  0  0
 17 15  2  0  0  0  0
M  END
