Coordinates from ORCA-job 4-NO2-Ph-N2-OH-B3LYPG-6-31G_dp-MTMO-d009-169-n900
 OpenBabel09051908013D

 17 16  0  0  0  0  0  0  0  0999 V2000
   -0.8185   -0.8352   -1.5824 C   0  0  0  0  0  0  0  0  0  0  0  0
    0.2831   -0.1943   -1.0352 C   0  0  0  0  0  0  0  0  0  0  0  0
    0.2103    0.3265    0.2663 C   0  0  0  0  0  0  0  0  0  0  0  0
   -0.9698    0.2010    1.0152 C   0  0  0  0  0  0  0  0  0  0  0  0
   -2.0739   -0.4407    0.4678 C   0  0  0  0  0  0  0  0  0  0  0  0
   -1.9879   -0.9527   -0.8263 C   0  0  0  0  0  0  0  0  0  0  0  0
   -0.7935   -1.2465   -2.5833 H   0  0  0  0  0  0  0  0  0  0  0  0
    1.2062   -0.0842   -1.5934 H   0  0  0  0  0  0  0  0  0  0  0  0
   -1.0205    0.6054    2.0227 H   0  0  0  0  0  0  0  0  0  0  0  0
   -2.9972   -0.5518    1.0227 H   0  0  0  0  0  0  0  0  0  0  0  0
    4.7775    0.9629   -2.4800 N   0  0  0  0  0  0  0  0  0  0  0  0
    3.7453    0.5687   -2.4949 N   0  0  0  0  0  0  0  0  0  0  0  0
    1.3187    0.9441    0.7490 O   0  0  0  0  0  0  0  0  0  0  0  0
    1.1502    1.2621    1.6460 H   0  0  0  0  0  0  0  0  0  0  0  0
   -3.1492   -1.6272   -1.4044 N   0  0  0  0  0  0  0  0  0  0  0  0
   -4.1675   -1.7098   -0.7147 O   0  0  0  0  0  0  0  0  0  0  0  0
   -3.0425   -2.0737   -2.5480 O   0  0  0  0  0  0  0  0  0  0  0  0
  1  2  2  0  0  0  0
  1  6  1  0  0  0  0
  2  3  1  0  0  0  0
  3 13  1  0  0  0  0
  3  4  2  0  0  0  0
  4  9  1  0  0  0  0
  5  4  1  0  0  0  0
  5 10  1  0  0  0  0
  6  5  2  0  0  0  0
  7  1  1  0  0  0  0
  8  2  1  0  0  0  0
 12 11  3  0  0  0  0
 13 14  1  0  0  0  0
 15  6  1  0  0  0  0
 15 16  2  0  0  0  0
 17 15  2  0  0  0  0
M  END
