Coordinates from ORCA-job 4-NO2-Ph-N2-OH-B3LYPG-6-31G_dp-MTMO-d009-169-n900
 OpenBabel09051908013D

 17 17  0  0  0  0  0  0  0  0999 V2000
   -1.0250   -1.5001   -1.2743 C   0  0  0  0  0  0  0  0  0  0  0  0
    0.2211   -0.9122   -1.0937 C   0  0  0  0  0  0  0  0  0  0  0  0
    0.3185    0.2698   -0.3498 C   0  0  0  0  0  0  0  0  0  0  0  0
   -0.8105    0.8644    0.2157 C   0  0  0  0  0  0  0  0  0  0  0  0
   -2.0619    0.2808    0.0380 C   0  0  0  0  0  0  0  0  0  0  0  0
   -2.1473   -0.8940   -0.7060 C   0  0  0  0  0  0  0  0  0  0  0  0
   -1.1463   -2.4150   -1.8404 H   0  0  0  0  0  0  0  0  0  0  0  0
    1.1120   -1.3566   -1.5200 H   0  0  0  0  0  0  0  0  0  0  0  0
   -0.6910    1.7788    0.7857 H   0  0  0  0  0  0  0  0  0  0  0  0
   -2.9604    0.7127    0.4594 H   0  0  0  0  0  0  0  0  0  0  0  0
    1.6058    1.0009   -0.0790 N   0  0  0  0  0  0  0  0  0  0  0  0
    2.5649    0.4725   -0.6521 N   0  0  0  0  0  0  0  0  0  0  0  0
    3.7146    1.1900   -0.3577 O   0  0  0  0  0  0  0  0  0  0  0  0
    4.3940    0.7039   -0.8496 H   0  0  0  0  0  0  0  0  0  0  0  0
   -3.4658   -1.5193   -0.8996 N   0  0  0  0  0  0  0  0  0  0  0  0
   -4.4382   -0.9682   -0.3857 O   0  0  0  0  0  0  0  0  0  0  0  0
   -3.5134   -2.5538   -1.5641 O   0  0  0  0  0  0  0  0  0  0  0  0
  1  2  2  0  0  0  0
  1  6  1  0  0  0  0
  2  3  1  0  0  0  0
  3 11  1  0  0  0  0
  3  4  2  0  0  0  0
  4  9  1  0  0  0  0
  5  4  1  0  0  0  0
  5 10  1  0  0  0  0
  6  5  2  0  0  0  0
  7  1  1  0  0  0  0
  8  2  1  0  0  0  0
 12 13  1  0  0  0  0
 12 11  1  0  0  0  0
 14 13  1  0  0  0  0
 15  6  1  0  0  0  0
 15 16  2  0  0  0  0
 17 15  2  0  0  0  0
M  RAD  2  11   2  12   2
M  END
