Coordinates from ORCA-job 4-NO2-Ph-N2-OH-B3LYPG-6-31G_dp-MTMO-d009-169-n900
 OpenBabel09051908023D

 17 16  0  0  0  0  0  0  0  0999 V2000
    0.5981    0.6746    0.2379 C   0  0  0  0  0  0  0  0  0  0  0  0
    0.4098    1.1231    1.5363 C   0  0  0  0  0  0  0  0  0  0  0  0
   -0.7709    0.7987    2.2228 C   0  0  0  0  0  0  0  0  0  0  0  0
   -1.7603    0.0223    1.6003 C   0  0  0  0  0  0  0  0  0  0  0  0
   -1.5732   -0.4279    0.2996 C   0  0  0  0  0  0  0  0  0  0  0  0
   -0.3958   -0.0972   -0.3698 C   0  0  0  0  0  0  0  0  0  0  0  0
    1.4981    0.9097   -0.3164 H   0  0  0  0  0  0  0  0  0  0  0  0
    1.1599    1.7235    2.0390 H   0  0  0  0  0  0  0  0  0  0  0  0
   -2.6730   -0.2280    2.1356 H   0  0  0  0  0  0  0  0  0  0  0  0
   -2.3201   -1.0278   -0.2050 H   0  0  0  0  0  0  0  0  0  0  0  0
    0.0662   -3.8714  -10.4927 N   0  0  0  0  0  0  0  0  0  0  0  0
    0.5190   -4.6171   -9.8141 N   0  0  0  0  0  0  0  0  0  0  0  0
   -0.8990    1.2661    3.4899 O   0  0  0  0  0  0  0  0  0  0  0  0
   -1.7479    0.9849    3.8569 H   0  0  0  0  0  0  0  0  0  0  0  0
   -0.1983   -0.5693   -1.7396 N   0  0  0  0  0  0  0  0  0  0  0  0
   -1.0938   -1.2468   -2.2479 O   0  0  0  0  0  0  0  0  0  0  0  0
    0.8520   -0.2628   -2.3060 O   0  0  0  0  0  0  0  0  0  0  0  0
  1  2  1  0  0  0  0
  2  8  1  0  0  0  0
  2  3  2  0  0  0  0
  3 13  1  0  0  0  0
  4  9  1  0  0  0  0
  4  3  1  0  0  0  0
  5  4  2  0  0  0  0
  6  1  2  0  0  0  0
  6  5  1  0  0  0  0
  7  1  1  0  0  0  0
 10  5  1  0  0  0  0
 11 12  3  0  0  0  0
 13 14  1  0  0  0  0
 15  6  1  0  0  0  0
 16 15  2  0  0  0  0
 17 15  2  0  0  0  0
M  END
