Coordinates from ORCA-job 4-NO2-Ph-N2-OH-B3LYPG-6-31G_dp-MTMO-d009-169-n900
 OpenBabel09051908013D

 17 17  0  0  0  0  0  0  0  0999 V2000
   -1.0343   -1.4959   -1.2761 C   0  0  0  0  0  0  0  0  0  0  0  0
    0.2088   -0.8948   -1.0933 C   0  0  0  0  0  0  0  0  0  0  0  0
    0.2678    0.2765   -0.3478 C   0  0  0  0  0  0  0  0  0  0  0  0
   -0.8466    0.8747    0.2230 C   0  0  0  0  0  0  0  0  0  0  0  0
   -2.0918    0.2747    0.0408 C   0  0  0  0  0  0  0  0  0  0  0  0
   -2.1611   -0.9004   -0.7064 C   0  0  0  0  0  0  0  0  0  0  0  0
   -1.1477   -2.4102   -1.8449 H   0  0  0  0  0  0  0  0  0  0  0  0
    1.1107   -1.3202   -1.5163 H   0  0  0  0  0  0  0  0  0  0  0  0
   -0.7343    1.7896    0.7932 H   0  0  0  0  0  0  0  0  0  0  0  0
   -2.9972    0.6943    0.4603 H   0  0  0  0  0  0  0  0  0  0  0  0
    1.6907    1.0906   -0.0554 N   0  0  0  0  0  0  0  0  0  0  0  0
    2.6020    0.4953   -0.6263 N   0  0  0  0  0  0  0  0  0  0  0  0
    3.8013    1.1676   -0.3884 O   0  0  0  0  0  0  0  0  0  0  0  0
    4.4388    0.6238   -0.8759 H   0  0  0  0  0  0  0  0  0  0  0  0
   -3.4740   -1.5387   -0.9032 N   0  0  0  0  0  0  0  0  0  0  0  0
   -4.4521   -0.9992   -0.3884 O   0  0  0  0  0  0  0  0  0  0  0  0
   -3.5100   -2.5732   -1.5679 O   0  0  0  0  0  0  0  0  0  0  0  0
  1  2  2  0  0  0  0
  1  6  1  0  0  0  0
  2  3  1  0  0  0  0
  3 11  1  0  0  0  0
  3  4  2  0  0  0  0
  4  9  1  0  0  0  0
  5  4  1  0  0  0  0
  5 10  1  0  0  0  0
  6  5  2  0  0  0  0
  7  1  1  0  0  0  0
  8  2  1  0  0  0  0
 12 13  1  0  0  0  0
 12 11  1  0  0  0  0
 14 13  1  0  0  0  0
 15  6  1  0  0  0  0
 15 16  2  0  0  0  0
 17 15  2  0  0  0  0
M  RAD  2  11   2  12   2
M  END
