Coordinates from ORCA-job 4-NO2-Ph-N2-OH-B3LYPG-6-31G_dp-MTMO-d009-169-n900
 OpenBabel09051908013D

 17 16  0  0  0  0  0  0  0  0999 V2000
    0.6090    0.6234    0.1030 C   0  0  0  0  0  0  0  0  0  0  0  0
    0.4226    1.0618    1.4051 C   0  0  0  0  0  0  0  0  0  0  0  0
   -0.7576    0.7331    2.0904 C   0  0  0  0  0  0  0  0  0  0  0  0
   -1.7484   -0.0375    1.4630 C   0  0  0  0  0  0  0  0  0  0  0  0
   -1.5633   -0.4775    0.1586 C   0  0  0  0  0  0  0  0  0  0  0  0
   -0.3863   -0.1427   -0.5096 C   0  0  0  0  0  0  0  0  0  0  0  0
    1.5086    0.8620   -0.4505 H   0  0  0  0  0  0  0  0  0  0  0  0
    1.1739    1.6575    1.9116 H   0  0  0  0  0  0  0  0  0  0  0  0
   -2.6607   -0.2912    1.9974 H   0  0  0  0  0  0  0  0  0  0  0  0
   -2.3113   -1.0728   -0.3499 H   0  0  0  0  0  0  0  0  0  0  0  0
   -0.0128   -3.4598   -9.4576 N   0  0  0  0  0  0  0  0  0  0  0  0
    0.4330   -4.2241   -8.7953 N   0  0  0  0  0  0  0  0  0  0  0  0
   -0.8837    1.1906    3.3613 O   0  0  0  0  0  0  0  0  0  0  0  0
   -1.7324    0.9073    3.7271 H   0  0  0  0  0  0  0  0  0  0  0  0
   -0.1909   -0.6043   -1.8833 N   0  0  0  0  0  0  0  0  0  0  0  0
   -1.0877   -1.2768   -2.3960 O   0  0  0  0  0  0  0  0  0  0  0  0
    0.8591   -0.2945   -2.4485 O   0  0  0  0  0  0  0  0  0  0  0  0
  1  2  1  0  0  0  0
  2  8  1  0  0  0  0
  2  3  2  0  0  0  0
  3 13  1  0  0  0  0
  4  9  1  0  0  0  0
  4  3  1  0  0  0  0
  5  4  2  0  0  0  0
  6  1  2  0  0  0  0
  6  5  1  0  0  0  0
  7  1  1  0  0  0  0
 10  5  1  0  0  0  0
 11 12  3  0  0  0  0
 13 14  1  0  0  0  0
 15  6  1  0  0  0  0
 16 15  2  0  0  0  0
 17 15  2  0  0  0  0
M  END
