Coordinates from ORCA-job 4-NO2-Ph-N2-OH-B3LYPG-6-31G_dp-MTMO-d009-169-n900
 OpenBabel09051908013D

 17 16  0  0  0  0  0  0  0  0999 V2000
   -0.8829   -0.9131   -1.6318 C   0  0  0  0  0  0  0  0  0  0  0  0
    0.2624   -0.2961   -1.1510 C   0  0  0  0  0  0  0  0  0  0  0  0
    0.2625    0.2672    0.1350 C   0  0  0  0  0  0  0  0  0  0  0  0
   -0.8887    0.2087    0.9351 C   0  0  0  0  0  0  0  0  0  0  0  0
   -2.0366   -0.4089    0.4540 C   0  0  0  0  0  0  0  0  0  0  0  0
   -2.0229   -0.9640   -0.8250 C   0  0  0  0  0  0  0  0  0  0  0  0
   -0.9139   -1.3561   -2.6190 H   0  0  0  0  0  0  0  0  0  0  0  0
    1.1653   -0.2356   -1.7481 H   0  0  0  0  0  0  0  0  0  0  0  0
   -0.8832    0.6459    1.9302 H   0  0  0  0  0  0  0  0  0  0  0  0
   -2.9396   -0.4692    1.0485 H   0  0  0  0  0  0  0  0  0  0  0  0
    4.7117    1.2490   -1.9940 N   0  0  0  0  0  0  0  0  0  0  0  0
    3.7701    0.7116   -2.2079 N   0  0  0  0  0  0  0  0  0  0  0  0
    1.4120    0.8582    0.5511 O   0  0  0  0  0  0  0  0  0  0  0  0
    1.2946    1.2065    1.4450 H   0  0  0  0  0  0  0  0  0  0  0  0
   -3.2308   -1.6135   -1.3323 N   0  0  0  0  0  0  0  0  0  0  0  0
   -4.2213   -1.6365   -0.5991 O   0  0  0  0  0  0  0  0  0  0  0  0
   -3.1880   -2.0996   -2.4639 O   0  0  0  0  0  0  0  0  0  0  0  0
  1  2  2  0  0  0  0
  1  6  1  0  0  0  0
  2  3  1  0  0  0  0
  3 13  1  0  0  0  0
  3  4  2  0  0  0  0
  4  9  1  0  0  0  0
  5  4  1  0  0  0  0
  5 10  1  0  0  0  0
  6  5  2  0  0  0  0
  7  1  1  0  0  0  0
  8  2  1  0  0  0  0
 12 11  3  0  0  0  0
 13 14  1  0  0  0  0
 15  6  1  0  0  0  0
 15 16  2  0  0  0  0
 17 15  2  0  0  0  0
M  END
