Coordinates from ORCA-job 4-NO2-Ph-N2-OH-B3LYPG-6-31G_dp-MTMO-d009-169-n900
 OpenBabel09051908013D

 17 16  0  0  0  0  0  0  0  0999 V2000
    0.6096    0.6205    0.0954 C   0  0  0  0  0  0  0  0  0  0  0  0
    0.4233    1.0583    1.3977 C   0  0  0  0  0  0  0  0  0  0  0  0
   -0.7569    0.7294    2.0830 C   0  0  0  0  0  0  0  0  0  0  0  0
   -1.7478   -0.0409    1.4553 C   0  0  0  0  0  0  0  0  0  0  0  0
   -1.5627   -0.4803    0.1506 C   0  0  0  0  0  0  0  0  0  0  0  0
   -0.3858   -0.1452   -0.5175 C   0  0  0  0  0  0  0  0  0  0  0  0
    1.5092    0.8593   -0.4580 H   0  0  0  0  0  0  0  0  0  0  0  0
    1.1746    1.6538    1.9044 H   0  0  0  0  0  0  0  0  0  0  0  0
   -2.6600   -0.2948    1.9895 H   0  0  0  0  0  0  0  0  0  0  0  0
   -2.3108   -1.0753   -0.3581 H   0  0  0  0  0  0  0  0  0  0  0  0
   -0.0174   -3.4367   -9.3993 N   0  0  0  0  0  0  0  0  0  0  0  0
    0.4281   -4.2019   -8.7378 N   0  0  0  0  0  0  0  0  0  0  0  0
   -0.8829    1.1863    3.3541 O   0  0  0  0  0  0  0  0  0  0  0  0
   -1.7315    0.9029    3.7198 H   0  0  0  0  0  0  0  0  0  0  0  0
   -0.1904   -0.6062   -1.8914 N   0  0  0  0  0  0  0  0  0  0  0  0
   -1.0873   -1.2785   -2.4043 O   0  0  0  0  0  0  0  0  0  0  0  0
    0.8596   -0.2962   -2.4565 O   0  0  0  0  0  0  0  0  0  0  0  0
  1  2  1  0  0  0  0
  2  8  1  0  0  0  0
  2  3  2  0  0  0  0
  3 13  1  0  0  0  0
  4  9  1  0  0  0  0
  4  3  1  0  0  0  0
  5  4  2  0  0  0  0
  6  1  2  0  0  0  0
  6  5  1  0  0  0  0
  7  1  1  0  0  0  0
 10  5  1  0  0  0  0
 11 12  3  0  0  0  0
 13 14  1  0  0  0  0
 15  6  1  0  0  0  0
 16 15  2  0  0  0  0
 17 15  2  0  0  0  0
M  END
