Coordinates from ORCA-job 4-NO2-Ph-N2-OH-B3LYPG-6-31G_dp-MTMO-d009-169-n900
 OpenBabel09051908013D

 17 16  0  0  0  0  0  0  0  0999 V2000
   -0.9625   -1.2628   -1.1455 C   0  0  0  0  0  0  0  0  0  0  0  0
    0.1171   -0.4363   -0.7965 C   0  0  0  0  0  0  0  0  0  0  0  0
   -0.2020    0.6460   -0.0409 C   0  0  0  0  0  0  0  0  0  0  0  0
   -1.4163    1.0600    0.4371 C   0  0  0  0  0  0  0  0  0  0  0  0
   -2.4885    0.2248    0.0821 C   0  0  0  0  0  0  0  0  0  0  0  0
   -2.2372   -0.9084   -0.6958 C   0  0  0  0  0  0  0  0  0  0  0  0
   -0.8331   -2.1562   -1.7453 H   0  0  0  0  0  0  0  0  0  0  0  0
    1.1457   -0.6452   -1.1094 H   0  0  0  0  0  0  0  0  0  0  0  0
   -1.5655    1.9511    1.0376 H   0  0  0  0  0  0  0  0  0  0  0  0
   -3.5019    0.4420    0.3991 H   0  0  0  0  0  0  0  0  0  0  0  0
    2.7160    1.5430    0.0275 N   0  0  0  0  0  0  0  0  0  0  0  0
    3.0020    0.6153   -0.6088 N   0  0  0  0  0  0  0  0  0  0  0  0
    4.4764    0.4460   -0.9716 O   0  0  0  0  0  0  0  0  0  0  0  0
    4.4219   -0.3837   -1.4746 H   0  0  0  0  0  0  0  0  0  0  0  0
   -3.3745   -1.7716   -1.0615 N   0  0  0  0  0  0  0  0  0  0  0  0
   -4.4898   -1.4446   -0.6600 O   0  0  0  0  0  0  0  0  0  0  0  0
   -3.1368   -2.7648   -1.7466 O   0  0  0  0  0  0  0  0  0  0  0  0
  1  2  2  0  0  0  0
  1  6  1  0  0  0  0
  2  3  1  0  0  0  0
  3  4  2  0  0  0  0
  4  9  1  0  0  0  0
  5 10  1  0  0  0  0
  5  4  1  0  0  0  0
  6  5  2  0  0  0  0
  7  1  1  0  0  0  0
  8  2  1  0  0  0  0
 12 11  2  0  0  0  0
 13 12  1  0  0  0  0
 14 13  1  0  0  0  0
 15  6  1  0  0  0  0
 15 16  2  0  0  0  0
 17 15  2  0  0  0  0
M  RAD  2   3   2  11   2
M  END
