Coordinates from ORCA-job 4-NO2-Ph-N2-OH-B3LYPG-6-31G_dp-MTMO-d009-169-n900
 OpenBabel09051908013D

 17 16  0  0  0  0  0  0  0  0999 V2000
    0.6232    0.5615   -0.0611 C   0  0  0  0  0  0  0  0  0  0  0  0
    0.4374    0.9874    1.2453 C   0  0  0  0  0  0  0  0  0  0  0  0
   -0.7427    0.6527    1.9278 C   0  0  0  0  0  0  0  0  0  0  0  0
   -1.7341   -0.1114    1.2933 C   0  0  0  0  0  0  0  0  0  0  0  0
   -1.5495   -0.5389   -0.0154 C   0  0  0  0  0  0  0  0  0  0  0  0
   -0.3726   -0.1982   -0.6808 C   0  0  0  0  0  0  0  0  0  0  0  0
    1.5228    0.8050   -0.6124 H   0  0  0  0  0  0  0  0  0  0  0  0
    1.1891    1.5779    1.7573 H   0  0  0  0  0  0  0  0  0  0  0  0
   -2.6464   -0.3699    1.8253 H   0  0  0  0  0  0  0  0  0  0  0  0
   -2.2979   -1.1290   -0.5294 H   0  0  0  0  0  0  0  0  0  0  0  0
   -0.1161   -2.9573   -8.1890 N   0  0  0  0  0  0  0  0  0  0  0  0
    0.3231   -3.7417   -7.5461 N   0  0  0  0  0  0  0  0  0  0  0  0
   -0.8682    1.0980    3.2031 O   0  0  0  0  0  0  0  0  0  0  0  0
   -1.7168    0.8117    3.5665 H   0  0  0  0  0  0  0  0  0  0  0  0
   -0.1777   -0.6469   -2.0587 N   0  0  0  0  0  0  0  0  0  0  0  0
   -1.0750   -1.3139   -2.5777 O   0  0  0  0  0  0  0  0  0  0  0  0
    0.8725   -0.3325   -2.6212 O   0  0  0  0  0  0  0  0  0  0  0  0
  1  2  1  0  0  0  0
  2  8  1  0  0  0  0
  2  3  2  0  0  0  0
  3 13  1  0  0  0  0
  4  9  1  0  0  0  0
  4  3  1  0  0  0  0
  5  4  2  0  0  0  0
  6  1  2  0  0  0  0
  6  5  1  0  0  0  0
  7  1  1  0  0  0  0
 10  5  1  0  0  0  0
 11 12  3  0  0  0  0
 13 14  1  0  0  0  0
 15  6  1  0  0  0  0
 16 15  2  0  0  0  0
 17 15  2  0  0  0  0
M  END
