Coordinates from ORCA-job 4-NO2-Ph-N2-OH-B3LYPG-6-31G_dp-MTMO-d009-169-n900
 OpenBabel09051908013D

 17 16  0  0  0  0  0  0  0  0999 V2000
    0.6224    0.5650   -0.0517 C   0  0  0  0  0  0  0  0  0  0  0  0
    0.4366    0.9916    1.2544 C   0  0  0  0  0  0  0  0  0  0  0  0
   -0.7435    0.6573    1.9372 C   0  0  0  0  0  0  0  0  0  0  0  0
   -1.7349   -0.1071    1.3031 C   0  0  0  0  0  0  0  0  0  0  0  0
   -1.5504   -0.5353   -0.0054 C   0  0  0  0  0  0  0  0  0  0  0  0
   -0.3735   -0.1950   -0.6710 C   0  0  0  0  0  0  0  0  0  0  0  0
    1.5219    0.8082   -0.6032 H   0  0  0  0  0  0  0  0  0  0  0  0
    1.1883    1.5824    1.7660 H   0  0  0  0  0  0  0  0  0  0  0  0
   -2.6472   -0.3653    1.8353 H   0  0  0  0  0  0  0  0  0  0  0  0
   -2.2989   -1.1256   -0.5190 H   0  0  0  0  0  0  0  0  0  0  0  0
   -0.1098   -2.9862   -8.2619 N   0  0  0  0  0  0  0  0  0  0  0  0
    0.3297   -3.7694   -7.6177 N   0  0  0  0  0  0  0  0  0  0  0  0
   -0.8689    1.1033    3.2122 O   0  0  0  0  0  0  0  0  0  0  0  0
   -1.7175    0.8172    3.5758 H   0  0  0  0  0  0  0  0  0  0  0  0
   -0.1786   -0.6444   -2.0487 N   0  0  0  0  0  0  0  0  0  0  0  0
   -1.0760   -1.3117   -2.5673 O   0  0  0  0  0  0  0  0  0  0  0  0
    0.8714   -0.3303   -2.6114 O   0  0  0  0  0  0  0  0  0  0  0  0
  1  2  1  0  0  0  0
  2  8  1  0  0  0  0
  2  3  2  0  0  0  0
  3 13  1  0  0  0  0
  4  9  1  0  0  0  0
  4  3  1  0  0  0  0
  5  4  2  0  0  0  0
  6  1  2  0  0  0  0
  6  5  1  0  0  0  0
  7  1  1  0  0  0  0
 10  5  1  0  0  0  0
 11 12  3  0  0  0  0
 13 14  1  0  0  0  0
 15  6  1  0  0  0  0
 16 15  2  0  0  0  0
 17 15  2  0  0  0  0
M  END
