Coordinates from ORCA-job 4-NO2-Ph-N2-OH-B3LYPG-6-31G_dp-MTMO-d009-169-n900
 OpenBabel09051908013D

 17 16  0  0  0  0  0  0  0  0999 V2000
    0.6062    0.6364    0.1371 C   0  0  0  0  0  0  0  0  0  0  0  0
    0.4194    1.0773    1.4383 C   0  0  0  0  0  0  0  0  0  0  0  0
   -0.7609    0.7498    2.1240 C   0  0  0  0  0  0  0  0  0  0  0  0
   -1.7514   -0.0223    1.4979 C   0  0  0  0  0  0  0  0  0  0  0  0
   -1.5659   -0.4649    0.1944 C   0  0  0  0  0  0  0  0  0  0  0  0
   -0.3888   -0.1312   -0.4742 C   0  0  0  0  0  0  0  0  0  0  0  0
    1.5059    0.8740   -0.4166 H   0  0  0  0  0  0  0  0  0  0  0  0
    1.1704    1.6742    1.9438 H   0  0  0  0  0  0  0  0  0  0  0  0
   -2.6638   -0.2751    2.0326 H   0  0  0  0  0  0  0  0  0  0  0  0
   -2.3136   -1.0614   -0.3131 H   0  0  0  0  0  0  0  0  0  0  0  0
    0.0075   -3.5639   -9.7201 N   0  0  0  0  0  0  0  0  0  0  0  0
    0.4549   -4.3240   -9.0539 N   0  0  0  0  0  0  0  0  0  0  0  0
   -0.8875    1.2098    3.3940 O   0  0  0  0  0  0  0  0  0  0  0  0
   -1.7362    0.9271    3.7601 H   0  0  0  0  0  0  0  0  0  0  0  0
   -0.1929   -0.5955   -1.8468 N   0  0  0  0  0  0  0  0  0  0  0  0
   -1.0895   -1.2693   -2.3584 O   0  0  0  0  0  0  0  0  0  0  0  0
    0.8571   -0.2866   -2.4124 O   0  0  0  0  0  0  0  0  0  0  0  0
  1  2  1  0  0  0  0
  2  8  1  0  0  0  0
  2  3  2  0  0  0  0
  3 13  1  0  0  0  0
  4  9  1  0  0  0  0
  4  3  1  0  0  0  0
  5  4  2  0  0  0  0
  6  1  2  0  0  0  0
  6  5  1  0  0  0  0
  7  1  1  0  0  0  0
 10  5  1  0  0  0  0
 11 12  3  0  0  0  0
 13 14  1  0  0  0  0
 15  6  1  0  0  0  0
 16 15  2  0  0  0  0
 17 15  2  0  0  0  0
M  END
