Coordinates from ORCA-job 4-NO2-Ph-N2-OH-B3LYPG-6-31G_dp-MTMO-d009-169-n900
 OpenBabel09051908013D

 17 16  0  0  0  0  0  0  0  0999 V2000
   -1.0590   -1.4615   -1.2549 C   0  0  0  0  0  0  0  0  0  0  0  0
    0.1529   -0.7979   -1.0324 C   0  0  0  0  0  0  0  0  0  0  0  0
    0.0810    0.3449   -0.2808 C   0  0  0  0  0  0  0  0  0  0  0  0
   -1.0311    0.9217    0.2819 C   0  0  0  0  0  0  0  0  0  0  0  0
   -2.2388    0.2501    0.0535 C   0  0  0  0  0  0  0  0  0  0  0  0
   -2.2248   -0.9213   -0.7069 C   0  0  0  0  0  0  0  0  0  0  0  0
   -1.1151   -2.3747   -1.8349 H   0  0  0  0  0  0  0  0  0  0  0  0
    1.1006   -1.1554   -1.4257 H   0  0  0  0  0  0  0  0  0  0  0  0
   -0.9849    1.8357    0.8626 H   0  0  0  0  0  0  0  0  0  0  0  0
   -3.1775    0.6170    0.4503 H   0  0  0  0  0  0  0  0  0  0  0  0
    2.0921    1.3538    0.0230 N   0  0  0  0  0  0  0  0  0  0  0  0
    2.7958    0.5963   -0.5831 N   0  0  0  0  0  0  0  0  0  0  0  0
    4.1718    1.0241   -0.5462 O   0  0  0  0  0  0  0  0  0  0  0  0
    4.5940    0.3212   -1.0646 H   0  0  0  0  0  0  0  0  0  0  0  0
   -3.5005   -1.6200   -0.9437 N   0  0  0  0  0  0  0  0  0  0  0  0
   -4.5170   -1.1308   -0.4543 O   0  0  0  0  0  0  0  0  0  0  0  0
   -3.4688   -2.6487   -1.6170 O   0  0  0  0  0  0  0  0  0  0  0  0
  1  2  2  0  0  0  0
  1  6  1  0  0  0  0
  2  3  1  0  0  0  0
  3  4  2  0  0  0  0
  4  9  1  0  0  0  0
  5  4  1  0  0  0  0
  5 10  1  0  0  0  0
  6  5  2  0  0  0  0
  7  1  1  0  0  0  0
  8  2  1  0  0  0  0
 12 13  1  0  0  0  0
 12 11  1  0  0  0  0
 14 13  1  0  0  0  0
 15  6  1  0  0  0  0
 15 16  2  0  0  0  0
 17 15  2  0  0  0  0
M  RAD  3   3   2  11   3  12   2
M  END
