Coordinates from ORCA-job 4-NO2-Ph-N2-OH-B3LYPG-6-31G_dp-MTMO-d009-169-n900
 OpenBabel09051908013D

 17 16  0  0  0  0  0  0  0  0999 V2000
   -1.0121   -1.3479   -1.1918 C   0  0  0  0  0  0  0  0  0  0  0  0
    0.1232   -0.5818   -0.8909 C   0  0  0  0  0  0  0  0  0  0  0  0
   -0.1034    0.5272   -0.1336 C   0  0  0  0  0  0  0  0  0  0  0  0
   -1.2783    1.0087    0.3805 C   0  0  0  0  0  0  0  0  0  0  0  0
   -2.4074    0.2333    0.0728 C   0  0  0  0  0  0  0  0  0  0  0  0
   -2.2483   -0.9189   -0.7012 C   0  0  0  0  0  0  0  0  0  0  0  0
   -0.9554   -2.2523   -1.7861 H   0  0  0  0  0  0  0  0  0  0  0  0
    1.1247   -0.8467   -1.2351 H   0  0  0  0  0  0  0  0  0  0  0  0
   -1.3535    1.9119    0.9760 H   0  0  0  0  0  0  0  0  0  0  0  0
   -3.3951    0.5098    0.4225 H   0  0  0  0  0  0  0  0  0  0  0  0
    2.5019    1.5000    0.0427 N   0  0  0  0  0  0  0  0  0  0  0  0
    2.9520    0.6238   -0.5927 N   0  0  0  0  0  0  0  0  0  0  0  0
    4.4257    0.6865   -0.8078 O   0  0  0  0  0  0  0  0  0  0  0  0
    4.5525   -0.1200   -1.3336 H   0  0  0  0  0  0  0  0  0  0  0  0
   -3.4441   -1.7201   -1.0167 N   0  0  0  0  0  0  0  0  0  0  0  0
   -4.5246   -1.3266   -0.5809 O   0  0  0  0  0  0  0  0  0  0  0  0
   -3.2869   -2.7323   -1.6973 O   0  0  0  0  0  0  0  0  0  0  0  0
  1  2  2  0  0  0  0
  1  6  1  0  0  0  0
  2  3  1  0  0  0  0
  3  4  2  0  0  0  0
  4  9  1  0  0  0  0
  5  4  1  0  0  0  0
  5 10  1  0  0  0  0
  6  5  2  0  0  0  0
  7  1  1  0  0  0  0
  8  2  1  0  0  0  0
 12 11  2  0  0  0  0
 13 12  1  0  0  0  0
 14 13  1  0  0  0  0
 15  6  1  0  0  0  0
 15 16  2  0  0  0  0
 17 15  2  0  0  0  0
M  RAD  2   3   2  11   2
M  END
