Coordinates from ORCA-job 4-NO2-Ph-N2-OH-B3LYPG-6-31G_dp-MTMO-d009-169-n900
 OpenBabel09051908013D

 17 17  0  0  0  0  0  0  0  0999 V2000
   -1.0271   -1.4988   -1.2752 C   0  0  0  0  0  0  0  0  0  0  0  0
    0.2182   -0.9074   -1.0951 C   0  0  0  0  0  0  0  0  0  0  0  0
    0.3069    0.2720   -0.3508 C   0  0  0  0  0  0  0  0  0  0  0  0
   -0.8185    0.8670    0.2165 C   0  0  0  0  0  0  0  0  0  0  0  0
   -2.0684    0.2793    0.0389 C   0  0  0  0  0  0  0  0  0  0  0  0
   -2.1502   -0.8956   -0.7058 C   0  0  0  0  0  0  0  0  0  0  0  0
   -1.1466   -2.4135   -1.8421 H   0  0  0  0  0  0  0  0  0  0  0  0
    1.1114   -1.3470   -1.5216 H   0  0  0  0  0  0  0  0  0  0  0  0
   -0.7004    1.7817    0.7863 H   0  0  0  0  0  0  0  0  0  0  0  0
   -2.9683    0.7081    0.4605 H   0  0  0  0  0  0  0  0  0  0  0  0
    1.6236    1.0233   -0.0756 N   0  0  0  0  0  0  0  0  0  0  0  0
    2.5729    0.4762   -0.6441 N   0  0  0  0  0  0  0  0  0  0  0  0
    3.7335    1.1852   -0.3648 O   0  0  0  0  0  0  0  0  0  0  0  0
    4.4047    0.6829   -0.8517 H   0  0  0  0  0  0  0  0  0  0  0  0
   -3.4674   -1.5243   -0.8993 N   0  0  0  0  0  0  0  0  0  0  0  0
   -4.4410   -0.9761   -0.3848 O   0  0  0  0  0  0  0  0  0  0  0  0
   -3.5125   -2.5586   -1.5642 O   0  0  0  0  0  0  0  0  0  0  0  0
  1  2  2  0  0  0  0
  1  6  1  0  0  0  0
  2  3  1  0  0  0  0
  3 11  1  0  0  0  0
  3  4  2  0  0  0  0
  4  9  1  0  0  0  0
  5  4  1  0  0  0  0
  5 10  1  0  0  0  0
  6  5  2  0  0  0  0
  7  1  1  0  0  0  0
  8  2  1  0  0  0  0
 12 13  1  0  0  0  0
 12 11  1  0  0  0  0
 14 13  1  0  0  0  0
 15  6  1  0  0  0  0
 15 16  2  0  0  0  0
 17 15  2  0  0  0  0
M  RAD  2  11   2  12   2
M  END
