Coordinates from ORCA-job 4-NO2-Ph-N2-OH-B3LYPG-6-31G_dp-MTMO-d009-169-n900
 OpenBabel09051908013D

 17 16  0  0  0  0  0  0  0  0999 V2000
   -0.5421   -0.6152   -1.3254 C   0  0  0  0  0  0  0  0  0  0  0  0
    0.3795    0.0562   -0.5360 C   0  0  0  0  0  0  0  0  0  0  0  0
    0.0243    0.4604    0.7608 C   0  0  0  0  0  0  0  0  0  0  0  0
   -1.2582    0.1875    1.2609 C   0  0  0  0  0  0  0  0  0  0  0  0
   -2.1823   -0.4853    0.4710 C   0  0  0  0  0  0  0  0  0  0  0  0
   -1.8157   -0.8804   -0.8150 C   0  0  0  0  0  0  0  0  0  0  0  0
   -0.2966   -0.9388   -2.3288 H   0  0  0  0  0  0  0  0  0  0  0  0
    1.3757    0.2785   -0.9019 H   0  0  0  0  0  0  0  0  0  0  0  0
   -1.5296    0.5027    2.2651 H   0  0  0  0  0  0  0  0  0  0  0  0
   -3.1784   -0.7093    0.8308 H   0  0  0  0  0  0  0  0  0  0  0  0
    4.4915    0.0599   -4.4092 N   0  0  0  0  0  0  0  0  0  0  0  0
    3.7512    0.0969   -3.5893 N   0  0  0  0  0  0  0  0  0  0  0  0
    0.9673    1.1143    1.4852 O   0  0  0  0  0  0  0  0  0  0  0  0
    0.6105    1.3459    2.3530 H   0  0  0  0  0  0  0  0  0  0  0  0
   -2.7876   -1.5879   -1.6471 N   0  0  0  0  0  0  0  0  0  0  0  0
   -3.9029   -1.8043   -1.1689 O   0  0  0  0  0  0  0  0  0  0  0  0
   -2.4357   -1.9269   -2.7784 O   0  0  0  0  0  0  0  0  0  0  0  0
  1  6  2  0  0  0  0
  1  2  1  0  0  0  0
  2  3  2  0  0  0  0
  3  4  1  0  0  0  0
  3 13  1  0  0  0  0
  4  9  1  0  0  0  0
  5 10  1  0  0  0  0
  5  4  2  0  0  0  0
  6  5  1  0  0  0  0
  7  1  1  0  0  0  0
  8  2  1  0  0  0  0
 11 12  3  0  0  0  0
 13 14  1  0  0  0  0
 15 16  2  0  0  0  0
 15  6  1  0  0  0  0
 17 15  2  0  0  0  0
M  END
