Coordinates from ORCA-job 4-NO2-Ph-N2-OH-B3LYPG-6-31G_dp-MTMO-d009-169-n900
 OpenBabel09051908013D

 17 15  0  0  0  0  0  0  0  0999 V2000
   -0.8974   -1.0576   -1.0391 C   0  0  0  0  0  0  0  0  0  0  0  0
    0.0501   -0.1164   -0.5924 C   0  0  0  0  0  0  0  0  0  0  0  0
   -0.4792    0.8804    0.1575 C   0  0  0  0  0  0  0  0  0  0  0  0
   -1.7586    1.1368    0.5579 C   0  0  0  0  0  0  0  0  0  0  0  0
   -2.6873    0.1840    0.1013 C   0  0  0  0  0  0  0  0  0  0  0  0
   -2.2352   -0.8816   -0.6806 C   0  0  0  0  0  0  0  0  0  0  0  0
   -0.6063   -1.9057   -1.6489 H   0  0  0  0  0  0  0  0  0  0  0  0
    1.1111   -0.2027   -0.8415 H   0  0  0  0  0  0  0  0  0  0  0  0
   -2.0620    1.9824    1.1666 H   0  0  0  0  0  0  0  0  0  0  0  0
   -3.7405    0.2645    0.3467 H   0  0  0  0  0  0  0  0  0  0  0  0
    3.2347    1.6664   -0.0347 N   0  0  0  0  0  0  0  0  0  0  0  0
    3.1025    0.7120   -0.5957 N   0  0  0  0  0  0  0  0  0  0  0  0
    4.7829   -0.1889   -1.4003 O   0  0  0  0  0  0  0  0  0  0  0  0
    4.2834   -0.9473   -1.7518 H   0  0  0  0  0  0  0  0  0  0  0  0
   -3.2232   -1.8710   -1.1522 N   0  0  0  0  0  0  0  0  0  0  0  0
   -4.3964   -1.6967   -0.8307 O   0  0  0  0  0  0  0  0  0  0  0  0
   -2.8077   -2.8040   -1.8352 O   0  0  0  0  0  0  0  0  0  0  0  0
  1  6  2  0  0  0  0
  1  2  1  0  0  0  0
  2  3  2  0  0  0  0
  3  4  1  0  0  0  0
  4  9  1  0  0  0  0
  5 10  1  0  0  0  0
  5  4  2  0  0  0  0
  6  5  1  0  0  0  0
  7  1  1  0  0  0  0
  8  2  1  0  0  0  0
 12 11  3  0  0  0  0
 14 13  1  0  0  0  0
 15 16  2  0  0  0  0
 15  6  1  0  0  0  0
 17 15  2  0  0  0  0
M  RAD  2   3   2  13   2
M  END
