Coordinates from ORCA-job 4-NO2-Ph-N2-OH-B3LYPG-6-31G_dp-MTMO-d009-169-n900
 OpenBabel09051908013D

 17 17  0  0  0  0  0  0  0  0999 V2000
   -1.0866   -1.6477   -1.2343 C   0  0  0  0  0  0  0  0  0  0  0  0
    0.2109   -1.2056   -1.1014 C   0  0  0  0  0  0  0  0  0  0  0  0
    0.5317    0.0399   -0.4236 C   0  0  0  0  0  0  0  0  0  0  0  0
   -0.6135    0.7639    0.1036 C   0  0  0  0  0  0  0  0  0  0  0  0
   -1.9005    0.2968   -0.0452 C   0  0  0  0  0  0  0  0  0  0  0  0
   -2.1485   -0.9076   -0.7083 C   0  0  0  0  0  0  0  0  0  0  0  0
   -1.2972   -2.5760   -1.7522 H   0  0  0  0  0  0  0  0  0  0  0  0
    1.0427   -1.7766   -1.4987 H   0  0  0  0  0  0  0  0  0  0  0  0
   -0.4096    1.6950    0.6210 H   0  0  0  0  0  0  0  0  0  0  0  0
   -2.7362    0.8628    0.3488 H   0  0  0  0  0  0  0  0  0  0  0  0
    1.5447    0.3857   -0.2960 N   0  0  0  0  0  0  0  0  0  0  0  0
    2.4157    1.0697   -0.8249 N   0  0  0  0  0  0  0  0  0  0  0  0
    3.5573    1.0690   -0.0383 O   0  0  0  0  0  0  0  0  0  0  0  0
    4.1632    1.6293   -0.5492 H   0  0  0  0  0  0  0  0  0  0  0  0
   -3.5059   -1.3872   -0.8527 N   0  0  0  0  0  0  0  0  0  0  0  0
   -4.4154   -0.7027   -0.3711 O   0  0  0  0  0  0  0  0  0  0  0  0
   -3.6819   -2.4544   -1.4506 O   0  0  0  0  0  0  0  0  0  0  0  0
  1  2  2  0  0  0  0
  1  6  1  0  0  0  0
  2  3  1  0  0  0  0
  3 11  1  0  0  0  0
  3  4  2  0  0  0  0
  4  9  1  0  0  0  0
  5  4  1  0  0  0  0
  5 10  1  0  0  0  0
  6  5  2  0  0  0  0
  7  1  1  0  0  0  0
  8  2  1  0  0  0  0
 12 11  1  0  0  0  0
 12 13  1  0  0  0  0
 14 13  1  0  0  0  0
 15  6  1  0  0  0  0
 15 16  2  0  0  0  0
 17 15  2  0  0  0  0
M  RAD  2  11   2  12   2
M  END
