Coordinates from ORCA-job 4-NO2-Ph-N2-OH-B3LYPG-6-31G_dp-MTMO-d009-169-n900
 OpenBabel09051908013D

 17 17  0  0  0  0  0  0  0  0999 V2000
   -1.0158   -1.5176   -1.2524 C   0  0  0  0  0  0  0  0  0  0  0  0
    0.2363   -0.9561   -1.0468 C   0  0  0  0  0  0  0  0  0  0  0  0
    0.3608    0.2359   -0.3072 C   0  0  0  0  0  0  0  0  0  0  0  0
   -0.7820    0.8420    0.2364 C   0  0  0  0  0  0  0  0  0  0  0  0
   -2.0409    0.2888    0.0304 C   0  0  0  0  0  0  0  0  0  0  0  0
   -2.1382   -0.8851   -0.7133 C   0  0  0  0  0  0  0  0  0  0  0  0
   -1.1429   -2.4350   -1.8131 H   0  0  0  0  0  0  0  0  0  0  0  0
    1.1240   -1.4306   -1.4468 H   0  0  0  0  0  0  0  0  0  0  0  0
   -0.6581    1.7516    0.8135 H   0  0  0  0  0  0  0  0  0  0  0  0
   -2.9374    0.7409    0.4344 H   0  0  0  0  0  0  0  0  0  0  0  0
    1.5707    0.8786   -0.0271 N   0  0  0  0  0  0  0  0  0  0  0  0
    2.5230    0.5119   -0.7330 N   0  0  0  0  0  0  0  0  0  0  0  0
    3.6607    1.1906   -0.3365 O   0  0  0  0  0  0  0  0  0  0  0  0
    4.3308    0.8511   -0.9496 H   0  0  0  0  0  0  0  0  0  0  0  0
   -3.4643   -1.4834   -0.9306 N   0  0  0  0  0  0  0  0  0  0  0  0
   -4.4357   -0.9085   -0.4410 O   0  0  0  0  0  0  0  0  0  0  0  0
   -3.5201   -2.5208   -1.5904 O   0  0  0  0  0  0  0  0  0  0  0  0
  1  2  2  0  0  0  0
  1  6  1  0  0  0  0
  2  3  1  0  0  0  0
  3 11  1  0  0  0  0
  3  4  2  0  0  0  0
  4  9  1  0  0  0  0
  5  4  1  0  0  0  0
  5 10  1  0  0  0  0
  6  5  2  0  0  0  0
  7  1  1  0  0  0  0
  8  2  1  0  0  0  0
 12 13  1  0  0  0  0
 12 11  1  0  0  0  0
 14 13  1  0  0  0  0
 15  6  1  0  0  0  0
 15 16  2  0  0  0  0
 17 15  2  0  0  0  0
M  RAD  2  11   2  12   2
M  END
