Coordinates from ORCA-job 4-NO2-Ph-N2-OH-B3LYPG-6-31G_dp-MTMO-d009-169-n900
 OpenBabel09051908023D

 17 16  0  0  0  0  0  0  0  0999 V2000
    0.5886    0.7210    0.3596 C   0  0  0  0  0  0  0  0  0  0  0  0
    0.3982    1.1780    1.6547 C   0  0  0  0  0  0  0  0  0  0  0  0
   -0.7831    0.8571    2.3418 C   0  0  0  0  0  0  0  0  0  0  0  0
   -1.7710    0.0757    1.7233 C   0  0  0  0  0  0  0  0  0  0  0  0
   -1.5819   -0.3830    0.4259 C   0  0  0  0  0  0  0  0  0  0  0  0
   -0.4038   -0.0557   -0.2443 C   0  0  0  0  0  0  0  0  0  0  0  0
    1.4891    0.9531   -0.1952 H   0  0  0  0  0  0  0  0  0  0  0  0
    1.1471    1.7824    2.1543 H   0  0  0  0  0  0  0  0  0  0  0  0
   -2.6842   -0.1718    2.2591 H   0  0  0  0  0  0  0  0  0  0  0  0
   -2.3276   -0.9870   -0.0757 H   0  0  0  0  0  0  0  0  0  0  0  0
    0.1355   -4.2454  -11.4252 N   0  0  0  0  0  0  0  0  0  0  0  0
    0.5958   -4.9675  -10.7264 N   0  0  0  0  0  0  0  0  0  0  0  0
   -0.9133    1.3329    3.6056 O   0  0  0  0  0  0  0  0  0  0  0  0
   -1.7624    1.0533    3.9733 H   0  0  0  0  0  0  0  0  0  0  0  0
   -0.2042   -0.5369   -1.6106 N   0  0  0  0  0  0  0  0  0  0  0  0
   -1.0984   -1.2187   -2.1155 O   0  0  0  0  0  0  0  0  0  0  0  0
    0.8465   -0.2330   -2.1777 O   0  0  0  0  0  0  0  0  0  0  0  0
  1  2  1  0  0  0  0
  2  8  1  0  0  0  0
  2  3  2  0  0  0  0
  3 13  1  0  0  0  0
  4  9  1  0  0  0  0
  4  3  1  0  0  0  0
  5  4  2  0  0  0  0
  6  1  2  0  0  0  0
  6  5  1  0  0  0  0
  7  1  1  0  0  0  0
 10  5  1  0  0  0  0
 11 12  3  0  0  0  0
 13 14  1  0  0  0  0
 15  6  1  0  0  0  0
 16 15  2  0  0  0  0
 17 15  2  0  0  0  0
M  END
