Coordinates from ORCA-job 4-NO2-Ph-N2-OH-B3LYPG-6-31G_dp-MTMO-d009-169-n900
 OpenBabel09051908013D

 17 16  0  0  0  0  0  0  0  0999 V2000
    0.3790    0.0922   -0.5892 C   0  0  0  0  0  0  0  0  0  0  0  0
    0.5438    0.6354    0.6759 C   0  0  0  0  0  0  0  0  0  0  0  0
   -0.5073    0.5759    1.6049 C   0  0  0  0  0  0  0  0  0  0  0  0
   -1.7237   -0.0316    1.2573 C   0  0  0  0  0  0  0  0  0  0  0  0
   -1.8904   -0.5766   -0.0098 C   0  0  0  0  0  0  0  0  0  0  0  0
   -0.8376   -0.5097   -0.9217 C   0  0  0  0  0  0  0  0  0  0  0  0
    1.1725    0.1244   -1.3255 H   0  0  0  0  0  0  0  0  0  0  0  0
    1.4741    1.1097    0.9676 H   0  0  0  0  0  0  0  0  0  0  0  0
   -2.5362   -0.0779    1.9787 H   0  0  0  0  0  0  0  0  0  0  0  0
   -2.8178   -1.0515   -0.3039 H   0  0  0  0  0  0  0  0  0  0  0  0
    1.0744   -1.9783   -6.2317 N   0  0  0  0  0  0  0  0  0  0  0  0
    1.8748   -1.6106   -5.5643 N   0  0  0  0  0  0  0  0  0  0  0  0
   -0.2853    1.1245    2.8255 O   0  0  0  0  0  0  0  0  0  0  0  0
   -1.0738    1.0273    3.3759 H   0  0  0  0  0  0  0  0  0  0  0  0
   -1.0128   -1.0829   -2.2552 N   0  0  0  0  0  0  0  0  0  0  0  0
   -2.0963   -1.6089   -2.5162 O   0  0  0  0  0  0  0  0  0  0  0  0
   -0.0665   -1.0069   -3.0414 O   0  0  0  0  0  0  0  0  0  0  0  0
  1  2  1  0  0  0  0
  2  8  1  0  0  0  0
  2  3  2  0  0  0  0
  3 13  1  0  0  0  0
  4  3  1  0  0  0  0
  4  9  1  0  0  0  0
  5  4  2  0  0  0  0
  6  1  2  0  0  0  0
  6  5  1  0  0  0  0
  7  1  1  0  0  0  0
 10  5  1  0  0  0  0
 11 12  3  0  0  0  0
 13 14  1  0  0  0  0
 15  6  1  0  0  0  0
 16 15  2  0  0  0  0
 17 15  2  0  0  0  0
M  END
