Coordinates from ORCA-job 4-NO2-Ph-N2-OH-B3LYPG-6-31G_dp-MTMO-d009-169-n900
 OpenBabel09051908023D

 17 16  0  0  0  0  0  0  0  0999 V2000
    0.5890    0.7188    0.3539 C   0  0  0  0  0  0  0  0  0  0  0  0
    0.3987    1.1754    1.6492 C   0  0  0  0  0  0  0  0  0  0  0  0
   -0.7825    0.8544    2.3362 C   0  0  0  0  0  0  0  0  0  0  0  0
   -1.7705    0.0732    1.7175 C   0  0  0  0  0  0  0  0  0  0  0  0
   -1.5815   -0.3851    0.4200 C   0  0  0  0  0  0  0  0  0  0  0  0
   -0.4035   -0.0577   -0.2501 C   0  0  0  0  0  0  0  0  0  0  0  0
    1.4895    0.9511   -0.2008 H   0  0  0  0  0  0  0  0  0  0  0  0
    1.1477    1.7797    2.1489 H   0  0  0  0  0  0  0  0  0  0  0  0
   -2.6837   -0.1744    2.2533 H   0  0  0  0  0  0  0  0  0  0  0  0
   -2.3272   -0.9889   -0.0818 H   0  0  0  0  0  0  0  0  0  0  0  0
    0.1323   -4.2278  -11.3815 N   0  0  0  0  0  0  0  0  0  0  0  0
    0.5923   -4.9512  -10.6838 N   0  0  0  0  0  0  0  0  0  0  0  0
   -0.9127    1.3298    3.6002 O   0  0  0  0  0  0  0  0  0  0  0  0
   -1.7617    1.0502    3.9679 H   0  0  0  0  0  0  0  0  0  0  0  0
   -0.2039   -0.5384   -1.6166 N   0  0  0  0  0  0  0  0  0  0  0  0
   -1.0982   -1.2200   -2.1217 O   0  0  0  0  0  0  0  0  0  0  0  0
    0.8468   -0.2345   -2.1837 O   0  0  0  0  0  0  0  0  0  0  0  0
  1  2  1  0  0  0  0
  2  8  1  0  0  0  0
  2  3  2  0  0  0  0
  3 13  1  0  0  0  0
  4  9  1  0  0  0  0
  4  3  1  0  0  0  0
  5  4  2  0  0  0  0
  6  1  2  0  0  0  0
  6  5  1  0  0  0  0
  7  1  1  0  0  0  0
 10  5  1  0  0  0  0
 11 12  3  0  0  0  0
 13 14  1  0  0  0  0
 15  6  1  0  0  0  0
 16 15  2  0  0  0  0
 17 15  2  0  0  0  0
M  END
