Coordinates from ORCA-job 4-NO2-Ph-N2-OH-B3LYPG-6-31G_dp-MTMO-d009-169-n900
 OpenBabel09051908013D

 17 15  0  0  0  0  0  0  0  0999 V2000
   -0.9133   -1.0945   -1.0482 C   0  0  0  0  0  0  0  0  0  0  0  0
    0.0570   -0.1700   -0.6164 C   0  0  0  0  0  0  0  0  0  0  0  0
   -0.4445    0.8444    0.1292 C   0  0  0  0  0  0  0  0  0  0  0  0
   -1.7152    1.1314    0.5368 C   0  0  0  0  0  0  0  0  0  0  0  0
   -2.6675    0.1950    0.0950 C   0  0  0  0  0  0  0  0  0  0  0  0
   -2.2443   -0.8866   -0.6812 C   0  0  0  0  0  0  0  0  0  0  0  0
   -0.6453   -1.9539   -1.6525 H   0  0  0  0  0  0  0  0  0  0  0  0
    1.1144   -0.2791   -0.8718 H   0  0  0  0  0  0  0  0  0  0  0  0
   -1.9959    1.9884    1.1403 H   0  0  0  0  0  0  0  0  0  0  0  0
   -3.7168    0.3001    0.3471 H   0  0  0  0  0  0  0  0  0  0  0  0
    3.1616    1.6367    0.0055 N   0  0  0  0  0  0  0  0  0  0  0  0
    3.0881    0.6902   -0.5827 N   0  0  0  0  0  0  0  0  0  0  0  0
    4.7956   -0.0783   -1.3632 O   0  0  0  0  0  0  0  0  0  0  0  0
    4.3449   -0.8499   -1.7499 H   0  0  0  0  0  0  0  0  0  0  0  0
   -3.2570   -1.8582   -1.1371 N   0  0  0  0  0  0  0  0  0  0  0  0
   -4.4238   -1.6558   -0.8087 O   0  0  0  0  0  0  0  0  0  0  0  0
   -2.8671   -2.8055   -1.8154 O   0  0  0  0  0  0  0  0  0  0  0  0
  1  6  2  0  0  0  0
  1  2  1  0  0  0  0
  2  3  2  0  0  0  0
  3  4  1  0  0  0  0
  4  9  1  0  0  0  0
  5 10  1  0  0  0  0
  5  4  2  0  0  0  0
  6  5  1  0  0  0  0
  7  1  1  0  0  0  0
  8  2  1  0  0  0  0
 12 11  3  0  0  0  0
 14 13  1  0  0  0  0
 15 16  2  0  0  0  0
 15  6  1  0  0  0  0
 17 15  2  0  0  0  0
M  RAD  2   3   2  13   2
M  END
