Coordinates from ORCA-job 4-NO2-Ph-N2-OH-B3LYPG-6-31G_dp-MTMO-d009-169-n900
 OpenBabel09051908013D

 17 16  0  0  0  0  0  0  0  0999 V2000
    0.6107    0.6155    0.0821 C   0  0  0  0  0  0  0  0  0  0  0  0
    0.4245    1.0523    1.3848 C   0  0  0  0  0  0  0  0  0  0  0  0
   -0.7556    0.7229    2.0699 C   0  0  0  0  0  0  0  0  0  0  0  0
   -1.7466   -0.0468    1.4417 C   0  0  0  0  0  0  0  0  0  0  0  0
   -1.5617   -0.4852    0.1366 C   0  0  0  0  0  0  0  0  0  0  0  0
   -0.3848   -0.1497   -0.5313 C   0  0  0  0  0  0  0  0  0  0  0  0
    1.5103    0.8547   -0.4711 H   0  0  0  0  0  0  0  0  0  0  0  0
    1.1760    1.6473    1.8919 H   0  0  0  0  0  0  0  0  0  0  0  0
   -2.6589   -0.3011    1.9758 H   0  0  0  0  0  0  0  0  0  0  0  0
   -2.3098   -1.0798   -0.3725 H   0  0  0  0  0  0  0  0  0  0  0  0
   -0.0254   -3.3963   -9.2972 N   0  0  0  0  0  0  0  0  0  0  0  0
    0.4195   -4.1631   -8.6372 N   0  0  0  0  0  0  0  0  0  0  0  0
   -0.8815    1.1788    3.3414 O   0  0  0  0  0  0  0  0  0  0  0  0
   -1.7301    0.8952    3.7070 H   0  0  0  0  0  0  0  0  0  0  0  0
   -0.1896   -0.6096   -1.9055 N   0  0  0  0  0  0  0  0  0  0  0  0
   -1.0865   -1.2814   -2.4190 O   0  0  0  0  0  0  0  0  0  0  0  0
    0.8604   -0.2993   -2.4705 O   0  0  0  0  0  0  0  0  0  0  0  0
  1  2  1  0  0  0  0
  2  8  1  0  0  0  0
  2  3  2  0  0  0  0
  3 13  1  0  0  0  0
  4  9  1  0  0  0  0
  4  3  1  0  0  0  0
  5  4  2  0  0  0  0
  6  1  2  0  0  0  0
  6  5  1  0  0  0  0
  7  1  1  0  0  0  0
 10  5  1  0  0  0  0
 11 12  3  0  0  0  0
 13 14  1  0  0  0  0
 15  6  1  0  0  0  0
 16 15  2  0  0  0  0
 17 15  2  0  0  0  0
M  END
