Coordinates from ORCA-job 4-NO2-Ph-N2-OH-B3LYPG-6-31G_dp-MTMO-d009-169-n900
 OpenBabel09051908013D

 17 16  0  0  0  0  0  0  0  0999 V2000
    0.6180    0.5834   -0.0029 C   0  0  0  0  0  0  0  0  0  0  0  0
    0.4323    1.0137    1.3020 C   0  0  0  0  0  0  0  0  0  0  0  0
   -0.7477    0.6812    1.9858 C   0  0  0  0  0  0  0  0  0  0  0  0
   -1.7392   -0.0850    1.3540 C   0  0  0  0  0  0  0  0  0  0  0  0
   -1.5548   -0.5169    0.0467 C   0  0  0  0  0  0  0  0  0  0  0  0
   -0.3779   -0.1784   -0.6199 C   0  0  0  0  0  0  0  0  0  0  0  0
    1.5175    0.8250   -0.5552 H   0  0  0  0  0  0  0  0  0  0  0  0
    1.1841    1.6059    1.8119 H   0  0  0  0  0  0  0  0  0  0  0  0
   -2.6514   -0.3417    1.8871 H   0  0  0  0  0  0  0  0  0  0  0  0
   -2.3033   -1.1086   -0.4652 H   0  0  0  0  0  0  0  0  0  0  0  0
   -0.0781   -3.1364   -8.6410 N   0  0  0  0  0  0  0  0  0  0  0  0
    0.3633   -3.9134   -7.9905 N   0  0  0  0  0  0  0  0  0  0  0  0
   -0.8731    1.1308    3.2596 O   0  0  0  0  0  0  0  0  0  0  0  0
   -1.7217    0.8457    3.6240 H   0  0  0  0  0  0  0  0  0  0  0  0
   -0.1832   -0.6316   -1.9964 N   0  0  0  0  0  0  0  0  0  0  0  0
   -1.0806   -1.3004   -2.5130 O   0  0  0  0  0  0  0  0  0  0  0  0
    0.8668   -0.3189   -2.5601 O   0  0  0  0  0  0  0  0  0  0  0  0
  1  2  1  0  0  0  0
  2  8  1  0  0  0  0
  2  3  2  0  0  0  0
  3 13  1  0  0  0  0
  4  9  1  0  0  0  0
  4  3  1  0  0  0  0
  5  4  2  0  0  0  0
  6  1  2  0  0  0  0
  6  5  1  0  0  0  0
  7  1  1  0  0  0  0
 10  5  1  0  0  0  0
 11 12  3  0  0  0  0
 13 14  1  0  0  0  0
 15  6  1  0  0  0  0
 16 15  2  0  0  0  0
 17 15  2  0  0  0  0
M  END
