Coordinates from ORCA-job 4-NO2-Ph-N2-OH-B3LYPG-6-31G_dp-MTMO-d009-169-n900
 OpenBabel09051908013D

 17 16  0  0  0  0  0  0  0  0999 V2000
   -1.0574   -1.4447   -1.2445 C   0  0  0  0  0  0  0  0  0  0  0  0
    0.1422   -0.7623   -1.0075 C   0  0  0  0  0  0  0  0  0  0  0  0
    0.0399    0.3747   -0.2543 C   0  0  0  0  0  0  0  0  0  0  0  0
   -1.0819    0.9368    0.3007 C   0  0  0  0  0  0  0  0  0  0  0  0
   -2.2767    0.2455    0.0572 C   0  0  0  0  0  0  0  0  0  0  0  0
   -2.2365   -0.9235   -0.7063 C   0  0  0  0  0  0  0  0  0  0  0  0
   -1.0935   -2.3571   -1.8275 H   0  0  0  0  0  0  0  0  0  0  0  0
    1.1007   -1.1028   -1.3920 H   0  0  0  0  0  0  0  0  0  0  0  0
   -1.0580    1.8497    0.8846 H   0  0  0  0  0  0  0  0  0  0  0  0
   -3.2250    0.5965    0.4457 H   0  0  0  0  0  0  0  0  0  0  0  0
    2.1870    1.3963    0.0332 N   0  0  0  0  0  0  0  0  0  0  0  0
    2.8411    0.6118   -0.5804 N   0  0  0  0  0  0  0  0  0  0  0  0
    4.2487    0.9704   -0.5947 O   0  0  0  0  0  0  0  0  0  0  0  0
    4.6120    0.2397   -1.1197 H   0  0  0  0  0  0  0  0  0  0  0  0
   -3.4990   -1.6408   -0.9575 N   0  0  0  0  0  0  0  0  0  0  0  0
   -4.5278   -1.1679   -0.4778 O   0  0  0  0  0  0  0  0  0  0  0  0
   -3.4448   -2.6676   -1.6323 O   0  0  0  0  0  0  0  0  0  0  0  0
  1  2  2  0  0  0  0
  1  6  1  0  0  0  0
  2  3  1  0  0  0  0
  3  4  2  0  0  0  0
  4  9  1  0  0  0  0
  5  4  1  0  0  0  0
  5 10  1  0  0  0  0
  6  5  2  0  0  0  0
  7  1  1  0  0  0  0
  8  2  1  0  0  0  0
 12 11  1  0  0  0  0
 13 12  1  0  0  0  0
 14 13  1  0  0  0  0
 15  6  1  0  0  0  0
 15 16  2  0  0  0  0
 17 15  2  0  0  0  0
M  RAD  3   3   2  11   3  12   2
M  END
