Coordinates from ORCA-job 4-NO2-Ph-N2-OH-B3LYPG-6-31G_dp-MTMO-d009-169-n900
 OpenBabel09051908013D

 17 17  0  0  0  0  0  0  0  0999 V2000
   -1.0418   -1.4933   -1.2750 C   0  0  0  0  0  0  0  0  0  0  0  0
    0.1978   -0.8825   -1.0879 C   0  0  0  0  0  0  0  0  0  0  0  0
    0.2305    0.2825   -0.3416 C   0  0  0  0  0  0  0  0  0  0  0  0
   -0.8770    0.8815    0.2309 C   0  0  0  0  0  0  0  0  0  0  0  0
   -2.1170    0.2695    0.0429 C   0  0  0  0  0  0  0  0  0  0  0  0
   -2.1735   -0.9056   -0.7066 C   0  0  0  0  0  0  0  0  0  0  0  0
   -1.1478   -2.4075   -1.8454 H   0  0  0  0  0  0  0  0  0  0  0  0
    1.1083   -1.2949   -1.5066 H   0  0  0  0  0  0  0  0  0  0  0  0
   -0.7724    1.7966    0.8022 H   0  0  0  0  0  0  0  0  0  0  0  0
   -3.0277    0.6803    0.4597 H   0  0  0  0  0  0  0  0  0  0  0  0
    1.7637    1.1537   -0.0351 N   0  0  0  0  0  0  0  0  0  0  0  0
    2.6357    0.5178   -0.6124 N   0  0  0  0  0  0  0  0  0  0  0  0
    3.8728    1.1486   -0.4130 O   0  0  0  0  0  0  0  0  0  0  0  0
    4.4738    0.5689   -0.9055 H   0  0  0  0  0  0  0  0  0  0  0  0
   -3.4814   -1.5536   -0.9079 N   0  0  0  0  0  0  0  0  0  0  0  0
   -4.4650   -1.0210   -0.3967 O   0  0  0  0  0  0  0  0  0  0  0  0
   -3.5081   -2.5865   -1.5752 O   0  0  0  0  0  0  0  0  0  0  0  0
  1  2  2  0  0  0  0
  1  6  1  0  0  0  0
  2  3  1  0  0  0  0
  3 11  1  0  0  0  0
  3  4  2  0  0  0  0
  4  9  1  0  0  0  0
  5  4  1  0  0  0  0
  5 10  1  0  0  0  0
  6  5  2  0  0  0  0
  7  1  1  0  0  0  0
  8  2  1  0  0  0  0
 12 13  1  0  0  0  0
 12 11  1  0  0  0  0
 14 13  1  0  0  0  0
 15  6  1  0  0  0  0
 15 16  2  0  0  0  0
 17 15  2  0  0  0  0
M  RAD  2  11   2  12   2
M  END
