Coordinates from ORCA-job 4-NO2-Ph-N2-OH-B3LYPG-6-31G_dp-MTMO-d009-169-n900
 OpenBabel09051908013D

 17 16  0  0  0  0  0  0  0  0999 V2000
   -0.6463   -0.7164   -1.4632 C   0  0  0  0  0  0  0  0  0  0  0  0
    0.3632   -0.0546   -0.7803 C   0  0  0  0  0  0  0  0  0  0  0  0
    0.1346    0.4060    0.5259 C   0  0  0  0  0  0  0  0  0  0  0  0
   -1.1086    0.1985    1.1427 C   0  0  0  0  0  0  0  0  0  0  0  0
   -2.1203   -0.4646    0.4594 C   0  0  0  0  0  0  0  0  0  0  0  0
   -1.8797   -0.9158   -0.8377 C   0  0  0  0  0  0  0  0  0  0  0  0
   -0.4995   -1.0817   -2.4716 H   0  0  0  0  0  0  0  0  0  0  0  0
    1.3312    0.1173   -1.2376 H   0  0  0  0  0  0  0  0  0  0  0  0
   -1.2814    0.5564    2.1544 H   0  0  0  0  0  0  0  0  0  0  0  0
   -3.0892   -0.6385    0.9104 H   0  0  0  0  0  0  0  0  0  0  0  0
    4.5177    0.4685   -3.4777 N   0  0  0  0  0  0  0  0  0  0  0  0
    3.5753    0.2915   -2.9285 N   0  0  0  0  0  0  0  0  0  0  0  0
    1.1581    1.0483    1.1440 O   0  0  0  0  0  0  0  0  0  0  0  0
    0.8836    1.3230    2.0291 H   0  0  0  0  0  0  0  0  0  0  0  0
   -2.9439   -1.6123   -1.5587 N   0  0  0  0  0  0  0  0  0  0  0  0
   -4.0218   -1.7689   -0.9814 O   0  0  0  0  0  0  0  0  0  0  0  0
   -2.7020   -2.0024   -2.7023 O   0  0  0  0  0  0  0  0  0  0  0  0
  1  6  2  0  0  0  0
  1  2  1  0  0  0  0
  2  3  2  0  0  0  0
  3  4  1  0  0  0  0
  3 13  1  0  0  0  0
  4  9  1  0  0  0  0
  5 10  1  0  0  0  0
  5  4  2  0  0  0  0
  6  5  1  0  0  0  0
  7  1  1  0  0  0  0
  8  2  1  0  0  0  0
 11 12  3  0  0  0  0
 13 14  1  0  0  0  0
 15 16  2  0  0  0  0
 15  6  1  0  0  0  0
 17 15  2  0  0  0  0
M  END
