Coordinates from ORCA-job 4-NO2-Ph-N2-OH-B3LYPG-6-31G_dp-MTMO-d009-169-n900
 OpenBabel09051908013D

 17 16  0  0  0  0  0  0  0  0999 V2000
    0.6144    0.5991    0.0386 C   0  0  0  0  0  0  0  0  0  0  0  0
    0.4285    1.0325    1.3425 C   0  0  0  0  0  0  0  0  0  0  0  0
   -0.7515    0.7016    2.0269 C   0  0  0  0  0  0  0  0  0  0  0  0
   -1.7428   -0.0663    1.3969 C   0  0  0  0  0  0  0  0  0  0  0  0
   -1.5583   -0.5014    0.0907 C   0  0  0  0  0  0  0  0  0  0  0  0
   -0.3814   -0.1643   -0.5766 C   0  0  0  0  0  0  0  0  0  0  0  0
    1.5139    0.8394   -0.5142 H   0  0  0  0  0  0  0  0  0  0  0  0
    1.1802    1.6260    1.8510 H   0  0  0  0  0  0  0  0  0  0  0  0
   -2.6550   -0.3218    1.9306 H   0  0  0  0  0  0  0  0  0  0  0  0
   -2.3066   -1.0945   -0.4198 H   0  0  0  0  0  0  0  0  0  0  0  0
   -0.0521   -3.2634   -8.9618 N   0  0  0  0  0  0  0  0  0  0  0  0
    0.3910   -4.0354   -8.3066 N   0  0  0  0  0  0  0  0  0  0  0  0
   -0.8770    1.1543    3.2996 O   0  0  0  0  0  0  0  0  0  0  0  0
   -1.7256    0.8699    3.6647 H   0  0  0  0  0  0  0  0  0  0  0  0
   -0.1865   -0.6209   -1.9520 N   0  0  0  0  0  0  0  0  0  0  0  0
   -1.0838   -1.2911   -2.4670 O   0  0  0  0  0  0  0  0  0  0  0  0
    0.8634   -0.3093   -2.5164 O   0  0  0  0  0  0  0  0  0  0  0  0
  1  2  1  0  0  0  0
  2  8  1  0  0  0  0
  2  3  2  0  0  0  0
  3 13  1  0  0  0  0
  4  9  1  0  0  0  0
  4  3  1  0  0  0  0
  5  4  2  0  0  0  0
  6  1  2  0  0  0  0
  6  5  1  0  0  0  0
  7  1  1  0  0  0  0
 10  5  1  0  0  0  0
 11 12  3  0  0  0  0
 13 14  1  0  0  0  0
 15  6  1  0  0  0  0
 16 15  2  0  0  0  0
 17 15  2  0  0  0  0
M  END
