Coordinates from ORCA-job 4-NO2-Ph-N2-OH-B3LYPG-6-31G_dp-MTMO-d009-169-n900
 OpenBabel09051908013D

 17 16  0  0  0  0  0  0  0  0999 V2000
   -0.5630   -0.5791   -1.2153 C   0  0  0  0  0  0  0  0  0  0  0  0
    0.3180    0.0945   -0.3824 C   0  0  0  0  0  0  0  0  0  0  0  0
   -0.0910    0.4753    0.9054 C   0  0  0  0  0  0  0  0  0  0  0  0
   -1.3872    0.1771    1.3529 C   0  0  0  0  0  0  0  0  0  0  0  0
   -2.2710   -0.4977    0.5197 C   0  0  0  0  0  0  0  0  0  0  0  0
   -1.8507   -0.8697   -0.7569 C   0  0  0  0  0  0  0  0  0  0  0  0
   -0.2751   -0.8849   -2.2130 H   0  0  0  0  0  0  0  0  0  0  0  0
    1.3239    0.3369   -0.7060 H   0  0  0  0  0  0  0  0  0  0  0  0
   -1.7008    0.4741    2.3503 H   0  0  0  0  0  0  0  0  0  0  0  0
   -3.2763   -0.7407    0.8392 H   0  0  0  0  0  0  0  0  0  0  0  0
    4.9928   -0.0327   -5.1129 N   0  0  0  0  0  0  0  0  0  0  0  0
    4.2831    0.0211   -4.2672 N   0  0  0  0  0  0  0  0  0  0  0  0
    0.8148    1.1320    1.6734 O   0  0  0  0  0  0  0  0  0  0  0  0
    0.4232    1.3449    2.5310 H   0  0  0  0  0  0  0  0  0  0  0  0
   -2.7801   -1.5797   -1.6343 N   0  0  0  0  0  0  0  0  0  0  0  0
   -3.9088   -1.8193   -1.2011 O   0  0  0  0  0  0  0  0  0  0  0  0
   -2.3808   -1.8974   -2.7560 O   0  0  0  0  0  0  0  0  0  0  0  0
  1  6  2  0  0  0  0
  1  2  1  0  0  0  0
  2  3  2  0  0  0  0
  3  4  1  0  0  0  0
  3 13  1  0  0  0  0
  4  9  1  0  0  0  0
  5 10  1  0  0  0  0
  5  4  2  0  0  0  0
  6  5  1  0  0  0  0
  7  1  1  0  0  0  0
  8  2  1  0  0  0  0
 11 12  3  0  0  0  0
 13 14  1  0  0  0  0
 15 16  2  0  0  0  0
 15  6  1  0  0  0  0
 17 15  2  0  0  0  0
M  END
