Coordinates from ORCA-job 4-NO2-Ph-N2-OH-B3LYPG-6-31G_dp-MTMO-d009-169-n900
 OpenBabel09051908013D

 17 16  0  0  0  0  0  0  0  0999 V2000
   -0.9477   -1.2392   -1.1324 C   0  0  0  0  0  0  0  0  0  0  0  0
    0.1160   -0.3971   -0.7706 C   0  0  0  0  0  0  0  0  0  0  0  0
   -0.2276    0.6771   -0.0162 C   0  0  0  0  0  0  0  0  0  0  0  0
   -1.4518    1.0729    0.4515 C   0  0  0  0  0  0  0  0  0  0  0  0
   -2.5078    0.2224    0.0838 C   0  0  0  0  0  0  0  0  0  0  0  0
   -2.2319   -0.9050   -0.6943 C   0  0  0  0  0  0  0  0  0  0  0  0
   -0.7987   -2.1290   -1.7331 H   0  0  0  0  0  0  0  0  0  0  0  0
    1.1513   -0.5912   -1.0749 H   0  0  0  0  0  0  0  0  0  0  0  0
   -1.6206    1.9600    1.0527 H   0  0  0  0  0  0  0  0  0  0  0  0
   -3.5274    0.4237    0.3915 H   0  0  0  0  0  0  0  0  0  0  0  0
    2.7723    1.5505    0.0227 N   0  0  0  0  0  0  0  0  0  0  0  0
    3.0114    0.6126   -0.6126 N   0  0  0  0  0  0  0  0  0  0  0  0
    4.4802    0.3784   -1.0158 O   0  0  0  0  0  0  0  0  0  0  0  0
    4.3753   -0.4511   -1.5111 H   0  0  0  0  0  0  0  0  0  0  0  0
   -3.3525   -1.7841   -1.0735 N   0  0  0  0  0  0  0  0  0  0  0  0
   -4.4765   -1.4748   -0.6823 O   0  0  0  0  0  0  0  0  0  0  0  0
   -3.0932   -2.7718   -1.7585 O   0  0  0  0  0  0  0  0  0  0  0  0
  1  2  2  0  0  0  0
  1  6  1  0  0  0  0
  2  3  1  0  0  0  0
  3  4  2  0  0  0  0
  4  9  1  0  0  0  0
  5 10  1  0  0  0  0
  5  4  1  0  0  0  0
  6  5  2  0  0  0  0
  7  1  1  0  0  0  0
  8  2  1  0  0  0  0
 12 11  2  0  0  0  0
 13 12  1  0  0  0  0
 14 13  1  0  0  0  0
 15  6  1  0  0  0  0
 15 16  2  0  0  0  0
 17 15  2  0  0  0  0
M  RAD  2   3   2  11   2
M  END
