Coordinates from ORCA-job 4-NO2-Ph-N2-OH-B3LYPG-6-31G_dp-MTMO-d009-169-n900
 OpenBabel09051908013D

 17 16  0  0  0  0  0  0  0  0999 V2000
    0.6059    0.6378    0.1409 C   0  0  0  0  0  0  0  0  0  0  0  0
    0.4190    1.0790    1.4420 C   0  0  0  0  0  0  0  0  0  0  0  0
   -0.7613    0.7516    2.1278 C   0  0  0  0  0  0  0  0  0  0  0  0
   -1.7518   -0.0206    1.5018 C   0  0  0  0  0  0  0  0  0  0  0  0
   -1.5662   -0.4635    0.1984 C   0  0  0  0  0  0  0  0  0  0  0  0
   -0.3891   -0.1299   -0.4702 C   0  0  0  0  0  0  0  0  0  0  0  0
    1.5056    0.8753   -0.4128 H   0  0  0  0  0  0  0  0  0  0  0  0
    1.1700    1.6761    1.9474 H   0  0  0  0  0  0  0  0  0  0  0  0
   -2.6641   -0.2733    2.0365 H   0  0  0  0  0  0  0  0  0  0  0  0
   -2.3139   -1.0601   -0.3090 H   0  0  0  0  0  0  0  0  0  0  0  0
    0.0098   -3.5755   -9.7492 N   0  0  0  0  0  0  0  0  0  0  0  0
    0.4574   -4.3351   -9.0826 N   0  0  0  0  0  0  0  0  0  0  0  0
   -0.8879    1.2119    3.3976 O   0  0  0  0  0  0  0  0  0  0  0  0
   -1.7366    0.9293    3.7638 H   0  0  0  0  0  0  0  0  0  0  0  0
   -0.1932   -0.5945   -1.8428 N   0  0  0  0  0  0  0  0  0  0  0  0
   -1.0896   -1.2684   -2.3542 O   0  0  0  0  0  0  0  0  0  0  0  0
    0.8569   -0.2857   -2.4084 O   0  0  0  0  0  0  0  0  0  0  0  0
  1  2  1  0  0  0  0
  2  8  1  0  0  0  0
  2  3  2  0  0  0  0
  3 13  1  0  0  0  0
  4  9  1  0  0  0  0
  4  3  1  0  0  0  0
  5  4  2  0  0  0  0
  6  1  2  0  0  0  0
  6  5  1  0  0  0  0
  7  1  1  0  0  0  0
 10  5  1  0  0  0  0
 11 12  3  0  0  0  0
 13 14  1  0  0  0  0
 15  6  1  0  0  0  0
 16 15  2  0  0  0  0
 17 15  2  0  0  0  0
M  END
