Coordinates from ORCA-job 4-NO2-Ph-N2-OH-B3LYPG-6-31G_dp-MTMO-d009-169-n900
 OpenBabel09051908013D

 17 16  0  0  0  0  0  0  0  0999 V2000
    0.6076    0.6299    0.1201 C   0  0  0  0  0  0  0  0  0  0  0  0
    0.4210    1.0695    1.4217 C   0  0  0  0  0  0  0  0  0  0  0  0
   -0.7592    0.7414    2.1072 C   0  0  0  0  0  0  0  0  0  0  0  0
   -1.7499   -0.0299    1.4805 C   0  0  0  0  0  0  0  0  0  0  0  0
   -1.5646   -0.4712    0.1765 C   0  0  0  0  0  0  0  0  0  0  0  0
   -0.3876   -0.1369   -0.4919 C   0  0  0  0  0  0  0  0  0  0  0  0
    1.5072    0.8680   -0.4335 H   0  0  0  0  0  0  0  0  0  0  0  0
    1.1721    1.6659    1.9277 H   0  0  0  0  0  0  0  0  0  0  0  0
   -2.6623   -0.2832    2.0150 H   0  0  0  0  0  0  0  0  0  0  0  0
   -2.3125   -1.0671   -0.3315 H   0  0  0  0  0  0  0  0  0  0  0  0
   -0.0026   -3.5118   -9.5889 N   0  0  0  0  0  0  0  0  0  0  0  0
    0.4440   -4.2741   -8.9246 N   0  0  0  0  0  0  0  0  0  0  0  0
   -0.8856    1.2002    3.3777 O   0  0  0  0  0  0  0  0  0  0  0  0
   -1.7342    0.9172    3.7436 H   0  0  0  0  0  0  0  0  0  0  0  0
   -0.1919   -0.5999   -1.8650 N   0  0  0  0  0  0  0  0  0  0  0  0
   -1.0886   -1.2730   -2.3772 O   0  0  0  0  0  0  0  0  0  0  0  0
    0.8581   -0.2905   -2.4304 O   0  0  0  0  0  0  0  0  0  0  0  0
  1  2  1  0  0  0  0
  2  8  1  0  0  0  0
  2  3  2  0  0  0  0
  3 13  1  0  0  0  0
  4  9  1  0  0  0  0
  4  3  1  0  0  0  0
  5  4  2  0  0  0  0
  6  1  2  0  0  0  0
  6  5  1  0  0  0  0
  7  1  1  0  0  0  0
 10  5  1  0  0  0  0
 11 12  3  0  0  0  0
 13 14  1  0  0  0  0
 15  6  1  0  0  0  0
 16 15  2  0  0  0  0
 17 15  2  0  0  0  0
M  END
