Coordinates from ORCA-job 4-NO2-Ph-N2-OH-B3LYPG-6-31G_dp-MTMO-d009-169-n900
 OpenBabel09051908013D

 17 17  0  0  0  0  0  0  0  0999 V2000
   -1.0281   -1.4983   -1.2756 C   0  0  0  0  0  0  0  0  0  0  0  0
    0.2168   -0.9052   -1.0954 C   0  0  0  0  0  0  0  0  0  0  0  0
    0.3012    0.2730   -0.3510 C   0  0  0  0  0  0  0  0  0  0  0  0
   -0.8225    0.8683    0.2171 C   0  0  0  0  0  0  0  0  0  0  0  0
   -2.0717    0.2786    0.0392 C   0  0  0  0  0  0  0  0  0  0  0  0
   -2.1517   -0.8964   -0.7057 C   0  0  0  0  0  0  0  0  0  0  0  0
   -1.1467   -2.4128   -1.8428 H   0  0  0  0  0  0  0  0  0  0  0  0
    1.1112   -1.3425   -1.5218 H   0  0  0  0  0  0  0  0  0  0  0  0
   -0.7051    1.7830    0.7868 H   0  0  0  0  0  0  0  0  0  0  0  0
   -2.9723    0.7060    0.4608 H   0  0  0  0  0  0  0  0  0  0  0  0
    1.6327    1.0340   -0.0734 N   0  0  0  0  0  0  0  0  0  0  0  0
    2.5768    0.4785   -0.6407 N   0  0  0  0  0  0  0  0  0  0  0  0
    3.7431    1.1827   -0.3683 O   0  0  0  0  0  0  0  0  0  0  0  0
    4.4098    0.6731   -0.8538 H   0  0  0  0  0  0  0  0  0  0  0  0
   -3.4682   -1.5267   -0.8993 N   0  0  0  0  0  0  0  0  0  0  0  0
   -4.4425   -0.9798   -0.3847 O   0  0  0  0  0  0  0  0  0  0  0  0
   -3.5121   -2.5608   -1.5645 O   0  0  0  0  0  0  0  0  0  0  0  0
  1  2  2  0  0  0  0
  1  6  1  0  0  0  0
  2  3  1  0  0  0  0
  3 11  1  0  0  0  0
  3  4  2  0  0  0  0
  4  9  1  0  0  0  0
  5  4  1  0  0  0  0
  5 10  1  0  0  0  0
  6  5  2  0  0  0  0
  7  1  1  0  0  0  0
  8  2  1  0  0  0  0
 12 13  1  0  0  0  0
 12 11  1  0  0  0  0
 14 13  1  0  0  0  0
 15  6  1  0  0  0  0
 15 16  2  0  0  0  0
 17 15  2  0  0  0  0
M  RAD  2  11   2  12   2
M  END
