Coordinates from ORCA-job 4-NO2-Ph-N2-OH-B3LYPG-6-31G_dp-MTMO-d009-169-n900
 OpenBabel09051908013D

 17 16  0  0  0  0  0  0  0  0999 V2000
   -0.5392   -0.6204   -1.3400 C   0  0  0  0  0  0  0  0  0  0  0  0
    0.3877    0.0507   -0.5566 C   0  0  0  0  0  0  0  0  0  0  0  0
    0.0398    0.4582    0.7411 C   0  0  0  0  0  0  0  0  0  0  0  0
   -1.2407    0.1890    1.2482 C   0  0  0  0  0  0  0  0  0  0  0  0
   -2.1702   -0.4834    0.4643 C   0  0  0  0  0  0  0  0  0  0  0  0
   -1.8108   -0.8818   -0.8228 C   0  0  0  0  0  0  0  0  0  0  0  0
   -0.2994   -0.9464   -2.3439 H   0  0  0  0  0  0  0  0  0  0  0  0
    1.3825    0.2700   -0.9283 H   0  0  0  0  0  0  0  0  0  0  0  0
   -1.5064    0.5067    2.2531 H   0  0  0  0  0  0  0  0  0  0  0  0
   -3.1650   -0.7046    0.8294 H   0  0  0  0  0  0  0  0  0  0  0  0
    4.4254    0.0742   -4.3122 N   0  0  0  0  0  0  0  0  0  0  0  0
    3.6769    0.1061   -3.4995 N   0  0  0  0  0  0  0  0  0  0  0  0
    0.9878    1.1116    1.4595 O   0  0  0  0  0  0  0  0  0  0  0  0
    0.6356    1.3458    2.3285 H   0  0  0  0  0  0  0  0  0  0  0  0
   -2.7884   -1.5888   -1.6486 N   0  0  0  0  0  0  0  0  0  0  0  0
   -3.9018   -1.8018   -1.1645 O   0  0  0  0  0  0  0  0  0  0  0  0
   -2.4429   -1.9308   -2.7809 O   0  0  0  0  0  0  0  0  0  0  0  0
  1  6  2  0  0  0  0
  1  2  1  0  0  0  0
  2  3  2  0  0  0  0
  3  4  1  0  0  0  0
  3 13  1  0  0  0  0
  4  9  1  0  0  0  0
  5 10  1  0  0  0  0
  5  4  2  0  0  0  0
  6  5  1  0  0  0  0
  7  1  1  0  0  0  0
  8  2  1  0  0  0  0
 11 12  3  0  0  0  0
 13 14  1  0  0  0  0
 15 16  2  0  0  0  0
 15  6  1  0  0  0  0
 17 15  2  0  0  0  0
M  END
