Coordinates from ORCA-job 4-NO2-Ph-N2-OH-B3LYPG-6-31G_dp-MTMO-d009-169-n900
 OpenBabel09051908013D

 17 16  0  0  0  0  0  0  0  0999 V2000
    0.6290    0.5392   -0.1204 C   0  0  0  0  0  0  0  0  0  0  0  0
    0.4422    0.9608    1.1872 C   0  0  0  0  0  0  0  0  0  0  0  0
   -0.7382    0.6235    1.8680 C   0  0  0  0  0  0  0  0  0  0  0  0
   -1.7289   -0.1388    1.2303 C   0  0  0  0  0  0  0  0  0  0  0  0
   -1.5435   -0.5620   -0.0796 C   0  0  0  0  0  0  0  0  0  0  0  0
   -0.3663   -0.2188   -0.7432 C   0  0  0  0  0  0  0  0  0  0  0  0
    1.5289    0.7847   -0.6704 H   0  0  0  0  0  0  0  0  0  0  0  0
    1.1935    1.5498    1.7015 H   0  0  0  0  0  0  0  0  0  0  0  0
   -2.6414   -0.3993    1.7610 H   0  0  0  0  0  0  0  0  0  0  0  0
   -2.2914   -1.1506   -0.5960 H   0  0  0  0  0  0  0  0  0  0  0  0
   -0.1579   -2.7719   -7.7225 N   0  0  0  0  0  0  0  0  0  0  0  0
    0.2800   -3.5656   -7.0902 N   0  0  0  0  0  0  0  0  0  0  0  0
   -0.8645    1.0647    3.1446 O   0  0  0  0  0  0  0  0  0  0  0  0
   -1.7132    0.7769    3.5066 H   0  0  0  0  0  0  0  0  0  0  0  0
   -0.1703   -0.6630   -2.1224 N   0  0  0  0  0  0  0  0  0  0  0  0
   -1.0672   -1.3285   -2.6442 O   0  0  0  0  0  0  0  0  0  0  0  0
    0.8801   -0.3466   -2.6833 O   0  0  0  0  0  0  0  0  0  0  0  0
  1  2  1  0  0  0  0
  2  8  1  0  0  0  0
  2  3  2  0  0  0  0
  3 13  1  0  0  0  0
  4  9  1  0  0  0  0
  4  3  1  0  0  0  0
  5  4  2  0  0  0  0
  6  1  2  0  0  0  0
  6  5  1  0  0  0  0
  7  1  1  0  0  0  0
 10  5  1  0  0  0  0
 11 12  3  0  0  0  0
 13 14  1  0  0  0  0
 15  6  1  0  0  0  0
 16 15  2  0  0  0  0
 17 15  2  0  0  0  0
M  END
