Coordinates from ORCA-job 4-NO2-Ph-N2-OH-B3LYPG-6-31G_dp-MTMO-d009-169-n900
 OpenBabel09051908013D

 17 16  0  0  0  0  0  0  0  0999 V2000
   -0.7689   -0.7929   -1.5464 C   0  0  0  0  0  0  0  0  0  0  0  0
    0.3043   -0.1424   -0.9560 C   0  0  0  0  0  0  0  0  0  0  0  0
    0.1829    0.3563    0.3506 C   0  0  0  0  0  0  0  0  0  0  0  0
   -1.0170    0.1986    1.0607 C   0  0  0  0  0  0  0  0  0  0  0  0
   -2.0926   -0.4529    0.4699 C   0  0  0  0  0  0  0  0  0  0  0  0
   -1.9585   -0.9426   -0.8287 C   0  0  0  0  0  0  0  0  0  0  0  0
   -0.7063   -1.1873   -2.5525 H   0  0  0  0  0  0  0  0  0  0  0  0
    1.2413   -0.0080   -1.4848 H   0  0  0  0  0  0  0  0  0  0  0  0
   -1.1058    0.5858    2.0724 H   0  0  0  0  0  0  0  0  0  0  0  0
   -3.0301   -0.5884    0.9947 H   0  0  0  0  0  0  0  0  0  0  0  0
    4.7457    0.8085   -2.7995 N   0  0  0  0  0  0  0  0  0  0  0  0
    3.7055    0.4655   -2.6535 N   0  0  0  0  0  0  0  0  0  0  0  0
    1.2649    0.9851    0.8765 O   0  0  0  0  0  0  0  0  0  0  0  0
    1.0629    1.2872    1.7721 H   0  0  0  0  0  0  0  0  0  0  0  0
   -3.0898   -1.6270   -1.4529 N   0  0  0  0  0  0  0  0  0  0  0  0
   -4.1270   -1.7384   -0.7961 O   0  0  0  0  0  0  0  0  0  0  0  0
   -2.9408   -2.0525   -2.5997 O   0  0  0  0  0  0  0  0  0  0  0  0
  1  2  2  0  0  0  0
  1  6  1  0  0  0  0
  2  3  1  0  0  0  0
  3 13  1  0  0  0  0
  3  4  2  0  0  0  0
  4  9  1  0  0  0  0
  5 10  1  0  0  0  0
  5  4  1  0  0  0  0
  6  5  2  0  0  0  0
  7  1  1  0  0  0  0
  8  2  1  0  0  0  0
 11 12  3  0  0  0  0
 13 14  1  0  0  0  0
 15  6  1  0  0  0  0
 15 16  2  0  0  0  0
 17 15  2  0  0  0  0
M  END
