Coordinates from ORCA-job 4-NO2-Ph-N2-OH-B3LYPG-6-31G_dp-MTMO-d009-169-n900
 OpenBabel09051908013D

 17 17  0  0  0  0  0  0  0  0999 V2000
   -1.0333   -1.4964   -1.2759 C   0  0  0  0  0  0  0  0  0  0  0  0
    0.2099   -0.8965   -1.0937 C   0  0  0  0  0  0  0  0  0  0  0  0
    0.2738    0.2762   -0.3485 C   0  0  0  0  0  0  0  0  0  0  0  0
   -0.8426    0.8733    0.2217 C   0  0  0  0  0  0  0  0  0  0  0  0
   -2.0884    0.2751    0.0407 C   0  0  0  0  0  0  0  0  0  0  0  0
   -2.1596   -0.9000   -0.7060 C   0  0  0  0  0  0  0  0  0  0  0  0
   -1.1474   -2.4108   -1.8443 H   0  0  0  0  0  0  0  0  0  0  0  0
    1.1105   -1.3239   -1.5175 H   0  0  0  0  0  0  0  0  0  0  0  0
   -0.7293    1.7883    0.7918 H   0  0  0  0  0  0  0  0  0  0  0  0
   -2.9928    0.6961    0.4607 H   0  0  0  0  0  0  0  0  0  0  0  0
    1.6809    1.0823   -0.0581 N   0  0  0  0  0  0  0  0  0  0  0  0
    2.5977    0.4927   -0.6280 N   0  0  0  0  0  0  0  0  0  0  0  0
    3.7917    1.1701   -0.3854 O   0  0  0  0  0  0  0  0  0  0  0  0
    4.4341    0.6315   -0.8722 H   0  0  0  0  0  0  0  0  0  0  0  0
   -3.4730   -1.5371   -0.9020 N   0  0  0  0  0  0  0  0  0  0  0  0
   -4.4506   -0.9957   -0.3883 O   0  0  0  0  0  0  0  0  0  0  0  0
   -3.5106   -2.5708   -1.5680 O   0  0  0  0  0  0  0  0  0  0  0  0
  1  2  2  0  0  0  0
  1  6  1  0  0  0  0
  2  3  1  0  0  0  0
  3 11  1  0  0  0  0
  3  4  2  0  0  0  0
  4  9  1  0  0  0  0
  5  4  1  0  0  0  0
  5 10  1  0  0  0  0
  6  5  2  0  0  0  0
  7  1  1  0  0  0  0
  8  2  1  0  0  0  0
 12 13  1  0  0  0  0
 12 11  1  0  0  0  0
 14 13  1  0  0  0  0
 15  6  1  0  0  0  0
 15 16  2  0  0  0  0
 17 15  2  0  0  0  0
M  RAD  2  11   2  12   2
M  END
