Coordinates from ORCA-job 4-NO2-Ph-N2-OH-B3LYPG-6-31G_dp-MTMO-d009-169-n900
 OpenBabel09051908013D

 17 16  0  0  0  0  0  0  0  0999 V2000
    0.6011    0.4248   -0.2931 C   0  0  0  0  0  0  0  0  0  0  0  0
    0.4898    0.8493    1.0224 C   0  0  0  0  0  0  0  0  0  0  0  0
   -0.6739    0.5625    1.7536 C   0  0  0  0  0  0  0  0  0  0  0  0
   -1.7237   -0.1531    1.1571 C   0  0  0  0  0  0  0  0  0  0  0  0
   -1.6139   -0.5793   -0.1607 C   0  0  0  0  0  0  0  0  0  0  0  0
   -0.4524   -0.2861   -0.8744 C   0  0  0  0  0  0  0  0  0  0  0  0
    1.4864    0.6324   -0.8811 H   0  0  0  0  0  0  0  0  0  0  0  0
    1.2883    1.4027    1.5042 H   0  0  0  0  0  0  0  0  0  0  0  0
   -2.6231   -0.3753    1.7264 H   0  0  0  0  0  0  0  0  0  0  0  0
   -2.4091   -1.1325   -0.6445 H   0  0  0  0  0  0  0  0  0  0  0  0
    0.1793   -2.5716   -7.0182 N   0  0  0  0  0  0  0  0  0  0  0  0
    0.3358   -2.8289   -5.9546 N   0  0  0  0  0  0  0  0  0  0  0  0
   -0.7258    1.0037    3.0353 O   0  0  0  0  0  0  0  0  0  0  0  0
   -1.5698    0.7510    3.4330 H   0  0  0  0  0  0  0  0  0  0  0  0
   -0.3362   -0.7320   -2.2628 N   0  0  0  0  0  0  0  0  0  0  0  0
   -1.2832   -1.3544   -2.7476 O   0  0  0  0  0  0  0  0  0  0  0  0
    0.7016   -0.4586   -2.8681 O   0  0  0  0  0  0  0  0  0  0  0  0
  1  2  1  0  0  0  0
  2  8  1  0  0  0  0
  2  3  2  0  0  0  0
  3 13  1  0  0  0  0
  4  9  1  0  0  0  0
  4  3  1  0  0  0  0
  5  4  2  0  0  0  0
  6  1  2  0  0  0  0
  6  5  1  0  0  0  0
  7  1  1  0  0  0  0
 10  5  1  0  0  0  0
 11 12  3  0  0  0  0
 13 14  1  0  0  0  0
 15  6  1  0  0  0  0
 16 15  2  0  0  0  0
 17 15  2  0  0  0  0
M  END
