Coordinates from ORCA-job 4-NO2-Ph-N2-OH-B3LYPG-6-31G_dp-MTMO-d009-169-n900
 OpenBabel09051908023D

 17 16  0  0  0  0  0  0  0  0999 V2000
    0.5984    0.6732    0.2341 C   0  0  0  0  0  0  0  0  0  0  0  0
    0.4101    1.1213    1.5326 C   0  0  0  0  0  0  0  0  0  0  0  0
   -0.7705    0.7969    2.2191 C   0  0  0  0  0  0  0  0  0  0  0  0
   -1.7600    0.0206    1.5965 C   0  0  0  0  0  0  0  0  0  0  0  0
   -1.5730   -0.4293    0.2957 C   0  0  0  0  0  0  0  0  0  0  0  0
   -0.3955   -0.0985   -0.3737 C   0  0  0  0  0  0  0  0  0  0  0  0
    1.4984    0.9083   -0.3202 H   0  0  0  0  0  0  0  0  0  0  0  0
    1.1603    1.7217    2.0354 H   0  0  0  0  0  0  0  0  0  0  0  0
   -2.6726   -0.2298    2.1317 H   0  0  0  0  0  0  0  0  0  0  0  0
   -2.3198   -1.0291   -0.2091 H   0  0  0  0  0  0  0  0  0  0  0  0
    0.0640   -3.8597  -10.4636 N   0  0  0  0  0  0  0  0  0  0  0  0
    0.5166   -4.6060   -9.7855 N   0  0  0  0  0  0  0  0  0  0  0  0
   -0.8986    1.2640    3.4863 O   0  0  0  0  0  0  0  0  0  0  0  0
   -1.7474    0.9827    3.8532 H   0  0  0  0  0  0  0  0  0  0  0  0
   -0.1981   -0.5703   -1.7436 N   0  0  0  0  0  0  0  0  0  0  0  0
   -1.0937   -1.2477   -2.2521 O   0  0  0  0  0  0  0  0  0  0  0  0
    0.8522   -0.2637   -2.3100 O   0  0  0  0  0  0  0  0  0  0  0  0
  1  2  1  0  0  0  0
  2  8  1  0  0  0  0
  2  3  2  0  0  0  0
  3 13  1  0  0  0  0
  4  9  1  0  0  0  0
  4  3  1  0  0  0  0
  5  4  2  0  0  0  0
  6  1  2  0  0  0  0
  6  5  1  0  0  0  0
  7  1  1  0  0  0  0
 10  5  1  0  0  0  0
 11 12  3  0  0  0  0
 13 14  1  0  0  0  0
 15  6  1  0  0  0  0
 16 15  2  0  0  0  0
 17 15  2  0  0  0  0
M  END
