Coordinates from ORCA-job 4-NO2-Ph-N2-OH-B3LYPG-6-31G_dp-MTMO-d009-169-n900
 OpenBabel09051908013D

 17 17  0  0  0  0  0  0  0  0999 V2000
   -1.0470   -1.4905   -1.2736 C   0  0  0  0  0  0  0  0  0  0  0  0
    0.1896   -0.8721   -1.0826 C   0  0  0  0  0  0  0  0  0  0  0  0
    0.2036    0.2884   -0.3354 C   0  0  0  0  0  0  0  0  0  0  0  0
   -0.9005    0.8871    0.2376 C   0  0  0  0  0  0  0  0  0  0  0  0
   -2.1363    0.2659    0.0444 C   0  0  0  0  0  0  0  0  0  0  0  0
   -2.1828   -0.9091   -0.7069 C   0  0  0  0  0  0  0  0  0  0  0  0
   -1.1468   -2.4047   -1.8455 H   0  0  0  0  0  0  0  0  0  0  0  0
    1.1064   -1.2753   -1.4977 H   0  0  0  0  0  0  0  0  0  0  0  0
   -0.8030    1.8022    0.8100 H   0  0  0  0  0  0  0  0  0  0  0  0
   -3.0512    0.6700    0.4589 H   0  0  0  0  0  0  0  0  0  0  0  0
    1.8189    1.1955   -0.0225 N   0  0  0  0  0  0  0  0  0  0  0  0
    2.6622    0.5336   -0.6043 N   0  0  0  0  0  0  0  0  0  0  0  0
    3.9257    1.1333   -0.4316 O   0  0  0  0  0  0  0  0  0  0  0  0
    4.4990    0.5292   -0.9280 H   0  0  0  0  0  0  0  0  0  0  0  0
   -3.4866   -1.5644   -0.9122 N   0  0  0  0  0  0  0  0  0  0  0  0
   -4.4746   -1.0379   -0.4031 O   0  0  0  0  0  0  0  0  0  0  0  0
   -3.5056   -2.5967   -1.5807 O   0  0  0  0  0  0  0  0  0  0  0  0
  1  2  2  0  0  0  0
  1  6  1  0  0  0  0
  2  3  1  0  0  0  0
  3 11  1  0  0  0  0
  3  4  2  0  0  0  0
  4  9  1  0  0  0  0
  5  4  1  0  0  0  0
  5 10  1  0  0  0  0
  6  5  2  0  0  0  0
  7  1  1  0  0  0  0
  8  2  1  0  0  0  0
 12 13  1  0  0  0  0
 12 11  1  0  0  0  0
 14 13  1  0  0  0  0
 15  6  1  0  0  0  0
 15 16  2  0  0  0  0
 17 15  2  0  0  0  0
M  RAD  2  11   2  12   2
M  END
