Coordinates from ORCA-job 4-NO2-Ph-N2-OH-B3LYPG-6-31G_dp-MTMO-d009-169-n900
 OpenBabel09051908013D

 17 16  0  0  0  0  0  0  0  0999 V2000
    0.6060    0.6371    0.1390 C   0  0  0  0  0  0  0  0  0  0  0  0
    0.4192    1.0782    1.4402 C   0  0  0  0  0  0  0  0  0  0  0  0
   -0.7611    0.7507    2.1259 C   0  0  0  0  0  0  0  0  0  0  0  0
   -1.7516   -0.0215    1.4999 C   0  0  0  0  0  0  0  0  0  0  0  0
   -1.5660   -0.4642    0.1964 C   0  0  0  0  0  0  0  0  0  0  0  0
   -0.3890   -0.1305   -0.4722 C   0  0  0  0  0  0  0  0  0  0  0  0
    1.5057    0.8747   -0.4147 H   0  0  0  0  0  0  0  0  0  0  0  0
    1.1702    1.6752    1.9456 H   0  0  0  0  0  0  0  0  0  0  0  0
   -2.6640   -0.2742    2.0345 H   0  0  0  0  0  0  0  0  0  0  0  0
   -2.3137   -1.0608   -0.3110 H   0  0  0  0  0  0  0  0  0  0  0  0
    0.0087   -3.5697   -9.7347 N   0  0  0  0  0  0  0  0  0  0  0  0
    0.4561   -4.3295   -9.0683 N   0  0  0  0  0  0  0  0  0  0  0  0
   -0.8877    1.2109    3.3958 O   0  0  0  0  0  0  0  0  0  0  0  0
   -1.7364    0.9282    3.7619 H   0  0  0  0  0  0  0  0  0  0  0  0
   -0.1930   -0.5950   -1.8448 N   0  0  0  0  0  0  0  0  0  0  0  0
   -1.0895   -1.2688   -2.3563 O   0  0  0  0  0  0  0  0  0  0  0  0
    0.8570   -0.2861   -2.4104 O   0  0  0  0  0  0  0  0  0  0  0  0
  1  2  1  0  0  0  0
  2  8  1  0  0  0  0
  2  3  2  0  0  0  0
  3 13  1  0  0  0  0
  4  9  1  0  0  0  0
  4  3  1  0  0  0  0
  5  4  2  0  0  0  0
  6  1  2  0  0  0  0
  6  5  1  0  0  0  0
  7  1  1  0  0  0  0
 10  5  1  0  0  0  0
 11 12  3  0  0  0  0
 13 14  1  0  0  0  0
 15  6  1  0  0  0  0
 16 15  2  0  0  0  0
 17 15  2  0  0  0  0
M  END
