Coordinates from ORCA-job 4-NO2-Ph-N2-OH-B3LYPG-6-31G_dp-MTMO-d009-169-n900
 OpenBabel09051908013D

 17 16  0  0  0  0  0  0  0  0999 V2000
    0.6067    0.4009   -0.3695 C   0  0  0  0  0  0  0  0  0  0  0  0
    0.5009    0.8152    0.9498 C   0  0  0  0  0  0  0  0  0  0  0  0
   -0.6607    0.5247    1.6831 C   0  0  0  0  0  0  0  0  0  0  0  0
   -1.7138   -0.1844    1.0846 C   0  0  0  0  0  0  0  0  0  0  0  0
   -1.6096   -0.6003   -0.2370 C   0  0  0  0  0  0  0  0  0  0  0  0
   -0.4501   -0.3035   -0.9527 C   0  0  0  0  0  0  0  0  0  0  0  0
    1.4905    0.6118   -0.9586 H   0  0  0  0  0  0  0  0  0  0  0  0
    1.3022    1.3632    1.4330 H   0  0  0  0  0  0  0  0  0  0  0  0
   -2.6116   -0.4096    1.6551 H   0  0  0  0  0  0  0  0  0  0  0  0
   -2.4077   -1.1483   -0.7220 H   0  0  0  0  0  0  0  0  0  0  0  0
    0.0967   -2.3368   -6.4361 N   0  0  0  0  0  0  0  0  0  0  0  0
    0.3182   -2.6814   -5.4094 N   0  0  0  0  0  0  0  0  0  0  0  0
   -0.7071    0.9558    2.9682 O   0  0  0  0  0  0  0  0  0  0  0  0
   -1.5500    0.7015    3.3673 H   0  0  0  0  0  0  0  0  0  0  0  0
   -0.3398   -0.7381   -2.3450 N   0  0  0  0  0  0  0  0  0  0  0  0
   -1.2900   -1.3547   -2.8315 O   0  0  0  0  0  0  0  0  0  0  0  0
    0.6960   -0.4615   -2.9523 O   0  0  0  0  0  0  0  0  0  0  0  0
  1  2  1  0  0  0  0
  2  8  1  0  0  0  0
  2  3  2  0  0  0  0
  3 13  1  0  0  0  0
  4  9  1  0  0  0  0
  4  3  1  0  0  0  0
  5  4  2  0  0  0  0
  6  1  2  0  0  0  0
  6  5  1  0  0  0  0
  7  1  1  0  0  0  0
 10  5  1  0  0  0  0
 11 12  3  0  0  0  0
 13 14  1  0  0  0  0
 15  6  1  0  0  0  0
 16 15  2  0  0  0  0
 17 15  2  0  0  0  0
M  END
