Coordinates from ORCA-job 4-NO2-Ph-N2-OH-B3LYPG-6-31G_dp-MTMO-d009-169-n900
 OpenBabel09051908013D

 17 16  0  0  0  0  0  0  0  0999 V2000
   -0.9086   -0.9972   -1.6600 C   0  0  0  0  0  0  0  0  0  0  0  0
    0.2749   -0.4187   -1.2266 C   0  0  0  0  0  0  0  0  0  0  0  0
    0.3309    0.1923    0.0360 C   0  0  0  0  0  0  0  0  0  0  0  0
   -0.8037    0.2201    0.8610 C   0  0  0  0  0  0  0  0  0  0  0  0
   -1.9901   -0.3590    0.4277 C   0  0  0  0  0  0  0  0  0  0  0  0
   -2.0314   -0.9624   -0.8287 C   0  0  0  0  0  0  0  0  0  0  0  0
   -0.9822   -1.4750   -2.6286 H   0  0  0  0  0  0  0  0  0  0  0  0
    1.1660   -0.4250   -1.8443 H   0  0  0  0  0  0  0  0  0  0  0  0
   -0.7561    0.6938    1.8382 H   0  0  0  0  0  0  0  0  0  0  0  0
   -2.8816   -0.3523    1.0422 H   0  0  0  0  0  0  0  0  0  0  0  0
    4.3825    1.5464   -1.5259 N   0  0  0  0  0  0  0  0  0  0  0  0
    3.7358    0.8154   -2.0438 N   0  0  0  0  0  0  0  0  0  0  0  0
    1.5163    0.7421    0.4055 O   0  0  0  0  0  0  0  0  0  0  0  0
    1.4372    1.1263    1.2889 H   0  0  0  0  0  0  0  0  0  0  0  0
   -3.2800   -1.5716   -1.2854 N   0  0  0  0  0  0  0  0  0  0  0  0
   -4.2529   -1.5210   -0.5304 O   0  0  0  0  0  0  0  0  0  0  0  0
   -3.2862   -2.0995   -2.3989 O   0  0  0  0  0  0  0  0  0  0  0  0
  1  2  2  0  0  0  0
  1  6  1  0  0  0  0
  2  3  1  0  0  0  0
  3 13  1  0  0  0  0
  3  4  2  0  0  0  0
  4  9  1  0  0  0  0
  5  4  1  0  0  0  0
  5 10  1  0  0  0  0
  6  5  2  0  0  0  0
  7  1  1  0  0  0  0
  8  2  1  0  0  0  0
 12 11  3  0  0  0  0
 13 14  1  0  0  0  0
 15  6  1  0  0  0  0
 15 16  2  0  0  0  0
 17 15  2  0  0  0  0
M  END
