Coordinates from ORCA-job 4-NO2-Ph-N2-OH-B3LYPG-6-31G_dp-MTMO-d009-169-n900
 OpenBabel09051908023D

 17 16  0  0  0  0  0  0  0  0999 V2000
    0.5912    0.7080    0.3254 C   0  0  0  0  0  0  0  0  0  0  0  0
    0.4014    1.1626    1.6214 C   0  0  0  0  0  0  0  0  0  0  0  0
   -0.7797    0.8408    2.3084 C   0  0  0  0  0  0  0  0  0  0  0  0
   -1.7680    0.0607    1.6888 C   0  0  0  0  0  0  0  0  0  0  0  0
   -1.5795   -0.3956    0.3905 C   0  0  0  0  0  0  0  0  0  0  0  0
   -0.4016   -0.0674   -0.2795 C   0  0  0  0  0  0  0  0  0  0  0  0
    1.4916    0.9409   -0.2292 H   0  0  0  0  0  0  0  0  0  0  0  0
    1.1507    1.7660    2.1218 H   0  0  0  0  0  0  0  0  0  0  0  0
   -2.6810   -0.1875    2.2244 H   0  0  0  0  0  0  0  0  0  0  0  0
   -2.3255   -0.9985   -0.1120 H   0  0  0  0  0  0  0  0  0  0  0  0
    0.1161   -4.1398  -11.1630 N   0  0  0  0  0  0  0  0  0  0  0  0
    0.5744   -4.8695  -10.4708 N   0  0  0  0  0  0  0  0  0  0  0  0
   -0.9093    1.3142    3.5731 O   0  0  0  0  0  0  0  0  0  0  0  0
   -1.7583    1.0343    3.9406 H   0  0  0  0  0  0  0  0  0  0  0  0
   -0.2025   -0.5461   -1.6468 N   0  0  0  0  0  0  0  0  0  0  0  0
   -1.0971   -1.2268   -2.1526 O   0  0  0  0  0  0  0  0  0  0  0  0
    0.8481   -0.2416   -2.2137 O   0  0  0  0  0  0  0  0  0  0  0  0
  1  2  1  0  0  0  0
  2  8  1  0  0  0  0
  2  3  2  0  0  0  0
  3 13  1  0  0  0  0
  4  9  1  0  0  0  0
  4  3  1  0  0  0  0
  5  4  2  0  0  0  0
  6  1  2  0  0  0  0
  6  5  1  0  0  0  0
  7  1  1  0  0  0  0
 10  5  1  0  0  0  0
 11 12  3  0  0  0  0
 13 14  1  0  0  0  0
 15  6  1  0  0  0  0
 16 15  2  0  0  0  0
 17 15  2  0  0  0  0
M  END
