Coordinates from ORCA-job 4-NO2-Ph-N2-OH-B3LYPG-6-31G_dp-MTMO-d009-169-n900
 OpenBabel09051908023D

 17 16  0  0  0  0  0  0  0  0999 V2000
    0.5709    0.8078    0.5842 C   0  0  0  0  0  0  0  0  0  0  0  0
    0.3770    1.2781    1.8740 C   0  0  0  0  0  0  0  0  0  0  0  0
   -0.8052    0.9627    2.5619 C   0  0  0  0  0  0  0  0  0  0  0  0
   -1.7905    0.1730    1.9497 C   0  0  0  0  0  0  0  0  0  0  0  0
   -1.5978   -0.2992    0.6576 C   0  0  0  0  0  0  0  0  0  0  0  0
   -0.4189    0.0229   -0.0134 C   0  0  0  0  0  0  0  0  0  0  0  0
    1.4722    1.0355    0.0288 H   0  0  0  0  0  0  0  0  0  0  0  0
    1.1239    1.8892    2.3686 H   0  0  0  0  0  0  0  0  0  0  0  0
   -2.7044   -0.0703    2.4861 H   0  0  0  0  0  0  0  0  0  0  0  0
   -2.3414   -0.9098    0.1609 H   0  0  0  0  0  0  0  0  0  0  0  0
    0.2738   -4.9486  -13.1575 N   0  0  0  0  0  0  0  0  0  0  0  0
    0.7259   -5.6067  -12.3932 N   0  0  0  0  0  0  0  0  0  0  0  0
   -0.9390    1.4516    3.8203 O   0  0  0  0  0  0  0  0  0  0  0  0
   -1.7883    1.1745    4.1891 H   0  0  0  0  0  0  0  0  0  0  0  0
   -0.2155   -0.4723   -1.3742 N   0  0  0  0  0  0  0  0  0  0  0  0
   -1.1074   -1.1611   -1.8737 O   0  0  0  0  0  0  0  0  0  0  0  0
    0.8358   -0.1727   -1.9423 O   0  0  0  0  0  0  0  0  0  0  0  0
  1  2  1  0  0  0  0
  2  8  1  0  0  0  0
  2  3  2  0  0  0  0
  3 13  1  0  0  0  0
  4  9  1  0  0  0  0
  4  3  1  0  0  0  0
  5  4  2  0  0  0  0
  6  1  2  0  0  0  0
  6  5  1  0  0  0  0
  7  1  1  0  0  0  0
 10  5  1  0  0  0  0
 11 12  3  0  0  0  0
 13 14  1  0  0  0  0
 15  6  1  0  0  0  0
 16 15  2  0  0  0  0
 17 15  2  0  0  0  0
M  END
