Coordinates from ORCA-job 4-NO2-Ph-N2-OH-B3LYPG-6-31G_dp-MTMO-d009-169-n900
 OpenBabel09051908013D

 17 16  0  0  0  0  0  0  0  0999 V2000
    0.6337    0.5229   -0.1642 C   0  0  0  0  0  0  0  0  0  0  0  0
    0.4455    0.9414    1.1442 C   0  0  0  0  0  0  0  0  0  0  0  0
   -0.7354    0.6019    1.8231 C   0  0  0  0  0  0  0  0  0  0  0  0
   -1.7251   -0.1595    1.1827 C   0  0  0  0  0  0  0  0  0  0  0  0
   -1.5382   -0.5795   -0.1280 C   0  0  0  0  0  0  0  0  0  0  0  0
   -0.3605   -0.2342   -0.7897 C   0  0  0  0  0  0  0  0  0  0  0  0
    1.5340    0.7702   -0.7126 H   0  0  0  0  0  0  0  0  0  0  0  0
    1.1959    1.5296    1.6606 H   0  0  0  0  0  0  0  0  0  0  0  0
   -2.6380   -0.4217    1.7119 H   0  0  0  0  0  0  0  0  0  0  0  0
   -2.2853   -1.1673   -0.6464 H   0  0  0  0  0  0  0  0  0  0  0  0
   -0.1932   -2.6331   -7.3726 N   0  0  0  0  0  0  0  0  0  0  0  0
    0.2463   -3.4349   -6.7518 N   0  0  0  0  0  0  0  0  0  0  0  0
   -0.8631    1.0400    3.1006 O   0  0  0  0  0  0  0  0  0  0  0  0
   -1.7120    0.7510    3.4613 H   0  0  0  0  0  0  0  0  0  0  0  0
   -0.1629   -0.6752   -2.1697 N   0  0  0  0  0  0  0  0  0  0  0  0
   -1.0589   -1.3399   -2.6940 O   0  0  0  0  0  0  0  0  0  0  0  0
    0.8880   -0.3572   -2.7287 O   0  0  0  0  0  0  0  0  0  0  0  0
  1  2  1  0  0  0  0
  2  8  1  0  0  0  0
  2  3  2  0  0  0  0
  3 13  1  0  0  0  0
  4  9  1  0  0  0  0
  4  3  1  0  0  0  0
  5  4  2  0  0  0  0
  6  1  2  0  0  0  0
  6  5  1  0  0  0  0
  7  1  1  0  0  0  0
 10  5  1  0  0  0  0
 11 12  3  0  0  0  0
 13 14  1  0  0  0  0
 15  6  1  0  0  0  0
 16 15  2  0  0  0  0
 17 15  2  0  0  0  0
M  END
