Coordinates from ORCA-job 4-NO2-Ph-N2-OH-B3LYPG-6-31G_dp-MTMO-d009-169-n900
 OpenBabel09051908013D

 17 16  0  0  0  0  0  0  0  0999 V2000
    0.6070    0.6328    0.1276 C   0  0  0  0  0  0  0  0  0  0  0  0
    0.4203    1.0730    1.4291 C   0  0  0  0  0  0  0  0  0  0  0  0
   -0.7600    0.7451    2.1147 C   0  0  0  0  0  0  0  0  0  0  0  0
   -1.7506   -0.0265    1.4882 C   0  0  0  0  0  0  0  0  0  0  0  0
   -1.5652   -0.4684    0.1845 C   0  0  0  0  0  0  0  0  0  0  0  0
   -0.3881   -0.1344   -0.4840 C   0  0  0  0  0  0  0  0  0  0  0  0
    1.5066    0.8707   -0.4260 H   0  0  0  0  0  0  0  0  0  0  0  0
    1.1714    1.6696    1.9348 H   0  0  0  0  0  0  0  0  0  0  0  0
   -2.6629   -0.2796    2.0228 H   0  0  0  0  0  0  0  0  0  0  0  0
   -2.3130   -1.0646   -0.3233 H   0  0  0  0  0  0  0  0  0  0  0  0
    0.0019   -3.5350   -9.6472 N   0  0  0  0  0  0  0  0  0  0  0  0
    0.4488   -4.2963   -8.9821 N   0  0  0  0  0  0  0  0  0  0  0  0
   -0.8864    1.2045    3.3849 O   0  0  0  0  0  0  0  0  0  0  0  0
   -1.7351    0.9216    3.7510 H   0  0  0  0  0  0  0  0  0  0  0  0
   -0.1924   -0.5979   -1.8569 N   0  0  0  0  0  0  0  0  0  0  0  0
   -1.0890   -1.2714   -2.3688 O   0  0  0  0  0  0  0  0  0  0  0  0
    0.8577   -0.2888   -2.4224 O   0  0  0  0  0  0  0  0  0  0  0  0
  1  2  1  0  0  0  0
  2  8  1  0  0  0  0
  2  3  2  0  0  0  0
  3 13  1  0  0  0  0
  4  9  1  0  0  0  0
  4  3  1  0  0  0  0
  5  4  2  0  0  0  0
  6  1  2  0  0  0  0
  6  5  1  0  0  0  0
  7  1  1  0  0  0  0
 10  5  1  0  0  0  0
 11 12  3  0  0  0  0
 13 14  1  0  0  0  0
 15  6  1  0  0  0  0
 16 15  2  0  0  0  0
 17 15  2  0  0  0  0
M  END
