Coordinates from ORCA-job 4-NO2-Ph-N2-OH-B3LYPG-6-31G_dp-MTMO-d009-169-n900
 OpenBabel09051908013D

 17 16  0  0  0  0  0  0  0  0999 V2000
    0.6348    0.5195   -0.1732 C   0  0  0  0  0  0  0  0  0  0  0  0
    0.4461    0.9374    1.1354 C   0  0  0  0  0  0  0  0  0  0  0  0
   -0.7349    0.5975    1.8138 C   0  0  0  0  0  0  0  0  0  0  0  0
   -1.7244   -0.1637    1.1728 C   0  0  0  0  0  0  0  0  0  0  0  0
   -1.5370   -0.5832   -0.1381 C   0  0  0  0  0  0  0  0  0  0  0  0
   -0.3592   -0.2374   -0.7993 C   0  0  0  0  0  0  0  0  0  0  0  0
    1.5352    0.7672   -0.7213 H   0  0  0  0  0  0  0  0  0  0  0  0
    1.1964    1.5255    1.6522 H   0  0  0  0  0  0  0  0  0  0  0  0
   -2.6373   -0.4263    1.7016 H   0  0  0  0  0  0  0  0  0  0  0  0
   -2.2839   -1.1708   -0.6569 H   0  0  0  0  0  0  0  0  0  0  0  0
   -0.2014   -2.6042   -7.2996 N   0  0  0  0  0  0  0  0  0  0  0  0
    0.2397   -3.4078   -6.6822 N   0  0  0  0  0  0  0  0  0  0  0  0
   -0.8630    1.0350    3.0915 O   0  0  0  0  0  0  0  0  0  0  0  0
   -1.7119    0.7457    3.4518 H   0  0  0  0  0  0  0  0  0  0  0  0
   -0.1612   -0.6778   -2.1794 N   0  0  0  0  0  0  0  0  0  0  0  0
   -1.0570   -1.3424   -2.7043 O   0  0  0  0  0  0  0  0  0  0  0  0
    0.8898   -0.3594   -2.7381 O   0  0  0  0  0  0  0  0  0  0  0  0
  1  2  1  0  0  0  0
  2  8  1  0  0  0  0
  2  3  2  0  0  0  0
  3 13  1  0  0  0  0
  4  9  1  0  0  0  0
  4  3  1  0  0  0  0
  5  4  2  0  0  0  0
  6  1  2  0  0  0  0
  6  5  1  0  0  0  0
  7  1  1  0  0  0  0
 10  5  1  0  0  0  0
 11 12  3  0  0  0  0
 13 14  1  0  0  0  0
 15  6  1  0  0  0  0
 16 15  2  0  0  0  0
 17 15  2  0  0  0  0
M  END
