Coordinates from ORCA-job 4-NO2-Ph-N2-OH-B3LYPG-6-31G_dp-MTMO-d009-169-n900
 OpenBabel09051908013D

 17 16  0  0  0  0  0  0  0  0999 V2000
    0.3645    0.0759   -0.6013 C   0  0  0  0  0  0  0  0  0  0  0  0
    0.5443    0.6245    0.6594 C   0  0  0  0  0  0  0  0  0  0  0  0
   -0.4986    0.5767    1.5982 C   0  0  0  0  0  0  0  0  0  0  0  0
   -1.7221   -0.0243    1.2648 C   0  0  0  0  0  0  0  0  0  0  0  0
   -1.9040   -0.5746    0.0020 C   0  0  0  0  0  0  0  0  0  0  0  0
   -0.8591   -0.5194   -0.9197 C   0  0  0  0  0  0  0  0  0  0  0  0
    1.1514    0.0989   -1.3450 H   0  0  0  0  0  0  0  0  0  0  0  0
    1.4804    1.0940    0.9402 H   0  0  0  0  0  0  0  0  0  0  0  0
   -2.5283   -0.0613    1.9937 H   0  0  0  0  0  0  0  0  0  0  0  0
   -2.8372   -1.0446   -0.2812 H   0  0  0  0  0  0  0  0  0  0  0  0
    1.1443   -1.9590   -6.2128 N   0  0  0  0  0  0  0  0  0  0  0  0
    1.9450   -1.5550   -5.5670 N   0  0  0  0  0  0  0  0  0  0  0  0
   -0.2618    1.1300    2.8138 O   0  0  0  0  0  0  0  0  0  0  0  0
   -1.0458    1.0405    3.3721 H   0  0  0  0  0  0  0  0  0  0  0  0
   -1.0506   -1.0980   -2.2488 N   0  0  0  0  0  0  0  0  0  0  0  0
   -2.1406   -1.6164   -2.4975 O   0  0  0  0  0  0  0  0  0  0  0  0
   -0.1109   -1.0336   -3.0439 O   0  0  0  0  0  0  0  0  0  0  0  0
  1  2  1  0  0  0  0
  2  8  1  0  0  0  0
  2  3  2  0  0  0  0
  3 13  1  0  0  0  0
  4  3  1  0  0  0  0
  4  9  1  0  0  0  0
  5  4  2  0  0  0  0
  6  1  2  0  0  0  0
  6  5  1  0  0  0  0
  7  1  1  0  0  0  0
 10  5  1  0  0  0  0
 11 12  3  0  0  0  0
 13 14  1  0  0  0  0
 15  6  1  0  0  0  0
 16 15  2  0  0  0  0
 17 15  2  0  0  0  0
M  END
