Coordinates from ORCA-job 4-NO2-Ph-N2-OH-B3LYPG-6-31G_dp-MTMO-d009-169-n900
 OpenBabel09051908013D

 17 16  0  0  0  0  0  0  0  0999 V2000
    0.6030    0.6515    0.1771 C   0  0  0  0  0  0  0  0  0  0  0  0
    0.4156    1.0954    1.4772 C   0  0  0  0  0  0  0  0  0  0  0  0
   -0.7648    0.7692    2.1632 C   0  0  0  0  0  0  0  0  0  0  0  0
   -1.7549   -0.0046    1.5386 C   0  0  0  0  0  0  0  0  0  0  0  0
   -1.5688   -0.4502    0.2362 C   0  0  0  0  0  0  0  0  0  0  0  0
   -0.3916   -0.1177   -0.4328 C   0  0  0  0  0  0  0  0  0  0  0  0
    1.5027    0.8881   -0.3769 H   0  0  0  0  0  0  0  0  0  0  0  0
    1.1663    1.6938    1.9815 H   0  0  0  0  0  0  0  0  0  0  0  0
   -2.6674   -0.2564    2.0735 H   0  0  0  0  0  0  0  0  0  0  0  0
   -2.3162   -1.0481   -0.2702 H   0  0  0  0  0  0  0  0  0  0  0  0
    0.0310   -3.6855  -10.0263 N   0  0  0  0  0  0  0  0  0  0  0  0
    0.4804   -4.4403   -9.3554 N   0  0  0  0  0  0  0  0  0  0  0  0
   -0.8920    1.2322    3.4320 O   0  0  0  0  0  0  0  0  0  0  0  0
   -1.7407    0.9501    3.7985 H   0  0  0  0  0  0  0  0  0  0  0  0
   -0.1952   -0.5852   -1.8043 N   0  0  0  0  0  0  0  0  0  0  0  0
   -1.0913   -1.2604   -2.3145 O   0  0  0  0  0  0  0  0  0  0  0  0
    0.8550   -0.2772   -2.3702 O   0  0  0  0  0  0  0  0  0  0  0  0
  1  2  1  0  0  0  0
  2  8  1  0  0  0  0
  2  3  2  0  0  0  0
  3 13  1  0  0  0  0
  4  9  1  0  0  0  0
  4  3  1  0  0  0  0
  5  4  2  0  0  0  0
  6  1  2  0  0  0  0
  6  5  1  0  0  0  0
  7  1  1  0  0  0  0
 10  5  1  0  0  0  0
 11 12  3  0  0  0  0
 13 14  1  0  0  0  0
 15  6  1  0  0  0  0
 16 15  2  0  0  0  0
 17 15  2  0  0  0  0
M  END
