Coordinates from ORCA-job 4-NO2-Ph-N2-OH-B3LYPG-6-31G_dp-MTMO-d009-169-n900
 OpenBabel09051908013D

 17 16  0  0  0  0  0  0  0  0999 V2000
   -0.5612   -0.5843   -1.2309 C   0  0  0  0  0  0  0  0  0  0  0  0
    0.3258    0.0890   -0.4044 C   0  0  0  0  0  0  0  0  0  0  0  0
   -0.0751    0.4732    0.8850 C   0  0  0  0  0  0  0  0  0  0  0  0
   -1.3693    0.1785    1.3405 C   0  0  0  0  0  0  0  0  0  0  0  0
   -2.2591   -0.4961    0.5136 C   0  0  0  0  0  0  0  0  0  0  0  0
   -1.8469   -0.8714   -0.7646 C   0  0  0  0  0  0  0  0  0  0  0  0
   -0.2797   -0.8927   -2.2296 H   0  0  0  0  0  0  0  0  0  0  0  0
    1.3304    0.3287   -0.7341 H   0  0  0  0  0  0  0  0  0  0  0  0
   -1.6766    0.4781    2.3391 H   0  0  0  0  0  0  0  0  0  0  0  0
   -3.2631   -0.7366    0.8392 H   0  0  0  0  0  0  0  0  0  0  0  0
    4.9280   -0.0189   -5.0160 N   0  0  0  0  0  0  0  0  0  0  0  0
    4.2142    0.0328   -4.1737 N   0  0  0  0  0  0  0  0  0  0  0  0
    0.8364    1.1296    1.6465 O   0  0  0  0  0  0  0  0  0  0  0  0
    0.4500    1.3452    2.5058 H   0  0  0  0  0  0  0  0  0  0  0  0
   -2.7827   -1.5811   -1.6354 N   0  0  0  0  0  0  0  0  0  0  0  0
   -3.9095   -1.8175   -1.1953 O   0  0  0  0  0  0  0  0  0  0  0  0
   -2.3906   -1.9019   -2.7587 O   0  0  0  0  0  0  0  0  0  0  0  0
  1  6  2  0  0  0  0
  1  2  1  0  0  0  0
  2  3  2  0  0  0  0
  3  4  1  0  0  0  0
  3 13  1  0  0  0  0
  4  9  1  0  0  0  0
  5 10  1  0  0  0  0
  5  4  2  0  0  0  0
  6  5  1  0  0  0  0
  7  1  1  0  0  0  0
  8  2  1  0  0  0  0
 11 12  3  0  0  0  0
 13 14  1  0  0  0  0
 15 16  2  0  0  0  0
 15  6  1  0  0  0  0
 17 15  2  0  0  0  0
M  END
