Coordinates from ORCA-job 4-NO2-Ph-N2-OH-B3LYPG-6-31G_dp-MTMO-d009-169-n900
 OpenBabel09051908013D

 17 16  0  0  0  0  0  0  0  0999 V2000
    0.6210    0.5706   -0.0367 C   0  0  0  0  0  0  0  0  0  0  0  0
    0.4353    0.9984    1.2690 C   0  0  0  0  0  0  0  0  0  0  0  0
   -0.7448    0.6647    1.9521 C   0  0  0  0  0  0  0  0  0  0  0  0
   -1.7362   -0.1003    1.3188 C   0  0  0  0  0  0  0  0  0  0  0  0
   -1.5518   -0.5296    0.0107 C   0  0  0  0  0  0  0  0  0  0  0  0
   -0.3749   -0.1899   -0.6553 C   0  0  0  0  0  0  0  0  0  0  0  0
    1.5205    0.8133   -0.5885 H   0  0  0  0  0  0  0  0  0  0  0  0
    1.1871    1.5895    1.7801 H   0  0  0  0  0  0  0  0  0  0  0  0
   -2.6484   -0.3580    1.8513 H   0  0  0  0  0  0  0  0  0  0  0  0
   -2.3003   -1.1204   -0.5024 H   0  0  0  0  0  0  0  0  0  0  0  0
   -0.1000   -3.0324   -8.3785 N   0  0  0  0  0  0  0  0  0  0  0  0
    0.3402   -3.8136   -7.7323 N   0  0  0  0  0  0  0  0  0  0  0  0
   -0.8701    1.1117    3.2268 O   0  0  0  0  0  0  0  0  0  0  0  0
   -1.7187    0.8259    3.5907 H   0  0  0  0  0  0  0  0  0  0  0  0
   -0.1802   -0.6405   -2.0326 N   0  0  0  0  0  0  0  0  0  0  0  0
   -1.0775   -1.3082   -2.5506 O   0  0  0  0  0  0  0  0  0  0  0  0
    0.8699   -0.3268   -2.5957 O   0  0  0  0  0  0  0  0  0  0  0  0
  1  2  1  0  0  0  0
  2  8  1  0  0  0  0
  2  3  2  0  0  0  0
  3 13  1  0  0  0  0
  4  9  1  0  0  0  0
  4  3  1  0  0  0  0
  5  4  2  0  0  0  0
  6  1  2  0  0  0  0
  6  5  1  0  0  0  0
  7  1  1  0  0  0  0
 10  5  1  0  0  0  0
 11 12  3  0  0  0  0
 13 14  1  0  0  0  0
 15  6  1  0  0  0  0
 16 15  2  0  0  0  0
 17 15  2  0  0  0  0
M  END
