Coordinates from ORCA-job 4-NO2-Ph-N2-OH-B3LYPG-6-31G_dp-MTMO-d009-169-n900
 OpenBabel09051908013D

 17 16  0  0  0  0  0  0  0  0999 V2000
   -0.5545   -0.5958   -1.2666 C   0  0  0  0  0  0  0  0  0  0  0  0
    0.3457    0.0770   -0.4540 C   0  0  0  0  0  0  0  0  0  0  0  0
   -0.0379    0.4686    0.8385 C   0  0  0  0  0  0  0  0  0  0  0  0
   -1.3277    0.1818    1.3110 C   0  0  0  0  0  0  0  0  0  0  0  0
   -2.2306   -0.4923    0.4980 C   0  0  0  0  0  0  0  0  0  0  0  0
   -1.8357   -0.8749   -0.7834 C   0  0  0  0  0  0  0  0  0  0  0  0
   -0.2866   -0.9098   -2.2673 H   0  0  0  0  0  0  0  0  0  0  0  0
    1.3472    0.3104   -0.7974 H   0  0  0  0  0  0  0  0  0  0  0  0
   -1.6215    0.4871    2.3120 H   0  0  0  0  0  0  0  0  0  0  0  0
   -3.2318   -0.7267    0.8367 H   0  0  0  0  0  0  0  0  0  0  0  0
    4.7659    0.0101   -4.7900 N   0  0  0  0  0  0  0  0  0  0  0  0
    4.0439    0.0577   -3.9544 N   0  0  0  0  0  0  0  0  0  0  0  0
    0.8857    1.1241    1.5860 O   0  0  0  0  0  0  0  0  0  0  0  0
    0.5105    1.3457    2.4487 H   0  0  0  0  0  0  0  0  0  0  0  0
   -2.7854   -1.5839   -1.6397 N   0  0  0  0  0  0  0  0  0  0  0  0
   -3.9079   -1.8130   -1.1850 O   0  0  0  0  0  0  0  0  0  0  0  0
   -2.4085   -1.9115   -2.7662 O   0  0  0  0  0  0  0  0  0  0  0  0
  1  6  2  0  0  0  0
  1  2  1  0  0  0  0
  2  3  2  0  0  0  0
  3  4  1  0  0  0  0
  3 13  1  0  0  0  0
  4  9  1  0  0  0  0
  5 10  1  0  0  0  0
  5  4  2  0  0  0  0
  6  5  1  0  0  0  0
  7  1  1  0  0  0  0
  8  2  1  0  0  0  0
 11 12  3  0  0  0  0
 13 14  1  0  0  0  0
 15 16  2  0  0  0  0
 15  6  1  0  0  0  0
 17 15  2  0  0  0  0
M  END
