Coordinates from ORCA-job 4-NO2-Ph-N2-OH-B3LYPG-6-31G_dp-MTMO-d009-169-n900
 OpenBabel09051908013D

 17 15  0  0  0  0  0  0  0  0999 V2000
   -0.8827   -1.0215   -1.0383 C   0  0  0  0  0  0  0  0  0  0  0  0
    0.0450   -0.0663   -0.5791 C   0  0  0  0  0  0  0  0  0  0  0  0
   -0.5064    0.9113    0.1795 C   0  0  0  0  0  0  0  0  0  0  0  0
   -1.7915    1.1375    0.5798 C   0  0  0  0  0  0  0  0  0  0  0  0
   -2.6999    0.1709    0.1114 C   0  0  0  0  0  0  0  0  0  0  0  0
   -2.2246   -0.8767   -0.6810 C   0  0  0  0  0  0  0  0  0  0  0  0
   -0.5731   -1.8568   -1.6566 H   0  0  0  0  0  0  0  0  0  0  0  0
    1.1078   -0.1306   -0.8270 H   0  0  0  0  0  0  0  0  0  0  0  0
   -2.1134    1.9702    1.1968 H   0  0  0  0  0  0  0  0  0  0  0  0
   -3.7549    0.2272    0.3557 H   0  0  0  0  0  0  0  0  0  0  0  0
    3.2930    1.7004   -0.0935 N   0  0  0  0  0  0  0  0  0  0  0  0
    3.1110    0.7380   -0.6240 N   0  0  0  0  0  0  0  0  0  0  0  0
    4.7578   -0.2970   -1.4024 O   0  0  0  0  0  0  0  0  0  0  0  0
    4.2168   -1.0387   -1.7271 H   0  0  0  0  0  0  0  0  0  0  0  0
   -3.1910   -1.8812   -1.1653 N   0  0  0  0  0  0  0  0  0  0  0  0
   -4.3677   -1.7363   -0.8419 O   0  0  0  0  0  0  0  0  0  0  0  0
   -2.7553   -2.7961   -1.8600 O   0  0  0  0  0  0  0  0  0  0  0  0
  1  6  2  0  0  0  0
  1  2  1  0  0  0  0
  2  3  2  0  0  0  0
  3  4  1  0  0  0  0
  4  9  1  0  0  0  0
  5 10  1  0  0  0  0
  5  4  2  0  0  0  0
  6  5  1  0  0  0  0
  7  1  1  0  0  0  0
  8  2  1  0  0  0  0
 12 11  3  0  0  0  0
 14 13  1  0  0  0  0
 15 16  2  0  0  0  0
 15  6  1  0  0  0  0
 17 15  2  0  0  0  0
M  RAD  2   3   2  13   2
M  END
