Coordinates from ORCA-job 4-NO2-Ph-N2-OH-B3LYPG-6-31G_dp-MTMO-d009-169-n900
 OpenBabel09051908013D

 17 16  0  0  0  0  0  0  0  0999 V2000
    0.6029    0.4162   -0.3162 C   0  0  0  0  0  0  0  0  0  0  0  0
    0.4931    0.8392    1.0000 C   0  0  0  0  0  0  0  0  0  0  0  0
   -0.6702    0.5522    1.7320 C   0  0  0  0  0  0  0  0  0  0  0  0
   -1.7209   -0.1620    1.1354 C   0  0  0  0  0  0  0  0  0  0  0  0
   -1.6125   -0.5866   -0.1830 C   0  0  0  0  0  0  0  0  0  0  0  0
   -0.4515   -0.2933   -0.8976 C   0  0  0  0  0  0  0  0  0  0  0  0
    1.4879    0.6241   -0.9046 H   0  0  0  0  0  0  0  0  0  0  0  0
    1.2924    1.3914    1.4817 H   0  0  0  0  0  0  0  0  0  0  0  0
   -2.6199   -0.3844    1.7051 H   0  0  0  0  0  0  0  0  0  0  0  0
   -2.4086   -1.1388   -0.6667 H   0  0  0  0  0  0  0  0  0  0  0  0
    0.1535   -2.4980   -6.8449 N   0  0  0  0  0  0  0  0  0  0  0  0
    0.3310   -2.7763   -5.7899 N   0  0  0  0  0  0  0  0  0  0  0  0
   -0.7206    0.9918    3.0143 O   0  0  0  0  0  0  0  0  0  0  0  0
   -1.5644    0.7391    3.4125 H   0  0  0  0  0  0  0  0  0  0  0  0
   -0.3369   -0.7374   -2.2868 N   0  0  0  0  0  0  0  0  0  0  0  0
   -1.2847   -1.3587   -2.7716 O   0  0  0  0  0  0  0  0  0  0  0  0
    0.7004   -0.4639   -2.8929 O   0  0  0  0  0  0  0  0  0  0  0  0
  1  2  1  0  0  0  0
  2  8  1  0  0  0  0
  2  3  2  0  0  0  0
  3 13  1  0  0  0  0
  4  9  1  0  0  0  0
  4  3  1  0  0  0  0
  5  4  2  0  0  0  0
  6  1  2  0  0  0  0
  6  5  1  0  0  0  0
  7  1  1  0  0  0  0
 10  5  1  0  0  0  0
 11 12  3  0  0  0  0
 13 14  1  0  0  0  0
 15  6  1  0  0  0  0
 16 15  2  0  0  0  0
 17 15  2  0  0  0  0
M  END
