Coordinates from ORCA-job 4-NO2-Ph-N2-OH-B3LYPG-6-31G_dp-MTMO-d009-169-n900
 OpenBabel09051908013D

 17 16  0  0  0  0  0  0  0  0999 V2000
    0.6185    0.5813   -0.0086 C   0  0  0  0  0  0  0  0  0  0  0  0
    0.4328    1.0111    1.2965 C   0  0  0  0  0  0  0  0  0  0  0  0
   -0.7472    0.6785    1.9802 C   0  0  0  0  0  0  0  0  0  0  0  0
   -1.7387   -0.0875    1.3481 C   0  0  0  0  0  0  0  0  0  0  0  0
   -1.5543   -0.5190    0.0407 C   0  0  0  0  0  0  0  0  0  0  0  0
   -0.3775   -0.1803   -0.6258 C   0  0  0  0  0  0  0  0  0  0  0  0
    1.5180    0.8231   -0.5607 H   0  0  0  0  0  0  0  0  0  0  0  0
    1.1846    1.6031    1.8066 H   0  0  0  0  0  0  0  0  0  0  0  0
   -2.6509   -0.3444    1.8811 H   0  0  0  0  0  0  0  0  0  0  0  0
   -2.3028   -1.1106   -0.4714 H   0  0  0  0  0  0  0  0  0  0  0  0
   -0.0817   -3.1191   -8.5973 N   0  0  0  0  0  0  0  0  0  0  0  0
    0.3595   -3.8967   -7.9474 N   0  0  0  0  0  0  0  0  0  0  0  0
   -0.8726    1.1276    3.2541 O   0  0  0  0  0  0  0  0  0  0  0  0
   -1.7212    0.8424    3.6185 H   0  0  0  0  0  0  0  0  0  0  0  0
   -0.1827   -0.6331   -2.0025 N   0  0  0  0  0  0  0  0  0  0  0  0
   -1.0801   -1.3017   -2.5193 O   0  0  0  0  0  0  0  0  0  0  0  0
    0.8673   -0.3202   -2.5660 O   0  0  0  0  0  0  0  0  0  0  0  0
  1  2  1  0  0  0  0
  2  8  1  0  0  0  0
  2  3  2  0  0  0  0
  3 13  1  0  0  0  0
  4  9  1  0  0  0  0
  4  3  1  0  0  0  0
  5  4  2  0  0  0  0
  6  1  2  0  0  0  0
  6  5  1  0  0  0  0
  7  1  1  0  0  0  0
 10  5  1  0  0  0  0
 11 12  3  0  0  0  0
 13 14  1  0  0  0  0
 15  6  1  0  0  0  0
 16 15  2  0  0  0  0
 17 15  2  0  0  0  0
M  END
