Coordinates from ORCA-job 4-NO2-Ph-N2-OH-B3LYPG-6-31G_dp-MTMO-d009-169-n900
 OpenBabel09051908023D

 17 16  0  0  0  0  0  0  0  0999 V2000
    0.5992    0.6696    0.2246 C   0  0  0  0  0  0  0  0  0  0  0  0
    0.4110    1.1170    1.5234 C   0  0  0  0  0  0  0  0  0  0  0  0
   -0.7696    0.7923    2.2098 C   0  0  0  0  0  0  0  0  0  0  0  0
   -1.7591    0.0164    1.5869 C   0  0  0  0  0  0  0  0  0  0  0  0
   -1.5723   -0.4328    0.2858 C   0  0  0  0  0  0  0  0  0  0  0  0
   -0.3949   -0.1017   -0.3836 C   0  0  0  0  0  0  0  0  0  0  0  0
    1.4991    0.9049   -0.3296 H   0  0  0  0  0  0  0  0  0  0  0  0
    1.1613    1.7170    2.0264 H   0  0  0  0  0  0  0  0  0  0  0  0
   -2.6718   -0.2342    2.1221 H   0  0  0  0  0  0  0  0  0  0  0  0
   -2.3192   -1.0323   -0.2193 H   0  0  0  0  0  0  0  0  0  0  0  0
    0.0586   -3.8306  -10.3907 N   0  0  0  0  0  0  0  0  0  0  0  0
    0.5106   -4.5785   -9.7139 N   0  0  0  0  0  0  0  0  0  0  0  0
   -0.8975    1.2587    3.4773 O   0  0  0  0  0  0  0  0  0  0  0  0
   -1.7463    0.9773    3.8441 H   0  0  0  0  0  0  0  0  0  0  0  0
   -0.1976   -0.5728   -1.7537 N   0  0  0  0  0  0  0  0  0  0  0  0
   -1.0933   -1.2498   -2.2625 O   0  0  0  0  0  0  0  0  0  0  0  0
    0.8527   -0.2660   -2.3200 O   0  0  0  0  0  0  0  0  0  0  0  0
  1  2  1  0  0  0  0
  2  8  1  0  0  0  0
  2  3  2  0  0  0  0
  3 13  1  0  0  0  0
  4  9  1  0  0  0  0
  4  3  1  0  0  0  0
  5  4  2  0  0  0  0
  6  1  2  0  0  0  0
  6  5  1  0  0  0  0
  7  1  1  0  0  0  0
 10  5  1  0  0  0  0
 11 12  3  0  0  0  0
 13 14  1  0  0  0  0
 15  6  1  0  0  0  0
 16 15  2  0  0  0  0
 17 15  2  0  0  0  0
M  END
