Coordinates from ORCA-job 4-NO2-Ph-N2-OH-B3LYPG-6-31G_dp-MTMO-d009-169-n900
 OpenBabel09051908013D

 17 16  0  0  0  0  0  0  0  0999 V2000
   -0.8719   -1.0660   -1.6331 C   0  0  0  0  0  0  0  0  0  0  0  0
    0.3287   -0.5387   -1.1816 C   0  0  0  0  0  0  0  0  0  0  0  0
    0.3823    0.1077    0.0633 C   0  0  0  0  0  0  0  0  0  0  0  0
   -0.7723    0.2224    0.8524 C   0  0  0  0  0  0  0  0  0  0  0  0
   -1.9757   -0.3054    0.4010 C   0  0  0  0  0  0  0  0  0  0  0  0
   -2.0142   -0.9450   -0.8374 C   0  0  0  0  0  0  0  0  0  0  0  0
   -0.9437   -1.5691   -2.5890 H   0  0  0  0  0  0  0  0  0  0  0  0
    1.2343   -0.6122   -1.7732 H   0  0  0  0  0  0  0  0  0  0  0  0
   -0.7265    0.7229    1.8163 H   0  0  0  0  0  0  0  0  0  0  0  0
   -2.8824   -0.2310    0.9881 H   0  0  0  0  0  0  0  0  0  0  0  0
    3.9900    1.7597   -1.4970 N   0  0  0  0  0  0  0  0  0  0  0  0
    3.6695    0.9218   -2.1421 N   0  0  0  0  0  0  0  0  0  0  0  0
    1.5849    0.6037    0.4519 O   0  0  0  0  0  0  0  0  0  0  0  0
    1.5023    1.0215    1.3196 H   0  0  0  0  0  0  0  0  0  0  0  0
   -3.2806   -1.5008   -1.3130 N   0  0  0  0  0  0  0  0  0  0  0  0
   -4.2702   -1.3748   -0.5893 O   0  0  0  0  0  0  0  0  0  0  0  0
   -3.2838   -2.0621   -2.4100 O   0  0  0  0  0  0  0  0  0  0  0  0
  1  2  2  0  0  0  0
  1  6  1  0  0  0  0
  2  3  1  0  0  0  0
  3 13  1  0  0  0  0
  3  4  2  0  0  0  0
  4  9  1  0  0  0  0
  5  4  1  0  0  0  0
  5 10  1  0  0  0  0
  6  5  2  0  0  0  0
  7  1  1  0  0  0  0
  8  2  1  0  0  0  0
 12 11  3  0  0  0  0
 13 14  1  0  0  0  0
 15  6  1  0  0  0  0
 15 16  2  0  0  0  0
 17 15  2  0  0  0  0
M  END
