Coordinates from ORCA-job 4-NO2-Ph-N2-OH-B3LYPG-6-31G_dp-MTMO-d009-169-n900
 OpenBabel09051908023D

 17 16  0  0  0  0  0  0  0  0999 V2000
    0.5966    0.6819    0.2569 C   0  0  0  0  0  0  0  0  0  0  0  0
    0.4079    1.1317    1.5548 C   0  0  0  0  0  0  0  0  0  0  0  0
   -0.7728    0.8079    2.2414 C   0  0  0  0  0  0  0  0  0  0  0  0
   -1.7620    0.0306    1.6196 C   0  0  0  0  0  0  0  0  0  0  0  0
   -1.5746   -0.4209    0.3194 C   0  0  0  0  0  0  0  0  0  0  0  0
   -0.3970   -0.0907   -0.3501 C   0  0  0  0  0  0  0  0  0  0  0  0
    1.4967    0.9164   -0.2974 H   0  0  0  0  0  0  0  0  0  0  0  0
    1.1579    1.7328    2.0570 H   0  0  0  0  0  0  0  0  0  0  0  0
   -2.6747   -0.2192    2.1550 H   0  0  0  0  0  0  0  0  0  0  0  0
   -2.3212   -1.0215   -0.1848 H   0  0  0  0  0  0  0  0  0  0  0  0
    0.0771   -3.9296  -10.6385 N   0  0  0  0  0  0  0  0  0  0  0  0
    0.5311   -4.6721   -9.9572 N   0  0  0  0  0  0  0  0  0  0  0  0
   -0.9013    1.2766    3.5080 O   0  0  0  0  0  0  0  0  0  0  0  0
   -1.7501    0.9957    3.8751 H   0  0  0  0  0  0  0  0  0  0  0  0
   -0.1992   -0.5643   -1.7193 N   0  0  0  0  0  0  0  0  0  0  0  0
   -1.0945   -1.2425   -2.2272 O   0  0  0  0  0  0  0  0  0  0  0  0
    0.8511   -0.2583   -2.2859 O   0  0  0  0  0  0  0  0  0  0  0  0
  1  2  1  0  0  0  0
  2  8  1  0  0  0  0
  2  3  2  0  0  0  0
  3 13  1  0  0  0  0
  4  9  1  0  0  0  0
  4  3  1  0  0  0  0
  5  4  2  0  0  0  0
  6  1  2  0  0  0  0
  6  5  1  0  0  0  0
  7  1  1  0  0  0  0
 10  5  1  0  0  0  0
 11 12  3  0  0  0  0
 13 14  1  0  0  0  0
 15  6  1  0  0  0  0
 16 15  2  0  0  0  0
 17 15  2  0  0  0  0
M  END
