Coordinates from ORCA-job 4-NO2-Ph-N2-OH-B3LYPG-6-31G_dp-MTMO-d009-169-n900
 OpenBabel09051908013D

 17 16  0  0  0  0  0  0  0  0999 V2000
    0.6273    0.5454   -0.1038 C   0  0  0  0  0  0  0  0  0  0  0  0
    0.4409    0.9682    1.2035 C   0  0  0  0  0  0  0  0  0  0  0  0
   -0.7394    0.6317    1.8848 C   0  0  0  0  0  0  0  0  0  0  0  0
   -1.7304   -0.1311    1.2481 C   0  0  0  0  0  0  0  0  0  0  0  0
   -1.5452   -0.5555   -0.0616 C   0  0  0  0  0  0  0  0  0  0  0  0
   -0.3681   -0.2130   -0.7257 C   0  0  0  0  0  0  0  0  0  0  0  0
    1.5271    0.7904   -0.6541 H   0  0  0  0  0  0  0  0  0  0  0  0
    1.1923    1.5576    1.7171 H   0  0  0  0  0  0  0  0  0  0  0  0
   -2.6428   -0.3910    1.7791 H   0  0  0  0  0  0  0  0  0  0  0  0
   -2.2933   -1.1444   -0.5772 H   0  0  0  0  0  0  0  0  0  0  0  0
   -0.1459   -2.8241   -7.8537 N   0  0  0  0  0  0  0  0  0  0  0  0
    0.2923   -3.6150   -7.2181 N   0  0  0  0  0  0  0  0  0  0  0  0
   -0.8654    1.0740    3.1610 O   0  0  0  0  0  0  0  0  0  0  0  0
   -1.7141    0.7866    3.5235 H   0  0  0  0  0  0  0  0  0  0  0  0
   -0.1725   -0.6584   -2.1046 N   0  0  0  0  0  0  0  0  0  0  0  0
   -1.0696   -1.3243   -2.6256 O   0  0  0  0  0  0  0  0  0  0  0  0
    0.8778   -0.3426   -2.6659 O   0  0  0  0  0  0  0  0  0  0  0  0
  1  2  1  0  0  0  0
  2  8  1  0  0  0  0
  2  3  2  0  0  0  0
  3 13  1  0  0  0  0
  4  9  1  0  0  0  0
  4  3  1  0  0  0  0
  5  4  2  0  0  0  0
  6  1  2  0  0  0  0
  6  5  1  0  0  0  0
  7  1  1  0  0  0  0
 10  5  1  0  0  0  0
 11 12  3  0  0  0  0
 13 14  1  0  0  0  0
 15  6  1  0  0  0  0
 16 15  2  0  0  0  0
 17 15  2  0  0  0  0
M  END
