Coordinates from ORCA-job 4-NO2-Ph-N2-OH-B3LYPG-6-31G_dp-MTMO-d009-169-n900
 OpenBabel09051908023D

 17 16  0  0  0  0  0  0  0  0999 V2000
    0.5816    0.7551    0.4485 C   0  0  0  0  0  0  0  0  0  0  0  0
    0.3898    1.2177    1.7414 C   0  0  0  0  0  0  0  0  0  0  0  0
   -0.7919    0.8993    2.4289 C   0  0  0  0  0  0  0  0  0  0  0  0
   -1.7788    0.1145    1.8130 C   0  0  0  0  0  0  0  0  0  0  0  0
   -1.5882   -0.3499    0.5178 C   0  0  0  0  0  0  0  0  0  0  0  0
   -0.4098   -0.0250   -0.1527 C   0  0  0  0  0  0  0  0  0  0  0  0
    1.4825    0.9853   -0.1065 H   0  0  0  0  0  0  0  0  0  0  0  0
    1.1379    1.8249    2.2389 H   0  0  0  0  0  0  0  0  0  0  0  0
   -2.6923   -0.1311    2.3490 H   0  0  0  0  0  0  0  0  0  0  0  0
   -2.3331   -0.9566    0.0183 H   0  0  0  0  0  0  0  0  0  0  0  0
    0.1870   -4.5227  -12.1095 N   0  0  0  0  0  0  0  0  0  0  0  0
    0.6508   -5.2209  -11.3889 N   0  0  0  0  0  0  0  0  0  0  0  0
   -0.9236    1.3806    3.6904 O   0  0  0  0  0  0  0  0  0  0  0  0
   -1.7728    1.1022    4.0586 H   0  0  0  0  0  0  0  0  0  0  0  0
   -0.2086   -0.5121   -1.5167 N   0  0  0  0  0  0  0  0  0  0  0  0
   -1.1018   -1.1968   -2.0193 O   0  0  0  0  0  0  0  0  0  0  0  0
    0.8424   -0.2101   -2.0842 O   0  0  0  0  0  0  0  0  0  0  0  0
  1  2  1  0  0  0  0
  2  8  1  0  0  0  0
  2  3  2  0  0  0  0
  3 13  1  0  0  0  0
  4  9  1  0  0  0  0
  4  3  1  0  0  0  0
  5  4  2  0  0  0  0
  6  1  2  0  0  0  0
  6  5  1  0  0  0  0
  7  1  1  0  0  0  0
 10  5  1  0  0  0  0
 11 12  3  0  0  0  0
 13 14  1  0  0  0  0
 15  6  1  0  0  0  0
 16 15  2  0  0  0  0
 17 15  2  0  0  0  0
M  END
