Coordinates from ORCA-job 4-NO2-Ph-N2-OH-B3LYPG-6-31G_dp-MTMO-d009-169-n900
 OpenBabel09051908013D

 17 16  0  0  0  0  0  0  0  0999 V2000
   -0.9085   -0.9519   -1.6504 C   0  0  0  0  0  0  0  0  0  0  0  0
    0.2556   -0.3487   -1.1983 C   0  0  0  0  0  0  0  0  0  0  0  0
    0.2873    0.2356    0.0778 C   0  0  0  0  0  0  0  0  0  0  0  0
   -0.8515    0.2124    0.8971 C   0  0  0  0  0  0  0  0  0  0  0  0
   -2.0184   -0.3913    0.4447 C   0  0  0  0  0  0  0  0  0  0  0  0
   -2.0360   -0.9679   -0.8248 C   0  0  0  0  0  0  0  0  0  0  0  0
   -0.9636   -1.4104   -2.6295 H   0  0  0  0  0  0  0  0  0  0  0  0
    1.1497   -0.3150   -1.8105 H   0  0  0  0  0  0  0  0  0  0  0  0
   -0.8221    0.6658    1.8846 H   0  0  0  0  0  0  0  0  0  0  0  0
   -2.9128   -0.4244    1.0543 H   0  0  0  0  0  0  0  0  0  0  0  0
    4.6610    1.3761   -1.7793 N   0  0  0  0  0  0  0  0  0  0  0  0
    3.7712    0.7942   -2.0808 N   0  0  0  0  0  0  0  0  0  0  0  0
    1.4546    0.8111    0.4651 O   0  0  0  0  0  0  0  0  0  0  0  0
    1.3594    1.1752    1.3554 H   0  0  0  0  0  0  0  0  0  0  0  0
   -3.2640   -1.6029   -1.3014 N   0  0  0  0  0  0  0  0  0  0  0  0
   -4.2422   -1.5956   -0.5517 O   0  0  0  0  0  0  0  0  0  0  0  0
   -3.2490   -2.1078   -2.4255 O   0  0  0  0  0  0  0  0  0  0  0  0
  1  2  2  0  0  0  0
  1  6  1  0  0  0  0
  2  3  1  0  0  0  0
  3 13  1  0  0  0  0
  3  4  2  0  0  0  0
  4  9  1  0  0  0  0
  5  4  1  0  0  0  0
  5 10  1  0  0  0  0
  6  5  2  0  0  0  0
  7  1  1  0  0  0  0
  8  2  1  0  0  0  0
 12 11  3  0  0  0  0
 13 14  1  0  0  0  0
 15  6  1  0  0  0  0
 15 16  2  0  0  0  0
 17 15  2  0  0  0  0
M  END
