Coordinates from ORCA-job 4-NO2-Ph-N2-OH-B3LYPG-6-31G_dp-MTMO-d009-169-n900
 OpenBabel09051908013D

 17 16  0  0  0  0  0  0  0  0999 V2000
   -0.5555   -0.5941   -1.2631 C   0  0  0  0  0  0  0  0  0  0  0  0
    0.3433    0.0784   -0.4487 C   0  0  0  0  0  0  0  0  0  0  0  0
   -0.0417    0.4689    0.8433 C   0  0  0  0  0  0  0  0  0  0  0  0
   -1.3321    0.1815    1.3141 C   0  0  0  0  0  0  0  0  0  0  0  0
   -2.2339   -0.4922    0.4995 C   0  0  0  0  0  0  0  0  0  0  0  0
   -1.8372   -0.8738   -0.7818 C   0  0  0  0  0  0  0  0  0  0  0  0
   -0.2861   -0.9073   -2.2636 H   0  0  0  0  0  0  0  0  0  0  0  0
    1.3453    0.3124   -0.7904 H   0  0  0  0  0  0  0  0  0  0  0  0
   -1.6272    0.4861    2.3149 H   0  0  0  0  0  0  0  0  0  0  0  0
   -3.2353   -0.7271    0.8368 H   0  0  0  0  0  0  0  0  0  0  0  0
    4.7829    0.0069   -4.8140 N   0  0  0  0  0  0  0  0  0  0  0  0
    4.0620    0.0551   -3.9774 N   0  0  0  0  0  0  0  0  0  0  0  0
    0.8808    1.1242    1.5925 O   0  0  0  0  0  0  0  0  0  0  0  0
    0.5046    1.3450    2.4550 H   0  0  0  0  0  0  0  0  0  0  0  0
   -2.7855   -1.5826   -1.6397 N   0  0  0  0  0  0  0  0  0  0  0  0
   -3.9075   -1.8150   -1.1856 O   0  0  0  0  0  0  0  0  0  0  0  0
   -2.4060   -1.9119   -2.7650 O   0  0  0  0  0  0  0  0  0  0  0  0
  1  6  2  0  0  0  0
  1  2  1  0  0  0  0
  2  3  2  0  0  0  0
  3  4  1  0  0  0  0
  3 13  1  0  0  0  0
  4  9  1  0  0  0  0
  5 10  1  0  0  0  0
  5  4  2  0  0  0  0
  6  5  1  0  0  0  0
  7  1  1  0  0  0  0
  8  2  1  0  0  0  0
 11 12  3  0  0  0  0
 13 14  1  0  0  0  0
 15 16  2  0  0  0  0
 15  6  1  0  0  0  0
 17 15  2  0  0  0  0
M  END
