Coordinates from ORCA-job 4-NO2-Ph-N2-OH-B3LYPG-6-31G_dp-MTMO-d009-169-n900
 OpenBabel09051908013D

 17 16  0  0  0  0  0  0  0  0999 V2000
   -0.8662   -0.8903   -1.6152 C   0  0  0  0  0  0  0  0  0  0  0  0
    0.2658   -0.2660   -1.1129 C   0  0  0  0  0  0  0  0  0  0  0  0
    0.2426    0.2843    0.1784 C   0  0  0  0  0  0  0  0  0  0  0  0
   -0.9184    0.2053    0.9624 C   0  0  0  0  0  0  0  0  0  0  0  0
   -2.0531   -0.4196    0.4599 C   0  0  0  0  0  0  0  0  0  0  0  0
   -2.0163   -0.9616   -0.8244 C   0  0  0  0  0  0  0  0  0  0  0  0
   -0.8795   -1.3238   -2.6070 H   0  0  0  0  0  0  0  0  0  0  0  0
    1.1758   -0.1904   -1.6977 H   0  0  0  0  0  0  0  0  0  0  0  0
   -0.9306    0.6326    1.9617 H   0  0  0  0  0  0  0  0  0  0  0  0
   -2.9632   -0.4956    1.0418 H   0  0  0  0  0  0  0  0  0  0  0  0
    4.7656    1.1727   -2.1662 N   0  0  0  0  0  0  0  0  0  0  0  0
    3.7897    0.6720   -2.3005 N   0  0  0  0  0  0  0  0  0  0  0  0
    1.3799    0.8835    0.6156 O   0  0  0  0  0  0  0  0  0  0  0  0
    1.2463    1.2226    1.5108 H   0  0  0  0  0  0  0  0  0  0  0  0
   -3.2102   -1.6187   -1.3545 N   0  0  0  0  0  0  0  0  0  0  0  0
   -4.2102   -1.6596   -0.6351 O   0  0  0  0  0  0  0  0  0  0  0  0
   -3.1470   -2.0929   -2.4902 O   0  0  0  0  0  0  0  0  0  0  0  0
  1  2  2  0  0  0  0
  1  6  1  0  0  0  0
  2  3  1  0  0  0  0
  3 13  1  0  0  0  0
  3  4  2  0  0  0  0
  4  9  1  0  0  0  0
  5  4  1  0  0  0  0
  5 10  1  0  0  0  0
  6  5  2  0  0  0  0
  7  1  1  0  0  0  0
  8  2  1  0  0  0  0
 12 11  3  0  0  0  0
 13 14  1  0  0  0  0
 15  6  1  0  0  0  0
 15 16  2  0  0  0  0
 17 15  2  0  0  0  0
M  END
