Coordinates from ORCA-job 4-NO2-Ph-N2-OH-B3LYPG-6-31G_dp-MTMO-d009-169-n900
 OpenBabel09051908013D

 17 16  0  0  0  0  0  0  0  0999 V2000
    0.6190    0.5791   -0.0142 C   0  0  0  0  0  0  0  0  0  0  0  0
    0.4333    1.0085    1.2910 C   0  0  0  0  0  0  0  0  0  0  0  0
   -0.7467    0.6757    1.9746 C   0  0  0  0  0  0  0  0  0  0  0  0
   -1.7382   -0.0901    1.3423 C   0  0  0  0  0  0  0  0  0  0  0  0
   -1.5538   -0.5211    0.0347 C   0  0  0  0  0  0  0  0  0  0  0  0
   -0.3770   -0.1822   -0.6317 C   0  0  0  0  0  0  0  0  0  0  0  0
    1.5185    0.8211   -0.5663 H   0  0  0  0  0  0  0  0  0  0  0  0
    1.1851    1.6004    1.8013 H   0  0  0  0  0  0  0  0  0  0  0  0
   -2.6504   -0.3471    1.8752 H   0  0  0  0  0  0  0  0  0  0  0  0
   -2.3023   -1.1125   -0.4776 H   0  0  0  0  0  0  0  0  0  0  0  0
   -0.0854   -3.1018   -8.5535 N   0  0  0  0  0  0  0  0  0  0  0  0
    0.3556   -3.8801   -7.9044 N   0  0  0  0  0  0  0  0  0  0  0  0
   -0.8721    1.1244    3.2487 O   0  0  0  0  0  0  0  0  0  0  0  0
   -1.7207    0.8391    3.6129 H   0  0  0  0  0  0  0  0  0  0  0  0
   -0.1822   -0.6345   -2.0085 N   0  0  0  0  0  0  0  0  0  0  0  0
   -1.0796   -1.3030   -2.5255 O   0  0  0  0  0  0  0  0  0  0  0  0
    0.8678   -0.3215   -2.5720 O   0  0  0  0  0  0  0  0  0  0  0  0
  1  2  1  0  0  0  0
  2  8  1  0  0  0  0
  2  3  2  0  0  0  0
  3 13  1  0  0  0  0
  4  9  1  0  0  0  0
  4  3  1  0  0  0  0
  5  4  2  0  0  0  0
  6  1  2  0  0  0  0
  6  5  1  0  0  0  0
  7  1  1  0  0  0  0
 10  5  1  0  0  0  0
 11 12  3  0  0  0  0
 13 14  1  0  0  0  0
 15  6  1  0  0  0  0
 16 15  2  0  0  0  0
 17 15  2  0  0  0  0
M  END
