Coordinates from ORCA-job 4-NO2-Ph-N2-OH-B3LYPG-6-31G_dp-MTMO-d009-169-n900
 OpenBabel09051908023D

 17 16  0  0  0  0  0  0  0  0999 V2000
    0.5727    0.7989    0.5615 C   0  0  0  0  0  0  0  0  0  0  0  0
    0.3791    1.2681    1.8518 C   0  0  0  0  0  0  0  0  0  0  0  0
   -0.8030    0.9522    2.5397 C   0  0  0  0  0  0  0  0  0  0  0  0
   -1.7886    0.1633    1.9269 C   0  0  0  0  0  0  0  0  0  0  0  0
   -1.5963   -0.3076    0.6343 C   0  0  0  0  0  0  0  0  0  0  0  0
   -0.4174    0.0149   -0.0366 C   0  0  0  0  0  0  0  0  0  0  0  0
    1.4739    1.0270    0.0063 H   0  0  0  0  0  0  0  0  0  0  0  0
    1.1263    1.8784    2.3469 H   0  0  0  0  0  0  0  0  0  0  0  0
   -2.7024   -0.0803    2.4633 H   0  0  0  0  0  0  0  0  0  0  0  0
   -2.3401   -0.9175    0.1372 H   0  0  0  0  0  0  0  0  0  0  0  0
    0.2585   -4.8779  -12.9828 N   0  0  0  0  0  0  0  0  0  0  0  0
    0.7143   -5.5420  -12.2259 N   0  0  0  0  0  0  0  0  0  0  0  0
   -0.9364    1.4398    3.7986 O   0  0  0  0  0  0  0  0  0  0  0  0
   -1.7857    1.1625    4.1673 H   0  0  0  0  0  0  0  0  0  0  0  0
   -0.2144   -0.4791   -1.3979 N   0  0  0  0  0  0  0  0  0  0  0  0
   -1.1066   -1.1671   -1.8979 O   0  0  0  0  0  0  0  0  0  0  0  0
    0.8369   -0.1791   -1.9659 O   0  0  0  0  0  0  0  0  0  0  0  0
  1  2  1  0  0  0  0
  2  8  1  0  0  0  0
  2  3  2  0  0  0  0
  3 13  1  0  0  0  0
  4  9  1  0  0  0  0
  4  3  1  0  0  0  0
  5  4  2  0  0  0  0
  6  1  2  0  0  0  0
  6  5  1  0  0  0  0
  7  1  1  0  0  0  0
 10  5  1  0  0  0  0
 11 12  3  0  0  0  0
 13 14  1  0  0  0  0
 15  6  1  0  0  0  0
 16 15  2  0  0  0  0
 17 15  2  0  0  0  0
M  END
