Coordinates from ORCA-job 4-NO2-Ph-N2-OH-B3LYPG-6-31G_dp-MTMO-d009-169-n900
 OpenBabel09051908013D

 17 16  0  0  0  0  0  0  0  0999 V2000
   -0.9089   -1.1722   -1.0946 C   0  0  0  0  0  0  0  0  0  0  0  0
    0.1100   -0.2892   -0.6978 C   0  0  0  0  0  0  0  0  0  0  0  0
   -0.3035    0.7597    0.0518 C   0  0  0  0  0  0  0  0  0  0  0  0
   -1.5523    1.1057    0.4906 C   0  0  0  0  0  0  0  0  0  0  0  0
   -2.5614    0.2143    0.0875 C   0  0  0  0  0  0  0  0  0  0  0  0
   -2.2171   -0.8947   -0.6901 C   0  0  0  0  0  0  0  0  0  0  0  0
   -0.7052   -2.0500   -1.6972 H   0  0  0  0  0  0  0  0  0  0  0  0
    1.1613   -0.4421   -0.9781 H   0  0  0  0  0  0  0  0  0  0  0  0
   -1.7744    1.9802    1.0930 H   0  0  0  0  0  0  0  0  0  0  0  0
   -3.5966    0.3714    0.3684 H   0  0  0  0  0  0  0  0  0  0  0  0
    2.9349    1.5687    0.0053 N   0  0  0  0  0  0  0  0  0  0  0  0
    3.0336    0.6122   -0.6187 N   0  0  0  0  0  0  0  0  0  0  0  0
    4.5000    0.1847   -1.1466 O   0  0  0  0  0  0  0  0  0  0  0  0
    4.2459   -0.6333   -1.6068 H   0  0  0  0  0  0  0  0  0  0  0  0
   -3.2896   -1.8167   -1.1060 N   0  0  0  0  0  0  0  0  0  0  0  0
   -4.4357   -1.5560   -0.7451 O   0  0  0  0  0  0  0  0  0  0  0  0
   -2.9701   -2.7882   -1.7885 O   0  0  0  0  0  0  0  0  0  0  0  0
  1  2  2  0  0  0  0
  1  6  1  0  0  0  0
  2  3  1  0  0  0  0
  3  4  2  0  0  0  0
  4  9  1  0  0  0  0
  5 10  1  0  0  0  0
  5  4  1  0  0  0  0
  6  5  2  0  0  0  0
  7  1  1  0  0  0  0
  8  2  1  0  0  0  0
 12 11  2  0  0  0  0
 13 12  1  0  0  0  0
 14 13  1  0  0  0  0
 15 16  2  0  0  0  0
 15  6  1  0  0  0  0
 17 15  2  0  0  0  0
M  RAD  2   3   2  11   2
M  END
