Coordinates from ORCA-job 4-NO2-Ph-N2-OH-B3LYPG-6-31G_dp-MTMO-d009-169-n900
 OpenBabel09051908023D

 17 16  0  0  0  0  0  0  0  0999 V2000
    0.5737    0.7938    0.5483 C   0  0  0  0  0  0  0  0  0  0  0  0
    0.3804    1.2622    1.8389 C   0  0  0  0  0  0  0  0  0  0  0  0
   -0.8017    0.9460    2.5268 C   0  0  0  0  0  0  0  0  0  0  0  0
   -1.7874    0.1576    1.9136 C   0  0  0  0  0  0  0  0  0  0  0  0
   -1.5954   -0.3125    0.6208 C   0  0  0  0  0  0  0  0  0  0  0  0
   -0.4165    0.0102   -0.0502 C   0  0  0  0  0  0  0  0  0  0  0  0
    1.4749    1.0220   -0.0069 H   0  0  0  0  0  0  0  0  0  0  0  0
    1.1277    1.8722    2.3343 H   0  0  0  0  0  0  0  0  0  0  0  0
   -2.7013   -0.0861    2.4500 H   0  0  0  0  0  0  0  0  0  0  0  0
   -2.3393   -0.9221    0.1234 H   0  0  0  0  0  0  0  0  0  0  0  0
    0.2498   -4.8365  -12.8809 N   0  0  0  0  0  0  0  0  0  0  0  0
    0.7074   -5.5043  -12.1284 N   0  0  0  0  0  0  0  0  0  0  0  0
   -0.9349    1.4330    3.7860 O   0  0  0  0  0  0  0  0  0  0  0  0
   -1.7842    1.1556    4.1546 H   0  0  0  0  0  0  0  0  0  0  0  0
   -0.2137   -0.4830   -1.4117 N   0  0  0  0  0  0  0  0  0  0  0  0
   -1.1060   -1.1707   -1.9120 O   0  0  0  0  0  0  0  0  0  0  0  0
    0.8376   -0.1828   -1.9797 O   0  0  0  0  0  0  0  0  0  0  0  0
  1  2  1  0  0  0  0
  2  8  1  0  0  0  0
  2  3  2  0  0  0  0
  3 13  1  0  0  0  0
  4  9  1  0  0  0  0
  4  3  1  0  0  0  0
  5  4  2  0  0  0  0
  6  1  2  0  0  0  0
  6  5  1  0  0  0  0
  7  1  1  0  0  0  0
 10  5  1  0  0  0  0
 11 12  3  0  0  0  0
 13 14  1  0  0  0  0
 15  6  1  0  0  0  0
 16 15  2  0  0  0  0
 17 15  2  0  0  0  0
M  END
