Coordinates from ORCA-job 4-NO2-Ph-N2-OH-B3LYPG-6-31G_dp-MTMO-d009-169-n900
 OpenBabel09051908013D

 17 16  0  0  0  0  0  0  0  0999 V2000
   -0.8913   -0.9248   -1.6380 C   0  0  0  0  0  0  0  0  0  0  0  0
    0.2598   -0.3118   -1.1662 C   0  0  0  0  0  0  0  0  0  0  0  0
    0.2698    0.2578    0.1170 C   0  0  0  0  0  0  0  0  0  0  0  0
   -0.8774    0.2098    0.9234 C   0  0  0  0  0  0  0  0  0  0  0  0
   -2.0312   -0.4039    0.4513 C   0  0  0  0  0  0  0  0  0  0  0  0
   -2.0273   -0.9655   -0.8250 C   0  0  0  0  0  0  0  0  0  0  0  0
   -0.9298   -1.3725   -2.6228 H   0  0  0  0  0  0  0  0  0  0  0  0
    1.1601   -0.2591   -1.7681 H   0  0  0  0  0  0  0  0  0  0  0  0
   -0.8645    0.6518    1.9163 H   0  0  0  0  0  0  0  0  0  0  0  0
   -2.9315   -0.4563    1.0507 H   0  0  0  0  0  0  0  0  0  0  0  0
    4.7043    1.2842   -1.9365 N   0  0  0  0  0  0  0  0  0  0  0  0
    3.7674    0.7415   -2.1575 N   0  0  0  0  0  0  0  0  0  0  0  0
    1.4248    0.8443    0.5240 O   0  0  0  0  0  0  0  0  0  0  0  0
    1.3144    1.1973    1.4170 H   0  0  0  0  0  0  0  0  0  0  0  0
   -3.2414   -1.6108   -1.3227 N   0  0  0  0  0  0  0  0  0  0  0  0
   -4.2280   -1.6249   -0.5840 O   0  0  0  0  0  0  0  0  0  0  0  0
   -3.2073   -2.1026   -2.4521 O   0  0  0  0  0  0  0  0  0  0  0  0
  1  2  2  0  0  0  0
  1  6  1  0  0  0  0
  2  3  1  0  0  0  0
  3 13  1  0  0  0  0
  3  4  2  0  0  0  0
  4  9  1  0  0  0  0
  5  4  1  0  0  0  0
  5 10  1  0  0  0  0
  6  5  2  0  0  0  0
  7  1  1  0  0  0  0
  8  2  1  0  0  0  0
 12 11  3  0  0  0  0
 13 14  1  0  0  0  0
 15  6  1  0  0  0  0
 15 16  2  0  0  0  0
 17 15  2  0  0  0  0
M  END
