Coordinates from ORCA-job 4-NO2-Ph-N2-OH-B3LYPG-6-31G_dp-MTMO-d009-169-n900
 OpenBabel09051908013D

 17 16  0  0  0  0  0  0  0  0999 V2000
    0.6225    0.5643   -0.0536 C   0  0  0  0  0  0  0  0  0  0  0  0
    0.4367    0.9908    1.2526 C   0  0  0  0  0  0  0  0  0  0  0  0
   -0.7434    0.6564    1.9353 C   0  0  0  0  0  0  0  0  0  0  0  0
   -1.7348   -0.1080    1.3011 C   0  0  0  0  0  0  0  0  0  0  0  0
   -1.5502   -0.5361   -0.0074 C   0  0  0  0  0  0  0  0  0  0  0  0
   -0.3733   -0.1956   -0.6729 C   0  0  0  0  0  0  0  0  0  0  0  0
    1.5221    0.8075   -0.6050 H   0  0  0  0  0  0  0  0  0  0  0  0
    1.1885    1.5815    1.7643 H   0  0  0  0  0  0  0  0  0  0  0  0
   -2.6470   -0.3662    1.8333 H   0  0  0  0  0  0  0  0  0  0  0  0
   -2.2987   -1.1263   -0.5211 H   0  0  0  0  0  0  0  0  0  0  0  0
   -0.1111   -2.9804   -8.2473 N   0  0  0  0  0  0  0  0  0  0  0  0
    0.3284   -3.7638   -7.6034 N   0  0  0  0  0  0  0  0  0  0  0  0
   -0.8688    1.1022    3.2104 O   0  0  0  0  0  0  0  0  0  0  0  0
   -1.7174    0.8161    3.5740 H   0  0  0  0  0  0  0  0  0  0  0  0
   -0.1785   -0.6449   -2.0507 N   0  0  0  0  0  0  0  0  0  0  0  0
   -1.0758   -1.3121   -2.5694 O   0  0  0  0  0  0  0  0  0  0  0  0
    0.8716   -0.3307   -2.6133 O   0  0  0  0  0  0  0  0  0  0  0  0
  1  2  1  0  0  0  0
  2  8  1  0  0  0  0
  2  3  2  0  0  0  0
  3 13  1  0  0  0  0
  4  9  1  0  0  0  0
  4  3  1  0  0  0  0
  5  4  2  0  0  0  0
  6  1  2  0  0  0  0
  6  5  1  0  0  0  0
  7  1  1  0  0  0  0
 10  5  1  0  0  0  0
 11 12  3  0  0  0  0
 13 14  1  0  0  0  0
 15  6  1  0  0  0  0
 16 15  2  0  0  0  0
 17 15  2  0  0  0  0
M  END
