Coordinates from ORCA-job 4-NO2-Ph-N2-OH-B3LYPG-6-31G_dp-MTMO-d009-169-n900
 OpenBabel09051908013D

 17 16  0  0  0  0  0  0  0  0999 V2000
    0.6170    0.5877    0.0084 C   0  0  0  0  0  0  0  0  0  0  0  0
    0.4313    1.0188    1.3130 C   0  0  0  0  0  0  0  0  0  0  0  0
   -0.7487    0.6868    1.9970 C   0  0  0  0  0  0  0  0  0  0  0  0
   -1.7402   -0.0799    1.3657 C   0  0  0  0  0  0  0  0  0  0  0  0
   -1.5557   -0.5126    0.0587 C   0  0  0  0  0  0  0  0  0  0  0  0
   -0.3789   -0.1745   -0.6081 C   0  0  0  0  0  0  0  0  0  0  0  0
    1.5165    0.8289   -0.5440 H   0  0  0  0  0  0  0  0  0  0  0  0
    1.1830    1.6114    1.8225 H   0  0  0  0  0  0  0  0  0  0  0  0
   -2.6523   -0.3362    1.8989 H   0  0  0  0  0  0  0  0  0  0  0  0
   -2.3042   -1.1048   -0.4528 H   0  0  0  0  0  0  0  0  0  0  0  0
   -0.0710   -3.1711   -8.7285 N   0  0  0  0  0  0  0  0  0  0  0  0
    0.3709   -3.9466   -8.0767 N   0  0  0  0  0  0  0  0  0  0  0  0
   -0.8741    1.1372    3.2705 O   0  0  0  0  0  0  0  0  0  0  0  0
   -1.7227    0.8523    3.6351 H   0  0  0  0  0  0  0  0  0  0  0  0
   -0.1842   -0.6287   -1.9843 N   0  0  0  0  0  0  0  0  0  0  0  0
   -1.0815   -1.2978   -2.5005 O   0  0  0  0  0  0  0  0  0  0  0  0
    0.8658   -0.3163   -2.5482 O   0  0  0  0  0  0  0  0  0  0  0  0
  1  2  1  0  0  0  0
  2  8  1  0  0  0  0
  2  3  2  0  0  0  0
  3 13  1  0  0  0  0
  4  9  1  0  0  0  0
  4  3  1  0  0  0  0
  5  4  2  0  0  0  0
  6  1  2  0  0  0  0
  6  5  1  0  0  0  0
  7  1  1  0  0  0  0
 10  5  1  0  0  0  0
 11 12  3  0  0  0  0
 13 14  1  0  0  0  0
 15  6  1  0  0  0  0
 16 15  2  0  0  0  0
 17 15  2  0  0  0  0
M  END
