Coordinates from ORCA-job 4-NO2-Ph-N2-OH-B3LYPG-6-31G_dp-MTMO-d009-169-n900
 OpenBabel09051908013D

 17 16  0  0  0  0  0  0  0  0999 V2000
   -0.9093   -1.0043   -1.6609 C   0  0  0  0  0  0  0  0  0  0  0  0
    0.2770   -0.4294   -1.2303 C   0  0  0  0  0  0  0  0  0  0  0  0
    0.3365    0.1856    0.0302 C   0  0  0  0  0  0  0  0  0  0  0  0
   -0.7974    0.2212    0.8558 C   0  0  0  0  0  0  0  0  0  0  0  0
   -1.9866   -0.3542    0.4252 C   0  0  0  0  0  0  0  0  0  0  0  0
   -2.0314   -0.9618   -0.8290 C   0  0  0  0  0  0  0  0  0  0  0  0
   -0.9856   -1.4851   -2.6278 H   0  0  0  0  0  0  0  0  0  0  0  0
    1.1675   -0.4417   -1.8488 H   0  0  0  0  0  0  0  0  0  0  0  0
   -0.7470    0.6981    1.8314 H   0  0  0  0  0  0  0  0  0  0  0  0
   -2.8777   -0.3414    1.0403 H   0  0  0  0  0  0  0  0  0  0  0  0
    4.3369    1.5683   -1.4835 N   0  0  0  0  0  0  0  0  0  0  0  0
    3.7453    0.8246   -2.0474 N   0  0  0  0  0  0  0  0  0  0  0  0
    1.5246    0.7313    0.3969 O   0  0  0  0  0  0  0  0  0  0  0  0
    1.4481    1.1193    1.2789 H   0  0  0  0  0  0  0  0  0  0  0  0
   -3.2828   -1.5673   -1.2827 N   0  0  0  0  0  0  0  0  0  0  0  0
   -4.2549   -1.5100   -0.5272 O   0  0  0  0  0  0  0  0  0  0  0  0
   -3.2922   -2.0988   -2.3944 O   0  0  0  0  0  0  0  0  0  0  0  0
  1  2  2  0  0  0  0
  1  6  1  0  0  0  0
  2  3  1  0  0  0  0
  3 13  1  0  0  0  0
  3  4  2  0  0  0  0
  4  9  1  0  0  0  0
  5  4  1  0  0  0  0
  5 10  1  0  0  0  0
  6  5  2  0  0  0  0
  7  1  1  0  0  0  0
  8  2  1  0  0  0  0
 12 11  3  0  0  0  0
 13 14  1  0  0  0  0
 15  6  1  0  0  0  0
 15 16  2  0  0  0  0
 17 15  2  0  0  0  0
M  END
