Coordinates from ORCA-job 4-NO2-Ph-N2-OH-B3LYPG-6-31G_dp-MTMO-d009-169-n900
 OpenBabel09051908013D

 17 16  0  0  0  0  0  0  0  0999 V2000
    0.6222    0.5657   -0.0498 C   0  0  0  0  0  0  0  0  0  0  0  0
    0.4364    0.9924    1.2562 C   0  0  0  0  0  0  0  0  0  0  0  0
   -0.7437    0.6582    1.9390 C   0  0  0  0  0  0  0  0  0  0  0  0
   -1.7351   -0.1063    1.3050 C   0  0  0  0  0  0  0  0  0  0  0  0
   -1.5506   -0.5346   -0.0034 C   0  0  0  0  0  0  0  0  0  0  0  0
   -0.3737   -0.1944   -0.6690 C   0  0  0  0  0  0  0  0  0  0  0  0
    1.5217    0.8088   -0.6014 H   0  0  0  0  0  0  0  0  0  0  0  0
    1.1882    1.5832    1.7678 H   0  0  0  0  0  0  0  0  0  0  0  0
   -2.6473   -0.3644    1.8373 H   0  0  0  0  0  0  0  0  0  0  0  0
   -2.2990   -1.1250   -0.5169 H   0  0  0  0  0  0  0  0  0  0  0  0
   -0.1086   -2.9920   -8.2765 N   0  0  0  0  0  0  0  0  0  0  0  0
    0.3310   -3.7749   -7.6320 N   0  0  0  0  0  0  0  0  0  0  0  0
   -0.8691    1.1043    3.2140 O   0  0  0  0  0  0  0  0  0  0  0  0
   -1.7177    0.8182    3.5777 H   0  0  0  0  0  0  0  0  0  0  0  0
   -0.1788   -0.6439   -2.0467 N   0  0  0  0  0  0  0  0  0  0  0  0
   -1.0762   -1.3113   -2.5652 O   0  0  0  0  0  0  0  0  0  0  0  0
    0.8712   -0.3298   -2.6094 O   0  0  0  0  0  0  0  0  0  0  0  0
  1  2  1  0  0  0  0
  2  8  1  0  0  0  0
  2  3  2  0  0  0  0
  3 13  1  0  0  0  0
  4  9  1  0  0  0  0
  4  3  1  0  0  0  0
  5  4  2  0  0  0  0
  6  1  2  0  0  0  0
  6  5  1  0  0  0  0
  7  1  1  0  0  0  0
 10  5  1  0  0  0  0
 11 12  3  0  0  0  0
 13 14  1  0  0  0  0
 15  6  1  0  0  0  0
 16 15  2  0  0  0  0
 17 15  2  0  0  0  0
M  END
