Coordinates from ORCA-job 4-NO2-Ph-N2-OH-B3LYPG-6-31G_dp-MTMO-d009-169-n900
 OpenBabel09051908013D

 17 16  0  0  0  0  0  0  0  0999 V2000
   -0.9120   -0.9916   -1.6592 C   0  0  0  0  0  0  0  0  0  0  0  0
    0.2692   -0.4093   -1.2245 C   0  0  0  0  0  0  0  0  0  0  0  0
    0.3230    0.1979    0.0400 C   0  0  0  0  0  0  0  0  0  0  0  0
   -0.8116    0.2183    0.8653 C   0  0  0  0  0  0  0  0  0  0  0  0
   -1.9956   -0.3645    0.4306 C   0  0  0  0  0  0  0  0  0  0  0  0
   -2.0347   -0.9642   -0.8276 C   0  0  0  0  0  0  0  0  0  0  0  0
   -0.9837   -1.4668   -2.6293 H   0  0  0  0  0  0  0  0  0  0  0  0
    1.1602   -0.4099   -1.8424 H   0  0  0  0  0  0  0  0  0  0  0  0
   -0.7656    0.6892    1.8440 H   0  0  0  0  0  0  0  0  0  0  0  0
   -2.8870   -0.3635    1.0454 H   0  0  0  0  0  0  0  0  0  0  0  0
    4.4456    1.5302   -1.5631 N   0  0  0  0  0  0  0  0  0  0  0  0
    3.7499    0.8168   -2.0407 N   0  0  0  0  0  0  0  0  0  0  0  0
    1.5063    0.7515    0.4106 O   0  0  0  0  0  0  0  0  0  0  0  0
    1.4262    1.1330    1.2951 H   0  0  0  0  0  0  0  0  0  0  0  0
   -3.2807   -1.5773   -1.2858 N   0  0  0  0  0  0  0  0  0  0  0  0
   -4.2537   -1.5330   -0.5306 O   0  0  0  0  0  0  0  0  0  0  0  0
   -3.2850   -2.1021   -2.4008 O   0  0  0  0  0  0  0  0  0  0  0  0
  1  2  2  0  0  0  0
  1  6  1  0  0  0  0
  2  3  1  0  0  0  0
  3 13  1  0  0  0  0
  3  4  2  0  0  0  0
  4  9  1  0  0  0  0
  5  4  1  0  0  0  0
  5 10  1  0  0  0  0
  6  5  2  0  0  0  0
  7  1  1  0  0  0  0
  8  2  1  0  0  0  0
 12 11  3  0  0  0  0
 13 14  1  0  0  0  0
 15  6  1  0  0  0  0
 15 16  2  0  0  0  0
 17 15  2  0  0  0  0
M  END
