Coordinates from ORCA-job 4-NO2-Ph-N2-OH-B3LYPG-6-31G_dp-MTMO-d009-169-n900
 OpenBabel09051908013D

 17 16  0  0  0  0  0  0  0  0999 V2000
   -1.0058   -1.3365   -1.1860 C   0  0  0  0  0  0  0  0  0  0  0  0
    0.1223   -0.5619   -0.8785 C   0  0  0  0  0  0  0  0  0  0  0  0
   -0.1169    0.5437   -0.1211 C   0  0  0  0  0  0  0  0  0  0  0  0
   -1.2974    1.0161    0.3883 C   0  0  0  0  0  0  0  0  0  0  0  0
   -2.4191    0.2323    0.0742 C   0  0  0  0  0  0  0  0  0  0  0  0
   -2.2475   -0.9176   -0.7006 C   0  0  0  0  0  0  0  0  0  0  0  0
   -0.9392   -2.2396   -1.7813 H   0  0  0  0  0  0  0  0  0  0  0  0
    1.1277   -0.8191   -1.2185 H   0  0  0  0  0  0  0  0  0  0  0  0
   -1.3828    1.9178    0.9848 H   0  0  0  0  0  0  0  0  0  0  0  0
   -3.4105    0.5007    0.4198 H   0  0  0  0  0  0  0  0  0  0  0  0
    2.5308    1.5068    0.0412 N   0  0  0  0  0  0  0  0  0  0  0  0
    2.9595    0.6226   -0.5949 N   0  0  0  0  0  0  0  0  0  0  0  0
    4.4354    0.6546   -0.8297 O   0  0  0  0  0  0  0  0  0  0  0  0
    4.5382   -0.1571   -1.3531 H   0  0  0  0  0  0  0  0  0  0  0  0
   -3.4355   -1.7276   -1.0227 N   0  0  0  0  0  0  0  0  0  0  0  0
   -4.5210   -1.3434   -0.5910 O   0  0  0  0  0  0  0  0  0  0  0  0
   -3.2674   -2.7374   -1.7042 O   0  0  0  0  0  0  0  0  0  0  0  0
  1  2  2  0  0  0  0
  1  6  1  0  0  0  0
  2  3  1  0  0  0  0
  3  4  2  0  0  0  0
  4  9  1  0  0  0  0
  5  4  1  0  0  0  0
  5 10  1  0  0  0  0
  6  5  2  0  0  0  0
  7  1  1  0  0  0  0
  8  2  1  0  0  0  0
 12 11  2  0  0  0  0
 13 12  1  0  0  0  0
 14 13  1  0  0  0  0
 15  6  1  0  0  0  0
 15 16  2  0  0  0  0
 17 15  2  0  0  0  0
M  RAD  2   3   2  11   2
M  END
