Coordinates from ORCA-job 4-NO2-Ph-N2-OH-B3LYPG-6-31G_dp-MTMO-d009-169-n900
 OpenBabel09051908013D

 17 16  0  0  0  0  0  0  0  0999 V2000
   -0.9076   -1.1637   -1.0893 C   0  0  0  0  0  0  0  0  0  0  0  0
    0.1063   -0.2760   -0.6885 C   0  0  0  0  0  0  0  0  0  0  0  0
   -0.3176    0.7688    0.0604 C   0  0  0  0  0  0  0  0  0  0  0  0
   -1.5686    1.1093    0.4958 C   0  0  0  0  0  0  0  0  0  0  0  0
   -2.5716    0.2128    0.0882 C   0  0  0  0  0  0  0  0  0  0  0  0
   -2.2185   -0.8935   -0.6891 C   0  0  0  0  0  0  0  0  0  0  0  0
   -0.6967   -2.0397   -1.6921 H   0  0  0  0  0  0  0  0  0  0  0  0
    1.1586   -0.4246   -0.9661 H   0  0  0  0  0  0  0  0  0  0  0  0
   -1.7969    1.9821    1.0983 H   0  0  0  0  0  0  0  0  0  0  0  0
   -3.6085    0.3644    0.3657 H   0  0  0  0  0  0  0  0  0  0  0  0
    2.9585    1.5732    0.0042 N   0  0  0  0  0  0  0  0  0  0  0  0
    3.0370    0.6172   -0.6162 N   0  0  0  0  0  0  0  0  0  0  0  0
    4.5254    0.1582   -1.1691 O   0  0  0  0  0  0  0  0  0  0  0  0
    4.2463   -0.6563   -1.6212 H   0  0  0  0  0  0  0  0  0  0  0  0
   -3.2847   -1.8210   -1.1097 N   0  0  0  0  0  0  0  0  0  0  0  0
   -4.4332   -1.5663   -0.7527 O   0  0  0  0  0  0  0  0  0  0  0  0
   -2.9573   -2.7902   -1.7916 O   0  0  0  0  0  0  0  0  0  0  0  0
  1  6  2  0  0  0  0
  1  2  1  0  0  0  0
  2  3  2  0  0  0  0
  3  4  1  0  0  0  0
  4  9  1  0  0  0  0
  5 10  1  0  0  0  0
  5  4  2  0  0  0  0
  6  5  1  0  0  0  0
  7  1  1  0  0  0  0
  8  2  1  0  0  0  0
 12 11  2  0  0  0  0
 13 12  1  0  0  0  0
 14 13  1  0  0  0  0
 15 16  2  0  0  0  0
 15  6  1  0  0  0  0
 17 15  2  0  0  0  0
M  RAD  2   3   2  11   2
M  END
