Coordinates from ORCA-job 4-NO2-Ph-N2-OH-B3LYPG-6-31G_dp-MTMO-d009-169-n900
 OpenBabel09051908013D

 17 16  0  0  0  0  0  0  0  0999 V2000
    0.6259    0.5510   -0.0890 C   0  0  0  0  0  0  0  0  0  0  0  0
    0.4397    0.9748    1.2180 C   0  0  0  0  0  0  0  0  0  0  0  0
   -0.7405    0.6390    1.8998 C   0  0  0  0  0  0  0  0  0  0  0  0
   -1.7317   -0.1242    1.2638 C   0  0  0  0  0  0  0  0  0  0  0  0
   -1.5468   -0.5497   -0.0455 C   0  0  0  0  0  0  0  0  0  0  0  0
   -0.3698   -0.2078   -0.7101 C   0  0  0  0  0  0  0  0  0  0  0  0
    1.5256    0.7954   -0.6397 H   0  0  0  0  0  0  0  0  0  0  0  0
    1.1913    1.5646    1.7310 H   0  0  0  0  0  0  0  0  0  0  0  0
   -2.6440   -0.3837    1.7952 H   0  0  0  0  0  0  0  0  0  0  0  0
   -2.2950   -1.1390   -0.5606 H   0  0  0  0  0  0  0  0  0  0  0  0
   -0.1353   -2.8705   -7.9703 N   0  0  0  0  0  0  0  0  0  0  0  0
    0.3031   -3.6590   -7.3319 N   0  0  0  0  0  0  0  0  0  0  0  0
   -0.8663    1.0823    3.1757 O   0  0  0  0  0  0  0  0  0  0  0  0
   -1.7149    0.7953    3.5385 H   0  0  0  0  0  0  0  0  0  0  0  0
   -0.1744   -0.6544   -2.0887 N   0  0  0  0  0  0  0  0  0  0  0  0
   -1.0716   -1.3206   -2.6089 O   0  0  0  0  0  0  0  0  0  0  0  0
    0.8758   -0.3390   -2.6504 O   0  0  0  0  0  0  0  0  0  0  0  0
  1  2  1  0  0  0  0
  2  8  1  0  0  0  0
  2  3  2  0  0  0  0
  3 13  1  0  0  0  0
  4  9  1  0  0  0  0
  4  3  1  0  0  0  0
  5  4  2  0  0  0  0
  6  1  2  0  0  0  0
  6  5  1  0  0  0  0
  7  1  1  0  0  0  0
 10  5  1  0  0  0  0
 11 12  3  0  0  0  0
 13 14  1  0  0  0  0
 15  6  1  0  0  0  0
 16 15  2  0  0  0  0
 17 15  2  0  0  0  0
M  END
