Coordinates from ORCA-job 4-NO2-Ph-N2-OH-B3LYPG-6-31G_dp-MTMO-d009-169-n900
 OpenBabel09051908023D

 17 16  0  0  0  0  0  0  0  0999 V2000
    0.5749    0.7879    0.5333 C   0  0  0  0  0  0  0  0  0  0  0  0
    0.3818    1.2555    1.8242 C   0  0  0  0  0  0  0  0  0  0  0  0
   -0.8002    0.9390    2.5120 C   0  0  0  0  0  0  0  0  0  0  0  0
   -1.7861    0.1512    1.8984 C   0  0  0  0  0  0  0  0  0  0  0  0
   -1.5943   -0.3182    0.6053 C   0  0  0  0  0  0  0  0  0  0  0  0
   -0.4155    0.0048   -0.0656 C   0  0  0  0  0  0  0  0  0  0  0  0
    1.4761    1.0164   -0.0219 H   0  0  0  0  0  0  0  0  0  0  0  0
    1.1292    1.8651    2.3199 H   0  0  0  0  0  0  0  0  0  0  0  0
   -2.6999   -0.0929    2.4348 H   0  0  0  0  0  0  0  0  0  0  0  0
   -2.3384   -0.9273    0.1075 H   0  0  0  0  0  0  0  0  0  0  0  0
    0.2399   -4.7892  -12.7645 N   0  0  0  0  0  0  0  0  0  0  0  0
    0.6993   -5.4614  -12.0170 N   0  0  0  0  0  0  0  0  0  0  0  0
   -0.9332    1.4252    3.7715 O   0  0  0  0  0  0  0  0  0  0  0  0
   -1.7825    1.1477    4.1401 H   0  0  0  0  0  0  0  0  0  0  0  0
   -0.2130   -0.4875   -1.4275 N   0  0  0  0  0  0  0  0  0  0  0  0
   -1.1054   -1.1747   -1.9282 O   0  0  0  0  0  0  0  0  0  0  0  0
    0.8383   -0.1871   -1.9954 O   0  0  0  0  0  0  0  0  0  0  0  0
  1  2  1  0  0  0  0
  2  8  1  0  0  0  0
  2  3  2  0  0  0  0
  3 13  1  0  0  0  0
  4  9  1  0  0  0  0
  4  3  1  0  0  0  0
  5  4  2  0  0  0  0
  6  1  2  0  0  0  0
  6  5  1  0  0  0  0
  7  1  1  0  0  0  0
 10  5  1  0  0  0  0
 11 12  3  0  0  0  0
 13 14  1  0  0  0  0
 15  6  1  0  0  0  0
 16 15  2  0  0  0  0
 17 15  2  0  0  0  0
M  END
