Coordinates from ORCA-job 4-NO2-Ph-N2-OH-B3LYPG-6-31G_dp-MTMO-d009-169-n900
 OpenBabel09051908023D

 17 16  0  0  0  0  0  0  0  0999 V2000
    0.5831    0.7479    0.4296 C   0  0  0  0  0  0  0  0  0  0  0  0
    0.3915    1.2093    1.7230 C   0  0  0  0  0  0  0  0  0  0  0  0
   -0.7901    0.8904    2.4104 C   0  0  0  0  0  0  0  0  0  0  0  0
   -1.7772    0.1063    1.7939 C   0  0  0  0  0  0  0  0  0  0  0  0
   -1.5869   -0.3569    0.4983 C   0  0  0  0  0  0  0  0  0  0  0  0
   -0.4085   -0.0315   -0.1721 C   0  0  0  0  0  0  0  0  0  0  0  0
    1.4839    0.9784   -0.1253 H   0  0  0  0  0  0  0  0  0  0  0  0
    1.1399    1.8159    2.2209 H   0  0  0  0  0  0  0  0  0  0  0  0
   -2.6906   -0.1397    2.3299 H   0  0  0  0  0  0  0  0  0  0  0  0
   -2.3319   -0.9631   -0.0017 H   0  0  0  0  0  0  0  0  0  0  0  0
    0.1759   -4.4636  -11.9639 N   0  0  0  0  0  0  0  0  0  0  0  0
    0.6393   -5.1673  -11.2486 N   0  0  0  0  0  0  0  0  0  0  0  0
   -0.9215    1.3706    3.6724 O   0  0  0  0  0  0  0  0  0  0  0  0
   -1.7706    1.0919    4.0404 H   0  0  0  0  0  0  0  0  0  0  0  0
   -0.2076   -0.5174   -1.5366 N   0  0  0  0  0  0  0  0  0  0  0  0
   -1.1011   -1.2015   -2.0397 O   0  0  0  0  0  0  0  0  0  0  0  0
    0.8433   -0.2151   -2.1040 O   0  0  0  0  0  0  0  0  0  0  0  0
  1  2  1  0  0  0  0
  2  8  1  0  0  0  0
  2  3  2  0  0  0  0
  3 13  1  0  0  0  0
  4  9  1  0  0  0  0
  4  3  1  0  0  0  0
  5  4  2  0  0  0  0
  6  1  2  0  0  0  0
  6  5  1  0  0  0  0
  7  1  1  0  0  0  0
 10  5  1  0  0  0  0
 11 12  3  0  0  0  0
 13 14  1  0  0  0  0
 15  6  1  0  0  0  0
 16 15  2  0  0  0  0
 17 15  2  0  0  0  0
M  END
