Coordinates from ORCA-job 4-NO2-Ph-N2-OH-B3LYPG-6-31G_dp-MTMO-d009-169-n900
 OpenBabel09051908023D

 17 16  0  0  0  0  0  0  0  0999 V2000
    0.5896    0.7159    0.3463 C   0  0  0  0  0  0  0  0  0  0  0  0
    0.3994    1.1720    1.6418 C   0  0  0  0  0  0  0  0  0  0  0  0
   -0.7818    0.8508    2.3288 C   0  0  0  0  0  0  0  0  0  0  0  0
   -1.7699    0.0698    1.7099 C   0  0  0  0  0  0  0  0  0  0  0  0
   -1.5809   -0.3879    0.4121 C   0  0  0  0  0  0  0  0  0  0  0  0
   -0.4030   -0.0603   -0.2579 C   0  0  0  0  0  0  0  0  0  0  0  0
    1.4900    0.9484   -0.2084 H   0  0  0  0  0  0  0  0  0  0  0  0
    1.1485    1.7760    2.1417 H   0  0  0  0  0  0  0  0  0  0  0  0
   -2.6830   -0.1779    2.2456 H   0  0  0  0  0  0  0  0  0  0  0  0
   -2.3267   -0.9915   -0.0898 H   0  0  0  0  0  0  0  0  0  0  0  0
    0.1279   -4.2043  -11.3232 N   0  0  0  0  0  0  0  0  0  0  0  0
    0.5875   -4.9295  -10.6271 N   0  0  0  0  0  0  0  0  0  0  0  0
   -0.9118    1.3256    3.5930 O   0  0  0  0  0  0  0  0  0  0  0  0
   -1.7608    1.0459    3.9606 H   0  0  0  0  0  0  0  0  0  0  0  0
   -0.2035   -0.5405   -1.6246 N   0  0  0  0  0  0  0  0  0  0  0  0
   -1.0979   -1.2218   -2.1299 O   0  0  0  0  0  0  0  0  0  0  0  0
    0.8471   -0.2364   -2.1917 O   0  0  0  0  0  0  0  0  0  0  0  0
  1  2  1  0  0  0  0
  2  8  1  0  0  0  0
  2  3  2  0  0  0  0
  3 13  1  0  0  0  0
  4  9  1  0  0  0  0
  4  3  1  0  0  0  0
  5  4  2  0  0  0  0
  6  1  2  0  0  0  0
  6  5  1  0  0  0  0
  7  1  1  0  0  0  0
 10  5  1  0  0  0  0
 11 12  3  0  0  0  0
 13 14  1  0  0  0  0
 15  6  1  0  0  0  0
 16 15  2  0  0  0  0
 17 15  2  0  0  0  0
M  END
