Coordinates from ORCA-job 4-NO2-Ph-N2-OH-B3LYPG-6-31G_dp-MTMO-d009-169-n900
 OpenBabel09051908023D

 17 16  0  0  0  0  0  0  0  0999 V2000
    0.5857    0.7348    0.3956 C   0  0  0  0  0  0  0  0  0  0  0  0
    0.3947    1.1941    1.6898 C   0  0  0  0  0  0  0  0  0  0  0  0
   -0.7867    0.8743    2.3770 C   0  0  0  0  0  0  0  0  0  0  0  0
   -1.7742    0.0914    1.7596 C   0  0  0  0  0  0  0  0  0  0  0  0
   -1.5844   -0.3696    0.4631 C   0  0  0  0  0  0  0  0  0  0  0  0
   -0.4062   -0.0433   -0.2072 C   0  0  0  0  0  0  0  0  0  0  0  0
    1.4864    0.9661   -0.1593 H   0  0  0  0  0  0  0  0  0  0  0  0
    1.1434    1.7997    2.1885 H   0  0  0  0  0  0  0  0  0  0  0  0
   -2.6875   -0.1553    2.2955 H   0  0  0  0  0  0  0  0  0  0  0  0
   -2.3298   -0.9748   -0.0376 H   0  0  0  0  0  0  0  0  0  0  0  0
    0.1561   -4.3573  -11.7019 N   0  0  0  0  0  0  0  0  0  0  0  0
    0.6183   -5.0704  -10.9951 N   0  0  0  0  0  0  0  0  0  0  0  0
   -0.9175    1.3523    3.6399 O   0  0  0  0  0  0  0  0  0  0  0  0
   -1.7667    1.0733    4.0078 H   0  0  0  0  0  0  0  0  0  0  0  0
   -0.2059   -0.5269   -1.5725 N   0  0  0  0  0  0  0  0  0  0  0  0
   -1.0997   -1.2099   -2.0765 O   0  0  0  0  0  0  0  0  0  0  0  0
    0.8449   -0.2239   -2.1398 O   0  0  0  0  0  0  0  0  0  0  0  0
  1  2  1  0  0  0  0
  2  8  1  0  0  0  0
  2  3  2  0  0  0  0
  3 13  1  0  0  0  0
  4  9  1  0  0  0  0
  4  3  1  0  0  0  0
  5  4  2  0  0  0  0
  6  1  2  0  0  0  0
  6  5  1  0  0  0  0
  7  1  1  0  0  0  0
 10  5  1  0  0  0  0
 11 12  3  0  0  0  0
 13 14  1  0  0  0  0
 15  6  1  0  0  0  0
 16 15  2  0  0  0  0
 17 15  2  0  0  0  0
M  END
