Coordinates from ORCA-job 4-NO2-Ph-N2-OH-B3LYPG-6-31G_dp-MTMO-d009-169-n900
 OpenBabel09051908013D

 17 16  0  0  0  0  0  0  0  0999 V2000
   -1.0575   -1.4782   -1.2653 C   0  0  0  0  0  0  0  0  0  0  0  0
    0.1675   -0.8366   -1.0586 C   0  0  0  0  0  0  0  0  0  0  0  0
    0.1327    0.3136   -0.3091 C   0  0  0  0  0  0  0  0  0  0  0  0
   -0.9712    0.9044    0.2605 C   0  0  0  0  0  0  0  0  0  0  0  0
   -2.1930    0.2564    0.0490 C   0  0  0  0  0  0  0  0  0  0  0  0
   -2.2083   -0.9172   -0.7073 C   0  0  0  0  0  0  0  0  0  0  0  0
   -1.1356   -2.3921   -1.8413 H   0  0  0  0  0  0  0  0  0  0  0  0
    1.1014   -1.2149   -1.4620 H   0  0  0  0  0  0  0  0  0  0  0  0
   -0.8993    1.8193    0.8370 H   0  0  0  0  0  0  0  0  0  0  0  0
   -3.1205    0.6411    0.4547 H   0  0  0  0  0  0  0  0  0  0  0  0
    1.9747    1.2932    0.0076 N   0  0  0  0  0  0  0  0  0  0  0  0
    2.7393    0.5737   -0.5891 N   0  0  0  0  0  0  0  0  0  0  0  0
    4.0702    1.0810   -0.4911 O   0  0  0  0  0  0  0  0  0  0  0  0
    4.5610    0.4182   -1.0012 H   0  0  0  0  0  0  0  0  0  0  0  0
   -3.4982   -1.5948   -0.9284 N   0  0  0  0  0  0  0  0  0  0  0  0
   -4.5007   -1.0873   -0.4288 O   0  0  0  0  0  0  0  0  0  0  0  0
   -3.4915   -2.6253   -1.5997 O   0  0  0  0  0  0  0  0  0  0  0  0
  1  2  2  0  0  0  0
  1  6  1  0  0  0  0
  2  3  1  0  0  0  0
  3  4  2  0  0  0  0
  4  9  1  0  0  0  0
  5  4  1  0  0  0  0
  5 10  1  0  0  0  0
  6  5  2  0  0  0  0
  7  1  1  0  0  0  0
  8  2  1  0  0  0  0
 12 13  1  0  0  0  0
 12 11  1  0  0  0  0
 14 13  1  0  0  0  0
 15  6  1  0  0  0  0
 15 16  2  0  0  0  0
 17 15  2  0  0  0  0
M  RAD  3   3   2  11   3  12   2
M  END
