Coordinates from ORCA-job 4-NO2-Ph-N2-OH-B3LYPG-6-31G_dp-MTMO-d009-169-n900
 OpenBabel09051908013D

 17 17  0  0  0  0  0  0  0  0999 V2000
   -1.0397   -1.4942   -1.2753 C   0  0  0  0  0  0  0  0  0  0  0  0
    0.2010   -0.8861   -1.0896 C   0  0  0  0  0  0  0  0  0  0  0  0
    0.2413    0.2806   -0.3435 C   0  0  0  0  0  0  0  0  0  0  0  0
   -0.8681    0.8794    0.2285 C   0  0  0  0  0  0  0  0  0  0  0  0
   -2.1096    0.2710    0.0423 C   0  0  0  0  0  0  0  0  0  0  0  0
   -2.1699   -0.9042   -0.7065 C   0  0  0  0  0  0  0  0  0  0  0  0
   -1.1478   -2.4084   -1.8453 H   0  0  0  0  0  0  0  0  0  0  0  0
    1.1090   -1.3023   -1.5097 H   0  0  0  0  0  0  0  0  0  0  0  0
   -0.7610    1.7945    0.7994 H   0  0  0  0  0  0  0  0  0  0  0  0
   -3.0187    0.6843    0.4600 H   0  0  0  0  0  0  0  0  0  0  0  0
    1.7424    1.1364   -0.0405 N   0  0  0  0  0  0  0  0  0  0  0  0
    2.6256    0.5115   -0.6160 N   0  0  0  0  0  0  0  0  0  0  0  0
    3.8521    1.1542   -0.4059 O   0  0  0  0  0  0  0  0  0  0  0  0
    4.4638    0.5844   -0.8969 H   0  0  0  0  0  0  0  0  0  0  0  0
   -3.4792   -1.5494   -0.9063 N   0  0  0  0  0  0  0  0  0  0  0  0
   -4.4613   -1.0145   -0.3943 O   0  0  0  0  0  0  0  0  0  0  0  0
   -3.5088   -2.5826   -1.5733 O   0  0  0  0  0  0  0  0  0  0  0  0
  1  2  2  0  0  0  0
  1  6  1  0  0  0  0
  2  3  1  0  0  0  0
  3 11  1  0  0  0  0
  3  4  2  0  0  0  0
  4  9  1  0  0  0  0
  5  4  1  0  0  0  0
  5 10  1  0  0  0  0
  6  5  2  0  0  0  0
  7  1  1  0  0  0  0
  8  2  1  0  0  0  0
 12 13  1  0  0  0  0
 12 11  1  0  0  0  0
 14 13  1  0  0  0  0
 15  6  1  0  0  0  0
 15 16  2  0  0  0  0
 17 15  2  0  0  0  0
M  RAD  2  11   2  12   2
M  END
