Coordinates from ORCA-job 4-NO2-Ph-N2-OH-B3LYPG-6-31G_dp-MTMO-d009-169-n900
 OpenBabel09051908013D

 17 16  0  0  0  0  0  0  0  0999 V2000
    0.6315    0.5303   -0.1443 C   0  0  0  0  0  0  0  0  0  0  0  0
    0.4441    0.9502    1.1638 C   0  0  0  0  0  0  0  0  0  0  0  0
   -0.7365    0.6118    1.8437 C   0  0  0  0  0  0  0  0  0  0  0  0
   -1.7269   -0.1499    1.2047 C   0  0  0  0  0  0  0  0  0  0  0  0
   -1.5408   -0.5715   -0.1058 C   0  0  0  0  0  0  0  0  0  0  0  0
   -0.3634   -0.2272   -0.7684 C   0  0  0  0  0  0  0  0  0  0  0  0
    1.5315    0.7767   -0.6935 H   0  0  0  0  0  0  0  0  0  0  0  0
    1.1950    1.5387    1.6791 H   0  0  0  0  0  0  0  0  0  0  0  0
   -2.6395   -0.4113    1.7346 H   0  0  0  0  0  0  0  0  0  0  0  0
   -2.2884   -1.1596   -0.6231 H   0  0  0  0  0  0  0  0  0  0  0  0
   -0.1761   -2.6965   -7.5330 N   0  0  0  0  0  0  0  0  0  0  0  0
    0.2621   -3.4945   -6.9064 N   0  0  0  0  0  0  0  0  0  0  0  0
   -0.8635    1.0513    3.1208 O   0  0  0  0  0  0  0  0  0  0  0  0
   -1.7122    0.7629    3.4822 H   0  0  0  0  0  0  0  0  0  0  0  0
   -0.1667   -0.6697   -2.1481 N   0  0  0  0  0  0  0  0  0  0  0  0
   -1.0632   -1.3347   -2.6711 O   0  0  0  0  0  0  0  0  0  0  0  0
    0.8839   -0.3525   -2.7081 O   0  0  0  0  0  0  0  0  0  0  0  0
  1  2  1  0  0  0  0
  2  8  1  0  0  0  0
  2  3  2  0  0  0  0
  3 13  1  0  0  0  0
  4  9  1  0  0  0  0
  4  3  1  0  0  0  0
  5  4  2  0  0  0  0
  6  1  2  0  0  0  0
  6  5  1  0  0  0  0
  7  1  1  0  0  0  0
 10  5  1  0  0  0  0
 11 12  3  0  0  0  0
 13 14  1  0  0  0  0
 15  6  1  0  0  0  0
 16 15  2  0  0  0  0
 17 15  2  0  0  0  0
M  END
