Coordinates from ORCA-job 4-NO2-Ph-N2-OH-B3LYPG-6-31G_dp-MTMO-d009-169-n900
 OpenBabel09051908013D

 17 16  0  0  0  0  0  0  0  0999 V2000
    0.6093    0.6220    0.0992 C   0  0  0  0  0  0  0  0  0  0  0  0
    0.4229    1.0600    1.4014 C   0  0  0  0  0  0  0  0  0  0  0  0
   -0.7572    0.7312    2.0867 C   0  0  0  0  0  0  0  0  0  0  0  0
   -1.7481   -0.0392    1.4591 C   0  0  0  0  0  0  0  0  0  0  0  0
   -1.5630   -0.4789    0.1546 C   0  0  0  0  0  0  0  0  0  0  0  0
   -0.3861   -0.1439   -0.5136 C   0  0  0  0  0  0  0  0  0  0  0  0
    1.5089    0.8606   -0.4542 H   0  0  0  0  0  0  0  0  0  0  0  0
    1.1743    1.6557    1.9080 H   0  0  0  0  0  0  0  0  0  0  0  0
   -2.6604   -0.2930    1.9934 H   0  0  0  0  0  0  0  0  0  0  0  0
   -2.3110   -1.0741   -0.3540 H   0  0  0  0  0  0  0  0  0  0  0  0
   -0.0151   -3.4483   -9.4285 N   0  0  0  0  0  0  0  0  0  0  0  0
    0.4305   -4.2130   -8.7665 N   0  0  0  0  0  0  0  0  0  0  0  0
   -0.8833    1.1884    3.3577 O   0  0  0  0  0  0  0  0  0  0  0  0
   -1.7319    0.9051    3.7235 H   0  0  0  0  0  0  0  0  0  0  0  0
   -0.1907   -0.6053   -1.8873 N   0  0  0  0  0  0  0  0  0  0  0  0
   -1.0875   -1.2776   -2.4001 O   0  0  0  0  0  0  0  0  0  0  0  0
    0.8594   -0.2954   -2.4525 O   0  0  0  0  0  0  0  0  0  0  0  0
  1  2  1  0  0  0  0
  2  8  1  0  0  0  0
  2  3  2  0  0  0  0
  3 13  1  0  0  0  0
  4  9  1  0  0  0  0
  4  3  1  0  0  0  0
  5  4  2  0  0  0  0
  6  1  2  0  0  0  0
  6  5  1  0  0  0  0
  7  1  1  0  0  0  0
 10  5  1  0  0  0  0
 11 12  3  0  0  0  0
 13 14  1  0  0  0  0
 15  6  1  0  0  0  0
 16 15  2  0  0  0  0
 17 15  2  0  0  0  0
M  END
