Coordinates from ORCA-job 4-NO2-Ph-N2-OH-B3LYPG-6-31G_dp-MTMO-d009-169-n900
 OpenBabel09051908013D

 17 16  0  0  0  0  0  0  0  0999 V2000
   -0.5389   -0.6218   -1.3438 C   0  0  0  0  0  0  0  0  0  0  0  0
    0.3896    0.0491   -0.5621 C   0  0  0  0  0  0  0  0  0  0  0  0
    0.0437    0.4576    0.7359 C   0  0  0  0  0  0  0  0  0  0  0  0
   -1.2362    0.1894    1.2449 C   0  0  0  0  0  0  0  0  0  0  0  0
   -2.1672   -0.4828    0.4627 C   0  0  0  0  0  0  0  0  0  0  0  0
   -1.8099   -0.8822   -0.8246 C   0  0  0  0  0  0  0  0  0  0  0  0
   -0.3006   -0.9485   -2.3479 H   0  0  0  0  0  0  0  0  0  0  0  0
    1.3840    0.2675   -0.9354 H   0  0  0  0  0  0  0  0  0  0  0  0
   -1.5004    0.5078    2.2500 H   0  0  0  0  0  0  0  0  0  0  0  0
   -3.1616   -0.7033    0.8293 H   0  0  0  0  0  0  0  0  0  0  0  0
    4.4102    0.0787   -4.2872 N   0  0  0  0  0  0  0  0  0  0  0  0
    3.6591    0.1088   -3.4769 N   0  0  0  0  0  0  0  0  0  0  0  0
    0.9931    1.1108    1.4527 O   0  0  0  0  0  0  0  0  0  0  0  0
    0.6422    1.3457    2.3220 H   0  0  0  0  0  0  0  0  0  0  0  0
   -2.7891   -1.5891   -1.6487 N   0  0  0  0  0  0  0  0  0  0  0  0
   -3.9019   -1.8011   -1.1629 O   0  0  0  0  0  0  0  0  0  0  0  0
   -2.4453   -1.9319   -2.7813 O   0  0  0  0  0  0  0  0  0  0  0  0
  1  6  2  0  0  0  0
  1  2  1  0  0  0  0
  2  3  2  0  0  0  0
  3  4  1  0  0  0  0
  3 13  1  0  0  0  0
  4  9  1  0  0  0  0
  5 10  1  0  0  0  0
  5  4  2  0  0  0  0
  6  5  1  0  0  0  0
  7  1  1  0  0  0  0
  8  2  1  0  0  0  0
 11 12  3  0  0  0  0
 13 14  1  0  0  0  0
 15 16  2  0  0  0  0
 15  6  1  0  0  0  0
 17 15  2  0  0  0  0
M  END
