Coordinates from ORCA-job 4-NO2-Ph-N2-OH-B3LYPG-6-31G_dp-MTMO-d009-169-n900
 OpenBabel09051908023D

 17 16  0  0  0  0  0  0  0  0999 V2000
    0.5746    0.7894    0.5370 C   0  0  0  0  0  0  0  0  0  0  0  0
    0.3815    1.2572    1.8279 C   0  0  0  0  0  0  0  0  0  0  0  0
   -0.8006    0.9408    2.5157 C   0  0  0  0  0  0  0  0  0  0  0  0
   -1.7865    0.1528    1.9022 C   0  0  0  0  0  0  0  0  0  0  0  0
   -1.5946   -0.3168    0.6091 C   0  0  0  0  0  0  0  0  0  0  0  0
   -0.4158    0.0062   -0.0618 C   0  0  0  0  0  0  0  0  0  0  0  0
    1.4758    1.0178   -0.0182 H   0  0  0  0  0  0  0  0  0  0  0  0
    1.1288    1.8669    2.3235 H   0  0  0  0  0  0  0  0  0  0  0  0
   -2.7003   -0.0912    2.4386 H   0  0  0  0  0  0  0  0  0  0  0  0
   -2.3386   -0.9260    0.1115 H   0  0  0  0  0  0  0  0  0  0  0  0
    0.2423   -4.8011  -12.7936 N   0  0  0  0  0  0  0  0  0  0  0  0
    0.7014   -5.4721  -12.0449 N   0  0  0  0  0  0  0  0  0  0  0  0
   -0.9336    1.4272    3.7751 O   0  0  0  0  0  0  0  0  0  0  0  0
   -1.7829    1.1497    4.1437 H   0  0  0  0  0  0  0  0  0  0  0  0
   -0.2132   -0.4864   -1.4236 N   0  0  0  0  0  0  0  0  0  0  0  0
   -1.1056   -1.1737   -1.9241 O   0  0  0  0  0  0  0  0  0  0  0  0
    0.8381   -0.1860   -1.9915 O   0  0  0  0  0  0  0  0  0  0  0  0
  1  2  1  0  0  0  0
  2  8  1  0  0  0  0
  2  3  2  0  0  0  0
  3 13  1  0  0  0  0
  4  9  1  0  0  0  0
  4  3  1  0  0  0  0
  5  4  2  0  0  0  0
  6  1  2  0  0  0  0
  6  5  1  0  0  0  0
  7  1  1  0  0  0  0
 10  5  1  0  0  0  0
 11 12  3  0  0  0  0
 13 14  1  0  0  0  0
 15  6  1  0  0  0  0
 16 15  2  0  0  0  0
 17 15  2  0  0  0  0
M  END
