Coordinates from ORCA-job 4-NO2-Ph-N2-OH-B3LYPG-6-31G_dp-MTMO-d009-169-n900
 OpenBabel09051908013D

 17 16  0  0  0  0  0  0  0  0999 V2000
   -0.9193   -1.1929   -1.1065 C   0  0  0  0  0  0  0  0  0  0  0  0
    0.1132   -0.3219   -0.7203 C   0  0  0  0  0  0  0  0  0  0  0  0
   -0.2779    0.7355    0.0310 C   0  0  0  0  0  0  0  0  0  0  0  0
   -1.5200    1.0963    0.4784 C   0  0  0  0  0  0  0  0  0  0  0  0
   -2.5438    0.2173    0.0863 C   0  0  0  0  0  0  0  0  0  0  0  0
   -2.2205   -0.8978   -0.6915 C   0  0  0  0  0  0  0  0  0  0  0  0
   -0.7324   -2.0747   -1.7085 H   0  0  0  0  0  0  0  0  0  0  0  0
    1.1602   -0.4873   -1.0079 H   0  0  0  0  0  0  0  0  0  0  0  0
   -1.7261    1.9749    1.0806 H   0  0  0  0  0  0  0  0  0  0  0  0
   -3.5745    0.3879    0.3755 H   0  0  0  0  0  0  0  0  0  0  0  0
    2.8829    1.5618    0.0114 N   0  0  0  0  0  0  0  0  0  0  0  0
    3.0272    0.6092   -0.6187 N   0  0  0  0  0  0  0  0  0  0  0  0
    4.4848    0.2457   -1.1032 O   0  0  0  0  0  0  0  0  0  0  0  0
    4.2800   -0.5774   -1.5781 H   0  0  0  0  0  0  0  0  0  0  0  0
   -3.3081   -1.8069   -1.0961 N   0  0  0  0  0  0  0  0  0  0  0  0
   -4.4477   -1.5313   -0.7258 O   0  0  0  0  0  0  0  0  0  0  0  0
   -3.0071   -2.7837   -1.7796 O   0  0  0  0  0  0  0  0  0  0  0  0
  1  2  2  0  0  0  0
  1  6  1  0  0  0  0
  2  3  1  0  0  0  0
  3  4  2  0  0  0  0
  4  9  1  0  0  0  0
  5 10  1  0  0  0  0
  5  4  1  0  0  0  0
  6  5  2  0  0  0  0
  7  1  1  0  0  0  0
  8  2  1  0  0  0  0
 12 11  2  0  0  0  0
 13 12  1  0  0  0  0
 14 13  1  0  0  0  0
 15 16  2  0  0  0  0
 15  6  1  0  0  0  0
 17 15  2  0  0  0  0
M  RAD  2   3   2  11   2
M  END
