Coordinates from ORCA-job 4-NO2-Ph-N2-OH-B3LYPG-6-31G_dp-MTMO-d009-169-n900
 OpenBabel09051908013D

 17 17  0  0  0  0  0  0  0  0999 V2000
   -1.0460   -1.4913   -1.2738 C   0  0  0  0  0  0  0  0  0  0  0  0
    0.1913   -0.8746   -1.0836 C   0  0  0  0  0  0  0  0  0  0  0  0
    0.2090    0.2869   -0.3366 C   0  0  0  0  0  0  0  0  0  0  0  0
   -0.8956    0.8858    0.2363 C   0  0  0  0  0  0  0  0  0  0  0  0
   -2.1323    0.2666    0.0441 C   0  0  0  0  0  0  0  0  0  0  0  0
   -2.1810   -0.9084   -0.7068 C   0  0  0  0  0  0  0  0  0  0  0  0
   -1.1471   -2.4054   -1.8454 H   0  0  0  0  0  0  0  0  0  0  0  0
    1.1068   -1.2797   -1.4993 H   0  0  0  0  0  0  0  0  0  0  0  0
   -0.7965    1.8010    0.8084 H   0  0  0  0  0  0  0  0  0  0  0  0
   -3.0463    0.6722    0.4590 H   0  0  0  0  0  0  0  0  0  0  0  0
    1.8078    1.1870   -0.0244 N   0  0  0  0  0  0  0  0  0  0  0  0
    2.6567    0.5306   -0.6060 N   0  0  0  0  0  0  0  0  0  0  0  0
    3.9149    1.1367   -0.4278 O   0  0  0  0  0  0  0  0  0  0  0  0
    4.4938    0.5378   -0.9240 H   0  0  0  0  0  0  0  0  0  0  0  0
   -3.4856   -1.5621   -0.9115 N   0  0  0  0  0  0  0  0  0  0  0  0
   -4.4727   -1.0342   -0.4021 O   0  0  0  0  0  0  0  0  0  0  0  0
   -3.5062   -2.5946   -1.5797 O   0  0  0  0  0  0  0  0  0  0  0  0
  1  2  2  0  0  0  0
  1  6  1  0  0  0  0
  2  3  1  0  0  0  0
  3 11  1  0  0  0  0
  3  4  2  0  0  0  0
  4  9  1  0  0  0  0
  5  4  1  0  0  0  0
  5 10  1  0  0  0  0
  6  5  2  0  0  0  0
  7  1  1  0  0  0  0
  8  2  1  0  0  0  0
 12 13  1  0  0  0  0
 12 11  1  0  0  0  0
 14 13  1  0  0  0  0
 15  6  1  0  0  0  0
 15 16  2  0  0  0  0
 17 15  2  0  0  0  0
M  RAD  2  11   2  12   2
M  END
