Coordinates from ORCA-job 4-NO2-Ph-N2-OH-B3LYPG-6-31G_dp-MTMO-d009-169-n900
 OpenBabel09051908013D

 17 16  0  0  0  0  0  0  0  0999 V2000
    0.6023    0.4183   -0.3106 C   0  0  0  0  0  0  0  0  0  0  0  0
    0.4923    0.8417    1.0055 C   0  0  0  0  0  0  0  0  0  0  0  0
   -0.6710    0.5548    1.7374 C   0  0  0  0  0  0  0  0  0  0  0  0
   -1.7216   -0.1598    1.1409 C   0  0  0  0  0  0  0  0  0  0  0  0
   -1.6130   -0.5848   -0.1774 C   0  0  0  0  0  0  0  0  0  0  0  0
   -0.4519   -0.2915   -0.8919 C   0  0  0  0  0  0  0  0  0  0  0  0
    1.4874    0.6261   -0.8989 H   0  0  0  0  0  0  0  0  0  0  0  0
    1.2914    1.3941    1.4871 H   0  0  0  0  0  0  0  0  0  0  0  0
   -2.6207   -0.3821    1.7106 H   0  0  0  0  0  0  0  0  0  0  0  0
   -2.4089   -1.1371   -0.6611 H   0  0  0  0  0  0  0  0  0  0  0  0
    0.1606   -2.5165   -6.8881 N   0  0  0  0  0  0  0  0  0  0  0  0
    0.3323   -2.7889   -5.8306 N   0  0  0  0  0  0  0  0  0  0  0  0
   -0.7217    0.9948    3.0195 O   0  0  0  0  0  0  0  0  0  0  0  0
   -1.5655    0.7421    3.4178 H   0  0  0  0  0  0  0  0  0  0  0  0
   -0.3369   -0.7362   -2.2809 N   0  0  0  0  0  0  0  0  0  0  0  0
   -1.2846   -1.3576   -2.7657 O   0  0  0  0  0  0  0  0  0  0  0  0
    0.7005   -0.4629   -2.8868 O   0  0  0  0  0  0  0  0  0  0  0  0
  1  2  1  0  0  0  0
  2  8  1  0  0  0  0
  2  3  2  0  0  0  0
  3 13  1  0  0  0  0
  4  9  1  0  0  0  0
  4  3  1  0  0  0  0
  5  4  2  0  0  0  0
  6  1  2  0  0  0  0
  6  5  1  0  0  0  0
  7  1  1  0  0  0  0
 10  5  1  0  0  0  0
 11 12  3  0  0  0  0
 13 14  1  0  0  0  0
 15  6  1  0  0  0  0
 16 15  2  0  0  0  0
 17 15  2  0  0  0  0
M  END
