Coordinates from ORCA-job 4-NO2-Ph-N2-OH-B3LYPG-6-31G_dp-MTMO-d009-169-n900
 OpenBabel09051908013D

 17 16  0  0  0  0  0  0  0  0999 V2000
   -0.6218   -0.7024   -1.4499 C   0  0  0  0  0  0  0  0  0  0  0  0
    0.3759   -0.0391   -0.7514 C   0  0  0  0  0  0  0  0  0  0  0  0
    0.1288    0.4145    0.5538 C   0  0  0  0  0  0  0  0  0  0  0  0
   -1.1210    0.1987    1.1541 C   0  0  0  0  0  0  0  0  0  0  0  0
   -2.1210   -0.4659    0.4551 C   0  0  0  0  0  0  0  0  0  0  0  0
   -1.8621   -0.9102   -0.8408 C   0  0  0  0  0  0  0  0  0  0  0  0
   -0.4608   -1.0625   -2.4580 H   0  0  0  0  0  0  0  0  0  0  0  0
    1.3487    0.1391   -1.1958 H   0  0  0  0  0  0  0  0  0  0  0  0
   -1.3082    0.5514    2.1651 H   0  0  0  0  0  0  0  0  0  0  0  0
   -3.0947   -0.6464    0.8929 H   0  0  0  0  0  0  0  0  0  0  0  0
    4.4476    0.4044   -3.5712 N   0  0  0  0  0  0  0  0  0  0  0  0
    3.5310    0.2595   -2.9713 N   0  0  0  0  0  0  0  0  0  0  0  0
    1.1417    1.0586    1.1875 O   0  0  0  0  0  0  0  0  0  0  0  0
    0.8551    1.3281    2.0702 H   0  0  0  0  0  0  0  0  0  0  0  0
   -2.9140   -1.6084   -1.5781 N   0  0  0  0  0  0  0  0  0  0  0  0
   -3.9981   -1.7728   -1.0149 O   0  0  0  0  0  0  0  0  0  0  0  0
   -2.6561   -1.9922   -2.7203 O   0  0  0  0  0  0  0  0  0  0  0  0
  1  6  2  0  0  0  0
  1  2  1  0  0  0  0
  2  3  2  0  0  0  0
  3  4  1  0  0  0  0
  3 13  1  0  0  0  0
  4  9  1  0  0  0  0
  5 10  1  0  0  0  0
  5  4  2  0  0  0  0
  6  5  1  0  0  0  0
  7  1  1  0  0  0  0
  8  2  1  0  0  0  0
 11 12  3  0  0  0  0
 13 14  1  0  0  0  0
 15 16  2  0  0  0  0
 15  6  1  0  0  0  0
 17 15  2  0  0  0  0
M  END
