Coordinates from ORCA-job 4-NO2-Ph-N2-OH-B3LYPG-6-31G_dp-MTMO-d009-169-n900
 OpenBabel09051908013D

 17 16  0  0  0  0  0  0  0  0999 V2000
   -0.5601   -0.5869   -1.2386 C   0  0  0  0  0  0  0  0  0  0  0  0
    0.3298    0.0864   -0.4152 C   0  0  0  0  0  0  0  0  0  0  0  0
   -0.0672    0.4722    0.8749 C   0  0  0  0  0  0  0  0  0  0  0  0
   -1.3604    0.1792    1.3343 C   0  0  0  0  0  0  0  0  0  0  0  0
   -2.2532   -0.4953    0.5105 C   0  0  0  0  0  0  0  0  0  0  0  0
   -1.8448   -0.8722   -0.7685 C   0  0  0  0  0  0  0  0  0  0  0  0
   -0.2816   -0.8964   -2.2378 H   0  0  0  0  0  0  0  0  0  0  0  0
    1.3337    0.3248   -0.7478 H   0  0  0  0  0  0  0  0  0  0  0  0
   -1.6647    0.4800    2.3334 H   0  0  0  0  0  0  0  0  0  0  0  0
   -3.2565   -0.7345    0.8390 H   0  0  0  0  0  0  0  0  0  0  0  0
    4.8948   -0.0123   -4.9680 N   0  0  0  0  0  0  0  0  0  0  0  0
    4.1792    0.0384   -4.1272 N   0  0  0  0  0  0  0  0  0  0  0  0
    0.8470    1.1284    1.6334 O   0  0  0  0  0  0  0  0  0  0  0  0
    0.4631    1.3453    2.4934 H   0  0  0  0  0  0  0  0  0  0  0  0
   -2.7837   -1.5818   -1.6360 N   0  0  0  0  0  0  0  0  0  0  0  0
   -3.9096   -1.8166   -1.1927 O   0  0  0  0  0  0  0  0  0  0  0  0
   -2.3950   -1.9040   -2.7601 O   0  0  0  0  0  0  0  0  0  0  0  0
  1  6  2  0  0  0  0
  1  2  1  0  0  0  0
  2  3  2  0  0  0  0
  3  4  1  0  0  0  0
  3 13  1  0  0  0  0
  4  9  1  0  0  0  0
  5 10  1  0  0  0  0
  5  4  2  0  0  0  0
  6  5  1  0  0  0  0
  7  1  1  0  0  0  0
  8  2  1  0  0  0  0
 11 12  3  0  0  0  0
 13 14  1  0  0  0  0
 15 16  2  0  0  0  0
 15  6  1  0  0  0  0
 17 15  2  0  0  0  0
M  END
