Coordinates from ORCA-job 4-NO2-Ph-N2-OH-B3LYPG-6-31G_dp-MTMO-d009-169-n900
 OpenBabel09051908013D

 17 17  0  0  0  0  0  0  0  0999 V2000
   -1.0439   -1.4923   -1.2745 C   0  0  0  0  0  0  0  0  0  0  0  0
    0.1946   -0.8786   -1.0859 C   0  0  0  0  0  0  0  0  0  0  0  0
    0.2198    0.2846   -0.3392 C   0  0  0  0  0  0  0  0  0  0  0  0
   -0.8862    0.8837    0.2336 C   0  0  0  0  0  0  0  0  0  0  0  0
   -2.1246    0.2681    0.0435 C   0  0  0  0  0  0  0  0  0  0  0  0
   -2.1772   -0.9070   -0.7067 C   0  0  0  0  0  0  0  0  0  0  0  0
   -1.1475   -2.4065   -1.8455 H   0  0  0  0  0  0  0  0  0  0  0  0
    1.1076   -1.2873   -1.5031 H   0  0  0  0  0  0  0  0  0  0  0  0
   -0.7842    1.7988    0.8052 H   0  0  0  0  0  0  0  0  0  0  0  0
   -3.0369    0.6763    0.4594 H   0  0  0  0  0  0  0  0  0  0  0  0
    1.7855    1.1706   -0.0297 N   0  0  0  0  0  0  0  0  0  0  0  0
    2.6460    0.5242   -0.6092 N   0  0  0  0  0  0  0  0  0  0  0  0
    3.8937    1.1427   -0.4203 O   0  0  0  0  0  0  0  0  0  0  0  0
    4.4838    0.5533   -0.9146 H   0  0  0  0  0  0  0  0  0  0  0  0
   -3.4835   -1.5578   -0.9096 N   0  0  0  0  0  0  0  0  0  0  0  0
   -4.4688   -1.0276   -0.3992 O   0  0  0  0  0  0  0  0  0  0  0  0
   -3.5072   -2.5905   -1.5774 O   0  0  0  0  0  0  0  0  0  0  0  0
  1  2  2  0  0  0  0
  1  6  1  0  0  0  0
  2  3  1  0  0  0  0
  3 11  1  0  0  0  0
  3  4  2  0  0  0  0
  4  9  1  0  0  0  0
  5  4  1  0  0  0  0
  5 10  1  0  0  0  0
  6  5  2  0  0  0  0
  7  1  1  0  0  0  0
  8  2  1  0  0  0  0
 12 13  1  0  0  0  0
 12 11  1  0  0  0  0
 14 13  1  0  0  0  0
 15  6  1  0  0  0  0
 15 16  2  0  0  0  0
 17 15  2  0  0  0  0
M  RAD  2  11   2  12   2
M  END
