Coordinates from ORCA-job 4-NO2-Ph-N2-OH-B3LYPG-6-31G_dp-MTMO-d009-169-n900
 OpenBabel09051908013D

 17 16  0  0  0  0  0  0  0  0999 V2000
    0.6131    0.6048    0.0537 C   0  0  0  0  0  0  0  0  0  0  0  0
    0.4271    1.0394    1.3572 C   0  0  0  0  0  0  0  0  0  0  0  0
   -0.7529    0.7090    2.0419 C   0  0  0  0  0  0  0  0  0  0  0  0
   -1.7441   -0.0595    1.4125 C   0  0  0  0  0  0  0  0  0  0  0  0
   -1.5595   -0.4957    0.1067 C   0  0  0  0  0  0  0  0  0  0  0  0
   -0.3826   -0.1592   -0.5609 C   0  0  0  0  0  0  0  0  0  0  0  0
    1.5126    0.8447   -0.4993 H   0  0  0  0  0  0  0  0  0  0  0  0
    1.1787    1.6334    1.8652 H   0  0  0  0  0  0  0  0  0  0  0  0
   -2.6563   -0.3146    1.9463 H   0  0  0  0  0  0  0  0  0  0  0  0
   -2.3078   -1.0893   -0.4033 H   0  0  0  0  0  0  0  0  0  0  0  0
   -0.0427   -3.3096   -9.0785 N   0  0  0  0  0  0  0  0  0  0  0  0
    0.4010   -4.0798   -8.4216 N   0  0  0  0  0  0  0  0  0  0  0  0
   -0.8786    1.1628    3.3141 O   0  0  0  0  0  0  0  0  0  0  0  0
   -1.7271    0.8787    3.6794 H   0  0  0  0  0  0  0  0  0  0  0  0
   -0.1876   -0.6170   -1.9359 N   0  0  0  0  0  0  0  0  0  0  0  0
   -1.0848   -1.2877   -2.4503 O   0  0  0  0  0  0  0  0  0  0  0  0
    0.8623   -0.3059   -2.5004 O   0  0  0  0  0  0  0  0  0  0  0  0
  1  2  1  0  0  0  0
  2  8  1  0  0  0  0
  2  3  2  0  0  0  0
  3 13  1  0  0  0  0
  4  9  1  0  0  0  0
  4  3  1  0  0  0  0
  5  4  2  0  0  0  0
  6  1  2  0  0  0  0
  6  5  1  0  0  0  0
  7  1  1  0  0  0  0
 10  5  1  0  0  0  0
 11 12  3  0  0  0  0
 13 14  1  0  0  0  0
 15  6  1  0  0  0  0
 16 15  2  0  0  0  0
 17 15  2  0  0  0  0
M  END
