Coordinates from ORCA-job 4-NO2-Ph-N2-OH-B3LYPG-6-31G_dp-MTMO-d009-169-n900
 OpenBabel09051908013D

 17 17  0  0  0  0  0  0  0  0999 V2000
   -1.0059   -1.5476   -1.2300 C   0  0  0  0  0  0  0  0  0  0  0  0
    0.2540   -1.0242   -1.0217 C   0  0  0  0  0  0  0  0  0  0  0  0
    0.4662    0.2001   -0.2809 C   0  0  0  0  0  0  0  0  0  0  0  0
   -0.7245    0.8065    0.2647 C   0  0  0  0  0  0  0  0  0  0  0  0
   -1.9864    0.3024    0.0197 C   0  0  0  0  0  0  0  0  0  0  0  0
   -2.1204   -0.8743   -0.7227 C   0  0  0  0  0  0  0  0  0  0  0  0
   -1.1516   -2.4715   -1.7763 H   0  0  0  0  0  0  0  0  0  0  0  0
    1.1358   -1.5575   -1.3618 H   0  0  0  0  0  0  0  0  0  0  0  0
   -0.5944    1.7170    0.8409 H   0  0  0  0  0  0  0  0  0  0  0  0
   -2.8732    0.7841    0.4118 H   0  0  0  0  0  0  0  0  0  0  0  0
    1.4622    0.6660   -0.1048 N   0  0  0  0  0  0  0  0  0  0  0  0
    2.4355    0.6490   -0.8979 N   0  0  0  0  0  0  0  0  0  0  0  0
    3.5569    1.1034   -0.2397 O   0  0  0  0  0  0  0  0  0  0  0  0
    4.2229    1.1200   -0.9450 H   0  0  0  0  0  0  0  0  0  0  0  0
   -3.4535   -1.4290   -0.9492 N   0  0  0  0  0  0  0  0  0  0  0  0
   -4.4166   -0.8081   -0.4947 O   0  0  0  0  0  0  0  0  0  0  0  0
   -3.5360   -2.4817   -1.5854 O   0  0  0  0  0  0  0  0  0  0  0  0
  1  2  2  0  0  0  0
  1  6  1  0  0  0  0
  2  3  1  0  0  0  0
  3 11  1  0  0  0  0
  3  4  2  0  0  0  0
  4  9  1  0  0  0  0
  5  4  1  0  0  0  0
  5 10  1  0  0  0  0
  6  5  2  0  0  0  0
  7  1  1  0  0  0  0
  8  2  1  0  0  0  0
 12 13  1  0  0  0  0
 12 11  1  0  0  0  0
 14 13  1  0  0  0  0
 15  6  1  0  0  0  0
 15 16  2  0  0  0  0
 17 15  2  0  0  0  0
M  RAD  2  11   2  12   2
M  END
