Coordinates from ORCA-job 4-NO2-Ph-N2-OH-B3LYPG-6-31G_dp-MTMO-d009-169-n900
 OpenBabel09051908013D

 17 16  0  0  0  0  0  0  0  0999 V2000
    0.6045    0.4110   -0.3312 C   0  0  0  0  0  0  0  0  0  0  0  0
    0.4952    0.8325    0.9856 C   0  0  0  0  0  0  0  0  0  0  0  0
   -0.6679    0.5449    1.7177 C   0  0  0  0  0  0  0  0  0  0  0  0
   -1.7189   -0.1684    1.1206 C   0  0  0  0  0  0  0  0  0  0  0  0
   -1.6111   -0.5915   -0.1984 C   0  0  0  0  0  0  0  0  0  0  0  0
   -0.4503   -0.2975   -0.9131 C   0  0  0  0  0  0  0  0  0  0  0  0
    1.4893    0.6195   -0.9196 H   0  0  0  0  0  0  0  0  0  0  0  0
    1.2948    1.3839    1.4676 H   0  0  0  0  0  0  0  0  0  0  0  0
   -2.6179   -0.3912    1.6903 H   0  0  0  0  0  0  0  0  0  0  0  0
   -2.4075   -1.1428   -0.6825 H   0  0  0  0  0  0  0  0  0  0  0  0
    0.1343   -2.4509   -6.7289 N   0  0  0  0  0  0  0  0  0  0  0  0
    0.3260   -2.7436   -5.6803 N   0  0  0  0  0  0  0  0  0  0  0  0
   -0.7178    0.9831    3.0004 O   0  0  0  0  0  0  0  0  0  0  0  0
   -1.5615    0.7303    3.3987 H   0  0  0  0  0  0  0  0  0  0  0  0
   -0.3364   -0.7397   -2.3029 N   0  0  0  0  0  0  0  0  0  0  0  0
   -1.2845   -1.3603   -2.7880 O   0  0  0  0  0  0  0  0  0  0  0  0
    0.7004   -0.4650   -2.9093 O   0  0  0  0  0  0  0  0  0  0  0  0
  1  2  1  0  0  0  0
  2  8  1  0  0  0  0
  2  3  2  0  0  0  0
  3 13  1  0  0  0  0
  4  9  1  0  0  0  0
  4  3  1  0  0  0  0
  5  4  2  0  0  0  0
  6  1  2  0  0  0  0
  6  5  1  0  0  0  0
  7  1  1  0  0  0  0
 10  5  1  0  0  0  0
 11 12  3  0  0  0  0
 13 14  1  0  0  0  0
 15  6  1  0  0  0  0
 16 15  2  0  0  0  0
 17 15  2  0  0  0  0
M  END
