Coordinates from ORCA-job 4-NO2-Ph-N2-OH-B3LYPG-6-31G_dp-MTMO-d009-169-n900
 OpenBabel09051908013D

 17 16  0  0  0  0  0  0  0  0999 V2000
    0.6016    0.4218   -0.3009 C   0  0  0  0  0  0  0  0  0  0  0  0
    0.4909    0.8459    1.0148 C   0  0  0  0  0  0  0  0  0  0  0  0
   -0.6726    0.5590    1.7464 C   0  0  0  0  0  0  0  0  0  0  0  0
   -1.7227   -0.1561    1.1499 C   0  0  0  0  0  0  0  0  0  0  0  0
   -1.6135   -0.5818   -0.1681 C   0  0  0  0  0  0  0  0  0  0  0  0
   -0.4522   -0.2886   -0.8822 C   0  0  0  0  0  0  0  0  0  0  0  0
    1.4868    0.6296   -0.8891 H   0  0  0  0  0  0  0  0  0  0  0  0
    1.2897    1.3988    1.4965 H   0  0  0  0  0  0  0  0  0  0  0  0
   -2.6220   -0.3783    1.7193 H   0  0  0  0  0  0  0  0  0  0  0  0
   -2.4090   -1.1346   -0.6518 H   0  0  0  0  0  0  0  0  0  0  0  0
    0.1713   -2.5474   -6.9602 N   0  0  0  0  0  0  0  0  0  0  0  0
    0.3340   -2.8103   -5.8989 N   0  0  0  0  0  0  0  0  0  0  0  0
   -0.7240    0.9997    3.0283 O   0  0  0  0  0  0  0  0  0  0  0  0
   -1.5678    0.7471    3.4263 H   0  0  0  0  0  0  0  0  0  0  0  0
   -0.3366   -0.7339   -2.2709 N   0  0  0  0  0  0  0  0  0  0  0  0
   -1.2840   -1.3558   -2.7558 O   0  0  0  0  0  0  0  0  0  0  0  0
    0.7011   -0.4607   -2.8765 O   0  0  0  0  0  0  0  0  0  0  0  0
  1  2  1  0  0  0  0
  2  8  1  0  0  0  0
  2  3  2  0  0  0  0
  3 13  1  0  0  0  0
  4  9  1  0  0  0  0
  4  3  1  0  0  0  0
  5  4  2  0  0  0  0
  6  1  2  0  0  0  0
  6  5  1  0  0  0  0
  7  1  1  0  0  0  0
 10  5  1  0  0  0  0
 11 12  3  0  0  0  0
 13 14  1  0  0  0  0
 15  6  1  0  0  0  0
 16 15  2  0  0  0  0
 17 15  2  0  0  0  0
M  END
