Coordinates from ORCA-job 4-NO2-Ph-N2-OH-B3LYPG-6-31G_dp-MTMO-d009-169-n900
 OpenBabel09051908013D

 17 16  0  0  0  0  0  0  0  0999 V2000
    0.6188    0.5798   -0.0123 C   0  0  0  0  0  0  0  0  0  0  0  0
    0.4331    1.0094    1.2929 C   0  0  0  0  0  0  0  0  0  0  0  0
   -0.7469    0.6766    1.9764 C   0  0  0  0  0  0  0  0  0  0  0  0
   -1.7384   -0.0892    1.3442 C   0  0  0  0  0  0  0  0  0  0  0  0
   -1.5540   -0.5204    0.0367 C   0  0  0  0  0  0  0  0  0  0  0  0
   -0.3771   -0.1816   -0.6297 C   0  0  0  0  0  0  0  0  0  0  0  0
    1.5183    0.8218   -0.5644 H   0  0  0  0  0  0  0  0  0  0  0  0
    1.1849    1.6013    1.8031 H   0  0  0  0  0  0  0  0  0  0  0  0
   -2.6505   -0.3462    1.8771 H   0  0  0  0  0  0  0  0  0  0  0  0
   -2.3024   -1.1119   -0.4755 H   0  0  0  0  0  0  0  0  0  0  0  0
   -0.0842   -3.1075   -8.5681 N   0  0  0  0  0  0  0  0  0  0  0  0
    0.3569   -3.8856   -7.9187 N   0  0  0  0  0  0  0  0  0  0  0  0
   -0.8722    1.1255    3.2505 O   0  0  0  0  0  0  0  0  0  0  0  0
   -1.7208    0.8402    3.6148 H   0  0  0  0  0  0  0  0  0  0  0  0
   -0.1824   -0.6341   -2.0065 N   0  0  0  0  0  0  0  0  0  0  0  0
   -1.0798   -1.3025   -2.5235 O   0  0  0  0  0  0  0  0  0  0  0  0
    0.8676   -0.3211   -2.5700 O   0  0  0  0  0  0  0  0  0  0  0  0
  1  2  1  0  0  0  0
  2  8  1  0  0  0  0
  2  3  2  0  0  0  0
  3 13  1  0  0  0  0
  4  9  1  0  0  0  0
  4  3  1  0  0  0  0
  5  4  2  0  0  0  0
  6  1  2  0  0  0  0
  6  5  1  0  0  0  0
  7  1  1  0  0  0  0
 10  5  1  0  0  0  0
 11 12  3  0  0  0  0
 13 14  1  0  0  0  0
 15  6  1  0  0  0  0
 16 15  2  0  0  0  0
 17 15  2  0  0  0  0
M  END
