Coordinates from ORCA-job 4-NO2-Ph-N2-OH-B3LYPG-6-31G_dp-MTMO-d009-169-n900
 OpenBabel09051908013D

 17 16  0  0  0  0  0  0  0  0999 V2000
   -0.5395   -0.6298   -1.3615 C   0  0  0  0  0  0  0  0  0  0  0  0
    0.3969    0.0404   -0.5888 C   0  0  0  0  0  0  0  0  0  0  0  0
    0.0617    0.4538    0.7105 C   0  0  0  0  0  0  0  0  0  0  0  0
   -1.2153    0.1912    1.2296 C   0  0  0  0  0  0  0  0  0  0  0  0
   -2.1541   -0.4804    0.4563 C   0  0  0  0  0  0  0  0  0  0  0  0
   -1.8075   -0.8846   -0.8324 C   0  0  0  0  0  0  0  0  0  0  0  0
   -0.3097   -0.9602   -2.3664 H   0  0  0  0  0  0  0  0  0  0  0  0
    1.3890    0.2543   -0.9707 H   0  0  0  0  0  0  0  0  0  0  0  0
   -1.4710    0.5135    2.2357 H   0  0  0  0  0  0  0  0  0  0  0  0
   -3.1466   -0.6966    0.8307 H   0  0  0  0  0  0  0  0  0  0  0  0
    4.3508    0.1043   -4.1693 N   0  0  0  0  0  0  0  0  0  0  0  0
    3.5842    0.1237   -3.3733 N   0  0  0  0  0  0  0  0  0  0  0  0
    1.0182    1.1063    1.4184 O   0  0  0  0  0  0  0  0  0  0  0  0
    0.6742    1.3451    2.2894 H   0  0  0  0  0  0  0  0  0  0  0  0
   -2.7949   -1.5907   -1.6472 N   0  0  0  0  0  0  0  0  0  0  0  0
   -3.9049   -1.7977   -1.1529 O   0  0  0  0  0  0  0  0  0  0  0  0
   -2.4605   -1.9381   -2.7812 O   0  0  0  0  0  0  0  0  0  0  0  0
  1  6  2  0  0  0  0
  1  2  1  0  0  0  0
  2  3  2  0  0  0  0
  3  4  1  0  0  0  0
  3 13  1  0  0  0  0
  4  9  1  0  0  0  0
  5 10  1  0  0  0  0
  5  4  2  0  0  0  0
  6  5  1  0  0  0  0
  7  1  1  0  0  0  0
  8  2  1  0  0  0  0
 11 12  3  0  0  0  0
 13 14  1  0  0  0  0
 15 16  2  0  0  0  0
 15  6  1  0  0  0  0
 17 15  2  0  0  0  0
M  END
