Coordinates from ORCA-job 4-NO2-Ph-N2-OH-B3LYPG-6-31G_dp-MTMO-d009-169-n900
 OpenBabel09051908013D

 17 16  0  0  0  0  0  0  0  0999 V2000
    0.6065    0.6349    0.1333 C   0  0  0  0  0  0  0  0  0  0  0  0
    0.4197    1.0756    1.4347 C   0  0  0  0  0  0  0  0  0  0  0  0
   -0.7605    0.7479    2.1203 C   0  0  0  0  0  0  0  0  0  0  0  0
   -1.7511   -0.0240    1.4941 C   0  0  0  0  0  0  0  0  0  0  0  0
   -1.5656   -0.4663    0.1904 C   0  0  0  0  0  0  0  0  0  0  0  0
   -0.3885   -0.1324   -0.4781 C   0  0  0  0  0  0  0  0  0  0  0  0
    1.5062    0.8727   -0.4204 H   0  0  0  0  0  0  0  0  0  0  0  0
    1.1708    1.6724    1.9402 H   0  0  0  0  0  0  0  0  0  0  0  0
   -2.6635   -0.2769    2.0287 H   0  0  0  0  0  0  0  0  0  0  0  0
   -2.3134   -1.0627   -0.3172 H   0  0  0  0  0  0  0  0  0  0  0  0
    0.0053   -3.5523   -9.6909 N   0  0  0  0  0  0  0  0  0  0  0  0
    0.4525   -4.3129   -9.0252 N   0  0  0  0  0  0  0  0  0  0  0  0
   -0.8871    1.2077    3.3903 O   0  0  0  0  0  0  0  0  0  0  0  0
   -1.7357    0.9249    3.7565 H   0  0  0  0  0  0  0  0  0  0  0  0
   -0.1927   -0.5965   -1.8509 N   0  0  0  0  0  0  0  0  0  0  0  0
   -1.0893   -1.2701   -2.3625 O   0  0  0  0  0  0  0  0  0  0  0  0
    0.8574   -0.2874   -2.4164 O   0  0  0  0  0  0  0  0  0  0  0  0
  1  2  1  0  0  0  0
  2  8  1  0  0  0  0
  2  3  2  0  0  0  0
  3 13  1  0  0  0  0
  4  9  1  0  0  0  0
  4  3  1  0  0  0  0
  5  4  2  0  0  0  0
  6  1  2  0  0  0  0
  6  5  1  0  0  0  0
  7  1  1  0  0  0  0
 10  5  1  0  0  0  0
 11 12  3  0  0  0  0
 13 14  1  0  0  0  0
 15  6  1  0  0  0  0
 16 15  2  0  0  0  0
 17 15  2  0  0  0  0
M  END
