Coordinates from ORCA-job 4-NO2-Ph-N2-OH-B3LYPG-6-31G_dp-MTMO-d009-169-n900
 OpenBabel09051908013D

 17 16  0  0  0  0  0  0  0  0999 V2000
   -0.8204   -0.8374   -1.5846 C   0  0  0  0  0  0  0  0  0  0  0  0
    0.2828   -0.1971   -1.0398 C   0  0  0  0  0  0  0  0  0  0  0  0
    0.2126    0.3250    0.2614 C   0  0  0  0  0  0  0  0  0  0  0  0
   -0.9664    0.2013    1.0123 C   0  0  0  0  0  0  0  0  0  0  0  0
   -2.0720   -0.4398    0.4673 C   0  0  0  0  0  0  0  0  0  0  0  0
   -1.9886   -0.9531   -0.8265 C   0  0  0  0  0  0  0  0  0  0  0  0
   -0.7974   -1.2497   -2.5852 H   0  0  0  0  0  0  0  0  0  0  0  0
    1.2051   -0.0883   -1.5994 H   0  0  0  0  0  0  0  0  0  0  0  0
   -1.0150    0.6067    2.0196 H   0  0  0  0  0  0  0  0  0  0  0  0
   -2.9945   -0.5496    1.0237 H   0  0  0  0  0  0  0  0  0  0  0  0
    4.7725    0.9703   -2.4602 N   0  0  0  0  0  0  0  0  0  0  0  0
    3.7417    0.5728   -2.4838 N   0  0  0  0  0  0  0  0  0  0  0  0
    1.3224    0.9419    0.7416 O   0  0  0  0  0  0  0  0  0  0  0  0
    1.1558    1.2607    1.6387 H   0  0  0  0  0  0  0  0  0  0  0  0
   -3.1516   -1.6270   -1.4021 N   0  0  0  0  0  0  0  0  0  0  0  0
   -4.1688   -1.7078   -0.7106 O   0  0  0  0  0  0  0  0  0  0  0  0
   -3.0472   -2.0746   -2.5454 O   0  0  0  0  0  0  0  0  0  0  0  0
  1  2  2  0  0  0  0
  1  6  1  0  0  0  0
  2  3  1  0  0  0  0
  3 13  1  0  0  0  0
  3  4  2  0  0  0  0
  4  9  1  0  0  0  0
  5  4  1  0  0  0  0
  5 10  1  0  0  0  0
  6  5  2  0  0  0  0
  7  1  1  0  0  0  0
  8  2  1  0  0  0  0
 12 11  3  0  0  0  0
 13 14  1  0  0  0  0
 15  6  1  0  0  0  0
 15 16  2  0  0  0  0
 17 15  2  0  0  0  0
M  END
