Coordinates from ORCA-job 4-NO2-Ph-N2-OH-B3LYPG-6-31G_dp-MTMO-d009-169-n900
 OpenBabel09051908013D

 17 16  0  0  0  0  0  0  0  0999 V2000
   -0.5607   -0.6570   -1.3982 C   0  0  0  0  0  0  0  0  0  0  0  0
    0.3984    0.0108   -0.6516 C   0  0  0  0  0  0  0  0  0  0  0  0
    0.0941    0.4402    0.6500 C   0  0  0  0  0  0  0  0  0  0  0  0
   -1.1745    0.1960    1.1979 C   0  0  0  0  0  0  0  0  0  0  0  0
   -2.1359   -0.4732    0.4507 C   0  0  0  0  0  0  0  0  0  0  0  0
   -1.8200   -0.8934   -0.8407 C   0  0  0  0  0  0  0  0  0  0  0  0
   -0.3549   -0.9993   -2.4043 H   0  0  0  0  0  0  0  0  0  0  0  0
    1.3846    0.2104   -1.0558 H   0  0  0  0  0  0  0  0  0  0  0  0
   -1.4062    0.5304    2.2058 H   0  0  0  0  0  0  0  0  0  0  0  0
   -3.1227   -0.6757    0.8474 H   0  0  0  0  0  0  0  0  0  0  0  0
    4.3230    0.2085   -3.9316 N   0  0  0  0  0  0  0  0  0  0  0  0
    3.5151    0.1691   -3.1786 N   0  0  0  0  0  0  0  0  0  0  0  0
    1.0715    1.0897    1.3317 O   0  0  0  0  0  0  0  0  0  0  0  0
    0.7474    1.3408    2.2069 H   0  0  0  0  0  0  0  0  0  0  0  0
   -2.8313   -1.5968   -1.6281 N   0  0  0  0  0  0  0  0  0  0  0  0
   -3.9331   -1.7873   -1.1093 O   0  0  0  0  0  0  0  0  0  0  0  0
   -2.5239   -1.9587   -2.7653 O   0  0  0  0  0  0  0  0  0  0  0  0
  1  6  2  0  0  0  0
  1  2  1  0  0  0  0
  2  3  2  0  0  0  0
  3  4  1  0  0  0  0
  3 13  1  0  0  0  0
  4  9  1  0  0  0  0
  5 10  1  0  0  0  0
  5  4  2  0  0  0  0
  6  5  1  0  0  0  0
  7  1  1  0  0  0  0
  8  2  1  0  0  0  0
 11 12  3  0  0  0  0
 13 14  1  0  0  0  0
 15 16  2  0  0  0  0
 15  6  1  0  0  0  0
 17 15  2  0  0  0  0
M  END
