Coordinates from ORCA-job 4-NO2-Ph-N2-OH-B3LYPG-6-31G_dp-MTMO-d009-169-n900
 OpenBabel09051908023D

 17 16  0  0  0  0  0  0  0  0999 V2000
    0.5821    0.7529    0.4428 C   0  0  0  0  0  0  0  0  0  0  0  0
    0.3903    1.2152    1.7359 C   0  0  0  0  0  0  0  0  0  0  0  0
   -0.7914    0.8967    2.4233 C   0  0  0  0  0  0  0  0  0  0  0  0
   -1.7783    0.1120    1.8073 C   0  0  0  0  0  0  0  0  0  0  0  0
   -1.5878   -0.3520    0.5119 C   0  0  0  0  0  0  0  0  0  0  0  0
   -0.4094   -0.0269   -0.1585 C   0  0  0  0  0  0  0  0  0  0  0  0
    1.4829    0.9832   -0.1121 H   0  0  0  0  0  0  0  0  0  0  0  0
    1.1385    1.8222    2.2335 H   0  0  0  0  0  0  0  0  0  0  0  0
   -2.6918   -0.1337    2.3433 H   0  0  0  0  0  0  0  0  0  0  0  0
   -2.3327   -0.9586    0.0123 H   0  0  0  0  0  0  0  0  0  0  0  0
    0.1837   -4.5050  -12.0658 N   0  0  0  0  0  0  0  0  0  0  0  0
    0.6473   -5.2048  -11.3468 N   0  0  0  0  0  0  0  0  0  0  0  0
   -0.9230    1.3776    3.6850 O   0  0  0  0  0  0  0  0  0  0  0  0
   -1.7722    1.0991    4.0531 H   0  0  0  0  0  0  0  0  0  0  0  0
   -0.2083   -0.5137   -1.5226 N   0  0  0  0  0  0  0  0  0  0  0  0
   -1.1016   -1.1982   -2.0254 O   0  0  0  0  0  0  0  0  0  0  0  0
    0.8427   -0.2116   -2.0902 O   0  0  0  0  0  0  0  0  0  0  0  0
  1  2  1  0  0  0  0
  2  8  1  0  0  0  0
  2  3  2  0  0  0  0
  3 13  1  0  0  0  0
  4  9  1  0  0  0  0
  4  3  1  0  0  0  0
  5  4  2  0  0  0  0
  6  1  2  0  0  0  0
  6  5  1  0  0  0  0
  7  1  1  0  0  0  0
 10  5  1  0  0  0  0
 11 12  3  0  0  0  0
 13 14  1  0  0  0  0
 15  6  1  0  0  0  0
 16 15  2  0  0  0  0
 17 15  2  0  0  0  0
M  END
