Coordinates from ORCA-job 4-NO2-Ph-N2-OH-B3LYPG-6-31G_dp-MTMO-d009-169-n900
 OpenBabel09051908013D

 17 16  0  0  0  0  0  0  0  0999 V2000
    0.6173    0.5862    0.0046 C   0  0  0  0  0  0  0  0  0  0  0  0
    0.4316    1.0171    1.3094 C   0  0  0  0  0  0  0  0  0  0  0  0
   -0.7484    0.6849    1.9933 C   0  0  0  0  0  0  0  0  0  0  0  0
   -1.7398   -0.0816    1.3618 C   0  0  0  0  0  0  0  0  0  0  0  0
   -1.5554   -0.5140    0.0547 C   0  0  0  0  0  0  0  0  0  0  0  0
   -0.3786   -0.1758   -0.6121 C   0  0  0  0  0  0  0  0  0  0  0  0
    1.5168    0.8276   -0.5478 H   0  0  0  0  0  0  0  0  0  0  0  0
    1.1834    1.6095    1.8190 H   0  0  0  0  0  0  0  0  0  0  0  0
   -2.6520   -0.3380    1.8950 H   0  0  0  0  0  0  0  0  0  0  0  0
   -2.3039   -1.1060   -0.4569 H   0  0  0  0  0  0  0  0  0  0  0  0
   -0.0734   -3.1595   -8.6993 N   0  0  0  0  0  0  0  0  0  0  0  0
    0.3684   -3.9355   -8.0479 N   0  0  0  0  0  0  0  0  0  0  0  0
   -0.8738    1.1351    3.2669 O   0  0  0  0  0  0  0  0  0  0  0  0
   -1.7224    0.8501    3.6314 H   0  0  0  0  0  0  0  0  0  0  0  0
   -0.1838   -0.6296   -1.9884 N   0  0  0  0  0  0  0  0  0  0  0  0
   -1.0812   -1.2987   -2.5047 O   0  0  0  0  0  0  0  0  0  0  0  0
    0.8661   -0.3172   -2.5522 O   0  0  0  0  0  0  0  0  0  0  0  0
  1  2  1  0  0  0  0
  2  8  1  0  0  0  0
  2  3  2  0  0  0  0
  3 13  1  0  0  0  0
  4  9  1  0  0  0  0
  4  3  1  0  0  0  0
  5  4  2  0  0  0  0
  6  1  2  0  0  0  0
  6  5  1  0  0  0  0
  7  1  1  0  0  0  0
 10  5  1  0  0  0  0
 11 12  3  0  0  0  0
 13 14  1  0  0  0  0
 15  6  1  0  0  0  0
 16 15  2  0  0  0  0
 17 15  2  0  0  0  0
M  END
