Coordinates from ORCA-job 4-NO2-Ph-N2-OH-B3LYPG-6-31G_dp-MTMO-d009-169-n900
 OpenBabel09051908013D

 17 16  0  0  0  0  0  0  0  0999 V2000
    0.6017    0.4211   -0.3029 C   0  0  0  0  0  0  0  0  0  0  0  0
    0.4912    0.8451    1.0129 C   0  0  0  0  0  0  0  0  0  0  0  0
   -0.6723    0.5582    1.7446 C   0  0  0  0  0  0  0  0  0  0  0  0
   -1.7225   -0.1568    1.1481 C   0  0  0  0  0  0  0  0  0  0  0  0
   -1.6134   -0.5823   -0.1700 C   0  0  0  0  0  0  0  0  0  0  0  0
   -0.4522   -0.2892   -0.8842 C   0  0  0  0  0  0  0  0  0  0  0  0
    1.4869    0.6289   -0.8911 H   0  0  0  0  0  0  0  0  0  0  0  0
    1.2901    1.3979    1.4946 H   0  0  0  0  0  0  0  0  0  0  0  0
   -2.6217   -0.3791    1.7176 H   0  0  0  0  0  0  0  0  0  0  0  0
   -2.4090   -1.1351   -0.6537 H   0  0  0  0  0  0  0  0  0  0  0  0
    0.1693   -2.5413   -6.9458 N   0  0  0  0  0  0  0  0  0  0  0  0
    0.3336   -2.8060   -5.8852 N   0  0  0  0  0  0  0  0  0  0  0  0
   -0.7235    0.9987    3.0265 O   0  0  0  0  0  0  0  0  0  0  0  0
   -1.5673    0.7460    3.4246 H   0  0  0  0  0  0  0  0  0  0  0  0
   -0.3367   -0.7343   -2.2730 N   0  0  0  0  0  0  0  0  0  0  0  0
   -1.2841   -1.3561   -2.7578 O   0  0  0  0  0  0  0  0  0  0  0  0
    0.7009   -0.4611   -2.8786 O   0  0  0  0  0  0  0  0  0  0  0  0
  1  2  1  0  0  0  0
  2  8  1  0  0  0  0
  2  3  2  0  0  0  0
  3 13  1  0  0  0  0
  4  9  1  0  0  0  0
  4  3  1  0  0  0  0
  5  4  2  0  0  0  0
  6  1  2  0  0  0  0
  6  5  1  0  0  0  0
  7  1  1  0  0  0  0
 10  5  1  0  0  0  0
 11 12  3  0  0  0  0
 13 14  1  0  0  0  0
 15  6  1  0  0  0  0
 16 15  2  0  0  0  0
 17 15  2  0  0  0  0
M  END
