Coordinates from ORCA-job 4-NO2-Ph-N2-OH-B3LYPG-6-31G_dp-MTMO-d009-169-n900
 OpenBabel09051908013D

 17 16  0  0  0  0  0  0  0  0999 V2000
   -0.9102   -0.9917   -1.6596 C   0  0  0  0  0  0  0  0  0  0  0  0
    0.2712   -0.4098   -1.2248 C   0  0  0  0  0  0  0  0  0  0  0  0
    0.3250    0.1978    0.0396 C   0  0  0  0  0  0  0  0  0  0  0  0
   -0.8096    0.2189    0.8647 C   0  0  0  0  0  0  0  0  0  0  0  0
   -1.9939   -0.3636    0.4300 C   0  0  0  0  0  0  0  0  0  0  0  0
   -2.0330   -0.9636   -0.8281 C   0  0  0  0  0  0  0  0  0  0  0  0
   -0.9821   -1.4671   -2.6295 H   0  0  0  0  0  0  0  0  0  0  0  0
    1.1622   -0.4109   -1.8426 H   0  0  0  0  0  0  0  0  0  0  0  0
   -0.7636    0.6901    1.8433 H   0  0  0  0  0  0  0  0  0  0  0  0
   -2.8853   -0.3620    1.0446 H   0  0  0  0  0  0  0  0  0  0  0  0
    4.4303    1.5287   -1.5581 N   0  0  0  0  0  0  0  0  0  0  0  0
    3.7391    0.8133   -2.0393 N   0  0  0  0  0  0  0  0  0  0  0  0
    1.5083    0.7510    0.4104 O   0  0  0  0  0  0  0  0  0  0  0  0
    1.4278    1.1325    1.2948 H   0  0  0  0  0  0  0  0  0  0  0  0
   -3.2793   -1.5763   -1.2863 N   0  0  0  0  0  0  0  0  0  0  0  0
   -4.2523   -1.5315   -0.5311 O   0  0  0  0  0  0  0  0  0  0  0  0
   -3.2836   -2.1014   -2.4011 O   0  0  0  0  0  0  0  0  0  0  0  0
  1  2  2  0  0  0  0
  1  6  1  0  0  0  0
  2  3  1  0  0  0  0
  3 13  1  0  0  0  0
  3  4  2  0  0  0  0
  4  9  1  0  0  0  0
  5  4  1  0  0  0  0
  5 10  1  0  0  0  0
  6  5  2  0  0  0  0
  7  1  1  0  0  0  0
  8  2  1  0  0  0  0
 12 11  3  0  0  0  0
 13 14  1  0  0  0  0
 15  6  1  0  0  0  0
 15 16  2  0  0  0  0
 17 15  2  0  0  0  0
M  END
