Coordinates from ORCA-job 4-NO2-Ph-N2-OH-B3LYPG-6-31G_dp-MTMO-d009-169-n900
 OpenBabel09051908013D

 17 16  0  0  0  0  0  0  0  0999 V2000
    0.6268    0.5475   -0.0983 C   0  0  0  0  0  0  0  0  0  0  0  0
    0.4404    0.9707    1.2089 C   0  0  0  0  0  0  0  0  0  0  0  0
   -0.7398    0.6344    1.8904 C   0  0  0  0  0  0  0  0  0  0  0  0
   -1.7309   -0.1285    1.2540 C   0  0  0  0  0  0  0  0  0  0  0  0
   -1.5458   -0.5533   -0.0556 C   0  0  0  0  0  0  0  0  0  0  0  0
   -0.3688   -0.2110   -0.7199 C   0  0  0  0  0  0  0  0  0  0  0  0
    1.5265    0.7923   -0.6487 H   0  0  0  0  0  0  0  0  0  0  0  0
    1.1919    1.5602    1.7223 H   0  0  0  0  0  0  0  0  0  0  0  0
   -2.6433   -0.3883    1.7852 H   0  0  0  0  0  0  0  0  0  0  0  0
   -2.2940   -1.1424   -0.5710 H   0  0  0  0  0  0  0  0  0  0  0  0
   -0.1419   -2.8415   -7.8974 N   0  0  0  0  0  0  0  0  0  0  0  0
    0.2964   -3.6315   -7.2607 N   0  0  0  0  0  0  0  0  0  0  0  0
   -0.8657    1.0770    3.1665 O   0  0  0  0  0  0  0  0  0  0  0  0
   -1.7144    0.7899    3.5292 H   0  0  0  0  0  0  0  0  0  0  0  0
   -0.1733   -0.6569   -2.0986 N   0  0  0  0  0  0  0  0  0  0  0  0
   -1.0703   -1.3229   -2.6193 O   0  0  0  0  0  0  0  0  0  0  0  0
    0.8770   -0.3412   -2.6601 O   0  0  0  0  0  0  0  0  0  0  0  0
  1  2  1  0  0  0  0
  2  8  1  0  0  0  0
  2  3  2  0  0  0  0
  3 13  1  0  0  0  0
  4  9  1  0  0  0  0
  4  3  1  0  0  0  0
  5  4  2  0  0  0  0
  6  1  2  0  0  0  0
  6  5  1  0  0  0  0
  7  1  1  0  0  0  0
 10  5  1  0  0  0  0
 11 12  3  0  0  0  0
 13 14  1  0  0  0  0
 15  6  1  0  0  0  0
 16 15  2  0  0  0  0
 17 15  2  0  0  0  0
M  END
