Coordinates from ORCA-job 4-NO2-Ph-N2-OH-B3LYPG-6-31G_dp-MTMO-d009-169-n900
 OpenBabel09051908013D

 17 16  0  0  0  0  0  0  0  0999 V2000
    0.6295    0.5371   -0.1260 C   0  0  0  0  0  0  0  0  0  0  0  0
    0.4427    0.9583    1.1818 C   0  0  0  0  0  0  0  0  0  0  0  0
   -0.7378    0.6208    1.8623 C   0  0  0  0  0  0  0  0  0  0  0  0
   -1.7285   -0.1414    1.2244 C   0  0  0  0  0  0  0  0  0  0  0  0
   -1.5429   -0.5642   -0.0857 C   0  0  0  0  0  0  0  0  0  0  0  0
   -0.3656   -0.2207   -0.7490 C   0  0  0  0  0  0  0  0  0  0  0  0
    1.5295    0.7828   -0.6757 H   0  0  0  0  0  0  0  0  0  0  0  0
    1.1938    1.5472    1.6963 H   0  0  0  0  0  0  0  0  0  0  0  0
   -2.6410   -0.4021    1.7549 H   0  0  0  0  0  0  0  0  0  0  0  0
   -2.2907   -1.1526   -0.6022 H   0  0  0  0  0  0  0  0  0  0  0  0
   -0.1619   -2.7545   -7.6788 N   0  0  0  0  0  0  0  0  0  0  0  0
    0.2759   -3.5492   -7.0477 N   0  0  0  0  0  0  0  0  0  0  0  0
   -0.8642    1.0616    3.1391 O   0  0  0  0  0  0  0  0  0  0  0  0
   -1.7129    0.7737    3.5010 H   0  0  0  0  0  0  0  0  0  0  0  0
   -0.1695   -0.6646   -2.1284 N   0  0  0  0  0  0  0  0  0  0  0  0
   -1.0663   -1.3300   -2.6504 O   0  0  0  0  0  0  0  0  0  0  0  0
    0.8809   -0.3480   -2.6890 O   0  0  0  0  0  0  0  0  0  0  0  0
  1  2  1  0  0  0  0
  2  8  1  0  0  0  0
  2  3  2  0  0  0  0
  3 13  1  0  0  0  0
  4  9  1  0  0  0  0
  4  3  1  0  0  0  0
  5  4  2  0  0  0  0
  6  1  2  0  0  0  0
  6  5  1  0  0  0  0
  7  1  1  0  0  0  0
 10  5  1  0  0  0  0
 11 12  3  0  0  0  0
 13 14  1  0  0  0  0
 15  6  1  0  0  0  0
 16 15  2  0  0  0  0
 17 15  2  0  0  0  0
M  END
