Coordinates from ORCA-job 4-NO2-Ph-N2-OH-B3LYPG-6-31G_dp-MTMO-d009-169-n900
 OpenBabel09051908013D

 17 17  0  0  0  0  0  0  0  0999 V2000
   -1.0842   -1.6502   -1.2296 C   0  0  0  0  0  0  0  0  0  0  0  0
    0.2152   -1.2154   -1.0762 C   0  0  0  0  0  0  0  0  0  0  0  0
    0.5306    0.0195   -0.3897 C   0  0  0  0  0  0  0  0  0  0  0  0
   -0.6080    0.7496    0.1266 C   0  0  0  0  0  0  0  0  0  0  0  0
   -1.8989    0.2952   -0.0399 C   0  0  0  0  0  0  0  0  0  0  0  0
   -2.1452   -0.9036   -0.7126 C   0  0  0  0  0  0  0  0  0  0  0  0
   -1.2957   -2.5738   -1.7552 H   0  0  0  0  0  0  0  0  0  0  0  0
    1.0472   -1.7916   -1.4660 H   0  0  0  0  0  0  0  0  0  0  0  0
   -0.4045    1.6762    0.6522 H   0  0  0  0  0  0  0  0  0  0  0  0
   -2.7356    0.8651    0.3460 H   0  0  0  0  0  0  0  0  0  0  0  0
    1.5614    0.3602   -0.2407 N   0  0  0  0  0  0  0  0  0  0  0  0
    2.3946    1.0553   -0.8191 N   0  0  0  0  0  0  0  0  0  0  0  0
    3.5640    1.0976   -0.0806 O   0  0  0  0  0  0  0  0  0  0  0  0
    4.1352    1.6624   -0.6252 H   0  0  0  0  0  0  0  0  0  0  0  0
   -3.5067   -1.3730   -0.8770 N   0  0  0  0  0  0  0  0  0  0  0  0
   -4.4161   -0.6839   -0.4035 O   0  0  0  0  0  0  0  0  0  0  0  0
   -3.6823   -2.4352   -1.4826 O   0  0  0  0  0  0  0  0  0  0  0  0
  1  2  2  0  0  0  0
  1  6  1  0  0  0  0
  2  3  1  0  0  0  0
  3 11  1  0  0  0  0
  3  4  2  0  0  0  0
  4  9  1  0  0  0  0
  5  4  1  0  0  0  0
  5 10  1  0  0  0  0
  6  5  2  0  0  0  0
  7  1  1  0  0  0  0
  8  2  1  0  0  0  0
 12 11  1  0  0  0  0
 12 13  1  0  0  0  0
 14 13  1  0  0  0  0
 15  6  1  0  0  0  0
 15 16  2  0  0  0  0
 17 15  2  0  0  0  0
M  RAD  2  11   2  12   2
M  END
