Coordinates from ORCA-job 4-NO2-Ph-N2-OH-B3LYPG-6-31G_dp-MTMO-d009-169-n900
 OpenBabel09051908013D

 17 16  0  0  0  0  0  0  0  0999 V2000
   -0.5516   -0.6006   -1.2815 C   0  0  0  0  0  0  0  0  0  0  0  0
    0.3540    0.0718   -0.4748 C   0  0  0  0  0  0  0  0  0  0  0  0
   -0.0223    0.4666    0.8189 C   0  0  0  0  0  0  0  0  0  0  0  0
   -1.3103    0.1832    1.2986 C   0  0  0  0  0  0  0  0  0  0  0  0
   -2.2186   -0.4906    0.4914 C   0  0  0  0  0  0  0  0  0  0  0  0
   -1.8309   -0.8763   -0.7913 C   0  0  0  0  0  0  0  0  0  0  0  0
   -0.2894   -0.9170   -2.2830 H   0  0  0  0  0  0  0  0  0  0  0  0
    1.3542    0.3026   -0.8238 H   0  0  0  0  0  0  0  0  0  0  0  0
   -1.5983    0.4909    2.3004 H   0  0  0  0  0  0  0  0  0  0  0  0
   -3.2185   -0.7225    0.8355 H   0  0  0  0  0  0  0  0  0  0  0  0
    4.6975    0.0224   -4.6948 N   0  0  0  0  0  0  0  0  0  0  0  0
    3.9718    0.0679   -3.8624 N   0  0  0  0  0  0  0  0  0  0  0  0
    0.9063    1.1217    1.5606 O   0  0  0  0  0  0  0  0  0  0  0  0
    0.5358    1.3458    2.4247 H   0  0  0  0  0  0  0  0  0  0  0  0
   -2.7863   -1.5850   -1.6415 N   0  0  0  0  0  0  0  0  0  0  0  0
   -3.9069   -1.8110   -1.1807 O   0  0  0  0  0  0  0  0  0  0  0  0
   -2.4158   -1.9154   -2.7693 O   0  0  0  0  0  0  0  0  0  0  0  0
  1  6  2  0  0  0  0
  1  2  1  0  0  0  0
  2  3  2  0  0  0  0
  3  4  1  0  0  0  0
  3 13  1  0  0  0  0
  4  9  1  0  0  0  0
  5 10  1  0  0  0  0
  5  4  2  0  0  0  0
  6  5  1  0  0  0  0
  7  1  1  0  0  0  0
  8  2  1  0  0  0  0
 11 12  3  0  0  0  0
 13 14  1  0  0  0  0
 15 16  2  0  0  0  0
 15  6  1  0  0  0  0
 17 15  2  0  0  0  0
M  END
