Coordinates from ORCA-job 4-NO2-Ph-N2-OH-B3LYPG-6-31G_dp-MTMO-d009-169-n900
 OpenBabel09051908013D

 17 16  0  0  0  0  0  0  0  0999 V2000
    0.6299    0.5357   -0.1297 C   0  0  0  0  0  0  0  0  0  0  0  0
    0.4429    0.9567    1.1781 C   0  0  0  0  0  0  0  0  0  0  0  0
   -0.7375    0.6190    1.8586 C   0  0  0  0  0  0  0  0  0  0  0  0
   -1.7281   -0.1431    1.2205 C   0  0  0  0  0  0  0  0  0  0  0  0
   -1.5425   -0.5656   -0.0897 C   0  0  0  0  0  0  0  0  0  0  0  0
   -0.3652   -0.2220   -0.7529 C   0  0  0  0  0  0  0  0  0  0  0  0
    1.5299    0.7816   -0.6793 H   0  0  0  0  0  0  0  0  0  0  0  0
    1.1941    1.5455    1.6929 H   0  0  0  0  0  0  0  0  0  0  0  0
   -2.6407   -0.4039    1.7509 H   0  0  0  0  0  0  0  0  0  0  0  0
   -2.2903   -1.1540   -0.6064 H   0  0  0  0  0  0  0  0  0  0  0  0
   -0.1647   -2.7429   -7.6496 N   0  0  0  0  0  0  0  0  0  0  0  0
    0.2731   -3.5382   -7.0193 N   0  0  0  0  0  0  0  0  0  0  0  0
   -0.8641    1.0595    3.1354 O   0  0  0  0  0  0  0  0  0  0  0  0
   -1.7128    0.7715    3.4972 H   0  0  0  0  0  0  0  0  0  0  0  0
   -0.1690   -0.6656   -2.1323 N   0  0  0  0  0  0  0  0  0  0  0  0
   -1.0657   -1.3309   -2.6546 O   0  0  0  0  0  0  0  0  0  0  0  0
    0.8815   -0.3489   -2.6929 O   0  0  0  0  0  0  0  0  0  0  0  0
  1  2  1  0  0  0  0
  2  8  1  0  0  0  0
  2  3  2  0  0  0  0
  3 13  1  0  0  0  0
  4  9  1  0  0  0  0
  4  3  1  0  0  0  0
  5  4  2  0  0  0  0
  6  1  2  0  0  0  0
  6  5  1  0  0  0  0
  7  1  1  0  0  0  0
 10  5  1  0  0  0  0
 11 12  3  0  0  0  0
 13 14  1  0  0  0  0
 15  6  1  0  0  0  0
 16 15  2  0  0  0  0
 17 15  2  0  0  0  0
M  END
