Coordinates from ORCA-job 4-NO2-Ph-N2-OH-B3LYPG-6-31G_dp-MTMO-d009-169-n900
 OpenBabel09051908013D

 17 16  0  0  0  0  0  0  0  0999 V2000
   -0.9083   -0.9917   -1.6598 C   0  0  0  0  0  0  0  0  0  0  0  0
    0.2733   -0.4102   -1.2250 C   0  0  0  0  0  0  0  0  0  0  0  0
    0.3271    0.1976    0.0392 C   0  0  0  0  0  0  0  0  0  0  0  0
   -0.8077    0.2194    0.8642 C   0  0  0  0  0  0  0  0  0  0  0  0
   -1.9921   -0.3626    0.4294 C   0  0  0  0  0  0  0  0  0  0  0  0
   -2.0312   -0.9629   -0.8285 C   0  0  0  0  0  0  0  0  0  0  0  0
   -0.9802   -1.4672   -2.6297 H   0  0  0  0  0  0  0  0  0  0  0  0
    1.1641   -0.4118   -1.8430 H   0  0  0  0  0  0  0  0  0  0  0  0
   -0.7616    0.6907    1.8427 H   0  0  0  0  0  0  0  0  0  0  0  0
   -2.8836   -0.3606    1.0439 H   0  0  0  0  0  0  0  0  0  0  0  0
    4.4148    1.5267   -1.5539 N   0  0  0  0  0  0  0  0  0  0  0  0
    3.7273    0.8097   -2.0379 N   0  0  0  0  0  0  0  0  0  0  0  0
    1.5105    0.7504    0.4107 O   0  0  0  0  0  0  0  0  0  0  0  0
    1.4290    1.1325    1.2948 H   0  0  0  0  0  0  0  0  0  0  0  0
   -3.2777   -1.5753   -1.2868 N   0  0  0  0  0  0  0  0  0  0  0  0
   -4.2509   -1.5297   -0.5319 O   0  0  0  0  0  0  0  0  0  0  0  0
   -3.2820   -2.1006   -2.4015 O   0  0  0  0  0  0  0  0  0  0  0  0
  1  2  2  0  0  0  0
  1  6  1  0  0  0  0
  2  3  1  0  0  0  0
  3 13  1  0  0  0  0
  3  4  2  0  0  0  0
  4  9  1  0  0  0  0
  5  4  1  0  0  0  0
  5 10  1  0  0  0  0
  6  5  2  0  0  0  0
  7  1  1  0  0  0  0
  8  2  1  0  0  0  0
 12 11  3  0  0  0  0
 13 14  1  0  0  0  0
 15  6  1  0  0  0  0
 15 16  2  0  0  0  0
 17 15  2  0  0  0  0
M  END
