Coordinates from ORCA-job 4-NO2-Ph-N2-OH-B3LYPG-6-31G_dp-MTMO-d009-169-n900
 OpenBabel09051908013D

 17 16  0  0  0  0  0  0  0  0999 V2000
    0.6084    0.6263    0.1106 C   0  0  0  0  0  0  0  0  0  0  0  0
    0.4219    1.0652    1.4125 C   0  0  0  0  0  0  0  0  0  0  0  0
   -0.7583    0.7368    2.0979 C   0  0  0  0  0  0  0  0  0  0  0  0
   -1.7491   -0.0341    1.4708 C   0  0  0  0  0  0  0  0  0  0  0  0
   -1.5639   -0.4747    0.1665 C   0  0  0  0  0  0  0  0  0  0  0  0
   -0.3869   -0.1401   -0.5018 C   0  0  0  0  0  0  0  0  0  0  0  0
    1.5080    0.8646   -0.4430 H   0  0  0  0  0  0  0  0  0  0  0  0
    1.1731    1.6612    1.9187 H   0  0  0  0  0  0  0  0  0  0  0  0
   -2.6614   -0.2876    2.0052 H   0  0  0  0  0  0  0  0  0  0  0  0
   -2.3118   -1.0703   -0.3417 H   0  0  0  0  0  0  0  0  0  0  0  0
   -0.0083   -3.4829   -9.5159 N   0  0  0  0  0  0  0  0  0  0  0  0
    0.4379   -4.2463   -8.8528 N   0  0  0  0  0  0  0  0  0  0  0  0
   -0.8846    1.1949    3.3686 O   0  0  0  0  0  0  0  0  0  0  0  0
   -1.7332    0.9117    3.7345 H   0  0  0  0  0  0  0  0  0  0  0  0
   -0.1914   -0.6023   -1.8752 N   0  0  0  0  0  0  0  0  0  0  0  0
   -1.0881   -1.2751   -2.3876 O   0  0  0  0  0  0  0  0  0  0  0  0
    0.8587   -0.2927   -2.4405 O   0  0  0  0  0  0  0  0  0  0  0  0
  1  2  1  0  0  0  0
  2  8  1  0  0  0  0
  2  3  2  0  0  0  0
  3 13  1  0  0  0  0
  4  9  1  0  0  0  0
  4  3  1  0  0  0  0
  5  4  2  0  0  0  0
  6  1  2  0  0  0  0
  6  5  1  0  0  0  0
  7  1  1  0  0  0  0
 10  5  1  0  0  0  0
 11 12  3  0  0  0  0
 13 14  1  0  0  0  0
 15  6  1  0  0  0  0
 16 15  2  0  0  0  0
 17 15  2  0  0  0  0
M  END
