Coordinates from ORCA-job 4-NO2-Ph-N2-OH-B3LYPG-6-31G_dp-MTMO-d009-169-n900
 OpenBabel09051908013D

 17 16  0  0  0  0  0  0  0  0999 V2000
   -0.9550   -1.2510   -1.1389 C   0  0  0  0  0  0  0  0  0  0  0  0
    0.1166   -0.4166   -0.7835 C   0  0  0  0  0  0  0  0  0  0  0  0
   -0.2148    0.6617   -0.0285 C   0  0  0  0  0  0  0  0  0  0  0  0
   -1.4342    1.0666    0.4444 C   0  0  0  0  0  0  0  0  0  0  0  0
   -2.4982    0.2236    0.0830 C   0  0  0  0  0  0  0  0  0  0  0  0
   -2.2346   -0.9067   -0.6950 C   0  0  0  0  0  0  0  0  0  0  0  0
   -0.8158   -2.1426   -1.7393 H   0  0  0  0  0  0  0  0  0  0  0  0
    1.1487   -0.6180   -1.0921 H   0  0  0  0  0  0  0  0  0  0  0  0
   -1.5932    1.9557    1.0453 H   0  0  0  0  0  0  0  0  0  0  0  0
   -3.5148    0.4329    0.3953 H   0  0  0  0  0  0  0  0  0  0  0  0
    2.7442    1.5470    0.0252 N   0  0  0  0  0  0  0  0  0  0  0  0
    3.0067    0.6139   -0.6107 N   0  0  0  0  0  0  0  0  0  0  0  0
    4.4785    0.4121   -0.9938 O   0  0  0  0  0  0  0  0  0  0  0  0
    4.3987   -0.4178   -1.4931 H   0  0  0  0  0  0  0  0  0  0  0  0
   -3.3635   -1.7779   -1.0675 N   0  0  0  0  0  0  0  0  0  0  0  0
   -4.4832   -1.4598   -0.6712 O   0  0  0  0  0  0  0  0  0  0  0  0
   -3.1150   -2.7684   -1.7527 O   0  0  0  0  0  0  0  0  0  0  0  0
  1  2  2  0  0  0  0
  1  6  1  0  0  0  0
  2  3  1  0  0  0  0
  3  4  2  0  0  0  0
  4  9  1  0  0  0  0
  5 10  1  0  0  0  0
  5  4  1  0  0  0  0
  6  5  2  0  0  0  0
  7  1  1  0  0  0  0
  8  2  1  0  0  0  0
 12 11  2  0  0  0  0
 13 12  1  0  0  0  0
 14 13  1  0  0  0  0
 15  6  1  0  0  0  0
 15 16  2  0  0  0  0
 17 15  2  0  0  0  0
M  RAD  2   3   2  11   2
M  END
