Coordinates from ORCA-job 4-NO2-Ph-N2-OH-B3LYPG-6-31G_dp-MTMO-d009-169-n900
 OpenBabel09051908013D

 17 17  0  0  0  0  0  0  0  0999 V2000
   -1.0089   -1.5291   -1.2403 C   0  0  0  0  0  0  0  0  0  0  0  0
    0.2465   -0.9851   -1.0238 C   0  0  0  0  0  0  0  0  0  0  0  0
    0.4004    0.2171   -0.2861 C   0  0  0  0  0  0  0  0  0  0  0  0
   -0.7575    0.8267    0.2489 C   0  0  0  0  0  0  0  0  0  0  0  0
   -2.0200    0.2950    0.0259 C   0  0  0  0  0  0  0  0  0  0  0  0
   -2.1292   -0.8786   -0.7181 C   0  0  0  0  0  0  0  0  0  0  0  0
   -1.1421   -2.4488   -1.7958 H   0  0  0  0  0  0  0  0  0  0  0  0
    1.1308   -1.4843   -1.4021 H   0  0  0  0  0  0  0  0  0  0  0  0
   -0.6310    1.7337    0.8301 H   0  0  0  0  0  0  0  0  0  0  0  0
   -2.9133    0.7602    0.4222 H   0  0  0  0  0  0  0  0  0  0  0  0
    1.5305    0.7875   -0.0297 N   0  0  0  0  0  0  0  0  0  0  0  0
    2.4846    0.5481   -0.7954 N   0  0  0  0  0  0  0  0  0  0  0  0
    3.6137    1.1748   -0.3096 O   0  0  0  0  0  0  0  0  0  0  0  0
    4.2787    0.9601   -0.9821 H   0  0  0  0  0  0  0  0  0  0  0  0
   -3.4597   -1.4581   -0.9459 N   0  0  0  0  0  0  0  0  0  0  0  0
   -4.4286   -0.8656   -0.4711 O   0  0  0  0  0  0  0  0  0  0  0  0
   -3.5241   -2.4990   -1.6002 O   0  0  0  0  0  0  0  0  0  0  0  0
  1  2  2  0  0  0  0
  1  6  1  0  0  0  0
  2  3  1  0  0  0  0
  3 11  1  0  0  0  0
  3  4  2  0  0  0  0
  4  9  1  0  0  0  0
  5  4  1  0  0  0  0
  5 10  1  0  0  0  0
  6  5  2  0  0  0  0
  7  1  1  0  0  0  0
  8  2  1  0  0  0  0
 12 13  1  0  0  0  0
 12 11  1  0  0  0  0
 14 13  1  0  0  0  0
 15  6  1  0  0  0  0
 15 16  2  0  0  0  0
 17 15  2  0  0  0  0
M  RAD  2  11   2  12   2
M  END
