Coordinates from ORCA-job 4-NO2-Ph-N2-OH-B3LYPG-6-31G_dp-MTMO-d009-169-n900
 OpenBabel09051908013D

 17 16  0  0  0  0  0  0  0  0999 V2000
   -0.5444   -0.6116   -1.3145 C   0  0  0  0  0  0  0  0  0  0  0  0
    0.3732    0.0602   -0.5207 C   0  0  0  0  0  0  0  0  0  0  0  0
    0.0127    0.4620    0.7754 C   0  0  0  0  0  0  0  0  0  0  0  0
   -1.2712    0.1864    1.2704 C   0  0  0  0  0  0  0  0  0  0  0  0
   -2.1914   -0.4866    0.4761 C   0  0  0  0  0  0  0  0  0  0  0  0
   -1.8195   -0.8793   -0.8091 C   0  0  0  0  0  0  0  0  0  0  0  0
   -0.2947   -0.9333   -2.3174 H   0  0  0  0  0  0  0  0  0  0  0  0
    1.3704    0.2846   -0.8824 H   0  0  0  0  0  0  0  0  0  0  0  0
   -1.5469    0.4997    2.2740 H   0  0  0  0  0  0  0  0  0  0  0  0
   -3.1885   -0.7127    0.8319 H   0  0  0  0  0  0  0  0  0  0  0  0
    4.5423    0.0500   -4.4811 N   0  0  0  0  0  0  0  0  0  0  0  0
    3.8068    0.0900   -3.6570 N   0  0  0  0  0  0  0  0  0  0  0  0
    0.9521    1.1162    1.5041 O   0  0  0  0  0  0  0  0  0  0  0  0
    0.5918    1.3459    2.3710 H   0  0  0  0  0  0  0  0  0  0  0  0
   -2.7873   -1.5872   -1.6458 N   0  0  0  0  0  0  0  0  0  0  0  0
   -3.9039   -1.8061   -1.1719 O   0  0  0  0  0  0  0  0  0  0  0  0
   -2.4307   -1.9240   -2.7762 O   0  0  0  0  0  0  0  0  0  0  0  0
  1  6  2  0  0  0  0
  1  2  1  0  0  0  0
  2  3  2  0  0  0  0
  3  4  1  0  0  0  0
  3 13  1  0  0  0  0
  4  9  1  0  0  0  0
  5 10  1  0  0  0  0
  5  4  2  0  0  0  0
  6  5  1  0  0  0  0
  7  1  1  0  0  0  0
  8  2  1  0  0  0  0
 11 12  3  0  0  0  0
 13 14  1  0  0  0  0
 15 16  2  0  0  0  0
 15  6  1  0  0  0  0
 17 15  2  0  0  0  0
M  END
