Coordinates from ORCA-job 4-NO2-Ph-N2-OH-B3LYPG-6-31G_dp-MTMO-d009-169-n900
 OpenBabel09051908013D

 17 16  0  0  0  0  0  0  0  0999 V2000
   -0.5468   -0.6078   -1.3035 C   0  0  0  0  0  0  0  0  0  0  0  0
    0.3668    0.0642   -0.5054 C   0  0  0  0  0  0  0  0  0  0  0  0
    0.0010    0.4636    0.7900 C   0  0  0  0  0  0  0  0  0  0  0  0
   -1.2842    0.1853    1.2798 C   0  0  0  0  0  0  0  0  0  0  0  0
   -2.2004   -0.4880    0.4812 C   0  0  0  0  0  0  0  0  0  0  0  0
   -1.8232   -0.8783   -0.8032 C   0  0  0  0  0  0  0  0  0  0  0  0
   -0.2929   -0.9277   -2.3060 H   0  0  0  0  0  0  0  0  0  0  0  0
    1.3651    0.2908   -0.8628 H   0  0  0  0  0  0  0  0  0  0  0  0
   -1.5641    0.4967    2.2829 H   0  0  0  0  0  0  0  0  0  0  0  0
   -3.1984   -0.7161    0.8331 H   0  0  0  0  0  0  0  0  0  0  0  0
    4.5936    0.0404   -4.5526 N   0  0  0  0  0  0  0  0  0  0  0  0
    3.8620    0.0827   -3.7252 N   0  0  0  0  0  0  0  0  0  0  0  0
    0.9368    1.1182    1.5231 O   0  0  0  0  0  0  0  0  0  0  0  0
    0.5731    1.3459    2.3890 H   0  0  0  0  0  0  0  0  0  0  0  0
   -2.7869   -1.5865   -1.6444 N   0  0  0  0  0  0  0  0  0  0  0  0
   -3.9049   -1.8078   -1.1749 O   0  0  0  0  0  0  0  0  0  0  0  0
   -2.4257   -1.9211   -2.7740 O   0  0  0  0  0  0  0  0  0  0  0  0
  1  6  2  0  0  0  0
  1  2  1  0  0  0  0
  2  3  2  0  0  0  0
  3  4  1  0  0  0  0
  3 13  1  0  0  0  0
  4  9  1  0  0  0  0
  5 10  1  0  0  0  0
  5  4  2  0  0  0  0
  6  5  1  0  0  0  0
  7  1  1  0  0  0  0
  8  2  1  0  0  0  0
 11 12  3  0  0  0  0
 13 14  1  0  0  0  0
 15 16  2  0  0  0  0
 15  6  1  0  0  0  0
 17 15  2  0  0  0  0
M  END
