Coordinates from ORCA-job 4-NO2-Ph-N2-OH-B3LYPG-6-31G_dp-MTMO-d009-169-n900
 OpenBabel09051908013D

 17 16  0  0  0  0  0  0  0  0999 V2000
   -0.7887   -0.8087   -1.5602 C   0  0  0  0  0  0  0  0  0  0  0  0
    0.2955   -0.1616   -0.9862 C   0  0  0  0  0  0  0  0  0  0  0  0
    0.1928    0.3453    0.3187 C   0  0  0  0  0  0  0  0  0  0  0  0
   -0.9996    0.1993    1.0439 C   0  0  0  0  0  0  0  0  0  0  0  0
   -2.0862   -0.4487    0.4697 C   0  0  0  0  0  0  0  0  0  0  0  0
   -1.9706   -0.9467   -0.8275 C   0  0  0  0  0  0  0  0  0  0  0  0
   -0.7405   -1.2095   -2.5646 H   0  0  0  0  0  0  0  0  0  0  0  0
    1.2272   -0.0363   -1.5267 H   0  0  0  0  0  0  0  0  0  0  0  0
   -1.0738    0.5929    2.0544 H   0  0  0  0  0  0  0  0  0  0  0  0
   -3.0183   -0.5752    1.0064 H   0  0  0  0  0  0  0  0  0  0  0  0
    4.7654    0.8677   -2.6776 N   0  0  0  0  0  0  0  0  0  0  0  0
    3.7247    0.5049   -2.5976 N   0  0  0  0  0  0  0  0  0  0  0  0
    1.2849    0.9701    0.8282 O   0  0  0  0  0  0  0  0  0  0  0  0
    1.0957    1.2781    1.7246 H   0  0  0  0  0  0  0  0  0  0  0  0
   -3.1134   -1.6277   -1.4342 N   0  0  0  0  0  0  0  0  0  0  0  0
   -4.1434   -1.7285   -0.7644 O   0  0  0  0  0  0  0  0  0  0  0  0
   -2.9807   -2.0610   -2.5800 O   0  0  0  0  0  0  0  0  0  0  0  0
  1  2  2  0  0  0  0
  1  6  1  0  0  0  0
  2  3  1  0  0  0  0
  3 13  1  0  0  0  0
  3  4  2  0  0  0  0
  4  9  1  0  0  0  0
  5 10  1  0  0  0  0
  5  4  1  0  0  0  0
  6  5  2  0  0  0  0
  7  1  1  0  0  0  0
  8  2  1  0  0  0  0
 11 12  3  0  0  0  0
 13 14  1  0  0  0  0
 15  6  1  0  0  0  0
 15 16  2  0  0  0  0
 17 15  2  0  0  0  0
M  END
