Coordinates from ORCA-job 4-NO2-Ph-N2-OH-B3LYPG-6-31G_dp-MTMO-d009-169-n900
 OpenBabel09051908013D

 17 16  0  0  0  0  0  0  0  0999 V2000
    0.6043    0.4117   -0.3293 C   0  0  0  0  0  0  0  0  0  0  0  0
    0.4949    0.8333    0.9874 C   0  0  0  0  0  0  0  0  0  0  0  0
   -0.6682    0.5459    1.7194 C   0  0  0  0  0  0  0  0  0  0  0  0
   -1.7192   -0.1676    1.1224 C   0  0  0  0  0  0  0  0  0  0  0  0
   -1.6113   -0.5909   -0.1965 C   0  0  0  0  0  0  0  0  0  0  0  0
   -0.4504   -0.2971   -0.9111 C   0  0  0  0  0  0  0  0  0  0  0  0
    1.4892    0.6201   -0.9177 H   0  0  0  0  0  0  0  0  0  0  0  0
    1.2945    1.3849    1.4694 H   0  0  0  0  0  0  0  0  0  0  0  0
   -2.6181   -0.3903    1.6921 H   0  0  0  0  0  0  0  0  0  0  0  0
   -2.4076   -1.1424   -0.6805 H   0  0  0  0  0  0  0  0  0  0  0  0
    0.1366   -2.4566   -6.7434 N   0  0  0  0  0  0  0  0  0  0  0  0
    0.3266   -2.7476   -5.6941 N   0  0  0  0  0  0  0  0  0  0  0  0
   -0.7182    0.9843    3.0021 O   0  0  0  0  0  0  0  0  0  0  0  0
   -1.5619    0.7315    3.4003 H   0  0  0  0  0  0  0  0  0  0  0  0
   -0.3364   -0.7395   -2.3008 N   0  0  0  0  0  0  0  0  0  0  0  0
   -1.2844   -1.3602   -2.7859 O   0  0  0  0  0  0  0  0  0  0  0  0
    0.7005   -0.4650   -2.9072 O   0  0  0  0  0  0  0  0  0  0  0  0
  1  2  1  0  0  0  0
  2  8  1  0  0  0  0
  2  3  2  0  0  0  0
  3 13  1  0  0  0  0
  4  9  1  0  0  0  0
  4  3  1  0  0  0  0
  5  4  2  0  0  0  0
  6  1  2  0  0  0  0
  6  5  1  0  0  0  0
  7  1  1  0  0  0  0
 10  5  1  0  0  0  0
 11 12  3  0  0  0  0
 13 14  1  0  0  0  0
 15  6  1  0  0  0  0
 16 15  2  0  0  0  0
 17 15  2  0  0  0  0
M  END
