Coordinates from ORCA-job 4-NO2-Ph-N2-OH-B3LYPG-6-31G_dp-MTMO-d009-169-n900
 OpenBabel09051908013D

 17 16  0  0  0  0  0  0  0  0999 V2000
   -0.9114   -0.9669   -1.6572 C   0  0  0  0  0  0  0  0  0  0  0  0
    0.2603   -0.3708   -1.2152 C   0  0  0  0  0  0  0  0  0  0  0  0
    0.3035    0.2226    0.0563 C   0  0  0  0  0  0  0  0  0  0  0  0
   -0.8316    0.2156    0.8812 C   0  0  0  0  0  0  0  0  0  0  0  0
   -2.0060   -0.3811    0.4389 C   0  0  0  0  0  0  0  0  0  0  0  0
   -2.0348   -0.9668   -0.8261 C   0  0  0  0  0  0  0  0  0  0  0  0
   -0.9751   -1.4321   -2.6326 H   0  0  0  0  0  0  0  0  0  0  0  0
    1.1514   -0.3499   -1.8323 H   0  0  0  0  0  0  0  0  0  0  0  0
   -0.7934    0.6760    1.8651 H   0  0  0  0  0  0  0  0  0  0  0  0
   -2.8976   -0.4015    1.0531 H   0  0  0  0  0  0  0  0  0  0  0  0
    4.5739    1.4297   -1.6710 N   0  0  0  0  0  0  0  0  0  0  0  0
    3.7460    0.8025   -2.0480 N   0  0  0  0  0  0  0  0  0  0  0  0
    1.4775    0.7909    0.4343 O   0  0  0  0  0  0  0  0  0  0  0  0
    1.3895    1.1614    1.3227 H   0  0  0  0  0  0  0  0  0  0  0  0
   -3.2707   -1.5944   -1.2921 N   0  0  0  0  0  0  0  0  0  0  0  0
   -4.2449   -1.5735   -0.5374 O   0  0  0  0  0  0  0  0  0  0  0  0
   -3.2658   -2.1072   -2.4127 O   0  0  0  0  0  0  0  0  0  0  0  0
  1  2  2  0  0  0  0
  1  6  1  0  0  0  0
  2  3  1  0  0  0  0
  3 13  1  0  0  0  0
  3  4  2  0  0  0  0
  4  9  1  0  0  0  0
  5  4  1  0  0  0  0
  5 10  1  0  0  0  0
  6  5  2  0  0  0  0
  7  1  1  0  0  0  0
  8  2  1  0  0  0  0
 12 11  3  0  0  0  0
 13 14  1  0  0  0  0
 15  6  1  0  0  0  0
 15 16  2  0  0  0  0
 17 15  2  0  0  0  0
M  END
