Coordinates from ORCA-job 4-NO2-Ph-N2-OH-B3LYPG-6-31G_dp-MTMO-d009-169-n900
 OpenBabel09051908013D

 17 16  0  0  0  0  0  0  0  0999 V2000
   -0.5474   -0.6073   -1.3018 C   0  0  0  0  0  0  0  0  0  0  0  0
    0.3656    0.0647   -0.5030 C   0  0  0  0  0  0  0  0  0  0  0  0
   -0.0009    0.4638    0.7922 C   0  0  0  0  0  0  0  0  0  0  0  0
   -1.2864    0.1851    1.2814 C   0  0  0  0  0  0  0  0  0  0  0  0
   -2.2019   -0.4882    0.4821 C   0  0  0  0  0  0  0  0  0  0  0  0
   -1.8240   -0.8782   -0.8022 C   0  0  0  0  0  0  0  0  0  0  0  0
   -0.2927   -0.9269   -2.3042 H   0  0  0  0  0  0  0  0  0  0  0  0
    1.3641    0.2918   -0.8596 H   0  0  0  0  0  0  0  0  0  0  0  0
   -1.5668    0.4962    2.2843 H   0  0  0  0  0  0  0  0  0  0  0  0
   -3.2001   -0.7166    0.8334 H   0  0  0  0  0  0  0  0  0  0  0  0
    4.6029    0.0392   -4.5642 N   0  0  0  0  0  0  0  0  0  0  0  0
    3.8715    0.0816   -3.7366 N   0  0  0  0  0  0  0  0  0  0  0  0
    0.9344    1.1184    1.5259 O   0  0  0  0  0  0  0  0  0  0  0  0
    0.5701    1.3459    2.3918 H   0  0  0  0  0  0  0  0  0  0  0  0
   -2.7871   -1.5864   -1.6440 N   0  0  0  0  0  0  0  0  0  0  0  0
   -3.9053   -1.8080   -1.1751 O   0  0  0  0  0  0  0  0  0  0  0  0
   -2.4253   -1.9207   -2.7735 O   0  0  0  0  0  0  0  0  0  0  0  0
  1  6  2  0  0  0  0
  1  2  1  0  0  0  0
  2  3  2  0  0  0  0
  3  4  1  0  0  0  0
  3 13  1  0  0  0  0
  4  9  1  0  0  0  0
  5 10  1  0  0  0  0
  5  4  2  0  0  0  0
  6  5  1  0  0  0  0
  7  1  1  0  0  0  0
  8  2  1  0  0  0  0
 11 12  3  0  0  0  0
 13 14  1  0  0  0  0
 15 16  2  0  0  0  0
 15  6  1  0  0  0  0
 17 15  2  0  0  0  0
M  END
