Coordinates from ORCA-job 4-NO2-Ph-N2-OH-B3LYPG-6-31G_dp-MTMO-d009-169-n900
 OpenBabel09051908023D

 17 16  0  0  0  0  0  0  0  0999 V2000
    0.5875    0.7261    0.3728 C   0  0  0  0  0  0  0  0  0  0  0  0
    0.3969    1.1839    1.6676 C   0  0  0  0  0  0  0  0  0  0  0  0
   -0.7844    0.8635    2.3548 C   0  0  0  0  0  0  0  0  0  0  0  0
   -1.7722    0.0815    1.7367 C   0  0  0  0  0  0  0  0  0  0  0  0
   -1.5828   -0.3781    0.4396 C   0  0  0  0  0  0  0  0  0  0  0  0
   -0.4047   -0.0512   -0.2306 C   0  0  0  0  0  0  0  0  0  0  0  0
    1.4881    0.9579   -0.1819 H   0  0  0  0  0  0  0  0  0  0  0  0
    1.1457    1.7888    2.1669 H   0  0  0  0  0  0  0  0  0  0  0  0
   -2.6854   -0.1657    2.2725 H   0  0  0  0  0  0  0  0  0  0  0  0
   -2.3284   -0.9825   -0.0617 H   0  0  0  0  0  0  0  0  0  0  0  0
    0.1431   -4.2866  -11.5271 N   0  0  0  0  0  0  0  0  0  0  0  0
    0.6042   -5.0055  -10.8255 N   0  0  0  0  0  0  0  0  0  0  0  0
   -0.9149    1.3400    3.6182 O   0  0  0  0  0  0  0  0  0  0  0  0
   -1.7640    1.0607    3.9860 H   0  0  0  0  0  0  0  0  0  0  0  0
   -0.2048   -0.5332   -1.5965 N   0  0  0  0  0  0  0  0  0  0  0  0
   -1.0989   -1.2155   -2.1011 O   0  0  0  0  0  0  0  0  0  0  0  0
    0.8459   -0.2297   -2.1637 O   0  0  0  0  0  0  0  0  0  0  0  0
  1  2  1  0  0  0  0
  2  8  1  0  0  0  0
  2  3  2  0  0  0  0
  3 13  1  0  0  0  0
  4  9  1  0  0  0  0
  4  3  1  0  0  0  0
  5  4  2  0  0  0  0
  6  1  2  0  0  0  0
  6  5  1  0  0  0  0
  7  1  1  0  0  0  0
 10  5  1  0  0  0  0
 11 12  3  0  0  0  0
 13 14  1  0  0  0  0
 15  6  1  0  0  0  0
 16 15  2  0  0  0  0
 17 15  2  0  0  0  0
M  END
