Coordinates from ORCA-job 4-NO2-Ph-N2-OH-B3LYPG-6-31G_dp-MTMO-d009-169-n900
 OpenBabel09051908013D

 17 16  0  0  0  0  0  0  0  0999 V2000
   -0.5493   -0.6043   -1.2926 C   0  0  0  0  0  0  0  0  0  0  0  0
    0.3603    0.0680   -0.4902 C   0  0  0  0  0  0  0  0  0  0  0  0
   -0.0106    0.4651    0.8044 C   0  0  0  0  0  0  0  0  0  0  0  0
   -1.2972    0.1842    1.2892 C   0  0  0  0  0  0  0  0  0  0  0  0
   -2.2095   -0.4893    0.4863 C   0  0  0  0  0  0  0  0  0  0  0  0
   -1.8272   -0.8774   -0.7973 C   0  0  0  0  0  0  0  0  0  0  0  0
   -0.2913   -0.9224   -2.2946 H   0  0  0  0  0  0  0  0  0  0  0  0
    1.3596    0.2967   -0.8434 H   0  0  0  0  0  0  0  0  0  0  0  0
   -1.5811    0.4938    2.2917 H   0  0  0  0  0  0  0  0  0  0  0  0
   -3.2084   -0.7193    0.8344 H   0  0  0  0  0  0  0  0  0  0  0  0
    4.6459    0.0315   -4.6236 N   0  0  0  0  0  0  0  0  0  0  0  0
    3.9173    0.0755   -3.7936 N   0  0  0  0  0  0  0  0  0  0  0  0
    0.9216    1.1200    1.5416 O   0  0  0  0  0  0  0  0  0  0  0  0
    0.5546    1.3459    2.4067 H   0  0  0  0  0  0  0  0  0  0  0  0
   -2.7868   -1.5858   -1.6428 N   0  0  0  0  0  0  0  0  0  0  0  0
   -3.9061   -1.8094   -1.1777 O   0  0  0  0  0  0  0  0  0  0  0  0
   -2.4210   -1.9182   -2.7716 O   0  0  0  0  0  0  0  0  0  0  0  0
  1  6  2  0  0  0  0
  1  2  1  0  0  0  0
  2  3  2  0  0  0  0
  3  4  1  0  0  0  0
  3 13  1  0  0  0  0
  4  9  1  0  0  0  0
  5 10  1  0  0  0  0
  5  4  2  0  0  0  0
  6  5  1  0  0  0  0
  7  1  1  0  0  0  0
  8  2  1  0  0  0  0
 11 12  3  0  0  0  0
 13 14  1  0  0  0  0
 15 16  2  0  0  0  0
 15  6  1  0  0  0  0
 17 15  2  0  0  0  0
M  END
