Coordinates from ORCA-job 4-NO2-Ph-N2-OH-B3LYPG-6-31G_dp-MTMO-d009-169-n900
 OpenBabel09051908013D

 17 16  0  0  0  0  0  0  0  0999 V2000
    0.6303    0.5344   -0.1333 C   0  0  0  0  0  0  0  0  0  0  0  0
    0.4432    0.9551    1.1745 C   0  0  0  0  0  0  0  0  0  0  0  0
   -0.7373    0.6172    1.8549 C   0  0  0  0  0  0  0  0  0  0  0  0
   -1.7278   -0.1448    1.2165 C   0  0  0  0  0  0  0  0  0  0  0  0
   -1.5420   -0.5671   -0.0937 C   0  0  0  0  0  0  0  0  0  0  0  0
   -0.3647   -0.2233   -0.7568 C   0  0  0  0  0  0  0  0  0  0  0  0
    1.5303    0.7804   -0.6829 H   0  0  0  0  0  0  0  0  0  0  0  0
    1.1943    1.5438    1.6894 H   0  0  0  0  0  0  0  0  0  0  0  0
   -2.6404   -0.4058    1.7468 H   0  0  0  0  0  0  0  0  0  0  0  0
   -2.2898   -1.1554   -0.6105 H   0  0  0  0  0  0  0  0  0  0  0  0
   -0.1675   -2.7312   -7.6205 N   0  0  0  0  0  0  0  0  0  0  0  0
    0.2704   -3.5273   -6.9911 N   0  0  0  0  0  0  0  0  0  0  0  0
   -0.8639    1.0575    3.1317 O   0  0  0  0  0  0  0  0  0  0  0  0
   -1.7126    0.7694    3.4935 H   0  0  0  0  0  0  0  0  0  0  0  0
   -0.1685   -0.6666   -2.1363 N   0  0  0  0  0  0  0  0  0  0  0  0
   -1.0651   -1.3319   -2.6587 O   0  0  0  0  0  0  0  0  0  0  0  0
    0.8821   -0.3498   -2.6967 O   0  0  0  0  0  0  0  0  0  0  0  0
  1  2  1  0  0  0  0
  2  8  1  0  0  0  0
  2  3  2  0  0  0  0
  3 13  1  0  0  0  0
  4  9  1  0  0  0  0
  4  3  1  0  0  0  0
  5  4  2  0  0  0  0
  6  1  2  0  0  0  0
  6  5  1  0  0  0  0
  7  1  1  0  0  0  0
 10  5  1  0  0  0  0
 11 12  3  0  0  0  0
 13 14  1  0  0  0  0
 15  6  1  0  0  0  0
 16 15  2  0  0  0  0
 17 15  2  0  0  0  0
M  END
