Coordinates from ORCA-job 4-NO2-Ph-N2-OH-B3LYPG-6-31G_dp-MTMO-d009-169-n900
 OpenBabel09051908013D

 17 16  0  0  0  0  0  0  0  0999 V2000
    0.6034    0.6493    0.1713 C   0  0  0  0  0  0  0  0  0  0  0  0
    0.4161    1.0929    1.4716 C   0  0  0  0  0  0  0  0  0  0  0  0
   -0.7643    0.7664    2.1576 C   0  0  0  0  0  0  0  0  0  0  0  0
   -1.7544   -0.0072    1.5328 C   0  0  0  0  0  0  0  0  0  0  0  0
   -1.5684   -0.4523    0.2302 C   0  0  0  0  0  0  0  0  0  0  0  0
   -0.3912   -0.1196   -0.4387 C   0  0  0  0  0  0  0  0  0  0  0  0
    1.5032    0.8861   -0.3826 H   0  0  0  0  0  0  0  0  0  0  0  0
    1.1669    1.6910    1.9761 H   0  0  0  0  0  0  0  0  0  0  0  0
   -2.6669   -0.2591    2.0677 H   0  0  0  0  0  0  0  0  0  0  0  0
   -2.3159   -1.0500   -0.2763 H   0  0  0  0  0  0  0  0  0  0  0  0
    0.0277   -3.6681   -9.9825 N   0  0  0  0  0  0  0  0  0  0  0  0
    0.4768   -4.4237   -9.3124 N   0  0  0  0  0  0  0  0  0  0  0  0
   -0.8913    1.2290    3.4266 O   0  0  0  0  0  0  0  0  0  0  0  0
   -1.7401    0.9468    3.7930 H   0  0  0  0  0  0  0  0  0  0  0  0
   -0.1948   -0.5867   -1.8104 N   0  0  0  0  0  0  0  0  0  0  0  0
   -1.0910   -1.2617   -2.3208 O   0  0  0  0  0  0  0  0  0  0  0  0
    0.8553   -0.2786   -2.3763 O   0  0  0  0  0  0  0  0  0  0  0  0
  1  2  1  0  0  0  0
  2  8  1  0  0  0  0
  2  3  2  0  0  0  0
  3 13  1  0  0  0  0
  4  9  1  0  0  0  0
  4  3  1  0  0  0  0
  5  4  2  0  0  0  0
  6  1  2  0  0  0  0
  6  5  1  0  0  0  0
  7  1  1  0  0  0  0
 10  5  1  0  0  0  0
 11 12  3  0  0  0  0
 13 14  1  0  0  0  0
 15  6  1  0  0  0  0
 16 15  2  0  0  0  0
 17 15  2  0  0  0  0
M  END
