Coordinates from ORCA-job 4-NO2-Ph-N2-OH-B3LYPG-6-31G_dp-MTMO-d009-169-n900
 OpenBabel09051908023D

 17 16  0  0  0  0  0  0  0  0999 V2000
    0.5853    0.7370    0.4013 C   0  0  0  0  0  0  0  0  0  0  0  0
    0.3942    1.1966    1.6953 C   0  0  0  0  0  0  0  0  0  0  0  0
   -0.7873    0.8770    2.3826 C   0  0  0  0  0  0  0  0  0  0  0  0
   -1.7747    0.0939    1.7653 C   0  0  0  0  0  0  0  0  0  0  0  0
   -1.5849   -0.3675    0.4690 C   0  0  0  0  0  0  0  0  0  0  0  0
   -0.4066   -0.0414   -0.2013 C   0  0  0  0  0  0  0  0  0  0  0  0
    1.4860    0.9682   -0.1536 H   0  0  0  0  0  0  0  0  0  0  0  0
    1.1428    1.8024    2.1939 H   0  0  0  0  0  0  0  0  0  0  0  0
   -2.6880   -0.1527    2.3012 H   0  0  0  0  0  0  0  0  0  0  0  0
   -2.3301   -0.9728   -0.0316 H   0  0  0  0  0  0  0  0  0  0  0  0
    0.1594   -4.3750  -11.7456 N   0  0  0  0  0  0  0  0  0  0  0  0
    0.6218   -5.0866  -11.0374 N   0  0  0  0  0  0  0  0  0  0  0  0
   -0.9182    1.3554    3.6453 O   0  0  0  0  0  0  0  0  0  0  0  0
   -1.7673    1.0764    4.0132 H   0  0  0  0  0  0  0  0  0  0  0  0
   -0.2062   -0.5254   -1.5665 N   0  0  0  0  0  0  0  0  0  0  0  0
   -1.1000   -1.2086   -2.0704 O   0  0  0  0  0  0  0  0  0  0  0  0
    0.8447   -0.2224   -2.1338 O   0  0  0  0  0  0  0  0  0  0  0  0
  1  2  1  0  0  0  0
  2  8  1  0  0  0  0
  2  3  2  0  0  0  0
  3 13  1  0  0  0  0
  4  9  1  0  0  0  0
  4  3  1  0  0  0  0
  5  4  2  0  0  0  0
  6  1  2  0  0  0  0
  6  5  1  0  0  0  0
  7  1  1  0  0  0  0
 10  5  1  0  0  0  0
 11 12  3  0  0  0  0
 13 14  1  0  0  0  0
 15  6  1  0  0  0  0
 16 15  2  0  0  0  0
 17 15  2  0  0  0  0
M  END
