Coordinates from ORCA-job 4-NO2-Ph-N2-OH-B3LYPG-6-31G_dp-MTMO-d009-169-n900
 OpenBabel09051908013D

 17 16  0  0  0  0  0  0  0  0999 V2000
    0.6085    0.6256    0.1087 C   0  0  0  0  0  0  0  0  0  0  0  0
    0.4220    1.0643    1.4106 C   0  0  0  0  0  0  0  0  0  0  0  0
   -0.7581    0.7359    2.0960 C   0  0  0  0  0  0  0  0  0  0  0  0
   -1.7489   -0.0350    1.4689 C   0  0  0  0  0  0  0  0  0  0  0  0
   -1.5637   -0.4754    0.1646 C   0  0  0  0  0  0  0  0  0  0  0  0
   -0.3868   -0.1407   -0.5037 C   0  0  0  0  0  0  0  0  0  0  0  0
    1.5081    0.8640   -0.4448 H   0  0  0  0  0  0  0  0  0  0  0  0
    1.1733    1.6603    1.9170 H   0  0  0  0  0  0  0  0  0  0  0  0
   -2.6612   -0.2885    2.0032 H   0  0  0  0  0  0  0  0  0  0  0  0
   -2.3117   -1.0709   -0.3438 H   0  0  0  0  0  0  0  0  0  0  0  0
   -0.0094   -3.4772   -9.5014 N   0  0  0  0  0  0  0  0  0  0  0  0
    0.4366   -4.2408   -8.8384 N   0  0  0  0  0  0  0  0  0  0  0  0
   -0.8844    1.1938    3.3668 O   0  0  0  0  0  0  0  0  0  0  0  0
   -1.7330    0.9106    3.7326 H   0  0  0  0  0  0  0  0  0  0  0  0
   -0.1912   -0.6028   -1.8772 N   0  0  0  0  0  0  0  0  0  0  0  0
   -1.0880   -1.2755   -2.3897 O   0  0  0  0  0  0  0  0  0  0  0  0
    0.8588   -0.2932   -2.4425 O   0  0  0  0  0  0  0  0  0  0  0  0
  1  2  1  0  0  0  0
  2  8  1  0  0  0  0
  2  3  2  0  0  0  0
  3 13  1  0  0  0  0
  4  9  1  0  0  0  0
  4  3  1  0  0  0  0
  5  4  2  0  0  0  0
  6  1  2  0  0  0  0
  6  5  1  0  0  0  0
  7  1  1  0  0  0  0
 10  5  1  0  0  0  0
 11 12  3  0  0  0  0
 13 14  1  0  0  0  0
 15  6  1  0  0  0  0
 16 15  2  0  0  0  0
 17 15  2  0  0  0  0
M  END
