Coordinates from ORCA-job 4-NO2-Ph-N2-OH-B3LYPG-6-31G_dp-MTMO-d009-169-n900
 OpenBabel09051908023D

 17 16  0  0  0  0  0  0  0  0999 V2000
    0.5923    0.7029    0.3121 C   0  0  0  0  0  0  0  0  0  0  0  0
    0.4027    1.1566    1.6085 C   0  0  0  0  0  0  0  0  0  0  0  0
   -0.7784    0.8344    2.2954 C   0  0  0  0  0  0  0  0  0  0  0  0
   -1.7668    0.0549    1.6754 C   0  0  0  0  0  0  0  0  0  0  0  0
   -1.5785   -0.4005    0.3767 C   0  0  0  0  0  0  0  0  0  0  0  0
   -0.4007   -0.0720   -0.2932 C   0  0  0  0  0  0  0  0  0  0  0  0
    1.4926    0.9361   -0.2425 H   0  0  0  0  0  0  0  0  0  0  0  0
    1.1521    1.7595    2.1092 H   0  0  0  0  0  0  0  0  0  0  0  0
   -2.6798   -0.1937    2.2110 H   0  0  0  0  0  0  0  0  0  0  0  0
   -2.3246   -1.0030   -0.1261 H   0  0  0  0  0  0  0  0  0  0  0  0
    0.1085   -4.0989  -11.0610 N   0  0  0  0  0  0  0  0  0  0  0  0
    0.5660   -4.8313  -10.3711 N   0  0  0  0  0  0  0  0  0  0  0  0
   -0.9078    1.3070    3.5604 O   0  0  0  0  0  0  0  0  0  0  0  0
   -1.7567    1.0268    3.9279 H   0  0  0  0  0  0  0  0  0  0  0  0
   -0.2019   -0.5497   -1.6608 N   0  0  0  0  0  0  0  0  0  0  0  0
   -1.0966   -1.2299   -2.1671 O   0  0  0  0  0  0  0  0  0  0  0  0
    0.8487   -0.2448   -2.2277 O   0  0  0  0  0  0  0  0  0  0  0  0
  1  2  1  0  0  0  0
  2  8  1  0  0  0  0
  2  3  2  0  0  0  0
  3 13  1  0  0  0  0
  4  9  1  0  0  0  0
  4  3  1  0  0  0  0
  5  4  2  0  0  0  0
  6  1  2  0  0  0  0
  6  5  1  0  0  0  0
  7  1  1  0  0  0  0
 10  5  1  0  0  0  0
 11 12  3  0  0  0  0
 13 14  1  0  0  0  0
 15  6  1  0  0  0  0
 16 15  2  0  0  0  0
 17 15  2  0  0  0  0
M  END
