Coordinates from ORCA-job 4-NO2-Ph-N2-OH-B3LYPG-6-31G_dp-MTMO-d009-169-n900
 OpenBabel09051908023D

 17 16  0  0  0  0  0  0  0  0999 V2000
    0.5971    0.6797    0.2512 C   0  0  0  0  0  0  0  0  0  0  0  0
    0.4085    1.1291    1.5493 C   0  0  0  0  0  0  0  0  0  0  0  0
   -0.7722    0.8051    2.2358 C   0  0  0  0  0  0  0  0  0  0  0  0
   -1.7615    0.0281    1.6138 C   0  0  0  0  0  0  0  0  0  0  0  0
   -1.5742   -0.4230    0.3135 C   0  0  0  0  0  0  0  0  0  0  0  0
   -0.3967   -0.0927   -0.3560 C   0  0  0  0  0  0  0  0  0  0  0  0
    1.4971    0.9144   -0.3031 H   0  0  0  0  0  0  0  0  0  0  0  0
    1.1585    1.7300    2.0516 H   0  0  0  0  0  0  0  0  0  0  0  0
   -2.6742   -0.2219    2.1492 H   0  0  0  0  0  0  0  0  0  0  0  0
   -2.3209   -1.0234   -0.1908 H   0  0  0  0  0  0  0  0  0  0  0  0
    0.0738   -3.9121  -10.5948 N   0  0  0  0  0  0  0  0  0  0  0  0
    0.5275   -4.6556   -9.9143 N   0  0  0  0  0  0  0  0  0  0  0  0
   -0.9006    1.2735    3.5026 O   0  0  0  0  0  0  0  0  0  0  0  0
   -1.7494    0.9925    3.8696 H   0  0  0  0  0  0  0  0  0  0  0  0
   -0.1989   -0.5658   -1.7254 N   0  0  0  0  0  0  0  0  0  0  0  0
   -1.0943   -1.2438   -2.2334 O   0  0  0  0  0  0  0  0  0  0  0  0
    0.8514   -0.2596   -2.2919 O   0  0  0  0  0  0  0  0  0  0  0  0
  1  2  1  0  0  0  0
  2  8  1  0  0  0  0
  2  3  2  0  0  0  0
  3 13  1  0  0  0  0
  4  9  1  0  0  0  0
  4  3  1  0  0  0  0
  5  4  2  0  0  0  0
  6  1  2  0  0  0  0
  6  5  1  0  0  0  0
  7  1  1  0  0  0  0
 10  5  1  0  0  0  0
 11 12  3  0  0  0  0
 13 14  1  0  0  0  0
 15  6  1  0  0  0  0
 16 15  2  0  0  0  0
 17 15  2  0  0  0  0
M  END
