Coordinates from ORCA-job 4-NO2-Ph-N2-OH-B3LYPG-6-31G_dp-MTMO-d009-169-n900
 OpenBabel09051908013D

 17 15  0  0  0  0  0  0  0  0999 V2000
   -0.9229   -1.1165   -1.0573 C   0  0  0  0  0  0  0  0  0  0  0  0
    0.0620   -0.2034   -0.6352 C   0  0  0  0  0  0  0  0  0  0  0  0
   -0.4204    0.8203    0.1105 C   0  0  0  0  0  0  0  0  0  0  0  0
   -1.6845    1.1254    0.5255 C   0  0  0  0  0  0  0  0  0  0  0  0
   -2.6519    0.2002    0.0932 C   0  0  0  0  0  0  0  0  0  0  0  0
   -2.2485   -0.8896   -0.6820 C   0  0  0  0  0  0  0  0  0  0  0  0
   -0.6706   -1.9815   -1.6604 H   0  0  0  0  0  0  0  0  0  0  0  0
    1.1167   -0.3258   -0.8966 H   0  0  0  0  0  0  0  0  0  0  0  0
   -1.9496    1.9880    1.1280 H   0  0  0  0  0  0  0  0  0  0  0  0
   -3.6981    0.3200    0.3519 H   0  0  0  0  0  0  0  0  0  0  0  0
    3.1110    1.6246    0.0161 N   0  0  0  0  0  0  0  0  0  0  0  0
    3.0770    0.6800   -0.5816 N   0  0  0  0  0  0  0  0  0  0  0  0
    4.7946   -0.0122   -1.3271 O   0  0  0  0  0  0  0  0  0  0  0  0
    4.3770   -0.7929   -1.7319 H   0  0  0  0  0  0  0  0  0  0  0  0
   -3.2772   -1.8488   -1.1279 N   0  0  0  0  0  0  0  0  0  0  0  0
   -4.4390   -1.6298   -0.7925 O   0  0  0  0  0  0  0  0  0  0  0  0
   -2.9046   -2.8036   -1.8057 O   0  0  0  0  0  0  0  0  0  0  0  0
  1  6  2  0  0  0  0
  1  2  1  0  0  0  0
  2  3  2  0  0  0  0
  3  4  1  0  0  0  0
  4  9  1  0  0  0  0
  5 10  1  0  0  0  0
  5  4  2  0  0  0  0
  6  5  1  0  0  0  0
  7  1  1  0  0  0  0
  8  2  1  0  0  0  0
 12 11  3  0  0  0  0
 14 13  1  0  0  0  0
 15 16  2  0  0  0  0
 15  6  1  0  0  0  0
 17 15  2  0  0  0  0
M  RAD  2   3   2  13   2
M  END
