Coordinates from ORCA-job 4-NO2-Ph-N2-OH-B3LYPG-6-31G_dp-MTMO-d009-169-n900
 OpenBabel09051908023D

 17 16  0  0  0  0  0  0  0  0999 V2000
    0.5945    0.6920    0.2836 C   0  0  0  0  0  0  0  0  0  0  0  0
    0.4054    1.1437    1.5807 C   0  0  0  0  0  0  0  0  0  0  0  0
   -0.7755    0.8207    2.2675 C   0  0  0  0  0  0  0  0  0  0  0  0
   -1.7643    0.0423    1.6465 C   0  0  0  0  0  0  0  0  0  0  0  0
   -1.5765   -0.4111    0.3471 C   0  0  0  0  0  0  0  0  0  0  0  0
   -0.3988   -0.0817   -0.3226 C   0  0  0  0  0  0  0  0  0  0  0  0
    1.4947    0.9259   -0.2709 H   0  0  0  0  0  0  0  0  0  0  0  0
    1.1551    1.7457    2.0822 H   0  0  0  0  0  0  0  0  0  0  0  0
   -2.6772   -0.2069    2.1820 H   0  0  0  0  0  0  0  0  0  0  0  0
   -2.3229   -1.0126   -0.1564 H   0  0  0  0  0  0  0  0  0  0  0  0
    0.0923   -4.0112  -10.8425 N   0  0  0  0  0  0  0  0  0  0  0  0
    0.5479   -4.7491  -10.1572 N   0  0  0  0  0  0  0  0  0  0  0  0
   -0.9044    1.2913    3.5333 O   0  0  0  0  0  0  0  0  0  0  0  0
   -1.7533    1.0108    3.9006 H   0  0  0  0  0  0  0  0  0  0  0  0
   -0.2005   -0.5573   -1.6911 N   0  0  0  0  0  0  0  0  0  0  0  0
   -1.0955   -1.2365   -2.1981 O   0  0  0  0  0  0  0  0  0  0  0  0
    0.8499   -0.2518   -2.2578 O   0  0  0  0  0  0  0  0  0  0  0  0
  1  2  1  0  0  0  0
  2  8  1  0  0  0  0
  2  3  2  0  0  0  0
  3 13  1  0  0  0  0
  4  9  1  0  0  0  0
  4  3  1  0  0  0  0
  5  4  2  0  0  0  0
  6  1  2  0  0  0  0
  6  5  1  0  0  0  0
  7  1  1  0  0  0  0
 10  5  1  0  0  0  0
 11 12  3  0  0  0  0
 13 14  1  0  0  0  0
 15  6  1  0  0  0  0
 16 15  2  0  0  0  0
 17 15  2  0  0  0  0
M  END
