Coordinates from ORCA-job 4-NO2-Ph-N2-OH-B3LYPG-6-31G_dp-MTMO-d009-169-n900
 OpenBabel09051908013D

 17 16  0  0  0  0  0  0  0  0999 V2000
    0.6307    0.5330   -0.1370 C   0  0  0  0  0  0  0  0  0  0  0  0
    0.4435    0.9534    1.1709 C   0  0  0  0  0  0  0  0  0  0  0  0
   -0.7370    0.6154    1.8511 C   0  0  0  0  0  0  0  0  0  0  0  0
   -1.7275   -0.1465    1.2126 C   0  0  0  0  0  0  0  0  0  0  0  0
   -1.5416   -0.5685   -0.0977 C   0  0  0  0  0  0  0  0  0  0  0  0
   -0.3643   -0.2246   -0.7607 C   0  0  0  0  0  0  0  0  0  0  0  0
    1.5307    0.7791   -0.6865 H   0  0  0  0  0  0  0  0  0  0  0  0
    1.1946    1.5421    1.6860 H   0  0  0  0  0  0  0  0  0  0  0  0
   -2.6401   -0.4076    1.7427 H   0  0  0  0  0  0  0  0  0  0  0  0
   -2.2894   -1.1568   -0.6147 H   0  0  0  0  0  0  0  0  0  0  0  0
   -0.1703   -2.7196   -7.5913 N   0  0  0  0  0  0  0  0  0  0  0  0
    0.2676   -3.5163   -6.9628 N   0  0  0  0  0  0  0  0  0  0  0  0
   -0.8637    1.0554    3.1281 O   0  0  0  0  0  0  0  0  0  0  0  0
   -1.7125    0.7672    3.4897 H   0  0  0  0  0  0  0  0  0  0  0  0
   -0.1679   -0.6677   -2.1402 N   0  0  0  0  0  0  0  0  0  0  0  0
   -1.0645   -1.3328   -2.6628 O   0  0  0  0  0  0  0  0  0  0  0  0
    0.8826   -0.3507   -2.7005 O   0  0  0  0  0  0  0  0  0  0  0  0
  1  2  1  0  0  0  0
  2  8  1  0  0  0  0
  2  3  2  0  0  0  0
  3 13  1  0  0  0  0
  4  9  1  0  0  0  0
  4  3  1  0  0  0  0
  5  4  2  0  0  0  0
  6  1  2  0  0  0  0
  6  5  1  0  0  0  0
  7  1  1  0  0  0  0
 10  5  1  0  0  0  0
 11 12  3  0  0  0  0
 13 14  1  0  0  0  0
 15  6  1  0  0  0  0
 16 15  2  0  0  0  0
 17 15  2  0  0  0  0
M  END
