Coordinates from ORCA-job 4-NO2-Ph-N2-OH-B3LYPG-6-31G_dp-MTMO-d009-169-n900
 OpenBabel09051908023D

 17 16  0  0  0  0  0  0  0  0999 V2000
    0.5710    0.8070    0.5823 C   0  0  0  0  0  0  0  0  0  0  0  0
    0.3772    1.2773    1.8721 C   0  0  0  0  0  0  0  0  0  0  0  0
   -0.8050    0.9618    2.5601 C   0  0  0  0  0  0  0  0  0  0  0  0
   -1.7903    0.1722    1.9478 C   0  0  0  0  0  0  0  0  0  0  0  0
   -1.5977   -0.2999    0.6557 C   0  0  0  0  0  0  0  0  0  0  0  0
   -0.4188    0.0222   -0.0154 C   0  0  0  0  0  0  0  0  0  0  0  0
    1.4723    1.0348    0.0270 H   0  0  0  0  0  0  0  0  0  0  0  0
    1.1241    1.8883    2.3668 H   0  0  0  0  0  0  0  0  0  0  0  0
   -2.7042   -0.0711    2.4842 H   0  0  0  0  0  0  0  0  0  0  0  0
   -2.3413   -0.9104    0.1589 H   0  0  0  0  0  0  0  0  0  0  0  0
    0.2725   -4.9428  -13.1430 N   0  0  0  0  0  0  0  0  0  0  0  0
    0.7250   -5.6013  -12.3793 N   0  0  0  0  0  0  0  0  0  0  0  0
   -0.9388    1.4506    3.8185 O   0  0  0  0  0  0  0  0  0  0  0  0
   -1.7881    1.1735    4.1873 H   0  0  0  0  0  0  0  0  0  0  0  0
   -0.2154   -0.4729   -1.3761 N   0  0  0  0  0  0  0  0  0  0  0  0
   -1.1074   -1.1616   -1.8757 O   0  0  0  0  0  0  0  0  0  0  0  0
    0.8359   -0.1732   -1.9442 O   0  0  0  0  0  0  0  0  0  0  0  0
  1  2  1  0  0  0  0
  2  8  1  0  0  0  0
  2  3  2  0  0  0  0
  3 13  1  0  0  0  0
  4  9  1  0  0  0  0
  4  3  1  0  0  0  0
  5  4  2  0  0  0  0
  6  1  2  0  0  0  0
  6  5  1  0  0  0  0
  7  1  1  0  0  0  0
 10  5  1  0  0  0  0
 11 12  3  0  0  0  0
 13 14  1  0  0  0  0
 15  6  1  0  0  0  0
 16 15  2  0  0  0  0
 17 15  2  0  0  0  0
M  END
