Coordinates from ORCA-job 4-NO2-Ph-N2-OH-B3LYPG-6-31G_dp-MTMO-d009-169-n900
 OpenBabel09051908013D

 17 17  0  0  0  0  0  0  0  0999 V2000
   -1.0302   -1.4974   -1.2759 C   0  0  0  0  0  0  0  0  0  0  0  0
    0.2141   -0.9015   -1.0952 C   0  0  0  0  0  0  0  0  0  0  0  0
    0.2901    0.2743   -0.3504 C   0  0  0  0  0  0  0  0  0  0  0  0
   -0.8304    0.8704    0.2187 C   0  0  0  0  0  0  0  0  0  0  0  0
   -2.0783    0.2772    0.0398 C   0  0  0  0  0  0  0  0  0  0  0  0
   -2.1548   -0.8979   -0.7058 C   0  0  0  0  0  0  0  0  0  0  0  0
   -1.1471   -2.4119   -1.8436 H   0  0  0  0  0  0  0  0  0  0  0  0
    1.1109   -1.3348   -1.5207 H   0  0  0  0  0  0  0  0  0  0  0  0
   -0.7146    1.7853    0.7885 H   0  0  0  0  0  0  0  0  0  0  0  0
   -2.9804    0.7019    0.4609 H   0  0  0  0  0  0  0  0  0  0  0  0
    1.6515    1.0539   -0.0677 N   0  0  0  0  0  0  0  0  0  0  0  0
    2.5850    0.4837   -0.6350 N   0  0  0  0  0  0  0  0  0  0  0  0
    3.7623    1.1778   -0.3751 O   0  0  0  0  0  0  0  0  0  0  0  0
    4.4197    0.6558   -0.8602 H   0  0  0  0  0  0  0  0  0  0  0  0
   -3.4701   -1.5310   -0.9002 N   0  0  0  0  0  0  0  0  0  0  0  0
   -4.4456   -0.9864   -0.3857 O   0  0  0  0  0  0  0  0  0  0  0  0
   -3.5114   -2.5650   -1.5656 O   0  0  0  0  0  0  0  0  0  0  0  0
  1  2  2  0  0  0  0
  1  6  1  0  0  0  0
  2  3  1  0  0  0  0
  3 11  1  0  0  0  0
  3  4  2  0  0  0  0
  4  9  1  0  0  0  0
  5  4  1  0  0  0  0
  5 10  1  0  0  0  0
  6  5  2  0  0  0  0
  7  1  1  0  0  0  0
  8  2  1  0  0  0  0
 12 13  1  0  0  0  0
 12 11  1  0  0  0  0
 14 13  1  0  0  0  0
 15  6  1  0  0  0  0
 15 16  2  0  0  0  0
 17 15  2  0  0  0  0
M  RAD  2  11   2  12   2
M  END
