Coordinates from ORCA-job 4-NO2-Ph-N2-OH-B3LYPG-6-31G_dp-MTMO-d009-169-n900
 OpenBabel09051908013D

 17 16  0  0  0  0  0  0  0  0999 V2000
   -0.8519   -0.8708   -1.6068 C   0  0  0  0  0  0  0  0  0  0  0  0
    0.2705   -0.2399   -1.0914 C   0  0  0  0  0  0  0  0  0  0  0  0
    0.2326    0.2999    0.2040 C   0  0  0  0  0  0  0  0  0  0  0  0
   -0.9333    0.2037    0.9787 C   0  0  0  0  0  0  0  0  0  0  0  0
   -2.0584   -0.4279    0.4630 C   0  0  0  0  0  0  0  0  0  0  0  0
   -2.0071   -0.9592   -0.8252 C   0  0  0  0  0  0  0  0  0  0  0  0
   -0.8540   -1.2965   -2.6020 H   0  0  0  0  0  0  0  0  0  0  0  0
    1.1840   -0.1513   -1.6687 H   0  0  0  0  0  0  0  0  0  0  0  0
   -0.9569    0.6229    1.9813 H   0  0  0  0  0  0  0  0  0  0  0  0
   -2.9719   -0.5170    1.0377 H   0  0  0  0  0  0  0  0  0  0  0  0
    4.7740    1.0894   -2.2559 N   0  0  0  0  0  0  0  0  0  0  0  0
    3.7662    0.6475   -2.3577 N   0  0  0  0  0  0  0  0  0  0  0  0
    1.3608    0.9061    0.6545 O   0  0  0  0  0  0  0  0  0  0  0  0
    1.2171    1.2378    1.5509 H   0  0  0  0  0  0  0  0  0  0  0  0
   -3.1907   -1.6232   -1.3694 N   0  0  0  0  0  0  0  0  0  0  0  0
   -4.1956   -1.6794   -0.6579 O   0  0  0  0  0  0  0  0  0  0  0  0
   -3.1146   -2.0877   -2.5083 O   0  0  0  0  0  0  0  0  0  0  0  0
  1  2  2  0  0  0  0
  1  6  1  0  0  0  0
  2  3  1  0  0  0  0
  3 13  1  0  0  0  0
  3  4  2  0  0  0  0
  4  9  1  0  0  0  0
  5  4  1  0  0  0  0
  5 10  1  0  0  0  0
  6  5  2  0  0  0  0
  7  1  1  0  0  0  0
  8  2  1  0  0  0  0
 12 11  3  0  0  0  0
 13 14  1  0  0  0  0
 15  6  1  0  0  0  0
 15 16  2  0  0  0  0
 17 15  2  0  0  0  0
M  END
