Coordinates from ORCA-job 4-NO2-Ph-N2-OH-B3LYPG-6-31G_dp-MTMO-d009-169-n900
 OpenBabel09051908013D

 17 16  0  0  0  0  0  0  0  0999 V2000
   -0.8989   -0.9355   -1.6432 C   0  0  0  0  0  0  0  0  0  0  0  0
    0.2574   -0.3261   -1.1795 C   0  0  0  0  0  0  0  0  0  0  0  0
    0.2763    0.2492    0.1010 C   0  0  0  0  0  0  0  0  0  0  0  0
   -0.8674    0.2107    0.9129 C   0  0  0  0  0  0  0  0  0  0  0  0
   -2.0265   -0.3993    0.4489 C   0  0  0  0  0  0  0  0  0  0  0  0
   -2.0313   -0.9667   -0.8248 C   0  0  0  0  0  0  0  0  0  0  0  0
   -0.9441   -1.3874   -2.6258 H   0  0  0  0  0  0  0  0  0  0  0  0
    1.1551   -0.2806   -1.7858 H   0  0  0  0  0  0  0  0  0  0  0  0
   -0.8477    0.6571    1.9037 H   0  0  0  0  0  0  0  0  0  0  0  0
   -2.9242   -0.4443    1.0526 H   0  0  0  0  0  0  0  0  0  0  0  0
    4.6946    1.3183   -1.8780 N   0  0  0  0  0  0  0  0  0  0  0  0
    3.7689    0.7661   -2.1214 N   0  0  0  0  0  0  0  0  0  0  0  0
    1.4363    0.8316    0.5000 O   0  0  0  0  0  0  0  0  0  0  0  0
    1.3321    1.1890    1.3920 H   0  0  0  0  0  0  0  0  0  0  0  0
   -3.2509   -1.6082   -1.3139 N   0  0  0  0  0  0  0  0  0  0  0  0
   -4.2341   -1.6141   -0.5705 O   0  0  0  0  0  0  0  0  0  0  0  0
   -3.2246   -2.1052   -2.4413 O   0  0  0  0  0  0  0  0  0  0  0  0
  1  2  2  0  0  0  0
  1  6  1  0  0  0  0
  2  3  1  0  0  0  0
  3 13  1  0  0  0  0
  3  4  2  0  0  0  0
  4  9  1  0  0  0  0
  5  4  1  0  0  0  0
  5 10  1  0  0  0  0
  6  5  2  0  0  0  0
  7  1  1  0  0  0  0
  8  2  1  0  0  0  0
 12 11  3  0  0  0  0
 13 14  1  0  0  0  0
 15  6  1  0  0  0  0
 15 16  2  0  0  0  0
 17 15  2  0  0  0  0
M  END
