Coordinates from ORCA-job 4-NO2-Ph-N2-OH-B3LYPG-6-31G_dp-MTMO-d009-169-n900
 OpenBabel09051908013D

 17 16  0  0  0  0  0  0  0  0999 V2000
   -0.8813   -1.1863   -1.6051 C   0  0  0  0  0  0  0  0  0  0  0  0
    0.3465   -0.7257   -1.1543 C   0  0  0  0  0  0  0  0  0  0  0  0
    0.4256   -0.0207    0.0570 C   0  0  0  0  0  0  0  0  0  0  0  0
   -0.7314    0.2207    0.8129 C   0  0  0  0  0  0  0  0  0  0  0  0
   -1.9624   -0.2398    0.3623 C   0  0  0  0  0  0  0  0  0  0  0  0
   -2.0257   -0.9394   -0.8421 C   0  0  0  0  0  0  0  0  0  0  0  0
   -0.9736   -1.7322   -2.5355 H   0  0  0  0  0  0  0  0  0  0  0  0
    1.2550   -0.8963   -1.7210 H   0  0  0  0  0  0  0  0  0  0  0  0
   -0.6657    0.7659    1.7513 H   0  0  0  0  0  0  0  0  0  0  0  0
   -2.8716   -0.0680    0.9244 H   0  0  0  0  0  0  0  0  0  0  0  0
    3.7952    2.0602   -1.3722 N   0  0  0  0  0  0  0  0  0  0  0  0
    3.6944    1.2898   -2.1581 N   0  0  0  0  0  0  0  0  0  0  0  0
    1.6552    0.4035    0.4454 O   0  0  0  0  0  0  0  0  0  0  0  0
    1.5894    0.8782    1.2847 H   0  0  0  0  0  0  0  0  0  0  0  0
   -3.3210   -1.4250   -1.3168 N   0  0  0  0  0  0  0  0  0  0  0  0
   -4.3119   -1.1871   -0.6237 O   0  0  0  0  0  0  0  0  0  0  0  0
   -3.3457   -2.0434   -2.3823 O   0  0  0  0  0  0  0  0  0  0  0  0
  1  2  2  0  0  0  0
  1  6  1  0  0  0  0
  2  3  1  0  0  0  0
  3 13  1  0  0  0  0
  3  4  2  0  0  0  0
  4  9  1  0  0  0  0
  5  4  1  0  0  0  0
  5 10  1  0  0  0  0
  6  5  2  0  0  0  0
  7  1  1  0  0  0  0
  8  2  1  0  0  0  0
 12 11  3  0  0  0  0
 13 14  1  0  0  0  0
 15  6  1  0  0  0  0
 15 16  2  0  0  0  0
 17 15  2  0  0  0  0
M  END
