Coordinates from ORCA-job 4-NO2-Ph-N2-OH-B3LYPG-6-31G_dp-MTMO-d009-169-n900
 OpenBabel09051908013D

 17 16  0  0  0  0  0  0  0  0999 V2000
    0.6057    0.4056   -0.3503 C   0  0  0  0  0  0  0  0  0  0  0  0
    0.4981    0.8237    0.9676 C   0  0  0  0  0  0  0  0  0  0  0  0
   -0.6643    0.5348    1.7003 C   0  0  0  0  0  0  0  0  0  0  0  0
   -1.7164   -0.1764    1.1026 C   0  0  0  0  0  0  0  0  0  0  0  0
   -1.6103   -0.5961   -0.2177 C   0  0  0  0  0  0  0  0  0  0  0  0
   -0.4501   -0.3009   -0.9330 C   0  0  0  0  0  0  0  0  0  0  0  0
    1.4900    0.6153   -0.9391 H   0  0  0  0  0  0  0  0  0  0  0  0
    1.2986    1.3734    1.4503 H   0  0  0  0  0  0  0  0  0  0  0  0
   -2.6148   -0.4003    1.6727 H   0  0  0  0  0  0  0  0  0  0  0  0
   -2.4076   -1.1457   -0.7023 H   0  0  0  0  0  0  0  0  0  0  0  0
    0.1148   -2.3949   -6.5822 N   0  0  0  0  0  0  0  0  0  0  0  0
    0.3227   -2.7098   -5.5432 N   0  0  0  0  0  0  0  0  0  0  0  0
   -0.7125    0.9697    2.9842 O   0  0  0  0  0  0  0  0  0  0  0  0
   -1.5559    0.7163    3.3829 H   0  0  0  0  0  0  0  0  0  0  0  0
   -0.3381   -0.7391   -2.3242 N   0  0  0  0  0  0  0  0  0  0  0  0
   -1.2871   -1.3577   -2.8103 O   0  0  0  0  0  0  0  0  0  0  0  0
    0.6980   -0.4633   -2.9314 O   0  0  0  0  0  0  0  0  0  0  0  0
  1  2  1  0  0  0  0
  2  8  1  0  0  0  0
  2  3  2  0  0  0  0
  3 13  1  0  0  0  0
  4  9  1  0  0  0  0
  4  3  1  0  0  0  0
  5  4  2  0  0  0  0
  6  1  2  0  0  0  0
  6  5  1  0  0  0  0
  7  1  1  0  0  0  0
 10  5  1  0  0  0  0
 11 12  3  0  0  0  0
 13 14  1  0  0  0  0
 15  6  1  0  0  0  0
 16 15  2  0  0  0  0
 17 15  2  0  0  0  0
M  END
