Coordinates from ORCA-job 4-NO2-Ph-N2-OH-B3LYPG-6-31G_dp-MTMO-d009-169-n900
 OpenBabel09051908013D

 17 16  0  0  0  0  0  0  0  0999 V2000
   -0.6487   -0.7183   -1.4659 C   0  0  0  0  0  0  0  0  0  0  0  0
    0.3625   -0.0566   -0.7854 C   0  0  0  0  0  0  0  0  0  0  0  0
    0.1367    0.4048    0.5209 C   0  0  0  0  0  0  0  0  0  0  0  0
   -1.1054    0.1987    1.1402 C   0  0  0  0  0  0  0  0  0  0  0  0
   -2.1189   -0.4642    0.4592 C   0  0  0  0  0  0  0  0  0  0  0  0
   -1.8811   -0.9165   -0.8380 C   0  0  0  0  0  0  0  0  0  0  0  0
   -0.5043   -1.0843   -2.4744 H   0  0  0  0  0  0  0  0  0  0  0  0
    1.3298    0.1144   -1.2445 H   0  0  0  0  0  0  0  0  0  0  0  0
   -1.2761    0.5574    2.1520 H   0  0  0  0  0  0  0  0  0  0  0  0
   -3.0871   -0.6372    0.9122 H   0  0  0  0  0  0  0  0  0  0  0  0
    4.5184    0.4766   -3.4577 N   0  0  0  0  0  0  0  0  0  0  0  0
    3.5723    0.2950   -2.9163 N   0  0  0  0  0  0  0  0  0  0  0  0
    1.1619    1.0469    1.1365 O   0  0  0  0  0  0  0  0  0  0  0  0
    0.8894    1.3223    2.0219 H   0  0  0  0  0  0  0  0  0  0  0  0
   -2.9471   -1.6127   -1.5565 N   0  0  0  0  0  0  0  0  0  0  0  0
   -4.0239   -1.7683   -0.9771 O   0  0  0  0  0  0  0  0  0  0  0  0
   -2.7076   -2.0036   -2.7003 O   0  0  0  0  0  0  0  0  0  0  0  0
  1  6  2  0  0  0  0
  1  2  1  0  0  0  0
  2  3  2  0  0  0  0
  3 13  1  0  0  0  0
  3  4  1  0  0  0  0
  4  9  1  0  0  0  0
  5 10  1  0  0  0  0
  5  4  2  0  0  0  0
  6  5  1  0  0  0  0
  7  1  1  0  0  0  0
  8  2  1  0  0  0  0
 11 12  3  0  0  0  0
 13 14  1  0  0  0  0
 15 16  2  0  0  0  0
 15  6  1  0  0  0  0
 17 15  2  0  0  0  0
M  END
