Coordinates from ORCA-job 4-NO2-Ph-N2-OH-B3LYPG-6-31G_dp-MTMO-d009-169-n900
 OpenBabel09051908013D

 17 17  0  0  0  0  0  0  0  0999 V2000
   -1.0659   -1.6091   -1.2745 C   0  0  0  0  0  0  0  0  0  0  0  0
    0.2001   -1.1050   -1.3267 C   0  0  0  0  0  0  0  0  0  0  0  0
    0.5703    0.2427   -0.7306 C   0  0  0  0  0  0  0  0  0  0  0  0
   -0.6399    0.9044   -0.0934 C   0  0  0  0  0  0  0  0  0  0  0  0
   -1.8755    0.3274   -0.0879 C   0  0  0  0  0  0  0  0  0  0  0  0
   -2.1247   -0.9245   -0.6645 C   0  0  0  0  0  0  0  0  0  0  0  0
   -1.2631   -2.5778   -1.7226 H   0  0  0  0  0  0  0  0  0  0  0  0
    1.0355   -1.6154   -1.7910 H   0  0  0  0  0  0  0  0  0  0  0  0
   -0.4229    1.8726    0.3415 H   0  0  0  0  0  0  0  0  0  0  0  0
   -2.6994    0.8570    0.3801 H   0  0  0  0  0  0  0  0  0  0  0  0
    1.4122    0.6075   -0.7522 N   0  0  0  0  0  0  0  0  0  0  0  0
    2.5190    1.1291   -0.8505 N   0  0  0  0  0  0  0  0  0  0  0  0
    3.2829    0.7653    0.2713 O   0  0  0  0  0  0  0  0  0  0  0  0
    4.1237    1.2191    0.1026 H   0  0  0  0  0  0  0  0  0  0  0  0
   -3.4363   -1.4917   -0.6333 N   0  0  0  0  0  0  0  0  0  0  0  0
   -4.3391   -0.8461   -0.0796 O   0  0  0  0  0  0  0  0  0  0  0  0
   -3.6060   -2.6010   -1.1617 O   0  0  0  0  0  0  0  0  0  0  0  0
  1  6  1  0  0  0  0
  2  1  2  0  0  0  0
  2  3  1  0  0  0  0
  3  4  2  0  0  0  0
  4  5  1  0  0  0  0
  4  9  1  0  0  0  0
  5 10  1  0  0  0  0
  6 15  1  0  0  0  0
  6  5  2  0  0  0  0
  7  1  1  0  0  0  0
  8  2  1  0  0  0  0
 11  3  1  0  0  0  0
 12 11  1  0  0  0  0
 12 13  1  0  0  0  0
 14 13  1  0  0  0  0
 15 16  2  0  0  0  0
 17 15  2  0  0  0  0
M  RAD  2  11   2  12   2
M  END
