Coordinates from ORCA-job 4-NO2-Ph-N2-OH-B3LYPG-6-31G_dp-MTMO-d009-169-n900
 OpenBabel09051908023D

 17 16  0  0  0  0  0  0  0  0999 V2000
    0.5878    0.7246    0.3690 C   0  0  0  0  0  0  0  0  0  0  0  0
    0.3973    1.1822    1.6639 C   0  0  0  0  0  0  0  0  0  0  0  0
   -0.7841    0.8617    2.3511 C   0  0  0  0  0  0  0  0  0  0  0  0
   -1.7719    0.0798    1.7328 C   0  0  0  0  0  0  0  0  0  0  0  0
   -1.5826   -0.3795    0.4357 C   0  0  0  0  0  0  0  0  0  0  0  0
   -0.4045   -0.0525   -0.2345 C   0  0  0  0  0  0  0  0  0  0  0  0
    1.4884    0.9565   -0.1857 H   0  0  0  0  0  0  0  0  0  0  0  0
    1.1461    1.7870    2.1633 H   0  0  0  0  0  0  0  0  0  0  0  0
   -2.6851   -0.1674    2.2686 H   0  0  0  0  0  0  0  0  0  0  0  0
   -2.3281   -0.9838   -0.0657 H   0  0  0  0  0  0  0  0  0  0  0  0
    0.1409   -4.2748  -11.4980 N   0  0  0  0  0  0  0  0  0  0  0  0
    0.6018   -4.9947  -10.7972 N   0  0  0  0  0  0  0  0  0  0  0  0
   -0.9145    1.3380    3.6146 O   0  0  0  0  0  0  0  0  0  0  0  0
   -1.7635    1.0586    3.9824 H   0  0  0  0  0  0  0  0  0  0  0  0
   -0.2046   -0.5343   -1.6006 N   0  0  0  0  0  0  0  0  0  0  0  0
   -1.0987   -1.2164   -2.1052 O   0  0  0  0  0  0  0  0  0  0  0  0
    0.8461   -0.2306   -2.1677 O   0  0  0  0  0  0  0  0  0  0  0  0
  1  2  1  0  0  0  0
  2  8  1  0  0  0  0
  2  3  2  0  0  0  0
  3 13  1  0  0  0  0
  4  9  1  0  0  0  0
  4  3  1  0  0  0  0
  5  4  2  0  0  0  0
  6  1  2  0  0  0  0
  6  5  1  0  0  0  0
  7  1  1  0  0  0  0
 10  5  1  0  0  0  0
 11 12  3  0  0  0  0
 13 14  1  0  0  0  0
 15  6  1  0  0  0  0
 16 15  2  0  0  0  0
 17 15  2  0  0  0  0
M  END
