Coordinates from ORCA-job 4-NO2-Ph-N2-OH-B3LYPG-6-31G_dp-MTMO-d009-169-n900
 OpenBabel09051908023D

 17 16  0  0  0  0  0  0  0  0999 V2000
    0.5865    0.7312    0.3861 C   0  0  0  0  0  0  0  0  0  0  0  0
    0.3956    1.1899    1.6806 C   0  0  0  0  0  0  0  0  0  0  0  0
   -0.7858    0.8698    2.3678 C   0  0  0  0  0  0  0  0  0  0  0  0
   -1.7734    0.0873    1.7500 C   0  0  0  0  0  0  0  0  0  0  0  0
   -1.5838   -0.3731    0.4533 C   0  0  0  0  0  0  0  0  0  0  0  0
   -0.4056   -0.0466   -0.2169 C   0  0  0  0  0  0  0  0  0  0  0  0
    1.4871    0.9627   -0.1687 H   0  0  0  0  0  0  0  0  0  0  0  0
    1.1444    1.7952    2.1795 H   0  0  0  0  0  0  0  0  0  0  0  0
   -2.6866   -0.1596    2.2859 H   0  0  0  0  0  0  0  0  0  0  0  0
   -2.3292   -0.9780   -0.0477 H   0  0  0  0  0  0  0  0  0  0  0  0
    0.1507   -4.3278  -11.6291 N   0  0  0  0  0  0  0  0  0  0  0  0
    0.6124   -5.0434  -10.9245 N   0  0  0  0  0  0  0  0  0  0  0  0
   -0.9164    1.3472    3.6309 O   0  0  0  0  0  0  0  0  0  0  0  0
   -1.7655    1.0680    3.9987 H   0  0  0  0  0  0  0  0  0  0  0  0
   -0.2055   -0.5296   -1.5825 N   0  0  0  0  0  0  0  0  0  0  0  0
   -1.0994   -1.2123   -2.0867 O   0  0  0  0  0  0  0  0  0  0  0  0
    0.8453   -0.2263   -2.1498 O   0  0  0  0  0  0  0  0  0  0  0  0
  1  2  1  0  0  0  0
  2  8  1  0  0  0  0
  2  3  2  0  0  0  0
  3 13  1  0  0  0  0
  4  9  1  0  0  0  0
  4  3  1  0  0  0  0
  5  4  2  0  0  0  0
  6  1  2  0  0  0  0
  6  5  1  0  0  0  0
  7  1  1  0  0  0  0
 10  5  1  0  0  0  0
 11 12  3  0  0  0  0
 13 14  1  0  0  0  0
 15  6  1  0  0  0  0
 16 15  2  0  0  0  0
 17 15  2  0  0  0  0
M  END
