Coordinates from ORCA-job 4-NO2-Ph-N2-OH-B3LYPG-6-31G_dp-MTMO-d009-169-n900
 OpenBabel09051908013D

 17 16  0  0  0  0  0  0  0  0999 V2000
    0.5993    0.4339   -0.2735 C   0  0  0  0  0  0  0  0  0  0  0  0
    0.4872    0.8579    1.0420 C   0  0  0  0  0  0  0  0  0  0  0  0
   -0.6768    0.5698    1.7720 C   0  0  0  0  0  0  0  0  0  0  0  0
   -1.7262   -0.1460    1.1754 C   0  0  0  0  0  0  0  0  0  0  0  0
   -1.6155   -0.5715   -0.1424 C   0  0  0  0  0  0  0  0  0  0  0  0
   -0.4537   -0.2773   -0.8552 C   0  0  0  0  0  0  0  0  0  0  0  0
    1.4847    0.6420   -0.8612 H   0  0  0  0  0  0  0  0  0  0  0  0
    1.2849    1.4115    1.5247 H   0  0  0  0  0  0  0  0  0  0  0  0
   -2.6255   -0.3687    1.7444 H   0  0  0  0  0  0  0  0  0  0  0  0
   -2.4100   -1.1250   -0.6271 H   0  0  0  0  0  0  0  0  0  0  0  0
    0.1984   -2.6341   -7.1624 N   0  0  0  0  0  0  0  0  0  0  0  0
    0.3443   -2.8865   -6.0962 N   0  0  0  0  0  0  0  0  0  0  0  0
   -0.7294    1.0104    3.0540 O   0  0  0  0  0  0  0  0  0  0  0  0
   -1.5734    0.7571    3.4514 H   0  0  0  0  0  0  0  0  0  0  0  0
   -0.3364   -0.7232   -2.2431 N   0  0  0  0  0  0  0  0  0  0  0  0
   -1.2830   -1.3458   -2.7284 O   0  0  0  0  0  0  0  0  0  0  0  0
    0.7021   -0.4499   -2.8473 O   0  0  0  0  0  0  0  0  0  0  0  0
  1  2  1  0  0  0  0
  2  8  1  0  0  0  0
  2  3  2  0  0  0  0
  3 13  1  0  0  0  0
  4  9  1  0  0  0  0
  4  3  1  0  0  0  0
  5  4  2  0  0  0  0
  6  1  2  0  0  0  0
  6  5  1  0  0  0  0
  7  1  1  0  0  0  0
 10  5  1  0  0  0  0
 11 12  3  0  0  0  0
 13 14  1  0  0  0  0
 15  6  1  0  0  0  0
 16 15  2  0  0  0  0
 17 15  2  0  0  0  0
M  END
