Coordinates from ORCA-job 4-NO2-Ph-N2-OH-B3LYPG-6-31G_dp-MTMO-d009-169-n900
 OpenBabel09051908013D

 17 16  0  0  0  0  0  0  0  0999 V2000
    0.6358    0.5161   -0.1822 C   0  0  0  0  0  0  0  0  0  0  0  0
    0.4468    0.9334    1.1265 C   0  0  0  0  0  0  0  0  0  0  0  0
   -0.7343    0.5931    1.8045 C   0  0  0  0  0  0  0  0  0  0  0  0
   -1.7236   -0.1679    1.1630 C   0  0  0  0  0  0  0  0  0  0  0  0
   -1.5359   -0.5868   -0.1480 C   0  0  0  0  0  0  0  0  0  0  0  0
   -0.3580   -0.2407   -0.8088 C   0  0  0  0  0  0  0  0  0  0  0  0
    1.5363    0.7640   -0.7300 H   0  0  0  0  0  0  0  0  0  0  0  0
    1.1969    1.5213    1.6437 H   0  0  0  0  0  0  0  0  0  0  0  0
   -2.6367   -0.4308    1.6915 H   0  0  0  0  0  0  0  0  0  0  0  0
   -2.2827   -1.1743   -0.6673 H   0  0  0  0  0  0  0  0  0  0  0  0
   -0.2096   -2.5752   -7.2266 N   0  0  0  0  0  0  0  0  0  0  0  0
    0.2337   -3.3807   -6.6133 N   0  0  0  0  0  0  0  0  0  0  0  0
   -0.8627    1.0301    3.0823 O   0  0  0  0  0  0  0  0  0  0  0  0
   -1.7117    0.7406    3.4424 H   0  0  0  0  0  0  0  0  0  0  0  0
   -0.1596   -0.6806   -2.1891 N   0  0  0  0  0  0  0  0  0  0  0  0
   -1.0552   -1.3451   -2.7144 O   0  0  0  0  0  0  0  0  0  0  0  0
    0.8915   -0.3619   -2.7473 O   0  0  0  0  0  0  0  0  0  0  0  0
  1  2  1  0  0  0  0
  2  8  1  0  0  0  0
  2  3  2  0  0  0  0
  3 13  1  0  0  0  0
  4  9  1  0  0  0  0
  4  3  1  0  0  0  0
  5  4  2  0  0  0  0
  6  1  2  0  0  0  0
  6  5  1  0  0  0  0
  7  1  1  0  0  0  0
 10  5  1  0  0  0  0
 11 12  3  0  0  0  0
 13 14  1  0  0  0  0
 15  6  1  0  0  0  0
 16 15  2  0  0  0  0
 17 15  2  0  0  0  0
M  END
