Coordinates from ORCA-job 4-NO2-Ph-N2-OH-B3LYPG-6-31G_dp-MTMO-d009-169-n900
 OpenBabel09051908023D

 17 16  0  0  0  0  0  0  0  0999 V2000
    0.6002    0.6645    0.2113 C   0  0  0  0  0  0  0  0  0  0  0  0
    0.4123    1.1110    1.5104 C   0  0  0  0  0  0  0  0  0  0  0  0
   -0.7682    0.7858    2.1967 C   0  0  0  0  0  0  0  0  0  0  0  0
   -1.7580    0.0105    1.5733 C   0  0  0  0  0  0  0  0  0  0  0  0
   -1.5713   -0.4376    0.2719 C   0  0  0  0  0  0  0  0  0  0  0  0
   -0.3940   -0.1062   -0.3974 C   0  0  0  0  0  0  0  0  0  0  0  0
    1.5001    0.9002   -0.3429 H   0  0  0  0  0  0  0  0  0  0  0  0
    1.1627    1.7105    2.0138 H   0  0  0  0  0  0  0  0  0  0  0  0
   -2.6705   -0.2404    2.1085 H   0  0  0  0  0  0  0  0  0  0  0  0
   -2.3184   -1.0367   -0.2335 H   0  0  0  0  0  0  0  0  0  0  0  0
    0.0509   -3.7900  -10.2887 N   0  0  0  0  0  0  0  0  0  0  0  0
    0.5022   -4.5398   -9.6136 N   0  0  0  0  0  0  0  0  0  0  0  0
   -0.8959    1.2513    3.4646 O   0  0  0  0  0  0  0  0  0  0  0  0
   -1.7447    0.9697    3.8314 H   0  0  0  0  0  0  0  0  0  0  0  0
   -0.1970   -0.5763   -1.7679 N   0  0  0  0  0  0  0  0  0  0  0  0
   -1.0927   -1.2528   -2.2770 O   0  0  0  0  0  0  0  0  0  0  0  0
    0.8533   -0.2692   -2.3341 O   0  0  0  0  0  0  0  0  0  0  0  0
  1  2  1  0  0  0  0
  2  8  1  0  0  0  0
  2  3  2  0  0  0  0
  3 13  1  0  0  0  0
  4  9  1  0  0  0  0
  4  3  1  0  0  0  0
  5  4  2  0  0  0  0
  6  1  2  0  0  0  0
  6  5  1  0  0  0  0
  7  1  1  0  0  0  0
 10  5  1  0  0  0  0
 11 12  3  0  0  0  0
 13 14  1  0  0  0  0
 15  6  1  0  0  0  0
 16 15  2  0  0  0  0
 17 15  2  0  0  0  0
M  END
