Coordinates from ORCA-job 4-NO2-Ph-N2-OH-B3LYPG-6-31G_dp-MTMO-d009-169-n900
 OpenBabel09051908013D

 17 16  0  0  0  0  0  0  0  0999 V2000
    0.6150    0.5962    0.0310 C   0  0  0  0  0  0  0  0  0  0  0  0
    0.4292    1.0291    1.3351 C   0  0  0  0  0  0  0  0  0  0  0  0
   -0.7508    0.6979    2.0194 C   0  0  0  0  0  0  0  0  0  0  0  0
   -1.7421   -0.0697    1.3891 C   0  0  0  0  0  0  0  0  0  0  0  0
   -1.5576   -0.5042    0.0827 C   0  0  0  0  0  0  0  0  0  0  0  0
   -0.3808   -0.1669   -0.5845 C   0  0  0  0  0  0  0  0  0  0  0  0
    1.5145    0.8368   -0.5217 H   0  0  0  0  0  0  0  0  0  0  0  0
    1.1809    1.6224    1.8438 H   0  0  0  0  0  0  0  0  0  0  0  0
   -2.6543   -0.3254    1.9227 H   0  0  0  0  0  0  0  0  0  0  0  0
   -2.3060   -1.0970   -0.4280 H   0  0  0  0  0  0  0  0  0  0  0  0
   -0.0568   -3.2403   -8.9035 N   0  0  0  0  0  0  0  0  0  0  0  0
    0.3860   -4.0132   -8.2491 N   0  0  0  0  0  0  0  0  0  0  0  0
   -0.8763    1.1500    3.2923 O   0  0  0  0  0  0  0  0  0  0  0  0
   -1.7249    0.8655    3.6573 H   0  0  0  0  0  0  0  0  0  0  0  0
   -0.1860   -0.6228   -1.9601 N   0  0  0  0  0  0  0  0  0  0  0  0
   -1.0832   -1.2927   -2.4754 O   0  0  0  0  0  0  0  0  0  0  0  0
    0.8640   -0.3111   -2.5243 O   0  0  0  0  0  0  0  0  0  0  0  0
  1  2  1  0  0  0  0
  2  8  1  0  0  0  0
  2  3  2  0  0  0  0
  3 13  1  0  0  0  0
  4  9  1  0  0  0  0
  4  3  1  0  0  0  0
  5  4  2  0  0  0  0
  6  1  2  0  0  0  0
  6  5  1  0  0  0  0
  7  1  1  0  0  0  0
 10  5  1  0  0  0  0
 11 12  3  0  0  0  0
 13 14  1  0  0  0  0
 15  6  1  0  0  0  0
 16 15  2  0  0  0  0
 17 15  2  0  0  0  0
M  END
