Coordinates from ORCA-job 4-NO2-Ph-N2-OH-B3LYPG-6-31G_dp-MTMO-d009-169-n900
 OpenBabel09051908023D

 17 16  0  0  0  0  0  0  0  0999 V2000
    0.5745    0.7901    0.5389 C   0  0  0  0  0  0  0  0  0  0  0  0
    0.3813    1.2580    1.8297 C   0  0  0  0  0  0  0  0  0  0  0  0
   -0.8008    0.9417    2.5175 C   0  0  0  0  0  0  0  0  0  0  0  0
   -1.7866    0.1536    1.9041 C   0  0  0  0  0  0  0  0  0  0  0  0
   -1.5947   -0.3161    0.6111 C   0  0  0  0  0  0  0  0  0  0  0  0
   -0.4159    0.0068   -0.0598 C   0  0  0  0  0  0  0  0  0  0  0  0
    1.4756    1.0185   -0.0163 H   0  0  0  0  0  0  0  0  0  0  0  0
    1.1286    1.8677    2.3253 H   0  0  0  0  0  0  0  0  0  0  0  0
   -2.7004   -0.0903    2.4405 H   0  0  0  0  0  0  0  0  0  0  0  0
   -2.3387   -0.9254    0.1135 H   0  0  0  0  0  0  0  0  0  0  0  0
    0.2436   -4.8070  -12.8082 N   0  0  0  0  0  0  0  0  0  0  0  0
    0.7024   -5.4775  -12.0588 N   0  0  0  0  0  0  0  0  0  0  0  0
   -0.9338    1.4281    3.7769 O   0  0  0  0  0  0  0  0  0  0  0  0
   -1.7831    1.1506    4.1456 H   0  0  0  0  0  0  0  0  0  0  0  0
   -0.2133   -0.4858   -1.4216 N   0  0  0  0  0  0  0  0  0  0  0  0
   -1.1057   -1.1732   -1.9221 O   0  0  0  0  0  0  0  0  0  0  0  0
    0.8380   -0.1855   -1.9895 O   0  0  0  0  0  0  0  0  0  0  0  0
  1  2  1  0  0  0  0
  2  8  1  0  0  0  0
  2  3  2  0  0  0  0
  3 13  1  0  0  0  0
  4  9  1  0  0  0  0
  4  3  1  0  0  0  0
  5  4  2  0  0  0  0
  6  1  2  0  0  0  0
  6  5  1  0  0  0  0
  7  1  1  0  0  0  0
 10  5  1  0  0  0  0
 11 12  3  0  0  0  0
 13 14  1  0  0  0  0
 15  6  1  0  0  0  0
 16 15  2  0  0  0  0
 17 15  2  0  0  0  0
M  END
