Coordinates from ORCA-job 4-NO2-Ph-N2-OH-B3LYPG-6-31G_dp-MTMO-d009-169-n900
 OpenBabel09051908013D

 17 16  0  0  0  0  0  0  0  0999 V2000
    0.6056    0.6392    0.1447 C   0  0  0  0  0  0  0  0  0  0  0  0
    0.4186    1.0808    1.4457 C   0  0  0  0  0  0  0  0  0  0  0  0
   -0.7616    0.7535    2.1315 C   0  0  0  0  0  0  0  0  0  0  0  0
   -1.7521   -0.0189    1.5057 C   0  0  0  0  0  0  0  0  0  0  0  0
   -1.5665   -0.4621    0.2024 C   0  0  0  0  0  0  0  0  0  0  0  0
   -0.3894   -0.1286   -0.4663 C   0  0  0  0  0  0  0  0  0  0  0  0
    1.5053    0.8767   -0.4090 H   0  0  0  0  0  0  0  0  0  0  0  0
    1.1696    1.6780    1.9510 H   0  0  0  0  0  0  0  0  0  0  0  0
   -2.6645   -0.2716    2.0404 H   0  0  0  0  0  0  0  0  0  0  0  0
   -2.3141   -1.0589   -0.3049 H   0  0  0  0  0  0  0  0  0  0  0  0
    0.0120   -3.5871   -9.7784 N   0  0  0  0  0  0  0  0  0  0  0  0
    0.4598   -4.3462   -9.1114 N   0  0  0  0  0  0  0  0  0  0  0  0
   -0.8883    1.2141    3.4012 O   0  0  0  0  0  0  0  0  0  0  0  0
   -1.7370    0.9315    3.7674 H   0  0  0  0  0  0  0  0  0  0  0  0
   -0.1934   -0.5935   -1.8387 N   0  0  0  0  0  0  0  0  0  0  0  0
   -1.0898   -1.2676   -2.3500 O   0  0  0  0  0  0  0  0  0  0  0  0
    0.8567   -0.2848   -2.4044 O   0  0  0  0  0  0  0  0  0  0  0  0
  1  2  1  0  0  0  0
  2  8  1  0  0  0  0
  2  3  2  0  0  0  0
  3 13  1  0  0  0  0
  4  9  1  0  0  0  0
  4  3  1  0  0  0  0
  5  4  2  0  0  0  0
  6  1  2  0  0  0  0
  6  5  1  0  0  0  0
  7  1  1  0  0  0  0
 10  5  1  0  0  0  0
 11 12  3  0  0  0  0
 13 14  1  0  0  0  0
 15  6  1  0  0  0  0
 16 15  2  0  0  0  0
 17 15  2  0  0  0  0
M  END
