Coordinates from ORCA-job 4-NO2-Ph-N2-OH-B3LYPG-6-31G_dp-MTMO-d009-169-n900
 OpenBabel09051908023D

 17 16  0  0  0  0  0  0  0  0999 V2000
    0.5822    0.7522    0.4410 C   0  0  0  0  0  0  0  0  0  0  0  0
    0.3905    1.2144    1.7340 C   0  0  0  0  0  0  0  0  0  0  0  0
   -0.7912    0.8958    2.4215 C   0  0  0  0  0  0  0  0  0  0  0  0
   -1.7782    0.1112    1.8053 C   0  0  0  0  0  0  0  0  0  0  0  0
   -1.5877   -0.3527    0.5100 C   0  0  0  0  0  0  0  0  0  0  0  0
   -0.4093   -0.0276   -0.1605 C   0  0  0  0  0  0  0  0  0  0  0  0
    1.4830    0.9825   -0.1140 H   0  0  0  0  0  0  0  0  0  0  0  0
    1.1387    1.8213    2.2317 H   0  0  0  0  0  0  0  0  0  0  0  0
   -2.6917   -0.1345    2.3414 H   0  0  0  0  0  0  0  0  0  0  0  0
   -2.3326   -0.9592    0.0103 H   0  0  0  0  0  0  0  0  0  0  0  0
    0.1826   -4.4991  -12.0513 N   0  0  0  0  0  0  0  0  0  0  0  0
    0.6462   -5.1994  -11.3328 N   0  0  0  0  0  0  0  0  0  0  0  0
   -0.9228    1.3766    3.6832 O   0  0  0  0  0  0  0  0  0  0  0  0
   -1.7720    1.0981    4.0513 H   0  0  0  0  0  0  0  0  0  0  0  0
   -0.2082   -0.5142   -1.5246 N   0  0  0  0  0  0  0  0  0  0  0  0
   -1.1015   -1.1987   -2.0275 O   0  0  0  0  0  0  0  0  0  0  0  0
    0.8428   -0.2121   -2.0921 O   0  0  0  0  0  0  0  0  0  0  0  0
  1  2  1  0  0  0  0
  2  8  1  0  0  0  0
  2  3  2  0  0  0  0
  3 13  1  0  0  0  0
  4  9  1  0  0  0  0
  4  3  1  0  0  0  0
  5  4  2  0  0  0  0
  6  1  2  0  0  0  0
  6  5  1  0  0  0  0
  7  1  1  0  0  0  0
 10  5  1  0  0  0  0
 11 12  3  0  0  0  0
 13 14  1  0  0  0  0
 15  6  1  0  0  0  0
 16 15  2  0  0  0  0
 17 15  2  0  0  0  0
M  END
