Coordinates from ORCA-job 4-NO2-Ph-N2-OH-B3LYPG-6-31G_dp-MTMO-d009-169-n900
 OpenBabel09051908013D

 17 16  0  0  0  0  0  0  0  0999 V2000
   -0.8783   -1.1873   -1.6050 C   0  0  0  0  0  0  0  0  0  0  0  0
    0.3500   -0.7280   -1.1543 C   0  0  0  0  0  0  0  0  0  0  0  0
    0.4295   -0.0216    0.0561 C   0  0  0  0  0  0  0  0  0  0  0  0
   -0.7276    0.2225    0.8111 C   0  0  0  0  0  0  0  0  0  0  0  0
   -1.9590   -0.2368    0.3605 C   0  0  0  0  0  0  0  0  0  0  0  0
   -2.0227   -0.9378   -0.8431 C   0  0  0  0  0  0  0  0  0  0  0  0
   -0.9708   -1.7343   -2.5348 H   0  0  0  0  0  0  0  0  0  0  0  0
    1.2583   -0.9011   -1.7206 H   0  0  0  0  0  0  0  0  0  0  0  0
   -0.6615    0.7690    1.7487 H   0  0  0  0  0  0  0  0  0  0  0  0
   -2.8682   -0.0628    0.9220 H   0  0  0  0  0  0  0  0  0  0  0  0
    3.7643    2.0518   -1.3612 N   0  0  0  0  0  0  0  0  0  0  0  0
    3.6752    1.2901   -2.1568 N   0  0  0  0  0  0  0  0  0  0  0  0
    1.6594    0.4010    0.4452 O   0  0  0  0  0  0  0  0  0  0  0  0
    1.5936    0.8755    1.2847 H   0  0  0  0  0  0  0  0  0  0  0  0
   -3.3185   -1.4222   -1.3178 N   0  0  0  0  0  0  0  0  0  0  0  0
   -4.3094   -1.1819   -0.6255 O   0  0  0  0  0  0  0  0  0  0  0  0
   -3.3435   -2.0420   -2.3824 O   0  0  0  0  0  0  0  0  0  0  0  0
  1  2  2  0  0  0  0
  1  6  1  0  0  0  0
  2  3  1  0  0  0  0
  3 13  1  0  0  0  0
  3  4  2  0  0  0  0
  4  9  1  0  0  0  0
  5  4  1  0  0  0  0
  5 10  1  0  0  0  0
  6  5  2  0  0  0  0
  7  1  1  0  0  0  0
  8  2  1  0  0  0  0
 12 11  3  0  0  0  0
 13 14  1  0  0  0  0
 15  6  1  0  0  0  0
 15 16  2  0  0  0  0
 17 15  2  0  0  0  0
M  END
