Coordinates from ORCA-job 4-NO2-Ph-N2-OH-B3LYPG-6-31G_dp-MTMO-d009-169-n900
 OpenBabel09051908013D

 17 16  0  0  0  0  0  0  0  0999 V2000
    0.6128    0.6062    0.0575 C   0  0  0  0  0  0  0  0  0  0  0  0
    0.4268    1.0411    1.3609 C   0  0  0  0  0  0  0  0  0  0  0  0
   -0.7533    0.7109    2.0456 C   0  0  0  0  0  0  0  0  0  0  0  0
   -1.7445   -0.0578    1.4164 C   0  0  0  0  0  0  0  0  0  0  0  0
   -1.5598   -0.4943    0.1107 C   0  0  0  0  0  0  0  0  0  0  0  0
   -0.3829   -0.1580   -0.5569 C   0  0  0  0  0  0  0  0  0  0  0  0
    1.5123    0.8460   -0.4955 H   0  0  0  0  0  0  0  0  0  0  0  0
    1.1784    1.6353    1.8688 H   0  0  0  0  0  0  0  0  0  0  0  0
   -2.6567   -0.3128    1.9503 H   0  0  0  0  0  0  0  0  0  0  0  0
   -2.3080   -1.0881   -0.3992 H   0  0  0  0  0  0  0  0  0  0  0  0
   -0.0404   -3.3212   -9.1076 N   0  0  0  0  0  0  0  0  0  0  0  0
    0.4034   -4.0909   -8.4503 N   0  0  0  0  0  0  0  0  0  0  0  0
   -0.8789    1.1649    3.3178 O   0  0  0  0  0  0  0  0  0  0  0  0
   -1.7275    0.8809    3.6831 H   0  0  0  0  0  0  0  0  0  0  0  0
   -0.1879   -0.6160   -1.9318 N   0  0  0  0  0  0  0  0  0  0  0  0
   -1.0850   -1.2868   -2.4461 O   0  0  0  0  0  0  0  0  0  0  0  0
    0.8621   -0.3050   -2.4964 O   0  0  0  0  0  0  0  0  0  0  0  0
  1  2  1  0  0  0  0
  2  8  1  0  0  0  0
  2  3  2  0  0  0  0
  3 13  1  0  0  0  0
  4  9  1  0  0  0  0
  4  3  1  0  0  0  0
  5  4  2  0  0  0  0
  6  1  2  0  0  0  0
  6  5  1  0  0  0  0
  7  1  1  0  0  0  0
 10  5  1  0  0  0  0
 11 12  3  0  0  0  0
 13 14  1  0  0  0  0
 15  6  1  0  0  0  0
 16 15  2  0  0  0  0
 17 15  2  0  0  0  0
M  END
