Coordinates from ORCA-job 4-NO2-Ph-N2-OH-B3LYPG-6-31G_dp-MTMO-d009-169-n900
 OpenBabel09051908013D

 17 15  0  0  0  0  0  0  0  0999 V2000
   -0.9335   -1.1537   -1.0786 C   0  0  0  0  0  0  0  0  0  0  0  0
    0.0770   -0.2618   -0.6741 C   0  0  0  0  0  0  0  0  0  0  0  0
   -0.3683    0.7764    0.0743 C   0  0  0  0  0  0  0  0  0  0  0  0
   -1.6193    1.1117    0.5063 C   0  0  0  0  0  0  0  0  0  0  0  0
   -2.6141    0.2078    0.0920 C   0  0  0  0  0  0  0  0  0  0  0  0
   -2.2480   -0.8941   -0.6847 C   0  0  0  0  0  0  0  0  0  0  0  0
   -0.7115   -2.0269   -1.6816 H   0  0  0  0  0  0  0  0  0  0  0  0
    1.1263   -0.4063   -0.9486 H   0  0  0  0  0  0  0  0  0  0  0  0
   -1.8554    1.9825    1.1088 H   0  0  0  0  0  0  0  0  0  0  0  0
   -3.6533    0.3525    0.3651 H   0  0  0  0  0  0  0  0  0  0  0  0
    3.0122    1.6032    0.0154 N   0  0  0  0  0  0  0  0  0  0  0  0
    3.0535    0.6580   -0.5918 N   0  0  0  0  0  0  0  0  0  0  0  0
    4.7388    0.1086   -1.2416 O   0  0  0  0  0  0  0  0  0  0  0  0
    4.3944   -0.6951   -1.6690 H   0  0  0  0  0  0  0  0  0  0  0  0
   -3.3054   -1.8300   -1.1121 N   0  0  0  0  0  0  0  0  0  0  0  0
   -4.4568   -1.5831   -0.7604 O   0  0  0  0  0  0  0  0  0  0  0  0
   -2.9659   -2.7953   -1.7926 O   0  0  0  0  0  0  0  0  0  0  0  0
  1  6  2  0  0  0  0
  1  2  1  0  0  0  0
  2  3  2  0  0  0  0
  3  4  1  0  0  0  0
  4  9  1  0  0  0  0
  5 10  1  0  0  0  0
  5  4  2  0  0  0  0
  6  5  1  0  0  0  0
  7  1  1  0  0  0  0
  8  2  1  0  0  0  0
 12 11  3  0  0  0  0
 14 13  1  0  0  0  0
 15 16  2  0  0  0  0
 15  6  1  0  0  0  0
 17 15  2  0  0  0  0
M  RAD  2   3   2  13   2
M  END
