Coordinates from ORCA-job 4-NO2-Ph-N2-OH-B3LYPG-6-31G_dp-MTMO-d009-169-n900
 OpenBabel09051908013D

 17 16  0  0  0  0  0  0  0  0999 V2000
    0.6344    0.5209   -0.1696 C   0  0  0  0  0  0  0  0  0  0  0  0
    0.4459    0.9390    1.1389 C   0  0  0  0  0  0  0  0  0  0  0  0
   -0.7351    0.5993    1.8175 C   0  0  0  0  0  0  0  0  0  0  0  0
   -1.7247   -0.1620    1.1768 C   0  0  0  0  0  0  0  0  0  0  0  0
   -1.5375   -0.5817   -0.1341 C   0  0  0  0  0  0  0  0  0  0  0  0
   -0.3597   -0.2361   -0.7955 C   0  0  0  0  0  0  0  0  0  0  0  0
    1.5347    0.7684   -0.7178 H   0  0  0  0  0  0  0  0  0  0  0  0
    1.1962    1.5271    1.6556 H   0  0  0  0  0  0  0  0  0  0  0  0
   -2.6376   -0.4245    1.7057 H   0  0  0  0  0  0  0  0  0  0  0  0
   -2.2845   -1.1694   -0.6527 H   0  0  0  0  0  0  0  0  0  0  0  0
   -0.1981   -2.6158   -7.3288 N   0  0  0  0  0  0  0  0  0  0  0  0
    0.2423   -3.4187   -6.7099 N   0  0  0  0  0  0  0  0  0  0  0  0
   -0.8630    1.0370    3.0951 O   0  0  0  0  0  0  0  0  0  0  0  0
   -1.7119    0.7478    3.4556 H   0  0  0  0  0  0  0  0  0  0  0  0
   -0.1619   -0.6768   -2.1755 N   0  0  0  0  0  0  0  0  0  0  0  0
   -1.0577   -1.3414   -2.7002 O   0  0  0  0  0  0  0  0  0  0  0  0
    0.8891   -0.3585   -2.7343 O   0  0  0  0  0  0  0  0  0  0  0  0
  1  2  1  0  0  0  0
  2  8  1  0  0  0  0
  2  3  2  0  0  0  0
  3 13  1  0  0  0  0
  4  9  1  0  0  0  0
  4  3  1  0  0  0  0
  5  4  2  0  0  0  0
  6  1  2  0  0  0  0
  6  5  1  0  0  0  0
  7  1  1  0  0  0  0
 10  5  1  0  0  0  0
 11 12  3  0  0  0  0
 13 14  1  0  0  0  0
 15  6  1  0  0  0  0
 16 15  2  0  0  0  0
 17 15  2  0  0  0  0
M  END
