Coordinates from ORCA-job 4-NO2-Ph-N2-OH-B3LYPG-6-31G_dp-MTMO-d009-169-n900
 OpenBabel09051908013D

 17 16  0  0  0  0  0  0  0  0999 V2000
    0.6129    0.6055    0.0556 C   0  0  0  0  0  0  0  0  0  0  0  0
    0.4270    1.0402    1.3590 C   0  0  0  0  0  0  0  0  0  0  0  0
   -0.7531    0.7099    2.0437 C   0  0  0  0  0  0  0  0  0  0  0  0
   -1.7443   -0.0587    1.4144 C   0  0  0  0  0  0  0  0  0  0  0  0
   -1.5596   -0.4950    0.1087 C   0  0  0  0  0  0  0  0  0  0  0  0
   -0.3827   -0.1586   -0.5589 C   0  0  0  0  0  0  0  0  0  0  0  0
    1.5124    0.8454   -0.4974 H   0  0  0  0  0  0  0  0  0  0  0  0
    1.1786    1.6344    1.8670 H   0  0  0  0  0  0  0  0  0  0  0  0
   -2.6565   -0.3137    1.9483 H   0  0  0  0  0  0  0  0  0  0  0  0
   -2.3079   -1.0887   -0.4013 H   0  0  0  0  0  0  0  0  0  0  0  0
   -0.0416   -3.3154   -9.0931 N   0  0  0  0  0  0  0  0  0  0  0  0
    0.4022   -4.0854   -8.4359 N   0  0  0  0  0  0  0  0  0  0  0  0
   -0.8788    1.1639    3.3160 O   0  0  0  0  0  0  0  0  0  0  0  0
   -1.7273    0.8798    3.6812 H   0  0  0  0  0  0  0  0  0  0  0  0
   -0.1878   -0.6165   -1.9338 N   0  0  0  0  0  0  0  0  0  0  0  0
   -1.0849   -1.2873   -2.4482 O   0  0  0  0  0  0  0  0  0  0  0  0
    0.8622   -0.3054   -2.4984 O   0  0  0  0  0  0  0  0  0  0  0  0
  1  2  1  0  0  0  0
  2  8  1  0  0  0  0
  2  3  2  0  0  0  0
  3 13  1  0  0  0  0
  4  9  1  0  0  0  0
  4  3  1  0  0  0  0
  5  4  2  0  0  0  0
  6  1  2  0  0  0  0
  6  5  1  0  0  0  0
  7  1  1  0  0  0  0
 10  5  1  0  0  0  0
 11 12  3  0  0  0  0
 13 14  1  0  0  0  0
 15  6  1  0  0  0  0
 16 15  2  0  0  0  0
 17 15  2  0  0  0  0
M  END
