Coordinates from ORCA-job 4-NO2-Ph-N2-OH-B3LYPG-6-31G_dp-MTMO-d009-169-n900
 OpenBabel09051908013D

 17 16  0  0  0  0  0  0  0  0999 V2000
   -0.6423   -0.7138   -1.4599 C   0  0  0  0  0  0  0  0  0  0  0  0
    0.3648   -0.0517   -0.7738 C   0  0  0  0  0  0  0  0  0  0  0  0
    0.1323    0.4075    0.5323 C   0  0  0  0  0  0  0  0  0  0  0  0
   -1.1123    0.1985    1.1457 C   0  0  0  0  0  0  0  0  0  0  0  0
   -2.1216   -0.4649    0.4591 C   0  0  0  0  0  0  0  0  0  0  0  0
   -1.8772   -0.9148   -0.8377 C   0  0  0  0  0  0  0  0  0  0  0  0
   -0.4927   -1.0781   -2.4682 H   0  0  0  0  0  0  0  0  0  0  0  0
    1.3339    0.1216   -1.2281 H   0  0  0  0  0  0  0  0  0  0  0  0
   -1.2881    0.5553    2.1573 H   0  0  0  0  0  0  0  0  0  0  0  0
   -3.0915   -0.6402    0.9074 H   0  0  0  0  0  0  0  0  0  0  0  0
    4.5115    0.4568   -3.5020 N   0  0  0  0  0  0  0  0  0  0  0  0
    3.5745    0.2861   -2.9419 N   0  0  0  0  0  0  0  0  0  0  0  0
    1.1537    1.0502    1.1536 O   0  0  0  0  0  0  0  0  0  0  0  0
    0.8767    1.3239    2.0381 H   0  0  0  0  0  0  0  0  0  0  0  0
   -2.9389   -1.6116   -1.5620 N   0  0  0  0  0  0  0  0  0  0  0  0
   -4.0181   -1.7698   -0.9877 O   0  0  0  0  0  0  0  0  0  0  0  0
   -2.6937   -2.0005   -2.7053 O   0  0  0  0  0  0  0  0  0  0  0  0
  1  6  2  0  0  0  0
  1  2  1  0  0  0  0
  2  3  2  0  0  0  0
  3  4  1  0  0  0  0
  3 13  1  0  0  0  0
  4  9  1  0  0  0  0
  5 10  1  0  0  0  0
  5  4  2  0  0  0  0
  6  5  1  0  0  0  0
  7  1  1  0  0  0  0
  8  2  1  0  0  0  0
 11 12  3  0  0  0  0
 13 14  1  0  0  0  0
 15 16  2  0  0  0  0
 15  6  1  0  0  0  0
 17 15  2  0  0  0  0
M  END
