Coordinates from ORCA-job 4-NO2-Ph-N2-OH-B3LYPG-6-31G_dp-MTMO-d009-169-n900
 OpenBabel09051908013D

 17 17  0  0  0  0  0  0  0  0999 V2000
   -1.0069   -1.5331   -1.2364 C   0  0  0  0  0  0  0  0  0  0  0  0
    0.2496   -0.9946   -1.0173 C   0  0  0  0  0  0  0  0  0  0  0  0
    0.4137    0.2113   -0.2796 C   0  0  0  0  0  0  0  0  0  0  0  0
   -0.7499    0.8216    0.2539 C   0  0  0  0  0  0  0  0  0  0  0  0
   -2.0130    0.2969    0.0246 C   0  0  0  0  0  0  0  0  0  0  0  0
   -2.1263   -0.8767   -0.7197 C   0  0  0  0  0  0  0  0  0  0  0  0
   -1.1422   -2.4536   -1.7902 H   0  0  0  0  0  0  0  0  0  0  0  0
    1.1332   -1.5019   -1.3871 H   0  0  0  0  0  0  0  0  0  0  0  0
   -0.6229    1.7281    0.8361 H   0  0  0  0  0  0  0  0  0  0  0  0
   -2.9053    0.7661    0.4185 H   0  0  0  0  0  0  0  0  0  0  0  0
    1.5174    0.7586   -0.0351 N   0  0  0  0  0  0  0  0  0  0  0  0
    2.4712    0.5648   -0.8172 N   0  0  0  0  0  0  0  0  0  0  0  0
    3.6001    1.1641   -0.3000 O   0  0  0  0  0  0  0  0  0  0  0  0
    4.2617    0.9966   -0.9894 H   0  0  0  0  0  0  0  0  0  0  0  0
   -3.4580   -1.4500   -0.9506 N   0  0  0  0  0  0  0  0  0  0  0  0
   -4.4260   -0.8512   -0.4814 O   0  0  0  0  0  0  0  0  0  0  0  0
   -3.5254   -2.4926   -1.6022 O   0  0  0  0  0  0  0  0  0  0  0  0
  1  2  2  0  0  0  0
  1  6  1  0  0  0  0
  2  3  1  0  0  0  0
  3 11  1  0  0  0  0
  3  4  2  0  0  0  0
  4  9  1  0  0  0  0
  5  4  1  0  0  0  0
  5 10  1  0  0  0  0
  6  5  2  0  0  0  0
  7  1  1  0  0  0  0
  8  2  1  0  0  0  0
 12 13  1  0  0  0  0
 12 11  1  0  0  0  0
 14 13  1  0  0  0  0
 15  6  1  0  0  0  0
 15 16  2  0  0  0  0
 17 15  2  0  0  0  0
M  RAD  2  11   2  12   2
M  END
