Coordinates from ORCA-job 4-NO2-Ph-N2-OH-B3LYPG-6-31G_dp-MTMO-d009-169-n900
 OpenBabel09051908013D

 17 16  0  0  0  0  0  0  0  0999 V2000
   -0.6622   -0.7261   -1.4749 C   0  0  0  0  0  0  0  0  0  0  0  0
    0.3560   -0.0654   -0.8039 C   0  0  0  0  0  0  0  0  0  0  0  0
    0.1416    0.4000    0.5028 C   0  0  0  0  0  0  0  0  0  0  0  0
   -1.0962    0.1986    1.1323 C   0  0  0  0  0  0  0  0  0  0  0  0
   -2.1167   -0.4634    0.4609 C   0  0  0  0  0  0  0  0  0  0  0  0
   -1.8902   -0.9196   -0.8369 C   0  0  0  0  0  0  0  0  0  0  0  0
   -0.5265   -1.0951   -2.4834 H   0  0  0  0  0  0  0  0  0  0  0  0
    1.3200    0.1018   -1.2712 H   0  0  0  0  0  0  0  0  0  0  0  0
   -1.2580    0.5602    2.1445 H   0  0  0  0  0  0  0  0  0  0  0  0
   -3.0817   -0.6325    0.9221 H   0  0  0  0  0  0  0  0  0  0  0  0
    4.5492    0.5126   -3.3925 N   0  0  0  0  0  0  0  0  0  0  0  0
    3.5882    0.3132   -2.8847 N   0  0  0  0  0  0  0  0  0  0  0  0
    1.1730    1.0410    1.1091 O   0  0  0  0  0  0  0  0  0  0  0  0
    0.9079    1.3193    1.9958 H   0  0  0  0  0  0  0  0  0  0  0  0
   -2.9635   -1.6148   -1.5455 N   0  0  0  0  0  0  0  0  0  0  0  0
   -4.0363   -1.7659   -0.9575 O   0  0  0  0  0  0  0  0  0  0  0  0
   -2.7337   -2.0094   -2.6900 O   0  0  0  0  0  0  0  0  0  0  0  0
  1  6  2  0  0  0  0
  1  2  1  0  0  0  0
  2  3  2  0  0  0  0
  3 13  1  0  0  0  0
  3  4  1  0  0  0  0
  4  9  1  0  0  0  0
  5 10  1  0  0  0  0
  5  4  2  0  0  0  0
  6  5  1  0  0  0  0
  7  1  1  0  0  0  0
  8  2  1  0  0  0  0
 11 12  3  0  0  0  0
 13 14  1  0  0  0  0
 15 16  2  0  0  0  0
 15  6  1  0  0  0  0
 17 15  2  0  0  0  0
M  END
