Coordinates from ORCA-job 4-NO2-Ph-N2-OH-B3LYPG-6-31G_dp-MTMO-d009-169-n900
 OpenBabel09051908013D

 17 16  0  0  0  0  0  0  0  0999 V2000
    0.6091    0.6227    0.1011 C   0  0  0  0  0  0  0  0  0  0  0  0
    0.4227    1.0609    1.4033 C   0  0  0  0  0  0  0  0  0  0  0  0
   -0.7574    0.7322    2.0886 C   0  0  0  0  0  0  0  0  0  0  0  0
   -1.7483   -0.0384    1.4611 C   0  0  0  0  0  0  0  0  0  0  0  0
   -1.5632   -0.4782    0.1566 C   0  0  0  0  0  0  0  0  0  0  0  0
   -0.3862   -0.1433   -0.5116 C   0  0  0  0  0  0  0  0  0  0  0  0
    1.5087    0.8613   -0.4524 H   0  0  0  0  0  0  0  0  0  0  0  0
    1.1741    1.6566    1.9098 H   0  0  0  0  0  0  0  0  0  0  0  0
   -2.6605   -0.2921    1.9954 H   0  0  0  0  0  0  0  0  0  0  0  0
   -2.3112   -1.0734   -0.3520 H   0  0  0  0  0  0  0  0  0  0  0  0
   -0.0140   -3.4540   -9.4430 N   0  0  0  0  0  0  0  0  0  0  0  0
    0.4318   -4.2186   -8.7809 N   0  0  0  0  0  0  0  0  0  0  0  0
   -0.8835    1.1895    3.3595 O   0  0  0  0  0  0  0  0  0  0  0  0
   -1.7322    0.9062    3.7253 H   0  0  0  0  0  0  0  0  0  0  0  0
   -0.1908   -0.6048   -1.8853 N   0  0  0  0  0  0  0  0  0  0  0  0
   -1.0876   -1.2772   -2.3981 O   0  0  0  0  0  0  0  0  0  0  0  0
    0.8592   -0.2949   -2.4505 O   0  0  0  0  0  0  0  0  0  0  0  0
  1  2  1  0  0  0  0
  2  8  1  0  0  0  0
  2  3  2  0  0  0  0
  3 13  1  0  0  0  0
  4  9  1  0  0  0  0
  4  3  1  0  0  0  0
  5  4  2  0  0  0  0
  6  1  2  0  0  0  0
  6  5  1  0  0  0  0
  7  1  1  0  0  0  0
 10  5  1  0  0  0  0
 11 12  3  0  0  0  0
 13 14  1  0  0  0  0
 15  6  1  0  0  0  0
 16 15  2  0  0  0  0
 17 15  2  0  0  0  0
M  END
