Coordinates from ORCA-job 4-NO2-Ph-N2-OH-B3LYPG-6-31G_dp-MTMO-d009-169-n900
 OpenBabel09051908013D

 17 16  0  0  0  0  0  0  0  0999 V2000
   -0.5558   -0.5941   -1.2611 C   0  0  0  0  0  0  0  0  0  0  0  0
    0.3424    0.0788   -0.4464 C   0  0  0  0  0  0  0  0  0  0  0  0
   -0.0437    0.4693    0.8456 C   0  0  0  0  0  0  0  0  0  0  0  0
   -1.3342    0.1813    1.3157 C   0  0  0  0  0  0  0  0  0  0  0  0
   -2.2352   -0.4929    0.5006 C   0  0  0  0  0  0  0  0  0  0  0  0
   -1.8377   -0.8744   -0.7804 C   0  0  0  0  0  0  0  0  0  0  0  0
   -0.2858   -0.9072   -2.2615 H   0  0  0  0  0  0  0  0  0  0  0  0
    1.3444    0.3132   -0.7877 H   0  0  0  0  0  0  0  0  0  0  0  0
   -1.6300    0.4857    2.3163 H   0  0  0  0  0  0  0  0  0  0  0  0
   -3.2367   -0.7283    0.8373 H   0  0  0  0  0  0  0  0  0  0  0  0
    4.7921    0.0058   -4.8254 N   0  0  0  0  0  0  0  0  0  0  0  0
    4.0715    0.0541   -3.9887 N   0  0  0  0  0  0  0  0  0  0  0  0
    0.8781    1.1249    1.5953 O   0  0  0  0  0  0  0  0  0  0  0  0
    0.5012    1.3456    2.4575 H   0  0  0  0  0  0  0  0  0  0  0  0
   -2.7853   -1.5835   -1.6388 N   0  0  0  0  0  0  0  0  0  0  0  0
   -3.9084   -1.8138   -1.1863 O   0  0  0  0  0  0  0  0  0  0  0  0
   -2.4061   -1.9101   -2.7649 O   0  0  0  0  0  0  0  0  0  0  0  0
  1  6  2  0  0  0  0
  1  2  1  0  0  0  0
  2  3  2  0  0  0  0
  3  4  1  0  0  0  0
  3 13  1  0  0  0  0
  4  9  1  0  0  0  0
  5 10  1  0  0  0  0
  5  4  2  0  0  0  0
  6  5  1  0  0  0  0
  7  1  1  0  0  0  0
  8  2  1  0  0  0  0
 11 12  3  0  0  0  0
 13 14  1  0  0  0  0
 15 16  2  0  0  0  0
 15  6  1  0  0  0  0
 17 15  2  0  0  0  0
M  END
