Coordinates from ORCA-job 4-NO2-Ph-N2-OH-B3LYPG-6-31G_dp-MTMO-d009-169-n900
 OpenBabel09051908023D

 17 16  0  0  0  0  0  0  0  0999 V2000
    0.5761    0.7820    0.5182 C   0  0  0  0  0  0  0  0  0  0  0  0
    0.3832    1.2488    1.8095 C   0  0  0  0  0  0  0  0  0  0  0  0
   -0.7988    0.9320    2.4972 C   0  0  0  0  0  0  0  0  0  0  0  0
   -1.7849    0.1447    1.8833 C   0  0  0  0  0  0  0  0  0  0  0  0
   -1.5932   -0.3238    0.5897 C   0  0  0  0  0  0  0  0  0  0  0  0
   -0.4145   -0.0005   -0.0811 C   0  0  0  0  0  0  0  0  0  0  0  0
    1.4772    1.0108   -0.0369 H   0  0  0  0  0  0  0  0  0  0  0  0
    1.1308    1.8579    2.3055 H   0  0  0  0  0  0  0  0  0  0  0  0
   -2.6986   -0.0996    2.4196 H   0  0  0  0  0  0  0  0  0  0  0  0
   -2.3375   -0.9325    0.0917 H   0  0  0  0  0  0  0  0  0  0  0  0
    0.2301   -4.7419  -12.6480 N   0  0  0  0  0  0  0  0  0  0  0  0
    0.6911   -5.4186  -11.9056 N   0  0  0  0  0  0  0  0  0  0  0  0
   -0.9315    1.4173    3.7571 O   0  0  0  0  0  0  0  0  0  0  0  0
   -1.7808    1.1397    4.1256 H   0  0  0  0  0  0  0  0  0  0  0  0
   -0.2122   -0.4919   -1.4433 N   0  0  0  0  0  0  0  0  0  0  0  0
   -1.1048   -1.1787   -1.9443 O   0  0  0  0  0  0  0  0  0  0  0  0
    0.8390   -0.1913   -2.0112 O   0  0  0  0  0  0  0  0  0  0  0  0
  1  2  1  0  0  0  0
  2  8  1  0  0  0  0
  2  3  2  0  0  0  0
  3 13  1  0  0  0  0
  4  9  1  0  0  0  0
  4  3  1  0  0  0  0
  5  4  2  0  0  0  0
  6  1  2  0  0  0  0
  6  5  1  0  0  0  0
  7  1  1  0  0  0  0
 10  5  1  0  0  0  0
 11 12  3  0  0  0  0
 13 14  1  0  0  0  0
 15  6  1  0  0  0  0
 16 15  2  0  0  0  0
 17 15  2  0  0  0  0
M  END
