Coordinates from ORCA-job 4-NO2-Ph-N2-OH-B3LYPG-6-31G_dp-MTMO-d009-169-n900
 OpenBabel09051908023D

 17 16  0  0  0  0  0  0  0  0999 V2000
    0.5941    0.6942    0.2893 C   0  0  0  0  0  0  0  0  0  0  0  0
    0.4049    1.1463    1.5863 C   0  0  0  0  0  0  0  0  0  0  0  0
   -0.7761    0.8235    2.2731 C   0  0  0  0  0  0  0  0  0  0  0  0
   -1.7648    0.0448    1.6523 C   0  0  0  0  0  0  0  0  0  0  0  0
   -1.5769   -0.4089    0.3530 C   0  0  0  0  0  0  0  0  0  0  0  0
   -0.3992   -0.0798   -0.3167 C   0  0  0  0  0  0  0  0  0  0  0  0
    1.4943    0.9280   -0.2652 H   0  0  0  0  0  0  0  0  0  0  0  0
    1.1545    1.7485    2.0876 H   0  0  0  0  0  0  0  0  0  0  0  0
   -2.6777   -0.2042    2.1878 H   0  0  0  0  0  0  0  0  0  0  0  0
   -2.3232   -1.0107   -0.1503 H   0  0  0  0  0  0  0  0  0  0  0  0
    0.0955   -4.0287  -10.8862 N   0  0  0  0  0  0  0  0  0  0  0  0
    0.5516   -4.7655  -10.2001 N   0  0  0  0  0  0  0  0  0  0  0  0
   -0.9051    1.2944    3.5388 O   0  0  0  0  0  0  0  0  0  0  0  0
   -1.7540    1.0140    3.9060 H   0  0  0  0  0  0  0  0  0  0  0  0
   -0.2008   -0.5558   -1.6850 N   0  0  0  0  0  0  0  0  0  0  0  0
   -1.0958   -1.2351   -2.1919 O   0  0  0  0  0  0  0  0  0  0  0  0
    0.8497   -0.2504   -2.2518 O   0  0  0  0  0  0  0  0  0  0  0  0
  1  2  1  0  0  0  0
  2  8  1  0  0  0  0
  2  3  2  0  0  0  0
  3 13  1  0  0  0  0
  4  9  1  0  0  0  0
  4  3  1  0  0  0  0
  5  4  2  0  0  0  0
  6  1  2  0  0  0  0
  6  5  1  0  0  0  0
  7  1  1  0  0  0  0
 10  5  1  0  0  0  0
 11 12  3  0  0  0  0
 13 14  1  0  0  0  0
 15  6  1  0  0  0  0
 16 15  2  0  0  0  0
 17 15  2  0  0  0  0
M  END
