Coordinates from ORCA-job 4-NO2-Ph-N2-OH-B3LYPG-6-31G_dp-MTMO-d009-169-n900
 OpenBabel09051908013D

 17 16  0  0  0  0  0  0  0  0999 V2000
   -0.5408   -0.6169   -1.3307 C   0  0  0  0  0  0  0  0  0  0  0  0
    0.3828    0.0543   -0.5435 C   0  0  0  0  0  0  0  0  0  0  0  0
    0.0300    0.4597    0.7537 C   0  0  0  0  0  0  0  0  0  0  0  0
   -1.2517    0.1881    1.2562 C   0  0  0  0  0  0  0  0  0  0  0  0
   -2.1777   -0.4846    0.4684 C   0  0  0  0  0  0  0  0  0  0  0  0
   -1.8137   -0.8808   -0.8180 C   0  0  0  0  0  0  0  0  0  0  0  0
   -0.2974   -0.9414   -2.3343 H   0  0  0  0  0  0  0  0  0  0  0  0
    1.3784    0.2755   -0.9116 H   0  0  0  0  0  0  0  0  0  0  0  0
   -1.5211    0.5041    2.2606 H   0  0  0  0  0  0  0  0  0  0  0  0
   -3.1734   -0.7076    0.8301 H   0  0  0  0  0  0  0  0  0  0  0  0
    4.4657    0.0646   -4.3734 N   0  0  0  0  0  0  0  0  0  0  0  0
    3.7228    0.1000   -3.5557 N   0  0  0  0  0  0  0  0  0  0  0  0
    0.9749    1.1134    1.4759 O   0  0  0  0  0  0  0  0  0  0  0  0
    0.6197    1.3459    2.3442 H   0  0  0  0  0  0  0  0  0  0  0  0
   -2.7876   -1.5882   -1.6479 N   0  0  0  0  0  0  0  0  0  0  0  0
   -3.9022   -1.8035   -1.1677 O   0  0  0  0  0  0  0  0  0  0  0  0
   -2.4378   -1.9282   -2.7795 O   0  0  0  0  0  0  0  0  0  0  0  0
  1  6  2  0  0  0  0
  1  2  1  0  0  0  0
  2  3  2  0  0  0  0
  3  4  1  0  0  0  0
  3 13  1  0  0  0  0
  4  9  1  0  0  0  0
  5 10  1  0  0  0  0
  5  4  2  0  0  0  0
  6  5  1  0  0  0  0
  7  1  1  0  0  0  0
  8  2  1  0  0  0  0
 11 12  3  0  0  0  0
 13 14  1  0  0  0  0
 15 16  2  0  0  0  0
 15  6  1  0  0  0  0
 17 15  2  0  0  0  0
M  END
