Coordinates from ORCA-job 4-NO2-Ph-N2-OH-B3LYPG-6-31G_dp-MTMO-d009-169-n900
 OpenBabel09051908013D

 17 16  0  0  0  0  0  0  0  0999 V2000
   -0.5484   -0.6054   -1.2961 C   0  0  0  0  0  0  0  0  0  0  0  0
    0.3626    0.0668   -0.4952 C   0  0  0  0  0  0  0  0  0  0  0  0
   -0.0068    0.4646    0.7997 C   0  0  0  0  0  0  0  0  0  0  0  0
   -1.2929    0.1846    1.2861 C   0  0  0  0  0  0  0  0  0  0  0  0
   -2.2065   -0.4889    0.4846 C   0  0  0  0  0  0  0  0  0  0  0  0
   -1.8258   -0.8776   -0.7993 C   0  0  0  0  0  0  0  0  0  0  0  0
   -0.2918   -0.9241   -2.2983 H   0  0  0  0  0  0  0  0  0  0  0  0
    1.3614    0.2948   -0.8499 H   0  0  0  0  0  0  0  0  0  0  0  0
   -1.5754    0.4947    2.2887 H   0  0  0  0  0  0  0  0  0  0  0  0
   -3.2052   -0.7183    0.8339 H   0  0  0  0  0  0  0  0  0  0  0  0
    4.6281    0.0343   -4.6001 N   0  0  0  0  0  0  0  0  0  0  0  0
    3.8987    0.0778   -3.7708 N   0  0  0  0  0  0  0  0  0  0  0  0
    0.9266    1.1194    1.5355 O   0  0  0  0  0  0  0  0  0  0  0  0
    0.5608    1.3459    2.4009 H   0  0  0  0  0  0  0  0  0  0  0  0
   -2.7867   -1.5860   -1.6435 N   0  0  0  0  0  0  0  0  0  0  0  0
   -3.9056   -1.8089   -1.1769 O   0  0  0  0  0  0  0  0  0  0  0  0
   -2.4223   -1.9191   -2.7725 O   0  0  0  0  0  0  0  0  0  0  0  0
  1  6  2  0  0  0  0
  1  2  1  0  0  0  0
  2  3  2  0  0  0  0
  3  4  1  0  0  0  0
  3 13  1  0  0  0  0
  4  9  1  0  0  0  0
  5 10  1  0  0  0  0
  5  4  2  0  0  0  0
  6  5  1  0  0  0  0
  7  1  1  0  0  0  0
  8  2  1  0  0  0  0
 11 12  3  0  0  0  0
 13 14  1  0  0  0  0
 15 16  2  0  0  0  0
 15  6  1  0  0  0  0
 17 15  2  0  0  0  0
M  END
