Coordinates from ORCA-job 4-NO2-Ph-N2-OH-B3LYPG-6-31G_dp-MTMO-d009-169-n900
 OpenBabel09051908013D

 17 16  0  0  0  0  0  0  0  0999 V2000
    0.6072    0.3997   -0.3732 C   0  0  0  0  0  0  0  0  0  0  0  0
    0.5014    0.8136    0.9460 C   0  0  0  0  0  0  0  0  0  0  0  0
   -0.6601    0.5229    1.6794 C   0  0  0  0  0  0  0  0  0  0  0  0
   -1.7134   -0.1860    1.0808 C   0  0  0  0  0  0  0  0  0  0  0  0
   -1.6092   -0.6015   -0.2408 C   0  0  0  0  0  0  0  0  0  0  0  0
   -0.4498   -0.3045   -0.9565 C   0  0  0  0  0  0  0  0  0  0  0  0
    1.4907    0.6105   -0.9628 H   0  0  0  0  0  0  0  0  0  0  0  0
    1.3026    1.3615    1.4296 H   0  0  0  0  0  0  0  0  0  0  0  0
   -2.6110   -0.4112    1.6515 H   0  0  0  0  0  0  0  0  0  0  0  0
   -2.4072   -1.1494   -0.7262 H   0  0  0  0  0  0  0  0  0  0  0  0
    0.0928   -2.3244   -6.4073 N   0  0  0  0  0  0  0  0  0  0  0  0
    0.3156   -2.6728   -5.3822 N   0  0  0  0  0  0  0  0  0  0  0  0
   -0.7063    0.9537    2.9646 O   0  0  0  0  0  0  0  0  0  0  0  0
   -1.5492    0.6994    3.3637 H   0  0  0  0  0  0  0  0  0  0  0  0
   -0.3396   -0.7390   -2.3487 N   0  0  0  0  0  0  0  0  0  0  0  0
   -1.2898   -1.3555   -2.8351 O   0  0  0  0  0  0  0  0  0  0  0  0
    0.6963   -0.4622   -2.9558 O   0  0  0  0  0  0  0  0  0  0  0  0
  1  2  1  0  0  0  0
  2  8  1  0  0  0  0
  2  3  2  0  0  0  0
  3 13  1  0  0  0  0
  4  9  1  0  0  0  0
  4  3  1  0  0  0  0
  5  4  2  0  0  0  0
  6  1  2  0  0  0  0
  6  5  1  0  0  0  0
  7  1  1  0  0  0  0
 10  5  1  0  0  0  0
 11 12  3  0  0  0  0
 13 14  1  0  0  0  0
 15  6  1  0  0  0  0
 16 15  2  0  0  0  0
 17 15  2  0  0  0  0
M  END
