Coordinates from ORCA-job 4-NO2-Ph-N2-OH-B3LYPG-6-31G_dp-MTMO-d009-169-n900
 OpenBabel09051908023D

 17 16  0  0  0  0  0  0  0  0999 V2000
    0.5769    0.7784    0.5088 C   0  0  0  0  0  0  0  0  0  0  0  0
    0.3841    1.2446    1.8003 C   0  0  0  0  0  0  0  0  0  0  0  0
   -0.7978    0.9276    2.4880 C   0  0  0  0  0  0  0  0  0  0  0  0
   -1.7840    0.1406    1.8738 C   0  0  0  0  0  0  0  0  0  0  0  0
   -1.5926   -0.3273    0.5800 C   0  0  0  0  0  0  0  0  0  0  0  0
   -0.4139   -0.0038   -0.0907 C   0  0  0  0  0  0  0  0  0  0  0  0
    1.4779    1.0074   -0.0463 H   0  0  0  0  0  0  0  0  0  0  0  0
    1.1317    1.8535    2.2965 H   0  0  0  0  0  0  0  0  0  0  0  0
   -2.6978   -0.1038    2.4100 H   0  0  0  0  0  0  0  0  0  0  0  0
   -2.3369   -0.9358    0.0818 H   0  0  0  0  0  0  0  0  0  0  0  0
    0.2241   -4.7123  -12.5753 N   0  0  0  0  0  0  0  0  0  0  0  0
    0.6859   -5.3919  -11.8359 N   0  0  0  0  0  0  0  0  0  0  0  0
   -0.9304    1.4124    3.7481 O   0  0  0  0  0  0  0  0  0  0  0  0
   -1.7797    1.1347    4.1166 H   0  0  0  0  0  0  0  0  0  0  0  0
   -0.2117   -0.4947   -1.4532 N   0  0  0  0  0  0  0  0  0  0  0  0
   -1.1044   -1.1812   -1.9544 O   0  0  0  0  0  0  0  0  0  0  0  0
    0.8395   -0.1939   -2.0210 O   0  0  0  0  0  0  0  0  0  0  0  0
  1  2  1  0  0  0  0
  2  8  1  0  0  0  0
  2  3  2  0  0  0  0
  3 13  1  0  0  0  0
  4  9  1  0  0  0  0
  4  3  1  0  0  0  0
  5  4  2  0  0  0  0
  6  1  2  0  0  0  0
  6  5  1  0  0  0  0
  7  1  1  0  0  0  0
 10  5  1  0  0  0  0
 11 12  3  0  0  0  0
 13 14  1  0  0  0  0
 15  6  1  0  0  0  0
 16 15  2  0  0  0  0
 17 15  2  0  0  0  0
M  END
