Coordinates from ORCA-job 4-NO2-Ph-N2-OH-B3LYPG-6-31G_dp-MTMO-d009-169-n900
 OpenBabel09051908013D

 17 16  0  0  0  0  0  0  0  0999 V2000
   -1.0214   -1.3642   -1.2005 C   0  0  0  0  0  0  0  0  0  0  0  0
    0.1246   -0.6108   -0.9092 C   0  0  0  0  0  0  0  0  0  0  0  0
   -0.0831    0.5029   -0.1522 C   0  0  0  0  0  0  0  0  0  0  0  0
   -1.2498    0.9977    0.3685 C   0  0  0  0  0  0  0  0  0  0  0  0
   -2.3898    0.2350    0.0705 C   0  0  0  0  0  0  0  0  0  0  0  0
   -2.2493   -0.9204   -0.7023 C   0  0  0  0  0  0  0  0  0  0  0  0
   -0.9791   -2.2703   -1.7933 H   0  0  0  0  0  0  0  0  0  0  0  0
    1.1200   -0.8875   -1.2597 H   0  0  0  0  0  0  0  0  0  0  0  0
   -1.3099    1.9028    0.9627 H   0  0  0  0  0  0  0  0  0  0  0  0
   -3.3718    0.5234    0.4264 H   0  0  0  0  0  0  0  0  0  0  0  0
    2.4586    1.4885    0.0440 N   0  0  0  0  0  0  0  0  0  0  0  0
    2.9402    0.6247   -0.5897 N   0  0  0  0  0  0  0  0  0  0  0  0
    4.4096    0.7333   -0.7748 O   0  0  0  0  0  0  0  0  0  0  0  0
    4.5721   -0.0648   -1.3035 H   0  0  0  0  0  0  0  0  0  0  0  0
   -3.4560   -1.7089   -1.0076 N   0  0  0  0  0  0  0  0  0  0  0  0
   -4.5290   -1.3027   -0.5650 O   0  0  0  0  0  0  0  0  0  0  0  0
   -3.3148   -2.7242   -1.6873 O   0  0  0  0  0  0  0  0  0  0  0  0
  1  2  2  0  0  0  0
  1  6  1  0  0  0  0
  2  3  1  0  0  0  0
  3  4  2  0  0  0  0
  4  9  1  0  0  0  0
  5  4  1  0  0  0  0
  5 10  1  0  0  0  0
  6  5  2  0  0  0  0
  7  1  1  0  0  0  0
  8  2  1  0  0  0  0
 12 11  1  0  0  0  0
 13 12  1  0  0  0  0
 14 13  1  0  0  0  0
 15  6  1  0  0  0  0
 15 16  2  0  0  0  0
 17 15  2  0  0  0  0
M  RAD  3   3   2  11   3  12   2
M  END
