Coordinates from ORCA-job 4-NO2-Ph-N2-OH-B3LYPG-6-31G_dp-MTMO-d009-169-n900
 OpenBabel09051908013D

 17 16  0  0  0  0  0  0  0  0999 V2000
    0.3649    0.0715   -0.6083 C   0  0  0  0  0  0  0  0  0  0  0  0
    0.5467    0.6210    0.6517 C   0  0  0  0  0  0  0  0  0  0  0  0
   -0.4954    0.5754    1.5916 C   0  0  0  0  0  0  0  0  0  0  0  0
   -1.7200   -0.0245    1.2600 C   0  0  0  0  0  0  0  0  0  0  0  0
   -1.9039   -0.5757   -0.0020 C   0  0  0  0  0  0  0  0  0  0  0  0
   -0.8598   -0.5226   -0.9248 C   0  0  0  0  0  0  0  0  0  0  0  0
    1.1511    0.0928   -1.3528 H   0  0  0  0  0  0  0  0  0  0  0  0
    1.4836    1.0897    0.9312 H   0  0  0  0  0  0  0  0  0  0  0  0
   -2.5255   -0.0598    1.9899 H   0  0  0  0  0  0  0  0  0  0  0  0
   -2.8379   -1.0449   -0.2839 H   0  0  0  0  0  0  0  0  0  0  0  0
    1.1382   -1.9468   -6.1684 N   0  0  0  0  0  0  0  0  0  0  0  0
    1.9365   -1.5316   -5.5267 N   0  0  0  0  0  0  0  0  0  0  0  0
   -0.2567    1.1295    2.8065 O   0  0  0  0  0  0  0  0  0  0  0  0
   -1.0402    1.0414    3.3657 H   0  0  0  0  0  0  0  0  0  0  0  0
   -1.0531   -1.1021   -2.2531 N   0  0  0  0  0  0  0  0  0  0  0  0
   -2.1438   -1.6194   -2.5006 O   0  0  0  0  0  0  0  0  0  0  0  0
   -0.1138   -1.0395   -3.0490 O   0  0  0  0  0  0  0  0  0  0  0  0
  1  2  1  0  0  0  0
  2  8  1  0  0  0  0
  2  3  2  0  0  0  0
  3 13  1  0  0  0  0
  4  3  1  0  0  0  0
  4  9  1  0  0  0  0
  5  4  2  0  0  0  0
  6  1  2  0  0  0  0
  6  5  1  0  0  0  0
  7  1  1  0  0  0  0
 10  5  1  0  0  0  0
 11 12  3  0  0  0  0
 13 14  1  0  0  0  0
 15  6  1  0  0  0  0
 16 15  2  0  0  0  0
 17 15  2  0  0  0  0
M  END
