Coordinates from ORCA-job 4-NO2-Ph-N2-OH-B3LYPG-6-31G_dp-MTMO-d009-169-n900
 OpenBabel09051908013D

 17 16  0  0  0  0  0  0  0  0999 V2000
   -1.0596   -1.4683   -1.2591 C   0  0  0  0  0  0  0  0  0  0  0  0
    0.1574   -0.8130   -1.0426 C   0  0  0  0  0  0  0  0  0  0  0  0
    0.0987    0.3324   -0.2918 C   0  0  0  0  0  0  0  0  0  0  0  0
   -1.0096    0.9150    0.2739 C   0  0  0  0  0  0  0  0  0  0  0  0
   -2.2227    0.2521    0.0518 C   0  0  0  0  0  0  0  0  0  0  0  0
   -2.2197   -0.9202   -0.7071 C   0  0  0  0  0  0  0  0  0  0  0  0
   -1.1240   -2.3818   -1.8376 H   0  0  0  0  0  0  0  0  0  0  0  0
    1.1001   -1.1782   -1.4398 H   0  0  0  0  0  0  0  0  0  0  0  0
   -0.9536    1.8294    0.8530 H   0  0  0  0  0  0  0  0  0  0  0  0
   -3.1573    0.6256    0.4520 H   0  0  0  0  0  0  0  0  0  0  0  0
    2.0520    1.3344    0.0184 N   0  0  0  0  0  0  0  0  0  0  0  0
    2.7773    0.5899   -0.5844 N   0  0  0  0  0  0  0  0  0  0  0  0
    4.1384    1.0465   -0.5256 O   0  0  0  0  0  0  0  0  0  0  0  0
    4.5850    0.3570   -1.0413 H   0  0  0  0  0  0  0  0  0  0  0  0
   -3.5008   -1.6110   -0.9379 N   0  0  0  0  0  0  0  0  0  0  0  0
   -4.5121   -1.1149   -0.4445 O   0  0  0  0  0  0  0  0  0  0  0  0
   -3.4786   -2.6404   -1.6106 O   0  0  0  0  0  0  0  0  0  0  0  0
  1  2  2  0  0  0  0
  1  6  1  0  0  0  0
  2  3  1  0  0  0  0
  3  4  2  0  0  0  0
  4  9  1  0  0  0  0
  5  4  1  0  0  0  0
  5 10  1  0  0  0  0
  6  5  2  0  0  0  0
  7  1  1  0  0  0  0
  8  2  1  0  0  0  0
 12 13  1  0  0  0  0
 12 11  1  0  0  0  0
 14 13  1  0  0  0  0
 15  6  1  0  0  0  0
 15 16  2  0  0  0  0
 17 15  2  0  0  0  0
M  RAD  3   3   2  11   3  12   2
M  END
