Coordinates from ORCA-job 4-NO2-Ph-N2-OH-B3LYPG-6-31G_dp-MTMO-d009-169-n900
 OpenBabel09051908013D

 17 16  0  0  0  0  0  0  0  0999 V2000
   -0.5501   -0.6030   -1.2889 C   0  0  0  0  0  0  0  0  0  0  0  0
    0.3582    0.0693   -0.4850 C   0  0  0  0  0  0  0  0  0  0  0  0
   -0.0145    0.4656    0.8092 C   0  0  0  0  0  0  0  0  0  0  0  0
   -1.3016    0.1839    1.2923 C   0  0  0  0  0  0  0  0  0  0  0  0
   -2.2125   -0.4898    0.4880 C   0  0  0  0  0  0  0  0  0  0  0  0
   -1.8284   -0.8770   -0.7953 C   0  0  0  0  0  0  0  0  0  0  0  0
   -0.2906   -0.9206   -2.2907 H   0  0  0  0  0  0  0  0  0  0  0  0
    1.3578    0.2987   -0.8368 H   0  0  0  0  0  0  0  0  0  0  0  0
   -1.5869    0.4928    2.2946 H   0  0  0  0  0  0  0  0  0  0  0  0
   -3.2118   -0.7204    0.8347 H   0  0  0  0  0  0  0  0  0  0  0  0
    4.6629    0.0283   -4.6474 N   0  0  0  0  0  0  0  0  0  0  0  0
    3.9355    0.0730   -3.8165 N   0  0  0  0  0  0  0  0  0  0  0  0
    0.9165    1.1206    1.5480 O   0  0  0  0  0  0  0  0  0  0  0  0
    0.5483    1.3458    2.4127 H   0  0  0  0  0  0  0  0  0  0  0  0
   -2.7866   -1.5855   -1.6424 N   0  0  0  0  0  0  0  0  0  0  0  0
   -3.9063   -1.8100   -1.1787 O   0  0  0  0  0  0  0  0  0  0  0  0
   -2.4192   -1.9173   -2.7709 O   0  0  0  0  0  0  0  0  0  0  0  0
  1  6  2  0  0  0  0
  1  2  1  0  0  0  0
  2  3  2  0  0  0  0
  3  4  1  0  0  0  0
  3 13  1  0  0  0  0
  4  9  1  0  0  0  0
  5 10  1  0  0  0  0
  5  4  2  0  0  0  0
  6  5  1  0  0  0  0
  7  1  1  0  0  0  0
  8  2  1  0  0  0  0
 11 12  3  0  0  0  0
 13 14  1  0  0  0  0
 15 16  2  0  0  0  0
 15  6  1  0  0  0  0
 17 15  2  0  0  0  0
M  END
