Coordinates from ORCA-job 4-NO2-Ph-N2-OH-B3LYPG-6-31G_dp-MTMO-d009-169-n900
 OpenBabel09051908023D

 17 16  0  0  0  0  0  0  0  0999 V2000
    0.5837    0.7450    0.4221 C   0  0  0  0  0  0  0  0  0  0  0  0
    0.3922    1.2059    1.7156 C   0  0  0  0  0  0  0  0  0  0  0  0
   -0.7893    0.8868    2.4030 C   0  0  0  0  0  0  0  0  0  0  0  0
   -1.7765    0.1030    1.7863 C   0  0  0  0  0  0  0  0  0  0  0  0
   -1.5863   -0.3598    0.4905 C   0  0  0  0  0  0  0  0  0  0  0  0
   -0.4080   -0.0342   -0.1799 C   0  0  0  0  0  0  0  0  0  0  0  0
    1.4844    0.9757   -0.1328 H   0  0  0  0  0  0  0  0  0  0  0  0
    1.1406    1.8123    2.2137 H   0  0  0  0  0  0  0  0  0  0  0  0
   -2.6899   -0.1432    2.3223 H   0  0  0  0  0  0  0  0  0  0  0  0
   -2.3314   -0.9657   -0.0097 H   0  0  0  0  0  0  0  0  0  0  0  0
    0.1715   -4.4399  -11.9057 N   0  0  0  0  0  0  0  0  0  0  0  0
    0.6347   -5.1458  -11.1923 N   0  0  0  0  0  0  0  0  0  0  0  0
   -0.9206    1.3665    3.6651 O   0  0  0  0  0  0  0  0  0  0  0  0
   -1.7698    1.0878    4.0332 H   0  0  0  0  0  0  0  0  0  0  0  0
   -0.2072   -0.5196   -1.5446 N   0  0  0  0  0  0  0  0  0  0  0  0
   -1.1008   -1.2034   -2.0479 O   0  0  0  0  0  0  0  0  0  0  0  0
    0.8437   -0.2170   -2.1120 O   0  0  0  0  0  0  0  0  0  0  0  0
  1  2  1  0  0  0  0
  2  8  1  0  0  0  0
  2  3  2  0  0  0  0
  3 13  1  0  0  0  0
  4  9  1  0  0  0  0
  4  3  1  0  0  0  0
  5  4  2  0  0  0  0
  6  1  2  0  0  0  0
  6  5  1  0  0  0  0
  7  1  1  0  0  0  0
 10  5  1  0  0  0  0
 11 12  3  0  0  0  0
 13 14  1  0  0  0  0
 15  6  1  0  0  0  0
 16 15  2  0  0  0  0
 17 15  2  0  0  0  0
M  END
