Coordinates from ORCA-job 4-NO2-Ph-N2-OH-B3LYPG-6-31G_dp-MTMO-d009-169-n900
 OpenBabel09051908023D

 17 16  0  0  0  0  0  0  0  0999 V2000
    0.5874    0.7268    0.3747 C   0  0  0  0  0  0  0  0  0  0  0  0
    0.3967    1.1848    1.6695 C   0  0  0  0  0  0  0  0  0  0  0  0
   -0.7846    0.8644    2.3566 C   0  0  0  0  0  0  0  0  0  0  0  0
   -1.7724    0.0823    1.7386 C   0  0  0  0  0  0  0  0  0  0  0  0
   -1.5830   -0.3774    0.4416 C   0  0  0  0  0  0  0  0  0  0  0  0
   -0.4049   -0.0505   -0.2286 C   0  0  0  0  0  0  0  0  0  0  0  0
    1.4879    0.9586   -0.1800 H   0  0  0  0  0  0  0  0  0  0  0  0
    1.1455    1.7897    2.1687 H   0  0  0  0  0  0  0  0  0  0  0  0
   -2.6856   -0.1648    2.2744 H   0  0  0  0  0  0  0  0  0  0  0  0
   -2.3285   -0.9818   -0.0597 H   0  0  0  0  0  0  0  0  0  0  0  0
    0.1442   -4.2925  -11.5417 N   0  0  0  0  0  0  0  0  0  0  0  0
    0.6053   -5.0109  -10.8397 N   0  0  0  0  0  0  0  0  0  0  0  0
   -0.9151    1.3411    3.6200 O   0  0  0  0  0  0  0  0  0  0  0  0
   -1.7642    1.0617    3.9878 H   0  0  0  0  0  0  0  0  0  0  0  0
   -0.2049   -0.5327   -1.5945 N   0  0  0  0  0  0  0  0  0  0  0  0
   -1.0989   -1.2150   -2.0991 O   0  0  0  0  0  0  0  0  0  0  0  0
    0.8459   -0.2292   -2.1617 O   0  0  0  0  0  0  0  0  0  0  0  0
  1  2  1  0  0  0  0
  2  8  1  0  0  0  0
  2  3  2  0  0  0  0
  3 13  1  0  0  0  0
  4  9  1  0  0  0  0
  4  3  1  0  0  0  0
  5  4  2  0  0  0  0
  6  1  2  0  0  0  0
  6  5  1  0  0  0  0
  7  1  1  0  0  0  0
 10  5  1  0  0  0  0
 11 12  3  0  0  0  0
 13 14  1  0  0  0  0
 15  6  1  0  0  0  0
 16 15  2  0  0  0  0
 17 15  2  0  0  0  0
M  END
