Coordinates from ORCA-job 4-NO2-Ph-N2-OH-B3LYPG-6-31G_dp-MTMO-d009-169-n900
 OpenBabel09051908023D

 17 16  0  0  0  0  0  0  0  0999 V2000
    0.5917    0.7058    0.3197 C   0  0  0  0  0  0  0  0  0  0  0  0
    0.4020    1.1600    1.6159 C   0  0  0  0  0  0  0  0  0  0  0  0
   -0.7791    0.8381    2.3028 C   0  0  0  0  0  0  0  0  0  0  0  0
   -1.7675    0.0582    1.6830 C   0  0  0  0  0  0  0  0  0  0  0  0
   -1.5791   -0.3977    0.3846 C   0  0  0  0  0  0  0  0  0  0  0  0
   -0.4012   -0.0694   -0.2854 C   0  0  0  0  0  0  0  0  0  0  0  0
    1.4920    0.9388   -0.2349 H   0  0  0  0  0  0  0  0  0  0  0  0
    1.1513    1.7632    2.1164 H   0  0  0  0  0  0  0  0  0  0  0  0
   -2.6805   -0.1902    2.2187 H   0  0  0  0  0  0  0  0  0  0  0  0
   -2.3251   -1.0005   -0.1180 H   0  0  0  0  0  0  0  0  0  0  0  0
    0.1128   -4.1223  -11.1193 N   0  0  0  0  0  0  0  0  0  0  0  0
    0.5708   -4.8531  -10.4281 N   0  0  0  0  0  0  0  0  0  0  0  0
   -0.9087    1.3111    3.5677 O   0  0  0  0  0  0  0  0  0  0  0  0
   -1.7576    1.0311    3.9351 H   0  0  0  0  0  0  0  0  0  0  0  0
   -0.2023   -0.5477   -1.6528 N   0  0  0  0  0  0  0  0  0  0  0  0
   -1.0969   -1.2281   -2.1588 O   0  0  0  0  0  0  0  0  0  0  0  0
    0.8483   -0.2430   -2.2197 O   0  0  0  0  0  0  0  0  0  0  0  0
  1  2  1  0  0  0  0
  2  8  1  0  0  0  0
  2  3  2  0  0  0  0
  3 13  1  0  0  0  0
  4  9  1  0  0  0  0
  4  3  1  0  0  0  0
  5  4  2  0  0  0  0
  6  1  2  0  0  0  0
  6  5  1  0  0  0  0
  7  1  1  0  0  0  0
 10  5  1  0  0  0  0
 11 12  3  0  0  0  0
 13 14  1  0  0  0  0
 15  6  1  0  0  0  0
 16 15  2  0  0  0  0
 17 15  2  0  0  0  0
M  END
