Coordinates from ORCA-job 4-NO2-Ph-N2-OH-B3LYPG-6-31G_dp-MTMO-d009-169-n900
 OpenBabel09051908013D

 17 16  0  0  0  0  0  0  0  0999 V2000
   -0.8769   -0.9043   -1.6259 C   0  0  0  0  0  0  0  0  0  0  0  0
    0.2635   -0.2843   -1.1371 C   0  0  0  0  0  0  0  0  0  0  0  0
    0.2550    0.2739    0.1509 C   0  0  0  0  0  0  0  0  0  0  0  0
   -0.8998    0.2074    0.9453 C   0  0  0  0  0  0  0  0  0  0  0  0
   -2.0427   -0.4131    0.4563 C   0  0  0  0  0  0  0  0  0  0  0  0
   -2.0205   -0.9632   -0.8248 C   0  0  0  0  0  0  0  0  0  0  0  0
   -0.9013   -1.3436   -2.6149 H   0  0  0  0  0  0  0  0  0  0  0  0
    1.1689   -0.2180   -1.7300 H   0  0  0  0  0  0  0  0  0  0  0  0
   -0.9007    0.6408    1.9421 H   0  0  0  0  0  0  0  0  0  0  0  0
   -2.9483   -0.4796    1.0463 H   0  0  0  0  0  0  0  0  0  0  0  0
    4.7336    1.2195   -2.0579 N   0  0  0  0  0  0  0  0  0  0  0  0
    3.7773    0.6969   -2.2416 N   0  0  0  0  0  0  0  0  0  0  0  0
    1.3999    0.8681    0.5749 O   0  0  0  0  0  0  0  0  0  0  0  0
    1.2762    1.2129    1.4694 H   0  0  0  0  0  0  0  0  0  0  0  0
   -3.2232   -1.6157   -1.3405 N   0  0  0  0  0  0  0  0  0  0  0  0
   -4.2172   -1.6458   -0.6121 O   0  0  0  0  0  0  0  0  0  0  0  0
   -3.1729   -2.0974   -2.4736 O   0  0  0  0  0  0  0  0  0  0  0  0
  1  2  2  0  0  0  0
  1  6  1  0  0  0  0
  2  3  1  0  0  0  0
  3 13  1  0  0  0  0
  3  4  2  0  0  0  0
  4  9  1  0  0  0  0
  5  4  1  0  0  0  0
  5 10  1  0  0  0  0
  6  5  2  0  0  0  0
  7  1  1  0  0  0  0
  8  2  1  0  0  0  0
 12 11  3  0  0  0  0
 13 14  1  0  0  0  0
 15  6  1  0  0  0  0
 15 16  2  0  0  0  0
 17 15  2  0  0  0  0
M  END
