Coordinates from ORCA-job 4-NO2-Ph-N2-OH-B3LYPG-6-31G_dp-MTMO-d009-169-n900
 OpenBabel09051908013D

 17 15  0  0  0  0  0  0  0  0999 V2000
   -0.8458   -0.9470   -1.0310 C   0  0  0  0  0  0  0  0  0  0  0  0
    0.0378    0.0375   -0.5462 C   0  0  0  0  0  0  0  0  0  0  0  0
   -0.5605    0.9752    0.2263 C   0  0  0  0  0  0  0  0  0  0  0  0
   -1.8570    1.1390    0.6208 C   0  0  0  0  0  0  0  0  0  0  0  0
   -2.7202    0.1442    0.1269 C   0  0  0  0  0  0  0  0  0  0  0  0
   -2.1950   -0.8664   -0.6818 C   0  0  0  0  0  0  0  0  0  0  0  0
   -0.4964   -1.7560   -1.6630 H   0  0  0  0  0  0  0  0  0  0  0  0
    1.1040    0.0204   -0.7878 H   0  0  0  0  0  0  0  0  0  0  0  0
   -2.2183    1.9450    1.2516 H   0  0  0  0  0  0  0  0  0  0  0  0
   -3.7782    0.1506    0.3643 H   0  0  0  0  0  0  0  0  0  0  0  0
    3.4272    1.7494   -0.2126 N   0  0  0  0  0  0  0  0  0  0  0  0
    3.1309    0.7862   -0.6835 N   0  0  0  0  0  0  0  0  0  0  0  0
    4.6600   -0.5289   -1.3817 O   0  0  0  0  0  0  0  0  0  0  0  0
    4.0289   -1.1964   -1.7052 H   0  0  0  0  0  0  0  0  0  0  0  0
   -3.1141   -1.9016   -1.1929 N   0  0  0  0  0  0  0  0  0  0  0  0
   -4.2972   -1.8161   -0.8719 O   0  0  0  0  0  0  0  0  0  0  0  0
   -2.6354   -2.7805   -1.9053 O   0  0  0  0  0  0  0  0  0  0  0  0
  1  6  2  0  0  0  0
  1  2  1  0  0  0  0
  2  3  2  0  0  0  0
  3  4  1  0  0  0  0
  4  9  1  0  0  0  0
  5 10  1  0  0  0  0
  5  4  2  0  0  0  0
  6  5  1  0  0  0  0
  7  1  1  0  0  0  0
  8  2  1  0  0  0  0
 12 11  3  0  0  0  0
 14 13  1  0  0  0  0
 15 16  2  0  0  0  0
 15  6  1  0  0  0  0
 17 15  2  0  0  0  0
M  RAD  2   3   2  13   2
M  END
