Coordinates from ORCA-job 4-NO2-Ph-N2-OH-B3LYPG-6-31G_dp-MTMO-d009-169-n900
 OpenBabel09051908013D

 17 16  0  0  0  0  0  0  0  0999 V2000
   -0.5632   -0.5754   -1.2051 C   0  0  0  0  0  0  0  0  0  0  0  0
    0.3135    0.0983   -0.3678 C   0  0  0  0  0  0  0  0  0  0  0  0
   -0.1012    0.4768    0.9189 C   0  0  0  0  0  0  0  0  0  0  0  0
   -1.3987    0.1762    1.3608 C   0  0  0  0  0  0  0  0  0  0  0  0
   -2.2782   -0.4988    0.5231 C   0  0  0  0  0  0  0  0  0  0  0  0
   -1.8523   -0.8684   -0.7522 C   0  0  0  0  0  0  0  0  0  0  0  0
   -0.2709   -0.8795   -2.2020 H   0  0  0  0  0  0  0  0  0  0  0  0
    1.3203    0.3426   -0.6870 H   0  0  0  0  0  0  0  0  0  0  0  0
   -1.7167    0.4714    2.3574 H   0  0  0  0  0  0  0  0  0  0  0  0
   -3.2845   -0.7437    0.8383 H   0  0  0  0  0  0  0  0  0  0  0  0
    5.0305   -0.0429   -5.1746 N   0  0  0  0  0  0  0  0  0  0  0  0
    4.3237    0.0125   -4.3267 N   0  0  0  0  0  0  0  0  0  0  0  0
    0.8006    1.1337    1.6914 O   0  0  0  0  0  0  0  0  0  0  0  0
    0.4053    1.3448    2.5477 H   0  0  0  0  0  0  0  0  0  0  0  0
   -2.7771   -1.5786   -1.6344 N   0  0  0  0  0  0  0  0  0  0  0  0
   -3.9073   -1.8205   -1.2060 O   0  0  0  0  0  0  0  0  0  0  0  0
   -2.3729   -1.8941   -2.7549 O   0  0  0  0  0  0  0  0  0  0  0  0
  1  6  2  0  0  0  0
  1  2  1  0  0  0  0
  2  3  2  0  0  0  0
  3  4  1  0  0  0  0
  3 13  1  0  0  0  0
  4  9  1  0  0  0  0
  5 10  1  0  0  0  0
  5  4  2  0  0  0  0
  6  5  1  0  0  0  0
  7  1  1  0  0  0  0
  8  2  1  0  0  0  0
 11 12  3  0  0  0  0
 13 14  1  0  0  0  0
 15 16  2  0  0  0  0
 15  6  1  0  0  0  0
 17 15  2  0  0  0  0
M  END
