Coordinates from ORCA-job 4-NO2-Ph-N2-OH-B3LYPG-6-31G_dp-MTMO-d009-169-n900
 OpenBabel09051908023D

 17 16  0  0  0  0  0  0  0  0999 V2000
    0.5884    0.7217    0.3615 C   0  0  0  0  0  0  0  0  0  0  0  0
    0.3980    1.1788    1.6566 C   0  0  0  0  0  0  0  0  0  0  0  0
   -0.7833    0.8581    2.3437 C   0  0  0  0  0  0  0  0  0  0  0  0
   -1.7712    0.0765    1.7252 C   0  0  0  0  0  0  0  0  0  0  0  0
   -1.5820   -0.3823    0.4278 C   0  0  0  0  0  0  0  0  0  0  0  0
   -0.4040   -0.0551   -0.2423 C   0  0  0  0  0  0  0  0  0  0  0  0
    1.4889    0.9538   -0.1933 H   0  0  0  0  0  0  0  0  0  0  0  0
    1.1469    1.7833    2.1561 H   0  0  0  0  0  0  0  0  0  0  0  0
   -2.6844   -0.1709    2.2610 H   0  0  0  0  0  0  0  0  0  0  0  0
   -2.3277   -0.9864   -0.0737 H   0  0  0  0  0  0  0  0  0  0  0  0
    0.1366   -4.2513  -11.4398 N   0  0  0  0  0  0  0  0  0  0  0  0
    0.5970   -4.9730  -10.7405 N   0  0  0  0  0  0  0  0  0  0  0  0
   -0.9136    1.3339    3.6074 O   0  0  0  0  0  0  0  0  0  0  0  0
   -1.7626    1.0544    3.9751 H   0  0  0  0  0  0  0  0  0  0  0  0
   -0.2043   -0.5363   -1.6086 N   0  0  0  0  0  0  0  0  0  0  0  0
   -1.0984   -1.2182   -2.1135 O   0  0  0  0  0  0  0  0  0  0  0  0
    0.8464   -0.2326   -2.1757 O   0  0  0  0  0  0  0  0  0  0  0  0
  1  2  1  0  0  0  0
  2  8  1  0  0  0  0
  2  3  2  0  0  0  0
  3 13  1  0  0  0  0
  4  9  1  0  0  0  0
  4  3  1  0  0  0  0
  5  4  2  0  0  0  0
  6  1  2  0  0  0  0
  6  5  1  0  0  0  0
  7  1  1  0  0  0  0
 10  5  1  0  0  0  0
 11 12  3  0  0  0  0
 13 14  1  0  0  0  0
 15  6  1  0  0  0  0
 16 15  2  0  0  0  0
 17 15  2  0  0  0  0
M  END
