Coordinates from ORCA-job 4-NO2-Ph-N2-OH-B3LYPG-6-31G_dp-MTMO-d009-169-n900
 OpenBabel09051908013D

 17 16  0  0  0  0  0  0  0  0999 V2000
   -1.0569   -1.4796   -1.2661 C   0  0  0  0  0  0  0  0  0  0  0  0
    0.1692   -0.8400   -1.0609 C   0  0  0  0  0  0  0  0  0  0  0  0
    0.1382    0.3109   -0.3117 C   0  0  0  0  0  0  0  0  0  0  0  0
   -0.9652    0.9029    0.2584 C   0  0  0  0  0  0  0  0  0  0  0  0
   -2.1883    0.2571    0.0486 C   0  0  0  0  0  0  0  0  0  0  0  0
   -2.2063   -0.9167   -0.7073 C   0  0  0  0  0  0  0  0  0  0  0  0
   -1.1370   -2.3935   -1.8418 H   0  0  0  0  0  0  0  0  0  0  0  0
    1.1018   -1.2203   -1.4654 H   0  0  0  0  0  0  0  0  0  0  0  0
   -0.8909    1.8178    0.8346 H   0  0  0  0  0  0  0  0  0  0  0  0
   -3.1147    0.6435    0.4551 H   0  0  0  0  0  0  0  0  0  0  0  0
    1.9622    1.2861    0.0056 N   0  0  0  0  0  0  0  0  0  0  0  0
    2.7331    0.5709   -0.5900 N   0  0  0  0  0  0  0  0  0  0  0  0
    4.0589    1.0860   -0.4858 O   0  0  0  0  0  0  0  0  0  0  0  0
    4.5566    0.4276   -0.9950 H   0  0  0  0  0  0  0  0  0  0  0  0
   -3.4976   -1.5923   -0.9270 N   0  0  0  0  0  0  0  0  0  0  0  0
   -4.4988   -1.0830   -0.4264 O   0  0  0  0  0  0  0  0  0  0  0  0
   -3.4932   -2.6229   -1.5980 O   0  0  0  0  0  0  0  0  0  0  0  0
  1  2  2  0  0  0  0
  1  6  1  0  0  0  0
  2  3  1  0  0  0  0
  3  4  2  0  0  0  0
  4  9  1  0  0  0  0
  5  4  1  0  0  0  0
  5 10  1  0  0  0  0
  6  5  2  0  0  0  0
  7  1  1  0  0  0  0
  8  2  1  0  0  0  0
 12 13  1  0  0  0  0
 12 11  1  0  0  0  0
 14 13  1  0  0  0  0
 15  6  1  0  0  0  0
 15 16  2  0  0  0  0
 17 15  2  0  0  0  0
M  RAD  3   3   2  11   3  12   2
M  END
