Coordinates from ORCA-job 4-NO2-Ph-N2-OH-B3LYPG-6-31G_dp-MTMO-d009-169-n900
 OpenBabel09051908013D

 17 16  0  0  0  0  0  0  0  0999 V2000
   -0.7356   -0.7718   -1.5216 C   0  0  0  0  0  0  0  0  0  0  0  0
    0.3200   -0.1178   -0.9038 C   0  0  0  0  0  0  0  0  0  0  0  0
    0.1674    0.3703    0.4033 C   0  0  0  0  0  0  0  0  0  0  0  0
   -1.0460    0.1985    1.0866 C   0  0  0  0  0  0  0  0  0  0  0  0
   -2.1040   -0.4565    0.4685 C   0  0  0  0  0  0  0  0  0  0  0  0
   -1.9389   -0.9356   -0.8304 C   0  0  0  0  0  0  0  0  0  0  0  0
   -0.6484   -1.1580   -2.5291 H   0  0  0  0  0  0  0  0  0  0  0  0
    1.2666    0.0271   -1.4126 H   0  0  0  0  0  0  0  0  0  0  0  0
   -1.1594    0.5775    2.0990 H   0  0  0  0  0  0  0  0  0  0  0  0
   -3.0513   -0.6027    0.9724 H   0  0  0  0  0  0  0  0  0  0  0  0
    4.7052    0.7255   -3.0070 N   0  0  0  0  0  0  0  0  0  0  0  0
    3.6809    0.4071   -2.7417 N   0  0  0  0  0  0  0  0  0  0  0  0
    1.2331    1.0033    0.9566 O   0  0  0  0  0  0  0  0  0  0  0  0
    1.0097    1.2980    1.8495 H   0  0  0  0  0  0  0  0  0  0  0  0
   -3.0516   -1.6235   -1.4834 N   0  0  0  0  0  0  0  0  0  0  0  0
   -4.1015   -1.7478   -0.8495 O   0  0  0  0  0  0  0  0  0  0  0  0
   -2.8754   -2.0392   -2.6300 O   0  0  0  0  0  0  0  0  0  0  0  0
  1  2  2  0  0  0  0
  1  6  1  0  0  0  0
  2  3  1  0  0  0  0
  3 13  1  0  0  0  0
  3  4  2  0  0  0  0
  4  9  1  0  0  0  0
  5 10  1  0  0  0  0
  5  4  1  0  0  0  0
  6  5  2  0  0  0  0
  7  1  1  0  0  0  0
  8  2  1  0  0  0  0
 11 12  3  0  0  0  0
 13 14  1  0  0  0  0
 15 16  2  0  0  0  0
 15  6  1  0  0  0  0
 17 15  2  0  0  0  0
M  END
