Coordinates from ORCA-job 4-NO2-Ph-N2-OH-B3LYPG-6-31G_dp-MTMO-d009-169-n900
 OpenBabel09051908013D

 17 16  0  0  0  0  0  0  0  0999 V2000
    0.6004    0.4281   -0.2853 C   0  0  0  0  0  0  0  0  0  0  0  0
    0.4887    0.8528    1.0301 C   0  0  0  0  0  0  0  0  0  0  0  0
   -0.6752    0.5657    1.7608 C   0  0  0  0  0  0  0  0  0  0  0  0
   -1.7247   -0.1502    1.1644 C   0  0  0  0  0  0  0  0  0  0  0  0
   -1.6144   -0.5765   -0.1533 C   0  0  0  0  0  0  0  0  0  0  0  0
   -0.4528   -0.2831   -0.8667 C   0  0  0  0  0  0  0  0  0  0  0  0
    1.4858    0.6358   -0.8731 H   0  0  0  0  0  0  0  0  0  0  0  0
    1.2869    1.4064    1.5121 H   0  0  0  0  0  0  0  0  0  0  0  0
   -2.6242   -0.3724    1.7335 H   0  0  0  0  0  0  0  0  0  0  0  0
   -2.4093   -1.1300   -0.6374 H   0  0  0  0  0  0  0  0  0  0  0  0
    0.1869   -2.5962   -7.0761 N   0  0  0  0  0  0  0  0  0  0  0  0
    0.3385   -2.8496   -6.0109 N   0  0  0  0  0  0  0  0  0  0  0  0
   -0.7275    1.0070    3.0425 O   0  0  0  0  0  0  0  0  0  0  0  0
   -1.5715    0.7542    3.4401 H   0  0  0  0  0  0  0  0  0  0  0  0
   -0.3360   -0.7293   -2.2548 N   0  0  0  0  0  0  0  0  0  0  0  0
   -1.2828   -1.3520   -2.7396 O   0  0  0  0  0  0  0  0  0  0  0  0
    0.7021   -0.4562   -2.8596 O   0  0  0  0  0  0  0  0  0  0  0  0
  1  2  1  0  0  0  0
  2  8  1  0  0  0  0
  2  3  2  0  0  0  0
  3 13  1  0  0  0  0
  4  9  1  0  0  0  0
  4  3  1  0  0  0  0
  5  4  2  0  0  0  0
  6  1  2  0  0  0  0
  6  5  1  0  0  0  0
  7  1  1  0  0  0  0
 10  5  1  0  0  0  0
 11 12  3  0  0  0  0
 13 14  1  0  0  0  0
 15  6  1  0  0  0  0
 16 15  2  0  0  0  0
 17 15  2  0  0  0  0
M  END
