Coordinates from ORCA-job 4-NO2-Ph-N2-OH-B3LYPG-6-31G_dp-MTMO-d009-169-n900
 OpenBabel09051908013D

 17 16  0  0  0  0  0  0  0  0999 V2000
    0.6053    0.6407    0.1485 C   0  0  0  0  0  0  0  0  0  0  0  0
    0.4183    1.0825    1.4494 C   0  0  0  0  0  0  0  0  0  0  0  0
   -0.7620    0.7553    2.1352 C   0  0  0  0  0  0  0  0  0  0  0  0
   -1.7524   -0.0173    1.5096 C   0  0  0  0  0  0  0  0  0  0  0  0
   -1.5667   -0.4607    0.2064 C   0  0  0  0  0  0  0  0  0  0  0  0
   -0.3896   -0.1273   -0.4624 C   0  0  0  0  0  0  0  0  0  0  0  0
    1.5050    0.8780   -0.4053 H   0  0  0  0  0  0  0  0  0  0  0  0
    1.1692    1.6798    1.9546 H   0  0  0  0  0  0  0  0  0  0  0  0
   -2.6648   -0.2698    2.0443 H   0  0  0  0  0  0  0  0  0  0  0  0
   -2.3144   -1.0576   -0.3008 H   0  0  0  0  0  0  0  0  0  0  0  0
    0.0143   -3.5986   -9.8076 N   0  0  0  0  0  0  0  0  0  0  0  0
    0.4622   -4.3572   -9.1401 N   0  0  0  0  0  0  0  0  0  0  0  0
   -0.8888    1.2162    3.4048 O   0  0  0  0  0  0  0  0  0  0  0  0
   -1.7374    0.9337    3.7711 H   0  0  0  0  0  0  0  0  0  0  0  0
   -0.1936   -0.5926   -1.8347 N   0  0  0  0  0  0  0  0  0  0  0  0
   -1.0900   -1.2667   -2.3458 O   0  0  0  0  0  0  0  0  0  0  0  0
    0.8565   -0.2839   -2.4004 O   0  0  0  0  0  0  0  0  0  0  0  0
  1  2  1  0  0  0  0
  2  8  1  0  0  0  0
  2  3  2  0  0  0  0
  3 13  1  0  0  0  0
  4  9  1  0  0  0  0
  4  3  1  0  0  0  0
  5  4  2  0  0  0  0
  6  1  2  0  0  0  0
  6  5  1  0  0  0  0
  7  1  1  0  0  0  0
 10  5  1  0  0  0  0
 11 12  3  0  0  0  0
 13 14  1  0  0  0  0
 15  6  1  0  0  0  0
 16 15  2  0  0  0  0
 17 15  2  0  0  0  0
M  END
