Coordinates from ORCA-job 4-NO2-Ph-N2-OH-B3LYPG-6-31G_dp-MTMO-d009-169-n900
 OpenBabel09051908023D

 17 16  0  0  0  0  0  0  0  0999 V2000
    0.5807    0.7595    0.4598 C   0  0  0  0  0  0  0  0  0  0  0  0
    0.3887    1.2228    1.7525 C   0  0  0  0  0  0  0  0  0  0  0  0
   -0.7931    0.9047    2.4400 C   0  0  0  0  0  0  0  0  0  0  0  0
   -1.7798    0.1194    1.8244 C   0  0  0  0  0  0  0  0  0  0  0  0
   -1.5890   -0.3457    0.5295 C   0  0  0  0  0  0  0  0  0  0  0  0
   -0.4106   -0.0210   -0.1411 C   0  0  0  0  0  0  0  0  0  0  0  0
    1.4816    0.9894   -0.0952 H   0  0  0  0  0  0  0  0  0  0  0  0
    1.1368    1.8303    2.2497 H   0  0  0  0  0  0  0  0  0  0  0  0
   -2.6934   -0.1260    2.3605 H   0  0  0  0  0  0  0  0  0  0  0  0
   -2.3338   -0.9527    0.0302 H   0  0  0  0  0  0  0  0  0  0  0  0
    0.1938   -4.5583  -12.1968 N   0  0  0  0  0  0  0  0  0  0  0  0
    0.6575   -5.2530  -11.4729 N   0  0  0  0  0  0  0  0  0  0  0  0
   -0.9249    1.3866    3.7012 O   0  0  0  0  0  0  0  0  0  0  0  0
   -1.7741    1.1083    4.0694 H   0  0  0  0  0  0  0  0  0  0  0  0
   -0.2092   -0.5089   -1.5048 N   0  0  0  0  0  0  0  0  0  0  0  0
   -1.1023   -1.1939   -2.0071 O   0  0  0  0  0  0  0  0  0  0  0  0
    0.8419   -0.2071   -2.0723 O   0  0  0  0  0  0  0  0  0  0  0  0
  1  2  1  0  0  0  0
  2  8  1  0  0  0  0
  2  3  2  0  0  0  0
  3 13  1  0  0  0  0
  4  9  1  0  0  0  0
  4  3  1  0  0  0  0
  5  4  2  0  0  0  0
  6  1  2  0  0  0  0
  6  5  1  0  0  0  0
  7  1  1  0  0  0  0
 10  5  1  0  0  0  0
 11 12  3  0  0  0  0
 13 14  1  0  0  0  0
 15  6  1  0  0  0  0
 16 15  2  0  0  0  0
 17 15  2  0  0  0  0
M  END
