Coordinates from ORCA-job 4-NO2-Ph-N2-OH-B3LYPG-6-31G_dp-MTMO-d009-169-n900
 OpenBabel09051908013D

 17 16  0  0  0  0  0  0  0  0999 V2000
   -0.5473   -0.6439   -1.3796 C   0  0  0  0  0  0  0  0  0  0  0  0
    0.3999    0.0251   -0.6189 C   0  0  0  0  0  0  0  0  0  0  0  0
    0.0788    0.4472    0.6811 C   0  0  0  0  0  0  0  0  0  0  0  0
   -1.1948    0.1945    1.2134 C   0  0  0  0  0  0  0  0  0  0  0  0
   -2.1443   -0.4759    0.4522 C   0  0  0  0  0  0  0  0  0  0  0  0
   -1.8118   -0.8887   -0.8375 C   0  0  0  0  0  0  0  0  0  0  0  0
   -0.3283   -0.9806   -2.3847 H   0  0  0  0  0  0  0  0  0  0  0  0
    1.3898    0.2314   -1.0104 H   0  0  0  0  0  0  0  0  0  0  0  0
   -1.4396    0.5233    2.2201 H   0  0  0  0  0  0  0  0  0  0  0  0
   -3.1346   -0.6847    0.8367 H   0  0  0  0  0  0  0  0  0  0  0  0
    4.3229    0.1617   -4.0522 N   0  0  0  0  0  0  0  0  0  0  0  0
    3.5411    0.1373   -3.2714 N   0  0  0  0  0  0  0  0  0  0  0  0
    1.0453    1.0980    1.3768 O   0  0  0  0  0  0  0  0  0  0  0  0
    0.7104    1.3434    2.2496 H   0  0  0  0  0  0  0  0  0  0  0  0
   -2.8106   -1.5934   -1.6395 N   0  0  0  0  0  0  0  0  0  0  0  0
   -3.9172   -1.7915   -1.1340 O   0  0  0  0  0  0  0  0  0  0  0  0
   -2.4886   -1.9486   -2.7747 O   0  0  0  0  0  0  0  0  0  0  0  0
  1  6  2  0  0  0  0
  1  2  1  0  0  0  0
  2  3  2  0  0  0  0
  3  4  1  0  0  0  0
  3 13  1  0  0  0  0
  4  9  1  0  0  0  0
  5 10  1  0  0  0  0
  5  4  2  0  0  0  0
  6  5  1  0  0  0  0
  7  1  1  0  0  0  0
  8  2  1  0  0  0  0
 11 12  3  0  0  0  0
 13 14  1  0  0  0  0
 15 16  2  0  0  0  0
 15  6  1  0  0  0  0
 17 15  2  0  0  0  0
M  END
