Coordinates from ORCA-job 4-NO2-Ph-N2-OH-B3LYPG-6-31G_dp-MTMO-d009-169-n900
 OpenBabel09051908013D

 17 16  0  0  0  0  0  0  0  0999 V2000
   -0.9017   -1.0172   -1.6568 C   0  0  0  0  0  0  0  0  0  0  0  0
    0.2884   -0.4515   -1.2241 C   0  0  0  0  0  0  0  0  0  0  0  0
    0.3482    0.1706    0.0329 C   0  0  0  0  0  0  0  0  0  0  0  0
   -0.7893    0.2227    0.8528 C   0  0  0  0  0  0  0  0  0  0  0  0
   -1.9821   -0.3434    0.4200 C   0  0  0  0  0  0  0  0  0  0  0  0
   -2.0271   -0.9583   -0.8306 C   0  0  0  0  0  0  0  0  0  0  0  0
   -0.9781   -1.5030   -2.6212 H   0  0  0  0  0  0  0  0  0  0  0  0
    1.1811   -0.4766   -1.8390 H   0  0  0  0  0  0  0  0  0  0  0  0
   -0.7387    0.7050    1.8256 H   0  0  0  0  0  0  0  0  0  0  0  0
   -2.8760   -0.3178    1.0307 H   0  0  0  0  0  0  0  0  0  0  0  0
    4.2428    1.5995   -1.4516 N   0  0  0  0  0  0  0  0  0  0  0  0
    3.7324    0.8455   -2.0776 N   0  0  0  0  0  0  0  0  0  0  0  0
    1.5399    0.7062    0.4024 O   0  0  0  0  0  0  0  0  0  0  0  0
    1.4626    1.1019    1.2809 H   0  0  0  0  0  0  0  0  0  0  0  0
   -3.2824   -1.5542   -1.2865 N   0  0  0  0  0  0  0  0  0  0  0  0
   -4.2574   -1.4826   -0.5360 O   0  0  0  0  0  0  0  0  0  0  0  0
   -3.2918   -2.0925   -2.3949 O   0  0  0  0  0  0  0  0  0  0  0  0
  1  2  2  0  0  0  0
  1  6  1  0  0  0  0
  2  3  1  0  0  0  0
  3 13  1  0  0  0  0
  3  4  2  0  0  0  0
  4  9  1  0  0  0  0
  5  4  1  0  0  0  0
  5 10  1  0  0  0  0
  6  5  2  0  0  0  0
  7  1  1  0  0  0  0
  8  2  1  0  0  0  0
 12 11  3  0  0  0  0
 13 14  1  0  0  0  0
 15  6  1  0  0  0  0
 15 16  2  0  0  0  0
 17 15  2  0  0  0  0
M  END
