Coordinates from ORCA-job 4-NO2-Ph-N2-OH-B3LYPG-6-31G_dp-MTMO-d009-169-n900
 OpenBabel09051908013D

 17 16  0  0  0  0  0  0  0  0999 V2000
    0.6321    0.5282   -0.1498 C   0  0  0  0  0  0  0  0  0  0  0  0
    0.4445    0.9478    1.1584 C   0  0  0  0  0  0  0  0  0  0  0  0
   -0.7362    0.6091    1.8380 C   0  0  0  0  0  0  0  0  0  0  0  0
   -1.7264   -0.1525    1.1987 C   0  0  0  0  0  0  0  0  0  0  0  0
   -1.5401   -0.5737   -0.1118 C   0  0  0  0  0  0  0  0  0  0  0  0
   -0.3626   -0.2291   -0.7742 C   0  0  0  0  0  0  0  0  0  0  0  0
    1.5322    0.7749   -0.6988 H   0  0  0  0  0  0  0  0  0  0  0  0
    1.1953    1.5362    1.6740 H   0  0  0  0  0  0  0  0  0  0  0  0
   -2.6391   -0.4141    1.7284 H   0  0  0  0  0  0  0  0  0  0  0  0
   -2.2876   -1.1617   -0.6294 H   0  0  0  0  0  0  0  0  0  0  0  0
   -0.1806   -2.6791   -7.4893 N   0  0  0  0  0  0  0  0  0  0  0  0
    0.2579   -3.4782   -6.8642 N   0  0  0  0  0  0  0  0  0  0  0  0
   -0.8633    1.0482    3.1153 O   0  0  0  0  0  0  0  0  0  0  0  0
   -1.7121    0.7597    3.4765 H   0  0  0  0  0  0  0  0  0  0  0  0
   -0.1658   -0.6713   -2.1540 N   0  0  0  0  0  0  0  0  0  0  0  0
   -1.0622   -1.3362   -2.6773 O   0  0  0  0  0  0  0  0  0  0  0  0
    0.8849   -0.3538   -2.7137 O   0  0  0  0  0  0  0  0  0  0  0  0
  1  2  1  0  0  0  0
  2  8  1  0  0  0  0
  2  3  2  0  0  0  0
  3 13  1  0  0  0  0
  4  9  1  0  0  0  0
  4  3  1  0  0  0  0
  5  4  2  0  0  0  0
  6  1  2  0  0  0  0
  6  5  1  0  0  0  0
  7  1  1  0  0  0  0
 10  5  1  0  0  0  0
 11 12  3  0  0  0  0
 13 14  1  0  0  0  0
 15  6  1  0  0  0  0
 16 15  2  0  0  0  0
 17 15  2  0  0  0  0
M  END
