Coordinates from ORCA-job 4-NO2-Ph-N2-OH-B3LYPG-6-31G_dp-MTMO-d009-169-n900
 OpenBabel09051908013D

 17 16  0  0  0  0  0  0  0  0999 V2000
    0.6325    0.5269   -0.1534 C   0  0  0  0  0  0  0  0  0  0  0  0
    0.4447    0.9462    1.1549 C   0  0  0  0  0  0  0  0  0  0  0  0
   -0.7360    0.6073    1.8343 C   0  0  0  0  0  0  0  0  0  0  0  0
   -1.7261   -0.1542    1.1947 C   0  0  0  0  0  0  0  0  0  0  0  0
   -1.5396   -0.5751   -0.1159 C   0  0  0  0  0  0  0  0  0  0  0  0
   -0.3621   -0.2304   -0.7781 C   0  0  0  0  0  0  0  0  0  0  0  0
    1.5326    0.7737   -0.7023 H   0  0  0  0  0  0  0  0  0  0  0  0
    1.1955    1.5346    1.6707 H   0  0  0  0  0  0  0  0  0  0  0  0
   -2.6388   -0.4160    1.7243 H   0  0  0  0  0  0  0  0  0  0  0  0
   -2.2870   -1.1631   -0.6336 H   0  0  0  0  0  0  0  0  0  0  0  0
   -0.1837   -2.6676   -7.4601 N   0  0  0  0  0  0  0  0  0  0  0  0
    0.2550   -3.4674   -6.8361 N   0  0  0  0  0  0  0  0  0  0  0  0
   -0.8632    1.0462    3.1116 O   0  0  0  0  0  0  0  0  0  0  0  0
   -1.7120    0.7575    3.4727 H   0  0  0  0  0  0  0  0  0  0  0  0
   -0.1651   -0.6723   -2.1579 N   0  0  0  0  0  0  0  0  0  0  0  0
   -1.0614   -1.3371   -2.6815 O   0  0  0  0  0  0  0  0  0  0  0  0
    0.8856   -0.3547   -2.7175 O   0  0  0  0  0  0  0  0  0  0  0  0
  1  2  1  0  0  0  0
  2  8  1  0  0  0  0
  2  3  2  0  0  0  0
  3 13  1  0  0  0  0
  4  9  1  0  0  0  0
  4  3  1  0  0  0  0
  5  4  2  0  0  0  0
  6  1  2  0  0  0  0
  6  5  1  0  0  0  0
  7  1  1  0  0  0  0
 10  5  1  0  0  0  0
 11 12  3  0  0  0  0
 13 14  1  0  0  0  0
 15  6  1  0  0  0  0
 16 15  2  0  0  0  0
 17 15  2  0  0  0  0
M  END
