Coordinates from ORCA-job 4-NO2-Ph-N2-OH-B3LYPG-6-31G_dp-MTMO-d009-169-n900
 OpenBabel09051908023D

 17 16  0  0  0  0  0  0  0  0999 V2000
    0.5889    0.7196    0.3558 C   0  0  0  0  0  0  0  0  0  0  0  0
    0.3985    1.1762    1.6510 C   0  0  0  0  0  0  0  0  0  0  0  0
   -0.7827    0.8553    2.3381 C   0  0  0  0  0  0  0  0  0  0  0  0
   -1.7707    0.0740    1.7194 C   0  0  0  0  0  0  0  0  0  0  0  0
   -1.5816   -0.3844    0.4219 C   0  0  0  0  0  0  0  0  0  0  0  0
   -0.4036   -0.0570   -0.2482 C   0  0  0  0  0  0  0  0  0  0  0  0
    1.4893    0.9518   -0.1990 H   0  0  0  0  0  0  0  0  0  0  0  0
    1.1475    1.7806    2.1507 H   0  0  0  0  0  0  0  0  0  0  0  0
   -2.6838   -0.1736    2.2552 H   0  0  0  0  0  0  0  0  0  0  0  0
   -2.3273   -0.9883   -0.0798 H   0  0  0  0  0  0  0  0  0  0  0  0
    0.1334   -4.2337  -11.3961 N   0  0  0  0  0  0  0  0  0  0  0  0
    0.5935   -4.9567  -10.6980 N   0  0  0  0  0  0  0  0  0  0  0  0
   -0.9129    1.3308    3.6020 O   0  0  0  0  0  0  0  0  0  0  0  0
   -1.7619    1.0512    3.9697 H   0  0  0  0  0  0  0  0  0  0  0  0
   -0.2040   -0.5379   -1.6146 N   0  0  0  0  0  0  0  0  0  0  0  0
   -1.0982   -1.2196   -2.1196 O   0  0  0  0  0  0  0  0  0  0  0  0
    0.8467   -0.2340   -2.1817 O   0  0  0  0  0  0  0  0  0  0  0  0
  1  2  1  0  0  0  0
  2  8  1  0  0  0  0
  2  3  2  0  0  0  0
  3 13  1  0  0  0  0
  4  9  1  0  0  0  0
  4  3  1  0  0  0  0
  5  4  2  0  0  0  0
  6  1  2  0  0  0  0
  6  5  1  0  0  0  0
  7  1  1  0  0  0  0
 10  5  1  0  0  0  0
 11 12  3  0  0  0  0
 13 14  1  0  0  0  0
 15  6  1  0  0  0  0
 16 15  2  0  0  0  0
 17 15  2  0  0  0  0
M  END
