Coordinates from ORCA-job 4-NO2-Ph-N2-OH-B3LYPG-6-31G_dp-MTMO-d009-169-n900
 OpenBabel09051908013D

 17 17  0  0  0  0  0  0  0  0999 V2000
   -1.0732   -1.6138   -1.2754 C   0  0  0  0  0  0  0  0  0  0  0  0
    0.1950   -1.1010   -1.3187 C   0  0  0  0  0  0  0  0  0  0  0  0
    0.5354    0.2240   -0.7243 C   0  0  0  0  0  0  0  0  0  0  0  0
   -0.6390    0.8942   -0.0945 C   0  0  0  0  0  0  0  0  0  0  0  0
   -1.8839    0.3254   -0.0871 C   0  0  0  0  0  0  0  0  0  0  0  0
   -2.1289   -0.9247   -0.6671 C   0  0  0  0  0  0  0  0  0  0  0  0
   -1.2714   -2.5814   -1.7235 H   0  0  0  0  0  0  0  0  0  0  0  0
    1.0220   -1.6244   -1.7843 H   0  0  0  0  0  0  0  0  0  0  0  0
   -0.4356    1.8621    0.3482 H   0  0  0  0  0  0  0  0  0  0  0  0
   -2.7079    0.8542    0.3799 H   0  0  0  0  0  0  0  0  0  0  0  0
    1.4429    0.6166   -0.7460 N   0  0  0  0  0  0  0  0  0  0  0  0
    2.5391    1.1344   -0.8456 N   0  0  0  0  0  0  0  0  0  0  0  0
    3.3253    0.7825    0.2733 O   0  0  0  0  0  0  0  0  0  0  0  0
    4.1598    1.2431    0.0883 H   0  0  0  0  0  0  0  0  0  0  0  0
   -3.4461   -1.4921   -0.6395 N   0  0  0  0  0  0  0  0  0  0  0  0
   -4.3476   -0.8456   -0.0875 O   0  0  0  0  0  0  0  0  0  0  0  0
   -3.6150   -2.5993   -1.1693 O   0  0  0  0  0  0  0  0  0  0  0  0
  1  6  1  0  0  0  0
  2  1  2  0  0  0  0
  2  3  1  0  0  0  0
  3  4  2  0  0  0  0
  4  5  1  0  0  0  0
  4  9  1  0  0  0  0
  5 10  1  0  0  0  0
  6 15  1  0  0  0  0
  6  5  2  0  0  0  0
  7  1  1  0  0  0  0
  8  2  1  0  0  0  0
 11  3  1  0  0  0  0
 12 11  1  0  0  0  0
 12 13  1  0  0  0  0
 14 13  1  0  0  0  0
 15 16  2  0  0  0  0
 17 15  2  0  0  0  0
M  RAD  2  11   2  12   2
M  END
