Coordinates from ORCA-job 4-NO2-Ph-N2-OH-B3LYPG-6-31G_dp-MTMO-d009-169-n900
 OpenBabel09051908013D

 17 17  0  0  0  0  0  0  0  0999 V2000
   -1.0240   -1.5008   -1.2738 C   0  0  0  0  0  0  0  0  0  0  0  0
    0.2224   -0.9145   -1.0933 C   0  0  0  0  0  0  0  0  0  0  0  0
    0.3242    0.2688   -0.3496 C   0  0  0  0  0  0  0  0  0  0  0  0
   -0.8066    0.8631    0.2153 C   0  0  0  0  0  0  0  0  0  0  0  0
   -2.0587    0.2815    0.0376 C   0  0  0  0  0  0  0  0  0  0  0  0
   -2.1459   -0.8932   -0.7060 C   0  0  0  0  0  0  0  0  0  0  0  0
   -1.1463   -2.4157   -1.8397 H   0  0  0  0  0  0  0  0  0  0  0  0
    1.1122   -1.3612   -1.5196 H   0  0  0  0  0  0  0  0  0  0  0  0
   -0.6864    1.7774    0.7853 H   0  0  0  0  0  0  0  0  0  0  0  0
   -2.9565    0.7148    0.4591 H   0  0  0  0  0  0  0  0  0  0  0  0
    1.5970    0.9901   -0.0814 N   0  0  0  0  0  0  0  0  0  0  0  0
    2.5611    0.4704   -0.6558 N   0  0  0  0  0  0  0  0  0  0  0  0
    3.7052    1.1925   -0.3541 O   0  0  0  0  0  0  0  0  0  0  0  0
    4.3889    0.7139   -0.8476 H   0  0  0  0  0  0  0  0  0  0  0  0
   -3.4650   -1.5168   -0.8996 N   0  0  0  0  0  0  0  0  0  0  0  0
   -4.4368   -0.9645   -0.3860 O   0  0  0  0  0  0  0  0  0  0  0  0
   -3.5138   -2.5514   -1.5639 O   0  0  0  0  0  0  0  0  0  0  0  0
  1  2  2  0  0  0  0
  1  6  1  0  0  0  0
  2  3  1  0  0  0  0
  3 11  1  0  0  0  0
  3  4  2  0  0  0  0
  4  9  1  0  0  0  0
  5  4  1  0  0  0  0
  5 10  1  0  0  0  0
  6  5  2  0  0  0  0
  7  1  1  0  0  0  0
  8  2  1  0  0  0  0
 12 13  1  0  0  0  0
 12 11  1  0  0  0  0
 14 13  1  0  0  0  0
 15  6  1  0  0  0  0
 15 16  2  0  0  0  0
 17 15  2  0  0  0  0
M  RAD  2  11   2  12   2
M  END
