Coordinates from ORCA-job 4-NO2-Ph-N2-OH-B3LYPG-6-31G_dp-MTMO-d009-169-n900
 OpenBabel09051908023D

 17 16  0  0  0  0  0  0  0  0999 V2000
    0.5748    0.7886    0.5352 C   0  0  0  0  0  0  0  0  0  0  0  0
    0.3816    1.2563    1.8260 C   0  0  0  0  0  0  0  0  0  0  0  0
   -0.8004    0.9399    2.5139 C   0  0  0  0  0  0  0  0  0  0  0  0
   -1.7863    0.1520    1.9003 C   0  0  0  0  0  0  0  0  0  0  0  0
   -1.5944   -0.3175    0.6072 C   0  0  0  0  0  0  0  0  0  0  0  0
   -0.4157    0.0055   -0.0637 C   0  0  0  0  0  0  0  0  0  0  0  0
    1.4759    1.0171   -0.0200 H   0  0  0  0  0  0  0  0  0  0  0  0
    1.1290    1.8660    2.3217 H   0  0  0  0  0  0  0  0  0  0  0  0
   -2.7001   -0.0920    2.4367 H   0  0  0  0  0  0  0  0  0  0  0  0
   -2.3385   -0.9267    0.1095 H   0  0  0  0  0  0  0  0  0  0  0  0
    0.2411   -4.7951  -12.7790 N   0  0  0  0  0  0  0  0  0  0  0  0
    0.7004   -5.4668  -12.0309 N   0  0  0  0  0  0  0  0  0  0  0  0
   -0.9334    1.4262    3.7733 O   0  0  0  0  0  0  0  0  0  0  0  0
   -1.7827    1.1487    4.1419 H   0  0  0  0  0  0  0  0  0  0  0  0
   -0.2131   -0.4869   -1.4255 N   0  0  0  0  0  0  0  0  0  0  0  0
   -1.1055   -1.1742   -1.9261 O   0  0  0  0  0  0  0  0  0  0  0  0
    0.8382   -0.1865   -1.9935 O   0  0  0  0  0  0  0  0  0  0  0  0
  1  2  1  0  0  0  0
  2  8  1  0  0  0  0
  2  3  2  0  0  0  0
  3 13  1  0  0  0  0
  4  9  1  0  0  0  0
  4  3  1  0  0  0  0
  5  4  2  0  0  0  0
  6  1  2  0  0  0  0
  6  5  1  0  0  0  0
  7  1  1  0  0  0  0
 10  5  1  0  0  0  0
 11 12  3  0  0  0  0
 13 14  1  0  0  0  0
 15  6  1  0  0  0  0
 16 15  2  0  0  0  0
 17 15  2  0  0  0  0
M  END
