Coordinates from ORCA-job 4-NO2-Ph-N2-OH-B3LYPG-6-31G_dp-MTMO-d009-169-n900
 OpenBabel09051908013D

 17 16  0  0  0  0  0  0  0  0999 V2000
    0.6155    0.5941    0.0254 C   0  0  0  0  0  0  0  0  0  0  0  0
    0.4297    1.0265    1.3296 C   0  0  0  0  0  0  0  0  0  0  0  0
   -0.7503    0.6951    2.0138 C   0  0  0  0  0  0  0  0  0  0  0  0
   -1.7417   -0.0722    1.3833 C   0  0  0  0  0  0  0  0  0  0  0  0
   -1.5572   -0.5063    0.0767 C   0  0  0  0  0  0  0  0  0  0  0  0
   -0.3803   -0.1688   -0.5904 C   0  0  0  0  0  0  0  0  0  0  0  0
    1.5150    0.8348   -0.5273 H   0  0  0  0  0  0  0  0  0  0  0  0
    1.1815    1.6196    1.8385 H   0  0  0  0  0  0  0  0  0  0  0  0
   -2.6538   -0.3281    1.9167 H   0  0  0  0  0  0  0  0  0  0  0  0
   -2.3056   -1.0990   -0.4342 H   0  0  0  0  0  0  0  0  0  0  0  0
   -0.0603   -3.2230   -8.8597 N   0  0  0  0  0  0  0  0  0  0  0  0
    0.3823   -3.9966   -8.2060 N   0  0  0  0  0  0  0  0  0  0  0  0
   -0.8757    1.1468    3.2869 O   0  0  0  0  0  0  0  0  0  0  0  0
   -1.7243    0.8622    3.6518 H   0  0  0  0  0  0  0  0  0  0  0  0
   -0.1855   -0.6243   -1.9662 N   0  0  0  0  0  0  0  0  0  0  0  0
   -1.0828   -1.2940   -2.4817 O   0  0  0  0  0  0  0  0  0  0  0  0
    0.8644   -0.3124   -2.5303 O   0  0  0  0  0  0  0  0  0  0  0  0
  1  2  1  0  0  0  0
  2  8  1  0  0  0  0
  2  3  2  0  0  0  0
  3 13  1  0  0  0  0
  4  9  1  0  0  0  0
  4  3  1  0  0  0  0
  5  4  2  0  0  0  0
  6  1  2  0  0  0  0
  6  5  1  0  0  0  0
  7  1  1  0  0  0  0
 10  5  1  0  0  0  0
 11 12  3  0  0  0  0
 13 14  1  0  0  0  0
 15  6  1  0  0  0  0
 16 15  2  0  0  0  0
 17 15  2  0  0  0  0
M  END
