Coordinates from ORCA-job 4-NO2-Ph-N2-OH-B3LYPG-6-31G_dp-MTMO-d009-169-n900
 OpenBabel09051908013D

 17 16  0  0  0  0  0  0  0  0999 V2000
   -0.5423   -0.6385   -1.3718 C   0  0  0  0  0  0  0  0  0  0  0  0
    0.4001    0.0309   -0.6055 C   0  0  0  0  0  0  0  0  0  0  0  0
    0.0723    0.4500    0.6938 C   0  0  0  0  0  0  0  0  0  0  0  0
   -1.2033    0.1938    1.2198 C   0  0  0  0  0  0  0  0  0  0  0  0
   -2.1480   -0.4770    0.4530 C   0  0  0  0  0  0  0  0  0  0  0  0
   -1.8087   -0.8868   -0.8359 C   0  0  0  0  0  0  0  0  0  0  0  0
   -0.3180   -0.9730   -2.3765 H   0  0  0  0  0  0  0  0  0  0  0  0
    1.3913    0.2399   -0.9922 H   0  0  0  0  0  0  0  0  0  0  0  0
   -1.4533    0.5202    2.2259 H   0  0  0  0  0  0  0  0  0  0  0  0
   -3.1395   -0.6885    0.8326 H   0  0  0  0  0  0  0  0  0  0  0  0
    4.3256    0.1431   -4.1016 N   0  0  0  0  0  0  0  0  0  0  0  0
    3.5534    0.1245   -3.3111 N   0  0  0  0  0  0  0  0  0  0  0  0
    1.0344    1.1013    1.3952 O   0  0  0  0  0  0  0  0  0  0  0  0
    0.6951    1.3443    2.2669 H   0  0  0  0  0  0  0  0  0  0  0  0
   -2.8025   -1.5920   -1.6438 N   0  0  0  0  0  0  0  0  0  0  0  0
   -3.9110   -1.7932   -1.1437 O   0  0  0  0  0  0  0  0  0  0  0  0
   -2.4746   -1.9444   -2.7782 O   0  0  0  0  0  0  0  0  0  0  0  0
  1  6  2  0  0  0  0
  1  2  1  0  0  0  0
  2  3  2  0  0  0  0
  3  4  1  0  0  0  0
  3 13  1  0  0  0  0
  4  9  1  0  0  0  0
  5 10  1  0  0  0  0
  5  4  2  0  0  0  0
  6  5  1  0  0  0  0
  7  1  1  0  0  0  0
  8  2  1  0  0  0  0
 11 12  3  0  0  0  0
 13 14  1  0  0  0  0
 15 16  2  0  0  0  0
 15  6  1  0  0  0  0
 17 15  2  0  0  0  0
M  END
