Coordinates from ORCA-job 4-NO2-Ph-N2-OH-B3LYPG-6-31G_dp-MTMO-d009-169-n900
 OpenBabel09051908023D

 17 16  0  0  0  0  0  0  0  0999 V2000
    0.5786    0.7696    0.4862 C   0  0  0  0  0  0  0  0  0  0  0  0
    0.3862    1.2345    1.7782 C   0  0  0  0  0  0  0  0  0  0  0  0
   -0.7956    0.9170    2.4658 C   0  0  0  0  0  0  0  0  0  0  0  0
   -1.7821    0.1308    1.8510 C   0  0  0  0  0  0  0  0  0  0  0  0
   -1.5909   -0.3358    0.5567 C   0  0  0  0  0  0  0  0  0  0  0  0
   -0.4123   -0.0118   -0.1139 C   0  0  0  0  0  0  0  0  0  0  0  0
    1.4796    0.9990   -0.0689 H   0  0  0  0  0  0  0  0  0  0  0  0
    1.1341    1.8428    2.2749 H   0  0  0  0  0  0  0  0  0  0  0  0
   -2.6957   -0.1140    2.3872 H   0  0  0  0  0  0  0  0  0  0  0  0
   -2.3355   -0.9436    0.0580 H   0  0  0  0  0  0  0  0  0  0  0  0
    0.2099   -4.6412  -12.4006 N   0  0  0  0  0  0  0  0  0  0  0  0
    0.6730   -5.3278  -11.6686 N   0  0  0  0  0  0  0  0  0  0  0  0
   -0.9279    1.4006    3.7264 O   0  0  0  0  0  0  0  0  0  0  0  0
   -1.7772    1.1226    4.0948 H   0  0  0  0  0  0  0  0  0  0  0  0
   -0.2105   -0.5013   -1.4770 N   0  0  0  0  0  0  0  0  0  0  0  0
   -1.1034   -1.1871   -1.9787 O   0  0  0  0  0  0  0  0  0  0  0  0
    0.8406   -0.2000   -2.0447 O   0  0  0  0  0  0  0  0  0  0  0  0
  1  2  1  0  0  0  0
  2  8  1  0  0  0  0
  2  3  2  0  0  0  0
  3 13  1  0  0  0  0
  4  9  1  0  0  0  0
  4  3  1  0  0  0  0
  5  4  2  0  0  0  0
  6  1  2  0  0  0  0
  6  5  1  0  0  0  0
  7  1  1  0  0  0  0
 10  5  1  0  0  0  0
 11 12  3  0  0  0  0
 13 14  1  0  0  0  0
 15  6  1  0  0  0  0
 16 15  2  0  0  0  0
 17 15  2  0  0  0  0
M  END
