Coordinates from ORCA-job 4-NO2-Ph-N2-OH-B3LYPG-6-31G_dp-MTMO-d009-169-n900
 OpenBabel09051908013D

 17 16  0  0  0  0  0  0  0  0999 V2000
    0.6073    0.6313    0.1238 C   0  0  0  0  0  0  0  0  0  0  0  0
    0.4206    1.0713    1.4254 C   0  0  0  0  0  0  0  0  0  0  0  0
   -0.7596    0.7433    2.1110 C   0  0  0  0  0  0  0  0  0  0  0  0
   -1.7503   -0.0282    1.4844 C   0  0  0  0  0  0  0  0  0  0  0  0
   -1.5649   -0.4698    0.1805 C   0  0  0  0  0  0  0  0  0  0  0  0
   -0.3879   -0.1356   -0.4880 C   0  0  0  0  0  0  0  0  0  0  0  0
    1.5069    0.8693   -0.4298 H   0  0  0  0  0  0  0  0  0  0  0  0
    1.1718    1.6677    1.9313 H   0  0  0  0  0  0  0  0  0  0  0  0
   -2.6626   -0.2814    2.0189 H   0  0  0  0  0  0  0  0  0  0  0  0
   -2.3127   -1.0658   -0.3274 H   0  0  0  0  0  0  0  0  0  0  0  0
   -0.0003   -3.5234   -9.6180 N   0  0  0  0  0  0  0  0  0  0  0  0
    0.4464   -4.2852   -8.9533 N   0  0  0  0  0  0  0  0  0  0  0  0
   -0.8860    1.2023    3.3813 O   0  0  0  0  0  0  0  0  0  0  0  0
   -1.7347    0.9194    3.7473 H   0  0  0  0  0  0  0  0  0  0  0  0
   -0.1922   -0.5989   -1.8610 N   0  0  0  0  0  0  0  0  0  0  0  0
   -1.0888   -1.2722   -2.3730 O   0  0  0  0  0  0  0  0  0  0  0  0
    0.8579   -0.2896   -2.4264 O   0  0  0  0  0  0  0  0  0  0  0  0
  1  2  1  0  0  0  0
  2  8  1  0  0  0  0
  2  3  2  0  0  0  0
  3 13  1  0  0  0  0
  4  9  1  0  0  0  0
  4  3  1  0  0  0  0
  5  4  2  0  0  0  0
  6  1  2  0  0  0  0
  6  5  1  0  0  0  0
  7  1  1  0  0  0  0
 10  5  1  0  0  0  0
 11 12  3  0  0  0  0
 13 14  1  0  0  0  0
 15  6  1  0  0  0  0
 16 15  2  0  0  0  0
 17 15  2  0  0  0  0
M  END
