Coordinates from ORCA-job 4-NO2-Ph-N2-OH-B3LYPG-6-31G_dp-MTMO-d009-169-n900
 OpenBabel09051908013D

 17 16  0  0  0  0  0  0  0  0999 V2000
    0.6052    0.4041   -0.3753 C   0  0  0  0  0  0  0  0  0  0  0  0
    0.5026    0.8113    0.9464 C   0  0  0  0  0  0  0  0  0  0  0  0
   -0.6578    0.5177    1.6804 C   0  0  0  0  0  0  0  0  0  0  0  0
   -1.7129   -0.1873    1.0806 C   0  0  0  0  0  0  0  0  0  0  0  0
   -1.6118   -0.5961   -0.2433 C   0  0  0  0  0  0  0  0  0  0  0  0
   -0.4537   -0.2963   -0.9599 C   0  0  0  0  0  0  0  0  0  0  0  0
    1.4877    0.6175   -0.9654 H   0  0  0  0  0  0  0  0  0  0  0  0
    1.3052    1.3561    1.4309 H   0  0  0  0  0  0  0  0  0  0  0  0
   -2.6095   -0.4148    1.6520 H   0  0  0  0  0  0  0  0  0  0  0  0
   -2.4114   -1.1408   -0.7297 H   0  0  0  0  0  0  0  0  0  0  0  0
    0.0947   -2.3304   -6.3871 N   0  0  0  0  0  0  0  0  0  0  0  0
    0.3349   -2.7115   -5.3777 N   0  0  0  0  0  0  0  0  0  0  0  0
   -0.7010    0.9419    2.9680 O   0  0  0  0  0  0  0  0  0  0  0  0
   -1.5432    0.6863    3.3676 H   0  0  0  0  0  0  0  0  0  0  0  0
   -0.3470   -0.7231   -2.3547 N   0  0  0  0  0  0  0  0  0  0  0  0
   -1.2987   -1.3360   -2.8428 O   0  0  0  0  0  0  0  0  0  0  0  0
    0.6876   -0.4440   -2.9631 O   0  0  0  0  0  0  0  0  0  0  0  0
  1  2  1  0  0  0  0
  2  8  1  0  0  0  0
  2  3  2  0  0  0  0
  3 13  1  0  0  0  0
  4  9  1  0  0  0  0
  4  3  1  0  0  0  0
  5  4  2  0  0  0  0
  6  1  2  0  0  0  0
  6  5  1  0  0  0  0
  7  1  1  0  0  0  0
 10  5  1  0  0  0  0
 11 12  3  0  0  0  0
 13 14  1  0  0  0  0
 15  6  1  0  0  0  0
 16 15  2  0  0  0  0
 17 15  2  0  0  0  0
M  END
