Coordinates from ORCA-job 4-NO2-Ph-N2-OH-B3LYPG-6-31G_dp-MTMO-d009-169-n900
 OpenBabel09051908013D

 17 16  0  0  0  0  0  0  0  0999 V2000
   -0.5573   -0.5917   -1.2537 C   0  0  0  0  0  0  0  0  0  0  0  0
    0.3382    0.0813   -0.4362 C   0  0  0  0  0  0  0  0  0  0  0  0
   -0.0515    0.4702    0.8553 C   0  0  0  0  0  0  0  0  0  0  0  0
   -1.3429    0.1806    1.3219 C   0  0  0  0  0  0  0  0  0  0  0  0
   -2.2411   -0.4937    0.5039 C   0  0  0  0  0  0  0  0  0  0  0  0
   -1.8401   -0.8737   -0.7764 C   0  0  0  0  0  0  0  0  0  0  0  0
   -0.2845   -0.9037   -2.2537 H   0  0  0  0  0  0  0  0  0  0  0  0
    1.3408    0.3171   -0.7745 H   0  0  0  0  0  0  0  0  0  0  0  0
   -1.6415    0.4838    2.3220 H   0  0  0  0  0  0  0  0  0  0  0  0
   -3.2433   -0.7304    0.8380 H   0  0  0  0  0  0  0  0  0  0  0  0
    4.8268   -0.0001   -4.8727 N   0  0  0  0  0  0  0  0  0  0  0  0
    4.1076    0.0489   -4.0348 N   0  0  0  0  0  0  0  0  0  0  0  0
    0.8678    1.1261    1.6078 O   0  0  0  0  0  0  0  0  0  0  0  0
    0.4886    1.3455    2.4693 H   0  0  0  0  0  0  0  0  0  0  0  0
   -2.7849   -1.5830   -1.6378 N   0  0  0  0  0  0  0  0  0  0  0  0
   -3.9090   -1.8147   -1.1883 O   0  0  0  0  0  0  0  0  0  0  0  0
   -2.4027   -1.9081   -2.7633 O   0  0  0  0  0  0  0  0  0  0  0  0
  1  6  2  0  0  0  0
  1  2  1  0  0  0  0
  2  3  2  0  0  0  0
  3  4  1  0  0  0  0
  3 13  1  0  0  0  0
  4  9  1  0  0  0  0
  5 10  1  0  0  0  0
  5  4  2  0  0  0  0
  6  5  1  0  0  0  0
  7  1  1  0  0  0  0
  8  2  1  0  0  0  0
 11 12  3  0  0  0  0
 13 14  1  0  0  0  0
 15 16  2  0  0  0  0
 15  6  1  0  0  0  0
 17 15  2  0  0  0  0
M  END
