Coordinates from ORCA-job 4-NO2-Ph-N2-OH-B3LYPG-6-31G_dp-MTMO-d009-169-n900
 OpenBabel09051908013D

 17 16  0  0  0  0  0  0  0  0999 V2000
    0.6105    0.6162    0.0840 C   0  0  0  0  0  0  0  0  0  0  0  0
    0.4243    1.0531    1.3867 C   0  0  0  0  0  0  0  0  0  0  0  0
   -0.7558    0.7238    2.0718 C   0  0  0  0  0  0  0  0  0  0  0  0
   -1.7468   -0.0460    1.4436 C   0  0  0  0  0  0  0  0  0  0  0  0
   -1.5619   -0.4845    0.1386 C   0  0  0  0  0  0  0  0  0  0  0  0
   -0.3849   -0.1490   -0.5294 C   0  0  0  0  0  0  0  0  0  0  0  0
    1.5101    0.8553   -0.4693 H   0  0  0  0  0  0  0  0  0  0  0  0
    1.1758    1.6482    1.8937 H   0  0  0  0  0  0  0  0  0  0  0  0
   -2.6590   -0.3002    1.9778 H   0  0  0  0  0  0  0  0  0  0  0  0
   -2.3100   -1.0791   -0.3705 H   0  0  0  0  0  0  0  0  0  0  0  0
   -0.0242   -3.4020   -9.3118 N   0  0  0  0  0  0  0  0  0  0  0  0
    0.4207   -4.1686   -8.6515 N   0  0  0  0  0  0  0  0  0  0  0  0
   -0.8817    1.1799    3.3432 O   0  0  0  0  0  0  0  0  0  0  0  0
   -1.7303    0.8963    3.7088 H   0  0  0  0  0  0  0  0  0  0  0  0
   -0.1897   -0.6092   -1.9035 N   0  0  0  0  0  0  0  0  0  0  0  0
   -1.0866   -1.2810   -2.4169 O   0  0  0  0  0  0  0  0  0  0  0  0
    0.8603   -0.2989   -2.4685 O   0  0  0  0  0  0  0  0  0  0  0  0
  1  2  1  0  0  0  0
  2  8  1  0  0  0  0
  2  3  2  0  0  0  0
  3 13  1  0  0  0  0
  4  9  1  0  0  0  0
  4  3  1  0  0  0  0
  5  4  2  0  0  0  0
  6  1  2  0  0  0  0
  6  5  1  0  0  0  0
  7  1  1  0  0  0  0
 10  5  1  0  0  0  0
 11 12  3  0  0  0  0
 13 14  1  0  0  0  0
 15  6  1  0  0  0  0
 16 15  2  0  0  0  0
 17 15  2  0  0  0  0
M  END
