Coordinates from ORCA-job 4-NO2-Ph-N2-OH-B3LYPG-6-31G_dp-MTMO-d009-169-n900
 OpenBabel09051908013D

 17 16  0  0  0  0  0  0  0  0999 V2000
    0.6022    0.4190   -0.3087 C   0  0  0  0  0  0  0  0  0  0  0  0
    0.4920    0.8425    1.0073 C   0  0  0  0  0  0  0  0  0  0  0  0
   -0.6713    0.5556    1.7392 C   0  0  0  0  0  0  0  0  0  0  0  0
   -1.7218   -0.1590    1.1427 C   0  0  0  0  0  0  0  0  0  0  0  0
   -1.6131   -0.5842   -0.1755 C   0  0  0  0  0  0  0  0  0  0  0  0
   -0.4520   -0.2910   -0.8900 C   0  0  0  0  0  0  0  0  0  0  0  0
    1.4872    0.6268   -0.8970 H   0  0  0  0  0  0  0  0  0  0  0  0
    1.2911    1.3950    1.4890 H   0  0  0  0  0  0  0  0  0  0  0  0
   -2.6209   -0.3813    1.7123 H   0  0  0  0  0  0  0  0  0  0  0  0
   -2.4090   -1.1366   -0.6592 H   0  0  0  0  0  0  0  0  0  0  0  0
    0.1628   -2.5227   -6.9025 N   0  0  0  0  0  0  0  0  0  0  0  0
    0.3327   -2.7931   -5.8442 N   0  0  0  0  0  0  0  0  0  0  0  0
   -0.7221    0.9957    3.0213 O   0  0  0  0  0  0  0  0  0  0  0  0
   -1.5659    0.7431    3.4195 H   0  0  0  0  0  0  0  0  0  0  0  0
   -0.3369   -0.7357   -2.2789 N   0  0  0  0  0  0  0  0  0  0  0  0
   -1.2845   -1.3572   -2.7637 O   0  0  0  0  0  0  0  0  0  0  0  0
    0.7006   -0.4625   -2.8848 O   0  0  0  0  0  0  0  0  0  0  0  0
  1  2  1  0  0  0  0
  2  8  1  0  0  0  0
  2  3  2  0  0  0  0
  3 13  1  0  0  0  0
  4  9  1  0  0  0  0
  4  3  1  0  0  0  0
  5  4  2  0  0  0  0
  6  1  2  0  0  0  0
  6  5  1  0  0  0  0
  7  1  1  0  0  0  0
 10  5  1  0  0  0  0
 11 12  3  0  0  0  0
 13 14  1  0  0  0  0
 15  6  1  0  0  0  0
 16 15  2  0  0  0  0
 17 15  2  0  0  0  0
M  END
