Coordinates from ORCA-job 4-NO2-Ph-N2-OH-B3LYPG-6-31G_dp-MTMO-d009-169-n900
 OpenBabel09051908013D

 17 16  0  0  0  0  0  0  0  0999 V2000
   -0.9123   -0.9664   -1.6566 C   0  0  0  0  0  0  0  0  0  0  0  0
    0.2589   -0.3699   -1.2140 C   0  0  0  0  0  0  0  0  0  0  0  0
    0.3015    0.2230    0.0577 C   0  0  0  0  0  0  0  0  0  0  0  0
   -0.8338    0.2151    0.8823 C   0  0  0  0  0  0  0  0  0  0  0  0
   -2.0077   -0.3820    0.4395 C   0  0  0  0  0  0  0  0  0  0  0  0
   -2.0360   -0.9672   -0.8258 C   0  0  0  0  0  0  0  0  0  0  0  0
   -0.9756   -1.4313   -2.6323 H   0  0  0  0  0  0  0  0  0  0  0  0
    1.1504   -0.3481   -1.8306 H   0  0  0  0  0  0  0  0  0  0  0  0
   -0.7961    0.6751    1.8665 H   0  0  0  0  0  0  0  0  0  0  0  0
   -2.8995   -0.4031    1.0534 H   0  0  0  0  0  0  0  0  0  0  0  0
    4.5877    1.4291   -1.6802 N   0  0  0  0  0  0  0  0  0  0  0  0
    3.7543    0.8048   -2.0502 N   0  0  0  0  0  0  0  0  0  0  0  0
    1.4752    0.7916    0.4359 O   0  0  0  0  0  0  0  0  0  0  0  0
    1.3873    1.1618    1.3244 H   0  0  0  0  0  0  0  0  0  0  0  0
   -3.2714   -1.5953   -1.2923 N   0  0  0  0  0  0  0  0  0  0  0  0
   -4.2459   -1.5751   -0.5379 O   0  0  0  0  0  0  0  0  0  0  0  0
   -3.2660   -2.1076   -2.4131 O   0  0  0  0  0  0  0  0  0  0  0  0
  1  2  2  0  0  0  0
  1  6  1  0  0  0  0
  2  3  1  0  0  0  0
  3 13  1  0  0  0  0
  3  4  2  0  0  0  0
  4  9  1  0  0  0  0
  5  4  1  0  0  0  0
  5 10  1  0  0  0  0
  6  5  2  0  0  0  0
  7  1  1  0  0  0  0
  8  2  1  0  0  0  0
 12 11  3  0  0  0  0
 13 14  1  0  0  0  0
 15  6  1  0  0  0  0
 15 16  2  0  0  0  0
 17 15  2  0  0  0  0
M  END
