Coordinates from ORCA-job 4-NO2-Ph-N2-OH-B3LYPG-6-31G_dp-MTMO-d009-169-n900
 OpenBabel09051908013D

 17 15  0  0  0  0  0  0  0  0999 V2000
   -0.9108   -1.0886   -1.0464 C   0  0  0  0  0  0  0  0  0  0  0  0
    0.0558   -0.1613   -0.6120 C   0  0  0  0  0  0  0  0  0  0  0  0
   -0.4505    0.8504    0.1341 C   0  0  0  0  0  0  0  0  0  0  0  0
   -1.7227    1.1325    0.5402 C   0  0  0  0  0  0  0  0  0  0  0  0
   -2.6710    0.1934    0.0959 C   0  0  0  0  0  0  0  0  0  0  0  0
   -2.2430   -0.8858   -0.6810 C   0  0  0  0  0  0  0  0  0  0  0  0
   -0.6389   -1.9462   -1.6515 H   0  0  0  0  0  0  0  0  0  0  0  0
    1.1138   -0.2667   -0.8661 H   0  0  0  0  0  0  0  0  0  0  0  0
   -2.0072    1.9877    1.1444 H   0  0  0  0  0  0  0  0  0  0  0  0
   -3.7211    0.2945    0.3467 H   0  0  0  0  0  0  0  0  0  0  0  0
    3.1737    1.6418   -0.0005 N   0  0  0  0  0  0  0  0  0  0  0  0
    3.0906    0.6935   -0.5837 N   0  0  0  0  0  0  0  0  0  0  0  0
    4.7948   -0.0961   -1.3710 O   0  0  0  0  0  0  0  0  0  0  0  0
    4.3360   -0.8661   -1.7513 H   0  0  0  0  0  0  0  0  0  0  0  0
   -3.2517   -1.8603   -1.1396 N   0  0  0  0  0  0  0  0  0  0  0  0
   -4.4196   -1.6625   -0.8125 O   0  0  0  0  0  0  0  0  0  0  0  0
   -2.8574   -2.8054   -1.8187 O   0  0  0  0  0  0  0  0  0  0  0  0
  1  6  2  0  0  0  0
  1  2  1  0  0  0  0
  2  3  2  0  0  0  0
  3  4  1  0  0  0  0
  4  9  1  0  0  0  0
  5 10  1  0  0  0  0
  5  4  2  0  0  0  0
  6  5  1  0  0  0  0
  7  1  1  0  0  0  0
  8  2  1  0  0  0  0
 12 11  3  0  0  0  0
 14 13  1  0  0  0  0
 15 16  2  0  0  0  0
 15  6  1  0  0  0  0
 17 15  2  0  0  0  0
M  RAD  2   3   2  13   2
M  END
