Coordinates from ORCA-job 4-NO2-Ph-N2-OH-B3LYPG-6-31G_dp-MTMO-d009-169-n900
 OpenBabel09051908013D

 17 17  0  0  0  0  0  0  0  0999 V2000
   -1.0386   -1.4946   -1.2755 C   0  0  0  0  0  0  0  0  0  0  0  0
    0.2025   -0.8880   -1.0904 C   0  0  0  0  0  0  0  0  0  0  0  0
    0.2467    0.2797   -0.3445 C   0  0  0  0  0  0  0  0  0  0  0  0
   -0.8637    0.8783    0.2273 C   0  0  0  0  0  0  0  0  0  0  0  0
   -2.1060    0.2717    0.0420 C   0  0  0  0  0  0  0  0  0  0  0  0
   -2.1681   -0.9035   -0.7064 C   0  0  0  0  0  0  0  0  0  0  0  0
   -1.1478   -2.4089   -1.8452 H   0  0  0  0  0  0  0  0  0  0  0  0
    1.1093   -1.3060   -1.5111 H   0  0  0  0  0  0  0  0  0  0  0  0
   -0.7554    1.7934    0.7980 H   0  0  0  0  0  0  0  0  0  0  0  0
   -3.0143    0.6863    0.4601 H   0  0  0  0  0  0  0  0  0  0  0  0
    1.7319    1.1276   -0.0432 N   0  0  0  0  0  0  0  0  0  0  0  0
    2.6207    0.5083   -0.6178 N   0  0  0  0  0  0  0  0  0  0  0  0
    3.8418    1.1570   -0.4025 O   0  0  0  0  0  0  0  0  0  0  0  0
    4.4588    0.5924   -0.8928 H   0  0  0  0  0  0  0  0  0  0  0  0
   -3.4782   -1.5473   -0.9056 N   0  0  0  0  0  0  0  0  0  0  0  0
   -4.4595   -1.0113   -0.3933 O   0  0  0  0  0  0  0  0  0  0  0  0
   -3.5092   -2.5806   -1.5724 O   0  0  0  0  0  0  0  0  0  0  0  0
  1  2  2  0  0  0  0
  1  6  1  0  0  0  0
  2  3  1  0  0  0  0
  3 11  1  0  0  0  0
  3  4  2  0  0  0  0
  4  9  1  0  0  0  0
  5  4  1  0  0  0  0
  5 10  1  0  0  0  0
  6  5  2  0  0  0  0
  7  1  1  0  0  0  0
  8  2  1  0  0  0  0
 12 13  1  0  0  0  0
 12 11  1  0  0  0  0
 14 13  1  0  0  0  0
 15  6  1  0  0  0  0
 15 16  2  0  0  0  0
 17 15  2  0  0  0  0
M  RAD  2  11   2  12   2
M  END
