Coordinates from ORCA-job 4-NO2-Ph-N2-OH-B3LYPG-6-31G_dp-MTMO-d009-169-n900
 OpenBabel09051908013D

 17 16  0  0  0  0  0  0  0  0999 V2000
    0.6241    0.5580   -0.0704 C   0  0  0  0  0  0  0  0  0  0  0  0
    0.4381    0.9832    1.2362 C   0  0  0  0  0  0  0  0  0  0  0  0
   -0.7420    0.6481    1.9185 C   0  0  0  0  0  0  0  0  0  0  0  0
   -1.7333   -0.1157    1.2835 C   0  0  0  0  0  0  0  0  0  0  0  0
   -1.5486   -0.5425   -0.0254 C   0  0  0  0  0  0  0  0  0  0  0  0
   -0.3717   -0.2014   -0.6905 C   0  0  0  0  0  0  0  0  0  0  0  0
    1.5237    0.8018   -0.6215 H   0  0  0  0  0  0  0  0  0  0  0  0
    1.1898    1.5734    1.7485 H   0  0  0  0  0  0  0  0  0  0  0  0
   -2.6456   -0.3745    1.8153 H   0  0  0  0  0  0  0  0  0  0  0  0
   -2.2970   -1.1323   -0.5398 H   0  0  0  0  0  0  0  0  0  0  0  0
   -0.1224   -2.9283   -8.1161 N   0  0  0  0  0  0  0  0  0  0  0  0
    0.3165   -3.7141   -7.4747 N   0  0  0  0  0  0  0  0  0  0  0  0
   -0.8676    1.0927    3.1939 O   0  0  0  0  0  0  0  0  0  0  0  0
   -1.7162    0.8062    3.5572 H   0  0  0  0  0  0  0  0  0  0  0  0
   -0.1766   -0.6494   -2.0687 N   0  0  0  0  0  0  0  0  0  0  0  0
   -1.0739   -1.3161   -2.5881 O   0  0  0  0  0  0  0  0  0  0  0  0
    0.8735   -0.3346   -2.6310 O   0  0  0  0  0  0  0  0  0  0  0  0
  1  2  1  0  0  0  0
  2  8  1  0  0  0  0
  2  3  2  0  0  0  0
  3 13  1  0  0  0  0
  4  9  1  0  0  0  0
  4  3  1  0  0  0  0
  5  4  2  0  0  0  0
  6  1  2  0  0  0  0
  6  5  1  0  0  0  0
  7  1  1  0  0  0  0
 10  5  1  0  0  0  0
 11 12  3  0  0  0  0
 13 14  1  0  0  0  0
 15  6  1  0  0  0  0
 16 15  2  0  0  0  0
 17 15  2  0  0  0  0
M  END
