Coordinates from ORCA-job 4-NO2-Ph-N2-OH-B3LYPG-6-31G_dp-MTMO-d009-169-n900
 OpenBabel09051908013D

 17 16  0  0  0  0  0  0  0  0999 V2000
    0.6002    0.4290   -0.2833 C   0  0  0  0  0  0  0  0  0  0  0  0
    0.4885    0.8537    1.0320 C   0  0  0  0  0  0  0  0  0  0  0  0
   -0.6754    0.5664    1.7627 C   0  0  0  0  0  0  0  0  0  0  0  0
   -1.7249   -0.1495    1.1662 C   0  0  0  0  0  0  0  0  0  0  0  0
   -1.6146   -0.5757   -0.1515 C   0  0  0  0  0  0  0  0  0  0  0  0
   -0.4529   -0.2822   -0.8647 C   0  0  0  0  0  0  0  0  0  0  0  0
    1.4856    0.6368   -0.8711 H   0  0  0  0  0  0  0  0  0  0  0  0
    1.2865    1.4073    1.5142 H   0  0  0  0  0  0  0  0  0  0  0  0
   -2.6244   -0.3718    1.7353 H   0  0  0  0  0  0  0  0  0  0  0  0
   -2.4094   -1.1292   -0.6356 H   0  0  0  0  0  0  0  0  0  0  0  0
    0.1888   -2.6024   -7.0905 N   0  0  0  0  0  0  0  0  0  0  0  0
    0.3393   -2.8553   -6.0250 N   0  0  0  0  0  0  0  0  0  0  0  0
   -0.7278    1.0077    3.0444 O   0  0  0  0  0  0  0  0  0  0  0  0
   -1.5719    0.7548    3.4419 H   0  0  0  0  0  0  0  0  0  0  0  0
   -0.3360   -0.7285   -2.2528 N   0  0  0  0  0  0  0  0  0  0  0  0
   -1.2829   -1.3511   -2.7377 O   0  0  0  0  0  0  0  0  0  0  0  0
    0.7022   -0.4554   -2.8575 O   0  0  0  0  0  0  0  0  0  0  0  0
  1  2  1  0  0  0  0
  2  8  1  0  0  0  0
  2  3  2  0  0  0  0
  3 13  1  0  0  0  0
  4  9  1  0  0  0  0
  4  3  1  0  0  0  0
  5  4  2  0  0  0  0
  6  1  2  0  0  0  0
  6  5  1  0  0  0  0
  7  1  1  0  0  0  0
 10  5  1  0  0  0  0
 11 12  3  0  0  0  0
 13 14  1  0  0  0  0
 15  6  1  0  0  0  0
 16 15  2  0  0  0  0
 17 15  2  0  0  0  0
M  END
