Coordinates from ORCA-job 4-NO2-Ph-N2-OH-B3LYPG-6-31G_dp-MTMO-d009-169-n900
 OpenBabel09051908013D

 17 16  0  0  0  0  0  0  0  0999 V2000
    0.6237    0.5594   -0.0667 C   0  0  0  0  0  0  0  0  0  0  0  0
    0.4378    0.9849    1.2398 C   0  0  0  0  0  0  0  0  0  0  0  0
   -0.7423    0.6500    1.9222 C   0  0  0  0  0  0  0  0  0  0  0  0
   -1.7336   -0.1140    1.2874 C   0  0  0  0  0  0  0  0  0  0  0  0
   -1.5490   -0.5411   -0.0214 C   0  0  0  0  0  0  0  0  0  0  0  0
   -0.3721   -0.2001   -0.6866 C   0  0  0  0  0  0  0  0  0  0  0  0
    1.5234    0.8030   -0.6178 H   0  0  0  0  0  0  0  0  0  0  0  0
    1.1895    1.5752    1.7520 H   0  0  0  0  0  0  0  0  0  0  0  0
   -2.6459   -0.3726    1.8193 H   0  0  0  0  0  0  0  0  0  0  0  0
   -2.2974   -1.1310   -0.5356 H   0  0  0  0  0  0  0  0  0  0  0  0
   -0.1199   -2.9399   -8.1453 N   0  0  0  0  0  0  0  0  0  0  0  0
    0.3192   -3.7252   -7.5032 N   0  0  0  0  0  0  0  0  0  0  0  0
   -0.8678    1.0948    3.1976 O   0  0  0  0  0  0  0  0  0  0  0  0
   -1.7164    0.8084    3.5609 H   0  0  0  0  0  0  0  0  0  0  0  0
   -0.1770   -0.6484   -2.0647 N   0  0  0  0  0  0  0  0  0  0  0  0
   -1.0743   -1.3152   -2.5840 O   0  0  0  0  0  0  0  0  0  0  0  0
    0.8731   -0.3338   -2.6270 O   0  0  0  0  0  0  0  0  0  0  0  0
  1  2  1  0  0  0  0
  2  8  1  0  0  0  0
  2  3  2  0  0  0  0
  3 13  1  0  0  0  0
  4  9  1  0  0  0  0
  4  3  1  0  0  0  0
  5  4  2  0  0  0  0
  6  1  2  0  0  0  0
  6  5  1  0  0  0  0
  7  1  1  0  0  0  0
 10  5  1  0  0  0  0
 11 12  3  0  0  0  0
 13 14  1  0  0  0  0
 15  6  1  0  0  0  0
 16 15  2  0  0  0  0
 17 15  2  0  0  0  0
M  END
