Coordinates from ORCA-job 4-NO2-Ph-N2-OH-B3LYPG-6-31G_dp-MTMO-d009-169-n900
 OpenBabel09051908013D

 17 16  0  0  0  0  0  0  0  0999 V2000
   -0.9366   -1.2215   -1.1225 C   0  0  0  0  0  0  0  0  0  0  0  0
    0.1152   -0.3681   -0.7513 C   0  0  0  0  0  0  0  0  0  0  0  0
   -0.2466    0.6998    0.0019 C   0  0  0  0  0  0  0  0  0  0  0  0
   -1.4779    1.0822    0.4619 C   0  0  0  0  0  0  0  0  0  0  0  0
   -2.5216    0.2206    0.0849 C   0  0  0  0  0  0  0  0  0  0  0  0
   -2.2275   -0.9023   -0.6932 C   0  0  0  0  0  0  0  0  0  0  0  0
   -0.7731   -2.1084   -1.7238 H   0  0  0  0  0  0  0  0  0  0  0  0
    1.1552   -0.5511   -1.0492 H   0  0  0  0  0  0  0  0  0  0  0  0
   -1.6611    1.9662    1.0636 H   0  0  0  0  0  0  0  0  0  0  0  0
   -3.5457    0.4101    0.3855 H   0  0  0  0  0  0  0  0  0  0  0  0
    2.8142    1.5551    0.0187 N   0  0  0  0  0  0  0  0  0  0  0  0
    3.0175    0.6107   -0.6154 N   0  0  0  0  0  0  0  0  0  0  0  0
    4.4817    0.3278   -1.0487 O   0  0  0  0  0  0  0  0  0  0  0  0
    4.3389   -0.5001   -1.5375 H   0  0  0  0  0  0  0  0  0  0  0  0
   -3.3356   -1.7930   -1.0822 N   0  0  0  0  0  0  0  0  0  0  0  0
   -4.4657   -1.4967   -0.6989 O   0  0  0  0  0  0  0  0  0  0  0  0
   -3.0603   -2.7766   -1.7669 O   0  0  0  0  0  0  0  0  0  0  0  0
  1  2  2  0  0  0  0
  1  6  1  0  0  0  0
  2  3  1  0  0  0  0
  3  4  2  0  0  0  0
  4  9  1  0  0  0  0
  5 10  1  0  0  0  0
  5  4  1  0  0  0  0
  6  5  2  0  0  0  0
  7  1  1  0  0  0  0
  8  2  1  0  0  0  0
 12 11  2  0  0  0  0
 13 12  1  0  0  0  0
 14 13  1  0  0  0  0
 15 16  2  0  0  0  0
 15  6  1  0  0  0  0
 17 15  2  0  0  0  0
M  RAD  2   3   2  11   2
M  END
