Coordinates from ORCA-job 4-NO2-Ph-N2-OH-B3LYPG-6-31G_dp-MTMO-d009-169-n900
 OpenBabel09051908013D

 17 16  0  0  0  0  0  0  0  0999 V2000
   -1.0563   -1.4809   -1.2670 C   0  0  0  0  0  0  0  0  0  0  0  0
    0.1709   -0.8434   -1.0632 C   0  0  0  0  0  0  0  0  0  0  0  0
    0.1438    0.3084   -0.3142 C   0  0  0  0  0  0  0  0  0  0  0  0
   -0.9593    0.9013    0.2564 C   0  0  0  0  0  0  0  0  0  0  0  0
   -2.1836    0.2578    0.0482 C   0  0  0  0  0  0  0  0  0  0  0  0
   -2.2044   -0.9161   -0.7073 C   0  0  0  0  0  0  0  0  0  0  0  0
   -1.1384   -2.3948   -1.8423 H   0  0  0  0  0  0  0  0  0  0  0  0
    1.1021   -1.2257   -1.4686 H   0  0  0  0  0  0  0  0  0  0  0  0
   -0.8826    1.8163    0.8322 H   0  0  0  0  0  0  0  0  0  0  0  0
   -3.1089    0.6459    0.4554 H   0  0  0  0  0  0  0  0  0  0  0  0
    1.9497    1.2789    0.0035 N   0  0  0  0  0  0  0  0  0  0  0  0
    2.7269    0.5679   -0.5910 N   0  0  0  0  0  0  0  0  0  0  0  0
    4.0475    1.0909   -0.4806 O   0  0  0  0  0  0  0  0  0  0  0  0
    4.5521    0.4370   -0.9888 H   0  0  0  0  0  0  0  0  0  0  0  0
   -3.4969   -1.5897   -0.9255 N   0  0  0  0  0  0  0  0  0  0  0  0
   -4.4968   -1.0788   -0.4241 O   0  0  0  0  0  0  0  0  0  0  0  0
   -3.4948   -2.6206   -1.5963 O   0  0  0  0  0  0  0  0  0  0  0  0
  1  2  2  0  0  0  0
  1  6  1  0  0  0  0
  2  3  1  0  0  0  0
  3  4  2  0  0  0  0
  4  9  1  0  0  0  0
  5  4  1  0  0  0  0
  5 10  1  0  0  0  0
  6  5  2  0  0  0  0
  7  1  1  0  0  0  0
  8  2  1  0  0  0  0
 12 13  1  0  0  0  0
 12 11  1  0  0  0  0
 14 13  1  0  0  0  0
 15  6  1  0  0  0  0
 15 16  2  0  0  0  0
 17 15  2  0  0  0  0
M  RAD  3   3   2  11   3  12   2
M  END
