Coordinates from ORCA-job 4-NO2-Ph-N2-OH-B3LYPG-6-31G_dp-MTMO-d009-169-n900
 OpenBabel09051908013D

 17 16  0  0  0  0  0  0  0  0999 V2000
   -0.5607   -0.5857   -1.2348 C   0  0  0  0  0  0  0  0  0  0  0  0
    0.3278    0.0876   -0.4098 C   0  0  0  0  0  0  0  0  0  0  0  0
   -0.0711    0.4727    0.8799 C   0  0  0  0  0  0  0  0  0  0  0  0
   -1.3648    0.1788    1.3374 C   0  0  0  0  0  0  0  0  0  0  0  0
   -2.2561   -0.4958    0.5121 C   0  0  0  0  0  0  0  0  0  0  0  0
   -1.8459   -0.8718   -0.7665 C   0  0  0  0  0  0  0  0  0  0  0  0
   -0.2807   -0.8946   -2.2337 H   0  0  0  0  0  0  0  0  0  0  0  0
    1.3320    0.3267   -0.7410 H   0  0  0  0  0  0  0  0  0  0  0  0
   -1.6706    0.4790    2.3363 H   0  0  0  0  0  0  0  0  0  0  0  0
   -3.2598   -0.7356    0.8391 H   0  0  0  0  0  0  0  0  0  0  0  0
    4.9115   -0.0155   -4.9919 N   0  0  0  0  0  0  0  0  0  0  0  0
    4.1968    0.0356   -4.1504 N   0  0  0  0  0  0  0  0  0  0  0  0
    0.8417    1.1290    1.6399 O   0  0  0  0  0  0  0  0  0  0  0  0
    0.4566    1.3453    2.4995 H   0  0  0  0  0  0  0  0  0  0  0  0
   -2.7833   -1.5815   -1.6357 N   0  0  0  0  0  0  0  0  0  0  0  0
   -3.9097   -1.8170   -1.1940 O   0  0  0  0  0  0  0  0  0  0  0  0
   -2.3929   -1.9029   -2.7594 O   0  0  0  0  0  0  0  0  0  0  0  0
  1  6  2  0  0  0  0
  1  2  1  0  0  0  0
  2  3  2  0  0  0  0
  3  4  1  0  0  0  0
  3 13  1  0  0  0  0
  4  9  1  0  0  0  0
  5 10  1  0  0  0  0
  5  4  2  0  0  0  0
  6  5  1  0  0  0  0
  7  1  1  0  0  0  0
  8  2  1  0  0  0  0
 11 12  3  0  0  0  0
 13 14  1  0  0  0  0
 15 16  2  0  0  0  0
 15  6  1  0  0  0  0
 17 15  2  0  0  0  0
M  END
