Coordinates from ORCA-job 4-NO2-Ph-N2-OH-B3LYPG-6-31G_dp-MTMO-d009-169-n900
 OpenBabel09051908013D

 17 16  0  0  0  0  0  0  0  0999 V2000
   -0.8095   -0.8281   -1.5773 C   0  0  0  0  0  0  0  0  0  0  0  0
    0.2877   -0.1855   -1.0232 C   0  0  0  0  0  0  0  0  0  0  0  0
    0.2071    0.3317    0.2793 C   0  0  0  0  0  0  0  0  0  0  0  0
   -0.9761    0.2009    1.0221 C   0  0  0  0  0  0  0  0  0  0  0  0
   -2.0758   -0.4425    0.4678 C   0  0  0  0  0  0  0  0  0  0  0  0
   -1.9821   -0.9509   -0.8271 C   0  0  0  0  0  0  0  0  0  0  0  0
   -0.7786   -1.2367   -2.5791 H   0  0  0  0  0  0  0  0  0  0  0  0
    1.2131   -0.0714   -1.5766 H   0  0  0  0  0  0  0  0  0  0  0  0
   -1.0328    0.6025    2.0305 H   0  0  0  0  0  0  0  0  0  0  0  0
   -3.0014   -0.5577    1.0180 H   0  0  0  0  0  0  0  0  0  0  0  0
    4.7642    0.9379   -2.5250 N   0  0  0  0  0  0  0  0  0  0  0  0
    3.7303    0.5480   -2.5193 N   0  0  0  0  0  0  0  0  0  0  0  0
    1.3115    0.9512    0.7688 O   0  0  0  0  0  0  0  0  0  0  0  0
    1.1377    1.2667    1.6657 H   0  0  0  0  0  0  0  0  0  0  0  0
   -3.1388   -1.6271   -1.4127 N   0  0  0  0  0  0  0  0  0  0  0  0
   -4.1602   -1.7143   -0.7281 O   0  0  0  0  0  0  0  0  0  0  0  0
   -3.0254   -2.0701   -2.5569 O   0  0  0  0  0  0  0  0  0  0  0  0
  1  2  2  0  0  0  0
  1  6  1  0  0  0  0
  2  3  1  0  0  0  0
  3 13  1  0  0  0  0
  3  4  2  0  0  0  0
  4  9  1  0  0  0  0
  5 10  1  0  0  0  0
  5  4  1  0  0  0  0
  6  5  2  0  0  0  0
  7  1  1  0  0  0  0
  8  2  1  0  0  0  0
 11 12  3  0  0  0  0
 13 14  1  0  0  0  0
 15  6  1  0  0  0  0
 15 16  2  0  0  0  0
 17 15  2  0  0  0  0
M  END
