Coordinates from ORCA-job 4-NO2-Ph-N2-OH-B3LYPG-6-31G_dp-MTMO-d009-169-n900
 OpenBabel09051908013D

 17 15  0  0  0  0  0  0  0  0999 V2000
   -0.8945   -1.0495   -1.0400 C   0  0  0  0  0  0  0  0  0  0  0  0
    0.0490   -0.1053   -0.5908 C   0  0  0  0  0  0  0  0  0  0  0  0
   -0.4848    0.8871    0.1617 C   0  0  0  0  0  0  0  0  0  0  0  0
   -1.7653    1.1367    0.5630 C   0  0  0  0  0  0  0  0  0  0  0  0
   -2.6898    0.1809    0.1041 C   0  0  0  0  0  0  0  0  0  0  0  0
   -2.2330   -0.8805   -0.6808 C   0  0  0  0  0  0  0  0  0  0  0  0
   -0.5997   -1.8946   -1.6522 H   0  0  0  0  0  0  0  0  0  0  0  0
    1.1103   -0.1867   -0.8400 H   0  0  0  0  0  0  0  0  0  0  0  0
   -2.0725    1.9793    1.1739 H   0  0  0  0  0  0  0  0  0  0  0  0
   -3.7432    0.2558    0.3501 H   0  0  0  0  0  0  0  0  0  0  0  0
    3.2458    1.6755   -0.0490 N   0  0  0  0  0  0  0  0  0  0  0  0
    3.1035    0.7188   -0.6031 N   0  0  0  0  0  0  0  0  0  0  0  0
    4.7788   -0.2137   -1.3980 O   0  0  0  0  0  0  0  0  0  0  0  0
    4.2703   -0.9686   -1.7440 H   0  0  0  0  0  0  0  0  0  0  0  0
   -3.2166   -1.8732   -1.1549 N   0  0  0  0  0  0  0  0  0  0  0  0
   -4.3902   -1.7061   -0.8312 O   0  0  0  0  0  0  0  0  0  0  0  0
   -2.7971   -2.8014   -1.8418 O   0  0  0  0  0  0  0  0  0  0  0  0
  1  6  2  0  0  0  0
  1  2  1  0  0  0  0
  2  3  2  0  0  0  0
  3  4  1  0  0  0  0
  4  9  1  0  0  0  0
  5 10  1  0  0  0  0
  5  4  2  0  0  0  0
  6  5  1  0  0  0  0
  7  1  1  0  0  0  0
  8  2  1  0  0  0  0
 12 11  3  0  0  0  0
 14 13  1  0  0  0  0
 15 16  2  0  0  0  0
 15  6  1  0  0  0  0
 17 15  2  0  0  0  0
M  RAD  2   3   2  13   2
M  END
