Coordinates from ORCA-job 4-NO2-Ph-N2-OH-B3LYPG-6-31G_dp-MTMO-d009-169-n900
 OpenBabel09051908023D

 17 16  0  0  0  0  0  0  0  0999 V2000
    0.5899    0.7145    0.3425 C   0  0  0  0  0  0  0  0  0  0  0  0
    0.3998    1.1703    1.6381 C   0  0  0  0  0  0  0  0  0  0  0  0
   -0.7814    0.8490    2.3251 C   0  0  0  0  0  0  0  0  0  0  0  0
   -1.7695    0.0682    1.7060 C   0  0  0  0  0  0  0  0  0  0  0  0
   -1.5807   -0.3893    0.4082 C   0  0  0  0  0  0  0  0  0  0  0  0
   -0.4027   -0.0616   -0.2619 C   0  0  0  0  0  0  0  0  0  0  0  0
    1.4903    0.9470   -0.2122 H   0  0  0  0  0  0  0  0  0  0  0  0
    1.1489    1.7742    2.1380 H   0  0  0  0  0  0  0  0  0  0  0  0
   -2.6826   -0.1797    2.2418 H   0  0  0  0  0  0  0  0  0  0  0  0
   -2.3265   -0.9928   -0.0938 H   0  0  0  0  0  0  0  0  0  0  0  0
    0.1258   -4.1926  -11.2941 N   0  0  0  0  0  0  0  0  0  0  0  0
    0.5851   -4.9186  -10.5987 N   0  0  0  0  0  0  0  0  0  0  0  0
   -0.9113    1.3236    3.5893 O   0  0  0  0  0  0  0  0  0  0  0  0
   -1.7603    1.0438    3.9570 H   0  0  0  0  0  0  0  0  0  0  0  0
   -0.2034   -0.5415   -1.6287 N   0  0  0  0  0  0  0  0  0  0  0  0
   -1.0977   -1.2227   -2.1340 O   0  0  0  0  0  0  0  0  0  0  0  0
    0.8473   -0.2373   -2.1957 O   0  0  0  0  0  0  0  0  0  0  0  0
  1  2  1  0  0  0  0
  2  8  1  0  0  0  0
  2  3  2  0  0  0  0
  3 13  1  0  0  0  0
  4  9  1  0  0  0  0
  4  3  1  0  0  0  0
  5  4  2  0  0  0  0
  6  1  2  0  0  0  0
  6  5  1  0  0  0  0
  7  1  1  0  0  0  0
 10  5  1  0  0  0  0
 11 12  3  0  0  0  0
 13 14  1  0  0  0  0
 15  6  1  0  0  0  0
 16 15  2  0  0  0  0
 17 15  2  0  0  0  0
M  END
