Coordinates from ORCA-job 4-NO2-Ph-N2-OH-B3LYPG-6-31G_dp-MTMO-d009-169-n900
 OpenBabel09051908013D

 17 16  0  0  0  0  0  0  0  0999 V2000
    0.6196    0.5763   -0.0217 C   0  0  0  0  0  0  0  0  0  0  0  0
    0.4340    1.0051    1.2837 C   0  0  0  0  0  0  0  0  0  0  0  0
   -0.7461    0.6720    1.9671 C   0  0  0  0  0  0  0  0  0  0  0  0
   -1.7375   -0.0935    1.3344 C   0  0  0  0  0  0  0  0  0  0  0  0
   -1.5531   -0.5240    0.0267 C   0  0  0  0  0  0  0  0  0  0  0  0
   -0.3763   -0.1848   -0.6396 C   0  0  0  0  0  0  0  0  0  0  0  0
    1.5191    0.8185   -0.5737 H   0  0  0  0  0  0  0  0  0  0  0  0
    1.1858    1.5968    1.7942 H   0  0  0  0  0  0  0  0  0  0  0  0
   -2.6497   -0.3507    1.8672 H   0  0  0  0  0  0  0  0  0  0  0  0
   -2.3016   -1.1151   -0.4859 H   0  0  0  0  0  0  0  0  0  0  0  0
   -0.0902   -3.0787   -8.4952 N   0  0  0  0  0  0  0  0  0  0  0  0
    0.3505   -3.8579   -7.8470 N   0  0  0  0  0  0  0  0  0  0  0  0
   -0.8714    1.1202    3.2414 O   0  0  0  0  0  0  0  0  0  0  0  0
   -1.7200    0.8347    3.6055 H   0  0  0  0  0  0  0  0  0  0  0  0
   -0.1816   -0.6365   -2.0165 N   0  0  0  0  0  0  0  0  0  0  0  0
   -1.0790   -1.3047   -2.5339 O   0  0  0  0  0  0  0  0  0  0  0  0
    0.8685   -0.3233   -2.5799 O   0  0  0  0  0  0  0  0  0  0  0  0
  1  2  1  0  0  0  0
  2  8  1  0  0  0  0
  2  3  2  0  0  0  0
  3 13  1  0  0  0  0
  4  9  1  0  0  0  0
  4  3  1  0  0  0  0
  5  4  2  0  0  0  0
  6  1  2  0  0  0  0
  6  5  1  0  0  0  0
  7  1  1  0  0  0  0
 10  5  1  0  0  0  0
 11 12  3  0  0  0  0
 13 14  1  0  0  0  0
 15  6  1  0  0  0  0
 16 15  2  0  0  0  0
 17 15  2  0  0  0  0
M  END
