Coordinates from ORCA-job 4-NO2-Ph-N2-OH-B3LYPG-6-31G_dp-MTMO-d009-169-n900
 OpenBabel09051908013D

 17 16  0  0  0  0  0  0  0  0999 V2000
   -0.9660   -1.2686   -1.1488 C   0  0  0  0  0  0  0  0  0  0  0  0
    0.1174   -0.4460   -0.8030 C   0  0  0  0  0  0  0  0  0  0  0  0
   -0.1955    0.6382   -0.0471 C   0  0  0  0  0  0  0  0  0  0  0  0
   -1.4074    1.0568    0.4335 C   0  0  0  0  0  0  0  0  0  0  0  0
   -2.4835    0.2254    0.0816 C   0  0  0  0  0  0  0  0  0  0  0  0
   -2.2384   -0.9093   -0.6962 C   0  0  0  0  0  0  0  0  0  0  0  0
   -0.8415   -2.1629   -1.7484 H   0  0  0  0  0  0  0  0  0  0  0  0
    1.1444   -0.6586   -1.1180 H   0  0  0  0  0  0  0  0  0  0  0  0
   -1.5517    1.9488    1.0337 H   0  0  0  0  0  0  0  0  0  0  0  0
   -3.4953    0.4466    0.4010 H   0  0  0  0  0  0  0  0  0  0  0  0
    2.7018    1.5409    0.0288 N   0  0  0  0  0  0  0  0  0  0  0  0
    2.9993    0.6160   -0.6077 N   0  0  0  0  0  0  0  0  0  0  0  0
    4.4746    0.4624   -0.9606 O   0  0  0  0  0  0  0  0  0  0  0  0
    4.4325   -0.3668   -1.4654 H   0  0  0  0  0  0  0  0  0  0  0  0
   -3.3797   -1.7684   -1.0585 N   0  0  0  0  0  0  0  0  0  0  0  0
   -4.4928   -1.4370   -0.6545 O   0  0  0  0  0  0  0  0  0  0  0  0
   -3.1474   -2.7629   -1.7435 O   0  0  0  0  0  0  0  0  0  0  0  0
  1  2  2  0  0  0  0
  1  6  1  0  0  0  0
  2  3  1  0  0  0  0
  3  4  2  0  0  0  0
  4  9  1  0  0  0  0
  5 10  1  0  0  0  0
  5  4  1  0  0  0  0
  6  5  2  0  0  0  0
  7  1  1  0  0  0  0
  8  2  1  0  0  0  0
 12 11  2  0  0  0  0
 13 12  1  0  0  0  0
 14 13  1  0  0  0  0
 15  6  1  0  0  0  0
 15 16  2  0  0  0  0
 17 15  2  0  0  0  0
M  RAD  2   3   2  11   2
M  END
