Coordinates from ORCA-job 4-NO2-Ph-N2-OH-B3LYPG-6-31G_dp-MTMO-d009-169-n900
 OpenBabel09051908013D

 17 16  0  0  0  0  0  0  0  0999 V2000
    0.6039    0.6472    0.1656 C   0  0  0  0  0  0  0  0  0  0  0  0
    0.4167    1.0903    1.4661 C   0  0  0  0  0  0  0  0  0  0  0  0
   -0.7637    0.7637    2.1520 C   0  0  0  0  0  0  0  0  0  0  0  0
   -1.7539   -0.0097    1.5270 C   0  0  0  0  0  0  0  0  0  0  0  0
   -1.5680   -0.4544    0.2242 C   0  0  0  0  0  0  0  0  0  0  0  0
   -0.3908   -0.1216   -0.4446 C   0  0  0  0  0  0  0  0  0  0  0  0
    1.5036    0.8841   -0.3883 H   0  0  0  0  0  0  0  0  0  0  0  0
    1.1675    1.6882    1.9707 H   0  0  0  0  0  0  0  0  0  0  0  0
   -2.6664   -0.2618    2.0618 H   0  0  0  0  0  0  0  0  0  0  0  0
   -2.3155   -1.0519   -0.2824 H   0  0  0  0  0  0  0  0  0  0  0  0
    0.0243   -3.6508   -9.9388 N   0  0  0  0  0  0  0  0  0  0  0  0
    0.4731   -4.4071   -9.2693 N   0  0  0  0  0  0  0  0  0  0  0  0
   -0.8907    1.2258    3.4211 O   0  0  0  0  0  0  0  0  0  0  0  0
   -1.7394    0.9435    3.7875 H   0  0  0  0  0  0  0  0  0  0  0  0
   -0.1945   -0.5881   -1.8164 N   0  0  0  0  0  0  0  0  0  0  0  0
   -1.0908   -1.2630   -2.3271 O   0  0  0  0  0  0  0  0  0  0  0  0
    0.8556   -0.2799   -2.3823 O   0  0  0  0  0  0  0  0  0  0  0  0
  1  2  1  0  0  0  0
  2  8  1  0  0  0  0
  2  3  2  0  0  0  0
  3 13  1  0  0  0  0
  4  9  1  0  0  0  0
  4  3  1  0  0  0  0
  5  4  2  0  0  0  0
  6  1  2  0  0  0  0
  6  5  1  0  0  0  0
  7  1  1  0  0  0  0
 10  5  1  0  0  0  0
 11 12  3  0  0  0  0
 13 14  1  0  0  0  0
 15  6  1  0  0  0  0
 16 15  2  0  0  0  0
 17 15  2  0  0  0  0
M  END
