Coordinates from ORCA-job 4-NO2-Ph-N2-OH-B3LYPG-6-31G_dp-MTMO-d009-169-n900
 OpenBabel09051908023D

 17 16  0  0  0  0  0  0  0  0999 V2000
    0.6020    0.6558    0.1885 C   0  0  0  0  0  0  0  0  0  0  0  0
    0.4145    1.1006    1.4882 C   0  0  0  0  0  0  0  0  0  0  0  0
   -0.7660    0.7747    2.1744 C   0  0  0  0  0  0  0  0  0  0  0  0
   -1.7559    0.0004    1.5502 C   0  0  0  0  0  0  0  0  0  0  0  0
   -1.5697   -0.4460    0.2481 C   0  0  0  0  0  0  0  0  0  0  0  0
   -0.3924   -0.1139   -0.4210 C   0  0  0  0  0  0  0  0  0  0  0  0
    1.5019    0.8921   -0.3656 H   0  0  0  0  0  0  0  0  0  0  0  0
    1.1651    1.6994    1.9922 H   0  0  0  0  0  0  0  0  0  0  0  0
   -2.6685   -0.2511    2.0852 H   0  0  0  0  0  0  0  0  0  0  0  0
   -2.3170   -1.0443   -0.2579 H   0  0  0  0  0  0  0  0  0  0  0  0
    0.0376   -3.7203  -10.1137 N   0  0  0  0  0  0  0  0  0  0  0  0
    0.4877   -4.4735   -9.4415 N   0  0  0  0  0  0  0  0  0  0  0  0
   -0.8933    1.2385    3.4429 O   0  0  0  0  0  0  0  0  0  0  0  0
   -1.7420    0.9566    3.8095 H   0  0  0  0  0  0  0  0  0  0  0  0
   -0.1958   -0.5822   -1.7922 N   0  0  0  0  0  0  0  0  0  0  0  0
   -1.0918   -1.2579   -2.3020 O   0  0  0  0  0  0  0  0  0  0  0  0
    0.8544   -0.2746   -2.3582 O   0  0  0  0  0  0  0  0  0  0  0  0
  1  2  1  0  0  0  0
  2  8  1  0  0  0  0
  2  3  2  0  0  0  0
  3 13  1  0  0  0  0
  4  9  1  0  0  0  0
  4  3  1  0  0  0  0
  5  4  2  0  0  0  0
  6  1  2  0  0  0  0
  6  5  1  0  0  0  0
  7  1  1  0  0  0  0
 10  5  1  0  0  0  0
 11 12  3  0  0  0  0
 13 14  1  0  0  0  0
 15  6  1  0  0  0  0
 16 15  2  0  0  0  0
 17 15  2  0  0  0  0
M  END
