Coordinates from ORCA-job 4-NO2-Ph-N2-OH-B3LYPG-6-31G_dp-MTMO-d009-169-n900
 OpenBabel09051908023D

 17 16  0  0  0  0  0  0  0  0999 V2000
    0.5731    0.7967    0.5559 C   0  0  0  0  0  0  0  0  0  0  0  0
    0.3797    1.2655    1.8463 C   0  0  0  0  0  0  0  0  0  0  0  0
   -0.8024    0.9495    2.5342 C   0  0  0  0  0  0  0  0  0  0  0  0
   -1.7881    0.1609    1.9212 C   0  0  0  0  0  0  0  0  0  0  0  0
   -1.5959   -0.3097    0.6285 C   0  0  0  0  0  0  0  0  0  0  0  0
   -0.4170    0.0129   -0.0424 C   0  0  0  0  0  0  0  0  0  0  0  0
    1.4743    1.0249    0.0006 H   0  0  0  0  0  0  0  0  0  0  0  0
    1.1269    1.8758    2.3415 H   0  0  0  0  0  0  0  0  0  0  0  0
   -2.7019   -0.0828    2.4576 H   0  0  0  0  0  0  0  0  0  0  0  0
   -2.3398   -0.9195    0.1313 H   0  0  0  0  0  0  0  0  0  0  0  0
    0.2547   -4.8602  -12.9392 N   0  0  0  0  0  0  0  0  0  0  0  0
    0.7114   -5.5258  -12.1841 N   0  0  0  0  0  0  0  0  0  0  0  0
   -0.9358    1.4369    3.7932 O   0  0  0  0  0  0  0  0  0  0  0  0
   -1.7851    1.1596    4.1619 H   0  0  0  0  0  0  0  0  0  0  0  0
   -0.2141   -0.4808   -1.4038 N   0  0  0  0  0  0  0  0  0  0  0  0
   -1.1063   -1.1686   -1.9040 O   0  0  0  0  0  0  0  0  0  0  0  0
    0.8372   -0.1807   -1.9718 O   0  0  0  0  0  0  0  0  0  0  0  0
  1  2  1  0  0  0  0
  2  8  1  0  0  0  0
  2  3  2  0  0  0  0
  3 13  1  0  0  0  0
  4  9  1  0  0  0  0
  4  3  1  0  0  0  0
  5  4  2  0  0  0  0
  6  1  2  0  0  0  0
  6  5  1  0  0  0  0
  7  1  1  0  0  0  0
 10  5  1  0  0  0  0
 11 12  3  0  0  0  0
 13 14  1  0  0  0  0
 15  6  1  0  0  0  0
 16 15  2  0  0  0  0
 17 15  2  0  0  0  0
M  END
