Coordinates from ORCA-job 4-NO2-Ph-N2-OH-B3LYPG-6-31G_dp-MTMO-d009-169-n900
 OpenBabel09051908013D

 17 16  0  0  0  0  0  0  0  0999 V2000
   -1.0590   -1.4551   -1.2509 C   0  0  0  0  0  0  0  0  0  0  0  0
    0.1481   -0.7840   -1.0226 C   0  0  0  0  0  0  0  0  0  0  0  0
    0.0637    0.3564   -0.2704 C   0  0  0  0  0  0  0  0  0  0  0  0
   -1.0519    0.9276    0.2894 C   0  0  0  0  0  0  0  0  0  0  0  0
   -2.2546    0.2480    0.0550 C   0  0  0  0  0  0  0  0  0  0  0  0
   -2.2301   -0.9225   -0.7067 C   0  0  0  0  0  0  0  0  0  0  0  0
   -1.1072   -2.3680   -1.8321 H   0  0  0  0  0  0  0  0  0  0  0  0
    1.1001   -1.1348   -1.4125 H   0  0  0  0  0  0  0  0  0  0  0  0
   -1.0146    1.8412    0.8714 H   0  0  0  0  0  0  0  0  0  0  0  0
   -3.1972    0.6086    0.4485 H   0  0  0  0  0  0  0  0  0  0  0  0
    2.1322    1.3726    0.0278 N   0  0  0  0  0  0  0  0  0  0  0  0
    2.8156    0.6038   -0.5814 N   0  0  0  0  0  0  0  0  0  0  0  0
    4.2053    1.0033   -0.5656 O   0  0  0  0  0  0  0  0  0  0  0  0
    4.6032    0.2884   -1.0869 H   0  0  0  0  0  0  0  0  0  0  0  0
   -3.5006   -1.6286   -0.9492 N   0  0  0  0  0  0  0  0  0  0  0  0
   -4.5220   -1.1458   -0.4636 O   0  0  0  0  0  0  0  0  0  0  0  0
   -3.4600   -2.6566   -1.6231 O   0  0  0  0  0  0  0  0  0  0  0  0
  1  2  2  0  0  0  0
  1  6  1  0  0  0  0
  2  3  1  0  0  0  0
  3  4  2  0  0  0  0
  4  9  1  0  0  0  0
  5  4  1  0  0  0  0
  5 10  1  0  0  0  0
  6  5  2  0  0  0  0
  7  1  1  0  0  0  0
  8  2  1  0  0  0  0
 12 13  1  0  0  0  0
 12 11  1  0  0  0  0
 14 13  1  0  0  0  0
 15  6  1  0  0  0  0
 15 16  2  0  0  0  0
 17 15  2  0  0  0  0
M  RAD  3   3   2  11   3  12   2
M  END
