Coordinates from ORCA-job 4-NO2-Ph-N2-OH-B3LYPG-6-31G_dp-MTMO-d009-169-n900
 OpenBabel09051908023D

 17 16  0  0  0  0  0  0  0  0999 V2000
    0.6023    0.6544    0.1847 C   0  0  0  0  0  0  0  0  0  0  0  0
    0.4148    1.0989    1.4845 C   0  0  0  0  0  0  0  0  0  0  0  0
   -0.7656    0.7729    2.1706 C   0  0  0  0  0  0  0  0  0  0  0  0
   -1.7556   -0.0013    1.5463 C   0  0  0  0  0  0  0  0  0  0  0  0
   -1.5694   -0.4474    0.2441 C   0  0  0  0  0  0  0  0  0  0  0  0
   -0.3922   -0.1152   -0.4249 C   0  0  0  0  0  0  0  0  0  0  0  0
    1.5022    0.8908   -0.3694 H   0  0  0  0  0  0  0  0  0  0  0  0
    1.1655    1.6975    1.9886 H   0  0  0  0  0  0  0  0  0  0  0  0
   -2.6681   -0.2529    2.0813 H   0  0  0  0  0  0  0  0  0  0  0  0
   -2.3167   -1.0456   -0.2620 H   0  0  0  0  0  0  0  0  0  0  0  0
    0.0354   -3.7087  -10.0846 N   0  0  0  0  0  0  0  0  0  0  0  0
    0.4852   -4.4624   -9.4128 N   0  0  0  0  0  0  0  0  0  0  0  0
   -0.8929    1.2364    3.4393 O   0  0  0  0  0  0  0  0  0  0  0  0
   -1.7416    0.9545    3.8058 H   0  0  0  0  0  0  0  0  0  0  0  0
   -0.1956   -0.5832   -1.7962 N   0  0  0  0  0  0  0  0  0  0  0  0
   -1.0916   -1.2588   -2.3062 O   0  0  0  0  0  0  0  0  0  0  0  0
    0.8546   -0.2754   -2.3622 O   0  0  0  0  0  0  0  0  0  0  0  0
  1  2  1  0  0  0  0
  2  8  1  0  0  0  0
  2  3  2  0  0  0  0
  3 13  1  0  0  0  0
  4  9  1  0  0  0  0
  4  3  1  0  0  0  0
  5  4  2  0  0  0  0
  6  1  2  0  0  0  0
  6  5  1  0  0  0  0
  7  1  1  0  0  0  0
 10  5  1  0  0  0  0
 11 12  3  0  0  0  0
 13 14  1  0  0  0  0
 15  6  1  0  0  0  0
 16 15  2  0  0  0  0
 17 15  2  0  0  0  0
M  END
