Coordinates from ORCA-job 4-NO2-Ph-N2-OH-B3LYPG-6-31G_dp-MTMO-d009-169-n900
 OpenBabel09051908013D

 17 16  0  0  0  0  0  0  0  0999 V2000
    0.6088    0.6241    0.1049 C   0  0  0  0  0  0  0  0  0  0  0  0
    0.4224    1.0626    1.4070 C   0  0  0  0  0  0  0  0  0  0  0  0
   -0.7578    0.7340    2.0923 C   0  0  0  0  0  0  0  0  0  0  0  0
   -1.7486   -0.0367    1.4650 C   0  0  0  0  0  0  0  0  0  0  0  0
   -1.5635   -0.4768    0.1606 C   0  0  0  0  0  0  0  0  0  0  0  0
   -0.3865   -0.1420   -0.5077 C   0  0  0  0  0  0  0  0  0  0  0  0
    1.5084    0.8626   -0.4486 H   0  0  0  0  0  0  0  0  0  0  0  0
    1.1737    1.6584    1.9134 H   0  0  0  0  0  0  0  0  0  0  0  0
   -2.6609   -0.2903    1.9993 H   0  0  0  0  0  0  0  0  0  0  0  0
   -2.3114   -1.0722   -0.3479 H   0  0  0  0  0  0  0  0  0  0  0  0
   -0.0117   -3.4656   -9.4722 N   0  0  0  0  0  0  0  0  0  0  0  0
    0.4342   -4.2297   -8.8096 N   0  0  0  0  0  0  0  0  0  0  0  0
   -0.8839    1.1917    3.3631 O   0  0  0  0  0  0  0  0  0  0  0  0
   -1.7326    0.9084    3.7290 H   0  0  0  0  0  0  0  0  0  0  0  0
   -0.1910   -0.6038   -1.8812 N   0  0  0  0  0  0  0  0  0  0  0  0
   -1.0878   -1.2764   -2.3939 O   0  0  0  0  0  0  0  0  0  0  0  0
    0.8590   -0.2940   -2.4465 O   0  0  0  0  0  0  0  0  0  0  0  0
  1  2  1  0  0  0  0
  2  8  1  0  0  0  0
  2  3  2  0  0  0  0
  3 13  1  0  0  0  0
  4  9  1  0  0  0  0
  4  3  1  0  0  0  0
  5  4  2  0  0  0  0
  6  1  2  0  0  0  0
  6  5  1  0  0  0  0
  7  1  1  0  0  0  0
 10  5  1  0  0  0  0
 11 12  3  0  0  0  0
 13 14  1  0  0  0  0
 15  6  1  0  0  0  0
 16 15  2  0  0  0  0
 17 15  2  0  0  0  0
M  END
