Coordinates from ORCA-job 4-NO2-Ph-N2-OH-B3LYPG-6-31G_dp-MTMO-d009-169-n900
 OpenBabel09051908013D

 17 16  0  0  0  0  0  0  0  0999 V2000
    0.6139    0.6012    0.0443 C   0  0  0  0  0  0  0  0  0  0  0  0
    0.4280    1.0351    1.3480 C   0  0  0  0  0  0  0  0  0  0  0  0
   -0.7520    0.7044    2.0325 C   0  0  0  0  0  0  0  0  0  0  0  0
   -1.7433   -0.0637    1.4028 C   0  0  0  0  0  0  0  0  0  0  0  0
   -1.5587   -0.4992    0.0967 C   0  0  0  0  0  0  0  0  0  0  0  0
   -0.3819   -0.1624   -0.5707 C   0  0  0  0  0  0  0  0  0  0  0  0
    1.5134    0.8414   -0.5086 H   0  0  0  0  0  0  0  0  0  0  0  0
    1.1797    1.6288    1.8563 H   0  0  0  0  0  0  0  0  0  0  0  0
   -2.6555   -0.3191    1.9365 H   0  0  0  0  0  0  0  0  0  0  0  0
   -2.3070   -1.0925   -0.4136 H   0  0  0  0  0  0  0  0  0  0  0  0
   -0.0486   -3.2808   -9.0056 N   0  0  0  0  0  0  0  0  0  0  0  0
    0.3948   -4.0521   -8.3497 N   0  0  0  0  0  0  0  0  0  0  0  0
   -0.8776    1.1575    3.3051 O   0  0  0  0  0  0  0  0  0  0  0  0
   -1.7262    0.8732    3.6702 H   0  0  0  0  0  0  0  0  0  0  0  0
   -0.1869   -0.6194   -1.9460 N   0  0  0  0  0  0  0  0  0  0  0  0
   -1.0842   -1.2898   -2.4608 O   0  0  0  0  0  0  0  0  0  0  0  0
    0.8630   -0.3080   -2.5104 O   0  0  0  0  0  0  0  0  0  0  0  0
  1  2  1  0  0  0  0
  2  8  1  0  0  0  0
  2  3  2  0  0  0  0
  3 13  1  0  0  0  0
  4  9  1  0  0  0  0
  4  3  1  0  0  0  0
  5  4  2  0  0  0  0
  6  1  2  0  0  0  0
  6  5  1  0  0  0  0
  7  1  1  0  0  0  0
 10  5  1  0  0  0  0
 11 12  3  0  0  0  0
 13 14  1  0  0  0  0
 15  6  1  0  0  0  0
 16 15  2  0  0  0  0
 17 15  2  0  0  0  0
M  END
