Coordinates from ORCA-job 4-NO2-Ph-N2-OH-B3LYPG-6-31G_dp-MTMO-d009-169-n900
 OpenBabel09051908013D

 17 16  0  0  0  0  0  0  0  0999 V2000
   -0.8887   -1.0452   -1.6442 C   0  0  0  0  0  0  0  0  0  0  0  0
    0.3073   -0.4995   -1.2027 C   0  0  0  0  0  0  0  0  0  0  0  0
    0.3644    0.1365    0.0475 C   0  0  0  0  0  0  0  0  0  0  0  0
   -0.7822    0.2228    0.8515 C   0  0  0  0  0  0  0  0  0  0  0  0
   -1.9811   -0.3234    0.4102 C   0  0  0  0  0  0  0  0  0  0  0  0
   -2.0231   -0.9527   -0.8334 C   0  0  0  0  0  0  0  0  0  0  0  0
   -0.9632   -1.5410   -2.6037 H   0  0  0  0  0  0  0  0  0  0  0  0
    1.2069   -0.5505   -1.8059 H   0  0  0  0  0  0  0  0  0  0  0  0
   -0.7339    0.7158    1.8191 H   0  0  0  0  0  0  0  0  0  0  0  0
   -2.8819   -0.2713    1.0088 H   0  0  0  0  0  0  0  0  0  0  0  0
    4.1402    1.6840   -1.4674 N   0  0  0  0  0  0  0  0  0  0  0  0
    3.7035    0.9042   -2.1172 N   0  0  0  0  0  0  0  0  0  0  0  0
    1.5625    0.6511    0.4257 O   0  0  0  0  0  0  0  0  0  0  0  0
    1.4836    1.0577    1.2990 H   0  0  0  0  0  0  0  0  0  0  0  0
   -3.2847   -1.5278   -1.2985 N   0  0  0  0  0  0  0  0  0  0  0  0
   -4.2674   -1.4270   -0.5615 O   0  0  0  0  0  0  0  0  0  0  0  0
   -3.2912   -2.0792   -2.4005 O   0  0  0  0  0  0  0  0  0  0  0  0
  1  2  2  0  0  0  0
  1  6  1  0  0  0  0
  2  3  1  0  0  0  0
  3 13  1  0  0  0  0
  3  4  2  0  0  0  0
  4  9  1  0  0  0  0
  5  4  1  0  0  0  0
  5 10  1  0  0  0  0
  6  5  2  0  0  0  0
  7  1  1  0  0  0  0
  8  2  1  0  0  0  0
 12 11  3  0  0  0  0
 13 14  1  0  0  0  0
 15  6  1  0  0  0  0
 15 16  2  0  0  0  0
 17 15  2  0  0  0  0
M  END
