Coordinates from ORCA-job 4-NO2-Ph-N2-OH-B3LYPG-6-31G_dp-MTMO-d009-169-n900
 OpenBabel09051908023D

 17 16  0  0  0  0  0  0  0  0999 V2000
    0.5713    0.8055    0.5785 C   0  0  0  0  0  0  0  0  0  0  0  0
    0.3775    1.2756    1.8684 C   0  0  0  0  0  0  0  0  0  0  0  0
   -0.8047    0.9600    2.5564 C   0  0  0  0  0  0  0  0  0  0  0  0
   -1.7900    0.1705    1.9440 C   0  0  0  0  0  0  0  0  0  0  0  0
   -1.5974   -0.3013    0.6518 C   0  0  0  0  0  0  0  0  0  0  0  0
   -0.4185    0.0209   -0.0192 C   0  0  0  0  0  0  0  0  0  0  0  0
    1.4726    1.0333    0.0232 H   0  0  0  0  0  0  0  0  0  0  0  0
    1.1245    1.8865    2.3632 H   0  0  0  0  0  0  0  0  0  0  0  0
   -2.7039   -0.0728    2.4804 H   0  0  0  0  0  0  0  0  0  0  0  0
   -2.3411   -0.9117    0.1550 H   0  0  0  0  0  0  0  0  0  0  0  0
    0.2699   -4.9310  -13.1139 N   0  0  0  0  0  0  0  0  0  0  0  0
    0.7230   -5.5905  -12.3514 N   0  0  0  0  0  0  0  0  0  0  0  0
   -0.9383    1.4486    3.8149 O   0  0  0  0  0  0  0  0  0  0  0  0
   -1.7877    1.1715    4.1837 H   0  0  0  0  0  0  0  0  0  0  0  0
   -0.2153   -0.4740   -1.3801 N   0  0  0  0  0  0  0  0  0  0  0  0
   -1.1072   -1.1626   -1.8797 O   0  0  0  0  0  0  0  0  0  0  0  0
    0.8361   -0.1743   -1.9482 O   0  0  0  0  0  0  0  0  0  0  0  0
  1  2  1  0  0  0  0
  2  8  1  0  0  0  0
  2  3  2  0  0  0  0
  3 13  1  0  0  0  0
  4  9  1  0  0  0  0
  4  3  1  0  0  0  0
  5  4  2  0  0  0  0
  6  1  2  0  0  0  0
  6  5  1  0  0  0  0
  7  1  1  0  0  0  0
 10  5  1  0  0  0  0
 11 12  3  0  0  0  0
 13 14  1  0  0  0  0
 15  6  1  0  0  0  0
 16 15  2  0  0  0  0
 17 15  2  0  0  0  0
M  END
