Coordinates from ORCA-job 4-NO2-Ph-N2-OH-B3LYPG-6-31G_dp-MTMO-d009-169-n900
 OpenBabel09051908023D

 17 16  0  0  0  0  0  0  0  0999 V2000
    0.5783    0.7711    0.4900 C   0  0  0  0  0  0  0  0  0  0  0  0
    0.3859    1.2362    1.7819 C   0  0  0  0  0  0  0  0  0  0  0  0
   -0.7960    0.9188    2.4695 C   0  0  0  0  0  0  0  0  0  0  0  0
   -1.7824    0.1325    1.8548 C   0  0  0  0  0  0  0  0  0  0  0  0
   -1.5912   -0.3344    0.5606 C   0  0  0  0  0  0  0  0  0  0  0  0
   -0.4126   -0.0104   -0.1101 C   0  0  0  0  0  0  0  0  0  0  0  0
    1.4793    1.0004   -0.0651 H   0  0  0  0  0  0  0  0  0  0  0  0
    1.1337    1.8446    2.2785 H   0  0  0  0  0  0  0  0  0  0  0  0
   -2.6961   -0.1123    2.3910 H   0  0  0  0  0  0  0  0  0  0  0  0
   -2.3357   -0.9423    0.0620 H   0  0  0  0  0  0  0  0  0  0  0  0
    0.2123   -4.6530  -12.4297 N   0  0  0  0  0  0  0  0  0  0  0  0
    0.6752   -5.3384  -11.6965 N   0  0  0  0  0  0  0  0  0  0  0  0
   -0.9283    1.4025    3.7301 O   0  0  0  0  0  0  0  0  0  0  0  0
   -1.7776    1.1246    4.0984 H   0  0  0  0  0  0  0  0  0  0  0  0
   -0.2107   -0.5002   -1.4730 N   0  0  0  0  0  0  0  0  0  0  0  0
   -1.1036   -1.1861   -1.9747 O   0  0  0  0  0  0  0  0  0  0  0  0
    0.8404   -0.1990   -2.0407 O   0  0  0  0  0  0  0  0  0  0  0  0
  1  2  1  0  0  0  0
  2  8  1  0  0  0  0
  2  3  2  0  0  0  0
  3 13  1  0  0  0  0
  4  9  1  0  0  0  0
  4  3  1  0  0  0  0
  5  4  2  0  0  0  0
  6  1  2  0  0  0  0
  6  5  1  0  0  0  0
  7  1  1  0  0  0  0
 10  5  1  0  0  0  0
 11 12  3  0  0  0  0
 13 14  1  0  0  0  0
 15  6  1  0  0  0  0
 16 15  2  0  0  0  0
 17 15  2  0  0  0  0
M  END
