Coordinates from ORCA-job 4-NO2-Ph-N2-OH-B3LYPG-6-31G_dp-MTMO-d009-169-n900
 OpenBabel09051908023D

 17 16  0  0  0  0  0  0  0  0999 V2000
    0.5764    0.7806    0.5145 C   0  0  0  0  0  0  0  0  0  0  0  0
    0.3836    1.2471    1.8058 C   0  0  0  0  0  0  0  0  0  0  0  0
   -0.7984    0.9303    2.4935 C   0  0  0  0  0  0  0  0  0  0  0  0
   -1.7845    0.1430    1.8795 C   0  0  0  0  0  0  0  0  0  0  0  0
   -1.5930   -0.3252    0.5859 C   0  0  0  0  0  0  0  0  0  0  0  0
   -0.4143   -0.0018   -0.0849 C   0  0  0  0  0  0  0  0  0  0  0  0
    1.4775    1.0094   -0.0407 H   0  0  0  0  0  0  0  0  0  0  0  0
    1.1312    1.8562    2.3019 H   0  0  0  0  0  0  0  0  0  0  0  0
   -2.6983   -0.1013    2.4157 H   0  0  0  0  0  0  0  0  0  0  0  0
   -2.3372   -0.9338    0.0877 H   0  0  0  0  0  0  0  0  0  0  0  0
    0.2277   -4.7300  -12.6189 N   0  0  0  0  0  0  0  0  0  0  0  0
    0.6890   -5.4079  -11.8777 N   0  0  0  0  0  0  0  0  0  0  0  0
   -0.9311    1.4154    3.7535 O   0  0  0  0  0  0  0  0  0  0  0  0
   -1.7804    1.1377    4.1220 H   0  0  0  0  0  0  0  0  0  0  0  0
   -0.2120   -0.4930   -1.4473 N   0  0  0  0  0  0  0  0  0  0  0  0
   -1.1046   -1.1797   -1.9484 O   0  0  0  0  0  0  0  0  0  0  0  0
    0.8392   -0.1923   -2.0151 O   0  0  0  0  0  0  0  0  0  0  0  0
  1  2  1  0  0  0  0
  2  8  1  0  0  0  0
  2  3  2  0  0  0  0
  3 13  1  0  0  0  0
  4  9  1  0  0  0  0
  4  3  1  0  0  0  0
  5  4  2  0  0  0  0
  6  1  2  0  0  0  0
  6  5  1  0  0  0  0
  7  1  1  0  0  0  0
 10  5  1  0  0  0  0
 11 12  3  0  0  0  0
 13 14  1  0  0  0  0
 15  6  1  0  0  0  0
 16 15  2  0  0  0  0
 17 15  2  0  0  0  0
M  END
