Coordinates from ORCA-job 4-NO2-Ph-N2-OH-B3LYPG-6-31G_dp-MTMO-d009-169-n900
 OpenBabel09051908013D

 17 16  0  0  0  0  0  0  0  0999 V2000
   -0.5405   -0.6177   -1.3326 C   0  0  0  0  0  0  0  0  0  0  0  0
    0.3837    0.0536   -0.5462 C   0  0  0  0  0  0  0  0  0  0  0  0
    0.0320    0.4594    0.7511 C   0  0  0  0  0  0  0  0  0  0  0  0
   -1.2495    0.1883    1.2546 C   0  0  0  0  0  0  0  0  0  0  0  0
   -2.1762   -0.4843    0.4676 C   0  0  0  0  0  0  0  0  0  0  0  0
   -1.8131   -0.8810   -0.8189 C   0  0  0  0  0  0  0  0  0  0  0  0
   -0.2977   -0.9424   -2.3363 H   0  0  0  0  0  0  0  0  0  0  0  0
    1.3792    0.2744   -0.9148 H   0  0  0  0  0  0  0  0  0  0  0  0
   -1.5182    0.5046    2.2591 H   0  0  0  0  0  0  0  0  0  0  0  0
   -3.1717   -0.7070    0.8300 H   0  0  0  0  0  0  0  0  0  0  0  0
    4.4578    0.0666   -4.3611 N   0  0  0  0  0  0  0  0  0  0  0  0
    3.7137    0.1013   -3.5445 N   0  0  0  0  0  0  0  0  0  0  0  0
    0.9775    1.1131    1.4726 O   0  0  0  0  0  0  0  0  0  0  0  0
    0.6229    1.3459    2.3410 H   0  0  0  0  0  0  0  0  0  0  0  0
   -2.7878   -1.5883   -1.6480 N   0  0  0  0  0  0  0  0  0  0  0  0
   -3.9022   -1.8031   -1.1669 O   0  0  0  0  0  0  0  0  0  0  0  0
   -2.4390   -1.9287   -2.7798 O   0  0  0  0  0  0  0  0  0  0  0  0
  1  6  2  0  0  0  0
  1  2  1  0  0  0  0
  2  3  2  0  0  0  0
  3  4  1  0  0  0  0
  3 13  1  0  0  0  0
  4  9  1  0  0  0  0
  5 10  1  0  0  0  0
  5  4  2  0  0  0  0
  6  5  1  0  0  0  0
  7  1  1  0  0  0  0
  8  2  1  0  0  0  0
 11 12  3  0  0  0  0
 13 14  1  0  0  0  0
 15 16  2  0  0  0  0
 15  6  1  0  0  0  0
 17 15  2  0  0  0  0
M  END
