Coordinates from ORCA-job 4-NO2-Ph-N2-OH-B3LYPG-6-31G_dp-MTMO-d009-169-n900
 OpenBabel09051908013D

 17 16  0  0  0  0  0  0  0  0999 V2000
   -0.5388   -0.6260   -1.3534 C   0  0  0  0  0  0  0  0  0  0  0  0
    0.3940    0.0446   -0.5765 C   0  0  0  0  0  0  0  0  0  0  0  0
    0.0536    0.4556    0.7222 C   0  0  0  0  0  0  0  0  0  0  0  0
   -1.2248    0.1904    1.2365 C   0  0  0  0  0  0  0  0  0  0  0  0
   -2.1599   -0.4815    0.4590 C   0  0  0  0  0  0  0  0  0  0  0  0
   -1.8082   -0.8834   -0.8290 C   0  0  0  0  0  0  0  0  0  0  0  0
   -0.3051   -0.9547   -2.3579 H   0  0  0  0  0  0  0  0  0  0  0  0
    1.3872    0.2604   -0.9546 H   0  0  0  0  0  0  0  0  0  0  0  0
   -1.4844    0.5109    2.2421 H   0  0  0  0  0  0  0  0  0  0  0  0
   -3.1533   -0.6997    0.8298 H   0  0  0  0  0  0  0  0  0  0  0  0
    4.3754    0.0918   -4.2227 N   0  0  0  0  0  0  0  0  0  0  0  0
    3.6165    0.1166   -3.4196 N   0  0  0  0  0  0  0  0  0  0  0  0
    1.0068    1.1084    1.4343 O   0  0  0  0  0  0  0  0  0  0  0  0
    0.6596    1.3454    2.3045 H   0  0  0  0  0  0  0  0  0  0  0  0
   -2.7917   -1.5899   -1.6482 N   0  0  0  0  0  0  0  0  0  0  0  0
   -3.9031   -1.7993   -1.1580 O   0  0  0  0  0  0  0  0  0  0  0  0
   -2.4529   -1.9352   -2.7816 O   0  0  0  0  0  0  0  0  0  0  0  0
  1  6  2  0  0  0  0
  1  2  1  0  0  0  0
  2  3  2  0  0  0  0
  3  4  1  0  0  0  0
  3 13  1  0  0  0  0
  4  9  1  0  0  0  0
  5 10  1  0  0  0  0
  5  4  2  0  0  0  0
  6  5  1  0  0  0  0
  7  1  1  0  0  0  0
  8  2  1  0  0  0  0
 11 12  3  0  0  0  0
 13 14  1  0  0  0  0
 15 16  2  0  0  0  0
 15  6  1  0  0  0  0
 17 15  2  0  0  0  0
M  END
