Coordinates from ORCA-job 4-NO2-Ph-N2-OH-B3LYPG-6-31G_dp-MTMO-d009-169-n900
 OpenBabel09051908013D

 17 16  0  0  0  0  0  0  0  0999 V2000
    0.6359    0.5153   -0.1840 C   0  0  0  0  0  0  0  0  0  0  0  0
    0.4469    0.9326    1.1247 C   0  0  0  0  0  0  0  0  0  0  0  0
   -0.7342    0.5923    1.8027 C   0  0  0  0  0  0  0  0  0  0  0  0
   -1.7235   -0.1688    1.1611 C   0  0  0  0  0  0  0  0  0  0  0  0
   -1.5357   -0.5876   -0.1499 C   0  0  0  0  0  0  0  0  0  0  0  0
   -0.3578   -0.2414   -0.8107 C   0  0  0  0  0  0  0  0  0  0  0  0
    1.5364    0.7632   -0.7319 H   0  0  0  0  0  0  0  0  0  0  0  0
    1.1969    1.5205    1.6421 H   0  0  0  0  0  0  0  0  0  0  0  0
   -2.6365   -0.4316    1.6897 H   0  0  0  0  0  0  0  0  0  0  0  0
   -2.2823   -1.1751   -0.6695 H   0  0  0  0  0  0  0  0  0  0  0  0
   -0.2111   -2.5693   -7.2121 N   0  0  0  0  0  0  0  0  0  0  0  0
    0.2326   -3.3753   -6.5997 N   0  0  0  0  0  0  0  0  0  0  0  0
   -0.8626    1.0292    3.0805 O   0  0  0  0  0  0  0  0  0  0  0  0
   -1.7116    0.7397    3.4405 H   0  0  0  0  0  0  0  0  0  0  0  0
   -0.1594   -0.6812   -2.1910 N   0  0  0  0  0  0  0  0  0  0  0  0
   -1.0549   -1.3456   -2.7165 O   0  0  0  0  0  0  0  0  0  0  0  0
    0.8918   -0.3624   -2.7491 O   0  0  0  0  0  0  0  0  0  0  0  0
  1  2  1  0  0  0  0
  2  8  1  0  0  0  0
  2  3  2  0  0  0  0
  3 13  1  0  0  0  0
  4  9  1  0  0  0  0
  4  3  1  0  0  0  0
  5  4  2  0  0  0  0
  6  1  2  0  0  0  0
  6  5  1  0  0  0  0
  7  1  1  0  0  0  0
 10  5  1  0  0  0  0
 11 12  3  0  0  0  0
 13 14  1  0  0  0  0
 15  6  1  0  0  0  0
 16 15  2  0  0  0  0
 17 15  2  0  0  0  0
M  END
