Coordinates from ORCA-job 4-NO2-Ph-N2-OH-B3LYPG-6-31G_dp-MTMO-d009-169-n900
 OpenBabel09051908013D

 17 16  0  0  0  0  0  0  0  0999 V2000
   -0.9267   -1.1615   -1.0852 C   0  0  0  0  0  0  0  0  0  0  0  0
    0.0884   -0.2738   -0.6846 C   0  0  0  0  0  0  0  0  0  0  0  0
   -0.3458    0.7679    0.0645 C   0  0  0  0  0  0  0  0  0  0  0  0
   -1.5945    1.1091    0.5004 C   0  0  0  0  0  0  0  0  0  0  0  0
   -2.5954    0.2103    0.0908 C   0  0  0  0  0  0  0  0  0  0  0  0
   -2.2384   -0.8944   -0.6865 C   0  0  0  0  0  0  0  0  0  0  0  0
   -0.7123   -2.0366   -1.6883 H   0  0  0  0  0  0  0  0  0  0  0  0
    1.1378   -0.4224   -0.9619 H   0  0  0  0  0  0  0  0  0  0  0  0
   -1.8240    1.9816    1.1031 H   0  0  0  0  0  0  0  0  0  0  0  0
   -3.6329    0.3602    0.3676 H   0  0  0  0  0  0  0  0  0  0  0  0
    2.9807    1.5911    0.0116 N   0  0  0  0  0  0  0  0  0  0  0  0
    3.0431    0.6435   -0.6003 N   0  0  0  0  0  0  0  0  0  0  0  0
    4.6657    0.1391   -1.2072 O   0  0  0  0  0  0  0  0  0  0  0  0
    4.3498   -0.6707   -1.6445 H   0  0  0  0  0  0  0  0  0  0  0  0
   -3.3024   -1.8247   -1.1090 N   0  0  0  0  0  0  0  0  0  0  0  0
   -4.4513   -1.5718   -0.7530 O   0  0  0  0  0  0  0  0  0  0  0  0
   -2.9711   -2.7923   -1.7905 O   0  0  0  0  0  0  0  0  0  0  0  0
  1  6  2  0  0  0  0
  1  2  1  0  0  0  0
  2  3  2  0  0  0  0
  3  4  1  0  0  0  0
  4  9  1  0  0  0  0
  5 10  1  0  0  0  0
  5  4  2  0  0  0  0
  6  5  1  0  0  0  0
  7  1  1  0  0  0  0
  8  2  1  0  0  0  0
 12 11  2  0  0  0  0
 13 12  1  0  0  0  0
 14 13  1  0  0  0  0
 15 16  2  0  0  0  0
 15  6  1  0  0  0  0
 17 15  2  0  0  0  0
M  RAD  2   3   2  11   2
M  END
