Coordinates from ORCA-job 4-NO2-Ph-N2-OH-B3LYPG-6-31G_dp-MTMO-d009-169-n900
 OpenBabel09051908013D

 17 16  0  0  0  0  0  0  0  0999 V2000
    0.6157    0.5933    0.0235 C   0  0  0  0  0  0  0  0  0  0  0  0
    0.4299    1.0256    1.3277 C   0  0  0  0  0  0  0  0  0  0  0  0
   -0.7501    0.6942    2.0120 C   0  0  0  0  0  0  0  0  0  0  0  0
   -1.7415   -0.0731    1.3813 C   0  0  0  0  0  0  0  0  0  0  0  0
   -1.5570   -0.5070    0.0747 C   0  0  0  0  0  0  0  0  0  0  0  0
   -0.3802   -0.1694   -0.5924 C   0  0  0  0  0  0  0  0  0  0  0  0
    1.5152    0.8342   -0.5291 H   0  0  0  0  0  0  0  0  0  0  0  0
    1.1816    1.6187    1.8367 H   0  0  0  0  0  0  0  0  0  0  0  0
   -2.6537   -0.3290    1.9148 H   0  0  0  0  0  0  0  0  0  0  0  0
   -2.3054   -1.0996   -0.4363 H   0  0  0  0  0  0  0  0  0  0  0  0
   -0.0615   -3.2173   -8.8451 N   0  0  0  0  0  0  0  0  0  0  0  0
    0.3810   -3.9910   -8.1916 N   0  0  0  0  0  0  0  0  0  0  0  0
   -0.8756    1.1457    3.2851 O   0  0  0  0  0  0  0  0  0  0  0  0
   -1.7241    0.8611    3.6499 H   0  0  0  0  0  0  0  0  0  0  0  0
   -0.1854   -0.6248   -1.9682 N   0  0  0  0  0  0  0  0  0  0  0  0
   -1.0827   -1.2944   -2.4838 O   0  0  0  0  0  0  0  0  0  0  0  0
    0.8646   -0.3128   -2.5323 O   0  0  0  0  0  0  0  0  0  0  0  0
  1  2  1  0  0  0  0
  2  8  1  0  0  0  0
  2  3  2  0  0  0  0
  3 13  1  0  0  0  0
  4  9  1  0  0  0  0
  4  3  1  0  0  0  0
  5  4  2  0  0  0  0
  6  1  2  0  0  0  0
  6  5  1  0  0  0  0
  7  1  1  0  0  0  0
 10  5  1  0  0  0  0
 11 12  3  0  0  0  0
 13 14  1  0  0  0  0
 15  6  1  0  0  0  0
 16 15  2  0  0  0  0
 17 15  2  0  0  0  0
M  END
