Coordinates from ORCA-job 4-NO2-Ph-N2-OH-B3LYPG-6-31G_dp-MTMO-d009-169-n900
 OpenBabel09051908013D

 17 16  0  0  0  0  0  0  0  0999 V2000
   -1.0571   -1.4422   -1.2429 C   0  0  0  0  0  0  0  0  0  0  0  0
    0.1406   -0.7570   -1.0038 C   0  0  0  0  0  0  0  0  0  0  0  0
    0.0341    0.3790   -0.2505 C   0  0  0  0  0  0  0  0  0  0  0  0
   -1.0893    0.9389    0.3033 C   0  0  0  0  0  0  0  0  0  0  0  0
   -2.2821    0.2448    0.0577 C   0  0  0  0  0  0  0  0  0  0  0  0
   -2.2381   -0.9238   -0.7062 C   0  0  0  0  0  0  0  0  0  0  0  0
   -1.0903   -2.3544   -1.8264 H   0  0  0  0  0  0  0  0  0  0  0  0
    1.1007   -1.0951   -1.3870 H   0  0  0  0  0  0  0  0  0  0  0  0
   -1.0686    1.8516    0.8878 H   0  0  0  0  0  0  0  0  0  0  0  0
   -3.2318    0.5936    0.4450 H   0  0  0  0  0  0  0  0  0  0  0  0
    2.2006    1.4019    0.0345 N   0  0  0  0  0  0  0  0  0  0  0  0
    2.8477    0.6139   -0.5802 N   0  0  0  0  0  0  0  0  0  0  0  0
    4.2593    0.9624   -0.6017 O   0  0  0  0  0  0  0  0  0  0  0  0
    4.6142    0.2282   -1.1276 H   0  0  0  0  0  0  0  0  0  0  0  0
   -3.4987   -1.6438   -0.9595 N   0  0  0  0  0  0  0  0  0  0  0  0
   -4.5292   -1.1733   -0.4812 O   0  0  0  0  0  0  0  0  0  0  0  0
   -3.4412   -2.6703   -1.6344 O   0  0  0  0  0  0  0  0  0  0  0  0
  1  2  2  0  0  0  0
  1  6  1  0  0  0  0
  2  3  1  0  0  0  0
  3  4  2  0  0  0  0
  4  9  1  0  0  0  0
  5  4  1  0  0  0  0
  5 10  1  0  0  0  0
  6  5  2  0  0  0  0
  7  1  1  0  0  0  0
  8  2  1  0  0  0  0
 12 11  1  0  0  0  0
 13 12  1  0  0  0  0
 14 13  1  0  0  0  0
 15  6  1  0  0  0  0
 15 16  2  0  0  0  0
 17 15  2  0  0  0  0
M  RAD  3   3   2  11   3  12   2
M  END
