Coordinates from ORCA-job 4-NO2-Ph-N2-OH-B3LYPG-6-31G_dp-MTMO-d009-169-n900
 OpenBabel09051908023D

 17 16  0  0  0  0  0  0  0  0999 V2000
    0.5770    0.7777    0.5069 C   0  0  0  0  0  0  0  0  0  0  0  0
    0.3843    1.2438    1.7984 C   0  0  0  0  0  0  0  0  0  0  0  0
   -0.7977    0.9267    2.4861 C   0  0  0  0  0  0  0  0  0  0  0  0
   -1.7839    0.1398    1.8719 C   0  0  0  0  0  0  0  0  0  0  0  0
   -1.5924   -0.3281    0.5781 C   0  0  0  0  0  0  0  0  0  0  0  0
   -0.4137   -0.0045   -0.0927 C   0  0  0  0  0  0  0  0  0  0  0  0
    1.4781    1.0067   -0.0482 H   0  0  0  0  0  0  0  0  0  0  0  0
    1.1319    1.8526    2.2947 H   0  0  0  0  0  0  0  0  0  0  0  0
   -2.6976   -0.1047    2.4081 H   0  0  0  0  0  0  0  0  0  0  0  0
   -2.3368   -0.9364    0.0798 H   0  0  0  0  0  0  0  0  0  0  0  0
    0.2229   -4.7063  -12.5607 N   0  0  0  0  0  0  0  0  0  0  0  0
    0.6848   -5.3865  -11.8220 N   0  0  0  0  0  0  0  0  0  0  0  0
   -0.9302    1.4114    3.7463 O   0  0  0  0  0  0  0  0  0  0  0  0
   -1.7795    1.1337    4.1147 H   0  0  0  0  0  0  0  0  0  0  0  0
   -0.2116   -0.4952   -1.4552 N   0  0  0  0  0  0  0  0  0  0  0  0
   -1.1043   -1.1817   -1.9564 O   0  0  0  0  0  0  0  0  0  0  0  0
    0.8396   -0.1944   -2.0230 O   0  0  0  0  0  0  0  0  0  0  0  0
  1  2  1  0  0  0  0
  2  8  1  0  0  0  0
  2  3  2  0  0  0  0
  3 13  1  0  0  0  0
  4  9  1  0  0  0  0
  4  3  1  0  0  0  0
  5  4  2  0  0  0  0
  6  1  2  0  0  0  0
  6  5  1  0  0  0  0
  7  1  1  0  0  0  0
 10  5  1  0  0  0  0
 11 12  3  0  0  0  0
 13 14  1  0  0  0  0
 15  6  1  0  0  0  0
 16 15  2  0  0  0  0
 17 15  2  0  0  0  0
M  END
