Coordinates from ORCA-job 4-NO2-Ph-N2-OH-B3LYPG-6-31G_dp-MTMO-d009-169-n900
 OpenBabel09051908013D

 17 16  0  0  0  0  0  0  0  0999 V2000
    0.6183    0.5820   -0.0067 C   0  0  0  0  0  0  0  0  0  0  0  0
    0.4326    1.0119    1.2984 C   0  0  0  0  0  0  0  0  0  0  0  0
   -0.7474    0.6794    1.9821 C   0  0  0  0  0  0  0  0  0  0  0  0
   -1.7389   -0.0867    1.3501 C   0  0  0  0  0  0  0  0  0  0  0  0
   -1.5545   -0.5183    0.0427 C   0  0  0  0  0  0  0  0  0  0  0  0
   -0.3776   -0.1797   -0.6238 C   0  0  0  0  0  0  0  0  0  0  0  0
    1.5178    0.8237   -0.5589 H   0  0  0  0  0  0  0  0  0  0  0  0
    1.1844    1.6041    1.8084 H   0  0  0  0  0  0  0  0  0  0  0  0
   -2.6510   -0.3435    1.8831 H   0  0  0  0  0  0  0  0  0  0  0  0
   -2.3029   -1.1099   -0.4693 H   0  0  0  0  0  0  0  0  0  0  0  0
   -0.0805   -3.1249   -8.6118 N   0  0  0  0  0  0  0  0  0  0  0  0
    0.3607   -3.9023   -7.9618 N   0  0  0  0  0  0  0  0  0  0  0  0
   -0.8728    1.1287    3.2559 O   0  0  0  0  0  0  0  0  0  0  0  0
   -1.7213    0.8435    3.6203 H   0  0  0  0  0  0  0  0  0  0  0  0
   -0.1829   -0.6326   -2.0004 N   0  0  0  0  0  0  0  0  0  0  0  0
   -1.0803   -1.3013   -2.5172 O   0  0  0  0  0  0  0  0  0  0  0  0
    0.8671   -0.3198   -2.5641 O   0  0  0  0  0  0  0  0  0  0  0  0
  1  2  1  0  0  0  0
  2  8  1  0  0  0  0
  2  3  2  0  0  0  0
  3 13  1  0  0  0  0
  4  9  1  0  0  0  0
  4  3  1  0  0  0  0
  5  4  2  0  0  0  0
  6  1  2  0  0  0  0
  6  5  1  0  0  0  0
  7  1  1  0  0  0  0
 10  5  1  0  0  0  0
 11 12  3  0  0  0  0
 13 14  1  0  0  0  0
 15  6  1  0  0  0  0
 16 15  2  0  0  0  0
 17 15  2  0  0  0  0
M  END
