Coordinates from ORCA-job 4-NO2-Ph-N2-OH-B3LYPG-6-31G_dp-MTMO-d009-169-n900
 OpenBabel09051908013D

 17 16  0  0  0  0  0  0  0  0999 V2000
   -0.5584   -0.5619   -1.1719 C   0  0  0  0  0  0  0  0  0  0  0  0
    0.3024    0.1120   -0.3186 C   0  0  0  0  0  0  0  0  0  0  0  0
   -0.1330    0.4823    0.9636 C   0  0  0  0  0  0  0  0  0  0  0  0
   -1.4355    0.1732    1.3847 C   0  0  0  0  0  0  0  0  0  0  0  0
   -2.2992   -0.5020    0.5310 C   0  0  0  0  0  0  0  0  0  0  0  0
   -1.8526   -0.8635   -0.7396 C   0  0  0  0  0  0  0  0  0  0  0  0
   -0.2499   -0.8598   -2.1658 H   0  0  0  0  0  0  0  0  0  0  0  0
    1.3127    0.3627   -0.6215 H   0  0  0  0  0  0  0  0  0  0  0  0
   -1.7696    0.4621    2.3780 H   0  0  0  0  0  0  0  0  0  0  0  0
   -3.3088   -0.7533    0.8301 H   0  0  0  0  0  0  0  0  0  0  0  0
    5.1272   -0.0818   -5.3673 N   0  0  0  0  0  0  0  0  0  0  0  0
    4.4310   -0.0200   -4.5110 N   0  0  0  0  0  0  0  0  0  0  0  0
    0.7539    1.1398    1.7526 O   0  0  0  0  0  0  0  0  0  0  0  0
    0.3451    1.3443    2.6041 H   0  0  0  0  0  0  0  0  0  0  0  0
   -2.7606   -1.5740   -1.6387 N   0  0  0  0  0  0  0  0  0  0  0  0
   -3.8957   -1.8239   -1.2283 O   0  0  0  0  0  0  0  0  0  0  0  0
   -2.3382   -1.8819   -2.7546 O   0  0  0  0  0  0  0  0  0  0  0  0
  1  6  2  0  0  0  0
  1  2  1  0  0  0  0
  2  3  2  0  0  0  0
  3  4  1  0  0  0  0
  3 13  1  0  0  0  0
  4  9  1  0  0  0  0
  5 10  1  0  0  0  0
  5  4  2  0  0  0  0
  6  5  1  0  0  0  0
  7  1  1  0  0  0  0
  8  2  1  0  0  0  0
 11 12  3  0  0  0  0
 13 14  1  0  0  0  0
 15 16  2  0  0  0  0
 15  6  1  0  0  0  0
 17 15  2  0  0  0  0
M  END
