Coordinates from ORCA-job 4-NO2-Ph-N2-OH-B3LYPG-6-31G_dp-MTMO-d009-169-n900
 OpenBabel09051908013D

 17 16  0  0  0  0  0  0  0  0999 V2000
    0.6257    0.5517   -0.0871 C   0  0  0  0  0  0  0  0  0  0  0  0
    0.4395    0.9757    1.2198 C   0  0  0  0  0  0  0  0  0  0  0  0
   -0.7407    0.6399    1.9016 C   0  0  0  0  0  0  0  0  0  0  0  0
   -1.7318   -0.1234    1.2658 C   0  0  0  0  0  0  0  0  0  0  0  0
   -1.5470   -0.5489   -0.0435 C   0  0  0  0  0  0  0  0  0  0  0  0
   -0.3700   -0.2072   -0.7081 C   0  0  0  0  0  0  0  0  0  0  0  0
    1.5254    0.7961   -0.6379 H   0  0  0  0  0  0  0  0  0  0  0  0
    1.1911    1.5655    1.7328 H   0  0  0  0  0  0  0  0  0  0  0  0
   -2.6442   -0.3827    1.7972 H   0  0  0  0  0  0  0  0  0  0  0  0
   -2.2952   -1.1383   -0.5585 H   0  0  0  0  0  0  0  0  0  0  0  0
   -0.1340   -2.8763   -7.9849 N   0  0  0  0  0  0  0  0  0  0  0  0
    0.3044   -3.6645   -7.3462 N   0  0  0  0  0  0  0  0  0  0  0  0
   -0.8664    1.0833    3.1775 O   0  0  0  0  0  0  0  0  0  0  0  0
   -1.7151    0.7964    3.5404 H   0  0  0  0  0  0  0  0  0  0  0  0
   -0.1747   -0.6539   -2.0867 N   0  0  0  0  0  0  0  0  0  0  0  0
   -1.0718   -1.3202   -2.6069 O   0  0  0  0  0  0  0  0  0  0  0  0
    0.8756   -0.3386   -2.6485 O   0  0  0  0  0  0  0  0  0  0  0  0
  1  2  1  0  0  0  0
  2  8  1  0  0  0  0
  2  3  2  0  0  0  0
  3 13  1  0  0  0  0
  4  9  1  0  0  0  0
  4  3  1  0  0  0  0
  5  4  2  0  0  0  0
  6  1  2  0  0  0  0
  6  5  1  0  0  0  0
  7  1  1  0  0  0  0
 10  5  1  0  0  0  0
 11 12  3  0  0  0  0
 13 14  1  0  0  0  0
 15  6  1  0  0  0  0
 16 15  2  0  0  0  0
 17 15  2  0  0  0  0
M  END
