Coordinates from ORCA-job 4-NO2-Ph-N2-OH-B3LYPG-6-31G_dp-MTMO-d009-169-n900
 OpenBabel09051908013D

 17 16  0  0  0  0  0  0  0  0999 V2000
    0.6220    0.5664   -0.0480 C   0  0  0  0  0  0  0  0  0  0  0  0
    0.4362    0.9933    1.2581 C   0  0  0  0  0  0  0  0  0  0  0  0
   -0.7438    0.6591    1.9409 C   0  0  0  0  0  0  0  0  0  0  0  0
   -1.7353   -0.1054    1.3070 C   0  0  0  0  0  0  0  0  0  0  0  0
   -1.5508   -0.5339   -0.0014 C   0  0  0  0  0  0  0  0  0  0  0  0
   -0.3739   -0.1937   -0.6670 C   0  0  0  0  0  0  0  0  0  0  0  0
    1.5216    0.8094   -0.5995 H   0  0  0  0  0  0  0  0  0  0  0  0
    1.1880    1.5841    1.7695 H   0  0  0  0  0  0  0  0  0  0  0  0
   -2.6475   -0.3635    1.8393 H   0  0  0  0  0  0  0  0  0  0  0  0
   -2.2992   -1.1243   -0.5149 H   0  0  0  0  0  0  0  0  0  0  0  0
   -0.1074   -2.9977   -8.2911 N   0  0  0  0  0  0  0  0  0  0  0  0
    0.3323   -3.7804   -7.6463 N   0  0  0  0  0  0  0  0  0  0  0  0
   -0.8692    1.1054    3.2158 O   0  0  0  0  0  0  0  0  0  0  0  0
   -1.7178    0.8193    3.5795 H   0  0  0  0  0  0  0  0  0  0  0  0
   -0.1790   -0.6434   -2.0447 N   0  0  0  0  0  0  0  0  0  0  0  0
   -1.0764   -1.3108   -2.5631 O   0  0  0  0  0  0  0  0  0  0  0  0
    0.8710   -0.3294   -2.6075 O   0  0  0  0  0  0  0  0  0  0  0  0
  1  2  1  0  0  0  0
  2  8  1  0  0  0  0
  2  3  2  0  0  0  0
  3 13  1  0  0  0  0
  4  9  1  0  0  0  0
  4  3  1  0  0  0  0
  5  4  2  0  0  0  0
  6  1  2  0  0  0  0
  6  5  1  0  0  0  0
  7  1  1  0  0  0  0
 10  5  1  0  0  0  0
 11 12  3  0  0  0  0
 13 14  1  0  0  0  0
 15  6  1  0  0  0  0
 16 15  2  0  0  0  0
 17 15  2  0  0  0  0
M  END
