Coordinates from ORCA-job 4-NO2-Ph-N2-OH-B3LYPG-6-31G_dp-MTMO-d009-169-n900
 OpenBabel09051908013D

 17 17  0  0  0  0  0  0  0  0999 V2000
   -1.0323   -1.4966   -1.2763 C   0  0  0  0  0  0  0  0  0  0  0  0
    0.2116   -0.8983   -1.0945 C   0  0  0  0  0  0  0  0  0  0  0  0
    0.2787    0.2752   -0.3493 C   0  0  0  0  0  0  0  0  0  0  0  0
   -0.8383    0.8727    0.2208 C   0  0  0  0  0  0  0  0  0  0  0  0
   -2.0850    0.2761    0.0401 C   0  0  0  0  0  0  0  0  0  0  0  0
   -2.1579   -0.8989   -0.7064 C   0  0  0  0  0  0  0  0  0  0  0  0
   -1.1476   -2.4109   -1.8446 H   0  0  0  0  0  0  0  0  0  0  0  0
    1.1110   -1.3275   -1.5187 H   0  0  0  0  0  0  0  0  0  0  0  0
   -0.7242    1.7875    0.7908 H   0  0  0  0  0  0  0  0  0  0  0  0
   -2.9887    0.6982    0.4604 H   0  0  0  0  0  0  0  0  0  0  0  0
    1.6708    1.0721   -0.0615 N   0  0  0  0  0  0  0  0  0  0  0  0
    2.5934    0.4890   -0.6302 N   0  0  0  0  0  0  0  0  0  0  0  0
    3.7816    1.1728   -0.3814 O   0  0  0  0  0  0  0  0  0  0  0  0
    4.4291    0.6401   -0.8678 H   0  0  0  0  0  0  0  0  0  0  0  0
   -3.4721   -1.5345   -0.9021 N   0  0  0  0  0  0  0  0  0  0  0  0
   -4.4486   -0.9931   -0.3862 O   0  0  0  0  0  0  0  0  0  0  0  0
   -3.5107   -2.5695   -1.5660 O   0  0  0  0  0  0  0  0  0  0  0  0
  1  2  2  0  0  0  0
  1  6  1  0  0  0  0
  2  3  1  0  0  0  0
  3 11  1  0  0  0  0
  3  4  2  0  0  0  0
  4  9  1  0  0  0  0
  5  4  1  0  0  0  0
  5 10  1  0  0  0  0
  6  5  2  0  0  0  0
  7  1  1  0  0  0  0
  8  2  1  0  0  0  0
 12 13  1  0  0  0  0
 12 11  1  0  0  0  0
 14 13  1  0  0  0  0
 15  6  1  0  0  0  0
 15 16  2  0  0  0  0
 17 15  2  0  0  0  0
M  RAD  2  11   2  12   2
M  END
