Coordinates from ORCA-job 4-NO2-Ph-N2-OH-B3LYPG-6-31G_dp-MTMO-d009-169-n900
 OpenBabel09051908013D

 17 16  0  0  0  0  0  0  0  0999 V2000
    0.6206    0.5721   -0.0330 C   0  0  0  0  0  0  0  0  0  0  0  0
    0.4349    1.0000    1.2727 C   0  0  0  0  0  0  0  0  0  0  0  0
   -0.7451    0.6665    1.9559 C   0  0  0  0  0  0  0  0  0  0  0  0
   -1.7366   -0.0986    1.3227 C   0  0  0  0  0  0  0  0  0  0  0  0
   -1.5521   -0.5282    0.0147 C   0  0  0  0  0  0  0  0  0  0  0  0
   -0.3753   -0.1886   -0.6513 C   0  0  0  0  0  0  0  0  0  0  0  0
    1.5202    0.8146   -0.5848 H   0  0  0  0  0  0  0  0  0  0  0  0
    1.1867    1.5913    1.7836 H   0  0  0  0  0  0  0  0  0  0  0  0
   -2.6488   -0.3562    1.8553 H   0  0  0  0  0  0  0  0  0  0  0  0
   -2.3006   -1.1191   -0.4983 H   0  0  0  0  0  0  0  0  0  0  0  0
   -0.0975   -3.0440   -8.4077 N   0  0  0  0  0  0  0  0  0  0  0  0
    0.3428   -3.8247   -7.7610 N   0  0  0  0  0  0  0  0  0  0  0  0
   -0.8705    1.1138    3.2304 O   0  0  0  0  0  0  0  0  0  0  0  0
   -1.7190    0.8281    3.5944 H   0  0  0  0  0  0  0  0  0  0  0  0
   -0.1805   -0.6395   -2.0286 N   0  0  0  0  0  0  0  0  0  0  0  0
   -1.0779   -1.3073   -2.5464 O   0  0  0  0  0  0  0  0  0  0  0  0
    0.8695   -0.3259   -2.5917 O   0  0  0  0  0  0  0  0  0  0  0  0
  1  2  1  0  0  0  0
  2  8  1  0  0  0  0
  2  3  2  0  0  0  0
  3 13  1  0  0  0  0
  4  9  1  0  0  0  0
  4  3  1  0  0  0  0
  5  4  2  0  0  0  0
  6  1  2  0  0  0  0
  6  5  1  0  0  0  0
  7  1  1  0  0  0  0
 10  5  1  0  0  0  0
 11 12  3  0  0  0  0
 13 14  1  0  0  0  0
 15  6  1  0  0  0  0
 16 15  2  0  0  0  0
 17 15  2  0  0  0  0
M  END
