Coordinates from ORCA-job 4-NO2-Ph-N2-OH-B3LYPG-6-31G_dp-MTMO-d009-169-n900
 OpenBabel09051908013D

 17 17  0  0  0  0  0  0  0  0999 V2000
   -1.0365   -1.4954   -1.2757 C   0  0  0  0  0  0  0  0  0  0  0  0
    0.2055   -0.8914   -1.0918 C   0  0  0  0  0  0  0  0  0  0  0  0
    0.2575    0.2782   -0.3462 C   0  0  0  0  0  0  0  0  0  0  0  0
   -0.8551    0.8763    0.2250 C   0  0  0  0  0  0  0  0  0  0  0  0
   -2.0989    0.2731    0.0415 C   0  0  0  0  0  0  0  0  0  0  0  0
   -2.1646   -0.9021   -0.7062 C   0  0  0  0  0  0  0  0  0  0  0  0
   -1.1477   -2.4096   -1.8449 H   0  0  0  0  0  0  0  0  0  0  0  0
    1.1098   -1.3132   -1.5138 H   0  0  0  0  0  0  0  0  0  0  0  0
   -0.7447    1.7913    0.7954 H   0  0  0  0  0  0  0  0  0  0  0  0
   -3.0056    0.6903    0.4604 H   0  0  0  0  0  0  0  0  0  0  0  0
    1.7112    1.1097   -0.0491 N   0  0  0  0  0  0  0  0  0  0  0  0
    2.6112    0.5021   -0.6219 N   0  0  0  0  0  0  0  0  0  0  0  0
    3.8216    1.1623   -0.3956 O   0  0  0  0  0  0  0  0  0  0  0  0
    4.4488    0.6078   -0.8844 H   0  0  0  0  0  0  0  0  0  0  0  0
   -3.4761   -1.5432   -0.9041 N   0  0  0  0  0  0  0  0  0  0  0  0
   -4.4559   -1.0050   -0.3912 O   0  0  0  0  0  0  0  0  0  0  0  0
   -3.5097   -2.5767   -1.5705 O   0  0  0  0  0  0  0  0  0  0  0  0
  1  2  2  0  0  0  0
  1  6  1  0  0  0  0
  2  3  1  0  0  0  0
  3 11  1  0  0  0  0
  3  4  2  0  0  0  0
  4  9  1  0  0  0  0
  5  4  1  0  0  0  0
  5 10  1  0  0  0  0
  6  5  2  0  0  0  0
  7  1  1  0  0  0  0
  8  2  1  0  0  0  0
 12 13  1  0  0  0  0
 12 11  1  0  0  0  0
 14 13  1  0  0  0  0
 15  6  1  0  0  0  0
 15 16  2  0  0  0  0
 17 15  2  0  0  0  0
M  RAD  2  11   2  12   2
M  END
