Coordinates from ORCA-job 4-NO2-Ph-N2-OH-B3LYPG-6-31G_dp-MTMO-d009-169-n900
 OpenBabel09051908023D

 17 16  0  0  0  0  0  0  0  0999 V2000
    0.5782    0.7718    0.4919 C   0  0  0  0  0  0  0  0  0  0  0  0
    0.3857    1.2371    1.7837 C   0  0  0  0  0  0  0  0  0  0  0  0
   -0.7962    0.9197    2.4714 C   0  0  0  0  0  0  0  0  0  0  0  0
   -1.7826    0.1333    1.8567 C   0  0  0  0  0  0  0  0  0  0  0  0
   -1.5913   -0.3337    0.5625 C   0  0  0  0  0  0  0  0  0  0  0  0
   -0.4127   -0.0098   -0.1081 C   0  0  0  0  0  0  0  0  0  0  0  0
    1.4792    1.0011   -0.0632 H   0  0  0  0  0  0  0  0  0  0  0  0
    1.1335    1.8455    2.2803 H   0  0  0  0  0  0  0  0  0  0  0  0
   -2.6962   -0.1115    2.3929 H   0  0  0  0  0  0  0  0  0  0  0  0
   -2.3358   -0.9417    0.0640 H   0  0  0  0  0  0  0  0  0  0  0  0
    0.2135   -4.6590  -12.4443 N   0  0  0  0  0  0  0  0  0  0  0  0
    0.6763   -5.3438  -11.7105 N   0  0  0  0  0  0  0  0  0  0  0  0
   -0.9285    1.4035    3.7319 O   0  0  0  0  0  0  0  0  0  0  0  0
   -1.7778    1.1256    4.1002 H   0  0  0  0  0  0  0  0  0  0  0  0
   -0.2108   -0.4996   -1.4710 N   0  0  0  0  0  0  0  0  0  0  0  0
   -1.1037   -1.1856   -1.9726 O   0  0  0  0  0  0  0  0  0  0  0  0
    0.8403   -0.1985   -2.0388 O   0  0  0  0  0  0  0  0  0  0  0  0
  1  2  1  0  0  0  0
  2  8  1  0  0  0  0
  2  3  2  0  0  0  0
  3 13  1  0  0  0  0
  4  9  1  0  0  0  0
  4  3  1  0  0  0  0
  5  4  2  0  0  0  0
  6  1  2  0  0  0  0
  6  5  1  0  0  0  0
  7  1  1  0  0  0  0
 10  5  1  0  0  0  0
 11 12  3  0  0  0  0
 13 14  1  0  0  0  0
 15  6  1  0  0  0  0
 16 15  2  0  0  0  0
 17 15  2  0  0  0  0
M  END
