Coordinates from ORCA-job 4-NO2-Ph-N2-OH-B3LYPG-6-31G_dp-MTMO-d009-169-n900
 OpenBabel09051908013D

 17 16  0  0  0  0  0  0  0  0999 V2000
    0.6074    0.6306    0.1220 C   0  0  0  0  0  0  0  0  0  0  0  0
    0.4208    1.0704    1.4236 C   0  0  0  0  0  0  0  0  0  0  0  0
   -0.7594    0.7424    2.1091 C   0  0  0  0  0  0  0  0  0  0  0  0
   -1.7501   -0.0291    1.4824 C   0  0  0  0  0  0  0  0  0  0  0  0
   -1.5647   -0.4705    0.1785 C   0  0  0  0  0  0  0  0  0  0  0  0
   -0.3877   -0.1363   -0.4899 C   0  0  0  0  0  0  0  0  0  0  0  0
    1.5071    0.8687   -0.4317 H   0  0  0  0  0  0  0  0  0  0  0  0
    1.1720    1.6668    1.9295 H   0  0  0  0  0  0  0  0  0  0  0  0
   -2.6624   -0.2823    2.0169 H   0  0  0  0  0  0  0  0  0  0  0  0
   -2.3126   -1.0665   -0.3294 H   0  0  0  0  0  0  0  0  0  0  0  0
   -0.0015   -3.5176   -9.6034 N   0  0  0  0  0  0  0  0  0  0  0  0
    0.4452   -4.2796   -8.9390 N   0  0  0  0  0  0  0  0  0  0  0  0
   -0.8858    1.2013    3.3795 O   0  0  0  0  0  0  0  0  0  0  0  0
   -1.7345    0.9183    3.7455 H   0  0  0  0  0  0  0  0  0  0  0  0
   -0.1920   -0.5994   -1.8630 N   0  0  0  0  0  0  0  0  0  0  0  0
   -1.0887   -1.2726   -2.3751 O   0  0  0  0  0  0  0  0  0  0  0  0
    0.8580   -0.2901   -2.4284 O   0  0  0  0  0  0  0  0  0  0  0  0
  1  2  1  0  0  0  0
  2  8  1  0  0  0  0
  2  3  2  0  0  0  0
  3 13  1  0  0  0  0
  4  9  1  0  0  0  0
  4  3  1  0  0  0  0
  5  4  2  0  0  0  0
  6  1  2  0  0  0  0
  6  5  1  0  0  0  0
  7  1  1  0  0  0  0
 10  5  1  0  0  0  0
 11 12  3  0  0  0  0
 13 14  1  0  0  0  0
 15  6  1  0  0  0  0
 16 15  2  0  0  0  0
 17 15  2  0  0  0  0
M  END
