Coordinates from ORCA-job 4-NO2-Ph-N2-OH-B3LYPG-6-31G_dp-MTMO-d009-169-n900
 OpenBabel09051908023D

 17 16  0  0  0  0  0  0  0  0999 V2000
    0.5826    0.7500    0.4353 C   0  0  0  0  0  0  0  0  0  0  0  0
    0.3910    1.2119    1.7285 C   0  0  0  0  0  0  0  0  0  0  0  0
   -0.7906    0.8931    2.4159 C   0  0  0  0  0  0  0  0  0  0  0  0
   -1.7777    0.1087    1.7996 C   0  0  0  0  0  0  0  0  0  0  0  0
   -1.5873   -0.3548    0.5041 C   0  0  0  0  0  0  0  0  0  0  0  0
   -0.4089   -0.0296   -0.1663 C   0  0  0  0  0  0  0  0  0  0  0  0
    1.4835    0.9805   -0.1196 H   0  0  0  0  0  0  0  0  0  0  0  0
    1.1393    1.8186    2.2263 H   0  0  0  0  0  0  0  0  0  0  0  0
   -2.6911   -0.1371    2.3357 H   0  0  0  0  0  0  0  0  0  0  0  0
   -2.3323   -0.9612    0.0043 H   0  0  0  0  0  0  0  0  0  0  0  0
    0.1792   -4.4813  -12.0076 N   0  0  0  0  0  0  0  0  0  0  0  0
    0.6428   -5.1833  -11.2907 N   0  0  0  0  0  0  0  0  0  0  0  0
   -0.9221    1.3736    3.6778 O   0  0  0  0  0  0  0  0  0  0  0  0
   -1.7713    1.0950    4.0459 H   0  0  0  0  0  0  0  0  0  0  0  0
   -0.2079   -0.5158   -1.5306 N   0  0  0  0  0  0  0  0  0  0  0  0
   -1.1013   -1.2001   -2.0336 O   0  0  0  0  0  0  0  0  0  0  0  0
    0.8431   -0.2136   -2.0981 O   0  0  0  0  0  0  0  0  0  0  0  0
  1  2  1  0  0  0  0
  2  8  1  0  0  0  0
  2  3  2  0  0  0  0
  3 13  1  0  0  0  0
  4  9  1  0  0  0  0
  4  3  1  0  0  0  0
  5  4  2  0  0  0  0
  6  1  2  0  0  0  0
  6  5  1  0  0  0  0
  7  1  1  0  0  0  0
 10  5  1  0  0  0  0
 11 12  3  0  0  0  0
 13 14  1  0  0  0  0
 15  6  1  0  0  0  0
 16 15  2  0  0  0  0
 17 15  2  0  0  0  0
M  END
