Coordinates from ORCA-job 4-NO2-Ph-N2-OH-B3LYPG-6-31G_dp-MTMO-d009-169-n900
 OpenBabel09051908013D

 17 16  0  0  0  0  0  0  0  0999 V2000
   -0.8797   -1.1868   -1.6050 C   0  0  0  0  0  0  0  0  0  0  0  0
    0.3483   -0.7268   -1.1542 C   0  0  0  0  0  0  0  0  0  0  0  0
    0.4276   -0.0212    0.0567 C   0  0  0  0  0  0  0  0  0  0  0  0
   -0.7295    0.2215    0.8121 C   0  0  0  0  0  0  0  0  0  0  0  0
   -1.9607   -0.2383    0.3614 C   0  0  0  0  0  0  0  0  0  0  0  0
   -2.0242   -0.9386   -0.8426 C   0  0  0  0  0  0  0  0  0  0  0  0
   -0.9721   -1.7332   -2.5351 H   0  0  0  0  0  0  0  0  0  0  0  0
    1.2568   -0.8987   -1.7206 H   0  0  0  0  0  0  0  0  0  0  0  0
   -0.6637    0.7674    1.7501 H   0  0  0  0  0  0  0  0  0  0  0  0
   -2.8700   -0.0654    0.9231 H   0  0  0  0  0  0  0  0  0  0  0  0
    3.7796    2.0561   -1.3670 N   0  0  0  0  0  0  0  0  0  0  0  0
    3.6848    1.2900   -2.1578 N   0  0  0  0  0  0  0  0  0  0  0  0
    1.6573    0.4022    0.4455 O   0  0  0  0  0  0  0  0  0  0  0  0
    1.5915    0.8769    1.2849 H   0  0  0  0  0  0  0  0  0  0  0  0
   -3.3198   -1.4236   -1.3174 N   0  0  0  0  0  0  0  0  0  0  0  0
   -4.3107   -1.1844   -0.6247 O   0  0  0  0  0  0  0  0  0  0  0  0
   -3.3446   -2.0426   -2.3824 O   0  0  0  0  0  0  0  0  0  0  0  0
  1  2  2  0  0  0  0
  1  6  1  0  0  0  0
  2  3  1  0  0  0  0
  3 13  1  0  0  0  0
  3  4  2  0  0  0  0
  4  9  1  0  0  0  0
  5  4  1  0  0  0  0
  5 10  1  0  0  0  0
  6  5  2  0  0  0  0
  7  1  1  0  0  0  0
  8  2  1  0  0  0  0
 12 11  3  0  0  0  0
 13 14  1  0  0  0  0
 15  6  1  0  0  0  0
 15 16  2  0  0  0  0
 17 15  2  0  0  0  0
M  END
