Coordinates from ORCA-job 4-NO2-Ph-N2-OH-B3LYPG-6-31G_dp-MTMO-d009-169-n900
 OpenBabel09051908023D

 17 16  0  0  0  0  0  0  0  0999 V2000
    0.5825    0.7508    0.4372 C   0  0  0  0  0  0  0  0  0  0  0  0
    0.3908    1.2127    1.7304 C   0  0  0  0  0  0  0  0  0  0  0  0
   -0.7908    0.8940    2.4178 C   0  0  0  0  0  0  0  0  0  0  0  0
   -1.7778    0.1095    1.8015 C   0  0  0  0  0  0  0  0  0  0  0  0
   -1.5874   -0.3541    0.5061 C   0  0  0  0  0  0  0  0  0  0  0  0
   -0.4090   -0.0289   -0.1644 C   0  0  0  0  0  0  0  0  0  0  0  0
    1.4833    0.9812   -0.1178 H   0  0  0  0  0  0  0  0  0  0  0  0
    1.1391    1.8195    2.2281 H   0  0  0  0  0  0  0  0  0  0  0  0
   -2.6913   -0.1363    2.3376 H   0  0  0  0  0  0  0  0  0  0  0  0
   -2.3324   -0.9605    0.0063 H   0  0  0  0  0  0  0  0  0  0  0  0
    0.1803   -4.4872  -12.0222 N   0  0  0  0  0  0  0  0  0  0  0  0
    0.6439   -5.1887  -11.3047 N   0  0  0  0  0  0  0  0  0  0  0  0
   -0.9223    1.3746    3.6796 O   0  0  0  0  0  0  0  0  0  0  0  0
   -1.7715    1.0960    4.0477 H   0  0  0  0  0  0  0  0  0  0  0  0
   -0.2080   -0.5153   -1.5286 N   0  0  0  0  0  0  0  0  0  0  0  0
   -1.1014   -1.1996   -2.0315 O   0  0  0  0  0  0  0  0  0  0  0  0
    0.8430   -0.2131   -2.0961 O   0  0  0  0  0  0  0  0  0  0  0  0
  1  2  1  0  0  0  0
  2  8  1  0  0  0  0
  2  3  2  0  0  0  0
  3 13  1  0  0  0  0
  4  9  1  0  0  0  0
  4  3  1  0  0  0  0
  5  4  2  0  0  0  0
  6  1  2  0  0  0  0
  6  5  1  0  0  0  0
  7  1  1  0  0  0  0
 10  5  1  0  0  0  0
 11 12  3  0  0  0  0
 13 14  1  0  0  0  0
 15  6  1  0  0  0  0
 16 15  2  0  0  0  0
 17 15  2  0  0  0  0
M  END
