Coordinates from ORCA-job 4-NO2-Ph-N2-OH-B3LYPG-6-31G_dp-MTMO-d009-169-n900
 OpenBabel09051908013D

 17 16  0  0  0  0  0  0  0  0999 V2000
   -0.7553   -0.7840   -1.5361 C   0  0  0  0  0  0  0  0  0  0  0  0
    0.3106   -0.1320   -0.9342 C   0  0  0  0  0  0  0  0  0  0  0  0
    0.1762    0.3622    0.3728 C   0  0  0  0  0  0  0  0  0  0  0  0
   -1.0294    0.1985    1.0718 C   0  0  0  0  0  0  0  0  0  0  0  0
   -2.0977   -0.4545    0.4695 C   0  0  0  0  0  0  0  0  0  0  0  0
   -1.9507   -0.9397   -0.8293 C   0  0  0  0  0  0  0  0  0  0  0  0
   -0.6825   -1.1750   -2.5428 H   0  0  0  0  0  0  0  0  0  0  0  0
    1.2518    0.0070   -1.4545 H   0  0  0  0  0  0  0  0  0  0  0  0
   -1.1285    0.5822    2.0839 H   0  0  0  0  0  0  0  0  0  0  0  0
   -3.0393   -0.5946    0.9856 H   0  0  0  0  0  0  0  0  0  0  0  0
    4.7314    0.7751   -2.8865 N   0  0  0  0  0  0  0  0  0  0  0  0
    3.6966    0.4400   -2.6917 N   0  0  0  0  0  0  0  0  0  0  0  0
    1.2515    0.9928    0.9100 O   0  0  0  0  0  0  0  0  0  0  0  0
    1.0407    1.2918    1.8046 H   0  0  0  0  0  0  0  0  0  0  0  0
   -3.0742   -1.6257   -1.4656 N   0  0  0  0  0  0  0  0  0  0  0  0
   -4.1167   -1.7426   -0.8182 O   0  0  0  0  0  0  0  0  0  0  0  0
   -2.9138   -2.0471   -2.6123 O   0  0  0  0  0  0  0  0  0  0  0  0
  1  2  2  0  0  0  0
  1  6  1  0  0  0  0
  2  3  1  0  0  0  0
  3 13  1  0  0  0  0
  3  4  2  0  0  0  0
  4  9  1  0  0  0  0
  5 10  1  0  0  0  0
  5  4  1  0  0  0  0
  6  5  2  0  0  0  0
  7  1  1  0  0  0  0
  8  2  1  0  0  0  0
 11 12  3  0  0  0  0
 13 14  1  0  0  0  0
 15  6  1  0  0  0  0
 15 16  2  0  0  0  0
 17 15  2  0  0  0  0
M  END
