Coordinates from ORCA-job 4-NO2-Ph-N2-OH-B3LYPG-6-31G_dp-MTMO-d009-169-n900
 OpenBabel09051908023D

 17 16  0  0  0  0  0  0  0  0999 V2000
    0.5944    0.6928    0.2855 C   0  0  0  0  0  0  0  0  0  0  0  0
    0.4052    1.1446    1.5826 C   0  0  0  0  0  0  0  0  0  0  0  0
   -0.7757    0.8217    2.2693 C   0  0  0  0  0  0  0  0  0  0  0  0
   -1.7645    0.0432    1.6485 C   0  0  0  0  0  0  0  0  0  0  0  0
   -1.5766   -0.4104    0.3491 C   0  0  0  0  0  0  0  0  0  0  0  0
   -0.3989   -0.0810   -0.3207 C   0  0  0  0  0  0  0  0  0  0  0  0
    1.4946    0.9266   -0.2690 H   0  0  0  0  0  0  0  0  0  0  0  0
    1.1549    1.7466    2.0840 H   0  0  0  0  0  0  0  0  0  0  0  0
   -2.6774   -0.2060    2.1840 H   0  0  0  0  0  0  0  0  0  0  0  0
   -2.3230   -1.0119   -0.1544 H   0  0  0  0  0  0  0  0  0  0  0  0
    0.0934   -4.0170  -10.8571 N   0  0  0  0  0  0  0  0  0  0  0  0
    0.5492   -4.7546  -10.1715 N   0  0  0  0  0  0  0  0  0  0  0  0
   -0.9046    1.2924    3.5351 O   0  0  0  0  0  0  0  0  0  0  0  0
   -1.7535    1.0118    3.9024 H   0  0  0  0  0  0  0  0  0  0  0  0
   -0.2006   -0.5568   -1.6891 N   0  0  0  0  0  0  0  0  0  0  0  0
   -1.0956   -1.2360   -2.1960 O   0  0  0  0  0  0  0  0  0  0  0  0
    0.8498   -0.2514   -2.2558 O   0  0  0  0  0  0  0  0  0  0  0  0
  1  2  1  0  0  0  0
  2  8  1  0  0  0  0
  2  3  2  0  0  0  0
  3 13  1  0  0  0  0
  4  9  1  0  0  0  0
  4  3  1  0  0  0  0
  5  4  2  0  0  0  0
  6  1  2  0  0  0  0
  6  5  1  0  0  0  0
  7  1  1  0  0  0  0
 10  5  1  0  0  0  0
 11 12  3  0  0  0  0
 13 14  1  0  0  0  0
 15  6  1  0  0  0  0
 16 15  2  0  0  0  0
 17 15  2  0  0  0  0
M  END
