Coordinates from ORCA-job 4-NO2-Ph-N2-OH-B3LYPG-6-31G_dp-MTMO-d009-169-n900
 OpenBabel09051908023D

 17 16  0  0  0  0  0  0  0  0999 V2000
    0.5918    0.7051    0.3178 C   0  0  0  0  0  0  0  0  0  0  0  0
    0.4021    1.1592    1.6140 C   0  0  0  0  0  0  0  0  0  0  0  0
   -0.7789    0.8372    2.3009 C   0  0  0  0  0  0  0  0  0  0  0  0
   -1.7673    0.0574    1.6811 C   0  0  0  0  0  0  0  0  0  0  0  0
   -1.5789   -0.3984    0.3826 C   0  0  0  0  0  0  0  0  0  0  0  0
   -0.4011   -0.0700   -0.2873 C   0  0  0  0  0  0  0  0  0  0  0  0
    1.4921    0.9382   -0.2368 H   0  0  0  0  0  0  0  0  0  0  0  0
    1.1515    1.7623    2.1146 H   0  0  0  0  0  0  0  0  0  0  0  0
   -2.6803   -0.1910    2.2167 H   0  0  0  0  0  0  0  0  0  0  0  0
   -2.3250   -1.0011   -0.1200 H   0  0  0  0  0  0  0  0  0  0  0  0
    0.1118   -4.1164  -11.1047 N   0  0  0  0  0  0  0  0  0  0  0  0
    0.5696   -4.8477  -10.4138 N   0  0  0  0  0  0  0  0  0  0  0  0
   -0.9084    1.3101    3.5659 O   0  0  0  0  0  0  0  0  0  0  0  0
   -1.7574    1.0300    3.9333 H   0  0  0  0  0  0  0  0  0  0  0  0
   -0.2022   -0.5482   -1.6548 N   0  0  0  0  0  0  0  0  0  0  0  0
   -1.0968   -1.2285   -2.1609 O   0  0  0  0  0  0  0  0  0  0  0  0
    0.8484   -0.2434   -2.2217 O   0  0  0  0  0  0  0  0  0  0  0  0
  1  2  1  0  0  0  0
  2  8  1  0  0  0  0
  2  3  2  0  0  0  0
  3 13  1  0  0  0  0
  4  9  1  0  0  0  0
  4  3  1  0  0  0  0
  5  4  2  0  0  0  0
  6  1  2  0  0  0  0
  6  5  1  0  0  0  0
  7  1  1  0  0  0  0
 10  5  1  0  0  0  0
 11 12  3  0  0  0  0
 13 14  1  0  0  0  0
 15  6  1  0  0  0  0
 16 15  2  0  0  0  0
 17 15  2  0  0  0  0
M  END
