Coordinates from ORCA-job 4-NO2-Ph-N2-OH-B3LYPG-6-31G_dp-MTMO-d009-169-n900
 OpenBabel09051908023D

 17 16  0  0  0  0  0  0  0  0999 V2000
    0.5995    0.6681    0.2208 C   0  0  0  0  0  0  0  0  0  0  0  0
    0.4114    1.1153    1.5197 C   0  0  0  0  0  0  0  0  0  0  0  0
   -0.7692    0.7904    2.2060 C   0  0  0  0  0  0  0  0  0  0  0  0
   -1.7588    0.0147    1.5830 C   0  0  0  0  0  0  0  0  0  0  0  0
   -1.5720   -0.4341    0.2818 C   0  0  0  0  0  0  0  0  0  0  0  0
   -0.3946   -0.1030   -0.3875 C   0  0  0  0  0  0  0  0  0  0  0  0
    1.4994    0.9036   -0.3334 H   0  0  0  0  0  0  0  0  0  0  0  0
    1.1617    1.7152    2.0228 H   0  0  0  0  0  0  0  0  0  0  0  0
   -2.6714   -0.2360    2.1182 H   0  0  0  0  0  0  0  0  0  0  0  0
   -2.3190   -1.0335   -0.2233 H   0  0  0  0  0  0  0  0  0  0  0  0
    0.0564   -3.8190  -10.3616 N   0  0  0  0  0  0  0  0  0  0  0  0
    0.5082   -4.5674   -9.6853 N   0  0  0  0  0  0  0  0  0  0  0  0
   -0.8970    1.2566    3.4736 O   0  0  0  0  0  0  0  0  0  0  0  0
   -1.7458    0.9751    3.8405 H   0  0  0  0  0  0  0  0  0  0  0  0
   -0.1974   -0.5738   -1.7578 N   0  0  0  0  0  0  0  0  0  0  0  0
   -1.0931   -1.2507   -2.2666 O   0  0  0  0  0  0  0  0  0  0  0  0
    0.8528   -0.2669   -2.3240 O   0  0  0  0  0  0  0  0  0  0  0  0
  1  2  1  0  0  0  0
  2  8  1  0  0  0  0
  2  3  2  0  0  0  0
  3 13  1  0  0  0  0
  4  9  1  0  0  0  0
  4  3  1  0  0  0  0
  5  4  2  0  0  0  0
  6  1  2  0  0  0  0
  6  5  1  0  0  0  0
  7  1  1  0  0  0  0
 10  5  1  0  0  0  0
 11 12  3  0  0  0  0
 13 14  1  0  0  0  0
 15  6  1  0  0  0  0
 16 15  2  0  0  0  0
 17 15  2  0  0  0  0
M  END
