Coordinates from ORCA-job 4-NO2-Ph-N2-OH-B3LYPG-6-31G_dp-MTMO-d009-169-n900
 OpenBabel09051908013D

 17 16  0  0  0  0  0  0  0  0999 V2000
   -0.8780   -1.0590   -1.6376 C   0  0  0  0  0  0  0  0  0  0  0  0
    0.3212   -0.5249   -1.1904 C   0  0  0  0  0  0  0  0  0  0  0  0
    0.3765    0.1183    0.0562 C   0  0  0  0  0  0  0  0  0  0  0  0
   -0.7751    0.2231    0.8509 C   0  0  0  0  0  0  0  0  0  0  0  0
   -1.9771   -0.3116    0.4039 C   0  0  0  0  0  0  0  0  0  0  0  0
   -2.0172   -0.9480   -0.8360 C   0  0  0  0  0  0  0  0  0  0  0  0
   -0.9512   -1.5599   -2.5945 H   0  0  0  0  0  0  0  0  0  0  0  0
    1.2244   -0.5904   -1.7866 H   0  0  0  0  0  0  0  0  0  0  0  0
   -0.7281    0.7214    1.8159 H   0  0  0  0  0  0  0  0  0  0  0  0
   -2.8816   -0.2449    0.9954 H   0  0  0  0  0  0  0  0  0  0  0  0
    4.0535    1.7295   -1.4826 N   0  0  0  0  0  0  0  0  0  0  0  0
    3.6673    0.9197   -2.1276 N   0  0  0  0  0  0  0  0  0  0  0  0
    1.5776    0.6210    0.4406 O   0  0  0  0  0  0  0  0  0  0  0  0
    1.4966    1.0345    1.3105 H   0  0  0  0  0  0  0  0  0  0  0  0
   -3.2821   -1.5110   -1.3072 N   0  0  0  0  0  0  0  0  0  0  0  0
   -4.2690   -1.3939   -0.5784 O   0  0  0  0  0  0  0  0  0  0  0  0
   -3.2868   -2.0692   -2.4057 O   0  0  0  0  0  0  0  0  0  0  0  0
  1  2  2  0  0  0  0
  1  6  1  0  0  0  0
  2  3  1  0  0  0  0
  3 13  1  0  0  0  0
  3  4  2  0  0  0  0
  4  9  1  0  0  0  0
  5  4  1  0  0  0  0
  5 10  1  0  0  0  0
  6  5  2  0  0  0  0
  7  1  1  0  0  0  0
  8  2  1  0  0  0  0
 12 11  3  0  0  0  0
 13 14  1  0  0  0  0
 15  6  1  0  0  0  0
 15 16  2  0  0  0  0
 17 15  2  0  0  0  0
M  END
