Coordinates from ORCA-job 4-NO2-Ph-N2-OH-B3LYPG-6-31G_dp-MTMO-d009-169-n900
 OpenBabel09051908013D

 17 16  0  0  0  0  0  0  0  0999 V2000
    0.6230    0.5622   -0.0592 C   0  0  0  0  0  0  0  0  0  0  0  0
    0.4372    0.9882    1.2471 C   0  0  0  0  0  0  0  0  0  0  0  0
   -0.7429    0.6536    1.9297 C   0  0  0  0  0  0  0  0  0  0  0  0
   -1.7343   -0.1105    1.2952 C   0  0  0  0  0  0  0  0  0  0  0  0
   -1.5497   -0.5382   -0.0134 C   0  0  0  0  0  0  0  0  0  0  0  0
   -0.3728   -0.1976   -0.6788 C   0  0  0  0  0  0  0  0  0  0  0  0
    1.5226    0.8056   -0.6105 H   0  0  0  0  0  0  0  0  0  0  0  0
    1.1889    1.5788    1.7590 H   0  0  0  0  0  0  0  0  0  0  0  0
   -2.6465   -0.3690    1.8273 H   0  0  0  0  0  0  0  0  0  0  0  0
   -2.2981   -1.1283   -0.5273 H   0  0  0  0  0  0  0  0  0  0  0  0
   -0.1148   -2.9630   -8.2036 N   0  0  0  0  0  0  0  0  0  0  0  0
    0.3244   -3.7473   -7.5604 N   0  0  0  0  0  0  0  0  0  0  0  0
   -0.8684    1.0991    3.2049 O   0  0  0  0  0  0  0  0  0  0  0  0
   -1.7170    0.8128    3.5684 H   0  0  0  0  0  0  0  0  0  0  0  0
   -0.1779   -0.6464   -2.0567 N   0  0  0  0  0  0  0  0  0  0  0  0
   -1.0752   -1.3135   -2.5756 O   0  0  0  0  0  0  0  0  0  0  0  0
    0.8723   -0.3320   -2.6192 O   0  0  0  0  0  0  0  0  0  0  0  0
  1  2  1  0  0  0  0
  2  8  1  0  0  0  0
  2  3  2  0  0  0  0
  3 13  1  0  0  0  0
  4  9  1  0  0  0  0
  4  3  1  0  0  0  0
  5  4  2  0  0  0  0
  6  1  2  0  0  0  0
  6  5  1  0  0  0  0
  7  1  1  0  0  0  0
 10  5  1  0  0  0  0
 11 12  3  0  0  0  0
 13 14  1  0  0  0  0
 15  6  1  0  0  0  0
 16 15  2  0  0  0  0
 17 15  2  0  0  0  0
M  END
