Coordinates from ORCA-job 4-NO2-Ph-N2-OH-B3LYPG-6-31G_dp-MTMO-d009-169-n900
 OpenBabel09051908013D

 17 16  0  0  0  0  0  0  0  0999 V2000
    0.6126    0.6069    0.0594 C   0  0  0  0  0  0  0  0  0  0  0  0
    0.4266    1.0419    1.3627 C   0  0  0  0  0  0  0  0  0  0  0  0
   -0.7534    0.7118    2.0475 C   0  0  0  0  0  0  0  0  0  0  0  0
   -1.7446   -0.0570    1.4183 C   0  0  0  0  0  0  0  0  0  0  0  0
   -1.5599   -0.4936    0.1127 C   0  0  0  0  0  0  0  0  0  0  0  0
   -0.3830   -0.1573   -0.5550 C   0  0  0  0  0  0  0  0  0  0  0  0
    1.5121    0.8467   -0.4936 H   0  0  0  0  0  0  0  0  0  0  0  0
    1.1782    1.6362    1.8705 H   0  0  0  0  0  0  0  0  0  0  0  0
   -2.6568   -0.3119    1.9522 H   0  0  0  0  0  0  0  0  0  0  0  0
   -2.3082   -1.0874   -0.3972 H   0  0  0  0  0  0  0  0  0  0  0  0
   -0.0392   -3.3269   -9.1222 N   0  0  0  0  0  0  0  0  0  0  0  0
    0.4047   -4.0965   -8.4647 N   0  0  0  0  0  0  0  0  0  0  0  0
   -0.8791    1.1660    3.3196 O   0  0  0  0  0  0  0  0  0  0  0  0
   -1.7277    0.8820    3.6849 H   0  0  0  0  0  0  0  0  0  0  0  0
   -0.1880   -0.6155   -1.9298 N   0  0  0  0  0  0  0  0  0  0  0  0
   -1.0851   -1.2864   -2.4440 O   0  0  0  0  0  0  0  0  0  0  0  0
    0.8620   -0.3045   -2.4945 O   0  0  0  0  0  0  0  0  0  0  0  0
  1  2  1  0  0  0  0
  2  8  1  0  0  0  0
  2  3  2  0  0  0  0
  3 13  1  0  0  0  0
  4  9  1  0  0  0  0
  4  3  1  0  0  0  0
  5  4  2  0  0  0  0
  6  1  2  0  0  0  0
  6  5  1  0  0  0  0
  7  1  1  0  0  0  0
 10  5  1  0  0  0  0
 11 12  3  0  0  0  0
 13 14  1  0  0  0  0
 15  6  1  0  0  0  0
 16 15  2  0  0  0  0
 17 15  2  0  0  0  0
M  END
