Coordinates from ORCA-job 4-NO2-Ph-N2-OH-B3LYPG-6-31G_dp-MTMO-d009-169-n900
 OpenBabel09051908013D

 17 16  0  0  0  0  0  0  0  0999 V2000
   -0.5632   -0.5762   -1.2071 C   0  0  0  0  0  0  0  0  0  0  0  0
    0.3143    0.0975   -0.3708 C   0  0  0  0  0  0  0  0  0  0  0  0
   -0.0991    0.4765    0.9161 C   0  0  0  0  0  0  0  0  0  0  0  0
   -1.3964    0.1763    1.3592 C   0  0  0  0  0  0  0  0  0  0  0  0
   -2.2768   -0.4986    0.5225 C   0  0  0  0  0  0  0  0  0  0  0  0
   -1.8521   -0.8687   -0.7531 C   0  0  0  0  0  0  0  0  0  0  0  0
   -0.2718   -0.8806   -2.2042 H   0  0  0  0  0  0  0  0  0  0  0  0
    1.3210    0.3414   -0.6909 H   0  0  0  0  0  0  0  0  0  0  0  0
   -1.7134    0.4719    2.3560 H   0  0  0  0  0  0  0  0  0  0  0  0
   -3.2828   -0.7431    0.8385 H   0  0  0  0  0  0  0  0  0  0  0  0
    5.0232   -0.0407   -5.1622 N   0  0  0  0  0  0  0  0  0  0  0  0
    4.3158    0.0144   -4.3147 N   0  0  0  0  0  0  0  0  0  0  0  0
    0.8035    1.1333    1.6877 O   0  0  0  0  0  0  0  0  0  0  0  0
    0.4089    1.3448    2.5443 H   0  0  0  0  0  0  0  0  0  0  0  0
   -2.7778   -1.5788   -1.6343 N   0  0  0  0  0  0  0  0  0  0  0  0
   -3.9077   -1.8202   -1.2049 O   0  0  0  0  0  0  0  0  0  0  0  0
   -2.3747   -1.8948   -2.7550 O   0  0  0  0  0  0  0  0  0  0  0  0
  1  6  2  0  0  0  0
  1  2  1  0  0  0  0
  2  3  2  0  0  0  0
  3  4  1  0  0  0  0
  3 13  1  0  0  0  0
  4  9  1  0  0  0  0
  5 10  1  0  0  0  0
  5  4  2  0  0  0  0
  6  5  1  0  0  0  0
  7  1  1  0  0  0  0
  8  2  1  0  0  0  0
 11 12  3  0  0  0  0
 13 14  1  0  0  0  0
 15 16  2  0  0  0  0
 15  6  1  0  0  0  0
 17 15  2  0  0  0  0
M  END
