Coordinates from ORCA-job 4-NO2-Ph-N2-OH-B3LYPG-6-31G_dp-MTMO-d009-169-n900
 OpenBabel09051908013D

 17 16  0  0  0  0  0  0  0  0999 V2000
    0.6327    0.5262   -0.1552 C   0  0  0  0  0  0  0  0  0  0  0  0
    0.4448    0.9454    1.1531 C   0  0  0  0  0  0  0  0  0  0  0  0
   -0.7359    0.6064    1.8324 C   0  0  0  0  0  0  0  0  0  0  0  0
   -1.7259   -0.1551    1.1927 C   0  0  0  0  0  0  0  0  0  0  0  0
   -1.5394   -0.5759   -0.1179 C   0  0  0  0  0  0  0  0  0  0  0  0
   -0.3618   -0.2310   -0.7800 C   0  0  0  0  0  0  0  0  0  0  0  0
    1.5329    0.7731   -0.7040 H   0  0  0  0  0  0  0  0  0  0  0  0
    1.1955    1.5337    1.6690 H   0  0  0  0  0  0  0  0  0  0  0  0
   -2.6387   -0.4170    1.7222 H   0  0  0  0  0  0  0  0  0  0  0  0
   -2.2867   -1.1638   -0.6358 H   0  0  0  0  0  0  0  0  0  0  0  0
   -0.1852   -2.6618   -7.4455 N   0  0  0  0  0  0  0  0  0  0  0  0
    0.2536   -3.4620   -6.8220 N   0  0  0  0  0  0  0  0  0  0  0  0
   -0.8632    1.0452    3.1098 O   0  0  0  0  0  0  0  0  0  0  0  0
   -1.7120    0.7564    3.4708 H   0  0  0  0  0  0  0  0  0  0  0  0
   -0.1647   -0.6728   -2.1598 N   0  0  0  0  0  0  0  0  0  0  0  0
   -1.0610   -1.3376   -2.6835 O   0  0  0  0  0  0  0  0  0  0  0  0
    0.8860   -0.3551   -2.7194 O   0  0  0  0  0  0  0  0  0  0  0  0
  1  2  1  0  0  0  0
  2  8  1  0  0  0  0
  2  3  2  0  0  0  0
  3 13  1  0  0  0  0
  4  9  1  0  0  0  0
  4  3  1  0  0  0  0
  5  4  2  0  0  0  0
  6  1  2  0  0  0  0
  6  5  1  0  0  0  0
  7  1  1  0  0  0  0
 10  5  1  0  0  0  0
 11 12  3  0  0  0  0
 13 14  1  0  0  0  0
 15  6  1  0  0  0  0
 16 15  2  0  0  0  0
 17 15  2  0  0  0  0
M  END
