Coordinates from ORCA-job 4-NO2-Ph-N2-OH-B3LYPG-6-31G_dp-MTMO-d009-169-n900
 OpenBabel09051908013D

 17 16  0  0  0  0  0  0  0  0999 V2000
   -1.0590   -1.4657   -1.2576 C   0  0  0  0  0  0  0  0  0  0  0  0
    0.1561   -0.8074   -1.0389 C   0  0  0  0  0  0  0  0  0  0  0  0
    0.0926    0.3371   -0.2878 C   0  0  0  0  0  0  0  0  0  0  0  0
   -1.0171    0.9176    0.2768 C   0  0  0  0  0  0  0  0  0  0  0  0
   -2.2283    0.2514    0.0524 C   0  0  0  0  0  0  0  0  0  0  0  0
   -2.2212   -0.9205   -0.7070 C   0  0  0  0  0  0  0  0  0  0  0  0
   -1.1205   -2.3791   -1.8366 H   0  0  0  0  0  0  0  0  0  0  0  0
    1.1006   -1.1697   -1.4347 H   0  0  0  0  0  0  0  0  0  0  0  0
   -0.9647    1.8319    0.8565 H   0  0  0  0  0  0  0  0  0  0  0  0
   -3.1643    0.6226    0.4515 H   0  0  0  0  0  0  0  0  0  0  0  0
    2.0654    1.3410    0.0198 N   0  0  0  0  0  0  0  0  0  0  0  0
    2.7831    0.5916   -0.5841 N   0  0  0  0  0  0  0  0  0  0  0  0
    4.1494    1.0382   -0.5330 O   0  0  0  0  0  0  0  0  0  0  0  0
    4.5876    0.3438   -1.0495 H   0  0  0  0  0  0  0  0  0  0  0  0
   -3.5004   -1.6142   -0.9400 N   0  0  0  0  0  0  0  0  0  0  0  0
   -4.5136   -1.1206   -0.4480 O   0  0  0  0  0  0  0  0  0  0  0  0
   -3.4747   -2.6434   -1.6129 O   0  0  0  0  0  0  0  0  0  0  0  0
  1  2  2  0  0  0  0
  1  6  1  0  0  0  0
  2  3  1  0  0  0  0
  3  4  2  0  0  0  0
  4  9  1  0  0  0  0
  5  4  1  0  0  0  0
  5 10  1  0  0  0  0
  6  5  2  0  0  0  0
  7  1  1  0  0  0  0
  8  2  1  0  0  0  0
 12 13  1  0  0  0  0
 12 11  1  0  0  0  0
 14 13  1  0  0  0  0
 15  6  1  0  0  0  0
 15 16  2  0  0  0  0
 17 15  2  0  0  0  0
M  RAD  3   3   2  11   3  12   2
M  END
