Coordinates from ORCA-job 4-NO2-Ph-N2-OH-B3LYPG-6-31G_dp-MTMO-d009-169-n900
 OpenBabel09051908013D

 17 16  0  0  0  0  0  0  0  0999 V2000
   -1.0595   -1.4599   -1.2538 C   0  0  0  0  0  0  0  0  0  0  0  0
    0.1511   -0.7942   -1.0297 C   0  0  0  0  0  0  0  0  0  0  0  0
    0.0755    0.3479   -0.2779 C   0  0  0  0  0  0  0  0  0  0  0  0
   -1.0375    0.9232    0.2840 C   0  0  0  0  0  0  0  0  0  0  0  0
   -2.2438    0.2494    0.0539 C   0  0  0  0  0  0  0  0  0  0  0  0
   -2.2268   -0.9218   -0.7069 C   0  0  0  0  0  0  0  0  0  0  0  0
   -1.1133   -2.3730   -1.8341 H   0  0  0  0  0  0  0  0  0  0  0  0
    1.1000   -1.1498   -1.4221 H   0  0  0  0  0  0  0  0  0  0  0  0
   -0.9936    1.8372    0.8650 H   0  0  0  0  0  0  0  0  0  0  0  0
   -3.1836    0.6144    0.4498 H   0  0  0  0  0  0  0  0  0  0  0  0
    2.1052    1.3602    0.0248 N   0  0  0  0  0  0  0  0  0  0  0  0
    2.8028    0.5994   -0.5822 N   0  0  0  0  0  0  0  0  0  0  0  0
    4.1832    1.0185   -0.5517 O   0  0  0  0  0  0  0  0  0  0  0  0
    4.5978    0.3119   -1.0711 H   0  0  0  0  0  0  0  0  0  0  0  0
   -3.5010   -1.6226   -0.9453 N   0  0  0  0  0  0  0  0  0  0  0  0
   -4.5189   -1.1352   -0.4569 O   0  0  0  0  0  0  0  0  0  0  0  0
   -3.4668   -2.6511   -1.6188 O   0  0  0  0  0  0  0  0  0  0  0  0
  1  2  2  0  0  0  0
  1  6  1  0  0  0  0
  2  3  1  0  0  0  0
  3  4  2  0  0  0  0
  4  9  1  0  0  0  0
  5  4  1  0  0  0  0
  5 10  1  0  0  0  0
  6  5  2  0  0  0  0
  7  1  1  0  0  0  0
  8  2  1  0  0  0  0
 12 13  1  0  0  0  0
 12 11  1  0  0  0  0
 14 13  1  0  0  0  0
 15  6  1  0  0  0  0
 15 16  2  0  0  0  0
 17 15  2  0  0  0  0
M  RAD  3   3   2  11   3  12   2
M  END
