Coordinates from ORCA-job 4-NO2-Ph-N2-OH-B3LYPG-6-31G_dp-MTMO-d009-169-n900
 OpenBabel09051908023D

 17 16  0  0  0  0  0  0  0  0999 V2000
    0.5806    0.7602    0.4617 C   0  0  0  0  0  0  0  0  0  0  0  0
    0.3885    1.2236    1.7543 C   0  0  0  0  0  0  0  0  0  0  0  0
   -0.7932    0.9055    2.4418 C   0  0  0  0  0  0  0  0  0  0  0  0
   -1.7800    0.1202    1.8263 C   0  0  0  0  0  0  0  0  0  0  0  0
   -1.5892   -0.3450    0.5314 C   0  0  0  0  0  0  0  0  0  0  0  0
   -0.4107   -0.0204   -0.1391 C   0  0  0  0  0  0  0  0  0  0  0  0
    1.4815    0.9901   -0.0933 H   0  0  0  0  0  0  0  0  0  0  0  0
    1.1366    1.8312    2.2515 H   0  0  0  0  0  0  0  0  0  0  0  0
   -2.6935   -0.1251    2.3624 H   0  0  0  0  0  0  0  0  0  0  0  0
   -2.3339   -0.9521    0.0322 H   0  0  0  0  0  0  0  0  0  0  0  0
    0.1950   -4.5642  -12.2114 N   0  0  0  0  0  0  0  0  0  0  0  0
    0.6587   -5.2583  -11.4869 N   0  0  0  0  0  0  0  0  0  0  0  0
   -0.9251    1.3876    3.7030 O   0  0  0  0  0  0  0  0  0  0  0  0
   -1.7744    1.1094    4.0712 H   0  0  0  0  0  0  0  0  0  0  0  0
   -0.2093   -0.5083   -1.5028 N   0  0  0  0  0  0  0  0  0  0  0  0
   -1.1024   -1.1934   -2.0051 O   0  0  0  0  0  0  0  0  0  0  0  0
    0.8418   -0.2066   -2.0704 O   0  0  0  0  0  0  0  0  0  0  0  0
  1  2  1  0  0  0  0
  2  8  1  0  0  0  0
  2  3  2  0  0  0  0
  3 13  1  0  0  0  0
  4  9  1  0  0  0  0
  4  3  1  0  0  0  0
  5  4  2  0  0  0  0
  6  1  2  0  0  0  0
  6  5  1  0  0  0  0
  7  1  1  0  0  0  0
 10  5  1  0  0  0  0
 11 12  3  0  0  0  0
 13 14  1  0  0  0  0
 15  6  1  0  0  0  0
 16 15  2  0  0  0  0
 17 15  2  0  0  0  0
M  END
