Coordinates from ORCA-job 4-NO2-Ph-N2-OH-B3LYPG-6-31G_dp-MTMO-d009-169-n900
 OpenBabel09051908013D

 17 16  0  0  0  0  0  0  0  0999 V2000
   -0.5577   -0.5911   -1.2518 C   0  0  0  0  0  0  0  0  0  0  0  0
    0.3371    0.0819   -0.4336 C   0  0  0  0  0  0  0  0  0  0  0  0
   -0.0534    0.4705    0.8577 C   0  0  0  0  0  0  0  0  0  0  0  0
   -1.3451    0.1804    1.3234 C   0  0  0  0  0  0  0  0  0  0  0  0
   -2.2427   -0.4939    0.5048 C   0  0  0  0  0  0  0  0  0  0  0  0
   -1.8408   -0.8735   -0.7754 C   0  0  0  0  0  0  0  0  0  0  0  0
   -0.2843   -0.9028   -2.2517 H   0  0  0  0  0  0  0  0  0  0  0  0
    1.3399    0.3180   -0.7712 H   0  0  0  0  0  0  0  0  0  0  0  0
   -1.6443    0.4833    2.3235 H   0  0  0  0  0  0  0  0  0  0  0  0
   -3.2450   -0.7309    0.8381 H   0  0  0  0  0  0  0  0  0  0  0  0
    4.8354   -0.0015   -4.8845 N   0  0  0  0  0  0  0  0  0  0  0  0
    4.1166    0.0476   -4.0463 N   0  0  0  0  0  0  0  0  0  0  0  0
    0.8652    1.1264    1.6110 O   0  0  0  0  0  0  0  0  0  0  0  0
    0.4855    1.3455    2.4723 H   0  0  0  0  0  0  0  0  0  0  0  0
   -2.7848   -1.5828   -1.6376 N   0  0  0  0  0  0  0  0  0  0  0  0
   -3.9091   -1.8150   -1.1888 O   0  0  0  0  0  0  0  0  0  0  0  0
   -2.4018   -1.9076   -2.7629 O   0  0  0  0  0  0  0  0  0  0  0  0
  1  6  2  0  0  0  0
  1  2  1  0  0  0  0
  2  3  2  0  0  0  0
  3  4  1  0  0  0  0
  3 13  1  0  0  0  0
  4  9  1  0  0  0  0
  5 10  1  0  0  0  0
  5  4  2  0  0  0  0
  6  5  1  0  0  0  0
  7  1  1  0  0  0  0
  8  2  1  0  0  0  0
 11 12  3  0  0  0  0
 13 14  1  0  0  0  0
 15 16  2  0  0  0  0
 15  6  1  0  0  0  0
 17 15  2  0  0  0  0
M  END
