Coordinates from ORCA-job 4-NO2-Ph-N2-OH-B3LYPG-6-31G_dp-MTMO-d009-169-n900
 OpenBabel09051908013D

 17 16  0  0  0  0  0  0  0  0999 V2000
    0.3785    0.0970   -0.5821 C   0  0  0  0  0  0  0  0  0  0  0  0
    0.5414    0.6390    0.6837 C   0  0  0  0  0  0  0  0  0  0  0  0
   -0.5104    0.5771    1.6117 C   0  0  0  0  0  0  0  0  0  0  0  0
   -1.7257   -0.0315    1.2623 C   0  0  0  0  0  0  0  0  0  0  0  0
   -1.8906   -0.5753   -0.0056 C   0  0  0  0  0  0  0  0  0  0  0  0
   -0.8370   -0.5060   -0.9165 C   0  0  0  0  0  0  0  0  0  0  0  0
    1.1727    0.1310   -1.3176 H   0  0  0  0  0  0  0  0  0  0  0  0
    1.4709    1.1141    0.9769 H   0  0  0  0  0  0  0  0  0  0  0  0
   -2.5389   -0.0797    1.9828 H   0  0  0  0  0  0  0  0  0  0  0  0
   -2.8171   -1.0510   -0.3012 H   0  0  0  0  0  0  0  0  0  0  0  0
    1.0803   -1.9959   -6.2741 N   0  0  0  0  0  0  0  0  0  0  0  0
    1.8837   -1.6316   -5.6084 N   0  0  0  0  0  0  0  0  0  0  0  0
   -0.2903    1.1246    2.8331 O   0  0  0  0  0  0  0  0  0  0  0  0
   -1.0793    1.0258    3.3827 H   0  0  0  0  0  0  0  0  0  0  0  0
   -1.0104   -1.0780   -2.2509 N   0  0  0  0  0  0  0  0  0  0  0  0
   -2.0932   -1.6048   -2.5133 O   0  0  0  0  0  0  0  0  0  0  0  0
   -0.0637   -1.0002   -3.0365 O   0  0  0  0  0  0  0  0  0  0  0  0
  1  2  1  0  0  0  0
  2  8  1  0  0  0  0
  2  3  2  0  0  0  0
  3 13  1  0  0  0  0
  4  3  1  0  0  0  0
  4  9  1  0  0  0  0
  5  4  2  0  0  0  0
  6  1  2  0  0  0  0
  6  5  1  0  0  0  0
  7  1  1  0  0  0  0
 10  5  1  0  0  0  0
 11 12  3  0  0  0  0
 13 14  1  0  0  0  0
 15  6  1  0  0  0  0
 16 15  2  0  0  0  0
 17 15  2  0  0  0  0
M  END
