Coordinates from ORCA-job 4-NO2-Ph-N2-OH-B3LYPG-6-31G_dp-MTMO-d009-169-n900
 OpenBabel09051908013D

 17 16  0  0  0  0  0  0  0  0999 V2000
   -0.5791   -0.6755   -1.4284 C   0  0  0  0  0  0  0  0  0  0  0  0
    0.3977   -0.0094   -0.7034 C   0  0  0  0  0  0  0  0  0  0  0  0
    0.1193    0.4302    0.6004 C   0  0  0  0  0  0  0  0  0  0  0  0
   -1.1408    0.1978    1.1725 C   0  0  0  0  0  0  0  0  0  0  0  0
   -2.1197   -0.4697    0.4470 C   0  0  0  0  0  0  0  0  0  0  0  0
   -1.8297   -0.9000   -0.8472 C   0  0  0  0  0  0  0  0  0  0  0  0
   -0.3936   -1.0253   -2.4359 H   0  0  0  0  0  0  0  0  0  0  0  0
    1.3777    0.1814   -1.1259 H   0  0  0  0  0  0  0  0  0  0  0  0
   -1.3522    0.5400    2.1823 H   0  0  0  0  0  0  0  0  0  0  0  0
   -3.1006   -0.6630    0.8625 H   0  0  0  0  0  0  0  0  0  0  0  0
    4.3076    0.2755   -3.7290 N   0  0  0  0  0  0  0  0  0  0  0  0
    3.4532    0.2133   -3.0309 N   0  0  0  0  0  0  0  0  0  0  0  0
    1.1129    1.0776    1.2605 O   0  0  0  0  0  0  0  0  0  0  0  0
    0.8057    1.3367    2.1395 H   0  0  0  0  0  0  0  0  0  0  0  0
   -2.8595   -1.6014   -1.6120 N   0  0  0  0  0  0  0  0  0  0  0  0
   -3.9533   -1.7810   -1.0728 O   0  0  0  0  0  0  0  0  0  0  0  0
   -2.5747   -1.9726   -2.7521 O   0  0  0  0  0  0  0  0  0  0  0  0
  1  6  2  0  0  0  0
  1  2  1  0  0  0  0
  2  3  2  0  0  0  0
  3  4  1  0  0  0  0
  3 13  1  0  0  0  0
  4  9  1  0  0  0  0
  5 10  1  0  0  0  0
  5  4  2  0  0  0  0
  6  5  1  0  0  0  0
  7  1  1  0  0  0  0
  8  2  1  0  0  0  0
 11 12  3  0  0  0  0
 13 14  1  0  0  0  0
 15 16  2  0  0  0  0
 15  6  1  0  0  0  0
 17 15  2  0  0  0  0
M  END
