Coordinates from ORCA-job 4-NO2-Ph-N2-OH-B3LYPG-6-31G_dp-MTMO-d009-169-n900
 OpenBabel09051908013D

 17 16  0  0  0  0  0  0  0  0999 V2000
    0.6286    0.5406   -0.1167 C   0  0  0  0  0  0  0  0  0  0  0  0
    0.4419    0.9624    1.1908 C   0  0  0  0  0  0  0  0  0  0  0  0
   -0.7384    0.6254    1.8717 C   0  0  0  0  0  0  0  0  0  0  0  0
   -1.7293   -0.1371    1.2343 C   0  0  0  0  0  0  0  0  0  0  0  0
   -1.5439   -0.5605   -0.0756 C   0  0  0  0  0  0  0  0  0  0  0  0
   -0.3667   -0.2175   -0.7393 C   0  0  0  0  0  0  0  0  0  0  0  0
    1.5285    0.7860   -0.6668 H   0  0  0  0  0  0  0  0  0  0  0  0
    1.1932    1.5515    1.7050 H   0  0  0  0  0  0  0  0  0  0  0  0
   -2.6417   -0.3975    1.7650 H   0  0  0  0  0  0  0  0  0  0  0  0
   -2.2919   -1.1492   -0.5918 H   0  0  0  0  0  0  0  0  0  0  0  0
   -0.1552   -2.7835   -7.7517 N   0  0  0  0  0  0  0  0  0  0  0  0
    0.2828   -3.5766   -7.1186 N   0  0  0  0  0  0  0  0  0  0  0  0
   -0.8647    1.0667    3.1482 O   0  0  0  0  0  0  0  0  0  0  0  0
   -1.7134    0.7791    3.5104 H   0  0  0  0  0  0  0  0  0  0  0  0
   -0.1708   -0.6620   -2.1185 N   0  0  0  0  0  0  0  0  0  0  0  0
   -1.0677   -1.3276   -2.6401 O   0  0  0  0  0  0  0  0  0  0  0  0
    0.8796   -0.3457   -2.6794 O   0  0  0  0  0  0  0  0  0  0  0  0
  1  2  1  0  0  0  0
  2  8  1  0  0  0  0
  2  3  2  0  0  0  0
  3 13  1  0  0  0  0
  4  9  1  0  0  0  0
  4  3  1  0  0  0  0
  5  4  2  0  0  0  0
  6  1  2  0  0  0  0
  6  5  1  0  0  0  0
  7  1  1  0  0  0  0
 10  5  1  0  0  0  0
 11 12  3  0  0  0  0
 13 14  1  0  0  0  0
 15  6  1  0  0  0  0
 16 15  2  0  0  0  0
 17 15  2  0  0  0  0
M  END
