Coordinates from ORCA-job 4-NO2-Ph-N2-OH-B3LYPG-6-31G_dp-MTMO-d009-169-n900
 OpenBabel09051908013D

 17 15  0  0  0  0  0  0  0  0999 V2000
   -0.9002   -1.0635   -1.0410 C   0  0  0  0  0  0  0  0  0  0  0  0
    0.0511   -0.1249   -0.5967 C   0  0  0  0  0  0  0  0  0  0  0  0
   -0.4737    0.8747    0.1527 C   0  0  0  0  0  0  0  0  0  0  0  0
   -1.7516    1.1360    0.5546 C   0  0  0  0  0  0  0  0  0  0  0  0
   -2.6842    0.1857    0.1005 C   0  0  0  0  0  0  0  0  0  0  0  0
   -2.2369   -0.8824   -0.6807 C   0  0  0  0  0  0  0  0  0  0  0  0
   -0.6129   -1.9133   -1.6501 H   0  0  0  0  0  0  0  0  0  0  0  0
    1.1115   -0.2149   -0.8468 H   0  0  0  0  0  0  0  0  0  0  0  0
   -2.0514    1.9833    1.1626 H   0  0  0  0  0  0  0  0  0  0  0  0
   -3.7368    0.2700    0.3474 H   0  0  0  0  0  0  0  0  0  0  0  0
    3.2222    1.6623   -0.0286 N   0  0  0  0  0  0  0  0  0  0  0  0
    3.0999    0.7088   -0.5938 N   0  0  0  0  0  0  0  0  0  0  0  0
    4.7866   -0.1714   -1.3938 O   0  0  0  0  0  0  0  0  0  0  0  0
    4.2951   -0.9324   -1.7508 H   0  0  0  0  0  0  0  0  0  0  0  0
   -3.2290   -1.8690   -1.1496 N   0  0  0  0  0  0  0  0  0  0  0  0
   -4.4010   -1.6908   -0.8259 O   0  0  0  0  0  0  0  0  0  0  0  0
   -2.8178   -2.8036   -1.8330 O   0  0  0  0  0  0  0  0  0  0  0  0
  1  6  2  0  0  0  0
  1  2  1  0  0  0  0
  2  3  2  0  0  0  0
  3  4  1  0  0  0  0
  4  9  1  0  0  0  0
  5 10  1  0  0  0  0
  5  4  2  0  0  0  0
  6  5  1  0  0  0  0
  7  1  1  0  0  0  0
  8  2  1  0  0  0  0
 12 11  3  0  0  0  0
 14 13  1  0  0  0  0
 15 16  2  0  0  0  0
 15  6  1  0  0  0  0
 17 15  2  0  0  0  0
M  RAD  2   3   2  13   2
M  END
