Coordinates from ORCA-job 4-NO2-Ph-N2-OH-B3LYPG-6-31G_dp-MTMO-d009-169-n900
 OpenBabel09051908013D

 17 16  0  0  0  0  0  0  0  0999 V2000
   -0.5508   -0.6018   -1.2851 C   0  0  0  0  0  0  0  0  0  0  0  0
    0.3562    0.0706   -0.4799 C   0  0  0  0  0  0  0  0  0  0  0  0
   -0.0184    0.4661    0.8141 C   0  0  0  0  0  0  0  0  0  0  0  0
   -1.3059    0.1835    1.2954 C   0  0  0  0  0  0  0  0  0  0  0  0
   -2.2156   -0.4902    0.4897 C   0  0  0  0  0  0  0  0  0  0  0  0
   -1.8296   -0.8766   -0.7933 C   0  0  0  0  0  0  0  0  0  0  0  0
   -0.2901   -0.9188   -2.2868 H   0  0  0  0  0  0  0  0  0  0  0  0
    1.3560    0.3006   -0.8305 H   0  0  0  0  0  0  0  0  0  0  0  0
   -1.5926    0.4919    2.2975 H   0  0  0  0  0  0  0  0  0  0  0  0
   -3.2152   -0.7215    0.8351 H   0  0  0  0  0  0  0  0  0  0  0  0
    4.6802    0.0254   -4.6711 N   0  0  0  0  0  0  0  0  0  0  0  0
    3.9535    0.0704   -3.8395 N   0  0  0  0  0  0  0  0  0  0  0  0
    0.9114    1.1212    1.5543 O   0  0  0  0  0  0  0  0  0  0  0  0
    0.5421    1.3459    2.4187 H   0  0  0  0  0  0  0  0  0  0  0  0
   -2.7864   -1.5853   -1.6420 N   0  0  0  0  0  0  0  0  0  0  0  0
   -3.9066   -1.8105   -1.1798 O   0  0  0  0  0  0  0  0  0  0  0  0
   -2.4174   -1.9163   -2.7701 O   0  0  0  0  0  0  0  0  0  0  0  0
  1  6  2  0  0  0  0
  1  2  1  0  0  0  0
  2  3  2  0  0  0  0
  3  4  1  0  0  0  0
  3 13  1  0  0  0  0
  4  9  1  0  0  0  0
  5 10  1  0  0  0  0
  5  4  2  0  0  0  0
  6  5  1  0  0  0  0
  7  1  1  0  0  0  0
  8  2  1  0  0  0  0
 11 12  3  0  0  0  0
 13 14  1  0  0  0  0
 15 16  2  0  0  0  0
 15  6  1  0  0  0  0
 17 15  2  0  0  0  0
M  END
