Coordinates from ORCA-job 4-NO2-Ph-N2-OH-B3LYPG-6-31G_dp-MTMO-d009-169-n900
 OpenBabel09051908013D

 17 16  0  0  0  0  0  0  0  0999 V2000
   -0.5569   -0.5922   -1.2555 C   0  0  0  0  0  0  0  0  0  0  0  0
    0.3393    0.0807   -0.4386 C   0  0  0  0  0  0  0  0  0  0  0  0
   -0.0495    0.4700    0.8530 C   0  0  0  0  0  0  0  0  0  0  0  0
   -1.3407    0.1807    1.3203 C   0  0  0  0  0  0  0  0  0  0  0  0
   -2.2396   -0.4935    0.5031 C   0  0  0  0  0  0  0  0  0  0  0  0
   -1.8394   -0.8738   -0.7774 C   0  0  0  0  0  0  0  0  0  0  0  0
   -0.2848   -0.9045   -2.2556 H   0  0  0  0  0  0  0  0  0  0  0  0
    1.3418    0.3162   -0.7777 H   0  0  0  0  0  0  0  0  0  0  0  0
   -1.6387    0.4842    2.3206 H   0  0  0  0  0  0  0  0  0  0  0  0
   -3.2417   -0.7299    0.8377 H   0  0  0  0  0  0  0  0  0  0  0  0
    4.8177    0.0012   -4.8611 N   0  0  0  0  0  0  0  0  0  0  0  0
    4.0984    0.0501   -4.0233 N   0  0  0  0  0  0  0  0  0  0  0  0
    0.8703    1.1258    1.6048 O   0  0  0  0  0  0  0  0  0  0  0  0
    0.4917    1.3455    2.4665 H   0  0  0  0  0  0  0  0  0  0  0  0
   -2.7849   -1.5831   -1.6381 N   0  0  0  0  0  0  0  0  0  0  0  0
   -3.9087   -1.8145   -1.1879 O   0  0  0  0  0  0  0  0  0  0  0  0
   -2.4033   -1.9085   -2.7638 O   0  0  0  0  0  0  0  0  0  0  0  0
  1  6  2  0  0  0  0
  1  2  1  0  0  0  0
  2  3  2  0  0  0  0
  3  4  1  0  0  0  0
  3 13  1  0  0  0  0
  4  9  1  0  0  0  0
  5 10  1  0  0  0  0
  5  4  2  0  0  0  0
  6  5  1  0  0  0  0
  7  1  1  0  0  0  0
  8  2  1  0  0  0  0
 11 12  3  0  0  0  0
 13 14  1  0  0  0  0
 15 16  2  0  0  0  0
 15  6  1  0  0  0  0
 17 15  2  0  0  0  0
M  END
