Coordinates from ORCA-job 4-NO2-Ph-N2-OH-B3LYPG-6-31G_dp-MTMO-d009-169-n900
 OpenBabel09051908013D

 17 16  0  0  0  0  0  0  0  0999 V2000
   -0.9041   -1.0167   -1.6571 C   0  0  0  0  0  0  0  0  0  0  0  0
    0.2857   -0.4502   -1.2250 C   0  0  0  0  0  0  0  0  0  0  0  0
    0.3459    0.1715    0.0321 C   0  0  0  0  0  0  0  0  0  0  0  0
   -0.7911    0.2224    0.8527 C   0  0  0  0  0  0  0  0  0  0  0  0
   -1.9837   -0.3446    0.4208 C   0  0  0  0  0  0  0  0  0  0  0  0
   -2.0291   -0.9592   -0.8301 C   0  0  0  0  0  0  0  0  0  0  0  0
   -0.9808   -1.5024   -2.6216 H   0  0  0  0  0  0  0  0  0  0  0  0
    1.1780   -0.4744   -1.8405 H   0  0  0  0  0  0  0  0  0  0  0  0
   -0.7402    0.7045    1.8257 H   0  0  0  0  0  0  0  0  0  0  0  0
   -2.8771   -0.3199    1.0322 H   0  0  0  0  0  0  0  0  0  0  0  0
    4.2602    1.6010   -1.4532 N   0  0  0  0  0  0  0  0  0  0  0  0
    3.7447    0.8478   -2.0762 N   0  0  0  0  0  0  0  0  0  0  0  0
    1.5375    0.7081    0.4006 O   0  0  0  0  0  0  0  0  0  0  0  0
    1.4616    1.1021    1.2799 H   0  0  0  0  0  0  0  0  0  0  0  0
   -3.2841   -1.5560   -1.2854 N   0  0  0  0  0  0  0  0  0  0  0  0
   -4.2586   -1.4855   -0.5341 O   0  0  0  0  0  0  0  0  0  0  0  0
   -3.2938   -2.0939   -2.3940 O   0  0  0  0  0  0  0  0  0  0  0  0
  1  2  2  0  0  0  0
  1  6  1  0  0  0  0
  2  3  1  0  0  0  0
  3 13  1  0  0  0  0
  3  4  2  0  0  0  0
  4  9  1  0  0  0  0
  5  4  1  0  0  0  0
  5 10  1  0  0  0  0
  6  5  2  0  0  0  0
  7  1  1  0  0  0  0
  8  2  1  0  0  0  0
 12 11  3  0  0  0  0
 13 14  1  0  0  0  0
 15  6  1  0  0  0  0
 15 16  2  0  0  0  0
 17 15  2  0  0  0  0
M  END
