Coordinates from ORCA-job 4-NO2-Ph-N2-OH-B3LYPG-6-31G_dp-MTMO-d009-169-n900
 OpenBabel09051908013D

 17 16  0  0  0  0  0  0  0  0999 V2000
    0.6109    0.6148    0.0802 C   0  0  0  0  0  0  0  0  0  0  0  0
    0.4247    1.0514    1.3830 C   0  0  0  0  0  0  0  0  0  0  0  0
   -0.7554    0.7220    2.0680 C   0  0  0  0  0  0  0  0  0  0  0  0
   -1.7464   -0.0477    1.4397 C   0  0  0  0  0  0  0  0  0  0  0  0
   -1.5616   -0.4859    0.1346 C   0  0  0  0  0  0  0  0  0  0  0  0
   -0.3846   -0.1503   -0.5333 C   0  0  0  0  0  0  0  0  0  0  0  0
    1.5104    0.8540   -0.4730 H   0  0  0  0  0  0  0  0  0  0  0  0
    1.1761    1.6464    1.8902 H   0  0  0  0  0  0  0  0  0  0  0  0
   -2.6587   -0.3020    1.9738 H   0  0  0  0  0  0  0  0  0  0  0  0
   -2.3097   -1.0804   -0.3746 H   0  0  0  0  0  0  0  0  0  0  0  0
   -0.0265   -3.3905   -9.2826 N   0  0  0  0  0  0  0  0  0  0  0  0
    0.4182   -4.1575   -8.6228 N   0  0  0  0  0  0  0  0  0  0  0  0
   -0.8813    1.1778    3.3396 O   0  0  0  0  0  0  0  0  0  0  0  0
   -1.7299    0.8941    3.7051 H   0  0  0  0  0  0  0  0  0  0  0  0
   -0.1894   -0.6101   -1.9075 N   0  0  0  0  0  0  0  0  0  0  0  0
   -1.0864   -1.2818   -2.4210 O   0  0  0  0  0  0  0  0  0  0  0  0
    0.8606   -0.2997   -2.4725 O   0  0  0  0  0  0  0  0  0  0  0  0
  1  2  1  0  0  0  0
  2  8  1  0  0  0  0
  2  3  2  0  0  0  0
  3 13  1  0  0  0  0
  4  9  1  0  0  0  0
  4  3  1  0  0  0  0
  5  4  2  0  0  0  0
  6  1  2  0  0  0  0
  6  5  1  0  0  0  0
  7  1  1  0  0  0  0
 10  5  1  0  0  0  0
 11 12  3  0  0  0  0
 13 14  1  0  0  0  0
 15  6  1  0  0  0  0
 16 15  2  0  0  0  0
 17 15  2  0  0  0  0
M  END
