Coordinates from ORCA-job 4-NO2-Ph-N2-OH-B3LYPG-6-31G_dp-MTMO-d009-169-n900
 OpenBabel09051908013D

 17 16  0  0  0  0  0  0  0  0999 V2000
   -0.9094   -0.9563   -1.6525 C   0  0  0  0  0  0  0  0  0  0  0  0
    0.2569   -0.3552   -1.2033 C   0  0  0  0  0  0  0  0  0  0  0  0
    0.2920    0.2317    0.0715 C   0  0  0  0  0  0  0  0  0  0  0  0
   -0.8457    0.2133    0.8924 C   0  0  0  0  0  0  0  0  0  0  0  0
   -2.0148   -0.3883    0.4430 C   0  0  0  0  0  0  0  0  0  0  0  0
   -2.0357   -0.9676   -0.8252 C   0  0  0  0  0  0  0  0  0  0  0  0
   -0.9670   -1.4168   -2.6305 H   0  0  0  0  0  0  0  0  0  0  0  0
    1.1504   -0.3251   -1.8167 H   0  0  0  0  0  0  0  0  0  0  0  0
   -0.8137    0.6687    1.8789 H   0  0  0  0  0  0  0  0  0  0  0  0
   -2.9084   -0.4177    1.0539 H   0  0  0  0  0  0  0  0  0  0  0  0
    4.6364    1.3924   -1.7485 N   0  0  0  0  0  0  0  0  0  0  0  0
    3.7632    0.7963   -2.0701 N   0  0  0  0  0  0  0  0  0  0  0  0
    1.4614    0.8051    0.4560 O   0  0  0  0  0  0  0  0  0  0  0  0
    1.3684    1.1710    1.3458 H   0  0  0  0  0  0  0  0  0  0  0  0
   -3.2660   -1.6004   -1.2987 N   0  0  0  0  0  0  0  0  0  0  0  0
   -4.2431   -1.5891   -0.5475 O   0  0  0  0  0  0  0  0  0  0  0  0
   -3.2539   -2.1077   -2.4217 O   0  0  0  0  0  0  0  0  0  0  0  0
  1  2  2  0  0  0  0
  1  6  1  0  0  0  0
  2  3  1  0  0  0  0
  3 13  1  0  0  0  0
  3  4  2  0  0  0  0
  4  9  1  0  0  0  0
  5  4  1  0  0  0  0
  5 10  1  0  0  0  0
  6  5  2  0  0  0  0
  7  1  1  0  0  0  0
  8  2  1  0  0  0  0
 12 11  3  0  0  0  0
 13 14  1  0  0  0  0
 15  6  1  0  0  0  0
 15 16  2  0  0  0  0
 17 15  2  0  0  0  0
M  END
