19
Coordinates from ORCA-job p-NO2-Ph-N2-OOCH-B3LYPG-aug-cc-pVDZ-scan-d09-49-n400
  C   15.65382330968598      8.68032739791056     -2.38695036754721
  C   14.71933624961032      7.65618627592527     -2.13545264016356
  C   15.21581489020767      6.44977715308014     -2.60518774013278
  C   16.30417833597154      6.21336726894071     -3.17728474835269
  C   17.29327836674726      7.13519858523220     -3.47512506182723
  C   16.88223312509419      8.41400071983972     -3.02974762947629
  H   15.43756511640085      9.70313812764415     -2.08584260323629
  H   13.76420223801858      7.82382491058068     -1.64593178550003
  H   14.35833672854907      4.17405874062108     -2.61254278837804
  H   18.24763467343632      6.97438375219383     -3.96700670775787
  N   17.81056683592367      9.54499667145142     -3.25907351176823
  O   17.46638963379971     10.65936812126468     -2.87600952442925
  O   18.87428277441886      9.29868162826575     -3.82115244390170
  N   11.17634886915468      8.09700204644816     -0.37373882757930
  N   10.19141476017652      7.79071541358920      0.01941898897757
  H   11.97914768845941      3.04054344837958     -1.60775756598176
  C   12.65869835442461      3.87665139607011     -1.84475974172657
  O   12.41859611307341      5.04000837228362     -1.62392547748778
  O   13.78425193684753      3.41016997027894     -2.40932982373101
