19
Coordinates from ORCA-job p-NO2-Ph-N2-OOCH-B3LYPG-aug-cc-pVDZ-scan-d09-49-n400
  C   15.85853277683203      9.30365871463157     -2.32712331461445
  C   14.61499517776278      8.82549540881850     -1.86138558998617
  C   14.54490460839397      7.48141743962926     -2.15113270802567
  C   15.31944280929494      6.66564591501112     -2.70583952269178
  C   16.56441998882947      7.06744746100709     -3.19118688782236
  C   16.78046110579533      8.44519953834836     -2.96270450468256
  H   16.12220289541625     10.35151005454004     -2.19928376622598
  H   13.87598879618008      9.44870302754872     -1.36670113735933
  H   14.27488419205301      4.55336887526007     -2.63086605751287
  H   17.30855840668162      6.44949881439749     -3.68545190783679
  N   18.06313646053335      9.02568433575785     -3.42208370586458
  O   18.25657121026533     10.22241785631841     -3.22638837178347
  O   18.85920140726426      8.27164637899910     -3.97388138826651
  N   11.31967296170866      7.51409193454604     -0.65229567714093
  N   10.32685053709092      7.07135068254527     -0.46091924694641
  H   12.79307936848543      2.23363660990945     -1.98456594479499
  C   12.97749919106650      3.32188440387147     -1.99033749358425
  O   12.25003978503500      4.14307634207736     -1.48750147674092
  O   14.12565832131102      3.58666620678265     -2.63775129811998
