22
Coordinates from ORCA-job p-NO2-Ph-N2-OOCCF3-B3LYPG-aug-cc-pVDZ-scan-d09-49-n400
  C   15.37305471038876      7.81415414488065     -4.10004013826628
  C   14.46705193106052      6.92509130099343     -3.51640285986837
  C   14.59456933571851      6.58167761223349     -2.31650097991042
  C   15.48402676180624      6.87654854777937     -1.30827359852155
  C   16.43333185854596      7.77765846946461     -1.83651883522538
  C   16.36379270980957      8.21571831812014     -3.17694269216456
  H   15.36563193525628      8.18210699838894     -5.12199430264959
  H   12.55396184909949      5.54037688913605     -3.63580521657653
  H   15.50014560420090      6.51432454004657     -0.28434209255277
  H   17.23930882977832      8.14857833080398     -1.20669011025972
  N   17.40124372346189      9.16204795604881     -3.64904086337517
  O   17.33407872191057      9.53751726179797     -4.81568874427245
  O   18.26543483426114      9.51374012258384     -2.85099408467954
  N   14.27655426812121      4.69821547094449      2.19586386856435
  N   13.66287312900596      4.01659954339573      2.81039109956371
  C   11.61662873080159      4.40557687926240     -2.44882217454077
  O   12.31444605245176      4.57340170937976     -1.48120639120232
  O   11.76712872704344      4.95822887254842     -3.65253033758123
  C   10.37536062134139      3.47534659560158     -2.44191468320724
  F   10.51550909961101      2.49287669497529     -3.35758890850388
  F   9.25921944216247      4.17407987150837     -2.74090236989110
  F   10.21364712416254      2.91313387010607     -1.23865558487929
