22
Coordinates from ORCA-job p-NO2-Ph-N2-OOCCF3-B3LYPG-aug-cc-pVDZ-scan-d09-49-n400
  C   15.15366628833788      7.44954577481437     -3.54936395140975
  C   14.55402876774816      6.64504943994639     -2.57007296950380
  C   15.06815994203227      6.60923897773387     -1.42330766863111
  C   16.14519035548932      7.18210359803622     -0.79487157634498
  C   16.78681475238218      8.00711533413000     -1.74476706086670
  C   16.29520597422449      8.12188183239453     -3.06164268344622
  H   14.81908972197656      7.57508246316089     -4.57543822277774
  H   12.82162478458413      5.47877338479022     -2.91371584767759
  H   16.48275373943007      7.05940816326499      0.22949860190801
  H   17.67644908710961      8.56765321800216     -1.46475450385667
  N   17.02648087496590      9.00831332881621     -3.99679841739158
  O   16.59226609098094      9.10268013244463     -5.14044866093942
  O   18.01947055541952      9.59414249783545     -3.57488128310582
  N   14.22116533540621      4.93922486468552      1.42209192606235
  N   13.57562192567953      4.25242566888734      1.99644309653006
  C   11.47782664639690      4.26171973093470     -2.33977440153936
  O   11.85085639800464      4.12341532827853     -1.20421629963377
  O   12.03162524021980      5.02321399839293     -3.28317503164542
  C   10.23002711078019      3.53781891094320     -2.91109071450954
  F   10.57279275387096      2.75559067323547     -3.95801238766789
  F   9.31522965569771      4.43519311173865     -3.33924144831589
  F   9.66065399926276      2.76740956753357     -1.97706049523725
