22
Coordinates from ORCA-job p-NO2-Ph-N2-OOCCF3-B3LYPG-aug-cc-pVDZ-scan-d09-49-n400
  C   14.76414076596530      7.58409926704386     -3.20256830080485
  C   14.01645787001986      6.90555955472589     -2.24101405092640
  C   14.66649725125605      6.53521877064096     -1.05893136139262
  C   16.00463228982267      6.83468013547919     -0.78279596144873
  C   16.74568887933237      7.49358184921984     -1.75979111077684
  C   16.10908196576990      7.85658355571350     -2.94838004304398
  H   14.31552909634480      7.89891321223182     -4.14141430546238
  H   12.95864603437867      6.67997579289990     -2.37890302951898
  H   16.45186671610551      6.54419345343197      0.16570662415340
  H   17.79418813868543      7.73671721035147     -1.61040877793182
  N   16.89744446358784      8.57617990128325     -3.98067253819424
  O   16.31605279075864      8.90013944578794     -5.00927561315210
  O   18.07780034084542      8.79872738225870     -3.73340993542113
  N   13.91935749207688      5.87574994634360     -0.04552817598164
  N   13.10756586766190      5.08985435381162      0.15022994428161
  C   11.59855852481045      4.52677397555980     -1.96279687739590
  O   12.67309598059500      4.04655863640672     -1.44734120375556
  O   11.12653769522323      5.65195085124156     -1.82979026711431
  C   10.87259807895498      3.48783945439210     -2.87711410406016
  F   11.70429846713017      3.03477632073054     -3.84721532079597
  F   9.79561927033334      4.01819518238278     -3.47914366515804
  F   10.46134202034141      2.42073174806291     -2.15404192609944
