Coordinates from ORCA-job Ph-N2+-B3LYPG-6-31G_dp-MTMO-d009-169-n800
 OpenBabel09051908203D

 13 13  0  0  0  0  0  0  0  0999 V2000
   -1.9324    0.0911   -1.0840 C   0  0  0  0  0  0  0  0  0  0  0  0
   -0.5509    0.0146   -0.9724 C   0  0  0  0  0  0  0  0  0  0  0  0
    0.0454    0.8289    0.0068 C   0  0  0  0  0  0  0  0  0  0  0  0
   -0.6492    1.6992    0.8655 C   0  0  0  0  0  0  0  0  0  0  0  0
   -2.0290    1.7435    0.7187 C   0  0  0  0  0  0  0  0  0  0  0  0
   -2.6628    0.9474   -0.2468 C   0  0  0  0  0  0  0  0  0  0  0  0
   -2.4422   -0.5160   -1.8241 H   0  0  0  0  0  0  0  0  0  0  0  0
    0.0443   -0.6357   -1.6036 H   0  0  0  0  0  0  0  0  0  0  0  0
    1.4587    0.7684    0.1378 N   0  0  0  0  0  0  0  0  0  0  0  0
    2.5666    0.7212    0.2400 N   0  0  0  0  0  0  0  0  0  0  0  0
   -3.7428    0.9955   -0.3487 H   0  0  0  0  0  0  0  0  0  0  0  0
   -2.6123    2.3988    1.3564 H   0  0  0  0  0  0  0  0  0  0  0  0
   -0.1272    2.3009    1.6010 H   0  0  0  0  0  0  0  0  0  0  0  0
  1  2  2  0  0  0  0
  1  6  1  0  0  0  0
  2  3  1  0  0  0  0
  3  9  1  0  0  0  0
  3  4  2  0  0  0  0
  4 13  1  0  0  0  0
  5  4  1  0  0  0  0
  5 12  1  0  0  0  0
  6  5  2  0  0  0  0
  7  1  1  0  0  0  0
  8  2  1  0  0  0  0
  9 10  1  0  0  0  0
 11  6  1  0  0  0  0
M  RAD  2   9   2  10   3
M  END
