Coordinates from ORCA-job Ph-N2+-B3LYPG-6-31G_dp-MTMO-d009-169-n800
 OpenBabel09051908203D

 13 12  0  0  0  0  0  0  0  0999 V2000
   -2.4444    0.1371   -1.1294 C   0  0  0  0  0  0  0  0  0  0  0  0
   -1.0358   -0.0319   -0.9107 C   0  0  0  0  0  0  0  0  0  0  0  0
   -0.7666    0.7943    0.0919 C   0  0  0  0  0  0  0  0  0  0  0  0
   -1.2259    1.6892    0.9571 C   0  0  0  0  0  0  0  0  0  0  0  0
   -2.6257    1.7792    0.6520 C   0  0  0  0  0  0  0  0  0  0  0  0
   -3.2063    1.0205   -0.3645 C   0  0  0  0  0  0  0  0  0  0  0  0
   -2.8714   -0.4657   -1.9278 H   0  0  0  0  0  0  0  0  0  0  0  0
   -0.4004   -0.7019   -1.4773 H   0  0  0  0  0  0  0  0  0  0  0  0
    4.5146    0.6463    0.2463 N   0  0  0  0  0  0  0  0  0  0  0  0
    5.6193    0.6408    0.2751 N   0  0  0  0  0  0  0  0  0  0  0  0
   -4.2679    1.1199   -0.5643 H   0  0  0  0  0  0  0  0  0  0  0  0
   -3.1960    2.4745    1.2639 H   0  0  0  0  0  0  0  0  0  0  0  0
   -0.7272    2.2554    1.7345 H   0  0  0  0  0  0  0  0  0  0  0  0
  1  2  2  0  0  0  0
  1  6  1  0  0  0  0
  2  3  1  0  0  0  0
  3  4  2  0  0  0  0
  4 13  1  0  0  0  0
  5  4  1  0  0  0  0
  5 12  1  0  0  0  0
  6  5  2  0  0  0  0
  7  1  1  0  0  0  0
  8  2  1  0  0  0  0
  9 10  3  0  0  0  0
 11  6  1  0  0  0  0
M  RAD  1   3   2
M  END
