Coordinates from ORCA-job Ph-N2+-B3LYPG-6-31G_dp-MTMO-d009-169-n800
 OpenBabel09051908203D

 13 12  0  0  0  0  0  0  0  0999 V2000
   -2.2412    0.1132   -1.1076 C   0  0  0  0  0  0  0  0  0  0  0  0
   -0.8165   -0.0111   -0.9901 C   0  0  0  0  0  0  0  0  0  0  0  0
   -0.4999    0.8263   -0.0107 C   0  0  0  0  0  0  0  0  0  0  0  0
   -0.9250    1.7086    0.8847 C   0  0  0  0  0  0  0  0  0  0  0  0
   -2.3449    1.7544    0.6814 C   0  0  0  0  0  0  0  0  0  0  0  0
   -2.9732    0.9749   -0.2902 C   0  0  0  0  0  0  0  0  0  0  0  0
   -2.7065   -0.5046   -1.8724 H   0  0  0  0  0  0  0  0  0  0  0  0
   -0.2014   -0.6622   -1.5991 H   0  0  0  0  0  0  0  0  0  0  0  0
    3.1511    0.7079    0.2670 N   0  0  0  0  0  0  0  0  0  0  0  0
    4.2533    0.6850    0.3421 N   0  0  0  0  0  0  0  0  0  0  0  0
   -4.0492    1.0405   -0.4128 H   0  0  0  0  0  0  0  0  0  0  0  0
   -2.8921    2.4332    1.3316 H   0  0  0  0  0  0  0  0  0  0  0  0
   -0.3880    2.2915    1.6229 H   0  0  0  0  0  0  0  0  0  0  0  0
  1  2  2  0  0  0  0
  1  6  1  0  0  0  0
  2  3  1  0  0  0  0
  3  4  2  0  0  0  0
  4 13  1  0  0  0  0
  5  4  1  0  0  0  0
  5 12  1  0  0  0  0
  6  5  2  0  0  0  0
  7  1  1  0  0  0  0
  8  2  1  0  0  0  0
  9 10  3  0  0  0  0
 11  6  1  0  0  0  0
M  RAD  1   3   2
M  END
