Coordinates from ORCA-job Ph-N2+-B3LYPG-6-31G_dp-MTMO-d009-169-n800
 OpenBabel09051908213D

 13 12  0  0  0  0  0  0  0  0999 V2000
   -3.1976    0.2255   -1.1977 C   0  0  0  0  0  0  0  0  0  0  0  0
   -2.5193   -0.6599   -0.2936 C   0  0  0  0  0  0  0  0  0  0  0  0
   -2.4237    0.0408    0.8290 C   0  0  0  0  0  0  0  0  0  0  0  0
   -2.6739    1.1810    1.4599 C   0  0  0  0  0  0  0  0  0  0  0  0
   -3.3450    1.9814    0.4749 C   0  0  0  0  0  0  0  0  0  0  0  0
   -3.5933    1.5066   -0.8131 C   0  0  0  0  0  0  0  0  0  0  0  0
   -3.3786   -0.1698   -2.1945 H   0  0  0  0  0  0  0  0  0  0  0  0
   -2.1902   -1.6609   -0.5442 H   0  0  0  0  0  0  0  0  0  0  0  0
    9.8924    1.1240   -0.2917 N   0  0  0  0  0  0  0  0  0  0  0  0
   10.9963    1.1658   -0.3266 N   0  0  0  0  0  0  0  0  0  0  0  0
   -4.1016    2.1447   -1.5279 H   0  0  0  0  0  0  0  0  0  0  0  0
   -3.6428    2.9749    0.8015 H   0  0  0  0  0  0  0  0  0  0  0  0
   -2.4564    1.5036    2.4707 H   0  0  0  0  0  0  0  0  0  0  0  0
  1  6  2  0  0  0  0
  1  2  1  0  0  0  0
  2  3  2  0  0  0  0
  3  4  1  0  0  0  0
  4 13  1  0  0  0  0
  5 12  1  0  0  0  0
  5  4  2  0  0  0  0
  6  5  1  0  0  0  0
  7  1  1  0  0  0  0
  8  2  1  0  0  0  0
 10  9  3  0  0  0  0
 11  6  1  0  0  0  0
M  RAD  1   3   2
M  END
