Coordinates from ORCA-job Ph-N2+-B3LYPG-6-31G_dp-MTMO-d009-169-n800
 OpenBabel09051908213D

 13 12  0  0  0  0  0  0  0  0999 V2000
   -3.1722    0.2492   -1.1970 C   0  0  0  0  0  0  0  0  0  0  0  0
   -2.7076   -0.6922   -0.2176 C   0  0  0  0  0  0  0  0  0  0  0  0
   -2.7596   -0.0176    0.9237 C   0  0  0  0  0  0  0  0  0  0  0  0
   -3.0473    1.1240    1.5357 C   0  0  0  0  0  0  0  0  0  0  0  0
   -3.4958    1.9816    0.4751 C   0  0  0  0  0  0  0  0  0  0  0  0
   -3.5519    1.5455   -0.8488 C   0  0  0  0  0  0  0  0  0  0  0  0
   -3.2059   -0.1172   -2.2206 H   0  0  0  0  0  0  0  0  0  0  0  0
   -2.3998   -1.7070   -0.4375 H   0  0  0  0  0  0  0  0  0  0  0  0
   10.6358    1.1672   -0.4308 N   0  0  0  0  0  0  0  0  0  0  0  0
   11.7400    1.1986   -0.4678 N   0  0  0  0  0  0  0  0  0  0  0  0
   -3.8963    2.2257   -1.6202 H   0  0  0  0  0  0  0  0  0  0  0  0
   -3.7872    2.9855    0.7751 H   0  0  0  0  0  0  0  0  0  0  0  0
   -2.9858    1.4146    2.5775 H   0  0  0  0  0  0  0  0  0  0  0  0
  1  6  2  0  0  0  0
  1  2  1  0  0  0  0
  2  3  2  0  0  0  0
  3  4  1  0  0  0  0
  4 13  1  0  0  0  0
  5 12  1  0  0  0  0
  5  4  2  0  0  0  0
  6  5  1  0  0  0  0
  7  1  1  0  0  0  0
  8  2  1  0  0  0  0
 10  9  3  0  0  0  0
 11  6  1  0  0  0  0
M  RAD  1   3   2
M  END
