Coordinates from ORCA-job Ph-N2+-B3LYPG-6-31G_dp-MTMO-d009-169-n800
 OpenBabel09051908203D

 13 12  0  0  0  0  0  0  0  0999 V2000
   -2.5121    0.2091   -1.1781 C   0  0  0  0  0  0  0  0  0  0  0  0
   -1.3275   -0.2911   -0.5400 C   0  0  0  0  0  0  0  0  0  0  0  0
   -1.2064    0.4624    0.5454 C   0  0  0  0  0  0  0  0  0  0  0  0
   -1.6941    1.4566    1.2763 C   0  0  0  0  0  0  0  0  0  0  0  0
   -2.8617    1.8759    0.5542 C   0  0  0  0  0  0  0  0  0  0  0  0
   -3.2492    1.2625   -0.6371 C   0  0  0  0  0  0  0  0  0  0  0  0
   -2.7913   -0.2868   -2.1047 H   0  0  0  0  0  0  0  0  0  0  0  0
   -0.7217   -1.1057   -0.9181 H   0  0  0  0  0  0  0  0  0  0  0  0
    5.7671    0.7395   -0.0872 N   0  0  0  0  0  0  0  0  0  0  0  0
    6.8688    0.8246   -0.1127 N   0  0  0  0  0  0  0  0  0  0  0  0
   -4.1385    1.6105   -1.1510 H   0  0  0  0  0  0  0  0  0  0  0  0
   -3.4165    2.6998    0.9973 H   0  0  0  0  0  0  0  0  0  0  0  0
   -1.3507    1.9004    2.2025 H   0  0  0  0  0  0  0  0  0  0  0  0
  1  6  2  0  0  0  0
  1  2  1  0  0  0  0
  2  3  2  0  0  0  0
  3  4  1  0  0  0  0
  4 13  1  0  0  0  0
  5 12  1  0  0  0  0
  5  4  2  0  0  0  0
  6  5  1  0  0  0  0
  7  1  1  0  0  0  0
  8  2  1  0  0  0  0
 10  9  3  0  0  0  0
 11  6  1  0  0  0  0
M  RAD  1   3   2
M  END
