Coordinates from ORCA-job Ph-N2+-B3LYPG-6-31G_dp-MTMO-d009-169-n800
 OpenBabel09051908203D

 13 12  0  0  0  0  0  0  0  0999 V2000
   -2.5833    0.2114   -1.1798 C   0  0  0  0  0  0  0  0  0  0  0  0
   -1.4302   -0.3265   -0.5153 C   0  0  0  0  0  0  0  0  0  0  0  0
   -1.3106    0.4215    0.5741 C   0  0  0  0  0  0  0  0  0  0  0  0
   -1.7826    1.4311    1.2942 C   0  0  0  0  0  0  0  0  0  0  0  0
   -2.9194    1.8877    0.5460 C   0  0  0  0  0  0  0  0  0  0  0  0
   -3.2988    1.2875   -0.6546 C   0  0  0  0  0  0  0  0  0  0  0  0
   -2.8569   -0.2750   -2.1131 H   0  0  0  0  0  0  0  0  0  0  0  0
   -0.8423   -1.1598   -0.8805 H   0  0  0  0  0  0  0  0  0  0  0  0
    6.1786    0.7699   -0.1077 N   0  0  0  0  0  0  0  0  0  0  0  0
    7.2804    0.8536   -0.1336 N   0  0  0  0  0  0  0  0  0  0  0  0
   -4.1644    1.6640   -1.1884 H   0  0  0  0  0  0  0  0  0  0  0  0
   -3.4576    2.7287    0.9771 H   0  0  0  0  0  0  0  0  0  0  0  0
   -1.4466    1.8636    2.2284 H   0  0  0  0  0  0  0  0  0  0  0  0
  1  6  2  0  0  0  0
  1  2  1  0  0  0  0
  2  3  2  0  0  0  0
  3  4  1  0  0  0  0
  4 13  1  0  0  0  0
  5 12  1  0  0  0  0
  5  4  2  0  0  0  0
  6  5  1  0  0  0  0
  7  1  1  0  0  0  0
  8  2  1  0  0  0  0
 10  9  3  0  0  0  0
 11  6  1  0  0  0  0
M  RAD  1   3   2
M  END
