Coordinates from ORCA-job Ph-N2+-B3LYPG-6-31G_dp-MTMO-d009-169-n800
 OpenBabel09051908203D

 13 12  0  0  0  0  0  0  0  0999 V2000
   -2.0737    0.1028   -1.0913 C   0  0  0  0  0  0  0  0  0  0  0  0
   -0.6523    0.0005   -0.9951 C   0  0  0  0  0  0  0  0  0  0  0  0
   -0.2967    0.8392   -0.0205 C   0  0  0  0  0  0  0  0  0  0  0  0
   -0.7526    1.7157    0.8759 C   0  0  0  0  0  0  0  0  0  0  0  0
   -2.1698    1.7446    0.6995 C   0  0  0  0  0  0  0  0  0  0  0  0
   -2.8034    0.9555   -0.2617 C   0  0  0  0  0  0  0  0  0  0  0  0
   -2.5503   -0.5186   -1.8453 H   0  0  0  0  0  0  0  0  0  0  0  0
   -0.0417   -0.6434   -1.6145 H   0  0  0  0  0  0  0  0  0  0  0  0
    2.2129    0.7362    0.2069 N   0  0  0  0  0  0  0  0  0  0  0  0
    3.3126    0.6979    0.2999 N   0  0  0  0  0  0  0  0  0  0  0  0
   -3.8821    1.0065   -0.3664 H   0  0  0  0  0  0  0  0  0  0  0  0
   -2.7220    2.4138    1.3544 H   0  0  0  0  0  0  0  0  0  0  0  0
   -0.2145    2.3069    1.6052 H   0  0  0  0  0  0  0  0  0  0  0  0
  1  2  2  0  0  0  0
  1  6  1  0  0  0  0
  2  3  1  0  0  0  0
  3  4  2  0  0  0  0
  4 13  1  0  0  0  0
  5  4  1  0  0  0  0
  5 12  1  0  0  0  0
  6  5  2  0  0  0  0
  7  1  1  0  0  0  0
  8  2  1  0  0  0  0
  9 10  3  0  0  0  0
 11  6  1  0  0  0  0
M  RAD  1   3   2
M  END
