Coordinates from ORCA-job Ph-N2+-B3LYPG-6-31G_dp-MTMO-d009-169-n800
 OpenBabel09051908203D

 13 12  0  0  0  0  0  0  0  0999 V2000
   -1.9991    0.0978   -1.0860 C   0  0  0  0  0  0  0  0  0  0  0  0
   -0.5924    0.0058   -0.9865 C   0  0  0  0  0  0  0  0  0  0  0  0
   -0.1530    0.8364   -0.0106 C   0  0  0  0  0  0  0  0  0  0  0  0
   -0.6919    1.7105    0.8732 C   0  0  0  0  0  0  0  0  0  0  0  0
   -2.0951    1.7426    0.7084 C   0  0  0  0  0  0  0  0  0  0  0  0
   -2.7284    0.9506   -0.2532 C   0  0  0  0  0  0  0  0  0  0  0  0
   -2.4914   -0.5175   -1.8332 H   0  0  0  0  0  0  0  0  0  0  0  0
    0.0122   -0.6393   -1.6102 H   0  0  0  0  0  0  0  0  0  0  0  0
    1.8183    0.7530    0.1709 N   0  0  0  0  0  0  0  0  0  0  0  0
    2.9166    0.7078    0.2705 N   0  0  0  0  0  0  0  0  0  0  0  0
   -3.8074    0.9993   -0.3556 H   0  0  0  0  0  0  0  0  0  0  0  0
   -2.6621    2.4050    1.3557 H   0  0  0  0  0  0  0  0  0  0  0  0
   -0.1599    2.3056    1.6035 H   0  0  0  0  0  0  0  0  0  0  0  0
  1  2  2  0  0  0  0
  1  6  1  0  0  0  0
  2  3  1  0  0  0  0
  3  4  2  0  0  0  0
  4 13  1  0  0  0  0
  5  4  1  0  0  0  0
  5 12  1  0  0  0  0
  6  5  2  0  0  0  0
  7  1  1  0  0  0  0
  8  2  1  0  0  0  0
  9 10  3  0  0  0  0
 11  6  1  0  0  0  0
M  RAD  1   3   2
M  END
