Coordinates from ORCA-job Ph-N2+-B3LYPG-6-31G_dp-MTMO-d009-169-n800
 OpenBabel09051908203D

 13 12  0  0  0  0  0  0  0  0999 V2000
   -2.8684    0.2132   -1.1828 C   0  0  0  0  0  0  0  0  0  0  0  0
   -1.8195   -0.4385   -0.4507 C   0  0  0  0  0  0  0  0  0  0  0  0
   -1.6881    0.2987    0.6447 C   0  0  0  0  0  0  0  0  0  0  0  0
   -2.0951    1.3552    1.3365 C   0  0  0  0  0  0  0  0  0  0  0  0
   -3.1311    1.9240    0.5217 C   0  0  0  0  0  0  0  0  0  0  0  0
   -3.4981    1.3604   -0.7003 C   0  0  0  0  0  0  0  0  0  0  0  0
   -3.1345   -0.2467   -2.1316 H   0  0  0  0  0  0  0  0  0  0  0  0
   -1.3008   -1.3301   -0.7812 H   0  0  0  0  0  0  0  0  0  0  0  0
    7.7307    0.8907   -0.1488 N   0  0  0  0  0  0  0  0  0  0  0  0
    8.8344    0.9358   -0.1869 N   0  0  0  0  0  0  0  0  0  0  0  0
   -4.2863    1.8222   -1.2850 H   0  0  0  0  0  0  0  0  0  0  0  0
   -3.6039    2.8182    0.9209 H   0  0  0  0  0  0  0  0  0  0  0  0
   -1.7731    1.7545    2.2903 H   0  0  0  0  0  0  0  0  0  0  0  0
  1  6  2  0  0  0  0
  1  2  1  0  0  0  0
  2  3  2  0  0  0  0
  3  4  1  0  0  0  0
  4 13  1  0  0  0  0
  5 12  1  0  0  0  0
  5  4  2  0  0  0  0
  6  5  1  0  0  0  0
  7  1  1  0  0  0  0
  8  2  1  0  0  0  0
 10  9  3  0  0  0  0
 11  6  1  0  0  0  0
M  RAD  1   3   2
M  END
