Coordinates from ORCA-job Ph-N2+-B3LYPG-6-31G_dp-MTMO-d009-169-n800
 OpenBabel09051908203D

 13 12  0  0  0  0  0  0  0  0999 V2000
   -2.1656    0.1079   -1.1000 C   0  0  0  0  0  0  0  0  0  0  0  0
   -0.7398   -0.0044   -0.9976 C   0  0  0  0  0  0  0  0  0  0  0  0
   -0.4141    0.8354   -0.0219 C   0  0  0  0  0  0  0  0  0  0  0  0
   -0.8416    1.7144    0.8770 C   0  0  0  0  0  0  0  0  0  0  0  0
   -2.2628    1.7491    0.6899 C   0  0  0  0  0  0  0  0  0  0  0  0
   -2.8954    0.9640   -0.2746 C   0  0  0  0  0  0  0  0  0  0  0  0
   -2.6357   -0.5133   -1.8588 H   0  0  0  0  0  0  0  0  0  0  0  0
   -0.1262   -0.6507   -1.6127 H   0  0  0  0  0  0  0  0  0  0  0  0
    2.7152    0.7201    0.2454 N   0  0  0  0  0  0  0  0  0  0  0  0
    3.8162    0.6897    0.3314 N   0  0  0  0  0  0  0  0  0  0  0  0
   -3.9732    1.0208   -0.3853 H   0  0  0  0  0  0  0  0  0  0  0  0
   -2.8097    2.4232    1.3451 H   0  0  0  0  0  0  0  0  0  0  0  0
   -0.3011    2.3015    1.6089 H   0  0  0  0  0  0  0  0  0  0  0  0
  1  2  2  0  0  0  0
  1  6  1  0  0  0  0
  2  3  1  0  0  0  0
  3  4  2  0  0  0  0
  4 13  1  0  0  0  0
  5  4  1  0  0  0  0
  5 12  1  0  0  0  0
  6  5  2  0  0  0  0
  7  1  1  0  0  0  0
  8  2  1  0  0  0  0
  9 10  3  0  0  0  0
 11  6  1  0  0  0  0
M  RAD  1   3   2
M  END
