Coordinates from ORCA-job Ph-N2+-B3LYPG-6-31G_dp-MTMO-d009-169-n800
 OpenBabel09051908213D

 13 12  0  0  0  0  0  0  0  0999 V2000
   -3.1983    0.2319   -1.2000 C   0  0  0  0  0  0  0  0  0  0  0  0
   -2.6107   -0.6834   -0.2627 C   0  0  0  0  0  0  0  0  0  0  0  0
   -2.5540    0.0093    0.8676 C   0  0  0  0  0  0  0  0  0  0  0  0
   -2.7992    1.1548    1.4905 C   0  0  0  0  0  0  0  0  0  0  0  0
   -3.3780    1.9853    0.4721 C   0  0  0  0  0  0  0  0  0  0  0  0
   -3.5665    1.5259   -0.8315 C   0  0  0  0  0  0  0  0  0  0  0  0
   -3.3345   -0.1523   -2.2083 H   0  0  0  0  0  0  0  0  0  0  0  0
   -2.3070   -1.6957   -0.4994 H   0  0  0  0  0  0  0  0  0  0  0  0
   10.1528    1.1519   -0.3383 N   0  0  0  0  0  0  0  0  0  0  0  0
   11.2568    1.1920   -0.3742 N   0  0  0  0  0  0  0  0  0  0  0  0
   -4.0063    2.1862   -1.5712 H   0  0  0  0  0  0  0  0  0  0  0  0
   -3.6570    2.9880    0.7870 H   0  0  0  0  0  0  0  0  0  0  0  0
   -2.6320    1.4639    2.5151 H   0  0  0  0  0  0  0  0  0  0  0  0
  1  6  2  0  0  0  0
  1  2  1  0  0  0  0
  2  3  2  0  0  0  0
  3  4  1  0  0  0  0
  4 13  1  0  0  0  0
  5 12  1  0  0  0  0
  5  4  2  0  0  0  0
  6  5  1  0  0  0  0
  7  1  1  0  0  0  0
  8  2  1  0  0  0  0
 10  9  3  0  0  0  0
 11  6  1  0  0  0  0
M  RAD  1   3   2
M  END
