Coordinates from ORCA-job Ph-N2+-B3LYPG-6-31G_dp-MTMO-d009-169-n800
 OpenBabel09051908203D

 13 12  0  0  0  0  0  0  0  0999 V2000
   -2.8438    0.2135   -1.1827 C   0  0  0  0  0  0  0  0  0  0  0  0
   -1.7843   -0.4272   -0.4562 C   0  0  0  0  0  0  0  0  0  0  0  0
   -1.6555    0.3108    0.6390 C   0  0  0  0  0  0  0  0  0  0  0  0
   -2.0705    1.3625    1.3334 C   0  0  0  0  0  0  0  0  0  0  0  0
   -3.1167    1.9204    0.5241 C   0  0  0  0  0  0  0  0  0  0  0  0
   -3.4835    1.3536   -0.6964 C   0  0  0  0  0  0  0  0  0  0  0  0
   -3.1096   -0.2488   -2.1303 H   0  0  0  0  0  0  0  0  0  0  0  0
   -1.2576   -1.3130   -0.7897 H   0  0  0  0  0  0  0  0  0  0  0  0
    7.6045    0.8796   -0.1453 N   0  0  0  0  0  0  0  0  0  0  0  0
    8.7081    0.9251   -0.1841 N   0  0  0  0  0  0  0  0  0  0  0  0
   -4.2797    1.8070   -1.2769 H   0  0  0  0  0  0  0  0  0  0  0  0
   -3.5971    2.8093    0.9261 H   0  0  0  0  0  0  0  0  0  0  0  0
   -1.7480    1.7648    2.2858 H   0  0  0  0  0  0  0  0  0  0  0  0
  1  6  2  0  0  0  0
  1  2  1  0  0  0  0
  2  3  2  0  0  0  0
  3  4  1  0  0  0  0
  4 13  1  0  0  0  0
  5 12  1  0  0  0  0
  5  4  2  0  0  0  0
  6  5  1  0  0  0  0
  7  1  1  0  0  0  0
  8  2  1  0  0  0  0
 10  9  3  0  0  0  0
 11  6  1  0  0  0  0
M  RAD  1   3   2
M  END
