Coordinates from ORCA-job Ph-N2+-B3LYPG-6-31G_dp-MTMO-d009-169-n800
 OpenBabel09051908213D

 13 12  0  0  0  0  0  0  0  0999 V2000
   -3.1953    0.2362   -1.2001 C   0  0  0  0  0  0  0  0  0  0  0  0
   -2.6530   -0.6905   -0.2470 C   0  0  0  0  0  0  0  0  0  0  0  0
   -2.6283   -0.0042    0.8882 C   0  0  0  0  0  0  0  0  0  0  0  0
   -2.8778    1.1430    1.5066 C   0  0  0  0  0  0  0  0  0  0  0  0
   -3.4095    1.9851    0.4725 C   0  0  0  0  0  0  0  0  0  0  0  0
   -3.5586    1.5337   -0.8390 C   0  0  0  0  0  0  0  0  0  0  0  0
   -3.3008   -0.1417   -2.2145 H   0  0  0  0  0  0  0  0  0  0  0  0
   -2.3534   -1.7054   -0.4778 H   0  0  0  0  0  0  0  0  0  0  0  0
   10.3140    1.1618   -0.3673 N   0  0  0  0  0  0  0  0  0  0  0  0
   11.4180    1.1998   -0.4034 N   0  0  0  0  0  0  0  0  0  0  0  0
   -3.9626    2.2030   -1.5907 H   0  0  0  0  0  0  0  0  0  0  0  0
   -3.6853    2.9904    0.7819 H   0  0  0  0  0  0  0  0  0  0  0  0
   -2.7412    1.4465    2.5374 H   0  0  0  0  0  0  0  0  0  0  0  0
  1  6  2  0  0  0  0
  1  2  1  0  0  0  0
  2  3  2  0  0  0  0
  3  4  1  0  0  0  0
  4 13  1  0  0  0  0
  5 12  1  0  0  0  0
  5  4  2  0  0  0  0
  6  5  1  0  0  0  0
  7  1  1  0  0  0  0
  8  2  1  0  0  0  0
 10  9  3  0  0  0  0
 11  6  1  0  0  0  0
M  RAD  1   3   2
M  END
