Coordinates from ORCA-job Ph-N2+-B3LYPG-6-31G_dp-MTMO-d009-169-n800
 OpenBabel09051908213D

 13 12  0  0  0  0  0  0  0  0999 V2000
   -3.1970    0.2341   -1.2001 C   0  0  0  0  0  0  0  0  0  0  0  0
   -2.6381   -0.6889   -0.2531 C   0  0  0  0  0  0  0  0  0  0  0  0
   -2.5998   -0.0003    0.8805 C   0  0  0  0  0  0  0  0  0  0  0  0
   -2.8444    1.1472    1.5002 C   0  0  0  0  0  0  0  0  0  0  0  0
   -3.3936    1.9855    0.4721 C   0  0  0  0  0  0  0  0  0  0  0  0
   -3.5596    1.5310   -0.8364 C   0  0  0  0  0  0  0  0  0  0  0  0
   -3.3156   -0.1461   -2.2122 H   0  0  0  0  0  0  0  0  0  0  0  0
   -2.3384   -1.7033   -0.4862 H   0  0  0  0  0  0  0  0  0  0  0  0
   10.2440    1.1591   -0.3550 N   0  0  0  0  0  0  0  0  0  0  0  0
   11.3480    1.1983   -0.3912 N   0  0  0  0  0  0  0  0  0  0  0  0
   -3.9765    2.1976   -1.5836 H   0  0  0  0  0  0  0  0  0  0  0  0
   -3.6685    2.9905    0.7835 H   0  0  0  0  0  0  0  0  0  0  0  0
   -2.6942    1.4531    2.5283 H   0  0  0  0  0  0  0  0  0  0  0  0
  1  6  2  0  0  0  0
  1  2  1  0  0  0  0
  2  3  2  0  0  0  0
  3  4  1  0  0  0  0
  4 13  1  0  0  0  0
  5 12  1  0  0  0  0
  5  4  2  0  0  0  0
  6  5  1  0  0  0  0
  7  1  1  0  0  0  0
  8  2  1  0  0  0  0
 10  9  3  0  0  0  0
 11  6  1  0  0  0  0
M  RAD  1   3   2
M  END
