Coordinates from ORCA-job Ph-N2+-B3LYPG-6-31G_dp-MTMO-d009-169-n800
 OpenBabel09051908203D

 13 12  0  0  0  0  0  0  0  0999 V2000
   -2.7602    0.2136   -1.1820 C   0  0  0  0  0  0  0  0  0  0  0  0
   -1.6682   -0.3928   -0.4746 C   0  0  0  0  0  0  0  0  0  0  0  0
   -1.5447    0.3482    0.6192 C   0  0  0  0  0  0  0  0  0  0  0  0
   -1.9817    1.3853    1.3220 C   0  0  0  0  0  0  0  0  0  0  0  0
   -3.0592    1.9094    0.5314 C   0  0  0  0  0  0  0  0  0  0  0  0
   -3.4283    1.3319   -0.6834 C   0  0  0  0  0  0  0  0  0  0  0  0
   -3.0271   -0.2564   -2.1256 H   0  0  0  0  0  0  0  0  0  0  0  0
   -1.1189   -1.2609   -0.8181 H   0  0  0  0  0  0  0  0  0  0  0  0
    7.1586    0.8446   -0.1326 N   0  0  0  0  0  0  0  0  0  0  0  0
    8.2619    0.8960   -0.1719 N   0  0  0  0  0  0  0  0  0  0  0  0
   -4.2485    1.7596   -1.2495 H   0  0  0  0  0  0  0  0  0  0  0  0
   -3.5612    2.7820    0.9427 H   0  0  0  0  0  0  0  0  0  0  0  0
   -1.6562    1.7973    2.2691 H   0  0  0  0  0  0  0  0  0  0  0  0
  1  6  2  0  0  0  0
  1  2  1  0  0  0  0
  2  3  2  0  0  0  0
  3  4  1  0  0  0  0
  4 13  1  0  0  0  0
  5 12  1  0  0  0  0
  5  4  2  0  0  0  0
  6  5  1  0  0  0  0
  7  1  1  0  0  0  0
  8  2  1  0  0  0  0
 10  9  3  0  0  0  0
 11  6  1  0  0  0  0
M  RAD  1   3   2
M  END
