Coordinates from ORCA-job Ph-N2+-B3LYPG-6-31G_dp-MTMO-d009-169-n800
 OpenBabel09051908203D

 13 12  0  0  0  0  0  0  0  0999 V2000
   -2.9914    0.2093   -1.1823 C   0  0  0  0  0  0  0  0  0  0  0  0
   -1.9990   -0.5010   -0.4263 C   0  0  0  0  0  0  0  0  0  0  0  0
   -1.8438    0.2339    0.6675 C   0  0  0  0  0  0  0  0  0  0  0  0
   -2.1990    1.3170    1.3465 C   0  0  0  0  0  0  0  0  0  0  0  0
   -3.1821    1.9434    0.5083 C   0  0  0  0  0  0  0  0  0  0  0  0
   -3.5589    1.3959   -0.7180 C   0  0  0  0  0  0  0  0  0  0  0  0
   -3.2663   -0.2389   -2.1342 H   0  0  0  0  0  0  0  0  0  0  0  0
   -1.5292   -1.4242   -0.7424 H   0  0  0  0  0  0  0  0  0  0  0  0
    8.3088    0.9536   -0.1587 N   0  0  0  0  0  0  0  0  0  0  0  0
    9.4126    0.9992   -0.1919 N   0  0  0  0  0  0  0  0  0  0  0  0
   -4.3057    1.9015   -1.3206 H   0  0  0  0  0  0  0  0  0  0  0  0
   -3.6073    2.8669    0.8939 H   0  0  0  0  0  0  0  0  0  0  0  0
   -1.8726    1.7010    2.3050 H   0  0  0  0  0  0  0  0  0  0  0  0
  1  6  2  0  0  0  0
  1  2  1  0  0  0  0
  2  3  2  0  0  0  0
  3  4  1  0  0  0  0
  4 13  1  0  0  0  0
  5 12  1  0  0  0  0
  5  4  2  0  0  0  0
  6  5  1  0  0  0  0
  7  1  1  0  0  0  0
  8  2  1  0  0  0  0
 10  9  3  0  0  0  0
 11  6  1  0  0  0  0
M  RAD  1   3   2
M  END
