Coordinates from ORCA-job Ph-N2+-B3LYPG-6-31G_dp-MTMO-d009-169-n800
 OpenBabel09051908203D

 13 12  0  0  0  0  0  0  0  0999 V2000
   -2.5784    0.1665   -1.1537 C   0  0  0  0  0  0  0  0  0  0  0  0
   -1.2160   -0.1057   -0.7928 C   0  0  0  0  0  0  0  0  0  0  0  0
   -0.9925    0.6962    0.2403 C   0  0  0  0  0  0  0  0  0  0  0  0
   -1.4730    1.6196    1.0630 C   0  0  0  0  0  0  0  0  0  0  0  0
   -2.8236    1.8120    0.6167 C   0  0  0  0  0  0  0  0  0  0  0  0
   -3.3496    1.1006   -0.4619 C   0  0  0  0  0  0  0  0  0  0  0  0
   -2.9628   -0.4013   -1.9979 H   0  0  0  0  0  0  0  0  0  0  0  0
   -0.5760   -0.8190   -1.2980 H   0  0  0  0  0  0  0  0  0  0  0  0
    5.5140    0.6534    0.1720 N   0  0  0  0  0  0  0  0  0  0  0  0
    6.6191    0.6657    0.1607 N   0  0  0  0  0  0  0  0  0  0  0  0
   -4.3748    1.2775   -0.7682 H   0  0  0  0  0  0  0  0  0  0  0  0
   -3.4021    2.5457    1.1737 H   0  0  0  0  0  0  0  0  0  0  0  0
   -1.0178    2.1466    1.8928 H   0  0  0  0  0  0  0  0  0  0  0  0
  1  2  2  0  0  0  0
  1  6  1  0  0  0  0
  2  3  1  0  0  0  0
  3  4  2  0  0  0  0
  4 13  1  0  0  0  0
  5  4  1  0  0  0  0
  5 12  1  0  0  0  0
  6  5  2  0  0  0  0
  7  1  1  0  0  0  0
  8  2  1  0  0  0  0
 10  9  3  0  0  0  0
 11  6  1  0  0  0  0
M  RAD  1   3   2
M  END
