Coordinates from ORCA-job Ph-N2+-B3LYPG-6-31G_dp-MTMO-d009-169-n800
 OpenBabel09051908213D

 13 12  0  0  0  0  0  0  0  0999 V2000
   -3.0412    0.3938   -1.0230 C   0  0  0  0  0  0  0  0  0  0  0  0
   -2.9333   -0.6070    0.0010 C   0  0  0  0  0  0  0  0  0  0  0  0
   -3.5399   -0.0609    1.0471 C   0  0  0  0  0  0  0  0  0  0  0  0
   -4.1871    0.9854    1.5440 C   0  0  0  0  0  0  0  0  0  0  0  0
   -4.2377    1.9123    0.4486 C   0  0  0  0  0  0  0  0  0  0  0  0
   -3.6776    1.6137   -0.7937 C   0  0  0  0  0  0  0  0  0  0  0  0
   -2.5976    0.1343   -1.9814 H   0  0  0  0  0  0  0  0  0  0  0  0
   -2.4540   -1.5698   -0.1272 H   0  0  0  0  0  0  0  0  0  0  0  0
   13.0038    1.0823   -0.9231 N   0  0  0  0  0  0  0  0  0  0  0  0
   14.1088    1.1035   -0.9330 N   0  0  0  0  0  0  0  0  0  0  0  0
   -3.7380    2.3425   -1.5950 H   0  0  0  0  0  0  0  0  0  0  0  0
   -4.7370    2.8561    0.6557 H   0  0  0  0  0  0  0  0  0  0  0  0
   -4.6031    1.1714    2.5265 H   0  0  0  0  0  0  0  0  0  0  0  0
  1  6  2  0  0  0  0
  1  2  1  0  0  0  0
  2  3  2  0  0  0  0
  3  4  1  0  0  0  0
  4 13  1  0  0  0  0
  5 12  1  0  0  0  0
  5  4  2  0  0  0  0
  6  5  1  0  0  0  0
  7  1  1  0  0  0  0
  8  2  1  0  0  0  0
 10  9  3  0  0  0  0
 11  6  1  0  0  0  0
M  RAD  1   3   2
M  END
