Coordinates from ORCA-job Ph-N2+-B3LYPG-6-31G_dp-MTMO-d009-169-n800
 OpenBabel09051908213D

 13 12  0  0  0  0  0  0  0  0999 V2000
   -2.6892    0.3745   -1.0601 C   0  0  0  0  0  0  0  0  0  0  0  0
   -2.5987   -0.6309   -0.0390 C   0  0  0  0  0  0  0  0  0  0  0  0
   -3.1631   -0.0637    1.0193 C   0  0  0  0  0  0  0  0  0  0  0  0
   -3.7601    1.0057    1.5297 C   0  0  0  0  0  0  0  0  0  0  0  0
   -3.7977    1.9353    0.4361 C   0  0  0  0  0  0  0  0  0  0  0  0
   -3.2743    1.6174   -0.8174 C   0  0  0  0  0  0  0  0  0  0  0  0
   -2.2748    0.0998   -2.0273 H   0  0  0  0  0  0  0  0  0  0  0  0
   -2.1582   -1.6108   -0.1772 H   0  0  0  0  0  0  0  0  0  0  0  0
   10.8537    1.0789   -0.7692 N   0  0  0  0  0  0  0  0  0  0  0  0
   11.9582    1.1001   -0.8052 N   0  0  0  0  0  0  0  0  0  0  0  0
   -3.3230    2.3490   -1.6168 H   0  0  0  0  0  0  0  0  0  0  0  0
   -4.2571    2.8968    0.6536 H   0  0  0  0  0  0  0  0  0  0  0  0
   -4.1495    1.2057    2.5204 H   0  0  0  0  0  0  0  0  0  0  0  0
  1  6  2  0  0  0  0
  1  2  1  0  0  0  0
  2  3  2  0  0  0  0
  3  4  1  0  0  0  0
  4 13  1  0  0  0  0
  5 12  1  0  0  0  0
  5  4  2  0  0  0  0
  6  5  1  0  0  0  0
  7  1  1  0  0  0  0
  8  2  1  0  0  0  0
 10  9  3  0  0  0  0
 11  6  1  0  0  0  0
M  RAD  1   3   2
M  END
