Coordinates from ORCA-job Ph-N2+-B3LYPG-6-31G_dp-MTMO-d009-169-n800
 OpenBabel09051908203D

 13 13  0  0  0  0  0  0  0  0999 V2000
   -1.9838    0.0963   -1.0855 C   0  0  0  0  0  0  0  0  0  0  0  0
   -0.5823    0.0075   -0.9836 C   0  0  0  0  0  0  0  0  0  0  0  0
   -0.1131    0.8350   -0.0072 C   0  0  0  0  0  0  0  0  0  0  0  0
   -0.6816    1.7082    0.8718 C   0  0  0  0  0  0  0  0  0  0  0  0
   -2.0800    1.7427    0.7107 C   0  0  0  0  0  0  0  0  0  0  0  0
   -2.7130    0.9498   -0.2517 C   0  0  0  0  0  0  0  0  0  0  0  0
   -2.4813   -0.5165   -1.8306 H   0  0  0  0  0  0  0  0  0  0  0  0
    0.0207   -0.6383   -1.6084 H   0  0  0  0  0  0  0  0  0  0  0  0
    1.7386    0.7564    0.1636 N   0  0  0  0  0  0  0  0  0  0  0  0
    2.8371    0.7107    0.2636 N   0  0  0  0  0  0  0  0  0  0  0  0
   -3.7921    0.9983   -0.3539 H   0  0  0  0  0  0  0  0  0  0  0  0
   -2.6517    2.4030    1.3551 H   0  0  0  0  0  0  0  0  0  0  0  0
   -0.1512    2.3044    1.6028 H   0  0  0  0  0  0  0  0  0  0  0  0
  1  2  2  0  0  0  0
  1  6  1  0  0  0  0
  2  3  1  0  0  0  0
  3  9  1  0  0  0  0
  3  4  2  0  0  0  0
  4 13  1  0  0  0  0
  5  4  1  0  0  0  0
  5 12  1  0  0  0  0
  6  5  2  0  0  0  0
  7  1  1  0  0  0  0
  8  2  1  0  0  0  0
  9 10  1  0  0  0  0
 11  6  1  0  0  0  0
M  RAD  2   9   2  10   3
M  END
