Coordinates from ORCA-job Ph-N2+-B3LYPG-6-31G_dp-MTMO-d009-169-n800
 OpenBabel09051908203D

 13 12  0  0  0  0  0  0  0  0999 V2000
   -3.0713    0.2075   -1.1823 C   0  0  0  0  0  0  0  0  0  0  0  0
   -2.1191   -0.5389   -0.4095 C   0  0  0  0  0  0  0  0  0  0  0  0
   -1.9515    0.1927    0.6846 C   0  0  0  0  0  0  0  0  0  0  0  0
   -2.2724    1.2922    1.3544 C   0  0  0  0  0  0  0  0  0  0  0  0
   -3.2174    1.9541    0.5000 C   0  0  0  0  0  0  0  0  0  0  0  0
   -3.5977    1.4175   -0.7301 C   0  0  0  0  0  0  0  0  0  0  0  0
   -3.3497   -0.2329   -2.1368 H   0  0  0  0  0  0  0  0  0  0  0  0
   -1.6814   -1.4809   -0.7160 H   0  0  0  0  0  0  0  0  0  0  0  0
    8.6967    0.9947   -0.1667 N   0  0  0  0  0  0  0  0  0  0  0  0
    9.8007    1.0396   -0.1979 N   0  0  0  0  0  0  0  0  0  0  0  0
   -4.3145    1.9504   -1.3455 H   0  0  0  0  0  0  0  0  0  0  0  0
   -3.6112    2.8951    0.8764 H   0  0  0  0  0  0  0  0  0  0  0  0
   -1.9449    1.6665    2.3164 H   0  0  0  0  0  0  0  0  0  0  0  0
  1  6  2  0  0  0  0
  1  2  1  0  0  0  0
  2  3  2  0  0  0  0
  3  4  1  0  0  0  0
  4 13  1  0  0  0  0
  5 12  1  0  0  0  0
  5  4  2  0  0  0  0
  6  5  1  0  0  0  0
  7  1  1  0  0  0  0
  8  2  1  0  0  0  0
 10  9  3  0  0  0  0
 11  6  1  0  0  0  0
M  RAD  1   3   2
M  END
