Coordinates from ORCA-job Ph-N2+-B3LYPG-6-31G_dp-MTMO-d009-169-n800
 OpenBabel09051908203D

 13 12  0  0  0  0  0  0  0  0999 V2000
   -2.6125    0.2118   -1.1802 C   0  0  0  0  0  0  0  0  0  0  0  0
   -1.4702   -0.3392   -0.5078 C   0  0  0  0  0  0  0  0  0  0  0  0
   -1.3491    0.4083    0.5818 C   0  0  0  0  0  0  0  0  0  0  0  0
   -1.8151    1.4225    1.2992 C   0  0  0  0  0  0  0  0  0  0  0  0
   -2.9415    1.8920    0.5431 C   0  0  0  0  0  0  0  0  0  0  0  0
   -3.3194    1.2959   -0.6600 C   0  0  0  0  0  0  0  0  0  0  0  0
   -2.8853   -0.2716   -2.1153 H   0  0  0  0  0  0  0  0  0  0  0  0
   -0.8895   -1.1793   -0.8689 H   0  0  0  0  0  0  0  0  0  0  0  0
    6.3391    0.7824   -0.1127 N   0  0  0  0  0  0  0  0  0  0  0  0
    7.4410    0.8632   -0.1395 N   0  0  0  0  0  0  0  0  0  0  0  0
   -4.1772    1.6820   -1.1996 H   0  0  0  0  0  0  0  0  0  0  0  0
   -3.4731    2.7389    0.9707 H   0  0  0  0  0  0  0  0  0  0  0  0
   -1.4809    1.8509    2.2360 H   0  0  0  0  0  0  0  0  0  0  0  0
  1  6  2  0  0  0  0
  1  2  1  0  0  0  0
  2  3  2  0  0  0  0
  3  4  1  0  0  0  0
  4 13  1  0  0  0  0
  5 12  1  0  0  0  0
  5  4  2  0  0  0  0
  6  5  1  0  0  0  0
  7  1  1  0  0  0  0
  8  2  1  0  0  0  0
 10  9  3  0  0  0  0
 11  6  1  0  0  0  0
M  RAD  1   3   2
M  END
