Coordinates from ORCA-job Ph-N2+-B3LYPG-6-31G_dp-MTMO-d009-169-n800
 OpenBabel09051908203D

 13 12  0  0  0  0  0  0  0  0999 V2000
   -2.8465    0.2135   -1.1827 C   0  0  0  0  0  0  0  0  0  0  0  0
   -1.7882   -0.4283   -0.4554 C   0  0  0  0  0  0  0  0  0  0  0  0
   -1.6597    0.3094    0.6400 C   0  0  0  0  0  0  0  0  0  0  0  0
   -2.0739    1.3617    1.3340 C   0  0  0  0  0  0  0  0  0  0  0  0
   -3.1188    1.9208    0.5238 C   0  0  0  0  0  0  0  0  0  0  0  0
   -3.4854    1.3543   -0.6969 C   0  0  0  0  0  0  0  0  0  0  0  0
   -3.1121   -0.2484   -2.1306 H   0  0  0  0  0  0  0  0  0  0  0  0
   -1.2623   -1.3146   -0.7886 H   0  0  0  0  0  0  0  0  0  0  0  0
    7.6201    0.8807   -0.1460 N   0  0  0  0  0  0  0  0  0  0  0  0
    8.7237    0.9261   -0.1848 N   0  0  0  0  0  0  0  0  0  0  0  0
   -4.2804    1.8087   -1.2781 H   0  0  0  0  0  0  0  0  0  0  0  0
   -3.5985    2.8102    0.9255 H   0  0  0  0  0  0  0  0  0  0  0  0
   -1.7517    1.7637    2.2866 H   0  0  0  0  0  0  0  0  0  0  0  0
  1  6  2  0  0  0  0
  1  2  1  0  0  0  0
  2  3  2  0  0  0  0
  3  4  1  0  0  0  0
  4 13  1  0  0  0  0
  5 12  1  0  0  0  0
  5  4  2  0  0  0  0
  6  5  1  0  0  0  0
  7  1  1  0  0  0  0
  8  2  1  0  0  0  0
 10  9  3  0  0  0  0
 11  6  1  0  0  0  0
M  RAD  1   3   2
M  END
