Coordinates from ORCA-job Ph-N2+-B3LYPG-6-31G_dp-MTMO-d009-169-n800
 OpenBabel09051908213D

 13 12  0  0  0  0  0  0  0  0999 V2000
   -2.8505    0.3854   -1.0525 C   0  0  0  0  0  0  0  0  0  0  0  0
   -2.7215   -0.6105   -0.0263 C   0  0  0  0  0  0  0  0  0  0  0  0
   -3.2941   -0.0539    1.0333 C   0  0  0  0  0  0  0  0  0  0  0  0
   -3.9191    1.0001    1.5422 C   0  0  0  0  0  0  0  0  0  0  0  0
   -3.9935    1.9213    0.4434 C   0  0  0  0  0  0  0  0  0  0  0  0
   -3.4709    1.6115   -0.8125 C   0  0  0  0  0  0  0  0  0  0  0  0
   -2.4359    0.1173   -2.0215 H   0  0  0  0  0  0  0  0  0  0  0  0
   -2.2531   -1.5776   -0.1624 H   0  0  0  0  0  0  0  0  0  0  0  0
   11.7672    1.0695   -0.8322 N   0  0  0  0  0  0  0  0  0  0  0  0
   12.8721    1.0937   -0.8426 N   0  0  0  0  0  0  0  0  0  0  0  0
   -3.5485    2.3363   -1.6159 H   0  0  0  0  0  0  0  0  0  0  0  0
   -4.4796    2.8700    0.6590 H   0  0  0  0  0  0  0  0  0  0  0  0
   -4.3062    1.1946    2.5348 H   0  0  0  0  0  0  0  0  0  0  0  0
  1  6  2  0  0  0  0
  1  2  1  0  0  0  0
  2  3  2  0  0  0  0
  3  4  1  0  0  0  0
  4 13  1  0  0  0  0
  5 12  1  0  0  0  0
  5  4  2  0  0  0  0
  6  5  1  0  0  0  0
  7  1  1  0  0  0  0
  8  2  1  0  0  0  0
 10  9  3  0  0  0  0
 11  6  1  0  0  0  0
M  RAD  1   3   2
M  END
