Coordinates from ORCA-job Ph-N2+-B3LYPG-6-31G_dp-MTMO-d009-169-n800
 OpenBabel09051908203D

 13 12  0  0  0  0  0  0  0  0999 V2000
   -3.0241    0.2084   -1.1822 C   0  0  0  0  0  0  0  0  0  0  0  0
   -2.0478   -0.5170   -0.4196 C   0  0  0  0  0  0  0  0  0  0  0  0
   -1.8872    0.2163    0.6744 C   0  0  0  0  0  0  0  0  0  0  0  0
   -2.2275    1.3068    1.3493 C   0  0  0  0  0  0  0  0  0  0  0  0
   -3.1953    1.9480    0.5048 C   0  0  0  0  0  0  0  0  0  0  0  0
   -3.5743    1.4050   -0.7228 C   0  0  0  0  0  0  0  0  0  0  0  0
   -3.3010   -0.2366   -2.1350 H   0  0  0  0  0  0  0  0  0  0  0  0
   -1.5914   -1.4482   -0.7319 H   0  0  0  0  0  0  0  0  0  0  0  0
    8.4637    0.9707   -0.1615 N   0  0  0  0  0  0  0  0  0  0  0  0
    9.5675    1.0162   -0.1938 N   0  0  0  0  0  0  0  0  0  0  0  0
   -4.3090    1.9222   -1.3305 H   0  0  0  0  0  0  0  0  0  0  0  0
   -3.6073    2.8790    0.8867 H   0  0  0  0  0  0  0  0  0  0  0  0
   -1.9000    1.6869    2.3090 H   0  0  0  0  0  0  0  0  0  0  0  0
  1  6  2  0  0  0  0
  1  2  1  0  0  0  0
  2  3  2  0  0  0  0
  3  4  1  0  0  0  0
  4 13  1  0  0  0  0
  5 12  1  0  0  0  0
  5  4  2  0  0  0  0
  6  5  1  0  0  0  0
  7  1  1  0  0  0  0
  8  2  1  0  0  0  0
 10  9  3  0  0  0  0
 11  6  1  0  0  0  0
M  RAD  1   3   2
M  END
