Coordinates from ORCA-job Ph-N2+-B3LYPG-6-31G_dp-MTMO-d009-169-n800
 OpenBabel09051908213D

 13 12  0  0  0  0  0  0  0  0999 V2000
   -2.9438    0.3221   -1.1548 C   0  0  0  0  0  0  0  0  0  0  0  0
   -2.6100   -0.6273   -0.1308 C   0  0  0  0  0  0  0  0  0  0  0  0
   -2.9447   -0.0121    0.9960 C   0  0  0  0  0  0  0  0  0  0  0  0
   -3.4439    1.0745    1.5712 C   0  0  0  0  0  0  0  0  0  0  0  0
   -3.7392    1.9451    0.4686 C   0  0  0  0  0  0  0  0  0  0  0  0
   -3.4918    1.5685   -0.8517 C   0  0  0  0  0  0  0  0  0  0  0  0
   -2.7396    0.0030   -2.1743 H   0  0  0  0  0  0  0  0  0  0  0  0
   -2.1837   -1.6057   -0.3145 H   0  0  0  0  0  0  0  0  0  0  0  0
   10.9361    1.0944   -0.6034 N   0  0  0  0  0  0  0  0  0  0  0  0
   12.0403    1.1100   -0.6494 N   0  0  0  0  0  0  0  0  0  0  0  0
   -3.7301    2.2561   -1.6559 H   0  0  0  0  0  0  0  0  0  0  0  0
   -4.1653    2.9099    0.7336 H   0  0  0  0  0  0  0  0  0  0  0  0
   -3.6181    1.3190    2.6120 H   0  0  0  0  0  0  0  0  0  0  0  0
  1  6  2  0  0  0  0
  1  2  1  0  0  0  0
  2  3  2  0  0  0  0
  3  4  1  0  0  0  0
  4 13  1  0  0  0  0
  5 12  1  0  0  0  0
  5  4  2  0  0  0  0
  6  5  1  0  0  0  0
  7  1  1  0  0  0  0
  8  2  1  0  0  0  0
 10  9  3  0  0  0  0
 11  6  1  0  0  0  0
M  RAD  1   3   2
M  END
