Coordinates from ORCA-job Ph-N2+-B3LYPG-6-31G_dp-MTMO-d009-169-n800
 OpenBabel09051908213D

 13 12  0  0  0  0  0  0  0  0999 V2000
   -3.1986    0.2278   -1.1988 C   0  0  0  0  0  0  0  0  0  0  0  0
   -2.5525   -0.6690   -0.2823 C   0  0  0  0  0  0  0  0  0  0  0  0
   -2.4687    0.0294    0.8427 C   0  0  0  0  0  0  0  0  0  0  0  0
   -2.7169    1.1713    1.4709 C   0  0  0  0  0  0  0  0  0  0  0  0
   -3.3553    1.9832    0.4736 C   0  0  0  0  0  0  0  0  0  0  0  0
   -3.5835    1.5140   -0.8202 C   0  0  0  0  0  0  0  0  0  0  0  0
   -3.3649   -0.1637   -2.1997 H   0  0  0  0  0  0  0  0  0  0  0  0
   -2.2342   -1.6747   -0.5276 H   0  0  0  0  0  0  0  0  0  0  0  0
    9.9840    1.1346   -0.3077 N   0  0  0  0  0  0  0  0  0  0  0  0
   11.0880    1.1758   -0.3430 N   0  0  0  0  0  0  0  0  0  0  0  0
   -4.0678    2.1604   -1.5441 H   0  0  0  0  0  0  0  0  0  0  0  0
   -3.6460    2.9802    0.7959 H   0  0  0  0  0  0  0  0  0  0  0  0
   -2.5173    1.4885    2.4871 H   0  0  0  0  0  0  0  0  0  0  0  0
  1  6  2  0  0  0  0
  1  2  1  0  0  0  0
  2  3  2  0  0  0  0
  3  4  1  0  0  0  0
  4 13  1  0  0  0  0
  5 12  1  0  0  0  0
  5  4  2  0  0  0  0
  6  5  1  0  0  0  0
  7  1  1  0  0  0  0
  8  2  1  0  0  0  0
 10  9  3  0  0  0  0
 11  6  1  0  0  0  0
M  RAD  1   3   2
M  END
