Coordinates from ORCA-job Ph-N2+-B3LYPG-6-31G_dp-MTMO-d009-169-n800
 OpenBabel09051908203D

 13 12  0  0  0  0  0  0  0  0999 V2000
   -2.5641    0.2109   -1.1795 C   0  0  0  0  0  0  0  0  0  0  0  0
   -1.4041   -0.3193   -0.5207 C   0  0  0  0  0  0  0  0  0  0  0  0
   -1.2828    0.4314    0.5667 C   0  0  0  0  0  0  0  0  0  0  0  0
   -1.7590    1.4365    1.2902 C   0  0  0  0  0  0  0  0  0  0  0  0
   -2.9027    1.8855    0.5475 C   0  0  0  0  0  0  0  0  0  0  0  0
   -3.2840    1.2823   -0.6509 C   0  0  0  0  0  0  0  0  0  0  0  0
   -2.8390   -0.2778   -2.1112 H   0  0  0  0  0  0  0  0  0  0  0  0
   -0.8131   -1.1493   -0.8884 H   0  0  0  0  0  0  0  0  0  0  0  0
    6.0674    0.7638   -0.1025 N   0  0  0  0  0  0  0  0  0  0  0  0
    7.1692    0.8478   -0.1291 N   0  0  0  0  0  0  0  0  0  0  0  0
   -4.1552    1.6525   -1.1800 H   0  0  0  0  0  0  0  0  0  0  0  0
   -3.4444    2.7227    0.9814 H   0  0  0  0  0  0  0  0  0  0  0  0
   -1.4219    1.8706    2.2233 H   0  0  0  0  0  0  0  0  0  0  0  0
  1  6  2  0  0  0  0
  1  2  1  0  0  0  0
  2  3  2  0  0  0  0
  3  4  1  0  0  0  0
  4 13  1  0  0  0  0
  5 12  1  0  0  0  0
  5  4  2  0  0  0  0
  6  5  1  0  0  0  0
  7  1  1  0  0  0  0
  8  2  1  0  0  0  0
 10  9  3  0  0  0  0
 11  6  1  0  0  0  0
M  RAD  1   3   2
M  END
