Coordinates from ORCA-job Ph-N2+-B3LYPG-6-31G_dp-MTMO-d009-169-n800
 OpenBabel09051908213D

 13 12  0  0  0  0  0  0  0  0999 V2000
   -3.0180    0.3848   -1.0403 C   0  0  0  0  0  0  0  0  0  0  0  0
   -2.8908   -0.6114   -0.0141 C   0  0  0  0  0  0  0  0  0  0  0  0
   -3.4685   -0.0566    1.0436 C   0  0  0  0  0  0  0  0  0  0  0  0
   -4.0975    0.9959    1.5507 C   0  0  0  0  0  0  0  0  0  0  0  0
   -4.1696    1.9176    0.4522 C   0  0  0  0  0  0  0  0  0  0  0  0
   -3.6418    1.6095   -0.8019 C   0  0  0  0  0  0  0  0  0  0  0  0
   -2.5992    0.1180   -2.0079 H   0  0  0  0  0  0  0  0  0  0  0  0
   -2.4201   -1.5775   -0.1490 H   0  0  0  0  0  0  0  0  0  0  0  0
   12.7158    1.0836   -0.8904 N   0  0  0  0  0  0  0  0  0  0  0  0
   13.8208    1.1050   -0.8994 N   0  0  0  0  0  0  0  0  0  0  0  0
   -3.7177    2.3345   -1.6052 H   0  0  0  0  0  0  0  0  0  0  0  0
   -4.6584    2.8652    0.6665 H   0  0  0  0  0  0  0  0  0  0  0  0
   -4.4886    1.1891    2.5421 H   0  0  0  0  0  0  0  0  0  0  0  0
  1  6  2  0  0  0  0
  1  2  1  0  0  0  0
  2  3  2  0  0  0  0
  3  4  1  0  0  0  0
  4 13  1  0  0  0  0
  5 12  1  0  0  0  0
  5  4  2  0  0  0  0
  6  5  1  0  0  0  0
  7  1  1  0  0  0  0
  8  2  1  0  0  0  0
 10  9  3  0  0  0  0
 11  6  1  0  0  0  0
M  RAD  1   3   2
M  END
