Coordinates from ORCA-job Ph-N2+-B3LYPG-6-31G_dp-MTMO-d009-169-n800
 OpenBabel09051908203D

 13 12  0  0  0  0  0  0  0  0999 V2000
   -2.3550    0.1252   -1.1195 C   0  0  0  0  0  0  0  0  0  0  0  0
   -0.9367   -0.0205   -0.9532 C   0  0  0  0  0  0  0  0  0  0  0  0
   -0.6434    0.8117    0.0376 C   0  0  0  0  0  0  0  0  0  0  0  0
   -1.0847    1.7001    0.9187 C   0  0  0  0  0  0  0  0  0  0  0  0
   -2.4962    1.7669    0.6661 C   0  0  0  0  0  0  0  0  0  0  0  0
   -3.1020    0.9973   -0.3273 C   0  0  0  0  0  0  0  0  0  0  0  0
   -2.8018   -0.4857   -1.9008 H   0  0  0  0  0  0  0  0  0  0  0  0
   -0.3116   -0.6807   -1.5422 H   0  0  0  0  0  0  0  0  0  0  0  0
    3.8933    0.6738    0.2660 N   0  0  0  0  0  0  0  0  0  0  0  0
    4.9973    0.6616    0.3143 N   0  0  0  0  0  0  0  0  0  0  0  0
   -4.1719    1.0791   -0.4872 H   0  0  0  0  0  0  0  0  0  0  0  0
   -3.0547    2.4537    1.2981 H   0  0  0  0  0  0  0  0  0  0  0  0
   -0.5662    2.2753    1.6762 H   0  0  0  0  0  0  0  0  0  0  0  0
  1  2  2  0  0  0  0
  1  6  1  0  0  0  0
  2  3  1  0  0  0  0
  3  4  2  0  0  0  0
  4 13  1  0  0  0  0
  5  4  1  0  0  0  0
  5 12  1  0  0  0  0
  6  5  2  0  0  0  0
  7  1  1  0  0  0  0
  8  2  1  0  0  0  0
  9 10  3  0  0  0  0
 11  6  1  0  0  0  0
M  RAD  1   3   2
M  END
