Coordinates from ORCA-job Ph-N2+-B3LYPG-6-31G_dp-MTMO-d009-169-n800
 OpenBabel09051908203D

 13 12  0  0  0  0  0  0  0  0999 V2000
   -2.9407    0.2111   -1.1826 C   0  0  0  0  0  0  0  0  0  0  0  0
   -1.9242   -0.4748   -0.4362 C   0  0  0  0  0  0  0  0  0  0  0  0
   -1.7797    0.2612    0.6583 C   0  0  0  0  0  0  0  0  0  0  0  0
   -2.1578    1.3330    1.3428 C   0  0  0  0  0  0  0  0  0  0  0  0
   -3.1634    1.9355    0.5140 C   0  0  0  0  0  0  0  0  0  0  0  0
   -3.5354    1.3813   -0.7108 C   0  0  0  0  0  0  0  0  0  0  0  0
   -3.2114   -0.2419   -2.1334 H   0  0  0  0  0  0  0  0  0  0  0  0
   -1.4331   -1.3849   -0.7582 H   0  0  0  0  0  0  0  0  0  0  0  0
    8.0757    0.9267   -0.1553 N   0  0  0  0  0  0  0  0  0  0  0  0
    9.1795    0.9720   -0.1905 N   0  0  0  0  0  0  0  0  0  0  0  0
   -4.2999    1.8686   -1.3062 H   0  0  0  0  0  0  0  0  0  0  0  0
   -3.6094    2.8467    0.9052 H   0  0  0  0  0  0  0  0  0  0  0  0
   -1.8338    1.7233    2.2997 H   0  0  0  0  0  0  0  0  0  0  0  0
  1  6  2  0  0  0  0
  1  2  1  0  0  0  0
  2  3  2  0  0  0  0
  3  4  1  0  0  0  0
  4 13  1  0  0  0  0
  5 12  1  0  0  0  0
  5  4  2  0  0  0  0
  6  5  1  0  0  0  0
  7  1  1  0  0  0  0
  8  2  1  0  0  0  0
 10  9  3  0  0  0  0
 11  6  1  0  0  0  0
M  RAD  1   3   2
M  END
