Coordinates from ORCA-job Ph-N2+-B3LYPG-6-31G_dp-MTMO-d009-169-n800
 OpenBabel09051908203D

 13 12  0  0  0  0  0  0  0  0999 V2000
   -3.1587    0.2083   -1.1842 C   0  0  0  0  0  0  0  0  0  0  0  0
   -2.2580   -0.5746   -0.3861 C   0  0  0  0  0  0  0  0  0  0  0  0
   -2.0888    0.1521    0.7110 C   0  0  0  0  0  0  0  0  0  0  0  0
   -2.3824    1.2647    1.3715 C   0  0  0  0  0  0  0  0  0  0  0  0
   -3.2772    1.9628    0.4921 C   0  0  0  0  0  0  0  0  0  0  0  0
   -3.6470    1.4396   -0.7470 C   0  0  0  0  0  0  0  0  0  0  0  0
   -3.4300   -0.2223   -2.1451 H   0  0  0  0  0  0  0  0  0  0  0  0
   -1.8510   -1.5342   -0.6803 H   0  0  0  0  0  0  0  0  0  0  0  0
    9.1941    1.0363   -0.1861 N   0  0  0  0  0  0  0  0  0  0  0  0
   10.2982    1.0781   -0.2163 N   0  0  0  0  0  0  0  0  0  0  0  0
   -4.3252    2.0001   -1.3815 H   0  0  0  0  0  0  0  0  0  0  0  0
   -3.6424    2.9196    0.8574 H   0  0  0  0  0  0  0  0  0  0  0  0
   -2.0652    1.6272    2.3414 H   0  0  0  0  0  0  0  0  0  0  0  0
  1  6  2  0  0  0  0
  1  2  1  0  0  0  0
  2  3  2  0  0  0  0
  3  4  1  0  0  0  0
  4 13  1  0  0  0  0
  5 12  1  0  0  0  0
  5  4  2  0  0  0  0
  6  5  1  0  0  0  0
  7  1  1  0  0  0  0
  8  2  1  0  0  0  0
 10  9  3  0  0  0  0
 11  6  1  0  0  0  0
M  RAD  1   3   2
M  END
