Coordinates from ORCA-job Ph-N2+-B3LYPG-6-31G_dp-MTMO-d009-169-n800
 OpenBabel09051908213D

 13 12  0  0  0  0  0  0  0  0999 V2000
   -2.7395    0.4009   -1.0303 C   0  0  0  0  0  0  0  0  0  0  0  0
   -2.6502   -0.6046   -0.0092 C   0  0  0  0  0  0  0  0  0  0  0  0
   -3.2704   -0.0610    1.0301 C   0  0  0  0  0  0  0  0  0  0  0  0
   -3.9219    0.9852    1.5216 C   0  0  0  0  0  0  0  0  0  0  0  0
   -3.9532    1.9171    0.4297 C   0  0  0  0  0  0  0  0  0  0  0  0
   -3.3754    1.6220   -0.8053 C   0  0  0  0  0  0  0  0  0  0  0  0
   -2.2825    0.1441   -1.9832 H   0  0  0  0  0  0  0  0  0  0  0  0
   -2.1717   -1.5682   -0.1347 H   0  0  0  0  0  0  0  0  0  0  0  0
   11.4263    1.0572   -0.8405 N   0  0  0  0  0  0  0  0  0  0  0  0
   12.5312    1.0809   -0.8590 N   0  0  0  0  0  0  0  0  0  0  0  0
   -3.4214    2.3545   -1.6042 H   0  0  0  0  0  0  0  0  0  0  0  0
   -4.4527    2.8615    0.6332 H   0  0  0  0  0  0  0  0  0  0  0  0
   -4.3523    1.1680    2.4986 H   0  0  0  0  0  0  0  0  0  0  0  0
  1  6  2  0  0  0  0
  1  2  1  0  0  0  0
  2  3  2  0  0  0  0
  3  4  1  0  0  0  0
  4 13  1  0  0  0  0
  5 12  1  0  0  0  0
  5  4  2  0  0  0  0
  6  5  1  0  0  0  0
  7  1  1  0  0  0  0
  8  2  1  0  0  0  0
 10  9  3  0  0  0  0
 11  6  1  0  0  0  0
M  RAD  1   3   2
M  END
