Coordinates from ORCA-job Ph-N2+-B3LYPG-6-31G_dp-MTMO-d009-169-n800
 OpenBabel09051908203D

 13 12  0  0  0  0  0  0  0  0999 V2000
   -2.3526    0.1249   -1.1192 C   0  0  0  0  0  0  0  0  0  0  0  0
   -0.9341   -0.0204   -0.9543 C   0  0  0  0  0  0  0  0  0  0  0  0
   -0.6402    0.8120    0.0362 C   0  0  0  0  0  0  0  0  0  0  0  0
   -1.0809    1.7003    0.9177 C   0  0  0  0  0  0  0  0  0  0  0  0
   -2.4926    1.7666    0.6664 C   0  0  0  0  0  0  0  0  0  0  0  0
   -3.0991    0.9968   -0.3264 C   0  0  0  0  0  0  0  0  0  0  0  0
   -2.7999   -0.4861   -1.9001 H   0  0  0  0  0  0  0  0  0  0  0  0
   -0.3093   -0.6804   -1.5438 H   0  0  0  0  0  0  0  0  0  0  0  0
    3.8764    0.6747    0.2664 N   0  0  0  0  0  0  0  0  0  0  0  0
    4.9804    0.6623    0.3153 N   0  0  0  0  0  0  0  0  0  0  0  0
   -4.1692    1.0782   -0.4853 H   0  0  0  0  0  0  0  0  0  0  0  0
   -3.0508    2.4533    1.2989 H   0  0  0  0  0  0  0  0  0  0  0  0
   -0.5618    2.2756    1.6747 H   0  0  0  0  0  0  0  0  0  0  0  0
  1  2  2  0  0  0  0
  1  6  1  0  0  0  0
  2  3  1  0  0  0  0
  3  4  2  0  0  0  0
  4 13  1  0  0  0  0
  5  4  1  0  0  0  0
  5 12  1  0  0  0  0
  6  5  2  0  0  0  0
  7  1  1  0  0  0  0
  8  2  1  0  0  0  0
  9 10  3  0  0  0  0
 11  6  1  0  0  0  0
M  RAD  1   3   2
M  END
