Coordinates from ORCA-job Ph-N2+-B3LYPG-6-31G_dp-MTMO-d009-169-n800
 OpenBabel09051908203D

 13 12  0  0  0  0  0  0  0  0999 V2000
   -2.0423    0.1009   -1.0887 C   0  0  0  0  0  0  0  0  0  0  0  0
   -0.6252    0.0026   -0.9927 C   0  0  0  0  0  0  0  0  0  0  0  0
   -0.2449    0.8392   -0.0179 C   0  0  0  0  0  0  0  0  0  0  0  0
   -0.7252    1.7147    0.8751 C   0  0  0  0  0  0  0  0  0  0  0  0
   -2.1384    1.7434    0.7030 C   0  0  0  0  0  0  0  0  0  0  0  0
   -2.7720    0.9530   -0.2578 C   0  0  0  0  0  0  0  0  0  0  0  0
   -2.5237   -0.5191   -1.8404 H   0  0  0  0  0  0  0  0  0  0  0  0
   -0.0167   -0.6413   -1.6137 H   0  0  0  0  0  0  0  0  0  0  0  0
    2.0454    0.7438    0.1912 N   0  0  0  0  0  0  0  0  0  0  0  0
    3.1443    0.7002    0.2893 N   0  0  0  0  0  0  0  0  0  0  0  0
   -3.8509    1.0026   -0.3610 H   0  0  0  0  0  0  0  0  0  0  0  0
   -2.6950    2.4102    1.3560 H   0  0  0  0  0  0  0  0  0  0  0  0
   -0.1892    2.3076    1.6043 H   0  0  0  0  0  0  0  0  0  0  0  0
  1  2  2  0  0  0  0
  1  6  1  0  0  0  0
  2  3  1  0  0  0  0
  3  4  2  0  0  0  0
  4 13  1  0  0  0  0
  5  4  1  0  0  0  0
  5 12  1  0  0  0  0
  6  5  2  0  0  0  0
  7  1  1  0  0  0  0
  8  2  1  0  0  0  0
  9 10  3  0  0  0  0
 11  6  1  0  0  0  0
M  RAD  1   3   2
M  END
