Coordinates from ORCA-job Ph-N2+-B3LYPG-6-31G_dp-MTMO-d009-169-n800
 OpenBabel09051908203D

 13 12  0  0  0  0  0  0  0  0999 V2000
   -2.5922    0.1778   -1.1612 C   0  0  0  0  0  0  0  0  0  0  0  0
   -1.2550   -0.1327   -0.7417 C   0  0  0  0  0  0  0  0  0  0  0  0
   -1.0558    0.6593    0.3040 C   0  0  0  0  0  0  0  0  0  0  0  0
   -1.5471    1.5926    1.1090 C   0  0  0  0  0  0  0  0  0  0  0  0
   -2.8709    1.8231    0.6043 C   0  0  0  0  0  0  0  0  0  0  0  0
   -3.3677    1.1300   -0.4997 C   0  0  0  0  0  0  0  0  0  0  0  0
   -2.9540   -0.3765   -2.0242 H   0  0  0  0  0  0  0  0  0  0  0  0
   -0.6129   -0.8617   -1.2212 H   0  0  0  0  0  0  0  0  0  0  0  0
    5.7293    0.6588    0.1269 N   0  0  0  0  0  0  0  0  0  0  0  0
    6.8340    0.6764    0.1018 N   0  0  0  0  0  0  0  0  0  0  0  0
   -4.3732    1.3355   -0.8498 H   0  0  0  0  0  0  0  0  0  0  0  0
   -3.4532    2.5706    1.1384 H   0  0  0  0  0  0  0  0  0  0  0  0
   -1.1150    2.1044    1.9602 H   0  0  0  0  0  0  0  0  0  0  0  0
  1  2  2  0  0  0  0
  1  6  1  0  0  0  0
  2  3  1  0  0  0  0
  3  4  2  0  0  0  0
  4 13  1  0  0  0  0
  5  4  1  0  0  0  0
  5 12  1  0  0  0  0
  6  5  2  0  0  0  0
  7  1  1  0  0  0  0
  8  2  1  0  0  0  0
 10  9  3  0  0  0  0
 11  6  1  0  0  0  0
M  RAD  1   3   2
M  END
