Coordinates from ORCA-job Ph-N2+-B3LYPG-6-31G_dp-MTMO-d009-169-n800
 OpenBabel09051908203D

 13 12  0  0  0  0  0  0  0  0999 V2000
   -2.3790    0.1283   -1.1220 C   0  0  0  0  0  0  0  0  0  0  0  0
   -0.9628   -0.0223   -0.9421 C   0  0  0  0  0  0  0  0  0  0  0  0
   -0.6764    0.8086    0.0517 C   0  0  0  0  0  0  0  0  0  0  0  0
   -1.1231    1.6984    0.9287 C   0  0  0  0  0  0  0  0  0  0  0  0
   -2.5318    1.7701    0.6625 C   0  0  0  0  0  0  0  0  0  0  0  0
   -3.1306    1.0027   -0.3370 C   0  0  0  0  0  0  0  0  0  0  0  0
   -2.8202   -0.4809   -1.9077 H   0  0  0  0  0  0  0  0  0  0  0  0
   -0.3345   -0.6846   -1.5254 H   0  0  0  0  0  0  0  0  0  0  0  0
    4.0616    0.6647    0.2610 N   0  0  0  0  0  0  0  0  0  0  0  0
    5.1658    0.6542    0.3037 N   0  0  0  0  0  0  0  0  0  0  0  0
   -4.1986    1.0883   -0.5072 H   0  0  0  0  0  0  0  0  0  0  0  0
   -3.0940    2.4587    1.2893 H   0  0  0  0  0  0  0  0  0  0  0  0
   -0.6101    2.2717    1.6914 H   0  0  0  0  0  0  0  0  0  0  0  0
  1  2  2  0  0  0  0
  1  6  1  0  0  0  0
  2  3  1  0  0  0  0
  3  4  2  0  0  0  0
  4 13  1  0  0  0  0
  5  4  1  0  0  0  0
  5 12  1  0  0  0  0
  6  5  2  0  0  0  0
  7  1  1  0  0  0  0
  8  2  1  0  0  0  0
  9 10  3  0  0  0  0
 11  6  1  0  0  0  0
M  RAD  1   3   2
M  END
