Coordinates from ORCA-job Ph-N2+-B3LYPG-6-31G_dp-MTMO-d009-169-n800
 OpenBabel09051908203D

 13 12  0  0  0  0  0  0  0  0999 V2000
   -2.7044    0.2132   -1.1814 C   0  0  0  0  0  0  0  0  0  0  0  0
   -1.5930   -0.3722   -0.4866 C   0  0  0  0  0  0  0  0  0  0  0  0
   -1.4717    0.3707    0.6062 C   0  0  0  0  0  0  0  0  0  0  0  0
   -1.9204    1.3993    1.3141 C   0  0  0  0  0  0  0  0  0  0  0  0
   -3.0166    1.9027    0.5358 C   0  0  0  0  0  0  0  0  0  0  0  0
   -3.3882    1.3184   -0.6749 C   0  0  0  0  0  0  0  0  0  0  0  0
   -2.9729   -0.2617   -2.1221 H   0  0  0  0  0  0  0  0  0  0  0  0
   -1.0310   -1.2295   -0.8365 H   0  0  0  0  0  0  0  0  0  0  0  0
    6.8535    0.8207   -0.1254 N   0  0  0  0  0  0  0  0  0  0  0  0
    7.9564    0.8825   -0.1612 N   0  0  0  0  0  0  0  0  0  0  0  0
   -4.2228    1.7304   -1.2316 H   0  0  0  0  0  0  0  0  0  0  0  0
   -3.5306    2.7655    0.9531 H   0  0  0  0  0  0  0  0  0  0  0  0
   -1.5920    1.8176    2.2575 H   0  0  0  0  0  0  0  0  0  0  0  0
  1  6  2  0  0  0  0
  1  2  1  0  0  0  0
  2  3  2  0  0  0  0
  3  4  1  0  0  0  0
  4 13  1  0  0  0  0
  5 12  1  0  0  0  0
  5  4  2  0  0  0  0
  6  5  1  0  0  0  0
  7  1  1  0  0  0  0
  8  2  1  0  0  0  0
 10  9  3  0  0  0  0
 11  6  1  0  0  0  0
M  RAD  1   3   2
M  END
