Coordinates from ORCA-job Ph-N2+-B3LYPG-6-31G_dp-MTMO-d009-169-n800
 OpenBabel09051908213D

 13 12  0  0  0  0  0  0  0  0999 V2000
   -2.8954    0.3828   -1.0537 C   0  0  0  0  0  0  0  0  0  0  0  0
   -2.7607   -0.6117   -0.0269 C   0  0  0  0  0  0  0  0  0  0  0  0
   -3.3266   -0.0533    1.0354 C   0  0  0  0  0  0  0  0  0  0  0  0
   -3.9479    1.0018    1.5466 C   0  0  0  0  0  0  0  0  0  0  0  0
   -4.0284    1.9215    0.4470 C   0  0  0  0  0  0  0  0  0  0  0  0
   -3.5137    1.6096   -0.8116 C   0  0  0  0  0  0  0  0  0  0  0  0
   -2.4867    0.1132   -2.0247 H   0  0  0  0  0  0  0  0  0  0  0  0
   -2.2937   -1.5792   -0.1645 H   0  0  0  0  0  0  0  0  0  0  0  0
   11.9759    1.0737   -0.8411 N   0  0  0  0  0  0  0  0  0  0  0  0
   13.0808    1.0975   -0.8495 N   0  0  0  0  0  0  0  0  0  0  0  0
   -3.5957    2.3333   -1.6155 H   0  0  0  0  0  0  0  0  0  0  0  0
   -4.5127    2.8707    0.6642 H   0  0  0  0  0  0  0  0  0  0  0  0
   -4.3290    1.1978    2.5413 H   0  0  0  0  0  0  0  0  0  0  0  0
  1  6  2  0  0  0  0
  1  2  1  0  0  0  0
  2  3  2  0  0  0  0
  3  4  1  0  0  0  0
  4 13  1  0  0  0  0
  5 12  1  0  0  0  0
  5  4  2  0  0  0  0
  6  5  1  0  0  0  0
  7  1  1  0  0  0  0
  8  2  1  0  0  0  0
 10  9  3  0  0  0  0
 11  6  1  0  0  0  0
M  RAD  1   3   2
M  END
