Coordinates from ORCA-job Ph-N2+-B3LYPG-6-31G_dp-MTMO-d009-169-n800
 OpenBabel09051908203D

 13 12  0  0  0  0  0  0  0  0999 V2000
   -2.0679    0.1025   -1.0908 C   0  0  0  0  0  0  0  0  0  0  0  0
   -0.6471    0.0008   -0.9947 C   0  0  0  0  0  0  0  0  0  0  0  0
   -0.2879    0.8392   -0.0201 C   0  0  0  0  0  0  0  0  0  0  0  0
   -0.7474    1.7155    0.8758 C   0  0  0  0  0  0  0  0  0  0  0  0
   -2.1640    1.7443    0.7001 C   0  0  0  0  0  0  0  0  0  0  0  0
   -2.7976    0.9551   -0.2610 C   0  0  0  0  0  0  0  0  0  0  0  0
   -2.5453   -0.5187   -1.8445 H   0  0  0  0  0  0  0  0  0  0  0  0
   -0.0370   -0.6431   -1.6143 H   0  0  0  0  0  0  0  0  0  0  0  0
    2.1818    0.7374    0.2042 N   0  0  0  0  0  0  0  0  0  0  0  0
    3.2815    0.6986    0.2977 N   0  0  0  0  0  0  0  0  0  0  0  0
   -3.8763    1.0058   -0.3655 H   0  0  0  0  0  0  0  0  0  0  0  0
   -2.7169    2.4132    1.3547 H   0  0  0  0  0  0  0  0  0  0  0  0
   -0.2097    2.3070    1.6051 H   0  0  0  0  0  0  0  0  0  0  0  0
  1  2  2  0  0  0  0
  1  6  1  0  0  0  0
  2  3  1  0  0  0  0
  3  4  2  0  0  0  0
  4 13  1  0  0  0  0
  5  4  1  0  0  0  0
  5 12  1  0  0  0  0
  6  5  2  0  0  0  0
  7  1  1  0  0  0  0
  8  2  1  0  0  0  0
  9 10  3  0  0  0  0
 11  6  1  0  0  0  0
M  RAD  1   3   2
M  END
