Coordinates from ORCA-job Ph-N2+-B3LYPG-6-31G_dp-MTMO-d009-169-n800
 OpenBabel09051908203D

 13 12  0  0  0  0  0  0  0  0999 V2000
   -2.6697    0.2128   -1.1810 C   0  0  0  0  0  0  0  0  0  0  0  0
   -1.5466   -0.3597   -0.4943 C   0  0  0  0  0  0  0  0  0  0  0  0
   -1.4258    0.3845    0.5976 C   0  0  0  0  0  0  0  0  0  0  0  0
   -1.8812    1.4080    1.3088 C   0  0  0  0  0  0  0  0  0  0  0  0
   -2.9887    1.8987    0.5386 C   0  0  0  0  0  0  0  0  0  0  0  0
   -3.3624    1.3101   -0.6695 C   0  0  0  0  0  0  0  0  0  0  0  0
   -2.9395   -0.2652   -2.1197 H   0  0  0  0  0  0  0  0  0  0  0  0
   -0.9773   -1.2106   -0.8483 H   0  0  0  0  0  0  0  0  0  0  0  0
    6.6604    0.8054   -0.1214 N   0  0  0  0  0  0  0  0  0  0  0  0
    7.7629    0.8758   -0.1531 N   0  0  0  0  0  0  0  0  0  0  0  0
   -4.2057    1.7125   -1.2201 H   0  0  0  0  0  0  0  0  0  0  0  0
   -3.5095    2.7556    0.9595 H   0  0  0  0  0  0  0  0  0  0  0  0
   -1.5507    1.8300    2.2497 H   0  0  0  0  0  0  0  0  0  0  0  0
  1  6  2  0  0  0  0
  1  2  1  0  0  0  0
  2  3  2  0  0  0  0
  3  4  1  0  0  0  0
  4 13  1  0  0  0  0
  5 12  1  0  0  0  0
  5  4  2  0  0  0  0
  6  5  1  0  0  0  0
  7  1  1  0  0  0  0
  8  2  1  0  0  0  0
 10  9  3  0  0  0  0
 11  6  1  0  0  0  0
M  RAD  1   3   2
M  END
