Coordinates from ORCA-job Ph-N2+-B3LYPG-6-31G_dp-MTMO-d009-169-n800
 OpenBabel09051908213D

 13 12  0  0  0  0  0  0  0  0999 V2000
   -2.9924    0.3080   -1.1701 C   0  0  0  0  0  0  0  0  0  0  0  0
   -2.6088   -0.6307   -0.1538 C   0  0  0  0  0  0  0  0  0  0  0  0
   -2.8878   -0.0039    0.9819 C   0  0  0  0  0  0  0  0  0  0  0  0
   -3.3548    1.0902    1.5697 C   0  0  0  0  0  0  0  0  0  0  0  0
   -3.7039    1.9492    0.4736 C   0  0  0  0  0  0  0  0  0  0  0  0
   -3.5232    1.5584   -0.8533 C   0  0  0  0  0  0  0  0  0  0  0  0
   -2.8400   -0.0222   -2.1952 H   0  0  0  0  0  0  0  0  0  0  0  0
   -2.1924   -1.6115   -0.3475 H   0  0  0  0  0  0  0  0  0  0  0  0
   10.8780    1.1007   -0.5640 N   0  0  0  0  0  0  0  0  0  0  0  0
   11.9823    1.1169   -0.6073 N   0  0  0  0  0  0  0  0  0  0  0  0
   -3.8000    2.2381   -1.6518 H   0  0  0  0  0  0  0  0  0  0  0  0
   -4.1151    2.9175    0.7495 H   0  0  0  0  0  0  0  0  0  0  0  0
   -3.4756    1.3472    2.6150 H   0  0  0  0  0  0  0  0  0  0  0  0
  1  6  2  0  0  0  0
  1  2  1  0  0  0  0
  2  3  2  0  0  0  0
  3  4  1  0  0  0  0
  4 13  1  0  0  0  0
  5 12  1  0  0  0  0
  5  4  2  0  0  0  0
  6  5  1  0  0  0  0
  7  1  1  0  0  0  0
  8  2  1  0  0  0  0
 10  9  3  0  0  0  0
 11  6  1  0  0  0  0
M  RAD  1   3   2
M  END
