Coordinates from ORCA-job Ph-N2+-B3LYPG-6-31G_dp-MTMO-d009-169-n800
 OpenBabel09051908213D

 13 12  0  0  0  0  0  0  0  0999 V2000
   -3.1960    0.2351   -1.2002 C   0  0  0  0  0  0  0  0  0  0  0  0
   -2.6447   -0.6899   -0.2504 C   0  0  0  0  0  0  0  0  0  0  0  0
   -2.6100   -0.0012    0.8832 C   0  0  0  0  0  0  0  0  0  0  0  0
   -2.8583    1.1454    1.5030 C   0  0  0  0  0  0  0  0  0  0  0  0
   -3.3996    1.9857    0.4721 C   0  0  0  0  0  0  0  0  0  0  0  0
   -3.5585    1.5324   -0.8376 C   0  0  0  0  0  0  0  0  0  0  0  0
   -3.3095   -0.1445   -2.2131 H   0  0  0  0  0  0  0  0  0  0  0  0
   -2.3466   -1.7050   -0.4823 H   0  0  0  0  0  0  0  0  0  0  0  0
   10.2732    1.1605   -0.3602 N   0  0  0  0  0  0  0  0  0  0  0  0
   11.3772    1.1992   -0.3964 N   0  0  0  0  0  0  0  0  0  0  0  0
   -3.9705    2.2000   -1.5866 H   0  0  0  0  0  0  0  0  0  0  0  0
   -3.6752    2.9907    0.7827 H   0  0  0  0  0  0  0  0  0  0  0  0
   -2.7152    1.4495    2.5327 H   0  0  0  0  0  0  0  0  0  0  0  0
  1  6  2  0  0  0  0
  1  2  1  0  0  0  0
  2  3  2  0  0  0  0
  3  4  1  0  0  0  0
  4 13  1  0  0  0  0
  5 12  1  0  0  0  0
  5  4  2  0  0  0  0
  6  5  1  0  0  0  0
  7  1  1  0  0  0  0
  8  2  1  0  0  0  0
 10  9  3  0  0  0  0
 11  6  1  0  0  0  0
M  RAD  1   3   2
M  END
