Coordinates from ORCA-job Ph-N2+-B3LYPG-6-31G_dp-MTMO-d009-169-n800
 OpenBabel09051908203D

 13 12  0  0  0  0  0  0  0  0999 V2000
   -2.0096    0.0986   -1.0866 C   0  0  0  0  0  0  0  0  0  0  0  0
   -0.5998    0.0048   -0.9883 C   0  0  0  0  0  0  0  0  0  0  0  0
   -0.1780    0.8373   -0.0127 C   0  0  0  0  0  0  0  0  0  0  0  0
   -0.6994    1.7118    0.8739 C   0  0  0  0  0  0  0  0  0  0  0  0
   -2.1056    1.7427    0.7070 C   0  0  0  0  0  0  0  0  0  0  0  0
   -2.7390    0.9511   -0.2543 C   0  0  0  0  0  0  0  0  0  0  0  0
   -2.4987   -0.5180   -1.8350 H   0  0  0  0  0  0  0  0  0  0  0  0
    0.0058   -0.6399   -1.6113 H   0  0  0  0  0  0  0  0  0  0  0  0
    1.8730    0.7507    0.1759 N   0  0  0  0  0  0  0  0  0  0  0  0
    2.9714    0.7059    0.2752 N   0  0  0  0  0  0  0  0  0  0  0  0
   -3.8180    1.0000   -0.3568 H   0  0  0  0  0  0  0  0  0  0  0  0
   -2.6695    2.4063    1.3560 H   0  0  0  0  0  0  0  0  0  0  0  0
   -0.1664    2.3063    1.6038 H   0  0  0  0  0  0  0  0  0  0  0  0
  1  2  2  0  0  0  0
  1  6  1  0  0  0  0
  2  3  1  0  0  0  0
  3  4  2  0  0  0  0
  4 13  1  0  0  0  0
  5  4  1  0  0  0  0
  5 12  1  0  0  0  0
  6  5  2  0  0  0  0
  7  1  1  0  0  0  0
  8  2  1  0  0  0  0
  9 10  3  0  0  0  0
 11  6  1  0  0  0  0
M  RAD  1   3   2
M  END
