Coordinates from ORCA-job Ph-N2+-B3LYPG-6-31G_dp-MTMO-d009-169-n800
 OpenBabel09051908203D

 13 12  0  0  0  0  0  0  0  0999 V2000
   -2.4593    0.1392   -1.1312 C   0  0  0  0  0  0  0  0  0  0  0  0
   -1.0528   -0.0355   -0.9033 C   0  0  0  0  0  0  0  0  0  0  0  0
   -0.7870    0.7894    0.1013 C   0  0  0  0  0  0  0  0  0  0  0  0
   -1.2484    1.6859    0.9638 C   0  0  0  0  0  0  0  0  0  0  0  0
   -2.6458    1.7815    0.6495 C   0  0  0  0  0  0  0  0  0  0  0  0
   -3.2227    1.0254   -0.3711 C   0  0  0  0  0  0  0  0  0  0  0  0
   -2.8833   -0.4617   -1.9326 H   0  0  0  0  0  0  0  0  0  0  0  0
   -0.4164   -0.7078   -1.4660 H   0  0  0  0  0  0  0  0  0  0  0  0
    4.6149    0.6439    0.2430 N   0  0  0  0  0  0  0  0  0  0  0  0
    5.7197    0.6397    0.2689 N   0  0  0  0  0  0  0  0  0  0  0  0
   -4.2826    1.1290   -0.5778 H   0  0  0  0  0  0  0  0  0  0  0  0
   -3.2174    2.4788    1.2578 H   0  0  0  0  0  0  0  0  0  0  0  0
   -0.7527    2.2499    1.7446 H   0  0  0  0  0  0  0  0  0  0  0  0
  1  2  2  0  0  0  0
  1  6  1  0  0  0  0
  2  3  1  0  0  0  0
  3  4  2  0  0  0  0
  4 13  1  0  0  0  0
  5  4  1  0  0  0  0
  5 12  1  0  0  0  0
  6  5  2  0  0  0  0
  7  1  1  0  0  0  0
  8  2  1  0  0  0  0
  9 10  3  0  0  0  0
 11  6  1  0  0  0  0
M  RAD  1   3   2
M  END
