Coordinates from ORCA-job Ph-N2+-B3LYPG-6-31G_dp-MTMO-d009-169-n800
 OpenBabel09051908203D

 13 13  0  0  0  0  0  0  0  0999 V2000
   -1.9863    0.0966   -1.0855 C   0  0  0  0  0  0  0  0  0  0  0  0
   -0.5839    0.0072   -0.9841 C   0  0  0  0  0  0  0  0  0  0  0  0
   -0.1199    0.8353   -0.0078 C   0  0  0  0  0  0  0  0  0  0  0  0
   -0.6833    1.7086    0.8720 C   0  0  0  0  0  0  0  0  0  0  0  0
   -2.0825    1.7427    0.7103 C   0  0  0  0  0  0  0  0  0  0  0  0
   -2.7155    0.9499   -0.2519 C   0  0  0  0  0  0  0  0  0  0  0  0
   -2.4829   -0.5167   -1.8310 H   0  0  0  0  0  0  0  0  0  0  0  0
    0.0194   -0.6384   -1.6087 H   0  0  0  0  0  0  0  0  0  0  0  0
    1.7517    0.7558    0.1648 N   0  0  0  0  0  0  0  0  0  0  0  0
    2.8502    0.7102    0.2648 N   0  0  0  0  0  0  0  0  0  0  0  0
   -3.7946    0.9985   -0.3542 H   0  0  0  0  0  0  0  0  0  0  0  0
   -2.6534    2.4033    1.3552 H   0  0  0  0  0  0  0  0  0  0  0  0
   -0.1526    2.3046    1.6029 H   0  0  0  0  0  0  0  0  0  0  0  0
  1  2  2  0  0  0  0
  1  6  1  0  0  0  0
  2  3  1  0  0  0  0
  3  9  1  0  0  0  0
  3  4  2  0  0  0  0
  4 13  1  0  0  0  0
  5  4  1  0  0  0  0
  5 12  1  0  0  0  0
  6  5  2  0  0  0  0
  7  1  1  0  0  0  0
  8  2  1  0  0  0  0
  9 10  1  0  0  0  0
 11  6  1  0  0  0  0
M  RAD  2   9   2  10   3
M  END
