Coordinates from ORCA-job Ph-N2+-B3LYPG-6-31G_dp-MTMO-d009-169-n800
 OpenBabel09051908203D

 13 13  0  0  0  0  0  0  0  0999 V2000
   -1.9258    0.0907   -1.0835 C   0  0  0  0  0  0  0  0  0  0  0  0
   -0.5465    0.0151   -0.9713 C   0  0  0  0  0  0  0  0  0  0  0  0
    0.0663    0.8280    0.0087 C   0  0  0  0  0  0  0  0  0  0  0  0
   -0.6448    1.6984    0.8651 C   0  0  0  0  0  0  0  0  0  0  0  0
   -2.0224    1.7434    0.7195 C   0  0  0  0  0  0  0  0  0  0  0  0
   -2.6567    0.9471   -0.2462 C   0  0  0  0  0  0  0  0  0  0  0  0
   -2.4358   -0.5164   -1.8236 H   0  0  0  0  0  0  0  0  0  0  0  0
    0.0479   -0.6357   -1.6032 H   0  0  0  0  0  0  0  0  0  0  0  0
    1.4198    0.7700    0.1342 N   0  0  0  0  0  0  0  0  0  0  0  0
    2.5304    0.7226    0.2368 N   0  0  0  0  0  0  0  0  0  0  0  0
   -3.7368    0.9951   -0.3480 H   0  0  0  0  0  0  0  0  0  0  0  0
   -2.6058    2.3986    1.3572 H   0  0  0  0  0  0  0  0  0  0  0  0
   -0.1235    2.3007    1.6011 H   0  0  0  0  0  0  0  0  0  0  0  0
  1  2  2  0  0  0  0
  1  6  1  0  0  0  0
  2  3  1  0  0  0  0
  3  9  1  0  0  0  0
  3  4  2  0  0  0  0
  4 13  1  0  0  0  0
  5  4  1  0  0  0  0
  5 12  1  0  0  0  0
  6  5  2  0  0  0  0
  7  1  1  0  0  0  0
  8  2  1  0  0  0  0
  9 10  1  0  0  0  0
 11  6  1  0  0  0  0
M  RAD  2   9   2  10   3
M  END
