Coordinates from ORCA-job Ph-N2+-B3LYPG-6-31G_dp-MTMO-d009-169-n800
 OpenBabel09051908203D

 13 12  0  0  0  0  0  0  0  0999 V2000
   -2.5026    0.2083   -1.1777 C   0  0  0  0  0  0  0  0  0  0  0  0
   -1.3118   -0.2847   -0.5457 C   0  0  0  0  0  0  0  0  0  0  0  0
   -1.1897    0.4692    0.5393 C   0  0  0  0  0  0  0  0  0  0  0  0
   -1.6788    1.4616    1.2718 C   0  0  0  0  0  0  0  0  0  0  0  0
   -2.8527    1.8737    0.5559 C   0  0  0  0  0  0  0  0  0  0  0  0
   -3.2429    1.2576   -0.6332 C   0  0  0  0  0  0  0  0  0  0  0  0
   -2.7839   -0.2897   -2.1026 H   0  0  0  0  0  0  0  0  0  0  0  0
   -0.7031   -1.0957   -0.9269 H   0  0  0  0  0  0  0  0  0  0  0  0
    5.7048    0.7345   -0.0823 N   0  0  0  0  0  0  0  0  0  0  0  0
    6.8064    0.8198   -0.1066 N   0  0  0  0  0  0  0  0  0  0  0  0
   -4.1368    1.6004   -1.1425 H   0  0  0  0  0  0  0  0  0  0  0  0
   -3.4098    2.6946    1.0016 H   0  0  0  0  0  0  0  0  0  0  0  0
   -1.3328    1.9081    2.1957 H   0  0  0  0  0  0  0  0  0  0  0  0
  1  6  2  0  0  0  0
  1  2  1  0  0  0  0
  2  3  2  0  0  0  0
  3  4  1  0  0  0  0
  4 13  1  0  0  0  0
  5 12  1  0  0  0  0
  5  4  2  0  0  0  0
  6  5  1  0  0  0  0
  7  1  1  0  0  0  0
  8  2  1  0  0  0  0
 10  9  3  0  0  0  0
 11  6  1  0  0  0  0
M  RAD  1   3   2
M  END
