Coordinates from ORCA-job Ph-N2+-B3LYPG-6-31G_dp-MTMO-d009-169-n800
 OpenBabel09051908203D

 13 12  0  0  0  0  0  0  0  0999 V2000
   -2.6415    0.2123   -1.1806 C   0  0  0  0  0  0  0  0  0  0  0  0
   -1.5094   -0.3507   -0.5007 C   0  0  0  0  0  0  0  0  0  0  0  0
   -1.3871    0.3964    0.5891 C   0  0  0  0  0  0  0  0  0  0  0  0
   -1.8479    1.4147    1.3041 C   0  0  0  0  0  0  0  0  0  0  0  0
   -2.9644    1.8959    0.5405 C   0  0  0  0  0  0  0  0  0  0  0  0
   -3.3404    1.3037   -0.6650 C   0  0  0  0  0  0  0  0  0  0  0  0
   -2.9129   -0.2685   -2.1175 H   0  0  0  0  0  0  0  0  0  0  0  0
   -0.9357   -1.1972   -0.8579 H   0  0  0  0  0  0  0  0  0  0  0  0
    6.5001    0.7946   -0.1173 N   0  0  0  0  0  0  0  0  0  0  0  0
    7.6024    0.8709   -0.1459 N   0  0  0  0  0  0  0  0  0  0  0  0
   -4.1908    1.6984   -1.2102 H   0  0  0  0  0  0  0  0  0  0  0  0
   -3.4901    2.7482    0.9647 H   0  0  0  0  0  0  0  0  0  0  0  0
   -1.5161    1.8390    2.2435 H   0  0  0  0  0  0  0  0  0  0  0  0
  1  6  2  0  0  0  0
  1  2  1  0  0  0  0
  2  3  2  0  0  0  0
  3  4  1  0  0  0  0
  4 13  1  0  0  0  0
  5 12  1  0  0  0  0
  5  4  2  0  0  0  0
  6  5  1  0  0  0  0
  7  1  1  0  0  0  0
  8  2  1  0  0  0  0
 10  9  3  0  0  0  0
 11  6  1  0  0  0  0
M  RAD  1   3   2
M  END
