Coordinates from ORCA-job Ph-N2+-B3LYPG-6-31G_dp-MTMO-d009-169-n800
 OpenBabel09051908203D

 13 13  0  0  0  0  0  0  0  0999 V2000
   -1.9391    0.0917   -1.0843 C   0  0  0  0  0  0  0  0  0  0  0  0
   -0.5552    0.0138   -0.9737 C   0  0  0  0  0  0  0  0  0  0  0  0
    0.0241    0.8297    0.0049 C   0  0  0  0  0  0  0  0  0  0  0  0
   -0.6537    1.7002    0.8661 C   0  0  0  0  0  0  0  0  0  0  0  0
   -2.0356    1.7435    0.7178 C   0  0  0  0  0  0  0  0  0  0  0  0
   -2.6690    0.9477   -0.2474 C   0  0  0  0  0  0  0  0  0  0  0  0
   -2.4483   -0.5157   -1.8247 H   0  0  0  0  0  0  0  0  0  0  0  0
    0.0410   -0.6358   -1.6040 H   0  0  0  0  0  0  0  0  0  0  0  0
    1.4972    0.7667    0.1413 N   0  0  0  0  0  0  0  0  0  0  0  0
    2.6027    0.7197    0.2432 N   0  0  0  0  0  0  0  0  0  0  0  0
   -3.7489    0.9958   -0.3493 H   0  0  0  0  0  0  0  0  0  0  0  0
   -2.6184    2.3990    1.3558 H   0  0  0  0  0  0  0  0  0  0  0  0
   -0.1305    2.3012    1.6010 H   0  0  0  0  0  0  0  0  0  0  0  0
  1  2  2  0  0  0  0
  1  6  1  0  0  0  0
  2  3  1  0  0  0  0
  3  9  1  0  0  0  0
  3  4  2  0  0  0  0
  4 13  1  0  0  0  0
  5  4  1  0  0  0  0
  5 12  1  0  0  0  0
  6  5  2  0  0  0  0
  7  1  1  0  0  0  0
  8  2  1  0  0  0  0
  9 10  1  0  0  0  0
 11  6  1  0  0  0  0
M  RAD  2   9   2  10   3
M  END
