Coordinates from ORCA-job Ph-N2+-B3LYPG-6-31G_dp-MTMO-d009-169-n800
 OpenBabel09051908213D

 13 12  0  0  0  0  0  0  0  0999 V2000
   -2.7826    0.4005   -1.0293 C   0  0  0  0  0  0  0  0  0  0  0  0
   -2.6883   -0.6038   -0.0075 C   0  0  0  0  0  0  0  0  0  0  0  0
   -3.3065   -0.0601    1.0330 C   0  0  0  0  0  0  0  0  0  0  0  0
   -3.9590    0.9852    1.5250 C   0  0  0  0  0  0  0  0  0  0  0  0
   -3.9953    1.9159    0.4322 C   0  0  0  0  0  0  0  0  0  0  0  0
   -3.4204    1.6206   -0.8040 C   0  0  0  0  0  0  0  0  0  0  0  0
   -2.3279    0.1436   -1.9832 H   0  0  0  0  0  0  0  0  0  0  0  0
   -2.2081   -1.5664   -0.1338 H   0  0  0  0  0  0  0  0  0  0  0  0
   11.6514    1.0594   -0.8530 N   0  0  0  0  0  0  0  0  0  0  0  0
   12.7563    1.0833   -0.8680 N   0  0  0  0  0  0  0  0  0  0  0  0
   -3.4702    2.3520   -1.6037 H   0  0  0  0  0  0  0  0  0  0  0  0
   -4.4962    2.8596    0.6360 H   0  0  0  0  0  0  0  0  0  0  0  0
   -4.3868    1.1676    2.5032 H   0  0  0  0  0  0  0  0  0  0  0  0
  1  6  2  0  0  0  0
  1  2  1  0  0  0  0
  2  3  2  0  0  0  0
  3  4  1  0  0  0  0
  4 13  1  0  0  0  0
  5 12  1  0  0  0  0
  5  4  2  0  0  0  0
  6  5  1  0  0  0  0
  7  1  1  0  0  0  0
  8  2  1  0  0  0  0
 10  9  3  0  0  0  0
 11  6  1  0  0  0  0
M  RAD  1   3   2
M  END
