Coordinates from ORCA-job Ph-N2+-B3LYPG-6-31G_dp-MTMO-d009-169-n800
 OpenBabel09051908213D

 13 12  0  0  0  0  0  0  0  0999 V2000
   -2.7388    0.3782   -1.0657 C   0  0  0  0  0  0  0  0  0  0  0  0
   -2.6141   -0.6191   -0.0404 C   0  0  0  0  0  0  0  0  0  0  0  0
   -3.1704   -0.0549    1.0239 C   0  0  0  0  0  0  0  0  0  0  0  0
   -3.7772    1.0073    1.5378 C   0  0  0  0  0  0  0  0  0  0  0  0
   -3.8488    1.9292    0.4394 C   0  0  0  0  0  0  0  0  0  0  0  0
   -3.3410    1.6124   -0.8207 C   0  0  0  0  0  0  0  0  0  0  0  0
   -2.3358    0.1046   -2.0380 H   0  0  0  0  0  0  0  0  0  0  0  0
   -2.1594   -1.5922   -0.1801 H   0  0  0  0  0  0  0  0  0  0  0  0
   11.0684    1.0734   -0.7799 N   0  0  0  0  0  0  0  0  0  0  0  0
   12.1734    1.0899   -0.7980 N   0  0  0  0  0  0  0  0  0  0  0  0
   -3.4158    2.3380   -1.6237 H   0  0  0  0  0  0  0  0  0  0  0  0
   -4.3208    2.8842    0.6588 H   0  0  0  0  0  0  0  0  0  0  0  0
   -4.1535    1.2069    2.5335 H   0  0  0  0  0  0  0  0  0  0  0  0
  1  6  2  0  0  0  0
  1  2  1  0  0  0  0
  2  3  2  0  0  0  0
  3  4  1  0  0  0  0
  4 13  1  0  0  0  0
  5 12  1  0  0  0  0
  5  4  2  0  0  0  0
  6  5  1  0  0  0  0
  7  1  1  0  0  0  0
  8  2  1  0  0  0  0
 10  9  3  0  0  0  0
 11  6  1  0  0  0  0
M  RAD  1   3   2
M  END
