Coordinates from ORCA-job Ph-N2+-B3LYPG-6-31G_dp-MTMO-d009-169-n800
 OpenBabel09051908203D

 13 12  0  0  0  0  0  0  0  0999 V2000
   -2.4248    0.1344   -1.1271 C   0  0  0  0  0  0  0  0  0  0  0  0
   -1.0136   -0.0282   -0.9201 C   0  0  0  0  0  0  0  0  0  0  0  0
   -0.7397    0.7997    0.0798 C   0  0  0  0  0  0  0  0  0  0  0  0
   -1.1957    1.6928    0.9486 C   0  0  0  0  0  0  0  0  0  0  0  0
   -2.5984    1.7764    0.6552 C   0  0  0  0  0  0  0  0  0  0  0  0
   -3.1841    1.0147   -0.3561 C   0  0  0  0  0  0  0  0  0  0  0  0
   -2.8557   -0.4706   -1.9217 H   0  0  0  0  0  0  0  0  0  0  0  0
   -0.3799   -0.6954   -1.4918 H   0  0  0  0  0  0  0  0  0  0  0  0
    4.3806    0.6506    0.2506 N   0  0  0  0  0  0  0  0  0  0  0  0
    5.4852    0.6435    0.2832 N   0  0  0  0  0  0  0  0  0  0  0  0
   -4.2479    1.1093   -0.5470 H   0  0  0  0  0  0  0  0  0  0  0  0
   -3.1667    2.4693    1.2716 H   0  0  0  0  0  0  0  0  0  0  0  0
   -0.6930    2.2614    1.7216 H   0  0  0  0  0  0  0  0  0  0  0  0
  1  2  2  0  0  0  0
  1  6  1  0  0  0  0
  2  3  1  0  0  0  0
  3  4  2  0  0  0  0
  4 13  1  0  0  0  0
  5  4  1  0  0  0  0
  5 12  1  0  0  0  0
  6  5  2  0  0  0  0
  7  1  1  0  0  0  0
  8  2  1  0  0  0  0
  9 10  3  0  0  0  0
 11  6  1  0  0  0  0
M  RAD  1   3   2
M  END
