Coordinates from ORCA-job Ph-N2+-B3LYPG-6-31G_dp-MTMO-d009-169-n800
 OpenBabel09051908203D

 13 12  0  0  0  0  0  0  0  0999 V2000
   -3.1177    0.2075   -1.1830 C   0  0  0  0  0  0  0  0  0  0  0  0
   -2.1913   -0.5587   -0.3981 C   0  0  0  0  0  0  0  0  0  0  0  0
   -2.0189    0.1718    0.6960 C   0  0  0  0  0  0  0  0  0  0  0  0
   -2.3249    1.2778    1.3618 C   0  0  0  0  0  0  0  0  0  0  0  0
   -3.2450    1.9593    0.4955 C   0  0  0  0  0  0  0  0  0  0  0  0
   -3.6226    1.4293   -0.7383 C   0  0  0  0  0  0  0  0  0  0  0  0
   -3.3946   -0.2282   -2.1401 H   0  0  0  0  0  0  0  0  0  0  0  0
   -1.7716   -1.5109   -0.6981 H   0  0  0  0  0  0  0  0  0  0  0  0
    8.9468    1.0175   -0.1749 N   0  0  0  0  0  0  0  0  0  0  0  0
   10.0508    1.0608   -0.2053 N   0  0  0  0  0  0  0  0  0  0  0  0
   -4.3206    1.9769   -1.3626 H   0  0  0  0  0  0  0  0  0  0  0  0
   -3.6227    2.9090    0.8664 H   0  0  0  0  0  0  0  0  0  0  0  0
   -2.0015    1.6457    2.3277 H   0  0  0  0  0  0  0  0  0  0  0  0
  1  6  2  0  0  0  0
  1  2  1  0  0  0  0
  2  3  2  0  0  0  0
  3  4  1  0  0  0  0
  4 13  1  0  0  0  0
  5 12  1  0  0  0  0
  5  4  2  0  0  0  0
  6  5  1  0  0  0  0
  7  1  1  0  0  0  0
  8  2  1  0  0  0  0
 10  9  3  0  0  0  0
 11  6  1  0  0  0  0
M  RAD  1   3   2
M  END
