Coordinates from ORCA-job Ph-N2+-B3LYPG-6-31G_dp-MTMO-d009-169-n800
 OpenBabel09051908203D

 13 12  0  0  0  0  0  0  0  0999 V2000
   -2.0941    0.1039   -1.0932 C   0  0  0  0  0  0  0  0  0  0  0  0
   -0.6710   -0.0006   -0.9963 C   0  0  0  0  0  0  0  0  0  0  0  0
   -0.3262    0.8389   -0.0217 C   0  0  0  0  0  0  0  0  0  0  0  0
   -0.7715    1.7159    0.8760 C   0  0  0  0  0  0  0  0  0  0  0  0
   -2.1903    1.7455    0.6973 C   0  0  0  0  0  0  0  0  0  0  0  0
   -2.8239    0.9572   -0.2644 C   0  0  0  0  0  0  0  0  0  0  0  0
   -2.5687   -0.5179   -1.8484 H   0  0  0  0  0  0  0  0  0  0  0  0
   -0.0593   -0.6447   -1.6147 H   0  0  0  0  0  0  0  0  0  0  0  0
    2.3232    0.7322    0.2163 N   0  0  0  0  0  0  0  0  0  0  0  0
    3.4233    0.6959    0.3073 N   0  0  0  0  0  0  0  0  0  0  0  0
   -3.9024    1.0092   -0.3701 H   0  0  0  0  0  0  0  0  0  0  0  0
   -2.7406    2.4159    1.3529 H   0  0  0  0  0  0  0  0  0  0  0  0
   -0.2322    2.3061    1.6056 H   0  0  0  0  0  0  0  0  0  0  0  0
  1  2  2  0  0  0  0
  1  6  1  0  0  0  0
  2  3  1  0  0  0  0
  3  4  2  0  0  0  0
  4 13  1  0  0  0  0
  5  4  1  0  0  0  0
  5 12  1  0  0  0  0
  6  5  2  0  0  0  0
  7  1  1  0  0  0  0
  8  2  1  0  0  0  0
  9 10  3  0  0  0  0
 11  6  1  0  0  0  0
M  RAD  1   3   2
M  END
