Coordinates from ORCA-job Ph-N2+-B3LYPG-6-31G_dp-MTMO-d009-169-n800
 OpenBabel09051908213D

 13 12  0  0  0  0  0  0  0  0999 V2000
   -2.6616    0.3883   -1.0383 C   0  0  0  0  0  0  0  0  0  0  0  0
   -2.5975   -0.6233   -0.0212 C   0  0  0  0  0  0  0  0  0  0  0  0
   -3.2032   -0.0683    1.0206 C   0  0  0  0  0  0  0  0  0  0  0  0
   -3.8269    0.9924    1.5170 C   0  0  0  0  0  0  0  0  0  0  0  0
   -3.8350    1.9291    0.4289 C   0  0  0  0  0  0  0  0  0  0  0  0
   -3.2657    1.6243   -0.8078 C   0  0  0  0  0  0  0  0  0  0  0  0
   -2.2120    0.1237   -1.9925 H   0  0  0  0  0  0  0  0  0  0  0  0
   -2.1440   -1.5984   -0.1506 H   0  0  0  0  0  0  0  0  0  0  0  0
   10.9313    1.0703   -0.8001 N   0  0  0  0  0  0  0  0  0  0  0  0
   12.0357    1.0910   -0.8373 N   0  0  0  0  0  0  0  0  0  0  0  0
   -3.2932    2.3610   -1.6036 H   0  0  0  0  0  0  0  0  0  0  0  0
   -4.3100    2.8851    0.6367 H   0  0  0  0  0  0  0  0  0  0  0  0
   -4.2515    1.1825    2.4951 H   0  0  0  0  0  0  0  0  0  0  0  0
  1  6  2  0  0  0  0
  1  2  1  0  0  0  0
  2  3  2  0  0  0  0
  3  4  1  0  0  0  0
  4 13  1  0  0  0  0
  5 12  1  0  0  0  0
  5  4  2  0  0  0  0
  6  5  1  0  0  0  0
  7  1  1  0  0  0  0
  8  2  1  0  0  0  0
 10  9  3  0  0  0  0
 11  6  1  0  0  0  0
M  RAD  1   3   2
M  END
