Coordinates from ORCA-job Ph-N2+-B3LYPG-6-31G_dp-MTMO-d009-169-n800
 OpenBabel09051908213D

 13 12  0  0  0  0  0  0  0  0999 V2000
   -3.0938    0.3803   -1.0411 C   0  0  0  0  0  0  0  0  0  0  0  0
   -2.9606   -0.6144   -0.0143 C   0  0  0  0  0  0  0  0  0  0  0  0
   -3.5279   -0.0564    1.0473 C   0  0  0  0  0  0  0  0  0  0  0  0
   -4.1509    0.9982    1.5576 C   0  0  0  0  0  0  0  0  0  0  0  0
   -4.2297    1.9183    0.4581 C   0  0  0  0  0  0  0  0  0  0  0  0
   -3.7128    1.6069   -0.7997 C   0  0  0  0  0  0  0  0  0  0  0  0
   -2.6834    0.1111   -2.0115 H   0  0  0  0  0  0  0  0  0  0  0  0
   -2.4931   -1.5818   -0.1514 H   0  0  0  0  0  0  0  0  0  0  0  0
   13.0780    1.0917   -0.9067 N   0  0  0  0  0  0  0  0  0  0  0  0
   14.1830    1.1121   -0.9142 N   0  0  0  0  0  0  0  0  0  0  0  0
   -3.7938    2.3307   -1.6036 H   0  0  0  0  0  0  0  0  0  0  0  0
   -4.7148    2.8672    0.6747 H   0  0  0  0  0  0  0  0  0  0  0  0
   -4.5340    1.1937    2.5516 H   0  0  0  0  0  0  0  0  0  0  0  0
  1  6  2  0  0  0  0
  1  2  1  0  0  0  0
  2  3  2  0  0  0  0
  3  4  1  0  0  0  0
  4 13  1  0  0  0  0
  5 12  1  0  0  0  0
  5  4  2  0  0  0  0
  6  5  1  0  0  0  0
  7  1  1  0  0  0  0
  8  2  1  0  0  0  0
 10  9  3  0  0  0  0
 11  6  1  0  0  0  0
M  RAD  1   3   2
M  END
