Coordinates from ORCA-job Ph-N2+-B3LYPG-6-31G_dp-MTMO-d009-169-n800
 OpenBabel09051908203D

 13 12  0  0  0  0  0  0  0  0999 V2000
   -3.1413    0.2079   -1.1837 C   0  0  0  0  0  0  0  0  0  0  0  0
   -2.2294   -0.5681   -0.3914 C   0  0  0  0  0  0  0  0  0  0  0  0
   -2.0577    0.1608    0.7039 C   0  0  0  0  0  0  0  0  0  0  0  0
   -2.3569    1.2703    1.3671 C   0  0  0  0  0  0  0  0  0  0  0  0
   -3.2627    1.9615    0.4934 C   0  0  0  0  0  0  0  0  0  0  0  0
   -3.6363    1.4353   -0.7432 C   0  0  0  0  0  0  0  0  0  0  0  0
   -3.4154   -0.2250   -2.1428 H   0  0  0  0  0  0  0  0  0  0  0  0
   -1.8176   -1.5248   -0.6880 H   0  0  0  0  0  0  0  0  0  0  0  0
    9.0865    1.0285   -0.1810 N   0  0  0  0  0  0  0  0  0  0  0  0
   10.1906    1.0709   -0.2112 N   0  0  0  0  0  0  0  0  0  0  0  0
   -4.3234    1.9902   -1.3731 H   0  0  0  0  0  0  0  0  0  0  0  0
   -3.6330    2.9153    0.8612 H   0  0  0  0  0  0  0  0  0  0  0  0
   -2.0371    1.6349    2.3354 H   0  0  0  0  0  0  0  0  0  0  0  0
  1  6  2  0  0  0  0
  1  2  1  0  0  0  0
  2  3  2  0  0  0  0
  3  4  1  0  0  0  0
  4 13  1  0  0  0  0
  5 12  1  0  0  0  0
  5  4  2  0  0  0  0
  6  5  1  0  0  0  0
  7  1  1  0  0  0  0
  8  2  1  0  0  0  0
 10  9  3  0  0  0  0
 11  6  1  0  0  0  0
M  RAD  1   3   2
M  END
