Coordinates from ORCA-job Ph-N2+-B3LYPG-6-31G_dp-MTMO-d009-169-n800
 OpenBabel09051908213D

 13 12  0  0  0  0  0  0  0  0999 V2000
   -2.9062    0.3944   -1.0325 C   0  0  0  0  0  0  0  0  0  0  0  0
   -2.7971   -0.6061   -0.0085 C   0  0  0  0  0  0  0  0  0  0  0  0
   -3.4000   -0.0588    1.0390 C   0  0  0  0  0  0  0  0  0  0  0  0
   -4.0442    0.9888    1.5373 C   0  0  0  0  0  0  0  0  0  0  0  0
   -4.0963    1.9154    0.4418 C   0  0  0  0  0  0  0  0  0  0  0  0
   -3.5400    1.6155   -0.8019 C   0  0  0  0  0  0  0  0  0  0  0  0
   -2.4656    0.1340   -1.9921 H   0  0  0  0  0  0  0  0  0  0  0  0
   -2.3196   -1.5697   -0.1377 H   0  0  0  0  0  0  0  0  0  0  0  0
   12.2414    1.0704   -0.8767 N   0  0  0  0  0  0  0  0  0  0  0  0
   13.3463    1.0942   -0.8893 N   0  0  0  0  0  0  0  0  0  0  0  0
   -3.6015    2.3441   -1.6033 H   0  0  0  0  0  0  0  0  0  0  0  0
   -4.5936    2.8600    0.6499 H   0  0  0  0  0  0  0  0  0  0  0  0
   -4.4573    1.1757    2.5209 H   0  0  0  0  0  0  0  0  0  0  0  0
  1  6  2  0  0  0  0
  1  2  1  0  0  0  0
  2  3  2  0  0  0  0
  3  4  1  0  0  0  0
  4 13  1  0  0  0  0
  5 12  1  0  0  0  0
  5  4  2  0  0  0  0
  6  5  1  0  0  0  0
  7  1  1  0  0  0  0
  8  2  1  0  0  0  0
 10  9  3  0  0  0  0
 11  6  1  0  0  0  0
M  RAD  1   3   2
M  END
