Coordinates from ORCA-job Ph-N2+-B3LYPG-6-31G_dp-MTMO-d009-169-n800
 OpenBabel09051908203D

 13 12  0  0  0  0  0  0  0  0999 V2000
   -2.0230    0.0996   -1.0874 C   0  0  0  0  0  0  0  0  0  0  0  0
   -0.6098    0.0038   -0.9903 C   0  0  0  0  0  0  0  0  0  0  0  0
   -0.2073    0.8382   -0.0151 C   0  0  0  0  0  0  0  0  0  0  0  0
   -0.7096    1.7132    0.8745 C   0  0  0  0  0  0  0  0  0  0  0  0
   -2.1190    1.7429    0.7053 C   0  0  0  0  0  0  0  0  0  0  0  0
   -2.7525    0.9519   -0.2557 C   0  0  0  0  0  0  0  0  0  0  0  0
   -2.5086   -0.5186   -1.8373 H   0  0  0  0  0  0  0  0  0  0  0  0
   -0.0030   -0.6405   -1.6124 H   0  0  0  0  0  0  0  0  0  0  0  0
    1.9434    0.7478    0.1822 N   0  0  0  0  0  0  0  0  0  0  0  0
    3.0420    0.7035    0.2811 N   0  0  0  0  0  0  0  0  0  0  0  0
   -3.8315    1.0010   -0.3585 H   0  0  0  0  0  0  0  0  0  0  0  0
   -2.6795    2.4080    1.3562 H   0  0  0  0  0  0  0  0  0  0  0  0
   -0.1753    2.3070    1.6041 H   0  0  0  0  0  0  0  0  0  0  0  0
  1  2  2  0  0  0  0
  1  6  1  0  0  0  0
  2  3  1  0  0  0  0
  3  4  2  0  0  0  0
  4 13  1  0  0  0  0
  5  4  1  0  0  0  0
  5 12  1  0  0  0  0
  6  5  2  0  0  0  0
  7  1  1  0  0  0  0
  8  2  1  0  0  0  0
  9 10  3  0  0  0  0
 11  6  1  0  0  0  0
M  RAD  1   3   2
M  END
