Coordinates from ORCA-job Ph-N2+-B3LYPG-6-31G_dp-MTMO-d009-169-n800
 OpenBabel09051908203D

 13 13  0  0  0  0  0  0  0  0999 V2000
   -1.9436    0.0921   -1.0845 C   0  0  0  0  0  0  0  0  0  0  0  0
   -0.5580    0.0133   -0.9746 C   0  0  0  0  0  0  0  0  0  0  0  0
    0.0097    0.8303    0.0037 C   0  0  0  0  0  0  0  0  0  0  0  0
   -0.6566    1.7010    0.8666 C   0  0  0  0  0  0  0  0  0  0  0  0
   -2.0401    1.7435    0.7172 C   0  0  0  0  0  0  0  0  0  0  0  0
   -2.6733    0.9479   -0.2478 C   0  0  0  0  0  0  0  0  0  0  0  0
   -2.4523   -0.5155   -1.8251 H   0  0  0  0  0  0  0  0  0  0  0  0
    0.0390   -0.6360   -1.6043 H   0  0  0  0  0  0  0  0  0  0  0  0
    1.5227    0.7656    0.1437 N   0  0  0  0  0  0  0  0  0  0  0  0
    2.6268    0.7188    0.2453 N   0  0  0  0  0  0  0  0  0  0  0  0
   -3.7531    0.9961   -0.3497 H   0  0  0  0  0  0  0  0  0  0  0  0
   -2.6224    2.3992    1.3554 H   0  0  0  0  0  0  0  0  0  0  0  0
   -0.1326    2.3014    1.6011 H   0  0  0  0  0  0  0  0  0  0  0  0
  1  2  2  0  0  0  0
  1  6  1  0  0  0  0
  2  3  1  0  0  0  0
  3  9  1  0  0  0  0
  3  4  2  0  0  0  0
  4 13  1  0  0  0  0
  5  4  1  0  0  0  0
  5 12  1  0  0  0  0
  6  5  2  0  0  0  0
  7  1  1  0  0  0  0
  8  2  1  0  0  0  0
  9 10  1  0  0  0  0
 11  6  1  0  0  0  0
M  RAD  2   9   2  10   3
M  END
