Coordinates from ORCA-job Ph-N2+-B3LYPG-6-31G_dp-MTMO-d009-169-n800
 OpenBabel09051908203D

 13 12  0  0  0  0  0  0  0  0999 V2000
   -3.0891    0.2074   -1.1825 C   0  0  0  0  0  0  0  0  0  0  0  0
   -2.1463   -0.5465   -0.4054 C   0  0  0  0  0  0  0  0  0  0  0  0
   -1.9770    0.1843    0.6890 C   0  0  0  0  0  0  0  0  0  0  0  0
   -2.2915    1.2868    1.3568 C   0  0  0  0  0  0  0  0  0  0  0  0
   -3.2274    1.9561    0.4983 C   0  0  0  0  0  0  0  0  0  0  0  0
   -3.6072    1.4220   -0.7331 C   0  0  0  0  0  0  0  0  0  0  0  0
   -3.3674   -0.2312   -2.1378 H   0  0  0  0  0  0  0  0  0  0  0  0
   -1.7152   -1.4922   -0.7097 H   0  0  0  0  0  0  0  0  0  0  0  0
    8.7902    1.0034   -0.1695 N   0  0  0  0  0  0  0  0  0  0  0  0
    9.8941    1.0478   -0.2003 N   0  0  0  0  0  0  0  0  0  0  0  0
   -4.3170    1.9605   -1.3517 H   0  0  0  0  0  0  0  0  0  0  0  0
   -3.6150    2.9005    0.8726 H   0  0  0  0  0  0  0  0  0  0  0  0
   -1.9648    1.6589    2.3200 H   0  0  0  0  0  0  0  0  0  0  0  0
  1  6  2  0  0  0  0
  1  2  1  0  0  0  0
  2  3  2  0  0  0  0
  3  4  1  0  0  0  0
  4 13  1  0  0  0  0
  5 12  1  0  0  0  0
  5  4  2  0  0  0  0
  6  5  1  0  0  0  0
  7  1  1  0  0  0  0
  8  2  1  0  0  0  0
 10  9  3  0  0  0  0
 11  6  1  0  0  0  0
M  RAD  1   3   2
M  END
