Coordinates from ORCA-job Ph-N2+-B3LYPG-6-31G_dp-MTMO-d009-169-n800
 OpenBabel09051908213D

 13 12  0  0  0  0  0  0  0  0999 V2000
   -2.8733    0.3937   -1.0365 C   0  0  0  0  0  0  0  0  0  0  0  0
   -2.7619   -0.6063   -0.0122 C   0  0  0  0  0  0  0  0  0  0  0  0
   -3.3610   -0.0578    1.0369 C   0  0  0  0  0  0  0  0  0  0  0  0
   -4.0027    0.9906    1.5365 C   0  0  0  0  0  0  0  0  0  0  0  0
   -4.0576    1.9166    0.4406 C   0  0  0  0  0  0  0  0  0  0  0  0
   -3.5054    1.6154   -0.8047 C   0  0  0  0  0  0  0  0  0  0  0  0
   -2.4359    0.1322   -1.9973 H   0  0  0  0  0  0  0  0  0  0  0  0
   -2.2856   -1.5704   -0.1422 H   0  0  0  0  0  0  0  0  0  0  0  0
   12.0397    1.0679   -0.8640 N   0  0  0  0  0  0  0  0  0  0  0  0
   13.1447    1.0920   -0.8748 N   0  0  0  0  0  0  0  0  0  0  0  0
   -3.5688    2.3435   -1.6064 H   0  0  0  0  0  0  0  0  0  0  0  0
   -4.5534    2.8617    0.6496 H   0  0  0  0  0  0  0  0  0  0  0  0
   -4.4126    1.1785    2.5213 H   0  0  0  0  0  0  0  0  0  0  0  0
  1  6  2  0  0  0  0
  1  2  1  0  0  0  0
  2  3  2  0  0  0  0
  3  4  1  0  0  0  0
  4 13  1  0  0  0  0
  5 12  1  0  0  0  0
  5  4  2  0  0  0  0
  6  5  1  0  0  0  0
  7  1  1  0  0  0  0
  8  2  1  0  0  0  0
 10  9  3  0  0  0  0
 11  6  1  0  0  0  0
M  RAD  1   3   2
M  END
