Coordinates from ORCA-job Ph-N2+-B3LYPG-6-31G_dp-MTMO-d009-169-n800
 OpenBabel09051908213D

 13 12  0  0  0  0  0  0  0  0999 V2000
   -3.1789    0.2466   -1.1980 C   0  0  0  0  0  0  0  0  0  0  0  0
   -2.6985   -0.6919   -0.2234 C   0  0  0  0  0  0  0  0  0  0  0  0
   -2.7343   -0.0145    0.9169 C   0  0  0  0  0  0  0  0  0  0  0  0
   -3.0153    1.1279    1.5306 C   0  0  0  0  0  0  0  0  0  0  0  0
   -3.4808    1.9823    0.4747 C   0  0  0  0  0  0  0  0  0  0  0  0
   -3.5555    1.5430   -0.8472 C   0  0  0  0  0  0  0  0  0  0  0  0
   -3.2270   -0.1222   -2.2202 H   0  0  0  0  0  0  0  0  0  0  0  0
   -2.3923   -1.7068   -0.4454 H   0  0  0  0  0  0  0  0  0  0  0  0
   10.5826    1.1664   -0.4185 N   0  0  0  0  0  0  0  0  0  0  0  0
   11.6867    1.1988   -0.4551 N   0  0  0  0  0  0  0  0  0  0  0  0
   -3.9123    2.2209   -1.6150 H   0  0  0  0  0  0  0  0  0  0  0  0
   -3.7693    2.9864    0.7767 H   0  0  0  0  0  0  0  0  0  0  0  0
   -2.9389    1.4208    2.5707 H   0  0  0  0  0  0  0  0  0  0  0  0
  1  6  2  0  0  0  0
  1  2  1  0  0  0  0
  2  3  2  0  0  0  0
  3  4  1  0  0  0  0
  4 13  1  0  0  0  0
  5 12  1  0  0  0  0
  5  4  2  0  0  0  0
  6  5  1  0  0  0  0
  7  1  1  0  0  0  0
  8  2  1  0  0  0  0
 10  9  3  0  0  0  0
 11  6  1  0  0  0  0
M  RAD  1   3   2
M  END
