Coordinates from ORCA-job Ph-N2+-B3LYPG-6-31G_dp-MTMO-d009-169-n800
 OpenBabel09051908203D

 13 12  0  0  0  0  0  0  0  0999 V2000
   -2.3861    0.1292   -1.1228 C   0  0  0  0  0  0  0  0  0  0  0  0
   -0.9707   -0.0231   -0.9387 C   0  0  0  0  0  0  0  0  0  0  0  0
   -0.6864    0.8074    0.0562 C   0  0  0  0  0  0  0  0  0  0  0  0
   -1.1346    1.6977    0.9319 C   0  0  0  0  0  0  0  0  0  0  0  0
   -2.5425    1.7711    0.6613 C   0  0  0  0  0  0  0  0  0  0  0  0
   -3.1391    1.0045   -0.3400 C   0  0  0  0  0  0  0  0  0  0  0  0
   -2.8257   -0.4794   -1.9099 H   0  0  0  0  0  0  0  0  0  0  0  0
   -0.3414   -0.6860   -1.5201 H   0  0  0  0  0  0  0  0  0  0  0  0
    4.1120    0.6622    0.2593 N   0  0  0  0  0  0  0  0  0  0  0  0
    5.2164    0.6521    0.3004 N   0  0  0  0  0  0  0  0  0  0  0  0
   -4.2065    1.0913   -0.5134 H   0  0  0  0  0  0  0  0  0  0  0  0
   -3.1058    2.4603    1.2865 H   0  0  0  0  0  0  0  0  0  0  0  0
   -0.6233    2.2703    1.6962 H   0  0  0  0  0  0  0  0  0  0  0  0
  1  2  2  0  0  0  0
  1  6  1  0  0  0  0
  2  3  1  0  0  0  0
  3  4  2  0  0  0  0
  4 13  1  0  0  0  0
  5  4  1  0  0  0  0
  5 12  1  0  0  0  0
  6  5  2  0  0  0  0
  7  1  1  0  0  0  0
  8  2  1  0  0  0  0
  9 10  3  0  0  0  0
 11  6  1  0  0  0  0
M  RAD  1   3   2
M  END
