Coordinates from ORCA-job Ph-N2+-B3LYPG-6-31G_dp-MTMO-d009-169-n800
 OpenBabel09051908203D

 13 12  0  0  0  0  0  0  0  0999 V2000
   -2.2689    0.1156   -1.1105 C   0  0  0  0  0  0  0  0  0  0  0  0
   -0.8452   -0.0139   -0.9842 C   0  0  0  0  0  0  0  0  0  0  0  0
   -0.5324    0.8222   -0.0026 C   0  0  0  0  0  0  0  0  0  0  0  0
   -0.9593    1.7061    0.8902 C   0  0  0  0  0  0  0  0  0  0  0  0
   -2.3778    1.7570    0.6780 C   0  0  0  0  0  0  0  0  0  0  0  0
   -3.0028    0.9798   -0.2976 C   0  0  0  0  0  0  0  0  0  0  0  0
   -2.7313   -0.5005   -1.8784 H   0  0  0  0  0  0  0  0  0  0  0  0
   -0.2289   -0.6672   -1.5898 H   0  0  0  0  0  0  0  0  0  0  0  0
    3.3197    0.7022    0.2711 N   0  0  0  0  0  0  0  0  0  0  0  0
    4.4224    0.6821    0.3405 N   0  0  0  0  0  0  0  0  0  0  0  0
   -4.0778    1.0494   -0.4270 H   0  0  0  0  0  0  0  0  0  0  0  0
   -2.9263    2.4377    1.3251 H   0  0  0  0  0  0  0  0  0  0  0  0
   -0.4251    2.2872    1.6321 H   0  0  0  0  0  0  0  0  0  0  0  0
  1  2  2  0  0  0  0
  1  6  1  0  0  0  0
  2  3  1  0  0  0  0
  3  4  2  0  0  0  0
  4 13  1  0  0  0  0
  5  4  1  0  0  0  0
  5 12  1  0  0  0  0
  6  5  2  0  0  0  0
  7  1  1  0  0  0  0
  8  2  1  0  0  0  0
  9 10  3  0  0  0  0
 11  6  1  0  0  0  0
M  RAD  1   3   2
M  END
