Coordinates from ORCA-job Ph-N2+-B3LYPG-6-31G_dp-MTMO-d009-169-n800
 OpenBabel09051908203D

 13 12  0  0  0  0  0  0  0  0999 V2000
   -2.7811    0.2136   -1.1822 C   0  0  0  0  0  0  0  0  0  0  0  0
   -1.6969   -0.4012   -0.4700 C   0  0  0  0  0  0  0  0  0  0  0  0
   -1.5718    0.3395    0.6237 C   0  0  0  0  0  0  0  0  0  0  0  0
   -2.0040    1.3798    1.3249 C   0  0  0  0  0  0  0  0  0  0  0  0
   -3.0740    1.9122    0.5296 C   0  0  0  0  0  0  0  0  0  0  0  0
   -3.4425    1.3372   -0.6866 C   0  0  0  0  0  0  0  0  0  0  0  0
   -3.0478   -0.2545   -2.1268 H   0  0  0  0  0  0  0  0  0  0  0  0
   -1.1531   -1.2738   -0.8110 H   0  0  0  0  0  0  0  0  0  0  0  0
    7.2708    0.8534   -0.1356 N   0  0  0  0  0  0  0  0  0  0  0  0
    8.3743    0.9026   -0.1751 N   0  0  0  0  0  0  0  0  0  0  0  0
   -4.2572    1.7711   -1.2562 H   0  0  0  0  0  0  0  0  0  0  0  0
   -3.5710    2.7887    0.9386 H   0  0  0  0  0  0  0  0  0  0  0  0
   -1.6794    1.7892    2.2734 H   0  0  0  0  0  0  0  0  0  0  0  0
  1  6  2  0  0  0  0
  1  2  1  0  0  0  0
  2  3  2  0  0  0  0
  3  4  1  0  0  0  0
  4 13  1  0  0  0  0
  5 12  1  0  0  0  0
  5  4  2  0  0  0  0
  6  5  1  0  0  0  0
  7  1  1  0  0  0  0
  8  2  1  0  0  0  0
 10  9  3  0  0  0  0
 11  6  1  0  0  0  0
M  RAD  1   3   2
M  END
