Coordinates from ORCA-job Ph-N2+-B3LYPG-6-31G_dp-MTMO-d009-169-n800
 OpenBabel09051908213D

 13 12  0  0  0  0  0  0  0  0999 V2000
   -2.9829    0.3106   -1.1668 C   0  0  0  0  0  0  0  0  0  0  0  0
   -2.6136   -0.6316   -0.1482 C   0  0  0  0  0  0  0  0  0  0  0  0
   -2.9059   -0.0076    0.9855 C   0  0  0  0  0  0  0  0  0  0  0  0
   -3.3772    1.0864    1.5704 C   0  0  0  0  0  0  0  0  0  0  0  0
   -3.7111    1.9488    0.4726 C   0  0  0  0  0  0  0  0  0  0  0  0
   -3.5149    1.5612   -0.8531 C   0  0  0  0  0  0  0  0  0  0  0  0
   -2.8183   -0.0171   -2.1908 H   0  0  0  0  0  0  0  0  0  0  0  0
   -2.1966   -1.6127   -0.3394 H   0  0  0  0  0  0  0  0  0  0  0  0
   10.8985    1.1009   -0.5736 N   0  0  0  0  0  0  0  0  0  0  0  0
   12.0027    1.1171   -0.6176 N   0  0  0  0  0  0  0  0  0  0  0  0
   -3.7804    2.2437   -1.6531 H   0  0  0  0  0  0  0  0  0  0  0  0
   -4.1237    2.9172    0.7460 H   0  0  0  0  0  0  0  0  0  0  0  0
   -3.5103    1.3409    2.6149 H   0  0  0  0  0  0  0  0  0  0  0  0
  1  6  2  0  0  0  0
  1  2  1  0  0  0  0
  2  3  2  0  0  0  0
  3  4  1  0  0  0  0
  4 13  1  0  0  0  0
  5 12  1  0  0  0  0
  5  4  2  0  0  0  0
  6  5  1  0  0  0  0
  7  1  1  0  0  0  0
  8  2  1  0  0  0  0
 10  9  3  0  0  0  0
 11  6  1  0  0  0  0
M  RAD  1   3   2
M  END
