Coordinates from ORCA-job Ph-N2+-B3LYPG-6-31G_dp-MTMO-d009-169-n800
 OpenBabel09051908203D

 13 13  0  0  0  0  0  0  0  0999 V2000
   -1.8972    0.0893   -1.0810 C   0  0  0  0  0  0  0  0  0  0  0  0
   -0.5273    0.0146   -0.9694 C   0  0  0  0  0  0  0  0  0  0  0  0
    0.1626    0.8241    0.0174 C   0  0  0  0  0  0  0  0  0  0  0  0
   -0.6255    1.6975    0.8665 C   0  0  0  0  0  0  0  0  0  0  0  0
   -1.9938    1.7423    0.7224 C   0  0  0  0  0  0  0  0  0  0  0  0
   -2.6317    0.9460   -0.2438 C   0  0  0  0  0  0  0  0  0  0  0  0
   -2.4057   -0.5188   -1.8219 H   0  0  0  0  0  0  0  0  0  0  0  0
    0.0699   -0.6360   -1.6009 H   0  0  0  0  0  0  0  0  0  0  0  0
    1.2372    0.7779    0.1173 N   0  0  0  0  0  0  0  0  0  0  0  0
    2.3671    0.7292    0.2222 N   0  0  0  0  0  0  0  0  0  0  0  0
   -3.7121    0.9938   -0.3455 H   0  0  0  0  0  0  0  0  0  0  0  0
   -2.5759    2.3983    1.3612 H   0  0  0  0  0  0  0  0  0  0  0  0
   -0.1013    2.2995    1.6024 H   0  0  0  0  0  0  0  0  0  0  0  0
  1  2  2  0  0  0  0
  1  6  1  0  0  0  0
  2  3  1  0  0  0  0
  3  9  1  0  0  0  0
  3  4  2  0  0  0  0
  4 13  1  0  0  0  0
  5  4  1  0  0  0  0
  5 12  1  0  0  0  0
  6  5  2  0  0  0  0
  7  1  1  0  0  0  0
  8  2  1  0  0  0  0
  9 10  1  0  0  0  0
 11  6  1  0  0  0  0
M  RAD  2   9   2  10   3
M  END
