Coordinates from ORCA-job Ph-N2+-B3LYPG-6-31G_dp-MTMO-d009-169-n800
 OpenBabel09051908203D

 13 12  0  0  0  0  0  0  0  0999 V2000
   -2.3281    0.1219   -1.1167 C   0  0  0  0  0  0  0  0  0  0  0  0
   -0.9077   -0.0185   -0.9646 C   0  0  0  0  0  0  0  0  0  0  0  0
   -0.6073    0.8151    0.0229 C   0  0  0  0  0  0  0  0  0  0  0  0
   -1.0431    1.7020    0.9083 C   0  0  0  0  0  0  0  0  0  0  0  0
   -2.4573    1.7635    0.6700 C   0  0  0  0  0  0  0  0  0  0  0  0
   -3.0702    0.9914   -0.3171 C   0  0  0  0  0  0  0  0  0  0  0  0
   -2.7806   -0.4907   -1.8932 H   0  0  0  0  0  0  0  0  0  0  0  0
   -0.2860   -0.6764   -1.5596 H   0  0  0  0  0  0  0  0  0  0  0  0
    3.7079    0.6835    0.2702 N   0  0  0  0  0  0  0  0  0  0  0  0
    4.8115    0.6691    0.3250 N   0  0  0  0  0  0  0  0  0  0  0  0
   -4.1421    1.0691   -0.4661 H   0  0  0  0  0  0  0  0  0  0  0  0
   -3.0120    2.4484    1.3075 H   0  0  0  0  0  0  0  0  0  0  0  0
   -0.5188    2.2792    1.6602 H   0  0  0  0  0  0  0  0  0  0  0  0
  1  2  2  0  0  0  0
  1  6  1  0  0  0  0
  2  3  1  0  0  0  0
  3  4  2  0  0  0  0
  4 13  1  0  0  0  0
  5  4  1  0  0  0  0
  5 12  1  0  0  0  0
  6  5  2  0  0  0  0
  7  1  1  0  0  0  0
  8  2  1  0  0  0  0
  9 10  3  0  0  0  0
 11  6  1  0  0  0  0
M  RAD  1   3   2
M  END
