Coordinates from ORCA-job Ph-N2+-B3LYPG-6-31G_dp-MTMO-d009-169-n800
 OpenBabel09051908203D

 13 12  0  0  0  0  0  0  0  0999 V2000
   -2.5169    0.2095   -1.1782 C   0  0  0  0  0  0  0  0  0  0  0  0
   -1.3345   -0.2930   -0.5379 C   0  0  0  0  0  0  0  0  0  0  0  0
   -1.2146    0.4594    0.5484 C   0  0  0  0  0  0  0  0  0  0  0  0
   -1.7014    1.4550    1.2780 C   0  0  0  0  0  0  0  0  0  0  0  0
   -2.8669    1.8765    0.5537 C   0  0  0  0  0  0  0  0  0  0  0  0
   -3.2531    1.2642   -0.6385 C   0  0  0  0  0  0  0  0  0  0  0  0
   -2.7952   -0.2858   -2.1055 H   0  0  0  0  0  0  0  0  0  0  0  0
   -0.7294   -1.1085   -0.9151 H   0  0  0  0  0  0  0  0  0  0  0  0
    5.7986    0.7407   -0.0896 N   0  0  0  0  0  0  0  0  0  0  0  0
    6.9002    0.8261   -0.1148 N   0  0  0  0  0  0  0  0  0  0  0  0
   -4.1406    1.6141   -1.1542 H   0  0  0  0  0  0  0  0  0  0  0  0
   -3.4209    2.7014    0.9958 H   0  0  0  0  0  0  0  0  0  0  0  0
   -1.3589    1.8982    2.2048 H   0  0  0  0  0  0  0  0  0  0  0  0
  1  6  2  0  0  0  0
  1  2  1  0  0  0  0
  2  3  2  0  0  0  0
  3  4  1  0  0  0  0
  4 13  1  0  0  0  0
  5 12  1  0  0  0  0
  5  4  2  0  0  0  0
  6  5  1  0  0  0  0
  7  1  1  0  0  0  0
  8  2  1  0  0  0  0
 10  9  3  0  0  0  0
 11  6  1  0  0  0  0
M  RAD  1   3   2
M  END
