Coordinates from ORCA-job Ph-N2+-B3LYPG-6-31G_dp-MTMO-d009-169-n800
 OpenBabel09051908213D

 13 12  0  0  0  0  0  0  0  0999 V2000
   -2.9101    0.3924   -1.0359 C   0  0  0  0  0  0  0  0  0  0  0  0
   -2.7967   -0.6071   -0.0113 C   0  0  0  0  0  0  0  0  0  0  0  0
   -3.3933   -0.0579    1.0388 C   0  0  0  0  0  0  0  0  0  0  0  0
   -4.0337    0.9909    1.5393 C   0  0  0  0  0  0  0  0  0  0  0  0
   -4.0907    1.9163    0.4430 C   0  0  0  0  0  0  0  0  0  0  0  0
   -3.5414    1.6144   -0.8033 C   0  0  0  0  0  0  0  0  0  0  0  0
   -2.4749    0.1303   -1.9974 H   0  0  0  0  0  0  0  0  0  0  0  0
   -2.3209   -1.5714   -0.1419 H   0  0  0  0  0  0  0  0  0  0  0  0
   12.2284    1.0714   -0.8723 N   0  0  0  0  0  0  0  0  0  0  0  0
   13.3333    1.0952   -0.8846 N   0  0  0  0  0  0  0  0  0  0  0  0
   -3.6064    2.3421   -1.6052 H   0  0  0  0  0  0  0  0  0  0  0  0
   -4.5858    2.8617    0.6527 H   0  0  0  0  0  0  0  0  0  0  0  0
   -4.4414    1.1794    2.5249 H   0  0  0  0  0  0  0  0  0  0  0  0
  1  6  2  0  0  0  0
  1  2  1  0  0  0  0
  2  3  2  0  0  0  0
  3  4  1  0  0  0  0
  4 13  1  0  0  0  0
  5 12  1  0  0  0  0
  5  4  2  0  0  0  0
  6  5  1  0  0  0  0
  7  1  1  0  0  0  0
  8  2  1  0  0  0  0
 10  9  3  0  0  0  0
 11  6  1  0  0  0  0
M  RAD  1   3   2
M  END
