Coordinates from ORCA-job Ph-N2+-B3LYPG-6-31G_dp-MTMO-d009-169-n800
 OpenBabel09051908213D

 13 12  0  0  0  0  0  0  0  0999 V2000
   -3.0759    0.3890   -1.0275 C   0  0  0  0  0  0  0  0  0  0  0  0
   -2.9612   -0.6101   -0.0027 C   0  0  0  0  0  0  0  0  0  0  0  0
   -3.5558   -0.0601    1.0482 C   0  0  0  0  0  0  0  0  0  0  0  0
   -4.1948    0.9892    1.5493 C   0  0  0  0  0  0  0  0  0  0  0  0
   -4.2533    1.9142    0.4527 C   0  0  0  0  0  0  0  0  0  0  0  0
   -3.7063    1.6114   -0.7944 C   0  0  0  0  0  0  0  0  0  0  0  0
   -2.6425    0.1264   -1.9897 H   0  0  0  0  0  0  0  0  0  0  0  0
   -2.4861   -1.5746   -0.1337 H   0  0  0  0  0  0  0  0  0  0  0  0
   13.1289    1.0873   -0.9239 N   0  0  0  0  0  0  0  0  0  0  0  0
   14.2339    1.1080   -0.9332 N   0  0  0  0  0  0  0  0  0  0  0  0
   -3.7723    2.3388   -1.5965 H   0  0  0  0  0  0  0  0  0  0  0  0
   -4.7476    2.8599    0.6628 H   0  0  0  0  0  0  0  0  0  0  0  0
   -4.6008    1.1783    2.5355 H   0  0  0  0  0  0  0  0  0  0  0  0
  1  6  2  0  0  0  0
  1  2  1  0  0  0  0
  2  3  2  0  0  0  0
  3  4  1  0  0  0  0
  4 13  1  0  0  0  0
  5 12  1  0  0  0  0
  5  4  2  0  0  0  0
  6  5  1  0  0  0  0
  7  1  1  0  0  0  0
  8  2  1  0  0  0  0
 10  9  3  0  0  0  0
 11  6  1  0  0  0  0
M  RAD  1   3   2
M  END
