Coordinates from ORCA-job Ph-N2+-B3LYPG-6-31G_dp-MTMO-d009-169-n800
 OpenBabel09051908203D

 13 12  0  0  0  0  0  0  0  0999 V2000
   -2.3766    0.1280   -1.1218 C   0  0  0  0  0  0  0  0  0  0  0  0
   -0.9602   -0.0221   -0.9433 C   0  0  0  0  0  0  0  0  0  0  0  0
   -0.6731    0.8089    0.0503 C   0  0  0  0  0  0  0  0  0  0  0  0
   -1.1192    1.6986    0.9277 C   0  0  0  0  0  0  0  0  0  0  0  0
   -2.5283    1.7698    0.6628 C   0  0  0  0  0  0  0  0  0  0  0  0
   -3.1278    1.0022   -0.3360 C   0  0  0  0  0  0  0  0  0  0  0  0
   -2.8184   -0.4814   -1.9070 H   0  0  0  0  0  0  0  0  0  0  0  0
   -0.3322   -0.6842   -1.5271 H   0  0  0  0  0  0  0  0  0  0  0  0
    4.0448    0.6656    0.2615 N   0  0  0  0  0  0  0  0  0  0  0  0
    5.1490    0.6549    0.3048 N   0  0  0  0  0  0  0  0  0  0  0  0
   -4.1960    1.0873   -0.5051 H   0  0  0  0  0  0  0  0  0  0  0  0
   -3.0901    2.4581    1.2902 H   0  0  0  0  0  0  0  0  0  0  0  0
   -0.6057    2.2721    1.6898 H   0  0  0  0  0  0  0  0  0  0  0  0
  1  2  2  0  0  0  0
  1  6  1  0  0  0  0
  2  3  1  0  0  0  0
  3  4  2  0  0  0  0
  4 13  1  0  0  0  0
  5  4  1  0  0  0  0
  5 12  1  0  0  0  0
  6  5  2  0  0  0  0
  7  1  1  0  0  0  0
  8  2  1  0  0  0  0
  9 10  3  0  0  0  0
 11  6  1  0  0  0  0
M  RAD  1   3   2
M  END
