Coordinates from ORCA-job Ph-N2+-B3LYPG-6-31G_dp-MTMO-d009-169-n800
 OpenBabel09051908213D

 13 12  0  0  0  0  0  0  0  0999 V2000
   -3.1947    0.2232   -1.1962 C   0  0  0  0  0  0  0  0  0  0  0  0
   -2.4788   -0.6478   -0.3072 C   0  0  0  0  0  0  0  0  0  0  0  0
   -2.3701    0.0567    0.8119 C   0  0  0  0  0  0  0  0  0  0  0  0
   -2.6267    1.1931    1.4470 C   0  0  0  0  0  0  0  0  0  0  0  0
   -3.3356    1.9791    0.4769 C   0  0  0  0  0  0  0  0  0  0  0  0
   -3.6053    1.4973   -0.8042 C   0  0  0  0  0  0  0  0  0  0  0  0
   -3.3916   -0.1773   -2.1880 H   0  0  0  0  0  0  0  0  0  0  0  0
   -2.1372   -1.6429   -0.5639 H   0  0  0  0  0  0  0  0  0  0  0  0
    9.7903    1.1104   -0.2742 N   0  0  0  0  0  0  0  0  0  0  0  0
   10.8942    1.1525   -0.3086 N   0  0  0  0  0  0  0  0  0  0  0  0
   -4.1422    2.1245   -1.5077 H   0  0  0  0  0  0  0  0  0  0  0  0
   -3.6442    2.9675    0.8090 H   0  0  0  0  0  0  0  0  0  0  0  0
   -2.3917    1.5214    2.4520 H   0  0  0  0  0  0  0  0  0  0  0  0
  1  6  2  0  0  0  0
  1  2  1  0  0  0  0
  2  3  2  0  0  0  0
  3  4  1  0  0  0  0
  4 13  1  0  0  0  0
  5 12  1  0  0  0  0
  5  4  2  0  0  0  0
  6  5  1  0  0  0  0
  7  1  1  0  0  0  0
  8  2  1  0  0  0  0
 10  9  3  0  0  0  0
 11  6  1  0  0  0  0
M  RAD  1   3   2
M  END
