Coordinates from ORCA-job Ph-N2+-B3LYPG-6-31G_dp-MTMO-d009-169-n800
 OpenBabel09051908203D

 13 12  0  0  0  0  0  0  0  0999 V2000
   -3.0311    0.2082   -1.1822 C   0  0  0  0  0  0  0  0  0  0  0  0
   -2.0583   -0.5206   -0.4183 C   0  0  0  0  0  0  0  0  0  0  0  0
   -1.8955    0.2130    0.6752 C   0  0  0  0  0  0  0  0  0  0  0  0
   -2.2329    1.3045    1.3497 C   0  0  0  0  0  0  0  0  0  0  0  0
   -3.1975    1.9491    0.5040 C   0  0  0  0  0  0  0  0  0  0  0  0
   -3.5773    1.4069   -0.7238 C   0  0  0  0  0  0  0  0  0  0  0  0
   -3.3087   -0.2362   -2.1350 H   0  0  0  0  0  0  0  0  0  0  0  0
   -1.6051   -1.4537   -0.7296 H   0  0  0  0  0  0  0  0  0  0  0  0
    8.4950    0.9745   -0.1619 N   0  0  0  0  0  0  0  0  0  0  0  0
    9.5989    1.0201   -0.1938 N   0  0  0  0  0  0  0  0  0  0  0  0
   -4.3096    1.9265   -1.3323 H   0  0  0  0  0  0  0  0  0  0  0  0
   -3.6065    2.8817    0.8851 H   0  0  0  0  0  0  0  0  0  0  0  0
   -1.9051    1.6837    2.3097 H   0  0  0  0  0  0  0  0  0  0  0  0
  1  6  2  0  0  0  0
  1  2  1  0  0  0  0
  2  3  2  0  0  0  0
  3  4  1  0  0  0  0
  4 13  1  0  0  0  0
  5 12  1  0  0  0  0
  5  4  2  0  0  0  0
  6  5  1  0  0  0  0
  7  1  1  0  0  0  0
  8  2  1  0  0  0  0
 10  9  3  0  0  0  0
 11  6  1  0  0  0  0
M  RAD  1   3   2
M  END
