Coordinates from ORCA-job Ph-N2+-B3LYPG-6-31G_dp-MTMO-d009-169-n800
 OpenBabel09051908213D

 13 12  0  0  0  0  0  0  0  0999 V2000
   -3.1732    0.2100   -1.1858 C   0  0  0  0  0  0  0  0  0  0  0  0
   -2.2924   -0.5841   -0.3765 C   0  0  0  0  0  0  0  0  0  0  0  0
   -2.1277    0.1409    0.7224 C   0  0  0  0  0  0  0  0  0  0  0  0
   -2.4178    1.2557    1.3806 C   0  0  0  0  0  0  0  0  0  0  0  0
   -3.2926    1.9650    0.4900 C   0  0  0  0  0  0  0  0  0  0  0  0
   -3.6524    1.4468   -0.7541 C   0  0  0  0  0  0  0  0  0  0  0  0
   -3.4371   -0.2171   -2.1504 H   0  0  0  0  0  0  0  0  0  0  0  0
   -1.8938   -1.5486   -0.6658 H   0  0  0  0  0  0  0  0  0  0  0  0
    9.3131    1.0465   -0.1962 N   0  0  0  0  0  0  0  0  0  0  0  0
   10.4171    1.0877   -0.2268 N   0  0  0  0  0  0  0  0  0  0  0  0
   -4.3157    2.0156   -1.3969 H   0  0  0  0  0  0  0  0  0  0  0  0
   -3.6513    2.9258    0.8513 H   0  0  0  0  0  0  0  0  0  0  0  0
   -2.1098    1.6136    2.3552 H   0  0  0  0  0  0  0  0  0  0  0  0
  1  6  2  0  0  0  0
  1  2  1  0  0  0  0
  2  3  2  0  0  0  0
  3  4  1  0  0  0  0
  4 13  1  0  0  0  0
  5 12  1  0  0  0  0
  5  4  2  0  0  0  0
  6  5  1  0  0  0  0
  7  1  1  0  0  0  0
  8  2  1  0  0  0  0
 10  9  3  0  0  0  0
 11  6  1  0  0  0  0
M  RAD  1   3   2
M  END
