Coordinates from ORCA-job Ph-N2+-B3LYPG-6-31G_dp-MTMO-d009-169-n800
 OpenBabel09051908203D

 13 12  0  0  0  0  0  0  0  0999 V2000
   -2.4718    0.1410   -1.1328 C   0  0  0  0  0  0  0  0  0  0  0  0
   -1.0672   -0.0390   -0.8969 C   0  0  0  0  0  0  0  0  0  0  0  0
   -0.8041    0.7846    0.1094 C   0  0  0  0  0  0  0  0  0  0  0  0
   -1.2671    1.6825    0.9695 C   0  0  0  0  0  0  0  0  0  0  0  0
   -2.6623    1.7834    0.6473 C   0  0  0  0  0  0  0  0  0  0  0  0
   -3.2362    1.0298   -0.3768 C   0  0  0  0  0  0  0  0  0  0  0  0
   -2.8934   -0.4581   -1.9368 H   0  0  0  0  0  0  0  0  0  0  0  0
   -0.4302   -0.7136   -1.4562 H   0  0  0  0  0  0  0  0  0  0  0  0
    4.6983    0.6425    0.2401 N   0  0  0  0  0  0  0  0  0  0  0  0
    5.8032    0.6397    0.2635 N   0  0  0  0  0  0  0  0  0  0  0  0
   -4.2944    1.1375   -0.5896 H   0  0  0  0  0  0  0  0  0  0  0  0
   -3.2347    2.4828    1.2525 H   0  0  0  0  0  0  0  0  0  0  0  0
   -0.7738    2.2445    1.7533 H   0  0  0  0  0  0  0  0  0  0  0  0
  1  2  2  0  0  0  0
  1  6  1  0  0  0  0
  2  3  1  0  0  0  0
  3  4  2  0  0  0  0
  4 13  1  0  0  0  0
  5  4  1  0  0  0  0
  5 12  1  0  0  0  0
  6  5  2  0  0  0  0
  7  1  1  0  0  0  0
  8  2  1  0  0  0  0
  9 10  3  0  0  0  0
 11  6  1  0  0  0  0
M  RAD  1   3   2
M  END
