Coordinates from ORCA-job Ph-N2+-B3LYPG-6-31G_dp-MTMO-d009-169-n800
 OpenBabel09051908213D

 13 12  0  0  0  0  0  0  0  0999 V2000
   -2.7336    0.3806   -1.0621 C   0  0  0  0  0  0  0  0  0  0  0  0
   -2.6138   -0.6178   -0.0372 C   0  0  0  0  0  0  0  0  0  0  0  0
   -3.1774   -0.0558    1.0243 C   0  0  0  0  0  0  0  0  0  0  0  0
   -3.7889    1.0049    1.5358 C   0  0  0  0  0  0  0  0  0  0  0  0
   -3.8551    1.9281    0.4381 C   0  0  0  0  0  0  0  0  0  0  0  0
   -3.3392    1.6136   -0.8193 C   0  0  0  0  0  0  0  0  0  0  0  0
   -2.3243    0.1088   -2.0323 H   0  0  0  0  0  0  0  0  0  0  0  0
   -2.1568   -1.5901   -0.1754 H   0  0  0  0  0  0  0  0  0  0  0  0
   11.0809    1.0718   -0.7851 N   0  0  0  0  0  0  0  0  0  0  0  0
   12.1859    1.0884   -0.8037 N   0  0  0  0  0  0  0  0  0  0  0  0
   -3.4101    2.3401   -1.6217 H   0  0  0  0  0  0  0  0  0  0  0  0
   -4.3298    2.8821    0.6558 H   0  0  0  0  0  0  0  0  0  0  0  0
   -4.1715    1.2028    2.5295 H   0  0  0  0  0  0  0  0  0  0  0  0
  1  6  2  0  0  0  0
  1  2  1  0  0  0  0
  2  3  2  0  0  0  0
  3  4  1  0  0  0  0
  4 13  1  0  0  0  0
  5 12  1  0  0  0  0
  5  4  2  0  0  0  0
  6  5  1  0  0  0  0
  7  1  1  0  0  0  0
  8  2  1  0  0  0  0
 10  9  3  0  0  0  0
 11  6  1  0  0  0  0
M  RAD  1   3   2
M  END
