Coordinates from ORCA-job Ph-N2+-B3LYPG-6-31G_dp-MTMO-d009-169-n800
 OpenBabel09051908203D

 13 12  0  0  0  0  0  0  0  0999 V2000
   -2.3909    0.1299   -1.1233 C   0  0  0  0  0  0  0  0  0  0  0  0
   -0.9760   -0.0236   -0.9363 C   0  0  0  0  0  0  0  0  0  0  0  0
   -0.6930    0.8066    0.0591 C   0  0  0  0  0  0  0  0  0  0  0  0
   -1.1423    1.6972    0.9340 C   0  0  0  0  0  0  0  0  0  0  0  0
   -2.5495    1.7717    0.6606 C   0  0  0  0  0  0  0  0  0  0  0  0
   -3.1448    1.0057   -0.3420 C   0  0  0  0  0  0  0  0  0  0  0  0
   -2.8294   -0.4783   -1.9114 H   0  0  0  0  0  0  0  0  0  0  0  0
   -0.3461   -0.6871   -1.5166 H   0  0  0  0  0  0  0  0  0  0  0  0
    4.1456    0.6606    0.2582 N   0  0  0  0  0  0  0  0  0  0  0  0
    5.2500    0.6509    0.2982 N   0  0  0  0  0  0  0  0  0  0  0  0
   -4.2118    1.0934   -0.5176 H   0  0  0  0  0  0  0  0  0  0  0  0
   -3.1135    2.4613    1.2846 H   0  0  0  0  0  0  0  0  0  0  0  0
   -0.6321    2.2694    1.6994 H   0  0  0  0  0  0  0  0  0  0  0  0
  1  2  2  0  0  0  0
  1  6  1  0  0  0  0
  2  3  1  0  0  0  0
  3  4  2  0  0  0  0
  4 13  1  0  0  0  0
  5  4  1  0  0  0  0
  5 12  1  0  0  0  0
  6  5  2  0  0  0  0
  7  1  1  0  0  0  0
  8  2  1  0  0  0  0
  9 10  3  0  0  0  0
 11  6  1  0  0  0  0
M  RAD  1   3   2
M  END
