Coordinates from ORCA-job Ph-N2+-B3LYPG-6-31G_dp-MTMO-d009-169-n800
 OpenBabel09051908203D

 13 13  0  0  0  0  0  0  0  0999 V2000
   -1.8877    0.0890   -1.0800 C   0  0  0  0  0  0  0  0  0  0  0  0
   -0.5222    0.0126   -0.9710 C   0  0  0  0  0  0  0  0  0  0  0  0
    0.2083    0.8220    0.0217 C   0  0  0  0  0  0  0  0  0  0  0  0
   -0.6206    1.6990    0.8689 C   0  0  0  0  0  0  0  0  0  0  0  0
   -1.9842    1.7418    0.7231 C   0  0  0  0  0  0  0  0  0  0  0  0
   -2.6243    0.9456   -0.2430 C   0  0  0  0  0  0  0  0  0  0  0  0
   -2.3952   -0.5198   -1.8216 H   0  0  0  0  0  0  0  0  0  0  0  0
    0.0812   -0.6359   -1.5995 H   0  0  0  0  0  0  0  0  0  0  0  0
    1.1634    0.7809    0.1105 N   0  0  0  0  0  0  0  0  0  0  0  0
    2.3077    0.7319    0.2167 N   0  0  0  0  0  0  0  0  0  0  0  0
   -3.7048    0.9934   -0.3447 H   0  0  0  0  0  0  0  0  0  0  0  0
   -2.5654    2.3985    1.3628 H   0  0  0  0  0  0  0  0  0  0  0  0
   -0.0899    2.2987    1.6028 H   0  0  0  0  0  0  0  0  0  0  0  0
  1  2  2  0  0  0  0
  1  6  1  0  0  0  0
  2  3  1  0  0  0  0
  3  9  1  0  0  0  0
  3  4  2  0  0  0  0
  4 13  1  0  0  0  0
  5  4  1  0  0  0  0
  5 12  1  0  0  0  0
  6  5  2  0  0  0  0
  7  1  1  0  0  0  0
  8  2  1  0  0  0  0
  9 10  1  0  0  0  0
 11  6  1  0  0  0  0
M  RAD  2   9   2  10   3
M  END
