Coordinates from ORCA-job Ph-N2+-B3LYPG-6-31G_dp-MTMO-d009-169-n800
 OpenBabel09051908213D

 13 12  0  0  0  0  0  0  0  0999 V2000
   -2.6841    0.3769   -1.0564 C   0  0  0  0  0  0  0  0  0  0  0  0
   -2.5982   -0.6296   -0.0359 C   0  0  0  0  0  0  0  0  0  0  0  0
   -3.1700   -0.0645    1.0196 C   0  0  0  0  0  0  0  0  0  0  0  0
   -3.7718    1.0034    1.5276 C   0  0  0  0  0  0  0  0  0  0  0  0
   -3.8042    1.9342    0.4349 C   0  0  0  0  0  0  0  0  0  0  0  0
   -3.2726    1.6186   -0.8158 C   0  0  0  0  0  0  0  0  0  0  0  0
   -2.2635    0.1040   -2.0214 H   0  0  0  0  0  0  0  0  0  0  0  0
   -2.1553   -1.6085   -0.1726 H   0  0  0  0  0  0  0  0  0  0  0  0
   10.8665    1.0773   -0.7746 N   0  0  0  0  0  0  0  0  0  0  0  0
   11.9709    1.0984   -0.8108 N   0  0  0  0  0  0  0  0  0  0  0  0
   -3.3177    2.3510   -1.6146 H   0  0  0  0  0  0  0  0  0  0  0  0
   -4.2664    2.8947    0.6507 H   0  0  0  0  0  0  0  0  0  0  0  0
   -4.1674    1.2017    2.5161 H   0  0  0  0  0  0  0  0  0  0  0  0
  1  6  2  0  0  0  0
  1  2  1  0  0  0  0
  2  3  2  0  0  0  0
  3  4  1  0  0  0  0
  4 13  1  0  0  0  0
  5 12  1  0  0  0  0
  5  4  2  0  0  0  0
  6  5  1  0  0  0  0
  7  1  1  0  0  0  0
  8  2  1  0  0  0  0
 10  9  3  0  0  0  0
 11  6  1  0  0  0  0
M  RAD  1   3   2
M  END
