Coordinates from ORCA-job Ph-N2+-B3LYPG-6-31G_dp-MTMO-d009-169-n800
 OpenBabel09051908213D

 13 12  0  0  0  0  0  0  0  0999 V2000
   -2.9483    0.3744   -1.0634 C   0  0  0  0  0  0  0  0  0  0  0  0
   -2.7962   -0.6163   -0.0354 C   0  0  0  0  0  0  0  0  0  0  0  0
   -3.3366   -0.0504    1.0361 C   0  0  0  0  0  0  0  0  0  0  0  0
   -3.9432    1.0094    1.5552 C   0  0  0  0  0  0  0  0  0  0  0  0
   -4.0430    1.9247    0.4535 C   0  0  0  0  0  0  0  0  0  0  0  0
   -3.5562    1.6050   -0.8141 C   0  0  0  0  0  0  0  0  0  0  0  0
   -2.5614    0.0985   -2.0416 H   0  0  0  0  0  0  0  0  0  0  0  0
   -2.3366   -1.5864   -0.1790 H   0  0  0  0  0  0  0  0  0  0  0  0
   12.1280    1.0811   -0.8349 N   0  0  0  0  0  0  0  0  0  0  0  0
   13.2330    1.1045   -0.8433 N   0  0  0  0  0  0  0  0  0  0  0  0
   -3.6522    2.3252   -1.6195 H   0  0  0  0  0  0  0  0  0  0  0  0
   -4.5185    2.8771    0.6764 H   0  0  0  0  0  0  0  0  0  0  0  0
   -4.3026    1.2109    2.5569 H   0  0  0  0  0  0  0  0  0  0  0  0
  1  6  2  0  0  0  0
  1  2  1  0  0  0  0
  2  3  2  0  0  0  0
  3  4  1  0  0  0  0
  4 13  1  0  0  0  0
  5 12  1  0  0  0  0
  5  4  2  0  0  0  0
  6  5  1  0  0  0  0
  7  1  1  0  0  0  0
  8  2  1  0  0  0  0
 10  9  3  0  0  0  0
 11  6  1  0  0  0  0
M  RAD  1   3   2
M  END
