Coordinates from ORCA-job Ph-N2+-B3LYPG-6-31G_dp-MTMO-d009-169-n800
 OpenBabel09051908203D

 13 12  0  0  0  0  0  0  0  0999 V2000
   -2.1894    0.1093   -1.1023 C   0  0  0  0  0  0  0  0  0  0  0  0
   -0.7636   -0.0062   -0.9967 C   0  0  0  0  0  0  0  0  0  0  0  0
   -0.4410    0.8330   -0.0201 C   0  0  0  0  0  0  0  0  0  0  0  0
   -0.8663    1.7129    0.8782 C   0  0  0  0  0  0  0  0  0  0  0  0
   -2.2874    1.7505    0.6873 C   0  0  0  0  0  0  0  0  0  0  0  0
   -2.9194    0.9669   -0.2788 C   0  0  0  0  0  0  0  0  0  0  0  0
   -2.6584   -0.5111   -1.8626 H   0  0  0  0  0  0  0  0  0  0  0  0
   -0.1498   -0.6537   -1.6105 H   0  0  0  0  0  0  0  0  0  0  0  0
    2.8486    0.7168    0.2537 N   0  0  0  0  0  0  0  0  0  0  0  0
    3.9499    0.6882    0.3374 N   0  0  0  0  0  0  0  0  0  0  0  0
   -3.9968    1.0261   -0.3921 H   0  0  0  0  0  0  0  0  0  0  0  0
   -2.8339    2.4259    1.3416 H   0  0  0  0  0  0  0  0  0  0  0  0
   -0.3262    2.2989    1.6115 H   0  0  0  0  0  0  0  0  0  0  0  0
  1  2  2  0  0  0  0
  1  6  1  0  0  0  0
  2  3  1  0  0  0  0
  3  4  2  0  0  0  0
  4 13  1  0  0  0  0
  5  4  1  0  0  0  0
  5 12  1  0  0  0  0
  6  5  2  0  0  0  0
  7  1  1  0  0  0  0
  8  2  1  0  0  0  0
  9 10  3  0  0  0  0
 11  6  1  0  0  0  0
M  RAD  1   3   2
M  END
