Coordinates from ORCA-job Ph-N2+-B3LYPG-6-31G_dp-MTMO-d009-169-n800
 OpenBabel09051908213D

 13 12  0  0  0  0  0  0  0  0999 V2000
   -3.1764    0.2116   -1.1871 C   0  0  0  0  0  0  0  0  0  0  0  0
   -2.3097   -0.5896   -0.3696 C   0  0  0  0  0  0  0  0  0  0  0  0
   -2.1521    0.1324    0.7323 C   0  0  0  0  0  0  0  0  0  0  0  0
   -2.4393    1.2497    1.3875 C   0  0  0  0  0  0  0  0  0  0  0  0
   -3.2998    1.9661    0.4889 C   0  0  0  0  0  0  0  0  0  0  0  0
   -3.6508    1.4516   -0.7593 C   0  0  0  0  0  0  0  0  0  0  0  0
   -3.4337   -0.2127   -2.1547 H   0  0  0  0  0  0  0  0  0  0  0  0
   -1.9146   -1.5565   -0.6560 H   0  0  0  0  0  0  0  0  0  0  0  0
    9.3668    1.0518   -0.2038 N   0  0  0  0  0  0  0  0  0  0  0  0
   10.4709    1.0930   -0.2350 N   0  0  0  0  0  0  0  0  0  0  0  0
   -4.3029    2.0259   -1.4086 H   0  0  0  0  0  0  0  0  0  0  0  0
   -3.6548    2.9294    0.8472 H   0  0  0  0  0  0  0  0  0  0  0  0
   -2.1373    1.6051    2.3649 H   0  0  0  0  0  0  0  0  0  0  0  0
  1  6  2  0  0  0  0
  1  2  1  0  0  0  0
  2  3  2  0  0  0  0
  3  4  1  0  0  0  0
  4 13  1  0  0  0  0
  5 12  1  0  0  0  0
  5  4  2  0  0  0  0
  6  5  1  0  0  0  0
  7  1  1  0  0  0  0
  8  2  1  0  0  0  0
 10  9  3  0  0  0  0
 11  6  1  0  0  0  0
M  RAD  1   3   2
M  END
