Coordinates from ORCA-job Ph-N2+-B3LYPG-6-31G_dp-MTMO-d009-169-n800
 OpenBabel09051908203D

 13 12  0  0  0  0  0  0  0  0999 V2000
   -2.5870    0.2113   -1.1798 C   0  0  0  0  0  0  0  0  0  0  0  0
   -1.4359   -0.3296   -0.5142 C   0  0  0  0  0  0  0  0  0  0  0  0
   -1.3140    0.4201    0.5738 C   0  0  0  0  0  0  0  0  0  0  0  0
   -1.7854    1.4294    1.2947 C   0  0  0  0  0  0  0  0  0  0  0  0
   -2.9204    1.8889    0.5452 C   0  0  0  0  0  0  0  0  0  0  0  0
   -3.3002    1.2893   -0.6555 C   0  0  0  0  0  0  0  0  0  0  0  0
   -2.8609   -0.2748   -2.1132 H   0  0  0  0  0  0  0  0  0  0  0  0
   -0.8504   -1.1650   -0.8785 H   0  0  0  0  0  0  0  0  0  0  0  0
    6.1952    0.7732   -0.1075 N   0  0  0  0  0  0  0  0  0  0  0  0
    7.2970    0.8561   -0.1341 N   0  0  0  0  0  0  0  0  0  0  0  0
   -4.1648    1.6675   -1.1898 H   0  0  0  0  0  0  0  0  0  0  0  0
   -3.4569    2.7311    0.9759 H   0  0  0  0  0  0  0  0  0  0  0  0
   -1.4499    1.8603    2.2298 H   0  0  0  0  0  0  0  0  0  0  0  0
  1  6  2  0  0  0  0
  1  2  1  0  0  0  0
  2  3  2  0  0  0  0
  3  4  1  0  0  0  0
  4 13  1  0  0  0  0
  5 12  1  0  0  0  0
  5  4  2  0  0  0  0
  6  5  1  0  0  0  0
  7  1  1  0  0  0  0
  8  2  1  0  0  0  0
 10  9  3  0  0  0  0
 11  6  1  0  0  0  0
M  RAD  1   3   2
M  END
