Coordinates from ORCA-job Ph-N2+-B3LYPG-6-31G_dp-MTMO-d009-169-n800
 OpenBabel09051908213D

 13 12  0  0  0  0  0  0  0  0999 V2000
   -3.1972    0.2336   -1.2001 C   0  0  0  0  0  0  0  0  0  0  0  0
   -2.6306   -0.6875   -0.2556 C   0  0  0  0  0  0  0  0  0  0  0  0
   -2.5860    0.0028    0.8766 C   0  0  0  0  0  0  0  0  0  0  0  0
   -2.8316    1.1493    1.4975 C   0  0  0  0  0  0  0  0  0  0  0  0
   -3.3888    1.9857    0.4720 C   0  0  0  0  0  0  0  0  0  0  0  0
   -3.5611    1.5298   -0.8352 C   0  0  0  0  0  0  0  0  0  0  0  0
   -3.3212   -0.1481   -2.2110 H   0  0  0  0  0  0  0  0  0  0  0  0
   -2.3311   -1.7017   -0.4896 H   0  0  0  0  0  0  0  0  0  0  0  0
   10.2187    1.1573   -0.3503 N   0  0  0  0  0  0  0  0  0  0  0  0
   11.3227    1.1967   -0.3865 N   0  0  0  0  0  0  0  0  0  0  0  0
   -3.9847    2.1945   -1.5802 H   0  0  0  0  0  0  0  0  0  0  0  0
   -3.6651    2.9900    0.7844 H   0  0  0  0  0  0  0  0  0  0  0  0
   -2.6777    1.4555    2.5250 H   0  0  0  0  0  0  0  0  0  0  0  0
  1  6  2  0  0  0  0
  1  2  1  0  0  0  0
  2  3  2  0  0  0  0
  3  4  1  0  0  0  0
  4 13  1  0  0  0  0
  5 12  1  0  0  0  0
  5  4  2  0  0  0  0
  6  5  1  0  0  0  0
  7  1  1  0  0  0  0
  8  2  1  0  0  0  0
 10  9  3  0  0  0  0
 11  6  1  0  0  0  0
M  RAD  1   3   2
M  END
