Coordinates from ORCA-job Ph-N2+-B3LYPG-6-31G_dp-MTMO-d009-169-n800
 OpenBabel09051908203D

 13 12  0  0  0  0  0  0  0  0999 V2000
   -2.9105    0.2121   -1.1828 C   0  0  0  0  0  0  0  0  0  0  0  0
   -1.8804   -0.4595   -0.4421 C   0  0  0  0  0  0  0  0  0  0  0  0
   -1.7418    0.2772    0.6528 C   0  0  0  0  0  0  0  0  0  0  0  0
   -2.1328    1.3424    1.3406 C   0  0  0  0  0  0  0  0  0  0  0  0
   -3.1512    1.9307    0.5172 C   0  0  0  0  0  0  0  0  0  0  0  0
   -3.5205    1.3726   -0.7065 C   0  0  0  0  0  0  0  0  0  0  0  0
   -3.1789   -0.2437   -2.1329 H   0  0  0  0  0  0  0  0  0  0  0  0
   -1.3774   -1.3618   -0.7675 H   0  0  0  0  0  0  0  0  0  0  0  0
    7.9351    0.9113   -0.1531 N   0  0  0  0  0  0  0  0  0  0  0  0
    9.0388    0.9564   -0.1895 N   0  0  0  0  0  0  0  0  0  0  0  0
   -4.2951    1.8491   -1.2977 H   0  0  0  0  0  0  0  0  0  0  0  0
   -3.6089    2.8347    0.9117 H   0  0  0  0  0  0  0  0  0  0  0  0
   -1.8101    1.7362    2.2964 H   0  0  0  0  0  0  0  0  0  0  0  0
  1  6  2  0  0  0  0
  1  2  1  0  0  0  0
  2  3  2  0  0  0  0
  3  4  1  0  0  0  0
  4 13  1  0  0  0  0
  5 12  1  0  0  0  0
  5  4  2  0  0  0  0
  6  5  1  0  0  0  0
  7  1  1  0  0  0  0
  8  2  1  0  0  0  0
 10  9  3  0  0  0  0
 11  6  1  0  0  0  0
M  RAD  1   3   2
M  END
