Coordinates from ORCA-job Ph-N2+-B3LYPG-6-31G_dp-MTMO-d009-169-n800
 OpenBabel09051908203D

 13 12  0  0  0  0  0  0  0  0999 V2000
   -2.8316    0.2135   -1.1826 C   0  0  0  0  0  0  0  0  0  0  0  0
   -1.7671   -0.4218   -0.4589 C   0  0  0  0  0  0  0  0  0  0  0  0
   -1.6394    0.3166    0.6361 C   0  0  0  0  0  0  0  0  0  0  0  0
   -2.0580    1.3660    1.3319 C   0  0  0  0  0  0  0  0  0  0  0  0
   -3.1091    1.9187    0.5252 C   0  0  0  0  0  0  0  0  0  0  0  0
   -3.4760    1.3502   -0.6945 C   0  0  0  0  0  0  0  0  0  0  0  0
   -3.0975   -0.2499   -2.1297 H   0  0  0  0  0  0  0  0  0  0  0  0
   -1.2368   -1.3048   -0.7939 H   0  0  0  0  0  0  0  0  0  0  0  0
    7.5411    0.8743   -0.1435 N   0  0  0  0  0  0  0  0  0  0  0  0
    8.6448    0.9202   -0.1826 N   0  0  0  0  0  0  0  0  0  0  0  0
   -4.2759    1.7997   -1.2729 H   0  0  0  0  0  0  0  0  0  0  0  0
   -3.5930    2.8050    0.9286 H   0  0  0  0  0  0  0  0  0  0  0  0
   -1.7353    1.7698    2.2835 H   0  0  0  0  0  0  0  0  0  0  0  0
  1  6  2  0  0  0  0
  1  2  1  0  0  0  0
  2  3  2  0  0  0  0
  3  4  1  0  0  0  0
  4 13  1  0  0  0  0
  5 12  1  0  0  0  0
  5  4  2  0  0  0  0
  6  5  1  0  0  0  0
  7  1  1  0  0  0  0
  8  2  1  0  0  0  0
 10  9  3  0  0  0  0
 11  6  1  0  0  0  0
M  RAD  1   3   2
M  END
