Coordinates from ORCA-job Ph-N2+-B3LYPG-6-31G_dp-MTMO-d009-169-n800
 OpenBabel09051908203D

 13 12  0  0  0  0  0  0  0  0999 V2000
   -2.4842    0.1429   -1.1345 C   0  0  0  0  0  0  0  0  0  0  0  0
   -1.0819   -0.0432   -0.8901 C   0  0  0  0  0  0  0  0  0  0  0  0
   -0.8214    0.7790    0.1180 C   0  0  0  0  0  0  0  0  0  0  0  0
   -1.2858    1.6787    0.9756 C   0  0  0  0  0  0  0  0  0  0  0  0
   -2.6786    1.7855    0.6450 C   0  0  0  0  0  0  0  0  0  0  0  0
   -3.2495    1.0347   -0.3828 C   0  0  0  0  0  0  0  0  0  0  0  0
   -2.9035   -0.4542   -1.9412 H   0  0  0  0  0  0  0  0  0  0  0  0
   -0.4445   -0.7203   -1.4458 H   0  0  0  0  0  0  0  0  0  0  0  0
    4.7816    0.6418    0.2370 N   0  0  0  0  0  0  0  0  0  0  0  0
    5.8865    0.6404    0.2579 N   0  0  0  0  0  0  0  0  0  0  0  0
   -4.3059    1.1469   -0.6019 H   0  0  0  0  0  0  0  0  0  0  0  0
   -3.2517    2.4871    1.2470 H   0  0  0  0  0  0  0  0  0  0  0  0
   -0.7949    2.2384    1.7625 H   0  0  0  0  0  0  0  0  0  0  0  0
  1  2  2  0  0  0  0
  1  6  1  0  0  0  0
  2  3  1  0  0  0  0
  3  4  2  0  0  0  0
  4 13  1  0  0  0  0
  5  4  1  0  0  0  0
  5 12  1  0  0  0  0
  6  5  2  0  0  0  0
  7  1  1  0  0  0  0
  8  2  1  0  0  0  0
  9 10  3  0  0  0  0
 11  6  1  0  0  0  0
M  RAD  1   3   2
M  END
