Coordinates from ORCA-job Ph-N2+-B3LYPG-6-31G_dp-MTMO-d009-169-n800
 OpenBabel09051908213D

 13 12  0  0  0  0  0  0  0  0999 V2000
   -3.0883    0.3715   -1.0570 C   0  0  0  0  0  0  0  0  0  0  0  0
   -2.9323   -0.6182   -0.0286 C   0  0  0  0  0  0  0  0  0  0  0  0
   -3.4694   -0.0516    1.0441 C   0  0  0  0  0  0  0  0  0  0  0  0
   -4.0745    1.0086    1.5643 C   0  0  0  0  0  0  0  0  0  0  0  0
   -4.1782    1.9229    0.4622 C   0  0  0  0  0  0  0  0  0  0  0  0
   -3.6956    1.6021   -0.8068 C   0  0  0  0  0  0  0  0  0  0  0  0
   -2.7043    0.0951   -2.0362 H   0  0  0  0  0  0  0  0  0  0  0  0
   -2.4722   -1.5881   -0.1727 H   0  0  0  0  0  0  0  0  0  0  0  0
   12.8776    1.0937   -0.8786 N   0  0  0  0  0  0  0  0  0  0  0  0
   13.9827    1.1142   -0.8840 N   0  0  0  0  0  0  0  0  0  0  0  0
   -3.7946    2.3217   -1.6125 H   0  0  0  0  0  0  0  0  0  0  0  0
   -4.6537    2.8752    0.6857 H   0  0  0  0  0  0  0  0  0  0  0  0
   -4.4310    1.2107    2.5669 H   0  0  0  0  0  0  0  0  0  0  0  0
  1  6  2  0  0  0  0
  1  2  1  0  0  0  0
  2  3  2  0  0  0  0
  3  4  1  0  0  0  0
  4 13  1  0  0  0  0
  5 12  1  0  0  0  0
  5  4  2  0  0  0  0
  6  5  1  0  0  0  0
  7  1  1  0  0  0  0
  8  2  1  0  0  0  0
 10  9  3  0  0  0  0
 11  6  1  0  0  0  0
M  RAD  1   3   2
M  END
