Coordinates from ORCA-job Ph-N2+-B3LYPG-6-31G_dp-MTMO-d009-169-n800
 OpenBabel09051908213D

 13 12  0  0  0  0  0  0  0  0999 V2000
   -2.9727    0.3136   -1.1636 C   0  0  0  0  0  0  0  0  0  0  0  0
   -2.6127   -0.6306   -0.1437 C   0  0  0  0  0  0  0  0  0  0  0  0
   -2.9145   -0.0081    0.9884 C   0  0  0  0  0  0  0  0  0  0  0  0
   -3.3948    1.0833    1.5707 C   0  0  0  0  0  0  0  0  0  0  0  0
   -3.7185    1.9482    0.4716 C   0  0  0  0  0  0  0  0  0  0  0  0
   -3.5090    1.5632   -0.8528 C   0  0  0  0  0  0  0  0  0  0  0  0
   -2.7979   -0.0120   -2.1865 H   0  0  0  0  0  0  0  0  0  0  0  0
   -2.1940   -1.6112   -0.3334 H   0  0  0  0  0  0  0  0  0  0  0  0
   10.9089    1.0992   -0.5813 N   0  0  0  0  0  0  0  0  0  0  0  0
   12.0132    1.1152   -0.6259 N   0  0  0  0  0  0  0  0  0  0  0  0
   -3.7680    2.2466   -1.6541 H   0  0  0  0  0  0  0  0  0  0  0  0
   -4.1347    2.9156    0.7427 H   0  0  0  0  0  0  0  0  0  0  0  0
   -3.5390    1.3347    2.6145 H   0  0  0  0  0  0  0  0  0  0  0  0
  1  6  2  0  0  0  0
  1  2  1  0  0  0  0
  2  3  2  0  0  0  0
  3  4  1  0  0  0  0
  4 13  1  0  0  0  0
  5 12  1  0  0  0  0
  5  4  2  0  0  0  0
  6  5  1  0  0  0  0
  7  1  1  0  0  0  0
  8  2  1  0  0  0  0
 10  9  3  0  0  0  0
 11  6  1  0  0  0  0
M  RAD  1   3   2
M  END
