Coordinates from ORCA-job Ph-N2+-B3LYPG-6-31G_dp-MTMO-d009-169-n800
 OpenBabel09051908203D

 13 12  0  0  0  0  0  0  0  0999 V2000
   -2.1685    0.1081   -1.1003 C   0  0  0  0  0  0  0  0  0  0  0  0
   -0.7428   -0.0046   -0.9975 C   0  0  0  0  0  0  0  0  0  0  0  0
   -0.4175    0.8351   -0.0217 C   0  0  0  0  0  0  0  0  0  0  0  0
   -0.8446    1.7143    0.8771 C   0  0  0  0  0  0  0  0  0  0  0  0
   -2.2658    1.7493    0.6896 C   0  0  0  0  0  0  0  0  0  0  0  0
   -2.8984    0.9643   -0.2751 C   0  0  0  0  0  0  0  0  0  0  0  0
   -2.6385   -0.5131   -1.8593 H   0  0  0  0  0  0  0  0  0  0  0  0
   -0.1291   -0.6510   -1.6125 H   0  0  0  0  0  0  0  0  0  0  0  0
    2.7318    0.7197    0.2465 N   0  0  0  0  0  0  0  0  0  0  0  0
    3.8329    0.6894    0.3322 N   0  0  0  0  0  0  0  0  0  0  0  0
   -3.9762    1.0214   -0.3861 H   0  0  0  0  0  0  0  0  0  0  0  0
   -2.8127    2.4235    1.3447 H   0  0  0  0  0  0  0  0  0  0  0  0
   -0.3042    2.3013    1.6092 H   0  0  0  0  0  0  0  0  0  0  0  0
  1  2  2  0  0  0  0
  1  6  1  0  0  0  0
  2  3  1  0  0  0  0
  3  4  2  0  0  0  0
  4 13  1  0  0  0  0
  5  4  1  0  0  0  0
  5 12  1  0  0  0  0
  6  5  2  0  0  0  0
  7  1  1  0  0  0  0
  8  2  1  0  0  0  0
  9 10  3  0  0  0  0
 11  6  1  0  0  0  0
M  RAD  1   3   2
M  END
