Coordinates from ORCA-job Ph-N2+-B3LYPG-6-31G_dp-MTMO-d009-169-n800
 OpenBabel09051908203D

 13 12  0  0  0  0  0  0  0  0999 V2000
   -2.8934    0.2127   -1.1829 C   0  0  0  0  0  0  0  0  0  0  0  0
   -1.8559   -0.4506   -0.4452 C   0  0  0  0  0  0  0  0  0  0  0  0
   -1.7213    0.2858    0.6503 C   0  0  0  0  0  0  0  0  0  0  0  0
   -2.1191    1.3475    1.3394 C   0  0  0  0  0  0  0  0  0  0  0  0
   -3.1445    1.9278    0.5191 C   0  0  0  0  0  0  0  0  0  0  0  0
   -3.5120    1.3677   -0.7043 C   0  0  0  0  0  0  0  0  0  0  0  0
   -3.1602   -0.2446   -2.1326 H   0  0  0  0  0  0  0  0  0  0  0  0
   -1.3460   -1.3484   -0.7726 H   0  0  0  0  0  0  0  0  0  0  0  0
    7.8563    0.9026   -0.1520 N   0  0  0  0  0  0  0  0  0  0  0  0
    8.9600    0.9475   -0.1893 N   0  0  0  0  0  0  0  0  0  0  0  0
   -4.2919    1.8382   -1.2932 H   0  0  0  0  0  0  0  0  0  0  0  0
   -3.6086    2.8278    0.9154 H   0  0  0  0  0  0  0  0  0  0  0  0
   -1.7972    1.7436    2.2946 H   0  0  0  0  0  0  0  0  0  0  0  0
  1  6  2  0  0  0  0
  1  2  1  0  0  0  0
  2  3  2  0  0  0  0
  3  4  1  0  0  0  0
  4 13  1  0  0  0  0
  5 12  1  0  0  0  0
  5  4  2  0  0  0  0
  6  5  1  0  0  0  0
  7  1  1  0  0  0  0
  8  2  1  0  0  0  0
 10  9  3  0  0  0  0
 11  6  1  0  0  0  0
M  RAD  1   3   2
M  END
