Coordinates from ORCA-job Ph-N2+-B3LYPG-6-31G_dp-MTMO-d009-169-n800
 OpenBabel09051908203D

 13 12  0  0  0  0  0  0  0  0999 V2000
   -2.0766    0.1030   -1.0916 C   0  0  0  0  0  0  0  0  0  0  0  0
   -0.6549    0.0004   -0.9953 C   0  0  0  0  0  0  0  0  0  0  0  0
   -0.3011    0.8392   -0.0208 C   0  0  0  0  0  0  0  0  0  0  0  0
   -0.7553    1.7158    0.8759 C   0  0  0  0  0  0  0  0  0  0  0  0
   -2.1727    1.7447    0.6992 C   0  0  0  0  0  0  0  0  0  0  0  0
   -2.8064    0.9557   -0.2621 C   0  0  0  0  0  0  0  0  0  0  0  0
   -2.5529   -0.5185   -1.8458 H   0  0  0  0  0  0  0  0  0  0  0  0
   -0.0442   -0.6436   -1.6145 H   0  0  0  0  0  0  0  0  0  0  0  0
    2.2285    0.7356    0.2082 N   0  0  0  0  0  0  0  0  0  0  0  0
    3.3283    0.6976    0.3010 N   0  0  0  0  0  0  0  0  0  0  0  0
   -3.8850    1.0069   -0.3669 H   0  0  0  0  0  0  0  0  0  0  0  0
   -2.7246    2.4141    1.3542 H   0  0  0  0  0  0  0  0  0  0  0  0
   -0.2169    2.3069    1.6052 H   0  0  0  0  0  0  0  0  0  0  0  0
  1  2  2  0  0  0  0
  1  6  1  0  0  0  0
  2  3  1  0  0  0  0
  3  4  2  0  0  0  0
  4 13  1  0  0  0  0
  5  4  1  0  0  0  0
  5 12  1  0  0  0  0
  6  5  2  0  0  0  0
  7  1  1  0  0  0  0
  8  2  1  0  0  0  0
  9 10  3  0  0  0  0
 11  6  1  0  0  0  0
M  RAD  1   3   2
M  END
