Coordinates from ORCA-job Ph-N2+-B3LYPG-6-31G_dp-MTMO-d009-169-n800
 OpenBabel09051908203D

 13 12  0  0  0  0  0  0  0  0999 V2000
   -2.5742    0.1644   -1.1521 C   0  0  0  0  0  0  0  0  0  0  0  0
   -1.2074   -0.1002   -0.8023 C   0  0  0  0  0  0  0  0  0  0  0  0
   -0.9798    0.7036    0.2285 C   0  0  0  0  0  0  0  0  0  0  0  0
   -1.4585    1.6250    1.0545 C   0  0  0  0  0  0  0  0  0  0  0  0
   -2.8137    1.8097    0.6191 C   0  0  0  0  0  0  0  0  0  0  0  0
   -3.3446    1.0948   -0.4547 C   0  0  0  0  0  0  0  0  0  0  0  0
   -2.9624   -0.4061   -1.9929 H   0  0  0  0  0  0  0  0  0  0  0  0
   -0.5677   -0.8104   -1.3123 H   0  0  0  0  0  0  0  0  0  0  0  0
    5.4668    0.6521    0.1798 N   0  0  0  0  0  0  0  0  0  0  0  0
    6.5719    0.6633    0.1712 N   0  0  0  0  0  0  0  0  0  0  0  0
   -4.3732    1.2660   -0.7527 H   0  0  0  0  0  0  0  0  0  0  0  0
   -3.3916    2.5406    1.1804 H   0  0  0  0  0  0  0  0  0  0  0  0
   -0.9994    2.1549    1.8802 H   0  0  0  0  0  0  0  0  0  0  0  0
  1  2  2  0  0  0  0
  1  6  1  0  0  0  0
  2  3  1  0  0  0  0
  3  4  2  0  0  0  0
  4 13  1  0  0  0  0
  5  4  1  0  0  0  0
  5 12  1  0  0  0  0
  6  5  2  0  0  0  0
  7  1  1  0  0  0  0
  8  2  1  0  0  0  0
 10  9  3  0  0  0  0
 11  6  1  0  0  0  0
M  RAD  1   3   2
M  END
