Coordinates from ORCA-job Ph-N2+-B3LYPG-6-31G_dp-MTMO-d009-169-n800
 OpenBabel09051908203D

 13 12  0  0  0  0  0  0  0  0999 V2000
   -2.5451    0.1546   -1.1446 C   0  0  0  0  0  0  0  0  0  0  0  0
   -1.1600   -0.0739   -0.8444 C   0  0  0  0  0  0  0  0  0  0  0  0
   -0.9157    0.7384    0.1757 C   0  0  0  0  0  0  0  0  0  0  0  0
   -1.3873    1.6500    1.0166 C   0  0  0  0  0  0  0  0  0  0  0  0
   -2.7618    1.7990    0.6306 C   0  0  0  0  0  0  0  0  0  0  0  0
   -3.3131    1.0675   -0.4215 C   0  0  0  0  0  0  0  0  0  0  0  0
   -2.9490   -0.4282   -1.9693 H   0  0  0  0  0  0  0  0  0  0  0  0
   -0.5213   -0.7690   -1.3760 H   0  0  0  0  0  0  0  0  0  0  0  0
    5.2100    0.6458    0.2112 N   0  0  0  0  0  0  0  0  0  0  0  0
    6.3152    0.6518    0.2158 N   0  0  0  0  0  0  0  0  0  0  0  0
   -4.3559    1.2116   -0.6825 H   0  0  0  0  0  0  0  0  0  0  0  0
   -3.3374    2.5165    1.2112 H   0  0  0  0  0  0  0  0  0  0  0  0
   -0.9121    2.1937    1.8241 H   0  0  0  0  0  0  0  0  0  0  0  0
  1  2  2  0  0  0  0
  1  6  1  0  0  0  0
  2  3  1  0  0  0  0
  3  4  2  0  0  0  0
  4 13  1  0  0  0  0
  5  4  1  0  0  0  0
  5 12  1  0  0  0  0
  6  5  2  0  0  0  0
  7  1  1  0  0  0  0
  8  2  1  0  0  0  0
  9 10  3  0  0  0  0
 11  6  1  0  0  0  0
M  RAD  1   3   2
M  END
