Coordinates from ORCA-job Ph-N2+-B3LYPG-6-31G_dp-MTMO-d009-169-n800
 OpenBabel09051908213D

 13 12  0  0  0  0  0  0  0  0999 V2000
   -2.7541    0.3904   -1.0484 C   0  0  0  0  0  0  0  0  0  0  0  0
   -2.6424   -0.6098   -0.0243 C   0  0  0  0  0  0  0  0  0  0  0  0
   -3.2308   -0.0567    1.0285 C   0  0  0  0  0  0  0  0  0  0  0  0
   -3.8623    0.9962    1.5317 C   0  0  0  0  0  0  0  0  0  0  0  0
   -3.9183    1.9219    0.4356 C   0  0  0  0  0  0  0  0  0  0  0  0
   -3.3766    1.6163   -0.8132 C   0  0  0  0  0  0  0  0  0  0  0  0
   -2.3248    0.1255   -2.0119 H   0  0  0  0  0  0  0  0  0  0  0  0
   -2.1732   -1.5770   -0.1569 H   0  0  0  0  0  0  0  0  0  0  0  0
   11.3277    1.0623   -0.8144 N   0  0  0  0  0  0  0  0  0  0  0  0
   12.4326    1.0865   -0.8316 N   0  0  0  0  0  0  0  0  0  0  0  0
   -3.4405    2.3444   -1.6148 H   0  0  0  0  0  0  0  0  0  0  0  0
   -4.4066    2.8703    0.6474 H   0  0  0  0  0  0  0  0  0  0  0  0
   -4.2644    1.1873    2.5191 H   0  0  0  0  0  0  0  0  0  0  0  0
  1  6  2  0  0  0  0
  1  2  1  0  0  0  0
  2  3  2  0  0  0  0
  3  4  1  0  0  0  0
  4 13  1  0  0  0  0
  5 12  1  0  0  0  0
  5  4  2  0  0  0  0
  6  5  1  0  0  0  0
  7  1  1  0  0  0  0
  8  2  1  0  0  0  0
 10  9  3  0  0  0  0
 11  6  1  0  0  0  0
M  RAD  1   3   2
M  END
