Coordinates from ORCA-job Ph-N2+-B3LYPG-6-31G_dp-MTMO-d009-169-n800
 OpenBabel09051908203D

 13 12  0  0  0  0  0  0  0  0999 V2000
   -2.6266    0.2121   -1.1804 C   0  0  0  0  0  0  0  0  0  0  0  0
   -1.4889   -0.3440   -0.5044 C   0  0  0  0  0  0  0  0  0  0  0  0
   -1.3685    0.4021    0.5863 C   0  0  0  0  0  0  0  0  0  0  0  0
   -1.8318    1.4190    1.3017 C   0  0  0  0  0  0  0  0  0  0  0  0
   -2.9536    1.8935    0.5421 C   0  0  0  0  0  0  0  0  0  0  0  0
   -3.3302    1.2994   -0.6624 C   0  0  0  0  0  0  0  0  0  0  0  0
   -2.8984   -0.2699   -2.1165 H   0  0  0  0  0  0  0  0  0  0  0  0
   -0.9107   -1.1866   -0.8638 H   0  0  0  0  0  0  0  0  0  0  0  0
    6.4191    0.7874   -0.1154 N   0  0  0  0  0  0  0  0  0  0  0  0
    7.5212    0.8664   -0.1428 N   0  0  0  0  0  0  0  0  0  0  0  0
   -4.1843    1.6895   -1.2049 H   0  0  0  0  0  0  0  0  0  0  0  0
   -3.4826    2.7429    0.9679 H   0  0  0  0  0  0  0  0  0  0  0  0
   -1.4984    1.8460    2.2394 H   0  0  0  0  0  0  0  0  0  0  0  0
  1  6  2  0  0  0  0
  1  2  1  0  0  0  0
  2  3  2  0  0  0  0
  3  4  1  0  0  0  0
  4 13  1  0  0  0  0
  5 12  1  0  0  0  0
  5  4  2  0  0  0  0
  6  5  1  0  0  0  0
  7  1  1  0  0  0  0
  8  2  1  0  0  0  0
 10  9  3  0  0  0  0
 11  6  1  0  0  0  0
M  RAD  1   3   2
M  END
