Coordinates from ORCA-job Ph-N2+-B3LYPG-6-31G_dp-MTMO-d009-169-n800
 OpenBabel09051908213D

 13 12  0  0  0  0  0  0  0  0999 V2000
   -2.7287    0.3830   -1.0585 C   0  0  0  0  0  0  0  0  0  0  0  0
   -2.6136   -0.6165   -0.0341 C   0  0  0  0  0  0  0  0  0  0  0  0
   -3.1844   -0.0566    1.0247 C   0  0  0  0  0  0  0  0  0  0  0  0
   -3.8004    1.0026    1.5338 C   0  0  0  0  0  0  0  0  0  0  0  0
   -3.8614    1.9271    0.4369 C   0  0  0  0  0  0  0  0  0  0  0  0
   -3.3374    1.6148   -0.8178 C   0  0  0  0  0  0  0  0  0  0  0  0
   -2.3133    0.1129   -2.0265 H   0  0  0  0  0  0  0  0  0  0  0  0
   -2.1545   -1.5880   -0.1707 H   0  0  0  0  0  0  0  0  0  0  0  0
   11.0936    1.0703   -0.7902 N   0  0  0  0  0  0  0  0  0  0  0  0
   12.1986    1.0870   -0.8093 N   0  0  0  0  0  0  0  0  0  0  0  0
   -3.4045    2.3422   -1.6198 H   0  0  0  0  0  0  0  0  0  0  0  0
   -4.3387    2.8801    0.6529 H   0  0  0  0  0  0  0  0  0  0  0  0
   -4.1891    1.1987    2.5255 H   0  0  0  0  0  0  0  0  0  0  0  0
  1  6  2  0  0  0  0
  1  2  1  0  0  0  0
  2  3  2  0  0  0  0
  3  4  1  0  0  0  0
  4 13  1  0  0  0  0
  5 12  1  0  0  0  0
  5  4  2  0  0  0  0
  6  5  1  0  0  0  0
  7  1  1  0  0  0  0
  8  2  1  0  0  0  0
 10  9  3  0  0  0  0
 11  6  1  0  0  0  0
M  RAD  1   3   2
M  END
