Coordinates from ORCA-job Ph-N2+-B3LYPG-6-31G_dp-MTMO-d009-169-n800
 OpenBabel09051908203D

 13 12  0  0  0  0  0  0  0  0999 V2000
   -3.0686    0.2075   -1.1823 C   0  0  0  0  0  0  0  0  0  0  0  0
   -2.1151   -0.5379   -0.4102 C   0  0  0  0  0  0  0  0  0  0  0  0
   -1.9469    0.1943    0.6834 C   0  0  0  0  0  0  0  0  0  0  0  0
   -2.2690    1.2929    1.3539 C   0  0  0  0  0  0  0  0  0  0  0  0
   -3.2153    1.9539    0.5001 C   0  0  0  0  0  0  0  0  0  0  0  0
   -3.5960    1.4169   -0.7296 C   0  0  0  0  0  0  0  0  0  0  0  0
   -3.3474   -0.2332   -2.1365 H   0  0  0  0  0  0  0  0  0  0  0  0
   -1.6768   -1.4796   -0.7169 H   0  0  0  0  0  0  0  0  0  0  0  0
    8.6815    0.9936   -0.1662 N   0  0  0  0  0  0  0  0  0  0  0  0
    9.7854    1.0385   -0.1973 N   0  0  0  0  0  0  0  0  0  0  0  0
   -4.3140    1.9489   -1.3444 H   0  0  0  0  0  0  0  0  0  0  0  0
   -3.6100    2.8944    0.8769 H   0  0  0  0  0  0  0  0  0  0  0  0
   -1.9414    1.6674    2.3158 H   0  0  0  0  0  0  0  0  0  0  0  0
  1  6  2  0  0  0  0
  1  2  1  0  0  0  0
  2  3  2  0  0  0  0
  3  4  1  0  0  0  0
  4 13  1  0  0  0  0
  5 12  1  0  0  0  0
  5  4  2  0  0  0  0
  6  5  1  0  0  0  0
  7  1  1  0  0  0  0
  8  2  1  0  0  0  0
 10  9  3  0  0  0  0
 11  6  1  0  0  0  0
M  RAD  1   3   2
M  END
