Coordinates from ORCA-job Ph-N2+-B3LYPG-6-31G_dp-MTMO-d009-169-n800
 OpenBabel09051908203D

 13 12  0  0  0  0  0  0  0  0999 V2000
   -2.3305    0.1222   -1.1169 C   0  0  0  0  0  0  0  0  0  0  0  0
   -0.9103   -0.0187   -0.9636 C   0  0  0  0  0  0  0  0  0  0  0  0
   -0.6106    0.8148    0.0242 C   0  0  0  0  0  0  0  0  0  0  0  0
   -1.0468    1.7018    0.9092 C   0  0  0  0  0  0  0  0  0  0  0  0
   -2.4608    1.7639    0.6696 C   0  0  0  0  0  0  0  0  0  0  0  0
   -3.0731    0.9919   -0.3180 C   0  0  0  0  0  0  0  0  0  0  0  0
   -2.7826   -0.4903   -1.8939 H   0  0  0  0  0  0  0  0  0  0  0  0
   -0.2883   -0.6768   -1.5580 H   0  0  0  0  0  0  0  0  0  0  0  0
    3.7247    0.6826    0.2698 N   0  0  0  0  0  0  0  0  0  0  0  0
    4.8284    0.6685    0.3241 N   0  0  0  0  0  0  0  0  0  0  0  0
   -4.1448    1.0701   -0.4680 H   0  0  0  0  0  0  0  0  0  0  0  0
   -3.0159    2.4489    1.3066 H   0  0  0  0  0  0  0  0  0  0  0  0
   -0.5231    2.2788    1.6617 H   0  0  0  0  0  0  0  0  0  0  0  0
  1  2  2  0  0  0  0
  1  6  1  0  0  0  0
  2  3  1  0  0  0  0
  3  4  2  0  0  0  0
  4 13  1  0  0  0  0
  5  4  1  0  0  0  0
  5 12  1  0  0  0  0
  6  5  2  0  0  0  0
  7  1  1  0  0  0  0
  8  2  1  0  0  0  0
  9 10  3  0  0  0  0
 11  6  1  0  0  0  0
M  RAD  1   3   2
M  END
