Coordinates from ORCA-job Ph-N2+-B3LYPG-6-31G_dp-MTMO-d009-169-n800
 OpenBabel09051908203D

 13 12  0  0  0  0  0  0  0  0999 V2000
   -2.9234    0.2118   -1.1827 C   0  0  0  0  0  0  0  0  0  0  0  0
   -1.8989   -0.4656   -0.4395 C   0  0  0  0  0  0  0  0  0  0  0  0
   -1.7588    0.2702    0.6558 C   0  0  0  0  0  0  0  0  0  0  0  0
   -2.1444    1.3385    1.3417 C   0  0  0  0  0  0  0  0  0  0  0  0
   -3.1574    1.9326    0.5160 C   0  0  0  0  0  0  0  0  0  0  0  0
   -3.5273    1.3762   -0.7084 C   0  0  0  0  0  0  0  0  0  0  0  0
   -3.1923   -0.2429   -2.1332 H   0  0  0  0  0  0  0  0  0  0  0  0
   -1.4005   -1.3709   -0.7635 H   0  0  0  0  0  0  0  0  0  0  0  0
    7.9974    0.9175   -0.1544 N   0  0  0  0  0  0  0  0  0  0  0  0
    9.1011    0.9626   -0.1903 N   0  0  0  0  0  0  0  0  0  0  0  0
   -4.2976    1.8573   -1.3016 H   0  0  0  0  0  0  0  0  0  0  0  0
   -3.6104    2.8395    0.9090 H   0  0  0  0  0  0  0  0  0  0  0  0
   -1.8213    1.7310    2.2979 H   0  0  0  0  0  0  0  0  0  0  0  0
  1  6  2  0  0  0  0
  1  2  1  0  0  0  0
  2  3  2  0  0  0  0
  3  4  1  0  0  0  0
  4 13  1  0  0  0  0
  5 12  1  0  0  0  0
  5  4  2  0  0  0  0
  6  5  1  0  0  0  0
  7  1  1  0  0  0  0
  8  2  1  0  0  0  0
 10  9  3  0  0  0  0
 11  6  1  0  0  0  0
M  RAD  1   3   2
M  END
