Coordinates from ORCA-job Ph-N2+-B3LYPG-6-31G_dp-MTMO-d009-169-n800
 OpenBabel09051908213D

 13 12  0  0  0  0  0  0  0  0999 V2000
   -3.0092    0.3891   -1.0335 C   0  0  0  0  0  0  0  0  0  0  0  0
   -2.8913   -0.6093   -0.0083 C   0  0  0  0  0  0  0  0  0  0  0  0
   -3.4822   -0.0584    1.0441 C   0  0  0  0  0  0  0  0  0  0  0  0
   -4.1194    0.9914    1.5466 C   0  0  0  0  0  0  0  0  0  0  0  0
   -4.1813    1.9156    0.4495 C   0  0  0  0  0  0  0  0  0  0  0  0
   -3.6385    1.6118   -0.7992 C   0  0  0  0  0  0  0  0  0  0  0  0
   -2.5790    0.1256   -1.9969 H   0  0  0  0  0  0  0  0  0  0  0  0
   -2.4169   -1.5740   -0.1402 H   0  0  0  0  0  0  0  0  0  0  0  0
   12.7414    1.0814   -0.8992 N   0  0  0  0  0  0  0  0  0  0  0  0
   13.8464    1.1030   -0.9090 N   0  0  0  0  0  0  0  0  0  0  0  0
   -3.7070    2.3386   -1.6016 H   0  0  0  0  0  0  0  0  0  0  0  0
   -4.6746    2.8616    0.6606 H   0  0  0  0  0  0  0  0  0  0  0  0
   -4.5220    1.1814    2.5340 H   0  0  0  0  0  0  0  0  0  0  0  0
  1  6  2  0  0  0  0
  1  2  1  0  0  0  0
  2  3  2  0  0  0  0
  3  4  1  0  0  0  0
  4 13  1  0  0  0  0
  5 12  1  0  0  0  0
  5  4  2  0  0  0  0
  6  5  1  0  0  0  0
  7  1  1  0  0  0  0
  8  2  1  0  0  0  0
 10  9  3  0  0  0  0
 11  6  1  0  0  0  0
M  RAD  1   3   2
M  END
