Coordinates from ORCA-job Ph-N2+-B3LYPG-6-31G_dp-MTMO-d009-169-n800
 OpenBabel09051908213D

 13 12  0  0  0  0  0  0  0  0999 V2000
   -2.7383    0.3987   -1.0348 C   0  0  0  0  0  0  0  0  0  0  0  0
   -2.6439   -0.6056   -0.0129 C   0  0  0  0  0  0  0  0  0  0  0  0
   -3.2573   -0.0600    1.0294 C   0  0  0  0  0  0  0  0  0  0  0  0
   -3.9042    0.9877    1.5237 C   0  0  0  0  0  0  0  0  0  0  0  0
   -3.9410    1.9181    0.4308 C   0  0  0  0  0  0  0  0  0  0  0  0
   -3.3712    1.6208   -0.8074 C   0  0  0  0  0  0  0  0  0  0  0  0
   -2.2875    0.1401   -1.9901 H   0  0  0  0  0  0  0  0  0  0  0  0
   -2.1677   -1.5702   -0.1398 H   0  0  0  0  0  0  0  0  0  0  0  0
   11.3798    1.0578   -0.8329 N   0  0  0  0  0  0  0  0  0  0  0  0
   12.4846    1.0820   -0.8517 N   0  0  0  0  0  0  0  0  0  0  0  0
   -3.4212    2.3523   -1.6070 H   0  0  0  0  0  0  0  0  0  0  0  0
   -4.4379    2.8635    0.6363 H   0  0  0  0  0  0  0  0  0  0  0  0
   -4.3279    1.1726    2.5032 H   0  0  0  0  0  0  0  0  0  0  0  0
  1  6  2  0  0  0  0
  1  2  1  0  0  0  0
  2  3  2  0  0  0  0
  3  4  1  0  0  0  0
  4 13  1  0  0  0  0
  5 12  1  0  0  0  0
  5  4  2  0  0  0  0
  6  5  1  0  0  0  0
  7  1  1  0  0  0  0
  8  2  1  0  0  0  0
 10  9  3  0  0  0  0
 11  6  1  0  0  0  0
M  RAD  1   3   2
M  END
