Coordinates from ORCA-job Ph-N2+-B3LYPG-6-31G_dp-MTMO-d009-169-n800
 OpenBabel09051908213D

 13 12  0  0  0  0  0  0  0  0999 V2000
   -3.0135    0.3870   -1.0369 C   0  0  0  0  0  0  0  0  0  0  0  0
   -2.8910   -0.6103   -0.0112 C   0  0  0  0  0  0  0  0  0  0  0  0
   -3.4754   -0.0575    1.0439 C   0  0  0  0  0  0  0  0  0  0  0  0
   -4.1086    0.9937    1.5487 C   0  0  0  0  0  0  0  0  0  0  0  0
   -4.1755    1.9166    0.4508 C   0  0  0  0  0  0  0  0  0  0  0  0
   -3.6401    1.6107   -0.8005 C   0  0  0  0  0  0  0  0  0  0  0  0
   -2.5890    0.1219   -2.0024 H   0  0  0  0  0  0  0  0  0  0  0  0
   -2.4184   -1.5758   -0.1446 H   0  0  0  0  0  0  0  0  0  0  0  0
   12.7286    1.0825   -0.8948 N   0  0  0  0  0  0  0  0  0  0  0  0
   13.8336    1.1040   -0.9043 N   0  0  0  0  0  0  0  0  0  0  0  0
   -3.7123    2.3366   -1.6034 H   0  0  0  0  0  0  0  0  0  0  0  0
   -4.6666    2.8634    0.6635 H   0  0  0  0  0  0  0  0  0  0  0  0
   -4.5055    1.1852    2.5380 H   0  0  0  0  0  0  0  0  0  0  0  0
  1  6  2  0  0  0  0
  1  2  1  0  0  0  0
  2  3  2  0  0  0  0
  3  4  1  0  0  0  0
  4 13  1  0  0  0  0
  5 12  1  0  0  0  0
  5  4  2  0  0  0  0
  6  5  1  0  0  0  0
  7  1  1  0  0  0  0
  8  2  1  0  0  0  0
 10  9  3  0  0  0  0
 11  6  1  0  0  0  0
M  RAD  1   3   2
M  END
