Coordinates from ORCA-job Ph-N2+-B3LYPG-6-31G_dp-MTMO-d009-169-n800
 OpenBabel09051908213D

 13 12  0  0  0  0  0  0  0  0999 V2000
   -3.1985    0.2309   -1.1998 C   0  0  0  0  0  0  0  0  0  0  0  0
   -2.5985   -0.6808   -0.2668 C   0  0  0  0  0  0  0  0  0  0  0  0
   -2.5352    0.0131    0.8623 C   0  0  0  0  0  0  0  0  0  0  0  0
   -2.7798    1.1582    1.4862 C   0  0  0  0  0  0  0  0  0  0  0  0
   -3.3714    1.9850    0.4723 C   0  0  0  0  0  0  0  0  0  0  0  0
   -3.5693    1.5236   -0.8293 C   0  0  0  0  0  0  0  0  0  0  0  0
   -3.3420   -0.1549   -2.2065 H   0  0  0  0  0  0  0  0  0  0  0  0
   -2.2925   -1.6919   -0.5054 H   0  0  0  0  0  0  0  0  0  0  0  0
   10.1128    1.1486   -0.3312 N   0  0  0  0  0  0  0  0  0  0  0  0
   11.2167    1.1891   -0.3670 N   0  0  0  0  0  0  0  0  0  0  0  0
   -4.0186    2.1812   -1.5656 H   0  0  0  0  0  0  0  0  0  0  0  0
   -3.6522    2.9868    0.7887 H   0  0  0  0  0  0  0  0  0  0  0  0
   -2.6051    1.4690    2.5089 H   0  0  0  0  0  0  0  0  0  0  0  0
  1  6  2  0  0  0  0
  1  2  1  0  0  0  0
  2  3  2  0  0  0  0
  3  4  1  0  0  0  0
  4 13  1  0  0  0  0
  5 12  1  0  0  0  0
  5  4  2  0  0  0  0
  6  5  1  0  0  0  0
  7  1  1  0  0  0  0
  8  2  1  0  0  0  0
 10  9  3  0  0  0  0
 11  6  1  0  0  0  0
M  RAD  1   3   2
M  END
