Coordinates from ORCA-job Ph-N2+-B3LYPG-6-31G_dp-MTMO-d009-169-n800
 OpenBabel09051908203D

 13 12  0  0  0  0  0  0  0  0999 V2000
   -2.3718    0.1273   -1.1212 C   0  0  0  0  0  0  0  0  0  0  0  0
   -0.9549   -0.0217   -0.9456 C   0  0  0  0  0  0  0  0  0  0  0  0
   -0.6665    0.8096    0.0474 C   0  0  0  0  0  0  0  0  0  0  0  0
   -1.1115    1.6990    0.9256 C   0  0  0  0  0  0  0  0  0  0  0  0
   -2.5211    1.7691    0.6636 C   0  0  0  0  0  0  0  0  0  0  0  0
   -3.1221    1.0010   -0.3340 C   0  0  0  0  0  0  0  0  0  0  0  0
   -2.8147   -0.4824   -1.9056 H   0  0  0  0  0  0  0  0  0  0  0  0
   -0.3276   -0.6833   -1.5306 H   0  0  0  0  0  0  0  0  0  0  0  0
    4.0111    0.6673    0.2626 N   0  0  0  0  0  0  0  0  0  0  0  0
    5.1153    0.6563    0.3070 N   0  0  0  0  0  0  0  0  0  0  0  0
   -4.1907    1.0854   -0.5011 H   0  0  0  0  0  0  0  0  0  0  0  0
   -3.0823    2.4571    1.2920 H   0  0  0  0  0  0  0  0  0  0  0  0
   -0.5969    2.2729    1.6867 H   0  0  0  0  0  0  0  0  0  0  0  0
  1  2  2  0  0  0  0
  1  6  1  0  0  0  0
  2  3  1  0  0  0  0
  3  4  2  0  0  0  0
  4 13  1  0  0  0  0
  5  4  1  0  0  0  0
  5 12  1  0  0  0  0
  6  5  2  0  0  0  0
  7  1  1  0  0  0  0
  8  2  1  0  0  0  0
  9 10  3  0  0  0  0
 11  6  1  0  0  0  0
M  RAD  1   3   2
M  END
