Coordinates from ORCA-job Ph-N2+-B3LYPG-6-31G_dp-MTMO-d009-169-n800
 OpenBabel09051908213D

 13 12  0  0  0  0  0  0  0  0999 V2000
   -3.1560    0.2541   -1.1943 C   0  0  0  0  0  0  0  0  0  0  0  0
   -2.7265   -0.6944   -0.2058 C   0  0  0  0  0  0  0  0  0  0  0  0
   -2.8088   -0.0245    0.9365 C   0  0  0  0  0  0  0  0  0  0  0  0
   -3.1085    1.1159    1.5449 C   0  0  0  0  0  0  0  0  0  0  0  0
   -3.5200    1.9808    0.4754 C   0  0  0  0  0  0  0  0  0  0  0  0
   -3.5387    1.5510   -0.8516 C   0  0  0  0  0  0  0  0  0  0  0  0
   -3.1607   -0.1075   -2.2202 H   0  0  0  0  0  0  0  0  0  0  0  0
   -2.4179   -1.7100   -0.4211 H   0  0  0  0  0  0  0  0  0  0  0  0
   10.7235    1.1697   -0.4548 N   0  0  0  0  0  0  0  0  0  0  0  0
   11.8277    1.1997   -0.4930 N   0  0  0  0  0  0  0  0  0  0  0  0
   -3.8561    2.2366   -1.6298 H   0  0  0  0  0  0  0  0  0  0  0  0
   -3.8146    2.9850    0.7711 H   0  0  0  0  0  0  0  0  0  0  0  0
   -3.0773    1.4012    2.5895 H   0  0  0  0  0  0  0  0  0  0  0  0
  1  6  2  0  0  0  0
  1  2  1  0  0  0  0
  2  3  2  0  0  0  0
  3  4  1  0  0  0  0
  4 13  1  0  0  0  0
  5 12  1  0  0  0  0
  5  4  2  0  0  0  0
  6  5  1  0  0  0  0
  7  1  1  0  0  0  0
  8  2  1  0  0  0  0
 10  9  3  0  0  0  0
 11  6  1  0  0  0  0
M  RAD  1   3   2
M  END
