Coordinates from ORCA-job Ph-N2+-B3LYPG-6-31G_dp-MTMO-d009-169-n800
 OpenBabel09051908203D

 13 12  0  0  0  0  0  0  0  0999 V2000
   -2.5225    0.2096   -1.1785 C   0  0  0  0  0  0  0  0  0  0  0  0
   -1.3435   -0.2974   -0.5353 C   0  0  0  0  0  0  0  0  0  0  0  0
   -1.2229    0.4552    0.5508 C   0  0  0  0  0  0  0  0  0  0  0  0
   -1.7083    1.4520    1.2798 C   0  0  0  0  0  0  0  0  0  0  0  0
   -2.8704    1.8780    0.5527 C   0  0  0  0  0  0  0  0  0  0  0  0
   -3.2561    1.2670   -0.6404 C   0  0  0  0  0  0  0  0  0  0  0  0
   -2.8005   -0.2846   -2.1063 H   0  0  0  0  0  0  0  0  0  0  0  0
   -0.7407   -1.1153   -0.9109 H   0  0  0  0  0  0  0  0  0  0  0  0
    5.8298    0.7447   -0.0909 N   0  0  0  0  0  0  0  0  0  0  0  0
    6.9314    0.8296   -0.1172 N   0  0  0  0  0  0  0  0  0  0  0  0
   -4.1411    1.6201   -1.1581 H   0  0  0  0  0  0  0  0  0  0  0  0
   -3.4225    2.7049    0.9935 H   0  0  0  0  0  0  0  0  0  0  0  0
   -1.3665    1.8937    2.2077 H   0  0  0  0  0  0  0  0  0  0  0  0
  1  6  2  0  0  0  0
  1  2  1  0  0  0  0
  2  3  2  0  0  0  0
  3  4  1  0  0  0  0
  4 13  1  0  0  0  0
  5 12  1  0  0  0  0
  5  4  2  0  0  0  0
  6  5  1  0  0  0  0
  7  1  1  0  0  0  0
  8  2  1  0  0  0  0
 10  9  3  0  0  0  0
 11  6  1  0  0  0  0
M  RAD  1   3   2
M  END
