Coordinates from ORCA-job Ph-N2+-B3LYPG-6-31G_dp-MTMO-d009-169-n800
 OpenBabel09051908203D

 13 12  0  0  0  0  0  0  0  0999 V2000
   -2.5512    0.1563   -1.1459 C   0  0  0  0  0  0  0  0  0  0  0  0
   -1.1690   -0.0784   -0.8375 C   0  0  0  0  0  0  0  0  0  0  0  0
   -0.9273    0.7325    0.1844 C   0  0  0  0  0  0  0  0  0  0  0  0
   -1.4000    1.6457    1.0228 C   0  0  0  0  0  0  0  0  0  0  0  0
   -2.7715    1.8008    0.6287 C   0  0  0  0  0  0  0  0  0  0  0  0
   -3.3196    1.0721   -0.4271 C   0  0  0  0  0  0  0  0  0  0  0  0
   -2.9527   -0.4244   -1.9733 H   0  0  0  0  0  0  0  0  0  0  0  0
   -0.5302   -0.7761   -1.3656 H   0  0  0  0  0  0  0  0  0  0  0  0
    5.2587    0.6468    0.2065 N   0  0  0  0  0  0  0  0  0  0  0  0
    6.3638    0.6537    0.2087 N   0  0  0  0  0  0  0  0  0  0  0  0
   -4.3602    1.2209   -0.6942 H   0  0  0  0  0  0  0  0  0  0  0  0
   -3.3474    2.5206    1.2060 H   0  0  0  0  0  0  0  0  0  0  0  0
   -0.9273    2.1871    1.8333 H   0  0  0  0  0  0  0  0  0  0  0  0
  1  2  2  0  0  0  0
  1  6  1  0  0  0  0
  2  3  1  0  0  0  0
  3  4  2  0  0  0  0
  4 13  1  0  0  0  0
  5  4  1  0  0  0  0
  5 12  1  0  0  0  0
  6  5  2  0  0  0  0
  7  1  1  0  0  0  0
  8  2  1  0  0  0  0
  9 10  3  0  0  0  0
 11  6  1  0  0  0  0
M  RAD  1   3   2
M  END
