Coordinates from ORCA-job Ph-N2+-B3LYPG-6-31G_dp-MTMO-d009-169-n800
 OpenBabel09051908203D

 13 12  0  0  0  0  0  0  0  0999 V2000
   -2.7393    0.2135   -1.1818 C   0  0  0  0  0  0  0  0  0  0  0  0
   -1.6400   -0.3849   -0.4789 C   0  0  0  0  0  0  0  0  0  0  0  0
   -1.5178    0.3566    0.6147 C   0  0  0  0  0  0  0  0  0  0  0  0
   -1.9594    1.3906    1.3192 C   0  0  0  0  0  0  0  0  0  0  0  0
   -3.0439    1.9069    0.5331 C   0  0  0  0  0  0  0  0  0  0  0  0
   -3.4136    1.3268   -0.6803 C   0  0  0  0  0  0  0  0  0  0  0  0
   -3.0066   -0.2583   -2.1244 H   0  0  0  0  0  0  0  0  0  0  0  0
   -1.0857   -1.2488   -0.8248 H   0  0  0  0  0  0  0  0  0  0  0  0
    7.0462    0.8358   -0.1299 N   0  0  0  0  0  0  0  0  0  0  0  0
    8.1494    0.8903   -0.1685 N   0  0  0  0  0  0  0  0  0  0  0  0
   -4.2392    1.7486   -1.2431 H   0  0  0  0  0  0  0  0  0  0  0  0
   -3.5506    2.7757    0.9465 H   0  0  0  0  0  0  0  0  0  0  0  0
   -1.6330    1.8049    2.2650 H   0  0  0  0  0  0  0  0  0  0  0  0
  1  6  2  0  0  0  0
  1  2  1  0  0  0  0
  2  3  2  0  0  0  0
  3  4  1  0  0  0  0
  4 13  1  0  0  0  0
  5 12  1  0  0  0  0
  5  4  2  0  0  0  0
  6  5  1  0  0  0  0
  7  1  1  0  0  0  0
  8  2  1  0  0  0  0
 10  9  3  0  0  0  0
 11  6  1  0  0  0  0
M  RAD  1   3   2
M  END
