Coordinates from ORCA-job Ph-N2+-B3LYPG-6-31G_dp-MTMO-d009-169-n800
 OpenBabel09051908203D

 13 12  0  0  0  0  0  0  0  0999 V2000
   -2.2159    0.1112   -1.1050 C   0  0  0  0  0  0  0  0  0  0  0  0
   -0.7904   -0.0086   -0.9945 C   0  0  0  0  0  0  0  0  0  0  0  0
   -0.4706    0.8298   -0.0167 C   0  0  0  0  0  0  0  0  0  0  0  0
   -0.8949    1.7108    0.8805 C   0  0  0  0  0  0  0  0  0  0  0  0
   -2.3156    1.7523    0.6844 C   0  0  0  0  0  0  0  0  0  0  0  0
   -2.9464    0.9706   -0.2840 C   0  0  0  0  0  0  0  0  0  0  0  0
   -2.6834   -0.5081   -1.8673 H   0  0  0  0  0  0  0  0  0  0  0  0
   -0.1762   -0.6578   -1.6063 H   0  0  0  0  0  0  0  0  0  0  0  0
    2.9995    0.7127    0.2622 N   0  0  0  0  0  0  0  0  0  0  0  0
    4.1012    0.6872    0.3419 N   0  0  0  0  0  0  0  0  0  0  0  0
   -4.0232    1.0329   -0.4011 H   0  0  0  0  0  0  0  0  0  0  0  0
   -2.8620    2.4293    1.3371 H   0  0  0  0  0  0  0  0  0  0  0  0
   -0.3558    2.2954    1.6158 H   0  0  0  0  0  0  0  0  0  0  0  0
  1  2  2  0  0  0  0
  1  6  1  0  0  0  0
  2  3  1  0  0  0  0
  3  4  2  0  0  0  0
  4 13  1  0  0  0  0
  5  4  1  0  0  0  0
  5 12  1  0  0  0  0
  6  5  2  0  0  0  0
  7  1  1  0  0  0  0
  8  2  1  0  0  0  0
  9 10  3  0  0  0  0
 11  6  1  0  0  0  0
M  RAD  1   3   2
M  END
