Coordinates from ORCA-job Ph-N2+-B3LYPG-6-31G_dp-MTMO-d009-169-n800
 OpenBabel09051908203D

 13 12  0  0  0  0  0  0  0  0999 V2000
   -3.1037    0.2073   -1.1827 C   0  0  0  0  0  0  0  0  0  0  0  0
   -2.1690   -0.5527   -0.4019 C   0  0  0  0  0  0  0  0  0  0  0  0
   -1.9981    0.1778    0.6925 C   0  0  0  0  0  0  0  0  0  0  0  0
   -2.3078    1.2823    1.3591 C   0  0  0  0  0  0  0  0  0  0  0  0
   -3.2360    1.9577    0.4969 C   0  0  0  0  0  0  0  0  0  0  0  0
   -3.6151    1.4256   -0.7356 C   0  0  0  0  0  0  0  0  0  0  0  0
   -3.3816   -0.2298   -2.1388 H   0  0  0  0  0  0  0  0  0  0  0  0
   -1.7434   -1.5016   -0.7041 H   0  0  0  0  0  0  0  0  0  0  0  0
    8.8684    1.0106   -0.1719 N   0  0  0  0  0  0  0  0  0  0  0  0
    9.9723    1.0544   -0.2025 N   0  0  0  0  0  0  0  0  0  0  0  0
   -4.3190    1.9688   -1.3570 H   0  0  0  0  0  0  0  0  0  0  0  0
   -3.6185    2.9049    0.8695 H   0  0  0  0  0  0  0  0  0  0  0  0
   -1.9822    1.6524    2.3234 H   0  0  0  0  0  0  0  0  0  0  0  0
  1  6  2  0  0  0  0
  1  2  1  0  0  0  0
  2  3  2  0  0  0  0
  3  4  1  0  0  0  0
  4 13  1  0  0  0  0
  5 12  1  0  0  0  0
  5  4  2  0  0  0  0
  6  5  1  0  0  0  0
  7  1  1  0  0  0  0
  8  2  1  0  0  0  0
 10  9  3  0  0  0  0
 11  6  1  0  0  0  0
M  RAD  1   3   2
M  END
