Coordinates from ORCA-job Ph-N2+-B3LYPG-6-31G_dp-MTMO-d009-169-n800
 OpenBabel09051908203D

 13 12  0  0  0  0  0  0  0  0999 V2000
   -2.5581    0.2108   -1.1793 C   0  0  0  0  0  0  0  0  0  0  0  0
   -1.3951   -0.3154   -0.5228 C   0  0  0  0  0  0  0  0  0  0  0  0
   -1.2752    0.4343    0.5654 C   0  0  0  0  0  0  0  0  0  0  0  0
   -1.7525    1.4391    1.2888 C   0  0  0  0  0  0  0  0  0  0  0  0
   -2.8990    1.8840    0.5485 C   0  0  0  0  0  0  0  0  0  0  0  0
   -3.2807    1.2797   -0.6493 C   0  0  0  0  0  0  0  0  0  0  0  0
   -2.8334   -0.2786   -2.1106 H   0  0  0  0  0  0  0  0  0  0  0  0
   -0.8013   -1.1428   -0.8919 H   0  0  0  0  0  0  0  0  0  0  0  0
    6.0353    0.7601   -0.1013 N   0  0  0  0  0  0  0  0  0  0  0  0
    7.1370    0.8446   -0.1276 N   0  0  0  0  0  0  0  0  0  0  0  0
   -4.1538    1.6473   -1.1771 H   0  0  0  0  0  0  0  0  0  0  0  0
   -3.4426    2.7196    0.9833 H   0  0  0  0  0  0  0  0  0  0  0  0
   -1.4143    1.8750    2.2207 H   0  0  0  0  0  0  0  0  0  0  0  0
  1  6  2  0  0  0  0
  1  2  1  0  0  0  0
  2  3  2  0  0  0  0
  3  4  1  0  0  0  0
  4 13  1  0  0  0  0
  5 12  1  0  0  0  0
  5  4  2  0  0  0  0
  6  5  1  0  0  0  0
  7  1  1  0  0  0  0
  8  2  1  0  0  0  0
 10  9  3  0  0  0  0
 11  6  1  0  0  0  0
M  RAD  1   3   2
M  END
