Coordinates from ORCA-job Ph-N2+-B3LYPG-6-31G_dp-MTMO-d009-169-n800
 OpenBabel09051908203D

 13 12  0  0  0  0  0  0  0  0999 V2000
   -2.9740    0.2100   -1.1825 C   0  0  0  0  0  0  0  0  0  0  0  0
   -1.9731   -0.4916   -0.4297 C   0  0  0  0  0  0  0  0  0  0  0  0
   -1.8226    0.2431    0.6649 C   0  0  0  0  0  0  0  0  0  0  0  0
   -2.1857    1.3226    1.3454 C   0  0  0  0  0  0  0  0  0  0  0  0
   -3.1766    1.9405    0.5104 C   0  0  0  0  0  0  0  0  0  0  0  0
   -3.5514    1.3908   -0.7156 C   0  0  0  0  0  0  0  0  0  0  0  0
   -3.2471   -0.2398   -2.1341 H   0  0  0  0  0  0  0  0  0  0  0  0
   -1.4954   -1.4101   -0.7478 H   0  0  0  0  0  0  0  0  0  0  0  0
    8.2310    0.9440   -0.1578 N   0  0  0  0  0  0  0  0  0  0  0  0
    9.3348    0.9894   -0.1918 N   0  0  0  0  0  0  0  0  0  0  0  0
   -4.3042    1.8901   -1.3159 H   0  0  0  0  0  0  0  0  0  0  0  0
   -3.6093    2.8597    0.8979 H   0  0  0  0  0  0  0  0  0  0  0  0
   -1.8602    1.7090    2.3033 H   0  0  0  0  0  0  0  0  0  0  0  0
  1  6  2  0  0  0  0
  1  2  1  0  0  0  0
  2  3  2  0  0  0  0
  3  4  1  0  0  0  0
  4 13  1  0  0  0  0
  5 12  1  0  0  0  0
  5  4  2  0  0  0  0
  6  5  1  0  0  0  0
  7  1  1  0  0  0  0
  8  2  1  0  0  0  0
 10  9  3  0  0  0  0
 11  6  1  0  0  0  0
M  RAD  1   3   2
M  END
