Coordinates from ORCA-job Ph-N2+-B3LYPG-6-31G_dp-MTMO-d009-169-n800
 OpenBabel09051908203D

 13 13  0  0  0  0  0  0  0  0999 V2000
   -1.9009    0.0894   -1.0814 C   0  0  0  0  0  0  0  0  0  0  0  0
   -0.5296    0.0150   -0.9693 C   0  0  0  0  0  0  0  0  0  0  0  0
    0.1484    0.8247    0.0161 C   0  0  0  0  0  0  0  0  0  0  0  0
   -0.6278    1.6972    0.8660 C   0  0  0  0  0  0  0  0  0  0  0  0
   -1.9975    1.7425    0.7220 C   0  0  0  0  0  0  0  0  0  0  0  0
   -2.6347    0.9462   -0.2441 C   0  0  0  0  0  0  0  0  0  0  0  0
   -2.4097   -0.5185   -1.8221 H   0  0  0  0  0  0  0  0  0  0  0  0
    0.0663   -0.6360   -1.6013 H   0  0  0  0  0  0  0  0  0  0  0  0
    1.2628    0.7768    0.1196 N   0  0  0  0  0  0  0  0  0  0  0  0
    2.3890    0.7285    0.2241 N   0  0  0  0  0  0  0  0  0  0  0  0
   -3.7151    0.9941   -0.3459 H   0  0  0  0  0  0  0  0  0  0  0  0
   -2.5799    2.3983    1.3606 H   0  0  0  0  0  0  0  0  0  0  0  0
   -0.1049    2.2997    1.6022 H   0  0  0  0  0  0  0  0  0  0  0  0
  1  2  2  0  0  0  0
  1  6  1  0  0  0  0
  2  3  1  0  0  0  0
  3  9  1  0  0  0  0
  3  4  2  0  0  0  0
  4 13  1  0  0  0  0
  5  4  1  0  0  0  0
  5 12  1  0  0  0  0
  6  5  2  0  0  0  0
  7  1  1  0  0  0  0
  8  2  1  0  0  0  0
  9 10  1  0  0  0  0
 11  6  1  0  0  0  0
M  RAD  2   9   2  10   3
M  END
