Coordinates from ORCA-job Ph-N2+-B3LYPG-6-31G_dp-MTMO-d009-169-n800
 OpenBabel09051908203D

 13 12  0  0  0  0  0  0  0  0999 V2000
   -2.5048    0.2085   -1.1778 C   0  0  0  0  0  0  0  0  0  0  0  0
   -1.3153   -0.2859   -0.5444 C   0  0  0  0  0  0  0  0  0  0  0  0
   -1.1938    0.4677    0.5409 C   0  0  0  0  0  0  0  0  0  0  0  0
   -1.6827    1.4606    1.2729 C   0  0  0  0  0  0  0  0  0  0  0  0
   -2.8553    1.8741    0.5555 C   0  0  0  0  0  0  0  0  0  0  0  0
   -3.2447    1.2586   -0.6341 C   0  0  0  0  0  0  0  0  0  0  0  0
   -2.7855   -0.2890   -2.1031 H   0  0  0  0  0  0  0  0  0  0  0  0
   -0.7071   -1.0975   -0.9249 H   0  0  0  0  0  0  0  0  0  0  0  0
    5.7204    0.7352   -0.0837 N   0  0  0  0  0  0  0  0  0  0  0  0
    6.8221    0.8206   -0.1081 N   0  0  0  0  0  0  0  0  0  0  0  0
   -4.1375    1.6025   -1.1445 H   0  0  0  0  0  0  0  0  0  0  0  0
   -3.4121    2.6956    1.0006 H   0  0  0  0  0  0  0  0  0  0  0  0
   -1.3374    1.9066    2.1973 H   0  0  0  0  0  0  0  0  0  0  0  0
  1  6  2  0  0  0  0
  1  2  1  0  0  0  0
  2  3  2  0  0  0  0
  3  4  1  0  0  0  0
  4 13  1  0  0  0  0
  5 12  1  0  0  0  0
  5  4  2  0  0  0  0
  6  5  1  0  0  0  0
  7  1  1  0  0  0  0
  8  2  1  0  0  0  0
 10  9  3  0  0  0  0
 11  6  1  0  0  0  0
M  RAD  1   3   2
M  END
