Coordinates from ORCA-job Ph-N2+-B3LYPG-6-31G_dp-MTMO-d009-169-n800
 OpenBabel09051908203D

 13 12  0  0  0  0  0  0  0  0999 V2000
   -2.6645    0.2126   -1.1809 C   0  0  0  0  0  0  0  0  0  0  0  0
   -1.5396   -0.3583   -0.4957 C   0  0  0  0  0  0  0  0  0  0  0  0
   -1.4179    0.3869    0.5954 C   0  0  0  0  0  0  0  0  0  0  0  0
   -1.8741    1.4092    1.3076 C   0  0  0  0  0  0  0  0  0  0  0  0
   -2.9835    1.8983    0.5389 C   0  0  0  0  0  0  0  0  0  0  0  0
   -3.3581    1.3089   -0.6685 C   0  0  0  0  0  0  0  0  0  0  0  0
   -2.9350   -0.2660   -2.1192 H   0  0  0  0  0  0  0  0  0  0  0  0
   -0.9698   -1.2085   -0.8503 H   0  0  0  0  0  0  0  0  0  0  0  0
    6.6286    0.8037   -0.1202 N   0  0  0  0  0  0  0  0  0  0  0  0
    7.7311    0.8752   -0.1512 N   0  0  0  0  0  0  0  0  0  0  0  0
   -4.2029    1.7099   -1.2178 H   0  0  0  0  0  0  0  0  0  0  0  0
   -3.5050    2.7544    0.9605 H   0  0  0  0  0  0  0  0  0  0  0  0
   -1.5431    1.8316    2.2482 H   0  0  0  0  0  0  0  0  0  0  0  0
  1  6  2  0  0  0  0
  1  2  1  0  0  0  0
  2  3  2  0  0  0  0
  3  4  1  0  0  0  0
  4 13  1  0  0  0  0
  5 12  1  0  0  0  0
  5  4  2  0  0  0  0
  6  5  1  0  0  0  0
  7  1  1  0  0  0  0
  8  2  1  0  0  0  0
 10  9  3  0  0  0  0
 11  6  1  0  0  0  0
M  RAD  1   3   2
M  END
