Coordinates from ORCA-job Ph-N2+-B3LYPG-6-31G_dp-MTMO-d009-169-n800
 OpenBabel09051908203D

 13 12  0  0  0  0  0  0  0  0999 V2000
   -2.0340    0.1004   -1.0881 C   0  0  0  0  0  0  0  0  0  0  0  0
   -0.6184    0.0030   -0.9917 C   0  0  0  0  0  0  0  0  0  0  0  0
   -0.2292    0.8388   -0.0168 C   0  0  0  0  0  0  0  0  0  0  0  0
   -0.7183    1.7141    0.8749 C   0  0  0  0  0  0  0  0  0  0  0  0
   -2.1300    1.7431    0.7039 C   0  0  0  0  0  0  0  0  0  0  0  0
   -2.7636    0.9525   -0.2569 C   0  0  0  0  0  0  0  0  0  0  0  0
   -2.5170   -0.5189   -1.8390 H   0  0  0  0  0  0  0  0  0  0  0  0
   -0.0107   -0.6410   -1.6132 H   0  0  0  0  0  0  0  0  0  0  0  0
    2.0012    0.7455    0.1874 N   0  0  0  0  0  0  0  0  0  0  0  0
    3.0999    0.7016    0.2858 N   0  0  0  0  0  0  0  0  0  0  0  0
   -3.8425    1.0019   -0.3599 H   0  0  0  0  0  0  0  0  0  0  0  0
   -2.6881    2.4093    1.3562 H   0  0  0  0  0  0  0  0  0  0  0  0
   -0.1830    2.3074    1.6042 H   0  0  0  0  0  0  0  0  0  0  0  0
  1  2  2  0  0  0  0
  1  6  1  0  0  0  0
  2  3  1  0  0  0  0
  3  4  2  0  0  0  0
  4 13  1  0  0  0  0
  5  4  1  0  0  0  0
  5 12  1  0  0  0  0
  6  5  2  0  0  0  0
  7  1  1  0  0  0  0
  8  2  1  0  0  0  0
  9 10  3  0  0  0  0
 11  6  1  0  0  0  0
M  RAD  1   3   2
M  END
