Coordinates from ORCA-job Ph-N2+-B3LYPG-6-31G_dp-MTMO-d009-169-n800
 OpenBabel09051908213D

 13 12  0  0  0  0  0  0  0  0999 V2000
   -3.0100    0.3673   -1.0695 C   0  0  0  0  0  0  0  0  0  0  0  0
   -2.8457   -0.6206   -0.0407 C   0  0  0  0  0  0  0  0  0  0  0  0
   -3.3670   -0.0493    1.0373 C   0  0  0  0  0  0  0  0  0  0  0  0
   -3.9605    1.0148    1.5627 C   0  0  0  0  0  0  0  0  0  0  0  0
   -4.0740    1.9269    0.4597 C   0  0  0  0  0  0  0  0  0  0  0  0
   -3.6088    1.6011   -0.8145 C   0  0  0  0  0  0  0  0  0  0  0  0
   -2.6393    0.0870   -2.0528 H   0  0  0  0  0  0  0  0  0  0  0  0
   -2.3917   -1.5929   -0.1878 H   0  0  0  0  0  0  0  0  0  0  0  0
   12.3594    1.0898   -0.8385 N   0  0  0  0  0  0  0  0  0  0  0  0
   13.4644    1.1111   -0.8446 N   0  0  0  0  0  0  0  0  0  0  0  0
   -3.7146    2.3193   -1.6206 H   0  0  0  0  0  0  0  0  0  0  0  0
   -4.5424    2.8817    0.6870 H   0  0  0  0  0  0  0  0  0  0  0  0
   -4.3036    1.2212    2.5690 H   0  0  0  0  0  0  0  0  0  0  0  0
  1  6  2  0  0  0  0
  1  2  1  0  0  0  0
  2  3  2  0  0  0  0
  3  4  1  0  0  0  0
  4 13  1  0  0  0  0
  5 12  1  0  0  0  0
  5  4  2  0  0  0  0
  6  5  1  0  0  0  0
  7  1  1  0  0  0  0
  8  2  1  0  0  0  0
 10  9  3  0  0  0  0
 11  6  1  0  0  0  0
M  RAD  1   3   2
M  END
