Coordinates from ORCA-job Ph-N2+-B3LYPG-6-31G_dp-MTMO-d009-169-n800
 OpenBabel09051908213D

 13 12  0  0  0  0  0  0  0  0999 V2000
   -3.0276    0.3803   -1.0472 C   0  0  0  0  0  0  0  0  0  0  0  0
   -2.8907   -0.6137   -0.0201 C   0  0  0  0  0  0  0  0  0  0  0  0
   -3.4544   -0.0548    1.0430 C   0  0  0  0  0  0  0  0  0  0  0  0
   -4.0748    1.0006    1.5548 C   0  0  0  0  0  0  0  0  0  0  0  0
   -4.1577    1.9197    0.4549 C   0  0  0  0  0  0  0  0  0  0  0  0
   -3.6454    1.6071   -0.8046 C   0  0  0  0  0  0  0  0  0  0  0  0
   -2.6208    0.1101   -2.0190 H   0  0  0  0  0  0  0  0  0  0  0  0
   -2.4238   -1.5812   -0.1581 H   0  0  0  0  0  0  0  0  0  0  0  0
   12.6906    1.0859   -0.8813 N   0  0  0  0  0  0  0  0  0  0  0  0
   13.7956    1.1072   -0.8894 N   0  0  0  0  0  0  0  0  0  0  0  0
   -3.7292    2.3303   -1.6088 H   0  0  0  0  0  0  0  0  0  0  0  0
   -4.6416    2.8690    0.6726 H   0  0  0  0  0  0  0  0  0  0  0  0
   -4.4539    1.1971    2.5502 H   0  0  0  0  0  0  0  0  0  0  0  0
  1  6  2  0  0  0  0
  1  2  1  0  0  0  0
  2  3  2  0  0  0  0
  3  4  1  0  0  0  0
  4 13  1  0  0  0  0
  5 12  1  0  0  0  0
  5  4  2  0  0  0  0
  6  5  1  0  0  0  0
  7  1  1  0  0  0  0
  8  2  1  0  0  0  0
 10  9  3  0  0  0  0
 11  6  1  0  0  0  0
M  RAD  1   3   2
M  END
