Coordinates from ORCA-job Ph-N2+-B3LYPG-6-31G_dp-MTMO-d009-169-n800
 OpenBabel09051908213D

 13 12  0  0  0  0  0  0  0  0999 V2000
   -3.0801    0.3869   -1.0309 C   0  0  0  0  0  0  0  0  0  0  0  0
   -2.9609   -0.6111   -0.0055 C   0  0  0  0  0  0  0  0  0  0  0  0
   -3.5490   -0.0592    1.0480 C   0  0  0  0  0  0  0  0  0  0  0  0
   -4.1841    0.9914    1.5514 C   0  0  0  0  0  0  0  0  0  0  0  0
   -4.2475    1.9151    0.4540 C   0  0  0  0  0  0  0  0  0  0  0  0
   -3.7078    1.6103   -0.7957 C   0  0  0  0  0  0  0  0  0  0  0  0
   -2.6522    0.1227   -1.9951 H   0  0  0  0  0  0  0  0  0  0  0  0
   -2.4876   -1.5763   -0.1380 H   0  0  0  0  0  0  0  0  0  0  0  0
   13.1160    1.0884   -0.9197 N   0  0  0  0  0  0  0  0  0  0  0  0
   14.2210    1.1090   -0.9285 N   0  0  0  0  0  0  0  0  0  0  0  0
   -3.7774    2.3368   -1.5983 H   0  0  0  0  0  0  0  0  0  0  0  0
   -4.7396    2.8616    0.6658 H   0  0  0  0  0  0  0  0  0  0  0  0
   -4.5844    1.1821    2.5395 H   0  0  0  0  0  0  0  0  0  0  0  0
  1  6  2  0  0  0  0
  1  2  1  0  0  0  0
  2  3  2  0  0  0  0
  3  4  1  0  0  0  0
  4 13  1  0  0  0  0
  5 12  1  0  0  0  0
  5  4  2  0  0  0  0
  6  5  1  0  0  0  0
  7  1  1  0  0  0  0
  8  2  1  0  0  0  0
 10  9  3  0  0  0  0
 11  6  1  0  0  0  0
M  RAD  1   3   2
M  END
