Coordinates from ORCA-job Ph-N2+-B3LYPG-6-31G_dp-MTMO-d009-169-n800
 OpenBabel09051908203D

 13 12  0  0  0  0  0  0  0  0999 V2000
   -2.5916    0.1769   -1.1606 C   0  0  0  0  0  0  0  0  0  0  0  0
   -1.2523   -0.1307   -0.7457 C   0  0  0  0  0  0  0  0  0  0  0  0
   -1.0510    0.6620    0.2990 C   0  0  0  0  0  0  0  0  0  0  0  0
   -1.5415    1.5946    1.1054 C   0  0  0  0  0  0  0  0  0  0  0  0
   -2.8675    1.8223    0.6052 C   0  0  0  0  0  0  0  0  0  0  0  0
   -3.3667    1.1278   -0.4968 C   0  0  0  0  0  0  0  0  0  0  0  0
   -2.9552   -0.3784   -2.0222 H   0  0  0  0  0  0  0  0  0  0  0  0
   -0.6104   -0.8585   -1.2272 H   0  0  0  0  0  0  0  0  0  0  0  0
    5.7142    0.6584    0.1306 N   0  0  0  0  0  0  0  0  0  0  0  0
    6.8190    0.6757    0.1065 N   0  0  0  0  0  0  0  0  0  0  0  0
   -4.3738    1.3312   -0.8435 H   0  0  0  0  0  0  0  0  0  0  0  0
   -3.4495    2.5688    1.1411 H   0  0  0  0  0  0  0  0  0  0  0  0
   -1.1074    2.1076    1.9549 H   0  0  0  0  0  0  0  0  0  0  0  0
  1  2  2  0  0  0  0
  1  6  1  0  0  0  0
  2  3  1  0  0  0  0
  3  4  2  0  0  0  0
  4 13  1  0  0  0  0
  5  4  1  0  0  0  0
  5 12  1  0  0  0  0
  6  5  2  0  0  0  0
  7  1  1  0  0  0  0
  8  2  1  0  0  0  0
 10  9  3  0  0  0  0
 11  6  1  0  0  0  0
M  RAD  1   3   2
M  END
