Coordinates from ORCA-job Ph-N2+-B3LYPG-6-31G_dp-MTMO-d009-169-n800
 OpenBabel09051908203D

 13 12  0  0  0  0  0  0  0  0999 V2000
   -2.4917    0.1441   -1.1355 C   0  0  0  0  0  0  0  0  0  0  0  0
   -1.0908   -0.0460   -0.8858 C   0  0  0  0  0  0  0  0  0  0  0  0
   -0.8319    0.7754    0.1234 C   0  0  0  0  0  0  0  0  0  0  0  0
   -1.2970    1.6761    0.9794 C   0  0  0  0  0  0  0  0  0  0  0  0
   -2.6883    1.7869    0.6435 C   0  0  0  0  0  0  0  0  0  0  0  0
   -3.2573    1.0378   -0.3866 C   0  0  0  0  0  0  0  0  0  0  0  0
   -2.9095   -0.4517   -1.9440 H   0  0  0  0  0  0  0  0  0  0  0  0
   -0.4532   -0.7247   -1.4392 H   0  0  0  0  0  0  0  0  0  0  0  0
    4.8314    0.6416    0.2350 N   0  0  0  0  0  0  0  0  0  0  0  0
    5.9364    0.6411    0.2543 N   0  0  0  0  0  0  0  0  0  0  0  0
   -4.3126    1.1530   -0.6097 H   0  0  0  0  0  0  0  0  0  0  0  0
   -3.2617    2.4899    1.2435 H   0  0  0  0  0  0  0  0  0  0  0  0
   -0.8076    2.2343    1.7683 H   0  0  0  0  0  0  0  0  0  0  0  0
  1  2  2  0  0  0  0
  1  6  1  0  0  0  0
  2  3  1  0  0  0  0
  3  4  2  0  0  0  0
  4 13  1  0  0  0  0
  5  4  1  0  0  0  0
  5 12  1  0  0  0  0
  6  5  2  0  0  0  0
  7  1  1  0  0  0  0
  8  2  1  0  0  0  0
  9 10  3  0  0  0  0
 11  6  1  0  0  0  0
M  RAD  1   3   2
M  END
