Coordinates from ORCA-job Ph-N2+-B3LYPG-6-31G_dp-MTMO-d009-169-n800
 OpenBabel09051908213D

 13 12  0  0  0  0  0  0  0  0999 V2000
   -3.1940    0.2373   -1.2001 C   0  0  0  0  0  0  0  0  0  0  0  0
   -2.6589   -0.6912   -0.2445 C   0  0  0  0  0  0  0  0  0  0  0  0
   -2.6382   -0.0047    0.8908 C   0  0  0  0  0  0  0  0  0  0  0  0
   -2.8922    1.1413    1.5094 C   0  0  0  0  0  0  0  0  0  0  0  0
   -3.4163    1.9852    0.4726 C   0  0  0  0  0  0  0  0  0  0  0  0
   -3.5579    1.5349   -0.8401 C   0  0  0  0  0  0  0  0  0  0  0  0
   -3.2941   -0.1399   -2.2153 H   0  0  0  0  0  0  0  0  0  0  0  0
   -2.3602   -1.7066   -0.4741 H   0  0  0  0  0  0  0  0  0  0  0  0
   10.3436    1.1628   -0.3726 N   0  0  0  0  0  0  0  0  0  0  0  0
   11.4476    1.2002   -0.4087 N   0  0  0  0  0  0  0  0  0  0  0  0
   -3.9574    2.2051   -1.5936 H   0  0  0  0  0  0  0  0  0  0  0  0
   -3.6933    2.9904    0.7813 H   0  0  0  0  0  0  0  0  0  0  0  0
   -2.7626    1.4431    2.5417 H   0  0  0  0  0  0  0  0  0  0  0  0
  1  6  2  0  0  0  0
  1  2  1  0  0  0  0
  2  3  2  0  0  0  0
  3  4  1  0  0  0  0
  4 13  1  0  0  0  0
  5 12  1  0  0  0  0
  5  4  2  0  0  0  0
  6  5  1  0  0  0  0
  7  1  1  0  0  0  0
  8  2  1  0  0  0  0
 10  9  3  0  0  0  0
 11  6  1  0  0  0  0
M  RAD  1   3   2
M  END
