Coordinates from ORCA-job Ph-N2+-B3LYPG-6-31G_dp-MTMO-d009-169-n800
 OpenBabel09051908203D

 13 12  0  0  0  0  0  0  0  0999 V2000
   -2.3742    0.1276   -1.1215 C   0  0  0  0  0  0  0  0  0  0  0  0
   -0.9576   -0.0219   -0.9444 C   0  0  0  0  0  0  0  0  0  0  0  0
   -0.6698    0.8093    0.0488 C   0  0  0  0  0  0  0  0  0  0  0  0
   -1.1154    1.6988    0.9267 C   0  0  0  0  0  0  0  0  0  0  0  0
   -2.5247    1.7694    0.6632 C   0  0  0  0  0  0  0  0  0  0  0  0
   -3.1249    1.0016   -0.3350 C   0  0  0  0  0  0  0  0  0  0  0  0
   -2.8166   -0.4819   -1.9063 H   0  0  0  0  0  0  0  0  0  0  0  0
   -0.3299   -0.6837   -1.5289 H   0  0  0  0  0  0  0  0  0  0  0  0
    4.0279    0.6664    0.2621 N   0  0  0  0  0  0  0  0  0  0  0  0
    5.1322    0.6556    0.3059 N   0  0  0  0  0  0  0  0  0  0  0  0
   -4.1933    1.0863   -0.5031 H   0  0  0  0  0  0  0  0  0  0  0  0
   -3.0862    2.4576    1.2911 H   0  0  0  0  0  0  0  0  0  0  0  0
   -0.6013    2.2725    1.6883 H   0  0  0  0  0  0  0  0  0  0  0  0
  1  2  2  0  0  0  0
  1  6  1  0  0  0  0
  2  3  1  0  0  0  0
  3  4  2  0  0  0  0
  4 13  1  0  0  0  0
  5  4  1  0  0  0  0
  5 12  1  0  0  0  0
  6  5  2  0  0  0  0
  7  1  1  0  0  0  0
  8  2  1  0  0  0  0
  9 10  3  0  0  0  0
 11  6  1  0  0  0  0
M  RAD  1   3   2
M  END
