Coordinates from ORCA-job Ph-N2+-B3LYPG-6-31G_dp-MTMO-d009-169-n800
 OpenBabel09051908213D

 13 12  0  0  0  0  0  0  0  0999 V2000
   -3.1748    0.2108   -1.1864 C   0  0  0  0  0  0  0  0  0  0  0  0
   -2.3003   -0.5864   -0.3733 C   0  0  0  0  0  0  0  0  0  0  0  0
   -2.1404    0.1361    0.7279 C   0  0  0  0  0  0  0  0  0  0  0  0
   -2.4283    1.2530    1.3838 C   0  0  0  0  0  0  0  0  0  0  0  0
   -3.2966    1.9653    0.4896 C   0  0  0  0  0  0  0  0  0  0  0  0
   -3.6520    1.4489   -0.7565 C   0  0  0  0  0  0  0  0  0  0  0  0
   -3.4355   -0.2150   -2.1524 H   0  0  0  0  0  0  0  0  0  0  0  0
   -1.9027   -1.5517   -0.6616 H   0  0  0  0  0  0  0  0  0  0  0  0
    9.3394    1.0488   -0.1998 N   0  0  0  0  0  0  0  0  0  0  0  0
   10.4435    1.0900   -0.2307 N   0  0  0  0  0  0  0  0  0  0  0  0
   -4.3100    2.0203   -1.4025 H   0  0  0  0  0  0  0  0  0  0  0  0
   -3.6536    2.9273    0.8494 H   0  0  0  0  0  0  0  0  0  0  0  0
   -2.1223    1.6102    2.3593 H   0  0  0  0  0  0  0  0  0  0  0  0
  1  6  2  0  0  0  0
  1  2  1  0  0  0  0
  2  3  2  0  0  0  0
  3  4  1  0  0  0  0
  4 13  1  0  0  0  0
  5 12  1  0  0  0  0
  5  4  2  0  0  0  0
  6  5  1  0  0  0  0
  7  1  1  0  0  0  0
  8  2  1  0  0  0  0
 10  9  3  0  0  0  0
 11  6  1  0  0  0  0
M  RAD  1   3   2
M  END
