Coordinates from ORCA-job Ph-N2+-B3LYPG-6-31G_dp-MTMO-d009-169-n800
 OpenBabel09051908203D

 13 12  0  0  0  0  0  0  0  0999 V2000
   -2.7903    0.2136   -1.1823 C   0  0  0  0  0  0  0  0  0  0  0  0
   -1.7098   -0.4054   -0.4679 C   0  0  0  0  0  0  0  0  0  0  0  0
   -1.5831    0.3360    0.6252 C   0  0  0  0  0  0  0  0  0  0  0  0
   -2.0135    1.3771    1.3262 C   0  0  0  0  0  0  0  0  0  0  0  0
   -3.0799    1.9137    0.5286 C   0  0  0  0  0  0  0  0  0  0  0  0
   -3.4483    1.3398   -0.6881 C   0  0  0  0  0  0  0  0  0  0  0  0
   -3.0567   -0.2538   -2.1273 H   0  0  0  0  0  0  0  0  0  0  0  0
   -1.1693   -1.2804   -0.8075 H   0  0  0  0  0  0  0  0  0  0  0  0
    7.3192    0.8576   -0.1370 N   0  0  0  0  0  0  0  0  0  0  0  0
    8.4227    0.9061   -0.1764 N   0  0  0  0  0  0  0  0  0  0  0  0
   -4.2603    1.7766   -1.2592 H   0  0  0  0  0  0  0  0  0  0  0  0
   -3.5744    2.7920    0.9367 H   0  0  0  0  0  0  0  0  0  0  0  0
   -1.6899    1.7849    2.2758 H   0  0  0  0  0  0  0  0  0  0  0  0
  1  6  2  0  0  0  0
  1  2  1  0  0  0  0
  2  3  2  0  0  0  0
  3  4  1  0  0  0  0
  4 13  1  0  0  0  0
  5 12  1  0  0  0  0
  5  4  2  0  0  0  0
  6  5  1  0  0  0  0
  7  1  1  0  0  0  0
  8  2  1  0  0  0  0
 10  9  3  0  0  0  0
 11  6  1  0  0  0  0
M  RAD  1   3   2
M  END
