Coordinates from ORCA-job Ph-N2+-B3LYPG-6-31G_dp-MTMO-d009-169-n800
 OpenBabel09051908203D

 13 12  0  0  0  0  0  0  0  0999 V2000
   -2.4917    0.2071   -1.1773 C   0  0  0  0  0  0  0  0  0  0  0  0
   -1.2948   -0.2801   -0.5521 C   0  0  0  0  0  0  0  0  0  0  0  0
   -1.1688    0.4767    0.5304 C   0  0  0  0  0  0  0  0  0  0  0  0
   -1.6591    1.4658    1.2665 C   0  0  0  0  0  0  0  0  0  0  0  0
   -2.8393    1.8721    0.5572 C   0  0  0  0  0  0  0  0  0  0  0  0
   -3.2337    1.2533   -0.6290 C   0  0  0  0  0  0  0  0  0  0  0  0
   -2.7762   -0.2931   -2.1000 H   0  0  0  0  0  0  0  0  0  0  0  0
   -0.6852   -1.0892   -0.9360 H   0  0  0  0  0  0  0  0  0  0  0  0
    5.6269    0.7320   -0.0753 N   0  0  0  0  0  0  0  0  0  0  0  0
    6.7286    0.8169   -0.0992 N   0  0  0  0  0  0  0  0  0  0  0  0
   -4.1325    1.5913   -1.1328 H   0  0  0  0  0  0  0  0  0  0  0  0
   -3.3976    2.6906    1.0058 H   0  0  0  0  0  0  0  0  0  0  0  0
   -1.3101    1.9141    2.1885 H   0  0  0  0  0  0  0  0  0  0  0  0
  1  6  2  0  0  0  0
  1  2  1  0  0  0  0
  2  3  2  0  0  0  0
  3  4  1  0  0  0  0
  4 13  1  0  0  0  0
  5 12  1  0  0  0  0
  5  4  2  0  0  0  0
  6  5  1  0  0  0  0
  7  1  1  0  0  0  0
  8  2  1  0  0  0  0
 10  9  3  0  0  0  0
 11  6  1  0  0  0  0
M  RAD  1   3   2
M  END
