Coordinates from ORCA-job Ph-N2+-B3LYPG-6-31G_dp-MTMO-d009-169-n800
 OpenBabel09051908203D

 13 12  0  0  0  0  0  0  0  0999 V2000
   -2.5846    0.1703   -1.1563 C   0  0  0  0  0  0  0  0  0  0  0  0
   -1.2302   -0.1151   -0.7758 C   0  0  0  0  0  0  0  0  0  0  0  0
   -1.0144    0.6834    0.2615 C   0  0  0  0  0  0  0  0  0  0  0  0
   -1.4982    1.6104    1.0783 C   0  0  0  0  0  0  0  0  0  0  0  0
   -2.8403    1.8158    0.6125 C   0  0  0  0  0  0  0  0  0  0  0  0
   -3.3570    1.1107   -0.4746 C   0  0  0  0  0  0  0  0  0  0  0  0
   -2.9618   -0.3930   -2.0068 H   0  0  0  0  0  0  0  0  0  0  0  0
   -0.5896   -0.8339   -1.2725 H   0  0  0  0  0  0  0  0  0  0  0  0
    5.5919    0.6554    0.1576 N   0  0  0  0  0  0  0  0  0  0  0  0
    6.6969    0.6697    0.1416 N   0  0  0  0  0  0  0  0  0  0  0  0
   -4.3759    1.2974   -0.7955 H   0  0  0  0  0  0  0  0  0  0  0  0
   -3.4199    2.5543    1.1618 H   0  0  0  0  0  0  0  0  0  0  0  0
   -1.0504    2.1322    1.9152 H   0  0  0  0  0  0  0  0  0  0  0  0
  1  2  2  0  0  0  0
  1  6  1  0  0  0  0
  2  3  1  0  0  0  0
  3  4  2  0  0  0  0
  4 13  1  0  0  0  0
  5  4  1  0  0  0  0
  5 12  1  0  0  0  0
  6  5  2  0  0  0  0
  7  1  1  0  0  0  0
  8  2  1  0  0  0  0
 10  9  3  0  0  0  0
 11  6  1  0  0  0  0
M  RAD  1   3   2
M  END
