Coordinates from ORCA-job Ph-N2+-B3LYPG-6-31G_dp-MTMO-d009-169-n800
 OpenBabel09051908203D

 13 12  0  0  0  0  0  0  0  0999 V2000
   -2.1178    0.1052   -1.0954 C   0  0  0  0  0  0  0  0  0  0  0  0
   -0.6933   -0.0018   -0.9972 C   0  0  0  0  0  0  0  0  0  0  0  0
   -0.3573    0.8380   -0.0224 C   0  0  0  0  0  0  0  0  0  0  0  0
   -0.7940    1.7157    0.8762 C   0  0  0  0  0  0  0  0  0  0  0  0
   -2.2141    1.7466    0.6949 C   0  0  0  0  0  0  0  0  0  0  0  0
   -2.8476    0.9593   -0.2676 C   0  0  0  0  0  0  0  0  0  0  0  0
   -2.5906   -0.5167   -1.8518 H   0  0  0  0  0  0  0  0  0  0  0  0
   -0.0807   -0.6464   -1.6145 H   0  0  0  0  0  0  0  0  0  0  0  0
    2.4520    0.7280    0.2267 N   0  0  0  0  0  0  0  0  0  0  0  0
    3.5524    0.6939    0.3157 N   0  0  0  0  0  0  0  0  0  0  0  0
   -3.9259    1.0128   -0.3747 H   0  0  0  0  0  0  0  0  0  0  0  0
   -2.7628    2.4183    1.3507 H   0  0  0  0  0  0  0  0  0  0  0  0
   -0.2539    2.3049    1.6062 H   0  0  0  0  0  0  0  0  0  0  0  0
  1  2  2  0  0  0  0
  1  6  1  0  0  0  0
  2  3  1  0  0  0  0
  3  4  2  0  0  0  0
  4 13  1  0  0  0  0
  5  4  1  0  0  0  0
  5 12  1  0  0  0  0
  6  5  2  0  0  0  0
  7  1  1  0  0  0  0
  8  2  1  0  0  0  0
  9 10  3  0  0  0  0
 11  6  1  0  0  0  0
M  RAD  1   3   2
M  END
