Coordinates from ORCA-job Ph-N2+-B3LYPG-6-31G_dp-MTMO-d009-169-n800
 OpenBabel09051908203D

 13 12  0  0  0  0  0  0  0  0999 V2000
   -2.4961    0.2075   -1.1774 C   0  0  0  0  0  0  0  0  0  0  0  0
   -1.3013   -0.2815   -0.5498 C   0  0  0  0  0  0  0  0  0  0  0  0
   -1.1773    0.4736    0.5342 C   0  0  0  0  0  0  0  0  0  0  0  0
   -1.6669    1.4644    1.2684 C   0  0  0  0  0  0  0  0  0  0  0  0
   -2.8448    1.8726    0.5568 C   0  0  0  0  0  0  0  0  0  0  0  0
   -3.2377    1.2548   -0.6305 C   0  0  0  0  0  0  0  0  0  0  0  0
   -2.7794   -0.2917   -2.1010 H   0  0  0  0  0  0  0  0  0  0  0  0
   -0.6917   -1.0909   -0.9329 H   0  0  0  0  0  0  0  0  0  0  0  0
    5.6579    0.7327   -0.0779 N   0  0  0  0  0  0  0  0  0  0  0  0
    6.7596    0.8177   -0.1020 N   0  0  0  0  0  0  0  0  0  0  0  0
   -4.1346    1.5945   -1.1365 H   0  0  0  0  0  0  0  0  0  0  0  0
   -3.4028    2.6919    1.0043 H   0  0  0  0  0  0  0  0  0  0  0  0
   -1.3187    1.9123    2.1909 H   0  0  0  0  0  0  0  0  0  0  0  0
  1  6  2  0  0  0  0
  1  2  1  0  0  0  0
  2  3  2  0  0  0  0
  3  4  1  0  0  0  0
  4 13  1  0  0  0  0
  5 12  1  0  0  0  0
  5  4  2  0  0  0  0
  6  5  1  0  0  0  0
  7  1  1  0  0  0  0
  8  2  1  0  0  0  0
 10  9  3  0  0  0  0
 11  6  1  0  0  0  0
M  RAD  1   3   2
M  END
