Coordinates from ORCA-job Ph-N2+-B3LYPG-6-31G_dp-MTMO-d009-169-n800
 OpenBabel09051908213D

 13 12  0  0  0  0  0  0  0  0999 V2000
   -2.8019    0.3897   -1.0481 C   0  0  0  0  0  0  0  0  0  0  0  0
   -2.6837   -0.6089   -0.0231 C   0  0  0  0  0  0  0  0  0  0  0  0
   -3.2689   -0.0556    1.0314 C   0  0  0  0  0  0  0  0  0  0  0  0
   -3.9006    0.9965    1.5359 C   0  0  0  0  0  0  0  0  0  0  0  0
   -3.9633    1.9206    0.4387 C   0  0  0  0  0  0  0  0  0  0  0  0
   -3.4261    1.6146   -0.8119 C   0  0  0  0  0  0  0  0  0  0  0  0
   -2.3760    0.1244   -2.0130 H   0  0  0  0  0  0  0  0  0  0  0  0
   -2.2130   -1.5752   -0.1564 H   0  0  0  0  0  0  0  0  0  0  0  0
   11.5707    1.0651   -0.8279 N   0  0  0  0  0  0  0  0  0  0  0  0
   12.6757    1.0887   -0.8407 N   0  0  0  0  0  0  0  0  0  0  0  0
   -3.4950    2.3414   -1.6142 H   0  0  0  0  0  0  0  0  0  0  0  0
   -4.4526    2.8683    0.6513 H   0  0  0  0  0  0  0  0  0  0  0  0
   -4.2990    1.1881    2.5246 H   0  0  0  0  0  0  0  0  0  0  0  0
  1  6  2  0  0  0  0
  1  2  1  0  0  0  0
  2  3  2  0  0  0  0
  3  4  1  0  0  0  0
  4 13  1  0  0  0  0
  5 12  1  0  0  0  0
  5  4  2  0  0  0  0
  6  5  1  0  0  0  0
  7  1  1  0  0  0  0
  8  2  1  0  0  0  0
 10  9  3  0  0  0  0
 11  6  1  0  0  0  0
M  RAD  1   3   2
M  END
