Coordinates from ORCA-job Ph-N2+-B3LYPG-6-31G_dp-MTMO-d009-169-n800
 OpenBabel09051908213D

 13 12  0  0  0  0  0  0  0  0999 V2000
   -3.1962    0.2244   -1.1970 C   0  0  0  0  0  0  0  0  0  0  0  0
   -2.4994   -0.6541   -0.3003 C   0  0  0  0  0  0  0  0  0  0  0  0
   -2.3971    0.0485    0.8207 C   0  0  0  0  0  0  0  0  0  0  0  0
   -2.6503    1.1868    1.4536 C   0  0  0  0  0  0  0  0  0  0  0  0
   -3.3400    1.9804    0.4758 C   0  0  0  0  0  0  0  0  0  0  0  0
   -3.5990    1.5021   -0.8088 C   0  0  0  0  0  0  0  0  0  0  0  0
   -3.3852   -0.1735   -2.1913 H   0  0  0  0  0  0  0  0  0  0  0  0
   -2.1643   -1.6523   -0.5538 H   0  0  0  0  0  0  0  0  0  0  0  0
    9.8411    1.1174   -0.2830 N   0  0  0  0  0  0  0  0  0  0  0  0
   10.9450    1.1594   -0.3176 N   0  0  0  0  0  0  0  0  0  0  0  0
   -4.1214    2.1350   -1.5181 H   0  0  0  0  0  0  0  0  0  0  0  0
   -3.6430    2.9714    0.8051 H   0  0  0  0  0  0  0  0  0  0  0  0
   -2.4240    1.5122    2.4615 H   0  0  0  0  0  0  0  0  0  0  0  0
  1  6  2  0  0  0  0
  1  2  1  0  0  0  0
  2  3  2  0  0  0  0
  3  4  1  0  0  0  0
  4 13  1  0  0  0  0
  5 12  1  0  0  0  0
  5  4  2  0  0  0  0
  6  5  1  0  0  0  0
  7  1  1  0  0  0  0
  8  2  1  0  0  0  0
 10  9  3  0  0  0  0
 11  6  1  0  0  0  0
M  RAD  1   3   2
M  END
