Coordinates from ORCA-job Ph-N2+-B3LYPG-6-31G_dp-MTMO-d009-169-n800
 OpenBabel09051908213D

 13 12  0  0  0  0  0  0  0  0999 V2000
   -3.0051    0.3912   -1.0302 C   0  0  0  0  0  0  0  0  0  0  0  0
   -2.8917   -0.6083   -0.0055 C   0  0  0  0  0  0  0  0  0  0  0  0
   -3.4890   -0.0593    1.0444 C   0  0  0  0  0  0  0  0  0  0  0  0
   -4.1300    0.9893    1.5446 C   0  0  0  0  0  0  0  0  0  0  0  0
   -4.1870    1.9146    0.4482 C   0  0  0  0  0  0  0  0  0  0  0  0
   -3.6370    1.6129   -0.7979 C   0  0  0  0  0  0  0  0  0  0  0  0
   -2.5694    0.1293   -1.9915 H   0  0  0  0  0  0  0  0  0  0  0  0
   -2.4155   -1.5724   -0.1359 H   0  0  0  0  0  0  0  0  0  0  0  0
   12.7544    1.0804   -0.9035 N   0  0  0  0  0  0  0  0  0  0  0  0
   13.8594    1.1020   -0.9137 N   0  0  0  0  0  0  0  0  0  0  0  0
   -3.7019    2.3406   -1.5998 H   0  0  0  0  0  0  0  0  0  0  0  0
   -4.6825    2.8598    0.6577 H   0  0  0  0  0  0  0  0  0  0  0  0
   -4.5382    1.1776    2.5299 H   0  0  0  0  0  0  0  0  0  0  0  0
  1  6  2  0  0  0  0
  1  2  1  0  0  0  0
  2  3  2  0  0  0  0
  3  4  1  0  0  0  0
  4 13  1  0  0  0  0
  5 12  1  0  0  0  0
  5  4  2  0  0  0  0
  6  5  1  0  0  0  0
  7  1  1  0  0  0  0
  8  2  1  0  0  0  0
 10  9  3  0  0  0  0
 11  6  1  0  0  0  0
M  RAD  1   3   2
M  END
