Coordinates from ORCA-job Ph-N2+-B3LYPG-6-31G_dp-MTMO-d009-169-n800
 OpenBabel09051908213D

 13 12  0  0  0  0  0  0  0  0999 V2000
   -3.1613    0.2526   -1.1952 C   0  0  0  0  0  0  0  0  0  0  0  0
   -2.7211   -0.6937   -0.2094 C   0  0  0  0  0  0  0  0  0  0  0  0
   -2.7941   -0.0224    0.9328 C   0  0  0  0  0  0  0  0  0  0  0  0
   -3.0902    1.1183    1.5423 C   0  0  0  0  0  0  0  0  0  0  0  0
   -3.5131    1.9811    0.4753 C   0  0  0  0  0  0  0  0  0  0  0  0
   -3.5432    1.5493   -0.8509 C   0  0  0  0  0  0  0  0  0  0  0  0
   -3.1749   -0.1105   -2.2205 H   0  0  0  0  0  0  0  0  0  0  0  0
   -2.4128   -1.7091   -0.4260 H   0  0  0  0  0  0  0  0  0  0  0  0
   10.6991    1.1690   -0.4476 N   0  0  0  0  0  0  0  0  0  0  0  0
   11.8033    1.1994   -0.4854 N   0  0  0  0  0  0  0  0  0  0  0  0
   -3.8688    2.2332   -1.6270 H   0  0  0  0  0  0  0  0  0  0  0  0
   -3.8067    2.9851    0.7724 H   0  0  0  0  0  0  0  0  0  0  0  0
   -3.0498    1.4052    2.5861 H   0  0  0  0  0  0  0  0  0  0  0  0
  1  6  2  0  0  0  0
  1  2  1  0  0  0  0
  2  3  2  0  0  0  0
  3  4  1  0  0  0  0
  4 13  1  0  0  0  0
  5 12  1  0  0  0  0
  5  4  2  0  0  0  0
  6  5  1  0  0  0  0
  7  1  1  0  0  0  0
  8  2  1  0  0  0  0
 10  9  3  0  0  0  0
 11  6  1  0  0  0  0
M  RAD  1   3   2
M  END
