Coordinates from ORCA-job Ph-N2+-B3LYPG-6-31G_dp-MTMO-d009-169-n800
 OpenBabel09051908203D

 13 12  0  0  0  0  0  0  0  0999 V2000
   -2.0853    0.1035   -1.0924 C   0  0  0  0  0  0  0  0  0  0  0  0
   -0.6628   -0.0001   -0.9958 C   0  0  0  0  0  0  0  0  0  0  0  0
   -0.3138    0.8391   -0.0213 C   0  0  0  0  0  0  0  0  0  0  0  0
   -0.7633    1.7159    0.8760 C   0  0  0  0  0  0  0  0  0  0  0  0
   -2.1815    1.7451    0.6982 C   0  0  0  0  0  0  0  0  0  0  0  0
   -2.8151    0.9564   -0.2632 C   0  0  0  0  0  0  0  0  0  0  0  0
   -2.5607   -0.5182   -1.8471 H   0  0  0  0  0  0  0  0  0  0  0  0
   -0.0516   -0.6441   -1.6146 H   0  0  0  0  0  0  0  0  0  0  0  0
    2.2756    0.7339    0.2123 N   0  0  0  0  0  0  0  0  0  0  0  0
    3.3756    0.6967    0.3042 N   0  0  0  0  0  0  0  0  0  0  0  0
   -3.8937    1.0080   -0.3684 H   0  0  0  0  0  0  0  0  0  0  0  0
   -2.7326    2.4150    1.3536 H   0  0  0  0  0  0  0  0  0  0  0  0
   -0.2245    2.3066    1.6054 H   0  0  0  0  0  0  0  0  0  0  0  0
  1  2  2  0  0  0  0
  1  6  1  0  0  0  0
  2  3  1  0  0  0  0
  3  4  2  0  0  0  0
  4 13  1  0  0  0  0
  5  4  1  0  0  0  0
  5 12  1  0  0  0  0
  6  5  2  0  0  0  0
  7  1  1  0  0  0  0
  8  2  1  0  0  0  0
  9 10  3  0  0  0  0
 11  6  1  0  0  0  0
M  RAD  1   3   2
M  END
