Coordinates from ORCA-job Ph-N2+-B3LYPG-6-31G_dp-MTMO-d009-169-n800
 OpenBabel09051908203D

 13 12  0  0  0  0  0  0  0  0999 V2000
   -3.1307    0.2076   -1.1833 C   0  0  0  0  0  0  0  0  0  0  0  0
   -2.2116   -0.5633   -0.3947 C   0  0  0  0  0  0  0  0  0  0  0  0
   -2.0412    0.1651    0.7012 C   0  0  0  0  0  0  0  0  0  0  0  0
   -2.3423    1.2740    1.3644 C   0  0  0  0  0  0  0  0  0  0  0  0
   -3.2553    1.9602    0.4946 C   0  0  0  0  0  0  0  0  0  0  0  0
   -3.6308    1.4323   -0.7408 C   0  0  0  0  0  0  0  0  0  0  0  0
   -3.4061   -0.2265   -2.1415 H   0  0  0  0  0  0  0  0  0  0  0  0
   -1.7949   -1.5173   -0.6933 H   0  0  0  0  0  0  0  0  0  0  0  0
    9.0236    1.0231   -0.1781 N   0  0  0  0  0  0  0  0  0  0  0  0
   10.1276    1.0659   -0.2085 N   0  0  0  0  0  0  0  0  0  0  0  0
   -4.3228    1.9838   -1.3681 H   0  0  0  0  0  0  0  0  0  0  0  0
   -3.6292    2.9121    0.8638 H   0  0  0  0  0  0  0  0  0  0  0  0
   -2.0198    1.6408    2.3310 H   0  0  0  0  0  0  0  0  0  0  0  0
  1  6  2  0  0  0  0
  1  2  1  0  0  0  0
  2  3  2  0  0  0  0
  3  4  1  0  0  0  0
  4 13  1  0  0  0  0
  5 12  1  0  0  0  0
  5  4  2  0  0  0  0
  6  5  1  0  0  0  0
  7  1  1  0  0  0  0
  8  2  1  0  0  0  0
 10  9  3  0  0  0  0
 11  6  1  0  0  0  0
M  RAD  1   3   2
M  END
