Coordinates from ORCA-job Ph-N2+-B3LYPG-6-31G_dp-MTMO-d009-169-n800
 OpenBabel09051908203D

 13 12  0  0  0  0  0  0  0  0999 V2000
   -2.7930    0.2136   -1.1823 C   0  0  0  0  0  0  0  0  0  0  0  0
   -1.7132   -0.4060   -0.4674 C   0  0  0  0  0  0  0  0  0  0  0  0
   -1.5875    0.3344    0.6265 C   0  0  0  0  0  0  0  0  0  0  0  0
   -2.0168    1.3766    1.3265 C   0  0  0  0  0  0  0  0  0  0  0  0
   -3.0825    1.9137    0.5286 C   0  0  0  0  0  0  0  0  0  0  0  0
   -3.4506    1.3402   -0.6884 C   0  0  0  0  0  0  0  0  0  0  0  0
   -3.0594   -0.2534   -2.1275 H   0  0  0  0  0  0  0  0  0  0  0  0
   -1.1725   -1.2809   -0.8070 H   0  0  0  0  0  0  0  0  0  0  0  0
    7.3347    0.8583   -0.1374 N   0  0  0  0  0  0  0  0  0  0  0  0
    8.4381    0.9065   -0.1769 N   0  0  0  0  0  0  0  0  0  0  0  0
   -4.2619    1.7776   -1.2600 H   0  0  0  0  0  0  0  0  0  0  0  0
   -3.5765    2.7924    0.9363 H   0  0  0  0  0  0  0  0  0  0  0  0
   -1.6927    1.7847    2.2759 H   0  0  0  0  0  0  0  0  0  0  0  0
  1  6  2  0  0  0  0
  1  2  1  0  0  0  0
  2  3  2  0  0  0  0
  3  4  1  0  0  0  0
  4 13  1  0  0  0  0
  5 12  1  0  0  0  0
  5  4  2  0  0  0  0
  6  5  1  0  0  0  0
  7  1  1  0  0  0  0
  8  2  1  0  0  0  0
 10  9  3  0  0  0  0
 11  6  1  0  0  0  0
M  RAD  1   3   2
M  END
