Coordinates from ORCA-job Ph-N2+-B3LYPG-6-31G_dp-MTMO-d009-169-n800
 OpenBabel09051908203D

 13 12  0  0  0  0  0  0  0  0999 V2000
   -2.7251    0.2133   -1.1816 C   0  0  0  0  0  0  0  0  0  0  0  0
   -1.6206   -0.3798   -0.4822 C   0  0  0  0  0  0  0  0  0  0  0  0
   -1.4984    0.3626    0.6108 C   0  0  0  0  0  0  0  0  0  0  0  0
   -1.9429    1.3942    1.3169 C   0  0  0  0  0  0  0  0  0  0  0  0
   -3.0324    1.9052    0.5342 C   0  0  0  0  0  0  0  0  0  0  0  0
   -3.4032    1.3233   -0.6780 C   0  0  0  0  0  0  0  0  0  0  0  0
   -2.9930   -0.2598   -2.1233 H   0  0  0  0  0  0  0  0  0  0  0  0
   -1.0633   -1.2411   -0.8298 H   0  0  0  0  0  0  0  0  0  0  0  0
    6.9662    0.8299   -0.1277 N   0  0  0  0  0  0  0  0  0  0  0  0
    8.0693    0.8871   -0.1653 N   0  0  0  0  0  0  0  0  0  0  0  0
   -4.2326    1.7411   -1.2381 H   0  0  0  0  0  0  0  0  0  0  0  0
   -3.5421    2.7716    0.9493 H   0  0  0  0  0  0  0  0  0  0  0  0
   -1.6156    1.8101    2.2617 H   0  0  0  0  0  0  0  0  0  0  0  0
  1  6  2  0  0  0  0
  1  2  1  0  0  0  0
  2  3  2  0  0  0  0
  3  4  1  0  0  0  0
  4 13  1  0  0  0  0
  5 12  1  0  0  0  0
  5  4  2  0  0  0  0
  6  5  1  0  0  0  0
  7  1  1  0  0  0  0
  8  2  1  0  0  0  0
 10  9  3  0  0  0  0
 11  6  1  0  0  0  0
M  RAD  1   3   2
M  END
