Coordinates from ORCA-job Ph-N2+-B3LYPG-6-31G_dp-MTMO-d009-169-n800
 OpenBabel09051908203D

 13 12  0  0  0  0  0  0  0  0999 V2000
   -2.5471    0.1552   -1.1450 C   0  0  0  0  0  0  0  0  0  0  0  0
   -1.1630   -0.0754   -0.8422 C   0  0  0  0  0  0  0  0  0  0  0  0
   -0.9196    0.7365    0.1785 C   0  0  0  0  0  0  0  0  0  0  0  0
   -1.3915    1.6486    1.0186 C   0  0  0  0  0  0  0  0  0  0  0  0
   -2.7651    1.7996    0.6300 C   0  0  0  0  0  0  0  0  0  0  0  0
   -3.3153    1.0690   -0.4234 C   0  0  0  0  0  0  0  0  0  0  0  0
   -2.9503   -0.4269   -1.9706 H   0  0  0  0  0  0  0  0  0  0  0  0
   -0.5243   -0.7713   -1.3726 H   0  0  0  0  0  0  0  0  0  0  0  0
    5.2262    0.6461    0.2097 N   0  0  0  0  0  0  0  0  0  0  0  0
    6.3314    0.6525    0.2135 N   0  0  0  0  0  0  0  0  0  0  0  0
   -4.3574    1.2146   -0.6863 H   0  0  0  0  0  0  0  0  0  0  0  0
   -3.3407    2.5178    1.2095 H   0  0  0  0  0  0  0  0  0  0  0  0
   -0.9171    2.1915    1.8271 H   0  0  0  0  0  0  0  0  0  0  0  0
  1  2  2  0  0  0  0
  1  6  1  0  0  0  0
  2  3  1  0  0  0  0
  3  4  2  0  0  0  0
  4 13  1  0  0  0  0
  5  4  1  0  0  0  0
  5 12  1  0  0  0  0
  6  5  2  0  0  0  0
  7  1  1  0  0  0  0
  8  2  1  0  0  0  0
  9 10  3  0  0  0  0
 11  6  1  0  0  0  0
M  RAD  1   3   2
M  END
