Coordinates from ORCA-job Ph-N2+-B3LYPG-6-31G_dp-MTMO-d009-169-n800
 OpenBabel09051908203D

 13 12  0  0  0  0  0  0  0  0999 V2000
   -2.5897    0.2113   -1.1799 C   0  0  0  0  0  0  0  0  0  0  0  0
   -1.4391   -0.3300   -0.5138 C   0  0  0  0  0  0  0  0  0  0  0  0
   -1.3182    0.4186    0.5751 C   0  0  0  0  0  0  0  0  0  0  0  0
   -1.7887    1.4290    1.2950 C   0  0  0  0  0  0  0  0  0  0  0  0
   -2.9231    1.8889    0.5452 C   0  0  0  0  0  0  0  0  0  0  0  0
   -3.3026    1.2897   -0.6558 C   0  0  0  0  0  0  0  0  0  0  0  0
   -2.8636   -0.2744   -2.1134 H   0  0  0  0  0  0  0  0  0  0  0  0
   -0.8534   -1.1653   -0.8779 H   0  0  0  0  0  0  0  0  0  0  0  0
    6.2109    0.7736   -0.1081 N   0  0  0  0  0  0  0  0  0  0  0  0
    7.3127    0.8563   -0.1345 N   0  0  0  0  0  0  0  0  0  0  0  0
   -4.1666    1.6685   -1.1907 H   0  0  0  0  0  0  0  0  0  0  0  0
   -3.4594    2.7315    0.9756 H   0  0  0  0  0  0  0  0  0  0  0  0
   -1.4528    1.8602    2.2299 H   0  0  0  0  0  0  0  0  0  0  0  0
  1  6  2  0  0  0  0
  1  2  1  0  0  0  0
  2  3  2  0  0  0  0
  3  4  1  0  0  0  0
  4 13  1  0  0  0  0
  5 12  1  0  0  0  0
  5  4  2  0  0  0  0
  6  5  1  0  0  0  0
  7  1  1  0  0  0  0
  8  2  1  0  0  0  0
 10  9  3  0  0  0  0
 11  6  1  0  0  0  0
M  RAD  1   3   2
M  END
