Coordinates from ORCA-job Ph-N2+-B3LYPG-6-31G_dp-MTMO-d009-169-n800
 OpenBabel09051908203D

 13 12  0  0  0  0  0  0  0  0999 V2000
   -2.1983    0.1099   -1.1032 C   0  0  0  0  0  0  0  0  0  0  0  0
   -0.7726   -0.0070   -0.9962 C   0  0  0  0  0  0  0  0  0  0  0  0
   -0.4509    0.8319   -0.0192 C   0  0  0  0  0  0  0  0  0  0  0  0
   -0.8757    1.7122    0.8788 C   0  0  0  0  0  0  0  0  0  0  0  0
   -2.2967    1.7511    0.6864 C   0  0  0  0  0  0  0  0  0  0  0  0
   -2.9284    0.9681   -0.2804 C   0  0  0  0  0  0  0  0  0  0  0  0
   -2.6669   -0.5101   -1.8641 H   0  0  0  0  0  0  0  0  0  0  0  0
   -0.1587   -0.6551   -1.6094 H   0  0  0  0  0  0  0  0  0  0  0  0
    2.8988    0.7156    0.2568 N   0  0  0  0  0  0  0  0  0  0  0  0
    4.0003    0.6880    0.3394 N   0  0  0  0  0  0  0  0  0  0  0  0
   -4.0056    1.0283   -0.3949 H   0  0  0  0  0  0  0  0  0  0  0  0
   -2.8431    2.4270    1.3402 H   0  0  0  0  0  0  0  0  0  0  0  0
   -0.3358    2.2977    1.6127 H   0  0  0  0  0  0  0  0  0  0  0  0
  1  2  2  0  0  0  0
  1  6  1  0  0  0  0
  2  3  1  0  0  0  0
  3  4  2  0  0  0  0
  4 13  1  0  0  0  0
  5  4  1  0  0  0  0
  5 12  1  0  0  0  0
  6  5  2  0  0  0  0
  7  1  1  0  0  0  0
  8  2  1  0  0  0  0
  9 10  3  0  0  0  0
 11  6  1  0  0  0  0
M  RAD  1   3   2
M  END
