Coordinates from ORCA-job Ph-N2+-B3LYPG-6-31G_dp-MTMO-d009-169-n800
 OpenBabel09051908203D

 13 12  0  0  0  0  0  0  0  0999 V2000
   -2.8906    0.2127   -1.1828 C   0  0  0  0  0  0  0  0  0  0  0  0
   -1.8519   -0.4496   -0.4458 C   0  0  0  0  0  0  0  0  0  0  0  0
   -1.7169    0.2875    0.6492 C   0  0  0  0  0  0  0  0  0  0  0  0
   -2.1159    1.3483    1.3390 C   0  0  0  0  0  0  0  0  0  0  0  0
   -3.1424    1.9276    0.5193 C   0  0  0  0  0  0  0  0  0  0  0  0
   -3.5101    1.3670   -0.7038 C   0  0  0  0  0  0  0  0  0  0  0  0
   -3.1576   -0.2449   -2.1324 H   0  0  0  0  0  0  0  0  0  0  0  0
   -1.3414   -1.3469   -0.7735 H   0  0  0  0  0  0  0  0  0  0  0  0
    7.8409    0.9015   -0.1515 N   0  0  0  0  0  0  0  0  0  0  0  0
    8.9446    0.9465   -0.1887 N   0  0  0  0  0  0  0  0  0  0  0  0
   -4.2910    1.8366   -1.2921 H   0  0  0  0  0  0  0  0  0  0  0  0
   -3.6074    2.8270    0.9159 H   0  0  0  0  0  0  0  0  0  0  0  0
   -1.7940    1.7445    2.2941 H   0  0  0  0  0  0  0  0  0  0  0  0
  1  6  2  0  0  0  0
  1  2  1  0  0  0  0
  2  3  2  0  0  0  0
  3  4  1  0  0  0  0
  4 13  1  0  0  0  0
  5 12  1  0  0  0  0
  5  4  2  0  0  0  0
  6  5  1  0  0  0  0
  7  1  1  0  0  0  0
  8  2  1  0  0  0  0
 10  9  3  0  0  0  0
 11  6  1  0  0  0  0
M  RAD  1   3   2
M  END
