Coordinates from ORCA-job Ph-N2+-B3LYPG-6-31G_dp-MTMO-d009-169-n800
 OpenBabel09051908213D

 13 12  0  0  0  0  0  0  0  0999 V2000
   -2.7240    0.3853   -1.0549 C   0  0  0  0  0  0  0  0  0  0  0  0
   -2.6135   -0.6153   -0.0310 C   0  0  0  0  0  0  0  0  0  0  0  0
   -3.1913   -0.0574    1.0250 C   0  0  0  0  0  0  0  0  0  0  0  0
   -3.8117    1.0004    1.5318 C   0  0  0  0  0  0  0  0  0  0  0  0
   -3.8675    1.9260    0.4356 C   0  0  0  0  0  0  0  0  0  0  0  0
   -3.3358    1.6160   -0.8163 C   0  0  0  0  0  0  0  0  0  0  0  0
   -2.3026    0.1169   -2.0209 H   0  0  0  0  0  0  0  0  0  0  0  0
   -2.1523   -1.5860   -0.1661 H   0  0  0  0  0  0  0  0  0  0  0  0
   11.1063    1.0689   -0.7952 N   0  0  0  0  0  0  0  0  0  0  0  0
   12.2113    1.0857   -0.8148 N   0  0  0  0  0  0  0  0  0  0  0  0
   -3.3991    2.3443   -1.6178 H   0  0  0  0  0  0  0  0  0  0  0  0
   -4.3473    2.8782    0.6500 H   0  0  0  0  0  0  0  0  0  0  0  0
   -4.2064    1.1948    2.5214 H   0  0  0  0  0  0  0  0  0  0  0  0
  1  6  2  0  0  0  0
  1  2  1  0  0  0  0
  2  3  2  0  0  0  0
  3  4  1  0  0  0  0
  4 13  1  0  0  0  0
  5 12  1  0  0  0  0
  5  4  2  0  0  0  0
  6  5  1  0  0  0  0
  7  1  1  0  0  0  0
  8  2  1  0  0  0  0
 10  9  3  0  0  0  0
 11  6  1  0  0  0  0
M  RAD  1   3   2
M  END
