Coordinates from ORCA-job Ph-N2+-B3LYPG-6-31G_dp-MTMO-d009-169-n800
 OpenBabel09051908203D

 13 12  0  0  0  0  0  0  0  0999 V2000
   -2.7511    0.2136   -1.1819 C   0  0  0  0  0  0  0  0  0  0  0  0
   -1.6559   -0.3893   -0.4764 C   0  0  0  0  0  0  0  0  0  0  0  0
   -1.5332    0.3518    0.6175 C   0  0  0  0  0  0  0  0  0  0  0  0
   -1.9723    1.3876    1.3209 C   0  0  0  0  0  0  0  0  0  0  0  0
   -3.0528    1.9083    0.5321 C   0  0  0  0  0  0  0  0  0  0  0  0
   -3.4220    1.3297   -0.6821 C   0  0  0  0  0  0  0  0  0  0  0  0
   -3.0180   -0.2572   -2.1251 H   0  0  0  0  0  0  0  0  0  0  0  0
   -1.1043   -1.2555   -0.8209 H   0  0  0  0  0  0  0  0  0  0  0  0
    7.1103    0.8407   -0.1315 N   0  0  0  0  0  0  0  0  0  0  0  0
    8.2136    0.8934   -0.1707 N   0  0  0  0  0  0  0  0  0  0  0  0
   -4.2445    1.7548   -1.2469 H   0  0  0  0  0  0  0  0  0  0  0  0
   -3.5570    2.7792    0.9443 H   0  0  0  0  0  0  0  0  0  0  0  0
   -1.6465    1.8007    2.2675 H   0  0  0  0  0  0  0  0  0  0  0  0
  1  6  2  0  0  0  0
  1  2  1  0  0  0  0
  2  3  2  0  0  0  0
  3  4  1  0  0  0  0
  4 13  1  0  0  0  0
  5 12  1  0  0  0  0
  5  4  2  0  0  0  0
  6  5  1  0  0  0  0
  7  1  1  0  0  0  0
  8  2  1  0  0  0  0
 10  9  3  0  0  0  0
 11  6  1  0  0  0  0
M  RAD  1   3   2
M  END
