Coordinates from ORCA-job Ph-N2+-B3LYPG-6-31G_dp-MTMO-d009-169-n800
 OpenBabel09051908203D

 13 12  0  0  0  0  0  0  0  0999 V2000
   -2.7108    0.2131   -1.1815 C   0  0  0  0  0  0  0  0  0  0  0  0
   -1.6016   -0.3749   -0.4854 C   0  0  0  0  0  0  0  0  0  0  0  0
   -1.4790    0.3685    0.6068 C   0  0  0  0  0  0  0  0  0  0  0  0
   -1.9265    1.3977    1.3147 C   0  0  0  0  0  0  0  0  0  0  0  0
   -3.0207    1.9037    0.5352 C   0  0  0  0  0  0  0  0  0  0  0  0
   -3.3925    1.3200   -0.6758 C   0  0  0  0  0  0  0  0  0  0  0  0
   -2.9795   -0.2613   -2.1223 H   0  0  0  0  0  0  0  0  0  0  0  0
   -1.0414   -1.2338   -0.8346 H   0  0  0  0  0  0  0  0  0  0  0  0
    6.8861    0.8240   -0.1257 N   0  0  0  0  0  0  0  0  0  0  0  0
    7.9891    0.8842   -0.1619 N   0  0  0  0  0  0  0  0  0  0  0  0
   -4.2257    1.7338   -1.2332 H   0  0  0  0  0  0  0  0  0  0  0  0
   -3.5331    2.7677    0.9519 H   0  0  0  0  0  0  0  0  0  0  0  0
   -1.5983    1.8149    2.2586 H   0  0  0  0  0  0  0  0  0  0  0  0
  1  6  2  0  0  0  0
  1  2  1  0  0  0  0
  2  3  2  0  0  0  0
  3  4  1  0  0  0  0
  4 13  1  0  0  0  0
  5 12  1  0  0  0  0
  5  4  2  0  0  0  0
  6  5  1  0  0  0  0
  7  1  1  0  0  0  0
  8  2  1  0  0  0  0
 10  9  3  0  0  0  0
 11  6  1  0  0  0  0
M  RAD  1   3   2
M  END
