Coordinates from ORCA-job Ph-N2+-B3LYPG-6-31G_dp-MTMO-d009-169-n800
 OpenBabel09051908203D

 13 12  0  0  0  0  0  0  0  0999 V2000
   -3.0978    0.2074   -1.1826 C   0  0  0  0  0  0  0  0  0  0  0  0
   -2.1597   -0.5501   -0.4033 C   0  0  0  0  0  0  0  0  0  0  0  0
   -1.9898    0.1802    0.6913 C   0  0  0  0  0  0  0  0  0  0  0  0
   -2.3012    1.2841    1.3582 C   0  0  0  0  0  0  0  0  0  0  0  0
   -3.2327    1.9570    0.4975 C   0  0  0  0  0  0  0  0  0  0  0  0
   -3.6120    1.4241   -0.7346 C   0  0  0  0  0  0  0  0  0  0  0  0
   -3.3758   -0.2304   -2.1384 H   0  0  0  0  0  0  0  0  0  0  0  0
   -1.7317   -1.4976   -0.7065 H   0  0  0  0  0  0  0  0  0  0  0  0
    8.8369    1.0076   -0.1710 N   0  0  0  0  0  0  0  0  0  0  0  0
    9.9408    1.0517   -0.2017 N   0  0  0  0  0  0  0  0  0  0  0  0
   -4.3183    1.9654   -1.3549 H   0  0  0  0  0  0  0  0  0  0  0  0
   -3.6173    2.9030    0.8708 H   0  0  0  0  0  0  0  0  0  0  0  0
   -1.9751    1.6552    2.3219 H   0  0  0  0  0  0  0  0  0  0  0  0
  1  6  2  0  0  0  0
  1  2  1  0  0  0  0
  2  3  2  0  0  0  0
  3  4  1  0  0  0  0
  4 13  1  0  0  0  0
  5 12  1  0  0  0  0
  5  4  2  0  0  0  0
  6  5  1  0  0  0  0
  7  1  1  0  0  0  0
  8  2  1  0  0  0  0
 10  9  3  0  0  0  0
 11  6  1  0  0  0  0
M  RAD  1   3   2
M  END
