Coordinates from ORCA-job Ph-N2+-B3LYPG-6-31G_dp-MTMO-d009-169-n800
 OpenBabel09051908213D

 13 12  0  0  0  0  0  0  0  0999 V2000
   -3.1882    0.2418   -1.1994 C   0  0  0  0  0  0  0  0  0  0  0  0
   -2.6803   -0.6916   -0.2339 C   0  0  0  0  0  0  0  0  0  0  0  0
   -2.6877   -0.0097    0.9043 C   0  0  0  0  0  0  0  0  0  0  0  0
   -2.9548    1.1346    1.5205 C   0  0  0  0  0  0  0  0  0  0  0  0
   -3.4498    1.9838    0.4738 C   0  0  0  0  0  0  0  0  0  0  0  0
   -3.5583    1.5390   -0.8440 C   0  0  0  0  0  0  0  0  0  0  0  0
   -3.2628   -0.1314   -2.2183 H   0  0  0  0  0  0  0  0  0  0  0  0
   -2.3783   -1.7069   -0.4598 H   0  0  0  0  0  0  0  0  0  0  0  0
   10.4716    1.1650   -0.3958 N   0  0  0  0  0  0  0  0  0  0  0  0
   11.5757    1.1998   -0.4319 N   0  0  0  0  0  0  0  0  0  0  0  0
   -3.9365    2.2130   -1.6048 H   0  0  0  0  0  0  0  0  0  0  0  0
   -3.7325    2.9885    0.7791 H   0  0  0  0  0  0  0  0  0  0  0  0
   -2.8518    1.4319    2.5570 H   0  0  0  0  0  0  0  0  0  0  0  0
  1  6  2  0  0  0  0
  1  2  1  0  0  0  0
  2  3  2  0  0  0  0
  3  4  1  0  0  0  0
  4 13  1  0  0  0  0
  5 12  1  0  0  0  0
  5  4  2  0  0  0  0
  6  5  1  0  0  0  0
  7  1  1  0  0  0  0
  8  2  1  0  0  0  0
 10  9  3  0  0  0  0
 11  6  1  0  0  0  0
M  RAD  1   3   2
M  END
