Coordinates from ORCA-job Ph-N2+-B3LYPG-6-31G_dp-MTMO-d009-169-n800
 OpenBabel09051908213D

 13 12  0  0  0  0  0  0  0  0999 V2000
   -3.1889    0.2191   -1.1932 C   0  0  0  0  0  0  0  0  0  0  0  0
   -2.4084   -0.6237   -0.3318 C   0  0  0  0  0  0  0  0  0  0  0  0
   -2.2789    0.0885    0.7801 C   0  0  0  0  0  0  0  0  0  0  0  0
   -2.5516    1.2159    1.4241 C   0  0  0  0  0  0  0  0  0  0  0  0
   -3.3253    1.9740    0.4815 C   0  0  0  0  0  0  0  0  0  0  0  0
   -3.6283    1.4792   -0.7871 C   0  0  0  0  0  0  0  0  0  0  0  0
   -3.4107   -0.1909   -2.1757 H   0  0  0  0  0  0  0  0  0  0  0  0
   -2.0437   -1.6076   -0.5999 H   0  0  0  0  0  0  0  0  0  0  0  0
    9.6293    1.0852   -0.2458 N   0  0  0  0  0  0  0  0  0  0  0  0
   10.7333    1.1270   -0.2790 N   0  0  0  0  0  0  0  0  0  0  0  0
   -4.2149    2.0849   -1.4695 H   0  0  0  0  0  0  0  0  0  0  0  0
   -3.6553    2.9518    0.8241 H   0  0  0  0  0  0  0  0  0  0  0  0
   -2.2902    1.5544    2.4191 H   0  0  0  0  0  0  0  0  0  0  0  0
  1  6  2  0  0  0  0
  1  2  1  0  0  0  0
  2  3  2  0  0  0  0
  3  4  1  0  0  0  0
  4 13  1  0  0  0  0
  5 12  1  0  0  0  0
  5  4  2  0  0  0  0
  6  5  1  0  0  0  0
  7  1  1  0  0  0  0
  8  2  1  0  0  0  0
 10  9  3  0  0  0  0
 11  6  1  0  0  0  0
M  RAD  1   3   2
M  END
