Coordinates from ORCA-job Ph-N2+-B3LYPG-6-31G_dp-MTMO-d009-169-n800
 OpenBabel09051908213D

 13 12  0  0  0  0  0  0  0  0999 V2000
   -2.9256    0.3279   -1.1486 C   0  0  0  0  0  0  0  0  0  0  0  0
   -2.6082   -0.6250   -0.1225 C   0  0  0  0  0  0  0  0  0  0  0  0
   -2.9641   -0.0149    1.0006 C   0  0  0  0  0  0  0  0  0  0  0  0
   -3.4757    1.0687    1.5707 C   0  0  0  0  0  0  0  0  0  0  0  0
   -3.7530    1.9431    0.4666 C   0  0  0  0  0  0  0  0  0  0  0  0
   -3.4815    1.5719   -0.8506 C   0  0  0  0  0  0  0  0  0  0  0  0
   -2.7023    0.0131   -2.1655 H   0  0  0  0  0  0  0  0  0  0  0  0
   -2.1771   -1.6021   -0.3024 H   0  0  0  0  0  0  0  0  0  0  0  0
   10.9550    1.0913   -0.6174 N   0  0  0  0  0  0  0  0  0  0  0  0
   12.0592    1.1065   -0.6645 N   0  0  0  0  0  0  0  0  0  0  0  0
   -3.7069    2.2619   -1.6565 H   0  0  0  0  0  0  0  0  0  0  0  0
   -4.1853    2.9062    0.7277 H   0  0  0  0  0  0  0  0  0  0  0  0
   -3.6683    1.3091    2.6093 H   0  0  0  0  0  0  0  0  0  0  0  0
  1  6  2  0  0  0  0
  1  2  1  0  0  0  0
  2  3  2  0  0  0  0
  3  4  1  0  0  0  0
  4 13  1  0  0  0  0
  5 12  1  0  0  0  0
  5  4  2  0  0  0  0
  6  5  1  0  0  0  0
  7  1  1  0  0  0  0
  8  2  1  0  0  0  0
 10  9  3  0  0  0  0
 11  6  1  0  0  0  0
M  RAD  1   3   2
M  END
