Coordinates from ORCA-job Ph-N2+-B3LYPG-6-31G_dp-MTMO-d009-169-n800
 OpenBabel09051908213D

 13 12  0  0  0  0  0  0  0  0999 V2000
   -2.7630    0.3859   -1.0554 C   0  0  0  0  0  0  0  0  0  0  0  0
   -2.6421   -0.6120   -0.0302 C   0  0  0  0  0  0  0  0  0  0  0  0
   -3.2171   -0.0550    1.0278 C   0  0  0  0  0  0  0  0  0  0  0  0
   -3.8402    1.0006    1.5357 C   0  0  0  0  0  0  0  0  0  0  0  0
   -3.9065    1.9238    0.4381 C   0  0  0  0  0  0  0  0  0  0  0  0
   -3.3798    1.6140   -0.8160 C   0  0  0  0  0  0  0  0  0  0  0  0
   -2.3453    0.1178   -2.0230 H   0  0  0  0  0  0  0  0  0  0  0  0
   -2.1768   -1.5807   -0.1659 H   0  0  0  0  0  0  0  0  0  0  0  0
   11.3021    1.0649   -0.8047 N   0  0  0  0  0  0  0  0  0  0  0  0
   12.4070    1.0890   -0.8211 N   0  0  0  0  0  0  0  0  0  0  0  0
   -3.4511    2.3403   -1.6186 H   0  0  0  0  0  0  0  0  0  0  0  0
   -4.3900    2.8740    0.6531 H   0  0  0  0  0  0  0  0  0  0  0  0
   -4.2308    1.1950    2.5271 H   0  0  0  0  0  0  0  0  0  0  0  0
  1  6  2  0  0  0  0
  1  2  1  0  0  0  0
  2  3  2  0  0  0  0
  3  4  1  0  0  0  0
  4 13  1  0  0  0  0
  5 12  1  0  0  0  0
  5  4  2  0  0  0  0
  6  5  1  0  0  0  0
  7  1  1  0  0  0  0
  8  2  1  0  0  0  0
 10  9  3  0  0  0  0
 11  6  1  0  0  0  0
M  RAD  1   3   2
M  END
