Coordinates from ORCA-job Ph-N2+-B3LYPG-6-31G_dp-MTMO-d009-169-n800
 OpenBabel09051908203D

 13 13  0  0  0  0  0  0  0  0999 V2000
   -1.9414    0.0919   -1.0844 C   0  0  0  0  0  0  0  0  0  0  0  0
   -0.5566    0.0136   -0.9742 C   0  0  0  0  0  0  0  0  0  0  0  0
    0.0169    0.8300    0.0043 C   0  0  0  0  0  0  0  0  0  0  0  0
   -0.6551    1.7006    0.8664 C   0  0  0  0  0  0  0  0  0  0  0  0
   -2.0379    1.7435    0.7175 C   0  0  0  0  0  0  0  0  0  0  0  0
   -2.6712    0.9478   -0.2476 C   0  0  0  0  0  0  0  0  0  0  0  0
   -2.4503   -0.5156   -1.8249 H   0  0  0  0  0  0  0  0  0  0  0  0
    0.0400   -0.6359   -1.6042 H   0  0  0  0  0  0  0  0  0  0  0  0
    1.5100    0.7662    0.1425 N   0  0  0  0  0  0  0  0  0  0  0  0
    2.6148    0.7192    0.2442 N   0  0  0  0  0  0  0  0  0  0  0  0
   -3.7510    0.9959   -0.3495 H   0  0  0  0  0  0  0  0  0  0  0  0
   -2.6204    2.3991    1.3556 H   0  0  0  0  0  0  0  0  0  0  0  0
   -0.1315    2.3013    1.6010 H   0  0  0  0  0  0  0  0  0  0  0  0
  1  2  2  0  0  0  0
  1  6  1  0  0  0  0
  2  3  1  0  0  0  0
  3  9  1  0  0  0  0
  3  4  2  0  0  0  0
  4 13  1  0  0  0  0
  5  4  1  0  0  0  0
  5 12  1  0  0  0  0
  6  5  2  0  0  0  0
  7  1  1  0  0  0  0
  8  2  1  0  0  0  0
  9 10  1  0  0  0  0
 11  6  1  0  0  0  0
M  RAD  2   9   2  10   3
M  END
