Coordinates from ORCA-job Ph-N2+-B3LYPG-6-31G_dp-MTMO-d009-169-n800
 OpenBabel09051908203D

 13 12  0  0  0  0  0  0  0  0999 V2000
   -2.4942    0.1445   -1.1359 C   0  0  0  0  0  0  0  0  0  0  0  0
   -1.0938   -0.0469   -0.8844 C   0  0  0  0  0  0  0  0  0  0  0  0
   -0.8354    0.7741    0.1253 C   0  0  0  0  0  0  0  0  0  0  0  0
   -1.3008    1.6752    0.9808 C   0  0  0  0  0  0  0  0  0  0  0  0
   -2.6915    1.7873    0.6430 C   0  0  0  0  0  0  0  0  0  0  0  0
   -3.2599    1.0389   -0.3879 C   0  0  0  0  0  0  0  0  0  0  0  0
   -2.9115   -0.4508   -1.9449 H   0  0  0  0  0  0  0  0  0  0  0  0
   -0.4561   -0.7263   -1.4370 H   0  0  0  0  0  0  0  0  0  0  0  0
    4.8480    0.6416    0.2343 N   0  0  0  0  0  0  0  0  0  0  0  0
    5.9531    0.6414    0.2531 N   0  0  0  0  0  0  0  0  0  0  0  0
   -4.3148    1.1551   -0.6123 H   0  0  0  0  0  0  0  0  0  0  0  0
   -3.2650    2.4909    1.2423 H   0  0  0  0  0  0  0  0  0  0  0  0
   -0.8119    2.2329    1.7703 H   0  0  0  0  0  0  0  0  0  0  0  0
  1  2  2  0  0  0  0
  1  6  1  0  0  0  0
  2  3  1  0  0  0  0
  3  4  2  0  0  0  0
  4 13  1  0  0  0  0
  5  4  1  0  0  0  0
  5 12  1  0  0  0  0
  6  5  2  0  0  0  0
  7  1  1  0  0  0  0
  8  2  1  0  0  0  0
  9 10  3  0  0  0  0
 11  6  1  0  0  0  0
M  RAD  1   3   2
M  END
