Coordinates from ORCA-job Ph-N2+-B3LYPG-6-31G_dp-MTMO-d009-169-n800
 OpenBabel09051908213D

 13 12  0  0  0  0  0  0  0  0999 V2000
   -3.1932    0.2219   -1.1953 C   0  0  0  0  0  0  0  0  0  0  0  0
   -2.4577   -0.6409   -0.3145 C   0  0  0  0  0  0  0  0  0  0  0  0
   -2.3427    0.0656    0.8027 C   0  0  0  0  0  0  0  0  0  0  0  0
   -2.6033    1.1997    1.4401 C   0  0  0  0  0  0  0  0  0  0  0  0
   -3.3319    1.9776    0.4782 C   0  0  0  0  0  0  0  0  0  0  0  0
   -3.6121    1.4921   -0.7992 C   0  0  0  0  0  0  0  0  0  0  0  0
   -3.3979   -0.1812   -2.1844 H   0  0  0  0  0  0  0  0  0  0  0  0
   -2.1090   -1.6327   -0.5746 H   0  0  0  0  0  0  0  0  0  0  0  0
    9.7400    1.1030   -0.2654 N   0  0  0  0  0  0  0  0  0  0  0  0
   10.8440    1.1451   -0.2994 N   0  0  0  0  0  0  0  0  0  0  0  0
   -4.1639    2.1131   -1.4966 H   0  0  0  0  0  0  0  0  0  0  0  0
   -3.6466    2.9631    0.8132 H   0  0  0  0  0  0  0  0  0  0  0  0
   -2.3596    1.5312    2.4420 H   0  0  0  0  0  0  0  0  0  0  0  0
  1  6  2  0  0  0  0
  1  2  1  0  0  0  0
  2  3  2  0  0  0  0
  3  4  1  0  0  0  0
  4 13  1  0  0  0  0
  5 12  1  0  0  0  0
  5  4  2  0  0  0  0
  6  5  1  0  0  0  0
  7  1  1  0  0  0  0
  8  2  1  0  0  0  0
 10  9  3  0  0  0  0
 11  6  1  0  0  0  0
M  RAD  1   3   2
M  END
