Coordinates from ORCA-job Ph-N2+-B3LYPG-6-31G_dp-MTMO-d009-169-n800
 OpenBabel09051908203D

 13 12  0  0  0  0  0  0  0  0999 V2000
   -2.4054    0.1318   -1.1249 C   0  0  0  0  0  0  0  0  0  0  0  0
   -0.9920   -0.0254   -0.9294 C   0  0  0  0  0  0  0  0  0  0  0  0
   -0.7130    0.8038    0.0680 C   0  0  0  0  0  0  0  0  0  0  0  0
   -1.1652    1.6954    0.9402 C   0  0  0  0  0  0  0  0  0  0  0  0
   -2.5706    1.7737    0.6583 C   0  0  0  0  0  0  0  0  0  0  0  0
   -3.1617    1.0095   -0.3480 C   0  0  0  0  0  0  0  0  0  0  0  0
   -2.8406   -0.4751   -1.9158 H   0  0  0  0  0  0  0  0  0  0  0  0
   -0.3604   -0.6904   -1.5060 H   0  0  0  0  0  0  0  0  0  0  0  0
    4.2464    0.6561    0.2550 N   0  0  0  0  0  0  0  0  0  0  0  0
    5.3509    0.6475    0.2916 N   0  0  0  0  0  0  0  0  0  0  0  0
   -4.2273    1.1000   -0.5301 H   0  0  0  0  0  0  0  0  0  0  0  0
   -3.1365    2.4647    1.2791 H   0  0  0  0  0  0  0  0  0  0  0  0
   -0.6583    2.2662    1.7089 H   0  0  0  0  0  0  0  0  0  0  0  0
  1  2  2  0  0  0  0
  1  6  1  0  0  0  0
  2  3  1  0  0  0  0
  3  4  2  0  0  0  0
  4 13  1  0  0  0  0
  5  4  1  0  0  0  0
  5 12  1  0  0  0  0
  6  5  2  0  0  0  0
  7  1  1  0  0  0  0
  8  2  1  0  0  0  0
  9 10  3  0  0  0  0
 11  6  1  0  0  0  0
M  RAD  1   3   2
M  END
