Coordinates from ORCA-job Ph-N2+-B3LYPG-6-31G_dp-MTMO-d009-169-n800
 OpenBabel09051908213D

 13 12  0  0  0  0  0  0  0  0999 V2000
   -3.1856    0.2170   -1.1916 C   0  0  0  0  0  0  0  0  0  0  0  0
   -2.3761   -0.6120   -0.3437 C   0  0  0  0  0  0  0  0  0  0  0  0
   -2.2382    0.1034    0.7652 C   0  0  0  0  0  0  0  0  0  0  0  0
   -2.5177    1.2269    1.4131 C   0  0  0  0  0  0  0  0  0  0  0  0
   -3.3204    1.9712    0.4840 C   0  0  0  0  0  0  0  0  0  0  0  0
   -3.6381    1.4702   -0.7785 C   0  0  0  0  0  0  0  0  0  0  0  0
   -3.4181   -0.1975   -2.1696 H   0  0  0  0  0  0  0  0  0  0  0  0
   -2.0003   -1.5901   -0.6175 H   0  0  0  0  0  0  0  0  0  0  0  0
    9.5537    1.0735   -0.2330 N   0  0  0  0  0  0  0  0  0  0  0  0
   10.6577    1.1150   -0.2656 N   0  0  0  0  0  0  0  0  0  0  0  0
   -4.2467    2.0655   -1.4507 H   0  0  0  0  0  0  0  0  0  0  0  0
   -3.6599    2.9439    0.8316 H   0  0  0  0  0  0  0  0  0  0  0  0
   -2.2441    1.5706    2.4030 H   0  0  0  0  0  0  0  0  0  0  0  0
  1  6  2  0  0  0  0
  1  2  1  0  0  0  0
  2  3  2  0  0  0  0
  3  4  1  0  0  0  0
  4 13  1  0  0  0  0
  5 12  1  0  0  0  0
  5  4  2  0  0  0  0
  6  5  1  0  0  0  0
  7  1  1  0  0  0  0
  8  2  1  0  0  0  0
 10  9  3  0  0  0  0
 11  6  1  0  0  0  0
M  RAD  1   3   2
M  END
