Coordinates from ORCA-job Ph-N2+-B3LYPG-6-31G_dp-MTMO-d009-169-n800
 OpenBabel09051908203D

 13 12  0  0  0  0  0  0  0  0999 V2000
   -2.3933    0.1302   -1.1236 C   0  0  0  0  0  0  0  0  0  0  0  0
   -0.9786   -0.0239   -0.9352 C   0  0  0  0  0  0  0  0  0  0  0  0
   -0.6963    0.8061    0.0606 C   0  0  0  0  0  0  0  0  0  0  0  0
   -1.1461    1.6969    0.9350 C   0  0  0  0  0  0  0  0  0  0  0  0
   -2.5530    1.7720    0.6602 C   0  0  0  0  0  0  0  0  0  0  0  0
   -3.1476    1.0063   -0.3430 C   0  0  0  0  0  0  0  0  0  0  0  0
   -2.8312   -0.4778   -1.9121 H   0  0  0  0  0  0  0  0  0  0  0  0
   -0.3485   -0.6876   -1.5148 H   0  0  0  0  0  0  0  0  0  0  0  0
    4.1624    0.6598    0.2576 N   0  0  0  0  0  0  0  0  0  0  0  0
    5.2668    0.6503    0.2971 N   0  0  0  0  0  0  0  0  0  0  0  0
   -4.2144    1.0945   -0.5197 H   0  0  0  0  0  0  0  0  0  0  0  0
   -3.1174    2.4619    1.2837 H   0  0  0  0  0  0  0  0  0  0  0  0
   -0.6365    2.2688    1.7010 H   0  0  0  0  0  0  0  0  0  0  0  0
  1  2  2  0  0  0  0
  1  6  1  0  0  0  0
  2  3  1  0  0  0  0
  3  4  2  0  0  0  0
  4 13  1  0  0  0  0
  5  4  1  0  0  0  0
  5 12  1  0  0  0  0
  6  5  2  0  0  0  0
  7  1  1  0  0  0  0
  8  2  1  0  0  0  0
  9 10  3  0  0  0  0
 11  6  1  0  0  0  0
M  RAD  1   3   2
M  END
