Coordinates from ORCA-job Ph-N2+-B3LYPG-6-31G_dp-MTMO-d009-169-n800
 OpenBabel09051908213D

 13 12  0  0  0  0  0  0  0  0999 V2000
   -2.7031    0.3961   -1.0376 C   0  0  0  0  0  0  0  0  0  0  0  0
   -2.6145   -0.6097   -0.0166 C   0  0  0  0  0  0  0  0  0  0  0  0
   -3.2246   -0.0615    1.0263 C   0  0  0  0  0  0  0  0  0  0  0  0
   -3.8652    0.9896    1.5217 C   0  0  0  0  0  0  0  0  0  0  0  0
   -3.8967    1.9212    0.4296 C   0  0  0  0  0  0  0  0  0  0  0  0
   -3.3288    1.6216   -0.8089 C   0  0  0  0  0  0  0  0  0  0  0  0
   -2.2539    0.1357   -1.9931 H   0  0  0  0  0  0  0  0  0  0  0  0
   -2.1439   -1.5769   -0.1444 H   0  0  0  0  0  0  0  0  0  0  0  0
   11.1712    1.0624   -0.8191 N   0  0  0  0  0  0  0  0  0  0  0  0
   12.2762    1.0798   -0.8407 N   0  0  0  0  0  0  0  0  0  0  0  0
   -3.3746    2.3542   -1.6078 H   0  0  0  0  0  0  0  0  0  0  0  0
   -4.3881    2.8692    0.6361 H   0  0  0  0  0  0  0  0  0  0  0  0
   -4.2878    1.1761    2.5013 H   0  0  0  0  0  0  0  0  0  0  0  0
  1  6  2  0  0  0  0
  1  2  1  0  0  0  0
  2  3  2  0  0  0  0
  3  4  1  0  0  0  0
  4 13  1  0  0  0  0
  5 12  1  0  0  0  0
  5  4  2  0  0  0  0
  6  5  1  0  0  0  0
  7  1  1  0  0  0  0
  8  2  1  0  0  0  0
 10  9  3  0  0  0  0
 11  6  1  0  0  0  0
M  RAD  1   3   2
M  END
