Coordinates from ORCA-job Ph-N2+-B3LYPG-6-31G_dp-MTMO-d009-169-n800
 OpenBabel09051908203D

 13 12  0  0  0  0  0  0  0  0999 V2000
   -2.5040    0.1461   -1.1373 C   0  0  0  0  0  0  0  0  0  0  0  0
   -1.1059   -0.0511   -0.8783 C   0  0  0  0  0  0  0  0  0  0  0  0
   -0.8495    0.7686    0.1330 C   0  0  0  0  0  0  0  0  0  0  0  0
   -1.3159    1.6713    0.9862 C   0  0  0  0  0  0  0  0  0  0  0  0
   -2.7043    1.7892    0.6410 C   0  0  0  0  0  0  0  0  0  0  0  0
   -3.2702    1.0434   -0.3932 C   0  0  0  0  0  0  0  0  0  0  0  0
   -2.9193   -0.4473   -1.9488 H   0  0  0  0  0  0  0  0  0  0  0  0
   -0.4679   -0.7329   -1.4277 H   0  0  0  0  0  0  0  0  0  0  0  0
    4.9143    0.6417    0.2312 N   0  0  0  0  0  0  0  0  0  0  0  0
    6.0194    0.6428    0.2479 N   0  0  0  0  0  0  0  0  0  0  0  0
   -4.3233    1.1640   -0.6233 H   0  0  0  0  0  0  0  0  0  0  0  0
   -3.2782    2.4950    1.2374 H   0  0  0  0  0  0  0  0  0  0  0  0
   -0.8290    2.2268    1.7785 H   0  0  0  0  0  0  0  0  0  0  0  0
  1  2  2  0  0  0  0
  1  6  1  0  0  0  0
  2  3  1  0  0  0  0
  3  4  2  0  0  0  0
  4 13  1  0  0  0  0
  5  4  1  0  0  0  0
  5 12  1  0  0  0  0
  6  5  2  0  0  0  0
  7  1  1  0  0  0  0
  8  2  1  0  0  0  0
  9 10  3  0  0  0  0
 11  6  1  0  0  0  0
M  RAD  1   3   2
M  END
