Coordinates from ORCA-job Ph-N2+-B3LYPG-6-31G_dp-MTMO-d009-169-n800
 OpenBabel09051908213D

 13 12  0  0  0  0  0  0  0  0999 V2000
   -3.1918    0.2211   -1.1947 C   0  0  0  0  0  0  0  0  0  0  0  0
   -2.4418   -0.6356   -0.3200 C   0  0  0  0  0  0  0  0  0  0  0  0
   -2.3208    0.0734    0.7949 C   0  0  0  0  0  0  0  0  0  0  0  0
   -2.5861    1.2049    1.4350 C   0  0  0  0  0  0  0  0  0  0  0  0
   -3.3294    1.9767    0.4791 C   0  0  0  0  0  0  0  0  0  0  0  0
   -3.6171    1.4881   -0.7954 C   0  0  0  0  0  0  0  0  0  0  0  0
   -3.4024   -0.1844   -2.1816 H   0  0  0  0  0  0  0  0  0  0  0  0
   -2.0888   -1.6253   -0.5825 H   0  0  0  0  0  0  0  0  0  0  0  0
    9.7037    1.0974   -0.2590 N   0  0  0  0  0  0  0  0  0  0  0  0
   10.8077    1.1394   -0.2927 N   0  0  0  0  0  0  0  0  0  0  0  0
   -4.1806    2.1042   -1.4880 H   0  0  0  0  0  0  0  0  0  0  0  0
   -3.6490    2.9596    0.8166 H   0  0  0  0  0  0  0  0  0  0  0  0
   -2.3373    1.5381    2.4350 H   0  0  0  0  0  0  0  0  0  0  0  0
  1  6  2  0  0  0  0
  1  2  1  0  0  0  0
  2  3  2  0  0  0  0
  3  4  1  0  0  0  0
  4 13  1  0  0  0  0
  5 12  1  0  0  0  0
  5  4  2  0  0  0  0
  6  5  1  0  0  0  0
  7  1  1  0  0  0  0
  8  2  1  0  0  0  0
 10  9  3  0  0  0  0
 11  6  1  0  0  0  0
M  RAD  1   3   2
M  END
