Coordinates from ORCA-job Ph-N2+-B3LYPG-6-31G_dp-MTMO-d009-169-n800
 OpenBabel09051908213D

 13 12  0  0  0  0  0  0  0  0999 V2000
   -2.6700    0.3839   -1.0454 C   0  0  0  0  0  0  0  0  0  0  0  0
   -2.5975   -0.6257   -0.0270 C   0  0  0  0  0  0  0  0  0  0  0  0
   -3.1902   -0.0668    1.0203 C   0  0  0  0  0  0  0  0  0  0  0  0
   -3.8055    0.9967    1.5213 C   0  0  0  0  0  0  0  0  0  0  0  0
   -3.8230    1.9311    0.4312 C   0  0  0  0  0  0  0  0  0  0  0  0
   -3.2682    1.6221   -0.8109 C   0  0  0  0  0  0  0  0  0  0  0  0
   -2.2316    0.1161   -2.0039 H   0  0  0  0  0  0  0  0  0  0  0  0
   -2.1481   -1.6023   -0.1592 H   0  0  0  0  0  0  0  0  0  0  0  0
   10.9051    1.0730   -0.7902 N   0  0  0  0  0  0  0  0  0  0  0  0
   12.0095    1.0938   -0.8270 N   0  0  0  0  0  0  0  0  0  0  0  0
   -3.3024    2.3571   -1.6080 H   0  0  0  0  0  0  0  0  0  0  0  0
   -4.2931    2.8888    0.6422 H   0  0  0  0  0  0  0  0  0  0  0  0
   -4.2189    1.1900    2.5035 H   0  0  0  0  0  0  0  0  0  0  0  0
  1  6  2  0  0  0  0
  1  2  1  0  0  0  0
  2  3  2  0  0  0  0
  3  4  1  0  0  0  0
  4 13  1  0  0  0  0
  5 12  1  0  0  0  0
  5  4  2  0  0  0  0
  6  5  1  0  0  0  0
  7  1  1  0  0  0  0
  8  2  1  0  0  0  0
 10  9  3  0  0  0  0
 11  6  1  0  0  0  0
M  RAD  1   3   2
M  END
