Coordinates from ORCA-job Ph-N2+-B3LYPG-6-31G_dp-MTMO-d009-169-n800
 OpenBabel09051908203D

 13 12  0  0  0  0  0  0  0  0999 V2000
   -2.5949    0.2116   -1.1800 C   0  0  0  0  0  0  0  0  0  0  0  0
   -1.4461   -0.3315   -0.5123 C   0  0  0  0  0  0  0  0  0  0  0  0
   -1.3262    0.4160    0.5774 C   0  0  0  0  0  0  0  0  0  0  0  0
   -1.7956    1.4277    1.2962 C   0  0  0  0  0  0  0  0  0  0  0  0
   -2.9283    1.8894    0.5448 C   0  0  0  0  0  0  0  0  0  0  0  0
   -3.3070    1.2909   -0.6568 C   0  0  0  0  0  0  0  0  0  0  0  0
   -2.8681   -0.2736   -2.1140 H   0  0  0  0  0  0  0  0  0  0  0  0
   -0.8610   -1.1675   -0.8758 H   0  0  0  0  0  0  0  0  0  0  0  0
    6.2426    0.7747   -0.1098 N   0  0  0  0  0  0  0  0  0  0  0  0
    7.3444    0.8575   -0.1360 N   0  0  0  0  0  0  0  0  0  0  0  0
   -4.1694    1.6713   -1.1930 H   0  0  0  0  0  0  0  0  0  0  0  0
   -3.4638    2.7328    0.9745 H   0  0  0  0  0  0  0  0  0  0  0  0
   -1.4603    1.8586    2.2314 H   0  0  0  0  0  0  0  0  0  0  0  0
  1  6  2  0  0  0  0
  1  2  1  0  0  0  0
  2  3  2  0  0  0  0
  3  4  1  0  0  0  0
  4 13  1  0  0  0  0
  5 12  1  0  0  0  0
  5  4  2  0  0  0  0
  6  5  1  0  0  0  0
  7  1  1  0  0  0  0
  8  2  1  0  0  0  0
 10  9  3  0  0  0  0
 11  6  1  0  0  0  0
M  RAD  1   3   2
M  END
