Coordinates from ORCA-job Ph-N2+-B3LYPG-6-31G_dp-MTMO-d009-169-n800
 OpenBabel09051908213D

 13 12  0  0  0  0  0  0  0  0999 V2000
   -2.8373    0.3919   -1.0422 C   0  0  0  0  0  0  0  0  0  0  0  0
   -2.7222   -0.6072   -0.0174 C   0  0  0  0  0  0  0  0  0  0  0  0
   -3.3147   -0.0566    1.0342 C   0  0  0  0  0  0  0  0  0  0  0  0
   -3.9520    0.9934    1.5362 C   0  0  0  0  0  0  0  0  0  0  0  0
   -4.0110    1.9184    0.4396 C   0  0  0  0  0  0  0  0  0  0  0  0
   -3.4660    1.6150   -0.8083 C   0  0  0  0  0  0  0  0  0  0  0  0
   -2.4054    0.1288   -2.0049 H   0  0  0  0  0  0  0  0  0  0  0  0
   -2.2482   -1.5723   -0.1490 H   0  0  0  0  0  0  0  0  0  0  0  0
   11.8055    1.0659   -0.8462 N   0  0  0  0  0  0  0  0  0  0  0  0
   12.9104    1.0903   -0.8579 N   0  0  0  0  0  0  0  0  0  0  0  0
   -3.5324    2.3424   -1.6103 H   0  0  0  0  0  0  0  0  0  0  0  0
   -4.5040    2.8646    0.6503 H   0  0  0  0  0  0  0  0  0  0  0  0
   -4.3564    1.1830    2.5229 H   0  0  0  0  0  0  0  0  0  0  0  0
  1  6  2  0  0  0  0
  1  2  1  0  0  0  0
  2  3  2  0  0  0  0
  3  4  1  0  0  0  0
  4 13  1  0  0  0  0
  5 12  1  0  0  0  0
  5  4  2  0  0  0  0
  6  5  1  0  0  0  0
  7  1  1  0  0  0  0
  8  2  1  0  0  0  0
 10  9  3  0  0  0  0
 11  6  1  0  0  0  0
M  RAD  1   3   2
M  END
