Coordinates from ORCA-job Ph-N2+-B3LYPG-6-31G_dp-MTMO-d009-169-n800
 OpenBabel09051908203D

 13 12  0  0  0  0  0  0  0  0999 V2000
   -2.6618    0.2125   -1.1809 C   0  0  0  0  0  0  0  0  0  0  0  0
   -1.5364   -0.3579   -0.4962 C   0  0  0  0  0  0  0  0  0  0  0  0
   -1.4137    0.3883    0.5941 C   0  0  0  0  0  0  0  0  0  0  0  0
   -1.8707    1.4096    1.3072 C   0  0  0  0  0  0  0  0  0  0  0  0
   -2.9808    1.8983    0.5389 C   0  0  0  0  0  0  0  0  0  0  0  0
   -3.3556    1.3086   -0.6682 C   0  0  0  0  0  0  0  0  0  0  0  0
   -2.9325   -0.2664   -2.1189 H   0  0  0  0  0  0  0  0  0  0  0  0
   -0.9669   -1.2083   -0.8510 H   0  0  0  0  0  0  0  0  0  0  0  0
    6.6129    0.8031   -0.1198 N   0  0  0  0  0  0  0  0  0  0  0  0
    7.7154    0.8751   -0.1504 N   0  0  0  0  0  0  0  0  0  0  0  0
   -4.2011    1.7090   -1.2169 H   0  0  0  0  0  0  0  0  0  0  0  0
   -3.5025    2.7541    0.9609 H   0  0  0  0  0  0  0  0  0  0  0  0
   -1.5401    1.8317    2.2480 H   0  0  0  0  0  0  0  0  0  0  0  0
  1  6  2  0  0  0  0
  1  2  1  0  0  0  0
  2  3  2  0  0  0  0
  3  4  1  0  0  0  0
  4 13  1  0  0  0  0
  5 12  1  0  0  0  0
  5  4  2  0  0  0  0
  6  5  1  0  0  0  0
  7  1  1  0  0  0  0
  8  2  1  0  0  0  0
 10  9  3  0  0  0  0
 11  6  1  0  0  0  0
M  RAD  1   3   2
M  END
