Coordinates from ORCA-job Ph-N2+-B3LYPG-6-31G_dp-MTMO-d009-169-n800
 OpenBabel09051908213D

 13 12  0  0  0  0  0  0  0  0999 V2000
   -2.9673    0.3864   -1.0411 C   0  0  0  0  0  0  0  0  0  0  0  0
   -2.8439   -0.6107   -0.0154 C   0  0  0  0  0  0  0  0  0  0  0  0
   -3.4253   -0.0568    1.0408 C   0  0  0  0  0  0  0  0  0  0  0  0
   -4.0559    0.9954    1.5467 C   0  0  0  0  0  0  0  0  0  0  0  0
   -4.1240    1.9181    0.4487 C   0  0  0  0  0  0  0  0  0  0  0  0
   -3.5917    1.6110   -0.8038 C   0  0  0  0  0  0  0  0  0  0  0  0
   -2.5452    0.1205   -2.0074 H   0  0  0  0  0  0  0  0  0  0  0  0
   -2.3728   -1.5768   -0.1494 H   0  0  0  0  0  0  0  0  0  0  0  0
   12.4580    1.0793   -0.8771 N   0  0  0  0  0  0  0  0  0  0  0  0
   13.5630    1.1011   -0.8874 N   0  0  0  0  0  0  0  0  0  0  0  0
   -3.6647    2.3368   -1.6067 H   0  0  0  0  0  0  0  0  0  0  0  0
   -4.6134    2.8656    0.6621 H   0  0  0  0  0  0  0  0  0  0  0  0
   -4.4504    1.1878    2.5368 H   0  0  0  0  0  0  0  0  0  0  0  0
  1  6  2  0  0  0  0
  1  2  1  0  0  0  0
  2  3  2  0  0  0  0
  3  4  1  0  0  0  0
  4 13  1  0  0  0  0
  5 12  1  0  0  0  0
  5  4  2  0  0  0  0
  6  5  1  0  0  0  0
  7  1  1  0  0  0  0
  8  2  1  0  0  0  0
 10  9  3  0  0  0  0
 11  6  1  0  0  0  0
M  RAD  1   3   2
M  END
