Coordinates from ORCA-job Ph-N2+-B3LYPG-6-31G_dp-MTMO-d009-169-n800
 OpenBabel09051908203D

 13 13  0  0  0  0  0  0  0  0999 V2000
   -1.9068    0.0897   -1.0820 C   0  0  0  0  0  0  0  0  0  0  0  0
   -0.5335    0.0154   -0.9693 C   0  0  0  0  0  0  0  0  0  0  0  0
    0.1276    0.8255    0.0142 C   0  0  0  0  0  0  0  0  0  0  0  0
   -0.6317    1.6971    0.8654 C   0  0  0  0  0  0  0  0  0  0  0  0
   -2.0033    1.7428    0.7215 C   0  0  0  0  0  0  0  0  0  0  0  0
   -2.6397    0.9464   -0.2445 C   0  0  0  0  0  0  0  0  0  0  0  0
   -2.4160   -0.5179   -1.8224 H   0  0  0  0  0  0  0  0  0  0  0  0
    0.0611   -0.6359   -1.6019 H   0  0  0  0  0  0  0  0  0  0  0  0
    1.3018    0.7751    0.1233 N   0  0  0  0  0  0  0  0  0  0  0  0
    2.4232    0.7270    0.2272 N   0  0  0  0  0  0  0  0  0  0  0  0
   -3.7201    0.9943   -0.3463 H   0  0  0  0  0  0  0  0  0  0  0  0
   -2.5862    2.3983    1.3597 H   0  0  0  0  0  0  0  0  0  0  0  0
   -0.1102    2.3000    1.6019 H   0  0  0  0  0  0  0  0  0  0  0  0
  1  2  2  0  0  0  0
  1  6  1  0  0  0  0
  2  3  1  0  0  0  0
  3  9  1  0  0  0  0
  3  4  2  0  0  0  0
  4 13  1  0  0  0  0
  5  4  1  0  0  0  0
  5 12  1  0  0  0  0
  6  5  2  0  0  0  0
  7  1  1  0  0  0  0
  8  2  1  0  0  0  0
  9 10  1  0  0  0  0
 11  6  1  0  0  0  0
M  RAD  2   9   2  10   3
M  END
