Coordinates from ORCA-job Ph-N2+-B3LYPG-6-31G_dp-MTMO-d009-169-n800
 OpenBabel09051908213D

 13 12  0  0  0  0  0  0  0  0999 V2000
   -3.1786    0.2128   -1.1881 C   0  0  0  0  0  0  0  0  0  0  0  0
   -2.3233   -0.5942   -0.3642 C   0  0  0  0  0  0  0  0  0  0  0  0
   -2.1702    0.1262    0.7394 C   0  0  0  0  0  0  0  0  0  0  0  0
   -2.4558    1.2450    1.3930 C   0  0  0  0  0  0  0  0  0  0  0  0
   -3.3047    1.9671    0.4879 C   0  0  0  0  0  0  0  0  0  0  0  0
   -3.6488    1.4554   -0.7634 C   0  0  0  0  0  0  0  0  0  0  0  0
   -3.4308   -0.2094   -2.1579 H   0  0  0  0  0  0  0  0  0  0  0  0
   -1.9318   -1.5632   -0.6480 H   0  0  0  0  0  0  0  0  0  0  0  0
    9.4073    1.0561   -0.2099 N   0  0  0  0  0  0  0  0  0  0  0  0
   10.5113    1.0974   -0.2414 N   0  0  0  0  0  0  0  0  0  0  0  0
   -4.2921    2.0341   -1.4175 H   0  0  0  0  0  0  0  0  0  0  0  0
   -3.6567    2.9323    0.8439 H   0  0  0  0  0  0  0  0  0  0  0  0
   -2.1594    1.5981    2.3729 H   0  0  0  0  0  0  0  0  0  0  0  0
  1  6  2  0  0  0  0
  1  2  1  0  0  0  0
  2  3  2  0  0  0  0
  3  4  1  0  0  0  0
  4 13  1  0  0  0  0
  5 12  1  0  0  0  0
  5  4  2  0  0  0  0
  6  5  1  0  0  0  0
  7  1  1  0  0  0  0
  8  2  1  0  0  0  0
 10  9  3  0  0  0  0
 11  6  1  0  0  0  0
M  RAD  1   3   2
M  END
