Coordinates from ORCA-job Ph-N2+-B3LYPG-6-31G_dp-MTMO-d009-169-n800
 OpenBabel09051908203D

 13 12  0  0  0  0  0  0  0  0999 V2000
   -2.7666    0.2135   -1.1821 C   0  0  0  0  0  0  0  0  0  0  0  0
   -1.6773   -0.3961   -0.4731 C   0  0  0  0  0  0  0  0  0  0  0  0
   -1.5518    0.3461    0.6196 C   0  0  0  0  0  0  0  0  0  0  0  0
   -1.9879    1.3833    1.3228 C   0  0  0  0  0  0  0  0  0  0  0  0
   -3.0628    1.9107    0.5306 C   0  0  0  0  0  0  0  0  0  0  0  0
   -3.4320    1.3339   -0.6845 C   0  0  0  0  0  0  0  0  0  0  0  0
   -3.0336   -0.2560   -2.1258 H   0  0  0  0  0  0  0  0  0  0  0  0
   -1.1309   -1.2664   -0.8155 H   0  0  0  0  0  0  0  0  0  0  0  0
    7.1913    0.8479   -0.1334 N   0  0  0  0  0  0  0  0  0  0  0  0
    8.2947    0.8987   -0.1726 N   0  0  0  0  0  0  0  0  0  0  0  0
   -4.2506    1.7636   -1.2515 H   0  0  0  0  0  0  0  0  0  0  0  0
   -3.5630    2.7846    0.9413 H   0  0  0  0  0  0  0  0  0  0  0  0
   -1.6632    1.7938    2.2709 H   0  0  0  0  0  0  0  0  0  0  0  0
  1  6  2  0  0  0  0
  1  2  1  0  0  0  0
  2  3  2  0  0  0  0
  3  4  1  0  0  0  0
  4 13  1  0  0  0  0
  5 12  1  0  0  0  0
  5  4  2  0  0  0  0
  6  5  1  0  0  0  0
  7  1  1  0  0  0  0
  8  2  1  0  0  0  0
 10  9  3  0  0  0  0
 11  6  1  0  0  0  0
M  RAD  1   3   2
M  END
