Coordinates from ORCA-job Ph-N2+-B3LYPG-6-31G_dp-MTMO-d009-169-n800
 OpenBabel09051908213D

 13 12  0  0  0  0  0  0  0  0999 V2000
   -3.1899    0.2408   -1.1996 C   0  0  0  0  0  0  0  0  0  0  0  0
   -2.6752   -0.6913   -0.2364 C   0  0  0  0  0  0  0  0  0  0  0  0
   -2.6762   -0.0084    0.9012 C   0  0  0  0  0  0  0  0  0  0  0  0
   -2.9405    1.1362    1.5179 C   0  0  0  0  0  0  0  0  0  0  0  0
   -3.4426    1.9840    0.4736 C   0  0  0  0  0  0  0  0  0  0  0  0
   -3.5589    1.5379   -0.8431 C   0  0  0  0  0  0  0  0  0  0  0  0
   -3.2704   -0.1334   -2.2177 H   0  0  0  0  0  0  0  0  0  0  0  0
   -2.3737   -1.7065   -0.4632 H   0  0  0  0  0  0  0  0  0  0  0  0
   10.4437    1.1643   -0.3904 N   0  0  0  0  0  0  0  0  0  0  0  0
   11.5479    1.1997   -0.4265 N   0  0  0  0  0  0  0  0  0  0  0  0
   -3.9423    2.2109   -1.6022 H   0  0  0  0  0  0  0  0  0  0  0  0
   -3.7243    2.9888    0.7797 H   0  0  0  0  0  0  0  0  0  0  0  0
   -2.8313    1.4346    2.5535 H   0  0  0  0  0  0  0  0  0  0  0  0
  1  6  2  0  0  0  0
  1  2  1  0  0  0  0
  2  3  2  0  0  0  0
  3  4  1  0  0  0  0
  4 13  1  0  0  0  0
  5 12  1  0  0  0  0
  5  4  2  0  0  0  0
  6  5  1  0  0  0  0
  7  1  1  0  0  0  0
  8  2  1  0  0  0  0
 10  9  3  0  0  0  0
 11  6  1  0  0  0  0
M  RAD  1   3   2
M  END
