Coordinates from ORCA-job Ph-N2+-B3LYPG-6-31G_dp-MTMO-d009-169-n800
 OpenBabel09051908213D

 13 12  0  0  0  0  0  0  0  0999 V2000
   -2.9361    0.3247   -1.1524 C   0  0  0  0  0  0  0  0  0  0  0  0
   -2.6090   -0.6259   -0.1274 C   0  0  0  0  0  0  0  0  0  0  0  0
   -2.9537   -0.0134    0.9980 C   0  0  0  0  0  0  0  0  0  0  0  0
   -3.4579    1.0719    1.5712 C   0  0  0  0  0  0  0  0  0  0  0  0
   -3.7459    1.9438    0.4677 C   0  0  0  0  0  0  0  0  0  0  0  0
   -3.4882    1.5698   -0.8513 C   0  0  0  0  0  0  0  0  0  0  0  0
   -2.7241    0.0076   -2.1710 H   0  0  0  0  0  0  0  0  0  0  0  0
   -2.1805   -1.6038   -0.3090 H   0  0  0  0  0  0  0  0  0  0  0  0
   10.9465    1.0929   -0.6094 N   0  0  0  0  0  0  0  0  0  0  0  0
   12.0506    1.1083   -0.6559 N   0  0  0  0  0  0  0  0  0  0  0  0
   -3.7211    2.2585   -1.6561 H   0  0  0  0  0  0  0  0  0  0  0  0
   -4.1748    2.9078    0.7313 H   0  0  0  0  0  0  0  0  0  0  0  0
   -3.6395    1.3154    2.6110 H   0  0  0  0  0  0  0  0  0  0  0  0
  1  6  2  0  0  0  0
  1  2  1  0  0  0  0
  2  3  2  0  0  0  0
  3  4  1  0  0  0  0
  4 13  1  0  0  0  0
  5 12  1  0  0  0  0
  5  4  2  0  0  0  0
  6  5  1  0  0  0  0
  7  1  1  0  0  0  0
  8  2  1  0  0  0  0
 10  9  3  0  0  0  0
 11  6  1  0  0  0  0
M  RAD  1   3   2
M  END
