Coordinates from ORCA-job Ph-N2+-B3LYPG-6-31G_dp-MTMO-d009-169-n800
 OpenBabel09051908203D

 13 12  0  0  0  0  0  0  0  0999 V2000
   -2.2300    0.1123   -1.1065 C   0  0  0  0  0  0  0  0  0  0  0  0
   -0.8050   -0.0100   -0.9923 C   0  0  0  0  0  0  0  0  0  0  0  0
   -0.4869    0.8279   -0.0136 C   0  0  0  0  0  0  0  0  0  0  0  0
   -0.9115    1.7097    0.8826 C   0  0  0  0  0  0  0  0  0  0  0  0
   -2.3318    1.7535    0.6827 C   0  0  0  0  0  0  0  0  0  0  0  0
   -2.9613    0.9729   -0.2874 C   0  0  0  0  0  0  0  0  0  0  0  0
   -2.6964   -0.5062   -1.8701 H   0  0  0  0  0  0  0  0  0  0  0  0
   -0.1903   -0.6602   -1.6026 H   0  0  0  0  0  0  0  0  0  0  0  0
    3.0836    0.7100    0.2653 N   0  0  0  0  0  0  0  0  0  0  0  0
    4.1856    0.6860    0.3423 N   0  0  0  0  0  0  0  0  0  0  0  0
   -4.0377    1.0370   -0.4074 H   0  0  0  0  0  0  0  0  0  0  0  0
   -2.8786    2.4314    1.3342 H   0  0  0  0  0  0  0  0  0  0  0  0
   -0.3735    2.2933    1.6195 H   0  0  0  0  0  0  0  0  0  0  0  0
  1  2  2  0  0  0  0
  1  6  1  0  0  0  0
  2  3  1  0  0  0  0
  3  4  2  0  0  0  0
  4 13  1  0  0  0  0
  5  4  1  0  0  0  0
  5 12  1  0  0  0  0
  6  5  2  0  0  0  0
  7  1  1  0  0  0  0
  8  2  1  0  0  0  0
  9 10  3  0  0  0  0
 11  6  1  0  0  0  0
M  RAD  1   3   2
M  END
