Coordinates from ORCA-job Ph-N2+-B3LYPG-6-31G_dp-MTMO-d009-169-n800
 OpenBabel09051908203D

 13 12  0  0  0  0  0  0  0  0999 V2000
   -2.2770    0.1164   -1.1113 C   0  0  0  0  0  0  0  0  0  0  0  0
   -0.8537   -0.0146   -0.9823 C   0  0  0  0  0  0  0  0  0  0  0  0
   -0.5421    0.8212   -0.0001 C   0  0  0  0  0  0  0  0  0  0  0  0
   -0.9697    1.7055    0.8920 C   0  0  0  0  0  0  0  0  0  0  0  0
   -2.3878    1.7578    0.6770 C   0  0  0  0  0  0  0  0  0  0  0  0
   -3.0117    0.9812   -0.2999 C   0  0  0  0  0  0  0  0  0  0  0  0
   -2.7385   -0.4993   -1.8802 H   0  0  0  0  0  0  0  0  0  0  0  0
   -0.2369   -0.6684   -1.5868 H   0  0  0  0  0  0  0  0  0  0  0  0
    3.3703    0.7000    0.2720 N   0  0  0  0  0  0  0  0  0  0  0  0
    4.4731    0.6810    0.3396 N   0  0  0  0  0  0  0  0  0  0  0  0
   -4.0864    1.0519   -0.4313 H   0  0  0  0  0  0  0  0  0  0  0  0
   -2.9369    2.4390    1.3230 H   0  0  0  0  0  0  0  0  0  0  0  0
   -0.4365    2.2861    1.6349 H   0  0  0  0  0  0  0  0  0  0  0  0
  1  2  2  0  0  0  0
  1  6  1  0  0  0  0
  2  3  1  0  0  0  0
  3  4  2  0  0  0  0
  4 13  1  0  0  0  0
  5  4  1  0  0  0  0
  5 12  1  0  0  0  0
  6  5  2  0  0  0  0
  7  1  1  0  0  0  0
  8  2  1  0  0  0  0
  9 10  3  0  0  0  0
 11  6  1  0  0  0  0
M  RAD  1   3   2
M  END
