Coordinates from ORCA-job Ph-N2+-B3LYPG-6-31G_dp-MTMO-d009-169-n800
 OpenBabel09051908213D

 13 12  0  0  0  0  0  0  0  0999 V2000
   -2.9057    0.3781   -1.0608 C   0  0  0  0  0  0  0  0  0  0  0  0
   -2.7610   -0.6141   -0.0331 C   0  0  0  0  0  0  0  0  0  0  0  0
   -3.3121   -0.0515    1.0346 C   0  0  0  0  0  0  0  0  0  0  0  0
   -3.9245    1.0065    1.5505 C   0  0  0  0  0  0  0  0  0  0  0  0
   -4.0161    1.9236    0.4496 C   0  0  0  0  0  0  0  0  0  0  0  0
   -3.5177    1.6072   -0.8143 C   0  0  0  0  0  0  0  0  0  0  0  0
   -2.5095    0.1050   -2.0360 H   0  0  0  0  0  0  0  0  0  0  0  0
   -2.2981   -1.5832   -0.1739 H   0  0  0  0  0  0  0  0  0  0  0  0
   11.9511    1.0764   -0.8314 N   0  0  0  0  0  0  0  0  0  0  0  0
   13.0561    1.1000   -0.8387 N   0  0  0  0  0  0  0  0  0  0  0  0
   -3.6078    2.3289   -1.6191 H   0  0  0  0  0  0  0  0  0  0  0  0
   -4.4954    2.8747    0.6703 H   0  0  0  0  0  0  0  0  0  0  0  0
   -4.2931    1.2059    2.5492 H   0  0  0  0  0  0  0  0  0  0  0  0
  1  6  2  0  0  0  0
  1  2  1  0  0  0  0
  2  3  2  0  0  0  0
  3  4  1  0  0  0  0
  4 13  1  0  0  0  0
  5 12  1  0  0  0  0
  5  4  2  0  0  0  0
  6  5  1  0  0  0  0
  7  1  1  0  0  0  0
  8  2  1  0  0  0  0
 10  9  3  0  0  0  0
 11  6  1  0  0  0  0
M  RAD  1   3   2
M  END
