Coordinates from ORCA-job Ph-N2+-B3LYPG-6-31G_dp-MTMO-d009-169-n800
 OpenBabel09051908203D

 13 12  0  0  0  0  0  0  0  0999 V2000
   -2.6583    0.2126   -1.1809 C   0  0  0  0  0  0  0  0  0  0  0  0
   -1.5314   -0.3557   -0.4970 C   0  0  0  0  0  0  0  0  0  0  0  0
   -1.4105    0.3890    0.5945 C   0  0  0  0  0  0  0  0  0  0  0  0
   -1.8678    1.4109    1.3068 C   0  0  0  0  0  0  0  0  0  0  0  0
   -2.9792    1.8974    0.5395 C   0  0  0  0  0  0  0  0  0  0  0  0
   -3.3538    1.3073   -0.6676 C   0  0  0  0  0  0  0  0  0  0  0  0
   -2.9288   -0.2665   -2.1188 H   0  0  0  0  0  0  0  0  0  0  0  0
   -0.9598   -1.2044   -0.8525 H   0  0  0  0  0  0  0  0  0  0  0  0
    6.5961    0.8006   -0.1198 N   0  0  0  0  0  0  0  0  0  0  0  0
    7.6985    0.8736   -0.1501 N   0  0  0  0  0  0  0  0  0  0  0  0
   -4.2000    1.7065   -1.2160 H   0  0  0  0  0  0  0  0  0  0  0  0
   -3.5021    2.7523    0.9618 H   0  0  0  0  0  0  0  0  0  0  0  0
   -1.5365    1.8342    2.2469 H   0  0  0  0  0  0  0  0  0  0  0  0
  1  6  2  0  0  0  0
  1  2  1  0  0  0  0
  2  3  2  0  0  0  0
  3  4  1  0  0  0  0
  4 13  1  0  0  0  0
  5 12  1  0  0  0  0
  5  4  2  0  0  0  0
  6  5  1  0  0  0  0
  7  1  1  0  0  0  0
  8  2  1  0  0  0  0
 10  9  3  0  0  0  0
 11  6  1  0  0  0  0
M  RAD  1   3   2
M  END
