Coordinates from ORCA-job Ph-N2+-B3LYPG-6-31G_dp-MTMO-d009-169-n800
 OpenBabel09051908213D

 13 12  0  0  0  0  0  0  0  0999 V2000
   -3.1843    0.2440   -1.1988 C   0  0  0  0  0  0  0  0  0  0  0  0
   -2.6901   -0.6920   -0.2287 C   0  0  0  0  0  0  0  0  0  0  0  0
   -2.7113   -0.0124    0.9106 C   0  0  0  0  0  0  0  0  0  0  0  0
   -2.9844    1.1312    1.5255 C   0  0  0  0  0  0  0  0  0  0  0  0
   -3.4646    1.9830    0.4742 C   0  0  0  0  0  0  0  0  0  0  0  0
   -3.5570    1.5410   -0.8456 C   0  0  0  0  0  0  0  0  0  0  0  0
   -3.2460   -0.1269   -2.2195 H   0  0  0  0  0  0  0  0  0  0  0  0
   -2.3861   -1.7071   -0.4527 H   0  0  0  0  0  0  0  0  0  0  0  0
   10.5268    1.1660   -0.4068 N   0  0  0  0  0  0  0  0  0  0  0  0
   11.6310    1.1997   -0.4431 N   0  0  0  0  0  0  0  0  0  0  0  0
   -3.9244    2.2171   -1.6100 H   0  0  0  0  0  0  0  0  0  0  0  0
   -3.7495    2.9876    0.7779 H   0  0  0  0  0  0  0  0  0  0  0  0
   -2.8938    1.4266    2.5638 H   0  0  0  0  0  0  0  0  0  0  0  0
  1  6  2  0  0  0  0
  1  2  1  0  0  0  0
  2  3  2  0  0  0  0
  3  4  1  0  0  0  0
  4 13  1  0  0  0  0
  5 12  1  0  0  0  0
  5  4  2  0  0  0  0
  6  5  1  0  0  0  0
  7  1  1  0  0  0  0
  8  2  1  0  0  0  0
 10  9  3  0  0  0  0
 11  6  1  0  0  0  0
M  RAD  1   3   2
M  END
