Coordinates from ORCA-job Ph-N2+-B3LYPG-6-31G_dp-MTMO-d009-169-n800
 OpenBabel09051908203D

 13 12  0  0  0  0  0  0  0  0999 V2000
   -2.8808    0.2130   -1.1828 C   0  0  0  0  0  0  0  0  0  0  0  0
   -1.8375   -0.4445   -0.4480 C   0  0  0  0  0  0  0  0  0  0  0  0
   -1.7046    0.2924    0.6475 C   0  0  0  0  0  0  0  0  0  0  0  0
   -2.1072    1.3514    1.3380 C   0  0  0  0  0  0  0  0  0  0  0  0
   -3.1379    1.9259    0.5204 C   0  0  0  0  0  0  0  0  0  0  0  0
   -3.5051    1.3640   -0.7023 C   0  0  0  0  0  0  0  0  0  0  0  0
   -3.1472   -0.2457   -2.1321 H   0  0  0  0  0  0  0  0  0  0  0  0
   -1.3231   -1.3391   -0.7769 H   0  0  0  0  0  0  0  0  0  0  0  0
    7.7936    0.8966   -0.1504 N   0  0  0  0  0  0  0  0  0  0  0  0
    8.8973    0.9415   -0.1881 N   0  0  0  0  0  0  0  0  0  0  0  0
   -4.2892    1.8301   -1.2891 H   0  0  0  0  0  0  0  0  0  0  0  0
   -3.6065    2.8229    0.9182 H   0  0  0  0  0  0  0  0  0  0  0  0
   -1.7853    1.7491    2.2925 H   0  0  0  0  0  0  0  0  0  0  0  0
  1  6  2  0  0  0  0
  1  2  1  0  0  0  0
  2  3  2  0  0  0  0
  3  4  1  0  0  0  0
  4 13  1  0  0  0  0
  5 12  1  0  0  0  0
  5  4  2  0  0  0  0
  6  5  1  0  0  0  0
  7  1  1  0  0  0  0
  8  2  1  0  0  0  0
 10  9  3  0  0  0  0
 11  6  1  0  0  0  0
M  RAD  1   3   2
M  END
