Coordinates from ORCA-job Ph-N2+-B3LYPG-6-31G_dp-MTMO-d009-169-n800
 OpenBabel09051908213D

 13 12  0  0  0  0  0  0  0  0999 V2000
   -2.6994    0.3981   -1.0342 C   0  0  0  0  0  0  0  0  0  0  0  0
   -2.6150   -0.6087   -0.0138 C   0  0  0  0  0  0  0  0  0  0  0  0
   -3.2311   -0.0623    1.0265 C   0  0  0  0  0  0  0  0  0  0  0  0
   -3.8754    0.9875    1.5197 C   0  0  0  0  0  0  0  0  0  0  0  0
   -3.9023    1.9203    0.4284 C   0  0  0  0  0  0  0  0  0  0  0  0
   -3.3276    1.6227   -0.8075 C   0  0  0  0  0  0  0  0  0  0  0  0
   -2.2450    0.1392   -1.9877 H   0  0  0  0  0  0  0  0  0  0  0  0
   -2.1427   -1.5753   -0.1403 H   0  0  0  0  0  0  0  0  0  0  0  0
   11.1844    1.0612   -0.8237 N   0  0  0  0  0  0  0  0  0  0  0  0
   12.2893    1.0788   -0.8456 N   0  0  0  0  0  0  0  0  0  0  0  0
   -3.3700    2.3561   -1.6058 H   0  0  0  0  0  0  0  0  0  0  0  0
   -4.3958    2.8676    0.6334 H   0  0  0  0  0  0  0  0  0  0  0  0
   -4.3032    1.1725    2.4973 H   0  0  0  0  0  0  0  0  0  0  0  0
  1  6  2  0  0  0  0
  1  2  1  0  0  0  0
  2  3  2  0  0  0  0
  3  4  1  0  0  0  0
  4 13  1  0  0  0  0
  5 12  1  0  0  0  0
  5  4  2  0  0  0  0
  6  5  1  0  0  0  0
  7  1  1  0  0  0  0
  8  2  1  0  0  0  0
 10  9  3  0  0  0  0
 11  6  1  0  0  0  0
M  RAD  1   3   2
M  END
