Coordinates from ORCA-job Ph-N2+-B3LYPG-6-31G_dp-MTMO-d009-169-n800
 OpenBabel09051908203D

 13 12  0  0  0  0  0  0  0  0999 V2000
   -2.4768    0.1418   -1.1335 C   0  0  0  0  0  0  0  0  0  0  0  0
   -1.0731   -0.0406   -0.8942 C   0  0  0  0  0  0  0  0  0  0  0  0
   -0.8110    0.7825    0.1128 C   0  0  0  0  0  0  0  0  0  0  0  0
   -1.2746    1.6810    0.9719 C   0  0  0  0  0  0  0  0  0  0  0  0
   -2.6688    1.7843    0.6464 C   0  0  0  0  0  0  0  0  0  0  0  0
   -3.2415    1.0317   -0.3792 C   0  0  0  0  0  0  0  0  0  0  0  0
   -2.8974   -0.4566   -1.9385 H   0  0  0  0  0  0  0  0  0  0  0  0
   -0.4359   -0.7162   -1.4521 H   0  0  0  0  0  0  0  0  0  0  0  0
    4.7316    0.6422    0.2389 N   0  0  0  0  0  0  0  0  0  0  0  0
    5.8366    0.6399    0.2613 N   0  0  0  0  0  0  0  0  0  0  0  0
   -4.2991    1.1411   -0.5944 H   0  0  0  0  0  0  0  0  0  0  0  0
   -3.2416    2.4845    1.2504 H   0  0  0  0  0  0  0  0  0  0  0  0
   -0.7822    2.2421    1.7569 H   0  0  0  0  0  0  0  0  0  0  0  0
  1  2  2  0  0  0  0
  1  6  1  0  0  0  0
  2  3  1  0  0  0  0
  3  4  2  0  0  0  0
  4 13  1  0  0  0  0
  5  4  1  0  0  0  0
  5 12  1  0  0  0  0
  6  5  2  0  0  0  0
  7  1  1  0  0  0  0
  8  2  1  0  0  0  0
  9 10  3  0  0  0  0
 11  6  1  0  0  0  0
M  RAD  1   3   2
M  END
