Coordinates from ORCA-job Ph-N2+-B3LYPG-6-31G_dp-MTMO-d009-169-n800
 OpenBabel09051908213D

 13 12  0  0  0  0  0  0  0  0999 V2000
   -3.1661    0.2512   -1.1960 C   0  0  0  0  0  0  0  0  0  0  0  0
   -2.7156   -0.6930   -0.2128 C   0  0  0  0  0  0  0  0  0  0  0  0
   -2.7801   -0.0204    0.9291 C   0  0  0  0  0  0  0  0  0  0  0  0
   -3.0726    1.1207    1.5396 C   0  0  0  0  0  0  0  0  0  0  0  0
   -3.5063    1.9812    0.4753 C   0  0  0  0  0  0  0  0  0  0  0  0
   -3.5472    1.5477   -0.8500 C   0  0  0  0  0  0  0  0  0  0  0  0
   -3.1880   -0.1132   -2.2207 H   0  0  0  0  0  0  0  0  0  0  0  0
   -2.4072   -1.7081   -0.4308 H   0  0  0  0  0  0  0  0  0  0  0  0
   10.6741    1.1682   -0.4406 N   0  0  0  0  0  0  0  0  0  0  0  0
   11.7783    1.1990   -0.4781 N   0  0  0  0  0  0  0  0  0  0  0  0
   -3.8807    2.2300   -1.6243 H   0  0  0  0  0  0  0  0  0  0  0  0
   -3.7991    2.9852    0.7735 H   0  0  0  0  0  0  0  0  0  0  0  0
   -3.0233    1.4092    2.5826 H   0  0  0  0  0  0  0  0  0  0  0  0
  1  6  2  0  0  0  0
  1  2  1  0  0  0  0
  2  3  2  0  0  0  0
  3  4  1  0  0  0  0
  4 13  1  0  0  0  0
  5 12  1  0  0  0  0
  5  4  2  0  0  0  0
  6  5  1  0  0  0  0
  7  1  1  0  0  0  0
  8  2  1  0  0  0  0
 10  9  3  0  0  0  0
 11  6  1  0  0  0  0
M  RAD  1   3   2
M  END
