Coordinates from ORCA-job Ph-N2+-B3LYPG-6-31G_dp-MTMO-d009-169-n800
 OpenBabel09051908213D

 13 12  0  0  0  0  0  0  0  0999 V2000
   -3.0252    0.2992   -1.1800 C   0  0  0  0  0  0  0  0  0  0  0  0
   -2.5950   -0.6281   -0.1719 C   0  0  0  0  0  0  0  0  0  0  0  0
   -2.8328    0.0066    0.9687 C   0  0  0  0  0  0  0  0  0  0  0  0
   -3.2827    1.1030    1.5655 C   0  0  0  0  0  0  0  0  0  0  0  0
   -3.6809    1.9503    0.4770 C   0  0  0  0  0  0  0  0  0  0  0  0
   -3.5509    1.5491   -0.8527 C   0  0  0  0  0  0  0  0  0  0  0  0
   -2.9118   -0.0389   -2.2076 H   0  0  0  0  0  0  0  0  0  0  0  0
   -2.1800   -1.6078   -0.3738 H   0  0  0  0  0  0  0  0  0  0  0  0
   10.8175    1.1007   -0.5329 N   0  0  0  0  0  0  0  0  0  0  0  0
   11.9219    1.1165   -0.5739 N   0  0  0  0  0  0  0  0  0  0  0  0
   -3.8635    2.2202   -1.6452 H   0  0  0  0  0  0  0  0  0  0  0  0
   -4.0870    2.9184    0.7610 H   0  0  0  0  0  0  0  0  0  0  0  0
   -3.3632    1.3685    2.6126 H   0  0  0  0  0  0  0  0  0  0  0  0
  1  6  2  0  0  0  0
  1  2  1  0  0  0  0
  2  3  2  0  0  0  0
  3  4  1  0  0  0  0
  4 13  1  0  0  0  0
  5 12  1  0  0  0  0
  5  4  2  0  0  0  0
  6  5  1  0  0  0  0
  7  1  1  0  0  0  0
  8  2  1  0  0  0  0
 10  9  3  0  0  0  0
 11  6  1  0  0  0  0
M  RAD  1   3   2
M  END
