Coordinates from ORCA-job Ph-N2+-B3LYPG-6-31G_dp-MTMO-d009-169-n800
 OpenBabel09051908213D

 13 12  0  0  0  0  0  0  0  0999 V2000
   -3.0012    0.3932   -1.0268 C   0  0  0  0  0  0  0  0  0  0  0  0
   -2.8922   -0.6073   -0.0027 C   0  0  0  0  0  0  0  0  0  0  0  0
   -3.4957   -0.0602    1.0445 C   0  0  0  0  0  0  0  0  0  0  0  0
   -4.1405    0.9871    1.5425 C   0  0  0  0  0  0  0  0  0  0  0  0
   -4.1926    1.9137    0.4469 C   0  0  0  0  0  0  0  0  0  0  0  0
   -3.6356    1.6140   -0.7965 C   0  0  0  0  0  0  0  0  0  0  0  0
   -2.5601    0.1329   -1.9862 H   0  0  0  0  0  0  0  0  0  0  0  0
   -2.4142   -1.5707   -0.1317 H   0  0  0  0  0  0  0  0  0  0  0  0
   12.7674    1.0794   -0.9077 N   0  0  0  0  0  0  0  0  0  0  0  0
   13.8724    1.1011   -0.9183 N   0  0  0  0  0  0  0  0  0  0  0  0
   -3.6970    2.3426   -1.5979 H   0  0  0  0  0  0  0  0  0  0  0  0
   -4.6903    2.8581    0.6548 H   0  0  0  0  0  0  0  0  0  0  0  0
   -4.5541    1.1739    2.5259 H   0  0  0  0  0  0  0  0  0  0  0  0
  1  6  2  0  0  0  0
  1  2  1  0  0  0  0
  2  3  2  0  0  0  0
  3  4  1  0  0  0  0
  4 13  1  0  0  0  0
  5 12  1  0  0  0  0
  5  4  2  0  0  0  0
  6  5  1  0  0  0  0
  7  1  1  0  0  0  0
  8  2  1  0  0  0  0
 10  9  3  0  0  0  0
 11  6  1  0  0  0  0
M  RAD  1   3   2
M  END
