Coordinates from ORCA-job Ph-N2+-B3LYPG-6-31G_dp-MTMO-d009-169-n800
 OpenBabel09051908203D

 13 12  0  0  0  0  0  0  0  0999 V2000
   -2.6929    0.2131   -1.1813 C   0  0  0  0  0  0  0  0  0  0  0  0
   -1.5775   -0.3680   -0.4892 C   0  0  0  0  0  0  0  0  0  0  0  0
   -1.4563    0.3753    0.6033 C   0  0  0  0  0  0  0  0  0  0  0  0
   -1.9073    1.4023    1.3123 C   0  0  0  0  0  0  0  0  0  0  0  0
   -3.0074    1.9014    0.5368 C   0  0  0  0  0  0  0  0  0  0  0  0
   -3.3797    1.3156   -0.6731 C   0  0  0  0  0  0  0  0  0  0  0  0
   -2.9618   -0.2629   -2.1213 H   0  0  0  0  0  0  0  0  0  0  0  0
   -1.0130   -1.2231   -0.8405 H   0  0  0  0  0  0  0  0  0  0  0  0
    6.7892    0.8156   -0.1240 N   0  0  0  0  0  0  0  0  0  0  0  0
    7.8920    0.8802   -0.1585 N   0  0  0  0  0  0  0  0  0  0  0  0
   -4.2172    1.7244   -1.2277 H   0  0  0  0  0  0  0  0  0  0  0  0
   -3.5237    2.7622    0.9552 H   0  0  0  0  0  0  0  0  0  0  0  0
   -1.5782    1.8218    2.2548 H   0  0  0  0  0  0  0  0  0  0  0  0
  1  6  2  0  0  0  0
  1  2  1  0  0  0  0
  2  3  2  0  0  0  0
  3  4  1  0  0  0  0
  4 13  1  0  0  0  0
  5 12  1  0  0  0  0
  5  4  2  0  0  0  0
  6  5  1  0  0  0  0
  7  1  1  0  0  0  0
  8  2  1  0  0  0  0
 10  9  3  0  0  0  0
 11  6  1  0  0  0  0
M  RAD  1   3   2
M  END
