Coordinates from ORCA-job Ph-N2+-B3LYPG-6-31G_dp-MTMO-d009-169-n800
 OpenBabel09051908203D

 13 12  0  0  0  0  0  0  0  0999 V2000
   -3.1361    0.2077   -1.1834 C   0  0  0  0  0  0  0  0  0  0  0  0
   -2.2204   -0.5656   -0.3931 C   0  0  0  0  0  0  0  0  0  0  0  0
   -2.0496    0.1628    0.7026 C   0  0  0  0  0  0  0  0  0  0  0  0
   -2.3494    1.2722    1.3657 C   0  0  0  0  0  0  0  0  0  0  0  0
   -3.2590    1.9608    0.4940 C   0  0  0  0  0  0  0  0  0  0  0  0
   -3.6338    1.4337   -0.7419 C   0  0  0  0  0  0  0  0  0  0  0  0
   -3.4110   -0.2258   -2.1421 H   0  0  0  0  0  0  0  0  0  0  0  0
   -1.8058   -1.5208   -0.6909 H   0  0  0  0  0  0  0  0  0  0  0  0
    9.0549    1.0257   -0.1794 N   0  0  0  0  0  0  0  0  0  0  0  0
   10.1589    1.0683   -0.2097 N   0  0  0  0  0  0  0  0  0  0  0  0
   -4.3234    1.9869   -1.3705 H   0  0  0  0  0  0  0  0  0  0  0  0
   -3.6312    2.9136    0.8625 H   0  0  0  0  0  0  0  0  0  0  0  0
   -2.0278    1.6381    2.3329 H   0  0  0  0  0  0  0  0  0  0  0  0
  1  6  2  0  0  0  0
  1  2  1  0  0  0  0
  2  3  2  0  0  0  0
  3  4  1  0  0  0  0
  4 13  1  0  0  0  0
  5 12  1  0  0  0  0
  5  4  2  0  0  0  0
  6  5  1  0  0  0  0
  7  1  1  0  0  0  0
  8  2  1  0  0  0  0
 10  9  3  0  0  0  0
 11  6  1  0  0  0  0
M  RAD  1   3   2
M  END
