Coordinates from ORCA-job Ph-N2+-B3LYPG-6-31G_dp-MTMO-d009-169-n800
 OpenBabel09051908213D

 13 12  0  0  0  0  0  0  0  0999 V2000
   -2.9939    0.3979   -1.0185 C   0  0  0  0  0  0  0  0  0  0  0  0
   -2.8955   -0.6051    0.0040 C   0  0  0  0  0  0  0  0  0  0  0  0
   -3.5135   -0.0622    1.0451 C   0  0  0  0  0  0  0  0  0  0  0  0
   -4.1673    0.9820    1.5376 C   0  0  0  0  0  0  0  0  0  0  0  0
   -4.2075    1.9116    0.4439 C   0  0  0  0  0  0  0  0  0  0  0  0
   -3.6340    1.6166   -0.7930 C   0  0  0  0  0  0  0  0  0  0  0  0
   -2.5403    0.1412   -1.9730 H   0  0  0  0  0  0  0  0  0  0  0  0
   -2.4135   -1.5669   -0.1218 H   0  0  0  0  0  0  0  0  0  0  0  0
   12.8088    1.0773   -0.9184 N   0  0  0  0  0  0  0  0  0  0  0  0
   13.9138    1.0991   -0.9299 N   0  0  0  0  0  0  0  0  0  0  0  0
   -3.6869    2.3473   -1.5932 H   0  0  0  0  0  0  0  0  0  0  0  0
   -4.7101    2.8543    0.6478 H   0  0  0  0  0  0  0  0  0  0  0  0
   -4.5939    1.1648    2.5162 H   0  0  0  0  0  0  0  0  0  0  0  0
  1  6  2  0  0  0  0
  1  2  1  0  0  0  0
  2  3  2  0  0  0  0
  3  4  1  0  0  0  0
  4 13  1  0  0  0  0
  5 12  1  0  0  0  0
  5  4  2  0  0  0  0
  6  5  1  0  0  0  0
  7  1  1  0  0  0  0
  8  2  1  0  0  0  0
 10  9  3  0  0  0  0
 11  6  1  0  0  0  0
M  RAD  1   3   2
M  END
