Coordinates from ORCA-job Ph-N2+-B3LYPG-6-31G_dp-MTMO-d009-169-n800
 OpenBabel09051908213D

 13 12  0  0  0  0  0  0  0  0999 V2000
   -2.7727    0.3813   -1.0625 C   0  0  0  0  0  0  0  0  0  0  0  0
   -2.6423   -0.6145   -0.0364 C   0  0  0  0  0  0  0  0  0  0  0  0
   -3.2030   -0.0532    1.0271 C   0  0  0  0  0  0  0  0  0  0  0  0
   -3.8175    1.0052    1.5397 C   0  0  0  0  0  0  0  0  0  0  0  0
   -3.8943    1.9259    0.4406 C   0  0  0  0  0  0  0  0  0  0  0  0
   -3.3834    1.6116   -0.8189 C   0  0  0  0  0  0  0  0  0  0  0  0
   -2.3672    0.1097   -2.0344 H   0  0  0  0  0  0  0  0  0  0  0  0
   -2.1812   -1.5846   -0.1751 H   0  0  0  0  0  0  0  0  0  0  0  0
   11.2770    1.0676   -0.7947 N   0  0  0  0  0  0  0  0  0  0  0  0
   12.3819    1.0916   -0.8101 N   0  0  0  0  0  0  0  0  0  0  0  0
   -3.4624    2.3361   -1.6224 H   0  0  0  0  0  0  0  0  0  0  0  0
   -4.3727    2.8779    0.6590 H   0  0  0  0  0  0  0  0  0  0  0  0
   -4.1959    1.2030    2.5350 H   0  0  0  0  0  0  0  0  0  0  0  0
  1  6  2  0  0  0  0
  1  2  1  0  0  0  0
  2  3  2  0  0  0  0
  3  4  1  0  0  0  0
  4 13  1  0  0  0  0
  5 12  1  0  0  0  0
  5  4  2  0  0  0  0
  6  5  1  0  0  0  0
  7  1  1  0  0  0  0
  8  2  1  0  0  0  0
 10  9  3  0  0  0  0
 11  6  1  0  0  0  0
M  RAD  1   3   2
M  END
