Coordinates from ORCA-job Ph-N2+-B3LYPG-6-31G_dp-MTMO-d009-169-n800
 OpenBabel09051908213D

 13 12  0  0  0  0  0  0  0  0999 V2000
   -3.0450    0.3918   -1.0263 C   0  0  0  0  0  0  0  0  0  0  0  0
   -2.9328   -0.6079   -0.0017 C   0  0  0  0  0  0  0  0  0  0  0  0
   -3.5332   -0.0600    1.0469 C   0  0  0  0  0  0  0  0  0  0  0  0
   -4.1767    0.9875    1.5461 C   0  0  0  0  0  0  0  0  0  0  0  0
   -4.2321    1.9133    0.4499 C   0  0  0  0  0  0  0  0  0  0  0  0
   -3.6789    1.6126   -0.7950 C   0  0  0  0  0  0  0  0  0  0  0  0
   -2.6068    0.1307   -1.9867 H   0  0  0  0  0  0  0  0  0  0  0  0
   -2.4552   -1.5714   -0.1314 H   0  0  0  0  0  0  0  0  0  0  0  0
   12.9908    1.0833   -0.9189 N   0  0  0  0  0  0  0  0  0  0  0  0
   14.0958    1.1044   -0.9285 N   0  0  0  0  0  0  0  0  0  0  0  0
   -3.7429    2.3406   -1.5968 H   0  0  0  0  0  0  0  0  0  0  0  0
   -4.7293    2.8578    0.6586 H   0  0  0  0  0  0  0  0  0  0  0  0
   -4.5873    1.1750    2.5306 H   0  0  0  0  0  0  0  0  0  0  0  0
  1  6  2  0  0  0  0
  1  2  1  0  0  0  0
  2  3  2  0  0  0  0
  3  4  1  0  0  0  0
  4 13  1  0  0  0  0
  5 12  1  0  0  0  0
  5  4  2  0  0  0  0
  6  5  1  0  0  0  0
  7  1  1  0  0  0  0
  8  2  1  0  0  0  0
 10  9  3  0  0  0  0
 11  6  1  0  0  0  0
M  RAD  1   3   2
M  END
