Coordinates from ORCA-job Ph-N2+-B3LYPG-6-31G_dp-MTMO-d009-169-n800
 OpenBabel09051908213D

 13 12  0  0  0  0  0  0  0  0999 V2000
   -3.1989    0.2304   -1.1996 C   0  0  0  0  0  0  0  0  0  0  0  0
   -2.5942   -0.6798   -0.2684 C   0  0  0  0  0  0  0  0  0  0  0  0
   -2.5303    0.0136    0.8611 C   0  0  0  0  0  0  0  0  0  0  0  0
   -2.7731    1.1593    1.4847 C   0  0  0  0  0  0  0  0  0  0  0  0
   -3.3694    1.9846    0.4724 C   0  0  0  0  0  0  0  0  0  0  0  0
   -3.5706    1.5226   -0.8284 C   0  0  0  0  0  0  0  0  0  0  0  0
   -3.3443   -0.1556   -2.2060 H   0  0  0  0  0  0  0  0  0  0  0  0
   -2.2859   -1.6901   -0.5078 H   0  0  0  0  0  0  0  0  0  0  0  0
   10.0981    1.1474   -0.3286 N   0  0  0  0  0  0  0  0  0  0  0  0
   11.2020    1.1881   -0.3645 N   0  0  0  0  0  0  0  0  0  0  0  0
   -4.0225    2.1794   -1.5637 H   0  0  0  0  0  0  0  0  0  0  0  0
   -3.6502    2.9862    0.7893 H   0  0  0  0  0  0  0  0  0  0  0  0
   -2.5943    1.4715    2.5063 H   0  0  0  0  0  0  0  0  0  0  0  0
  1  6  2  0  0  0  0
  1  2  1  0  0  0  0
  2  3  2  0  0  0  0
  3  4  1  0  0  0  0
  4 13  1  0  0  0  0
  5 12  1  0  0  0  0
  5  4  2  0  0  0  0
  6  5  1  0  0  0  0
  7  1  1  0  0  0  0
  8  2  1  0  0  0  0
 10  9  3  0  0  0  0
 11  6  1  0  0  0  0
M  RAD  1   3   2
M  END
