Coordinates from ORCA-job Ph-N2+-B3LYPG-6-31G_dp-MTMO-d009-169-n800
 OpenBabel09051908203D

 13 12  0  0  0  0  0  0  0  0999 V2000
   -3.1095    0.2074   -1.1829 C   0  0  0  0  0  0  0  0  0  0  0  0
   -2.1784   -0.5555   -0.4002 C   0  0  0  0  0  0  0  0  0  0  0  0
   -2.0060    0.1756    0.6935 C   0  0  0  0  0  0  0  0  0  0  0  0
   -2.3146    1.2803    1.3602 C   0  0  0  0  0  0  0  0  0  0  0  0
   -3.2393    1.9585    0.4962 C   0  0  0  0  0  0  0  0  0  0  0  0
   -3.6178    1.4273   -0.7368 C   0  0  0  0  0  0  0  0  0  0  0  0
   -3.3870   -0.2292   -2.1393 H   0  0  0  0  0  0  0  0  0  0  0  0
   -1.7559   -1.5061   -0.7014 H   0  0  0  0  0  0  0  0  0  0  0  0
    8.9001    1.0137   -0.1732 N   0  0  0  0  0  0  0  0  0  0  0  0
   10.0041    1.0573   -0.2036 N   0  0  0  0  0  0  0  0  0  0  0  0
   -4.3193    1.9723   -1.3593 H   0  0  0  0  0  0  0  0  0  0  0  0
   -3.6196    2.9068    0.8681 H   0  0  0  0  0  0  0  0  0  0  0  0
   -1.9904    1.6492    2.3254 H   0  0  0  0  0  0  0  0  0  0  0  0
  1  6  2  0  0  0  0
  1  2  1  0  0  0  0
  2  3  2  0  0  0  0
  3  4  1  0  0  0  0
  4 13  1  0  0  0  0
  5 12  1  0  0  0  0
  5  4  2  0  0  0  0
  6  5  1  0  0  0  0
  7  1  1  0  0  0  0
  8  2  1  0  0  0  0
 10  9  3  0  0  0  0
 11  6  1  0  0  0  0
M  RAD  1   3   2
M  END
