Coordinates from ORCA-job Ph-N2+-B3LYPG-6-31G_dp-MTMO-d009-169-n800
 OpenBabel09051908203D

 13 12  0  0  0  0  0  0  0  0999 V2000
   -2.5300    0.1511   -1.1416 C   0  0  0  0  0  0  0  0  0  0  0  0
   -1.1391   -0.0644   -0.8591 C   0  0  0  0  0  0  0  0  0  0  0  0
   -0.8894    0.7511    0.1573 C   0  0  0  0  0  0  0  0  0  0  0  0
   -1.3586    1.6590    1.0035 C   0  0  0  0  0  0  0  0  0  0  0  0
   -2.7393    1.7949    0.6349 C   0  0  0  0  0  0  0  0  0  0  0  0
   -3.2971    1.0574   -0.4095 C   0  0  0  0  0  0  0  0  0  0  0  0
   -2.9390   -0.4362   -1.9607 H   0  0  0  0  0  0  0  0  0  0  0  0
   -0.5008   -0.7539   -1.3983 H   0  0  0  0  0  0  0  0  0  0  0  0
    5.0957    0.6437    0.2205 N   0  0  0  0  0  0  0  0  0  0  0  0
    6.2008    0.6481    0.2304 N   0  0  0  0  0  0  0  0  0  0  0  0
   -4.3445    1.1917   -0.6573 H   0  0  0  0  0  0  0  0  0  0  0  0
   -3.3141    2.5075    1.2223 H   0  0  0  0  0  0  0  0  0  0  0  0
   -0.8782    2.2076    1.8044 H   0  0  0  0  0  0  0  0  0  0  0  0
  1  2  2  0  0  0  0
  1  6  1  0  0  0  0
  2  3  1  0  0  0  0
  3  4  2  0  0  0  0
  4 13  1  0  0  0  0
  5  4  1  0  0  0  0
  5 12  1  0  0  0  0
  6  5  2  0  0  0  0
  7  1  1  0  0  0  0
  8  2  1  0  0  0  0
  9 10  3  0  0  0  0
 11  6  1  0  0  0  0
M  RAD  1   3   2
M  END
