Coordinates from ORCA-job Ph-N2+-B3LYPG-6-31G_dp-MTMO-d009-169-n800
 OpenBabel09051908213D

 13 12  0  0  0  0  0  0  0  0999 V2000
   -2.9377    0.3791   -1.0566 C   0  0  0  0  0  0  0  0  0  0  0  0
   -2.7958   -0.6137   -0.0292 C   0  0  0  0  0  0  0  0  0  0  0  0
   -3.3515   -0.0525    1.0369 C   0  0  0  0  0  0  0  0  0  0  0  0
   -3.9668    1.0045    1.5514 C   0  0  0  0  0  0  0  0  0  0  0  0
   -4.0553    1.9224    0.4508 C   0  0  0  0  0  0  0  0  0  0  0  0
   -3.5519    1.6074   -0.8115 C   0  0  0  0  0  0  0  0  0  0  0  0
   -2.5377    0.1071   -2.0306 H   0  0  0  0  0  0  0  0  0  0  0  0
   -2.3315   -1.5823   -0.1690 H   0  0  0  0  0  0  0  0  0  0  0  0
   12.1523    1.0784   -0.8447 N   0  0  0  0  0  0  0  0  0  0  0  0
   13.2573    1.1019   -0.8542 N   0  0  0  0  0  0  0  0  0  0  0  0
   -3.6397    2.3296   -1.6161 H   0  0  0  0  0  0  0  0  0  0  0  0
   -4.5363    2.8728    0.6704 H   0  0  0  0  0  0  0  0  0  0  0  0
   -4.3391    1.2029    2.5489 H   0  0  0  0  0  0  0  0  0  0  0  0
  1  6  2  0  0  0  0
  1  2  1  0  0  0  0
  2  3  2  0  0  0  0
  3  4  1  0  0  0  0
  4 13  1  0  0  0  0
  5 12  1  0  0  0  0
  5  4  2  0  0  0  0
  6  5  1  0  0  0  0
  7  1  1  0  0  0  0
  8  2  1  0  0  0  0
 10  9  3  0  0  0  0
 11  6  1  0  0  0  0
M  RAD  1   3   2
M  END
