Coordinates from ORCA-job Ph-N2+-B3LYPG-6-31G_dp-MTMO-d009-169-n800
 OpenBabel09051908213D

 13 12  0  0  0  0  0  0  0  0999 V2000
   -3.1983    0.2315   -1.1999 C   0  0  0  0  0  0  0  0  0  0  0  0
   -2.6073   -0.6829   -0.2639 C   0  0  0  0  0  0  0  0  0  0  0  0
   -2.5484    0.0101    0.8661 C   0  0  0  0  0  0  0  0  0  0  0  0
   -2.7927    1.1557    1.4891 C   0  0  0  0  0  0  0  0  0  0  0  0
   -3.3750    1.9853    0.4721 C   0  0  0  0  0  0  0  0  0  0  0  0
   -3.5666    1.5254   -0.8309 C   0  0  0  0  0  0  0  0  0  0  0  0
   -3.3369   -0.1532   -2.2077 H   0  0  0  0  0  0  0  0  0  0  0  0
   -2.3035   -1.6950   -0.5011 H   0  0  0  0  0  0  0  0  0  0  0  0
   10.1386    1.1512   -0.3360 N   0  0  0  0  0  0  0  0  0  0  0  0
   11.2426    1.1915   -0.3719 N   0  0  0  0  0  0  0  0  0  0  0  0
   -4.0089    2.1850   -1.5696 H   0  0  0  0  0  0  0  0  0  0  0  0
   -3.6541    2.9879    0.7874 H   0  0  0  0  0  0  0  0  0  0  0  0
   -2.6232    1.4653    2.5131 H   0  0  0  0  0  0  0  0  0  0  0  0
  1  6  2  0  0  0  0
  1  2  1  0  0  0  0
  2  3  2  0  0  0  0
  3  4  1  0  0  0  0
  4 13  1  0  0  0  0
  5 12  1  0  0  0  0
  5  4  2  0  0  0  0
  6  5  1  0  0  0  0
  7  1  1  0  0  0  0
  8  2  1  0  0  0  0
 10  9  3  0  0  0  0
 11  6  1  0  0  0  0
M  RAD  1   3   2
M  END
