Coordinates from ORCA-job Ph-N2+-B3LYPG-6-31G_dp-MTMO-d009-169-n800
 OpenBabel09051908203D

 13 12  0  0  0  0  0  0  0  0999 V2000
   -2.9134    0.2121   -1.1828 C   0  0  0  0  0  0  0  0  0  0  0  0
   -1.8844   -0.4605   -0.4414 C   0  0  0  0  0  0  0  0  0  0  0  0
   -1.7462    0.2755    0.6539 C   0  0  0  0  0  0  0  0  0  0  0  0
   -2.1360    1.3416    1.3410 C   0  0  0  0  0  0  0  0  0  0  0  0
   -3.1532    1.9310    0.5170 C   0  0  0  0  0  0  0  0  0  0  0  0
   -3.5223    1.3733   -0.7070 C   0  0  0  0  0  0  0  0  0  0  0  0
   -3.1816   -0.2435   -2.1331 H   0  0  0  0  0  0  0  0  0  0  0  0
   -1.3821   -1.3633   -0.7665 H   0  0  0  0  0  0  0  0  0  0  0  0
    7.9505    0.9125   -0.1536 N   0  0  0  0  0  0  0  0  0  0  0  0
    9.0542    0.9575   -0.1900 N   0  0  0  0  0  0  0  0  0  0  0  0
   -4.2958    1.8508   -1.2988 H   0  0  0  0  0  0  0  0  0  0  0  0
   -3.6100    2.8356    0.9112 H   0  0  0  0  0  0  0  0  0  0  0  0
   -1.8133    1.7353    2.2968 H   0  0  0  0  0  0  0  0  0  0  0  0
  1  6  2  0  0  0  0
  1  2  1  0  0  0  0
  2  3  2  0  0  0  0
  3  4  1  0  0  0  0
  4 13  1  0  0  0  0
  5 12  1  0  0  0  0
  5  4  2  0  0  0  0
  6  5  1  0  0  0  0
  7  1  1  0  0  0  0
  8  2  1  0  0  0  0
 10  9  3  0  0  0  0
 11  6  1  0  0  0  0
M  RAD  1   3   2
M  END
