Coordinates from ORCA-job Ph-N2+-B3LYPG-6-31G_dp-MTMO-d009-169-n800
 OpenBabel09051908203D

 13 12  0  0  0  0  0  0  0  0999 V2000
   -2.8628    0.2132   -1.1828 C   0  0  0  0  0  0  0  0  0  0  0  0
   -1.8119   -0.4368   -0.4518 C   0  0  0  0  0  0  0  0  0  0  0  0
   -1.6793    0.3021    0.6423 C   0  0  0  0  0  0  0  0  0  0  0  0
   -2.0886    1.3566    1.3358 C   0  0  0  0  0  0  0  0  0  0  0  0
   -3.1267    1.9237    0.5220 C   0  0  0  0  0  0  0  0  0  0  0  0
   -3.4940    1.3593   -0.6995 C   0  0  0  0  0  0  0  0  0  0  0  0
   -3.1291   -0.2473   -2.1312 H   0  0  0  0  0  0  0  0  0  0  0  0
   -1.2928   -1.3279   -0.7827 H   0  0  0  0  0  0  0  0  0  0  0  0
    7.6999    0.8889   -0.1479 N   0  0  0  0  0  0  0  0  0  0  0  0
    8.8036    0.9341   -0.1859 N   0  0  0  0  0  0  0  0  0  0  0  0
   -4.2841    1.8194   -1.2830 H   0  0  0  0  0  0  0  0  0  0  0  0
   -3.6007    2.8169    0.9218 H   0  0  0  0  0  0  0  0  0  0  0  0
   -1.7672    1.7557    2.2898 H   0  0  0  0  0  0  0  0  0  0  0  0
  1  6  2  0  0  0  0
  1  2  1  0  0  0  0
  2  3  2  0  0  0  0
  3  4  1  0  0  0  0
  4 13  1  0  0  0  0
  5 12  1  0  0  0  0
  5  4  2  0  0  0  0
  6  5  1  0  0  0  0
  7  1  1  0  0  0  0
  8  2  1  0  0  0  0
 10  9  3  0  0  0  0
 11  6  1  0  0  0  0
M  RAD  1   3   2
M  END
