Coordinates from ORCA-job Ph-N2+-B3LYPG-6-31G_dp-MTMO-d009-169-n800
 OpenBabel09051908213D

 13 12  0  0  0  0  0  0  0  0999 V2000
   -3.1925    0.2388   -1.1999 C   0  0  0  0  0  0  0  0  0  0  0  0
   -2.6651   -0.6909   -0.2412 C   0  0  0  0  0  0  0  0  0  0  0  0
   -2.6536   -0.0058    0.8951 C   0  0  0  0  0  0  0  0  0  0  0  0
   -2.9127    1.1394    1.5131 C   0  0  0  0  0  0  0  0  0  0  0  0
   -3.4285    1.9845    0.4731 C   0  0  0  0  0  0  0  0  0  0  0  0
   -3.5594    1.5360   -0.8413 C   0  0  0  0  0  0  0  0  0  0  0  0
   -3.2842   -0.1371   -2.2164 H   0  0  0  0  0  0  0  0  0  0  0  0
   -2.3644   -1.7060   -0.4698 H   0  0  0  0  0  0  0  0  0  0  0  0
   10.3875    1.1630   -0.3801 N   0  0  0  0  0  0  0  0  0  0  0  0
   11.4916    1.1994   -0.4161 N   0  0  0  0  0  0  0  0  0  0  0  0
   -3.9528    2.2071   -1.5971 H   0  0  0  0  0  0  0  0  0  0  0  0
   -3.7081    2.9894    0.7808 H   0  0  0  0  0  0  0  0  0  0  0  0
   -2.7916    1.4398    2.5467 H   0  0  0  0  0  0  0  0  0  0  0  0
  1  6  2  0  0  0  0
  1  2  1  0  0  0  0
  2  3  2  0  0  0  0
  3  4  1  0  0  0  0
  4 13  1  0  0  0  0
  5 12  1  0  0  0  0
  5  4  2  0  0  0  0
  6  5  1  0  0  0  0
  7  1  1  0  0  0  0
  8  2  1  0  0  0  0
 10  9  3  0  0  0  0
 11  6  1  0  0  0  0
M  RAD  1   3   2
M  END
