Coordinates from ORCA-job Ph-N2+-B3LYPG-6-31G_dp-MTMO-d009-169-n800
 OpenBabel09051908213D

 13 12  0  0  0  0  0  0  0  0999 V2000
   -2.9969    0.3067   -1.1714 C   0  0  0  0  0  0  0  0  0  0  0  0
   -2.6069   -0.6308   -0.1563 C   0  0  0  0  0  0  0  0  0  0  0  0
   -2.8785   -0.0019    0.9800 C   0  0  0  0  0  0  0  0  0  0  0  0
   -3.3442    1.0921    1.5690 C   0  0  0  0  0  0  0  0  0  0  0  0
   -3.7001    1.9498    0.4741 C   0  0  0  0  0  0  0  0  0  0  0  0
   -3.5267    1.5572   -0.8532 C   0  0  0  0  0  0  0  0  0  0  0  0
   -2.8504   -0.0249   -2.1969 H   0  0  0  0  0  0  0  0  0  0  0  0
   -2.1918   -1.6118   -0.3517 H   0  0  0  0  0  0  0  0  0  0  0  0
   10.8679    1.1009   -0.5594 N   0  0  0  0  0  0  0  0  0  0  0  0
   11.9722    1.1170   -0.6023 N   0  0  0  0  0  0  0  0  0  0  0  0
   -3.8088    2.2355   -1.6511 H   0  0  0  0  0  0  0  0  0  0  0  0
   -4.1103    2.9182    0.7509 H   0  0  0  0  0  0  0  0  0  0  0  0
   -3.4591    1.3496    2.6150 H   0  0  0  0  0  0  0  0  0  0  0  0
  1  6  2  0  0  0  0
  1  2  1  0  0  0  0
  2  3  2  0  0  0  0
  3  4  1  0  0  0  0
  4 13  1  0  0  0  0
  5 12  1  0  0  0  0
  5  4  2  0  0  0  0
  6  5  1  0  0  0  0
  7  1  1  0  0  0  0
  8  2  1  0  0  0  0
 10  9  3  0  0  0  0
 11  6  1  0  0  0  0
M  RAD  1   3   2
M  END
