Coordinates from ORCA-job Ph-N2+-B3LYPG-6-31G_dp-MTMO-d009-169-n800
 OpenBabel09051908203D

 13 12  0  0  0  0  0  0  0  0999 V2000
   -3.1537    0.2082   -1.1840 C   0  0  0  0  0  0  0  0  0  0  0  0
   -2.2494   -0.5724   -0.3878 C   0  0  0  0  0  0  0  0  0  0  0  0
   -2.0803    0.1542    0.7094 C   0  0  0  0  0  0  0  0  0  0  0  0
   -2.3749    1.2665    1.3700 C   0  0  0  0  0  0  0  0  0  0  0  0
   -3.2733    1.9623    0.4926 C   0  0  0  0  0  0  0  0  0  0  0  0
   -3.6442    1.4382   -0.7458 C   0  0  0  0  0  0  0  0  0  0  0  0
   -3.4258   -0.2232   -2.1444 H   0  0  0  0  0  0  0  0  0  0  0  0
   -1.8404   -1.5308   -0.6829 H   0  0  0  0  0  0  0  0  0  0  0  0
    9.1630    1.0338   -0.1845 N   0  0  0  0  0  0  0  0  0  0  0  0
   10.2670    1.0758   -0.2148 N   0  0  0  0  0  0  0  0  0  0  0  0
   -4.3250    1.9970   -1.3789 H   0  0  0  0  0  0  0  0  0  0  0  0
   -3.6401    2.9182    0.8587 H   0  0  0  0  0  0  0  0  0  0  0  0
   -2.0565    1.6300    2.3392 H   0  0  0  0  0  0  0  0  0  0  0  0
  1  6  2  0  0  0  0
  1  2  1  0  0  0  0
  2  3  2  0  0  0  0
  3  4  1  0  0  0  0
  4 13  1  0  0  0  0
  5 12  1  0  0  0  0
  5  4  2  0  0  0  0
  6  5  1  0  0  0  0
  7  1  1  0  0  0  0
  8  2  1  0  0  0  0
 10  9  3  0  0  0  0
 11  6  1  0  0  0  0
M  RAD  1   3   2
M  END
