Coordinates from ORCA-job Ph-N2+-B3LYPG-6-31G_dp-MTMO-d009-169-n800
 OpenBabel09051908203D

 13 12  0  0  0  0  0  0  0  0999 V2000
   -2.5867    0.1718   -1.1574 C   0  0  0  0  0  0  0  0  0  0  0  0
   -1.2358   -0.1189   -0.7687 C   0  0  0  0  0  0  0  0  0  0  0  0
   -1.0233    0.6782    0.2705 C   0  0  0  0  0  0  0  0  0  0  0  0
   -1.5087    1.6065    1.0847 C   0  0  0  0  0  0  0  0  0  0  0  0
   -2.8470    1.8174    0.6107 C   0  0  0  0  0  0  0  0  0  0  0  0
   -3.3597    1.1149   -0.4799 C   0  0  0  0  0  0  0  0  0  0  0  0
   -2.9608   -0.3894   -2.0105 H   0  0  0  0  0  0  0  0  0  0  0  0
   -0.5949   -0.8400   -1.2617 H   0  0  0  0  0  0  0  0  0  0  0  0
    5.6227    0.6562    0.1513 N   0  0  0  0  0  0  0  0  0  0  0  0
    6.7277    0.6712    0.1333 N   0  0  0  0  0  0  0  0  0  0  0  0
   -4.3759    1.3056   -0.8070 H   0  0  0  0  0  0  0  0  0  0  0  0
   -3.4272    2.5579    1.1568 H   0  0  0  0  0  0  0  0  0  0  0  0
   -1.0640    2.1262    1.9247 H   0  0  0  0  0  0  0  0  0  0  0  0
  1  2  2  0  0  0  0
  1  6  1  0  0  0  0
  2  3  1  0  0  0  0
  3  4  2  0  0  0  0
  4 13  1  0  0  0  0
  5  4  1  0  0  0  0
  5 12  1  0  0  0  0
  6  5  2  0  0  0  0
  7  1  1  0  0  0  0
  8  2  1  0  0  0  0
 10  9  3  0  0  0  0
 11  6  1  0  0  0  0
M  RAD  1   3   2
M  END
