Coordinates from ORCA-job Ph-N2+-B3LYPG-6-31G_dp-MTMO-d009-169-n800
 OpenBabel09051908213D

 13 12  0  0  0  0  0  0  0  0999 V2000
   -3.1984    0.2320   -1.2000 C   0  0  0  0  0  0  0  0  0  0  0  0
   -2.6151   -0.6845   -0.2612 C   0  0  0  0  0  0  0  0  0  0  0  0
   -2.5623    0.0067    0.8702 C   0  0  0  0  0  0  0  0  0  0  0  0
   -2.8052    1.1535    1.4919 C   0  0  0  0  0  0  0  0  0  0  0  0
   -3.3795    1.9852    0.4721 C   0  0  0  0  0  0  0  0  0  0  0  0
   -3.5650    1.5267   -0.8323 C   0  0  0  0  0  0  0  0  0  0  0  0
   -3.3318   -0.1513   -2.2090 H   0  0  0  0  0  0  0  0  0  0  0  0
   -2.3115   -1.6969   -0.4976 H   0  0  0  0  0  0  0  0  0  0  0  0
   10.1638    1.1532   -0.3405 N   0  0  0  0  0  0  0  0  0  0  0  0
   11.2678    1.1933   -0.3765 N   0  0  0  0  0  0  0  0  0  0  0  0
   -4.0005    2.1883   -1.5732 H   0  0  0  0  0  0  0  0  0  0  0  0
   -3.6569    2.9886    0.7864 H   0  0  0  0  0  0  0  0  0  0  0  0
   -2.6391    1.4628    2.5166 H   0  0  0  0  0  0  0  0  0  0  0  0
  1  6  2  0  0  0  0
  1  2  1  0  0  0  0
  2  3  2  0  0  0  0
  3  4  1  0  0  0  0
  4 13  1  0  0  0  0
  5 12  1  0  0  0  0
  5  4  2  0  0  0  0
  6  5  1  0  0  0  0
  7  1  1  0  0  0  0
  8  2  1  0  0  0  0
 10  9  3  0  0  0  0
 11  6  1  0  0  0  0
M  RAD  1   3   2
M  END
