Coordinates from ORCA-job Ph-N2+-B3LYPG-6-31G_dp-MTMO-d009-169-n800
 OpenBabel09051908203D

 13 12  0  0  0  0  0  0  0  0999 V2000
   -2.4817    0.1425   -1.1341 C   0  0  0  0  0  0  0  0  0  0  0  0
   -1.0790   -0.0423   -0.8915 C   0  0  0  0  0  0  0  0  0  0  0  0
   -0.8179    0.7802    0.1163 C   0  0  0  0  0  0  0  0  0  0  0  0
   -1.2820    1.6795    0.9744 C   0  0  0  0  0  0  0  0  0  0  0  0
   -2.6753    1.7851    0.6454 C   0  0  0  0  0  0  0  0  0  0  0  0
   -3.2468    1.0337   -0.3816 C   0  0  0  0  0  0  0  0  0  0  0  0
   -2.9015   -0.4550   -1.9403 H   0  0  0  0  0  0  0  0  0  0  0  0
   -0.4416   -0.7189   -1.4479 H   0  0  0  0  0  0  0  0  0  0  0  0
    4.7649    0.6419    0.2377 N   0  0  0  0  0  0  0  0  0  0  0  0
    5.8699    0.6402    0.2591 N   0  0  0  0  0  0  0  0  0  0  0  0
   -4.3037    1.1449   -0.5994 H   0  0  0  0  0  0  0  0  0  0  0  0
   -3.2483    2.4862    1.2481 H   0  0  0  0  0  0  0  0  0  0  0  0
   -0.7906    2.2396    1.7606 H   0  0  0  0  0  0  0  0  0  0  0  0
  1  2  2  0  0  0  0
  1  6  1  0  0  0  0
  2  3  1  0  0  0  0
  3  4  2  0  0  0  0
  4 13  1  0  0  0  0
  5  4  1  0  0  0  0
  5 12  1  0  0  0  0
  6  5  2  0  0  0  0
  7  1  1  0  0  0  0
  8  2  1  0  0  0  0
  9 10  3  0  0  0  0
 11  6  1  0  0  0  0
M  RAD  1   3   2
M  END
