Coordinates from ORCA-job Ph-N2+-B3LYPG-6-31G_dp-MTMO-d009-169-n800
 OpenBabel09051908203D

 13 12  0  0  0  0  0  0  0  0999 V2000
   -2.7864    0.2137   -1.1823 C   0  0  0  0  0  0  0  0  0  0  0  0
   -1.7042   -0.4029   -0.4686 C   0  0  0  0  0  0  0  0  0  0  0  0
   -1.5800    0.3368    0.6259 C   0  0  0  0  0  0  0  0  0  0  0  0
   -2.0109    1.3784    1.3259 C   0  0  0  0  0  0  0  0  0  0  0  0
   -3.0789    1.9127    0.5292 C   0  0  0  0  0  0  0  0  0  0  0  0
   -3.4466    1.3385   -0.6876 C   0  0  0  0  0  0  0  0  0  0  0  0
   -3.0525   -0.2539   -2.1273 H   0  0  0  0  0  0  0  0  0  0  0  0
   -1.1613   -1.2762   -0.8090 H   0  0  0  0  0  0  0  0  0  0  0  0
    7.3023    0.8553   -0.1368 N   0  0  0  0  0  0  0  0  0  0  0  0
    8.4057    0.9039   -0.1766 N   0  0  0  0  0  0  0  0  0  0  0  0
   -4.2595    1.7739   -1.2584 H   0  0  0  0  0  0  0  0  0  0  0  0
   -3.5748    2.7901    0.9376 H   0  0  0  0  0  0  0  0  0  0  0  0
   -1.6867    1.7875    2.2748 H   0  0  0  0  0  0  0  0  0  0  0  0
  1  6  2  0  0  0  0
  1  2  1  0  0  0  0
  2  3  2  0  0  0  0
  3  4  1  0  0  0  0
  4 13  1  0  0  0  0
  5 12  1  0  0  0  0
  5  4  2  0  0  0  0
  6  5  1  0  0  0  0
  7  1  1  0  0  0  0
  8  2  1  0  0  0  0
 10  9  3  0  0  0  0
 11  6  1  0  0  0  0
M  RAD  1   3   2
M  END
