Coordinates from ORCA-job Ph-N2+-B3LYPG-6-31G_dp-MTMO-d009-169-n800
 OpenBabel09051908203D

 13 12  0  0  0  0  0  0  0  0999 V2000
   -2.9206    0.2118   -1.1827 C   0  0  0  0  0  0  0  0  0  0  0  0
   -1.8949   -0.4645   -0.4401 C   0  0  0  0  0  0  0  0  0  0  0  0
   -1.7544    0.2719    0.6546 C   0  0  0  0  0  0  0  0  0  0  0  0
   -2.1412    1.3393    1.3413 C   0  0  0  0  0  0  0  0  0  0  0  0
   -3.1554    1.9323    0.5162 C   0  0  0  0  0  0  0  0  0  0  0  0
   -3.5256    1.3755   -0.7079 C   0  0  0  0  0  0  0  0  0  0  0  0
   -3.1896   -0.2431   -2.1330 H   0  0  0  0  0  0  0  0  0  0  0  0
   -1.3957   -1.3694   -0.7644 H   0  0  0  0  0  0  0  0  0  0  0  0
    7.9820    0.9164   -0.1539 N   0  0  0  0  0  0  0  0  0  0  0  0
    9.0858    0.9615   -0.1898 N   0  0  0  0  0  0  0  0  0  0  0  0
   -4.2968    1.8555   -1.3005 H   0  0  0  0  0  0  0  0  0  0  0  0
   -3.6093    2.8387    0.9096 H   0  0  0  0  0  0  0  0  0  0  0  0
   -1.8181    1.7320    2.2975 H   0  0  0  0  0  0  0  0  0  0  0  0
  1  6  2  0  0  0  0
  1  2  1  0  0  0  0
  2  3  2  0  0  0  0
  3  4  1  0  0  0  0
  4 13  1  0  0  0  0
  5 12  1  0  0  0  0
  5  4  2  0  0  0  0
  6  5  1  0  0  0  0
  7  1  1  0  0  0  0
  8  2  1  0  0  0  0
 10  9  3  0  0  0  0
 11  6  1  0  0  0  0
M  RAD  1   3   2
M  END
