Coordinates from ORCA-job Ph-N2+-B3LYPG-6-31G_dp-MTMO-d009-169-n800
 OpenBabel09051908203D

 13 12  0  0  0  0  0  0  0  0999 V2000
   -2.3256    0.1216   -1.1164 C   0  0  0  0  0  0  0  0  0  0  0  0
   -0.9051   -0.0183   -0.9657 C   0  0  0  0  0  0  0  0  0  0  0  0
   -0.6040    0.8155    0.0215 C   0  0  0  0  0  0  0  0  0  0  0  0
   -1.0393    1.7022    0.9073 C   0  0  0  0  0  0  0  0  0  0  0  0
   -2.4537    1.7632    0.6704 C   0  0  0  0  0  0  0  0  0  0  0  0
   -3.0673    0.9909   -0.3161 C   0  0  0  0  0  0  0  0  0  0  0  0
   -2.7787   -0.4912   -1.8925 H   0  0  0  0  0  0  0  0  0  0  0  0
   -0.2836   -0.6760   -1.5612 H   0  0  0  0  0  0  0  0  0  0  0  0
    3.6910    0.6844    0.2705 N   0  0  0  0  0  0  0  0  0  0  0  0
    4.7946    0.6698    0.3260 N   0  0  0  0  0  0  0  0  0  0  0  0
   -4.1393    1.0682   -0.4641 H   0  0  0  0  0  0  0  0  0  0  0  0
   -3.0081    2.4479    1.3083 H   0  0  0  0  0  0  0  0  0  0  0  0
   -0.5145    2.2795    1.6588 H   0  0  0  0  0  0  0  0  0  0  0  0
  1  2  2  0  0  0  0
  1  6  1  0  0  0  0
  2  3  1  0  0  0  0
  3  4  2  0  0  0  0
  4 13  1  0  0  0  0
  5  4  1  0  0  0  0
  5 12  1  0  0  0  0
  6  5  2  0  0  0  0
  7  1  1  0  0  0  0
  8  2  1  0  0  0  0
  9 10  3  0  0  0  0
 11  6  1  0  0  0  0
M  RAD  1   3   2
M  END
