Coordinates from ORCA-job Ph-N2+-B3LYPG-6-31G_dp-MTMO-d009-169-n800
 OpenBabel09051908203D

 13 12  0  0  0  0  0  0  0  0999 V2000
   -2.6063    0.2118   -1.1801 C   0  0  0  0  0  0  0  0  0  0  0  0
   -1.4617   -0.3362   -0.5093 C   0  0  0  0  0  0  0  0  0  0  0  0
   -1.3416    0.4108    0.5808 C   0  0  0  0  0  0  0  0  0  0  0  0
   -1.8089    1.4245    1.2983 C   0  0  0  0  0  0  0  0  0  0  0  0
   -2.9375    1.8909    0.5438 C   0  0  0  0  0  0  0  0  0  0  0  0
   -3.3153    1.2941   -0.6589 C   0  0  0  0  0  0  0  0  0  0  0  0
   -2.8789   -0.2722   -2.1150 H   0  0  0  0  0  0  0  0  0  0  0  0
   -0.8791   -1.1746   -0.8712 H   0  0  0  0  0  0  0  0  0  0  0  0
    6.3067    0.7792   -0.1121 N   0  0  0  0  0  0  0  0  0  0  0  0
    7.4086    0.8609   -0.1385 N   0  0  0  0  0  0  0  0  0  0  0  0
   -4.1747    1.6781   -1.1975 H   0  0  0  0  0  0  0  0  0  0  0  0
   -3.4707    2.7365    0.9720 H   0  0  0  0  0  0  0  0  0  0  0  0
   -1.4743    1.8539    2.2345 H   0  0  0  0  0  0  0  0  0  0  0  0
  1  6  2  0  0  0  0
  1  2  1  0  0  0  0
  2  3  2  0  0  0  0
  3  4  1  0  0  0  0
  4 13  1  0  0  0  0
  5 12  1  0  0  0  0
  5  4  2  0  0  0  0
  6  5  1  0  0  0  0
  7  1  1  0  0  0  0
  8  2  1  0  0  0  0
 10  9  3  0  0  0  0
 11  6  1  0  0  0  0
M  RAD  1   3   2
M  END
