Coordinates from ORCA-job Ph-N2+-B3LYPG-6-31G_dp-MTMO-d009-169-n800
 OpenBabel09051908213D

 13 12  0  0  0  0  0  0  0  0999 V2000
   -2.9326    0.3815   -1.0531 C   0  0  0  0  0  0  0  0  0  0  0  0
   -2.7957   -0.6125   -0.0260 C   0  0  0  0  0  0  0  0  0  0  0  0
   -3.3587   -0.0534    1.0373 C   0  0  0  0  0  0  0  0  0  0  0  0
   -3.9785    1.0022    1.5494 C   0  0  0  0  0  0  0  0  0  0  0  0
   -4.0614    1.9213    0.4495 C   0  0  0  0  0  0  0  0  0  0  0  0
   -3.5499    1.6086   -0.8101 C   0  0  0  0  0  0  0  0  0  0  0  0
   -2.5263    0.1111   -2.0250 H   0  0  0  0  0  0  0  0  0  0  0  0
   -2.3293   -1.5803   -0.1642 H   0  0  0  0  0  0  0  0  0  0  0  0
   12.1647    1.0771   -0.8495 N   0  0  0  0  0  0  0  0  0  0  0  0
   13.2697    1.1007   -0.8595 N   0  0  0  0  0  0  0  0  0  0  0  0
   -3.6336    2.3318   -1.6143 H   0  0  0  0  0  0  0  0  0  0  0  0
   -4.5449    2.8708    0.6674 H   0  0  0  0  0  0  0  0  0  0  0  0
   -4.3571    1.1988    2.5449 H   0  0  0  0  0  0  0  0  0  0  0  0
  1  6  2  0  0  0  0
  1  2  1  0  0  0  0
  2  3  2  0  0  0  0
  3  4  1  0  0  0  0
  4 13  1  0  0  0  0
  5 12  1  0  0  0  0
  5  4  2  0  0  0  0
  6  5  1  0  0  0  0
  7  1  1  0  0  0  0
  8  2  1  0  0  0  0
 10  9  3  0  0  0  0
 11  6  1  0  0  0  0
M  RAD  1   3   2
M  END
