Coordinates from ORCA-job Ph-N2+-B3LYPG-6-31G_dp-MTMO-d009-169-n800
 OpenBabel09051908203D

 13 13  0  0  0  0  0  0  0  0999 V2000
   -1.9347    0.0913   -1.0841 C   0  0  0  0  0  0  0  0  0  0  0  0
   -0.5523    0.0143   -0.9728 C   0  0  0  0  0  0  0  0  0  0  0  0
    0.0384    0.8291    0.0062 C   0  0  0  0  0  0  0  0  0  0  0  0
   -0.6507    1.6995    0.8657 C   0  0  0  0  0  0  0  0  0  0  0  0
   -2.0312    1.7435    0.7184 C   0  0  0  0  0  0  0  0  0  0  0  0
   -2.6649    0.9475   -0.2470 C   0  0  0  0  0  0  0  0  0  0  0  0
   -2.4443   -0.5159   -1.8243 H   0  0  0  0  0  0  0  0  0  0  0  0
    0.0432   -0.6358   -1.6037 H   0  0  0  0  0  0  0  0  0  0  0  0
    1.4716    0.7678    0.1390 N   0  0  0  0  0  0  0  0  0  0  0  0
    2.5786    0.7207    0.2410 N   0  0  0  0  0  0  0  0  0  0  0  0
   -3.7448    0.9956   -0.3489 H   0  0  0  0  0  0  0  0  0  0  0  0
   -2.6143    2.3988    1.3562 H   0  0  0  0  0  0  0  0  0  0  0  0
   -0.1283    2.3010    1.6010 H   0  0  0  0  0  0  0  0  0  0  0  0
  1  2  2  0  0  0  0
  1  6  1  0  0  0  0
  2  3  1  0  0  0  0
  3  9  1  0  0  0  0
  3  4  2  0  0  0  0
  4 13  1  0  0  0  0
  5  4  1  0  0  0  0
  5 12  1  0  0  0  0
  6  5  2  0  0  0  0
  7  1  1  0  0  0  0
  8  2  1  0  0  0  0
  9 10  1  0  0  0  0
 11  6  1  0  0  0  0
M  RAD  2   9   2  10   3
M  END
