Coordinates from ORCA-job Ph-N2+-B3LYPG-6-31G_dp-MTMO-d009-169-n800
 OpenBabel09051908203D

 13 12  0  0  0  0  0  0  0  0999 V2000
   -2.7134    0.2132   -1.1815 C   0  0  0  0  0  0  0  0  0  0  0  0
   -1.6050   -0.3755   -0.4848 C   0  0  0  0  0  0  0  0  0  0  0  0
   -1.4830    0.3672    0.6079 C   0  0  0  0  0  0  0  0  0  0  0  0
   -1.9299    1.3971    1.3152 C   0  0  0  0  0  0  0  0  0  0  0  0
   -3.0233    1.9038    0.5351 C   0  0  0  0  0  0  0  0  0  0  0  0
   -3.3947    1.3206   -0.6762 C   0  0  0  0  0  0  0  0  0  0  0  0
   -2.9818   -0.2610   -2.1226 H   0  0  0  0  0  0  0  0  0  0  0  0
   -1.0451   -1.2346   -0.8337 H   0  0  0  0  0  0  0  0  0  0  0  0
    6.9019    0.8248   -0.1262 N   0  0  0  0  0  0  0  0  0  0  0  0
    8.0049    0.8845   -0.1628 N   0  0  0  0  0  0  0  0  0  0  0  0
   -4.2271    1.7350   -1.2343 H   0  0  0  0  0  0  0  0  0  0  0  0
   -3.5353    2.7682    0.9514 H   0  0  0  0  0  0  0  0  0  0  0  0
   -1.6019    1.8143    2.2592 H   0  0  0  0  0  0  0  0  0  0  0  0
  1  6  2  0  0  0  0
  1  2  1  0  0  0  0
  2  3  2  0  0  0  0
  3  4  1  0  0  0  0
  4 13  1  0  0  0  0
  5 12  1  0  0  0  0
  5  4  2  0  0  0  0
  6  5  1  0  0  0  0
  7  1  1  0  0  0  0
  8  2  1  0  0  0  0
 10  9  3  0  0  0  0
 11  6  1  0  0  0  0
M  RAD  1   3   2
M  END
