Coordinates from ORCA-job Ph-N2+-B3LYPG-6-31G_dp-MTMO-d009-169-n800
 OpenBabel09051908213D

 13 12  0  0  0  0  0  0  0  0999 V2000
   -2.9767    0.3820   -1.0480 C   0  0  0  0  0  0  0  0  0  0  0  0
   -2.8437   -0.6130   -0.0213 C   0  0  0  0  0  0  0  0  0  0  0  0
   -3.4113   -0.0550    1.0402 C   0  0  0  0  0  0  0  0  0  0  0  0
   -4.0334    1.0000    1.5507 C   0  0  0  0  0  0  0  0  0  0  0  0
   -4.1121    1.9201    0.4513 C   0  0  0  0  0  0  0  0  0  0  0  0
   -3.5953    1.6087   -0.8065 C   0  0  0  0  0  0  0  0  0  0  0  0
   -2.5664    0.1126   -2.0185 H   0  0  0  0  0  0  0  0  0  0  0  0
   -2.3765   -1.5805   -0.1585 H   0  0  0  0  0  0  0  0  0  0  0  0
   12.4326    1.0817   -0.8679 N   0  0  0  0  0  0  0  0  0  0  0  0
   13.5377    1.1034   -0.8774 N   0  0  0  0  0  0  0  0  0  0  0  0
   -3.6759    2.3327   -1.6103 H   0  0  0  0  0  0  0  0  0  0  0  0
   -4.5967    2.8693    0.6681 H   0  0  0  0  0  0  0  0  0  0  0  0
   -4.4161    1.1957    2.5449 H   0  0  0  0  0  0  0  0  0  0  0  0
  1  6  2  0  0  0  0
  1  2  1  0  0  0  0
  2  3  2  0  0  0  0
  3  4  1  0  0  0  0
  4 13  1  0  0  0  0
  5 12  1  0  0  0  0
  5  4  2  0  0  0  0
  6  5  1  0  0  0  0
  7  1  1  0  0  0  0
  8  2  1  0  0  0  0
 10  9  3  0  0  0  0
 11  6  1  0  0  0  0
M  RAD  1   3   2
M  END
