Coordinates from ORCA-job Ph-N2+-B3LYPG-6-31G_dp-MTMO-d009-169-n800
 OpenBabel09051908203D

 13 12  0  0  0  0  0  0  0  0999 V2000
   -2.0395    0.1007   -1.0885 C   0  0  0  0  0  0  0  0  0  0  0  0
   -0.6229    0.0027   -0.9923 C   0  0  0  0  0  0  0  0  0  0  0  0
   -0.2397    0.8391   -0.0175 C   0  0  0  0  0  0  0  0  0  0  0  0
   -0.7229    1.7145    0.8751 C   0  0  0  0  0  0  0  0  0  0  0  0
   -2.1356    1.7433    0.7033 C   0  0  0  0  0  0  0  0  0  0  0  0
   -2.7692    0.9529   -0.2575 C   0  0  0  0  0  0  0  0  0  0  0  0
   -2.5215   -0.5190   -1.8399 H   0  0  0  0  0  0  0  0  0  0  0  0
   -0.0147   -0.6412   -1.6136 H   0  0  0  0  0  0  0  0  0  0  0  0
    2.0306    0.7444    0.1899 N   0  0  0  0  0  0  0  0  0  0  0  0
    3.1294    0.7007    0.2882 N   0  0  0  0  0  0  0  0  0  0  0  0
   -3.8481    1.0023   -0.3606 H   0  0  0  0  0  0  0  0  0  0  0  0
   -2.6927    2.4099    1.3561 H   0  0  0  0  0  0  0  0  0  0  0  0
   -0.1871    2.3075    1.6043 H   0  0  0  0  0  0  0  0  0  0  0  0
  1  2  2  0  0  0  0
  1  6  1  0  0  0  0
  2  3  1  0  0  0  0
  3  4  2  0  0  0  0
  4 13  1  0  0  0  0
  5  4  1  0  0  0  0
  5 12  1  0  0  0  0
  6  5  2  0  0  0  0
  7  1  1  0  0  0  0
  8  2  1  0  0  0  0
  9 10  3  0  0  0  0
 11  6  1  0  0  0  0
M  RAD  1   3   2
M  END
