Coordinates from ORCA-job Ph-N2+-B3LYPG-6-31G_dp-MTMO-d009-169-n800
 OpenBabel09051908203D

 13 12  0  0  0  0  0  0  0  0999 V2000
   -2.5430    0.1541   -1.1441 C   0  0  0  0  0  0  0  0  0  0  0  0
   -1.1570   -0.0725   -0.8467 C   0  0  0  0  0  0  0  0  0  0  0  0
   -0.9119    0.7403    0.1729 C   0  0  0  0  0  0  0  0  0  0  0  0
   -1.3832    1.6513    1.0146 C   0  0  0  0  0  0  0  0  0  0  0  0
   -2.7586    1.7984    0.6313 C   0  0  0  0  0  0  0  0  0  0  0  0
   -3.3109    1.0660   -0.4197 C   0  0  0  0  0  0  0  0  0  0  0  0
   -2.9477   -0.4294   -1.9680 H   0  0  0  0  0  0  0  0  0  0  0  0
   -0.5184   -0.7667   -1.3794 H   0  0  0  0  0  0  0  0  0  0  0  0
    5.1937    0.6455    0.2127 N   0  0  0  0  0  0  0  0  0  0  0  0
    6.2989    0.6512    0.2180 N   0  0  0  0  0  0  0  0  0  0  0  0
   -4.3544    1.2086   -0.6787 H   0  0  0  0  0  0  0  0  0  0  0  0
   -3.3341    2.5151    1.2128 H   0  0  0  0  0  0  0  0  0  0  0  0
   -0.9071    2.1958    1.8211 H   0  0  0  0  0  0  0  0  0  0  0  0
  1  2  2  0  0  0  0
  1  6  1  0  0  0  0
  2  3  1  0  0  0  0
  3  4  2  0  0  0  0
  4 13  1  0  0  0  0
  5  4  1  0  0  0  0
  5 12  1  0  0  0  0
  6  5  2  0  0  0  0
  7  1  1  0  0  0  0
  8  2  1  0  0  0  0
  9 10  3  0  0  0  0
 11  6  1  0  0  0  0
M  RAD  1   3   2
M  END
