Coordinates from ORCA-job Ph-N2+-B3LYPG-6-31G_dp-MTMO-d009-169-n800
 OpenBabel09051908213D

 13 12  0  0  0  0  0  0  0  0999 V2000
   -2.8220    0.4000   -1.0288 C   0  0  0  0  0  0  0  0  0  0  0  0
   -2.7242   -0.6033   -0.0063 C   0  0  0  0  0  0  0  0  0  0  0  0
   -3.3412   -0.0600    1.0351 C   0  0  0  0  0  0  0  0  0  0  0  0
   -3.9934    0.9850    1.5281 C   0  0  0  0  0  0  0  0  0  0  0  0
   -4.0332    1.9147    0.4347 C   0  0  0  0  0  0  0  0  0  0  0  0
   -3.4607    1.6194   -0.8027 C   0  0  0  0  0  0  0  0  0  0  0  0
   -2.3689    0.1430   -1.9835 H   0  0  0  0  0  0  0  0  0  0  0  0
   -2.2435   -1.5658   -0.1322 H   0  0  0  0  0  0  0  0  0  0  0  0
   11.8577    1.0617   -0.8639 N   0  0  0  0  0  0  0  0  0  0  0  0
   12.9626    1.0863   -0.8772 N   0  0  0  0  0  0  0  0  0  0  0  0
   -3.5132    2.3502   -1.6027 H   0  0  0  0  0  0  0  0  0  0  0  0
   -4.5346    2.8579    0.6392 H   0  0  0  0  0  0  0  0  0  0  0  0
   -4.4191    1.1685    2.5070 H   0  0  0  0  0  0  0  0  0  0  0  0
  1  6  2  0  0  0  0
  1  2  1  0  0  0  0
  2  3  2  0  0  0  0
  3  4  1  0  0  0  0
  4 13  1  0  0  0  0
  5 12  1  0  0  0  0
  5  4  2  0  0  0  0
  6  5  1  0  0  0  0
  7  1  1  0  0  0  0
  8  2  1  0  0  0  0
 10  9  3  0  0  0  0
 11  6  1  0  0  0  0
M  RAD  1   3   2
M  END
