Coordinates from ORCA-job Ph-N2+-B3LYPG-6-31G_dp-MTMO-d009-169-n800
 OpenBabel09051908203D

 13 12  0  0  0  0  0  0  0  0999 V2000
   -3.0339    0.2082   -1.1822 C   0  0  0  0  0  0  0  0  0  0  0  0
   -2.0624   -0.5217   -0.4177 C   0  0  0  0  0  0  0  0  0  0  0  0
   -1.9000    0.2114    0.6763 C   0  0  0  0  0  0  0  0  0  0  0  0
   -2.2361    1.3037    1.3501 C   0  0  0  0  0  0  0  0  0  0  0  0
   -3.1994    1.9494    0.5038 C   0  0  0  0  0  0  0  0  0  0  0  0
   -3.5790    1.4076   -0.7242 C   0  0  0  0  0  0  0  0  0  0  0  0
   -3.3113   -0.2360   -2.1352 H   0  0  0  0  0  0  0  0  0  0  0  0
   -1.6099   -1.4552   -0.7288 H   0  0  0  0  0  0  0  0  0  0  0  0
    8.5103    0.9757   -0.1623 N   0  0  0  0  0  0  0  0  0  0  0  0
    9.6142    1.0212   -0.1944 N   0  0  0  0  0  0  0  0  0  0  0  0
   -4.3102    1.9281   -1.3334 H   0  0  0  0  0  0  0  0  0  0  0  0
   -3.6075    2.8825    0.8846 H   0  0  0  0  0  0  0  0  0  0  0  0
   -1.9083    1.6827    2.3102 H   0  0  0  0  0  0  0  0  0  0  0  0
  1  6  2  0  0  0  0
  1  2  1  0  0  0  0
  2  3  2  0  0  0  0
  3  4  1  0  0  0  0
  4 13  1  0  0  0  0
  5 12  1  0  0  0  0
  5  4  2  0  0  0  0
  6  5  1  0  0  0  0
  7  1  1  0  0  0  0
  8  2  1  0  0  0  0
 10  9  3  0  0  0  0
 11  6  1  0  0  0  0
M  RAD  1   3   2
M  END
