Coordinates from ORCA-job Ph-N2+-B3LYPG-6-31G_dp-MTMO-d009-169-n800
 OpenBabel09051908203D

 13 12  0  0  0  0  0  0  0  0999 V2000
   -2.7628    0.2137   -1.1820 C   0  0  0  0  0  0  0  0  0  0  0  0
   -1.6719   -0.3937   -0.4738 C   0  0  0  0  0  0  0  0  0  0  0  0
   -1.5488    0.3469    0.6203 C   0  0  0  0  0  0  0  0  0  0  0  0
   -1.9852    1.3846    1.3226 C   0  0  0  0  0  0  0  0  0  0  0  0
   -3.0617    1.9097    0.5312 C   0  0  0  0  0  0  0  0  0  0  0  0
   -3.4303    1.3326   -0.6839 C   0  0  0  0  0  0  0  0  0  0  0  0
   -3.0294   -0.2561   -2.1258 H   0  0  0  0  0  0  0  0  0  0  0  0
   -1.1231   -1.2622   -0.8170 H   0  0  0  0  0  0  0  0  0  0  0  0
    7.1744    0.8456   -0.1332 N   0  0  0  0  0  0  0  0  0  0  0  0
    8.2778    0.8966   -0.1728 N   0  0  0  0  0  0  0  0  0  0  0  0
   -4.2497    1.7611   -1.2507 H   0  0  0  0  0  0  0  0  0  0  0  0
   -3.5632    2.7827    0.9421 H   0  0  0  0  0  0  0  0  0  0  0  0
   -1.6600    1.7963    2.2699 H   0  0  0  0  0  0  0  0  0  0  0  0
  1  6  2  0  0  0  0
  1  2  1  0  0  0  0
  2  3  2  0  0  0  0
  3  4  1  0  0  0  0
  4 13  1  0  0  0  0
  5 12  1  0  0  0  0
  5  4  2  0  0  0  0
  6  5  1  0  0  0  0
  7  1  1  0  0  0  0
  8  2  1  0  0  0  0
 10  9  3  0  0  0  0
 11  6  1  0  0  0  0
M  RAD  1   3   2
M  END
