Coordinates from ORCA-job Ph-N2+-B3LYPG-6-31G_dp-MTMO-d009-169-n800
 OpenBabel09051908203D

 13 12  0  0  0  0  0  0  0  0999 V2000
   -2.1626    0.1077   -1.0997 C   0  0  0  0  0  0  0  0  0  0  0  0
   -0.7369   -0.0042   -0.9977 C   0  0  0  0  0  0  0  0  0  0  0  0
   -0.4107    0.8356   -0.0220 C   0  0  0  0  0  0  0  0  0  0  0  0
   -0.8385    1.7145    0.8769 C   0  0  0  0  0  0  0  0  0  0  0  0
   -2.2597    1.7489    0.6902 C   0  0  0  0  0  0  0  0  0  0  0  0
   -2.8924    0.9637   -0.2741 C   0  0  0  0  0  0  0  0  0  0  0  0
   -2.6329   -0.5136   -1.8584 H   0  0  0  0  0  0  0  0  0  0  0  0
   -0.1233   -0.6504   -1.6129 H   0  0  0  0  0  0  0  0  0  0  0  0
    2.6986    0.7206    0.2444 N   0  0  0  0  0  0  0  0  0  0  0  0
    3.7996    0.6899    0.3306 N   0  0  0  0  0  0  0  0  0  0  0  0
   -3.9703    1.0202   -0.3845 H   0  0  0  0  0  0  0  0  0  0  0  0
   -2.8067    2.4228    1.3455 H   0  0  0  0  0  0  0  0  0  0  0  0
   -0.2980    2.3018    1.6086 H   0  0  0  0  0  0  0  0  0  0  0  0
  1  2  2  0  0  0  0
  1  6  1  0  0  0  0
  2  3  1  0  0  0  0
  3  4  2  0  0  0  0
  4 13  1  0  0  0  0
  5  4  1  0  0  0  0
  5 12  1  0  0  0  0
  6  5  2  0  0  0  0
  7  1  1  0  0  0  0
  8  2  1  0  0  0  0
  9 10  3  0  0  0  0
 11  6  1  0  0  0  0
M  RAD  1   3   2
M  END
