Coordinates from ORCA-job Ph-N2+-B3LYPG-6-31G_dp-MTMO-d009-169-n800
 OpenBabel09051908213D

 13 12  0  0  0  0  0  0  0  0999 V2000
   -2.9587    0.3907   -1.0343 C   0  0  0  0  0  0  0  0  0  0  0  0
   -2.8445   -0.6086   -0.0096 C   0  0  0  0  0  0  0  0  0  0  0  0
   -3.4389   -0.0585    1.0413 C   0  0  0  0  0  0  0  0  0  0  0  0
   -4.0775    0.9910    1.5426 C   0  0  0  0  0  0  0  0  0  0  0  0
   -4.1355    1.9161    0.4461 C   0  0  0  0  0  0  0  0  0  0  0  0
   -3.5886    1.6133   -0.8011 C   0  0  0  0  0  0  0  0  0  0  0  0
   -2.5254    0.1280   -1.9965 H   0  0  0  0  0  0  0  0  0  0  0  0
   -2.3698   -1.5733   -0.1407 H   0  0  0  0  0  0  0  0  0  0  0  0
   12.4837    1.0771   -0.8859 N   0  0  0  0  0  0  0  0  0  0  0  0
   13.5887    1.0991   -0.8971 N   0  0  0  0  0  0  0  0  0  0  0  0
   -3.6542    2.3409   -1.6030 H   0  0  0  0  0  0  0  0  0  0  0  0
   -4.6295    2.8620    0.6563 H   0  0  0  0  0  0  0  0  0  0  0  0
   -4.4835    1.1801    2.5287 H   0  0  0  0  0  0  0  0  0  0  0  0
  1  6  2  0  0  0  0
  1  2  1  0  0  0  0
  2  3  2  0  0  0  0
  3  4  1  0  0  0  0
  4 13  1  0  0  0  0
  5 12  1  0  0  0  0
  5  4  2  0  0  0  0
  6  5  1  0  0  0  0
  7  1  1  0  0  0  0
  8  2  1  0  0  0  0
 10  9  3  0  0  0  0
 11  6  1  0  0  0  0
M  RAD  1   3   2
M  END
