Coordinates from ORCA-job Ph-N2+-B3LYPG-6-31G_dp-MTMO-d009-169-n800
 OpenBabel09051908203D

 13 12  0  0  0  0  0  0  0  0999 V2000
   -2.6441    0.2123   -1.1807 C   0  0  0  0  0  0  0  0  0  0  0  0
   -1.5127   -0.3511   -0.5002 C   0  0  0  0  0  0  0  0  0  0  0  0
   -1.3913    0.3949    0.5904 C   0  0  0  0  0  0  0  0  0  0  0  0
   -1.8513    1.4142    1.3045 C   0  0  0  0  0  0  0  0  0  0  0  0
   -2.9671    1.8959    0.5405 C   0  0  0  0  0  0  0  0  0  0  0  0
   -3.3428    1.3041   -0.6654 C   0  0  0  0  0  0  0  0  0  0  0  0
   -2.9154   -0.2680   -2.1178 H   0  0  0  0  0  0  0  0  0  0  0  0
   -0.9386   -1.1975   -0.8572 H   0  0  0  0  0  0  0  0  0  0  0  0
    6.5158    0.7951   -0.1177 N   0  0  0  0  0  0  0  0  0  0  0  0
    7.6181    0.8710   -0.1466 N   0  0  0  0  0  0  0  0  0  0  0  0
   -4.1926    1.6994   -1.2111 H   0  0  0  0  0  0  0  0  0  0  0  0
   -3.4925    2.7485    0.9643 H   0  0  0  0  0  0  0  0  0  0  0  0
   -1.5191    1.8389    2.2437 H   0  0  0  0  0  0  0  0  0  0  0  0
  1  6  2  0  0  0  0
  1  2  1  0  0  0  0
  2  3  2  0  0  0  0
  3  4  1  0  0  0  0
  4 13  1  0  0  0  0
  5 12  1  0  0  0  0
  5  4  2  0  0  0  0
  6  5  1  0  0  0  0
  7  1  1  0  0  0  0
  8  2  1  0  0  0  0
 10  9  3  0  0  0  0
 11  6  1  0  0  0  0
M  RAD  1   3   2
M  END
