Coordinates from ORCA-job Ph-N2+-B3LYPG-6-31G_dp-MTMO-d009-169-n800
 OpenBabel09051908213D

 13 12  0  0  0  0  0  0  0  0999 V2000
   -2.9004    0.3805   -1.0572 C   0  0  0  0  0  0  0  0  0  0  0  0
   -2.7608   -0.6129   -0.0300 C   0  0  0  0  0  0  0  0  0  0  0  0
   -3.3194   -0.0524    1.0350 C   0  0  0  0  0  0  0  0  0  0  0  0
   -3.9363    1.0041    1.5486 C   0  0  0  0  0  0  0  0  0  0  0  0
   -4.0223    1.9226    0.4483 C   0  0  0  0  0  0  0  0  0  0  0  0
   -3.5156    1.6084   -0.8130 C   0  0  0  0  0  0  0  0  0  0  0  0
   -2.4979    0.1091   -2.0304 H   0  0  0  0  0  0  0  0  0  0  0  0
   -2.2958   -1.5812   -0.1692 H   0  0  0  0  0  0  0  0  0  0  0  0
   11.9634    1.0750   -0.8363 N   0  0  0  0  0  0  0  0  0  0  0  0
   13.0684    1.0988   -0.8442 N   0  0  0  0  0  0  0  0  0  0  0  0
   -3.6016    2.3311   -1.6173 H   0  0  0  0  0  0  0  0  0  0  0  0
   -4.5041    2.8727    0.6672 H   0  0  0  0  0  0  0  0  0  0  0  0
   -4.3112    1.2018    2.5453 H   0  0  0  0  0  0  0  0  0  0  0  0
  1  6  2  0  0  0  0
  1  2  1  0  0  0  0
  2  3  2  0  0  0  0
  3  4  1  0  0  0  0
  4 13  1  0  0  0  0
  5 12  1  0  0  0  0
  5  4  2  0  0  0  0
  6  5  1  0  0  0  0
  7  1  1  0  0  0  0
  8  2  1  0  0  0  0
 10  9  3  0  0  0  0
 11  6  1  0  0  0  0
M  RAD  1   3   2
M  END
