Coordinates from ORCA-job Ph-N2+-B3LYPG-6-31G_dp-MTMO-d009-169-n800
 OpenBabel09051908203D

 13 12  0  0  0  0  0  0  0  0999 V2000
   -2.1953    0.1097   -1.1029 C   0  0  0  0  0  0  0  0  0  0  0  0
   -0.7696   -0.0068   -0.9963 C   0  0  0  0  0  0  0  0  0  0  0  0
   -0.4476    0.8323   -0.0195 C   0  0  0  0  0  0  0  0  0  0  0  0
   -0.8725    1.7125    0.8785 C   0  0  0  0  0  0  0  0  0  0  0  0
   -2.2936    1.7509    0.6867 C   0  0  0  0  0  0  0  0  0  0  0  0
   -2.9254    0.9677   -0.2799 C   0  0  0  0  0  0  0  0  0  0  0  0
   -2.6641   -0.5104   -1.8636 H   0  0  0  0  0  0  0  0  0  0  0  0
   -0.1557   -0.6546   -1.6098 H   0  0  0  0  0  0  0  0  0  0  0  0
    2.8821    0.7160    0.2558 N   0  0  0  0  0  0  0  0  0  0  0  0
    3.9835    0.6881    0.3388 N   0  0  0  0  0  0  0  0  0  0  0  0
   -4.0027    1.0276   -0.3939 H   0  0  0  0  0  0  0  0  0  0  0  0
   -2.8400    2.4266    1.3407 H   0  0  0  0  0  0  0  0  0  0  0  0
   -0.3326    2.2981    1.6123 H   0  0  0  0  0  0  0  0  0  0  0  0
  1  2  2  0  0  0  0
  1  6  1  0  0  0  0
  2  3  1  0  0  0  0
  3  4  2  0  0  0  0
  4 13  1  0  0  0  0
  5  4  1  0  0  0  0
  5 12  1  0  0  0  0
  6  5  2  0  0  0  0
  7  1  1  0  0  0  0
  8  2  1  0  0  0  0
  9 10  3  0  0  0  0
 11  6  1  0  0  0  0
M  RAD  1   3   2
M  END
