Coordinates from ORCA-job Ph-N2+-B3LYPG-6-31G_dp-MTMO-d009-169-n800
 OpenBabel09051908213D

 13 12  0  0  0  0  0  0  0  0999 V2000
   -2.9142    0.3903   -1.0393 C   0  0  0  0  0  0  0  0  0  0  0  0
   -2.7963   -0.6081   -0.0141 C   0  0  0  0  0  0  0  0  0  0  0  0
   -3.3866   -0.0570    1.0386 C   0  0  0  0  0  0  0  0  0  0  0  0
   -4.0231    0.9931    1.5413 C   0  0  0  0  0  0  0  0  0  0  0  0
   -4.0850    1.9173    0.4443 C   0  0  0  0  0  0  0  0  0  0  0  0
   -3.5429    1.6133   -0.8047 C   0  0  0  0  0  0  0  0  0  0  0  0
   -2.4845    0.1267   -2.0029 H   0  0  0  0  0  0  0  0  0  0  0  0
   -2.3223   -1.5731   -0.1462 H   0  0  0  0  0  0  0  0  0  0  0  0
   12.2154    1.0725   -0.8679 N   0  0  0  0  0  0  0  0  0  0  0  0
   13.3204    1.0962   -0.8797 N   0  0  0  0  0  0  0  0  0  0  0  0
   -3.6115    2.3401   -1.6070 H   0  0  0  0  0  0  0  0  0  0  0  0
   -4.5780    2.8634    0.6555 H   0  0  0  0  0  0  0  0  0  0  0  0
   -4.4252    1.1831    2.5289 H   0  0  0  0  0  0  0  0  0  0  0  0
  1  6  2  0  0  0  0
  1  2  1  0  0  0  0
  2  3  2  0  0  0  0
  3  4  1  0  0  0  0
  4 13  1  0  0  0  0
  5 12  1  0  0  0  0
  5  4  2  0  0  0  0
  6  5  1  0  0  0  0
  7  1  1  0  0  0  0
  8  2  1  0  0  0  0
 10  9  3  0  0  0  0
 11  6  1  0  0  0  0
M  RAD  1   3   2
M  END
