Coordinates from ORCA-job Ph-N2+-B3LYPG-6-31G_dp-MTMO-d009-169-n800
 OpenBabel09051908203D

 13 12  0  0  0  0  0  0  0  0999 V2000
   -2.0452    0.1011   -1.0890 C   0  0  0  0  0  0  0  0  0  0  0  0
   -0.6275    0.0024   -0.9930 C   0  0  0  0  0  0  0  0  0  0  0  0
   -0.2499    0.8393   -0.0182 C   0  0  0  0  0  0  0  0  0  0  0  0
   -0.7276    1.7149    0.8752 C   0  0  0  0  0  0  0  0  0  0  0  0
   -2.1412    1.7435    0.7027 C   0  0  0  0  0  0  0  0  0  0  0  0
   -2.7748    0.9532   -0.2581 C   0  0  0  0  0  0  0  0  0  0  0  0
   -2.5260   -0.5191   -1.8408 H   0  0  0  0  0  0  0  0  0  0  0  0
   -0.0188   -0.6414   -1.6139 H   0  0  0  0  0  0  0  0  0  0  0  0
    2.0603    0.7432    0.1926 N   0  0  0  0  0  0  0  0  0  0  0  0
    3.1592    0.6998    0.2905 N   0  0  0  0  0  0  0  0  0  0  0  0
   -3.8537    1.0028   -0.3614 H   0  0  0  0  0  0  0  0  0  0  0  0
   -2.6973    2.4106    1.3560 H   0  0  0  0  0  0  0  0  0  0  0  0
   -0.1913    2.3076    1.6043 H   0  0  0  0  0  0  0  0  0  0  0  0
  1  2  2  0  0  0  0
  1  6  1  0  0  0  0
  2  3  1  0  0  0  0
  3  4  2  0  0  0  0
  4 13  1  0  0  0  0
  5  4  1  0  0  0  0
  5 12  1  0  0  0  0
  6  5  2  0  0  0  0
  7  1  1  0  0  0  0
  8  2  1  0  0  0  0
  9 10  3  0  0  0  0
 11  6  1  0  0  0  0
M  RAD  1   3   2
M  END
