Coordinates from ORCA-job Ph-N2+-B3LYPG-6-31G_dp-MTMO-d009-169-n800
 OpenBabel09051908203D

 13 12  0  0  0  0  0  0  0  0999 V2000
   -2.3646    0.1264   -1.1205 C   0  0  0  0  0  0  0  0  0  0  0  0
   -0.9471   -0.0212   -0.9489 C   0  0  0  0  0  0  0  0  0  0  0  0
   -0.6566    0.8105    0.0431 C   0  0  0  0  0  0  0  0  0  0  0  0
   -1.1000    1.6995    0.9226 C   0  0  0  0  0  0  0  0  0  0  0  0
   -2.5104    1.7682    0.6646 C   0  0  0  0  0  0  0  0  0  0  0  0
   -3.1135    0.9994   -0.3311 C   0  0  0  0  0  0  0  0  0  0  0  0
   -2.8092   -0.4838   -1.9035 H   0  0  0  0  0  0  0  0  0  0  0  0
   -0.3208   -0.6822   -1.5356 H   0  0  0  0  0  0  0  0  0  0  0  0
    3.9606    0.6700    0.2642 N   0  0  0  0  0  0  0  0  0  0  0  0
    5.0647    0.6586    0.3102 N   0  0  0  0  0  0  0  0  0  0  0  0
   -4.1827    1.0826   -0.4951 H   0  0  0  0  0  0  0  0  0  0  0  0
   -3.0705    2.4557    1.2946 H   0  0  0  0  0  0  0  0  0  0  0  0
   -0.5837    2.2740    1.6821 H   0  0  0  0  0  0  0  0  0  0  0  0
  1  2  2  0  0  0  0
  1  6  1  0  0  0  0
  2  3  1  0  0  0  0
  3  4  2  0  0  0  0
  4 13  1  0  0  0  0
  5  4  1  0  0  0  0
  5 12  1  0  0  0  0
  6  5  2  0  0  0  0
  7  1  1  0  0  0  0
  8  2  1  0  0  0  0
  9 10  3  0  0  0  0
 11  6  1  0  0  0  0
M  RAD  1   3   2
M  END
