Coordinates from ORCA-job Ph-N2+-B3LYPG-6-31G_dp-MTMO-d009-169-n800
 OpenBabel09051908203D

 13 12  0  0  0  0  0  0  0  0999 V2000
   -2.9885    0.2094   -1.1824 C   0  0  0  0  0  0  0  0  0  0  0  0
   -1.9951   -0.5000   -0.4268 C   0  0  0  0  0  0  0  0  0  0  0  0
   -1.8390    0.2358    0.6662 C   0  0  0  0  0  0  0  0  0  0  0  0
   -2.1960    1.3177    1.3462 C   0  0  0  0  0  0  0  0  0  0  0  0
   -3.1801    1.9433    0.5085 C   0  0  0  0  0  0  0  0  0  0  0  0
   -3.5569    1.3954   -0.7177 C   0  0  0  0  0  0  0  0  0  0  0  0
   -3.2633   -0.2392   -2.1340 H   0  0  0  0  0  0  0  0  0  0  0  0
   -1.5252   -1.4232   -0.7429 H   0  0  0  0  0  0  0  0  0  0  0  0
    8.2938    0.9525   -0.1584 N   0  0  0  0  0  0  0  0  0  0  0  0
    9.3976    0.9982   -0.1916 N   0  0  0  0  0  0  0  0  0  0  0  0
   -4.3047    1.9002   -1.3197 H   0  0  0  0  0  0  0  0  0  0  0  0
   -3.6061    2.8662    0.8944 H   0  0  0  0  0  0  0  0  0  0  0  0
   -1.8704    1.7015    2.3051 H   0  0  0  0  0  0  0  0  0  0  0  0
  1  6  2  0  0  0  0
  1  2  1  0  0  0  0
  2  3  2  0  0  0  0
  3  4  1  0  0  0  0
  4 13  1  0  0  0  0
  5 12  1  0  0  0  0
  5  4  2  0  0  0  0
  6  5  1  0  0  0  0
  7  1  1  0  0  0  0
  8  2  1  0  0  0  0
 10  9  3  0  0  0  0
 11  6  1  0  0  0  0
M  RAD  1   3   2
M  END
