Coordinates from ORCA-job Ph-N2+-B3LYPG-6-31G_dp-MTMO-d009-169-n800
 OpenBabel09051908203D

 13 12  0  0  0  0  0  0  0  0999 V2000
   -2.7367    0.2134   -1.1818 C   0  0  0  0  0  0  0  0  0  0  0  0
   -1.6364   -0.3840   -0.4797 C   0  0  0  0  0  0  0  0  0  0  0  0
   -1.5138    0.3578    0.6136 C   0  0  0  0  0  0  0  0  0  0  0  0
   -1.9559    1.3913    1.3187 C   0  0  0  0  0  0  0  0  0  0  0  0
   -3.0415    1.9066    0.5333 C   0  0  0  0  0  0  0  0  0  0  0  0
   -3.4116    1.3262   -0.6798 C   0  0  0  0  0  0  0  0  0  0  0  0
   -3.0043   -0.2587   -2.1241 H   0  0  0  0  0  0  0  0  0  0  0  0
   -1.0817   -1.2476   -0.8259 H   0  0  0  0  0  0  0  0  0  0  0  0
    7.0304    0.8348   -0.1293 N   0  0  0  0  0  0  0  0  0  0  0  0
    8.1336    0.8898   -0.1676 N   0  0  0  0  0  0  0  0  0  0  0  0
   -4.2381    1.7472   -1.2419 H   0  0  0  0  0  0  0  0  0  0  0  0
   -3.5486    2.7750    0.9471 H   0  0  0  0  0  0  0  0  0  0  0  0
   -1.6292    1.8059    2.2642 H   0  0  0  0  0  0  0  0  0  0  0  0
  1  6  2  0  0  0  0
  1  2  1  0  0  0  0
  2  3  2  0  0  0  0
  3  4  1  0  0  0  0
  4 13  1  0  0  0  0
  5 12  1  0  0  0  0
  5  4  2  0  0  0  0
  6  5  1  0  0  0  0
  7  1  1  0  0  0  0
  8  2  1  0  0  0  0
 10  9  3  0  0  0  0
 11  6  1  0  0  0  0
M  RAD  1   3   2
M  END
