Coordinates from ORCA-job Ph-N2+-B3LYPG-6-31G_dp-MTMO-d009-169-n800
 OpenBabel09051908203D

 13 12  0  0  0  0  0  0  0  0999 V2000
   -2.6354    0.2122   -1.1806 C   0  0  0  0  0  0  0  0  0  0  0  0
   -1.5008   -0.3475   -0.5024 C   0  0  0  0  0  0  0  0  0  0  0  0
   -1.3799    0.3984    0.5883 C   0  0  0  0  0  0  0  0  0  0  0  0
   -1.8414    1.4166    1.3031 C   0  0  0  0  0  0  0  0  0  0  0  0
   -2.9603    1.8947    0.5413 C   0  0  0  0  0  0  0  0  0  0  0  0
   -3.3365    1.3017   -0.6638 C   0  0  0  0  0  0  0  0  0  0  0  0
   -2.9070   -0.2690   -2.1171 H   0  0  0  0  0  0  0  0  0  0  0  0
   -0.9247   -1.1920   -0.8606 H   0  0  0  0  0  0  0  0  0  0  0  0
    6.4674    0.7912   -0.1165 N   0  0  0  0  0  0  0  0  0  0  0  0
    7.5696    0.8688   -0.1446 N   0  0  0  0  0  0  0  0  0  0  0  0
   -4.1885    1.6944   -1.2079 H   0  0  0  0  0  0  0  0  0  0  0  0
   -3.4875    2.7457    0.9661 H   0  0  0  0  0  0  0  0  0  0  0  0
   -1.5086    1.8425    2.2415 H   0  0  0  0  0  0  0  0  0  0  0  0
  1  6  2  0  0  0  0
  1  2  1  0  0  0  0
  2  3  2  0  0  0  0
  3  4  1  0  0  0  0
  4 13  1  0  0  0  0
  5 12  1  0  0  0  0
  5  4  2  0  0  0  0
  6  5  1  0  0  0  0
  7  1  1  0  0  0  0
  8  2  1  0  0  0  0
 10  9  3  0  0  0  0
 11  6  1  0  0  0  0
M  RAD  1   3   2
M  END
