Coordinates from ORCA-job Ph-N2+-B3LYPG-6-31G_dp-MTMO-d009-169-n800
 OpenBabel09051908203D

 13 12  0  0  0  0  0  0  0  0999 V2000
   -2.4966    0.1449   -1.1362 C   0  0  0  0  0  0  0  0  0  0  0  0
   -1.0968   -0.0479   -0.8829 C   0  0  0  0  0  0  0  0  0  0  0  0
   -0.8389    0.7727    0.1272 C   0  0  0  0  0  0  0  0  0  0  0  0
   -1.3046    1.6742    0.9821 C   0  0  0  0  0  0  0  0  0  0  0  0
   -2.6947    1.7878    0.6425 C   0  0  0  0  0  0  0  0  0  0  0  0
   -3.2625    1.0400   -0.3892 C   0  0  0  0  0  0  0  0  0  0  0  0
   -2.9135   -0.4500   -1.9459 H   0  0  0  0  0  0  0  0  0  0  0  0
   -0.4590   -0.7279   -1.4347 H   0  0  0  0  0  0  0  0  0  0  0  0
    4.8646    0.6416    0.2336 N   0  0  0  0  0  0  0  0  0  0  0  0
    5.9697    0.6417    0.2518 N   0  0  0  0  0  0  0  0  0  0  0  0
   -4.3169    1.1572   -0.6150 H   0  0  0  0  0  0  0  0  0  0  0  0
   -3.2683    2.4919    1.2411 H   0  0  0  0  0  0  0  0  0  0  0  0
   -0.8161    2.2314    1.7723 H   0  0  0  0  0  0  0  0  0  0  0  0
  1  2  2  0  0  0  0
  1  6  1  0  0  0  0
  2  3  1  0  0  0  0
  3  4  2  0  0  0  0
  4 13  1  0  0  0  0
  5  4  1  0  0  0  0
  5 12  1  0  0  0  0
  6  5  2  0  0  0  0
  7  1  1  0  0  0  0
  8  2  1  0  0  0  0
  9 10  3  0  0  0  0
 11  6  1  0  0  0  0
M  RAD  1   3   2
M  END
