Coordinates from ORCA-job Ph-N2+-B3LYPG-6-31G_dp-MTMO-d009-169-n800
 OpenBabel09051908203D

 13 12  0  0  0  0  0  0  0  0999 V2000
   -2.9436    0.2111   -1.1826 C   0  0  0  0  0  0  0  0  0  0  0  0
   -1.9283   -0.4759   -0.4356 C   0  0  0  0  0  0  0  0  0  0  0  0
   -1.7841    0.2594    0.6594 C   0  0  0  0  0  0  0  0  0  0  0  0
   -2.1610    1.3322    1.3432 C   0  0  0  0  0  0  0  0  0  0  0  0
   -3.1653    1.9358    0.5138 C   0  0  0  0  0  0  0  0  0  0  0  0
   -3.5371    1.3820   -0.7113 C   0  0  0  0  0  0  0  0  0  0  0  0
   -3.2141   -0.2417   -2.1336 H   0  0  0  0  0  0  0  0  0  0  0  0
   -1.4380   -1.3865   -0.7573 H   0  0  0  0  0  0  0  0  0  0  0  0
    8.0910    0.9279   -0.1558 N   0  0  0  0  0  0  0  0  0  0  0  0
    9.1948    0.9731   -0.1910 N   0  0  0  0  0  0  0  0  0  0  0  0
   -4.3006    1.8703   -1.3073 H   0  0  0  0  0  0  0  0  0  0  0  0
   -3.6104    2.8476    0.9046 H   0  0  0  0  0  0  0  0  0  0  0  0
   -1.8370    1.7223    2.3001 H   0  0  0  0  0  0  0  0  0  0  0  0
  1  6  2  0  0  0  0
  1  2  1  0  0  0  0
  2  3  2  0  0  0  0
  3  4  1  0  0  0  0
  4 13  1  0  0  0  0
  5 12  1  0  0  0  0
  5  4  2  0  0  0  0
  6  5  1  0  0  0  0
  7  1  1  0  0  0  0
  8  2  1  0  0  0  0
 10  9  3  0  0  0  0
 11  6  1  0  0  0  0
M  RAD  1   3   2
M  END
