Coordinates from ORCA-job Ph-N2+-B3LYPG-6-31G_dp-MTMO-d009-169-n800
 OpenBabel09051908203D

 13 12  0  0  0  0  0  0  0  0999 V2000
   -2.4006    0.1312   -1.1244 C   0  0  0  0  0  0  0  0  0  0  0  0
   -0.9866   -0.0248   -0.9317 C   0  0  0  0  0  0  0  0  0  0  0  0
   -0.7063    0.8048    0.0650 C   0  0  0  0  0  0  0  0  0  0  0  0
   -1.1576    1.6960    0.9381 C   0  0  0  0  0  0  0  0  0  0  0  0
   -2.5636    1.7730    0.6591 C   0  0  0  0  0  0  0  0  0  0  0  0
   -3.1561    1.0082   -0.3460 C   0  0  0  0  0  0  0  0  0  0  0  0
   -2.8368   -0.4762   -1.9143 H   0  0  0  0  0  0  0  0  0  0  0  0
   -0.3556   -0.6893   -1.5095 H   0  0  0  0  0  0  0  0  0  0  0  0
    4.2128    0.6575    0.2561 N   0  0  0  0  0  0  0  0  0  0  0  0
    5.3173    0.6486    0.2938 N   0  0  0  0  0  0  0  0  0  0  0  0
   -4.2222    1.0977   -0.5260 H   0  0  0  0  0  0  0  0  0  0  0  0
   -3.1289    2.4636    1.2810 H   0  0  0  0  0  0  0  0  0  0  0  0
   -0.6496    2.2673    1.7057 H   0  0  0  0  0  0  0  0  0  0  0  0
  1  2  2  0  0  0  0
  1  6  1  0  0  0  0
  2  3  1  0  0  0  0
  3  4  2  0  0  0  0
  4 13  1  0  0  0  0
  5  4  1  0  0  0  0
  5 12  1  0  0  0  0
  6  5  2  0  0  0  0
  7  1  1  0  0  0  0
  8  2  1  0  0  0  0
  9 10  3  0  0  0  0
 11  6  1  0  0  0  0
M  RAD  1   3   2
M  END
