Coordinates from ORCA-job Ph-N2+-B3LYPG-6-31G_dp-MTMO-d009-169-n800
 OpenBabel09051908203D

 13 12  0  0  0  0  0  0  0  0999 V2000
   -2.4892    0.1437   -1.1351 C   0  0  0  0  0  0  0  0  0  0  0  0
   -1.0879   -0.0450   -0.8873 C   0  0  0  0  0  0  0  0  0  0  0  0
   -0.8284    0.7766    0.1216 C   0  0  0  0  0  0  0  0  0  0  0  0
   -1.2933    1.6770    0.9781 C   0  0  0  0  0  0  0  0  0  0  0  0
   -2.6850    1.7864    0.6440 C   0  0  0  0  0  0  0  0  0  0  0  0
   -3.2547    1.0367   -0.3853 C   0  0  0  0  0  0  0  0  0  0  0  0
   -2.9075   -0.4525   -1.9430 H   0  0  0  0  0  0  0  0  0  0  0  0
   -0.4502   -0.7232   -1.4414 H   0  0  0  0  0  0  0  0  0  0  0  0
    4.8148    0.6416    0.2357 N   0  0  0  0  0  0  0  0  0  0  0  0
    5.9198    0.6408    0.2555 N   0  0  0  0  0  0  0  0  0  0  0  0
   -4.3104    1.1509   -0.6070 H   0  0  0  0  0  0  0  0  0  0  0  0
   -3.2584    2.4890    1.2447 H   0  0  0  0  0  0  0  0  0  0  0  0
   -0.8033    2.2357    1.7664 H   0  0  0  0  0  0  0  0  0  0  0  0
  1  2  2  0  0  0  0
  1  6  1  0  0  0  0
  2  3  1  0  0  0  0
  3  4  2  0  0  0  0
  4 13  1  0  0  0  0
  5  4  1  0  0  0  0
  5 12  1  0  0  0  0
  6  5  2  0  0  0  0
  7  1  1  0  0  0  0
  8  2  1  0  0  0  0
  9 10  3  0  0  0  0
 11  6  1  0  0  0  0
M  RAD  1   3   2
M  END
