Coordinates from ORCA-job Ph-N2+-B3LYPG-6-31G_dp-MTMO-d009-169-n800
 OpenBabel09051908213D

 13 12  0  0  0  0  0  0  0  0999 V2000
   -2.8110    0.3852   -1.0551 C   0  0  0  0  0  0  0  0  0  0  0  0
   -2.6834   -0.6111   -0.0291 C   0  0  0  0  0  0  0  0  0  0  0  0
   -3.2551   -0.0539    1.0307 C   0  0  0  0  0  0  0  0  0  0  0  0
   -3.8784    1.0010    1.5399 C   0  0  0  0  0  0  0  0  0  0  0  0
   -3.9514    1.9226    0.4413 C   0  0  0  0  0  0  0  0  0  0  0  0
   -3.4295    1.6122   -0.8147 C   0  0  0  0  0  0  0  0  0  0  0  0
   -2.3968    0.1167   -2.0241 H   0  0  0  0  0  0  0  0  0  0  0  0
   -2.2166   -1.5789   -0.1654 H   0  0  0  0  0  0  0  0  0  0  0  0
   11.5453    1.0677   -0.8184 N   0  0  0  0  0  0  0  0  0  0  0  0
   12.6503    1.0911   -0.8301 N   0  0  0  0  0  0  0  0  0  0  0  0
   -3.5059    2.3373   -1.6179 H   0  0  0  0  0  0  0  0  0  0  0  0
   -4.4361    2.8720    0.6571 H   0  0  0  0  0  0  0  0  0  0  0  0
   -4.2651    1.1959    2.5326 H   0  0  0  0  0  0  0  0  0  0  0  0
  1  6  2  0  0  0  0
  1  2  1  0  0  0  0
  2  3  2  0  0  0  0
  3  4  1  0  0  0  0
  4 13  1  0  0  0  0
  5 12  1  0  0  0  0
  5  4  2  0  0  0  0
  6  5  1  0  0  0  0
  7  1  1  0  0  0  0
  8  2  1  0  0  0  0
 10  9  3  0  0  0  0
 11  6  1  0  0  0  0
M  RAD  1   3   2
M  END
