Coordinates from ORCA-job Ph-N2+-B3LYPG-6-31G_dp-MTMO-d009-169-n800
 OpenBabel09051908203D

 13 12  0  0  0  0  0  0  0  0999 V2000
   -2.6787    0.2128   -1.1811 C   0  0  0  0  0  0  0  0  0  0  0  0
   -1.5585   -0.3631   -0.4925 C   0  0  0  0  0  0  0  0  0  0  0  0
   -1.4371    0.3811    0.5993 C   0  0  0  0  0  0  0  0  0  0  0  0
   -1.8907    1.4058    1.3099 C   0  0  0  0  0  0  0  0  0  0  0  0
   -2.9955    1.8998    0.5378 C   0  0  0  0  0  0  0  0  0  0  0  0
   -3.3689    1.3122   -0.6708 C   0  0  0  0  0  0  0  0  0  0  0  0
   -2.9484   -0.2645   -2.1202 H   0  0  0  0  0  0  0  0  0  0  0  0
   -0.9913   -1.2157   -0.8455 H   0  0  0  0  0  0  0  0  0  0  0  0
    6.7089    0.8096   -0.1221 N   0  0  0  0  0  0  0  0  0  0  0  0
    7.8116    0.8776   -0.1548 N   0  0  0  0  0  0  0  0  0  0  0  0
   -4.2102    1.7171   -1.2227 H   0  0  0  0  0  0  0  0  0  0  0  0
   -3.5144    2.7582    0.9579 H   0  0  0  0  0  0  0  0  0  0  0  0
   -1.5606    1.8268    2.2515 H   0  0  0  0  0  0  0  0  0  0  0  0
  1  6  2  0  0  0  0
  1  2  1  0  0  0  0
  2  3  2  0  0  0  0
  3  4  1  0  0  0  0
  4 13  1  0  0  0  0
  5 12  1  0  0  0  0
  5  4  2  0  0  0  0
  6  5  1  0  0  0  0
  7  1  1  0  0  0  0
  8  2  1  0  0  0  0
 10  9  3  0  0  0  0
 11  6  1  0  0  0  0
M  RAD  1   3   2
M  END
