Coordinates from ORCA-job Ph-N2+-B3LYPG-6-31G_dp-MTMO-d009-169-n800
 OpenBabel09051908203D

 13 12  0  0  0  0  0  0  0  0999 V2000
   -2.1924    0.1095   -1.1026 C   0  0  0  0  0  0  0  0  0  0  0  0
   -0.7666   -0.0065   -0.9965 C   0  0  0  0  0  0  0  0  0  0  0  0
   -0.4443    0.8326   -0.0198 C   0  0  0  0  0  0  0  0  0  0  0  0
   -0.8694    1.7127    0.8784 C   0  0  0  0  0  0  0  0  0  0  0  0
   -2.2905    1.7507    0.6870 C   0  0  0  0  0  0  0  0  0  0  0  0
   -2.9224    0.9673   -0.2793 C   0  0  0  0  0  0  0  0  0  0  0  0
   -2.6612   -0.5107   -1.8631 H   0  0  0  0  0  0  0  0  0  0  0  0
   -0.1527   -0.6542   -1.6101 H   0  0  0  0  0  0  0  0  0  0  0  0
    2.8653    0.7164    0.2548 N   0  0  0  0  0  0  0  0  0  0  0  0
    3.9667    0.6881    0.3381 N   0  0  0  0  0  0  0  0  0  0  0  0
   -3.9998    1.0268   -0.3930 H   0  0  0  0  0  0  0  0  0  0  0  0
   -2.8370    2.4263    1.3412 H   0  0  0  0  0  0  0  0  0  0  0  0
   -0.3294    2.2985    1.6119 H   0  0  0  0  0  0  0  0  0  0  0  0
  1  2  2  0  0  0  0
  1  6  1  0  0  0  0
  2  3  1  0  0  0  0
  3  4  2  0  0  0  0
  4 13  1  0  0  0  0
  5  4  1  0  0  0  0
  5 12  1  0  0  0  0
  6  5  2  0  0  0  0
  7  1  1  0  0  0  0
  8  2  1  0  0  0  0
  9 10  3  0  0  0  0
 11  6  1  0  0  0  0
M  RAD  1   3   2
M  END
