Coordinates from ORCA-job Ph-N2+-B3LYPG-6-31G_dp-MTMO-d009-169-n800
 OpenBabel09051908203D

 13 12  0  0  0  0  0  0  0  0999 V2000
   -2.5161    0.1483   -1.1392 C   0  0  0  0  0  0  0  0  0  0  0  0
   -1.1210   -0.0569   -0.8701 C   0  0  0  0  0  0  0  0  0  0  0  0
   -0.8674    0.7610    0.1434 C   0  0  0  0  0  0  0  0  0  0  0  0
   -1.3350    1.6660    0.9936 C   0  0  0  0  0  0  0  0  0  0  0  0
   -2.7201    1.7917    0.6384 C   0  0  0  0  0  0  0  0  0  0  0  0
   -3.2826    1.0495   -0.4003 C   0  0  0  0  0  0  0  0  0  0  0  0
   -2.9288   -0.4424   -1.9540 H   0  0  0  0  0  0  0  0  0  0  0  0
   -0.4830   -0.7420   -1.4151 H   0  0  0  0  0  0  0  0  0  0  0  0
    4.9970    0.6424    0.2268 N   0  0  0  0  0  0  0  0  0  0  0  0
    6.1021    0.6452    0.2408 N   0  0  0  0  0  0  0  0  0  0  0  0
   -4.3334    1.1760   -0.6380 H   0  0  0  0  0  0  0  0  0  0  0  0
   -3.2944    2.5005    1.2309 H   0  0  0  0  0  0  0  0  0  0  0  0
   -0.8508    2.2185    1.7896 H   0  0  0  0  0  0  0  0  0  0  0  0
  1  2  2  0  0  0  0
  1  6  1  0  0  0  0
  2  3  1  0  0  0  0
  3  4  2  0  0  0  0
  4 13  1  0  0  0  0
  5  4  1  0  0  0  0
  5 12  1  0  0  0  0
  6  5  2  0  0  0  0
  7  1  1  0  0  0  0
  8  2  1  0  0  0  0
  9 10  3  0  0  0  0
 11  6  1  0  0  0  0
M  RAD  1   3   2
M  END
