Coordinates from ORCA-job Ph-N2+-B3LYPG-6-31G_dp-MTMO-d009-169-n800
 OpenBabel09051908203D

 13 12  0  0  0  0  0  0  0  0999 V2000
   -3.1336    0.2077   -1.1834 C   0  0  0  0  0  0  0  0  0  0  0  0
   -2.2168   -0.5650   -0.3936 C   0  0  0  0  0  0  0  0  0  0  0  0
   -2.0447    0.1644    0.7012 C   0  0  0  0  0  0  0  0  0  0  0  0
   -2.3460    1.2728    1.3652 C   0  0  0  0  0  0  0  0  0  0  0  0
   -3.2567    1.9608    0.4941 C   0  0  0  0  0  0  0  0  0  0  0  0
   -3.6318    1.4333   -0.7415 C   0  0  0  0  0  0  0  0  0  0  0  0
   -3.4087   -0.2261   -2.1418 H   0  0  0  0  0  0  0  0  0  0  0  0
   -1.8024   -1.5203   -0.6914 H   0  0  0  0  0  0  0  0  0  0  0  0
    9.0400    1.0249   -0.1789 N   0  0  0  0  0  0  0  0  0  0  0  0
   10.1440    1.0676   -0.2091 N   0  0  0  0  0  0  0  0  0  0  0  0
   -4.3226    1.9858   -1.3695 H   0  0  0  0  0  0  0  0  0  0  0  0
   -3.6294    2.9133    0.8630 H   0  0  0  0  0  0  0  0  0  0  0  0
   -2.0249    1.6385    2.3327 H   0  0  0  0  0  0  0  0  0  0  0  0
  1  6  2  0  0  0  0
  1  2  1  0  0  0  0
  2  3  2  0  0  0  0
  3  4  1  0  0  0  0
  4 13  1  0  0  0  0
  5 12  1  0  0  0  0
  5  4  2  0  0  0  0
  6  5  1  0  0  0  0
  7  1  1  0  0  0  0
  8  2  1  0  0  0  0
 10  9  3  0  0  0  0
 11  6  1  0  0  0  0
M  RAD  1   3   2
M  END
