Coordinates from ORCA-job Ph-N2+-B3LYPG-6-31G_dp-MTMO-d009-169-n800
 OpenBabel09051908213D

 13 12  0  0  0  0  0  0  0  0999 V2000
   -3.0327    0.3780   -1.0508 C   0  0  0  0  0  0  0  0  0  0  0  0
   -2.8908   -0.6149   -0.0232 C   0  0  0  0  0  0  0  0  0  0  0  0
   -3.4472   -0.0538    1.0426 C   0  0  0  0  0  0  0  0  0  0  0  0
   -4.0631    1.0030    1.5568 C   0  0  0  0  0  0  0  0  0  0  0  0
   -4.1515    1.9208    0.4562 C   0  0  0  0  0  0  0  0  0  0  0  0
   -3.6475    1.6059   -0.8059 C   0  0  0  0  0  0  0  0  0  0  0  0
   -2.6322    0.1060   -2.0246 H   0  0  0  0  0  0  0  0  0  0  0  0
   -2.4260   -1.5832   -0.1628 H   0  0  0  0  0  0  0  0  0  0  0  0
   12.6781    1.0872   -0.8767 N   0  0  0  0  0  0  0  0  0  0  0  0
   13.7832    1.1084   -0.8842 N   0  0  0  0  0  0  0  0  0  0  0  0
   -3.7352    2.3282   -1.6105 H   0  0  0  0  0  0  0  0  0  0  0  0
   -4.6329    2.8710    0.6756 H   0  0  0  0  0  0  0  0  0  0  0  0
   -4.4359    1.2012    2.5542 H   0  0  0  0  0  0  0  0  0  0  0  0
  1  6  2  0  0  0  0
  1  2  1  0  0  0  0
  2  3  2  0  0  0  0
  3  4  1  0  0  0  0
  4 13  1  0  0  0  0
  5 12  1  0  0  0  0
  5  4  2  0  0  0  0
  6  5  1  0  0  0  0
  7  1  1  0  0  0  0
  8  2  1  0  0  0  0
 10  9  3  0  0  0  0
 11  6  1  0  0  0  0
M  RAD  1   3   2
M  END
