Coordinates from ORCA-job Ph-N2+-B3LYPG-6-31G_dp-MTMO-d009-169-n800
 OpenBabel09051908203D

 13 12  0  0  0  0  0  0  0  0999 V2000
   -2.5589    0.1586   -1.1477 C   0  0  0  0  0  0  0  0  0  0  0  0
   -1.1809   -0.0847   -0.8276 C   0  0  0  0  0  0  0  0  0  0  0  0
   -0.9430    0.7241    0.1968 C   0  0  0  0  0  0  0  0  0  0  0  0
   -1.4173    1.6398    1.0317 C   0  0  0  0  0  0  0  0  0  0  0  0
   -2.7844    1.8034    0.6259 C   0  0  0  0  0  0  0  0  0  0  0  0
   -3.3278    1.0787   -0.4350 C   0  0  0  0  0  0  0  0  0  0  0  0
   -2.9568   -0.4192   -1.9789 H   0  0  0  0  0  0  0  0  0  0  0  0
   -0.5419   -0.7860   -1.3506 H   0  0  0  0  0  0  0  0  0  0  0  0
    5.3232    0.6484    0.1994 N   0  0  0  0  0  0  0  0  0  0  0  0
    6.4284    0.6565    0.1985 N   0  0  0  0  0  0  0  0  0  0  0  0
   -4.3652    1.2339   -0.7108 H   0  0  0  0  0  0  0  0  0  0  0  0
   -3.3608    2.5264    1.1987 H   0  0  0  0  0  0  0  0  0  0  0  0
   -0.9483    2.1778    1.8465 H   0  0  0  0  0  0  0  0  0  0  0  0
  1  2  2  0  0  0  0
  1  6  1  0  0  0  0
  2  3  1  0  0  0  0
  3  4  2  0  0  0  0
  4 13  1  0  0  0  0
  5  4  1  0  0  0  0
  5 12  1  0  0  0  0
  6  5  2  0  0  0  0
  7  1  1  0  0  0  0
  8  2  1  0  0  0  0
 10  9  3  0  0  0  0
 11  6  1  0  0  0  0
M  RAD  1   3   2
M  END
