Coordinates from ORCA-job Ph-N2+-B3LYPG-6-31G_dp-MTMO-d009-169-n800
 OpenBabel09051908213D

 13 12  0  0  0  0  0  0  0  0999 V2000
   -3.1800    0.2136   -1.1887 C   0  0  0  0  0  0  0  0  0  0  0  0
   -2.3325   -0.5972   -0.3606 C   0  0  0  0  0  0  0  0  0  0  0  0
   -2.1824    0.1221    0.7442 C   0  0  0  0  0  0  0  0  0  0  0  0
   -2.4668    1.2418    1.3965 C   0  0  0  0  0  0  0  0  0  0  0  0
   -3.3079    1.9678    0.4872 C   0  0  0  0  0  0  0  0  0  0  0  0
   -3.6473    1.4580   -0.7661 C   0  0  0  0  0  0  0  0  0  0  0  0
   -3.4288   -0.2073   -2.1600 H   0  0  0  0  0  0  0  0  0  0  0  0
   -1.9435   -1.5678   -0.6427 H   0  0  0  0  0  0  0  0  0  0  0  0
    9.4341    1.0591   -0.2139 N   0  0  0  0  0  0  0  0  0  0  0  0
   10.5381    1.1004   -0.2457 N   0  0  0  0  0  0  0  0  0  0  0  0
   -4.2847    2.0396   -1.4235 H   0  0  0  0  0  0  0  0  0  0  0  0
   -3.6578    2.9343    0.8417 H   0  0  0  0  0  0  0  0  0  0  0  0
   -2.1741    1.5934    2.3782 H   0  0  0  0  0  0  0  0  0  0  0  0
  1  6  2  0  0  0  0
  1  2  1  0  0  0  0
  2  3  2  0  0  0  0
  3  4  1  0  0  0  0
  4 13  1  0  0  0  0
  5 12  1  0  0  0  0
  5  4  2  0  0  0  0
  6  5  1  0  0  0  0
  7  1  1  0  0  0  0
  8  2  1  0  0  0  0
 10  9  3  0  0  0  0
 11  6  1  0  0  0  0
M  RAD  1   3   2
M  END
