Coordinates from ORCA-job Ph-N2+-B3LYPG-6-31G_dp-MTMO-d009-169-n800
 OpenBabel09051908213D

 13 12  0  0  0  0  0  0  0  0999 V2000
   -3.1891    0.2413   -1.1995 C   0  0  0  0  0  0  0  0  0  0  0  0
   -2.6778   -0.6915   -0.2352 C   0  0  0  0  0  0  0  0  0  0  0  0
   -2.6819   -0.0091    0.9027 C   0  0  0  0  0  0  0  0  0  0  0  0
   -2.9476    1.1354    1.5192 C   0  0  0  0  0  0  0  0  0  0  0  0
   -3.4462    1.9839    0.4737 C   0  0  0  0  0  0  0  0  0  0  0  0
   -3.5586    1.5384   -0.8435 C   0  0  0  0  0  0  0  0  0  0  0  0
   -3.2666   -0.1324   -2.2180 H   0  0  0  0  0  0  0  0  0  0  0  0
   -2.3760   -1.7067   -0.4615 H   0  0  0  0  0  0  0  0  0  0  0  0
   10.4577    1.1647   -0.3931 N   0  0  0  0  0  0  0  0  0  0  0  0
   11.5618    1.1998   -0.4291 N   0  0  0  0  0  0  0  0  0  0  0  0
   -3.9395    2.2120   -1.6035 H   0  0  0  0  0  0  0  0  0  0  0  0
   -3.7284    2.9886    0.7794 H   0  0  0  0  0  0  0  0  0  0  0  0
   -2.8415    1.4333    2.5553 H   0  0  0  0  0  0  0  0  0  0  0  0
  1  6  2  0  0  0  0
  1  2  1  0  0  0  0
  2  3  2  0  0  0  0
  3  4  1  0  0  0  0
  4 13  1  0  0  0  0
  5 12  1  0  0  0  0
  5  4  2  0  0  0  0
  6  5  1  0  0  0  0
  7  1  1  0  0  0  0
  8  2  1  0  0  0  0
 10  9  3  0  0  0  0
 11  6  1  0  0  0  0
M  RAD  1   3   2
M  END
