Coordinates from ORCA-job Ph-N2+-B3LYPG-6-31G_dp-MTMO-d009-169-n800
 OpenBabel09051908203D

 13 12  0  0  0  0  0  0  0  0999 V2000
   -2.1358    0.1062   -1.0971 C   0  0  0  0  0  0  0  0  0  0  0  0
   -0.7106   -0.0027   -0.9977 C   0  0  0  0  0  0  0  0  0  0  0  0
   -0.3792    0.8372   -0.0226 C   0  0  0  0  0  0  0  0  0  0  0  0
   -0.8115    1.7154    0.8763 C   0  0  0  0  0  0  0  0  0  0  0  0
   -2.2322    1.7475    0.6930 C   0  0  0  0  0  0  0  0  0  0  0  0
   -2.8655    0.9609   -0.2701 C   0  0  0  0  0  0  0  0  0  0  0  0
   -2.6075   -0.5156   -1.8544 H   0  0  0  0  0  0  0  0  0  0  0  0
   -0.0975   -0.6478   -1.6142 H   0  0  0  0  0  0  0  0  0  0  0  0
    2.5499    0.7251    0.2341 N   0  0  0  0  0  0  0  0  0  0  0  0
    3.6506    0.6922    0.3221 N   0  0  0  0  0  0  0  0  0  0  0  0
   -3.9436    1.0155   -0.3783 H   0  0  0  0  0  0  0  0  0  0  0  0
   -2.7800    2.4201    1.3488 H   0  0  0  0  0  0  0  0  0  0  0  0
   -0.2709    2.3038    1.6068 H   0  0  0  0  0  0  0  0  0  0  0  0
  1  2  2  0  0  0  0
  1  6  1  0  0  0  0
  2  3  1  0  0  0  0
  3  4  2  0  0  0  0
  4 13  1  0  0  0  0
  5  4  1  0  0  0  0
  5 12  1  0  0  0  0
  6  5  2  0  0  0  0
  7  1  1  0  0  0  0
  8  2  1  0  0  0  0
  9 10  3  0  0  0  0
 11  6  1  0  0  0  0
M  RAD  1   3   2
M  END
