Coordinates from ORCA-job Ph-N2+-B3LYPG-6-31G_dp-MTMO-d009-169-n800
 OpenBabel09051908203D

 13 12  0  0  0  0  0  0  0  0999 V2000
   -3.1121    0.2074   -1.1828 C   0  0  0  0  0  0  0  0  0  0  0  0
   -2.1821   -0.5561   -0.3998 C   0  0  0  0  0  0  0  0  0  0  0  0
   -2.0109    0.1740    0.6948 C   0  0  0  0  0  0  0  0  0  0  0  0
   -2.3179    1.2798    1.3606 C   0  0  0  0  0  0  0  0  0  0  0  0
   -3.2416    1.9585    0.4961 C   0  0  0  0  0  0  0  0  0  0  0  0
   -3.6198    1.4277   -0.7371 C   0  0  0  0  0  0  0  0  0  0  0  0
   -3.3895   -0.2288   -2.1395 H   0  0  0  0  0  0  0  0  0  0  0  0
   -1.7594   -1.5067   -0.7009 H   0  0  0  0  0  0  0  0  0  0  0  0
    8.9151    1.0145   -0.1736 N   0  0  0  0  0  0  0  0  0  0  0  0
   10.0191    1.0581   -0.2041 N   0  0  0  0  0  0  0  0  0  0  0  0
   -4.3203    1.9734   -1.3602 H   0  0  0  0  0  0  0  0  0  0  0  0
   -3.6213    2.9072    0.8677 H   0  0  0  0  0  0  0  0  0  0  0  0
   -1.9931    1.6488    2.3255 H   0  0  0  0  0  0  0  0  0  0  0  0
  1  6  2  0  0  0  0
  1  2  1  0  0  0  0
  2  3  2  0  0  0  0
  3  4  1  0  0  0  0
  4 13  1  0  0  0  0
  5 12  1  0  0  0  0
  5  4  2  0  0  0  0
  6  5  1  0  0  0  0
  7  1  1  0  0  0  0
  8  2  1  0  0  0  0
 10  9  3  0  0  0  0
 11  6  1  0  0  0  0
M  RAD  1   3   2
M  END
