Coordinates from ORCA-job Ph-N2+-B3LYPG-6-31G_dp-MTMO-d009-169-n800
 OpenBabel09051908203D

 13 12  0  0  0  0  0  0  0  0999 V2000
   -2.4693    0.1407   -1.1325 C   0  0  0  0  0  0  0  0  0  0  0  0
   -1.0643   -0.0383   -0.8982 C   0  0  0  0  0  0  0  0  0  0  0  0
   -0.8006    0.7856    0.1078 C   0  0  0  0  0  0  0  0  0  0  0  0
   -1.2633    1.6832    0.9684 C   0  0  0  0  0  0  0  0  0  0  0  0
   -2.6590    1.7830    0.6477 C   0  0  0  0  0  0  0  0  0  0  0  0
   -3.2335    1.0289   -0.3756 C   0  0  0  0  0  0  0  0  0  0  0  0
   -2.8914   -0.4588   -1.9360 H   0  0  0  0  0  0  0  0  0  0  0  0
   -0.4274   -0.7124   -1.4582 H   0  0  0  0  0  0  0  0  0  0  0  0
    4.6816    0.6428    0.2407 N   0  0  0  0  0  0  0  0  0  0  0  0
    5.7865    0.6397    0.2646 N   0  0  0  0  0  0  0  0  0  0  0  0
   -4.2921    1.1357   -0.5872 H   0  0  0  0  0  0  0  0  0  0  0  0
   -3.2313    2.4820    1.2536 H   0  0  0  0  0  0  0  0  0  0  0  0
   -0.7695    2.2456    1.7515 H   0  0  0  0  0  0  0  0  0  0  0  0
  1  2  2  0  0  0  0
  1  6  1  0  0  0  0
  2  3  1  0  0  0  0
  3  4  2  0  0  0  0
  4 13  1  0  0  0  0
  5  4  1  0  0  0  0
  5 12  1  0  0  0  0
  6  5  2  0  0  0  0
  7  1  1  0  0  0  0
  8  2  1  0  0  0  0
  9 10  3  0  0  0  0
 11  6  1  0  0  0  0
M  RAD  1   3   2
M  END
