Coordinates from ORCA-job Ph-N2+-B3LYPG-6-31G_dp-MTMO-d009-169-n800
 OpenBabel09051908213D

 13 12  0  0  0  0  0  0  0  0999 V2000
   -2.8860    0.3873   -1.0467 C   0  0  0  0  0  0  0  0  0  0  0  0
   -2.7609   -0.6095   -0.0208 C   0  0  0  0  0  0  0  0  0  0  0  0
   -3.3406   -0.0551    1.0361 C   0  0  0  0  0  0  0  0  0  0  0  0
   -3.9704    0.9972    1.5425 C   0  0  0  0  0  0  0  0  0  0  0  0
   -4.0403    1.9195    0.4444 C   0  0  0  0  0  0  0  0  0  0  0  0
   -3.5101    1.6120   -0.8088 C   0  0  0  0  0  0  0  0  0  0  0  0
   -2.4654    0.1210   -2.0136 H   0  0  0  0  0  0  0  0  0  0  0  0
   -2.2900   -1.5755   -0.1553 H   0  0  0  0  0  0  0  0  0  0  0  0
   12.0011    1.0713   -0.8505 N   0  0  0  0  0  0  0  0  0  0  0  0
   13.1061    1.0952   -0.8599 N   0  0  0  0  0  0  0  0  0  0  0  0
   -3.5844    2.3375   -1.6119 H   0  0  0  0  0  0  0  0  0  0  0  0
   -4.5294    2.8670    0.6582 H   0  0  0  0  0  0  0  0  0  0  0  0
   -4.3634    1.1899    2.5332 H   0  0  0  0  0  0  0  0  0  0  0  0
  1  6  2  0  0  0  0
  1  2  1  0  0  0  0
  2  3  2  0  0  0  0
  3  4  1  0  0  0  0
  4 13  1  0  0  0  0
  5 12  1  0  0  0  0
  5  4  2  0  0  0  0
  6  5  1  0  0  0  0
  7  1  1  0  0  0  0
  8  2  1  0  0  0  0
 10  9  3  0  0  0  0
 11  6  1  0  0  0  0
M  RAD  1   3   2
M  END
