Coordinates from ORCA-job Ph-N2+-B3LYPG-6-31G_dp-MTMO-d009-169-n800
 OpenBabel09051908203D

 13 12  0  0  0  0  0  0  0  0999 V2000
   -2.5096    0.2090   -1.1781 C   0  0  0  0  0  0  0  0  0  0  0  0
   -1.3242   -0.2905   -0.5408 C   0  0  0  0  0  0  0  0  0  0  0  0
   -1.2021    0.4641    0.5438 C   0  0  0  0  0  0  0  0  0  0  0  0
   -1.6905    1.4572    1.2756 C   0  0  0  0  0  0  0  0  0  0  0  0
   -2.8591    1.8758    0.5543 C   0  0  0  0  0  0  0  0  0  0  0  0
   -3.2470    1.2620   -0.6366 C   0  0  0  0  0  0  0  0  0  0  0  0
   -2.7890   -0.2874   -2.1043 H   0  0  0  0  0  0  0  0  0  0  0  0
   -0.7186   -1.1051   -0.9192 H   0  0  0  0  0  0  0  0  0  0  0  0
    5.7516    0.7392   -0.0862 N   0  0  0  0  0  0  0  0  0  0  0  0
    6.8532    0.8242   -0.1119 N   0  0  0  0  0  0  0  0  0  0  0  0
   -4.1371    1.6092   -1.1496 H   0  0  0  0  0  0  0  0  0  0  0  0
   -3.4141    2.6992    0.9979 H   0  0  0  0  0  0  0  0  0  0  0  0
   -1.3473    1.9009    2.2020 H   0  0  0  0  0  0  0  0  0  0  0  0
  1  6  2  0  0  0  0
  1  2  1  0  0  0  0
  2  3  2  0  0  0  0
  3  4  1  0  0  0  0
  4 13  1  0  0  0  0
  5 12  1  0  0  0  0
  5  4  2  0  0  0  0
  6  5  1  0  0  0  0
  7  1  1  0  0  0  0
  8  2  1  0  0  0  0
 10  9  3  0  0  0  0
 11  6  1  0  0  0  0
M  RAD  1   3   2
M  END
