Coordinates from ORCA-job Ph-N2+-B3LYPG-6-31G_dp-MTMO-d009-169-n800
 OpenBabel09051908203D

 13 12  0  0  0  0  0  0  0  0999 V2000
   -2.7314    0.2133   -1.1817 C   0  0  0  0  0  0  0  0  0  0  0  0
   -1.6296   -0.3829   -0.4807 C   0  0  0  0  0  0  0  0  0  0  0  0
   -1.5054    0.3606    0.6112 C   0  0  0  0  0  0  0  0  0  0  0  0
   -1.9491    1.3923    1.3178 C   0  0  0  0  0  0  0  0  0  0  0  0
   -3.0362    1.9064    0.5334 C   0  0  0  0  0  0  0  0  0  0  0  0
   -3.4070    1.3253   -0.6791 C   0  0  0  0  0  0  0  0  0  0  0  0
   -2.9994   -0.2594   -2.1236 H   0  0  0  0  0  0  0  0  0  0  0  0
   -1.0749   -1.2463   -0.8273 H   0  0  0  0  0  0  0  0  0  0  0  0
    6.9990    0.8333   -0.1284 N   0  0  0  0  0  0  0  0  0  0  0  0
    8.1021    0.8893   -0.1661 N   0  0  0  0  0  0  0  0  0  0  0  0
   -4.2349    1.7450   -1.2400 H   0  0  0  0  0  0  0  0  0  0  0  0
   -3.5441    2.7741    0.9479 H   0  0  0  0  0  0  0  0  0  0  0  0
   -1.6227    1.8067    2.2635 H   0  0  0  0  0  0  0  0  0  0  0  0
  1  6  2  0  0  0  0
  1  2  1  0  0  0  0
  2  3  2  0  0  0  0
  3  4  1  0  0  0  0
  4 13  1  0  0  0  0
  5 12  1  0  0  0  0
  5  4  2  0  0  0  0
  6  5  1  0  0  0  0
  7  1  1  0  0  0  0
  8  2  1  0  0  0  0
 10  9  3  0  0  0  0
 11  6  1  0  0  0  0
M  RAD  1   3   2
M  END
