Coordinates from ORCA-job Ph-N2+-B3LYPG-6-31G_dp-MTMO-d009-169-n800
 OpenBabel09051908213D

 13 12  0  0  0  0  0  0  0  0999 V2000
   -3.1839    0.2159   -1.1906 C   0  0  0  0  0  0  0  0  0  0  0  0
   -2.3609   -0.6068   -0.3495 C   0  0  0  0  0  0  0  0  0  0  0  0
   -2.2198    0.1094    0.7585 C   0  0  0  0  0  0  0  0  0  0  0  0
   -2.5004    1.2321    1.4074 C   0  0  0  0  0  0  0  0  0  0  0  0
   -3.3167    1.9699    0.4852 C   0  0  0  0  0  0  0  0  0  0  0  0
   -3.6418    1.4659   -0.7742 C   0  0  0  0  0  0  0  0  0  0  0  0
   -3.4221   -0.2007   -2.1664 H   0  0  0  0  0  0  0  0  0  0  0  0
   -1.9799   -1.5820   -0.6264 H   0  0  0  0  0  0  0  0  0  0  0  0
    9.5136    1.0684   -0.2263 N   0  0  0  0  0  0  0  0  0  0  0  0
   10.6176    1.1098   -0.2587 N   0  0  0  0  0  0  0  0  0  0  0  0
   -4.2604    2.0565   -1.4415 H   0  0  0  0  0  0  0  0  0  0  0  0
   -3.6598    2.9405    0.8351 H   0  0  0  0  0  0  0  0  0  0  0  0
   -2.2193    1.5788    2.3942 H   0  0  0  0  0  0  0  0  0  0  0  0
  1  6  2  0  0  0  0
  1  2  1  0  0  0  0
  2  3  2  0  0  0  0
  3  4  1  0  0  0  0
  4 13  1  0  0  0  0
  5 12  1  0  0  0  0
  5  4  2  0  0  0  0
  6  5  1  0  0  0  0
  7  1  1  0  0  0  0
  8  2  1  0  0  0  0
 10  9  3  0  0  0  0
 11  6  1  0  0  0  0
M  RAD  1   3   2
M  END
