Coordinates from ORCA-job Ph-N2+-B3LYPG-6-31G_dp-MTMO-d009-169-n800
 OpenBabel09051908213D

 13 12  0  0  0  0  0  0  0  0999 V2000
   -3.0719    0.3911   -1.0242 C   0  0  0  0  0  0  0  0  0  0  0  0
   -2.9616   -0.6091    0.0001 C   0  0  0  0  0  0  0  0  0  0  0  0
   -3.5625   -0.0610    1.0484 C   0  0  0  0  0  0  0  0  0  0  0  0
   -4.2054    0.9870    1.5472 C   0  0  0  0  0  0  0  0  0  0  0  0
   -4.2589    1.9132    0.4514 C   0  0  0  0  0  0  0  0  0  0  0  0
   -3.7048    1.6125   -0.7931 C   0  0  0  0  0  0  0  0  0  0  0  0
   -2.6330    0.1300   -1.9844 H   0  0  0  0  0  0  0  0  0  0  0  0
   -2.4848   -1.5730   -0.1295 H   0  0  0  0  0  0  0  0  0  0  0  0
   13.1419    1.0864   -0.9281 N   0  0  0  0  0  0  0  0  0  0  0  0
   14.2469    1.1071   -0.9377 N   0  0  0  0  0  0  0  0  0  0  0  0
   -3.7673    2.3408   -1.5947 H   0  0  0  0  0  0  0  0  0  0  0  0
   -4.7554    2.8581    0.6599 H   0  0  0  0  0  0  0  0  0  0  0  0
   -4.6168    1.1746    2.5314 H   0  0  0  0  0  0  0  0  0  0  0  0
  1  6  2  0  0  0  0
  1  2  1  0  0  0  0
  2  3  2  0  0  0  0
  3  4  1  0  0  0  0
  4 13  1  0  0  0  0
  5 12  1  0  0  0  0
  5  4  2  0  0  0  0
  6  5  1  0  0  0  0
  7  1  1  0  0  0  0
  8  2  1  0  0  0  0
 10  9  3  0  0  0  0
 11  6  1  0  0  0  0
M  RAD  1   3   2
M  END
