Coordinates from ORCA-job Ph-N2+-B3LYPG-6-31G_dp-MTMO-d009-169-n800
 OpenBabel09051908203D

 13 12  0  0  0  0  0  0  0  0999 V2000
   -2.6468    0.2124   -1.1807 C   0  0  0  0  0  0  0  0  0  0  0  0
   -1.5161   -0.3517   -0.4996 C   0  0  0  0  0  0  0  0  0  0  0  0
   -1.3953    0.3937    0.5915 C   0  0  0  0  0  0  0  0  0  0  0  0
   -1.8548    1.4137    1.3051 C   0  0  0  0  0  0  0  0  0  0  0  0
   -2.9698    1.8961    0.5403 C   0  0  0  0  0  0  0  0  0  0  0  0
   -3.3451    1.3046   -0.6658 C   0  0  0  0  0  0  0  0  0  0  0  0
   -2.9177   -0.2677   -2.1180 H   0  0  0  0  0  0  0  0  0  0  0  0
   -0.9422   -1.1983   -0.8563 H   0  0  0  0  0  0  0  0  0  0  0  0
    6.5317    0.7958   -0.1183 N   0  0  0  0  0  0  0  0  0  0  0  0
    7.6340    0.8713   -0.1474 N   0  0  0  0  0  0  0  0  0  0  0  0
   -4.1941    1.7006   -1.2121 H   0  0  0  0  0  0  0  0  0  0  0  0
   -3.4948    2.7491    0.9639 H   0  0  0  0  0  0  0  0  0  0  0  0
   -1.5228    1.8382    2.2444 H   0  0  0  0  0  0  0  0  0  0  0  0
  1  6  2  0  0  0  0
  1  2  1  0  0  0  0
  2  3  2  0  0  0  0
  3  4  1  0  0  0  0
  4 13  1  0  0  0  0
  5 12  1  0  0  0  0
  5  4  2  0  0  0  0
  6  5  1  0  0  0  0
  7  1  1  0  0  0  0
  8  2  1  0  0  0  0
 10  9  3  0  0  0  0
 11  6  1  0  0  0  0
M  RAD  1   3   2
M  END
