Coordinates from ORCA-job Ph-N2+-B3LYPG-6-31G_dp-MTMO-d009-169-n800
 OpenBabel09051908203D

 13 12  0  0  0  0  0  0  0  0999 V2000
   -2.4199    0.1338   -1.1265 C   0  0  0  0  0  0  0  0  0  0  0  0
   -1.0081   -0.0274   -0.9225 C   0  0  0  0  0  0  0  0  0  0  0  0
   -0.7330    0.8008    0.0769 C   0  0  0  0  0  0  0  0  0  0  0  0
   -1.1881    1.6935    0.9465 C   0  0  0  0  0  0  0  0  0  0  0  0
   -2.5915    1.7757    0.6560 C   0  0  0  0  0  0  0  0  0  0  0  0
   -3.1786    1.0133   -0.3541 C   0  0  0  0  0  0  0  0  0  0  0  0
   -2.8519   -0.4718   -1.9202 H   0  0  0  0  0  0  0  0  0  0  0  0
   -0.3750   -0.6941   -1.4954 H   0  0  0  0  0  0  0  0  0  0  0  0
    4.3470    0.6518    0.2517 N   0  0  0  0  0  0  0  0  0  0  0  0
    5.4517    0.6443    0.2853 N   0  0  0  0  0  0  0  0  0  0  0  0
   -4.2428    1.1068   -0.5428 H   0  0  0  0  0  0  0  0  0  0  0  0
   -3.1593    2.4681    1.2735 H   0  0  0  0  0  0  0  0  0  0  0  0
   -0.6844    2.2627    1.7184 H   0  0  0  0  0  0  0  0  0  0  0  0
  1  2  2  0  0  0  0
  1  6  1  0  0  0  0
  2  3  1  0  0  0  0
  3  4  2  0  0  0  0
  4 13  1  0  0  0  0
  5  4  1  0  0  0  0
  5 12  1  0  0  0  0
  6  5  2  0  0  0  0
  7  1  1  0  0  0  0
  8  2  1  0  0  0  0
  9 10  3  0  0  0  0
 11  6  1  0  0  0  0
M  RAD  1   3   2
M  END
