Coordinates from ORCA-job Ph-N2+-B3LYPG-6-31G_dp-MTMO-d009-169-n800
 OpenBabel09051908213D

 13 12  0  0  0  0  0  0  0  0999 V2000
   -2.7976    0.3918   -1.0447 C   0  0  0  0  0  0  0  0  0  0  0  0
   -2.6840   -0.6078   -0.0201 C   0  0  0  0  0  0  0  0  0  0  0  0
   -3.2757   -0.0565    1.0317 C   0  0  0  0  0  0  0  0  0  0  0  0
   -3.9114    0.9943    1.5339 C   0  0  0  0  0  0  0  0  0  0  0  0
   -3.9690    1.9196    0.4375 C   0  0  0  0  0  0  0  0  0  0  0  0
   -3.4245    1.6157   -0.8104 C   0  0  0  0  0  0  0  0  0  0  0  0
   -2.3662    0.1282   -2.0075 H   0  0  0  0  0  0  0  0  0  0  0  0
   -2.2115   -1.5735   -0.1520 H   0  0  0  0  0  0  0  0  0  0  0  0
   11.5836    1.0640   -0.8326 N   0  0  0  0  0  0  0  0  0  0  0  0
   12.6885    1.0876   -0.8458 N   0  0  0  0  0  0  0  0  0  0  0  0
   -3.4898    2.3434   -1.6123 H   0  0  0  0  0  0  0  0  0  0  0  0
   -4.4607    2.8665    0.6485 H   0  0  0  0  0  0  0  0  0  0  0  0
   -4.3155    1.1843    2.5206 H   0  0  0  0  0  0  0  0  0  0  0  0
  1  6  2  0  0  0  0
  1  2  1  0  0  0  0
  2  3  2  0  0  0  0
  3  4  1  0  0  0  0
  4 13  1  0  0  0  0
  5 12  1  0  0  0  0
  5  4  2  0  0  0  0
  6  5  1  0  0  0  0
  7  1  1  0  0  0  0
  8  2  1  0  0  0  0
 10  9  3  0  0  0  0
 11  6  1  0  0  0  0
M  RAD  1   3   2
M  END
