Coordinates from ORCA-job Ph-N2+-B3LYPG-6-31G_dp-MTMO-d009-169-n800
 OpenBabel09051908213D

 13 12  0  0  0  0  0  0  0  0999 V2000
   -3.1988    0.2297   -1.1995 C   0  0  0  0  0  0  0  0  0  0  0  0
   -2.5805   -0.6763   -0.2729 C   0  0  0  0  0  0  0  0  0  0  0  0
   -2.5087    0.0193    0.8546 C   0  0  0  0  0  0  0  0  0  0  0  0
   -2.7544    1.1632    1.4802 C   0  0  0  0  0  0  0  0  0  0  0  0
   -3.3646    1.9844    0.4727 C   0  0  0  0  0  0  0  0  0  0  0  0
   -3.5749    1.5199   -0.8258 C   0  0  0  0  0  0  0  0  0  0  0  0
   -3.3516   -0.1584   -2.2039 H   0  0  0  0  0  0  0  0  0  0  0  0
   -2.2698   -1.6854   -0.5141 H   0  0  0  0  0  0  0  0  0  0  0  0
   10.0612    1.1432   -0.3217 N   0  0  0  0  0  0  0  0  0  0  0  0
   11.1651    1.1840   -0.3573 N   0  0  0  0  0  0  0  0  0  0  0  0
   -4.0381    2.1732   -1.5573 H   0  0  0  0  0  0  0  0  0  0  0  0
   -3.6491    2.9843    0.7915 H   0  0  0  0  0  0  0  0  0  0  0  0
   -2.5695    1.4766    2.5004 H   0  0  0  0  0  0  0  0  0  0  0  0
  1  6  2  0  0  0  0
  1  2  1  0  0  0  0
  2  3  2  0  0  0  0
  3  4  1  0  0  0  0
  4 13  1  0  0  0  0
  5 12  1  0  0  0  0
  5  4  2  0  0  0  0
  6  5  1  0  0  0  0
  7  1  1  0  0  0  0
  8  2  1  0  0  0  0
 10  9  3  0  0  0  0
 11  6  1  0  0  0  0
M  RAD  1   3   2
M  END
