Coordinates from ORCA-job Ph-N2+-B3LYPG-6-31G_dp-MTMO-d009-169-n800
 OpenBabel09051908203D

 13 12  0  0  0  0  0  0  0  0999 V2000
   -2.1774    0.1086   -1.1011 C   0  0  0  0  0  0  0  0  0  0  0  0
   -0.7517   -0.0052   -0.9972 C   0  0  0  0  0  0  0  0  0  0  0  0
   -0.4276    0.8343   -0.0211 C   0  0  0  0  0  0  0  0  0  0  0  0
   -0.8539    1.7138    0.8775 C   0  0  0  0  0  0  0  0  0  0  0  0
   -2.2751    1.7498    0.6886 C   0  0  0  0  0  0  0  0  0  0  0  0
   -2.9074    0.9654   -0.2766 C   0  0  0  0  0  0  0  0  0  0  0  0
   -2.6470   -0.5123   -1.8607 H   0  0  0  0  0  0  0  0  0  0  0  0
   -0.1379   -0.6521   -1.6117 H   0  0  0  0  0  0  0  0  0  0  0  0
    2.7818    0.7183    0.2496 N   0  0  0  0  0  0  0  0  0  0  0  0
    3.8830    0.6888    0.3345 N   0  0  0  0  0  0  0  0  0  0  0  0
   -3.9850    1.0233   -0.3886 H   0  0  0  0  0  0  0  0  0  0  0  0
   -2.8218    2.4245    1.3434 H   0  0  0  0  0  0  0  0  0  0  0  0
   -0.3136    2.3004    1.6101 H   0  0  0  0  0  0  0  0  0  0  0  0
  1  2  2  0  0  0  0
  1  6  1  0  0  0  0
  2  3  1  0  0  0  0
  3  4  2  0  0  0  0
  4 13  1  0  0  0  0
  5  4  1  0  0  0  0
  5 12  1  0  0  0  0
  6  5  2  0  0  0  0
  7  1  1  0  0  0  0
  8  2  1  0  0  0  0
  9 10  3  0  0  0  0
 11  6  1  0  0  0  0
M  RAD  1   3   2
M  END
