Coordinates from ORCA-job Ph-N2+-B3LYPG-6-31G_dp-MTMO-d009-169-n800
 OpenBabel09051908203D

 13 12  0  0  0  0  0  0  0  0999 V2000
   -2.8587    0.2134   -1.1828 C   0  0  0  0  0  0  0  0  0  0  0  0
   -1.8057   -0.4339   -0.4527 C   0  0  0  0  0  0  0  0  0  0  0  0
   -1.6760    0.3034    0.6429 C   0  0  0  0  0  0  0  0  0  0  0  0
   -2.0862    1.3581    1.3355 C   0  0  0  0  0  0  0  0  0  0  0  0
   -3.1262    1.9225    0.5227 C   0  0  0  0  0  0  0  0  0  0  0  0
   -3.4927    1.3577   -0.6989 C   0  0  0  0  0  0  0  0  0  0  0  0
   -3.1244   -0.2474   -2.1312 H   0  0  0  0  0  0  0  0  0  0  0  0
   -1.2837   -1.3230   -0.7844 H   0  0  0  0  0  0  0  0  0  0  0  0
    7.6833    0.8862   -0.1477 N   0  0  0  0  0  0  0  0  0  0  0  0
    8.7869    0.9313   -0.1862 N   0  0  0  0  0  0  0  0  0  0  0  0
   -4.2839    1.8162   -1.2822 H   0  0  0  0  0  0  0  0  0  0  0  0
   -3.6021    2.8146    0.9229 H   0  0  0  0  0  0  0  0  0  0  0  0
   -1.7643    1.7586    2.2888 H   0  0  0  0  0  0  0  0  0  0  0  0
  1  6  2  0  0  0  0
  1  2  1  0  0  0  0
  2  3  2  0  0  0  0
  3  4  1  0  0  0  0
  4 13  1  0  0  0  0
  5 12  1  0  0  0  0
  5  4  2  0  0  0  0
  6  5  1  0  0  0  0
  7  1  1  0  0  0  0
  8  2  1  0  0  0  0
 10  9  3  0  0  0  0
 11  6  1  0  0  0  0
M  RAD  1   3   2
M  END
