Coordinates from ORCA-job Ph-N2+-B3LYPG-6-31G_dp-MTMO-d009-169-n800
 OpenBabel09051908203D

 13 12  0  0  0  0  0  0  0  0999 V2000
   -3.1438    0.2079   -1.1837 C   0  0  0  0  0  0  0  0  0  0  0  0
   -2.2330   -0.5687   -0.3908 C   0  0  0  0  0  0  0  0  0  0  0  0
   -2.0626    0.1592    0.7053 C   0  0  0  0  0  0  0  0  0  0  0  0
   -2.3603    1.2697    1.3675 C   0  0  0  0  0  0  0  0  0  0  0  0
   -3.2650    1.9615    0.4934 C   0  0  0  0  0  0  0  0  0  0  0  0
   -3.6383    1.4357   -0.7435 C   0  0  0  0  0  0  0  0  0  0  0  0
   -3.4176   -0.2247   -2.1430 H   0  0  0  0  0  0  0  0  0  0  0  0
   -1.8210   -1.5253   -0.6874 H   0  0  0  0  0  0  0  0  0  0  0  0
    9.1014    1.0293   -0.1815 N   0  0  0  0  0  0  0  0  0  0  0  0
   10.2054    1.0716   -0.2118 N   0  0  0  0  0  0  0  0  0  0  0  0
   -4.3241    1.9913   -1.3740 H   0  0  0  0  0  0  0  0  0  0  0  0
   -3.6348    2.9157    0.8608 H   0  0  0  0  0  0  0  0  0  0  0  0
   -2.0400    1.6345    2.3356 H   0  0  0  0  0  0  0  0  0  0  0  0
  1  6  2  0  0  0  0
  1  2  1  0  0  0  0
  2  3  2  0  0  0  0
  3  4  1  0  0  0  0
  4 13  1  0  0  0  0
  5 12  1  0  0  0  0
  5  4  2  0  0  0  0
  6  5  1  0  0  0  0
  7  1  1  0  0  0  0
  8  2  1  0  0  0  0
 10  9  3  0  0  0  0
 11  6  1  0  0  0  0
M  RAD  1   3   2
M  END
