Coordinates from ORCA-job Ph-N2+-B3LYPG-6-31G_dp-MTMO-d009-169-n800
 OpenBabel09051908203D

 13 12  0  0  0  0  0  0  0  0999 V2000
   -2.2797    0.1166   -1.1116 C   0  0  0  0  0  0  0  0  0  0  0  0
   -0.8565   -0.0148   -0.9816 C   0  0  0  0  0  0  0  0  0  0  0  0
   -0.5454    0.8209    0.0008 C   0  0  0  0  0  0  0  0  0  0  0  0
   -0.9732    1.7053    0.8926 C   0  0  0  0  0  0  0  0  0  0  0  0
   -2.3912    1.7580    0.6766 C   0  0  0  0  0  0  0  0  0  0  0  0
   -3.0147    0.9817   -0.3006 C   0  0  0  0  0  0  0  0  0  0  0  0
   -2.7408   -0.4989   -1.8808 H   0  0  0  0  0  0  0  0  0  0  0  0
   -0.2395   -0.6689   -1.5857 H   0  0  0  0  0  0  0  0  0  0  0  0
    3.3872    0.6993    0.2723 N   0  0  0  0  0  0  0  0  0  0  0  0
    4.4901    0.6805    0.3393 N   0  0  0  0  0  0  0  0  0  0  0  0
   -4.0892    1.0527   -0.4328 H   0  0  0  0  0  0  0  0  0  0  0  0
   -2.9404    2.4395    1.3224 H   0  0  0  0  0  0  0  0  0  0  0  0
   -0.4404    2.2857    1.6359 H   0  0  0  0  0  0  0  0  0  0  0  0
  1  2  2  0  0  0  0
  1  6  1  0  0  0  0
  2  3  1  0  0  0  0
  3  4  2  0  0  0  0
  4 13  1  0  0  0  0
  5  4  1  0  0  0  0
  5 12  1  0  0  0  0
  6  5  2  0  0  0  0
  7  1  1  0  0  0  0
  8  2  1  0  0  0  0
  9 10  3  0  0  0  0
 11  6  1  0  0  0  0
M  RAD  1   3   2
M  END
