Coordinates from ORCA-job Ph-N2+-B3LYPG-6-31G_dp-MTMO-d009-169-n800
 OpenBabel09051908203D

 13 12  0  0  0  0  0  0  0  0999 V2000
   -2.9277    0.2115   -1.1827 C   0  0  0  0  0  0  0  0  0  0  0  0
   -1.9056   -0.4688   -0.4386 C   0  0  0  0  0  0  0  0  0  0  0  0
   -1.7623    0.2685    0.6552 C   0  0  0  0  0  0  0  0  0  0  0  0
   -2.1465    1.3368    1.3418 C   0  0  0  0  0  0  0  0  0  0  0  0
   -3.1574    1.9337    0.5152 C   0  0  0  0  0  0  0  0  0  0  0  0
   -3.5284    1.3779   -0.7090 C   0  0  0  0  0  0  0  0  0  0  0  0
   -3.1975   -0.2429   -2.1331 H   0  0  0  0  0  0  0  0  0  0  0  0
   -1.4104   -1.3761   -0.7619 H   0  0  0  0  0  0  0  0  0  0  0  0
    8.0138    0.9205   -0.1543 N   0  0  0  0  0  0  0  0  0  0  0  0
    9.1175    0.9657   -0.1898 N   0  0  0  0  0  0  0  0  0  0  0  0
   -4.2974    1.8606   -1.3024 H   0  0  0  0  0  0  0  0  0  0  0  0
   -3.6081    2.8420    0.9079 H   0  0  0  0  0  0  0  0  0  0  0  0
   -1.8237    1.7281    2.2986 H   0  0  0  0  0  0  0  0  0  0  0  0
  1  6  2  0  0  0  0
  1  2  1  0  0  0  0
  2  3  2  0  0  0  0
  3  4  1  0  0  0  0
  4 13  1  0  0  0  0
  5 12  1  0  0  0  0
  5  4  2  0  0  0  0
  6  5  1  0  0  0  0
  7  1  1  0  0  0  0
  8  2  1  0  0  0  0
 10  9  3  0  0  0  0
 11  6  1  0  0  0  0
M  RAD  1   3   2
M  END
