Coordinates from ORCA-job Ph-N2+-B3LYPG-6-31G_dp-MTMO-d009-169-n800
 OpenBabel09051908213D

 13 12  0  0  0  0  0  0  0  0999 V2000
   -2.7822    0.3999   -1.0312 C   0  0  0  0  0  0  0  0  0  0  0  0
   -2.6859   -0.6038   -0.0089 C   0  0  0  0  0  0  0  0  0  0  0  0
   -3.3022   -0.0599    1.0325 C   0  0  0  0  0  0  0  0  0  0  0  0
   -3.9529    0.9859    1.5259 C   0  0  0  0  0  0  0  0  0  0  0  0
   -3.9914    1.9160    0.4327 C   0  0  0  0  0  0  0  0  0  0  0  0
   -3.4192    1.6201   -0.8048 C   0  0  0  0  0  0  0  0  0  0  0  0
   -2.3295    0.1425   -1.9859 H   0  0  0  0  0  0  0  0  0  0  0  0
   -2.2066   -1.5669   -0.1351 H   0  0  0  0  0  0  0  0  0  0  0  0
   11.6358    1.0596   -0.8505 N   0  0  0  0  0  0  0  0  0  0  0  0
   12.7407    1.0834   -0.8654 N   0  0  0  0  0  0  0  0  0  0  0  0
   -3.4706    2.3512   -1.6046 H   0  0  0  0  0  0  0  0  0  0  0  0
   -4.4915    2.8598    0.6374 H   0  0  0  0  0  0  0  0  0  0  0  0
   -4.3784    1.1698    2.5048 H   0  0  0  0  0  0  0  0  0  0  0  0
  1  6  2  0  0  0  0
  1  2  1  0  0  0  0
  2  3  2  0  0  0  0
  3  4  1  0  0  0  0
  4 13  1  0  0  0  0
  5 12  1  0  0  0  0
  5  4  2  0  0  0  0
  6  5  1  0  0  0  0
  7  1  1  0  0  0  0
  8  2  1  0  0  0  0
 10  9  3  0  0  0  0
 11  6  1  0  0  0  0
M  RAD  1   3   2
M  END
