Coordinates from ORCA-job Ph-N2+-B3LYPG-6-31G_dp-MTMO-d009-169-n800
 OpenBabel09051908203D

 13 12  0  0  0  0  0  0  0  0999 V2000
   -2.4568    0.1389   -1.1309 C   0  0  0  0  0  0  0  0  0  0  0  0
   -1.0499   -0.0348   -0.9045 C   0  0  0  0  0  0  0  0  0  0  0  0
   -0.7836    0.7903    0.0997 C   0  0  0  0  0  0  0  0  0  0  0  0
   -1.2446    1.6865    0.9627 C   0  0  0  0  0  0  0  0  0  0  0  0
   -2.6425    1.7811    0.6499 C   0  0  0  0  0  0  0  0  0  0  0  0
   -3.2200    1.0245   -0.3700 C   0  0  0  0  0  0  0  0  0  0  0  0
   -2.8813   -0.4624   -1.9318 H   0  0  0  0  0  0  0  0  0  0  0  0
   -0.4137   -0.7067   -1.4679 H   0  0  0  0  0  0  0  0  0  0  0  0
    4.5982    0.6443    0.2435 N   0  0  0  0  0  0  0  0  0  0  0  0
    5.7030    0.6399    0.2700 N   0  0  0  0  0  0  0  0  0  0  0  0
   -4.2802    1.1274   -0.5755 H   0  0  0  0  0  0  0  0  0  0  0  0
   -3.2139    2.4781    1.2588 H   0  0  0  0  0  0  0  0  0  0  0  0
   -0.7484    2.2509    1.7429 H   0  0  0  0  0  0  0  0  0  0  0  0
  1  2  2  0  0  0  0
  1  6  1  0  0  0  0
  2  3  1  0  0  0  0
  3  4  2  0  0  0  0
  4 13  1  0  0  0  0
  5  4  1  0  0  0  0
  5 12  1  0  0  0  0
  6  5  2  0  0  0  0
  7  1  1  0  0  0  0
  8  2  1  0  0  0  0
  9 10  3  0  0  0  0
 11  6  1  0  0  0  0
M  RAD  1   3   2
M  END
