Coordinates from ORCA-job Ph-N2+-B3LYPG-6-31G_dp-MTMO-d009-169-n800
 OpenBabel09051908203D

 13 12  0  0  0  0  0  0  0  0999 V2000
   -2.6380    0.2123   -1.1806 C   0  0  0  0  0  0  0  0  0  0  0  0
   -1.5043   -0.3483   -0.5016 C   0  0  0  0  0  0  0  0  0  0  0  0
   -1.3839    0.3972    0.5894 C   0  0  0  0  0  0  0  0  0  0  0  0
   -1.8450    1.4160    1.3037 C   0  0  0  0  0  0  0  0  0  0  0  0
   -2.9629    1.8949    0.5411 C   0  0  0  0  0  0  0  0  0  0  0  0
   -3.3386    1.3024   -0.6644 C   0  0  0  0  0  0  0  0  0  0  0  0
   -2.9092   -0.2686   -2.1174 H   0  0  0  0  0  0  0  0  0  0  0  0
   -0.9285   -1.1932   -0.8594 H   0  0  0  0  0  0  0  0  0  0  0  0
    6.4834    0.7920   -0.1172 N   0  0  0  0  0  0  0  0  0  0  0  0
    7.5855    0.8692   -0.1455 N   0  0  0  0  0  0  0  0  0  0  0  0
   -4.1898    1.6959   -1.2091 H   0  0  0  0  0  0  0  0  0  0  0  0
   -3.4897    2.7464    0.9656 H   0  0  0  0  0  0  0  0  0  0  0  0
   -1.5125    1.8416    2.2423 H   0  0  0  0  0  0  0  0  0  0  0  0
  1  6  2  0  0  0  0
  1  2  1  0  0  0  0
  2  3  2  0  0  0  0
  3  4  1  0  0  0  0
  4 13  1  0  0  0  0
  5 12  1  0  0  0  0
  5  4  2  0  0  0  0
  6  5  1  0  0  0  0
  7  1  1  0  0  0  0
  8  2  1  0  0  0  0
 10  9  3  0  0  0  0
 11  6  1  0  0  0  0
M  RAD  1   3   2
M  END
