Coordinates from ORCA-job Ph-N2+-B3LYPG-6-31G_dp-MTMO-d009-169-n800
 OpenBabel09051908203D

 13 13  0  0  0  0  0  0  0  0999 V2000
   -1.8906    0.0891   -1.0803 C   0  0  0  0  0  0  0  0  0  0  0  0
   -0.5235    0.0134   -0.9702 C   0  0  0  0  0  0  0  0  0  0  0  0
    0.1924    0.8228    0.0201 C   0  0  0  0  0  0  0  0  0  0  0  0
   -0.6219    1.6983    0.8680 C   0  0  0  0  0  0  0  0  0  0  0  0
   -1.9871    1.7419    0.7229 C   0  0  0  0  0  0  0  0  0  0  0  0
   -2.6264    0.9458   -0.2433 C   0  0  0  0  0  0  0  0  0  0  0  0
   -2.3983   -0.5195   -1.8216 H   0  0  0  0  0  0  0  0  0  0  0  0
    0.0774   -0.6360   -1.6000 H   0  0  0  0  0  0  0  0  0  0  0  0
    1.1873    0.7800    0.1127 N   0  0  0  0  0  0  0  0  0  0  0  0
    2.3262    0.7311    0.2185 N   0  0  0  0  0  0  0  0  0  0  0  0
   -3.7069    0.9936   -0.3450 H   0  0  0  0  0  0  0  0  0  0  0  0
   -2.5685    2.3983    1.3623 H   0  0  0  0  0  0  0  0  0  0  0  0
   -0.0937    2.2989    1.6028 H   0  0  0  0  0  0  0  0  0  0  0  0
  1  2  2  0  0  0  0
  1  6  1  0  0  0  0
  2  3  1  0  0  0  0
  3  9  1  0  0  0  0
  3  4  2  0  0  0  0
  4 13  1  0  0  0  0
  5  4  1  0  0  0  0
  5 12  1  0  0  0  0
  6  5  2  0  0  0  0
  7  1  1  0  0  0  0
  8  2  1  0  0  0  0
  9 10  1  0  0  0  0
 11  6  1  0  0  0  0
M  RAD  2   9   2  10   3
M  END
