Coordinates from ORCA-job Ph-N2+-B3LYPG-6-31G_dp-MTMO-d009-169-n800
 OpenBabel09051908203D

 13 12  0  0  0  0  0  0  0  0999 V2000
   -2.4321    0.1354   -1.1279 C   0  0  0  0  0  0  0  0  0  0  0  0
   -1.0218   -0.0295   -0.9166 C   0  0  0  0  0  0  0  0  0  0  0  0
   -0.7498    0.7978    0.0843 C   0  0  0  0  0  0  0  0  0  0  0  0
   -1.2070    1.6915    0.9518 C   0  0  0  0  0  0  0  0  0  0  0  0
   -2.6087    1.7774    0.6540 C   0  0  0  0  0  0  0  0  0  0  0  0
   -3.1925    1.0168   -0.3592 C   0  0  0  0  0  0  0  0  0  0  0  0
   -2.8615   -0.4688   -1.9240 H   0  0  0  0  0  0  0  0  0  0  0  0
   -0.3875   -0.6977   -1.4864 H   0  0  0  0  0  0  0  0  0  0  0  0
    4.4308    0.6488    0.2490 N   0  0  0  0  0  0  0  0  0  0  0  0
    5.5355    0.6423    0.2802 N   0  0  0  0  0  0  0  0  0  0  0  0
   -4.2554    1.1131   -0.5534 H   0  0  0  0  0  0  0  0  0  0  0  0
   -3.1778    2.4712    1.2687 H   0  0  0  0  0  0  0  0  0  0  0  0
   -0.7059    2.2593    1.7264 H   0  0  0  0  0  0  0  0  0  0  0  0
  1  2  2  0  0  0  0
  1  6  1  0  0  0  0
  2  3  1  0  0  0  0
  3  4  2  0  0  0  0
  4 13  1  0  0  0  0
  5  4  1  0  0  0  0
  5 12  1  0  0  0  0
  6  5  2  0  0  0  0
  7  1  1  0  0  0  0
  8  2  1  0  0  0  0
  9 10  3  0  0  0  0
 11  6  1  0  0  0  0
M  RAD  1   3   2
M  END
