Coordinates from ORCA-job Ph-N2+-B3LYPG-6-31G_dp-MTMO-d009-169-n800
 OpenBabel09051908203D

 13 12  0  0  0  0  0  0  0  0999 V2000
   -2.0971    0.1041   -1.0935 C   0  0  0  0  0  0  0  0  0  0  0  0
   -0.6737   -0.0007   -0.9964 C   0  0  0  0  0  0  0  0  0  0  0  0
   -0.3302    0.8388   -0.0218 C   0  0  0  0  0  0  0  0  0  0  0  0
   -0.7742    1.7159    0.8761 C   0  0  0  0  0  0  0  0  0  0  0  0
   -2.1933    1.7456    0.6970 C   0  0  0  0  0  0  0  0  0  0  0  0
   -2.8268    0.9574   -0.2648 C   0  0  0  0  0  0  0  0  0  0  0  0
   -2.5714   -0.5177   -1.8488 H   0  0  0  0  0  0  0  0  0  0  0  0
   -0.0619   -0.6449   -1.6147 H   0  0  0  0  0  0  0  0  0  0  0  0
    2.3392    0.7317    0.2176 N   0  0  0  0  0  0  0  0  0  0  0  0
    3.4393    0.6957    0.3083 N   0  0  0  0  0  0  0  0  0  0  0  0
   -3.9053    1.0096   -0.3706 H   0  0  0  0  0  0  0  0  0  0  0  0
   -2.7434    2.4162    1.3526 H   0  0  0  0  0  0  0  0  0  0  0  0
   -0.2349    2.3060    1.6057 H   0  0  0  0  0  0  0  0  0  0  0  0
  1  2  2  0  0  0  0
  1  6  1  0  0  0  0
  2  3  1  0  0  0  0
  3  4  2  0  0  0  0
  4 13  1  0  0  0  0
  5  4  1  0  0  0  0
  5 12  1  0  0  0  0
  6  5  2  0  0  0  0
  7  1  1  0  0  0  0
  8  2  1  0  0  0  0
  9 10  3  0  0  0  0
 11  6  1  0  0  0  0
M  RAD  1   3   2
M  END
