Coordinates from ORCA-job Ph-N2+-B3LYPG-6-31G_dp-MTMO-d009-169-n800
 OpenBabel09051908203D

 13 12  0  0  0  0  0  0  0  0999 V2000
   -2.1328    0.1060   -1.0968 C   0  0  0  0  0  0  0  0  0  0  0  0
   -0.7077   -0.0026   -0.9976 C   0  0  0  0  0  0  0  0  0  0  0  0
   -0.3756    0.8373   -0.0226 C   0  0  0  0  0  0  0  0  0  0  0  0
   -0.8086    1.7154    0.8762 C   0  0  0  0  0  0  0  0  0  0  0  0
   -2.2292    1.7473    0.6933 C   0  0  0  0  0  0  0  0  0  0  0  0
   -2.8625    0.9607   -0.2696 C   0  0  0  0  0  0  0  0  0  0  0  0
   -2.6046   -0.5158   -1.8540 H   0  0  0  0  0  0  0  0  0  0  0  0
   -0.0946   -0.6476   -1.6143 H   0  0  0  0  0  0  0  0  0  0  0  0
    2.5335    0.7256    0.2329 N   0  0  0  0  0  0  0  0  0  0  0  0
    3.6342    0.6925    0.3211 N   0  0  0  0  0  0  0  0  0  0  0  0
   -3.9407    1.0151   -0.3776 H   0  0  0  0  0  0  0  0  0  0  0  0
   -2.7771    2.4198    1.3492 H   0  0  0  0  0  0  0  0  0  0  0  0
   -0.2680    2.3040    1.6067 H   0  0  0  0  0  0  0  0  0  0  0  0
  1  2  2  0  0  0  0
  1  6  1  0  0  0  0
  2  3  1  0  0  0  0
  3  4  2  0  0  0  0
  4 13  1  0  0  0  0
  5  4  1  0  0  0  0
  5 12  1  0  0  0  0
  6  5  2  0  0  0  0
  7  1  1  0  0  0  0
  8  2  1  0  0  0  0
  9 10  3  0  0  0  0
 11  6  1  0  0  0  0
M  RAD  1   3   2
M  END
