Coordinates from ORCA-job Ph-N2+-B3LYPG-6-31G_dp-MTMO-d009-169-n800
 OpenBabel09051908203D

 13 12  0  0  0  0  0  0  0  0999 V2000
   -2.1298    0.1059   -1.0965 C   0  0  0  0  0  0  0  0  0  0  0  0
   -0.7048   -0.0024   -0.9976 C   0  0  0  0  0  0  0  0  0  0  0  0
   -0.3720    0.8375   -0.0226 C   0  0  0  0  0  0  0  0  0  0  0  0
   -0.8056    1.7155    0.8762 C   0  0  0  0  0  0  0  0  0  0  0  0
   -2.2262    1.7472    0.6937 C   0  0  0  0  0  0  0  0  0  0  0  0
   -2.8595    0.9604   -0.2692 C   0  0  0  0  0  0  0  0  0  0  0  0
   -2.6018   -0.5160   -1.8535 H   0  0  0  0  0  0  0  0  0  0  0  0
   -0.0918   -0.6473   -1.6143 H   0  0  0  0  0  0  0  0  0  0  0  0
    2.5172    0.7261    0.2317 N   0  0  0  0  0  0  0  0  0  0  0  0
    3.6178    0.6927    0.3200 N   0  0  0  0  0  0  0  0  0  0  0  0
   -3.9377    1.0146   -0.3770 H   0  0  0  0  0  0  0  0  0  0  0  0
   -2.7743    2.4195    1.3495 H   0  0  0  0  0  0  0  0  0  0  0  0
   -0.2652    2.3042    1.6066 H   0  0  0  0  0  0  0  0  0  0  0  0
  1  2  2  0  0  0  0
  1  6  1  0  0  0  0
  2  3  1  0  0  0  0
  3  4  2  0  0  0  0
  4 13  1  0  0  0  0
  5  4  1  0  0  0  0
  5 12  1  0  0  0  0
  6  5  2  0  0  0  0
  7  1  1  0  0  0  0
  8  2  1  0  0  0  0
  9 10  3  0  0  0  0
 11  6  1  0  0  0  0
M  RAD  1   3   2
M  END
