Coordinates from ORCA-job Ph-N2+-B3LYPG-6-31G_dp-MTMO-d009-169-n800
 OpenBabel09051908203D

 13 12  0  0  0  0  0  0  0  0999 V2000
   -2.5360    0.2101   -1.1788 C   0  0  0  0  0  0  0  0  0  0  0  0
   -1.3632   -0.3043   -0.5303 C   0  0  0  0  0  0  0  0  0  0  0  0
   -1.2433    0.4469    0.5569 C   0  0  0  0  0  0  0  0  0  0  0  0
   -1.7254    1.4470    1.2835 C   0  0  0  0  0  0  0  0  0  0  0  0
   -2.8815    1.8803    0.5511 C   0  0  0  0  0  0  0  0  0  0  0  0
   -3.2654    1.2720   -0.6440 C   0  0  0  0  0  0  0  0  0  0  0  0
   -2.8127   -0.2822   -2.1081 H   0  0  0  0  0  0  0  0  0  0  0  0
   -0.7637   -1.1258   -0.9034 H   0  0  0  0  0  0  0  0  0  0  0  0
    5.9085    0.7506   -0.0951 N   0  0  0  0  0  0  0  0  0  0  0  0
    7.0102    0.8354   -0.1215 N   0  0  0  0  0  0  0  0  0  0  0  0
   -4.1458    1.6308   -1.1657 H   0  0  0  0  0  0  0  0  0  0  0  0
   -3.4304    2.7105    0.9895 H   0  0  0  0  0  0  0  0  0  0  0  0
   -1.3851    1.8865    2.2128 H   0  0  0  0  0  0  0  0  0  0  0  0
  1  6  2  0  0  0  0
  1  2  1  0  0  0  0
  2  3  2  0  0  0  0
  3  4  1  0  0  0  0
  4 13  1  0  0  0  0
  5 12  1  0  0  0  0
  5  4  2  0  0  0  0
  6  5  1  0  0  0  0
  7  1  1  0  0  0  0
  8  2  1  0  0  0  0
 10  9  3  0  0  0  0
 11  6  1  0  0  0  0
M  RAD  1   3   2
M  END
