Coordinates from ORCA-job Ph-N2+-B3LYPG-6-31G_dp-MTMO-d009-169-n800
 OpenBabel09051908203D

 13 12  0  0  0  0  0  0  0  0999 V2000
   -2.4102    0.1325   -1.1255 C   0  0  0  0  0  0  0  0  0  0  0  0
   -0.9973   -0.0260   -0.9271 C   0  0  0  0  0  0  0  0  0  0  0  0
   -0.7196    0.8029    0.0709 C   0  0  0  0  0  0  0  0  0  0  0  0
   -1.1729    1.6948    0.9423 C   0  0  0  0  0  0  0  0  0  0  0  0
   -2.5776    1.7744    0.6575 C   0  0  0  0  0  0  0  0  0  0  0  0
   -3.1674    1.0107   -0.3500 C   0  0  0  0  0  0  0  0  0  0  0  0
   -2.8443   -0.4740   -1.9173 H   0  0  0  0  0  0  0  0  0  0  0  0
   -0.3652   -0.6916   -1.5025 H   0  0  0  0  0  0  0  0  0  0  0  0
    4.2799    0.6546    0.2539 N   0  0  0  0  0  0  0  0  0  0  0  0
    5.3845    0.6464    0.2895 N   0  0  0  0  0  0  0  0  0  0  0  0
   -4.2325    1.1022   -0.5343 H   0  0  0  0  0  0  0  0  0  0  0  0
   -3.1441    2.4658    1.2772 H   0  0  0  0  0  0  0  0  0  0  0  0
   -0.6670    2.2651    1.7120 H   0  0  0  0  0  0  0  0  0  0  0  0
  1  2  2  0  0  0  0
  1  6  1  0  0  0  0
  2  3  1  0  0  0  0
  3  4  2  0  0  0  0
  4 13  1  0  0  0  0
  5  4  1  0  0  0  0
  5 12  1  0  0  0  0
  6  5  2  0  0  0  0
  7  1  1  0  0  0  0
  8  2  1  0  0  0  0
  9 10  3  0  0  0  0
 11  6  1  0  0  0  0
M  RAD  1   3   2
M  END
