Coordinates from ORCA-job Ph-N2+-B3LYPG-6-31G_dp-MTMO-d009-169-n800
 OpenBabel09051908203D

 13 12  0  0  0  0  0  0  0  0999 V2000
   -2.4175    0.1334   -1.1263 C   0  0  0  0  0  0  0  0  0  0  0  0
   -1.0054   -0.0271   -0.9236 C   0  0  0  0  0  0  0  0  0  0  0  0
   -0.7297    0.8013    0.0754 C   0  0  0  0  0  0  0  0  0  0  0  0
   -1.1843    1.6938    0.9455 C   0  0  0  0  0  0  0  0  0  0  0  0
   -2.5880    1.7754    0.6564 C   0  0  0  0  0  0  0  0  0  0  0  0
   -3.1758    1.0127   -0.3531 C   0  0  0  0  0  0  0  0  0  0  0  0
   -2.8500   -0.4723   -1.9195 H   0  0  0  0  0  0  0  0  0  0  0  0
   -0.3725   -0.6934   -1.4971 H   0  0  0  0  0  0  0  0  0  0  0  0
    4.3303    0.6525    0.2522 N   0  0  0  0  0  0  0  0  0  0  0  0
    5.4349    0.6448    0.2864 N   0  0  0  0  0  0  0  0  0  0  0  0
   -4.2402    1.1056   -0.5406 H   0  0  0  0  0  0  0  0  0  0  0  0
   -3.1555    2.4676    1.2744 H   0  0  0  0  0  0  0  0  0  0  0  0
   -0.6800    2.2633    1.7168 H   0  0  0  0  0  0  0  0  0  0  0  0
  1  2  2  0  0  0  0
  1  6  1  0  0  0  0
  2  3  1  0  0  0  0
  3  4  2  0  0  0  0
  4 13  1  0  0  0  0
  5  4  1  0  0  0  0
  5 12  1  0  0  0  0
  6  5  2  0  0  0  0
  7  1  1  0  0  0  0
  8  2  1  0  0  0  0
  9 10  3  0  0  0  0
 11  6  1  0  0  0  0
M  RAD  1   3   2
M  END
