Coordinates from ORCA-job Ph-N2+-B3LYPG-6-31G_dp-MTMO-d009-169-n800
 OpenBabel09051908213D

 13 12  0  0  0  0  0  0  0  0999 V2000
   -2.7185    0.3612   -1.0791 C   0  0  0  0  0  0  0  0  0  0  0  0
   -2.6039   -0.6391   -0.0555 C   0  0  0  0  0  0  0  0  0  0  0  0
   -3.1279   -0.0600    1.0171 C   0  0  0  0  0  0  0  0  0  0  0  0
   -3.6979    1.0181    1.5400 C   0  0  0  0  0  0  0  0  0  0  0  0
   -3.7626    1.9415    0.4425 C   0  0  0  0  0  0  0  0  0  0  0  0
   -3.2836    1.6110   -0.8254 C   0  0  0  0  0  0  0  0  0  0  0  0
   -2.3384    0.0766   -2.0574 H   0  0  0  0  0  0  0  0  0  0  0  0
   -2.1769   -1.6236   -0.2023 H   0  0  0  0  0  0  0  0  0  0  0  0
   10.7912    1.0879   -0.7407 N   0  0  0  0  0  0  0  0  0  0  0  0
   11.8957    1.1101   -0.7751 N   0  0  0  0  0  0  0  0  0  0  0  0
   -3.3517    2.3382   -1.6274 H   0  0  0  0  0  0  0  0  0  0  0  0
   -4.2059    2.9086    0.6687 H   0  0  0  0  0  0  0  0  0  0  0  0
   -4.0535    1.2272    2.5414 H   0  0  0  0  0  0  0  0  0  0  0  0
  1  6  2  0  0  0  0
  1  2  1  0  0  0  0
  2  3  2  0  0  0  0
  3  4  1  0  0  0  0
  4 13  1  0  0  0  0
  5 12  1  0  0  0  0
  5  4  2  0  0  0  0
  6  5  1  0  0  0  0
  7  1  1  0  0  0  0
  8  2  1  0  0  0  0
 10  9  3  0  0  0  0
 11  6  1  0  0  0  0
M  RAD  1   3   2
M  END
