Coordinates from ORCA-job Ph-N2+-B3LYPG-6-31G_dp-MTMO-d009-169-n800
 OpenBabel09051908203D

 13 12  0  0  0  0  0  0  0  0999 V2000
   -2.0883    0.1036   -1.0926 C   0  0  0  0  0  0  0  0  0  0  0  0
   -0.6655   -0.0002   -0.9960 C   0  0  0  0  0  0  0  0  0  0  0  0
   -0.3180    0.8390   -0.0214 C   0  0  0  0  0  0  0  0  0  0  0  0
   -0.7660    1.7159    0.8760 C   0  0  0  0  0  0  0  0  0  0  0  0
   -2.1844    1.7452    0.6979 C   0  0  0  0  0  0  0  0  0  0  0  0
   -2.8180    0.9567   -0.2636 C   0  0  0  0  0  0  0  0  0  0  0  0
   -2.5634   -0.5181   -1.8475 H   0  0  0  0  0  0  0  0  0  0  0  0
   -0.0542   -0.6443   -1.6147 H   0  0  0  0  0  0  0  0  0  0  0  0
    2.2915    0.7334    0.2136 N   0  0  0  0  0  0  0  0  0  0  0  0
    3.3915    0.6964    0.3052 N   0  0  0  0  0  0  0  0  0  0  0  0
   -3.8966    1.0084   -0.3690 H   0  0  0  0  0  0  0  0  0  0  0  0
   -2.7352    2.4153    1.3534 H   0  0  0  0  0  0  0  0  0  0  0  0
   -0.2270    2.3064    1.6055 H   0  0  0  0  0  0  0  0  0  0  0  0
  1  2  2  0  0  0  0
  1  6  1  0  0  0  0
  2  3  1  0  0  0  0
  3  4  2  0  0  0  0
  4 13  1  0  0  0  0
  5  4  1  0  0  0  0
  5 12  1  0  0  0  0
  6  5  2  0  0  0  0
  7  1  1  0  0  0  0
  8  2  1  0  0  0  0
  9 10  3  0  0  0  0
 11  6  1  0  0  0  0
M  RAD  1   3   2
M  END
