Coordinates from ORCA-job Ph-N2+-B3LYPG-6-31G_dp-MTMO-d009-169-n800
 OpenBabel09051908203D

 13 12  0  0  0  0  0  0  0  0999 V2000
   -2.5344    0.1521   -1.1424 C   0  0  0  0  0  0  0  0  0  0  0  0
   -1.1451   -0.0670   -0.8551 C   0  0  0  0  0  0  0  0  0  0  0  0
   -0.8968    0.7476    0.1623 C   0  0  0  0  0  0  0  0  0  0  0  0
   -1.3667    1.6565    1.0070 C   0  0  0  0  0  0  0  0  0  0  0  0
   -2.7457    1.7960    0.6337 C   0  0  0  0  0  0  0  0  0  0  0  0
   -3.3018    1.0602   -0.4128 C   0  0  0  0  0  0  0  0  0  0  0  0
   -2.9421   -0.4340   -1.9631 H   0  0  0  0  0  0  0  0  0  0  0  0
   -0.5066   -0.7580   -1.3922 H   0  0  0  0  0  0  0  0  0  0  0  0
    5.1284    0.6443    0.2181 N   0  0  0  0  0  0  0  0  0  0  0  0
    6.2336    0.6491    0.2265 N   0  0  0  0  0  0  0  0  0  0  0  0
   -4.3479    1.1971   -0.6642 H   0  0  0  0  0  0  0  0  0  0  0  0
   -3.3208    2.5100    1.2192 H   0  0  0  0  0  0  0  0  0  0  0  0
   -0.8877    2.2038    1.8098 H   0  0  0  0  0  0  0  0  0  0  0  0
  1  2  2  0  0  0  0
  1  6  1  0  0  0  0
  2  3  1  0  0  0  0
  3  4  2  0  0  0  0
  4 13  1  0  0  0  0
  5  4  1  0  0  0  0
  5 12  1  0  0  0  0
  6  5  2  0  0  0  0
  7  1  1  0  0  0  0
  8  2  1  0  0  0  0
  9 10  3  0  0  0  0
 11  6  1  0  0  0  0
M  RAD  1   3   2
M  END
