Coordinates from ORCA-job Ph-N2+-B3LYPG-6-31G_dp-MTMO-d009-169-n800
 OpenBabel09051908203D

 13 12  0  0  0  0  0  0  0  0999 V2000
   -2.8656    0.2131   -1.1827 C   0  0  0  0  0  0  0  0  0  0  0  0
   -1.8156   -0.4375   -0.4514 C   0  0  0  0  0  0  0  0  0  0  0  0
   -1.6838    0.3003    0.6435 C   0  0  0  0  0  0  0  0  0  0  0  0
   -2.0918    1.3560    1.3361 C   0  0  0  0  0  0  0  0  0  0  0  0
   -3.1290    1.9238    0.5219 C   0  0  0  0  0  0  0  0  0  0  0  0
   -3.4962    1.3598   -0.6998 C   0  0  0  0  0  0  0  0  0  0  0  0
   -3.1319   -0.2470   -2.1313 H   0  0  0  0  0  0  0  0  0  0  0  0
   -1.2964   -1.3287   -0.7821 H   0  0  0  0  0  0  0  0  0  0  0  0
    7.7152    0.8897   -0.1482 N   0  0  0  0  0  0  0  0  0  0  0  0
    8.8189    0.9348   -0.1863 N   0  0  0  0  0  0  0  0  0  0  0  0
   -4.2854    1.8206   -1.2839 H   0  0  0  0  0  0  0  0  0  0  0  0
   -3.6024    2.8174    0.9214 H   0  0  0  0  0  0  0  0  0  0  0  0
   -1.7697    1.7554    2.2898 H   0  0  0  0  0  0  0  0  0  0  0  0
  1  6  2  0  0  0  0
  1  2  1  0  0  0  0
  2  3  2  0  0  0  0
  3  4  1  0  0  0  0
  4 13  1  0  0  0  0
  5 12  1  0  0  0  0
  5  4  2  0  0  0  0
  6  5  1  0  0  0  0
  7  1  1  0  0  0  0
  8  2  1  0  0  0  0
 10  9  3  0  0  0  0
 11  6  1  0  0  0  0
M  RAD  1   3   2
M  END
