Coordinates from ORCA-job Ph-N2+-B3LYPG-6-31G_dp-MTMO-d009-169-n800
 OpenBabel09051908203D

 13 12  0  0  0  0  0  0  0  0999 V2000
   -3.0434    0.2080   -1.1822 C   0  0  0  0  0  0  0  0  0  0  0  0
   -2.0768   -0.5262   -0.4156 C   0  0  0  0  0  0  0  0  0  0  0  0
   -1.9129    0.2065    0.6783 C   0  0  0  0  0  0  0  0  0  0  0  0
   -2.2450    1.3008    1.3511 C   0  0  0  0  0  0  0  0  0  0  0  0
   -3.2037    1.9506    0.5028 C   0  0  0  0  0  0  0  0  0  0  0  0
   -3.5836    1.4102   -0.7257 C   0  0  0  0  0  0  0  0  0  0  0  0
   -3.3213   -0.2352   -2.1356 H   0  0  0  0  0  0  0  0  0  0  0  0
   -1.6282   -1.4620   -0.7255 H   0  0  0  0  0  0  0  0  0  0  0  0
    8.5568    0.9807   -0.1633 N   0  0  0  0  0  0  0  0  0  0  0  0
    9.6607    1.0261   -0.1951 N   0  0  0  0  0  0  0  0  0  0  0  0
   -4.3112    1.9339   -1.3364 H   0  0  0  0  0  0  0  0  0  0  0  0
   -3.6080    2.8858    0.8824 H   0  0  0  0  0  0  0  0  0  0  0  0
   -1.9171    1.6786    2.3116 H   0  0  0  0  0  0  0  0  0  0  0  0
  1  6  2  0  0  0  0
  1  2  1  0  0  0  0
  2  3  2  0  0  0  0
  3  4  1  0  0  0  0
  4 13  1  0  0  0  0
  5 12  1  0  0  0  0
  5  4  2  0  0  0  0
  6  5  1  0  0  0  0
  7  1  1  0  0  0  0
  8  2  1  0  0  0  0
 10  9  3  0  0  0  0
 11  6  1  0  0  0  0
M  RAD  1   3   2
M  END
