Coordinates from ORCA-job Ph-N2+-B3LYPG-6-31G_dp-MTMO-d009-169-n800
 OpenBabel09051908213D

 13 12  0  0  0  0  0  0  0  0999 V2000
   -3.1955    0.2238   -1.1966 C   0  0  0  0  0  0  0  0  0  0  0  0
   -2.4892   -0.6510   -0.3037 C   0  0  0  0  0  0  0  0  0  0  0  0
   -2.3837    0.0525    0.8163 C   0  0  0  0  0  0  0  0  0  0  0  0
   -2.6385    1.1899    1.4503 C   0  0  0  0  0  0  0  0  0  0  0  0
   -3.3377    1.9797    0.4763 C   0  0  0  0  0  0  0  0  0  0  0  0
   -3.6021    1.4998   -0.8065 C   0  0  0  0  0  0  0  0  0  0  0  0
   -3.3884   -0.1753   -2.1897 H   0  0  0  0  0  0  0  0  0  0  0  0
   -2.1509   -1.6477   -0.5588 H   0  0  0  0  0  0  0  0  0  0  0  0
    9.8156    1.1139   -0.2786 N   0  0  0  0  0  0  0  0  0  0  0  0
   10.9195    1.1560   -0.3131 N   0  0  0  0  0  0  0  0  0  0  0  0
   -4.1316    2.1299   -1.5130 H   0  0  0  0  0  0  0  0  0  0  0  0
   -3.6435    2.9695    0.8070 H   0  0  0  0  0  0  0  0  0  0  0  0
   -2.4078    1.5168    2.4568 H   0  0  0  0  0  0  0  0  0  0  0  0
  1  6  2  0  0  0  0
  1  2  1  0  0  0  0
  2  3  2  0  0  0  0
  3  4  1  0  0  0  0
  4 13  1  0  0  0  0
  5 12  1  0  0  0  0
  5  4  2  0  0  0  0
  6  5  1  0  0  0  0
  7  1  1  0  0  0  0
  8  2  1  0  0  0  0
 10  9  3  0  0  0  0
 11  6  1  0  0  0  0
M  RAD  1   3   2
M  END
