Coordinates from ORCA-job Ph-N2+-B3LYPG-6-31G_dp-MTMO-d009-169-n800
 OpenBabel09051908203D

 13 12  0  0  0  0  0  0  0  0999 V2000
   -2.2634    0.1151   -1.1099 C   0  0  0  0  0  0  0  0  0  0  0  0
   -0.8395   -0.0135   -0.9854 C   0  0  0  0  0  0  0  0  0  0  0  0
   -0.5259    0.8229   -0.0043 C   0  0  0  0  0  0  0  0  0  0  0  0
   -0.9523    1.7065    0.8891 C   0  0  0  0  0  0  0  0  0  0  0  0
   -2.3711    1.7565    0.6786 C   0  0  0  0  0  0  0  0  0  0  0  0
   -2.9969    0.9789   -0.2961 C   0  0  0  0  0  0  0  0  0  0  0  0
   -2.7264   -0.5013   -1.8772 H   0  0  0  0  0  0  0  0  0  0  0  0
   -0.2235   -0.6663   -1.5917 H   0  0  0  0  0  0  0  0  0  0  0  0
    3.2860    0.7035    0.2703 N   0  0  0  0  0  0  0  0  0  0  0  0
    4.3885    0.6828    0.3409 N   0  0  0  0  0  0  0  0  0  0  0  0
   -4.0721    1.0477   -0.4241 H   0  0  0  0  0  0  0  0  0  0  0  0
   -2.9194    2.4369    1.3264 H   0  0  0  0  0  0  0  0  0  0  0  0
   -0.4176    2.2879    1.6302 H   0  0  0  0  0  0  0  0  0  0  0  0
  1  2  2  0  0  0  0
  1  6  1  0  0  0  0
  2  3  1  0  0  0  0
  3  4  2  0  0  0  0
  4 13  1  0  0  0  0
  5  4  1  0  0  0  0
  5 12  1  0  0  0  0
  6  5  2  0  0  0  0
  7  1  1  0  0  0  0
  8  2  1  0  0  0  0
  9 10  3  0  0  0  0
 11  6  1  0  0  0  0
M  RAD  1   3   2
M  END
