Coordinates from ORCA-job Ph-N2+-B3LYPG-6-31G_dp-MTMO-d009-169-n800
 OpenBabel09051908203D

 13 12  0  0  0  0  0  0  0  0999 V2000
   -2.5064    0.1465   -1.1377 C   0  0  0  0  0  0  0  0  0  0  0  0
   -1.1089   -0.0522   -0.8767 C   0  0  0  0  0  0  0  0  0  0  0  0
   -0.8531    0.7671    0.1350 C   0  0  0  0  0  0  0  0  0  0  0  0
   -1.3197    1.6703    0.9876 C   0  0  0  0  0  0  0  0  0  0  0  0
   -2.7075    1.7897    0.6405 C   0  0  0  0  0  0  0  0  0  0  0  0
   -3.2727    1.0446   -0.3946 C   0  0  0  0  0  0  0  0  0  0  0  0
   -2.9213   -0.4463   -1.9498 H   0  0  0  0  0  0  0  0  0  0  0  0
   -0.4709   -0.7346   -1.4252 H   0  0  0  0  0  0  0  0  0  0  0  0
    4.9309    0.6418    0.2304 N   0  0  0  0  0  0  0  0  0  0  0  0
    6.0360    0.6432    0.2466 N   0  0  0  0  0  0  0  0  0  0  0  0
   -4.3254    1.1663   -0.6262 H   0  0  0  0  0  0  0  0  0  0  0  0
   -3.2814    2.4960    1.2361 H   0  0  0  0  0  0  0  0  0  0  0  0
   -0.8333    2.2252    1.7807 H   0  0  0  0  0  0  0  0  0  0  0  0
  1  2  2  0  0  0  0
  1  6  1  0  0  0  0
  2  3  1  0  0  0  0
  3  4  2  0  0  0  0
  4 13  1  0  0  0  0
  5  4  1  0  0  0  0
  5 12  1  0  0  0  0
  6  5  2  0  0  0  0
  7  1  1  0  0  0  0
  8  2  1  0  0  0  0
  9 10  3  0  0  0  0
 11  6  1  0  0  0  0
M  RAD  1   3   2
M  END
