Coordinates from ORCA-job Ph-N2+-B3LYPG-6-31G_dp-MTMO-d009-169-n800
 OpenBabel09051908203D

 13 12  0  0  0  0  0  0  0  0999 V2000
   -2.2716    0.1159   -1.1108 C   0  0  0  0  0  0  0  0  0  0  0  0
   -0.8480   -0.0142   -0.9836 C   0  0  0  0  0  0  0  0  0  0  0  0
   -0.5356    0.8219   -0.0018 C   0  0  0  0  0  0  0  0  0  0  0  0
   -0.9627    1.7059    0.8908 C   0  0  0  0  0  0  0  0  0  0  0  0
   -2.3811    1.7572    0.6776 C   0  0  0  0  0  0  0  0  0  0  0  0
   -3.0058    0.9803   -0.2984 C   0  0  0  0  0  0  0  0  0  0  0  0
   -2.7337   -0.5001   -1.8790 H   0  0  0  0  0  0  0  0  0  0  0  0
   -0.2316   -0.6676   -1.5888 H   0  0  0  0  0  0  0  0  0  0  0  0
    3.3366    0.7015    0.2714 N   0  0  0  0  0  0  0  0  0  0  0  0
    4.4393    0.6818    0.3402 N   0  0  0  0  0  0  0  0  0  0  0  0
   -4.0807    1.0502   -0.4284 H   0  0  0  0  0  0  0  0  0  0  0  0
   -2.9298    2.4382    1.3244 H   0  0  0  0  0  0  0  0  0  0  0  0
   -0.4289    2.2868    1.6330 H   0  0  0  0  0  0  0  0  0  0  0  0
  1  2  2  0  0  0  0
  1  6  1  0  0  0  0
  2  3  1  0  0  0  0
  3  4  2  0  0  0  0
  4 13  1  0  0  0  0
  5  4  1  0  0  0  0
  5 12  1  0  0  0  0
  6  5  2  0  0  0  0
  7  1  1  0  0  0  0
  8  2  1  0  0  0  0
  9 10  3  0  0  0  0
 11  6  1  0  0  0  0
M  RAD  1   3   2
M  END
