Coordinates from ORCA-job Ph-N2+-B3LYPG-6-31G_dp-MTMO-d009-169-n800
 OpenBabel09051908213D

 13 12  0  0  0  0  0  0  0  0999 V2000
   -2.8415    0.3898   -1.0456 C   0  0  0  0  0  0  0  0  0  0  0  0
   -2.7219   -0.6083   -0.0203 C   0  0  0  0  0  0  0  0  0  0  0  0
   -3.3079   -0.0557    1.0339 C   0  0  0  0  0  0  0  0  0  0  0  0
   -3.9412    0.9956    1.5382 C   0  0  0  0  0  0  0  0  0  0  0  0
   -4.0052    1.9194    0.4408 C   0  0  0  0  0  0  0  0  0  0  0  0
   -3.4676    1.6139   -0.8097 C   0  0  0  0  0  0  0  0  0  0  0  0
   -2.4152    0.1250   -2.0104 H   0  0  0  0  0  0  0  0  0  0  0  0
   -2.2497   -1.5740   -0.1534 H   0  0  0  0  0  0  0  0  0  0  0  0
   11.7926    1.0670   -0.8416 N   0  0  0  0  0  0  0  0  0  0  0  0
   12.8976    1.0914   -0.8529 N   0  0  0  0  0  0  0  0  0  0  0  0
   -3.5376    2.3404   -1.6122 H   0  0  0  0  0  0  0  0  0  0  0  0
   -4.4960    2.8664    0.6532 H   0  0  0  0  0  0  0  0  0  0  0  0
   -4.3400    1.1868    2.5269 H   0  0  0  0  0  0  0  0  0  0  0  0
  1  6  2  0  0  0  0
  1  2  1  0  0  0  0
  2  3  2  0  0  0  0
  3  4  1  0  0  0  0
  4 13  1  0  0  0  0
  5 12  1  0  0  0  0
  5  4  2  0  0  0  0
  6  5  1  0  0  0  0
  7  1  1  0  0  0  0
  8  2  1  0  0  0  0
 10  9  3  0  0  0  0
 11  6  1  0  0  0  0
M  RAD  1   3   2
M  END
