Coordinates from ORCA-job Ph-N2+-B3LYPG-6-31G_dp-MTMO-d009-169-n800
 OpenBabel09051908203D

 13 12  0  0  0  0  0  0  0  0999 V2000
   -2.5232    0.1496   -1.1404 C   0  0  0  0  0  0  0  0  0  0  0  0
   -1.1302   -0.0606   -0.8648 C   0  0  0  0  0  0  0  0  0  0  0  0
   -0.8784    0.7560    0.1501 C   0  0  0  0  0  0  0  0  0  0  0  0
   -1.3467    1.6624    0.9983 C   0  0  0  0  0  0  0  0  0  0  0  0
   -2.7296    1.7933    0.6367 C   0  0  0  0  0  0  0  0  0  0  0  0
   -3.2899    1.0534   -0.4048 C   0  0  0  0  0  0  0  0  0  0  0  0
   -2.9342   -0.4393   -1.9573 H   0  0  0  0  0  0  0  0  0  0  0  0
   -0.4921   -0.7480   -1.4070 H   0  0  0  0  0  0  0  0  0  0  0  0
    5.0464    0.6431    0.2238 N   0  0  0  0  0  0  0  0  0  0  0  0
    6.1515    0.6469    0.2360 N   0  0  0  0  0  0  0  0  0  0  0  0
   -4.3391    1.1838   -0.6474 H   0  0  0  0  0  0  0  0  0  0  0  0
   -3.3041    2.5040    1.2267 H   0  0  0  0  0  0  0  0  0  0  0  0
   -0.8642    2.2131    1.7968 H   0  0  0  0  0  0  0  0  0  0  0  0
  1  2  2  0  0  0  0
  1  6  1  0  0  0  0
  2  3  1  0  0  0  0
  3  4  2  0  0  0  0
  4 13  1  0  0  0  0
  5  4  1  0  0  0  0
  5 12  1  0  0  0  0
  6  5  2  0  0  0  0
  7  1  1  0  0  0  0
  8  2  1  0  0  0  0
  9 10  3  0  0  0  0
 11  6  1  0  0  0  0
M  RAD  1   3   2
M  END
