Coordinates from ORCA-job Ph-N2+-B3LYPG-6-31G_dp-MTMO-d009-169-n800
 OpenBabel09051908203D

 13 12  0  0  0  0  0  0  0  0999 V2000
   -3.0777    0.2074   -1.1824 C   0  0  0  0  0  0  0  0  0  0  0  0
   -2.1289   -0.5419   -0.4081 C   0  0  0  0  0  0  0  0  0  0  0  0
   -1.9597    0.1900    0.6856 C   0  0  0  0  0  0  0  0  0  0  0  0
   -2.2785    1.2902    1.3551 C   0  0  0  0  0  0  0  0  0  0  0  0
   -3.2202    1.9549    0.4993 C   0  0  0  0  0  0  0  0  0  0  0  0
   -3.6008    1.4192   -0.7311 C   0  0  0  0  0  0  0  0  0  0  0  0
   -3.3563   -0.2324   -2.1370 H   0  0  0  0  0  0  0  0  0  0  0  0
   -1.6939   -1.4855   -0.7137 H   0  0  0  0  0  0  0  0  0  0  0  0
    8.7282    0.9981   -0.1675 N   0  0  0  0  0  0  0  0  0  0  0  0
    9.8321    1.0427   -0.1985 N   0  0  0  0  0  0  0  0  0  0  0  0
   -4.3152    1.9541   -1.3475 H   0  0  0  0  0  0  0  0  0  0  0  0
   -3.6116    2.8972    0.8750 H   0  0  0  0  0  0  0  0  0  0  0  0
   -1.9512    1.6636    2.3176 H   0  0  0  0  0  0  0  0  0  0  0  0
  1  6  2  0  0  0  0
  1  2  1  0  0  0  0
  2  3  2  0  0  0  0
  3  4  1  0  0  0  0
  4 13  1  0  0  0  0
  5 12  1  0  0  0  0
  5  4  2  0  0  0  0
  6  5  1  0  0  0  0
  7  1  1  0  0  0  0
  8  2  1  0  0  0  0
 10  9  3  0  0  0  0
 11  6  1  0  0  0  0
M  RAD  1   3   2
M  END
