Coordinates from ORCA-job Ph-N2+-B3LYPG-6-31G_dp-MTMO-d009-169-n800
 OpenBabel09051908203D

 13 13  0  0  0  0  0  0  0  0999 V2000
   -1.8955    0.0892   -1.0808 C   0  0  0  0  0  0  0  0  0  0  0  0
   -0.5262    0.0144   -0.9696 C   0  0  0  0  0  0  0  0  0  0  0  0
    0.1698    0.8237    0.0181 C   0  0  0  0  0  0  0  0  0  0  0  0
   -0.6245    1.6976    0.8669 C   0  0  0  0  0  0  0  0  0  0  0  0
   -1.9920    1.7422    0.7225 C   0  0  0  0  0  0  0  0  0  0  0  0
   -2.6302    0.9459   -0.2436 C   0  0  0  0  0  0  0  0  0  0  0  0
   -2.4037   -0.5190   -1.8218 H   0  0  0  0  0  0  0  0  0  0  0  0
    0.0718   -0.6360   -1.6007 H   0  0  0  0  0  0  0  0  0  0  0  0
    1.2245    0.7784    0.1161 N   0  0  0  0  0  0  0  0  0  0  0  0
    2.3565    0.7297    0.2212 N   0  0  0  0  0  0  0  0  0  0  0  0
   -3.7107    0.9937   -0.3453 H   0  0  0  0  0  0  0  0  0  0  0  0
   -2.5739    2.3983    1.3614 H   0  0  0  0  0  0  0  0  0  0  0  0
   -0.0995    2.2994    1.6025 H   0  0  0  0  0  0  0  0  0  0  0  0
  1  2  2  0  0  0  0
  1  6  1  0  0  0  0
  2  3  1  0  0  0  0
  3  9  1  0  0  0  0
  3  4  2  0  0  0  0
  4 13  1  0  0  0  0
  5  4  1  0  0  0  0
  5 12  1  0  0  0  0
  6  5  2  0  0  0  0
  7  1  1  0  0  0  0
  8  2  1  0  0  0  0
  9 10  1  0  0  0  0
 11  6  1  0  0  0  0
M  RAD  2   9   2  10   3
M  END
