Coordinates from ORCA-job Ph-N2+-B3LYPG-6-31G_dp-MTMO-d009-169-n800
 OpenBabel09051908203D

 13 12  0  0  0  0  0  0  0  0999 V2000
   -2.3957    0.1305   -1.1239 C   0  0  0  0  0  0  0  0  0  0  0  0
   -0.9813   -0.0242   -0.9340 C   0  0  0  0  0  0  0  0  0  0  0  0
   -0.6997    0.8057    0.0621 C   0  0  0  0  0  0  0  0  0  0  0  0
   -1.1499    1.6966    0.9361 C   0  0  0  0  0  0  0  0  0  0  0  0
   -2.5566    1.7724    0.6598 C   0  0  0  0  0  0  0  0  0  0  0  0
   -3.1504    1.0070   -0.3440 C   0  0  0  0  0  0  0  0  0  0  0  0
   -2.8331   -0.4773   -1.9128 H   0  0  0  0  0  0  0  0  0  0  0  0
   -0.3509   -0.6881   -1.5131 H   0  0  0  0  0  0  0  0  0  0  0  0
    4.1792    0.6591    0.2571 N   0  0  0  0  0  0  0  0  0  0  0  0
    5.2837    0.6497    0.2960 N   0  0  0  0  0  0  0  0  0  0  0  0
   -4.2170    1.0956   -0.5218 H   0  0  0  0  0  0  0  0  0  0  0  0
   -3.1212    2.4624    1.2828 H   0  0  0  0  0  0  0  0  0  0  0  0
   -0.6408    2.2683    1.7025 H   0  0  0  0  0  0  0  0  0  0  0  0
  1  2  2  0  0  0  0
  1  6  1  0  0  0  0
  2  3  1  0  0  0  0
  3  4  2  0  0  0  0
  4 13  1  0  0  0  0
  5  4  1  0  0  0  0
  5 12  1  0  0  0  0
  6  5  2  0  0  0  0
  7  1  1  0  0  0  0
  8  2  1  0  0  0  0
  9 10  3  0  0  0  0
 11  6  1  0  0  0  0
M  RAD  1   3   2
M  END
