Coordinates from ORCA-job Ph-N2+-B3LYPG-6-31G_dp-MTMO-d009-169-n800
 OpenBabel09051908213D

 13 12  0  0  0  0  0  0  0  0999 V2000
   -3.1853    0.2434   -1.1990 C   0  0  0  0  0  0  0  0  0  0  0  0
   -2.6880   -0.6921   -0.2300 C   0  0  0  0  0  0  0  0  0  0  0  0
   -2.7054   -0.0118    0.9090 C   0  0  0  0  0  0  0  0  0  0  0  0
   -2.9768    1.1320    1.5243 C   0  0  0  0  0  0  0  0  0  0  0  0
   -3.4605    1.9834    0.4741 C   0  0  0  0  0  0  0  0  0  0  0  0
   -3.5570    1.5406   -0.8453 C   0  0  0  0  0  0  0  0  0  0  0  0
   -3.2505   -0.1282   -2.2191 H   0  0  0  0  0  0  0  0  0  0  0  0
   -2.3851   -1.7074   -0.4545 H   0  0  0  0  0  0  0  0  0  0  0  0
   10.5130    1.1660   -0.4040 N   0  0  0  0  0  0  0  0  0  0  0  0
   11.6171    1.2000   -0.4403 N   0  0  0  0  0  0  0  0  0  0  0  0
   -3.9270    2.2162   -1.6088 H   0  0  0  0  0  0  0  0  0  0  0  0
   -3.7447    2.9880    0.7782 H   0  0  0  0  0  0  0  0  0  0  0  0
   -2.8833    1.4277    2.5622 H   0  0  0  0  0  0  0  0  0  0  0  0
  1  6  2  0  0  0  0
  1  2  1  0  0  0  0
  2  3  2  0  0  0  0
  3  4  1  0  0  0  0
  4 13  1  0  0  0  0
  5 12  1  0  0  0  0
  5  4  2  0  0  0  0
  6  5  1  0  0  0  0
  7  1  1  0  0  0  0
  8  2  1  0  0  0  0
 10  9  3  0  0  0  0
 11  6  1  0  0  0  0
M  RAD  1   3   2
M  END
