Coordinates from ORCA-job Ph-N2+-B3LYPG-6-31G_dp-MTMO-d009-169-n800
 OpenBabel09051908203D

 13 12  0  0  0  0  0  0  0  0999 V2000
   -2.0536    0.1017   -1.0896 C   0  0  0  0  0  0  0  0  0  0  0  0
   -0.6346    0.0017   -0.9936 C   0  0  0  0  0  0  0  0  0  0  0  0
   -0.2646    0.8392   -0.0189 C   0  0  0  0  0  0  0  0  0  0  0  0
   -0.7348    1.7151    0.8756 C   0  0  0  0  0  0  0  0  0  0  0  0
   -2.1496    1.7438    0.7016 C   0  0  0  0  0  0  0  0  0  0  0  0
   -2.7833    0.9540   -0.2593 C   0  0  0  0  0  0  0  0  0  0  0  0
   -2.5330   -0.5189   -1.8422 H   0  0  0  0  0  0  0  0  0  0  0  0
   -0.0257   -0.6423   -1.6141 H   0  0  0  0  0  0  0  0  0  0  0  0
    2.1053    0.7403    0.1975 N   0  0  0  0  0  0  0  0  0  0  0  0
    3.2047    0.7002    0.2925 N   0  0  0  0  0  0  0  0  0  0  0  0
   -3.8621    1.0041   -0.3631 H   0  0  0  0  0  0  0  0  0  0  0  0
   -2.7044    2.4116    1.3555 H   0  0  0  0  0  0  0  0  0  0  0  0
   -0.1982    2.3074    1.6049 H   0  0  0  0  0  0  0  0  0  0  0  0
  1  2  2  0  0  0  0
  1  6  1  0  0  0  0
  2  3  1  0  0  0  0
  3  4  2  0  0  0  0
  4 13  1  0  0  0  0
  5  4  1  0  0  0  0
  5 12  1  0  0  0  0
  6  5  2  0  0  0  0
  7  1  1  0  0  0  0
  8  2  1  0  0  0  0
  9 10  3  0  0  0  0
 11  6  1  0  0  0  0
M  RAD  1   3   2
M  END
