Coordinates from ORCA-job Ph-N2+-B3LYPG-6-31G_dp-MTMO-d009-169-n800
 OpenBabel09051908203D

 13 12  0  0  0  0  0  0  0  0999 V2000
   -2.5798    0.1672   -1.1542 C   0  0  0  0  0  0  0  0  0  0  0  0
   -1.2189   -0.1075   -0.7895 C   0  0  0  0  0  0  0  0  0  0  0  0
   -0.9968    0.6937    0.2444 C   0  0  0  0  0  0  0  0  0  0  0  0
   -1.4780    1.6178    1.0660 C   0  0  0  0  0  0  0  0  0  0  0  0
   -2.8269    1.8127    0.6159 C   0  0  0  0  0  0  0  0  0  0  0  0
   -3.3512    1.1026   -0.4644 C   0  0  0  0  0  0  0  0  0  0  0  0
   -2.9628   -0.3997   -1.9997 H   0  0  0  0  0  0  0  0  0  0  0  0
   -0.5788   -0.8220   -1.2931 H   0  0  0  0  0  0  0  0  0  0  0  0
    5.5296    0.6538    0.1693 N   0  0  0  0  0  0  0  0  0  0  0  0
    6.6347    0.6665    0.1570 N   0  0  0  0  0  0  0  0  0  0  0  0
   -4.3751    1.2814   -0.7735 H   0  0  0  0  0  0  0  0  0  0  0  0
   -3.4056    2.5474    1.1714 H   0  0  0  0  0  0  0  0  0  0  0  0
   -1.0242    2.1438    1.8971 H   0  0  0  0  0  0  0  0  0  0  0  0
  1  2  2  0  0  0  0
  1  6  1  0  0  0  0
  2  3  1  0  0  0  0
  3  4  2  0  0  0  0
  4 13  1  0  0  0  0
  5  4  1  0  0  0  0
  5 12  1  0  0  0  0
  6  5  2  0  0  0  0
  7  1  1  0  0  0  0
  8  2  1  0  0  0  0
 10  9  3  0  0  0  0
 11  6  1  0  0  0  0
M  RAD  1   3   2
M  END
