Coordinates from ORCA-job Ph-N2+-B3LYPG-6-31G_dp-MTMO-d009-169-n800
 OpenBabel09051908203D

 13 12  0  0  0  0  0  0  0  0999 V2000
   -3.0952    0.2073   -1.1825 C   0  0  0  0  0  0  0  0  0  0  0  0
   -2.1558   -0.5493   -0.4040 C   0  0  0  0  0  0  0  0  0  0  0  0
   -1.9853    0.1817    0.6901 C   0  0  0  0  0  0  0  0  0  0  0  0
   -2.2978    1.2849    1.3577 C   0  0  0  0  0  0  0  0  0  0  0  0
   -3.2306    1.9568    0.4976 C   0  0  0  0  0  0  0  0  0  0  0  0
   -3.6103    1.4235   -0.7341 C   0  0  0  0  0  0  0  0  0  0  0  0
   -3.3735   -0.2307   -2.1382 H   0  0  0  0  0  0  0  0  0  0  0  0
   -1.7272   -1.4965   -0.7073 H   0  0  0  0  0  0  0  0  0  0  0  0
    8.8216    1.0065   -0.1704 N   0  0  0  0  0  0  0  0  0  0  0  0
    9.9256    1.0507   -0.2011 N   0  0  0  0  0  0  0  0  0  0  0  0
   -4.3177    1.9640   -1.3538 H   0  0  0  0  0  0  0  0  0  0  0  0
   -3.6159    2.9024    0.8713 H   0  0  0  0  0  0  0  0  0  0  0  0
   -1.9715    1.6561    2.3213 H   0  0  0  0  0  0  0  0  0  0  0  0
  1  6  2  0  0  0  0
  1  2  1  0  0  0  0
  2  3  2  0  0  0  0
  3  4  1  0  0  0  0
  4 13  1  0  0  0  0
  5 12  1  0  0  0  0
  5  4  2  0  0  0  0
  6  5  1  0  0  0  0
  7  1  1  0  0  0  0
  8  2  1  0  0  0  0
 10  9  3  0  0  0  0
 11  6  1  0  0  0  0
M  RAD  1   3   2
M  END
