Coordinates from ORCA-job Ph-N2+-B3LYPG-6-31G_dp-MTMO-d009-169-n800
 OpenBabel09051908203D

 13 13  0  0  0  0  0  0  0  0999 V2000
   -1.9280    0.0908   -1.0837 C   0  0  0  0  0  0  0  0  0  0  0  0
   -0.5479    0.0149   -0.9716 C   0  0  0  0  0  0  0  0  0  0  0  0
    0.0594    0.8283    0.0081 C   0  0  0  0  0  0  0  0  0  0  0  0
   -0.6463    1.6986    0.8652 C   0  0  0  0  0  0  0  0  0  0  0  0
   -2.0246    1.7434    0.7193 C   0  0  0  0  0  0  0  0  0  0  0  0
   -2.6587    0.9472   -0.2464 C   0  0  0  0  0  0  0  0  0  0  0  0
   -2.4379   -0.5163   -1.8238 H   0  0  0  0  0  0  0  0  0  0  0  0
    0.0466   -0.6357   -1.6033 H   0  0  0  0  0  0  0  0  0  0  0  0
    1.4328    0.7695    0.1354 N   0  0  0  0  0  0  0  0  0  0  0  0
    2.5425    0.7221    0.2379 N   0  0  0  0  0  0  0  0  0  0  0  0
   -3.7388    0.9953   -0.3482 H   0  0  0  0  0  0  0  0  0  0  0  0
   -2.6080    2.3986    1.3569 H   0  0  0  0  0  0  0  0  0  0  0  0
   -0.1248    2.3008    1.6011 H   0  0  0  0  0  0  0  0  0  0  0  0
  1  2  2  0  0  0  0
  1  6  1  0  0  0  0
  2  3  1  0  0  0  0
  3  9  1  0  0  0  0
  3  4  2  0  0  0  0
  4 13  1  0  0  0  0
  5  4  1  0  0  0  0
  5 12  1  0  0  0  0
  6  5  2  0  0  0  0
  7  1  1  0  0  0  0
  8  2  1  0  0  0  0
  9 10  1  0  0  0  0
 11  6  1  0  0  0  0
M  RAD  2   9   2  10   3
M  END
