Coordinates from ORCA-job Ph-N2+-B3LYPG-6-31G_dp-MTMO-d009-169-n800
 OpenBabel09051908203D

 13 12  0  0  0  0  0  0  0  0999 V2000
   -3.1385    0.2078   -1.1835 C   0  0  0  0  0  0  0  0  0  0  0  0
   -2.2243   -0.5664   -0.3924 C   0  0  0  0  0  0  0  0  0  0  0  0
   -2.0542    0.1614    0.7038 C   0  0  0  0  0  0  0  0  0  0  0  0
   -2.3530    1.2715    1.3662 C   0  0  0  0  0  0  0  0  0  0  0  0
   -3.2612    1.9609    0.4939 C   0  0  0  0  0  0  0  0  0  0  0  0
   -3.6353    1.4343   -0.7424 C   0  0  0  0  0  0  0  0  0  0  0  0
   -3.4130   -0.2254   -2.1424 H   0  0  0  0  0  0  0  0  0  0  0  0
   -1.8102   -1.5219   -0.6899 H   0  0  0  0  0  0  0  0  0  0  0  0
    9.0701    1.0267   -0.1801 N   0  0  0  0  0  0  0  0  0  0  0  0
   10.1741    1.0693   -0.2105 N   0  0  0  0  0  0  0  0  0  0  0  0
   -4.3237    1.9882   -1.3717 H   0  0  0  0  0  0  0  0  0  0  0  0
   -3.6327    2.9142    0.8621 H   0  0  0  0  0  0  0  0  0  0  0  0
   -2.0318    1.6372    2.3337 H   0  0  0  0  0  0  0  0  0  0  0  0
  1  6  2  0  0  0  0
  1  2  1  0  0  0  0
  2  3  2  0  0  0  0
  3  4  1  0  0  0  0
  4 13  1  0  0  0  0
  5 12  1  0  0  0  0
  5  4  2  0  0  0  0
  6  5  1  0  0  0  0
  7  1  1  0  0  0  0
  8  2  1  0  0  0  0
 10  9  3  0  0  0  0
 11  6  1  0  0  0  0
M  RAD  1   3   2
M  END
