Coordinates from ORCA-job Ph-N2+-B3LYPG-6-31G_dp-MTMO-d009-169-n800
 OpenBabel09051908203D

 13 13  0  0  0  0  0  0  0  0999 V2000
   -1.9504    0.0928   -1.0847 C   0  0  0  0  0  0  0  0  0  0  0  0
   -0.5622    0.0123   -0.9761 C   0  0  0  0  0  0  0  0  0  0  0  0
   -0.0121    0.8311    0.0017 C   0  0  0  0  0  0  0  0  0  0  0  0
   -0.6609    1.7022    0.8675 C   0  0  0  0  0  0  0  0  0  0  0  0
   -2.0469    1.7434    0.7161 C   0  0  0  0  0  0  0  0  0  0  0  0
   -2.6798    0.9482   -0.2484 C   0  0  0  0  0  0  0  0  0  0  0  0
   -2.4579   -0.5154   -1.8258 H   0  0  0  0  0  0  0  0  0  0  0  0
    0.0360   -0.6362   -1.6048 H   0  0  0  0  0  0  0  0  0  0  0  0
    1.5606    0.7640    0.1472 N   0  0  0  0  0  0  0  0  0  0  0  0
    2.6630    0.7174    0.2484 N   0  0  0  0  0  0  0  0  0  0  0  0
   -3.7595    0.9965   -0.3504 H   0  0  0  0  0  0  0  0  0  0  0  0
   -2.6281    2.3996    1.3550 H   0  0  0  0  0  0  0  0  0  0  0  0
   -0.1356    2.3018    1.6012 H   0  0  0  0  0  0  0  0  0  0  0  0
  1  2  2  0  0  0  0
  1  6  1  0  0  0  0
  2  3  1  0  0  0  0
  3  9  1  0  0  0  0
  3  4  2  0  0  0  0
  4 13  1  0  0  0  0
  5  4  1  0  0  0  0
  5 12  1  0  0  0  0
  6  5  2  0  0  0  0
  7  1  1  0  0  0  0
  8  2  1  0  0  0  0
  9 10  1  0  0  0  0
 11  6  1  0  0  0  0
M  RAD  2   9   2  10   3
M  END
