Coordinates from ORCA-job Ph-N2+-B3LYPG-6-31G_dp-MTMO-d009-169-n800
 OpenBabel09051908203D

 13 12  0  0  0  0  0  0  0  0999 V2000
   -2.9537    0.2107   -1.1826 C   0  0  0  0  0  0  0  0  0  0  0  0
   -1.9432   -0.4812   -0.4336 C   0  0  0  0  0  0  0  0  0  0  0  0
   -1.7969    0.2540    0.6613 C   0  0  0  0  0  0  0  0  0  0  0  0
   -2.1692    1.3290    1.3439 C   0  0  0  0  0  0  0  0  0  0  0  0
   -3.1692    1.9374    0.5127 C   0  0  0  0  0  0  0  0  0  0  0  0
   -3.5419    1.3849   -0.7127 C   0  0  0  0  0  0  0  0  0  0  0  0
   -3.2251   -0.2411   -2.1338 H   0  0  0  0  0  0  0  0  0  0  0  0
   -1.4570   -1.3944   -0.7541 H   0  0  0  0  0  0  0  0  0  0  0  0
    8.1377    0.9333   -0.1565 N   0  0  0  0  0  0  0  0  0  0  0  0
    9.2415    0.9785   -0.1912 N   0  0  0  0  0  0  0  0  0  0  0  0
   -4.3019    1.8769   -1.3101 H   0  0  0  0  0  0  0  0  0  0  0  0
   -3.6102    2.8517    0.9024 H   0  0  0  0  0  0  0  0  0  0  0  0
   -1.8447    1.7179    2.3012 H   0  0  0  0  0  0  0  0  0  0  0  0
  1  6  2  0  0  0  0
  1  2  1  0  0  0  0
  2  3  2  0  0  0  0
  3  4  1  0  0  0  0
  4 13  1  0  0  0  0
  5 12  1  0  0  0  0
  5  4  2  0  0  0  0
  6  5  1  0  0  0  0
  7  1  1  0  0  0  0
  8  2  1  0  0  0  0
 10  9  3  0  0  0  0
 11  6  1  0  0  0  0
M  RAD  1   3   2
M  END
