Coordinates from ORCA-job Ph-N2+-B3LYPG-6-31G_dp-MTMO-d009-169-n800
 OpenBabel09051908203D

 13 12  0  0  0  0  0  0  0  0999 V2000
   -2.7784    0.2136   -1.1822 C   0  0  0  0  0  0  0  0  0  0  0  0
   -1.6935   -0.4007   -0.4705 C   0  0  0  0  0  0  0  0  0  0  0  0
   -1.5674    0.3411    0.6224 C   0  0  0  0  0  0  0  0  0  0  0  0
   -2.0007    1.3802    1.3245 C   0  0  0  0  0  0  0  0  0  0  0  0
   -3.0715    1.9122    0.5296 C   0  0  0  0  0  0  0  0  0  0  0  0
   -3.4402    1.3368   -0.6863 C   0  0  0  0  0  0  0  0  0  0  0  0
   -3.0451   -0.2549   -2.1266 H   0  0  0  0  0  0  0  0  0  0  0  0
   -1.1500   -1.2733   -0.8115 H   0  0  0  0  0  0  0  0  0  0  0  0
    7.2553    0.8528   -0.1352 N   0  0  0  0  0  0  0  0  0  0  0  0
    8.3587    0.9023   -0.1746 N   0  0  0  0  0  0  0  0  0  0  0  0
   -4.2556    1.7701   -1.2553 H   0  0  0  0  0  0  0  0  0  0  0  0
   -3.5688    2.7883    0.9390 H   0  0  0  0  0  0  0  0  0  0  0  0
   -1.6766    1.7894    2.2734 H   0  0  0  0  0  0  0  0  0  0  0  0
  1  6  2  0  0  0  0
  1  2  1  0  0  0  0
  2  3  2  0  0  0  0
  3  4  1  0  0  0  0
  4 13  1  0  0  0  0
  5 12  1  0  0  0  0
  5  4  2  0  0  0  0
  6  5  1  0  0  0  0
  7  1  1  0  0  0  0
  8  2  1  0  0  0  0
 10  9  3  0  0  0  0
 11  6  1  0  0  0  0
M  RAD  1   3   2
M  END
