Coordinates from ORCA-job Ph-N2+-B3LYPG-6-31G_dp-MTMO-d009-169-n800
 OpenBabel09051908213D

 13 12  0  0  0  0  0  0  0  0999 V2000
   -3.1988    0.2290   -1.1993 C   0  0  0  0  0  0  0  0  0  0  0  0
   -2.5713   -0.6740   -0.2760 C   0  0  0  0  0  0  0  0  0  0  0  0
   -2.4954    0.0226    0.8507 C   0  0  0  0  0  0  0  0  0  0  0  0
   -2.7418    1.1659    1.4771 C   0  0  0  0  0  0  0  0  0  0  0  0
   -3.3614    1.9840    0.4730 C   0  0  0  0  0  0  0  0  0  0  0  0
   -3.5777    1.5180   -0.8240 C   0  0  0  0  0  0  0  0  0  0  0  0
   -3.3562   -0.1602   -2.2025 H   0  0  0  0  0  0  0  0  0  0  0  0
   -2.2581   -1.6820   -0.5185 H   0  0  0  0  0  0  0  0  0  0  0  0
   10.0354    1.1404   -0.3170 N   0  0  0  0  0  0  0  0  0  0  0  0
   11.1393    1.1814   -0.3525 N   0  0  0  0  0  0  0  0  0  0  0  0
   -4.0479    2.1691   -1.5530 H   0  0  0  0  0  0  0  0  0  0  0  0
   -3.6479    2.9830    0.7929 H   0  0  0  0  0  0  0  0  0  0  0  0
   -2.5520    1.4805    2.4960 H   0  0  0  0  0  0  0  0  0  0  0  0
  1  6  2  0  0  0  0
  1  2  1  0  0  0  0
  2  3  2  0  0  0  0
  3  4  1  0  0  0  0
  4 13  1  0  0  0  0
  5 12  1  0  0  0  0
  5  4  2  0  0  0  0
  6  5  1  0  0  0  0
  7  1  1  0  0  0  0
  8  2  1  0  0  0  0
 10  9  3  0  0  0  0
 11  6  1  0  0  0  0
M  RAD  1   3   2
M  END
