Coordinates from ORCA-job Ph-N2+-B3LYPG-6-31G_dp-MTMO-d009-169-n800
 OpenBabel09051908213D

 13 12  0  0  0  0  0  0  0  0999 V2000
   -2.9869    0.3773   -1.0551 C   0  0  0  0  0  0  0  0  0  0  0  0
   -2.8439   -0.6153   -0.0276 C   0  0  0  0  0  0  0  0  0  0  0  0
   -3.3970   -0.0531    1.0394 C   0  0  0  0  0  0  0  0  0  0  0  0
   -4.0101    1.0048    1.5548 C   0  0  0  0  0  0  0  0  0  0  0  0
   -4.0998    1.9223    0.4541 C   0  0  0  0  0  0  0  0  0  0  0  0
   -3.5993    1.6063   -0.8092 C   0  0  0  0  0  0  0  0  0  0  0  0
   -2.5891    0.1044   -2.0298 H   0  0  0  0  0  0  0  0  0  0  0  0
   -2.3808   -1.5844   -0.1679 H   0  0  0  0  0  0  0  0  0  0  0  0
   12.4077    1.0842   -0.8584 N   0  0  0  0  0  0  0  0  0  0  0  0
   13.5127    1.1058   -0.8669 N   0  0  0  0  0  0  0  0  0  0  0  0
   -3.6879    2.3283   -1.6138 H   0  0  0  0  0  0  0  0  0  0  0  0
   -4.5793    2.8733    0.6743 H   0  0  0  0  0  0  0  0  0  0  0  0
   -4.3802    1.2039    2.5530 H   0  0  0  0  0  0  0  0  0  0  0  0
  1  6  2  0  0  0  0
  1  2  1  0  0  0  0
  2  3  2  0  0  0  0
  3  4  1  0  0  0  0
  4 13  1  0  0  0  0
  5 12  1  0  0  0  0
  5  4  2  0  0  0  0
  6  5  1  0  0  0  0
  7  1  1  0  0  0  0
  8  2  1  0  0  0  0
 10  9  3  0  0  0  0
 11  6  1  0  0  0  0
M  RAD  1   3   2
M  END
