Coordinates from ORCA-job Ph-N2+-B3LYPG-6-31G_dp-MTMO-d009-169-n800
 OpenBabel09051908203D

 13 12  0  0  0  0  0  0  0  0999 V2000
   -2.6966    0.2130   -1.1813 C   0  0  0  0  0  0  0  0  0  0  0  0
   -1.5828   -0.3703   -0.4884 C   0  0  0  0  0  0  0  0  0  0  0  0
   -1.4594    0.3746    0.6027 C   0  0  0  0  0  0  0  0  0  0  0  0
   -1.9100    1.4010    1.3125 C   0  0  0  0  0  0  0  0  0  0  0  0
   -3.0087    1.9024    0.5362 C   0  0  0  0  0  0  0  0  0  0  0  0
   -3.3815    1.3169   -0.6737 C   0  0  0  0  0  0  0  0  0  0  0  0
   -2.9658   -0.2629   -2.1213 H   0  0  0  0  0  0  0  0  0  0  0  0
   -1.0205   -1.2272   -0.8391 H   0  0  0  0  0  0  0  0  0  0  0  0
    6.8061    0.8182   -0.1240 N   0  0  0  0  0  0  0  0  0  0  0  0
    7.9090    0.8819   -0.1586 N   0  0  0  0  0  0  0  0  0  0  0  0
   -4.2183    1.7269   -1.2285 H   0  0  0  0  0  0  0  0  0  0  0  0
   -3.5237    2.7640    0.9544 H   0  0  0  0  0  0  0  0  0  0  0  0
   -1.5816    1.8192    2.2559 H   0  0  0  0  0  0  0  0  0  0  0  0
  1  6  2  0  0  0  0
  1  2  1  0  0  0  0
  2  3  2  0  0  0  0
  3  4  1  0  0  0  0
  4 13  1  0  0  0  0
  5 12  1  0  0  0  0
  5  4  2  0  0  0  0
  6  5  1  0  0  0  0
  7  1  1  0  0  0  0
  8  2  1  0  0  0  0
 10  9  3  0  0  0  0
 11  6  1  0  0  0  0
M  RAD  1   3   2
M  END
