Coordinates from ORCA-job Ph-N2+-B3LYPG-6-31G_dp-MTMO-d009-169-n800
 OpenBabel09051908203D

 13 12  0  0  0  0  0  0  0  0999 V2000
   -2.7720    0.2136   -1.1821 C   0  0  0  0  0  0  0  0  0  0  0  0
   -1.6842   -0.3974   -0.4720 C   0  0  0  0  0  0  0  0  0  0  0  0
   -1.5603    0.3432    0.6220 C   0  0  0  0  0  0  0  0  0  0  0  0
   -1.9946    1.3822    1.3237 C   0  0  0  0  0  0  0  0  0  0  0  0
   -3.0679    1.9109    0.5304 C   0  0  0  0  0  0  0  0  0  0  0  0
   -3.4365    1.3348   -0.6852 C   0  0  0  0  0  0  0  0  0  0  0  0
   -3.0386   -0.2553   -2.1263 H   0  0  0  0  0  0  0  0  0  0  0  0
   -1.1378   -1.2678   -0.8141 H   0  0  0  0  0  0  0  0  0  0  0  0
    7.2226    0.8495   -0.1344 N   0  0  0  0  0  0  0  0  0  0  0  0
    8.3260    0.8995   -0.1739 N   0  0  0  0  0  0  0  0  0  0  0  0
   -4.2536    1.7659   -1.2534 H   0  0  0  0  0  0  0  0  0  0  0  0
   -3.5672    2.7856    0.9404 H   0  0  0  0  0  0  0  0  0  0  0  0
   -1.6696    1.7929    2.2716 H   0  0  0  0  0  0  0  0  0  0  0  0
  1  6  2  0  0  0  0
  1  2  1  0  0  0  0
  2  3  2  0  0  0  0
  3  4  1  0  0  0  0
  4 13  1  0  0  0  0
  5 12  1  0  0  0  0
  5  4  2  0  0  0  0
  6  5  1  0  0  0  0
  7  1  1  0  0  0  0
  8  2  1  0  0  0  0
 10  9  3  0  0  0  0
 11  6  1  0  0  0  0
M  RAD  1   3   2
M  END
