Coordinates from ORCA-job Ph-N2+-B3LYPG-6-31G_dp-MTMO-d009-169-n800
 OpenBabel09051908203D

 13 12  0  0  0  0  0  0  0  0999 V2000
   -2.1804    0.1088   -1.1014 C   0  0  0  0  0  0  0  0  0  0  0  0
   -0.7546   -0.0055   -0.9971 C   0  0  0  0  0  0  0  0  0  0  0  0
   -0.4310    0.8340   -0.0209 C   0  0  0  0  0  0  0  0  0  0  0  0
   -0.8570    1.7136    0.8777 C   0  0  0  0  0  0  0  0  0  0  0  0
   -2.2782    1.7500    0.6883 C   0  0  0  0  0  0  0  0  0  0  0  0
   -2.9104    0.9658   -0.2772 C   0  0  0  0  0  0  0  0  0  0  0  0
   -2.6498   -0.5120   -1.8612 H   0  0  0  0  0  0  0  0  0  0  0  0
   -0.1408   -0.6525   -1.6114 H   0  0  0  0  0  0  0  0  0  0  0  0
    2.7985    0.7179    0.2506 N   0  0  0  0  0  0  0  0  0  0  0  0
    3.8997    0.6886    0.3353 N   0  0  0  0  0  0  0  0  0  0  0  0
   -3.9880    1.0240   -0.3894 H   0  0  0  0  0  0  0  0  0  0  0  0
   -2.8248    2.4248    1.3430 H   0  0  0  0  0  0  0  0  0  0  0  0
   -0.3168    2.3000    1.6105 H   0  0  0  0  0  0  0  0  0  0  0  0
  1  2  2  0  0  0  0
  1  6  1  0  0  0  0
  2  3  1  0  0  0  0
  3  4  2  0  0  0  0
  4 13  1  0  0  0  0
  5  4  1  0  0  0  0
  5 12  1  0  0  0  0
  6  5  2  0  0  0  0
  7  1  1  0  0  0  0
  8  2  1  0  0  0  0
  9 10  3  0  0  0  0
 11  6  1  0  0  0  0
M  RAD  1   3   2
M  END
