Coordinates from ORCA-job Ph-N2+-B3LYPG-6-31G_dp-MTMO-d009-169-n800
 OpenBabel09051908203D

 13 12  0  0  0  0  0  0  0  0999 V2000
   -2.2440    0.1134   -1.1079 C   0  0  0  0  0  0  0  0  0  0  0  0
   -0.8194   -0.0114   -0.9895 C   0  0  0  0  0  0  0  0  0  0  0  0
   -0.5032    0.8259   -0.0099 C   0  0  0  0  0  0  0  0  0  0  0  0
   -0.9284    1.7083    0.8852 C   0  0  0  0  0  0  0  0  0  0  0  0
   -2.3481    1.7547    0.6810 C   0  0  0  0  0  0  0  0  0  0  0  0
   -2.9761    0.9754   -0.2910 C   0  0  0  0  0  0  0  0  0  0  0  0
   -2.7090   -0.5042   -1.8730 H   0  0  0  0  0  0  0  0  0  0  0  0
   -0.2042   -0.6627   -1.5982 H   0  0  0  0  0  0  0  0  0  0  0  0
    3.1679    0.7074    0.2675 N   0  0  0  0  0  0  0  0  0  0  0  0
    4.2702    0.6847    0.3420 N   0  0  0  0  0  0  0  0  0  0  0  0
   -4.0521    1.0415   -0.4142 H   0  0  0  0  0  0  0  0  0  0  0  0
   -2.8954    2.4337    1.3310 H   0  0  0  0  0  0  0  0  0  0  0  0
   -0.3917    2.2910    1.6238 H   0  0  0  0  0  0  0  0  0  0  0  0
  1  2  2  0  0  0  0
  1  6  1  0  0  0  0
  2  3  1  0  0  0  0
  3  4  2  0  0  0  0
  4 13  1  0  0  0  0
  5  4  1  0  0  0  0
  5 12  1  0  0  0  0
  6  5  2  0  0  0  0
  7  1  1  0  0  0  0
  8  2  1  0  0  0  0
  9 10  3  0  0  0  0
 11  6  1  0  0  0  0
M  RAD  1   3   2
M  END
