Coordinates from ORCA-job Ph-N2+-B3LYPG-6-31G_dp-MTMO-d009-169-n800
 OpenBabel09051908203D

 13 12  0  0  0  0  0  0  0  0999 V2000
   -2.5678    0.1617   -1.1501 C   0  0  0  0  0  0  0  0  0  0  0  0
   -1.1957   -0.0931   -0.8141 C   0  0  0  0  0  0  0  0  0  0  0  0
   -0.9632    0.7130    0.2137 C   0  0  0  0  0  0  0  0  0  0  0  0
   -1.4398    1.6318    1.0439 C   0  0  0  0  0  0  0  0  0  0  0  0
   -2.8006    1.8068    0.6222 C   0  0  0  0  0  0  0  0  0  0  0  0
   -3.3375    1.0874   -0.4456 C   0  0  0  0  0  0  0  0  0  0  0  0
   -2.9606   -0.4121   -1.9864 H   0  0  0  0  0  0  0  0  0  0  0  0
   -0.5563   -0.7992   -1.3301 H   0  0  0  0  0  0  0  0  0  0  0  0
    5.4033    0.6504    0.1892 N   0  0  0  0  0  0  0  0  0  0  0  0
    6.5084    0.6602    0.1841 N   0  0  0  0  0  0  0  0  0  0  0  0
   -4.3702    1.2512   -0.7333 H   0  0  0  0  0  0  0  0  0  0  0  0
   -3.3778    2.5341    1.1889 H   0  0  0  0  0  0  0  0  0  0  0  0
   -0.9759    2.1654    1.8645 H   0  0  0  0  0  0  0  0  0  0  0  0
  1  2  2  0  0  0  0
  1  6  1  0  0  0  0
  2  3  1  0  0  0  0
  3  4  2  0  0  0  0
  4 13  1  0  0  0  0
  5  4  1  0  0  0  0
  5 12  1  0  0  0  0
  6  5  2  0  0  0  0
  7  1  1  0  0  0  0
  8  2  1  0  0  0  0
 10  9  3  0  0  0  0
 11  6  1  0  0  0  0
M  RAD  1   3   2
M  END
