Coordinates from ORCA-job Ph-N2+-B3LYPG-6-31G_dp-MTMO-d009-169-n800
 OpenBabel09051908203D

 13 12  0  0  0  0  0  0  0  0999 V2000
   -2.8343    0.2136   -1.1826 C   0  0  0  0  0  0  0  0  0  0  0  0
   -1.7710   -0.4229   -0.4581 C   0  0  0  0  0  0  0  0  0  0  0  0
   -1.6435    0.3152    0.6372 C   0  0  0  0  0  0  0  0  0  0  0  0
   -2.0614    1.3652    1.3324 C   0  0  0  0  0  0  0  0  0  0  0  0
   -3.1113    1.9190    0.5250 C   0  0  0  0  0  0  0  0  0  0  0  0
   -3.4779    1.3510   -0.6950 C   0  0  0  0  0  0  0  0  0  0  0  0
   -3.0999   -0.2495   -2.1300 H   0  0  0  0  0  0  0  0  0  0  0  0
   -1.2413   -1.3064   -0.7928 H   0  0  0  0  0  0  0  0  0  0  0  0
    7.5568    0.8754   -0.1442 N   0  0  0  0  0  0  0  0  0  0  0  0
    8.6604    0.9211   -0.1834 N   0  0  0  0  0  0  0  0  0  0  0  0
   -4.2767    1.8014   -1.2741 H   0  0  0  0  0  0  0  0  0  0  0  0
   -3.5945    2.8059    0.9280 H   0  0  0  0  0  0  0  0  0  0  0  0
   -1.7390    1.7687    2.2843 H   0  0  0  0  0  0  0  0  0  0  0  0
  1  6  2  0  0  0  0
  1  2  1  0  0  0  0
  2  3  2  0  0  0  0
  3  4  1  0  0  0  0
  4 13  1  0  0  0  0
  5 12  1  0  0  0  0
  5  4  2  0  0  0  0
  6  5  1  0  0  0  0
  7  1  1  0  0  0  0
  8  2  1  0  0  0  0
 10  9  3  0  0  0  0
 11  6  1  0  0  0  0
M  RAD  1   3   2
M  END
