Coordinates from ORCA-job Ph-N2+-B3LYPG-6-31G_dp-MTMO-d009-169-n800
 OpenBabel09051908213D

 13 12  0  0  0  0  0  0  0  0999 V2000
   -3.1820    0.2147   -1.1897 C   0  0  0  0  0  0  0  0  0  0  0  0
   -2.3474   -0.6024   -0.3548 C   0  0  0  0  0  0  0  0  0  0  0  0
   -2.2002    0.1163    0.7508 C   0  0  0  0  0  0  0  0  0  0  0  0
   -2.4838    1.2367    1.4022 C   0  0  0  0  0  0  0  0  0  0  0  0
   -3.3119    1.9691    0.4860 C   0  0  0  0  0  0  0  0  0  0  0  0
   -3.6442    1.4622   -0.7704 C   0  0  0  0  0  0  0  0  0  0  0  0
   -3.4254   -0.2041   -2.1633 H   0  0  0  0  0  0  0  0  0  0  0  0
   -1.9633   -1.5757   -0.6338 H   0  0  0  0  0  0  0  0  0  0  0  0
    9.4747    1.0640   -0.2203 N   0  0  0  0  0  0  0  0  0  0  0  0
   10.5788    1.1054   -0.2523 N   0  0  0  0  0  0  0  0  0  0  0  0
   -4.2722    2.0485   -1.4327 H   0  0  0  0  0  0  0  0  0  0  0  0
   -3.6584    2.9377    0.8382 H   0  0  0  0  0  0  0  0  0  0  0  0
   -2.1982    1.5852    2.3870 H   0  0  0  0  0  0  0  0  0  0  0  0
  1  6  2  0  0  0  0
  1  2  1  0  0  0  0
  2  3  2  0  0  0  0
  3  4  1  0  0  0  0
  4 13  1  0  0  0  0
  5 12  1  0  0  0  0
  5  4  2  0  0  0  0
  6  5  1  0  0  0  0
  7  1  1  0  0  0  0
  8  2  1  0  0  0  0
 10  9  3  0  0  0  0
 11  6  1  0  0  0  0
M  RAD  1   3   2
M  END
