Coordinates from ORCA-job Ph-N2+-B3LYPG-6-31G_dp-MTMO-d009-169-n800
 OpenBabel09051908213D

 13 12  0  0  0  0  0  0  0  0999 V2000
   -3.0164    0.3647   -1.0730 C   0  0  0  0  0  0  0  0  0  0  0  0
   -2.8465   -0.6222   -0.0440 C   0  0  0  0  0  0  0  0  0  0  0  0
   -3.3590   -0.0482    1.0368 C   0  0  0  0  0  0  0  0  0  0  0  0
   -3.9476    1.0176    1.5645 C   0  0  0  0  0  0  0  0  0  0  0  0
   -4.0673    1.9283    0.4611 C   0  0  0  0  0  0  0  0  0  0  0  0
   -3.6114    1.5999   -0.8157 C   0  0  0  0  0  0  0  0  0  0  0  0
   -2.6529    0.0823   -2.0583 H   0  0  0  0  0  0  0  0  0  0  0  0
   -2.3949   -1.5952   -0.1933 H   0  0  0  0  0  0  0  0  0  0  0  0
   12.3478    1.0914   -0.8333 N   0  0  0  0  0  0  0  0  0  0  0  0
   13.4528    1.1126   -0.8388 N   0  0  0  0  0  0  0  0  0  0  0  0
   -3.7217    2.3169   -1.6222 H   0  0  0  0  0  0  0  0  0  0  0  0
   -4.5327    2.8842    0.6901 H   0  0  0  0  0  0  0  0  0  0  0  0
   -4.2838    1.2254    2.5729 H   0  0  0  0  0  0  0  0  0  0  0  0
  1  6  2  0  0  0  0
  1  2  1  0  0  0  0
  2  3  2  0  0  0  0
  3  4  1  0  0  0  0
  4 13  1  0  0  0  0
  5 12  1  0  0  0  0
  5  4  2  0  0  0  0
  6  5  1  0  0  0  0
  7  1  1  0  0  0  0
  8  2  1  0  0  0  0
 10  9  3  0  0  0  0
 11  6  1  0  0  0  0
M  RAD  1   3   2
M  END
