Coordinates from ORCA-job Ph-N2+-B3LYPG-6-31G_dp-MTMO-d009-169-n800
 OpenBabel09051908213D

 13 12  0  0  0  0  0  0  0  0999 V2000
   -2.8226    0.4005   -1.0270 C   0  0  0  0  0  0  0  0  0  0  0  0
   -2.7267   -0.6033   -0.0050 C   0  0  0  0  0  0  0  0  0  0  0  0
   -3.3455   -0.0602    1.0355 C   0  0  0  0  0  0  0  0  0  0  0  0
   -3.9993    0.9844    1.5273 C   0  0  0  0  0  0  0  0  0  0  0  0
   -4.0371    1.9148    0.4343 C   0  0  0  0  0  0  0  0  0  0  0  0
   -3.4620    1.6199   -0.8019 C   0  0  0  0  0  0  0  0  0  0  0  0
   -2.3677    0.1440   -1.9809 H   0  0  0  0  0  0  0  0  0  0  0  0
   -2.2453   -1.5653   -0.1311 H   0  0  0  0  0  0  0  0  0  0  0  0
   11.8733    1.0616   -0.8662 N   0  0  0  0  0  0  0  0  0  0  0  0
   12.9782    1.0862   -0.8797 N   0  0  0  0  0  0  0  0  0  0  0  0
   -3.5129    2.3510   -1.6018 H   0  0  0  0  0  0  0  0  0  0  0  0
   -4.5391    2.8578    0.6379 H   0  0  0  0  0  0  0  0  0  0  0  0
   -4.4272    1.1665    2.5055 H   0  0  0  0  0  0  0  0  0  0  0  0
  1  6  2  0  0  0  0
  1  2  1  0  0  0  0
  2  3  2  0  0  0  0
  3  4  1  0  0  0  0
  4 13  1  0  0  0  0
  5 12  1  0  0  0  0
  5  4  2  0  0  0  0
  6  5  1  0  0  0  0
  7  1  1  0  0  0  0
  8  2  1  0  0  0  0
 10  9  3  0  0  0  0
 11  6  1  0  0  0  0
M  RAD  1   3   2
M  END
