Coordinates from ORCA-job Ph-N2+-B3LYPG-6-31G_dp-MTMO-d009-169-n800
 OpenBabel09051908203D

 13 12  0  0  0  0  0  0  0  0999 V2000
   -2.1477    0.1069   -1.0983 C   0  0  0  0  0  0  0  0  0  0  0  0
   -0.7222   -0.0033   -0.9978 C   0  0  0  0  0  0  0  0  0  0  0  0
   -0.3934    0.8365   -0.0226 C   0  0  0  0  0  0  0  0  0  0  0  0
   -0.8234    1.7150    0.8764 C   0  0  0  0  0  0  0  0  0  0  0  0
   -2.2444    1.7481    0.6918 C   0  0  0  0  0  0  0  0  0  0  0  0
   -2.8774    0.9621   -0.2718 C   0  0  0  0  0  0  0  0  0  0  0  0
   -2.6188   -0.5148   -1.8561 H   0  0  0  0  0  0  0  0  0  0  0  0
   -0.1089   -0.6489   -1.6138 H   0  0  0  0  0  0  0  0  0  0  0  0
    2.6158    0.7231    0.2389 N   0  0  0  0  0  0  0  0  0  0  0  0
    3.7166    0.6912    0.3261 N   0  0  0  0  0  0  0  0  0  0  0  0
   -3.9555    1.0175   -0.3809 H   0  0  0  0  0  0  0  0  0  0  0  0
   -2.7917    2.4213    1.3475 H   0  0  0  0  0  0  0  0  0  0  0  0
   -0.2827    2.3029    1.6074 H   0  0  0  0  0  0  0  0  0  0  0  0
  1  2  2  0  0  0  0
  1  6  1  0  0  0  0
  2  3  1  0  0  0  0
  3  4  2  0  0  0  0
  4 13  1  0  0  0  0
  5  4  1  0  0  0  0
  5 12  1  0  0  0  0
  6  5  2  0  0  0  0
  7  1  1  0  0  0  0
  8  2  1  0  0  0  0
  9 10  3  0  0  0  0
 11  6  1  0  0  0  0
M  RAD  1   3   2
M  END
