Coordinates from ORCA-job Ph-N2+-B3LYPG-6-31G_dp-MTMO-d009-169-n800
 OpenBabel09051908213D

 13 12  0  0  0  0  0  0  0  0999 V2000
   -3.1530    0.2549   -1.1938 C   0  0  0  0  0  0  0  0  0  0  0  0
   -2.7291   -0.6947   -0.2040 C   0  0  0  0  0  0  0  0  0  0  0  0
   -2.8162   -0.0256    0.9385 C   0  0  0  0  0  0  0  0  0  0  0  0
   -3.1179    1.1146    1.5463 C   0  0  0  0  0  0  0  0  0  0  0  0
   -3.5235    1.9807    0.4754 C   0  0  0  0  0  0  0  0  0  0  0  0
   -3.5362    1.5519   -0.8520 C   0  0  0  0  0  0  0  0  0  0  0  0
   -3.1531   -0.1059   -2.2200 H   0  0  0  0  0  0  0  0  0  0  0  0
   -2.4203   -1.7104   -0.4185 H   0  0  0  0  0  0  0  0  0  0  0  0
   10.7355    1.1701   -0.4586 N   0  0  0  0  0  0  0  0  0  0  0  0
   11.8397    1.1998   -0.4970 N   0  0  0  0  0  0  0  0  0  0  0  0
   -3.8493    2.2383   -1.6312 H   0  0  0  0  0  0  0  0  0  0  0  0
   -3.8187    2.9849    0.7705 H   0  0  0  0  0  0  0  0  0  0  0  0
   -3.0915    1.3991    2.5912 H   0  0  0  0  0  0  0  0  0  0  0  0
  1  6  2  0  0  0  0
  1  2  1  0  0  0  0
  2  3  2  0  0  0  0
  3  4  1  0  0  0  0
  4 13  1  0  0  0  0
  5 12  1  0  0  0  0
  5  4  2  0  0  0  0
  6  5  1  0  0  0  0
  7  1  1  0  0  0  0
  8  2  1  0  0  0  0
 10  9  3  0  0  0  0
 11  6  1  0  0  0  0
M  RAD  1   3   2
M  END
