Coordinates from ORCA-job Ph-N2+-B3LYPG-6-31G_dp-MTMO-d009-169-n800
 OpenBabel09051908203D

 13 13  0  0  0  0  0  0  0  0999 V2000
   -1.9527    0.0930   -1.0848 C   0  0  0  0  0  0  0  0  0  0  0  0
   -0.5635    0.0120   -0.9767 C   0  0  0  0  0  0  0  0  0  0  0  0
   -0.0195    0.8314    0.0011 C   0  0  0  0  0  0  0  0  0  0  0  0
   -0.6623    1.7027    0.8678 C   0  0  0  0  0  0  0  0  0  0  0  0
   -2.0491    1.7434    0.7157 C   0  0  0  0  0  0  0  0  0  0  0  0
   -2.6820    0.9483   -0.2487 C   0  0  0  0  0  0  0  0  0  0  0  0
   -2.4597   -0.5154   -1.8261 H   0  0  0  0  0  0  0  0  0  0  0  0
    0.0351   -0.6363   -1.6050 H   0  0  0  0  0  0  0  0  0  0  0  0
    1.5732    0.7635    0.1483 N   0  0  0  0  0  0  0  0  0  0  0  0
    2.6750    0.7169    0.2494 N   0  0  0  0  0  0  0  0  0  0  0  0
   -3.7616    0.9966   -0.3507 H   0  0  0  0  0  0  0  0  0  0  0  0
   -2.6299    2.3998    1.3549 H   0  0  0  0  0  0  0  0  0  0  0  0
   -0.1366    2.3019    1.6013 H   0  0  0  0  0  0  0  0  0  0  0  0
  1  2  2  0  0  0  0
  1  6  1  0  0  0  0
  2  3  1  0  0  0  0
  3  9  1  0  0  0  0
  3  4  2  0  0  0  0
  4 13  1  0  0  0  0
  5  4  1  0  0  0  0
  5 12  1  0  0  0  0
  6  5  2  0  0  0  0
  7  1  1  0  0  0  0
  8  2  1  0  0  0  0
  9 10  1  0  0  0  0
 11  6  1  0  0  0  0
M  RAD  2   9   2  10   3
M  END
