Coordinates from ORCA-job Ph-N2+-B3LYPG-6-31G_dp-MTMO-d009-169-n800
 OpenBabel09051908203D

 13 12  0  0  0  0  0  0  0  0999 V2000
   -2.4078    0.1321   -1.1252 C   0  0  0  0  0  0  0  0  0  0  0  0
   -0.9946   -0.0257   -0.9283 C   0  0  0  0  0  0  0  0  0  0  0  0
   -0.7163    0.8034    0.0694 C   0  0  0  0  0  0  0  0  0  0  0  0
   -1.1690    1.6951    0.9413 C   0  0  0  0  0  0  0  0  0  0  0  0
   -2.5741    1.7740    0.6579 C   0  0  0  0  0  0  0  0  0  0  0  0
   -3.1645    1.0101   -0.3490 C   0  0  0  0  0  0  0  0  0  0  0  0
   -2.8424   -0.4746   -1.9165 H   0  0  0  0  0  0  0  0  0  0  0  0
   -0.3628   -0.6910   -1.5042 H   0  0  0  0  0  0  0  0  0  0  0  0
    4.2632    0.6553    0.2544 N   0  0  0  0  0  0  0  0  0  0  0  0
    5.3677    0.6469    0.2906 N   0  0  0  0  0  0  0  0  0  0  0  0
   -4.2299    1.1011   -0.5322 H   0  0  0  0  0  0  0  0  0  0  0  0
   -3.1403    2.4653    1.2782 H   0  0  0  0  0  0  0  0  0  0  0  0
   -0.6626    2.2656    1.7104 H   0  0  0  0  0  0  0  0  0  0  0  0
  1  2  2  0  0  0  0
  1  6  1  0  0  0  0
  2  3  1  0  0  0  0
  3  4  2  0  0  0  0
  4 13  1  0  0  0  0
  5  4  1  0  0  0  0
  5 12  1  0  0  0  0
  6  5  2  0  0  0  0
  7  1  1  0  0  0  0
  8  2  1  0  0  0  0
  9 10  3  0  0  0  0
 11  6  1  0  0  0  0
M  RAD  1   3   2
M  END
