Coordinates from ORCA-job Ph-N2+-B3LYPG-6-31G_dp-MTMO-d009-169-n800
 OpenBabel09051908203D

 13 12  0  0  0  0  0  0  0  0999 V2000
   -2.9177    0.2118   -1.1828 C   0  0  0  0  0  0  0  0  0  0  0  0
   -1.8910   -0.4636   -0.4406 C   0  0  0  0  0  0  0  0  0  0  0  0
   -1.7497    0.2738    0.6533 C   0  0  0  0  0  0  0  0  0  0  0  0
   -2.1381    1.3399    1.3410 C   0  0  0  0  0  0  0  0  0  0  0  0
   -3.1533    1.9321    0.5163 C   0  0  0  0  0  0  0  0  0  0  0  0
   -3.5235    1.3750   -0.7076 C   0  0  0  0  0  0  0  0  0  0  0  0
   -3.1867   -0.2435   -2.1329 H   0  0  0  0  0  0  0  0  0  0  0  0
   -1.3919   -1.3684   -0.7649 H   0  0  0  0  0  0  0  0  0  0  0  0
    7.9669    0.9154   -0.1536 N   0  0  0  0  0  0  0  0  0  0  0  0
    9.0706    0.9605   -0.1895 N   0  0  0  0  0  0  0  0  0  0  0  0
   -4.2957    1.8542   -1.2996 H   0  0  0  0  0  0  0  0  0  0  0  0
   -3.6079    2.8380    0.9101 H   0  0  0  0  0  0  0  0  0  0  0  0
   -1.8158    1.7324    2.2975 H   0  0  0  0  0  0  0  0  0  0  0  0
  1  6  2  0  0  0  0
  1  2  1  0  0  0  0
  2  3  2  0  0  0  0
  3  4  1  0  0  0  0
  4 13  1  0  0  0  0
  5 12  1  0  0  0  0
  5  4  2  0  0  0  0
  6  5  1  0  0  0  0
  7  1  1  0  0  0  0
  8  2  1  0  0  0  0
 10  9  3  0  0  0  0
 11  6  1  0  0  0  0
M  RAD  1   3   2
M  END
