Coordinates from ORCA-job Ph-N2+-B3LYPG-6-31G_dp-MTMO-d009-169-n800
 OpenBabel09051908203D

 13 12  0  0  0  0  0  0  0  0999 V2000
   -2.7341    0.2133   -1.1817 C   0  0  0  0  0  0  0  0  0  0  0  0
   -1.6329   -0.3834   -0.4803 C   0  0  0  0  0  0  0  0  0  0  0  0
   -1.5097    0.3591    0.6125 C   0  0  0  0  0  0  0  0  0  0  0  0
   -1.9525    1.3919    1.3182 C   0  0  0  0  0  0  0  0  0  0  0  0
   -3.0389    1.9064    0.5334 C   0  0  0  0  0  0  0  0  0  0  0  0
   -3.4094    1.3256   -0.6794 C   0  0  0  0  0  0  0  0  0  0  0  0
   -3.0020   -0.2590   -2.1238 H   0  0  0  0  0  0  0  0  0  0  0  0
   -1.0779   -1.2467   -0.8267 H   0  0  0  0  0  0  0  0  0  0  0  0
    7.0146    0.8340   -0.1287 N   0  0  0  0  0  0  0  0  0  0  0  0
    8.1178    0.8895   -0.1668 N   0  0  0  0  0  0  0  0  0  0  0  0
   -4.2367    1.7459   -1.2409 H   0  0  0  0  0  0  0  0  0  0  0  0
   -3.5464    2.7745    0.9475 H   0  0  0  0  0  0  0  0  0  0  0  0
   -1.6256    1.8065    2.2636 H   0  0  0  0  0  0  0  0  0  0  0  0
  1  6  2  0  0  0  0
  1  2  1  0  0  0  0
  2  3  2  0  0  0  0
  3  4  1  0  0  0  0
  4 13  1  0  0  0  0
  5 12  1  0  0  0  0
  5  4  2  0  0  0  0
  6  5  1  0  0  0  0
  7  1  1  0  0  0  0
  8  2  1  0  0  0  0
 10  9  3  0  0  0  0
 11  6  1  0  0  0  0
M  RAD  1   3   2
M  END
