Coordinates from ORCA-job Ph-N2-OOCH-B3LYPG-aug-cc-pVDZ-scan-d09-49-n400
 OpenBabel10311713223D

 19 18  0  0  0  0  0  0  0  0999 V2000
   -0.7872    0.1155   -0.7494 C   0  0  0  0  0  0  0  0  0  0  0  0
    0.4248    0.7500   -1.0570 C   0  0  0  0  0  0  0  0  0  0  0  0
    1.3213    0.7726   -0.0096 C   0  0  0  0  0  0  0  0  0  0  0  0
    1.2203    0.2702    1.2624 C   0  0  0  0  0  0  0  0  0  0  0  0
   -0.0160   -0.3429    1.5185 C   0  0  0  0  0  0  0  0  0  0  0  0
   -1.0003   -0.4215    0.5258 C   0  0  0  0  0  0  0  0  0  0  0  0
   -1.5557    0.0455   -1.5183 H   0  0  0  0  0  0  0  0  0  0  0  0
    0.6335    1.1764   -2.0343 H   0  0  0  0  0  0  0  0  0  0  0  0
    2.7698    1.5854   -0.3811 N   0  0  0  0  0  0  0  0  0  0  0  0
    3.3883    2.4056   -0.7978 N   0  0  0  0  0  0  0  0  0  0  0  0
   -1.9473   -0.9138    0.7461 H   0  0  0  0  0  0  0  0  0  0  0  0
   -0.1915   -0.7689    2.5057 H   0  0  0  0  0  0  0  0  0  0  0  0
    2.0416    0.3473    1.9843 H   0  0  0  0  0  0  0  0  0  0  0  0
    4.8108    0.1604    1.5717 S   0  0  0  0  0  0  0  0  0  0  0  0
    3.8858    0.7370    2.6108 O   0  0  0  0  0  0  0  0  0  0  0  0
    5.7992   -0.8337    2.0556 O   0  0  0  0  0  0  0  0  0  0  0  0
    4.0630   -0.2221    0.3039 O   0  0  0  0  0  0  0  0  0  0  0  0
    5.7054    1.4810    0.9969 O   0  0  0  0  0  0  0  0  0  0  0  0
    6.3960    1.6474    1.6572 H   0  0  0  0  0  0  0  0  0  0  0  0
  1  6  1  0  0  0  0
  2  1  2  0  0  0  0
  2  3  1  0  0  0  0
  3  4  2  0  0  0  0
  4  5  1  0  0  0  0
  4 13  1  0  0  0  0
  5 12  1  0  0  0  0
  6 11  1  0  0  0  0
  6  5  2  0  0  0  0
  7  1  1  0  0  0  0
  8  2  1  0  0  0  0
  9  3  1  0  0  0  0
 10  9  1  0  0  0  0
 14 16  2  0  0  0  0
 14 15  1  0  0  0  0
 17 14  2  0  0  0  0
 18 14  1  0  0  0  0
 18 19  1  0  0  0  0
M  RAD  3   9   2  10   3  15   2
M  END
