Coordinates from ORCA-job Ph-N2-OOCH-B3LYPG-aug-cc-pVDZ-scan-d09-49-n400
 OpenBabel10311713223D

 19 17  0  0  0  0  0  0  0  0999 V2000
   -0.9238    0.1405   -0.6483 C   0  0  0  0  0  0  0  0  0  0  0  0
    0.2514    0.7699   -1.1241 C   0  0  0  0  0  0  0  0  0  0  0  0
    1.1814    0.7272   -0.1394 C   0  0  0  0  0  0  0  0  0  0  0  0
    1.3487    0.2925    1.0968 C   0  0  0  0  0  0  0  0  0  0  0  0
    0.1268   -0.3243    1.5041 C   0  0  0  0  0  0  0  0  0  0  0  0
   -0.9752   -0.3928    0.6463 C   0  0  0  0  0  0  0  0  0  0  0  0
   -1.7810    0.0867   -1.3198 H   0  0  0  0  0  0  0  0  0  0  0  0
    0.3551    1.2014   -2.1141 H   0  0  0  0  0  0  0  0  0  0  0  0
    2.9442    1.8244   -0.9056 N   0  0  0  0  0  0  0  0  0  0  0  0
    3.7485    2.4487   -1.3290 N   0  0  0  0  0  0  0  0  0  0  0  0
   -1.8905   -0.8747    0.9885 H   0  0  0  0  0  0  0  0  0  0  0  0
    0.0959   -0.7518    2.5070 H   0  0  0  0  0  0  0  0  0  0  0  0
    2.2975    0.3180    1.7609 H   0  0  0  0  0  0  0  0  0  0  0  0
    4.7862    0.0470    1.6522 S   0  0  0  0  0  0  0  0  0  0  0  0
    3.6037    0.3091    2.5964 O   0  0  0  0  0  0  0  0  0  0  0  0
    5.8696   -0.7475    2.2819 O   0  0  0  0  0  0  0  0  0  0  0  0
    4.3112   -0.3325    0.2874 O   0  0  0  0  0  0  0  0  0  0  0  0
    5.4482    1.5839    1.4007 O   0  0  0  0  0  0  0  0  0  0  0  0
    6.1639    1.6659    2.0496 H   0  0  0  0  0  0  0  0  0  0  0  0
  1  6  1  0  0  0  0
  2  1  2  0  0  0  0
  2  3  1  0  0  0  0
  3  4  2  0  0  0  0
  4  5  1  0  0  0  0
  4 13  1  0  0  0  0
  5 12  1  0  0  0  0
  6 11  1  0  0  0  0
  6  5  2  0  0  0  0
  7  1  1  0  0  0  0
  8  2  1  0  0  0  0
 10  9  3  0  0  0  0
 14 16  2  0  0  0  0
 14 15  1  0  0  0  0
 17 14  2  0  0  0  0
 18 14  1  0  0  0  0
 18 19  1  0  0  0  0
M  RAD  2   3   2  15   2
M  END
