Coordinates from ORCA-job Ph-N2-OOCH-B3LYPG-aug-cc-pVDZ-scan-d09-49-n400
 OpenBabel10311713223D

 19 17  0  0  0  0  0  0  0  0999 V2000
   -1.0843    0.3326   -0.4295 C   0  0  0  0  0  0  0  0  0  0  0  0
    0.1621    0.7511   -0.9661 C   0  0  0  0  0  0  0  0  0  0  0  0
    1.1095    0.4416   -0.0291 C   0  0  0  0  0  0  0  0  0  0  0  0
    1.1513   -0.0927    1.1120 C   0  0  0  0  0  0  0  0  0  0  0  0
   -0.0792   -0.5136    1.6626 C   0  0  0  0  0  0  0  0  0  0  0  0
   -1.1953   -0.2755    0.8356 C   0  0  0  0  0  0  0  0  0  0  0  0
   -1.9801    0.4952   -1.0316 H   0  0  0  0  0  0  0  0  0  0  0  0
    0.2833    1.2225   -1.9366 H   0  0  0  0  0  0  0  0  0  0  0  0
    3.5526    2.1474   -2.6187 N   0  0  0  0  0  0  0  0  0  0  0  0
    4.4481    2.6260   -3.0521 N   0  0  0  0  0  0  0  0  0  0  0  0
   -2.1841   -0.5751    1.1870 H   0  0  0  0  0  0  0  0  0  0  0  0
   -0.1797   -0.9878    2.6383 H   0  0  0  0  0  0  0  0  0  0  0  0
    2.9116   -0.3186    1.9269 H   0  0  0  0  0  0  0  0  0  0  0  0
    5.0300    0.1165    1.6960 S   0  0  0  0  0  0  0  0  0  0  0  0
    3.7361   -0.5205    2.4486 O   0  0  0  0  0  0  0  0  0  0  0  0
    6.2020   -0.4682    2.3600 O   0  0  0  0  0  0  0  0  0  0  0  0
    4.8257    0.1113    0.2426 O   0  0  0  0  0  0  0  0  0  0  0  0
    4.9291    1.7098    2.1302 O   0  0  0  0  0  0  0  0  0  0  0  0
    5.3232    1.7895    3.0154 H   0  0  0  0  0  0  0  0  0  0  0  0
  1  6  1  0  0  0  0
  2  1  2  0  0  0  0
  2  3  1  0  0  0  0
  3  4  2  0  0  0  0
  4  5  1  0  0  0  0
  5 12  1  0  0  0  0
  6 11  1  0  0  0  0
  6  5  2  0  0  0  0
  7  1  1  0  0  0  0
  8  2  1  0  0  0  0
 10  9  3  0  0  0  0
 13 15  1  0  0  0  0
 14 18  1  0  0  0  0
 14 16  2  0  0  0  0
 14 15  1  0  0  0  0
 17 14  2  0  0  0  0
 18 19  1  0  0  0  0
M  RAD  2   3   2   4   2
M  END
