Coordinates from ORCA-job Ph-N2-OOCH-B3LYPG-aug-cc-pVDZ-scan-d09-49-n400
 OpenBabel10311713223D

 19 17  0  0  0  0  0  0  0  0999 V2000
   -1.1321    0.3137   -0.5128 C   0  0  0  0  0  0  0  0  0  0  0  0
    0.0183    0.8437   -1.1546 C   0  0  0  0  0  0  0  0  0  0  0  0
    1.0607    0.6432   -0.2979 C   0  0  0  0  0  0  0  0  0  0  0  0
    1.2820    0.1408    0.8415 C   0  0  0  0  0  0  0  0  0  0  0  0
    0.1331   -0.3873    1.4846 C   0  0  0  0  0  0  0  0  0  0  0  0
   -1.0705   -0.2796    0.7620 C   0  0  0  0  0  0  0  0  0  0  0  0
   -2.0866    0.3761   -1.0385 H   0  0  0  0  0  0  0  0  0  0  0  0
    0.0130    1.3073   -2.1359 H   0  0  0  0  0  0  0  0  0  0  0  0
    3.0470    1.8068   -1.8470 N   0  0  0  0  0  0  0  0  0  0  0  0
    4.0443    2.2302   -2.0576 N   0  0  0  0  0  0  0  0  0  0  0  0
   -1.9886   -0.6710    1.2031 H   0  0  0  0  0  0  0  0  0  0  0  0
    0.1643   -0.8529    2.4696 H   0  0  0  0  0  0  0  0  0  0  0  0
    2.9124   -0.0729    1.7625 H   0  0  0  0  0  0  0  0  0  0  0  0
    5.0939    0.0561    1.7137 S   0  0  0  0  0  0  0  0  0  0  0  0
    3.6613   -0.3051    2.3871 O   0  0  0  0  0  0  0  0  0  0  0  0
    6.1065   -0.5765    2.5695 O   0  0  0  0  0  0  0  0  0  0  0  0
    5.0340   -0.1168    0.2572 O   0  0  0  0  0  0  0  0  0  0  0  0
    5.1768    1.6943    1.9386 O   0  0  0  0  0  0  0  0  0  0  0  0
    5.4919    1.8412    2.8464 H   0  0  0  0  0  0  0  0  0  0  0  0
  1  6  1  0  0  0  0
  2  1  2  0  0  0  0
  2  3  1  0  0  0  0
  3  4  2  0  0  0  0
  4  5  1  0  0  0  0
  5 12  1  0  0  0  0
  6 11  1  0  0  0  0
  6  5  2  0  0  0  0
  7  1  1  0  0  0  0
  8  2  1  0  0  0  0
 10  9  3  0  0  0  0
 13 15  1  0  0  0  0
 14 18  1  0  0  0  0
 14 15  1  0  0  0  0
 14 16  2  0  0  0  0
 17 14  2  0  0  0  0
 18 19  1  0  0  0  0
M  RAD  2   3   2   4   2
M  END
