Coordinates from ORCA-job Ph-N2-OOCH-B3LYPG-aug-cc-pVDZ-scan-d09-49-n400
 OpenBabel10311713223D

 19 17  0  0  0  0  0  0  0  0999 V2000
   -0.6707    0.4598   -0.3920 C   0  0  0  0  0  0  0  0  0  0  0  0
    0.7074    0.7083   -0.6254 C   0  0  0  0  0  0  0  0  0  0  0  0
    1.3692    0.2051    0.4570 C   0  0  0  0  0  0  0  0  0  0  0  0
    1.1159   -0.3956    1.5421 C   0  0  0  0  0  0  0  0  0  0  0  0
   -0.2582   -0.6430    1.7773 C   0  0  0  0  0  0  0  0  0  0  0  0
   -1.1314   -0.1924    0.7688 C   0  0  0  0  0  0  0  0  0  0  0  0
   -1.3847    0.7926   -1.1473 H   0  0  0  0  0  0  0  0  0  0  0  0
    1.0999    1.2069   -1.5066 H   0  0  0  0  0  0  0  0  0  0  0  0
    3.2749    2.2749   -3.2319 N   0  0  0  0  0  0  0  0  0  0  0  0
    4.3150    2.5150   -3.5134 N   0  0  0  0  0  0  0  0  0  0  0  0
   -2.2042   -0.3544    0.8861 H   0  0  0  0  0  0  0  0  0  0  0  0
   -0.6320   -1.1491    2.6673 H   0  0  0  0  0  0  0  0  0  0  0  0
    2.9029   -0.6842    2.2165 H   0  0  0  0  0  0  0  0  0  0  0  0
    4.7221    0.2668    1.5375 S   0  0  0  0  0  0  0  0  0  0  0  0
    3.8739   -0.7624    2.4552 O   0  0  0  0  0  0  0  0  0  0  0  0
    6.1274   -0.1382    1.6471 O   0  0  0  0  0  0  0  0  0  0  0  0
    4.0413    0.4741    0.2464 O   0  0  0  0  0  0  0  0  0  0  0  0
    4.5258    1.6977    2.3380 O   0  0  0  0  0  0  0  0  0  0  0  0
    5.1671    1.7095    3.0689 H   0  0  0  0  0  0  0  0  0  0  0  0
  1  6  1  0  0  0  0
  2  1  2  0  0  0  0
  2  3  1  0  0  0  0
  3  4  2  0  0  0  0
  4  5  1  0  0  0  0
  5 12  1  0  0  0  0
  6 11  1  0  0  0  0
  6  5  2  0  0  0  0
  7  1  1  0  0  0  0
  8  2  1  0  0  0  0
 10  9  3  0  0  0  0
 13 15  1  0  0  0  0
 14 16  2  0  0  0  0
 14 18  1  0  0  0  0
 14 15  1  0  0  0  0
 17 14  2  0  0  0  0
 18 19  1  0  0  0  0
M  RAD  2   3   2   4   2
M  END
