Coordinates from ORCA-job Ph-N2-OOCH-B3LYPG-aug-cc-pVDZ-scan-d09-49-n400
 OpenBabel10311713223D

 19 18  0  0  0  0  0  0  0  0999 V2000
   -0.8591    0.2031   -0.7145 C   0  0  0  0  0  0  0  0  0  0  0  0
    0.3689    0.7734   -1.0911 C   0  0  0  0  0  0  0  0  0  0  0  0
    1.3063    0.7013   -0.0906 C   0  0  0  0  0  0  0  0  0  0  0  0
    1.2866    0.1917    1.1708 C   0  0  0  0  0  0  0  0  0  0  0  0
    0.0259   -0.3539    1.4886 C   0  0  0  0  0  0  0  0  0  0  0  0
   -1.0215   -0.3506    0.5612 C   0  0  0  0  0  0  0  0  0  0  0  0
   -1.6764    0.1997   -1.4351 H   0  0  0  0  0  0  0  0  0  0  0  0
    0.5443    1.2131   -2.0683 H   0  0  0  0  0  0  0  0  0  0  0  0
    2.8671    1.4821   -0.5789 N   0  0  0  0  0  0  0  0  0  0  0  0
    3.5027    2.2287   -1.0925 N   0  0  0  0  0  0  0  0  0  0  0  0
   -1.9810   -0.7894    0.8338 H   0  0  0  0  0  0  0  0  0  0  0  0
   -0.1084   -0.7883    2.4788 H   0  0  0  0  0  0  0  0  0  0  0  0
    2.1477    0.2023    1.8594 H   0  0  0  0  0  0  0  0  0  0  0  0
    4.8230    0.1568    1.7049 S   0  0  0  0  0  0  0  0  0  0  0  0
    3.7904    0.3393    2.7822 O   0  0  0  0  0  0  0  0  0  0  0  0
    6.0404   -0.6187    2.0561 O   0  0  0  0  0  0  0  0  0  0  0  0
    4.1788   -0.2203    0.3797 O   0  0  0  0  0  0  0  0  0  0  0  0
    5.3832    1.7351    1.4106 O   0  0  0  0  0  0  0  0  0  0  0  0
    6.3428    1.6859    1.5362 H   0  0  0  0  0  0  0  0  0  0  0  0
  1  6  1  0  0  0  0
  2  1  2  0  0  0  0
  2  3  1  0  0  0  0
  3  4  2  0  0  0  0
  4  5  1  0  0  0  0
  4 13  1  0  0  0  0
  5 12  1  0  0  0  0
  6 11  1  0  0  0  0
  6  5  2  0  0  0  0
  7  1  1  0  0  0  0
  8  2  1  0  0  0  0
  9  3  1  0  0  0  0
 10  9  1  0  0  0  0
 14 16  2  0  0  0  0
 14 15  1  0  0  0  0
 17 14  2  0  0  0  0
 18 19  1  0  0  0  0
 18 14  1  0  0  0  0
M  RAD  3   9   2  10   3  15   2
M  END
