Coordinates from ORCA-job Ph-N2-OOCH-B3LYPG-aug-cc-pVDZ-scan-d09-49-n400
 OpenBabel10311713223D

 19 17  0  0  0  0  0  0  0  0999 V2000
   -1.1249    0.3272   -0.4500 C   0  0  0  0  0  0  0  0  0  0  0  0
    0.0819    0.8009   -1.0298 C   0  0  0  0  0  0  0  0  0  0  0  0
    1.0749    0.5290   -0.1301 C   0  0  0  0  0  0  0  0  0  0  0  0
    1.1869   -0.0066    1.0064 C   0  0  0  0  0  0  0  0  0  0  0  0
   -0.0058   -0.4820    1.5972 C   0  0  0  0  0  0  0  0  0  0  0  0
   -1.1618   -0.2900    0.8147 C   0  0  0  0  0  0  0  0  0  0  0  0
   -2.0484    0.4533   -1.0181 H   0  0  0  0  0  0  0  0  0  0  0  0
    0.1466    1.2802   -2.0017 H   0  0  0  0  0  0  0  0  0  0  0  0
    3.4465    2.0023   -2.3009 N   0  0  0  0  0  0  0  0  0  0  0  0
    4.3902    2.4553   -2.6511 N   0  0  0  0  0  0  0  0  0  0  0  0
   -2.1226   -0.6337    1.2016 H   0  0  0  0  0  0  0  0  0  0  0  0
   -0.0491   -0.9639    2.5734 H   0  0  0  0  0  0  0  0  0  0  0  0
    2.9124   -0.2274    1.8542 H   0  0  0  0  0  0  0  0  0  0  0  0
    5.0585    0.1015    1.6884 S   0  0  0  0  0  0  0  0  0  0  0  0
    3.7086   -0.4388    2.4166 O   0  0  0  0  0  0  0  0  0  0  0  0
    6.1753   -0.4918    2.4350 O   0  0  0  0  0  0  0  0  0  0  0  0
    4.9163    0.0227    0.2299 O   0  0  0  0  0  0  0  0  0  0  0  0
    5.0080    1.7198    2.0299 O   0  0  0  0  0  0  0  0  0  0  0  0
    5.3684    1.8334    2.9257 H   0  0  0  0  0  0  0  0  0  0  0  0
  1  6  1  0  0  0  0
  2  1  2  0  0  0  0
  2  3  1  0  0  0  0
  3  4  2  0  0  0  0
  4  5  1  0  0  0  0
  5 12  1  0  0  0  0
  6 11  1  0  0  0  0
  6  5  2  0  0  0  0
  7  1  1  0  0  0  0
  8  2  1  0  0  0  0
 10  9  3  0  0  0  0
 13 15  1  0  0  0  0
 14 18  1  0  0  0  0
 14 15  1  0  0  0  0
 14 16  2  0  0  0  0
 17 14  2  0  0  0  0
 18 19  1  0  0  0  0
M  RAD  2   3   2   4   2
M  END
