Coordinates from ORCA-job Ph-N2-OOCH-B3LYPG-aug-cc-pVDZ-scan-d09-49-n400
 OpenBabel10311713223D

 19 17  0  0  0  0  0  0  0  0999 V2000
   -1.0812    0.3332   -0.4287 C   0  0  0  0  0  0  0  0  0  0  0  0
    0.1670    0.7488   -0.9630 C   0  0  0  0  0  0  0  0  0  0  0  0
    1.1121    0.4374   -0.0242 C   0  0  0  0  0  0  0  0  0  0  0  0
    1.1504   -0.0968    1.1171 C   0  0  0  0  0  0  0  0  0  0  0  0
   -0.0820   -0.5149    1.6655 C   0  0  0  0  0  0  0  0  0  0  0  0
   -1.1960   -0.2745    0.8364 C   0  0  0  0  0  0  0  0  0  0  0  0
   -1.9756    0.4976   -1.0325 H   0  0  0  0  0  0  0  0  0  0  0  0
    0.2911    1.2198   -1.9334 H   0  0  0  0  0  0  0  0  0  0  0  0
    3.5546    2.1550   -2.6369 N   0  0  0  0  0  0  0  0  0  0  0  0
    4.4469    2.6353   -3.0750 N   0  0  0  0  0  0  0  0  0  0  0  0
   -2.1861   -0.5718    1.1859 H   0  0  0  0  0  0  0  0  0  0  0  0
   -0.1854   -0.9886    2.6411 H   0  0  0  0  0  0  0  0  0  0  0  0
    2.9113   -0.3235    1.9311 H   0  0  0  0  0  0  0  0  0  0  0  0
    5.0282    0.1167    1.6976 S   0  0  0  0  0  0  0  0  0  0  0  0
    3.7370   -0.5249    2.4510 O   0  0  0  0  0  0  0  0  0  0  0  0
    6.2026   -0.4676    2.3577 O   0  0  0  0  0  0  0  0  0  0  0  0
    4.8211    0.1149    0.2446 O   0  0  0  0  0  0  0  0  0  0  0  0
    4.9251    1.7085    2.1363 O   0  0  0  0  0  0  0  0  0  0  0  0
    5.3207    1.7867    3.0209 H   0  0  0  0  0  0  0  0  0  0  0  0
  1  6  1  0  0  0  0
  2  1  2  0  0  0  0
  2  3  1  0  0  0  0
  3  4  2  0  0  0  0
  4  5  1  0  0  0  0
  5 12  1  0  0  0  0
  6 11  1  0  0  0  0
  6  5  2  0  0  0  0
  7  1  1  0  0  0  0
  8  2  1  0  0  0  0
 10  9  3  0  0  0  0
 13 15  1  0  0  0  0
 14 18  1  0  0  0  0
 14 16  2  0  0  0  0
 14 15  1  0  0  0  0
 17 14  2  0  0  0  0
 18 19  1  0  0  0  0
M  RAD  2   3   2   4   2
M  END
