Coordinates from ORCA-job Ph-N2-OOCH-B3LYPG-aug-cc-pVDZ-scan-d09-49-n400
 OpenBabel10311713223D

 19 18  0  0  0  0  0  0  0  0999 V2000
   -0.6990    0.0969   -0.7803 C   0  0  0  0  0  0  0  0  0  0  0  0
    0.4838    0.7950   -1.0171 C   0  0  0  0  0  0  0  0  0  0  0  0
    1.3756    0.8832    0.0550 C   0  0  0  0  0  0  0  0  0  0  0  0
    1.1906    0.3364    1.3220 C   0  0  0  0  0  0  0  0  0  0  0  0
   -0.0114   -0.3439    1.5190 C   0  0  0  0  0  0  0  0  0  0  0  0
   -0.9431   -0.4650    0.4803 C   0  0  0  0  0  0  0  0  0  0  0  0
   -1.4275   -0.0090   -1.5829 H   0  0  0  0  0  0  0  0  0  0  0  0
    0.7086    1.2401   -1.9839 H   0  0  0  0  0  0  0  0  0  0  0  0
    2.5973    1.6609   -0.2049 N   0  0  0  0  0  0  0  0  0  0  0  0
    3.3624    2.4021   -0.5135 N   0  0  0  0  0  0  0  0  0  0  0  0
   -1.8714   -1.0103    0.6509 H   0  0  0  0  0  0  0  0  0  0  0  0
   -0.2105   -0.7943    2.4903 H   0  0  0  0  0  0  0  0  0  0  0  0
    1.9762    0.4411    2.0750 H   0  0  0  0  0  0  0  0  0  0  0  0
    4.7655    0.1270    1.5344 S   0  0  0  0  0  0  0  0  0  0  0  0
    3.9027    0.9231    2.4868 O   0  0  0  0  0  0  0  0  0  0  0  0
    5.7266   -0.8079    2.1681 O   0  0  0  0  0  0  0  0  0  0  0  0
    3.9691   -0.4004    0.3648 O   0  0  0  0  0  0  0  0  0  0  0  0
    5.7047    1.3077    0.7401 O   0  0  0  0  0  0  0  0  0  0  0  0
    6.3615    1.6089    1.3872 H   0  0  0  0  0  0  0  0  0  0  0  0
  1  6  1  0  0  0  0
  2  1  2  0  0  0  0
  2  3  1  0  0  0  0
  3  4  2  0  0  0  0
  4  5  1  0  0  0  0
  4 13  1  0  0  0  0
  5 12  1  0  0  0  0
  6 11  1  0  0  0  0
  6  5  2  0  0  0  0
  7  1  1  0  0  0  0
  8  2  1  0  0  0  0
  9  3  1  0  0  0  0
 10  9  1  0  0  0  0
 14 16  2  0  0  0  0
 14 15  1  0  0  0  0
 17 14  2  0  0  0  0
 18 19  1  0  0  0  0
 18 14  1  0  0  0  0
M  RAD  3   9   2  10   3  15   2
M  END
