Coordinates from ORCA-job Ph-N2-OOCH-B3LYPG-aug-cc-pVDZ-scan-d09-49-n400
 OpenBabel10311713223D

 19 17  0  0  0  0  0  0  0  0999 V2000
   -1.0443    0.3375   -0.4190 C   0  0  0  0  0  0  0  0  0  0  0  0
    0.2277    0.7054   -0.9319 C   0  0  0  0  0  0  0  0  0  0  0  0
    1.1423    0.3712    0.0292 C   0  0  0  0  0  0  0  0  0  0  0  0
    1.1391   -0.1527    1.1758 C   0  0  0  0  0  0  0  0  0  0  0  0
   -0.1171   -0.5241    1.7029 C   0  0  0  0  0  0  0  0  0  0  0  0
   -1.2052   -0.2538    0.8489 C   0  0  0  0  0  0  0  0  0  0  0  0
   -1.9203    0.5260   -1.0423 H   0  0  0  0  0  0  0  0  0  0  0  0
    0.3871    1.1630   -1.9035 H   0  0  0  0  0  0  0  0  0  0  0  0
    3.5797    2.2644   -2.8611 N   0  0  0  0  0  0  0  0  0  0  0  0
    4.4306    2.7683   -3.3521 N   0  0  0  0  0  0  0  0  0  0  0  0
   -2.2119   -0.5138    1.1806 H   0  0  0  0  0  0  0  0  0  0  0  0
   -0.2564   -0.9844    2.6804 H   0  0  0  0  0  0  0  0  0  0  0  0
    2.9099   -0.3873    1.9800 H   0  0  0  0  0  0  0  0  0  0  0  0
    5.0076    0.1169    1.7183 S   0  0  0  0  0  0  0  0  0  0  0  0
    3.7503   -0.5825    2.4777 O   0  0  0  0  0  0  0  0  0  0  0  0
    6.2112   -0.4594    2.3310 O   0  0  0  0  0  0  0  0  0  0  0  0
    4.7668    0.1593    0.2710 O   0  0  0  0  0  0  0  0  0  0  0  0
    4.8756    1.6897    2.2137 O   0  0  0  0  0  0  0  0  0  0  0  0
    5.2889    1.7477    3.0918 H   0  0  0  0  0  0  0  0  0  0  0  0
  1  6  1  0  0  0  0
  2  1  2  0  0  0  0
  2  3  1  0  0  0  0
  3  4  2  0  0  0  0
  4  5  1  0  0  0  0
  5 12  1  0  0  0  0
  6 11  1  0  0  0  0
  6  5  2  0  0  0  0
  7  1  1  0  0  0  0
  8  2  1  0  0  0  0
 10  9  3  0  0  0  0
 13 15  1  0  0  0  0
 14 18  1  0  0  0  0
 14 16  2  0  0  0  0
 14 15  1  0  0  0  0
 17 14  2  0  0  0  0
 18 19  1  0  0  0  0
M  RAD  2   3   2   4   2
M  END
