Coordinates from ORCA-job Ph-N2-OOCH-B3LYPG-aug-cc-pVDZ-scan-d09-49-n400
 OpenBabel10311713223D

 19 17  0  0  0  0  0  0  0  0999 V2000
   -0.6773    0.4593   -0.3920 C   0  0  0  0  0  0  0  0  0  0  0  0
    0.6998    0.7103   -0.6288 C   0  0  0  0  0  0  0  0  0  0  0  0
    1.3652    0.2080    0.4518 C   0  0  0  0  0  0  0  0  0  0  0  0
    1.1153   -0.3935    1.5372 C   0  0  0  0  0  0  0  0  0  0  0  0
   -0.2577   -0.6435    1.7760 C   0  0  0  0  0  0  0  0  0  0  0  0
   -1.1341   -0.1940    0.7697 C   0  0  0  0  0  0  0  0  0  0  0  0
   -1.3939    0.7911   -1.1454 H   0  0  0  0  0  0  0  0  0  0  0  0
    1.0895    1.2099   -1.5106 H   0  0  0  0  0  0  0  0  0  0  0  0
    3.2850    2.2627   -3.2003 N   0  0  0  0  0  0  0  0  0  0  0  0
    4.3313    2.4949   -3.4652 N   0  0  0  0  0  0  0  0  0  0  0  0
   -2.2063   -0.3579    0.8896 H   0  0  0  0  0  0  0  0  0  0  0  0
   -0.6284   -1.1506    2.6667 H   0  0  0  0  0  0  0  0  0  0  0  0
    2.9051   -0.6800    2.2082 H   0  0  0  0  0  0  0  0  0  0  0  0
    4.7235    0.2714    1.5277 S   0  0  0  0  0  0  0  0  0  0  0  0
    3.8761   -0.7578    2.4463 O   0  0  0  0  0  0  0  0  0  0  0  0
    6.1289   -0.1337    1.6361 O   0  0  0  0  0  0  0  0  0  0  0  0
    4.0415    0.4787    0.2373 O   0  0  0  0  0  0  0  0  0  0  0  0
    4.5280    1.7022    2.3285 O   0  0  0  0  0  0  0  0  0  0  0  0
    5.1700    1.7140    3.0587 H   0  0  0  0  0  0  0  0  0  0  0  0
  1  6  1  0  0  0  0
  2  1  2  0  0  0  0
  2  3  1  0  0  0  0
  3  4  2  0  0  0  0
  4  5  1  0  0  0  0
  5 12  1  0  0  0  0
  6 11  1  0  0  0  0
  6  5  2  0  0  0  0
  7  1  1  0  0  0  0
  8  2  1  0  0  0  0
 10  9  3  0  0  0  0
 13 15  1  0  0  0  0
 14 16  2  0  0  0  0
 14 18  1  0  0  0  0
 14 15  1  0  0  0  0
 17 14  2  0  0  0  0
 18 19  1  0  0  0  0
M  RAD  2   3   2   4   2
M  END
