Coordinates from ORCA-job Ph-N2-OOCH-B3LYPG-aug-cc-pVDZ-scan-d09-49-n400
 OpenBabel10311713223D

 19 17  0  0  0  0  0  0  0  0999 V2000
   -0.7531    0.4560   -0.3917 C   0  0  0  0  0  0  0  0  0  0  0  0
    0.6099    0.7424   -0.6661 C   0  0  0  0  0  0  0  0  0  0  0  0
    1.3202    0.2504    0.3913 C   0  0  0  0  0  0  0  0  0  0  0  0
    1.1108   -0.3629    1.4772 C   0  0  0  0  0  0  0  0  0  0  0  0
   -0.2464   -0.6492    1.7571 C   0  0  0  0  0  0  0  0  0  0  0  0
   -1.1608   -0.2153    0.7779 C   0  0  0  0  0  0  0  0  0  0  0  0
   -1.4993    0.7746   -1.1218 H   0  0  0  0  0  0  0  0  0  0  0  0
    0.9640    1.2571   -1.5536 H   0  0  0  0  0  0  0  0  0  0  0  0
    3.3829    2.1750   -2.9181 N   0  0  0  0  0  0  0  0  0  0  0  0
    4.4684    2.3014   -3.0743 N   0  0  0  0  0  0  0  0  0  0  0  0
   -2.2249   -0.4061    0.9267 H   0  0  0  0  0  0  0  0  0  0  0  0
   -0.5789   -1.1699    2.6549 H   0  0  0  0  0  0  0  0  0  0  0  0
    2.9252   -0.6325    2.1330 H   0  0  0  0  0  0  0  0  0  0  0  0
    4.7551    0.3012    1.4565 S   0  0  0  0  0  0  0  0  0  0  0  0
    3.8918   -0.7138    2.3789 O   0  0  0  0  0  0  0  0  0  0  0  0
    6.1563   -0.1124    1.5877 O   0  0  0  0  0  0  0  0  0  0  0  0
    4.0877    0.4969    0.1581 O   0  0  0  0  0  0  0  0  0  0  0  0
    4.5589    1.7413    2.2410 O   0  0  0  0  0  0  0  0  0  0  0  0
    5.1941    1.7573    2.9770 H   0  0  0  0  0  0  0  0  0  0  0  0
  1  6  1  0  0  0  0
  2  1  2  0  0  0  0
  2  3  1  0  0  0  0
  3  4  2  0  0  0  0
  4  5  1  0  0  0  0
  5 12  1  0  0  0  0
  6 11  1  0  0  0  0
  6  5  2  0  0  0  0
  7  1  1  0  0  0  0
  8  2  1  0  0  0  0
 10  9  3  0  0  0  0
 13 15  1  0  0  0  0
 14 16  2  0  0  0  0
 14 18  1  0  0  0  0
 14 15  1  0  0  0  0
 17 14  2  0  0  0  0
 18 19  1  0  0  0  0
M  RAD  2   3   2   4   2
M  END
