Coordinates from ORCA-job Ph-N2-OOCH-B3LYPG-aug-cc-pVDZ-scan-d09-49-n400
 OpenBabel10311713223D

 19 17  0  0  0  0  0  0  0  0999 V2000
   -0.7328    0.4574   -0.3923 C   0  0  0  0  0  0  0  0  0  0  0  0
    0.6345    0.7324   -0.6570 C   0  0  0  0  0  0  0  0  0  0  0  0
    1.3321    0.2376    0.4071 C   0  0  0  0  0  0  0  0  0  0  0  0
    1.1117   -0.3720    1.4933 C   0  0  0  0  0  0  0  0  0  0  0  0
   -0.2503   -0.6466    1.7625 C   0  0  0  0  0  0  0  0  0  0  0  0
   -1.1543   -0.2080    0.7758 C   0  0  0  0  0  0  0  0  0  0  0  0
   -1.4709    0.7804   -1.1287 H   0  0  0  0  0  0  0  0  0  0  0  0
    0.9998    1.2432   -1.5423 H   0  0  0  0  0  0  0  0  0  0  0  0
    3.3523    2.1966   -2.9868 N   0  0  0  0  0  0  0  0  0  0  0  0
    4.4319    2.3474   -3.1611 N   0  0  0  0  0  0  0  0  0  0  0  0
   -2.2208   -0.3905    0.9171 H   0  0  0  0  0  0  0  0  0  0  0  0
   -0.5937   -1.1628    2.6589 H   0  0  0  0  0  0  0  0  0  0  0  0
    2.9229   -0.6465    2.1505 H   0  0  0  0  0  0  0  0  0  0  0  0
    4.7486    0.2939    1.4719 S   0  0  0  0  0  0  0  0  0  0  0  0
    3.8909   -0.7268    2.3927 O   0  0  0  0  0  0  0  0  0  0  0  0
    6.1517   -0.1139    1.6000 O   0  0  0  0  0  0  0  0  0  0  0  0
    4.0796    0.4901    0.1742 O   0  0  0  0  0  0  0  0  0  0  0  0
    4.5470    1.7315    2.2594 O   0  0  0  0  0  0  0  0  0  0  0  0
    5.1815    1.7479    2.9962 H   0  0  0  0  0  0  0  0  0  0  0  0
  1  6  1  0  0  0  0
  2  1  2  0  0  0  0
  2  3  1  0  0  0  0
  3  4  2  0  0  0  0
  4  5  1  0  0  0  0
  5 12  1  0  0  0  0
  6 11  1  0  0  0  0
  6  5  2  0  0  0  0
  7  1  1  0  0  0  0
  8  2  1  0  0  0  0
 10  9  3  0  0  0  0
 13 15  1  0  0  0  0
 14 16  2  0  0  0  0
 14 18  1  0  0  0  0
 14 15  1  0  0  0  0
 17 14  2  0  0  0  0
 18 19  1  0  0  0  0
M  RAD  2   3   2   4   2
M  END
