Coordinates from ORCA-job Ph-N2-OOCH-B3LYPG-aug-cc-pVDZ-scan-d09-49-n400
 OpenBabel10311713223D

 19 17  0  0  0  0  0  0  0  0999 V2000
   -0.7365    0.4574   -0.3921 C   0  0  0  0  0  0  0  0  0  0  0  0
    0.6302    0.7346   -0.6583 C   0  0  0  0  0  0  0  0  0  0  0  0
    1.3298    0.2400    0.4045 C   0  0  0  0  0  0  0  0  0  0  0  0
    1.1115   -0.3707    1.4905 C   0  0  0  0  0  0  0  0  0  0  0  0
   -0.2497   -0.6475    1.7613 C   0  0  0  0  0  0  0  0  0  0  0  0
   -1.1555   -0.2095    0.7760 C   0  0  0  0  0  0  0  0  0  0  0  0
   -1.4759    0.7800   -1.1272 H   0  0  0  0  0  0  0  0  0  0  0  0
    0.9936    1.2468   -1.5436 H   0  0  0  0  0  0  0  0  0  0  0  0
    3.3573    2.1959   -2.9737 N   0  0  0  0  0  0  0  0  0  0  0  0
    4.4386    2.3337   -3.1481 N   0  0  0  0  0  0  0  0  0  0  0  0
   -2.2216   -0.3936    0.9185 H   0  0  0  0  0  0  0  0  0  0  0  0
   -0.5912   -1.1649    2.6577 H   0  0  0  0  0  0  0  0  0  0  0  0
    2.9237   -0.6443    2.1471 H   0  0  0  0  0  0  0  0  0  0  0  0
    4.7499    0.2958    1.4692 S   0  0  0  0  0  0  0  0  0  0  0  0
    3.8915   -0.7246    2.3898 O   0  0  0  0  0  0  0  0  0  0  0  0
    6.1527   -0.1128    1.5977 O   0  0  0  0  0  0  0  0  0  0  0  0
    4.0812    0.4924    0.1714 O   0  0  0  0  0  0  0  0  0  0  0  0
    4.5489    1.7334    2.2569 O   0  0  0  0  0  0  0  0  0  0  0  0
    5.1833    1.7493    2.9937 H   0  0  0  0  0  0  0  0  0  0  0  0
  1  6  1  0  0  0  0
  2  1  2  0  0  0  0
  2  3  1  0  0  0  0
  3  4  2  0  0  0  0
  4  5  1  0  0  0  0
  5 12  1  0  0  0  0
  6 11  1  0  0  0  0
  6  5  2  0  0  0  0
  7  1  1  0  0  0  0
  8  2  1  0  0  0  0
 10  9  3  0  0  0  0
 13 15  1  0  0  0  0
 14 16  2  0  0  0  0
 14 18  1  0  0  0  0
 14 15  1  0  0  0  0
 17 14  2  0  0  0  0
 18 19  1  0  0  0  0
M  RAD  2   3   2   4   2
M  END
