Coordinates from ORCA-job Ph-N2-OOCH-B3LYPG-aug-cc-pVDZ-scan-d09-49-n400
 OpenBabel10311713223D

 19 18  0  0  0  0  0  0  0  0999 V2000
   -0.7070    0.0938   -0.7777 C   0  0  0  0  0  0  0  0  0  0  0  0
    0.4884    0.7710   -1.0219 C   0  0  0  0  0  0  0  0  0  0  0  0
    1.3763    0.8522    0.0508 C   0  0  0  0  0  0  0  0  0  0  0  0
    1.1890    0.3202    1.3208 C   0  0  0  0  0  0  0  0  0  0  0  0
   -0.0258   -0.3370    1.5245 C   0  0  0  0  0  0  0  0  0  0  0  0
   -0.9600   -0.4521    0.4873 C   0  0  0  0  0  0  0  0  0  0  0  0
   -1.4370   -0.0072   -1.5797 H   0  0  0  0  0  0  0  0  0  0  0  0
    0.7195    1.2033   -1.9928 H   0  0  0  0  0  0  0  0  0  0  0  0
    2.6327    1.6283   -0.2208 N   0  0  0  0  0  0  0  0  0  0  0  0
    3.3384    2.4170   -0.5550 N   0  0  0  0  0  0  0  0  0  0  0  0
   -1.8970   -0.9806    0.6635 H   0  0  0  0  0  0  0  0  0  0  0  0
   -0.2326   -0.7742    2.5003 H   0  0  0  0  0  0  0  0  0  0  0  0
    1.9737    0.4186    2.0755 H   0  0  0  0  0  0  0  0  0  0  0  0
    4.7777    0.1432    1.5293 S   0  0  0  0  0  0  0  0  0  0  0  0
    3.9162    0.8889    2.5185 O   0  0  0  0  0  0  0  0  0  0  0  0
    5.7336   -0.8320    2.1069 O   0  0  0  0  0  0  0  0  0  0  0  0
    3.9755   -0.3288    0.3342 O   0  0  0  0  0  0  0  0  0  0  0  0
    5.7169    1.3516    0.7870 O   0  0  0  0  0  0  0  0  0  0  0  0
    6.3833    1.6152    1.4407 H   0  0  0  0  0  0  0  0  0  0  0  0
  1  6  1  0  0  0  0
  2  1  2  0  0  0  0
  2  3  1  0  0  0  0
  3  4  2  0  0  0  0
  4  5  1  0  0  0  0
  4 13  1  0  0  0  0
  5 12  1  0  0  0  0
  6 11  1  0  0  0  0
  6  5  2  0  0  0  0
  7  1  1  0  0  0  0
  8  2  1  0  0  0  0
  9  3  1  0  0  0  0
 10  9  1  0  0  0  0
 14 16  2  0  0  0  0
 14 15  1  0  0  0  0
 17 14  2  0  0  0  0
 18 19  1  0  0  0  0
 18 14  1  0  0  0  0
M  RAD  3   9   2  10   3  15   2
M  END
