Coordinates from ORCA-job Ph-N2-OOCH-B3LYPG-aug-cc-pVDZ-scan-d09-49-n400
 OpenBabel10311713223D

 19 17  0  0  0  0  0  0  0  0999 V2000
   -1.1242    0.3104   -0.5229 C   0  0  0  0  0  0  0  0  0  0  0  0
    0.0119    0.8506   -1.1773 C   0  0  0  0  0  0  0  0  0  0  0  0
    1.0723    0.6700   -0.3368 C   0  0  0  0  0  0  0  0  0  0  0  0
    1.3131    0.1749    0.8038 C   0  0  0  0  0  0  0  0  0  0  0  0
    0.1749   -0.3636    1.4590 C   0  0  0  0  0  0  0  0  0  0  0  0
   -1.0392   -0.2761    0.7535 C   0  0  0  0  0  0  0  0  0  0  0  0
   -2.0848    0.3589   -1.0386 H   0  0  0  0  0  0  0  0  0  0  0  0
   -0.0094    1.3102   -2.1606 H   0  0  0  0  0  0  0  0  0  0  0  0
    2.9651    1.7651   -1.7694 N   0  0  0  0  0  0  0  0  0  0  0  0
    3.9711    2.1810   -1.9522 N   0  0  0  0  0  0  0  0  0  0  0  0
   -1.9457   -0.6778    1.2090 H   0  0  0  0  0  0  0  0  0  0  0  0
    0.2246   -0.8242    2.4457 H   0  0  0  0  0  0  0  0  0  0  0  0
    2.9017   -0.0491    1.7528 H   0  0  0  0  0  0  0  0  0  0  0  0
    5.0804    0.0491    1.7190 S   0  0  0  0  0  0  0  0  0  0  0  0
    3.6421   -0.2828    2.3908 O   0  0  0  0  0  0  0  0  0  0  0  0
    6.0846   -0.5951    2.5761 O   0  0  0  0  0  0  0  0  0  0  0  0
    5.0146   -0.1297    0.2634 O   0  0  0  0  0  0  0  0  0  0  0  0
    5.1925    1.6871    1.9356 O   0  0  0  0  0  0  0  0  0  0  0  0
    5.5159    1.8326    2.8406 H   0  0  0  0  0  0  0  0  0  0  0  0
  1  6  1  0  0  0  0
  2  1  2  0  0  0  0
  2  3  1  0  0  0  0
  3  4  2  0  0  0  0
  4  5  1  0  0  0  0
  5 12  1  0  0  0  0
  6 11  1  0  0  0  0
  6  5  2  0  0  0  0
  7  1  1  0  0  0  0
  8  2  1  0  0  0  0
 10  9  3  0  0  0  0
 13 15  1  0  0  0  0
 14 18  1  0  0  0  0
 14 15  1  0  0  0  0
 14 16  2  0  0  0  0
 17 14  2  0  0  0  0
 18 19  1  0  0  0  0
M  RAD  2   3   2   4   2
M  END
