Coordinates from ORCA-job Ph-N2-OOCH-B3LYPG-aug-cc-pVDZ-scan-d09-49-n400
 OpenBabel10311713223D

 19 17  0  0  0  0  0  0  0  0999 V2000
   -0.6395    0.4624   -0.3951 C   0  0  0  0  0  0  0  0  0  0  0  0
    0.7430    0.7002   -0.6130 C   0  0  0  0  0  0  0  0  0  0  0  0
    1.3882    0.1939    0.4778 C   0  0  0  0  0  0  0  0  0  0  0  0
    1.1192   -0.4028    1.5618 C   0  0  0  0  0  0  0  0  0  0  0  0
   -0.2598   -0.6392    1.7804 C   0  0  0  0  0  0  0  0  0  0  0  0
   -1.1183   -0.1843    0.7614 C   0  0  0  0  0  0  0  0  0  0  0  0
   -1.3422    0.7991   -1.1593 H   0  0  0  0  0  0  0  0  0  0  0  0
    1.1484    1.1944   -1.4908 H   0  0  0  0  0  0  0  0  0  0  0  0
    3.2136    2.3310   -3.3758 N   0  0  0  0  0  0  0  0  0  0  0  0
    4.2222    2.6040   -3.7322 N   0  0  0  0  0  0  0  0  0  0  0  0
   -2.1935   -0.3381    0.8669 H   0  0  0  0  0  0  0  0  0  0  0  0
   -0.6476   -1.1408    2.6671 H   0  0  0  0  0  0  0  0  0  0  0  0
    2.8934   -0.7007    2.2551 H   0  0  0  0  0  0  0  0  0  0  0  0
    4.7201    0.2436    1.5871 S   0  0  0  0  0  0  0  0  0  0  0  0
    3.8632   -0.7819    2.5000 O   0  0  0  0  0  0  0  0  0  0  0  0
    6.1238   -0.1641    1.7070 O   0  0  0  0  0  0  0  0  0  0  0  0
    4.0493    0.4502    0.2905 O   0  0  0  0  0  0  0  0  0  0  0  0
    4.5213    1.6765    2.3833 O   0  0  0  0  0  0  0  0  0  0  0  0
    5.1569    1.6881    3.1192 H   0  0  0  0  0  0  0  0  0  0  0  0
  1  6  1  0  0  0  0
  2  1  2  0  0  0  0
  2  3  1  0  0  0  0
  3  4  2  0  0  0  0
  4  5  1  0  0  0  0
  5 12  1  0  0  0  0
  6 11  1  0  0  0  0
  6  5  2  0  0  0  0
  7  1  1  0  0  0  0
  8  2  1  0  0  0  0
 10  9  3  0  0  0  0
 13 15  1  0  0  0  0
 14 16  2  0  0  0  0
 14 18  1  0  0  0  0
 14 15  1  0  0  0  0
 17 14  2  0  0  0  0
 18 19  1  0  0  0  0
M  RAD  2   3   2   4   2
M  END
