Coordinates from ORCA-job Ph-N2-OOCH-B3LYPG-aug-cc-pVDZ-scan-d09-49-n400
 OpenBabel10311713223D

 19 17  0  0  0  0  0  0  0  0999 V2000
   -1.0579    0.3361   -0.4217 C   0  0  0  0  0  0  0  0  0  0  0  0
    0.2061    0.7195   -0.9425 C   0  0  0  0  0  0  0  0  0  0  0  0
    1.1332    0.3938    0.0093 C   0  0  0  0  0  0  0  0  0  0  0  0
    1.1437   -0.1341    1.1547 C   0  0  0  0  0  0  0  0  0  0  0  0
   -0.1047   -0.5208    1.6898 C   0  0  0  0  0  0  0  0  0  0  0  0
   -1.2024   -0.2605    0.8453 C   0  0  0  0  0  0  0  0  0  0  0  0
   -1.9405    0.5166   -1.0380 H   0  0  0  0  0  0  0  0  0  0  0  0
    0.3526    1.1814   -1.9141 H   0  0  0  0  0  0  0  0  0  0  0  0
    3.5733    2.2266   -2.7855 N   0  0  0  0  0  0  0  0  0  0  0  0
    4.4385    2.7230   -3.2589 N   0  0  0  0  0  0  0  0  0  0  0  0
   -2.2034   -0.5329    1.1840 H   0  0  0  0  0  0  0  0  0  0  0  0
   -0.2313   -0.9856    2.6669 H   0  0  0  0  0  0  0  0  0  0  0  0
    2.9110   -0.3662    1.9627 H   0  0  0  0  0  0  0  0  0  0  0  0
    5.0144    0.1174    1.7113 S   0  0  0  0  0  0  0  0  0  0  0  0
    3.7461   -0.5639    2.4683 O   0  0  0  0  0  0  0  0  0  0  0  0
    6.2089   -0.4617    2.3390 O   0  0  0  0  0  0  0  0  0  0  0  0
    4.7840    0.1461    0.2622 O   0  0  0  0  0  0  0  0  0  0  0  0
    4.8912    1.6963    2.1893 O   0  0  0  0  0  0  0  0  0  0  0  0
    5.2987    1.7604    3.0696 H   0  0  0  0  0  0  0  0  0  0  0  0
  1  6  1  0  0  0  0
  2  1  2  0  0  0  0
  2  3  1  0  0  0  0
  3  4  2  0  0  0  0
  4  5  1  0  0  0  0
  5 12  1  0  0  0  0
  6 11  1  0  0  0  0
  6  5  2  0  0  0  0
  7  1  1  0  0  0  0
  8  2  1  0  0  0  0
 10  9  3  0  0  0  0
 13 15  1  0  0  0  0
 14 18  1  0  0  0  0
 14 16  2  0  0  0  0
 14 15  1  0  0  0  0
 17 14  2  0  0  0  0
 18 19  1  0  0  0  0
M  RAD  2   3   2   4   2
M  END
