Coordinates from ORCA-job Ph-N2-OOCH-B3LYPG-aug-cc-pVDZ-scan-d09-49-n400
 OpenBabel10311713223D

 19 17  0  0  0  0  0  0  0  0999 V2000
   -1.0946    0.3306   -0.4330 C   0  0  0  0  0  0  0  0  0  0  0  0
    0.1442    0.7604   -0.9780 C   0  0  0  0  0  0  0  0  0  0  0  0
    1.1009    0.4586   -0.0481 C   0  0  0  0  0  0  0  0  0  0  0  0
    1.1559   -0.0765    1.0922 C   0  0  0  0  0  0  0  0  0  0  0  0
   -0.0672   -0.5086    1.6509 C   0  0  0  0  0  0  0  0  0  0  0  0
   -1.1912   -0.2796    0.8323 C   0  0  0  0  0  0  0  0  0  0  0  0
   -1.9961    0.4859   -1.0286 H   0  0  0  0  0  0  0  0  0  0  0  0
    0.2544    1.2336   -1.9490 H   0  0  0  0  0  0  0  0  0  0  0  0
    3.5407    2.1176   -2.5485 N   0  0  0  0  0  0  0  0  0  0  0  0
    4.4479    2.5900   -2.9641 N   0  0  0  0  0  0  0  0  0  0  0  0
   -2.1748   -0.5882    1.1905 H   0  0  0  0  0  0  0  0  0  0  0  0
   -0.1565   -0.9846    2.6268 H   0  0  0  0  0  0  0  0  0  0  0  0
    2.9116   -0.2989    1.9107 H   0  0  0  0  0  0  0  0  0  0  0  0
    5.0359    0.1153    1.6907 S   0  0  0  0  0  0  0  0  0  0  0  0
    3.7309   -0.5023    2.4402 O   0  0  0  0  0  0  0  0  0  0  0  0
    6.1975   -0.4722    2.3703 O   0  0  0  0  0  0  0  0  0  0  0  0
    4.8431    0.0958    0.2359 O   0  0  0  0  0  0  0  0  0  0  0  0
    4.9455    1.7141    2.1066 O   0  0  0  0  0  0  0  0  0  0  0  0
    5.3336    1.8002    2.9938 H   0  0  0  0  0  0  0  0  0  0  0  0
  1  6  1  0  0  0  0
  2  1  2  0  0  0  0
  2  3  1  0  0  0  0
  3  4  2  0  0  0  0
  4  5  1  0  0  0  0
  5 12  1  0  0  0  0
  6 11  1  0  0  0  0
  6  5  2  0  0  0  0
  7  1  1  0  0  0  0
  8  2  1  0  0  0  0
 10  9  3  0  0  0  0
 13 15  1  0  0  0  0
 14 18  1  0  0  0  0
 14 16  2  0  0  0  0
 14 15  1  0  0  0  0
 17 14  2  0  0  0  0
 18 19  1  0  0  0  0
M  RAD  2   3   2   4   2
M  END
