Coordinates from ORCA-job Ph-N2-OOCH-B3LYPG-aug-cc-pVDZ-scan-d09-49-n400
 OpenBabel10311713223D

 19 17  0  0  0  0  0  0  0  0999 V2000
   -1.1328    0.3217   -0.4711 C   0  0  0  0  0  0  0  0  0  0  0  0
    0.0522    0.8161   -1.0773 C   0  0  0  0  0  0  0  0  0  0  0  0
    1.0689    0.5704   -0.1974 C   0  0  0  0  0  0  0  0  0  0  0  0
    1.2191    0.0455    0.9410 C   0  0  0  0  0  0  0  0  0  0  0  0
    0.0455   -0.4490    1.5569 C   0  0  0  0  0  0  0  0  0  0  0  0
   -1.1303   -0.2869    0.7983 C   0  0  0  0  0  0  0  0  0  0  0  0
   -2.0699    0.4248   -1.0211 H   0  0  0  0  0  0  0  0  0  0  0  0
    0.0881    1.2897   -2.0535 H   0  0  0  0  0  0  0  0  0  0  0  0
    3.3196    1.9365   -2.1298 N   0  0  0  0  0  0  0  0  0  0  0  0
    4.2839    2.3820   -2.4298 N   0  0  0  0  0  0  0  0  0  0  0  0
   -2.0753   -0.6478    1.2079 H   0  0  0  0  0  0  0  0  0  0  0  0
    0.0320   -0.9249    2.5369 H   0  0  0  0  0  0  0  0  0  0  0  0
    2.9129   -0.1752    1.8206 H   0  0  0  0  0  0  0  0  0  0  0  0
    5.0717    0.0829    1.6977 S   0  0  0  0  0  0  0  0  0  0  0  0
    3.6895   -0.3926    2.4094 O   0  0  0  0  0  0  0  0  0  0  0  0
    6.1528   -0.5195    2.4883 O   0  0  0  0  0  0  0  0  0  0  0  0
    4.9599   -0.0376    0.2395 O   0  0  0  0  0  0  0  0  0  0  0  0
    5.0640    1.7122    1.9879 O   0  0  0  0  0  0  0  0  0  0  0  0
    5.4101    1.8430    2.8868 H   0  0  0  0  0  0  0  0  0  0  0  0
  1  6  1  0  0  0  0
  2  1  2  0  0  0  0
  2  3  1  0  0  0  0
  3  4  2  0  0  0  0
  4  5  1  0  0  0  0
  5 12  1  0  0  0  0
  6 11  1  0  0  0  0
  6  5  2  0  0  0  0
  7  1  1  0  0  0  0
  8  2  1  0  0  0  0
 10  9  3  0  0  0  0
 13 15  1  0  0  0  0
 14 18  1  0  0  0  0
 14 15  1  0  0  0  0
 14 16  2  0  0  0  0
 17 14  2  0  0  0  0
 18 19  1  0  0  0  0
M  RAD  2   3   2   4   2
M  END
