Coordinates from ORCA-job Ph-N2-OOCH-B3LYPG-aug-cc-pVDZ-scan-d09-49-n400
 OpenBabel10311713223D

 19 19  0  0  1  0  0  0  0  0999 V2000
   -0.3687   -0.1044   -0.7340 C   0  0  0  0  0  0  0  0  0  0  0  0
    0.4886    0.8467   -1.1869 C   0  0  0  0  0  0  0  0  0  0  0  0
    1.5257    1.3389   -0.3089 C   0  0  0  0  0  0  0  0  0  0  0  0
    1.8443    0.6793    0.9956 C   0  0  1  0  0  0  0  0  0  0  0  0
    0.7376   -0.2024    1.4574 C   0  0  0  0  0  0  0  0  0  0  0  0
   -0.2593   -0.5893    0.6276 C   0  0  0  0  0  0  0  0  0  0  0  0
   -1.1583   -0.4833   -1.3806 H   0  0  0  0  0  0  0  0  0  0  0  0
    0.4132    1.2642   -2.1903 H   0  0  0  0  0  0  0  0  0  0  0  0
    2.2574    2.3411   -0.6649 N   0  0  0  0  0  0  0  0  0  0  0  0
    2.9141    3.2229   -0.9669 N   0  0  0  0  0  0  0  0  0  0  0  0
   -1.0230   -1.2751    0.9969 H   0  0  0  0  0  0  0  0  0  0  0  0
    0.7996   -0.5613    2.4831 H   0  0  0  0  0  0  0  0  0  0  0  0
    2.1665    1.3952    1.7576 H   0  0  0  0  0  0  0  0  0  0  0  0
    4.2020   -0.2994    1.9219 S   0  0  0  0  0  0  0  0  0  0  0  0
    3.5497   -0.2449    3.2375 O   0  0  0  0  0  0  0  0  0  0  0  0
    5.1446   -1.3533    1.5218 O   0  0  0  0  0  0  0  0  0  0  0  0
    3.0911   -0.2063    0.7341 O   0  0  0  0  0  0  0  0  0  0  0  0
    4.9721    1.1648    1.7822 O   0  0  0  0  0  0  0  0  0  0  0  0
    5.6645    1.0579    1.1082 H   0  0  0  0  0  0  0  0  0  0  0  0
  1  6  1  0  0  0  0
  2  1  1  0  0  0  0
  2  3  2  0  0  0  0
  3  4  1  0  0  0  0
  4  5  1  0  0  0  0
  4 13  1  1  0  0  0
  5 12  1  0  0  0  0
  6 11  1  0  0  0  0
  6  5  2  0  0  0  0
  7  1  1  0  0  0  0
  8  2  1  0  0  0  0
  9  3  1  0  0  0  0
 10  9  1  0  0  0  0
 14 15  2  0  0  0  0
 16 14  2  0  0  0  0
 17  4  1  0  0  0  0
 17 14  1  0  0  0  0
 18 14  1  0  0  0  0
 19 18  1  0  0  0  0
M  RAD  3   1   2   9   2  10   3
M  END
