Coordinates from ORCA-job Ph-N2-OOCH-B3LYPG-aug-cc-pVDZ-scan-d09-49-n400
 OpenBabel10311713223D

 19 19  0  0  1  0  0  0  0  0999 V2000
   -0.4228    0.1038   -0.7198 C   0  0  0  0  0  0  0  0  0  0  0  0
    0.5448    0.9292   -1.1537 C   0  0  0  0  0  0  0  0  0  0  0  0
    1.7552    1.2655   -0.3223 C   0  0  0  0  0  0  0  0  0  0  0  0
    1.8635    0.4770    1.0703 C   0  0  1  0  0  0  0  0  0  0  0  0
    0.6868   -0.3703    1.4141 C   0  0  0  0  0  0  0  0  0  0  0  0
   -0.3602   -0.5378    0.5880 C   0  0  0  0  0  0  0  0  0  0  0  0
   -1.2790   -0.0990   -1.3635 H   0  0  0  0  0  0  0  0  0  0  0  0
    0.5269    1.4065   -2.1338 H   0  0  0  0  0  0  0  0  0  0  0  0
    2.4196    1.8302   -0.5454 N   0  0  0  0  0  0  0  0  0  0  0  0
    3.3249    2.5579   -0.8028 N   0  0  0  0  0  0  0  0  0  0  0  0
   -1.1922   -1.1723    0.8940 H   0  0  0  0  0  0  0  0  0  0  0  0
    0.7309   -0.8571    2.3889 H   0  0  0  0  0  0  0  0  0  0  0  0
    2.0741    1.2289    1.8420 H   0  0  0  0  0  0  0  0  0  0  0  0
    4.3191   -0.1397    1.9596 S   0  0  0  0  0  0  0  0  0  0  0  0
    3.8217   -0.1024    3.3391 O   0  0  0  0  0  0  0  0  0  0  0  0
    5.3442   -1.0712    1.4845 O   0  0  0  0  0  0  0  0  0  0  0  0
    3.0493   -0.3656    0.9091 O   0  0  0  0  0  0  0  0  0  0  0  0
    4.7432    1.4133    1.6396 O   0  0  0  0  0  0  0  0  0  0  0  0
    5.0116    1.4945    0.7038 H   0  0  0  0  0  0  0  0  0  0  0  0
  1  6  2  0  0  0  0
  2  1  1  0  0  0  0
  2  3  2  0  0  0  0
  3  4  1  0  0  0  0
  4  5  1  0  0  0  0
  4 13  1  1  0  0  0
  5 12  1  0  0  0  0
  6 11  1  0  0  0  0
  6  5  1  0  0  0  0
  7  1  1  0  0  0  0
  8  2  1  0  0  0  0
  9  3  1  0  0  0  0
 10  9  1  0  0  0  0
 14 15  2  0  0  0  0
 16 14  2  0  0  0  0
 17  4  1  0  0  0  0
 17 14  1  0  0  0  0
 18 14  1  0  0  0  0
 19 18  1  0  0  0  0
M  RAD  3   5   2   9   2  10   3
M  END
