Coordinates from ORCA-job Ph-N2-OOCH-B3LYPG-aug-cc-pVDZ-scan-d09-49-n400
 OpenBabel10311713223D

 19 17  0  0  0  0  0  0  0  0999 V2000
   -1.1353    0.3160   -0.4946 C   0  0  0  0  0  0  0  0  0  0  0  0
    0.0284    0.8321   -1.1227 C   0  0  0  0  0  0  0  0  0  0  0  0
    1.0646    0.6143   -0.2591 C   0  0  0  0  0  0  0  0  0  0  0  0
    1.2516    0.1006    0.8802 C   0  0  0  0  0  0  0  0  0  0  0  0
    0.0956   -0.4150    1.5151 C   0  0  0  0  0  0  0  0  0  0  0  0
   -1.0971   -0.2845    0.7779 C   0  0  0  0  0  0  0  0  0  0  0  0
   -2.0834    0.3951   -1.0295 H   0  0  0  0  0  0  0  0  0  0  0  0
    0.0385    1.3004   -2.1019 H   0  0  0  0  0  0  0  0  0  0  0  0
    3.1726    1.8659   -1.9624 N   0  0  0  0  0  0  0  0  0  0  0  0
    4.1570    2.2991   -2.2107 N   0  0  0  0  0  0  0  0  0  0  0  0
   -2.0261   -0.6639    1.2066 H   0  0  0  0  0  0  0  0  0  0  0  0
    0.1095   -0.8853    2.4980 H   0  0  0  0  0  0  0  0  0  0  0  0
    2.9137   -0.1150    1.7888 H   0  0  0  0  0  0  0  0  0  0  0  0
    5.0839    0.0660    1.7077 S   0  0  0  0  0  0  0  0  0  0  0  0
    3.6717   -0.3398    2.4010 O   0  0  0  0  0  0  0  0  0  0  0  0
    6.1268   -0.5518    2.5371 O   0  0  0  0  0  0  0  0  0  0  0  0
    4.9986   -0.0905    0.2510 O   0  0  0  0  0  0  0  0  0  0  0  0
    5.1294    1.7022    1.9534 O   0  0  0  0  0  0  0  0  0  0  0  0
    5.4615    1.8456    2.8557 H   0  0  0  0  0  0  0  0  0  0  0  0
  1  6  1  0  0  0  0
  2  1  2  0  0  0  0
  2  3  1  0  0  0  0
  3  4  2  0  0  0  0
  4  5  1  0  0  0  0
  5 12  1  0  0  0  0
  6 11  1  0  0  0  0
  6  5  2  0  0  0  0
  7  1  1  0  0  0  0
  8  2  1  0  0  0  0
 10  9  3  0  0  0  0
 13 15  1  0  0  0  0
 14 18  1  0  0  0  0
 14 15  1  0  0  0  0
 14 16  2  0  0  0  0
 17 14  2  0  0  0  0
 18 19  1  0  0  0  0
M  RAD  2   3   2   4   2
M  END
