Coordinates from ORCA-job Ph-N2-OOCH-B3LYPG-aug-cc-pVDZ-scan-d09-49-n400
 OpenBabel10311713223D

 19 17  0  0  0  0  0  0  0  0999 V2000
   -0.8978    0.1755   -0.6759 C   0  0  0  0  0  0  0  0  0  0  0  0
    0.2991    0.7832   -1.1104 C   0  0  0  0  0  0  0  0  0  0  0  0
    1.2348    0.7241   -0.1227 C   0  0  0  0  0  0  0  0  0  0  0  0
    1.3302    0.2499    1.1268 C   0  0  0  0  0  0  0  0  0  0  0  0
    0.0918   -0.3391    1.4930 C   0  0  0  0  0  0  0  0  0  0  0  0
   -0.9913   -0.3736    0.6090 C   0  0  0  0  0  0  0  0  0  0  0  0
   -1.7405    0.1459   -1.3664 H   0  0  0  0  0  0  0  0  0  0  0  0
    0.4307    1.2225   -2.0939 H   0  0  0  0  0  0  0  0  0  0  0  0
    2.8948    1.6523   -0.7502 N   0  0  0  0  0  0  0  0  0  0  0  0
    3.6452    2.3183   -1.2080 N   0  0  0  0  0  0  0  0  0  0  0  0
   -1.9245   -0.8403    0.9227 H   0  0  0  0  0  0  0  0  0  0  0  0
    0.0208   -0.7757    2.4895 H   0  0  0  0  0  0  0  0  0  0  0  0
    2.2390    0.2718    1.7911 H   0  0  0  0  0  0  0  0  0  0  0  0
    4.8006    0.0877    1.6646 S   0  0  0  0  0  0  0  0  0  0  0  0
    3.6889    0.3386    2.6718 O   0  0  0  0  0  0  0  0  0  0  0  0
    5.9535   -0.6860    2.1913 O   0  0  0  0  0  0  0  0  0  0  0  0
    4.2438   -0.3104    0.3262 O   0  0  0  0  0  0  0  0  0  0  0  0
    5.4231    1.6374    1.3430 O   0  0  0  0  0  0  0  0  0  0  0  0
    6.2197    1.7095    1.8900 H   0  0  0  0  0  0  0  0  0  0  0  0
  1  6  1  0  0  0  0
  2  1  2  0  0  0  0
  2  3  1  0  0  0  0
  3  4  2  0  0  0  0
  4  5  1  0  0  0  0
  4 13  1  0  0  0  0
  5 12  1  0  0  0  0
  6 11  1  0  0  0  0
  6  5  2  0  0  0  0
  7  1  1  0  0  0  0
  8  2  1  0  0  0  0
 10  9  3  0  0  0  0
 14 16  2  0  0  0  0
 14 15  1  0  0  0  0
 17 14  2  0  0  0  0
 18 14  1  0  0  0  0
 18 19  1  0  0  0  0
M  RAD  2   3   2  15   2
M  END
