Coordinates from ORCA-job Ph-N2-OOCH-B3LYPG-aug-cc-pVDZ-scan-d09-49-n400
 OpenBabel10311713223D

 19 17  0  0  0  0  0  0  0  0999 V2000
   -1.1353    0.3165   -0.4928 C   0  0  0  0  0  0  0  0  0  0  0  0
    0.0299    0.8310   -1.1196 C   0  0  0  0  0  0  0  0  0  0  0  0
    1.0648    0.6111   -0.2550 C   0  0  0  0  0  0  0  0  0  0  0  0
    1.2493    0.0966    0.8842 C   0  0  0  0  0  0  0  0  0  0  0  0
    0.0922   -0.4175    1.5180 C   0  0  0  0  0  0  0  0  0  0  0  0
   -1.0995   -0.2846    0.7795 C   0  0  0  0  0  0  0  0  0  0  0  0
   -2.0828    0.3973   -1.0286 H   0  0  0  0  0  0  0  0  0  0  0  0
    0.0415    1.2997   -2.0986 H   0  0  0  0  0  0  0  0  0  0  0  0
    3.1836    1.8710   -1.9740 N   0  0  0  0  0  0  0  0  0  0  0  0
    4.1667    2.3052   -2.2259 N   0  0  0  0  0  0  0  0  0  0  0  0
   -2.0296   -0.6627    1.2070 H   0  0  0  0  0  0  0  0  0  0  0  0
    0.1043   -0.8882    2.5007 H   0  0  0  0  0  0  0  0  0  0  0  0
    2.9137   -0.1196    1.7910 H   0  0  0  0  0  0  0  0  0  0  0  0
    5.0831    0.0671    1.7070 S   0  0  0  0  0  0  0  0  0  0  0  0
    3.6729   -0.3438    2.4017 O   0  0  0  0  0  0  0  0  0  0  0  0
    6.1288   -0.5493    2.5340 O   0  0  0  0  0  0  0  0  0  0  0  0
    4.9962   -0.0873    0.2503 O   0  0  0  0  0  0  0  0  0  0  0  0
    5.1244    1.7030    1.9554 O   0  0  0  0  0  0  0  0  0  0  0  0
    5.4574    1.8458    2.8574 H   0  0  0  0  0  0  0  0  0  0  0  0
  1  6  1  0  0  0  0
  2  1  2  0  0  0  0
  2  3  1  0  0  0  0
  3  4  2  0  0  0  0
  4  5  1  0  0  0  0
  5 12  1  0  0  0  0
  6 11  1  0  0  0  0
  6  5  2  0  0  0  0
  7  1  1  0  0  0  0
  8  2  1  0  0  0  0
 10  9  3  0  0  0  0
 13 15  1  0  0  0  0
 14 18  1  0  0  0  0
 14 15  1  0  0  0  0
 14 16  2  0  0  0  0
 17 14  2  0  0  0  0
 18 19  1  0  0  0  0
M  RAD  2   3   2   4   2
M  END
