Coordinates from ORCA-job Ph-N2-OOCH-B3LYPG-aug-cc-pVDZ-scan-d09-49-n400
 OpenBabel10311713223D

 19 17  0  0  0  0  0  0  0  0999 V2000
   -0.6815    0.4591   -0.3923 C   0  0  0  0  0  0  0  0  0  0  0  0
    0.6948    0.7118   -0.6312 C   0  0  0  0  0  0  0  0  0  0  0  0
    1.3627    0.2101    0.4483 C   0  0  0  0  0  0  0  0  0  0  0  0
    1.1149   -0.3919    1.5338 C   0  0  0  0  0  0  0  0  0  0  0  0
   -0.2573   -0.6437    1.7749 C   0  0  0  0  0  0  0  0  0  0  0  0
   -1.1357   -0.1950    0.7700 C   0  0  0  0  0  0  0  0  0  0  0  0
   -1.3997    0.7902   -1.1444 H   0  0  0  0  0  0  0  0  0  0  0  0
    1.0828    1.2120   -1.5134 H   0  0  0  0  0  0  0  0  0  0  0  0
    3.2904    2.2548   -3.1799 N   0  0  0  0  0  0  0  0  0  0  0  0
    4.3404    2.4816   -3.4341 N   0  0  0  0  0  0  0  0  0  0  0  0
   -2.2076   -0.3602    0.8916 H   0  0  0  0  0  0  0  0  0  0  0  0
   -0.6260   -1.1514    2.6662 H   0  0  0  0  0  0  0  0  0  0  0  0
    2.9067   -0.6771    2.2030 H   0  0  0  0  0  0  0  0  0  0  0  0
    4.7249    0.2742    1.5217 S   0  0  0  0  0  0  0  0  0  0  0  0
    3.8776   -0.7548    2.4409 O   0  0  0  0  0  0  0  0  0  0  0  0
    6.1301   -0.1313    1.6299 O   0  0  0  0  0  0  0  0  0  0  0  0
    4.0424    0.4814    0.2316 O   0  0  0  0  0  0  0  0  0  0  0  0
    4.5299    1.7051    2.3224 O   0  0  0  0  0  0  0  0  0  0  0  0
    5.1721    1.7167    3.0526 H   0  0  0  0  0  0  0  0  0  0  0  0
  1  6  1  0  0  0  0
  2  1  2  0  0  0  0
  2  3  1  0  0  0  0
  3  4  2  0  0  0  0
  4  5  1  0  0  0  0
  5 12  1  0  0  0  0
  6 11  1  0  0  0  0
  6  5  2  0  0  0  0
  7  1  1  0  0  0  0
  8  2  1  0  0  0  0
 10  9  3  0  0  0  0
 13 15  1  0  0  0  0
 14 16  2  0  0  0  0
 14 18  1  0  0  0  0
 14 15  1  0  0  0  0
 17 14  2  0  0  0  0
 18 19  1  0  0  0  0
M  RAD  2   3   2   4   2
M  END
