Coordinates from ORCA-job Ph-N2-OOCH-B3LYPG-aug-cc-pVDZ-scan-d09-49-n400
 OpenBabel10311713223D

 19 17  0  0  0  0  0  0  0  0999 V2000
   -1.1147    0.3033   -0.5413 C   0  0  0  0  0  0  0  0  0  0  0  0
    0.0095    0.8681   -1.1929 C   0  0  0  0  0  0  0  0  0  0  0  0
    1.0771    0.7067   -0.3579 C   0  0  0  0  0  0  0  0  0  0  0  0
    1.3374    0.2125    0.7826 C   0  0  0  0  0  0  0  0  0  0  0  0
    0.2049   -0.3495    1.4312 C   0  0  0  0  0  0  0  0  0  0  0  0
   -1.0136   -0.2861    0.7324 C   0  0  0  0  0  0  0  0  0  0  0  0
   -2.0767    0.3343   -1.0552 H   0  0  0  0  0  0  0  0  0  0  0  0
   -0.0221    1.3318   -2.1741 H   0  0  0  0  0  0  0  0  0  0  0  0
    2.8801    1.7331   -1.6304 N   0  0  0  0  0  0  0  0  0  0  0  0
    3.8963    2.1426   -1.7661 N   0  0  0  0  0  0  0  0  0  0  0  0
   -1.9098   -0.7088    1.1895 H   0  0  0  0  0  0  0  0  0  0  0  0
    0.2663   -0.8129    2.4162 H   0  0  0  0  0  0  0  0  0  0  0  0
    2.8855    0.0026    1.7456 H   0  0  0  0  0  0  0  0  0  0  0  0
    5.0683    0.0295    1.7206 S   0  0  0  0  0  0  0  0  0  0  0  0
    3.6199   -0.2181    2.4016 O   0  0  0  0  0  0  0  0  0  0  0  0
    6.0515   -0.6021    2.6112 O   0  0  0  0  0  0  0  0  0  0  0  0
    5.0000   -0.2206    0.2752 O   0  0  0  0  0  0  0  0  0  0  0  0
    5.2366    1.6725    1.8532 O   0  0  0  0  0  0  0  0  0  0  0  0
    5.5651    1.8524    2.7501 H   0  0  0  0  0  0  0  0  0  0  0  0
  1  6  1  0  0  0  0
  2  1  2  0  0  0  0
  2  3  1  0  0  0  0
  3  4  2  0  0  0  0
  4  5  1  0  0  0  0
  5 12  1  0  0  0  0
  6 11  1  0  0  0  0
  6  5  2  0  0  0  0
  7  1  1  0  0  0  0
  8  2  1  0  0  0  0
 10  9  3  0  0  0  0
 13 15  1  0  0  0  0
 14 18  1  0  0  0  0
 14 15  1  0  0  0  0
 14 16  2  0  0  0  0
 17 14  2  0  0  0  0
 18 19  1  0  0  0  0
M  RAD  2   3   2   4   2
M  END
