Coordinates from ORCA-job Ph-N2-OOCH-B3LYPG-aug-cc-pVDZ-scan-d09-49-n400
 OpenBabel10311713223D

 19 17  0  0  0  0  0  0  0  0999 V2000
   -1.0971    0.3302   -0.4340 C   0  0  0  0  0  0  0  0  0  0  0  0
    0.1398    0.7629   -0.9811 C   0  0  0  0  0  0  0  0  0  0  0  0
    1.0988    0.4629   -0.0530 C   0  0  0  0  0  0  0  0  0  0  0  0
    1.1572   -0.0723    1.0870 C   0  0  0  0  0  0  0  0  0  0  0  0
   -0.0639   -0.5072    1.6478 C   0  0  0  0  0  0  0  0  0  0  0  0
   -1.1900   -0.2806    0.8313 C   0  0  0  0  0  0  0  0  0  0  0  0
   -2.0000    0.4837   -1.0279 H   0  0  0  0  0  0  0  0  0  0  0  0
    0.2472    1.2366   -1.9521 H   0  0  0  0  0  0  0  0  0  0  0  0
    3.5367    2.1105   -2.5319 N   0  0  0  0  0  0  0  0  0  0  0  0
    4.4464    2.5814   -2.9433 N   0  0  0  0  0  0  0  0  0  0  0  0
   -2.1722   -0.5915    1.1912 H   0  0  0  0  0  0  0  0  0  0  0  0
   -0.1504   -0.9837    2.6237 H   0  0  0  0  0  0  0  0  0  0  0  0
    2.9117   -0.2939    1.9068 H   0  0  0  0  0  0  0  0  0  0  0  0
    5.0376    0.1147    1.6900 S   0  0  0  0  0  0  0  0  0  0  0  0
    3.7295   -0.4977    2.4384 O   0  0  0  0  0  0  0  0  0  0  0  0
    6.1963   -0.4735    2.3740 O   0  0  0  0  0  0  0  0  0  0  0  0
    4.8481    0.0913    0.2349 O   0  0  0  0  0  0  0  0  0  0  0  0
    4.9499    1.7149    2.1010 O   0  0  0  0  0  0  0  0  0  0  0  0
    5.3362    1.8028    2.9888 H   0  0  0  0  0  0  0  0  0  0  0  0
  1  6  1  0  0  0  0
  2  1  2  0  0  0  0
  2  3  1  0  0  0  0
  3  4  2  0  0  0  0
  4  5  1  0  0  0  0
  5 12  1  0  0  0  0
  6 11  1  0  0  0  0
  6  5  2  0  0  0  0
  7  1  1  0  0  0  0
  8  2  1  0  0  0  0
 10  9  3  0  0  0  0
 13 15  1  0  0  0  0
 14 18  1  0  0  0  0
 14 16  2  0  0  0  0
 14 15  1  0  0  0  0
 17 14  2  0  0  0  0
 18 19  1  0  0  0  0
M  RAD  2   3   2   4   2
M  END
