Coordinates from ORCA-job Ph-N2-OOCH-B3LYPG-aug-cc-pVDZ-scan-d09-49-n400
 OpenBabel10311713223D

 19 17  0  0  0  0  0  0  0  0999 V2000
   -0.9334    0.1372   -0.6336 C   0  0  0  0  0  0  0  0  0  0  0  0
    0.2395    0.7654   -1.1244 C   0  0  0  0  0  0  0  0  0  0  0  0
    1.1653    0.7150   -0.1404 C   0  0  0  0  0  0  0  0  0  0  0  0
    1.3553    0.2904    1.0886 C   0  0  0  0  0  0  0  0  0  0  0  0
    0.1349   -0.3251    1.5124 C   0  0  0  0  0  0  0  0  0  0  0  0
   -0.9743   -0.3929    0.6630 C   0  0  0  0  0  0  0  0  0  0  0  0
   -1.7972    0.0835   -1.2969 H   0  0  0  0  0  0  0  0  0  0  0  0
    0.3351    1.1953   -2.1156 H   0  0  0  0  0  0  0  0  0  0  0  0
    2.9719    1.8835   -0.9909 N   0  0  0  0  0  0  0  0  0  0  0  0
    3.7995    2.4812   -1.4076 N   0  0  0  0  0  0  0  0  0  0  0  0
   -1.8879   -0.8719    1.0140 H   0  0  0  0  0  0  0  0  0  0  0  0
    0.1131   -0.7506    2.5165 H   0  0  0  0  0  0  0  0  0  0  0  0
    2.3259    0.3084    1.7538 H   0  0  0  0  0  0  0  0  0  0  0  0
    4.7851    0.0367    1.6473 S   0  0  0  0  0  0  0  0  0  0  0  0
    3.5738    0.2724    2.5719 O   0  0  0  0  0  0  0  0  0  0  0  0
    5.8523   -0.7584    2.3015 O   0  0  0  0  0  0  0  0  0  0  0  0
    4.3440   -0.3256    0.2697 O   0  0  0  0  0  0  0  0  0  0  0  0
    5.4358    1.5809    1.4416 O   0  0  0  0  0  0  0  0  0  0  0  0
    6.1228    1.6661    2.1207 H   0  0  0  0  0  0  0  0  0  0  0  0
  1  6  1  0  0  0  0
  2  1  2  0  0  0  0
  2  3  1  0  0  0  0
  3  4  2  0  0  0  0
  4  5  1  0  0  0  0
  4 13  1  0  0  0  0
  5 12  1  0  0  0  0
  6 11  1  0  0  0  0
  6  5  2  0  0  0  0
  7  1  1  0  0  0  0
  8  2  1  0  0  0  0
 10  9  3  0  0  0  0
 14 16  2  0  0  0  0
 14 15  1  0  0  0  0
 17 14  2  0  0  0  0
 18 14  1  0  0  0  0
 18 19  1  0  0  0  0
M  RAD  2   3   2  15   2
M  END
