Coordinates from ORCA-job Ph-N2-OOCH-B3LYPG-aug-cc-pVDZ-scan-d09-49-n400
 OpenBabel10311713223D

 19 19  0  0  1  0  0  0  0  0999 V2000
   -0.4151    0.0558   -0.7231 C   0  0  0  0  0  0  0  0  0  0  0  0
    0.5281    0.9079   -1.1647 C   0  0  0  0  0  0  0  0  0  0  0  0
    1.7047    1.2987   -0.3246 C   0  0  0  0  0  0  0  0  0  0  0  0
    1.8651    0.5253    1.0429 C   0  0  1  0  0  0  0  0  0  0  0  0
    0.7037   -0.3286    1.4228 C   0  0  0  0  0  0  0  0  0  0  0  0
   -0.3388   -0.5467    0.6012 C   0  0  0  0  0  0  0  0  0  0  0  0
   -1.2578   -0.1922   -1.3683 H   0  0  0  0  0  0  0  0  0  0  0  0
    0.4969    1.3652   -2.1539 H   0  0  0  0  0  0  0  0  0  0  0  0
    2.3638    1.9389   -0.5667 N   0  0  0  0  0  0  0  0  0  0  0  0
    3.2049    2.7199   -0.8389 N   0  0  0  0  0  0  0  0  0  0  0  0
   -1.1559   -1.1912    0.9262 H   0  0  0  0  0  0  0  0  0  0  0  0
    0.7598   -0.7841    2.4116 H   0  0  0  0  0  0  0  0  0  0  0  0
    2.1022    1.2667    1.8164 H   0  0  0  0  0  0  0  0  0  0  0  0
    4.2857   -0.1835    1.9534 S   0  0  0  0  0  0  0  0  0  0  0  0
    3.7360   -0.1476    3.3131 O   0  0  0  0  0  0  0  0  0  0  0  0
    5.2973   -1.1421    1.5014 O   0  0  0  0  0  0  0  0  0  0  0  0
    3.0578   -0.3257    0.8528 O   0  0  0  0  0  0  0  0  0  0  0  0
    4.7978    1.3570    1.6823 O   0  0  0  0  0  0  0  0  0  0  0  0
    5.2255    1.3977    0.8076 H   0  0  0  0  0  0  0  0  0  0  0  0
  1  6  1  0  0  0  0
  2  1  1  0  0  0  0
  2  3  2  0  0  0  0
  3  4  1  0  0  0  0
  4  5  1  0  0  0  0
  4 13  1  1  0  0  0
  5 12  1  0  0  0  0
  6 11  1  0  0  0  0
  6  5  2  0  0  0  0
  7  1  1  0  0  0  0
  8  2  1  0  0  0  0
  9  3  1  0  0  0  0
 10  9  1  0  0  0  0
 14 15  2  0  0  0  0
 16 14  2  0  0  0  0
 17  4  1  0  0  0  0
 17 14  1  0  0  0  0
 18 14  1  0  0  0  0
 19 18  1  0  0  0  0
M  RAD  3   1   2   9   2  10   3
M  END
