Coordinates from ORCA-job Ph-N2-OOCH-B3LYPG-aug-cc-pVDZ-scan-d09-49-n400
 OpenBabel10311713223D

 19 19  0  0  1  0  0  0  0  0999 V2000
   -0.4182    0.0697   -0.7220 C   0  0  0  0  0  0  0  0  0  0  0  0
    0.5321    0.9143   -1.1617 C   0  0  0  0  0  0  0  0  0  0  0  0
    1.7195    1.2909   -0.3237 C   0  0  0  0  0  0  0  0  0  0  0  0
    1.8651    0.5129    1.0491 C   0  0  1  0  0  0  0  0  0  0  0  0
    0.6998   -0.3394    1.4204 C   0  0  0  0  0  0  0  0  0  0  0  0
   -0.3447   -0.5433    0.5981 C   0  0  0  0  0  0  0  0  0  0  0  0
   -1.2651   -0.1658   -1.3664 H   0  0  0  0  0  0  0  0  0  0  0  0
    0.5036    1.3763   -2.1488 H   0  0  0  0  0  0  0  0  0  0  0  0
    2.3761    1.9053   -0.5615 N   0  0  0  0  0  0  0  0  0  0  0  0
    3.2348    2.6718   -0.8342 N   0  0  0  0  0  0  0  0  0  0  0  0
   -1.1656   -1.1851    0.9187 H   0  0  0  0  0  0  0  0  0  0  0  0
    0.7533   -0.8035    2.4054 H   0  0  0  0  0  0  0  0  0  0  0  0
    2.0970    1.2553    1.8233 H   0  0  0  0  0  0  0  0  0  0  0  0
    4.2933   -0.1723    1.9547 S   0  0  0  0  0  0  0  0  0  0  0  0
    3.7550   -0.1400    3.3189 O   0  0  0  0  0  0  0  0  0  0  0  0
    5.3129   -1.1191    1.4963 O   0  0  0  0  0  0  0  0  0  0  0  0
    3.0570   -0.3363    0.8653 O   0  0  0  0  0  0  0  0  0  0  0  0
    4.7790    1.3744    1.6739 O   0  0  0  0  0  0  0  0  0  0  0  0
    5.1768    1.4252    0.7855 H   0  0  0  0  0  0  0  0  0  0  0  0
  1  6  1  0  0  0  0
  2  1  1  0  0  0  0
  2  3  2  0  0  0  0
  3  4  1  0  0  0  0
  4  5  1  0  0  0  0
  4 13  1  1  0  0  0
  5 12  1  0  0  0  0
  6 11  1  0  0  0  0
  6  5  2  0  0  0  0
  7  1  1  0  0  0  0
  8  2  1  0  0  0  0
  9  3  1  0  0  0  0
 10  9  1  0  0  0  0
 14 15  2  0  0  0  0
 16 14  2  0  0  0  0
 17  4  1  0  0  0  0
 17 14  1  0  0  0  0
 18 14  1  0  0  0  0
 19 18  1  0  0  0  0
M  RAD  3   1   2   9   2  10   3
M  END
