Coordinates from ORCA-job Ph-N2-OOCH-B3LYPG-aug-cc-pVDZ-scan-d09-49-n400
 OpenBabel10311713223D

 19 17  0  0  0  0  0  0  0  0999 V2000
   -0.8853    0.1853   -0.6941 C   0  0  0  0  0  0  0  0  0  0  0  0
    0.3244    0.7791   -1.1058 C   0  0  0  0  0  0  0  0  0  0  0  0
    1.2586    0.7128   -0.1118 C   0  0  0  0  0  0  0  0  0  0  0  0
    1.3114    0.2227    1.1431 C   0  0  0  0  0  0  0  0  0  0  0  0
    0.0632   -0.3494    1.4885 C   0  0  0  0  0  0  0  0  0  0  0  0
   -1.0059   -0.3674    0.5868 C   0  0  0  0  0  0  0  0  0  0  0  0
   -1.7179    0.1667   -1.3969 H   0  0  0  0  0  0  0  0  0  0  0  0
    0.4734    1.2195   -2.0865 H   0  0  0  0  0  0  0  0  0  0  0  0
    2.8793    1.5802   -0.6748 N   0  0  0  0  0  0  0  0  0  0  0  0
    3.5757    2.2907   -1.1534 N   0  0  0  0  0  0  0  0  0  0  0  0
   -1.9500   -0.8234    0.8835 H   0  0  0  0  0  0  0  0  0  0  0  0
   -0.0332   -0.7864    2.4824 H   0  0  0  0  0  0  0  0  0  0  0  0
    2.2025    0.2414    1.8143 H   0  0  0  0  0  0  0  0  0  0  0  0
    4.8049    0.1280    1.6924 S   0  0  0  0  0  0  0  0  0  0  0  0
    3.7152    0.3479    2.7188 O   0  0  0  0  0  0  0  0  0  0  0  0
    5.9852   -0.6505    2.1494 O   0  0  0  0  0  0  0  0  0  0  0  0
    4.2215   -0.2573    0.3535 O   0  0  0  0  0  0  0  0  0  0  0  0
    5.4066    1.6936    1.4086 O   0  0  0  0  0  0  0  0  0  0  0  0
    6.3321    1.6581    1.6933 H   0  0  0  0  0  0  0  0  0  0  0  0
  1  6  1  0  0  0  0
  2  1  2  0  0  0  0
  2  3  1  0  0  0  0
  3  4  2  0  0  0  0
  4  5  1  0  0  0  0
  4 13  1  0  0  0  0
  5 12  1  0  0  0  0
  6 11  1  0  0  0  0
  6  5  2  0  0  0  0
  7  1  1  0  0  0  0
  8  2  1  0  0  0  0
 10  9  3  0  0  0  0
 14 16  2  0  0  0  0
 14 15  1  0  0  0  0
 17 14  2  0  0  0  0
 18 14  1  0  0  0  0
 18 19  1  0  0  0  0
M  RAD  2   3   2  15   2
M  END
