Coordinates from ORCA-job Ph-N2-OOCH-B3LYPG-aug-cc-pVDZ-scan-d09-49-n400
 OpenBabel10311713223D

 19 17  0  0  0  0  0  0  0  0999 V2000
   -0.6080    0.4652   -0.4006 C   0  0  0  0  0  0  0  0  0  0  0  0
    0.7785    0.6930   -0.6028 C   0  0  0  0  0  0  0  0  0  0  0  0
    1.4074    0.1844    0.4964 C   0  0  0  0  0  0  0  0  0  0  0  0
    1.1225   -0.4081    1.5789 C   0  0  0  0  0  0  0  0  0  0  0  0
   -0.2609   -0.6343    1.7813 C   0  0  0  0  0  0  0  0  0  0  0  0
   -1.1045   -0.1756    0.7516 C   0  0  0  0  0  0  0  0  0  0  0  0
   -1.2993    0.8052   -1.1736 H   0  0  0  0  0  0  0  0  0  0  0  0
    1.1970    1.1826   -1.4771 H   0  0  0  0  0  0  0  0  0  0  0  0
    3.1443    2.3821   -3.5117 N   0  0  0  0  0  0  0  0  0  0  0  0
    4.1176    2.6867   -3.9345 N   0  0  0  0  0  0  0  0  0  0  0  0
   -2.1819   -0.3218    0.8450 H   0  0  0  0  0  0  0  0  0  0  0  0
   -0.6625   -1.1312    2.6644 H   0  0  0  0  0  0  0  0  0  0  0  0
    2.8842   -0.7144    2.2923 H   0  0  0  0  0  0  0  0  0  0  0  0
    4.7205    0.2203    1.6370 S   0  0  0  0  0  0  0  0  0  0  0  0
    3.8520   -0.7992    2.5452 O   0  0  0  0  0  0  0  0  0  0  0  0
    6.1215   -0.1928    1.7689 O   0  0  0  0  0  0  0  0  0  0  0  0
    4.0613    0.4265    0.3342 O   0  0  0  0  0  0  0  0  0  0  0  0
    4.5212    1.6561    2.4277 O   0  0  0  0  0  0  0  0  0  0  0  0
    5.1506    1.6669    3.1690 H   0  0  0  0  0  0  0  0  0  0  0  0
  1  6  1  0  0  0  0
  2  1  2  0  0  0  0
  2  3  1  0  0  0  0
  3  4  2  0  0  0  0
  4  5  1  0  0  0  0
  5 12  1  0  0  0  0
  6 11  1  0  0  0  0
  6  5  2  0  0  0  0
  7  1  1  0  0  0  0
  8  2  1  0  0  0  0
 10  9  3  0  0  0  0
 13 15  1  0  0  0  0
 14 16  2  0  0  0  0
 14 18  1  0  0  0  0
 14 15  1  0  0  0  0
 17 14  2  0  0  0  0
 18 19  1  0  0  0  0
M  RAD  2   3   2   4   2
M  END
