Coordinates from ORCA-job Ph-N2-OOCH-B3LYPG-aug-cc-pVDZ-scan-d09-49-n400
 OpenBabel10311713223D

 19 17  0  0  0  0  0  0  0  0999 V2000
   -0.9285    0.1367   -0.6398 C   0  0  0  0  0  0  0  0  0  0  0  0
    0.2438    0.7654   -1.1273 C   0  0  0  0  0  0  0  0  0  0  0  0
    1.1734    0.7220   -0.1445 C   0  0  0  0  0  0  0  0  0  0  0  0
    1.3563    0.2963    1.0877 C   0  0  0  0  0  0  0  0  0  0  0  0
    0.1365   -0.3208    1.5081 C   0  0  0  0  0  0  0  0  0  0  0  0
   -0.9711   -0.3920    0.6573 C   0  0  0  0  0  0  0  0  0  0  0  0
   -1.7906    0.0807   -1.3050 H   0  0  0  0  0  0  0  0  0  0  0  0
    0.3406    1.1942   -2.1190 H   0  0  0  0  0  0  0  0  0  0  0  0
    2.9514    1.8615   -0.9588 N   0  0  0  0  0  0  0  0  0  0  0  0
    3.7753    2.4718   -1.3643 N   0  0  0  0  0  0  0  0  0  0  0  0
   -1.8842   -0.8726    1.0074 H   0  0  0  0  0  0  0  0  0  0  0  0
    0.1136   -0.7453    2.5125 H   0  0  0  0  0  0  0  0  0  0  0  0
    2.3188    0.3162    1.7543 H   0  0  0  0  0  0  0  0  0  0  0  0
    4.7832    0.0382    1.6491 S   0  0  0  0  0  0  0  0  0  0  0  0
    3.5824    0.2856    2.5811 O   0  0  0  0  0  0  0  0  0  0  0  0
    5.8554   -0.7575    2.2949 O   0  0  0  0  0  0  0  0  0  0  0  0
    4.3283   -0.3304    0.2768 O   0  0  0  0  0  0  0  0  0  0  0  0
    5.4396    1.5789    1.4265 O   0  0  0  0  0  0  0  0  0  0  0  0
    6.1375    1.6625    2.0944 H   0  0  0  0  0  0  0  0  0  0  0  0
  1  6  1  0  0  0  0
  2  1  2  0  0  0  0
  2  3  1  0  0  0  0
  3  4  2  0  0  0  0
  4  5  1  0  0  0  0
  4 13  1  0  0  0  0
  5 12  1  0  0  0  0
  6 11  1  0  0  0  0
  6  5  2  0  0  0  0
  7  1  1  0  0  0  0
  8  2  1  0  0  0  0
 10  9  3  0  0  0  0
 14 16  2  0  0  0  0
 14 15  1  0  0  0  0
 17 14  2  0  0  0  0
 18 14  1  0  0  0  0
 18 19  1  0  0  0  0
M  RAD  2   3   2  15   2
M  END
