Coordinates from ORCA-job Ph-N2-OOCH-B3LYPG-aug-cc-pVDZ-scan-d09-49-n400
 OpenBabel10311713223D

 19 17  0  0  0  0  0  0  0  0999 V2000
   -1.0240    0.3438   -0.4151 C   0  0  0  0  0  0  0  0  0  0  0  0
    0.2566    0.6929   -0.9190 C   0  0  0  0  0  0  0  0  0  0  0  0
    1.1620    0.3477    0.0466 C   0  0  0  0  0  0  0  0  0  0  0  0
    1.1418   -0.1745    1.1947 C   0  0  0  0  0  0  0  0  0  0  0  0
   -0.1233   -0.5273    1.7133 C   0  0  0  0  0  0  0  0  0  0  0  0
   -1.2018   -0.2434    0.8520 C   0  0  0  0  0  0  0  0  0  0  0  0
   -1.8928    0.5437   -1.0450 H   0  0  0  0  0  0  0  0  0  0  0  0
    0.4282    1.1471   -1.8901 H   0  0  0  0  0  0  0  0  0  0  0  0
    3.5696    2.3044   -2.9576 N   0  0  0  0  0  0  0  0  0  0  0  0
    4.4074    2.8073   -3.4715 N   0  0  0  0  0  0  0  0  0  0  0  0
   -2.2142   -0.4886    1.1773 H   0  0  0  0  0  0  0  0  0  0  0  0
   -0.2757   -0.9838    2.6907 H   0  0  0  0  0  0  0  0  0  0  0  0
    2.9096   -0.4183    2.0006 H   0  0  0  0  0  0  0  0  0  0  0  0
    4.9957    0.1170    1.7314 S   0  0  0  0  0  0  0  0  0  0  0  0
    3.7554   -0.6122    2.4897 O   0  0  0  0  0  0  0  0  0  0  0  0
    6.2136   -0.4520    2.3223 O   0  0  0  0  0  0  0  0  0  0  0  0
    4.7387    0.1795    0.2878 O   0  0  0  0  0  0  0  0  0  0  0  0
    4.8467    1.6793    2.2543 O   0  0  0  0  0  0  0  0  0  0  0  0
    5.2681    1.7286    3.1291 H   0  0  0  0  0  0  0  0  0  0  0  0
  1  6  1  0  0  0  0
  2  1  2  0  0  0  0
  2  3  1  0  0  0  0
  3  4  2  0  0  0  0
  4  5  1  0  0  0  0
  5 12  1  0  0  0  0
  6 11  1  0  0  0  0
  6  5  2  0  0  0  0
  7  1  1  0  0  0  0
  8  2  1  0  0  0  0
 10  9  3  0  0  0  0
 13 15  1  0  0  0  0
 14 18  1  0  0  0  0
 14 16  2  0  0  0  0
 14 15  1  0  0  0  0
 17 14  2  0  0  0  0
 18 19  1  0  0  0  0
M  RAD  2   3   2   4   2
M  END
