Coordinates from ORCA-job Ph-N2-OOCH-B3LYPG-aug-cc-pVDZ-scan-d09-49-n400
 OpenBabel10311713223D

 19 17  0  0  0  0  0  0  0  0999 V2000
   -1.1317    0.3135   -0.5135 C   0  0  0  0  0  0  0  0  0  0  0  0
    0.0180    0.8441   -1.1562 C   0  0  0  0  0  0  0  0  0  0  0  0
    1.0612    0.6448   -0.3003 C   0  0  0  0  0  0  0  0  0  0  0  0
    1.2839    0.1429    0.8393 C   0  0  0  0  0  0  0  0  0  0  0  0
    0.1356   -0.3858    1.4832 C   0  0  0  0  0  0  0  0  0  0  0  0
   -1.0686   -0.2793    0.7615 C   0  0  0  0  0  0  0  0  0  0  0  0
   -2.0865    0.3750   -1.0385 H   0  0  0  0  0  0  0  0  0  0  0  0
    0.0117    1.3074   -2.1376 H   0  0  0  0  0  0  0  0  0  0  0  0
    3.0417    1.8042   -1.8419 N   0  0  0  0  0  0  0  0  0  0  0  0
    4.0395    2.2272   -2.0508 N   0  0  0  0  0  0  0  0  0  0  0  0
   -1.9860   -0.6713    1.2034 H   0  0  0  0  0  0  0  0  0  0  0  0
    0.1679   -0.8511    2.4683 H   0  0  0  0  0  0  0  0  0  0  0  0
    2.9118   -0.0714    1.7617 H   0  0  0  0  0  0  0  0  0  0  0  0
    5.0933    0.0556    1.7140 S   0  0  0  0  0  0  0  0  0  0  0  0
    3.6602   -0.3037    2.3871 O   0  0  0  0  0  0  0  0  0  0  0  0
    6.1051   -0.5777    2.5701 O   0  0  0  0  0  0  0  0  0  0  0  0
    5.0334   -0.1176    0.2575 O   0  0  0  0  0  0  0  0  0  0  0  0
    5.1780    1.6939    1.9383 O   0  0  0  0  0  0  0  0  0  0  0  0
    5.4933    1.8407    2.8461 H   0  0  0  0  0  0  0  0  0  0  0  0
  1  6  1  0  0  0  0
  2  1  2  0  0  0  0
  2  3  1  0  0  0  0
  3  4  2  0  0  0  0
  4  5  1  0  0  0  0
  5 12  1  0  0  0  0
  6 11  1  0  0  0  0
  6  5  2  0  0  0  0
  7  1  1  0  0  0  0
  8  2  1  0  0  0  0
 10  9  3  0  0  0  0
 13 15  1  0  0  0  0
 14 18  1  0  0  0  0
 14 15  1  0  0  0  0
 14 16  2  0  0  0  0
 17 14  2  0  0  0  0
 18 19  1  0  0  0  0
M  RAD  2   3   2   4   2
M  END
