Coordinates from ORCA-job Ph-N2-OOCH-B3LYPG-aug-cc-pVDZ-scan-d09-49-n400
 OpenBabel10311713223D

 19 17  0  0  0  0  0  0  0  0999 V2000
   -1.0870    0.3320   -0.4304 C   0  0  0  0  0  0  0  0  0  0  0  0
    0.1574    0.7534   -0.9691 C   0  0  0  0  0  0  0  0  0  0  0  0
    1.1071    0.4459   -0.0338 C   0  0  0  0  0  0  0  0  0  0  0  0
    1.1522   -0.0886    1.1072 C   0  0  0  0  0  0  0  0  0  0  0  0
   -0.0764   -0.5124    1.6598 C   0  0  0  0  0  0  0  0  0  0  0  0
   -1.1945   -0.2767    0.8348 C   0  0  0  0  0  0  0  0  0  0  0  0
   -1.9843    0.4927   -1.0309 H   0  0  0  0  0  0  0  0  0  0  0  0
    0.2759    1.2252   -1.9397 H   0  0  0  0  0  0  0  0  0  0  0  0
    3.5502    2.1398   -2.6004 N   0  0  0  0  0  0  0  0  0  0  0  0
    4.4488    2.6167   -3.0292 N   0  0  0  0  0  0  0  0  0  0  0  0
   -2.1820   -0.5785    1.1878 H   0  0  0  0  0  0  0  0  0  0  0  0
   -0.1742   -0.9870    2.6355 H   0  0  0  0  0  0  0  0  0  0  0  0
    2.9116   -0.3136    1.9229 H   0  0  0  0  0  0  0  0  0  0  0  0
    5.0315    0.1164    1.6943 S   0  0  0  0  0  0  0  0  0  0  0  0
    3.7348   -0.5157    2.4464 O   0  0  0  0  0  0  0  0  0  0  0  0
    6.2010   -0.4692    2.3620 O   0  0  0  0  0  0  0  0  0  0  0  0
    4.8298    0.1076    0.2406 O   0  0  0  0  0  0  0  0  0  0  0  0
    4.9334    1.7110    2.1241 O   0  0  0  0  0  0  0  0  0  0  0  0
    5.3262    1.7923    3.0097 H   0  0  0  0  0  0  0  0  0  0  0  0
  1  6  1  0  0  0  0
  2  1  2  0  0  0  0
  2  3  1  0  0  0  0
  3  4  2  0  0  0  0
  4  5  1  0  0  0  0
  5 12  1  0  0  0  0
  6 11  1  0  0  0  0
  6  5  2  0  0  0  0
  7  1  1  0  0  0  0
  8  2  1  0  0  0  0
 10  9  3  0  0  0  0
 13 15  1  0  0  0  0
 14 18  1  0  0  0  0
 14 16  2  0  0  0  0
 14 15  1  0  0  0  0
 17 14  2  0  0  0  0
 18 19  1  0  0  0  0
M  RAD  2   3   2   4   2
M  END
