Coordinates from ORCA-job Ph-N2-OOCH-B3LYPG-aug-cc-pVDZ-scan-d09-49-n400
 OpenBabel10311713223D

 19 17  0  0  0  0  0  0  0  0999 V2000
   -1.1351    0.3147   -0.5002 C   0  0  0  0  0  0  0  0  0  0  0  0
    0.0248    0.8352   -1.1315 C   0  0  0  0  0  0  0  0  0  0  0  0
    1.0640    0.6234   -0.2704 C   0  0  0  0  0  0  0  0  0  0  0  0
    1.2582    0.1122    0.8693 C   0  0  0  0  0  0  0  0  0  0  0  0
    0.1049   -0.4078    1.5066 C   0  0  0  0  0  0  0  0  0  0  0  0
   -1.0905   -0.2841    0.7729 C   0  0  0  0  0  0  0  0  0  0  0  0
   -2.0848    0.3886   -1.0329 H   0  0  0  0  0  0  0  0  0  0  0  0
    0.0306    1.3024   -2.1113 H   0  0  0  0  0  0  0  0  0  0  0  0
    3.1381    1.8503   -1.9282 N   0  0  0  0  0  0  0  0  0  0  0  0
    4.1265    2.2805   -2.1657 N   0  0  0  0  0  0  0  0  0  0  0  0
   -2.0164   -0.6675    1.2047 H   0  0  0  0  0  0  0  0  0  0  0  0
    0.1236   -0.8769    2.4900 H   0  0  0  0  0  0  0  0  0  0  0  0
    2.9143   -0.1004    1.7816 H   0  0  0  0  0  0  0  0  0  0  0  0
    5.0869    0.0629    1.7096 S   0  0  0  0  0  0  0  0  0  0  0  0
    3.6685   -0.3274    2.3984 O   0  0  0  0  0  0  0  0  0  0  0  0
    6.1210   -0.5598    2.5464 O   0  0  0  0  0  0  0  0  0  0  0  0
    5.0070   -0.0996    0.2533 O   0  0  0  0  0  0  0  0  0  0  0  0
    5.1455    1.6999    1.9478 O   0  0  0  0  0  0  0  0  0  0  0  0
    5.4745    1.8447    2.8510 H   0  0  0  0  0  0  0  0  0  0  0  0
  1  6  1  0  0  0  0
  2  1  2  0  0  0  0
  2  3  1  0  0  0  0
  3  4  2  0  0  0  0
  4  5  1  0  0  0  0
  5 12  1  0  0  0  0
  6 11  1  0  0  0  0
  6  5  2  0  0  0  0
  7  1  1  0  0  0  0
  8  2  1  0  0  0  0
 10  9  3  0  0  0  0
 13 15  1  0  0  0  0
 14 18  1  0  0  0  0
 14 15  1  0  0  0  0
 14 16  2  0  0  0  0
 17 14  2  0  0  0  0
 18 19  1  0  0  0  0
M  RAD  2   3   2   4   2
M  END
