Coordinates from ORCA-job Ph-N2-OOCH-B3LYPG-aug-cc-pVDZ-scan-d09-49-n400
 OpenBabel10311713223D

 19 17  0  0  0  0  0  0  0  0999 V2000
   -0.7294    0.4571   -0.3928 C   0  0  0  0  0  0  0  0  0  0  0  0
    0.6387    0.7299   -0.6559 C   0  0  0  0  0  0  0  0  0  0  0  0
    1.3341    0.2352    0.4095 C   0  0  0  0  0  0  0  0  0  0  0  0
    1.1117   -0.3731    1.4961 C   0  0  0  0  0  0  0  0  0  0  0  0
   -0.2511   -0.6454    1.7637 C   0  0  0  0  0  0  0  0  0  0  0  0
   -1.1532   -0.2066    0.7755 C   0  0  0  0  0  0  0  0  0  0  0  0
   -1.4660    0.7804   -1.1304 H   0  0  0  0  0  0  0  0  0  0  0  0
    1.0058    1.2392   -1.5412 H   0  0  0  0  0  0  0  0  0  0  0  0
    3.3475    2.1970   -2.9998 N   0  0  0  0  0  0  0  0  0  0  0  0
    4.4250    2.3623   -3.1735 N   0  0  0  0  0  0  0  0  0  0  0  0
   -2.2202   -0.3873    0.9157 H   0  0  0  0  0  0  0  0  0  0  0  0
   -0.5964   -1.1602    2.6602 H   0  0  0  0  0  0  0  0  0  0  0  0
    2.9222   -0.6485    2.1541 H   0  0  0  0  0  0  0  0  0  0  0  0
    4.7475    0.2920    1.4747 S   0  0  0  0  0  0  0  0  0  0  0  0
    3.8904   -0.7287    2.3959 O   0  0  0  0  0  0  0  0  0  0  0  0
    6.1508   -0.1154    1.6022 O   0  0  0  0  0  0  0  0  0  0  0  0
    4.0779    0.4876    0.1772 O   0  0  0  0  0  0  0  0  0  0  0  0
    4.5459    1.7297    2.2619 O   0  0  0  0  0  0  0  0  0  0  0  0
    5.1804    1.7463    2.9985 H   0  0  0  0  0  0  0  0  0  0  0  0
  1  6  1  0  0  0  0
  2  1  2  0  0  0  0
  2  3  1  0  0  0  0
  3  4  2  0  0  0  0
  4  5  1  0  0  0  0
  5 12  1  0  0  0  0
  6 11  1  0  0  0  0
  6  5  2  0  0  0  0
  7  1  1  0  0  0  0
  8  2  1  0  0  0  0
 10  9  3  0  0  0  0
 13 15  1  0  0  0  0
 14 16  2  0  0  0  0
 14 18  1  0  0  0  0
 14 15  1  0  0  0  0
 17 14  2  0  0  0  0
 18 19  1  0  0  0  0
M  RAD  2   3   2   4   2
M  END
