Coordinates from ORCA-job Ph-N2-OOCH-B3LYPG-aug-cc-pVDZ-scan-d09-49-n400
 OpenBabel10311713223D

 19 17  0  0  0  0  0  0  0  0999 V2000
   -1.1191    0.3102   -0.5274 C   0  0  0  0  0  0  0  0  0  0  0  0
    0.0135    0.8563   -1.1843 C   0  0  0  0  0  0  0  0  0  0  0  0
    1.0741    0.6794   -0.3452 C   0  0  0  0  0  0  0  0  0  0  0  0
    1.3268    0.1864    0.7953 C   0  0  0  0  0  0  0  0  0  0  0  0
    0.1891   -0.3570    1.4496 C   0  0  0  0  0  0  0  0  0  0  0  0
   -1.0279   -0.2760    0.7483 C   0  0  0  0  0  0  0  0  0  0  0  0
   -2.0810    0.3541   -1.0410 H   0  0  0  0  0  0  0  0  0  0  0  0
   -0.0156    1.3155   -2.1675 H   0  0  0  0  0  0  0  0  0  0  0  0
    2.9331    1.7483   -1.7327 N   0  0  0  0  0  0  0  0  0  0  0  0
    3.9426    2.1610   -1.9028 N   0  0  0  0  0  0  0  0  0  0  0  0
   -1.9311   -0.6824    1.2060 H   0  0  0  0  0  0  0  0  0  0  0  0
    0.2433   -0.8176    2.4361 H   0  0  0  0  0  0  0  0  0  0  0  0
    2.8957   -0.0380    1.7498 H   0  0  0  0  0  0  0  0  0  0  0  0
    5.0752    0.0454    1.7193 S   0  0  0  0  0  0  0  0  0  0  0  0
    3.6350   -0.2710    2.3922 O   0  0  0  0  0  0  0  0  0  0  0  0
    6.0759   -0.5982    2.5811 O   0  0  0  0  0  0  0  0  0  0  0  0
    5.0090   -0.1441    0.2650 O   0  0  0  0  0  0  0  0  0  0  0  0
    5.1990    1.6846    1.9230 O   0  0  0  0  0  0  0  0  0  0  0  0
    5.5241    1.8347    2.8267 H   0  0  0  0  0  0  0  0  0  0  0  0
  1  6  1  0  0  0  0
  2  1  2  0  0  0  0
  2  3  1  0  0  0  0
  3  4  2  0  0  0  0
  4  5  1  0  0  0  0
  5 12  1  0  0  0  0
  6 11  1  0  0  0  0
  6  5  2  0  0  0  0
  7  1  1  0  0  0  0
  8  2  1  0  0  0  0
 10  9  3  0  0  0  0
 13 15  1  0  0  0  0
 14 18  1  0  0  0  0
 14 15  1  0  0  0  0
 14 16  2  0  0  0  0
 17 14  2  0  0  0  0
 18 19  1  0  0  0  0
M  RAD  2   3   2   4   2
M  END
