Coordinates from ORCA-job Ph-N2-OOCH-B3LYPG-aug-cc-pVDZ-scan-d09-49-n400
 OpenBabel10311713223D

 19 17  0  0  0  0  0  0  0  0999 V2000
   -1.1104    0.3290   -0.4407 C   0  0  0  0  0  0  0  0  0  0  0  0
    0.1147    0.7788   -1.0006 C   0  0  0  0  0  0  0  0  0  0  0  0
    1.0873    0.4900   -0.0837 C   0  0  0  0  0  0  0  0  0  0  0  0
    1.1675   -0.0463    1.0548 C   0  0  0  0  0  0  0  0  0  0  0  0
   -0.0425   -0.4980    1.6274 C   0  0  0  0  0  0  0  0  0  0  0  0
   -1.1808   -0.2851    0.8243 C   0  0  0  0  0  0  0  0  0  0  0  0
   -2.0217    0.4714   -1.0243 H   0  0  0  0  0  0  0  0  0  0  0  0
    0.2051    1.2552   -1.9720 H   0  0  0  0  0  0  0  0  0  0  0  0
    3.5031    2.0641   -2.4296 N   0  0  0  0  0  0  0  0  0  0  0  0
    4.4284    2.5266   -2.8148 N   0  0  0  0  0  0  0  0  0  0  0  0
   -2.1546   -0.6096    1.1948 H   0  0  0  0  0  0  0  0  0  0  0  0
   -0.1117   -0.9774    2.6033 H   0  0  0  0  0  0  0  0  0  0  0  0
    2.9131   -0.2651    1.8833 H   0  0  0  0  0  0  0  0  0  0  0  0
    5.0482    0.1102    1.6870 S   0  0  0  0  0  0  0  0  0  0  0  0
    3.7222   -0.4719    2.4277 O   0  0  0  0  0  0  0  0  0  0  0  0
    6.1895   -0.4798    2.3982 O   0  0  0  0  0  0  0  0  0  0  0  0
    4.8793    0.0626    0.2299 O   0  0  0  0  0  0  0  0  0  0  0  0
    4.9752    1.7187    2.0675 O   0  0  0  0  0  0  0  0  0  0  0  0
    5.3499    1.8180    2.9590 H   0  0  0  0  0  0  0  0  0  0  0  0
  1  6  1  0  0  0  0
  2  1  2  0  0  0  0
  2  3  1  0  0  0  0
  3  4  2  0  0  0  0
  4  5  1  0  0  0  0
  5 12  1  0  0  0  0
  6 11  1  0  0  0  0
  6  5  2  0  0  0  0
  7  1  1  0  0  0  0
  8  2  1  0  0  0  0
 10  9  3  0  0  0  0
 13 15  1  0  0  0  0
 14 18  1  0  0  0  0
 14 16  2  0  0  0  0
 14 15  1  0  0  0  0
 17 14  2  0  0  0  0
 18 19  1  0  0  0  0
M  RAD  2   3   2   4   2
M  END
