Coordinates from ORCA-job Ph-N2-OOCH-B3LYPG-aug-cc-pVDZ-scan-d09-49-n400
 OpenBabel10311713223D

 19 17  0  0  0  0  0  0  0  0999 V2000
   -1.0781    0.3336   -0.4280 C   0  0  0  0  0  0  0  0  0  0  0  0
    0.1720    0.7466   -0.9599 C   0  0  0  0  0  0  0  0  0  0  0  0
    1.1145    0.4333   -0.0192 C   0  0  0  0  0  0  0  0  0  0  0  0
    1.1494   -0.1007    1.1224 C   0  0  0  0  0  0  0  0  0  0  0  0
   -0.0849   -0.5161    1.6684 C   0  0  0  0  0  0  0  0  0  0  0  0
   -1.1967   -0.2736    0.8370 C   0  0  0  0  0  0  0  0  0  0  0  0
   -1.9709    0.4999   -1.0336 H   0  0  0  0  0  0  0  0  0  0  0  0
    0.2990    1.2171   -1.9301 H   0  0  0  0  0  0  0  0  0  0  0  0
    3.5564    2.1628   -2.6550 N   0  0  0  0  0  0  0  0  0  0  0  0
    4.4456    2.6448   -3.0977 N   0  0  0  0  0  0  0  0  0  0  0  0
   -2.1882   -0.5686    1.1846 H   0  0  0  0  0  0  0  0  0  0  0  0
   -0.1914   -0.9894    2.6439 H   0  0  0  0  0  0  0  0  0  0  0  0
    2.9109   -0.3280    1.9355 H   0  0  0  0  0  0  0  0  0  0  0  0
    5.0265    0.1167    1.6992 S   0  0  0  0  0  0  0  0  0  0  0  0
    3.7378   -0.5289    2.4537 O   0  0  0  0  0  0  0  0  0  0  0  0
    6.2032   -0.4673    2.3555 O   0  0  0  0  0  0  0  0  0  0  0  0
    4.8165    0.1182    0.2466 O   0  0  0  0  0  0  0  0  0  0  0  0
    4.9216    1.7073    2.1421 O   0  0  0  0  0  0  0  0  0  0  0  0
    5.3188    1.7839    3.0261 H   0  0  0  0  0  0  0  0  0  0  0  0
  1  6  1  0  0  0  0
  2  1  2  0  0  0  0
  2  3  1  0  0  0  0
  3  4  2  0  0  0  0
  4  5  1  0  0  0  0
  5 12  1  0  0  0  0
  6 11  1  0  0  0  0
  6  5  2  0  0  0  0
  7  1  1  0  0  0  0
  8  2  1  0  0  0  0
 10  9  3  0  0  0  0
 13 15  1  0  0  0  0
 14 18  1  0  0  0  0
 14 16  2  0  0  0  0
 14 15  1  0  0  0  0
 17 14  2  0  0  0  0
 18 19  1  0  0  0  0
M  RAD  2   3   2   4   2
M  END
