Coordinates from ORCA-job Ph-N2-OOCH-B3LYPG-aug-cc-pVDZ-scan-d09-49-n400
 OpenBabel10311713223D

 19 17  0  0  0  0  0  0  0  0999 V2000
   -1.1169    0.3071   -0.5336 C   0  0  0  0  0  0  0  0  0  0  0  0
    0.0124    0.8612   -1.1879 C   0  0  0  0  0  0  0  0  0  0  0  0
    1.0751    0.6908   -0.3497 C   0  0  0  0  0  0  0  0  0  0  0  0
    1.3312    0.1974    0.7907 C   0  0  0  0  0  0  0  0  0  0  0  0
    0.1953   -0.3540    1.4421 C   0  0  0  0  0  0  0  0  0  0  0  0
   -1.0221   -0.2805    0.7413 C   0  0  0  0  0  0  0  0  0  0  0  0
   -2.0787    0.3455   -1.0477 H   0  0  0  0  0  0  0  0  0  0  0  0
   -0.0178    1.3222   -2.1704 H   0  0  0  0  0  0  0  0  0  0  0  0
    2.9112    1.7447   -1.6869 N   0  0  0  0  0  0  0  0  0  0  0  0
    3.9234    2.1573   -1.8412 N   0  0  0  0  0  0  0  0  0  0  0  0
   -1.9226   -0.6938    1.1984 H   0  0  0  0  0  0  0  0  0  0  0  0
    0.2522   -0.8159    2.4280 H   0  0  0  0  0  0  0  0  0  0  0  0
    2.8914   -0.0211    1.7488 H   0  0  0  0  0  0  0  0  0  0  0  0
    5.0725    0.0369    1.7198 S   0  0  0  0  0  0  0  0  0  0  0  0
    3.6286   -0.2483    2.3973 O   0  0  0  0  0  0  0  0  0  0  0  0
    6.0656   -0.5989    2.5961 O   0  0  0  0  0  0  0  0  0  0  0  0
    5.0059   -0.1830    0.2697 O   0  0  0  0  0  0  0  0  0  0  0  0
    5.2148    1.6789    1.8880 O   0  0  0  0  0  0  0  0  0  0  0  0
    5.5402    1.8448    2.7887 H   0  0  0  0  0  0  0  0  0  0  0  0
  1  6  1  0  0  0  0
  2  1  2  0  0  0  0
  2  3  1  0  0  0  0
  3  4  2  0  0  0  0
  4  5  1  0  0  0  0
  5 12  1  0  0  0  0
  6 11  1  0  0  0  0
  6  5  2  0  0  0  0
  7  1  1  0  0  0  0
  8  2  1  0  0  0  0
 10  9  3  0  0  0  0
 13 15  1  0  0  0  0
 14 18  1  0  0  0  0
 14 15  1  0  0  0  0
 14 16  2  0  0  0  0
 17 14  2  0  0  0  0
 18 19  1  0  0  0  0
M  RAD  2   3   2   4   2
M  END
