Coordinates from ORCA-job Ph-N2-OOCH-B3LYPG-aug-cc-pVDZ-scan-d09-49-n400
 OpenBabel10311713223D

 19 17  0  0  0  0  0  0  0  0999 V2000
   -1.1150    0.3038   -0.5417 C   0  0  0  0  0  0  0  0  0  0  0  0
    0.0087    0.8678   -1.1937 C   0  0  0  0  0  0  0  0  0  0  0  0
    1.0780    0.7072   -0.3601 C   0  0  0  0  0  0  0  0  0  0  0  0
    1.3381    0.2131    0.7806 C   0  0  0  0  0  0  0  0  0  0  0  0
    0.2058   -0.3484    1.4300 C   0  0  0  0  0  0  0  0  0  0  0  0
   -1.0132   -0.2852    0.7322 C   0  0  0  0  0  0  0  0  0  0  0  0
   -2.0773    0.3348   -1.0552 H   0  0  0  0  0  0  0  0  0  0  0  0
   -0.0222    1.3315   -2.1750 H   0  0  0  0  0  0  0  0  0  0  0  0
    2.8779    1.7260   -1.6239 N   0  0  0  0  0  0  0  0  0  0  0  0
    3.8952    2.1334   -1.7573 N   0  0  0  0  0  0  0  0  0  0  0  0
   -1.9089   -0.7076    1.1903 H   0  0  0  0  0  0  0  0  0  0  0  0
    0.2677   -0.8114    2.4152 H   0  0  0  0  0  0  0  0  0  0  0  0
    2.8854    0.0031    1.7435 H   0  0  0  0  0  0  0  0  0  0  0  0
    5.0682    0.0318    1.7185 S   0  0  0  0  0  0  0  0  0  0  0  0
    3.6201   -0.2182    2.3991 O   0  0  0  0  0  0  0  0  0  0  0  0
    6.0518   -0.6023    2.6068 O   0  0  0  0  0  0  0  0  0  0  0  0
    4.9995   -0.2136    0.2723 O   0  0  0  0  0  0  0  0  0  0  0  0
    5.2363    1.6744    1.8564 O   0  0  0  0  0  0  0  0  0  0  0  0
    5.5656    1.8514    2.7536 H   0  0  0  0  0  0  0  0  0  0  0  0
  1  6  1  0  0  0  0
  2  1  2  0  0  0  0
  2  3  1  0  0  0  0
  3  4  2  0  0  0  0
  4  5  1  0  0  0  0
  5 12  1  0  0  0  0
  6 11  1  0  0  0  0
  6  5  2  0  0  0  0
  7  1  1  0  0  0  0
  8  2  1  0  0  0  0
 10  9  3  0  0  0  0
 13 15  1  0  0  0  0
 14 18  1  0  0  0  0
 14 15  1  0  0  0  0
 14 16  2  0  0  0  0
 17 14  2  0  0  0  0
 18 19  1  0  0  0  0
M  RAD  2   3   2   4   2
M  END
