Coordinates from ORCA-job Ph-N2-OOCH-B3LYPG-aug-cc-pVDZ-scan-d09-49-n400
 OpenBabel10311713223D

 19 17  0  0  0  0  0  0  0  0999 V2000
   -1.1306    0.3237   -0.4604 C   0  0  0  0  0  0  0  0  0  0  0  0
    0.0637    0.8085   -1.0560 C   0  0  0  0  0  0  0  0  0  0  0  0
    1.0709    0.5509   -0.1683 C   0  0  0  0  0  0  0  0  0  0  0  0
    1.2052    0.0216    0.9697 C   0  0  0  0  0  0  0  0  0  0  0  0
    0.0231   -0.4635    1.5758 C   0  0  0  0  0  0  0  0  0  0  0  0
   -1.1446   -0.2882    0.8074 C   0  0  0  0  0  0  0  0  0  0  0  0
   -2.0623    0.4370   -1.0176 H   0  0  0  0  0  0  0  0  0  0  0  0
    0.1119    1.2843   -2.0306 H   0  0  0  0  0  0  0  0  0  0  0  0
    3.3855    1.9679   -2.2102 N   0  0  0  0  0  0  0  0  0  0  0  0
    4.3404    2.4175   -2.5334 N   0  0  0  0  0  0  0  0  0  0  0  0
   -2.0964   -0.6410    1.2080 H   0  0  0  0  0  0  0  0  0  0  0  0
   -0.0030   -0.9417    2.5545 H   0  0  0  0  0  0  0  0  0  0  0  0
    2.9118   -0.2015    1.8359 H   0  0  0  0  0  0  0  0  0  0  0  0
    5.0643    0.0918    1.6930 S   0  0  0  0  0  0  0  0  0  0  0  0
    3.6976   -0.4163    2.4125 O   0  0  0  0  0  0  0  0  0  0  0  0
    6.1633   -0.5061    2.4620 O   0  0  0  0  0  0  0  0  0  0  0  0
    4.9378   -0.0078    0.2344 O   0  0  0  0  0  0  0  0  0  0  0  0
    5.0347    1.7160    2.0087 O   0  0  0  0  0  0  0  0  0  0  0  0
    5.3884    1.8382    2.9060 H   0  0  0  0  0  0  0  0  0  0  0  0
  1  6  1  0  0  0  0
  2  1  2  0  0  0  0
  2  3  1  0  0  0  0
  3  4  2  0  0  0  0
  4  5  1  0  0  0  0
  5 12  1  0  0  0  0
  6 11  1  0  0  0  0
  6  5  2  0  0  0  0
  7  1  1  0  0  0  0
  8  2  1  0  0  0  0
 10  9  3  0  0  0  0
 13 15  1  0  0  0  0
 14 18  1  0  0  0  0
 14 15  1  0  0  0  0
 14 16  2  0  0  0  0
 17 14  2  0  0  0  0
 18 19  1  0  0  0  0
M  RAD  2   3   2   4   2
M  END
