Coordinates from ORCA-job Ph-N2-OOCH-B3LYPG-aug-cc-pVDZ-scan-d09-49-n400
 OpenBabel10311713223D

 19 17  0  0  0  0  0  0  0  0999 V2000
   -0.6837    0.4590   -0.3924 C   0  0  0  0  0  0  0  0  0  0  0  0
    0.6923    0.7125   -0.6324 C   0  0  0  0  0  0  0  0  0  0  0  0
    1.3614    0.2111    0.4465 C   0  0  0  0  0  0  0  0  0  0  0  0
    1.1146   -0.3911    1.5320 C   0  0  0  0  0  0  0  0  0  0  0  0
   -0.2571   -0.6438    1.7744 C   0  0  0  0  0  0  0  0  0  0  0  0
   -1.1366   -0.1955    0.7702 C   0  0  0  0  0  0  0  0  0  0  0  0
   -1.4027    0.7898   -1.1439 H   0  0  0  0  0  0  0  0  0  0  0  0
    1.0794    1.2130   -1.5148 H   0  0  0  0  0  0  0  0  0  0  0  0
    3.2929    2.2510   -3.1697 N   0  0  0  0  0  0  0  0  0  0  0  0
    4.3448    2.4750   -3.4186 N   0  0  0  0  0  0  0  0  0  0  0  0
   -2.2082   -0.3614    0.8925 H   0  0  0  0  0  0  0  0  0  0  0  0
   -0.6248   -1.1517    2.6658 H   0  0  0  0  0  0  0  0  0  0  0  0
    2.9075   -0.6757    2.2004 H   0  0  0  0  0  0  0  0  0  0  0  0
    4.7257    0.2755    1.5188 S   0  0  0  0  0  0  0  0  0  0  0  0
    3.8784   -0.7533    2.4382 O   0  0  0  0  0  0  0  0  0  0  0  0
    6.1309   -0.1302    1.6270 O   0  0  0  0  0  0  0  0  0  0  0  0
    4.0431    0.4826    0.2288 O   0  0  0  0  0  0  0  0  0  0  0  0
    4.5309    1.7065    2.3194 O   0  0  0  0  0  0  0  0  0  0  0  0
    5.1731    1.7182    3.0495 H   0  0  0  0  0  0  0  0  0  0  0  0
  1  6  1  0  0  0  0
  2  1  2  0  0  0  0
  2  3  1  0  0  0  0
  3  4  2  0  0  0  0
  4  5  1  0  0  0  0
  5 12  1  0  0  0  0
  6 11  1  0  0  0  0
  6  5  2  0  0  0  0
  7  1  1  0  0  0  0
  8  2  1  0  0  0  0
 10  9  3  0  0  0  0
 13 15  1  0  0  0  0
 14 16  2  0  0  0  0
 14 18  1  0  0  0  0
 14 15  1  0  0  0  0
 17 14  2  0  0  0  0
 18 19  1  0  0  0  0
M  RAD  2   3   2   4   2
M  END
