Coordinates from ORCA-job Ph-N2-OOCH-B3LYPG-aug-cc-pVDZ-scan-d09-49-n400
 OpenBabel10311713223D

 19 18  0  0  0  0  0  0  0  0999 V2000
   -0.7904    0.1156   -0.7483 C   0  0  0  0  0  0  0  0  0  0  0  0
    0.4213    0.7499   -1.0578 C   0  0  0  0  0  0  0  0  0  0  0  0
    1.3181    0.7714   -0.0114 C   0  0  0  0  0  0  0  0  0  0  0  0
    1.2205    0.2694    1.2604 C   0  0  0  0  0  0  0  0  0  0  0  0
   -0.0157   -0.3437    1.5182 C   0  0  0  0  0  0  0  0  0  0  0  0
   -1.0015   -0.4218    0.5271 C   0  0  0  0  0  0  0  0  0  0  0  0
   -1.5601    0.0461   -1.5162 H   0  0  0  0  0  0  0  0  0  0  0  0
    0.6289    1.1766   -2.0352 H   0  0  0  0  0  0  0  0  0  0  0  0
    2.7755    1.5878   -0.3865 N   0  0  0  0  0  0  0  0  0  0  0  0
    3.3939    2.4075   -0.8042 N   0  0  0  0  0  0  0  0  0  0  0  0
   -1.9483   -0.9139    0.7487 H   0  0  0  0  0  0  0  0  0  0  0  0
   -0.1895   -0.7698    2.5056 H   0  0  0  0  0  0  0  0  0  0  0  0
    2.0431    0.3464    1.9811 H   0  0  0  0  0  0  0  0  0  0  0  0
    4.8115    0.1605    1.5730 S   0  0  0  0  0  0  0  0  0  0  0  0
    3.8832    0.7340    2.6109 O   0  0  0  0  0  0  0  0  0  0  0  0
    5.8003   -0.8327    2.0580 O   0  0  0  0  0  0  0  0  0  0  0  0
    4.0672   -0.2210    0.3029 O   0  0  0  0  0  0  0  0  0  0  0  0
    5.7060    1.4831    1.0026 O   0  0  0  0  0  0  0  0  0  0  0  0
    6.3976    1.6463    1.6626 H   0  0  0  0  0  0  0  0  0  0  0  0
  1  6  1  0  0  0  0
  2  1  2  0  0  0  0
  2  3  1  0  0  0  0
  3  4  2  0  0  0  0
  4  5  1  0  0  0  0
  4 13  1  0  0  0  0
  5 12  1  0  0  0  0
  6 11  1  0  0  0  0
  6  5  2  0  0  0  0
  7  1  1  0  0  0  0
  8  2  1  0  0  0  0
  9  3  1  0  0  0  0
 10  9  1  0  0  0  0
 14 16  2  0  0  0  0
 14 15  1  0  0  0  0
 17 14  2  0  0  0  0
 18 14  1  0  0  0  0
 18 19  1  0  0  0  0
M  RAD  3   9   2  10   3  15   2
M  END
