Coordinates from ORCA-job Ph-N2-OOCH-B3LYPG-aug-cc-pVDZ-scan-d09-49-n400
 OpenBabel10311713223D

 19 17  0  0  0  0  0  0  0  0999 V2000
   -1.1353    0.3168   -0.4919 C   0  0  0  0  0  0  0  0  0  0  0  0
    0.0306    0.8304   -1.1181 C   0  0  0  0  0  0  0  0  0  0  0  0
    1.0649    0.6096   -0.2530 C   0  0  0  0  0  0  0  0  0  0  0  0
    1.2481    0.0946    0.8862 C   0  0  0  0  0  0  0  0  0  0  0  0
    0.0904   -0.4187    1.5195 C   0  0  0  0  0  0  0  0  0  0  0  0
   -1.1007   -0.2847    0.7802 C   0  0  0  0  0  0  0  0  0  0  0  0
   -2.0824    0.3985   -1.0282 H   0  0  0  0  0  0  0  0  0  0  0  0
    0.0431    1.2994   -2.0970 H   0  0  0  0  0  0  0  0  0  0  0  0
    3.1891    1.8736   -1.9798 N   0  0  0  0  0  0  0  0  0  0  0  0
    4.1714    2.3082   -2.2335 N   0  0  0  0  0  0  0  0  0  0  0  0
   -2.0314   -0.6621    1.2071 H   0  0  0  0  0  0  0  0  0  0  0  0
    0.1017   -0.8897    2.5021 H   0  0  0  0  0  0  0  0  0  0  0  0
    2.9137   -0.1219    1.7921 H   0  0  0  0  0  0  0  0  0  0  0  0
    5.0828    0.0677    1.7067 S   0  0  0  0  0  0  0  0  0  0  0  0
    3.6735   -0.3457    2.4020 O   0  0  0  0  0  0  0  0  0  0  0  0
    6.1298   -0.5480    2.5325 O   0  0  0  0  0  0  0  0  0  0  0  0
    4.9949   -0.0857    0.2499 O   0  0  0  0  0  0  0  0  0  0  0  0
    5.1220    1.7034    1.9564 O   0  0  0  0  0  0  0  0  0  0  0  0
    5.4555    1.8459    2.8583 H   0  0  0  0  0  0  0  0  0  0  0  0
  1  6  1  0  0  0  0
  2  1  2  0  0  0  0
  2  3  1  0  0  0  0
  3  4  2  0  0  0  0
  4  5  1  0  0  0  0
  5 12  1  0  0  0  0
  6 11  1  0  0  0  0
  6  5  2  0  0  0  0
  7  1  1  0  0  0  0
  8  2  1  0  0  0  0
 10  9  3  0  0  0  0
 13 15  1  0  0  0  0
 14 18  1  0  0  0  0
 14 15  1  0  0  0  0
 14 16  2  0  0  0  0
 17 14  2  0  0  0  0
 18 19  1  0  0  0  0
M  RAD  2   3   2   4   2
M  END
