Coordinates from ORCA-job Ph-N2-OOCH-B3LYPG-aug-cc-pVDZ-scan-d09-49-n400
 OpenBabel10311713223D

 19 18  0  0  0  0  0  0  0  0999 V2000
   -0.8055    0.1194   -0.7421 C   0  0  0  0  0  0  0  0  0  0  0  0
    0.4056    0.7516   -1.0654 C   0  0  0  0  0  0  0  0  0  0  0  0
    1.3033    0.7628   -0.0235 C   0  0  0  0  0  0  0  0  0  0  0  0
    1.2296    0.2648    1.2473 C   0  0  0  0  0  0  0  0  0  0  0  0
   -0.0078   -0.3460    1.5154 C   0  0  0  0  0  0  0  0  0  0  0  0
   -1.0041   -0.4194    0.5346 C   0  0  0  0  0  0  0  0  0  0  0  0
   -1.5831    0.0541   -1.5024 H   0  0  0  0  0  0  0  0  0  0  0  0
    0.6055    1.1798   -2.0434 H   0  0  0  0  0  0  0  0  0  0  0  0
    2.7937    1.5935   -0.4219 N   0  0  0  0  0  0  0  0  0  0  0  0
    3.4091    2.4087   -0.8507 N   0  0  0  0  0  0  0  0  0  0  0  0
   -1.9498   -0.9091    0.7656 H   0  0  0  0  0  0  0  0  0  0  0  0
   -0.1713   -0.7731    2.5043 H   0  0  0  0  0  0  0  0  0  0  0  0
    2.0618    0.3389    1.9599 H   0  0  0  0  0  0  0  0  0  0  0  0
    4.8117    0.1607    1.5845 S   0  0  0  0  0  0  0  0  0  0  0  0
    3.8623    0.7038    2.6207 O   0  0  0  0  0  0  0  0  0  0  0  0
    5.8128   -0.8214    2.0685 O   0  0  0  0  0  0  0  0  0  0  0  0
    4.0866   -0.2156    0.3029 O   0  0  0  0  0  0  0  0  0  0  0  0
    5.6929    1.5057    1.0473 O   0  0  0  0  0  0  0  0  0  0  0  0
    6.4082    1.6321    1.6898 H   0  0  0  0  0  0  0  0  0  0  0  0
  1  6  1  0  0  0  0
  2  1  2  0  0  0  0
  2  3  1  0  0  0  0
  3  4  2  0  0  0  0
  4  5  1  0  0  0  0
  4 13  1  0  0  0  0
  5 12  1  0  0  0  0
  6 11  1  0  0  0  0
  6  5  2  0  0  0  0
  7  1  1  0  0  0  0
  8  2  1  0  0  0  0
  9  3  1  0  0  0  0
 10  9  1  0  0  0  0
 14 16  2  0  0  0  0
 14 15  1  0  0  0  0
 17 14  2  0  0  0  0
 18 14  1  0  0  0  0
 18 19  1  0  0  0  0
M  RAD  3   9   2  10   3  15   2
M  END
