Coordinates from ORCA-job Ph-N2-OOCH-B3LYPG-aug-cc-pVDZ-scan-d09-49-n400
 OpenBabel10311713223D

 19 18  0  0  0  0  0  0  0  0999 V2000
   -0.7789    0.1130   -0.7527 C   0  0  0  0  0  0  0  0  0  0  0  0
    0.4328    0.7498   -1.0517 C   0  0  0  0  0  0  0  0  0  0  0  0
    1.3294    0.7793   -0.0023 C   0  0  0  0  0  0  0  0  0  0  0  0
    1.2143    0.2735    1.2696 C   0  0  0  0  0  0  0  0  0  0  0  0
   -0.0203   -0.3423    1.5199 C   0  0  0  0  0  0  0  0  0  0  0  0
   -0.9987   -0.4241    0.5214 C   0  0  0  0  0  0  0  0  0  0  0  0
   -1.5426    0.0404   -1.5260 H   0  0  0  0  0  0  0  0  0  0  0  0
    0.6457    1.1761   -2.0284 H   0  0  0  0  0  0  0  0  0  0  0  0
    2.7611    1.5859   -0.3611 N   0  0  0  0  0  0  0  0  0  0  0  0
    3.3859    2.4059   -0.7695 N   0  0  0  0  0  0  0  0  0  0  0  0
   -1.9457   -0.9188    0.7361 H   0  0  0  0  0  0  0  0  0  0  0  0
   -0.2010   -0.7684    2.5060 H   0  0  0  0  0  0  0  0  0  0  0  0
    2.0298    0.3527    1.9965 H   0  0  0  0  0  0  0  0  0  0  0  0
    4.8099    0.1592    1.5653 S   0  0  0  0  0  0  0  0  0  0  0  0
    3.8966    0.7556    2.6031 O   0  0  0  0  0  0  0  0  0  0  0  0
    5.7914   -0.8392    2.0535 O   0  0  0  0  0  0  0  0  0  0  0  0
    4.0521   -0.2288    0.3047 O   0  0  0  0  0  0  0  0  0  0  0  0
    5.7120    1.4656    0.9690 O   0  0  0  0  0  0  0  0  0  0  0  0
    6.3881    1.6561    1.6379 H   0  0  0  0  0  0  0  0  0  0  0  0
  1  6  1  0  0  0  0
  2  1  2  0  0  0  0
  2  3  1  0  0  0  0
  3  4  2  0  0  0  0
  4  5  1  0  0  0  0
  4 13  1  0  0  0  0
  5 12  1  0  0  0  0
  6 11  1  0  0  0  0
  6  5  2  0  0  0  0
  7  1  1  0  0  0  0
  8  2  1  0  0  0  0
  9  3  1  0  0  0  0
 10  9  1  0  0  0  0
 14 16  2  0  0  0  0
 14 15  1  0  0  0  0
 17 14  2  0  0  0  0
 18 14  1  0  0  0  0
 18 19  1  0  0  0  0
M  RAD  3   9   2  10   3  15   2
M  END
