Coordinates from ORCA-job Ph-N2-OOCH-B3LYPG-aug-cc-pVDZ-scan-d09-49-n400
 OpenBabel10311713223D

 19 17  0  0  0  0  0  0  0  0999 V2000
   -1.1337    0.3205   -0.4762 C   0  0  0  0  0  0  0  0  0  0  0  0
    0.0468    0.8195   -1.0872 C   0  0  0  0  0  0  0  0  0  0  0  0
    1.0677    0.5796   -0.2108 C   0  0  0  0  0  0  0  0  0  0  0  0
    1.2255    0.0570    0.9278 C   0  0  0  0  0  0  0  0  0  0  0  0
    0.0557   -0.4421    1.5480 C   0  0  0  0  0  0  0  0  0  0  0  0
   -1.1237   -0.2866    0.7938 C   0  0  0  0  0  0  0  0  0  0  0  0
   -2.0733    0.4185   -1.0230 H   0  0  0  0  0  0  0  0  0  0  0  0
    0.0771    1.2921   -2.0640 H   0  0  0  0  0  0  0  0  0  0  0  0
    3.2887    1.9219   -2.0929 N   0  0  0  0  0  0  0  0  0  0  0  0
    4.2573    2.3652   -2.3820 N   0  0  0  0  0  0  0  0  0  0  0  0
   -2.0654   -0.6514    1.2075 H   0  0  0  0  0  0  0  0  0  0  0  0
    0.0481   -0.9170    2.5286 H   0  0  0  0  0  0  0  0  0  0  0  0
    2.9133   -0.1623    1.8142 H   0  0  0  0  0  0  0  0  0  0  0  0
    5.0747    0.0791    1.7000 S   0  0  0  0  0  0  0  0  0  0  0  0
    3.6858   -0.3806    2.4084 O   0  0  0  0  0  0  0  0  0  0  0  0
    6.1476   -0.5265    2.4995 O   0  0  0  0  0  0  0  0  0  0  0  0
    4.9686   -0.0504    0.2421 O   0  0  0  0  0  0  0  0  0  0  0  0
    5.0788    1.7103    1.9791 O   0  0  0  0  0  0  0  0  0  0  0  0
    5.4222    1.8445    2.8787 H   0  0  0  0  0  0  0  0  0  0  0  0
  1  6  1  0  0  0  0
  2  1  2  0  0  0  0
  2  3  1  0  0  0  0
  3  4  2  0  0  0  0
  4  5  1  0  0  0  0
  5 12  1  0  0  0  0
  6 11  1  0  0  0  0
  6  5  2  0  0  0  0
  7  1  1  0  0  0  0
  8  2  1  0  0  0  0
 10  9  3  0  0  0  0
 13 15  1  0  0  0  0
 14 18  1  0  0  0  0
 14 15  1  0  0  0  0
 14 16  2  0  0  0  0
 17 14  2  0  0  0  0
 18 19  1  0  0  0  0
M  RAD  2   3   2   4   2
M  END
