Coordinates from ORCA-job Ph-N2-OOCH-B3LYPG-aug-cc-pVDZ-scan-d09-49-n400
 OpenBabel10311713223D

 19 19  0  0  1  0  0  0  0  0999 V2000
   -0.3729   -0.1132   -0.7368 C   0  0  0  0  0  0  0  0  0  0  0  0
    0.4810    0.8472   -1.1842 C   0  0  0  0  0  0  0  0  0  0  0  0
    1.5050    1.3291   -0.2976 C   0  0  0  0  0  0  0  0  0  0  0  0
    1.8332    0.6829    1.0001 C   0  0  1  0  0  0  0  0  0  0  0  0
    0.7312   -0.2045    1.4575 C   0  0  0  0  0  0  0  0  0  0  0  0
   -0.2607   -0.5989    0.6223 C   0  0  0  0  0  0  0  0  0  0  0  0
   -1.1594   -0.4943   -1.3856 H   0  0  0  0  0  0  0  0  0  0  0  0
    0.4046    1.2706   -2.1848 H   0  0  0  0  0  0  0  0  0  0  0  0
    2.2708    2.3771   -0.6731 N   0  0  0  0  0  0  0  0  0  0  0  0
    2.9249    3.2548   -0.9760 N   0  0  0  0  0  0  0  0  0  0  0  0
   -1.0196   -1.2911    0.9898 H   0  0  0  0  0  0  0  0  0  0  0  0
    0.7908   -0.5636    2.4832 H   0  0  0  0  0  0  0  0  0  0  0  0
    2.1616    1.3931    1.7639 H   0  0  0  0  0  0  0  0  0  0  0  0
    4.2030   -0.2969    1.9231 S   0  0  0  0  0  0  0  0  0  0  0  0
    3.5533   -0.2201    3.2394 O   0  0  0  0  0  0  0  0  0  0  0  0
    5.1415   -1.3617    1.5401 O   0  0  0  0  0  0  0  0  0  0  0  0
    3.0941   -0.2090    0.7380 O   0  0  0  0  0  0  0  0  0  0  0  0
    4.9878    1.1599    1.7649 O   0  0  0  0  0  0  0  0  0  0  0  0
    5.6918    1.0299    1.1072 H   0  0  0  0  0  0  0  0  0  0  0  0
  1  6  1  0  0  0  0
  2  1  1  0  0  0  0
  2  3  2  0  0  0  0
  3  4  1  0  0  0  0
  4  5  1  0  0  0  0
  4 13  1  1  0  0  0
  5 12  1  0  0  0  0
  6 11  1  0  0  0  0
  6  5  2  0  0  0  0
  7  1  1  0  0  0  0
  8  2  1  0  0  0  0
  9  3  1  0  0  0  0
 10  9  1  0  0  0  0
 14 15  2  0  0  0  0
 16 14  2  0  0  0  0
 17  4  1  0  0  0  0
 17 14  1  0  0  0  0
 18 14  1  0  0  0  0
 19 18  1  0  0  0  0
M  RAD  3   1   2   9   2  10   3
M  END
