Coordinates from ORCA-job Ph-N2-OOCH-B3LYPG-aug-cc-pVDZ-scan-d09-49-n400
 OpenBabel10311713223D

 19 17  0  0  0  0  0  0  0  0999 V2000
   -1.1171    0.3055   -0.5378 C   0  0  0  0  0  0  0  0  0  0  0  0
    0.0098    0.8642   -1.1907 C   0  0  0  0  0  0  0  0  0  0  0  0
    1.0773    0.6990   -0.3548 C   0  0  0  0  0  0  0  0  0  0  0  0
    1.3347    0.2050    0.7857 C   0  0  0  0  0  0  0  0  0  0  0  0
    0.1999   -0.3511    1.4358 C   0  0  0  0  0  0  0  0  0  0  0  0
   -1.0186   -0.2826    0.7365 C   0  0  0  0  0  0  0  0  0  0  0  0
   -2.0792    0.3404   -1.0517 H   0  0  0  0  0  0  0  0  0  0  0  0
   -0.0204    1.3263   -2.1723 H   0  0  0  0  0  0  0  0  0  0  0  0
    2.8957    1.7373   -1.6534 N   0  0  0  0  0  0  0  0  0  0  0  0
    3.9102    2.1481   -1.7962 N   0  0  0  0  0  0  0  0  0  0  0  0
   -1.9167   -0.7003    1.1942 H   0  0  0  0  0  0  0  0  0  0  0  0
    0.2591   -0.8137    2.4212 H   0  0  0  0  0  0  0  0  0  0  0  0
    2.8897   -0.0100    1.7463 H   0  0  0  0  0  0  0  0  0  0  0  0
    5.0715    0.0331    1.7193 S   0  0  0  0  0  0  0  0  0  0  0  0
    3.6253   -0.2343    2.3984 O   0  0  0  0  0  0  0  0  0  0  0  0
    6.0599   -0.5988    2.6039 O   0  0  0  0  0  0  0  0  0  0  0  0
    5.0052   -0.2033    0.2717 O   0  0  0  0  0  0  0  0  0  0  0  0
    5.2248    1.6761    1.8682 O   0  0  0  0  0  0  0  0  0  0  0  0
    5.5504    1.8505    2.7672 H   0  0  0  0  0  0  0  0  0  0  0  0
  1  6  1  0  0  0  0
  2  1  2  0  0  0  0
  2  3  1  0  0  0  0
  3  4  2  0  0  0  0
  4  5  1  0  0  0  0
  5 12  1  0  0  0  0
  6 11  1  0  0  0  0
  6  5  2  0  0  0  0
  7  1  1  0  0  0  0
  8  2  1  0  0  0  0
 10  9  3  0  0  0  0
 13 15  1  0  0  0  0
 14 18  1  0  0  0  0
 14 15  1  0  0  0  0
 14 16  2  0  0  0  0
 17 14  2  0  0  0  0
 18 19  1  0  0  0  0
M  RAD  2   3   2   4   2
M  END
