Coordinates from ORCA-job Ph-N2-OOCH-B3LYPG-aug-cc-pVDZ-scan-d09-49-n400
 OpenBabel10311713223D

 19 17  0  0  0  0  0  0  0  0999 V2000
   -1.1352    0.3177   -0.4885 C   0  0  0  0  0  0  0  0  0  0  0  0
    0.0337    0.8282   -1.1117 C   0  0  0  0  0  0  0  0  0  0  0  0
    1.0654    0.6032   -0.2444 C   0  0  0  0  0  0  0  0  0  0  0  0
    1.2434    0.0865    0.8946 C   0  0  0  0  0  0  0  0  0  0  0  0
    0.0832   -0.4238    1.5255 C   0  0  0  0  0  0  0  0  0  0  0  0
   -1.1056   -0.2850    0.7832 C   0  0  0  0  0  0  0  0  0  0  0  0
   -2.0809    0.4029   -1.0268 H   0  0  0  0  0  0  0  0  0  0  0  0
    0.0498    1.2980   -2.0902 H   0  0  0  0  0  0  0  0  0  0  0  0
    3.2107    1.8838   -2.0032 N   0  0  0  0  0  0  0  0  0  0  0  0
    4.1902    2.3204   -2.2644 N   0  0  0  0  0  0  0  0  0  0  0  0
   -2.0385   -0.6597    1.2075 H   0  0  0  0  0  0  0  0  0  0  0  0
    0.0907   -0.8956    2.5076 H   0  0  0  0  0  0  0  0  0  0  0  0
    2.9137   -0.1308    1.7967 H   0  0  0  0  0  0  0  0  0  0  0  0
    5.0812    0.0699    1.7053 S   0  0  0  0  0  0  0  0  0  0  0  0
    3.6761   -0.3534    2.4034 O   0  0  0  0  0  0  0  0  0  0  0  0
    6.1337   -0.5431    2.5260 O   0  0  0  0  0  0  0  0  0  0  0  0
    4.9899   -0.0789    0.2483 O   0  0  0  0  0  0  0  0  0  0  0  0
    5.1124    1.7050    1.9606 O   0  0  0  0  0  0  0  0  0  0  0  0
    5.4477    1.8461    2.8620 H   0  0  0  0  0  0  0  0  0  0  0  0
  1  6  1  0  0  0  0
  2  1  2  0  0  0  0
  2  3  1  0  0  0  0
  3  4  2  0  0  0  0
  4  5  1  0  0  0  0
  5 12  1  0  0  0  0
  6 11  1  0  0  0  0
  6  5  2  0  0  0  0
  7  1  1  0  0  0  0
  8  2  1  0  0  0  0
 10  9  3  0  0  0  0
 13 15  1  0  0  0  0
 14 18  1  0  0  0  0
 14 15  1  0  0  0  0
 14 16  2  0  0  0  0
 17 14  2  0  0  0  0
 18 19  1  0  0  0  0
M  RAD  2   3   2   4   2
M  END
