Coordinates from ORCA-job Ph-N2-OOCH-B3LYPG-aug-cc-pVDZ-scan-d09-49-n400
 OpenBabel10311713223D

 19 19  0  0  1  0  0  0  0  0999 V2000
   -0.3664   -0.0982   -0.7324 C   0  0  0  0  0  0  0  0  0  0  0  0
    0.4937    0.8467   -1.1885 C   0  0  0  0  0  0  0  0  0  0  0  0
    1.5390    1.3453   -0.3152 C   0  0  0  0  0  0  0  0  0  0  0  0
    1.8504    0.6763    0.9939 C   0  0  1  0  0  0  0  0  0  0  0  0
    0.7405   -0.2015    1.4573 C   0  0  0  0  0  0  0  0  0  0  0  0
   -0.2595   -0.5831    0.6305 C   0  0  0  0  0  0  0  0  0  0  0  0
   -1.1576   -0.4753   -1.3783 H   0  0  0  0  0  0  0  0  0  0  0  0
    0.4202    1.2605   -2.1937 H   0  0  0  0  0  0  0  0  0  0  0  0
    2.2494    2.3160   -0.6582 N   0  0  0  0  0  0  0  0  0  0  0  0
    2.9092    3.1998   -0.9592 N   0  0  0  0  0  0  0  0  0  0  0  0
   -1.0265   -1.2647    1.0004 H   0  0  0  0  0  0  0  0  0  0  0  0
    0.8037   -0.5609    2.4829 H   0  0  0  0  0  0  0  0  0  0  0  0
    2.1689    1.3955    1.7548 H   0  0  0  0  0  0  0  0  0  0  0  0
    4.2024   -0.3001    1.9210 S   0  0  0  0  0  0  0  0  0  0  0  0
    3.5497   -0.2584    3.2364 O   0  0  0  0  0  0  0  0  0  0  0  0
    5.1479   -1.3468    1.5108 O   0  0  0  0  0  0  0  0  0  0  0  0
    3.0890   -0.2059    0.7326 O   0  0  0  0  0  0  0  0  0  0  0  0
    4.9619    1.1691    1.7907 O   0  0  0  0  0  0  0  0  0  0  0  0
    5.6458    1.0769    1.1058 H   0  0  0  0  0  0  0  0  0  0  0  0
  1  6  1  0  0  0  0
  2  1  1  0  0  0  0
  2  3  2  0  0  0  0
  3  4  1  0  0  0  0
  4  5  1  0  0  0  0
  4 13  1  1  0  0  0
  5 12  1  0  0  0  0
  6 11  1  0  0  0  0
  6  5  2  0  0  0  0
  7  1  1  0  0  0  0
  8  2  1  0  0  0  0
  9  3  1  0  0  0  0
 10  9  1  0  0  0  0
 14 15  2  0  0  0  0
 16 14  2  0  0  0  0
 17  4  1  0  0  0  0
 17 14  1  0  0  0  0
 18 14  1  0  0  0  0
 19 18  1  0  0  0  0
M  RAD  3   1   2   9   2  10   3
M  END
