Coordinates from ORCA-job Ph-N2-OOCH-B3LYPG-aug-cc-pVDZ-scan-d09-49-n400
 OpenBabel10311713223D

 19 17  0  0  0  0  0  0  0  0999 V2000
   -0.7169    0.4576   -0.3930 C   0  0  0  0  0  0  0  0  0  0  0  0
    0.6537    0.7242   -0.6495 C   0  0  0  0  0  0  0  0  0  0  0  0
    1.3413    0.2278    0.4201 C   0  0  0  0  0  0  0  0  0  0  0  0
    1.1119   -0.3782    1.5068 C   0  0  0  0  0  0  0  0  0  0  0  0
   -0.2537   -0.6442    1.7672 C   0  0  0  0  0  0  0  0  0  0  0  0
   -1.1492   -0.2028    0.7741 C   0  0  0  0  0  0  0  0  0  0  0  0
   -1.4484    0.7830   -1.1347 H   0  0  0  0  0  0  0  0  0  0  0  0
    1.0279    1.2307   -1.5336 H   0  0  0  0  0  0  0  0  0  0  0  0
    3.3320    2.2094   -3.0429 N   0  0  0  0  0  0  0  0  0  0  0  0
    4.4037    2.3959   -3.2308 N   0  0  0  0  0  0  0  0  0  0  0  0
   -2.2176   -0.3790    0.9093 H   0  0  0  0  0  0  0  0  0  0  0  0
   -0.6057   -1.1565    2.6625 H   0  0  0  0  0  0  0  0  0  0  0  0
    2.9196   -0.6564    2.1668 H   0  0  0  0  0  0  0  0  0  0  0  0
    4.7424    0.2869    1.4845 S   0  0  0  0  0  0  0  0  0  0  0  0
    3.8886   -0.7357    2.4064 O   0  0  0  0  0  0  0  0  0  0  0  0
    6.1465   -0.1184    1.6085 O   0  0  0  0  0  0  0  0  0  0  0  0
    4.0702    0.4828    0.1881 O   0  0  0  0  0  0  0  0  0  0  0  0
    4.5401    1.7238    2.2729 O   0  0  0  0  0  0  0  0  0  0  0  0
    5.1755    1.7407    3.0088 H   0  0  0  0  0  0  0  0  0  0  0  0
  1  6  1  0  0  0  0
  2  1  2  0  0  0  0
  2  3  1  0  0  0  0
  3  4  2  0  0  0  0
  4  5  1  0  0  0  0
  5 12  1  0  0  0  0
  6 11  1  0  0  0  0
  6  5  2  0  0  0  0
  7  1  1  0  0  0  0
  8  2  1  0  0  0  0
 10  9  3  0  0  0  0
 13 15  1  0  0  0  0
 14 16  2  0  0  0  0
 14 18  1  0  0  0  0
 14 15  1  0  0  0  0
 17 14  2  0  0  0  0
 18 19  1  0  0  0  0
M  RAD  2   3   2   4   2
M  END
