Coordinates from ORCA-job Ph-N2-OOCH-B3LYPG-aug-cc-pVDZ-scan-d09-49-n400
 OpenBabel10311713223D

 19 17  0  0  0  0  0  0  0  0999 V2000
   -1.1277    0.3257   -0.4523 C   0  0  0  0  0  0  0  0  0  0  0  0
    0.0747    0.8033   -1.0372 C   0  0  0  0  0  0  0  0  0  0  0  0
    1.0745    0.5366   -0.1432 C   0  0  0  0  0  0  0  0  0  0  0  0
    1.1938    0.0027    0.9942 C   0  0  0  0  0  0  0  0  0  0  0  0
    0.0041   -0.4754    1.5902 C   0  0  0  0  0  0  0  0  0  0  0  0
   -1.1563   -0.2894    0.8133 C   0  0  0  0  0  0  0  0  0  0  0  0
   -2.0542    0.4475   -1.0164 H   0  0  0  0  0  0  0  0  0  0  0  0
    0.1327    1.2813   -2.0102 H   0  0  0  0  0  0  0  0  0  0  0  0
    3.4320    1.9922   -2.2760 N   0  0  0  0  0  0  0  0  0  0  0  0
    4.3790    2.4444   -2.6185 N   0  0  0  0  0  0  0  0  0  0  0  0
   -2.1138   -0.6362    1.2053 H   0  0  0  0  0  0  0  0  0  0  0  0
   -0.0331   -0.9561    2.5672 H   0  0  0  0  0  0  0  0  0  0  0  0
    2.9125   -0.2207    1.8481 H   0  0  0  0  0  0  0  0  0  0  0  0
    5.0596    0.0985    1.6902 S   0  0  0  0  0  0  0  0  0  0  0  0
    3.7053   -0.4339    2.4149 O   0  0  0  0  0  0  0  0  0  0  0  0
    6.1717   -0.4958    2.4430 O   0  0  0  0  0  0  0  0  0  0  0  0
    4.9221    0.0144    0.2318 O   0  0  0  0  0  0  0  0  0  0  0  0
    5.0136    1.7183    2.0253 O   0  0  0  0  0  0  0  0  0  0  0  0
    5.3714    1.8340    2.9219 H   0  0  0  0  0  0  0  0  0  0  0  0
  1  6  1  0  0  0  0
  2  1  2  0  0  0  0
  2  3  1  0  0  0  0
  3  4  2  0  0  0  0
  4  5  1  0  0  0  0
  5 12  1  0  0  0  0
  6 11  1  0  0  0  0
  6  5  2  0  0  0  0
  7  1  1  0  0  0  0
  8  2  1  0  0  0  0
 10  9  3  0  0  0  0
 13 15  1  0  0  0  0
 14 18  1  0  0  0  0
 14 15  1  0  0  0  0
 14 16  2  0  0  0  0
 17 14  2  0  0  0  0
 18 19  1  0  0  0  0
M  RAD  2   3   2   4   2
M  END
