Coordinates from ORCA-job Ph-N2-OOCH-B3LYPG-aug-cc-pVDZ-scan-d09-49-n400
 OpenBabel10311713223D

 19 18  0  0  0  0  0  0  0  0999 V2000
   -0.7209    0.0931   -0.7724 C   0  0  0  0  0  0  0  0  0  0  0  0
    0.4769    0.7664   -1.0265 C   0  0  0  0  0  0  0  0  0  0  0  0
    1.3591    0.8368    0.0447 C   0  0  0  0  0  0  0  0  0  0  0  0
    1.1916    0.3137    1.3148 C   0  0  0  0  0  0  0  0  0  0  0  0
   -0.0261   -0.3401    1.5254 C   0  0  0  0  0  0  0  0  0  0  0  0
   -0.9673   -0.4517    0.4942 C   0  0  0  0  0  0  0  0  0  0  0  0
   -1.4562   -0.0045   -1.5699 H   0  0  0  0  0  0  0  0  0  0  0  0
    0.7060    1.1982   -1.9978 H   0  0  0  0  0  0  0  0  0  0  0  0
    2.6698    1.6349   -0.2448 N   0  0  0  0  0  0  0  0  0  0  0  0
    3.3686    2.4253   -0.5854 N   0  0  0  0  0  0  0  0  0  0  0  0
   -1.9051   -0.9765    0.6765 H   0  0  0  0  0  0  0  0  0  0  0  0
   -0.2274   -0.7757    2.5032 H   0  0  0  0  0  0  0  0  0  0  0  0
    1.9828    0.4119    2.0632 H   0  0  0  0  0  0  0  0  0  0  0  0
    4.7786    0.1458    1.5300 S   0  0  0  0  0  0  0  0  0  0  0  0
    3.9073    0.8742    2.5235 O   0  0  0  0  0  0  0  0  0  0  0  0
    5.7305   -0.8372    2.1008 O   0  0  0  0  0  0  0  0  0  0  0  0
    3.9879   -0.3100    0.3203 O   0  0  0  0  0  0  0  0  0  0  0  0
    5.7221    1.3664    0.8145 O   0  0  0  0  0  0  0  0  0  0  0  0
    6.3836    1.6202    1.4771 H   0  0  0  0  0  0  0  0  0  0  0  0
  1  6  1  0  0  0  0
  2  1  2  0  0  0  0
  2  3  1  0  0  0  0
  3  4  2  0  0  0  0
  4  5  1  0  0  0  0
  4 13  1  0  0  0  0
  5 12  1  0  0  0  0
  6 11  1  0  0  0  0
  6  5  2  0  0  0  0
  7  1  1  0  0  0  0
  8  2  1  0  0  0  0
  9  3  1  0  0  0  0
 10  9  1  0  0  0  0
 14 16  2  0  0  0  0
 14 15  1  0  0  0  0
 17 14  2  0  0  0  0
 18 19  1  0  0  0  0
 18 14  1  0  0  0  0
M  RAD  3   9   2  10   3  15   2
M  END
