Coordinates from ORCA-job Ph-N2-OOCH-B3LYPG-aug-cc-pVDZ-scan-d09-49-n400
 OpenBabel10311713223D

 19 18  0  0  0  0  0  0  0  0999 V2000
   -0.7760    0.1131   -0.7538 C   0  0  0  0  0  0  0  0  0  0  0  0
    0.4357    0.7500   -1.0505 C   0  0  0  0  0  0  0  0  0  0  0  0
    1.3329    0.7809   -0.0007 C   0  0  0  0  0  0  0  0  0  0  0  0
    1.2134    0.2740    1.2713 C   0  0  0  0  0  0  0  0  0  0  0  0
   -0.0211   -0.3418    1.5201 C   0  0  0  0  0  0  0  0  0  0  0  0
   -0.9979   -0.4240    0.5201 C   0  0  0  0  0  0  0  0  0  0  0  0
   -1.5386    0.0401   -1.5282 H   0  0  0  0  0  0  0  0  0  0  0  0
    0.6497    1.1761   -2.0271 H   0  0  0  0  0  0  0  0  0  0  0  0
    2.7561    1.5835   -0.3555 N   0  0  0  0  0  0  0  0  0  0  0  0
    3.3820    2.4035   -0.7628 N   0  0  0  0  0  0  0  0  0  0  0  0
   -1.9452   -0.9188    0.7333 H   0  0  0  0  0  0  0  0  0  0  0  0
   -0.2035   -0.7678    2.5059 H   0  0  0  0  0  0  0  0  0  0  0  0
    2.0274    0.3533    1.9996 H   0  0  0  0  0  0  0  0  0  0  0  0
    4.8096    0.1592    1.5645 S   0  0  0  0  0  0  0  0  0  0  0  0
    3.8997    0.7585    2.6033 O   0  0  0  0  0  0  0  0  0  0  0  0
    5.7914   -0.8394    2.0516 O   0  0  0  0  0  0  0  0  0  0  0  0
    4.0481   -0.2303    0.3064 O   0  0  0  0  0  0  0  0  0  0  0  0
    5.7112    1.4636    0.9629 O   0  0  0  0  0  0  0  0  0  0  0  0
    6.3867    1.6577    1.6312 H   0  0  0  0  0  0  0  0  0  0  0  0
  1  6  1  0  0  0  0
  2  1  2  0  0  0  0
  2  3  1  0  0  0  0
  3  4  2  0  0  0  0
  4  5  1  0  0  0  0
  4 13  1  0  0  0  0
  5 12  1  0  0  0  0
  6 11  1  0  0  0  0
  6  5  2  0  0  0  0
  7  1  1  0  0  0  0
  8  2  1  0  0  0  0
  9  3  1  0  0  0  0
 10  9  1  0  0  0  0
 14 16  2  0  0  0  0
 14 15  1  0  0  0  0
 17 14  2  0  0  0  0
 18 14  1  0  0  0  0
 18 19  1  0  0  0  0
M  RAD  3   9   2  10   3  15   2
M  END
