Coordinates from ORCA-job Ph-N2-OOCH-B3LYPG-aug-cc-pVDZ-scan-d09-49-n400
 OpenBabel10311713223D

 19 18  0  0  0  0  0  0  0  0999 V2000
   -0.7172    0.0931   -0.7744 C   0  0  0  0  0  0  0  0  0  0  0  0
    0.4786    0.7692   -1.0241 C   0  0  0  0  0  0  0  0  0  0  0  0
    1.3644    0.8446    0.0466 C   0  0  0  0  0  0  0  0  0  0  0  0
    1.1887    0.3166    1.3161 C   0  0  0  0  0  0  0  0  0  0  0  0
   -0.0266   -0.3400    1.5245 C   0  0  0  0  0  0  0  0  0  0  0  0
   -0.9655   -0.4534    0.4912 C   0  0  0  0  0  0  0  0  0  0  0  0
   -1.4505   -0.0059   -1.5736 H   0  0  0  0  0  0  0  0  0  0  0  0
    0.7081    1.2022   -1.9951 H   0  0  0  0  0  0  0  0  0  0  0  0
    2.6564    1.6369   -0.2356 N   0  0  0  0  0  0  0  0  0  0  0  0
    3.3616    2.4239   -0.5719 N   0  0  0  0  0  0  0  0  0  0  0  0
   -1.9023   -0.9807    0.6710 H   0  0  0  0  0  0  0  0  0  0  0  0
   -0.2291   -0.7771    2.5013 H   0  0  0  0  0  0  0  0  0  0  0  0
    1.9775    0.4154    2.0669 H   0  0  0  0  0  0  0  0  0  0  0  0
    4.7800    0.1436    1.5306 S   0  0  0  0  0  0  0  0  0  0  0  0
    3.9115    0.8828    2.5188 O   0  0  0  0  0  0  0  0  0  0  0  0
    5.7325   -0.8341    2.1094 O   0  0  0  0  0  0  0  0  0  0  0  0
    3.9864   -0.3217    0.3272 O   0  0  0  0  0  0  0  0  0  0  0  0
    5.7234    1.3566    0.8013 O   0  0  0  0  0  0  0  0  0  0  0  0
    6.3838    1.6192    1.4615 H   0  0  0  0  0  0  0  0  0  0  0  0
  1  6  1  0  0  0  0
  2  1  2  0  0  0  0
  2  3  1  0  0  0  0
  3  4  2  0  0  0  0
  4  5  1  0  0  0  0
  4 13  1  0  0  0  0
  5 12  1  0  0  0  0
  6 11  1  0  0  0  0
  6  5  2  0  0  0  0
  7  1  1  0  0  0  0
  8  2  1  0  0  0  0
  9  3  1  0  0  0  0
 10  9  1  0  0  0  0
 14 16  2  0  0  0  0
 14 15  1  0  0  0  0
 17 14  2  0  0  0  0
 18 19  1  0  0  0  0
 18 14  1  0  0  0  0
M  RAD  3   9   2  10   3  15   2
M  END
