Coordinates from ORCA-job Ph-N2-OOCH-B3LYPG-aug-cc-pVDZ-scan-d09-49-n400
 OpenBabel10311713223D

 19 19  0  0  1  0  0  0  0  0999 V2000
   -0.3770   -0.0365   -0.7261 C   0  0  0  0  0  0  0  0  0  0  0  0
    0.5156    0.8623   -1.1895 C   0  0  0  0  0  0  0  0  0  0  0  0
    1.6250    1.3574   -0.3380 C   0  0  0  0  0  0  0  0  0  0  0  0
    1.8719    0.6250    1.0025 C   0  0  1  0  0  0  0  0  0  0  0  0
    0.7375   -0.2335    1.4478 C   0  0  0  0  0  0  0  0  0  0  0  0
   -0.2857   -0.5525    0.6312 C   0  0  0  0  0  0  0  0  0  0  0  0
   -1.1883   -0.3737   -1.3705 H   0  0  0  0  0  0  0  0  0  0  0  0
    0.4626    1.2753   -2.1969 H   0  0  0  0  0  0  0  0  0  0  0  0
    2.2522    2.1282   -0.6102 N   0  0  0  0  0  0  0  0  0  0  0  0
    2.9765    2.9940   -0.9024 N   0  0  0  0  0  0  0  0  0  0  0  0
   -1.0771   -1.2104    0.9916 H   0  0  0  0  0  0  0  0  0  0  0  0
    0.8029   -0.6201    2.4641 H   0  0  0  0  0  0  0  0  0  0  0  0
    2.1598    1.3602    1.7630 H   0  0  0  0  0  0  0  0  0  0  0  0
    4.2293   -0.2712    1.9268 S   0  0  0  0  0  0  0  0  0  0  0  0
    3.6007   -0.2759    3.2530 O   0  0  0  0  0  0  0  0  0  0  0  0
    5.2058   -1.2683    1.4757 O   0  0  0  0  0  0  0  0  0  0  0  0
    3.0751   -0.2381    0.7566 O   0  0  0  0  0  0  0  0  0  0  0  0
    4.8873    1.2375    1.7893 O   0  0  0  0  0  0  0  0  0  0  0  0
    5.4877    1.2316    1.0236 H   0  0  0  0  0  0  0  0  0  0  0  0
  1  6  1  0  0  0  0
  2  1  1  0  0  0  0
  2  3  2  0  0  0  0
  3  4  1  0  0  0  0
  4  5  1  0  0  0  0
  4 13  1  1  0  0  0
  5 12  1  0  0  0  0
  6 11  1  0  0  0  0
  6  5  2  0  0  0  0
  7  1  1  0  0  0  0
  8  2  1  0  0  0  0
  9  3  1  0  0  0  0
 10  9  1  0  0  0  0
 14 15  2  0  0  0  0
 16 14  2  0  0  0  0
 17  4  1  0  0  0  0
 17 14  1  0  0  0  0
 18 14  1  0  0  0  0
 19 18  1  0  0  0  0
M  RAD  3   1   2   9   2  10   3
M  END
