Coordinates from ORCA-job Ph-N2-OOCH-B3LYPG-aug-cc-pVDZ-scan-d09-49-n400
 OpenBabel10311713223D

 19 17  0  0  0  0  0  0  0  0999 V2000
   -0.6345    0.4628   -0.3959 C   0  0  0  0  0  0  0  0  0  0  0  0
    0.7486    0.6990   -0.6112 C   0  0  0  0  0  0  0  0  0  0  0  0
    1.3913    0.1922    0.4809 C   0  0  0  0  0  0  0  0  0  0  0  0
    1.1198   -0.4038    1.5647 C   0  0  0  0  0  0  0  0  0  0  0  0
   -0.2600   -0.6385    1.7807 C   0  0  0  0  0  0  0  0  0  0  0  0
   -1.1161   -0.1829    0.7600 C   0  0  0  0  0  0  0  0  0  0  0  0
   -1.3354    0.8001   -1.1614 H   0  0  0  0  0  0  0  0  0  0  0  0
    1.1561    1.1925   -1.4884 H   0  0  0  0  0  0  0  0  0  0  0  0
    3.2031    2.3396   -3.3982 N   0  0  0  0  0  0  0  0  0  0  0  0
    4.2062    2.6177   -3.7659 N   0  0  0  0  0  0  0  0  0  0  0  0
   -2.1917   -0.3355    0.8636 H   0  0  0  0  0  0  0  0  0  0  0  0
   -0.6500   -1.1394    2.6668 H   0  0  0  0  0  0  0  0  0  0  0  0
    2.8919   -0.7031    2.2612 H   0  0  0  0  0  0  0  0  0  0  0  0
    4.7200    0.2399    1.5952 S   0  0  0  0  0  0  0  0  0  0  0  0
    3.8614   -0.7848    2.5073 O   0  0  0  0  0  0  0  0  0  0  0  0
    6.1233   -0.1686    1.7169 O   0  0  0  0  0  0  0  0  0  0  0  0
    4.0510    0.4464    0.2975 O   0  0  0  0  0  0  0  0  0  0  0  0
    4.5210    1.6732    2.3906 O   0  0  0  0  0  0  0  0  0  0  0  0
    5.1556    1.6847    3.1272 H   0  0  0  0  0  0  0  0  0  0  0  0
  1  6  1  0  0  0  0
  2  1  2  0  0  0  0
  2  3  1  0  0  0  0
  3  4  2  0  0  0  0
  4  5  1  0  0  0  0
  5 12  1  0  0  0  0
  6 11  1  0  0  0  0
  6  5  2  0  0  0  0
  7  1  1  0  0  0  0
  8  2  1  0  0  0  0
 10  9  3  0  0  0  0
 13 15  1  0  0  0  0
 14 16  2  0  0  0  0
 14 18  1  0  0  0  0
 14 15  1  0  0  0  0
 17 14  2  0  0  0  0
 18 19  1  0  0  0  0
M  RAD  2   3   2   4   2
M  END
