Coordinates from ORCA-job Ph-N2-OOCH-B3LYPG-aug-cc-pVDZ-scan-d09-49-n400
 OpenBabel10311713223D

 19 19  0  0  1  0  0  0  0  0999 V2000
   -0.3933    0.0058   -0.7245 C   0  0  0  0  0  0  0  0  0  0  0  0
    0.5223    0.8808   -1.1819 C   0  0  0  0  0  0  0  0  0  0  0  0
    1.6692    1.3406   -0.3372 C   0  0  0  0  0  0  0  0  0  0  0  0
    1.8716    0.5812    1.0195 C   0  0  1  0  0  0  0  0  0  0  0  0
    0.7237   -0.2717    1.4388 C   0  0  0  0  0  0  0  0  0  0  0  0
   -0.3097   -0.5450    0.6210 C   0  0  0  0  0  0  0  0  0  0  0  0
   -1.2195   -0.2938   -1.3691 H   0  0  0  0  0  0  0  0  0  0  0  0
    0.4804    1.3092   -2.1835 H   0  0  0  0  0  0  0  0  0  0  0  0
    2.2902    2.0287   -0.5880 N   0  0  0  0  0  0  0  0  0  0  0  0
    3.0685    2.8629   -0.8767 N   0  0  0  0  0  0  0  0  0  0  0  0
   -1.1144   -1.1940    0.9677 H   0  0  0  0  0  0  0  0  0  0  0  0
    0.7848   -0.6863    2.4448 H   0  0  0  0  0  0  0  0  0  0  0  0
    2.1404    1.3204    1.7838 H   0  0  0  0  0  0  0  0  0  0  0  0
    4.2540   -0.2365    1.9363 S   0  0  0  0  0  0  0  0  0  0  0  0
    3.6565   -0.2399    3.2764 O   0  0  0  0  0  0  0  0  0  0  0  0
    5.2521   -1.2072    1.4771 O   0  0  0  0  0  0  0  0  0  0  0  0
    3.0672   -0.2757    0.7927 O   0  0  0  0  0  0  0  0  0  0  0  0
    4.8412    1.2935    1.7536 O   0  0  0  0  0  0  0  0  0  0  0  0
    5.3765    1.3185    0.9407 H   0  0  0  0  0  0  0  0  0  0  0  0
  1  6  1  0  0  0  0
  2  1  1  0  0  0  0
  2  3  2  0  0  0  0
  3  4  1  0  0  0  0
  4  5  1  0  0  0  0
  4 13  1  1  0  0  0
  5 12  1  0  0  0  0
  6 11  1  0  0  0  0
  6  5  2  0  0  0  0
  7  1  1  0  0  0  0
  8  2  1  0  0  0  0
  9  3  1  0  0  0  0
 10  9  1  0  0  0  0
 14 15  2  0  0  0  0
 16 14  2  0  0  0  0
 17  4  1  0  0  0  0
 17 14  1  0  0  0  0
 18 14  1  0  0  0  0
 19 18  1  0  0  0  0
M  RAD  3   1   2   9   2  10   3
M  END
