Coordinates from ORCA-job Ph-N2-OOCH-B3LYPG-aug-cc-pVDZ-scan-d09-49-n400
 OpenBabel10311713223D

 19 18  0  0  0  0  0  0  0  0999 V2000
   -0.6983    0.0969   -0.7810 C   0  0  0  0  0  0  0  0  0  0  0  0
    0.4829    0.7963   -1.0168 C   0  0  0  0  0  0  0  0  0  0  0  0
    1.3796    0.8883    0.0538 C   0  0  0  0  0  0  0  0  0  0  0  0
    1.1903    0.3375    1.3208 C   0  0  0  0  0  0  0  0  0  0  0  0
   -0.0099   -0.3441    1.5182 C   0  0  0  0  0  0  0  0  0  0  0  0
   -0.9417   -0.4660    0.4795 C   0  0  0  0  0  0  0  0  0  0  0  0
   -1.4266   -0.0098   -1.5836 H   0  0  0  0  0  0  0  0  0  0  0  0
    0.7064    1.2421   -1.9839 H   0  0  0  0  0  0  0  0  0  0  0  0
    2.5923    1.6626   -0.2022 N   0  0  0  0  0  0  0  0  0  0  0  0
    3.3625    2.4011   -0.5065 N   0  0  0  0  0  0  0  0  0  0  0  0
   -1.8694   -1.0126    0.6497 H   0  0  0  0  0  0  0  0  0  0  0  0
   -0.2082   -0.7953    2.4893 H   0  0  0  0  0  0  0  0  0  0  0  0
    1.9756    0.4427    2.0744 H   0  0  0  0  0  0  0  0  0  0  0  0
    4.7651    0.1262    1.5358 S   0  0  0  0  0  0  0  0  0  0  0  0
    3.9033    0.9264    2.4859 O   0  0  0  0  0  0  0  0  0  0  0  0
    5.7264   -0.8063    2.1726 O   0  0  0  0  0  0  0  0  0  0  0  0
    3.9672   -0.4053    0.3694 O   0  0  0  0  0  0  0  0  0  0  0  0
    5.7040    1.3028    0.7351 O   0  0  0  0  0  0  0  0  0  0  0  0
    6.3602    1.6079    1.3810 H   0  0  0  0  0  0  0  0  0  0  0  0
  1  6  1  0  0  0  0
  2  1  2  0  0  0  0
  2  3  1  0  0  0  0
  3  4  2  0  0  0  0
  4  5  1  0  0  0  0
  4 13  1  0  0  0  0
  5 12  1  0  0  0  0
  6 11  1  0  0  0  0
  6  5  2  0  0  0  0
  7  1  1  0  0  0  0
  8  2  1  0  0  0  0
  9  3  1  0  0  0  0
 10  9  1  0  0  0  0
 14 16  2  0  0  0  0
 14 15  1  0  0  0  0
 17 14  2  0  0  0  0
 18 19  1  0  0  0  0
 18 14  1  0  0  0  0
M  RAD  3   9   2  10   3  15   2
M  END
