Coordinates from ORCA-job Ph-N2-OOCH-B3LYPG-aug-cc-pVDZ-scan-d09-49-n400
 OpenBabel10311713223D

 19 17  0  0  0  0  0  0  0  0999 V2000
   -0.8992    0.1690   -0.6739 C   0  0  0  0  0  0  0  0  0  0  0  0
    0.2942    0.7820   -1.1122 C   0  0  0  0  0  0  0  0  0  0  0  0
    1.2278    0.7274   -0.1235 C   0  0  0  0  0  0  0  0  0  0  0  0
    1.3321    0.2588    1.1250 C   0  0  0  0  0  0  0  0  0  0  0  0
    0.0965   -0.3365    1.4944 C   0  0  0  0  0  0  0  0  0  0  0  0
   -0.9878   -0.3780    0.6123 C   0  0  0  0  0  0  0  0  0  0  0  0
   -1.7427    0.1342   -1.3632 H   0  0  0  0  0  0  0  0  0  0  0  0
    0.4227    1.2201   -2.0966 H   0  0  0  0  0  0  0  0  0  0  0  0
    2.8965    1.6755   -0.7625 N   0  0  0  0  0  0  0  0  0  0  0  0
    3.6528    2.3387   -1.2145 N   0  0  0  0  0  0  0  0  0  0  0  0
   -1.9182   -0.8486    0.9285 H   0  0  0  0  0  0  0  0  0  0  0  0
    0.0303   -0.7721    2.4917 H   0  0  0  0  0  0  0  0  0  0  0  0
    2.2449    0.2839    1.7892 H   0  0  0  0  0  0  0  0  0  0  0  0
    4.7973    0.0818    1.6622 S   0  0  0  0  0  0  0  0  0  0  0  0
    3.6778    0.3442    2.6606 O   0  0  0  0  0  0  0  0  0  0  0  0
    5.9388   -0.6966    2.2063 O   0  0  0  0  0  0  0  0  0  0  0  0
    4.2488   -0.3182    0.3224 O   0  0  0  0  0  0  0  0  0  0  0  0
    5.4318    1.6256    1.3412 O   0  0  0  0  0  0  0  0  0  0  0  0
    6.2172    1.7001    1.9041 H   0  0  0  0  0  0  0  0  0  0  0  0
  1  6  1  0  0  0  0
  2  1  2  0  0  0  0
  2  3  1  0  0  0  0
  3  4  2  0  0  0  0
  4  5  1  0  0  0  0
  4 13  1  0  0  0  0
  5 12  1  0  0  0  0
  6 11  1  0  0  0  0
  6  5  2  0  0  0  0
  7  1  1  0  0  0  0
  8  2  1  0  0  0  0
 10  9  3  0  0  0  0
 14 16  2  0  0  0  0
 14 15  1  0  0  0  0
 17 14  2  0  0  0  0
 18 14  1  0  0  0  0
 18 19  1  0  0  0  0
M  RAD  2   3   2  15   2
M  END
