Coordinates from ORCA-job Ph-N2-OOCH-B3LYPG-aug-cc-pVDZ-scan-d09-49-n400
 OpenBabel10311713223D

 19 17  0  0  0  0  0  0  0  0999 V2000
   -0.9006    0.1753   -0.6735 C   0  0  0  0  0  0  0  0  0  0  0  0
    0.2957    0.7822   -1.1119 C   0  0  0  0  0  0  0  0  0  0  0  0
    1.2317    0.7222   -0.1253 C   0  0  0  0  0  0  0  0  0  0  0  0
    1.3327    0.2502    1.1234 C   0  0  0  0  0  0  0  0  0  0  0  0
    0.0944   -0.3381    1.4933 C   0  0  0  0  0  0  0  0  0  0  0  0
   -0.9910   -0.3726    0.6122 C   0  0  0  0  0  0  0  0  0  0  0  0
   -1.7450    0.1458   -1.3620 H   0  0  0  0  0  0  0  0  0  0  0  0
    0.4252    1.2209   -2.0959 H   0  0  0  0  0  0  0  0  0  0  0  0
    2.8966    1.6576   -0.7611 N   0  0  0  0  0  0  0  0  0  0  0  0
    3.6498    2.3216   -1.2171 N   0  0  0  0  0  0  0  0  0  0  0  0
   -1.9238   -0.8384    0.9288 H   0  0  0  0  0  0  0  0  0  0  0  0
    0.0263   -0.7741    2.4903 H   0  0  0  0  0  0  0  0  0  0  0  0
    2.2447    0.2707    1.7863 H   0  0  0  0  0  0  0  0  0  0  0  0
    4.8014    0.0857    1.6632 S   0  0  0  0  0  0  0  0  0  0  0  0
    3.6828    0.3327    2.6651 O   0  0  0  0  0  0  0  0  0  0  0  0
    5.9510   -0.6878    2.1972 O   0  0  0  0  0  0  0  0  0  0  0  0
    4.2529   -0.3098    0.3213 O   0  0  0  0  0  0  0  0  0  0  0  0
    5.4236    1.6366    1.3502 O   0  0  0  0  0  0  0  0  0  0  0  0
    6.2132    1.7109    1.9070 H   0  0  0  0  0  0  0  0  0  0  0  0
  1  6  1  0  0  0  0
  2  1  2  0  0  0  0
  2  3  1  0  0  0  0
  3  4  2  0  0  0  0
  4  5  1  0  0  0  0
  4 13  1  0  0  0  0
  5 12  1  0  0  0  0
  6 11  1  0  0  0  0
  6  5  2  0  0  0  0
  7  1  1  0  0  0  0
  8  2  1  0  0  0  0
 10  9  3  0  0  0  0
 14 16  2  0  0  0  0
 14 15  1  0  0  0  0
 17 14  2  0  0  0  0
 18 14  1  0  0  0  0
 18 19  1  0  0  0  0
M  RAD  2   3   2  15   2
M  END
