Coordinates from ORCA-job Ph-N2-OOCH-B3LYPG-aug-cc-pVDZ-scan-d09-49-n400
 OpenBabel10311713223D

 19 17  0  0  0  0  0  0  0  0999 V2000
   -1.0674    0.3355   -0.4243 C   0  0  0  0  0  0  0  0  0  0  0  0
    0.1903    0.7327   -0.9505 C   0  0  0  0  0  0  0  0  0  0  0  0
    1.1236    0.4122   -0.0029 C   0  0  0  0  0  0  0  0  0  0  0  0
    1.1458   -0.1193    1.1401 C   0  0  0  0  0  0  0  0  0  0  0  0
   -0.0960   -0.5196    1.6802 C   0  0  0  0  0  0  0  0  0  0  0  0
   -1.2001   -0.2669    0.8416 C   0  0  0  0  0  0  0  0  0  0  0  0
   -1.9548    0.5097   -1.0356 H   0  0  0  0  0  0  0  0  0  0  0  0
    0.3281    1.1992   -1.9212 H   0  0  0  0  0  0  0  0  0  0  0  0
    3.5667    2.1955   -2.7231 N   0  0  0  0  0  0  0  0  0  0  0  0
    4.4435    2.6849   -3.1820 N   0  0  0  0  0  0  0  0  0  0  0  0
   -2.1969   -0.5499    1.1841 H   0  0  0  0  0  0  0  0  0  0  0  0
   -0.2133   -0.9891    2.6562 H   0  0  0  0  0  0  0  0  0  0  0  0
    2.9107   -0.3484    1.9496 H   0  0  0  0  0  0  0  0  0  0  0  0
    5.0203    0.1177    1.7047 S   0  0  0  0  0  0  0  0  0  0  0  0
    3.7424   -0.5473    2.4606 O   0  0  0  0  0  0  0  0  0  0  0  0
    6.2064   -0.4635    2.3462 O   0  0  0  0  0  0  0  0  0  0  0  0
    4.8002    0.1337    0.2536 O   0  0  0  0  0  0  0  0  0  0  0  0
    4.9050    1.7022    2.1660 O   0  0  0  0  0  0  0  0  0  0  0  0
    5.3072    1.7723    3.0483 H   0  0  0  0  0  0  0  0  0  0  0  0
  1  6  1  0  0  0  0
  2  1  2  0  0  0  0
  2  3  1  0  0  0  0
  3  4  2  0  0  0  0
  4  5  1  0  0  0  0
  5 12  1  0  0  0  0
  6 11  1  0  0  0  0
  6  5  2  0  0  0  0
  7  1  1  0  0  0  0
  8  2  1  0  0  0  0
 10  9  3  0  0  0  0
 13 15  1  0  0  0  0
 14 18  1  0  0  0  0
 14 16  2  0  0  0  0
 14 15  1  0  0  0  0
 17 14  2  0  0  0  0
 18 19  1  0  0  0  0
M  RAD  2   3   2   4   2
M  END
