Coordinates from ORCA-job Ph-N2-OOCH-B3LYPG-aug-cc-pVDZ-scan-d09-49-n400
 OpenBabel10311713223D

 19 17  0  0  0  0  0  0  0  0999 V2000
   -1.1052    0.3076   -0.5474 C   0  0  0  0  0  0  0  0  0  0  0  0
    0.0170    0.9016   -1.1741 C   0  0  0  0  0  0  0  0  0  0  0  0
    1.0800    0.7411   -0.3332 C   0  0  0  0  0  0  0  0  0  0  0  0
    1.3440    0.2283    0.8002 C   0  0  0  0  0  0  0  0  0  0  0  0
    0.2089   -0.3629    1.4213 C   0  0  0  0  0  0  0  0  0  0  0  0
   -1.0049   -0.3053    0.7153 C   0  0  0  0  0  0  0  0  0  0  0  0
   -2.0622    0.3337   -1.0705 H   0  0  0  0  0  0  0  0  0  0  0  0
   -0.0093    1.3844   -2.1464 H   0  0  0  0  0  0  0  0  0  0  0  0
    2.8619    1.7679   -1.5386 N   0  0  0  0  0  0  0  0  0  0  0  0
    3.9035    2.0982   -1.6956 N   0  0  0  0  0  0  0  0  0  0  0  0
   -1.8971   -0.7514    1.1573 H   0  0  0  0  0  0  0  0  0  0  0  0
    0.2704   -0.8455    2.3972 H   0  0  0  0  0  0  0  0  0  0  0  0
    2.8779    0.0237    1.7587 H   0  0  0  0  0  0  0  0  0  0  0  0
    5.0597    0.0070    1.7217 S   0  0  0  0  0  0  0  0  0  0  0  0
    3.6127   -0.1931    2.4185 O   0  0  0  0  0  0  0  0  0  0  0  0
    6.0430   -0.5613    2.6540 O   0  0  0  0  0  0  0  0  0  0  0  0
    4.9962   -0.3432    0.2960 O   0  0  0  0  0  0  0  0  0  0  0  0
    5.2260    1.6570    1.7352 O   0  0  0  0  0  0  0  0  0  0  0  0
    5.5393    1.9035    2.6218 H   0  0  0  0  0  0  0  0  0  0  0  0
  1  6  1  0  0  0  0
  2  1  2  0  0  0  0
  2  3  1  0  0  0  0
  3  4  2  0  0  0  0
  4  5  1  0  0  0  0
  5 12  1  0  0  0  0
  6 11  1  0  0  0  0
  6  5  2  0  0  0  0
  7  1  1  0  0  0  0
  8  2  1  0  0  0  0
 10  9  3  0  0  0  0
 13 15  1  0  0  0  0
 14 18  1  0  0  0  0
 14 15  1  0  0  0  0
 14 16  2  0  0  0  0
 17 14  2  0  0  0  0
 18 19  1  0  0  0  0
M  RAD  2   3   2   4   2
M  END
