Coordinates from ORCA-job Ph-N2-OOCH-B3LYPG-aug-cc-pVDZ-scan-d09-49-n400
 OpenBabel10311713223D

 19 18  0  0  0  0  0  0  0  0999 V2000
   -0.7599    0.1130   -0.7600 C   0  0  0  0  0  0  0  0  0  0  0  0
    0.4521    0.7510   -1.0441 C   0  0  0  0  0  0  0  0  0  0  0  0
    1.3536    0.7915    0.0077 C   0  0  0  0  0  0  0  0  0  0  0  0
    1.2090    0.2779    1.2800 C   0  0  0  0  0  0  0  0  0  0  0  0
   -0.0243   -0.3387    1.5205 C   0  0  0  0  0  0  0  0  0  0  0  0
   -0.9925   -0.4237    0.5122 C   0  0  0  0  0  0  0  0  0  0  0  0
   -1.5159    0.0376   -1.5405 H   0  0  0  0  0  0  0  0  0  0  0  0
    0.6714    1.1765   -2.0203 H   0  0  0  0  0  0  0  0  0  0  0  0
    2.7246    1.5711   -0.3246 N   0  0  0  0  0  0  0  0  0  0  0  0
    3.3552    2.3915   -0.7267 N   0  0  0  0  0  0  0  0  0  0  0  0
   -1.9408   -0.9202    0.7175 H   0  0  0  0  0  0  0  0  0  0  0  0
   -0.2155   -0.7645    2.5046 H   0  0  0  0  0  0  0  0  0  0  0  0
    2.0143    0.3579    2.0161 H   0  0  0  0  0  0  0  0  0  0  0  0
    4.8074    0.1600    1.5608 S   0  0  0  0  0  0  0  0  0  0  0  0
    3.9157    0.7754    2.6050 O   0  0  0  0  0  0  0  0  0  0  0  0
    5.7900   -0.8401    2.0423 O   0  0  0  0  0  0  0  0  0  0  0  0
    4.0256   -0.2373    0.3169 O   0  0  0  0  0  0  0  0  0  0  0  0
    5.7069    1.4526    0.9310 O   0  0  0  0  0  0  0  0  0  0  0  0
    6.3848    1.6601    1.5929 H   0  0  0  0  0  0  0  0  0  0  0  0
  1  6  1  0  0  0  0
  2  1  2  0  0  0  0
  2  3  1  0  0  0  0
  3  4  2  0  0  0  0
  4  5  1  0  0  0  0
  4 13  1  0  0  0  0
  5 12  1  0  0  0  0
  6 11  1  0  0  0  0
  6  5  2  0  0  0  0
  7  1  1  0  0  0  0
  8  2  1  0  0  0  0
  9  3  1  0  0  0  0
 10  9  1  0  0  0  0
 14 16  2  0  0  0  0
 14 15  1  0  0  0  0
 17 14  2  0  0  0  0
 18 14  1  0  0  0  0
 18 19  1  0  0  0  0
M  RAD  3   9   2  10   3  15   2
M  END
