Coordinates from ORCA-job Ph-N2-OOCH-B3LYPG-aug-cc-pVDZ-scan-d09-49-n400
 OpenBabel10311713223D

 19 17  0  0  0  0  0  0  0  0999 V2000
   -1.1155    0.3286   -0.4437 C   0  0  0  0  0  0  0  0  0  0  0  0
    0.1038    0.7859   -1.0101 C   0  0  0  0  0  0  0  0  0  0  0  0
    1.0832    0.5025   -0.0989 C   0  0  0  0  0  0  0  0  0  0  0  0
    1.1734   -0.0340    1.0388 C   0  0  0  0  0  0  0  0  0  0  0  0
   -0.0310   -0.4930    1.6177 C   0  0  0  0  0  0  0  0  0  0  0  0
   -1.1751   -0.2866    0.8213 C   0  0  0  0  0  0  0  0  0  0  0  0
   -2.0308    0.4660   -1.0223 H   0  0  0  0  0  0  0  0  0  0  0  0
    0.1859    1.2633   -1.9817 H   0  0  0  0  0  0  0  0  0  0  0  0
    3.4851    2.0433   -2.3858 N   0  0  0  0  0  0  0  0  0  0  0  0
    4.4168    2.5026   -2.7594 N   0  0  0  0  0  0  0  0  0  0  0  0
   -2.1448   -0.6172    1.1971 H   0  0  0  0  0  0  0  0  0  0  0  0
   -0.0918   -0.9734    2.5936 H   0  0  0  0  0  0  0  0  0  0  0  0
    2.9133   -0.2528    1.8732 H   0  0  0  0  0  0  0  0  0  0  0  0
    5.0520    0.1076    1.6869 S   0  0  0  0  0  0  0  0  0  0  0  0
    3.7181   -0.4611    2.4235 O   0  0  0  0  0  0  0  0  0  0  0  0
    6.1854   -0.4832    2.4101 O   0  0  0  0  0  0  0  0  0  0  0  0
    4.8923    0.0496    0.2293 O   0  0  0  0  0  0  0  0  0  0  0  0
    4.9858    1.7195    2.0544 O   0  0  0  0  0  0  0  0  0  0  0  0
    5.3556    1.8237    2.9475 H   0  0  0  0  0  0  0  0  0  0  0  0
  1  6  1  0  0  0  0
  2  1  2  0  0  0  0
  2  3  1  0  0  0  0
  3  4  2  0  0  0  0
  4  5  1  0  0  0  0
  5 12  1  0  0  0  0
  6 11  1  0  0  0  0
  6  5  2  0  0  0  0
  7  1  1  0  0  0  0
  8  2  1  0  0  0  0
 10  9  3  0  0  0  0
 13 15  1  0  0  0  0
 14 18  1  0  0  0  0
 14 16  2  0  0  0  0
 14 15  1  0  0  0  0
 17 14  2  0  0  0  0
 18 19  1  0  0  0  0
M  RAD  2   3   2   4   2
M  END
