Coordinates from ORCA-job Ph-N2-OOCH-B3LYPG-aug-cc-pVDZ-scan-d09-49-n400
 OpenBabel10311713223D

 19 17  0  0  0  0  0  0  0  0999 V2000
   -1.0359    0.3384   -0.4183 C   0  0  0  0  0  0  0  0  0  0  0  0
    0.2397    0.6989   -0.9268 C   0  0  0  0  0  0  0  0  0  0  0  0
    1.1508    0.3621    0.0366 C   0  0  0  0  0  0  0  0  0  0  0  0
    1.1394   -0.1601    1.1846 C   0  0  0  0  0  0  0  0  0  0  0  0
   -0.1206   -0.5241    1.7077 C   0  0  0  0  0  0  0  0  0  0  0  0
   -1.2044   -0.2499    0.8496 C   0  0  0  0  0  0  0  0  0  0  0  0
   -1.9087    0.5303   -1.0453 H   0  0  0  0  0  0  0  0  0  0  0  0
    0.4044    1.1540   -1.8986 H   0  0  0  0  0  0  0  0  0  0  0  0
    3.5758    2.2842   -2.9036 N   0  0  0  0  0  0  0  0  0  0  0  0
    4.4183    2.7922   -3.4050 N   0  0  0  0  0  0  0  0  0  0  0  0
   -2.2135   -0.5042    1.1783 H   0  0  0  0  0  0  0  0  0  0  0  0
   -0.2657   -0.9820    2.6855 H   0  0  0  0  0  0  0  0  0  0  0  0
    2.9094   -0.3985    1.9910 H   0  0  0  0  0  0  0  0  0  0  0  0
    5.0028    0.1150    1.7252 S   0  0  0  0  0  0  0  0  0  0  0  0
    3.7515   -0.5928    2.4861 O   0  0  0  0  0  0  0  0  0  0  0  0
    6.2116   -0.4600    2.3290 O   0  0  0  0  0  0  0  0  0  0  0  0
    4.7541    0.1639    0.2796 O   0  0  0  0  0  0  0  0  0  0  0  0
    4.8675    1.6845    2.2298 O   0  0  0  0  0  0  0  0  0  0  0  0
    5.2851    1.7394    3.1060 H   0  0  0  0  0  0  0  0  0  0  0  0
  1  6  1  0  0  0  0
  2  1  2  0  0  0  0
  2  3  1  0  0  0  0
  3  4  2  0  0  0  0
  4  5  1  0  0  0  0
  5 12  1  0  0  0  0
  6 11  1  0  0  0  0
  6  5  2  0  0  0  0
  7  1  1  0  0  0  0
  8  2  1  0  0  0  0
 10  9  3  0  0  0  0
 13 15  1  0  0  0  0
 14 18  1  0  0  0  0
 14 16  2  0  0  0  0
 14 15  1  0  0  0  0
 17 14  2  0  0  0  0
 18 19  1  0  0  0  0
M  RAD  2   3   2   4   2
M  END
