Coordinates from ORCA-job Ph-N2-OOCH-B3LYPG-aug-cc-pVDZ-scan-d09-49-n400
 OpenBabel10311713223D

 19 17  0  0  0  0  0  0  0  0999 V2000
   -0.6729    0.4596   -0.3920 C   0  0  0  0  0  0  0  0  0  0  0  0
    0.7049    0.7090   -0.6265 C   0  0  0  0  0  0  0  0  0  0  0  0
    1.3679    0.2060    0.4553 C   0  0  0  0  0  0  0  0  0  0  0  0
    1.1157   -0.3949    1.5405 C   0  0  0  0  0  0  0  0  0  0  0  0
   -0.2581   -0.6432    1.7769 C   0  0  0  0  0  0  0  0  0  0  0  0
   -1.1323   -0.1930    0.7691 C   0  0  0  0  0  0  0  0  0  0  0  0
   -1.3878    0.7921   -1.1466 H   0  0  0  0  0  0  0  0  0  0  0  0
    1.0964    1.2078   -1.5079 H   0  0  0  0  0  0  0  0  0  0  0  0
    3.2785    2.2708   -3.2213 N   0  0  0  0  0  0  0  0  0  0  0  0
    4.3207    2.5083   -3.4972 N   0  0  0  0  0  0  0  0  0  0  0  0
   -2.2049   -0.3556    0.8873 H   0  0  0  0  0  0  0  0  0  0  0  0
   -0.6308   -1.1496    2.6672 H   0  0  0  0  0  0  0  0  0  0  0  0
    2.9037   -0.6828    2.2137 H   0  0  0  0  0  0  0  0  0  0  0  0
    4.7225    0.2684    1.5342 S   0  0  0  0  0  0  0  0  0  0  0  0
    3.8747   -0.7609    2.4521 O   0  0  0  0  0  0  0  0  0  0  0  0
    6.1278   -0.1366    1.6433 O   0  0  0  0  0  0  0  0  0  0  0  0
    4.0412    0.4756    0.2433 O   0  0  0  0  0  0  0  0  0  0  0  0
    4.5265    1.6992    2.3348 O   0  0  0  0  0  0  0  0  0  0  0  0
    5.1681    1.7110    3.0654 H   0  0  0  0  0  0  0  0  0  0  0  0
  1  6  1  0  0  0  0
  2  1  2  0  0  0  0
  2  3  1  0  0  0  0
  3  4  2  0  0  0  0
  4  5  1  0  0  0  0
  5 12  1  0  0  0  0
  6 11  1  0  0  0  0
  6  5  2  0  0  0  0
  7  1  1  0  0  0  0
  8  2  1  0  0  0  0
 10  9  3  0  0  0  0
 13 15  1  0  0  0  0
 14 16  2  0  0  0  0
 14 18  1  0  0  0  0
 14 15  1  0  0  0  0
 17 14  2  0  0  0  0
 18 19  1  0  0  0  0
M  RAD  2   3   2   4   2
M  END
