Coordinates from ORCA-job Ph-N2-OOCH-B3LYPG-aug-cc-pVDZ-scan-d09-49-n400
 OpenBabel10311713223D

 19 17  0  0  0  0  0  0  0  0999 V2000
   -1.1342    0.3199   -0.4794 C   0  0  0  0  0  0  0  0  0  0  0  0
    0.0432    0.8219   -1.0938 C   0  0  0  0  0  0  0  0  0  0  0  0
    1.0671    0.5858   -0.2198 C   0  0  0  0  0  0  0  0  0  0  0  0
    1.2302    0.0646    0.9189 C   0  0  0  0  0  0  0  0  0  0  0  0
    0.0630   -0.4374    1.5420 C   0  0  0  0  0  0  0  0  0  0  0  0
   -1.1190   -0.2861    0.7910 C   0  0  0  0  0  0  0  0  0  0  0  0
   -2.0755    0.4146   -1.0239 H   0  0  0  0  0  0  0  0  0  0  0  0
    0.0697    1.2938   -2.0710 H   0  0  0  0  0  0  0  0  0  0  0  0
    3.2681    1.9118   -2.0688 N   0  0  0  0  0  0  0  0  0  0  0  0
    4.2397    2.3535   -2.3505 N   0  0  0  0  0  0  0  0  0  0  0  0
   -2.0584   -0.6535    1.2075 H   0  0  0  0  0  0  0  0  0  0  0  0
    0.0594   -0.9115    2.5230 H   0  0  0  0  0  0  0  0  0  0  0  0
    2.9135   -0.1542    1.8095 H   0  0  0  0  0  0  0  0  0  0  0  0
    5.0766    0.0766    1.7014 S   0  0  0  0  0  0  0  0  0  0  0  0
    3.6833   -0.3735    2.4071 O   0  0  0  0  0  0  0  0  0  0  0  0
    6.1441   -0.5306    2.5069 O   0  0  0  0  0  0  0  0  0  0  0  0
    4.9746   -0.0585    0.2438 O   0  0  0  0  0  0  0  0  0  0  0  0
    5.0875    1.7090    1.9737 O   0  0  0  0  0  0  0  0  0  0  0  0
    5.4286    1.8453    2.8738 H   0  0  0  0  0  0  0  0  0  0  0  0
  1  6  1  0  0  0  0
  2  1  2  0  0  0  0
  2  3  1  0  0  0  0
  3  4  2  0  0  0  0
  4  5  1  0  0  0  0
  5 12  1  0  0  0  0
  6 11  1  0  0  0  0
  6  5  2  0  0  0  0
  7  1  1  0  0  0  0
  8  2  1  0  0  0  0
 10  9  3  0  0  0  0
 13 15  1  0  0  0  0
 14 18  1  0  0  0  0
 14 15  1  0  0  0  0
 14 16  2  0  0  0  0
 17 14  2  0  0  0  0
 18 19  1  0  0  0  0
M  RAD  2   3   2   4   2
M  END
