Coordinates from ORCA-job Ph-N2-OOCH-B3LYPG-aug-cc-pVDZ-scan-d09-49-n400
 OpenBabel10311713223D

 19 17  0  0  0  0  0  0  0  0999 V2000
   -1.0659    0.3355   -0.4238 C   0  0  0  0  0  0  0  0  0  0  0  0
    0.1926    0.7302   -0.9492 C   0  0  0  0  0  0  0  0  0  0  0  0
    1.1266    0.4097   -0.0024 C   0  0  0  0  0  0  0  0  0  0  0  0
    1.1466   -0.1213    1.1415 C   0  0  0  0  0  0  0  0  0  0  0  0
   -0.0964   -0.5191    1.6811 C   0  0  0  0  0  0  0  0  0  0  0  0
   -1.2000   -0.2655    0.8422 C   0  0  0  0  0  0  0  0  0  0  0  0
   -1.9527    0.5106   -1.0357 H   0  0  0  0  0  0  0  0  0  0  0  0
    0.3311    1.1956   -1.9203 H   0  0  0  0  0  0  0  0  0  0  0  0
    3.5670    2.2010   -2.7347 N   0  0  0  0  0  0  0  0  0  0  0  0
    4.4417    2.6917   -3.1964 N   0  0  0  0  0  0  0  0  0  0  0  0
   -2.1972   -0.5468    1.1847 H   0  0  0  0  0  0  0  0  0  0  0  0
   -0.2149   -0.9876    2.6575 H   0  0  0  0  0  0  0  0  0  0  0  0
    2.9111   -0.3517    1.9517 H   0  0  0  0  0  0  0  0  0  0  0  0
    5.0189    0.1173    1.7067 S   0  0  0  0  0  0  0  0  0  0  0  0
    3.7429   -0.5508    2.4623 O   0  0  0  0  0  0  0  0  0  0  0  0
    6.2067   -0.4634    2.3455 O   0  0  0  0  0  0  0  0  0  0  0  0
    4.7964    0.1356    0.2562 O   0  0  0  0  0  0  0  0  0  0  0  0
    4.9020    1.7007    2.1712 O   0  0  0  0  0  0  0  0  0  0  0  0
    5.3053    1.7696    3.0532 H   0  0  0  0  0  0  0  0  0  0  0  0
  1  6  1  0  0  0  0
  2  1  2  0  0  0  0
  2  3  1  0  0  0  0
  3  4  2  0  0  0  0
  4  5  1  0  0  0  0
  5 12  1  0  0  0  0
  6 11  1  0  0  0  0
  6  5  2  0  0  0  0
  7  1  1  0  0  0  0
  8  2  1  0  0  0  0
 10  9  3  0  0  0  0
 13 15  1  0  0  0  0
 14 18  1  0  0  0  0
 14 16  2  0  0  0  0
 14 15  1  0  0  0  0
 17 14  2  0  0  0  0
 18 19  1  0  0  0  0
M  RAD  2   3   2   4   2
M  END
