Coordinates from ORCA-job Ph-N2-OOCH-B3LYPG-aug-cc-pVDZ-scan-d09-49-n400
 OpenBabel10311713223D

 19 17  0  0  0  0  0  0  0  0999 V2000
   -1.1353    0.3158   -0.4955 C   0  0  0  0  0  0  0  0  0  0  0  0
    0.0278    0.8326   -1.1242 C   0  0  0  0  0  0  0  0  0  0  0  0
    1.0645    0.6158   -0.2611 C   0  0  0  0  0  0  0  0  0  0  0  0
    1.2528    0.1026    0.8783 C   0  0  0  0  0  0  0  0  0  0  0  0
    0.0973   -0.4138    1.5137 C   0  0  0  0  0  0  0  0  0  0  0  0
   -1.0959   -0.2844    0.7771 C   0  0  0  0  0  0  0  0  0  0  0  0
   -2.0837    0.3940   -1.0300 H   0  0  0  0  0  0  0  0  0  0  0  0
    0.0370    1.3007   -2.1036 H   0  0  0  0  0  0  0  0  0  0  0  0
    3.1670    1.8633   -1.9567 N   0  0  0  0  0  0  0  0  0  0  0  0
    4.1521    2.2960   -2.2031 N   0  0  0  0  0  0  0  0  0  0  0  0
   -2.0244   -0.6645    1.2064 H   0  0  0  0  0  0  0  0  0  0  0  0
    0.1121   -0.8839    2.4966 H   0  0  0  0  0  0  0  0  0  0  0  0
    2.9138   -0.1126    1.7876 H   0  0  0  0  0  0  0  0  0  0  0  0
    5.0844    0.0655    1.7080 S   0  0  0  0  0  0  0  0  0  0  0  0
    3.6711   -0.3378    2.4006 O   0  0  0  0  0  0  0  0  0  0  0  0
    6.1258   -0.5531    2.5386 O   0  0  0  0  0  0  0  0  0  0  0  0
    4.9999   -0.0921    0.2514 O   0  0  0  0  0  0  0  0  0  0  0  0
    5.1319    1.7019    1.9524 O   0  0  0  0  0  0  0  0  0  0  0  0
    5.4637    1.8454    2.8548 H   0  0  0  0  0  0  0  0  0  0  0  0
  1  6  1  0  0  0  0
  2  1  2  0  0  0  0
  2  3  1  0  0  0  0
  3  4  2  0  0  0  0
  4  5  1  0  0  0  0
  5 12  1  0  0  0  0
  6 11  1  0  0  0  0
  6  5  2  0  0  0  0
  7  1  1  0  0  0  0
  8  2  1  0  0  0  0
 10  9  3  0  0  0  0
 13 15  1  0  0  0  0
 14 18  1  0  0  0  0
 14 15  1  0  0  0  0
 14 16  2  0  0  0  0
 17 14  2  0  0  0  0
 18 19  1  0  0  0  0
M  RAD  2   3   2   4   2
M  END
