Coordinates from ORCA-job Ph-N2-OOCH-B3LYPG-aug-cc-pVDZ-scan-d09-49-n400
 OpenBabel10311713223D

 19 17  0  0  0  0  0  0  0  0999 V2000
   -1.1296    0.3241   -0.4549 C   0  0  0  0  0  0  0  0  0  0  0  0
    0.0694    0.8044   -1.0447 C   0  0  0  0  0  0  0  0  0  0  0  0
    1.0715    0.5412   -0.1528 C   0  0  0  0  0  0  0  0  0  0  0  0
    1.1977    0.0099    0.9851 C   0  0  0  0  0  0  0  0  0  0  0  0
    0.0112   -0.4709    1.5858 C   0  0  0  0  0  0  0  0  0  0  0  0
   -1.1521   -0.2893    0.8121 C   0  0  0  0  0  0  0  0  0  0  0  0
   -2.0584    0.4422   -1.0160 H   0  0  0  0  0  0  0  0  0  0  0  0
    0.1239    1.2812   -2.0185 H   0  0  0  0  0  0  0  0  0  0  0  0
    3.4208    1.9850   -2.2534 N   0  0  0  0  0  0  0  0  0  0  0  0
    4.3707    2.4363   -2.5885 N   0  0  0  0  0  0  0  0  0  0  0  0
   -2.1073   -0.6383    1.2079 H   0  0  0  0  0  0  0  0  0  0  0  0
   -0.0214   -0.9501    2.5637 H   0  0  0  0  0  0  0  0  0  0  0  0
    2.9110   -0.2142    1.8439 H   0  0  0  0  0  0  0  0  0  0  0  0
    5.0600    0.0966    1.6905 S   0  0  0  0  0  0  0  0  0  0  0  0
    3.7015   -0.4276    2.4142 O   0  0  0  0  0  0  0  0  0  0  0  0
    6.1680   -0.5001    2.4474 O   0  0  0  0  0  0  0  0  0  0  0  0
    4.9249    0.0088    0.2320 O   0  0  0  0  0  0  0  0  0  0  0  0
    5.0208    1.7177    2.0208 O   0  0  0  0  0  0  0  0  0  0  0  0
    5.3791    1.8346    2.9169 H   0  0  0  0  0  0  0  0  0  0  0  0
  1  6  1  0  0  0  0
  2  1  2  0  0  0  0
  2  3  1  0  0  0  0
  3  4  2  0  0  0  0
  4  5  1  0  0  0  0
  5 12  1  0  0  0  0
  6 11  1  0  0  0  0
  6  5  2  0  0  0  0
  7  1  1  0  0  0  0
  8  2  1  0  0  0  0
 10  9  3  0  0  0  0
 13 15  1  0  0  0  0
 14 18  1  0  0  0  0
 14 15  1  0  0  0  0
 14 16  2  0  0  0  0
 17 14  2  0  0  0  0
 18 19  1  0  0  0  0
M  RAD  2   3   2   4   2
M  END
