Coordinates from ORCA-job Ph-N2-OOCH-B3LYPG-aug-cc-pVDZ-scan-d09-49-n400
 OpenBabel10311713223D

 19 19  0  0  1  0  0  0  0  0999 V2000
   -0.3893   -0.0081   -0.7253 C   0  0  0  0  0  0  0  0  0  0  0  0
    0.5189    0.8748   -1.1842 C   0  0  0  0  0  0  0  0  0  0  0  0
    1.6536    1.3429   -0.3382 C   0  0  0  0  0  0  0  0  0  0  0  0
    1.8720    0.5935    1.0129 C   0  0  1  0  0  0  0  0  0  0  0  0
    0.7283   -0.2614    1.4405 C   0  0  0  0  0  0  0  0  0  0  0  0
   -0.3025   -0.5492    0.6235 C   0  0  0  0  0  0  0  0  0  0  0  0
   -1.2114   -0.3188   -1.3697 H   0  0  0  0  0  0  0  0  0  0  0  0
    0.4732    1.3001   -2.1870 H   0  0  0  0  0  0  0  0  0  0  0  0
    2.2806    2.0650   -0.5951 N   0  0  0  0  0  0  0  0  0  0  0  0
    3.0393    2.9115   -0.8810 N   0  0  0  0  0  0  0  0  0  0  0  0
   -1.1029   -1.2011    0.9744 H   0  0  0  0  0  0  0  0  0  0  0  0
    0.7915   -0.6674    2.4497 H   0  0  0  0  0  0  0  0  0  0  0  0
    2.1450    1.3325    1.7757 H   0  0  0  0  0  0  0  0  0  0  0  0
    4.2465   -0.2466    1.9355 S   0  0  0  0  0  0  0  0  0  0  0  0
    3.6389   -0.2438    3.2711 O   0  0  0  0  0  0  0  0  0  0  0  0
    5.2354   -1.2300    1.4831 O   0  0  0  0  0  0  0  0  0  0  0  0
    3.0696   -0.2649    0.7822 O   0  0  0  0  0  0  0  0  0  0  0  0
    4.8593    1.2750    1.7610 O   0  0  0  0  0  0  0  0  0  0  0  0
    5.4157    1.2874    0.9624 H   0  0  0  0  0  0  0  0  0  0  0  0
  1  6  1  0  0  0  0
  2  1  1  0  0  0  0
  2  3  2  0  0  0  0
  3  4  1  0  0  0  0
  4  5  1  0  0  0  0
  4 13  1  1  0  0  0
  5 12  1  0  0  0  0
  6 11  1  0  0  0  0
  6  5  2  0  0  0  0
  7  1  1  0  0  0  0
  8  2  1  0  0  0  0
  9  3  1  0  0  0  0
 10  9  1  0  0  0  0
 14 15  2  0  0  0  0
 16 14  2  0  0  0  0
 17  4  1  0  0  0  0
 17 14  1  0  0  0  0
 18 14  1  0  0  0  0
 19 18  1  0  0  0  0
M  RAD  3   1   2   9   2  10   3
M  END
