Coordinates from ORCA-job Ph-N2-OOCH-B3LYPG-aug-cc-pVDZ-scan-d09-49-n400
 OpenBabel10311713223D

 19 17  0  0  0  0  0  0  0  0999 V2000
   -0.7261    0.4572   -0.3928 C   0  0  0  0  0  0  0  0  0  0  0  0
    0.6426    0.7283   -0.6543 C   0  0  0  0  0  0  0  0  0  0  0  0
    1.3360    0.2332    0.4122 C   0  0  0  0  0  0  0  0  0  0  0  0
    1.1118   -0.3744    1.4989 C   0  0  0  0  0  0  0  0  0  0  0  0
   -0.2518   -0.6450    1.7647 C   0  0  0  0  0  0  0  0  0  0  0  0
   -1.1522   -0.2055    0.7751 C   0  0  0  0  0  0  0  0  0  0  0  0
   -1.4615    0.7810   -1.1315 H   0  0  0  0  0  0  0  0  0  0  0  0
    1.0116    1.2368   -1.5394 H   0  0  0  0  0  0  0  0  0  0  0  0
    3.3434    2.1997   -3.0109 N   0  0  0  0  0  0  0  0  0  0  0  0
    4.4194    2.3715   -3.1876 N   0  0  0  0  0  0  0  0  0  0  0  0
   -2.2195   -0.3851    0.9141 H   0  0  0  0  0  0  0  0  0  0  0  0
   -0.5987   -1.1591    2.6609 H   0  0  0  0  0  0  0  0  0  0  0  0
    2.9215   -0.6506    2.1573 H   0  0  0  0  0  0  0  0  0  0  0  0
    4.7462    0.2906    1.4771 S   0  0  0  0  0  0  0  0  0  0  0  0
    3.8898   -0.7305    2.3985 O   0  0  0  0  0  0  0  0  0  0  0  0
    6.1496   -0.1162    1.6038 O   0  0  0  0  0  0  0  0  0  0  0  0
    4.0760    0.4864    0.1798 O   0  0  0  0  0  0  0  0  0  0  0  0
    4.5443    1.7282    2.2646 O   0  0  0  0  0  0  0  0  0  0  0  0
    5.1791    1.7449    3.0011 H   0  0  0  0  0  0  0  0  0  0  0  0
  1  6  1  0  0  0  0
  2  1  2  0  0  0  0
  2  3  1  0  0  0  0
  3  4  2  0  0  0  0
  4  5  1  0  0  0  0
  5 12  1  0  0  0  0
  6 11  1  0  0  0  0
  6  5  2  0  0  0  0
  7  1  1  0  0  0  0
  8  2  1  0  0  0  0
 10  9  3  0  0  0  0
 13 15  1  0  0  0  0
 14 16  2  0  0  0  0
 14 18  1  0  0  0  0
 14 15  1  0  0  0  0
 17 14  2  0  0  0  0
 18 19  1  0  0  0  0
M  RAD  2   3   2   4   2
M  END
