Coordinates from ORCA-job Ph-N2-OOCH-B3LYPG-aug-cc-pVDZ-scan-d09-49-n400
 OpenBabel10311713223D

 19 19  0  0  1  0  0  0  0  0999 V2000
   -0.3645   -0.0916   -0.7311 C   0  0  0  0  0  0  0  0  0  0  0  0
    0.4986    0.8470   -1.1900 C   0  0  0  0  0  0  0  0  0  0  0  0
    1.5520    1.3514   -0.3207 C   0  0  0  0  0  0  0  0  0  0  0  0
    1.8556    0.6731    0.9929 C   0  0  1  0  0  0  0  0  0  0  0  0
    0.7425   -0.2012    1.4572 C   0  0  0  0  0  0  0  0  0  0  0  0
   -0.2604   -0.5769    0.6328 C   0  0  0  0  0  0  0  0  0  0  0  0
   -1.1574   -0.4665   -1.3765 H   0  0  0  0  0  0  0  0  0  0  0  0
    0.4275    1.2575   -2.1969 H   0  0  0  0  0  0  0  0  0  0  0  0
    2.2420    2.2900   -0.6509 N   0  0  0  0  0  0  0  0  0  0  0  0
    2.9060    3.1752   -0.9511 N   0  0  0  0  0  0  0  0  0  0  0  0
   -1.0307   -1.2546    1.0030 H   0  0  0  0  0  0  0  0  0  0  0  0
    0.8065   -0.5613    2.4825 H   0  0  0  0  0  0  0  0  0  0  0  0
    2.1710    1.3951    1.7530 H   0  0  0  0  0  0  0  0  0  0  0  0
    4.2035   -0.3001    1.9199 S   0  0  0  0  0  0  0  0  0  0  0  0
    3.5510   -0.2705    3.2356 O   0  0  0  0  0  0  0  0  0  0  0  0
    5.1525   -1.3395    1.5005 O   0  0  0  0  0  0  0  0  0  0  0  0
    3.0871   -0.2062    0.7318 O   0  0  0  0  0  0  0  0  0  0  0  0
    4.9519    1.1743    1.7975 O   0  0  0  0  0  0  0  0  0  0  0  0
    5.6271    1.0962    1.1021 H   0  0  0  0  0  0  0  0  0  0  0  0
  1  6  1  0  0  0  0
  2  1  1  0  0  0  0
  2  3  2  0  0  0  0
  3  4  1  0  0  0  0
  4  5  1  0  0  0  0
  4 13  1  1  0  0  0
  5 12  1  0  0  0  0
  6 11  1  0  0  0  0
  6  5  2  0  0  0  0
  7  1  1  0  0  0  0
  8  2  1  0  0  0  0
  9  3  1  0  0  0  0
 10  9  1  0  0  0  0
 14 15  2  0  0  0  0
 16 14  2  0  0  0  0
 17  4  1  0  0  0  0
 17 14  1  0  0  0  0
 18 14  1  0  0  0  0
 19 18  1  0  0  0  0
M  RAD  3   1   2   9   2  10   3
M  END
