Coordinates from ORCA-job Ph-N2-OOCH-B3LYPG-aug-cc-pVDZ-scan-d09-49-n400
 OpenBabel10311713223D

 19 17  0  0  0  0  0  0  0  0999 V2000
   -1.0551    0.3363   -0.4211 C   0  0  0  0  0  0  0  0  0  0  0  0
    0.2107    0.7161   -0.9402 C   0  0  0  0  0  0  0  0  0  0  0  0
    1.1355    0.3888    0.0132 C   0  0  0  0  0  0  0  0  0  0  0  0
    1.1429   -0.1382    1.1591 C   0  0  0  0  0  0  0  0  0  0  0  0
   -0.1072   -0.5212    1.6926 C   0  0  0  0  0  0  0  0  0  0  0  0
   -1.2030   -0.2589    0.8462 C   0  0  0  0  0  0  0  0  0  0  0  0
   -1.9363    0.5185   -1.0388 H   0  0  0  0  0  0  0  0  0  0  0  0
    0.3598    1.1769   -1.9119 H   0  0  0  0  0  0  0  0  0  0  0  0
    3.5749    2.2353   -2.8029 N   0  0  0  0  0  0  0  0  0  0  0  0
    4.4369    2.7334   -3.2803 N   0  0  0  0  0  0  0  0  0  0  0  0
   -2.2052   -0.5285    1.1836 H   0  0  0  0  0  0  0  0  0  0  0  0
   -0.2365   -0.9850    2.6699 H   0  0  0  0  0  0  0  0  0  0  0  0
    2.9109   -0.3710    1.9664 H   0  0  0  0  0  0  0  0  0  0  0  0
    5.0129    0.1172    1.7131 S   0  0  0  0  0  0  0  0  0  0  0  0
    3.7471   -0.5683    2.4704 O   0  0  0  0  0  0  0  0  0  0  0  0
    6.2095   -0.4613    2.3372 O   0  0  0  0  0  0  0  0  0  0  0  0
    4.7799    0.1493    0.2645 O   0  0  0  0  0  0  0  0  0  0  0  0
    4.8876    1.6947    2.1954 O   0  0  0  0  0  0  0  0  0  0  0  0
    5.2964    1.7572    3.0752 H   0  0  0  0  0  0  0  0  0  0  0  0
  1  6  1  0  0  0  0
  2  1  2  0  0  0  0
  2  3  1  0  0  0  0
  3  4  2  0  0  0  0
  4  5  1  0  0  0  0
  5 12  1  0  0  0  0
  6 11  1  0  0  0  0
  6  5  2  0  0  0  0
  7  1  1  0  0  0  0
  8  2  1  0  0  0  0
 10  9  3  0  0  0  0
 13 15  1  0  0  0  0
 14 18  1  0  0  0  0
 14 16  2  0  0  0  0
 14 15  1  0  0  0  0
 17 14  2  0  0  0  0
 18 19  1  0  0  0  0
M  RAD  2   3   2   4   2
M  END
