Coordinates from ORCA-job Ph-N2-OOCH-B3LYPG-aug-cc-pVDZ-scan-d09-49-n400
 OpenBabel10311713223D

 19 19  0  0  1  0  0  0  0  0999 V2000
   -0.3707   -0.0520   -0.7272 C   0  0  0  0  0  0  0  0  0  0  0  0
    0.5132    0.8567   -1.1917 C   0  0  0  0  0  0  0  0  0  0  0  0
    1.6079    1.3608   -0.3369 C   0  0  0  0  0  0  0  0  0  0  0  0
    1.8710    0.6415    0.9970 C   0  0  1  0  0  0  0  0  0  0  0  0
    0.7419   -0.2197    1.4509 C   0  0  0  0  0  0  0  0  0  0  0  0
   -0.2764   -0.5560    0.6338 C   0  0  0  0  0  0  0  0  0  0  0  0
   -1.1763   -0.4022   -1.3715 H   0  0  0  0  0  0  0  0  0  0  0  0
    0.4553    1.2657   -2.2004 H   0  0  0  0  0  0  0  0  0  0  0  0
    2.2384    2.1655   -0.6187 N   0  0  0  0  0  0  0  0  0  0  0  0
    2.9423    3.0414   -0.9127 N   0  0  0  0  0  0  0  0  0  0  0  0
   -1.0625   -1.2178    0.9987 H   0  0  0  0  0  0  0  0  0  0  0  0
    0.8077   -0.5961    2.4708 H   0  0  0  0  0  0  0  0  0  0  0  0
    2.1667    1.3743    1.7563 H   0  0  0  0  0  0  0  0  0  0  0  0
    4.2205   -0.2829    1.9234 S   0  0  0  0  0  0  0  0  0  0  0  0
    3.5818   -0.2853    3.2450 O   0  0  0  0  0  0  0  0  0  0  0  0
    5.1892   -1.2902    1.4768 O   0  0  0  0  0  0  0  0  0  0  0  0
    3.0790   -0.2252    0.7452 O   0  0  0  0  0  0  0  0  0  0  0  0
    4.9048    1.2168    1.7999 O   0  0  0  0  0  0  0  0  0  0  0  0
    5.5279    1.1960    1.0530 H   0  0  0  0  0  0  0  0  0  0  0  0
  1  6  1  0  0  0  0
  2  1  1  0  0  0  0
  2  3  2  0  0  0  0
  3  4  1  0  0  0  0
  4  5  1  0  0  0  0
  4 13  1  1  0  0  0
  5 12  1  0  0  0  0
  6 11  1  0  0  0  0
  6  5  2  0  0  0  0
  7  1  1  0  0  0  0
  8  2  1  0  0  0  0
  9  3  1  0  0  0  0
 10  9  1  0  0  0  0
 14 15  2  0  0  0  0
 16 14  2  0  0  0  0
 17  4  1  0  0  0  0
 17 14  1  0  0  0  0
 18 14  1  0  0  0  0
 19 18  1  0  0  0  0
M  RAD  3   1   2   9   2  10   3
M  END
