Coordinates from ORCA-job Ph-N2-OOCH-B3LYPG-aug-cc-pVDZ-scan-d09-49-n400
 OpenBabel10311713223D

 19 17  0  0  0  0  0  0  0  0999 V2000
   -1.1139    0.3288   -0.4425 C   0  0  0  0  0  0  0  0  0  0  0  0
    0.1075    0.7829   -1.0061 C   0  0  0  0  0  0  0  0  0  0  0  0
    1.0867    0.4986   -0.0946 C   0  0  0  0  0  0  0  0  0  0  0  0
    1.1727   -0.0381    1.0439 C   0  0  0  0  0  0  0  0  0  0  0  0
   -0.0343   -0.4942    1.6203 C   0  0  0  0  0  0  0  0  0  0  0  0
   -1.1768   -0.2857    0.8222 C   0  0  0  0  0  0  0  0  0  0  0  0
   -2.0279    0.4683   -1.0228 H   0  0  0  0  0  0  0  0  0  0  0  0
    0.1917    1.2597   -1.9778 H   0  0  0  0  0  0  0  0  0  0  0  0
    3.4908    2.0511   -2.4033 N   0  0  0  0  0  0  0  0  0  0  0  0
    4.4198    2.5118   -2.7819 N   0  0  0  0  0  0  0  0  0  0  0  0
   -2.1479   -0.6141    1.1966 H   0  0  0  0  0  0  0  0  0  0  0  0
   -0.0980   -0.9742    2.5963 H   0  0  0  0  0  0  0  0  0  0  0  0
    2.9141   -0.2577    1.8771 H   0  0  0  0  0  0  0  0  0  0  0  0
    5.0504    0.1082    1.6879 S   0  0  0  0  0  0  0  0  0  0  0  0
    3.7199   -0.4660    2.4256 O   0  0  0  0  0  0  0  0  0  0  0  0
    6.1872   -0.4819    2.4062 O   0  0  0  0  0  0  0  0  0  0  0  0
    4.8865    0.0541    0.2307 O   0  0  0  0  0  0  0  0  0  0  0  0
    4.9809    1.7188    2.0606 O   0  0  0  0  0  0  0  0  0  0  0  0
    5.3525    1.8210    2.9531 H   0  0  0  0  0  0  0  0  0  0  0  0
  1  6  1  0  0  0  0
  2  1  2  0  0  0  0
  2  3  1  0  0  0  0
  3  4  2  0  0  0  0
  4  5  1  0  0  0  0
  5 12  1  0  0  0  0
  6 11  1  0  0  0  0
  6  5  2  0  0  0  0
  7  1  1  0  0  0  0
  8  2  1  0  0  0  0
 10  9  3  0  0  0  0
 13 15  1  0  0  0  0
 14 18  1  0  0  0  0
 14 16  2  0  0  0  0
 14 15  1  0  0  0  0
 17 14  2  0  0  0  0
 18 19  1  0  0  0  0
M  RAD  2   3   2   4   2
M  END
