Coordinates from ORCA-job Ph-N2-OOCH-B3LYPG-aug-cc-pVDZ-scan-d09-49-n400
 OpenBabel10311713223D

 19 17  0  0  0  0  0  0  0  0999 V2000
   -0.9353    0.1376   -0.6308 C   0  0  0  0  0  0  0  0  0  0  0  0
    0.2376    0.7651   -1.1234 C   0  0  0  0  0  0  0  0  0  0  0  0
    1.1629    0.7122   -0.1396 C   0  0  0  0  0  0  0  0  0  0  0  0
    1.3559    0.2881    1.0879 C   0  0  0  0  0  0  0  0  0  0  0  0
    0.1354   -0.3266    1.5139 C   0  0  0  0  0  0  0  0  0  0  0  0
   -0.9750   -0.3929    0.6657 C   0  0  0  0  0  0  0  0  0  0  0  0
   -1.8001    0.0850   -1.2929 H   0  0  0  0  0  0  0  0  0  0  0  0
    0.3322    1.1954   -2.1146 H   0  0  0  0  0  0  0  0  0  0  0  0
    2.9801    1.8928   -1.0053 N   0  0  0  0  0  0  0  0  0  0  0  0
    3.8094    2.4855   -1.4260 N   0  0  0  0  0  0  0  0  0  0  0  0
   -1.8886   -0.8712    1.0177 H   0  0  0  0  0  0  0  0  0  0  0  0
    0.1145   -0.7523    2.5180 H   0  0  0  0  0  0  0  0  0  0  0  0
    2.3301    0.3045    1.7534 H   0  0  0  0  0  0  0  0  0  0  0  0
    4.7852    0.0357    1.6467 S   0  0  0  0  0  0  0  0  0  0  0  0
    3.5694    0.2657    2.5683 O   0  0  0  0  0  0  0  0  0  0  0  0
    5.8506   -0.7588    2.3043 O   0  0  0  0  0  0  0  0  0  0  0  0
    4.3498   -0.3237    0.2670 O   0  0  0  0  0  0  0  0  0  0  0  0
    5.4325    1.5818    1.4488 O   0  0  0  0  0  0  0  0  0  0  0  0
    6.1151    1.6675    2.1323 H   0  0  0  0  0  0  0  0  0  0  0  0
  1  6  1  0  0  0  0
  2  1  2  0  0  0  0
  2  3  1  0  0  0  0
  3  4  2  0  0  0  0
  4  5  1  0  0  0  0
  4 13  1  0  0  0  0
  5 12  1  0  0  0  0
  6 11  1  0  0  0  0
  6  5  2  0  0  0  0
  7  1  1  0  0  0  0
  8  2  1  0  0  0  0
 10  9  3  0  0  0  0
 14 16  2  0  0  0  0
 14 15  1  0  0  0  0
 17 14  2  0  0  0  0
 18 14  1  0  0  0  0
 18 19  1  0  0  0  0
M  RAD  2   3   2  15   2
M  END
