Coordinates from ORCA-job Ph-N2-OOCH-B3LYPG-aug-cc-pVDZ-scan-d09-49-n400
 OpenBabel10311713223D

 19 17  0  0  0  0  0  0  0  0999 V2000
   -1.1051    0.3298   -0.4373 C   0  0  0  0  0  0  0  0  0  0  0  0
    0.1253    0.7718   -0.9916 C   0  0  0  0  0  0  0  0  0  0  0  0
    1.0920    0.4776   -0.0699 C   0  0  0  0  0  0  0  0  0  0  0  0
    1.1626   -0.0585    1.0693 C   0  0  0  0  0  0  0  0  0  0  0  0
   -0.0526   -0.5024    1.6366 C   0  0  0  0  0  0  0  0  0  0  0  0
   -1.1855   -0.2830    0.8277 C   0  0  0  0  0  0  0  0  0  0  0  0
   -2.0127    0.4775   -1.0255 H   0  0  0  0  0  0  0  0  0  0  0  0
    0.2234    1.2471   -1.9628 H   0  0  0  0  0  0  0  0  0  0  0  0
    3.5195    2.0851   -2.4762 N   0  0  0  0  0  0  0  0  0  0  0  0
    4.4379    2.5513   -2.8734 N   0  0  0  0  0  0  0  0  0  0  0  0
   -2.1631   -0.6013    1.1936 H   0  0  0  0  0  0  0  0  0  0  0  0
   -0.1295   -0.9807    2.6125 H   0  0  0  0  0  0  0  0  0  0  0  0
    2.9132   -0.2784    1.8931 H   0  0  0  0  0  0  0  0  0  0  0  0
    5.0443    0.1122    1.6884 S   0  0  0  0  0  0  0  0  0  0  0  0
    3.7262   -0.4844    2.4317 O   0  0  0  0  0  0  0  0  0  0  0  0
    6.1934   -0.4761    2.3884 O   0  0  0  0  0  0  0  0  0  0  0  0
    4.8674    0.0751    0.2320 O   0  0  0  0  0  0  0  0  0  0  0  0
    4.9630    1.7171    2.0823 O   0  0  0  0  0  0  0  0  0  0  0  0
    5.3419    1.8116    2.9726 H   0  0  0  0  0  0  0  0  0  0  0  0
  1  6  1  0  0  0  0
  2  1  2  0  0  0  0
  2  3  1  0  0  0  0
  3  4  2  0  0  0  0
  4  5  1  0  0  0  0
  5 12  1  0  0  0  0
  6 11  1  0  0  0  0
  6  5  2  0  0  0  0
  7  1  1  0  0  0  0
  8  2  1  0  0  0  0
 10  9  3  0  0  0  0
 13 15  1  0  0  0  0
 14 18  1  0  0  0  0
 14 16  2  0  0  0  0
 14 15  1  0  0  0  0
 17 14  2  0  0  0  0
 18 19  1  0  0  0  0
M  RAD  2   3   2   4   2
M  END
