Coordinates from ORCA-job Ph-N2-OOCH-B3LYPG-aug-cc-pVDZ-scan-d09-49-n400
 OpenBabel10311713223D

 19 17  0  0  0  0  0  0  0  0999 V2000
   -1.1351    0.3181   -0.4868 C   0  0  0  0  0  0  0  0  0  0  0  0
    0.0354    0.8271   -1.1085 C   0  0  0  0  0  0  0  0  0  0  0  0
    1.0657    0.6000   -0.2400 C   0  0  0  0  0  0  0  0  0  0  0  0
    1.2410    0.0825    0.8989 C   0  0  0  0  0  0  0  0  0  0  0  0
    0.0796   -0.4263    1.5284 C   0  0  0  0  0  0  0  0  0  0  0  0
   -1.1080   -0.2852    0.7847 C   0  0  0  0  0  0  0  0  0  0  0  0
   -2.0800    0.4051   -1.0262 H   0  0  0  0  0  0  0  0  0  0  0  0
    0.0533    1.2973   -2.0867 H   0  0  0  0  0  0  0  0  0  0  0  0
    3.2213    1.8889   -2.0150 N   0  0  0  0  0  0  0  0  0  0  0  0
    4.1994    2.3265   -2.2799 N   0  0  0  0  0  0  0  0  0  0  0  0
   -2.0422   -0.6586    1.2076 H   0  0  0  0  0  0  0  0  0  0  0  0
    0.0851   -0.8986    2.5104 H   0  0  0  0  0  0  0  0  0  0  0  0
    2.9136   -0.1352    1.7990 H   0  0  0  0  0  0  0  0  0  0  0  0
    5.0804    0.0711    1.7046 S   0  0  0  0  0  0  0  0  0  0  0  0
    3.6774   -0.3571    2.4041 O   0  0  0  0  0  0  0  0  0  0  0  0
    6.1356   -0.5407    2.5227 O   0  0  0  0  0  0  0  0  0  0  0  0
    4.9873   -0.0754    0.2475 O   0  0  0  0  0  0  0  0  0  0  0  0
    5.1078    1.7057    1.9628 O   0  0  0  0  0  0  0  0  0  0  0  0
    5.4441    1.8461    2.8640 H   0  0  0  0  0  0  0  0  0  0  0  0
  1  6  1  0  0  0  0
  2  1  2  0  0  0  0
  2  3  1  0  0  0  0
  3  4  2  0  0  0  0
  4  5  1  0  0  0  0
  5 12  1  0  0  0  0
  6 11  1  0  0  0  0
  6  5  2  0  0  0  0
  7  1  1  0  0  0  0
  8  2  1  0  0  0  0
 10  9  3  0  0  0  0
 13 15  1  0  0  0  0
 14 18  1  0  0  0  0
 14 15  1  0  0  0  0
 14 16  2  0  0  0  0
 17 14  2  0  0  0  0
 18 19  1  0  0  0  0
M  RAD  2   3   2   4   2
M  END
