Coordinates from ORCA-job Ph-N2-OOCH-B3LYPG-aug-cc-pVDZ-scan-d09-49-n400
 OpenBabel10311713223D

 19 17  0  0  0  0  0  0  0  0999 V2000
   -1.1298    0.3126   -0.5164 C   0  0  0  0  0  0  0  0  0  0  0  0
    0.0165    0.8458   -1.1624 C   0  0  0  0  0  0  0  0  0  0  0  0
    1.0632    0.6512   -0.3097 C   0  0  0  0  0  0  0  0  0  0  0  0
    1.2911    0.1515    0.8302 C   0  0  0  0  0  0  0  0  0  0  0  0
    0.1455   -0.3798    1.4771 C   0  0  0  0  0  0  0  0  0  0  0  0
   -1.0612   -0.2784    0.7591 C   0  0  0  0  0  0  0  0  0  0  0  0
   -2.0862    0.3703   -1.0391 H   0  0  0  0  0  0  0  0  0  0  0  0
    0.0063    1.3079   -2.1444 H   0  0  0  0  0  0  0  0  0  0  0  0
    3.0201    1.7941   -1.8222 N   0  0  0  0  0  0  0  0  0  0  0  0
    4.0201    2.2155   -2.0240 N   0  0  0  0  0  0  0  0  0  0  0  0
   -1.9761   -0.6728    1.2042 H   0  0  0  0  0  0  0  0  0  0  0  0
    0.1820   -0.8437    2.4627 H   0  0  0  0  0  0  0  0  0  0  0  0
    2.9095   -0.0655    1.7597 H   0  0  0  0  0  0  0  0  0  0  0  0
    5.0909    0.0538    1.7153 S   0  0  0  0  0  0  0  0  0  0  0  0
    3.6560   -0.2978    2.3881 O   0  0  0  0  0  0  0  0  0  0  0  0
    6.1001   -0.5827    2.5721 O   0  0  0  0  0  0  0  0  0  0  0  0
    5.0299   -0.1210    0.2590 O   0  0  0  0  0  0  0  0  0  0  0  0
    5.1833    1.6920    1.9375 O   0  0  0  0  0  0  0  0  0  0  0  0
    5.5004    1.8385    2.8446 H   0  0  0  0  0  0  0  0  0  0  0  0
  1  6  1  0  0  0  0
  2  1  2  0  0  0  0
  2  3  1  0  0  0  0
  3  4  2  0  0  0  0
  4  5  1  0  0  0  0
  5 12  1  0  0  0  0
  6 11  1  0  0  0  0
  6  5  2  0  0  0  0
  7  1  1  0  0  0  0
  8  2  1  0  0  0  0
 10  9  3  0  0  0  0
 13 15  1  0  0  0  0
 14 18  1  0  0  0  0
 14 15  1  0  0  0  0
 14 16  2  0  0  0  0
 17 14  2  0  0  0  0
 18 19  1  0  0  0  0
M  RAD  2   3   2   4   2
M  END
