Coordinates from ORCA-job Ph-N2-OOCH-B3LYPG-aug-cc-pVDZ-scan-d09-49-n400
 OpenBabel10311713223D

 19 17  0  0  0  0  0  0  0  0999 V2000
   -0.6202    0.4640   -0.3987 C   0  0  0  0  0  0  0  0  0  0  0  0
    0.7648    0.6958   -0.6068 C   0  0  0  0  0  0  0  0  0  0  0  0
    1.3999    0.1881    0.4891 C   0  0  0  0  0  0  0  0  0  0  0  0
    1.1212   -0.4059    1.5723 C   0  0  0  0  0  0  0  0  0  0  0  0
   -0.2606   -0.6361    1.7809 C   0  0  0  0  0  0  0  0  0  0  0  0
   -1.1100   -0.1790    0.7553 C   0  0  0  0  0  0  0  0  0  0  0  0
   -1.3160    0.8027   -1.1683 H   0  0  0  0  0  0  0  0  0  0  0  0
    1.1780    1.1872   -1.4826 H   0  0  0  0  0  0  0  0  0  0  0  0
    3.1714    2.3610   -3.4561 N   0  0  0  0  0  0  0  0  0  0  0  0
    4.1586    2.6544   -3.8537 N   0  0  0  0  0  0  0  0  0  0  0  0
   -2.1865   -0.3282    0.8533 H   0  0  0  0  0  0  0  0  0  0  0  0
   -0.6569   -1.1348    2.6655 H   0  0  0  0  0  0  0  0  0  0  0  0
    2.8879   -0.7089    2.2778 H   0  0  0  0  0  0  0  0  0  0  0  0
    4.7203    0.2295    1.6170 S   0  0  0  0  0  0  0  0  0  0  0  0
    3.8565   -0.7922    2.5274 O   0  0  0  0  0  0  0  0  0  0  0  0
    6.1224   -0.1815    1.7441 O   0  0  0  0  0  0  0  0  0  0  0  0
    4.0564    0.4356    0.3166 O   0  0  0  0  0  0  0  0  0  0  0  0
    4.5214    1.6643    2.4096 O   0  0  0  0  0  0  0  0  0  0  0  0
    5.1533    1.6755    3.1486 H   0  0  0  0  0  0  0  0  0  0  0  0
  1  6  1  0  0  0  0
  2  1  2  0  0  0  0
  2  3  1  0  0  0  0
  3  4  2  0  0  0  0
  4  5  1  0  0  0  0
  5 12  1  0  0  0  0
  6 11  1  0  0  0  0
  6  5  2  0  0  0  0
  7  1  1  0  0  0  0
  8  2  1  0  0  0  0
 10  9  3  0  0  0  0
 13 15  1  0  0  0  0
 14 16  2  0  0  0  0
 14 18  1  0  0  0  0
 14 15  1  0  0  0  0
 17 14  2  0  0  0  0
 18 19  1  0  0  0  0
M  RAD  2   3   2   4   2
M  END
