Coordinates from ORCA-job Ph-N2-OOCH-B3LYPG-aug-cc-pVDZ-scan-d09-49-n400
 OpenBabel10311713223D

 19 17  0  0  0  0  0  0  0  0999 V2000
   -1.1352    0.3156   -0.4964 C   0  0  0  0  0  0  0  0  0  0  0  0
    0.0271    0.8331   -1.1257 C   0  0  0  0  0  0  0  0  0  0  0  0
    1.0644    0.6174   -0.2631 C   0  0  0  0  0  0  0  0  0  0  0  0
    1.2539    0.1046    0.8764 C   0  0  0  0  0  0  0  0  0  0  0  0
    0.0989   -0.4125    1.5122 C   0  0  0  0  0  0  0  0  0  0  0  0
   -1.0948   -0.2843    0.7763 C   0  0  0  0  0  0  0  0  0  0  0  0
   -2.0839    0.3929   -1.0305 H   0  0  0  0  0  0  0  0  0  0  0  0
    0.0356    1.3010   -2.1052 H   0  0  0  0  0  0  0  0  0  0  0  0
    3.1614    1.8607   -1.9509 N   0  0  0  0  0  0  0  0  0  0  0  0
    4.1471    2.2929   -2.1955 N   0  0  0  0  0  0  0  0  0  0  0  0
   -2.0227   -0.6651    1.2061 H   0  0  0  0  0  0  0  0  0  0  0  0
    0.1146   -0.8824    2.4953 H   0  0  0  0  0  0  0  0  0  0  0  0
    2.9138   -0.1103    1.7865 H   0  0  0  0  0  0  0  0  0  0  0  0
    5.0848    0.0649    1.7083 S   0  0  0  0  0  0  0  0  0  0  0  0
    3.6705   -0.3358    2.4003 O   0  0  0  0  0  0  0  0  0  0  0  0
    6.1248   -0.5545    2.5401 O   0  0  0  0  0  0  0  0  0  0  0  0
    5.0011   -0.0936    0.2518 O   0  0  0  0  0  0  0  0  0  0  0  0
    5.1346    1.7015    1.9515 O   0  0  0  0  0  0  0  0  0  0  0  0
    5.4658    1.8453    2.8540 H   0  0  0  0  0  0  0  0  0  0  0  0
  1  6  1  0  0  0  0
  2  1  2  0  0  0  0
  2  3  1  0  0  0  0
  3  4  2  0  0  0  0
  4  5  1  0  0  0  0
  5 12  1  0  0  0  0
  6 11  1  0  0  0  0
  6  5  2  0  0  0  0
  7  1  1  0  0  0  0
  8  2  1  0  0  0  0
 10  9  3  0  0  0  0
 13 15  1  0  0  0  0
 14 18  1  0  0  0  0
 14 15  1  0  0  0  0
 14 16  2  0  0  0  0
 17 14  2  0  0  0  0
 18 19  1  0  0  0  0
M  RAD  2   3   2   4   2
M  END
