Coordinates from ORCA-job Ph-N2-OOCH-B3LYPG-aug-cc-pVDZ-scan-d09-49-n400
 OpenBabel10311713223D

 19 19  0  0  1  0  0  0  0  0999 V2000
   -0.3737   -0.1146   -0.7374 C   0  0  0  0  0  0  0  0  0  0  0  0
    0.4798    0.8473   -1.1837 C   0  0  0  0  0  0  0  0  0  0  0  0
    1.5015    1.3274   -0.2955 C   0  0  0  0  0  0  0  0  0  0  0  0
    1.8310    0.6834    1.0011 C   0  0  1  0  0  0  0  0  0  0  0  0
    0.7298   -0.2050    1.4575 C   0  0  0  0  0  0  0  0  0  0  0  0
   -0.2612   -0.6005    0.6213 C   0  0  0  0  0  0  0  0  0  0  0  0
   -1.1596   -0.4960   -1.3867 H   0  0  0  0  0  0  0  0  0  0  0  0
    0.4035    1.2717   -2.1838 H   0  0  0  0  0  0  0  0  0  0  0  0
    2.2731    2.3828   -0.6741 N   0  0  0  0  0  0  0  0  0  0  0  0
    2.9271    3.2598   -0.9771 N   0  0  0  0  0  0  0  0  0  0  0  0
   -1.0193   -1.2938    0.9883 H   0  0  0  0  0  0  0  0  0  0  0  0
    0.7889   -0.5642    2.4832 H   0  0  0  0  0  0  0  0  0  0  0  0
    2.1606    1.3925    1.7652 H   0  0  0  0  0  0  0  0  0  0  0  0
    4.2034   -0.2962    1.9233 S   0  0  0  0  0  0  0  0  0  0  0  0
    3.5543   -0.2153    3.2398 O   0  0  0  0  0  0  0  0  0  0  0  0
    5.1412   -1.3629    1.5434 O   0  0  0  0  0  0  0  0  0  0  0  0
    3.0946   -0.2097    0.7389 O   0  0  0  0  0  0  0  0  0  0  0  0
    4.9906    1.1592    1.7613 O   0  0  0  0  0  0  0  0  0  0  0  0
    5.6963    1.0253    1.1064 H   0  0  0  0  0  0  0  0  0  0  0  0
  1  6  1  0  0  0  0
  2  1  1  0  0  0  0
  2  3  2  0  0  0  0
  3  4  1  0  0  0  0
  4  5  1  0  0  0  0
  4 13  1  1  0  0  0
  5 12  1  0  0  0  0
  6 11  1  0  0  0  0
  6  5  2  0  0  0  0
  7  1  1  0  0  0  0
  8  2  1  0  0  0  0
  9  3  1  0  0  0  0
 10  9  1  0  0  0  0
 14 15  2  0  0  0  0
 16 14  2  0  0  0  0
 17  4  1  0  0  0  0
 17 14  1  0  0  0  0
 18 14  1  0  0  0  0
 19 18  1  0  0  0  0
M  RAD  3   1   2   9   2  10   3
M  END
