Coordinates from ORCA-job Ph-N2-OOCH-B3LYPG-aug-cc-pVDZ-scan-d09-49-n400
 OpenBabel10311713223D

 19 18  0  0  0  0  0  0  0  0999 V2000
   -0.8689    0.1929   -0.7095 C   0  0  0  0  0  0  0  0  0  0  0  0
    0.3532    0.7727   -1.0958 C   0  0  0  0  0  0  0  0  0  0  0  0
    1.2864    0.7048   -0.0958 C   0  0  0  0  0  0  0  0  0  0  0  0
    1.2890    0.2020    1.1640 C   0  0  0  0  0  0  0  0  0  0  0  0
    0.0335   -0.3543    1.4894 C   0  0  0  0  0  0  0  0  0  0  0  0
   -1.0194   -0.3603    0.5679 C   0  0  0  0  0  0  0  0  0  0  0  0
   -1.6899    0.1828   -1.4259 H   0  0  0  0  0  0  0  0  0  0  0  0
    0.5216    1.2123   -2.0742 H   0  0  0  0  0  0  0  0  0  0  0  0
    2.8828    1.5175   -0.6053 N   0  0  0  0  0  0  0  0  0  0  0  0
    3.5210    2.2644   -1.1136 N   0  0  0  0  0  0  0  0  0  0  0  0
   -1.9737   -0.8064    0.8465 H   0  0  0  0  0  0  0  0  0  0  0  0
   -0.0897   -0.7891    2.4810 H   0  0  0  0  0  0  0  0  0  0  0  0
    2.1597    0.2191    1.8454 H   0  0  0  0  0  0  0  0  0  0  0  0
    4.8168    0.1535    1.7064 S   0  0  0  0  0  0  0  0  0  0  0  0
    3.7652    0.3529    2.7645 O   0  0  0  0  0  0  0  0  0  0  0  0
    6.0158   -0.6373    2.0867 O   0  0  0  0  0  0  0  0  0  0  0  0
    4.1922   -0.2176    0.3721 O   0  0  0  0  0  0  0  0  0  0  0  0
    5.4044    1.7238    1.4265 O   0  0  0  0  0  0  0  0  0  0  0  0
    6.3617    1.6580    1.5613 H   0  0  0  0  0  0  0  0  0  0  0  0
  1  6  1  0  0  0  0
  2  1  2  0  0  0  0
  2  3  1  0  0  0  0
  3  4  2  0  0  0  0
  4  5  1  0  0  0  0
  4 13  1  0  0  0  0
  5 12  1  0  0  0  0
  6 11  1  0  0  0  0
  6  5  2  0  0  0  0
  7  1  1  0  0  0  0
  8  2  1  0  0  0  0
  9  3  1  0  0  0  0
 10  9  1  0  0  0  0
 14 16  2  0  0  0  0
 14 15  1  0  0  0  0
 17 14  2  0  0  0  0
 18 19  1  0  0  0  0
 18 14  1  0  0  0  0
M  RAD  3   9   2  10   3  15   2
M  END
