Coordinates from ORCA-job Ph-N2-OOCH-B3LYPG-aug-cc-pVDZ-scan-d09-49-n400
 OpenBabel10311713223D

 19 17  0  0  0  0  0  0  0  0999 V2000
   -1.0794    0.3336   -0.4282 C   0  0  0  0  0  0  0  0  0  0  0  0
    0.1700    0.7473   -0.9609 C   0  0  0  0  0  0  0  0  0  0  0  0
    1.1155    0.4357   -0.0227 C   0  0  0  0  0  0  0  0  0  0  0  0
    1.1513   -0.0986    1.1192 C   0  0  0  0  0  0  0  0  0  0  0  0
   -0.0825   -0.5149    1.6663 C   0  0  0  0  0  0  0  0  0  0  0  0
   -1.1957   -0.2736    0.8366 C   0  0  0  0  0  0  0  0  0  0  0  0
   -1.9729    0.4992   -1.0329 H   0  0  0  0  0  0  0  0  0  0  0  0
    0.2949    1.2177   -1.9314 H   0  0  0  0  0  0  0  0  0  0  0  0
    3.5541    2.1600   -2.6499 N   0  0  0  0  0  0  0  0  0  0  0  0
    4.4442    2.6415   -3.0915 N   0  0  0  0  0  0  0  0  0  0  0  0
   -2.1864   -0.5696    1.1856 H   0  0  0  0  0  0  0  0  0  0  0  0
   -0.1873   -0.9883    2.6419 H   0  0  0  0  0  0  0  0  0  0  0  0
    2.9115   -0.3267    1.9340 H   0  0  0  0  0  0  0  0  0  0  0  0
    5.0266    0.1162    1.6999 S   0  0  0  0  0  0  0  0  0  0  0  0
    3.7374   -0.5283    2.4534 O   0  0  0  0  0  0  0  0  0  0  0  0
    6.2029   -0.4676    2.3571 O   0  0  0  0  0  0  0  0  0  0  0  0
    4.8170    0.1165    0.2474 O   0  0  0  0  0  0  0  0  0  0  0  0
    4.9220    1.7071    2.1416 O   0  0  0  0  0  0  0  0  0  0  0  0
    5.3186    1.7841    3.0258 H   0  0  0  0  0  0  0  0  0  0  0  0
  1  6  1  0  0  0  0
  2  1  2  0  0  0  0
  2  3  1  0  0  0  0
  3  4  2  0  0  0  0
  4  5  1  0  0  0  0
  5 12  1  0  0  0  0
  6 11  1  0  0  0  0
  6  5  2  0  0  0  0
  7  1  1  0  0  0  0
  8  2  1  0  0  0  0
 10  9  3  0  0  0  0
 13 15  1  0  0  0  0
 14 18  1  0  0  0  0
 14 16  2  0  0  0  0
 14 15  1  0  0  0  0
 17 14  2  0  0  0  0
 18 19  1  0  0  0  0
M  RAD  2   3   2   4   2
M  END
