Coordinates from ORCA-job Ph-N2-OOCH-B3LYPG-aug-cc-pVDZ-scan-d09-49-n400
 OpenBabel10311713223D

 19 17  0  0  0  0  0  0  0  0999 V2000
   -1.0895    0.3315   -0.4312 C   0  0  0  0  0  0  0  0  0  0  0  0
    0.1531    0.7557   -0.9719 C   0  0  0  0  0  0  0  0  0  0  0  0
    1.1051    0.4500   -0.0384 C   0  0  0  0  0  0  0  0  0  0  0  0
    1.1534   -0.0846    1.1024 C   0  0  0  0  0  0  0  0  0  0  0  0
   -0.0734   -0.5112    1.6570 C   0  0  0  0  0  0  0  0  0  0  0  0
   -1.1934   -0.2777    0.8340 C   0  0  0  0  0  0  0  0  0  0  0  0
   -1.9881    0.4904   -1.0302 H   0  0  0  0  0  0  0  0  0  0  0  0
    0.2689    1.2279   -1.9427 H   0  0  0  0  0  0  0  0  0  0  0  0
    3.5476    2.1323   -2.5826 N   0  0  0  0  0  0  0  0  0  0  0  0
    4.4492    2.6077   -3.0069 N   0  0  0  0  0  0  0  0  0  0  0  0
   -2.1796   -0.5818    1.1887 H   0  0  0  0  0  0  0  0  0  0  0  0
   -0.1684   -0.9862    2.6328 H   0  0  0  0  0  0  0  0  0  0  0  0
    2.9113   -0.3086    1.9187 H   0  0  0  0  0  0  0  0  0  0  0  0
    5.0327    0.1162    1.6927 S   0  0  0  0  0  0  0  0  0  0  0  0
    3.7334   -0.5111    2.4442 O   0  0  0  0  0  0  0  0  0  0  0  0
    6.1996   -0.4701    2.3641 O   0  0  0  0  0  0  0  0  0  0  0  0
    4.8337    0.1040    0.2387 O   0  0  0  0  0  0  0  0  0  0  0  0
    4.9373    1.7122    2.1180 O   0  0  0  0  0  0  0  0  0  0  0  0
    5.3286    1.7950    3.0041 H   0  0  0  0  0  0  0  0  0  0  0  0
  1  6  1  0  0  0  0
  2  1  2  0  0  0  0
  2  3  1  0  0  0  0
  3  4  2  0  0  0  0
  4  5  1  0  0  0  0
  5 12  1  0  0  0  0
  6 11  1  0  0  0  0
  6  5  2  0  0  0  0
  7  1  1  0  0  0  0
  8  2  1  0  0  0  0
 10  9  3  0  0  0  0
 13 15  1  0  0  0  0
 14 18  1  0  0  0  0
 14 16  2  0  0  0  0
 14 15  1  0  0  0  0
 17 14  2  0  0  0  0
 18 19  1  0  0  0  0
M  RAD  2   3   2   4   2
M  END
