Coordinates from ORCA-job Ph-N2-OOCH-B3LYPG-aug-cc-pVDZ-scan-d09-49-n400
 OpenBabel10311713223D

 19 17  0  0  0  0  0  0  0  0999 V2000
   -1.0921    0.3310   -0.4321 C   0  0  0  0  0  0  0  0  0  0  0  0
    0.1486    0.7580   -0.9750 C   0  0  0  0  0  0  0  0  0  0  0  0
    1.1030    0.4543   -0.0433 C   0  0  0  0  0  0  0  0  0  0  0  0
    1.1546   -0.0806    1.0973 C   0  0  0  0  0  0  0  0  0  0  0  0
   -0.0703   -0.5099    1.6540 C   0  0  0  0  0  0  0  0  0  0  0  0
   -1.1923   -0.2787    0.8332 C   0  0  0  0  0  0  0  0  0  0  0  0
   -1.9922    0.4881   -1.0294 H   0  0  0  0  0  0  0  0  0  0  0  0
    0.2616    1.2307   -1.9458 H   0  0  0  0  0  0  0  0  0  0  0  0
    3.5444    2.1249   -2.5653 N   0  0  0  0  0  0  0  0  0  0  0  0
    4.4488    2.5987   -2.9852 N   0  0  0  0  0  0  0  0  0  0  0  0
   -2.1773   -0.5850    1.1896 H   0  0  0  0  0  0  0  0  0  0  0  0
   -0.1625   -0.9854    2.6298 H   0  0  0  0  0  0  0  0  0  0  0  0
    2.9114   -0.3038    1.9147 H   0  0  0  0  0  0  0  0  0  0  0  0
    5.0343    0.1158    1.6916 S   0  0  0  0  0  0  0  0  0  0  0  0
    3.7321   -0.5067    2.4421 O   0  0  0  0  0  0  0  0  0  0  0  0
    6.1986   -0.4711    2.3670 O   0  0  0  0  0  0  0  0  0  0  0  0
    4.8384    0.1000    0.2372 O   0  0  0  0  0  0  0  0  0  0  0  0
    4.9413    1.7132    2.1123 O   0  0  0  0  0  0  0  0  0  0  0  0
    5.3311    1.7976    2.9989 H   0  0  0  0  0  0  0  0  0  0  0  0
  1  6  1  0  0  0  0
  2  1  2  0  0  0  0
  2  3  1  0  0  0  0
  3  4  2  0  0  0  0
  4  5  1  0  0  0  0
  5 12  1  0  0  0  0
  6 11  1  0  0  0  0
  6  5  2  0  0  0  0
  7  1  1  0  0  0  0
  8  2  1  0  0  0  0
 10  9  3  0  0  0  0
 13 15  1  0  0  0  0
 14 18  1  0  0  0  0
 14 16  2  0  0  0  0
 14 15  1  0  0  0  0
 17 14  2  0  0  0  0
 18 19  1  0  0  0  0
M  RAD  2   3   2   4   2
M  END
