Coordinates from ORCA-job Ph-N2-OOCH-B3LYPG-aug-cc-pVDZ-scan-d09-49-n400
 OpenBabel10311713223D

 19 17  0  0  0  0  0  0  0  0999 V2000
   -1.1298    0.3240   -0.4557 C   0  0  0  0  0  0  0  0  0  0  0  0
    0.0686    0.8050   -1.0463 C   0  0  0  0  0  0  0  0  0  0  0  0
    1.0715    0.5425   -0.1550 C   0  0  0  0  0  0  0  0  0  0  0  0
    1.1988    0.0115    0.9829 C   0  0  0  0  0  0  0  0  0  0  0  0
    0.0129   -0.4698    1.5844 C   0  0  0  0  0  0  0  0  0  0  0  0
   -1.1510   -0.2891    0.8115 C   0  0  0  0  0  0  0  0  0  0  0  0
   -2.0590    0.4415   -1.0163 H   0  0  0  0  0  0  0  0  0  0  0  0
    0.1223    1.2816   -2.0202 H   0  0  0  0  0  0  0  0  0  0  0  0
    3.4158    1.9825   -2.2472 N   0  0  0  0  0  0  0  0  0  0  0  0
    4.3664    2.4337   -2.5806 N   0  0  0  0  0  0  0  0  0  0  0  0
   -2.1058   -0.6386    1.2079 H   0  0  0  0  0  0  0  0  0  0  0  0
   -0.0188   -0.9489    2.5624 H   0  0  0  0  0  0  0  0  0  0  0  0
    2.9111   -0.2124    1.8428 H   0  0  0  0  0  0  0  0  0  0  0  0
    5.0606    0.0960    1.6909 S   0  0  0  0  0  0  0  0  0  0  0  0
    3.7010   -0.4260    2.4139 O   0  0  0  0  0  0  0  0  0  0  0  0
    6.1674   -0.5009    2.4495 O   0  0  0  0  0  0  0  0  0  0  0  0
    4.9268    0.0064    0.2323 O   0  0  0  0  0  0  0  0  0  0  0  0
    5.0227    1.7174    2.0190 O   0  0  0  0  0  0  0  0  0  0  0  0
    5.3804    1.8351    2.9153 H   0  0  0  0  0  0  0  0  0  0  0  0
  1  6  1  0  0  0  0
  2  1  2  0  0  0  0
  2  3  1  0  0  0  0
  3  4  2  0  0  0  0
  4  5  1  0  0  0  0
  5 12  1  0  0  0  0
  6 11  1  0  0  0  0
  6  5  2  0  0  0  0
  7  1  1  0  0  0  0
  8  2  1  0  0  0  0
 10  9  3  0  0  0  0
 13 15  1  0  0  0  0
 14 18  1  0  0  0  0
 14 15  1  0  0  0  0
 14 16  2  0  0  0  0
 17 14  2  0  0  0  0
 18 19  1  0  0  0  0
M  RAD  2   3   2   4   2
M  END
