Coordinates from ORCA-job Ph-N2-OOCH-B3LYPG-aug-cc-pVDZ-scan-d09-49-n400
 OpenBabel10311713223D

 19 17  0  0  0  0  0  0  0  0999 V2000
   -0.8881    0.1821   -0.6916 C   0  0  0  0  0  0  0  0  0  0  0  0
    0.3192    0.7800   -1.1055 C   0  0  0  0  0  0  0  0  0  0  0  0
    1.2529    0.7154   -0.1123 C   0  0  0  0  0  0  0  0  0  0  0  0
    1.3119    0.2265    1.1414 C   0  0  0  0  0  0  0  0  0  0  0  0
    0.0662   -0.3501    1.4890 C   0  0  0  0  0  0  0  0  0  0  0  0
   -1.0046   -0.3714    0.5893 C   0  0  0  0  0  0  0  0  0  0  0  0
   -1.7218    0.1616   -1.3930 H   0  0  0  0  0  0  0  0  0  0  0  0
    0.4657    1.2214   -2.0861 H   0  0  0  0  0  0  0  0  0  0  0  0
    2.8870    1.5957   -0.6855 N   0  0  0  0  0  0  0  0  0  0  0  0
    3.5899    2.3009   -1.1619 N   0  0  0  0  0  0  0  0  0  0  0  0
   -1.9465   -0.8307    0.8876 H   0  0  0  0  0  0  0  0  0  0  0  0
   -0.0262   -0.7878    2.4829 H   0  0  0  0  0  0  0  0  0  0  0  0
    2.2049    0.2477    1.8109 H   0  0  0  0  0  0  0  0  0  0  0  0
    4.8025    0.1240    1.6900 S   0  0  0  0  0  0  0  0  0  0  0  0
    3.7116    0.3564    2.7133 O   0  0  0  0  0  0  0  0  0  0  0  0
    5.9769   -0.6564    2.1586 O   0  0  0  0  0  0  0  0  0  0  0  0
    4.2206   -0.2664    0.3526 O   0  0  0  0  0  0  0  0  0  0  0  0
    5.4136    1.6839    1.3932 O   0  0  0  0  0  0  0  0  0  0  0  0
    6.3258    1.6587    1.7186 H   0  0  0  0  0  0  0  0  0  0  0  0
  1  6  1  0  0  0  0
  2  1  2  0  0  0  0
  2  3  1  0  0  0  0
  3  4  2  0  0  0  0
  4  5  1  0  0  0  0
  4 13  1  0  0  0  0
  5 12  1  0  0  0  0
  6 11  1  0  0  0  0
  6  5  2  0  0  0  0
  7  1  1  0  0  0  0
  8  2  1  0  0  0  0
 10  9  3  0  0  0  0
 14 16  2  0  0  0  0
 14 15  1  0  0  0  0
 17 14  2  0  0  0  0
 18 14  1  0  0  0  0
 18 19  1  0  0  0  0
M  RAD  2   3   2  15   2
M  END
