Coordinates from ORCA-job Ph-N2-OOCH-B3LYPG-aug-cc-pVDZ-scan-d09-49-n400
 OpenBabel10311713223D

 19 17  0  0  0  0  0  0  0  0999 V2000
   -1.1070    0.3294   -0.4386 C   0  0  0  0  0  0  0  0  0  0  0  0
    0.1216    0.7746   -0.9950 C   0  0  0  0  0  0  0  0  0  0  0  0
    1.0888    0.4817   -0.0737 C   0  0  0  0  0  0  0  0  0  0  0  0
    1.1634   -0.0544    1.0650 C   0  0  0  0  0  0  0  0  0  0  0  0
   -0.0500   -0.5014    1.6340 C   0  0  0  0  0  0  0  0  0  0  0  0
   -1.1845   -0.2841    0.8265 C   0  0  0  0  0  0  0  0  0  0  0  0
   -2.0159    0.4751   -1.0253 H   0  0  0  0  0  0  0  0  0  0  0  0
    0.2175    1.2505   -1.9660 H   0  0  0  0  0  0  0  0  0  0  0  0
    3.5145    2.0775   -2.4581 N   0  0  0  0  0  0  0  0  0  0  0  0
    4.4358    2.5422   -2.8507 N   0  0  0  0  0  0  0  0  0  0  0  0
   -2.1610   -0.6046    1.1934 H   0  0  0  0  0  0  0  0  0  0  0  0
   -0.1246   -0.9802    2.6097 H   0  0  0  0  0  0  0  0  0  0  0  0
    2.9130   -0.2731    1.8895 H   0  0  0  0  0  0  0  0  0  0  0  0
    5.0463    0.1117    1.6871 S   0  0  0  0  0  0  0  0  0  0  0  0
    3.7249   -0.4790    2.4297 O   0  0  0  0  0  0  0  0  0  0  0  0
    6.1921   -0.4775    2.3918 O   0  0  0  0  0  0  0  0  0  0  0  0
    4.8731    0.0705    0.2303 O   0  0  0  0  0  0  0  0  0  0  0  0
    4.9684    1.7181    2.0755 O   0  0  0  0  0  0  0  0  0  0  0  0
    5.3454    1.8146    2.9664 H   0  0  0  0  0  0  0  0  0  0  0  0
  1  6  1  0  0  0  0
  2  1  2  0  0  0  0
  2  3  1  0  0  0  0
  3  4  2  0  0  0  0
  4  5  1  0  0  0  0
  5 12  1  0  0  0  0
  6 11  1  0  0  0  0
  6  5  2  0  0  0  0
  7  1  1  0  0  0  0
  8  2  1  0  0  0  0
 10  9  3  0  0  0  0
 13 15  1  0  0  0  0
 14 18  1  0  0  0  0
 14 16  2  0  0  0  0
 14 15  1  0  0  0  0
 17 14  2  0  0  0  0
 18 19  1  0  0  0  0
M  RAD  2   3   2   4   2
M  END
