Coordinates from ORCA-job Ph-N2-OOCH-B3LYPG-aug-cc-pVDZ-scan-d09-49-n400
 OpenBabel10311713223D

 19 17  0  0  0  0  0  0  0  0999 V2000
   -1.1344    0.3195   -0.4810 C   0  0  0  0  0  0  0  0  0  0  0  0
    0.0415    0.8230   -1.0971 C   0  0  0  0  0  0  0  0  0  0  0  0
    1.0668    0.5889   -0.2244 C   0  0  0  0  0  0  0  0  0  0  0  0
    1.2325    0.0685    0.9144 C   0  0  0  0  0  0  0  0  0  0  0  0
    0.0667   -0.4350    1.5390 C   0  0  0  0  0  0  0  0  0  0  0  0
   -1.1166   -0.2859    0.7897 C   0  0  0  0  0  0  0  0  0  0  0  0
   -2.0765    0.4126   -1.0244 H   0  0  0  0  0  0  0  0  0  0  0  0
    0.0660    1.2946   -2.0745 H   0  0  0  0  0  0  0  0  0  0  0  0
    3.2579    1.9067   -2.0567 N   0  0  0  0  0  0  0  0  0  0  0  0
    4.2309    2.3475   -2.3347 N   0  0  0  0  0  0  0  0  0  0  0  0
   -2.0548   -0.6546    1.2076 H   0  0  0  0  0  0  0  0  0  0  0  0
    0.0651   -0.9087    2.5202 H   0  0  0  0  0  0  0  0  0  0  0  0
    2.9135   -0.1501    1.8072 H   0  0  0  0  0  0  0  0  0  0  0  0
    5.0775    0.0753    1.7021 S   0  0  0  0  0  0  0  0  0  0  0  0
    3.6820   -0.3699    2.4065 O   0  0  0  0  0  0  0  0  0  0  0  0
    6.1423   -0.5328    2.5105 O   0  0  0  0  0  0  0  0  0  0  0  0
    4.9775   -0.0624    0.2446 O   0  0  0  0  0  0  0  0  0  0  0  0
    5.0919    1.7083    1.9711 O   0  0  0  0  0  0  0  0  0  0  0  0
    5.4319    1.8456    2.8715 H   0  0  0  0  0  0  0  0  0  0  0  0
  1  6  1  0  0  0  0
  2  1  2  0  0  0  0
  2  3  1  0  0  0  0
  3  4  2  0  0  0  0
  4  5  1  0  0  0  0
  5 12  1  0  0  0  0
  6 11  1  0  0  0  0
  6  5  2  0  0  0  0
  7  1  1  0  0  0  0
  8  2  1  0  0  0  0
 10  9  3  0  0  0  0
 13 15  1  0  0  0  0
 14 18  1  0  0  0  0
 14 15  1  0  0  0  0
 14 16  2  0  0  0  0
 17 14  2  0  0  0  0
 18 19  1  0  0  0  0
M  RAD  2   3   2   4   2
M  END
