Coordinates from ORCA-job Ph-N2-OOCH-B3LYPG-aug-cc-pVDZ-scan-d09-49-n400
 OpenBabel10311713223D

 19 17  0  0  0  0  0  0  0  0999 V2000
   -1.0751    0.3343   -0.4272 C   0  0  0  0  0  0  0  0  0  0  0  0
    0.1771    0.7439   -0.9570 C   0  0  0  0  0  0  0  0  0  0  0  0
    1.1170    0.4288   -0.0143 C   0  0  0  0  0  0  0  0  0  0  0  0
    1.1484   -0.1050    1.1274 C   0  0  0  0  0  0  0  0  0  0  0  0
   -0.0878   -0.5174    1.6712 C   0  0  0  0  0  0  0  0  0  0  0  0
   -1.1975   -0.2723    0.8377 C   0  0  0  0  0  0  0  0  0  0  0  0
   -1.9664    0.5026   -1.0345 H   0  0  0  0  0  0  0  0  0  0  0  0
    0.3069    1.2139   -1.9271 H   0  0  0  0  0  0  0  0  0  0  0  0
    3.5581    2.1706   -2.6732 N   0  0  0  0  0  0  0  0  0  0  0  0
    4.4440    2.6543   -3.1204 N   0  0  0  0  0  0  0  0  0  0  0  0
   -2.1903   -0.5649    1.1836 H   0  0  0  0  0  0  0  0  0  0  0  0
   -0.1972   -0.9902    2.6466 H   0  0  0  0  0  0  0  0  0  0  0  0
    2.9108   -0.3330    1.9397 H   0  0  0  0  0  0  0  0  0  0  0  0
    5.0249    0.1168    1.7009 S   0  0  0  0  0  0  0  0  0  0  0  0
    3.7389   -0.5333    2.4560 O   0  0  0  0  0  0  0  0  0  0  0  0
    6.2040   -0.4665    2.3535 O   0  0  0  0  0  0  0  0  0  0  0  0
    4.8122    0.1217    0.2487 O   0  0  0  0  0  0  0  0  0  0  0  0
    4.9177    1.7060    2.1481 O   0  0  0  0  0  0  0  0  0  0  0  0
    5.3163    1.7811    3.0317 H   0  0  0  0  0  0  0  0  0  0  0  0
  1  6  1  0  0  0  0
  2  1  2  0  0  0  0
  2  3  1  0  0  0  0
  3  4  2  0  0  0  0
  4  5  1  0  0  0  0
  5 12  1  0  0  0  0
  6 11  1  0  0  0  0
  6  5  2  0  0  0  0
  7  1  1  0  0  0  0
  8  2  1  0  0  0  0
 10  9  3  0  0  0  0
 13 15  1  0  0  0  0
 14 18  1  0  0  0  0
 14 16  2  0  0  0  0
 14 15  1  0  0  0  0
 17 14  2  0  0  0  0
 18 19  1  0  0  0  0
M  RAD  2   3   2   4   2
M  END
