Coordinates from ORCA-job Ph-N2-OOCH-B3LYPG-aug-cc-pVDZ-scan-d09-49-n400
 OpenBabel10311713223D

 19 17  0  0  0  0  0  0  0  0999 V2000
   -1.1164    0.3062   -0.5358 C   0  0  0  0  0  0  0  0  0  0  0  0
    0.0116    0.8629   -1.1893 C   0  0  0  0  0  0  0  0  0  0  0  0
    1.0759    0.6950   -0.3520 C   0  0  0  0  0  0  0  0  0  0  0  0
    1.3328    0.2013    0.7884 C   0  0  0  0  0  0  0  0  0  0  0  0
    0.1977   -0.3526    1.4391 C   0  0  0  0  0  0  0  0  0  0  0  0
   -1.0200   -0.2818    0.7389 C   0  0  0  0  0  0  0  0  0  0  0  0
   -2.0783    0.3427   -1.0498 H   0  0  0  0  0  0  0  0  0  0  0  0
   -0.0187    1.3245   -2.1715 H   0  0  0  0  0  0  0  0  0  0  0  0
    2.9031    1.7416   -1.6697 N   0  0  0  0  0  0  0  0  0  0  0  0
    3.9164    2.1535   -1.8180 N   0  0  0  0  0  0  0  0  0  0  0  0
   -1.9193   -0.6974    1.1961 H   0  0  0  0  0  0  0  0  0  0  0  0
    0.2558   -0.8149    2.4248 H   0  0  0  0  0  0  0  0  0  0  0  0
    2.8901   -0.0151    1.7477 H   0  0  0  0  0  0  0  0  0  0  0  0
    5.0716    0.0346    1.7196 S   0  0  0  0  0  0  0  0  0  0  0  0
    3.6265   -0.2406    2.3982 O   0  0  0  0  0  0  0  0  0  0  0  0
    6.0622   -0.5989    2.6005 O   0  0  0  0  0  0  0  0  0  0  0  0
    5.0050   -0.1946    0.2709 O   0  0  0  0  0  0  0  0  0  0  0  0
    5.2200    1.6773    1.8768 O   0  0  0  0  0  0  0  0  0  0  0  0
    5.5456    1.8479    2.7766 H   0  0  0  0  0  0  0  0  0  0  0  0
  1  6  1  0  0  0  0
  2  1  2  0  0  0  0
  2  3  1  0  0  0  0
  3  4  2  0  0  0  0
  4  5  1  0  0  0  0
  5 12  1  0  0  0  0
  6 11  1  0  0  0  0
  6  5  2  0  0  0  0
  7  1  1  0  0  0  0
  8  2  1  0  0  0  0
 10  9  3  0  0  0  0
 13 15  1  0  0  0  0
 14 18  1  0  0  0  0
 14 15  1  0  0  0  0
 14 16  2  0  0  0  0
 17 14  2  0  0  0  0
 18 19  1  0  0  0  0
M  RAD  2   3   2   4   2
M  END
