Coordinates from ORCA-job Ph-N2-OOCH-B3LYPG-aug-cc-pVDZ-scan-d09-49-n400
 OpenBabel10311713223D

 19 17  0  0  0  0  0  0  0  0999 V2000
   -1.1265    0.3261   -0.4518 C   0  0  0  0  0  0  0  0  0  0  0  0
    0.0783    0.8028   -1.0337 C   0  0  0  0  0  0  0  0  0  0  0  0
    1.0724    0.5325   -0.1354 C   0  0  0  0  0  0  0  0  0  0  0  0
    1.1893   -0.0018    1.0011 C   0  0  0  0  0  0  0  0  0  0  0  0
   -0.0018   -0.4789    1.5944 C   0  0  0  0  0  0  0  0  0  0  0  0
   -1.1596   -0.2901    0.8136 C   0  0  0  0  0  0  0  0  0  0  0  0
   -2.0513    0.4496   -1.0183 H   0  0  0  0  0  0  0  0  0  0  0  0
    0.1402    1.2814   -2.0062 H   0  0  0  0  0  0  0  0  0  0  0  0
    3.4391    1.9965   -2.2851 N   0  0  0  0  0  0  0  0  0  0  0  0
    4.3849    2.4490   -2.6305 N   0  0  0  0  0  0  0  0  0  0  0  0
   -2.1190   -0.6357    1.2024 H   0  0  0  0  0  0  0  0  0  0  0  0
   -0.0424   -0.9603    2.5710 H   0  0  0  0  0  0  0  0  0  0  0  0
    2.9118   -0.2230    1.8509 H   0  0  0  0  0  0  0  0  0  0  0  0
    5.0600    0.1002    1.6883 S   0  0  0  0  0  0  0  0  0  0  0  0
    3.7069   -0.4349    2.4150 O   0  0  0  0  0  0  0  0  0  0  0  0
    6.1734   -0.4942    2.4392 O   0  0  0  0  0  0  0  0  0  0  0  0
    4.9216    0.0180    0.2295 O   0  0  0  0  0  0  0  0  0  0  0  0
    5.0129    1.7195    2.0254 O   0  0  0  0  0  0  0  0  0  0  0  0
    5.3715    1.8345    2.9217 H   0  0  0  0  0  0  0  0  0  0  0  0
  1  6  1  0  0  0  0
  2  1  2  0  0  0  0
  2  3  1  0  0  0  0
  3  4  2  0  0  0  0
  4  5  1  0  0  0  0
  5 12  1  0  0  0  0
  6 11  1  0  0  0  0
  6  5  2  0  0  0  0
  7  1  1  0  0  0  0
  8  2  1  0  0  0  0
 10  9  3  0  0  0  0
 13 15  1  0  0  0  0
 14 18  1  0  0  0  0
 14 15  1  0  0  0  0
 14 16  2  0  0  0  0
 17 14  2  0  0  0  0
 18 19  1  0  0  0  0
M  RAD  2   3   2   4   2
M  END
