Coordinates from ORCA-job Ph-N2-OOCH-B3LYPG-aug-cc-pVDZ-scan-d09-49-n400
 OpenBabel10311713223D

 19 17  0  0  0  0  0  0  0  0999 V2000
   -0.6859    0.4589   -0.3926 C   0  0  0  0  0  0  0  0  0  0  0  0
    0.6898    0.7132   -0.6336 C   0  0  0  0  0  0  0  0  0  0  0  0
    1.3600    0.2122    0.4447 C   0  0  0  0  0  0  0  0  0  0  0  0
    1.1144   -0.3903    1.5303 C   0  0  0  0  0  0  0  0  0  0  0  0
   -0.2570   -0.6438    1.7738 C   0  0  0  0  0  0  0  0  0  0  0  0
   -1.1375   -0.1961    0.7703 C   0  0  0  0  0  0  0  0  0  0  0  0
   -1.4057    0.7893   -1.1435 H   0  0  0  0  0  0  0  0  0  0  0  0
    1.0761    1.2141   -1.5162 H   0  0  0  0  0  0  0  0  0  0  0  0
    3.2954    2.2473   -3.1595 N   0  0  0  0  0  0  0  0  0  0  0  0
    4.3492    2.4683   -3.4030 N   0  0  0  0  0  0  0  0  0  0  0  0
   -2.2089   -0.3626    0.8935 H   0  0  0  0  0  0  0  0  0  0  0  0
   -0.6237   -1.1521    2.6655 H   0  0  0  0  0  0  0  0  0  0  0  0
    2.9084   -0.6742    2.1979 H   0  0  0  0  0  0  0  0  0  0  0  0
    4.7265    0.2768    1.5158 S   0  0  0  0  0  0  0  0  0  0  0  0
    3.8792   -0.7518    2.4356 O   0  0  0  0  0  0  0  0  0  0  0  0
    6.1316   -0.1291    1.6241 O   0  0  0  0  0  0  0  0  0  0  0  0
    4.0438    0.4837    0.2259 O   0  0  0  0  0  0  0  0  0  0  0  0
    4.5319    1.7080    2.3162 O   0  0  0  0  0  0  0  0  0  0  0  0
    5.1740    1.7196    3.0464 H   0  0  0  0  0  0  0  0  0  0  0  0
  1  6  1  0  0  0  0
  2  1  2  0  0  0  0
  2  3  1  0  0  0  0
  3  4  2  0  0  0  0
  4  5  1  0  0  0  0
  5 12  1  0  0  0  0
  6 11  1  0  0  0  0
  6  5  2  0  0  0  0
  7  1  1  0  0  0  0
  8  2  1  0  0  0  0
 10  9  3  0  0  0  0
 13 15  1  0  0  0  0
 14 16  2  0  0  0  0
 14 18  1  0  0  0  0
 14 15  1  0  0  0  0
 17 14  2  0  0  0  0
 18 19  1  0  0  0  0
M  RAD  2   3   2   4   2
M  END
