Coordinates from ORCA-job Ph-N2-OOCH-B3LYPG-aug-cc-pVDZ-scan-d09-49-n400
 OpenBabel10311713223D

 19 17  0  0  0  0  0  0  0  0999 V2000
   -1.0607    0.3359   -0.4224 C   0  0  0  0  0  0  0  0  0  0  0  0
    0.2015    0.7230   -0.9448 C   0  0  0  0  0  0  0  0  0  0  0  0
    1.1310    0.3990    0.0052 C   0  0  0  0  0  0  0  0  0  0  0  0
    1.1447   -0.1299    1.1502 C   0  0  0  0  0  0  0  0  0  0  0  0
   -0.1019   -0.5202    1.6869 C   0  0  0  0  0  0  0  0  0  0  0  0
   -1.2016   -0.2621    0.8443 C   0  0  0  0  0  0  0  0  0  0  0  0
   -1.9447    0.5147   -1.0371 H   0  0  0  0  0  0  0  0  0  0  0  0
    0.3453    1.1860   -1.9162 H   0  0  0  0  0  0  0  0  0  0  0  0
    3.5713    2.2180   -2.7687 N   0  0  0  0  0  0  0  0  0  0  0  0
    4.4397    2.7126   -3.2383 N   0  0  0  0  0  0  0  0  0  0  0  0
   -2.2014   -0.5373    1.1844 H   0  0  0  0  0  0  0  0  0  0  0  0
   -0.2257   -0.9862    2.6637 H   0  0  0  0  0  0  0  0  0  0  0  0
    2.9112   -0.3616    1.9589 H   0  0  0  0  0  0  0  0  0  0  0  0
    5.0160    0.1174    1.7098 S   0  0  0  0  0  0  0  0  0  0  0  0
    3.7452   -0.5598    2.4661 O   0  0  0  0  0  0  0  0  0  0  0  0
    6.2084   -0.4621    2.3412 O   0  0  0  0  0  0  0  0  0  0  0  0
    4.7883    0.1427    0.2602 O   0  0  0  0  0  0  0  0  0  0  0  0
    4.8945    1.6978    2.1835 O   0  0  0  0  0  0  0  0  0  0  0  0
    5.3005    1.7634    3.0644 H   0  0  0  0  0  0  0  0  0  0  0  0
  1  6  1  0  0  0  0
  2  1  2  0  0  0  0
  2  3  1  0  0  0  0
  3  4  2  0  0  0  0
  4  5  1  0  0  0  0
  5 12  1  0  0  0  0
  6 11  1  0  0  0  0
  6  5  2  0  0  0  0
  7  1  1  0  0  0  0
  8  2  1  0  0  0  0
 10  9  3  0  0  0  0
 13 15  1  0  0  0  0
 14 18  1  0  0  0  0
 14 16  2  0  0  0  0
 14 15  1  0  0  0  0
 17 14  2  0  0  0  0
 18 19  1  0  0  0  0
M  RAD  2   3   2   4   2
M  END
