Coordinates from ORCA-job Ph-N2-OOCH-B3LYPG-aug-cc-pVDZ-scan-d09-49-n400
 OpenBabel10311713223D

 19 19  0  0  1  0  0  0  0  0999 V2000
   -0.3638   -0.0882   -0.7308 C   0  0  0  0  0  0  0  0  0  0  0  0
    0.5009    0.8474   -1.1908 C   0  0  0  0  0  0  0  0  0  0  0  0
    1.5582    1.3543   -0.3230 C   0  0  0  0  0  0  0  0  0  0  0  0
    1.8577    0.6716    0.9928 C   0  0  1  0  0  0  0  0  0  0  0  0
    0.7432   -0.2012    1.4570 C   0  0  0  0  0  0  0  0  0  0  0  0
   -0.2610   -0.5740    0.6335 C   0  0  0  0  0  0  0  0  0  0  0  0
   -1.1574   -0.4619   -1.3760 H   0  0  0  0  0  0  0  0  0  0  0  0
    0.4310    1.2566   -2.1983 H   0  0  0  0  0  0  0  0  0  0  0  0
    2.2382    2.2765   -0.6468 N   0  0  0  0  0  0  0  0  0  0  0  0
    2.9046    3.1622   -0.9466 N   0  0  0  0  0  0  0  0  0  0  0  0
   -1.0329   -1.2499    1.0036 H   0  0  0  0  0  0  0  0  0  0  0  0
    0.8072   -0.5620    2.4821 H   0  0  0  0  0  0  0  0  0  0  0  0
    2.1718    1.3944    1.7527 H   0  0  0  0  0  0  0  0  0  0  0  0
    4.2044   -0.2996    1.9195 S   0  0  0  0  0  0  0  0  0  0  0  0
    3.5523   -0.2749    3.2353 O   0  0  0  0  0  0  0  0  0  0  0  0
    5.1550   -1.3357    1.4963 O   0  0  0  0  0  0  0  0  0  0  0  0
    3.0864   -0.2067    0.7318 O   0  0  0  0  0  0  0  0  0  0  0  0
    4.9475    1.1771    1.7997 O   0  0  0  0  0  0  0  0  0  0  0  0
    5.6185    1.1052    1.0994 H   0  0  0  0  0  0  0  0  0  0  0  0
  1  6  1  0  0  0  0
  2  1  1  0  0  0  0
  2  3  2  0  0  0  0
  3  4  1  0  0  0  0
  4  5  1  0  0  0  0
  4 13  1  1  0  0  0
  5 12  1  0  0  0  0
  6 11  1  0  0  0  0
  6  5  2  0  0  0  0
  7  1  1  0  0  0  0
  8  2  1  0  0  0  0
  9  3  1  0  0  0  0
 10  9  1  0  0  0  0
 14 15  2  0  0  0  0
 16 14  2  0  0  0  0
 17  4  1  0  0  0  0
 17 14  1  0  0  0  0
 18 14  1  0  0  0  0
 19 18  1  0  0  0  0
M  RAD  3   1   2   9   2  10   3
M  END
