Coordinates from ORCA-job Ph-N2-OOCH-B3LYPG-aug-cc-pVDZ-scan-d09-49-n400
 OpenBabel10311713223D

 19 17  0  0  0  0  0  0  0  0999 V2000
   -0.8996    0.1901   -0.6754 C   0  0  0  0  0  0  0  0  0  0  0  0
    0.3015    0.7870   -1.1094 C   0  0  0  0  0  0  0  0  0  0  0  0
    1.2454    0.7176   -0.1277 C   0  0  0  0  0  0  0  0  0  0  0  0
    1.3324    0.2347    1.1221 C   0  0  0  0  0  0  0  0  0  0  0  0
    0.0903   -0.3428    1.4890 C   0  0  0  0  0  0  0  0  0  0  0  0
   -0.9954   -0.3631    0.6078 C   0  0  0  0  0  0  0  0  0  0  0  0
   -1.7448    0.1708   -1.3631 H   0  0  0  0  0  0  0  0  0  0  0  0
    0.4335    1.2288   -2.0918 H   0  0  0  0  0  0  0  0  0  0  0  0
    2.8889    1.6173   -0.7448 N   0  0  0  0  0  0  0  0  0  0  0  0
    3.6405    2.2806   -1.2048 N   0  0  0  0  0  0  0  0  0  0  0  0
   -1.9326   -0.8213    0.9220 H   0  0  0  0  0  0  0  0  0  0  0  0
    0.0161   -0.7821    2.4839 H   0  0  0  0  0  0  0  0  0  0  0  0
    2.2408    0.2460    1.7833 H   0  0  0  0  0  0  0  0  0  0  0  0
    4.8086    0.0922    1.6697 S   0  0  0  0  0  0  0  0  0  0  0  0
    3.6968    0.3157    2.6813 O   0  0  0  0  0  0  0  0  0  0  0  0
    5.9810   -0.6604    2.1840 O   0  0  0  0  0  0  0  0  0  0  0  0
    4.2534   -0.3104    0.3309 O   0  0  0  0  0  0  0  0  0  0  0  0
    5.3988    1.6560    1.3522 O   0  0  0  0  0  0  0  0  0  0  0  0
    6.2060    1.7346    1.8824 H   0  0  0  0  0  0  0  0  0  0  0  0
  1  6  1  0  0  0  0
  2  1  2  0  0  0  0
  2  3  1  0  0  0  0
  3  4  2  0  0  0  0
  4  5  1  0  0  0  0
  4 13  1  0  0  0  0
  5 12  1  0  0  0  0
  6 11  1  0  0  0  0
  6  5  2  0  0  0  0
  7  1  1  0  0  0  0
  8  2  1  0  0  0  0
 10  9  3  0  0  0  0
 14 16  2  0  0  0  0
 14 15  1  0  0  0  0
 17 14  2  0  0  0  0
 18 14  1  0  0  0  0
 18 19  1  0  0  0  0
M  RAD  2   3   2  15   2
M  END
