Coordinates from ORCA-job Ph-N2-OOCH-B3LYPG-aug-cc-pVDZ-scan-d09-49-n400
 OpenBabel10311713223D

 19 17  0  0  0  0  0  0  0  0999 V2000
   -1.1326    0.3220   -0.4702 C   0  0  0  0  0  0  0  0  0  0  0  0
    0.0531    0.8155   -1.0757 C   0  0  0  0  0  0  0  0  0  0  0  0
    1.0691    0.5688   -0.1952 C   0  0  0  0  0  0  0  0  0  0  0  0
    1.2181    0.0436    0.9432 C   0  0  0  0  0  0  0  0  0  0  0  0
    0.0438   -0.4502    1.5584 C   0  0  0  0  0  0  0  0  0  0  0  0
   -1.1314   -0.2869    0.7991 C   0  0  0  0  0  0  0  0  0  0  0  0
   -2.0693    0.4259   -1.0207 H   0  0  0  0  0  0  0  0  0  0  0  0
    0.0900    1.2894   -2.0517 H   0  0  0  0  0  0  0  0  0  0  0  0
    3.3248    1.9388   -2.1360 N   0  0  0  0  0  0  0  0  0  0  0  0
    4.2883    2.3847   -2.4379 N   0  0  0  0  0  0  0  0  0  0  0  0
   -2.0769   -0.6471    1.2080 H   0  0  0  0  0  0  0  0  0  0  0  0
    0.0294   -0.9263    2.5383 H   0  0  0  0  0  0  0  0  0  0  0  0
    2.9129   -0.1775    1.8217 H   0  0  0  0  0  0  0  0  0  0  0  0
    5.0711    0.0836    1.6973 S   0  0  0  0  0  0  0  0  0  0  0  0
    3.6902   -0.3948    2.4095 O   0  0  0  0  0  0  0  0  0  0  0  0
    6.1538   -0.5182    2.4864 O   0  0  0  0  0  0  0  0  0  0  0  0
    4.9584   -0.0354    0.2391 O   0  0  0  0  0  0  0  0  0  0  0  0
    5.0612    1.7125    1.9894 O   0  0  0  0  0  0  0  0  0  0  0  0
    5.4078    1.8428    2.8883 H   0  0  0  0  0  0  0  0  0  0  0  0
  1  6  1  0  0  0  0
  2  1  2  0  0  0  0
  2  3  1  0  0  0  0
  3  4  2  0  0  0  0
  4  5  1  0  0  0  0
  5 12  1  0  0  0  0
  6 11  1  0  0  0  0
  6  5  2  0  0  0  0
  7  1  1  0  0  0  0
  8  2  1  0  0  0  0
 10  9  3  0  0  0  0
 13 15  1  0  0  0  0
 14 18  1  0  0  0  0
 14 15  1  0  0  0  0
 14 16  2  0  0  0  0
 17 14  2  0  0  0  0
 18 19  1  0  0  0  0
M  RAD  2   3   2   4   2
M  END
