Coordinates from ORCA-job Ph-N2-OOCH-B3LYPG-aug-cc-pVDZ-scan-d09-49-n400
 OpenBabel10311713223D

 19 17  0  0  0  0  0  0  0  0999 V2000
   -0.7199    0.4574   -0.3930 C   0  0  0  0  0  0  0  0  0  0  0  0
    0.6500    0.7255   -0.6512 C   0  0  0  0  0  0  0  0  0  0  0  0
    1.3396    0.2295    0.4174 C   0  0  0  0  0  0  0  0  0  0  0  0
    1.1119   -0.3769    1.5042 C   0  0  0  0  0  0  0  0  0  0  0  0
   -0.2531   -0.6444    1.7664 C   0  0  0  0  0  0  0  0  0  0  0  0
   -1.1502   -0.2037    0.7744 C   0  0  0  0  0  0  0  0  0  0  0  0
   -1.4527    0.7823   -1.1337 H   0  0  0  0  0  0  0  0  0  0  0  0
    1.0225    1.2325   -1.5356 H   0  0  0  0  0  0  0  0  0  0  0  0
    3.3356    2.2058   -3.0326 N   0  0  0  0  0  0  0  0  0  0  0  0
    4.4087    2.3885   -3.2164 N   0  0  0  0  0  0  0  0  0  0  0  0
   -2.2183   -0.3808    0.9109 H   0  0  0  0  0  0  0  0  0  0  0  0
   -0.6034   -1.1572    2.6620 H   0  0  0  0  0  0  0  0  0  0  0  0
    2.9203   -0.6545    2.1637 H   0  0  0  0  0  0  0  0  0  0  0  0
    4.7437    0.2881    1.4821 S   0  0  0  0  0  0  0  0  0  0  0  0
    3.8891   -0.7340    2.4038 O   0  0  0  0  0  0  0  0  0  0  0  0
    6.1476   -0.1178    1.6071 O   0  0  0  0  0  0  0  0  0  0  0  0
    4.0722    0.4839    0.1854 O   0  0  0  0  0  0  0  0  0  0  0  0
    4.5415    1.7252    2.2702 O   0  0  0  0  0  0  0  0  0  0  0  0
    5.1766    1.7421    3.0063 H   0  0  0  0  0  0  0  0  0  0  0  0
  1  6  1  0  0  0  0
  2  1  2  0  0  0  0
  2  3  1  0  0  0  0
  3  4  2  0  0  0  0
  4  5  1  0  0  0  0
  5 12  1  0  0  0  0
  6 11  1  0  0  0  0
  6  5  2  0  0  0  0
  7  1  1  0  0  0  0
  8  2  1  0  0  0  0
 10  9  3  0  0  0  0
 13 15  1  0  0  0  0
 14 16  2  0  0  0  0
 14 18  1  0  0  0  0
 14 15  1  0  0  0  0
 17 14  2  0  0  0  0
 18 19  1  0  0  0  0
M  RAD  2   3   2   4   2
M  END
