Coordinates from ORCA-job Ph-N2-OOCH-B3LYPG-aug-cc-pVDZ-scan-d09-49-n400
 OpenBabel10311713223D

 19 17  0  0  0  0  0  0  0  0999 V2000
   -1.1324    0.3222   -0.4693 C   0  0  0  0  0  0  0  0  0  0  0  0
    0.0540    0.8150   -1.0740 C   0  0  0  0  0  0  0  0  0  0  0  0
    1.0693    0.5673   -0.1930 C   0  0  0  0  0  0  0  0  0  0  0  0
    1.2170    0.0416    0.9454 C   0  0  0  0  0  0  0  0  0  0  0  0
    0.0421   -0.4513    1.5599 C   0  0  0  0  0  0  0  0  0  0  0  0
   -1.1325   -0.2870    0.7998 C   0  0  0  0  0  0  0  0  0  0  0  0
   -2.0688    0.4270   -1.0203 H   0  0  0  0  0  0  0  0  0  0  0  0
    0.0918    1.2890   -2.0499 H   0  0  0  0  0  0  0  0  0  0  0  0
    3.3299    1.9412   -2.1422 N   0  0  0  0  0  0  0  0  0  0  0  0
    4.2927    2.3874   -2.4459 N   0  0  0  0  0  0  0  0  0  0  0  0
   -2.0785   -0.6465    1.2081 H   0  0  0  0  0  0  0  0  0  0  0  0
    0.0267   -0.9276    2.5397 H   0  0  0  0  0  0  0  0  0  0  0  0
    2.9129   -0.1797    1.8229 H   0  0  0  0  0  0  0  0  0  0  0  0
    5.0706    0.0843    1.6970 S   0  0  0  0  0  0  0  0  0  0  0  0
    3.6909   -0.3968    2.4097 O   0  0  0  0  0  0  0  0  0  0  0  0
    6.1547   -0.5170    2.4844 O   0  0  0  0  0  0  0  0  0  0  0  0
    4.9569   -0.0332    0.2387 O   0  0  0  0  0  0  0  0  0  0  0  0
    5.0588    1.7128    1.9909 O   0  0  0  0  0  0  0  0  0  0  0  0
    5.4058    1.8425    2.8897 H   0  0  0  0  0  0  0  0  0  0  0  0
  1  6  1  0  0  0  0
  2  1  2  0  0  0  0
  2  3  1  0  0  0  0
  3  4  2  0  0  0  0
  4  5  1  0  0  0  0
  5 12  1  0  0  0  0
  6 11  1  0  0  0  0
  6  5  2  0  0  0  0
  7  1  1  0  0  0  0
  8  2  1  0  0  0  0
 10  9  3  0  0  0  0
 13 15  1  0  0  0  0
 14 18  1  0  0  0  0
 14 15  1  0  0  0  0
 14 16  2  0  0  0  0
 17 14  2  0  0  0  0
 18 19  1  0  0  0  0
M  RAD  2   3   2   4   2
M  END
