Coordinates from ORCA-job Ph-N2-OOCH-B3LYPG-aug-cc-pVDZ-scan-d09-49-n400
 OpenBabel10311713223D

 19 17  0  0  0  0  0  0  0  0999 V2000
   -1.1329    0.3141   -0.5114 C   0  0  0  0  0  0  0  0  0  0  0  0
    0.0192    0.8428   -1.1514 C   0  0  0  0  0  0  0  0  0  0  0  0
    1.0599    0.6401   -0.2932 C   0  0  0  0  0  0  0  0  0  0  0  0
    1.2784    0.1365    0.8461 C   0  0  0  0  0  0  0  0  0  0  0  0
    0.1283   -0.3904    1.4877 C   0  0  0  0  0  0  0  0  0  0  0  0
   -1.0740   -0.2801    0.7632 C   0  0  0  0  0  0  0  0  0  0  0  0
   -2.0866    0.3783   -1.0383 H   0  0  0  0  0  0  0  0  0  0  0  0
    0.0159    1.3071   -2.1324 H   0  0  0  0  0  0  0  0  0  0  0  0
    3.0579    1.8121   -1.8570 N   0  0  0  0  0  0  0  0  0  0  0  0
    4.0541    2.2362   -2.0713 N   0  0  0  0  0  0  0  0  0  0  0  0
   -1.9934   -0.6704    1.2026 H   0  0  0  0  0  0  0  0  0  0  0  0
    0.1573   -0.8566    2.4724 H   0  0  0  0  0  0  0  0  0  0  0  0
    2.9134   -0.0759    1.7639 H   0  0  0  0  0  0  0  0  0  0  0  0
    5.0947    0.0570    1.7131 S   0  0  0  0  0  0  0  0  0  0  0  0
    3.6632   -0.3078    2.3872 O   0  0  0  0  0  0  0  0  0  0  0  0
    6.1088   -0.5742    2.5680 O   0  0  0  0  0  0  0  0  0  0  0  0
    5.0345   -0.1150    0.2565 O   0  0  0  0  0  0  0  0  0  0  0  0
    5.1740    1.6952    1.9391 O   0  0  0  0  0  0  0  0  0  0  0  0
    5.4889    1.8422    2.8469 H   0  0  0  0  0  0  0  0  0  0  0  0
  1  6  1  0  0  0  0
  2  1  2  0  0  0  0
  2  3  1  0  0  0  0
  3  4  2  0  0  0  0
  4  5  1  0  0  0  0
  5 12  1  0  0  0  0
  6 11  1  0  0  0  0
  6  5  2  0  0  0  0
  7  1  1  0  0  0  0
  8  2  1  0  0  0  0
 10  9  3  0  0  0  0
 13 15  1  0  0  0  0
 14 18  1  0  0  0  0
 14 15  1  0  0  0  0
 14 16  2  0  0  0  0
 17 14  2  0  0  0  0
 18 19  1  0  0  0  0
M  RAD  2   3   2   4   2
M  END
