Coordinates from ORCA-job Ph-N2-OOCH-B3LYPG-aug-cc-pVDZ-scan-d09-49-n400
 OpenBabel10311713223D

 19 17  0  0  0  0  0  0  0  0999 V2000
   -1.1303    0.3238   -0.4588 C   0  0  0  0  0  0  0  0  0  0  0  0
    0.0654    0.8074   -1.0527 C   0  0  0  0  0  0  0  0  0  0  0  0
    1.0711    0.5481   -0.1638 C   0  0  0  0  0  0  0  0  0  0  0  0
    1.2031    0.0182    0.9742 C   0  0  0  0  0  0  0  0  0  0  0  0
    0.0196   -0.4657    1.5787 C   0  0  0  0  0  0  0  0  0  0  0  0
   -1.1467   -0.2885    0.8088 C   0  0  0  0  0  0  0  0  0  0  0  0
   -2.0612    0.4385   -1.0172 H   0  0  0  0  0  0  0  0  0  0  0  0
    0.1154    1.2834   -2.0271 H   0  0  0  0  0  0  0  0  0  0  0  0
    3.3956    1.9727   -2.2225 N   0  0  0  0  0  0  0  0  0  0  0  0
    4.3491    2.4229   -2.5491 N   0  0  0  0  0  0  0  0  0  0  0  0
   -2.0996   -0.6402    1.2080 H   0  0  0  0  0  0  0  0  0  0  0  0
   -0.0084   -0.9441    2.5571 H   0  0  0  0  0  0  0  0  0  0  0  0
    2.9116   -0.2052    1.8382 H   0  0  0  0  0  0  0  0  0  0  0  0
    5.0631    0.0932    1.6922 S   0  0  0  0  0  0  0  0  0  0  0  0
    3.6988   -0.4196    2.4130 O   0  0  0  0  0  0  0  0  0  0  0  0
    6.1647   -0.5043    2.4578 O   0  0  0  0  0  0  0  0  0  0  0  0
    4.9341   -0.0031    0.2336 O   0  0  0  0  0  0  0  0  0  0  0  0
    5.0306    1.7165    2.0121 O   0  0  0  0  0  0  0  0  0  0  0  0
    5.3857    1.8372    2.9090 H   0  0  0  0  0  0  0  0  0  0  0  0
  1  6  1  0  0  0  0
  2  1  2  0  0  0  0
  2  3  1  0  0  0  0
  3  4  2  0  0  0  0
  4  5  1  0  0  0  0
  5 12  1  0  0  0  0
  6 11  1  0  0  0  0
  6  5  2  0  0  0  0
  7  1  1  0  0  0  0
  8  2  1  0  0  0  0
 10  9  3  0  0  0  0
 13 15  1  0  0  0  0
 14 18  1  0  0  0  0
 14 15  1  0  0  0  0
 14 16  2  0  0  0  0
 17 14  2  0  0  0  0
 18 19  1  0  0  0  0
M  RAD  2   3   2   4   2
M  END
