Coordinates from ORCA-job Ph-N2-OOCH-B3LYPG-aug-cc-pVDZ-scan-d09-49-n400
 OpenBabel10311713223D

 19 17  0  0  0  0  0  0  0  0999 V2000
   -0.9124    0.1486   -0.6608 C   0  0  0  0  0  0  0  0  0  0  0  0
    0.2684    0.7755   -1.1204 C   0  0  0  0  0  0  0  0  0  0  0  0
    1.1991    0.7330   -0.1332 C   0  0  0  0  0  0  0  0  0  0  0  0
    1.3415    0.2866    1.1095 C   0  0  0  0  0  0  0  0  0  0  0  0
    0.1157   -0.3261    1.4998 C   0  0  0  0  0  0  0  0  0  0  0  0
   -0.9782   -0.3891    0.6311 C   0  0  0  0  0  0  0  0  0  0  0  0
   -1.7631    0.0981   -1.3405 H   0  0  0  0  0  0  0  0  0  0  0  0
    0.3817    1.2088   -2.1086 H   0  0  0  0  0  0  0  0  0  0  0  0
    2.9148    1.7648   -0.8395 N   0  0  0  0  0  0  0  0  0  0  0  0
    3.7072    2.4008   -1.2674 N   0  0  0  0  0  0  0  0  0  0  0  0
   -1.8981   -0.8698    0.9624 H   0  0  0  0  0  0  0  0  0  0  0  0
    0.0712   -0.7564    2.5009 H   0  0  0  0  0  0  0  0  0  0  0  0
    2.2738    0.3156    1.7731 H   0  0  0  0  0  0  0  0  0  0  0  0
    4.7899    0.0595    1.6539 S   0  0  0  0  0  0  0  0  0  0  0  0
    3.6346    0.3295    2.6205 O   0  0  0  0  0  0  0  0  0  0  0  0
    5.8944   -0.7322    2.2507 O   0  0  0  0  0  0  0  0  0  0  0  0
    4.2826   -0.3277    0.2998 O   0  0  0  0  0  0  0  0  0  0  0  0
    5.4489    1.5958    1.3701 O   0  0  0  0  0  0  0  0  0  0  0  0
    6.1898    1.6758    1.9900 H   0  0  0  0  0  0  0  0  0  0  0  0
  1  6  1  0  0  0  0
  2  1  2  0  0  0  0
  2  3  1  0  0  0  0
  3  4  2  0  0  0  0
  4  5  1  0  0  0  0
  4 13  1  0  0  0  0
  5 12  1  0  0  0  0
  6 11  1  0  0  0  0
  6  5  2  0  0  0  0
  7  1  1  0  0  0  0
  8  2  1  0  0  0  0
 10  9  3  0  0  0  0
 14 16  2  0  0  0  0
 14 15  1  0  0  0  0
 17 14  2  0  0  0  0
 18 14  1  0  0  0  0
 18 19  1  0  0  0  0
M  RAD  2   3   2  15   2
M  END
