Coordinates from ORCA-job Ph-N2-OOCH-B3LYPG-aug-cc-pVDZ-scan-d09-49-n400
 OpenBabel10311713223D

 19 17  0  0  0  0  0  0  0  0999 V2000
   -0.9131    0.1460   -0.6572 C   0  0  0  0  0  0  0  0  0  0  0  0
    0.2657    0.7748   -1.1218 C   0  0  0  0  0  0  0  0  0  0  0  0
    1.1951    0.7325   -0.1346 C   0  0  0  0  0  0  0  0  0  0  0  0
    1.3463    0.2903    1.1059 C   0  0  0  0  0  0  0  0  0  0  0  0
    0.1218   -0.3247    1.5011 C   0  0  0  0  0  0  0  0  0  0  0  0
   -0.9743   -0.3902    0.6354 C   0  0  0  0  0  0  0  0  0  0  0  0
   -1.7655    0.0939   -1.3348 H   0  0  0  0  0  0  0  0  0  0  0  0
    0.3761    1.2077   -2.1104 H   0  0  0  0  0  0  0  0  0  0  0  0
    2.9170    1.7828   -0.8591 N   0  0  0  0  0  0  0  0  0  0  0  0
    3.7121    2.4157   -1.2865 N   0  0  0  0  0  0  0  0  0  0  0  0
   -1.8925   -0.8721    0.9699 H   0  0  0  0  0  0  0  0  0  0  0  0
    0.0820   -0.7543    2.5027 H   0  0  0  0  0  0  0  0  0  0  0  0
    2.2834    0.3188    1.7704 H   0  0  0  0  0  0  0  0  0  0  0  0
    4.7859    0.0546    1.6535 S   0  0  0  0  0  0  0  0  0  0  0  0
    3.6236    0.3253    2.6138 O   0  0  0  0  0  0  0  0  0  0  0  0
    5.8834   -0.7388    2.2605 O   0  0  0  0  0  0  0  0  0  0  0  0
    4.2864   -0.3317    0.2974 O   0  0  0  0  0  0  0  0  0  0  0  0
    5.4477    1.5900    1.3780 O   0  0  0  0  0  0  0  0  0  0  0  0
    6.1805    1.6708    2.0073 H   0  0  0  0  0  0  0  0  0  0  0  0
  1  6  1  0  0  0  0
  2  1  2  0  0  0  0
  2  3  1  0  0  0  0
  3  4  2  0  0  0  0
  4  5  1  0  0  0  0
  4 13  1  0  0  0  0
  5 12  1  0  0  0  0
  6 11  1  0  0  0  0
  6  5  2  0  0  0  0
  7  1  1  0  0  0  0
  8  2  1  0  0  0  0
 10  9  3  0  0  0  0
 14 16  2  0  0  0  0
 14 15  1  0  0  0  0
 17 14  2  0  0  0  0
 18 14  1  0  0  0  0
 18 19  1  0  0  0  0
M  RAD  2   3   2  15   2
M  END
