Coordinates from ORCA-job Ph-N2-OOCH-B3LYPG-aug-cc-pVDZ-scan-d09-49-n400
 OpenBabel10311713223D

 19 18  0  0  0  0  0  0  0  0999 V2000
   -0.6954    0.0974   -0.7814 C   0  0  0  0  0  0  0  0  0  0  0  0
    0.4857    0.7968   -1.0163 C   0  0  0  0  0  0  0  0  0  0  0  0
    1.3835    0.8900    0.0545 C   0  0  0  0  0  0  0  0  0  0  0  0
    1.1916    0.3381    1.3216 C   0  0  0  0  0  0  0  0  0  0  0  0
   -0.0086   -0.3435    1.5183 C   0  0  0  0  0  0  0  0  0  0  0  0
   -0.9396   -0.4655    0.4791 C   0  0  0  0  0  0  0  0  0  0  0  0
   -1.4231   -0.0095   -1.5845 H   0  0  0  0  0  0  0  0  0  0  0  0
    0.7094    1.2424   -1.9834 H   0  0  0  0  0  0  0  0  0  0  0  0
    2.5878    1.6593   -0.1992 N   0  0  0  0  0  0  0  0  0  0  0  0
    3.3591    2.3973   -0.5027 N   0  0  0  0  0  0  0  0  0  0  0  0
   -1.8674   -1.0121    0.6485 H   0  0  0  0  0  0  0  0  0  0  0  0
   -0.2074   -0.7947    2.4893 H   0  0  0  0  0  0  0  0  0  0  0  0
    1.9760    0.4433    2.0759 H   0  0  0  0  0  0  0  0  0  0  0  0
    4.7626    0.1263    1.5352 S   0  0  0  0  0  0  0  0  0  0  0  0
    3.9028    0.9273    2.4863 O   0  0  0  0  0  0  0  0  0  0  0  0
    5.7250   -0.8059    2.1706 O   0  0  0  0  0  0  0  0  0  0  0  0
    3.9624   -0.4061    0.3706 O   0  0  0  0  0  0  0  0  0  0  0  0
    5.7001    1.3023    0.7320 O   0  0  0  0  0  0  0  0  0  0  0  0
    6.3572    1.6080    1.3768 H   0  0  0  0  0  0  0  0  0  0  0  0
  1  6  1  0  0  0  0
  2  1  2  0  0  0  0
  2  3  1  0  0  0  0
  3  4  2  0  0  0  0
  4  5  1  0  0  0  0
  4 13  1  0  0  0  0
  5 12  1  0  0  0  0
  6 11  1  0  0  0  0
  6  5  2  0  0  0  0
  7  1  1  0  0  0  0
  8  2  1  0  0  0  0
  9  3  1  0  0  0  0
 10  9  1  0  0  0  0
 14 16  2  0  0  0  0
 14 15  1  0  0  0  0
 17 14  2  0  0  0  0
 18 19  1  0  0  0  0
 18 14  1  0  0  0  0
M  RAD  3   9   2  10   3  15   2
M  END
