Coordinates from ORCA-job Ph-N2-OOCH-B3LYPG-aug-cc-pVDZ-scan-d09-49-n400
 OpenBabel10311713223D

 19 17  0  0  0  0  0  0  0  0999 V2000
   -1.1198    0.3112   -0.5252 C   0  0  0  0  0  0  0  0  0  0  0  0
    0.0139    0.8546   -1.1826 C   0  0  0  0  0  0  0  0  0  0  0  0
    1.0738    0.6755   -0.3431 C   0  0  0  0  0  0  0  0  0  0  0  0
    1.3248    0.1823    0.7974 C   0  0  0  0  0  0  0  0  0  0  0  0
    0.1866   -0.3584    1.4525 C   0  0  0  0  0  0  0  0  0  0  0  0
   -1.0301   -0.2748    0.7508 C   0  0  0  0  0  0  0  0  0  0  0  0
   -2.0817    0.3570   -1.0387 H   0  0  0  0  0  0  0  0  0  0  0  0
   -0.0145    1.3134   -2.1660 H   0  0  0  0  0  0  0  0  0  0  0  0
    2.9418    1.7513   -1.7502 N   0  0  0  0  0  0  0  0  0  0  0  0
    3.9501    2.1643   -1.9265 N   0  0  0  0  0  0  0  0  0  0  0  0
   -1.9343   -0.6789    1.2085 H   0  0  0  0  0  0  0  0  0  0  0  0
    0.2397   -0.8188    2.4392 H   0  0  0  0  0  0  0  0  0  0  0  0
    2.8972   -0.0440    1.7507 H   0  0  0  0  0  0  0  0  0  0  0  0
    5.0760    0.0479    1.7196 S   0  0  0  0  0  0  0  0  0  0  0  0
    3.6372   -0.2786    2.3910 O   0  0  0  0  0  0  0  0  0  0  0  0
    6.0794   -0.5978    2.5767 O   0  0  0  0  0  0  0  0  0  0  0  0
    5.0098   -0.1321    0.2641 O   0  0  0  0  0  0  0  0  0  0  0  0
    5.1934    1.6861    1.9344 O   0  0  0  0  0  0  0  0  0  0  0  0
    5.5186    1.8313    2.8388 H   0  0  0  0  0  0  0  0  0  0  0  0
  1  6  1  0  0  0  0
  2  1  2  0  0  0  0
  2  3  1  0  0  0  0
  3  4  2  0  0  0  0
  4  5  1  0  0  0  0
  5 12  1  0  0  0  0
  6 11  1  0  0  0  0
  6  5  2  0  0  0  0
  7  1  1  0  0  0  0
  8  2  1  0  0  0  0
 10  9  3  0  0  0  0
 13 15  1  0  0  0  0
 14 18  1  0  0  0  0
 14 15  1  0  0  0  0
 14 16  2  0  0  0  0
 17 14  2  0  0  0  0
 18 19  1  0  0  0  0
M  RAD  2   3   2   4   2
M  END
