Coordinates from ORCA-job Ph-N2-OOCH-B3LYPG-aug-cc-pVDZ-scan-d09-49-n400
 OpenBabel10311713223D

 19 17  0  0  0  0  0  0  0  0999 V2000
   -1.1020    0.3299   -0.4357 C   0  0  0  0  0  0  0  0  0  0  0  0
    0.1311    0.7681   -0.9870 C   0  0  0  0  0  0  0  0  0  0  0  0
    1.0946    0.4715   -0.0627 C   0  0  0  0  0  0  0  0  0  0  0  0
    1.1604   -0.0643    1.0768 C   0  0  0  0  0  0  0  0  0  0  0  0
   -0.0573   -0.5045    1.6413 C   0  0  0  0  0  0  0  0  0  0  0  0
   -1.1875   -0.2821    0.8294 C   0  0  0  0  0  0  0  0  0  0  0  0
   -2.0077    0.4800   -1.0263 H   0  0  0  0  0  0  0  0  0  0  0  0
    0.2329    1.2428   -1.9581 H   0  0  0  0  0  0  0  0  0  0  0  0
    3.5275    2.0959   -2.4994 N   0  0  0  0  0  0  0  0  0  0  0  0
    4.4425    2.5640   -2.9025 N   0  0  0  0  0  0  0  0  0  0  0  0
   -2.1670   -0.5975    1.1929 H   0  0  0  0  0  0  0  0  0  0  0  0
   -0.1381   -0.9821    2.6172 H   0  0  0  0  0  0  0  0  0  0  0  0
    2.9124   -0.2845    1.8982 H   0  0  0  0  0  0  0  0  0  0  0  0
    5.0416    0.1131    1.6890 S   0  0  0  0  0  0  0  0  0  0  0  0
    3.7273   -0.4897    2.4340 O   0  0  0  0  0  0  0  0  0  0  0  0
    6.1943   -0.4751    2.3829 O   0  0  0  0  0  0  0  0  0  0  0  0
    4.8602    0.0815    0.2330 O   0  0  0  0  0  0  0  0  0  0  0  0
    4.9576    1.7162    2.0895 O   0  0  0  0  0  0  0  0  0  0  0  0
    5.3389    1.8081    2.9791 H   0  0  0  0  0  0  0  0  0  0  0  0
  1  6  1  0  0  0  0
  2  1  2  0  0  0  0
  2  3  1  0  0  0  0
  3  4  2  0  0  0  0
  4  5  1  0  0  0  0
  5 12  1  0  0  0  0
  6 11  1  0  0  0  0
  6  5  2  0  0  0  0
  7  1  1  0  0  0  0
  8  2  1  0  0  0  0
 10  9  3  0  0  0  0
 13 15  1  0  0  0  0
 14 18  1  0  0  0  0
 14 16  2  0  0  0  0
 14 15  1  0  0  0  0
 17 14  2  0  0  0  0
 18 19  1  0  0  0  0
M  RAD  2   3   2   4   2
M  END
