Coordinates from ORCA-job Ph-N2-OOCH-B3LYPG-aug-cc-pVDZ-scan-d09-49-n400
 OpenBabel10311713223D

 19 17  0  0  0  0  0  0  0  0999 V2000
   -0.9141    0.1478   -0.6596 C   0  0  0  0  0  0  0  0  0  0  0  0
    0.2662    0.7750   -1.1206 C   0  0  0  0  0  0  0  0  0  0  0  0
    1.1969    0.7323   -0.1337 C   0  0  0  0  0  0  0  0  0  0  0  0
    1.3414    0.2866    1.1084 C   0  0  0  0  0  0  0  0  0  0  0  0
    0.1160   -0.3264    1.5001 C   0  0  0  0  0  0  0  0  0  0  0  0
   -0.9786   -0.3897    0.6324 C   0  0  0  0  0  0  0  0  0  0  0  0
   -1.7654    0.0972   -1.3386 H   0  0  0  0  0  0  0  0  0  0  0  0
    0.3787    1.2083   -2.1089 H   0  0  0  0  0  0  0  0  0  0  0  0
    2.9194    1.7702   -0.8449 N   0  0  0  0  0  0  0  0  0  0  0  0
    3.7127    2.4054   -1.2724 N   0  0  0  0  0  0  0  0  0  0  0  0
   -1.8981   -0.8706    0.9646 H   0  0  0  0  0  0  0  0  0  0  0  0
    0.0728   -0.7566    2.5013 H   0  0  0  0  0  0  0  0  0  0  0  0
    2.2748    0.3158    1.7715 H   0  0  0  0  0  0  0  0  0  0  0  0
    4.7899    0.0588    1.6539 S   0  0  0  0  0  0  0  0  0  0  0  0
    3.6324    0.3289    2.6183 O   0  0  0  0  0  0  0  0  0  0  0  0
    5.8924   -0.7334    2.2540 O   0  0  0  0  0  0  0  0  0  0  0  0
    4.2857   -0.3281    0.2988 O   0  0  0  0  0  0  0  0  0  0  0  0
    5.4501    1.5948    1.3721 O   0  0  0  0  0  0  0  0  0  0  0  0
    6.1886    1.6751    1.9948 H   0  0  0  0  0  0  0  0  0  0  0  0
  1  6  1  0  0  0  0
  2  1  2  0  0  0  0
  2  3  1  0  0  0  0
  3  4  2  0  0  0  0
  4  5  1  0  0  0  0
  4 13  1  0  0  0  0
  5 12  1  0  0  0  0
  6 11  1  0  0  0  0
  6  5  2  0  0  0  0
  7  1  1  0  0  0  0
  8  2  1  0  0  0  0
 10  9  3  0  0  0  0
 14 16  2  0  0  0  0
 14 15  1  0  0  0  0
 17 14  2  0  0  0  0
 18 14  1  0  0  0  0
 18 19  1  0  0  0  0
M  RAD  2   3   2  15   2
M  END
