Coordinates from ORCA-job Ph-N2-OOCH-B3LYPG-aug-cc-pVDZ-scan-d09-49-n400
 OpenBabel10311713223D

 19 17  0  0  0  0  0  0  0  0999 V2000
   -0.6751    0.4595   -0.3920 C   0  0  0  0  0  0  0  0  0  0  0  0
    0.7023    0.7096   -0.6276 C   0  0  0  0  0  0  0  0  0  0  0  0
    1.3665    0.2070    0.4535 C   0  0  0  0  0  0  0  0  0  0  0  0
    1.1155   -0.3942    1.5389 C   0  0  0  0  0  0  0  0  0  0  0  0
   -0.2579   -0.6434    1.7765 C   0  0  0  0  0  0  0  0  0  0  0  0
   -1.1332   -0.1935    0.7694 C   0  0  0  0  0  0  0  0  0  0  0  0
   -1.3909    0.7916   -1.1460 H   0  0  0  0  0  0  0  0  0  0  0  0
    1.0929    1.2089   -1.5092 H   0  0  0  0  0  0  0  0  0  0  0  0
    3.2819    2.2667   -3.2107 N   0  0  0  0  0  0  0  0  0  0  0  0
    4.3262    2.5016   -3.4811 N   0  0  0  0  0  0  0  0  0  0  0  0
   -2.2056   -0.3568    0.8885 H   0  0  0  0  0  0  0  0  0  0  0  0
   -0.6296   -1.1501    2.6670 H   0  0  0  0  0  0  0  0  0  0  0  0
    2.9044   -0.6814    2.2109 H   0  0  0  0  0  0  0  0  0  0  0  0
    4.7230    0.2699    1.5309 S   0  0  0  0  0  0  0  0  0  0  0  0
    3.8754   -0.7594    2.4491 O   0  0  0  0  0  0  0  0  0  0  0  0
    6.1283   -0.1351    1.6396 O   0  0  0  0  0  0  0  0  0  0  0  0
    4.0413    0.4772    0.2403 O   0  0  0  0  0  0  0  0  0  0  0  0
    4.5272    1.7007    2.3316 O   0  0  0  0  0  0  0  0  0  0  0  0
    5.1690    1.7125    3.0620 H   0  0  0  0  0  0  0  0  0  0  0  0
  1  6  1  0  0  0  0
  2  1  2  0  0  0  0
  2  3  1  0  0  0  0
  3  4  2  0  0  0  0
  4  5  1  0  0  0  0
  5 12  1  0  0  0  0
  6 11  1  0  0  0  0
  6  5  2  0  0  0  0
  7  1  1  0  0  0  0
  8  2  1  0  0  0  0
 10  9  3  0  0  0  0
 13 15  1  0  0  0  0
 14 16  2  0  0  0  0
 14 18  1  0  0  0  0
 14 15  1  0  0  0  0
 17 14  2  0  0  0  0
 18 19  1  0  0  0  0
M  RAD  2   3   2   4   2
M  END
