Coordinates from ORCA-job Ph-N2-OOCH-B3LYPG-aug-cc-pVDZ-scan-d09-49-n400
 OpenBabel10311713223D

 19 18  0  0  0  0  0  0  0  0999 V2000
   -0.8213    0.1252   -0.7351 C   0  0  0  0  0  0  0  0  0  0  0  0
    0.3886    0.7548   -1.0732 C   0  0  0  0  0  0  0  0  0  0  0  0
    1.2892    0.7548   -0.0373 C   0  0  0  0  0  0  0  0  0  0  0  0
    1.2405    0.2597    1.2318 C   0  0  0  0  0  0  0  0  0  0  0  0
    0.0022   -0.3484    1.5116 C   0  0  0  0  0  0  0  0  0  0  0  0
   -1.0059   -0.4159    0.5427 C   0  0  0  0  0  0  0  0  0  0  0  0
   -1.6077    0.0650   -1.4868 H   0  0  0  0  0  0  0  0  0  0  0  0
    0.5798    1.1852   -2.0518 H   0  0  0  0  0  0  0  0  0  0  0  0
    2.8117    1.6000   -0.4615 N   0  0  0  0  0  0  0  0  0  0  0  0
    3.4311    2.4055   -0.9008 N   0  0  0  0  0  0  0  0  0  0  0  0
   -1.9504   -0.9029    0.7841 H   0  0  0  0  0  0  0  0  0  0  0  0
   -0.1495   -0.7770    2.5018 H   0  0  0  0  0  0  0  0  0  0  0  0
    2.0834    0.3295    1.9359 H   0  0  0  0  0  0  0  0  0  0  0  0
    4.8105    0.1590    1.5993 S   0  0  0  0  0  0  0  0  0  0  0  0
    3.8372    0.6635    2.6343 O   0  0  0  0  0  0  0  0  0  0  0  0
    5.8323   -0.8030    2.0821 O   0  0  0  0  0  0  0  0  0  0  0  0
    4.1064   -0.2156    0.3073 O   0  0  0  0  0  0  0  0  0  0  0  0
    5.6678    1.5336    1.0980 O   0  0  0  0  0  0  0  0  0  0  0  0
    6.4157    1.6182    1.7091 H   0  0  0  0  0  0  0  0  0  0  0  0
  1  6  1  0  0  0  0
  2  1  2  0  0  0  0
  2  3  1  0  0  0  0
  3  4  2  0  0  0  0
  4  5  1  0  0  0  0
  4 13  1  0  0  0  0
  5 12  1  0  0  0  0
  6 11  1  0  0  0  0
  6  5  2  0  0  0  0
  7  1  1  0  0  0  0
  8  2  1  0  0  0  0
  9  3  1  0  0  0  0
 10  9  1  0  0  0  0
 14 16  2  0  0  0  0
 14 15  1  0  0  0  0
 17 14  2  0  0  0  0
 18 14  1  0  0  0  0
 18 19  1  0  0  0  0
M  RAD  3   9   2  10   3  15   2
M  END
