Coordinates from ORCA-job Ph-N2-OOCH-B3LYPG-aug-cc-pVDZ-scan-d09-49-n400
 OpenBabel10311713223D

 19 17  0  0  0  0  0  0  0  0999 V2000
   -0.9025    0.1567   -0.6703 C   0  0  0  0  0  0  0  0  0  0  0  0
    0.2853    0.7781   -1.1154 C   0  0  0  0  0  0  0  0  0  0  0  0
    1.2150    0.7318   -0.1248 C   0  0  0  0  0  0  0  0  0  0  0  0
    1.3340    0.2742    1.1221 C   0  0  0  0  0  0  0  0  0  0  0  0
    0.1029   -0.3309    1.4979 C   0  0  0  0  0  0  0  0  0  0  0  0
   -0.9833   -0.3851    0.6188 C   0  0  0  0  0  0  0  0  0  0  0  0
   -1.7471    0.1125   -1.3577 H   0  0  0  0  0  0  0  0  0  0  0  0
    0.4089    1.2132   -2.1017 H   0  0  0  0  0  0  0  0  0  0  0  0
    2.9020    1.7169   -0.7875 N   0  0  0  0  0  0  0  0  0  0  0  0
    3.6724    2.3710   -1.2283 N   0  0  0  0  0  0  0  0  0  0  0  0
   -1.9089   -0.8619    0.9396 H   0  0  0  0  0  0  0  0  0  0  0  0
    0.0445   -0.7634    2.4971 H   0  0  0  0  0  0  0  0  0  0  0  0
    2.2537    0.3040    1.7868 H   0  0  0  0  0  0  0  0  0  0  0  0
    4.7921    0.0729    1.6564 S   0  0  0  0  0  0  0  0  0  0  0  0
    3.6606    0.3475    2.6426 O   0  0  0  0  0  0  0  0  0  0  0  0
    5.9145   -0.7168    2.2228 O   0  0  0  0  0  0  0  0  0  0  0  0
    4.2568   -0.3210    0.3119 O   0  0  0  0  0  0  0  0  0  0  0  0
    5.4463    1.6092    1.3472 O   0  0  0  0  0  0  0  0  0  0  0  0
    6.2142    1.6825    1.9339 H   0  0  0  0  0  0  0  0  0  0  0  0
  1  6  1  0  0  0  0
  2  1  2  0  0  0  0
  2  3  1  0  0  0  0
  3  4  2  0  0  0  0
  4  5  1  0  0  0  0
  4 13  1  0  0  0  0
  5 12  1  0  0  0  0
  6 11  1  0  0  0  0
  6  5  2  0  0  0  0
  7  1  1  0  0  0  0
  8  2  1  0  0  0  0
 10  9  3  0  0  0  0
 14 16  2  0  0  0  0
 14 15  1  0  0  0  0
 17 14  2  0  0  0  0
 18 14  1  0  0  0  0
 18 19  1  0  0  0  0
M  RAD  2   3   2  15   2
M  END
