Coordinates from ORCA-job Ph-N2-OOCH-B3LYPG-aug-cc-pVDZ-scan-d09-49-n400
 OpenBabel10311713223D

 19 17  0  0  0  0  0  0  0  0999 V2000
   -1.1311    0.3234   -0.4628 C   0  0  0  0  0  0  0  0  0  0  0  0
    0.0611    0.8103   -1.0609 C   0  0  0  0  0  0  0  0  0  0  0  0
    1.0705    0.5552   -0.1750 C   0  0  0  0  0  0  0  0  0  0  0  0
    1.2085    0.0269    0.9631 C   0  0  0  0  0  0  0  0  0  0  0  0
    0.0283   -0.4603    1.5715 C   0  0  0  0  0  0  0  0  0  0  0  0
   -1.1413   -0.2877    0.8054 C   0  0  0  0  0  0  0  0  0  0  0  0
   -2.0641    0.4345   -1.0183 H   0  0  0  0  0  0  0  0  0  0  0  0
    0.1065    1.2857   -2.0358 H   0  0  0  0  0  0  0  0  0  0  0  0
    3.3703    1.9606   -2.1918 N   0  0  0  0  0  0  0  0  0  0  0  0
    4.3273    2.4094   -2.5098 N   0  0  0  0  0  0  0  0  0  0  0  0
   -2.0916   -0.6423    1.2081 H   0  0  0  0  0  0  0  0  0  0  0  0
    0.0051   -0.9380    2.5504 H   0  0  0  0  0  0  0  0  0  0  0  0
    2.9122   -0.1959    1.8324 H   0  0  0  0  0  0  0  0  0  0  0  0
    5.0661    0.0897    1.6941 S   0  0  0  0  0  0  0  0  0  0  0  0
    3.6959   -0.4113    2.4117 O   0  0  0  0  0  0  0  0  0  0  0  0
    6.1611   -0.5089    2.4683 O   0  0  0  0  0  0  0  0  0  0  0  0
    4.9433   -0.0149    0.2355 O   0  0  0  0  0  0  0  0  0  0  0  0
    5.0409    1.7152    2.0038 O   0  0  0  0  0  0  0  0  0  0  0  0
    5.3927    1.8396    2.9015 H   0  0  0  0  0  0  0  0  0  0  0  0
  1  6  1  0  0  0  0
  2  1  2  0  0  0  0
  2  3  1  0  0  0  0
  3  4  2  0  0  0  0
  4  5  1  0  0  0  0
  5 12  1  0  0  0  0
  6 11  1  0  0  0  0
  6  5  2  0  0  0  0
  7  1  1  0  0  0  0
  8  2  1  0  0  0  0
 10  9  3  0  0  0  0
 13 15  1  0  0  0  0
 14 18  1  0  0  0  0
 14 15  1  0  0  0  0
 14 16  2  0  0  0  0
 17 14  2  0  0  0  0
 18 19  1  0  0  0  0
M  RAD  2   3   2   4   2
M  END
