Coordinates from ORCA-job Ph-N2-OOCH-B3LYPG-aug-cc-pVDZ-scan-d09-49-n400
 OpenBabel10311713223D

 19 17  0  0  0  0  0  0  0  0999 V2000
   -0.6444    0.4619   -0.3945 C   0  0  0  0  0  0  0  0  0  0  0  0
    0.7374    0.7014   -0.6147 C   0  0  0  0  0  0  0  0  0  0  0  0
    1.3852    0.1955    0.4747 C   0  0  0  0  0  0  0  0  0  0  0  0
    1.1187   -0.4019    1.5589 C   0  0  0  0  0  0  0  0  0  0  0  0
   -0.2596   -0.6399    1.7801 C   0  0  0  0  0  0  0  0  0  0  0  0
   -1.1204   -0.1856    0.7628 C   0  0  0  0  0  0  0  0  0  0  0  0
   -1.3489    0.7981   -1.1572 H   0  0  0  0  0  0  0  0  0  0  0  0
    1.1407    1.1963   -1.4931 H   0  0  0  0  0  0  0  0  0  0  0  0
    3.2240    2.3224   -3.3534 N   0  0  0  0  0  0  0  0  0  0  0  0
    4.2380    2.5902   -3.6982 N   0  0  0  0  0  0  0  0  0  0  0  0
   -2.1953   -0.3406    0.8701 H   0  0  0  0  0  0  0  0  0  0  0  0
   -0.6453   -1.1422    2.6673 H   0  0  0  0  0  0  0  0  0  0  0  0
    2.8949   -0.6984    2.2491 H   0  0  0  0  0  0  0  0  0  0  0  0
    4.7202    0.2474    1.5791 S   0  0  0  0  0  0  0  0  0  0  0  0
    3.8650   -0.7790    2.4928 O   0  0  0  0  0  0  0  0  0  0  0  0
    6.1242   -0.1596    1.6970 O   0  0  0  0  0  0  0  0  0  0  0  0
    4.0475    0.4540    0.2834 O   0  0  0  0  0  0  0  0  0  0  0  0
    4.5216    1.6798    2.3761 O   0  0  0  0  0  0  0  0  0  0  0  0
    5.1582    1.6915    3.1111 H   0  0  0  0  0  0  0  0  0  0  0  0
  1  6  1  0  0  0  0
  2  1  2  0  0  0  0
  2  3  1  0  0  0  0
  3  4  2  0  0  0  0
  4  5  1  0  0  0  0
  5 12  1  0  0  0  0
  6 11  1  0  0  0  0
  6  5  2  0  0  0  0
  7  1  1  0  0  0  0
  8  2  1  0  0  0  0
 10  9  3  0  0  0  0
 13 15  1  0  0  0  0
 14 16  2  0  0  0  0
 14 18  1  0  0  0  0
 14 15  1  0  0  0  0
 17 14  2  0  0  0  0
 18 19  1  0  0  0  0
M  RAD  2   3   2   4   2
M  END
