Coordinates from ORCA-job Ph-N2-OOCH-B3LYPG-aug-cc-pVDZ-scan-d09-49-n400
 OpenBabel10311713223D

 19 17  0  0  0  0  0  0  0  0999 V2000
   -1.1160    0.3038   -0.5404 C   0  0  0  0  0  0  0  0  0  0  0  0
    0.0091    0.8671   -1.1920 C   0  0  0  0  0  0  0  0  0  0  0  0
    1.0775    0.7049   -0.3565 C   0  0  0  0  0  0  0  0  0  0  0  0
    1.3368    0.2104    0.7838 C   0  0  0  0  0  0  0  0  0  0  0  0
    0.2031   -0.3501    1.4323 C   0  0  0  0  0  0  0  0  0  0  0  0
   -1.0156   -0.2854    0.7332 C   0  0  0  0  0  0  0  0  0  0  0  0
   -2.0780    0.3358   -1.0544 H   0  0  0  0  0  0  0  0  0  0  0  0
   -0.0221    1.3304   -2.1731 H   0  0  0  0  0  0  0  0  0  0  0  0
    2.8850    1.7371   -1.6370 N   0  0  0  0  0  0  0  0  0  0  0  0
    3.9004    2.1479   -1.7745 N   0  0  0  0  0  0  0  0  0  0  0  0
   -1.9123   -0.7068    1.1903 H   0  0  0  0  0  0  0  0  0  0  0  0
    0.2636   -0.8136    2.4173 H   0  0  0  0  0  0  0  0  0  0  0  0
    2.8874   -0.0012    1.7465 H   0  0  0  0  0  0  0  0  0  0  0  0
    5.0699    0.0290    1.7211 S   0  0  0  0  0  0  0  0  0  0  0  0
    3.6219   -0.2228    2.4016 O   0  0  0  0  0  0  0  0  0  0  0  0
    6.0543   -0.6001    2.6123 O   0  0  0  0  0  0  0  0  0  0  0  0
    5.0031   -0.2211    0.2758 O   0  0  0  0  0  0  0  0  0  0  0  0
    5.2334    1.6725    1.8540 O   0  0  0  0  0  0  0  0  0  0  0  0
    5.5601    1.8535    2.7514 H   0  0  0  0  0  0  0  0  0  0  0  0
  1  6  1  0  0  0  0
  2  1  2  0  0  0  0
  2  3  1  0  0  0  0
  3  4  2  0  0  0  0
  4  5  1  0  0  0  0
  5 12  1  0  0  0  0
  6 11  1  0  0  0  0
  6  5  2  0  0  0  0
  7  1  1  0  0  0  0
  8  2  1  0  0  0  0
 10  9  3  0  0  0  0
 13 15  1  0  0  0  0
 14 18  1  0  0  0  0
 14 15  1  0  0  0  0
 14 16  2  0  0  0  0
 17 14  2  0  0  0  0
 18 19  1  0  0  0  0
M  RAD  2   3   2   4   2
M  END
