Coordinates from ORCA-job Ph-N2-OOCH-B3LYPG-aug-cc-pVDZ-scan-d09-49-n400
 OpenBabel10311713223D

 19 18  0  0  0  0  0  0  0  0999 V2000
   -0.7678    0.1132   -0.7569 C   0  0  0  0  0  0  0  0  0  0  0  0
    0.4442    0.7504   -1.0471 C   0  0  0  0  0  0  0  0  0  0  0  0
    1.3435    0.7861    0.0038 C   0  0  0  0  0  0  0  0  0  0  0  0
    1.2111    0.2757    1.2759 C   0  0  0  0  0  0  0  0  0  0  0  0
   -0.0229   -0.3403    1.5204 C   0  0  0  0  0  0  0  0  0  0  0  0
   -0.9953   -0.4237    0.5161 C   0  0  0  0  0  0  0  0  0  0  0  0
   -1.5270    0.0391   -1.5345 H   0  0  0  0  0  0  0  0  0  0  0  0
    0.6611    1.1762   -2.0235 H   0  0  0  0  0  0  0  0  0  0  0  0
    2.7408    1.5769   -0.3395 N   0  0  0  0  0  0  0  0  0  0  0  0
    3.3696    2.3967   -0.7439 N   0  0  0  0  0  0  0  0  0  0  0  0
   -1.9432   -0.9192    0.7252 H   0  0  0  0  0  0  0  0  0  0  0  0
   -0.2099   -0.7661    2.5053 H   0  0  0  0  0  0  0  0  0  0  0  0
    2.0205    0.3553    2.0083 H   0  0  0  0  0  0  0  0  0  0  0  0
    4.8085    0.1594    1.5623 S   0  0  0  0  0  0  0  0  0  0  0  0
    3.9081    0.7670    2.6042 O   0  0  0  0  0  0  0  0  0  0  0  0
    5.7910   -0.8398    2.0464 O   0  0  0  0  0  0  0  0  0  0  0  0
    4.0365   -0.2343    0.3116 O   0  0  0  0  0  0  0  0  0  0  0  0
    5.7087    1.4580    0.9458 O   0  0  0  0  0  0  0  0  0  0  0  0
    6.3841    1.6607    1.6117 H   0  0  0  0  0  0  0  0  0  0  0  0
  1  6  1  0  0  0  0
  2  1  2  0  0  0  0
  2  3  1  0  0  0  0
  3  4  2  0  0  0  0
  4  5  1  0  0  0  0
  4 13  1  0  0  0  0
  5 12  1  0  0  0  0
  6 11  1  0  0  0  0
  6  5  2  0  0  0  0
  7  1  1  0  0  0  0
  8  2  1  0  0  0  0
  9  3  1  0  0  0  0
 10  9  1  0  0  0  0
 14 16  2  0  0  0  0
 14 15  1  0  0  0  0
 17 14  2  0  0  0  0
 18 14  1  0  0  0  0
 18 19  1  0  0  0  0
M  RAD  3   9   2  10   3  15   2
M  END
