Coordinates from ORCA-job Ph-N2-OOCH-B3LYPG-aug-cc-pVDZ-scan-d09-49-n400
 OpenBabel10311713223D

 19 17  0  0  0  0  0  0  0  0999 V2000
   -0.9016    0.1597   -0.6712 C   0  0  0  0  0  0  0  0  0  0  0  0
    0.2877    0.7787   -1.1146 C   0  0  0  0  0  0  0  0  0  0  0  0
    1.2181    0.7304   -0.1243 C   0  0  0  0  0  0  0  0  0  0  0  0
    1.3335    0.2703    1.1231 C   0  0  0  0  0  0  0  0  0  0  0  0
    0.1010   -0.3321    1.4972 C   0  0  0  0  0  0  0  0  0  0  0  0
   -0.9846   -0.3831    0.6172 C   0  0  0  0  0  0  0  0  0  0  0  0
   -1.7459    0.1178   -1.3592 H   0  0  0  0  0  0  0  0  0  0  0  0
    0.4127    1.2144   -2.1005 H   0  0  0  0  0  0  0  0  0  0  0  0
    2.9007    1.7061   -0.7810 N   0  0  0  0  0  0  0  0  0  0  0  0
    3.6676    2.3625   -1.2246 N   0  0  0  0  0  0  0  0  0  0  0  0
   -1.9115   -0.8582    0.9369 H   0  0  0  0  0  0  0  0  0  0  0  0
    0.0405   -0.7651    2.4960 H   0  0  0  0  0  0  0  0  0  0  0  0
    2.2514    0.2989    1.7877 H   0  0  0  0  0  0  0  0  0  0  0  0
    4.7936    0.0753    1.6572 S   0  0  0  0  0  0  0  0  0  0  0  0
    3.6650    0.3459    2.6467 O   0  0  0  0  0  0  0  0  0  0  0  0
    5.9208   -0.7120    2.2176 O   0  0  0  0  0  0  0  0  0  0  0  0
    4.2551   -0.3191    0.3135 O   0  0  0  0  0  0  0  0  0  0  0  0
    5.4429    1.6138    1.3463 O   0  0  0  0  0  0  0  0  0  0  0  0
    6.2148    1.6871    1.9277 H   0  0  0  0  0  0  0  0  0  0  0  0
  1  6  1  0  0  0  0
  2  1  2  0  0  0  0
  2  3  1  0  0  0  0
  3  4  2  0  0  0  0
  4  5  1  0  0  0  0
  4 13  1  0  0  0  0
  5 12  1  0  0  0  0
  6 11  1  0  0  0  0
  6  5  2  0  0  0  0
  7  1  1  0  0  0  0
  8  2  1  0  0  0  0
 10  9  3  0  0  0  0
 14 16  2  0  0  0  0
 14 15  1  0  0  0  0
 17 14  2  0  0  0  0
 18 14  1  0  0  0  0
 18 19  1  0  0  0  0
M  RAD  2   3   2  15   2
M  END
