Coordinates from ORCA-job Ph-N2-OOCH-B3LYPG-aug-cc-pVDZ-scan-d09-49-n400
 OpenBabel10311713223D

 19 17  0  0  0  0  0  0  0  0999 V2000
   -1.1114    0.3290   -0.4410 C   0  0  0  0  0  0  0  0  0  0  0  0
    0.1129    0.7794   -1.0014 C   0  0  0  0  0  0  0  0  0  0  0  0
    1.0888    0.4924   -0.0872 C   0  0  0  0  0  0  0  0  0  0  0  0
    1.1698   -0.0442    1.0518 C   0  0  0  0  0  0  0  0  0  0  0  0
   -0.0400   -0.4966    1.6251 C   0  0  0  0  0  0  0  0  0  0  0  0
   -1.1796   -0.2849    0.8238 C   0  0  0  0  0  0  0  0  0  0  0  0
   -2.0234    0.4710   -1.0237 H   0  0  0  0  0  0  0  0  0  0  0  0
    0.2012    1.2557   -1.9730 H   0  0  0  0  0  0  0  0  0  0  0  0
    3.4996    2.0615   -2.4254 N   0  0  0  0  0  0  0  0  0  0  0  0
    4.4255    2.5238   -2.8098 N   0  0  0  0  0  0  0  0  0  0  0  0
   -2.1527   -0.6103    1.1956 H   0  0  0  0  0  0  0  0  0  0  0  0
   -0.1078   -0.9761    2.6011 H   0  0  0  0  0  0  0  0  0  0  0  0
    2.9140   -0.2639    1.8821 H   0  0  0  0  0  0  0  0  0  0  0  0
    5.0484    0.1094    1.6880 S   0  0  0  0  0  0  0  0  0  0  0  0
    3.7219   -0.4715    2.4277 O   0  0  0  0  0  0  0  0  0  0  0  0
    6.1893   -0.4802    2.4004 O   0  0  0  0  0  0  0  0  0  0  0  0
    4.8801    0.0605    0.2312 O   0  0  0  0  0  0  0  0  0  0  0  0
    4.9755    1.7183    2.0672 O   0  0  0  0  0  0  0  0  0  0  0  0
    5.3495    1.8182    2.9590 H   0  0  0  0  0  0  0  0  0  0  0  0
  1  6  1  0  0  0  0
  2  1  2  0  0  0  0
  2  3  1  0  0  0  0
  3  4  2  0  0  0  0
  4  5  1  0  0  0  0
  5 12  1  0  0  0  0
  6 11  1  0  0  0  0
  6  5  2  0  0  0  0
  7  1  1  0  0  0  0
  8  2  1  0  0  0  0
 10  9  3  0  0  0  0
 13 15  1  0  0  0  0
 14 18  1  0  0  0  0
 14 16  2  0  0  0  0
 14 15  1  0  0  0  0
 17 14  2  0  0  0  0
 18 19  1  0  0  0  0
M  RAD  2   3   2   4   2
M  END
