Coordinates from ORCA-job Ph-N2-OOCH-B3LYPG-aug-cc-pVDZ-scan-d09-49-n400
 OpenBabel10311713223D

 19 19  0  0  1  0  0  0  0  0999 V2000
   -0.3652   -0.0694   -0.7283 C   0  0  0  0  0  0  0  0  0  0  0  0
    0.5093    0.8509   -1.1923 C   0  0  0  0  0  0  0  0  0  0  0  0
    1.5869    1.3619   -0.3322 C   0  0  0  0  0  0  0  0  0  0  0  0
    1.8667    0.6573    0.9940 C   0  0  1  0  0  0  0  0  0  0  0  0
    0.7440   -0.2081    1.4546 C   0  0  0  0  0  0  0  0  0  0  0  0
   -0.2680   -0.5623    0.6355 C   0  0  0  0  0  0  0  0  0  0  0  0
   -1.1645   -0.4327   -1.3730 H   0  0  0  0  0  0  0  0  0  0  0  0
    0.4464    1.2572   -2.2017 H   0  0  0  0  0  0  0  0  0  0  0  0
    2.2332    2.2143   -0.6304 N   0  0  0  0  0  0  0  0  0  0  0  0
    2.9181    3.0972   -0.9273 N   0  0  0  0  0  0  0  0  0  0  0  0
   -1.0480   -1.2297    1.0038 H   0  0  0  0  0  0  0  0  0  0  0  0
    0.8093   -0.5755    2.4776 H   0  0  0  0  0  0  0  0  0  0  0  0
    2.1711    1.3863    1.7530 H   0  0  0  0  0  0  0  0  0  0  0  0
    4.2117   -0.2932    1.9201 S   0  0  0  0  0  0  0  0  0  0  0  0
    3.5650   -0.2885    3.2382 O   0  0  0  0  0  0  0  0  0  0  0  0
    5.1717   -1.3125    1.4804 O   0  0  0  0  0  0  0  0  0  0  0  0
    3.0818   -0.2138    0.7362 O   0  0  0  0  0  0  0  0  0  0  0  0
    4.9235    1.1963    1.8050 O   0  0  0  0  0  0  0  0  0  0  0  0
    5.5687    1.1557    1.0783 H   0  0  0  0  0  0  0  0  0  0  0  0
  1  6  1  0  0  0  0
  2  1  1  0  0  0  0
  2  3  2  0  0  0  0
  3  4  1  0  0  0  0
  4  5  1  0  0  0  0
  4 13  1  1  0  0  0
  5 12  1  0  0  0  0
  6 11  1  0  0  0  0
  6  5  2  0  0  0  0
  7  1  1  0  0  0  0
  8  2  1  0  0  0  0
  9  3  1  0  0  0  0
 10  9  1  0  0  0  0
 14 15  2  0  0  0  0
 16 14  2  0  0  0  0
 17  4  1  0  0  0  0
 17 14  1  0  0  0  0
 18 14  1  0  0  0  0
 19 18  1  0  0  0  0
M  RAD  3   1   2   9   2  10   3
M  END
