Coordinates from ORCA-job Ph-N2-OOCH-B3LYPG-aug-cc-pVDZ-scan-d09-49-n400
 OpenBabel10311713223D

 19 19  0  0  1  0  0  0  0  0999 V2000
   -0.3895   -0.0053   -0.7252 C   0  0  0  0  0  0  0  0  0  0  0  0
    0.5199    0.8765   -1.1836 C   0  0  0  0  0  0  0  0  0  0  0  0
    1.6546    1.3453   -0.3366 C   0  0  0  0  0  0  0  0  0  0  0  0
    1.8718    0.5928    1.0144 C   0  0  1  0  0  0  0  0  0  0  0  0
    0.7276   -0.2622    1.4405 C   0  0  0  0  0  0  0  0  0  0  0  0
   -0.3036   -0.5476    0.6232 C   0  0  0  0  0  0  0  0  0  0  0  0
   -1.2114   -0.3151   -1.3702 H   0  0  0  0  0  0  0  0  0  0  0  0
    0.4758    1.3015   -2.1865 H   0  0  0  0  0  0  0  0  0  0  0  0
    2.2801    2.0552   -0.5929 N   0  0  0  0  0  0  0  0  0  0  0  0
    3.0451    2.8961   -0.8812 N   0  0  0  0  0  0  0  0  0  0  0  0
   -1.1045   -1.1996    0.9731 H   0  0  0  0  0  0  0  0  0  0  0  0
    0.7908   -0.6701    2.4489 H   0  0  0  0  0  0  0  0  0  0  0  0
    2.1443    1.3313    1.7780 H   0  0  0  0  0  0  0  0  0  0  0  0
    4.2477   -0.2450    1.9346 S   0  0  0  0  0  0  0  0  0  0  0  0
    3.6421   -0.2457    3.2712 O   0  0  0  0  0  0  0  0  0  0  0  0
    5.2382   -1.2252    1.4791 O   0  0  0  0  0  0  0  0  0  0  0  0
    3.0689   -0.2650    0.7831 O   0  0  0  0  0  0  0  0  0  0  0  0
    4.8558    1.2786    1.7614 O   0  0  0  0  0  0  0  0  0  0  0  0
    5.4081    1.2949    0.9600 H   0  0  0  0  0  0  0  0  0  0  0  0
  1  6  1  0  0  0  0
  2  1  1  0  0  0  0
  2  3  2  0  0  0  0
  3  4  1  0  0  0  0
  4  5  1  0  0  0  0
  4 13  1  1  0  0  0
  5 12  1  0  0  0  0
  6 11  1  0  0  0  0
  6  5  2  0  0  0  0
  7  1  1  0  0  0  0
  8  2  1  0  0  0  0
  9  3  1  0  0  0  0
 10  9  1  0  0  0  0
 14 15  2  0  0  0  0
 16 14  2  0  0  0  0
 17  4  1  0  0  0  0
 17 14  1  0  0  0  0
 18 14  1  0  0  0  0
 19 18  1  0  0  0  0
M  RAD  3   1   2   9   2  10   3
M  END
