Coordinates from ORCA-job Ph-N2-OOCH-B3LYPG-aug-cc-pVDZ-scan-d09-49-n400
 OpenBabel10311713223D

 19 19  0  0  1  0  0  0  0  0999 V2000
   -0.3777   -0.0336   -0.7264 C   0  0  0  0  0  0  0  0  0  0  0  0
    0.5163    0.8638   -1.1896 C   0  0  0  0  0  0  0  0  0  0  0  0
    1.6280    1.3568   -0.3385 C   0  0  0  0  0  0  0  0  0  0  0  0
    1.8726    0.6232    1.0028 C   0  0  1  0  0  0  0  0  0  0  0  0
    0.7373   -0.2349    1.4469 C   0  0  0  0  0  0  0  0  0  0  0  0
   -0.2866   -0.5514    0.6303 C   0  0  0  0  0  0  0  0  0  0  0  0
   -1.1900   -0.3686   -1.3707 H   0  0  0  0  0  0  0  0  0  0  0  0
    0.4637    1.2778   -2.1966 H   0  0  0  0  0  0  0  0  0  0  0  0
    2.2507    2.1189   -0.6075 N   0  0  0  0  0  0  0  0  0  0  0  0
    2.9775    2.9839   -0.8991 N   0  0  0  0  0  0  0  0  0  0  0  0
   -1.0788   -1.2088    0.9901 H   0  0  0  0  0  0  0  0  0  0  0  0
    0.8024   -0.6229    2.4627 H   0  0  0  0  0  0  0  0  0  0  0  0
    2.1595    1.3585    1.7636 H   0  0  0  0  0  0  0  0  0  0  0  0
    4.2309   -0.2693    1.9275 S   0  0  0  0  0  0  0  0  0  0  0  0
    3.6036   -0.2738    3.2543 O   0  0  0  0  0  0  0  0  0  0  0  0
    5.2085   -1.2652    1.4762 O   0  0  0  0  0  0  0  0  0  0  0  0
    3.0752   -0.2399    0.7583 O   0  0  0  0  0  0  0  0  0  0  0  0
    4.8855    1.2405    1.7877 O   0  0  0  0  0  0  0  0  0  0  0  0
    5.4832    1.2362    1.0198 H   0  0  0  0  0  0  0  0  0  0  0  0
  1  6  1  0  0  0  0
  2  1  1  0  0  0  0
  2  3  2  0  0  0  0
  3  4  1  0  0  0  0
  4  5  1  0  0  0  0
  4 13  1  1  0  0  0
  5 12  1  0  0  0  0
  6 11  1  0  0  0  0
  6  5  2  0  0  0  0
  7  1  1  0  0  0  0
  8  2  1  0  0  0  0
  9  3  1  0  0  0  0
 10  9  1  0  0  0  0
 14 15  2  0  0  0  0
 16 14  2  0  0  0  0
 17  4  1  0  0  0  0
 17 14  1  0  0  0  0
 18 14  1  0  0  0  0
 19 18  1  0  0  0  0
M  RAD  3   1   2   9   2  10   3
M  END
