Coordinates from ORCA-job Ph-N2-OOCH-B3LYPG-aug-cc-pVDZ-scan-d09-49-n400
 OpenBabel10311713223D

 19 17  0  0  0  0  0  0  0  0999 V2000
   -0.7079    0.4581   -0.3928 C   0  0  0  0  0  0  0  0  0  0  0  0
    0.6643    0.7208   -0.6444 C   0  0  0  0  0  0  0  0  0  0  0  0
    1.3464    0.2229    0.4280 C   0  0  0  0  0  0  0  0  0  0  0  0
    1.1121   -0.3820    1.5144 C   0  0  0  0  0  0  0  0  0  0  0  0
   -0.2555   -0.6439    1.7694 C   0  0  0  0  0  0  0  0  0  0  0  0
   -1.1462   -0.2006    0.7729 C   0  0  0  0  0  0  0  0  0  0  0  0
   -1.4358    0.7851   -1.1374 H   0  0  0  0  0  0  0  0  0  0  0  0
    1.0433    1.2256   -1.5273 H   0  0  0  0  0  0  0  0  0  0  0  0
    3.3216    2.2205   -3.0733 N   0  0  0  0  0  0  0  0  0  0  0  0
    4.3892    2.4168   -3.2742 N   0  0  0  0  0  0  0  0  0  0  0  0
   -2.2156   -0.3737    0.9044 H   0  0  0  0  0  0  0  0  0  0  0  0
   -0.6122   -1.1548    2.6636 H   0  0  0  0  0  0  0  0  0  0  0  0
    2.9176   -0.6619    2.1762 H   0  0  0  0  0  0  0  0  0  0  0  0
    4.7384    0.2834    1.4917 S   0  0  0  0  0  0  0  0  0  0  0  0
    3.8872   -0.7404    2.4143 O   0  0  0  0  0  0  0  0  0  0  0  0
    6.1431   -0.1204    1.6127 O   0  0  0  0  0  0  0  0  0  0  0  0
    4.0638    0.4793    0.1963 O   0  0  0  0  0  0  0  0  0  0  0  0
    4.5359    1.7198    2.2808 O   0  0  0  0  0  0  0  0  0  0  0  0
    5.1721    1.7369    3.0161 H   0  0  0  0  0  0  0  0  0  0  0  0
  1  6  1  0  0  0  0
  2  1  2  0  0  0  0
  2  3  1  0  0  0  0
  3  4  2  0  0  0  0
  4  5  1  0  0  0  0
  5 12  1  0  0  0  0
  6 11  1  0  0  0  0
  6  5  2  0  0  0  0
  7  1  1  0  0  0  0
  8  2  1  0  0  0  0
 10  9  3  0  0  0  0
 13 15  1  0  0  0  0
 14 16  2  0  0  0  0
 14 18  1  0  0  0  0
 14 15  1  0  0  0  0
 17 14  2  0  0  0  0
 18 19  1  0  0  0  0
M  RAD  2   3   2   4   2
M  END
