Coordinates from ORCA-job Ph-N2-OOCH-B3LYPG-aug-cc-pVDZ-scan-d09-49-n400
 OpenBabel10311713223D

 19 17  0  0  0  0  0  0  0  0999 V2000
   -1.1317    0.3230   -0.4660 C   0  0  0  0  0  0  0  0  0  0  0  0
    0.0576    0.8127   -1.0674 C   0  0  0  0  0  0  0  0  0  0  0  0
    1.0700    0.5612   -0.1840 C   0  0  0  0  0  0  0  0  0  0  0  0
    1.2128    0.0341    0.9542 C   0  0  0  0  0  0  0  0  0  0  0  0
    0.0352   -0.4559    1.5657 C   0  0  0  0  0  0  0  0  0  0  0  0
   -1.1369   -0.2873    0.8027 C   0  0  0  0  0  0  0  0  0  0  0  0
   -2.0664    0.4310   -1.0192 H   0  0  0  0  0  0  0  0  0  0  0  0
    0.0992    1.2874   -2.0428 H   0  0  0  0  0  0  0  0  0  0  0  0
    3.3501    1.9509   -2.1670 N   0  0  0  0  0  0  0  0  0  0  0  0
    4.3100    2.3984   -2.4780 N   0  0  0  0  0  0  0  0  0  0  0  0
   -2.0850   -0.6442    1.2082 H   0  0  0  0  0  0  0  0  0  0  0  0
    0.0159   -0.9329    2.5451 H   0  0  0  0  0  0  0  0  0  0  0  0
    2.9126   -0.1880    1.8276 H   0  0  0  0  0  0  0  0  0  0  0  0
    5.0684    0.0870    1.6955 S   0  0  0  0  0  0  0  0  0  0  0  0
    3.6935   -0.4043    2.4106 O   0  0  0  0  0  0  0  0  0  0  0  0
    6.1580   -0.5127    2.4766 O   0  0  0  0  0  0  0  0  0  0  0  0
    4.9503   -0.0242    0.2371 O   0  0  0  0  0  0  0  0  0  0  0  0
    5.0494    1.7140    1.9972 O   0  0  0  0  0  0  0  0  0  0  0  0
    5.3987    1.8412    2.8956 H   0  0  0  0  0  0  0  0  0  0  0  0
  1  6  1  0  0  0  0
  2  1  2  0  0  0  0
  2  3  1  0  0  0  0
  3  4  2  0  0  0  0
  4  5  1  0  0  0  0
  5 12  1  0  0  0  0
  6 11  1  0  0  0  0
  6  5  2  0  0  0  0
  7  1  1  0  0  0  0
  8  2  1  0  0  0  0
 10  9  3  0  0  0  0
 13 15  1  0  0  0  0
 14 18  1  0  0  0  0
 14 15  1  0  0  0  0
 14 16  2  0  0  0  0
 17 14  2  0  0  0  0
 18 19  1  0  0  0  0
M  RAD  2   3   2   4   2
M  END
