Coordinates from ORCA-job Ph-N2-OOCH-B3LYPG-aug-cc-pVDZ-scan-d09-49-n400
 OpenBabel10311713223D

 19 17  0  0  0  0  0  0  0  0999 V2000
   -1.0996    0.3299   -0.4349 C   0  0  0  0  0  0  0  0  0  0  0  0
    0.1354    0.7654   -0.9841 C   0  0  0  0  0  0  0  0  0  0  0  0
    1.0968    0.4673   -0.0580 C   0  0  0  0  0  0  0  0  0  0  0  0
    1.1588   -0.0682    1.0818 C   0  0  0  0  0  0  0  0  0  0  0  0
   -0.0606   -0.5058    1.6446 C   0  0  0  0  0  0  0  0  0  0  0  0
   -1.1887   -0.2814    0.8304 C   0  0  0  0  0  0  0  0  0  0  0  0
   -2.0039    0.4816   -1.0271 H   0  0  0  0  0  0  0  0  0  0  0  0
    0.2399    1.2396   -1.9552 H   0  0  0  0  0  0  0  0  0  0  0  0
    3.5323    2.1033   -2.5157 N   0  0  0  0  0  0  0  0  0  0  0  0
    4.4446    2.5729   -2.9229 N   0  0  0  0  0  0  0  0  0  0  0  0
   -2.1695   -0.5946    1.1921 H   0  0  0  0  0  0  0  0  0  0  0  0
   -0.1441   -0.9828    2.6205 H   0  0  0  0  0  0  0  0  0  0  0  0
    2.9119   -0.2890    1.9026 H   0  0  0  0  0  0  0  0  0  0  0  0
    5.0394    0.1139    1.6895 S   0  0  0  0  0  0  0  0  0  0  0  0
    3.7282   -0.4934    2.4365 O   0  0  0  0  0  0  0  0  0  0  0  0
    6.1951   -0.4746    2.3782 O   0  0  0  0  0  0  0  0  0  0  0  0
    4.8536    0.0865    0.2340 O   0  0  0  0  0  0  0  0  0  0  0  0
    4.9540    1.7156    2.0954 O   0  0  0  0  0  0  0  0  0  0  0  0
    5.3382    1.8053    2.9839 H   0  0  0  0  0  0  0  0  0  0  0  0
  1  6  1  0  0  0  0
  2  1  2  0  0  0  0
  2  3  1  0  0  0  0
  3  4  2  0  0  0  0
  4  5  1  0  0  0  0
  5 12  1  0  0  0  0
  6 11  1  0  0  0  0
  6  5  2  0  0  0  0
  7  1  1  0  0  0  0
  8  2  1  0  0  0  0
 10  9  3  0  0  0  0
 13 15  1  0  0  0  0
 14 18  1  0  0  0  0
 14 16  2  0  0  0  0
 14 15  1  0  0  0  0
 17 14  2  0  0  0  0
 18 19  1  0  0  0  0
M  RAD  2   3   2   4   2
M  END
