Coordinates from ORCA-job Ph-N2-OOCH-B3LYPG-aug-cc-pVDZ-scan-d09-49-n400
 OpenBabel10311713223D

 19 19  0  0  1  0  0  0  0  0999 V2000
   -0.3915    0.0010   -0.7249 C   0  0  0  0  0  0  0  0  0  0  0  0
    0.5213    0.8791   -1.1823 C   0  0  0  0  0  0  0  0  0  0  0  0
    1.6625    1.3422   -0.3366 C   0  0  0  0  0  0  0  0  0  0  0  0
    1.8714    0.5855    1.0176 C   0  0  1  0  0  0  0  0  0  0  0  0
    0.7251   -0.2683    1.4394 C   0  0  0  0  0  0  0  0  0  0  0  0
   -0.3074   -0.5466    0.6217 C   0  0  0  0  0  0  0  0  0  0  0  0
   -1.2157   -0.3028   -1.3700 H   0  0  0  0  0  0  0  0  0  0  0  0
    0.4792    1.3067   -2.1843 H   0  0  0  0  0  0  0  0  0  0  0  0
    2.2866    2.0407   -0.5894 N   0  0  0  0  0  0  0  0  0  0  0  0
    3.0593    2.8776   -0.8769 N   0  0  0  0  0  0  0  0  0  0  0  0
   -1.1106   -1.1968    0.9694 H   0  0  0  0  0  0  0  0  0  0  0  0
    0.7870   -0.6801    2.4464 H   0  0  0  0  0  0  0  0  0  0  0  0
    2.1411    1.3250    1.7813 H   0  0  0  0  0  0  0  0  0  0  0  0
    4.2516   -0.2396    1.9360 S   0  0  0  0  0  0  0  0  0  0  0  0
    3.6513   -0.2398    3.2749 O   0  0  0  0  0  0  0  0  0  0  0  0
    5.2455   -1.2157    1.4793 O   0  0  0  0  0  0  0  0  0  0  0  0
    3.0675   -0.2714    0.7893 O   0  0  0  0  0  0  0  0  0  0  0  0
    4.8484    1.2871    1.7551 O   0  0  0  0  0  0  0  0  0  0  0  0
    5.3890    1.3079    0.9457 H   0  0  0  0  0  0  0  0  0  0  0  0
  1  6  1  0  0  0  0
  2  1  1  0  0  0  0
  2  3  2  0  0  0  0
  3  4  1  0  0  0  0
  4  5  1  0  0  0  0
  4 13  1  1  0  0  0
  5 12  1  0  0  0  0
  6 11  1  0  0  0  0
  6  5  2  0  0  0  0
  7  1  1  0  0  0  0
  8  2  1  0  0  0  0
  9  3  1  0  0  0  0
 10  9  1  0  0  0  0
 14 15  2  0  0  0  0
 16 14  2  0  0  0  0
 17  4  1  0  0  0  0
 17 14  1  0  0  0  0
 18 14  1  0  0  0  0
 19 18  1  0  0  0  0
M  RAD  3   1   2   9   2  10   3
M  END
