Coordinates from ORCA-job Ph-N2-OOCH-B3LYPG-aug-cc-pVDZ-scan-d09-49-n400
 OpenBabel10311713223D

 19 17  0  0  0  0  0  0  0  0999 V2000
   -1.1179    0.3282   -0.4453 C   0  0  0  0  0  0  0  0  0  0  0  0
    0.0984    0.7895   -1.0150 C   0  0  0  0  0  0  0  0  0  0  0  0
    1.0812    0.5089   -0.1066 C   0  0  0  0  0  0  0  0  0  0  0  0
    1.1766   -0.0275    1.0308 C   0  0  0  0  0  0  0  0  0  0  0  0
   -0.0250   -0.4904    1.6127 C   0  0  0  0  0  0  0  0  0  0  0  0
   -1.1720   -0.2874    0.8197 C   0  0  0  0  0  0  0  0  0  0  0  0
   -2.0353    0.4629   -1.0213 H   0  0  0  0  0  0  0  0  0  0  0  0
    0.1763    1.2674   -1.9867 H   0  0  0  0  0  0  0  0  0  0  0  0
    3.4757    2.0332   -2.3643 N   0  0  0  0  0  0  0  0  0  0  0  0
    4.4105    2.4909   -2.7321 N   0  0  0  0  0  0  0  0  0  0  0  0
   -2.1395   -0.6211    1.1983 H   0  0  0  0  0  0  0  0  0  0  0  0
   -0.0815   -0.9713    2.5887 H   0  0  0  0  0  0  0  0  0  0  0  0
    2.9131   -0.2464    1.8683 H   0  0  0  0  0  0  0  0  0  0  0  0
    5.0537    0.1062    1.6872 S   0  0  0  0  0  0  0  0  0  0  0  0
    3.7157   -0.4554    2.4218 O   0  0  0  0  0  0  0  0  0  0  0  0
    6.1830   -0.4854    2.4162 O   0  0  0  0  0  0  0  0  0  0  0  0
    4.8984    0.0430    0.2292 O   0  0  0  0  0  0  0  0  0  0  0  0
    4.9914    1.7198    2.0481 O   0  0  0  0  0  0  0  0  0  0  0  0
    5.3589    1.8263    2.9418 H   0  0  0  0  0  0  0  0  0  0  0  0
  1  6  1  0  0  0  0
  2  1  2  0  0  0  0
  2  3  1  0  0  0  0
  3  4  2  0  0  0  0
  4  5  1  0  0  0  0
  5 12  1  0  0  0  0
  6 11  1  0  0  0  0
  6  5  2  0  0  0  0
  7  1  1  0  0  0  0
  8  2  1  0  0  0  0
 10  9  3  0  0  0  0
 13 15  1  0  0  0  0
 14 18  1  0  0  0  0
 14 16  2  0  0  0  0
 14 15  1  0  0  0  0
 17 14  2  0  0  0  0
 18 19  1  0  0  0  0
M  RAD  2   3   2   4   2
M  END
