Coordinates from ORCA-job Ph-N2-OOCH-B3LYPG-aug-cc-pVDZ-scan-d09-49-n400
 OpenBabel10311713223D

 19 17  0  0  0  0  0  0  0  0999 V2000
   -1.0633    0.3357   -0.4230 C   0  0  0  0  0  0  0  0  0  0  0  0
    0.1971    0.7265   -0.9469 C   0  0  0  0  0  0  0  0  0  0  0  0
    1.1290    0.4043    0.0014 C   0  0  0  0  0  0  0  0  0  0  0  0
    1.1458   -0.1257    1.1458 C   0  0  0  0  0  0  0  0  0  0  0  0
   -0.0991   -0.5196    1.6840 C   0  0  0  0  0  0  0  0  0  0  0  0
   -1.2007   -0.2637    0.8434 C   0  0  0  0  0  0  0  0  0  0  0  0
   -1.9487    0.5128   -1.0363 H   0  0  0  0  0  0  0  0  0  0  0  0
    0.3383    1.1907   -1.9182 H   0  0  0  0  0  0  0  0  0  0  0  0
    3.5693    2.2095   -2.7517 N   0  0  0  0  0  0  0  0  0  0  0  0
    4.4408    2.7022   -3.2173 N   0  0  0  0  0  0  0  0  0  0  0  0
   -2.1993   -0.5419    1.1847 H   0  0  0  0  0  0  0  0  0  0  0  0
   -0.2202   -0.9869    2.6607 H   0  0  0  0  0  0  0  0  0  0  0  0
    2.9111   -0.3567    1.9552 H   0  0  0  0  0  0  0  0  0  0  0  0
    5.0173    0.1173    1.7082 S   0  0  0  0  0  0  0  0  0  0  0  0
    3.7440   -0.5555    2.4641 O   0  0  0  0  0  0  0  0  0  0  0  0
    6.2075   -0.4626    2.3432 O   0  0  0  0  0  0  0  0  0  0  0  0
    4.7923    0.1392    0.2581 O   0  0  0  0  0  0  0  0  0  0  0  0
    4.8979    1.6992    2.1774 O   0  0  0  0  0  0  0  0  0  0  0  0
    5.3025    1.7665    3.0588 H   0  0  0  0  0  0  0  0  0  0  0  0
  1  6  1  0  0  0  0
  2  1  2  0  0  0  0
  2  3  1  0  0  0  0
  3  4  2  0  0  0  0
  4  5  1  0  0  0  0
  5 12  1  0  0  0  0
  6 11  1  0  0  0  0
  6  5  2  0  0  0  0
  7  1  1  0  0  0  0
  8  2  1  0  0  0  0
 10  9  3  0  0  0  0
 13 15  1  0  0  0  0
 14 18  1  0  0  0  0
 14 16  2  0  0  0  0
 14 15  1  0  0  0  0
 17 14  2  0  0  0  0
 18 19  1  0  0  0  0
M  RAD  2   3   2   4   2
M  END
