Coordinates from ORCA-job Ph-N2-OOCH-B3LYPG-aug-cc-pVDZ-scan-d09-49-n400
 OpenBabel10311713223D

 19 19  0  0  1  0  0  0  0  0999 V2000
   -0.4262    0.0933   -0.7189 C   0  0  0  0  0  0  0  0  0  0  0  0
    0.5348    0.9264   -1.1557 C   0  0  0  0  0  0  0  0  0  0  0  0
    1.7371    1.2718   -0.3251 C   0  0  0  0  0  0  0  0  0  0  0  0
    1.8654    0.4905    1.0577 C   0  0  1  0  0  0  0  0  0  0  0  0
    0.6951   -0.3623    1.4124 C   0  0  0  0  0  0  0  0  0  0  0  0
   -0.3540   -0.5419    0.5910 C   0  0  0  0  0  0  0  0  0  0  0  0
   -1.2814   -0.1191   -1.3604 H   0  0  0  0  0  0  0  0  0  0  0  0
    0.5092    1.4005   -2.1371 H   0  0  0  0  0  0  0  0  0  0  0  0
    2.4056    1.8598   -0.5573 N   0  0  0  0  0  0  0  0  0  0  0  0
    3.2933    2.5992   -0.8203 N   0  0  0  0  0  0  0  0  0  0  0  0
   -1.1798   -1.1816    0.9032 H   0  0  0  0  0  0  0  0  0  0  0  0
    0.7476   -0.8447    2.3889 H   0  0  0  0  0  0  0  0  0  0  0  0
    2.0806    1.2390    1.8314 H   0  0  0  0  0  0  0  0  0  0  0  0
    4.3084   -0.1503    1.9622 S   0  0  0  0  0  0  0  0  0  0  0  0
    3.7898   -0.1101    3.3338 O   0  0  0  0  0  0  0  0  0  0  0  0
    5.3315   -1.0911    1.5005 O   0  0  0  0  0  0  0  0  0  0  0  0
    3.0554   -0.3525    0.8911 O   0  0  0  0  0  0  0  0  0  0  0  0
    4.7610    1.3987    1.6554 O   0  0  0  0  0  0  0  0  0  0  0  0
    5.0884    1.4657    0.7386 H   0  0  0  0  0  0  0  0  0  0  0  0
  1  6  1  0  0  0  0
  2  1  1  0  0  0  0
  2  3  2  0  0  0  0
  3  4  1  0  0  0  0
  4  5  1  0  0  0  0
  4 13  1  1  0  0  0
  5 12  1  0  0  0  0
  6 11  1  0  0  0  0
  6  5  2  0  0  0  0
  7  1  1  0  0  0  0
  8  2  1  0  0  0  0
  9  3  1  0  0  0  0
 10  9  1  0  0  0  0
 14 15  2  0  0  0  0
 16 14  2  0  0  0  0
 17  4  1  0  0  0  0
 17 14  1  0  0  0  0
 18 14  1  0  0  0  0
 19 18  1  0  0  0  0
M  RAD  3   1   2   9   2  10   3
M  END
