Coordinates from ORCA-job Ph-N2-OOCH-B3LYPG-aug-cc-pVDZ-scan-d09-49-n400
 OpenBabel10311713223D

 19 17  0  0  0  0  0  0  0  0999 V2000
   -1.0318    0.3389   -0.4183 C   0  0  0  0  0  0  0  0  0  0  0  0
    0.2458    0.6962   -0.9244 C   0  0  0  0  0  0  0  0  0  0  0  0
    1.1529    0.3572    0.0423 C   0  0  0  0  0  0  0  0  0  0  0  0
    1.1381   -0.1641    1.1900 C   0  0  0  0  0  0  0  0  0  0  0  0
   -0.1235   -0.5251    1.7108 C   0  0  0  0  0  0  0  0  0  0  0  0
   -1.2045   -0.2486    0.8499 C   0  0  0  0  0  0  0  0  0  0  0  0
   -1.9027    0.5326   -1.0472 H   0  0  0  0  0  0  0  0  0  0  0  0
    0.4141    1.1507   -1.8961 H   0  0  0  0  0  0  0  0  0  0  0  0
    3.5749    2.2925   -2.9208 N   0  0  0  0  0  0  0  0  0  0  0  0
    4.4138    2.8021   -3.4263 N   0  0  0  0  0  0  0  0  0  0  0  0
   -2.2150   -0.5003    1.1764 H   0  0  0  0  0  0  0  0  0  0  0  0
   -0.2719   -0.9821    2.6886 H   0  0  0  0  0  0  0  0  0  0  0  0
    2.9084   -0.4032    1.9962 H   0  0  0  0  0  0  0  0  0  0  0  0
    5.0009    0.1147    1.7270 S   0  0  0  0  0  0  0  0  0  0  0  0
    3.7520   -0.5965    2.4893 O   0  0  0  0  0  0  0  0  0  0  0  0
    6.2117   -0.4600    2.3270 O   0  0  0  0  0  0  0  0  0  0  0  0
    4.7494    0.1667    0.2817 O   0  0  0  0  0  0  0  0  0  0  0  0
    4.8647    1.6830    2.2352 O   0  0  0  0  0  0  0  0  0  0  0  0
    5.2845    1.7366    3.1104 H   0  0  0  0  0  0  0  0  0  0  0  0
  1  6  1  0  0  0  0
  2  1  2  0  0  0  0
  2  3  1  0  0  0  0
  3  4  2  0  0  0  0
  4  5  1  0  0  0  0
  5 12  1  0  0  0  0
  6 11  1  0  0  0  0
  6  5  2  0  0  0  0
  7  1  1  0  0  0  0
  8  2  1  0  0  0  0
 10  9  3  0  0  0  0
 13 15  1  0  0  0  0
 14 18  1  0  0  0  0
 14 16  2  0  0  0  0
 14 15  1  0  0  0  0
 17 14  2  0  0  0  0
 18 19  1  0  0  0  0
M  RAD  2   3   2   4   2
M  END
