Coordinates from ORCA-job Ph-N2-OOCH-B3LYPG-aug-cc-pVDZ-scan-d09-49-n400
 OpenBabel10311713223D

 19 17  0  0  0  0  0  0  0  0999 V2000
   -1.1344    0.3150   -0.5078 C   0  0  0  0  0  0  0  0  0  0  0  0
    0.0218    0.8406   -1.1433 C   0  0  0  0  0  0  0  0  0  0  0  0
    1.0586    0.6324   -0.2815 C   0  0  0  0  0  0  0  0  0  0  0  0
    1.2695    0.1260    0.8576 C   0  0  0  0  0  0  0  0  0  0  0  0
    0.1164   -0.3979    1.4953 C   0  0  0  0  0  0  0  0  0  0  0  0
   -1.0826   -0.2816    0.7660 C   0  0  0  0  0  0  0  0  0  0  0  0
   -2.0860    0.3835   -1.0379 H   0  0  0  0  0  0  0  0  0  0  0  0
    0.0234    1.3064   -2.1236 H   0  0  0  0  0  0  0  0  0  0  0  0
    3.0849    1.8255   -1.8826 N   0  0  0  0  0  0  0  0  0  0  0  0
    4.0783    2.2517   -2.1059 N   0  0  0  0  0  0  0  0  0  0  0  0
   -2.0052   -0.6690    1.2012 H   0  0  0  0  0  0  0  0  0  0  0  0
    0.1401   -0.8658    2.4794 H   0  0  0  0  0  0  0  0  0  0  0  0
    2.9154   -0.0834    1.7684 H   0  0  0  0  0  0  0  0  0  0  0  0
    5.0959    0.0593    1.7115 S   0  0  0  0  0  0  0  0  0  0  0  0
    3.6676   -0.3143    2.3881 O   0  0  0  0  0  0  0  0  0  0  0  0
    6.1146   -0.5685    2.5635 O   0  0  0  0  0  0  0  0  0  0  0  0
    5.0341   -0.1104    0.2547 O   0  0  0  0  0  0  0  0  0  0  0  0
    5.1670    1.6974    1.9404 O   0  0  0  0  0  0  0  0  0  0  0  0
    5.4822    1.8444    2.8482 H   0  0  0  0  0  0  0  0  0  0  0  0
  1  6  1  0  0  0  0
  2  1  2  0  0  0  0
  2  3  1  0  0  0  0
  3  4  2  0  0  0  0
  4  5  1  0  0  0  0
  5 12  1  0  0  0  0
  6 11  1  0  0  0  0
  6  5  2  0  0  0  0
  7  1  1  0  0  0  0
  8  2  1  0  0  0  0
 10  9  3  0  0  0  0
 13 15  1  0  0  0  0
 14 18  1  0  0  0  0
 14 15  1  0  0  0  0
 14 16  2  0  0  0  0
 17 14  2  0  0  0  0
 18 19  1  0  0  0  0
M  RAD  2   3   2   4   2
M  END
