Coordinates from ORCA-job Ph-N2-OOCH-B3LYPG-aug-cc-pVDZ-scan-d09-49-n400
 OpenBabel10311713223D

 19 17  0  0  0  0  0  0  0  0999 V2000
   -1.1350    0.3143   -0.5032 C   0  0  0  0  0  0  0  0  0  0  0  0
    0.0233    0.8369   -1.1355 C   0  0  0  0  0  0  0  0  0  0  0  0
    1.0631    0.6274   -0.2748 C   0  0  0  0  0  0  0  0  0  0  0  0
    1.2615    0.1174    0.8651 C   0  0  0  0  0  0  0  0  0  0  0  0
    0.1085   -0.4044    1.5025 C   0  0  0  0  0  0  0  0  0  0  0  0
   -1.0879   -0.2836    0.7702 C   0  0  0  0  0  0  0  0  0  0  0  0
   -2.0853    0.3862   -1.0353 H   0  0  0  0  0  0  0  0  0  0  0  0
    0.0278    1.3036   -2.1155 H   0  0  0  0  0  0  0  0  0  0  0  0
    3.1193    1.8418   -1.9112 N   0  0  0  0  0  0  0  0  0  0  0  0
    4.1095    2.2705   -2.1435 N   0  0  0  0  0  0  0  0  0  0  0  0
   -2.0125   -0.6688    1.2032 H   0  0  0  0  0  0  0  0  0  0  0  0
    0.1290   -0.8730    2.4861 H   0  0  0  0  0  0  0  0  0  0  0  0
    2.9153   -0.0928    1.7770 H   0  0  0  0  0  0  0  0  0  0  0  0
    5.0898    0.0615    1.7104 S   0  0  0  0  0  0  0  0  0  0  0  0
    3.6679   -0.3214    2.3956 O   0  0  0  0  0  0  0  0  0  0  0  0
    6.1186   -0.5636    2.5520 O   0  0  0  0  0  0  0  0  0  0  0  0
    5.0146   -0.1039    0.2541 O   0  0  0  0  0  0  0  0  0  0  0  0
    5.1543    1.6989    1.9448 O   0  0  0  0  0  0  0  0  0  0  0  0
    5.4797    1.8444    2.8492 H   0  0  0  0  0  0  0  0  0  0  0  0
  1  6  1  0  0  0  0
  2  1  2  0  0  0  0
  2  3  1  0  0  0  0
  3  4  2  0  0  0  0
  4  5  1  0  0  0  0
  5 12  1  0  0  0  0
  6 11  1  0  0  0  0
  6  5  2  0  0  0  0
  7  1  1  0  0  0  0
  8  2  1  0  0  0  0
 10  9  3  0  0  0  0
 13 15  1  0  0  0  0
 14 18  1  0  0  0  0
 14 15  1  0  0  0  0
 14 16  2  0  0  0  0
 17 14  2  0  0  0  0
 18 19  1  0  0  0  0
M  RAD  2   3   2   4   2
M  END
