Coordinates from ORCA-job Ph-N2-OOCH-B3LYPG-aug-cc-pVDZ-scan-d09-49-n400
 OpenBabel10311713223D

 19 19  0  0  1  0  0  0  0  0999 V2000
   -0.3632   -0.0785   -0.7300 C   0  0  0  0  0  0  0  0  0  0  0  0
    0.5062    0.8496   -1.1922 C   0  0  0  0  0  0  0  0  0  0  0  0
    1.5737    1.3598   -0.3284 C   0  0  0  0  0  0  0  0  0  0  0  0
    1.8631    0.6658    0.9928 C   0  0  1  0  0  0  0  0  0  0  0  0
    0.7444   -0.2030    1.4557 C   0  0  0  0  0  0  0  0  0  0  0  0
   -0.2635   -0.5670    0.6344 C   0  0  0  0  0  0  0  0  0  0  0  0
   -1.1593   -0.4476   -1.3750 H   0  0  0  0  0  0  0  0  0  0  0  0
    0.4397    1.2566   -2.2009 H   0  0  0  0  0  0  0  0  0  0  0  0
    2.2300    2.2405   -0.6360 N   0  0  0  0  0  0  0  0  0  0  0  0
    2.9044    3.1263   -0.9340 N   0  0  0  0  0  0  0  0  0  0  0  0
   -1.0395   -1.2385    1.0038 H   0  0  0  0  0  0  0  0  0  0  0  0
    0.8089   -0.5665    2.4800 H   0  0  0  0  0  0  0  0  0  0  0  0
    2.1726    1.3917    1.7522 H   0  0  0  0  0  0  0  0  0  0  0  0
    4.2078   -0.2967    1.9194 S   0  0  0  0  0  0  0  0  0  0  0  0
    3.5577   -0.2822    3.2361 O   0  0  0  0  0  0  0  0  0  0  0  0
    5.1623   -1.3252    1.4877 O   0  0  0  0  0  0  0  0  0  0  0  0
    3.0845   -0.2089    0.7331 O   0  0  0  0  0  0  0  0  0  0  0  0
    4.9366    1.1858    1.8031 O   0  0  0  0  0  0  0  0  0  0  0  0
    5.5953    1.1293    1.0897 H   0  0  0  0  0  0  0  0  0  0  0  0
  1  6  1  0  0  0  0
  2  1  1  0  0  0  0
  2  3  2  0  0  0  0
  3  4  1  0  0  0  0
  4  5  1  0  0  0  0
  4 13  1  1  0  0  0
  5 12  1  0  0  0  0
  6 11  1  0  0  0  0
  6  5  2  0  0  0  0
  7  1  1  0  0  0  0
  8  2  1  0  0  0  0
  9  3  1  0  0  0  0
 10  9  1  0  0  0  0
 14 15  2  0  0  0  0
 16 14  2  0  0  0  0
 17  4  1  0  0  0  0
 17 14  1  0  0  0  0
 18 14  1  0  0  0  0
 19 18  1  0  0  0  0
M  RAD  3   1   2   9   2  10   3
M  END
