Coordinates from ORCA-job Ph-N2-OOCH-B3LYPG-aug-cc-pVDZ-scan-d09-49-n400
 OpenBabel10311713223D

 19 17  0  0  0  0  0  0  0  0999 V2000
   -1.0622    0.3358   -0.4228 C   0  0  0  0  0  0  0  0  0  0  0  0
    0.1991    0.7254   -0.9461 C   0  0  0  0  0  0  0  0  0  0  0  0
    1.1279    0.4015    0.0047 C   0  0  0  0  0  0  0  0  0  0  0  0
    1.1439   -0.1280    1.1488 C   0  0  0  0  0  0  0  0  0  0  0  0
   -0.1015   -0.5208    1.6860 C   0  0  0  0  0  0  0  0  0  0  0  0
   -1.2018   -0.2635    0.8438 C   0  0  0  0  0  0  0  0  0  0  0  0
   -1.9469    0.5137   -1.0370 H   0  0  0  0  0  0  0  0  0  0  0  0
    0.3422    1.1894   -1.9172 H   0  0  0  0  0  0  0  0  0  0  0  0
    3.5715    2.2125   -2.7567 N   0  0  0  0  0  0  0  0  0  0  0  0
    4.4420    2.7057   -3.2234 N   0  0  0  0  0  0  0  0  0  0  0  0
   -2.2011   -0.5405    1.1839 H   0  0  0  0  0  0  0  0  0  0  0  0
   -0.2242   -0.9877    2.6626 H   0  0  0  0  0  0  0  0  0  0  0  0
    2.9107   -0.3583    1.9567 H   0  0  0  0  0  0  0  0  0  0  0  0
    5.0173    0.1179    1.7076 S   0  0  0  0  0  0  0  0  0  0  0  0
    3.7446   -0.5562    2.4643 O   0  0  0  0  0  0  0  0  0  0  0  0
    6.2080   -0.4622    2.3416 O   0  0  0  0  0  0  0  0  0  0  0  0
    4.7920    0.1410    0.2574 O   0  0  0  0  0  0  0  0  0  0  0  0
    4.8976    1.6994    2.1781 O   0  0  0  0  0  0  0  0  0  0  0  0
    5.3026    1.7662    3.0594 H   0  0  0  0  0  0  0  0  0  0  0  0
  1  6  1  0  0  0  0
  2  1  2  0  0  0  0
  2  3  1  0  0  0  0
  3  4  2  0  0  0  0
  4  5  1  0  0  0  0
  5 12  1  0  0  0  0
  6 11  1  0  0  0  0
  6  5  2  0  0  0  0
  7  1  1  0  0  0  0
  8  2  1  0  0  0  0
 10  9  3  0  0  0  0
 13 15  1  0  0  0  0
 14 18  1  0  0  0  0
 14 16  2  0  0  0  0
 14 15  1  0  0  0  0
 17 14  2  0  0  0  0
 18 19  1  0  0  0  0
M  RAD  2   3   2   4   2
M  END
