Coordinates from ORCA-job Ph-N2-OOCH-B3LYPG-aug-cc-pVDZ-scan-d09-49-n400
 OpenBabel10311713223D

 19 19  0  0  1  0  0  0  0  0999 V2000
   -0.3631   -0.0851   -0.7311 C   0  0  0  0  0  0  0  0  0  0  0  0
    0.5028    0.8488   -1.1915 C   0  0  0  0  0  0  0  0  0  0  0  0
    1.5628    1.3565   -0.3246 C   0  0  0  0  0  0  0  0  0  0  0  0
    1.8596    0.6707    0.9926 C   0  0  1  0  0  0  0  0  0  0  0  0
    0.7439   -0.2012    1.4562 C   0  0  0  0  0  0  0  0  0  0  0  0
   -0.2611   -0.5717    0.6332 C   0  0  0  0  0  0  0  0  0  0  0  0
   -1.1574   -0.4575   -1.3763 H   0  0  0  0  0  0  0  0  0  0  0  0
    0.4336    1.2576   -2.1992 H   0  0  0  0  0  0  0  0  0  0  0  0
    2.2322    2.2630   -0.6419 N   0  0  0  0  0  0  0  0  0  0  0  0
    2.9004    3.1493   -0.9409 N   0  0  0  0  0  0  0  0  0  0  0  0
   -1.0341   -1.2465    1.0030 H   0  0  0  0  0  0  0  0  0  0  0  0
    0.8079   -0.5627    2.4812 H   0  0  0  0  0  0  0  0  0  0  0  0
    2.1724    1.3943    1.7525 H   0  0  0  0  0  0  0  0  0  0  0  0
    4.2054   -0.2983    1.9196 S   0  0  0  0  0  0  0  0  0  0  0  0
    3.5536   -0.2749    3.2355 O   0  0  0  0  0  0  0  0  0  0  0  0
    5.1562   -1.3336    1.4950 O   0  0  0  0  0  0  0  0  0  0  0  0
    3.0863   -0.2065    0.7320 O   0  0  0  0  0  0  0  0  0  0  0  0
    4.9462    1.1792    1.7999 O   0  0  0  0  0  0  0  0  0  0  0  0
    5.6141    1.1102    1.0964 H   0  0  0  0  0  0  0  0  0  0  0  0
  1  6  1  0  0  0  0
  2  1  1  0  0  0  0
  2  3  2  0  0  0  0
  3  4  1  0  0  0  0
  4  5  1  0  0  0  0
  4 13  1  1  0  0  0
  5 12  1  0  0  0  0
  6 11  1  0  0  0  0
  6  5  2  0  0  0  0
  7  1  1  0  0  0  0
  8  2  1  0  0  0  0
  9  3  1  0  0  0  0
 10  9  1  0  0  0  0
 14 15  2  0  0  0  0
 16 14  2  0  0  0  0
 17  4  1  0  0  0  0
 17 14  1  0  0  0  0
 18 14  1  0  0  0  0
 19 18  1  0  0  0  0
M  RAD  3   1   2   9   2  10   3
M  END
