Coordinates from ORCA-job Ph-N2-OOCH-B3LYPG-aug-cc-pVDZ-scan-d09-49-n400
 OpenBabel10311713223D

 19 17  0  0  0  0  0  0  0  0999 V2000
   -0.7230    0.4573   -0.3929 C   0  0  0  0  0  0  0  0  0  0  0  0
    0.6463    0.7268   -0.6528 C   0  0  0  0  0  0  0  0  0  0  0  0
    1.3378    0.2313    0.4148 C   0  0  0  0  0  0  0  0  0  0  0  0
    1.1118   -0.3757    1.5015 C   0  0  0  0  0  0  0  0  0  0  0  0
   -0.2525   -0.6446    1.7656 C   0  0  0  0  0  0  0  0  0  0  0  0
   -1.1512   -0.2046    0.7748 C   0  0  0  0  0  0  0  0  0  0  0  0
   -1.4571    0.7816   -1.1326 H   0  0  0  0  0  0  0  0  0  0  0  0
    1.0171    1.2345   -1.5376 H   0  0  0  0  0  0  0  0  0  0  0  0
    3.3395    2.2026   -3.0219 N   0  0  0  0  0  0  0  0  0  0  0  0
    4.4140    2.3804   -3.2019 N   0  0  0  0  0  0  0  0  0  0  0  0
   -2.2189   -0.3829    0.9125 H   0  0  0  0  0  0  0  0  0  0  0  0
   -0.6011   -1.1581    2.6615 H   0  0  0  0  0  0  0  0  0  0  0  0
    2.9209   -0.6525    2.1605 H   0  0  0  0  0  0  0  0  0  0  0  0
    4.7450    0.2893    1.4796 S   0  0  0  0  0  0  0  0  0  0  0  0
    3.8895   -0.7323    2.4012 O   0  0  0  0  0  0  0  0  0  0  0  0
    6.1486   -0.1171    1.6055 O   0  0  0  0  0  0  0  0  0  0  0  0
    4.0742    0.4851    0.1826 O   0  0  0  0  0  0  0  0  0  0  0  0
    4.5430    1.7267    2.2674 O   0  0  0  0  0  0  0  0  0  0  0  0
    5.1779    1.7435    3.0037 H   0  0  0  0  0  0  0  0  0  0  0  0
  1  6  1  0  0  0  0
  2  1  2  0  0  0  0
  2  3  1  0  0  0  0
  3  4  2  0  0  0  0
  4  5  1  0  0  0  0
  5 12  1  0  0  0  0
  6 11  1  0  0  0  0
  6  5  2  0  0  0  0
  7  1  1  0  0  0  0
  8  2  1  0  0  0  0
 10  9  3  0  0  0  0
 13 15  1  0  0  0  0
 14 16  2  0  0  0  0
 14 18  1  0  0  0  0
 14 15  1  0  0  0  0
 17 14  2  0  0  0  0
 18 19  1  0  0  0  0
M  RAD  2   3   2   4   2
M  END
