Coordinates from ORCA-job Ph-N2-OOCH-B3LYPG-aug-cc-pVDZ-scan-d09-49-n400
 OpenBabel10311713223D

 19 17  0  0  0  0  0  0  0  0999 V2000
   -1.0685    0.3353   -0.4246 C   0  0  0  0  0  0  0  0  0  0  0  0
    0.1883    0.7339   -0.9513 C   0  0  0  0  0  0  0  0  0  0  0  0
    1.1245    0.4151   -0.0062 C   0  0  0  0  0  0  0  0  0  0  0  0
    1.1476   -0.1169    1.1372 C   0  0  0  0  0  0  0  0  0  0  0  0
   -0.0937   -0.5185    1.6782 C   0  0  0  0  0  0  0  0  0  0  0  0
   -1.1991   -0.2671    0.8411 C   0  0  0  0  0  0  0  0  0  0  0  0
   -1.9566    0.5087   -1.0350 H   0  0  0  0  0  0  0  0  0  0  0  0
    0.3242    1.2005   -1.9222 H   0  0  0  0  0  0  0  0  0  0  0  0
    3.5643    2.1925   -2.7182 N   0  0  0  0  0  0  0  0  0  0  0  0
    4.4421    2.6814   -3.1760 N   0  0  0  0  0  0  0  0  0  0  0  0
   -2.1951   -0.5514    1.1848 H   0  0  0  0  0  0  0  0  0  0  0  0
   -0.2095   -0.9882    2.6543 H   0  0  0  0  0  0  0  0  0  0  0  0
    2.9112   -0.3469    1.9483 H   0  0  0  0  0  0  0  0  0  0  0  0
    5.0204    0.1171    1.7053 S   0  0  0  0  0  0  0  0  0  0  0  0
    3.7419   -0.5465    2.4606 O   0  0  0  0  0  0  0  0  0  0  0  0
    6.2060   -0.4640    2.3478 O   0  0  0  0  0  0  0  0  0  0  0  0
    4.8006    0.1318    0.2544 O   0  0  0  0  0  0  0  0  0  0  0  0
    4.9056    1.7020    2.1654 O   0  0  0  0  0  0  0  0  0  0  0  0
    5.3075    1.7726    3.0478 H   0  0  0  0  0  0  0  0  0  0  0  0
  1  6  1  0  0  0  0
  2  1  2  0  0  0  0
  2  3  1  0  0  0  0
  3  4  2  0  0  0  0
  4  5  1  0  0  0  0
  5 12  1  0  0  0  0
  6 11  1  0  0  0  0
  6  5  2  0  0  0  0
  7  1  1  0  0  0  0
  8  2  1  0  0  0  0
 10  9  3  0  0  0  0
 13 15  1  0  0  0  0
 14 18  1  0  0  0  0
 14 16  2  0  0  0  0
 14 15  1  0  0  0  0
 17 14  2  0  0  0  0
 18 19  1  0  0  0  0
M  RAD  2   3   2   4   2
M  END
