Coordinates from ORCA-job Ph-N2-OOCH-B3LYPG-aug-cc-pVDZ-scan-d09-49-n400
 OpenBabel10311713223D

 19 19  0  0  1  0  0  0  0  0999 V2000
   -0.3669   -0.0998   -0.7328 C   0  0  0  0  0  0  0  0  0  0  0  0
    0.4924    0.8467   -1.1881 C   0  0  0  0  0  0  0  0  0  0  0  0
    1.5357    1.3437   -0.3137 C   0  0  0  0  0  0  0  0  0  0  0  0
    1.8490    0.6771    0.9942 C   0  0  1  0  0  0  0  0  0  0  0  0
    0.7398   -0.2017    1.4574 C   0  0  0  0  0  0  0  0  0  0  0  0
   -0.2594   -0.5846    0.6298 C   0  0  0  0  0  0  0  0  0  0  0  0
   -1.1578   -0.4773   -1.3788 H   0  0  0  0  0  0  0  0  0  0  0  0
    0.4184    1.2614   -2.1929 H   0  0  0  0  0  0  0  0  0  0  0  0
    2.2513    2.3224   -0.6599 N   0  0  0  0  0  0  0  0  0  0  0  0
    2.9102    3.2057   -0.9612 N   0  0  0  0  0  0  0  0  0  0  0  0
   -1.0256   -1.2673    0.9996 H   0  0  0  0  0  0  0  0  0  0  0  0
    0.8028   -0.5609    2.4830 H   0  0  0  0  0  0  0  0  0  0  0  0
    2.1684    1.3955    1.7554 H   0  0  0  0  0  0  0  0  0  0  0  0
    4.2022   -0.3000    1.9212 S   0  0  0  0  0  0  0  0  0  0  0  0
    3.5496   -0.2552    3.2367 O   0  0  0  0  0  0  0  0  0  0  0  0
    5.1470   -1.3485    1.5135 O   0  0  0  0  0  0  0  0  0  0  0  0
    3.0895   -0.2059    0.7329 O   0  0  0  0  0  0  0  0  0  0  0  0
    4.9644    1.1680    1.7887 O   0  0  0  0  0  0  0  0  0  0  0  0
    5.6505    1.0721    1.1065 H   0  0  0  0  0  0  0  0  0  0  0  0
  1  6  1  0  0  0  0
  2  1  1  0  0  0  0
  2  3  2  0  0  0  0
  3  4  1  0  0  0  0
  4  5  1  0  0  0  0
  4 13  1  1  0  0  0
  5 12  1  0  0  0  0
  6 11  1  0  0  0  0
  6  5  2  0  0  0  0
  7  1  1  0  0  0  0
  8  2  1  0  0  0  0
  9  3  1  0  0  0  0
 10  9  1  0  0  0  0
 14 15  2  0  0  0  0
 16 14  2  0  0  0  0
 17  4  1  0  0  0  0
 17 14  1  0  0  0  0
 18 14  1  0  0  0  0
 19 18  1  0  0  0  0
M  RAD  3   1   2   9   2  10   3
M  END
