Coordinates from ORCA-job Ph-N2-OOCH-B3LYPG-aug-cc-pVDZ-scan-d09-49-n400
 OpenBabel10311713223D

 19 17  0  0  0  0  0  0  0  0999 V2000
   -1.1353    0.3170   -0.4910 C   0  0  0  0  0  0  0  0  0  0  0  0
    0.0314    0.8299   -1.1165 C   0  0  0  0  0  0  0  0  0  0  0  0
    1.0650    0.6080   -0.2509 C   0  0  0  0  0  0  0  0  0  0  0  0
    1.2470    0.0926    0.8883 C   0  0  0  0  0  0  0  0  0  0  0  0
    0.0887   -0.4200    1.5210 C   0  0  0  0  0  0  0  0  0  0  0  0
   -1.1019   -0.2848    0.7810 C   0  0  0  0  0  0  0  0  0  0  0  0
   -2.0821    0.3996   -1.0279 H   0  0  0  0  0  0  0  0  0  0  0  0
    0.0447    1.2990   -2.0953 H   0  0  0  0  0  0  0  0  0  0  0  0
    3.1946    1.8761   -1.9856 N   0  0  0  0  0  0  0  0  0  0  0  0
    4.1762    2.3113   -2.2412 N   0  0  0  0  0  0  0  0  0  0  0  0
   -2.0331   -0.6615    1.2072 H   0  0  0  0  0  0  0  0  0  0  0  0
    0.0990   -0.8912    2.5035 H   0  0  0  0  0  0  0  0  0  0  0  0
    2.9137   -0.1242    1.7933 H   0  0  0  0  0  0  0  0  0  0  0  0
    5.0824    0.0682    1.7063 S   0  0  0  0  0  0  0  0  0  0  0  0
    3.6742   -0.3477    2.4024 O   0  0  0  0  0  0  0  0  0  0  0  0
    6.1308   -0.5467    2.5309 O   0  0  0  0  0  0  0  0  0  0  0  0
    4.9937   -0.0840    0.2495 O   0  0  0  0  0  0  0  0  0  0  0  0
    5.1195    1.7038    1.9574 O   0  0  0  0  0  0  0  0  0  0  0  0
    5.4535    1.8460    2.8592 H   0  0  0  0  0  0  0  0  0  0  0  0
  1  6  1  0  0  0  0
  2  1  2  0  0  0  0
  2  3  1  0  0  0  0
  3  4  2  0  0  0  0
  4  5  1  0  0  0  0
  5 12  1  0  0  0  0
  6 11  1  0  0  0  0
  6  5  2  0  0  0  0
  7  1  1  0  0  0  0
  8  2  1  0  0  0  0
 10  9  3  0  0  0  0
 13 15  1  0  0  0  0
 14 18  1  0  0  0  0
 14 15  1  0  0  0  0
 14 16  2  0  0  0  0
 17 14  2  0  0  0  0
 18 19  1  0  0  0  0
M  RAD  2   3   2   4   2
M  END
