Coordinates from ORCA-job Ph-N2-OOCH-B3LYPG-aug-cc-pVDZ-scan-d09-49-n400
 OpenBabel10311713223D

 19 17  0  0  0  0  0  0  0  0999 V2000
   -0.9343    0.1374   -0.6322 C   0  0  0  0  0  0  0  0  0  0  0  0
    0.2385    0.7653   -1.1239 C   0  0  0  0  0  0  0  0  0  0  0  0
    1.1640    0.7136   -0.1399 C   0  0  0  0  0  0  0  0  0  0  0  0
    1.3556    0.2893    1.0883 C   0  0  0  0  0  0  0  0  0  0  0  0
    0.1351   -0.3259    1.5132 C   0  0  0  0  0  0  0  0  0  0  0  0
   -0.9747   -0.3929    0.6643 C   0  0  0  0  0  0  0  0  0  0  0  0
   -1.7986    0.0843   -1.2950 H   0  0  0  0  0  0  0  0  0  0  0  0
    0.3337    1.1953   -2.1151 H   0  0  0  0  0  0  0  0  0  0  0  0
    2.9760    1.8881   -0.9980 N   0  0  0  0  0  0  0  0  0  0  0  0
    3.8045    2.4833   -1.4168 N   0  0  0  0  0  0  0  0  0  0  0  0
   -1.8883   -0.8716    1.0158 H   0  0  0  0  0  0  0  0  0  0  0  0
    0.1137   -0.7515    2.5172 H   0  0  0  0  0  0  0  0  0  0  0  0
    2.3280    0.3065    1.7536 H   0  0  0  0  0  0  0  0  0  0  0  0
    4.7852    0.0362    1.6470 S   0  0  0  0  0  0  0  0  0  0  0  0
    3.5717    0.2692    2.5701 O   0  0  0  0  0  0  0  0  0  0  0  0
    5.8514   -0.7586    2.3029 O   0  0  0  0  0  0  0  0  0  0  0  0
    4.3469   -0.3246    0.2683 O   0  0  0  0  0  0  0  0  0  0  0  0
    5.4343    1.5813    1.4451 O   0  0  0  0  0  0  0  0  0  0  0  0
    6.1191    1.6667    2.1264 H   0  0  0  0  0  0  0  0  0  0  0  0
  1  6  1  0  0  0  0
  2  1  2  0  0  0  0
  2  3  1  0  0  0  0
  3  4  2  0  0  0  0
  4  5  1  0  0  0  0
  4 13  1  0  0  0  0
  5 12  1  0  0  0  0
  6 11  1  0  0  0  0
  6  5  2  0  0  0  0
  7  1  1  0  0  0  0
  8  2  1  0  0  0  0
 10  9  3  0  0  0  0
 14 16  2  0  0  0  0
 14 15  1  0  0  0  0
 17 14  2  0  0  0  0
 18 14  1  0  0  0  0
 18 19  1  0  0  0  0
M  RAD  2   3   2  15   2
M  END
