Coordinates from ORCA-job Ph-N2-OOCH-B3LYPG-aug-cc-pVDZ-scan-d09-49-n400
 OpenBabel10311713223D

 19 17  0  0  0  0  0  0  0  0999 V2000
   -1.0476    0.3371   -0.4195 C   0  0  0  0  0  0  0  0  0  0  0  0
    0.2226    0.7085   -0.9343 C   0  0  0  0  0  0  0  0  0  0  0  0
    1.1397    0.3761    0.0250 C   0  0  0  0  0  0  0  0  0  0  0  0
    1.1397   -0.1487    1.1713 C   0  0  0  0  0  0  0  0  0  0  0  0
   -0.1147   -0.5236    1.7002 C   0  0  0  0  0  0  0  0  0  0  0  0
   -1.2049   -0.2555    0.8482 C   0  0  0  0  0  0  0  0  0  0  0  0
   -1.9251    0.5237   -1.0413 H   0  0  0  0  0  0  0  0  0  0  0  0
    0.3792    1.1671   -1.9060 H   0  0  0  0  0  0  0  0  0  0  0  0
    3.5793    2.2556   -2.8429 N   0  0  0  0  0  0  0  0  0  0  0  0
    4.4337    2.7578   -3.3297 N   0  0  0  0  0  0  0  0  0  0  0  0
   -2.2103   -0.5182    1.1815 H   0  0  0  0  0  0  0  0  0  0  0  0
   -0.2511   -0.9849    2.6776 H   0  0  0  0  0  0  0  0  0  0  0  0
    2.9099   -0.3823    1.9758 H   0  0  0  0  0  0  0  0  0  0  0  0
    5.0093    0.1173    1.7161 S   0  0  0  0  0  0  0  0  0  0  0  0
    3.7493   -0.5778    2.4751 O   0  0  0  0  0  0  0  0  0  0  0  0
    6.2107   -0.4599    2.3323 O   0  0  0  0  0  0  0  0  0  0  0  0
    4.7709    0.1568    0.2683 O   0  0  0  0  0  0  0  0  0  0  0  0
    4.8795    1.6915    2.2077 O   0  0  0  0  0  0  0  0  0  0  0  0
    5.2914    1.7508    3.0863 H   0  0  0  0  0  0  0  0  0  0  0  0
  1  6  1  0  0  0  0
  2  1  2  0  0  0  0
  2  3  1  0  0  0  0
  3  4  2  0  0  0  0
  4  5  1  0  0  0  0
  5 12  1  0  0  0  0
  6 11  1  0  0  0  0
  6  5  2  0  0  0  0
  7  1  1  0  0  0  0
  8  2  1  0  0  0  0
 10  9  3  0  0  0  0
 13 15  1  0  0  0  0
 14 18  1  0  0  0  0
 14 16  2  0  0  0  0
 14 15  1  0  0  0  0
 17 14  2  0  0  0  0
 18 19  1  0  0  0  0
M  RAD  2   3   2   4   2
M  END
