Coordinates from ORCA-job Ph-N2-OOCH-B3LYPG-aug-cc-pVDZ-scan-d09-49-n400
 OpenBabel10311713223D

 19 17  0  0  0  0  0  0  0  0999 V2000
   -0.6105    0.4649   -0.4002 C   0  0  0  0  0  0  0  0  0  0  0  0
    0.7757    0.6936   -0.6036 C   0  0  0  0  0  0  0  0  0  0  0  0
    1.4058    0.1851    0.4950 C   0  0  0  0  0  0  0  0  0  0  0  0
    1.1223   -0.4077    1.5776 C   0  0  0  0  0  0  0  0  0  0  0  0
   -0.2609   -0.6347    1.7813 C   0  0  0  0  0  0  0  0  0  0  0  0
   -1.1057   -0.1764    0.7525 C   0  0  0  0  0  0  0  0  0  0  0  0
   -1.3028    0.8047   -1.1725 H   0  0  0  0  0  0  0  0  0  0  0  0
    1.1931    1.1835   -1.4781 H   0  0  0  0  0  0  0  0  0  0  0  0
    3.1502    2.3778   -3.5004 N   0  0  0  0  0  0  0  0  0  0  0  0
    4.1264    2.6802   -3.9181 N   0  0  0  0  0  0  0  0  0  0  0  0
   -2.1829   -0.3232    0.8468 H   0  0  0  0  0  0  0  0  0  0  0  0
   -0.6613   -1.1320    2.6647 H   0  0  0  0  0  0  0  0  0  0  0  0
    2.8850   -0.7133    2.2894 H   0  0  0  0  0  0  0  0  0  0  0  0
    4.7204    0.2222    1.6328 S   0  0  0  0  0  0  0  0  0  0  0  0
    3.8529   -0.7978    2.5415 O   0  0  0  0  0  0  0  0  0  0  0  0
    6.1216   -0.1904    1.7637 O   0  0  0  0  0  0  0  0  0  0  0  0
    4.0601    0.4284    0.3305 O   0  0  0  0  0  0  0  0  0  0  0  0
    4.5212    1.6578    2.4240 O   0  0  0  0  0  0  0  0  0  0  0  0
    5.1511    1.6686    3.1647 H   0  0  0  0  0  0  0  0  0  0  0  0
  1  6  1  0  0  0  0
  2  1  2  0  0  0  0
  2  3  1  0  0  0  0
  3  4  2  0  0  0  0
  4  5  1  0  0  0  0
  5 12  1  0  0  0  0
  6 11  1  0  0  0  0
  6  5  2  0  0  0  0
  7  1  1  0  0  0  0
  8  2  1  0  0  0  0
 10  9  3  0  0  0  0
 13 15  1  0  0  0  0
 14 16  2  0  0  0  0
 14 18  1  0  0  0  0
 14 15  1  0  0  0  0
 17 14  2  0  0  0  0
 18 19  1  0  0  0  0
M  RAD  2   3   2   4   2
M  END
