Coordinates from ORCA-job Ph-N2-OOCH-B3LYPG-aug-cc-pVDZ-scan-d09-49-n400
 OpenBabel10311713223D

 19 17  0  0  0  0  0  0  0  0999 V2000
   -1.0539    0.3364   -0.4209 C   0  0  0  0  0  0  0  0  0  0  0  0
    0.2128    0.7149   -0.9393 C   0  0  0  0  0  0  0  0  0  0  0  0
    1.1347    0.3861    0.0166 C   0  0  0  0  0  0  0  0  0  0  0  0
    1.1412   -0.1405    1.1621 C   0  0  0  0  0  0  0  0  0  0  0  0
   -0.1096   -0.5224    1.6945 C   0  0  0  0  0  0  0  0  0  0  0  0
   -1.2040   -0.2587    0.8466 C   0  0  0  0  0  0  0  0  0  0  0  0
   -1.9344    0.5195   -1.0395 H   0  0  0  0  0  0  0  0  0  0  0  0
    0.3638    1.1756   -1.9108 H   0  0  0  0  0  0  0  0  0  0  0  0
    3.5770    2.2383   -2.8079 N   0  0  0  0  0  0  0  0  0  0  0  0
    4.4380    2.7370   -3.2865 N   0  0  0  0  0  0  0  0  0  0  0  0
   -2.2069   -0.5271    1.1827 H   0  0  0  0  0  0  0  0  0  0  0  0
   -0.2404   -0.9858    2.6717 H   0  0  0  0  0  0  0  0  0  0  0  0
    2.9104   -0.3725    1.9679 H   0  0  0  0  0  0  0  0  0  0  0  0
    5.0127    0.1178    1.7125 S   0  0  0  0  0  0  0  0  0  0  0  0
    3.7476   -0.5690    2.4706 O   0  0  0  0  0  0  0  0  0  0  0  0
    6.2098   -0.4609    2.3356 O   0  0  0  0  0  0  0  0  0  0  0  0
    4.7795    0.1511    0.2638 O   0  0  0  0  0  0  0  0  0  0  0  0
    4.8871    1.6948    2.1960 O   0  0  0  0  0  0  0  0  0  0  0  0
    5.2964    1.7568    3.0757 H   0  0  0  0  0  0  0  0  0  0  0  0
  1  6  1  0  0  0  0
  2  1  2  0  0  0  0
  2  3  1  0  0  0  0
  3  4  2  0  0  0  0
  4  5  1  0  0  0  0
  5 12  1  0  0  0  0
  6 11  1  0  0  0  0
  6  5  2  0  0  0  0
  7  1  1  0  0  0  0
  8  2  1  0  0  0  0
 10  9  3  0  0  0  0
 13 15  1  0  0  0  0
 14 18  1  0  0  0  0
 14 16  2  0  0  0  0
 14 15  1  0  0  0  0
 17 14  2  0  0  0  0
 18 19  1  0  0  0  0
M  RAD  2   3   2   4   2
M  END
