Coordinates from ORCA-job Ph-N2-OOCH-B3LYPG-aug-cc-pVDZ-scan-d09-49-n400
 OpenBabel10311713223D

 19 17  0  0  0  0  0  0  0  0999 V2000
   -0.6227    0.4638   -0.3983 C   0  0  0  0  0  0  0  0  0  0  0  0
    0.7620    0.6963   -0.6077 C   0  0  0  0  0  0  0  0  0  0  0  0
    1.3984    0.1889    0.4877 C   0  0  0  0  0  0  0  0  0  0  0  0
    1.1209   -0.4055    1.5709 C   0  0  0  0  0  0  0  0  0  0  0  0
   -0.2606   -0.6365    1.7808 C   0  0  0  0  0  0  0  0  0  0  0  0
   -1.1110   -0.1797    0.7560 C   0  0  0  0  0  0  0  0  0  0  0  0
   -1.3193    0.8022   -1.1673 H   0  0  0  0  0  0  0  0  0  0  0  0
    1.1741    1.1881   -1.4837 H   0  0  0  0  0  0  0  0  0  0  0  0
    3.1767    2.3568   -3.4449 N   0  0  0  0  0  0  0  0  0  0  0  0
    4.1667    2.6478   -3.8372 N   0  0  0  0  0  0  0  0  0  0  0  0
   -2.1874   -0.3295    0.8549 H   0  0  0  0  0  0  0  0  0  0  0  0
   -0.6558   -1.1355    2.6656 H   0  0  0  0  0  0  0  0  0  0  0  0
    2.8886   -0.7078    2.2749 H   0  0  0  0  0  0  0  0  0  0  0  0
    4.7203    0.2313    1.6130 S   0  0  0  0  0  0  0  0  0  0  0  0
    3.8574   -0.7908    2.5239 O   0  0  0  0  0  0  0  0  0  0  0  0
    6.1225   -0.1793    1.7390 O   0  0  0  0  0  0  0  0  0  0  0  0
    4.0553    0.4375    0.3132 O   0  0  0  0  0  0  0  0  0  0  0  0
    4.5215    1.6659    2.4061 O   0  0  0  0  0  0  0  0  0  0  0  0
    5.1540    1.6772    3.1446 H   0  0  0  0  0  0  0  0  0  0  0  0
  1  6  1  0  0  0  0
  2  1  2  0  0  0  0
  2  3  1  0  0  0  0
  3  4  2  0  0  0  0
  4  5  1  0  0  0  0
  5 12  1  0  0  0  0
  6 11  1  0  0  0  0
  6  5  2  0  0  0  0
  7  1  1  0  0  0  0
  8  2  1  0  0  0  0
 10  9  3  0  0  0  0
 13 15  1  0  0  0  0
 14 16  2  0  0  0  0
 14 18  1  0  0  0  0
 14 15  1  0  0  0  0
 17 14  2  0  0  0  0
 18 19  1  0  0  0  0
M  RAD  2   3   2   4   2
M  END
