Coordinates from ORCA-job Ph-N2-OOCH-B3LYPG-aug-cc-pVDZ-scan-d09-49-n400
 OpenBabel10311713223D

 19 17  0  0  0  0  0  0  0  0999 V2000
   -0.9054    0.1513   -0.6654 C   0  0  0  0  0  0  0  0  0  0  0  0
    0.2785    0.7769   -1.1180 C   0  0  0  0  0  0  0  0  0  0  0  0
    1.2071    0.7332   -0.1283 C   0  0  0  0  0  0  0  0  0  0  0  0
    1.3397    0.2824    1.1162 C   0  0  0  0  0  0  0  0  0  0  0  0
    0.1116   -0.3281    1.4992 C   0  0  0  0  0  0  0  0  0  0  0  0
   -0.9782   -0.3881    0.6251 C   0  0  0  0  0  0  0  0  0  0  0  0
   -1.7527    0.1030   -1.3493 H   0  0  0  0  0  0  0  0  0  0  0  0
    0.3968    1.2111   -2.1053 H   0  0  0  0  0  0  0  0  0  0  0  0
    2.9054    1.7456   -0.8149 N   0  0  0  0  0  0  0  0  0  0  0  0
    3.6837    2.3935   -1.2510 N   0  0  0  0  0  0  0  0  0  0  0  0
   -1.9005   -0.8680    0.9512 H   0  0  0  0  0  0  0  0  0  0  0  0
    0.0609   -0.7595    2.4994 H   0  0  0  0  0  0  0  0  0  0  0  0
    2.2661    0.3127    1.7810 H   0  0  0  0  0  0  0  0  0  0  0  0
    4.7879    0.0649    1.6554 S   0  0  0  0  0  0  0  0  0  0  0  0
    3.6445    0.3432    2.6303 O   0  0  0  0  0  0  0  0  0  0  0  0
    5.8983   -0.7280    2.2402 O   0  0  0  0  0  0  0  0  0  0  0  0
    4.2657   -0.3277    0.3072 O   0  0  0  0  0  0  0  0  0  0  0  0
    5.4493    1.5985    1.3569 O   0  0  0  0  0  0  0  0  0  0  0  0
    6.2032    1.6743    1.9615 H   0  0  0  0  0  0  0  0  0  0  0  0
  1  6  1  0  0  0  0
  2  1  2  0  0  0  0
  2  3  1  0  0  0  0
  3  4  2  0  0  0  0
  4  5  1  0  0  0  0
  4 13  1  0  0  0  0
  5 12  1  0  0  0  0
  6 11  1  0  0  0  0
  6  5  2  0  0  0  0
  7  1  1  0  0  0  0
  8  2  1  0  0  0  0
 10  9  3  0  0  0  0
 14 16  2  0  0  0  0
 14 15  1  0  0  0  0
 17 14  2  0  0  0  0
 18 14  1  0  0  0  0
 18 19  1  0  0  0  0
M  RAD  2   3   2  15   2
M  END
