Coordinates from ORCA-job Ph-N2-OOCH-B3LYPG-aug-cc-pVDZ-scan-d09-49-n400
 OpenBabel10311713223D

 19 19  0  0  1  0  0  0  0  0999 V2000
   -0.3694   -0.1059   -0.7344 C   0  0  0  0  0  0  0  0  0  0  0  0
    0.4873    0.8468   -1.1865 C   0  0  0  0  0  0  0  0  0  0  0  0
    1.5223    1.3373   -0.3072 C   0  0  0  0  0  0  0  0  0  0  0  0
    1.8426    0.6800    0.9962 C   0  0  1  0  0  0  0  0  0  0  0  0
    0.7367   -0.2026    1.4575 C   0  0  0  0  0  0  0  0  0  0  0  0
   -0.2594   -0.5909    0.6268 C   0  0  0  0  0  0  0  0  0  0  0  0
   -1.1585   -0.4853   -1.3813 H   0  0  0  0  0  0  0  0  0  0  0  0
    0.4117    1.2652   -2.1894 H   0  0  0  0  0  0  0  0  0  0  0  0
    2.2595    2.3473   -0.6665 N   0  0  0  0  0  0  0  0  0  0  0  0
    2.9156    3.2285   -0.9686 N   0  0  0  0  0  0  0  0  0  0  0  0
   -1.0223   -1.2777    0.9959 H   0  0  0  0  0  0  0  0  0  0  0  0
    0.7984   -0.5616    2.4832 H   0  0  0  0  0  0  0  0  0  0  0  0
    2.1658    1.3950    1.7585 H   0  0  0  0  0  0  0  0  0  0  0  0
    4.2020   -0.2991    1.9221 S   0  0  0  0  0  0  0  0  0  0  0  0
    3.5500   -0.2411    3.2377 O   0  0  0  0  0  0  0  0  0  0  0  0
    5.1439   -1.3548    1.5247 O   0  0  0  0  0  0  0  0  0  0  0  0
    3.0916   -0.2066    0.7347 O   0  0  0  0  0  0  0  0  0  0  0  0
    4.9747    1.1639    1.7797 O   0  0  0  0  0  0  0  0  0  0  0  0
    5.6691    1.0531    1.1084 H   0  0  0  0  0  0  0  0  0  0  0  0
  1  6  1  0  0  0  0
  2  1  1  0  0  0  0
  2  3  2  0  0  0  0
  3  4  1  0  0  0  0
  4  5  1  0  0  0  0
  4 13  1  1  0  0  0
  5 12  1  0  0  0  0
  6 11  1  0  0  0  0
  6  5  2  0  0  0  0
  7  1  1  0  0  0  0
  8  2  1  0  0  0  0
  9  3  1  0  0  0  0
 10  9  1  0  0  0  0
 14 15  2  0  0  0  0
 16 14  2  0  0  0  0
 17  4  1  0  0  0  0
 17 14  1  0  0  0  0
 18 14  1  0  0  0  0
 19 18  1  0  0  0  0
M  RAD  3   1   2   9   2  10   3
M  END
