Coordinates from ORCA-job p-CH3O-Ph-N2-OTf-B3LYP-6-31G_dp-scan-d09-49-n400
 OpenBabel02121707583D

 25 24  0  0  0  0  0  0  0  0999 V2000
   -1.7880   -0.4119   -6.2455 C   0  0  0  0  0  0  0  0  0  0  0  0
   -0.8717    0.5532   -6.5817 C   0  0  0  0  0  0  0  0  0  0  0  0
   -1.1741    1.9163   -6.2815 C   0  0  0  0  0  0  0  0  0  0  0  0
   -2.3904    2.2692   -5.6400 C   0  0  0  0  0  0  0  0  0  0  0  0
   -3.2945    1.2856   -5.3045 C   0  0  0  0  0  0  0  0  0  0  0  0
   -2.9987   -0.0669   -5.6026 C   0  0  0  0  0  0  0  0  0  0  0  0
   -1.5870   -1.4580   -6.4469 H   0  0  0  0  0  0  0  0  0  0  0  0
    0.0796    0.3361   -7.0577 H   0  0  0  0  0  0  0  0  0  0  0  0
   -2.5915    3.3106   -5.4106 H   0  0  0  0  0  0  0  0  0  0  0  0
   -4.2185    1.5597   -4.8125 H   0  0  0  0  0  0  0  0  0  0  0  0
   -0.3457    2.8086   -6.5683 N   0  0  0  0  0  0  0  0  0  0  0  0
    0.4261    3.5725   -6.8496 N   0  0  0  0  0  0  0  0  0  0  0  0
    2.5238    1.1498   -5.9475 S   0  0  0  0  0  0  0  0  0  0  0  0
    2.7846   -0.6919   -5.8977 C   0  0  0  0  0  0  0  0  0  0  0  0
    1.9885    1.3523   -7.3325 O   0  0  0  0  0  0  0  0  0  0  0  0
    3.8484    1.7181   -5.6768 O   0  0  0  0  0  0  0  0  0  0  0  0
    1.4741    1.3694   -4.9148 O   0  0  0  0  0  0  0  0  0  0  0  0
    1.6236   -1.3400   -6.1839 F   0  0  0  0  0  0  0  0  0  0  0  0
    3.6968   -1.0810   -6.7967 F   0  0  0  0  0  0  0  0  0  0  0  0
    3.1828   -1.0950   -4.6839 F   0  0  0  0  0  0  0  0  0  0  0  0
   -3.8073   -1.0891   -5.3140 O   0  0  0  0  0  0  0  0  0  0  0  0
   -5.0465   -0.8554   -4.6326 C   0  0  0  0  0  0  0  0  0  0  0  0
   -5.4969   -1.8390   -4.5055 H   0  0  0  0  0  0  0  0  0  0  0  0
   -5.7096   -0.2217   -5.2315 H   0  0  0  0  0  0  0  0  0  0  0  0
   -4.8737   -0.4010   -3.6514 H   0  0  0  0  0  0  0  0  0  0  0  0
  1  6  2  0  0  0  0
  2  3  2  0  0  0  0
  2  1  1  0  0  0  0
  3  4  1  0  0  0  0
  4  9  1  0  0  0  0
  4  5  2  0  0  0  0
  5 10  1  0  0  0  0
  6 21  1  0  0  0  0
  6  5  1  0  0  0  0
  7  1  1  0  0  0  0
  8  2  1  0  0  0  0
 11  3  1  0  0  0  0
 12 11  1  0  0  0  0
 13 14  1  0  0  0  0
 13 16  2  0  0  0  0
 13 17  1  0  0  0  0
 14 20  1  0  0  0  0
 15 13  2  0  0  0  0
 18 14  1  0  0  0  0
 19 14  1  0  0  0  0
 21 22  1  0  0  0  0
 22 23  1  0  0  0  0
 22 25  1  0  0  0  0
 24 22  1  0  0  0  0
M  RAD  3  11   2  12   3  17   2
M  END
