Coordinates from ORCA-job p-CH3O-Ph-N2-OTf-B3LYP-6-31G_dp-scan-d09-49-n400
 OpenBabel02121707583D

 25 24  0  0  0  0  0  0  0  0999 V2000
   -1.8494   -0.4471   -6.0764 C   0  0  0  0  0  0  0  0  0  0  0  0
   -0.9115    0.5189   -6.4054 C   0  0  0  0  0  0  0  0  0  0  0  0
   -1.3074    1.8279   -6.1682 C   0  0  0  0  0  0  0  0  0  0  0  0
   -2.5132    2.2589   -5.6516 C   0  0  0  0  0  0  0  0  0  0  0  0
   -3.4347    1.2645   -5.3275 C   0  0  0  0  0  0  0  0  0  0  0  0
   -3.1040   -0.0887   -5.5378 C   0  0  0  0  0  0  0  0  0  0  0  0
   -1.6248   -1.4986   -6.2180 H   0  0  0  0  0  0  0  0  0  0  0  0
    0.0659    0.2885   -6.8106 H   0  0  0  0  0  0  0  0  0  0  0  0
   -2.7293    3.3093   -5.4984 H   0  0  0  0  0  0  0  0  0  0  0  0
   -4.3934    1.5502   -4.9150 H   0  0  0  0  0  0  0  0  0  0  0  0
   -0.2304    2.9683   -6.5389 N   0  0  0  0  0  0  0  0  0  0  0  0
    0.7858    3.3108   -6.8693 N   0  0  0  0  0  0  0  0  0  0  0  0
    2.7175    1.2037   -5.9346 S   0  0  0  0  0  0  0  0  0  0  0  0
    2.9200   -0.6470   -6.0238 C   0  0  0  0  0  0  0  0  0  0  0  0
    2.0317    1.4737   -7.2645 O   0  0  0  0  0  0  0  0  0  0  0  0
    4.0819    1.7236   -5.8240 O   0  0  0  0  0  0  0  0  0  0  0  0
    1.7936    1.4224   -4.8011 O   0  0  0  0  0  0  0  0  0  0  0  0
    1.7172   -1.2474   -6.2034 F   0  0  0  0  0  0  0  0  0  0  0  0
    3.7109   -0.9972   -7.0425 F   0  0  0  0  0  0  0  0  0  0  0  0
    3.4453   -1.1161   -4.8870 F   0  0  0  0  0  0  0  0  0  0  0  0
   -3.9229   -1.1207   -5.2569 O   0  0  0  0  0  0  0  0  0  0  0  0
   -5.2059   -0.8594   -4.6878 C   0  0  0  0  0  0  0  0  0  0  0  0
   -5.6673   -1.8359   -4.5424 H   0  0  0  0  0  0  0  0  0  0  0  0
   -5.8263   -0.2601   -5.3649 H   0  0  0  0  0  0  0  0  0  0  0  0
   -5.1152   -0.3521   -3.7202 H   0  0  0  0  0  0  0  0  0  0  0  0
  1  6  2  0  0  0  0
  2  3  2  0  0  0  0
  2  1  1  0  0  0  0
  3  4  1  0  0  0  0
  4  9  1  0  0  0  0
  4  5  2  0  0  0  0
  5 10  1  0  0  0  0
  6  5  1  0  0  0  0
  6 21  1  0  0  0  0
  7  1  1  0  0  0  0
  8  2  1  0  0  0  0
 11  3  1  0  0  0  0
 12 11  2  0  0  0  0
 13 16  2  0  0  0  0
 13 17  1  0  0  0  0
 14 13  1  0  0  0  0
 14 20  1  0  0  0  0
 15 13  2  0  0  0  0
 18 14  1  0  0  0  0
 19 14  1  0  0  0  0
 21 22  1  0  0  0  0
 22 23  1  0  0  0  0
 22 25  1  0  0  0  0
 24 22  1  0  0  0  0
M  RAD  2  12   2  17   2
M  END
