Coordinates from ORCA-job p-CH3O-Ph-N2-OTf-B3LYP-6-31G_dp-scan-d09-49-n400
 OpenBabel02121707583D

 25 24  0  0  0  0  0  0  0  0999 V2000
   -1.8416   -0.4334   -6.0982 C   0  0  0  0  0  0  0  0  0  0  0  0
   -0.9099    0.5410   -6.4278 C   0  0  0  0  0  0  0  0  0  0  0  0
   -1.3214    1.8366   -6.1717 C   0  0  0  0  0  0  0  0  0  0  0  0
   -2.5177    2.2677   -5.6438 C   0  0  0  0  0  0  0  0  0  0  0  0
   -3.4307    1.2622   -5.3216 C   0  0  0  0  0  0  0  0  0  0  0  0
   -3.0937   -0.0868   -5.5467 C   0  0  0  0  0  0  0  0  0  0  0  0
   -1.6105   -1.4821   -6.2501 H   0  0  0  0  0  0  0  0  0  0  0  0
    0.0673    0.3237   -6.8418 H   0  0  0  0  0  0  0  0  0  0  0  0
   -2.7362    3.3157   -5.4800 H   0  0  0  0  0  0  0  0  0  0  0  0
   -4.3876    1.5391   -4.8990 H   0  0  0  0  0  0  0  0  0  0  0  0
   -0.2171    3.0182   -6.5539 N   0  0  0  0  0  0  0  0  0  0  0  0
    0.8064    3.3315   -6.8862 N   0  0  0  0  0  0  0  0  0  0  0  0
    2.7107    1.1952   -5.9389 S   0  0  0  0  0  0  0  0  0  0  0  0
    2.8868   -0.6595   -5.9978 C   0  0  0  0  0  0  0  0  0  0  0  0
    2.0227    1.4537   -7.2698 O   0  0  0  0  0  0  0  0  0  0  0  0
    4.0830    1.6968   -5.8441 O   0  0  0  0  0  0  0  0  0  0  0  0
    1.7962    1.4458   -4.8045 O   0  0  0  0  0  0  0  0  0  0  0  0
    1.6757   -1.2458   -6.1687 F   0  0  0  0  0  0  0  0  0  0  0  0
    3.6731   -1.0376   -7.0102 F   0  0  0  0  0  0  0  0  0  0  0  0
    3.4048   -1.1176   -4.8533 F   0  0  0  0  0  0  0  0  0  0  0  0
   -3.9047   -1.1268   -5.2683 O   0  0  0  0  0  0  0  0  0  0  0  0
   -5.1832   -0.8771   -4.6851 C   0  0  0  0  0  0  0  0  0  0  0  0
   -5.6384   -1.8572   -4.5437 H   0  0  0  0  0  0  0  0  0  0  0  0
   -5.8134   -0.2753   -5.3510 H   0  0  0  0  0  0  0  0  0  0  0  0
   -5.0863   -0.3776   -3.7139 H   0  0  0  0  0  0  0  0  0  0  0  0
  1  6  2  0  0  0  0
  2  3  2  0  0  0  0
  2  1  1  0  0  0  0
  3  4  1  0  0  0  0
  4  9  1  0  0  0  0
  4  5  2  0  0  0  0
  5 10  1  0  0  0  0
  6  5  1  0  0  0  0
  6 21  1  0  0  0  0
  7  1  1  0  0  0  0
  8  2  1  0  0  0  0
 11  3  1  0  0  0  0
 12 11  2  0  0  0  0
 13 16  2  0  0  0  0
 13 17  1  0  0  0  0
 14 13  1  0  0  0  0
 14 20  1  0  0  0  0
 15 13  2  0  0  0  0
 18 14  1  0  0  0  0
 19 14  1  0  0  0  0
 21 22  1  0  0  0  0
 22 23  1  0  0  0  0
 22 25  1  0  0  0  0
 24 22  1  0  0  0  0
M  RAD  2  12   2  17   2
M  END
