Coordinates from ORCA-job p-CH3O-Ph-N2-OTf-B3LYP-6-31G_dp-scan-d09-49-n400
 OpenBabel02121707583D

 25 24  0  0  0  0  0  0  0  0999 V2000
   -2.1384    0.1250   -7.3271 C   0  0  0  0  0  0  0  0  0  0  0  0
   -0.8100    0.5276   -7.3422 C   0  0  0  0  0  0  0  0  0  0  0  0
   -0.1922    0.8670   -6.1376 C   0  0  0  0  0  0  0  0  0  0  0  0
   -0.8817    0.8228   -4.9333 C   0  0  0  0  0  0  0  0  0  0  0  0
   -2.2213    0.4260   -4.9183 C   0  0  0  0  0  0  0  0  0  0  0  0
   -2.8534    0.0709   -6.1181 C   0  0  0  0  0  0  0  0  0  0  0  0
   -2.6493   -0.1511   -8.2432 H   0  0  0  0  0  0  0  0  0  0  0  0
   -0.2524    0.5756   -8.2706 H   0  0  0  0  0  0  0  0  0  0  0  0
   -0.3762    1.1031   -4.0153 H   0  0  0  0  0  0  0  0  0  0  0  0
   -2.7533    0.3994   -3.9748 H   0  0  0  0  0  0  0  0  0  0  0  0
   -1.8900    4.6971   -6.6296 N   0  0  0  0  0  0  0  0  0  0  0  0
   -2.9842    4.5558   -6.5632 N   0  0  0  0  0  0  0  0  0  0  0  0
    2.4033    0.3583   -6.3712 S   0  0  0  0  0  0  0  0  0  0  0  0
    2.6715   -0.2500   -4.6215 C   0  0  0  0  0  0  0  0  0  0  0  0
    2.0151   -0.7913   -7.1722 O   0  0  0  0  0  0  0  0  0  0  0  0
    3.5223    1.2197   -6.6990 O   0  0  0  0  0  0  0  0  0  0  0  0
    1.1298    1.3674   -6.1284 O   0  0  0  0  0  0  0  0  0  0  0  0
    1.6494   -1.0243   -4.2517 F   0  0  0  0  0  0  0  0  0  0  0  0
    3.8010   -0.9536   -4.5886 F   0  0  0  0  0  0  0  0  0  0  0  0
    2.7624    0.7891   -3.7925 F   0  0  0  0  0  0  0  0  0  0  0  0
   -4.1489   -0.3334   -6.2202 O   0  0  0  0  0  0  0  0  0  0  0  0
   -4.9276   -0.4163   -5.0351 C   0  0  0  0  0  0  0  0  0  0  0  0
   -5.9144   -0.7606   -5.3478 H   0  0  0  0  0  0  0  0  0  0  0  0
   -5.0244    0.5616   -4.5462 H   0  0  0  0  0  0  0  0  0  0  0  0
   -4.5032   -1.1356   -4.3224 H   0  0  0  0  0  0  0  0  0  0  0  0
  1  6  1  0  0  0  0
  2  1  2  0  0  0  0
  2  3  1  0  0  0  0
  3 17  1  0  0  0  0
  3  4  2  0  0  0  0
  4  5  1  0  0  0  0
  4  9  1  0  0  0  0
  5 10  1  0  0  0  0
  6  5  2  0  0  0  0
  7  1  1  0  0  0  0
  8  2  1  0  0  0  0
 11 12  3  0  0  0  0
 13 17  1  0  0  0  0
 13 14  1  0  0  0  0
 14 19  1  0  0  0  0
 14 18  1  0  0  0  0
 14 20  1  0  0  0  0
 15 13  2  0  0  0  0
 16 13  2  0  0  0  0
 21  6  1  0  0  0  0
 21 22  1  0  0  0  0
 22 24  1  0  0  0  0
 22 25  1  0  0  0  0
 23 22  1  0  0  0  0
M  END
