Coordinates from ORCA-job p-CH3O-Ph-N2-OTf-B3LYP-6-31G_dp-scan-d09-49-n400
 OpenBabel02121707583D

 25 24  0  0  0  0  0  0  0  0999 V2000
   -2.1485    0.1292   -7.3264 C   0  0  0  0  0  0  0  0  0  0  0  0
   -0.8214    0.5361   -7.3416 C   0  0  0  0  0  0  0  0  0  0  0  0
   -0.2039    0.8749   -6.1367 C   0  0  0  0  0  0  0  0  0  0  0  0
   -0.8923    0.8257   -4.9320 C   0  0  0  0  0  0  0  0  0  0  0  0
   -2.2306    0.4244   -4.9169 C   0  0  0  0  0  0  0  0  0  0  0  0
   -2.8625    0.0700   -6.1170 C   0  0  0  0  0  0  0  0  0  0  0  0
   -2.6591   -0.1467   -8.2427 H   0  0  0  0  0  0  0  0  0  0  0  0
   -0.2646    0.5878   -8.2703 H   0  0  0  0  0  0  0  0  0  0  0  0
   -0.3871    1.1056   -4.0138 H   0  0  0  0  0  0  0  0  0  0  0  0
   -2.7617    0.3939   -3.9730 H   0  0  0  0  0  0  0  0  0  0  0  0
   -1.7883    4.6118   -6.6235 N   0  0  0  0  0  0  0  0  0  0  0  0
   -2.8891    4.5296   -6.5666 N   0  0  0  0  0  0  0  0  0  0  0  0
    2.3930    0.3749   -6.3735 S   0  0  0  0  0  0  0  0  0  0  0  0
    2.6667   -0.2335   -4.6247 C   0  0  0  0  0  0  0  0  0  0  0  0
    2.0071   -0.7755   -7.1744 O   0  0  0  0  0  0  0  0  0  0  0  0
    3.5084    1.2402   -6.7029 O   0  0  0  0  0  0  0  0  0  0  0  0
    1.1165    1.3794   -6.1273 O   0  0  0  0  0  0  0  0  0  0  0  0
    1.6469   -1.0097   -4.2527 F   0  0  0  0  0  0  0  0  0  0  0  0
    3.7975   -0.9351   -4.5949 F   0  0  0  0  0  0  0  0  0  0  0  0
    2.7578    0.8054   -3.7956 F   0  0  0  0  0  0  0  0  0  0  0  0
   -4.1566   -0.3385   -6.2190 O   0  0  0  0  0  0  0  0  0  0  0  0
   -4.9340   -0.4273   -5.0334 C   0  0  0  0  0  0  0  0  0  0  0  0
   -5.9198   -0.7744   -5.3462 H   0  0  0  0  0  0  0  0  0  0  0  0
   -5.0339    0.5489   -4.5419 H   0  0  0  0  0  0  0  0  0  0  0  0
   -4.5062   -1.1469   -4.3230 H   0  0  0  0  0  0  0  0  0  0  0  0
  1  6  1  0  0  0  0
  2  1  2  0  0  0  0
  2  3  1  0  0  0  0
  3 17  1  0  0  0  0
  3  4  2  0  0  0  0
  4  5  1  0  0  0  0
  4  9  1  0  0  0  0
  5 10  1  0  0  0  0
  6  5  2  0  0  0  0
  7  1  1  0  0  0  0
  8  2  1  0  0  0  0
 11 12  3  0  0  0  0
 13 17  1  0  0  0  0
 13 14  1  0  0  0  0
 14 19  1  0  0  0  0
 14 18  1  0  0  0  0
 14 20  1  0  0  0  0
 15 13  2  0  0  0  0
 16 13  2  0  0  0  0
 21  6  1  0  0  0  0
 21 22  1  0  0  0  0
 22 24  1  0  0  0  0
 22 25  1  0  0  0  0
 23 22  1  0  0  0  0
M  END
