Coordinates from ORCA-job p-CH3O-Ph-N2-OTf-B3LYP-6-31G_dp-scan-d09-49-n400
 OpenBabel02121707583D

 25 24  0  0  0  0  0  0  0  0999 V2000
   -1.5679   -0.1599   -6.4427 C   0  0  0  0  0  0  0  0  0  0  0  0
   -0.7784    0.9021   -6.8159 C   0  0  0  0  0  0  0  0  0  0  0  0
   -1.1863    2.3100   -6.5261 C   0  0  0  0  0  0  0  0  0  0  0  0
   -2.4067    2.4294   -5.6908 C   0  0  0  0  0  0  0  0  0  0  0  0
   -3.1220    1.3514   -5.2835 C   0  0  0  0  0  0  0  0  0  0  0  0
   -2.7134    0.0311   -5.6620 C   0  0  0  0  0  0  0  0  0  0  0  0
   -1.2629   -1.1690   -6.6941 H   0  0  0  0  0  0  0  0  0  0  0  0
    0.0897    0.7968   -7.4608 H   0  0  0  0  0  0  0  0  0  0  0  0
   -2.6929    3.4425   -5.4231 H   0  0  0  0  0  0  0  0  0  0  0  0
   -4.0046    1.5040   -4.6746 H   0  0  0  0  0  0  0  0  0  0  0  0
   -0.6917    3.0440   -6.8117 N   0  0  0  0  0  0  0  0  0  0  0  0
   -0.0739    3.9626   -7.1672 N   0  0  0  0  0  0  0  0  0  0  0  0
    2.2377    0.8785   -5.8593 S   0  0  0  0  0  0  0  0  0  0  0  0
    2.3908   -0.9673   -5.6991 C   0  0  0  0  0  0  0  0  0  0  0  0
    2.1879    1.0925   -7.3249 O   0  0  0  0  0  0  0  0  0  0  0  0
    3.3769    1.4248   -5.1200 O   0  0  0  0  0  0  0  0  0  0  0  0
    0.8933    1.1283   -5.2106 O   0  0  0  0  0  0  0  0  0  0  0  0
    1.3538   -1.5727   -6.3304 F   0  0  0  0  0  0  0  0  0  0  0  0
    3.5241   -1.4058   -6.2566 F   0  0  0  0  0  0  0  0  0  0  0  0
    2.3677   -1.3483   -4.4158 F   0  0  0  0  0  0  0  0  0  0  0  0
   -3.3809   -1.0669   -5.3178 O   0  0  0  0  0  0  0  0  0  0  0  0
   -4.5563   -0.9856   -4.4981 C   0  0  0  0  0  0  0  0  0  0  0  0
   -4.8806   -2.0159   -4.3591 H   0  0  0  0  0  0  0  0  0  0  0  0
   -5.3454   -0.4163   -5.0001 H   0  0  0  0  0  0  0  0  0  0  0  0
   -4.3240   -0.5400   -3.5258 H   0  0  0  0  0  0  0  0  0  0  0  0
  1  6  2  0  0  0  0
  2  3  2  0  0  0  0
  2  1  1  0  0  0  0
  3  4  1  0  0  0  0
  4  9  1  0  0  0  0
  4  5  2  0  0  0  0
  5 10  1  0  0  0  0
  6 21  1  0  0  0  0
  6  5  1  0  0  0  0
  7  1  1  0  0  0  0
  8  2  1  0  0  0  0
 11  3  1  0  0  0  0
 12 11  1  0  0  0  0
 13 14  1  0  0  0  0
 13 17  2  0  0  0  0
 13 16  1  0  0  0  0
 14 20  1  0  0  0  0
 15 13  2  0  0  0  0
 18 14  1  0  0  0  0
 19 14  1  0  0  0  0
 21 22  1  0  0  0  0
 22 23  1  0  0  0  0
 22 25  1  0  0  0  0
 24 22  1  0  0  0  0
M  RAD  3  11   2  12   3  16   2
M  END
