Coordinates from ORCA-job p-CH3O-Ph-N2-OTf-B3LYP-6-31G_dp-scan-d09-49-n400
 OpenBabel02121707583D

 25 24  0  0  0  0  0  0  0  0999 V2000
   -2.2181    0.1725   -7.3252 C   0  0  0  0  0  0  0  0  0  0  0  0
   -0.9057    0.6232   -7.3476 C   0  0  0  0  0  0  0  0  0  0  0  0
   -0.2976    0.9959   -6.1479 C   0  0  0  0  0  0  0  0  0  0  0  0
   -0.9693    0.8998   -4.9366 C   0  0  0  0  0  0  0  0  0  0  0  0
   -2.2933    0.4554   -4.9137 C   0  0  0  0  0  0  0  0  0  0  0  0
   -2.9233    0.0897   -6.1117 C   0  0  0  0  0  0  0  0  0  0  0  0
   -2.7240   -0.1215   -8.2385 H   0  0  0  0  0  0  0  0  0  0  0  0
   -0.3563    0.6939   -8.2792 H   0  0  0  0  0  0  0  0  0  0  0  0
   -0.4656    1.1892   -4.0206 H   0  0  0  0  0  0  0  0  0  0  0  0
   -2.8146    0.3984   -3.9657 H   0  0  0  0  0  0  0  0  0  0  0  0
   -1.0000    3.5960   -6.4869 N   0  0  0  0  0  0  0  0  0  0  0  0
   -2.0424    3.9657   -6.5141 N   0  0  0  0  0  0  0  0  0  0  0  0
    2.3050    0.5448   -6.3994 S   0  0  0  0  0  0  0  0  0  0  0  0
    2.5781   -0.0982   -4.6623 C   0  0  0  0  0  0  0  0  0  0  0  0
    1.9452   -0.5946   -7.2278 O   0  0  0  0  0  0  0  0  0  0  0  0
    3.4081    1.4352   -6.7018 O   0  0  0  0  0  0  0  0  0  0  0  0
    1.0121    1.5240   -6.1424 O   0  0  0  0  0  0  0  0  0  0  0  0
    1.5819   -0.9175   -4.3216 F   0  0  0  0  0  0  0  0  0  0  0  0
    3.7321   -0.7611   -4.6360 F   0  0  0  0  0  0  0  0  0  0  0  0
    2.6242    0.9227   -3.8068 F   0  0  0  0  0  0  0  0  0  0  0  0
   -4.2050   -0.3561   -6.2073 O   0  0  0  0  0  0  0  0  0  0  0  0
   -4.9720   -0.4734   -5.0173 C   0  0  0  0  0  0  0  0  0  0  0  0
   -5.9503   -0.8444   -5.3261 H   0  0  0  0  0  0  0  0  0  0  0  0
   -5.0944    0.4966   -4.5187 H   0  0  0  0  0  0  0  0  0  0  0  0
   -4.5204   -1.1860   -4.3147 H   0  0  0  0  0  0  0  0  0  0  0  0
  1  6  1  0  0  0  0
  2  1  2  0  0  0  0
  2  3  1  0  0  0  0
  3 17  1  0  0  0  0
  3  4  2  0  0  0  0
  4  5  1  0  0  0  0
  4  9  1  0  0  0  0
  5 10  1  0  0  0  0
  6  5  2  0  0  0  0
  7  1  1  0  0  0  0
  8  2  1  0  0  0  0
 12 11  3  0  0  0  0
 13 17  1  0  0  0  0
 13 14  1  0  0  0  0
 14 19  1  0  0  0  0
 14 18  1  0  0  0  0
 14 20  1  0  0  0  0
 15 13  2  0  0  0  0
 16 13  2  0  0  0  0
 21  6  1  0  0  0  0
 21 22  1  0  0  0  0
 22 24  1  0  0  0  0
 22 25  1  0  0  0  0
 23 22  1  0  0  0  0
M  END
