Coordinates from ORCA-job p-CH3O-Ph-N2-OTf-B3LYP-6-31G_dp-scan-d09-49-n400
 OpenBabel02121707583D

 25 24  0  0  0  0  0  0  0  0999 V2000
   -2.1588    0.1324   -7.3254 C   0  0  0  0  0  0  0  0  0  0  0  0
   -0.8334    0.5448   -7.3409 C   0  0  0  0  0  0  0  0  0  0  0  0
   -0.2165    0.8844   -6.1359 C   0  0  0  0  0  0  0  0  0  0  0  0
   -0.9039    0.8304   -4.9307 C   0  0  0  0  0  0  0  0  0  0  0  0
   -2.2405    0.4236   -4.9153 C   0  0  0  0  0  0  0  0  0  0  0  0
   -2.8718    0.0685   -6.1156 C   0  0  0  0  0  0  0  0  0  0  0  0
   -2.6689   -0.1442   -8.2418 H   0  0  0  0  0  0  0  0  0  0  0  0
   -0.2775    0.6003   -8.2699 H   0  0  0  0  0  0  0  0  0  0  0  0
   -0.3992    1.1110   -4.0125 H   0  0  0  0  0  0  0  0  0  0  0  0
   -2.7708    0.3895   -3.9711 H   0  0  0  0  0  0  0  0  0  0  0  0
   -1.6789    4.5090   -6.6135 N   0  0  0  0  0  0  0  0  0  0  0  0
   -2.7830    4.4901   -6.5673 N   0  0  0  0  0  0  0  0  0  0  0  0
    2.3821    0.3952   -6.3763 S   0  0  0  0  0  0  0  0  0  0  0  0
    2.6602   -0.2159   -4.6292 C   0  0  0  0  0  0  0  0  0  0  0  0
    1.9998   -0.7550   -7.1794 O   0  0  0  0  0  0  0  0  0  0  0  0
    3.4937    1.2657   -6.7052 O   0  0  0  0  0  0  0  0  0  0  0  0
    1.1019    1.3941   -6.1265 O   0  0  0  0  0  0  0  0  0  0  0  0
    1.6431   -0.9958   -4.2572 F   0  0  0  0  0  0  0  0  0  0  0  0
    3.7931   -0.9145   -4.6026 F   0  0  0  0  0  0  0  0  0  0  0  0
    2.7497    0.8215   -3.7982 F   0  0  0  0  0  0  0  0  0  0  0  0
   -4.1644   -0.3448   -6.2175 O   0  0  0  0  0  0  0  0  0  0  0  0
   -4.9411   -0.4368   -5.0317 C   0  0  0  0  0  0  0  0  0  0  0  0
   -5.9261   -0.7860   -5.3445 H   0  0  0  0  0  0  0  0  0  0  0  0
   -5.0433    0.5387   -4.5392 H   0  0  0  0  0  0  0  0  0  0  0  0
   -4.5113   -1.1560   -4.3222 H   0  0  0  0  0  0  0  0  0  0  0  0
  1  6  1  0  0  0  0
  2  1  2  0  0  0  0
  2  3  1  0  0  0  0
  3 17  1  0  0  0  0
  3  4  2  0  0  0  0
  4  5  1  0  0  0  0
  4  9  1  0  0  0  0
  5 10  1  0  0  0  0
  6  5  2  0  0  0  0
  7  1  1  0  0  0  0
  8  2  1  0  0  0  0
 11 12  3  0  0  0  0
 13 17  1  0  0  0  0
 13 14  1  0  0  0  0
 14 19  1  0  0  0  0
 14 18  1  0  0  0  0
 14 20  1  0  0  0  0
 15 13  2  0  0  0  0
 16 13  2  0  0  0  0
 21  6  1  0  0  0  0
 21 22  1  0  0  0  0
 22 24  1  0  0  0  0
 22 25  1  0  0  0  0
 23 22  1  0  0  0  0
M  END
