Coordinates from ORCA-job p-CH3O-Ph-N2-OTf-B3LYP-6-31G_dp-scan-d09-49-n400
 OpenBabel02121707583D

 25 24  0  0  0  0  0  0  0  0999 V2000
   -2.2121    0.1547   -7.3250 C   0  0  0  0  0  0  0  0  0  0  0  0
   -0.8950    0.5927   -7.3418 C   0  0  0  0  0  0  0  0  0  0  0  0
   -0.2834    0.9440   -6.1375 C   0  0  0  0  0  0  0  0  0  0  0  0
   -0.9650    0.8660   -4.9304 C   0  0  0  0  0  0  0  0  0  0  0  0
   -2.2936    0.4342   -4.9136 C   0  0  0  0  0  0  0  0  0  0  0  0
   -2.9216    0.0740   -6.1141 C   0  0  0  0  0  0  0  0  0  0  0  0
   -2.7187   -0.1286   -8.2413 H   0  0  0  0  0  0  0  0  0  0  0  0
   -0.3425    0.6628   -8.2718 H   0  0  0  0  0  0  0  0  0  0  0  0
   -0.4633    1.1519   -4.0122 H   0  0  0  0  0  0  0  0  0  0  0  0
   -2.8204    0.3851   -3.9681 H   0  0  0  0  0  0  0  0  0  0  0  0
   -1.1215    3.8682   -6.5158 N   0  0  0  0  0  0  0  0  0  0  0  0
   -2.1892    4.1554   -6.5224 N   0  0  0  0  0  0  0  0  0  0  0  0
    2.3220    0.5058   -6.3943 S   0  0  0  0  0  0  0  0  0  0  0  0
    2.6246   -0.1112   -4.6535 C   0  0  0  0  0  0  0  0  0  0  0  0
    1.9565   -0.6466   -7.2021 O   0  0  0  0  0  0  0  0  0  0  0  0
    3.4143    1.3994   -6.7254 O   0  0  0  0  0  0  0  0  0  0  0  0
    1.0247    1.4777   -6.1281 O   0  0  0  0  0  0  0  0  0  0  0  0
    1.6208   -0.9056   -4.2759 F   0  0  0  0  0  0  0  0  0  0  0  0
    3.7661   -0.7960   -4.6416 F   0  0  0  0  0  0  0  0  0  0  0  0
    2.7095    0.9228   -3.8178 F   0  0  0  0  0  0  0  0  0  0  0  0
   -4.2070   -0.3608   -6.2151 O   0  0  0  0  0  0  0  0  0  0  0  0
   -4.9794   -0.4718   -5.0281 C   0  0  0  0  0  0  0  0  0  0  0  0
   -5.9592   -0.8356   -5.3405 H   0  0  0  0  0  0  0  0  0  0  0  0
   -5.0964    0.4993   -4.5302 H   0  0  0  0  0  0  0  0  0  0  0  0
   -4.5360   -1.1874   -4.3233 H   0  0  0  0  0  0  0  0  0  0  0  0
  1  6  1  0  0  0  0
  2  1  2  0  0  0  0
  2  3  1  0  0  0  0
  3 17  1  0  0  0  0
  3  4  2  0  0  0  0
  4  5  1  0  0  0  0
  4  9  1  0  0  0  0
  5 10  1  0  0  0  0
  6  5  2  0  0  0  0
  7  1  1  0  0  0  0
  8  2  1  0  0  0  0
 12 11  3  0  0  0  0
 13 17  1  0  0  0  0
 13 14  1  0  0  0  0
 14 19  1  0  0  0  0
 14 18  1  0  0  0  0
 14 20  1  0  0  0  0
 15 13  2  0  0  0  0
 16 13  2  0  0  0  0
 21  6  1  0  0  0  0
 21 22  1  0  0  0  0
 22 24  1  0  0  0  0
 22 25  1  0  0  0  0
 23 22  1  0  0  0  0
M  END
