Coordinates from ORCA-job p-CH3O-Ph-N2-OTf-B3LYP-6-31G_dp-scan-d09-49-n400
 OpenBabel02121707583D

 25 24  0  0  0  0  0  0  0  0999 V2000
   -2.1617    0.1336   -7.3250 C   0  0  0  0  0  0  0  0  0  0  0  0
   -0.8369    0.5484   -7.3406 C   0  0  0  0  0  0  0  0  0  0  0  0
   -0.2205    0.8891   -6.1356 C   0  0  0  0  0  0  0  0  0  0  0  0
   -0.9078    0.8340   -4.9304 C   0  0  0  0  0  0  0  0  0  0  0  0
   -2.2437    0.4248   -4.9149 C   0  0  0  0  0  0  0  0  0  0  0  0
   -2.8744    0.0683   -6.1151 C   0  0  0  0  0  0  0  0  0  0  0  0
   -2.6713   -0.1441   -8.2413 H   0  0  0  0  0  0  0  0  0  0  0  0
   -0.2812    0.6047   -8.2696 H   0  0  0  0  0  0  0  0  0  0  0  0
   -0.4035    1.1153   -4.0122 H   0  0  0  0  0  0  0  0  0  0  0  0
   -2.7738    0.3898   -3.9706 H   0  0  0  0  0  0  0  0  0  0  0  0
   -1.6436    4.4754   -6.6104 N   0  0  0  0  0  0  0  0  0  0  0  0
   -2.7481    4.4773   -6.5681 N   0  0  0  0  0  0  0  0  0  0  0  0
    2.3781    0.4018   -6.3773 S   0  0  0  0  0  0  0  0  0  0  0  0
    2.6569   -0.2113   -4.6310 C   0  0  0  0  0  0  0  0  0  0  0  0
    1.9962   -0.7477   -7.1816 O   0  0  0  0  0  0  0  0  0  0  0  0
    3.4892    1.2731   -6.7054 O   0  0  0  0  0  0  0  0  0  0  0  0
    1.0975    1.3998   -6.1260 O   0  0  0  0  0  0  0  0  0  0  0  0
    1.6398   -0.9915   -4.2594 F   0  0  0  0  0  0  0  0  0  0  0  0
    3.7896   -0.9100   -4.6056 F   0  0  0  0  0  0  0  0  0  0  0  0
    2.7468    0.8252   -3.7989 F   0  0  0  0  0  0  0  0  0  0  0  0
   -4.1661   -0.3475   -6.2168 O   0  0  0  0  0  0  0  0  0  0  0  0
   -4.9425   -0.4410   -5.0309 C   0  0  0  0  0  0  0  0  0  0  0  0
   -5.9269   -0.7923   -5.3435 H   0  0  0  0  0  0  0  0  0  0  0  0
   -5.0466    0.5342   -4.5384 H   0  0  0  0  0  0  0  0  0  0  0  0
   -4.5112   -1.1593   -4.3214 H   0  0  0  0  0  0  0  0  0  0  0  0
  1  6  1  0  0  0  0
  2  1  2  0  0  0  0
  2  3  1  0  0  0  0
  3 17  1  0  0  0  0
  3  4  2  0  0  0  0
  4  5  1  0  0  0  0
  4  9  1  0  0  0  0
  5 10  1  0  0  0  0
  6  5  2  0  0  0  0
  7  1  1  0  0  0  0
  8  2  1  0  0  0  0
 11 12  3  0  0  0  0
 13 17  1  0  0  0  0
 13 14  1  0  0  0  0
 14 19  1  0  0  0  0
 14 18  1  0  0  0  0
 14 20  1  0  0  0  0
 15 13  2  0  0  0  0
 16 13  2  0  0  0  0
 21  6  1  0  0  0  0
 21 22  1  0  0  0  0
 22 24  1  0  0  0  0
 22 25  1  0  0  0  0
 23 22  1  0  0  0  0
M  END
