Coordinates from ORCA-job p-CH3O-Ph-N2-OTf-B3LYP-6-31G_dp-scan-d09-49-n400
 OpenBabel02121707583D

 25 24  0  0  0  0  0  0  0  0999 V2000
   -1.8461   -0.4796   -6.0732 C   0  0  0  0  0  0  0  0  0  0  0  0
   -0.8983    0.4597   -6.4085 C   0  0  0  0  0  0  0  0  0  0  0  0
   -1.2155    1.8265   -6.2058 C   0  0  0  0  0  0  0  0  0  0  0  0
   -2.4519    2.2369   -5.6723 C   0  0  0  0  0  0  0  0  0  0  0  0
   -3.3893    1.2792   -5.3333 C   0  0  0  0  0  0  0  0  0  0  0  0
   -3.0909   -0.0878   -5.5308 C   0  0  0  0  0  0  0  0  0  0  0  0
   -1.6479   -1.5376   -6.2045 H   0  0  0  0  0  0  0  0  0  0  0  0
    0.0695    0.1939   -6.8141 H   0  0  0  0  0  0  0  0  0  0  0  0
   -2.6557    3.2922   -5.5236 H   0  0  0  0  0  0  0  0  0  0  0  0
   -4.3392    1.5892   -4.9179 H   0  0  0  0  0  0  0  0  0  0  0  0
   -0.3044    2.7431   -6.5243 N   0  0  0  0  0  0  0  0  0  0  0  0
    0.5854    3.3484   -6.8435 N   0  0  0  0  0  0  0  0  0  0  0  0
    2.6559    1.2128   -5.9216 S   0  0  0  0  0  0  0  0  0  0  0  0
    2.9584   -0.6191   -6.0655 C   0  0  0  0  0  0  0  0  0  0  0  0
    2.1024    1.5299   -7.2857 O   0  0  0  0  0  0  0  0  0  0  0  0
    3.9717    1.7812   -5.6151 O   0  0  0  0  0  0  0  0  0  0  0  0
    1.6098    1.3142   -4.8718 O   0  0  0  0  0  0  0  0  0  0  0  0
    1.8039   -1.2682   -6.3723 F   0  0  0  0  0  0  0  0  0  0  0  0
    3.8459   -0.8919   -7.0278 F   0  0  0  0  0  0  0  0  0  0  0  0
    3.4094   -1.1221   -4.9098 F   0  0  0  0  0  0  0  0  0  0  0  0
   -3.9284   -1.0897   -5.2353 O   0  0  0  0  0  0  0  0  0  0  0  0
   -5.2082   -0.8020   -4.6619 C   0  0  0  0  0  0  0  0  0  0  0  0
   -5.6827   -1.7707   -4.5088 H   0  0  0  0  0  0  0  0  0  0  0  0
   -5.8179   -0.1982   -5.3432 H   0  0  0  0  0  0  0  0  0  0  0  0
   -5.1015   -0.2902   -3.6993 H   0  0  0  0  0  0  0  0  0  0  0  0
  1  6  2  0  0  0  0
  2  3  2  0  0  0  0
  2  1  1  0  0  0  0
  3  4  1  0  0  0  0
  4  9  1  0  0  0  0
  4  5  2  0  0  0  0
  5 10  1  0  0  0  0
  6  5  1  0  0  0  0
  6 21  1  0  0  0  0
  7  1  1  0  0  0  0
  8  2  1  0  0  0  0
 11  3  1  0  0  0  0
 12 11  1  0  0  0  0
 13 16  2  0  0  0  0
 13 17  1  0  0  0  0
 14 13  1  0  0  0  0
 14 20  1  0  0  0  0
 15 13  2  0  0  0  0
 18 14  1  0  0  0  0
 19 14  1  0  0  0  0
 21 22  1  0  0  0  0
 22 23  1  0  0  0  0
 22 25  1  0  0  0  0
 24 22  1  0  0  0  0
M  RAD  3  11   2  12   3  17   2
M  END
