Coordinates from ORCA-job p-CH3O-Ph-N2-OTf-B3LYP-6-31G_dp-scan-d09-49-n400
 OpenBabel02121707583D

 25 24  0  0  0  0  0  0  0  0999 V2000
   -1.8180   -0.3969   -6.1526 C   0  0  0  0  0  0  0  0  0  0  0  0
   -0.9029    0.5987   -6.4826 C   0  0  0  0  0  0  0  0  0  0  0  0
   -1.3505    1.8607   -6.1803 C   0  0  0  0  0  0  0  0  0  0  0  0
   -2.5238    2.2903   -5.6221 C   0  0  0  0  0  0  0  0  0  0  0  0
   -3.4148    1.2578   -5.3054 C   0  0  0  0  0  0  0  0  0  0  0  0
   -3.0630   -0.0802   -5.5685 C   0  0  0  0  0  0  0  0  0  0  0  0
   -1.5708   -1.4380   -6.3302 H   0  0  0  0  0  0  0  0  0  0  0  0
    0.0746    0.4141   -6.9173 H   0  0  0  0  0  0  0  0  0  0  0  0
   -2.7481    3.3317   -5.4311 H   0  0  0  0  0  0  0  0  0  0  0  0
   -4.3663    1.5128   -4.8572 H   0  0  0  0  0  0  0  0  0  0  0  0
   -0.1870    3.1327   -6.5912 N   0  0  0  0  0  0  0  0  0  0  0  0
    0.8429    3.3972   -6.9331 N   0  0  0  0  0  0  0  0  0  0  0  0
    2.6796    1.1681   -5.9540 S   0  0  0  0  0  0  0  0  0  0  0  0
    2.8005   -0.6918   -5.9336 C   0  0  0  0  0  0  0  0  0  0  0  0
    2.0064    1.3964   -7.2946 O   0  0  0  0  0  0  0  0  0  0  0  0
    4.0670    1.6301   -5.8717 O   0  0  0  0  0  0  0  0  0  0  0  0
    1.7713    1.4901   -4.8322 O   0  0  0  0  0  0  0  0  0  0  0  0
    1.5744   -1.2482   -6.1030 F   0  0  0  0  0  0  0  0  0  0  0  0
    3.5910   -1.1354   -6.9161 F   0  0  0  0  0  0  0  0  0  0  0  0
    3.2848   -1.1197   -4.7627 F   0  0  0  0  0  0  0  0  0  0  0  0
   -3.8537   -1.1389   -5.2969 O   0  0  0  0  0  0  0  0  0  0  0  0
   -5.1199   -0.9198   -4.6770 C   0  0  0  0  0  0  0  0  0  0  0  0
   -5.5587   -1.9088   -4.5457 H   0  0  0  0  0  0  0  0  0  0  0  0
   -5.7751   -0.3125   -5.3133 H   0  0  0  0  0  0  0  0  0  0  0  0
   -5.0056   -0.4402   -3.6975 H   0  0  0  0  0  0  0  0  0  0  0  0
  1  6  2  0  0  0  0
  2  3  2  0  0  0  0
  2  1  1  0  0  0  0
  3  4  1  0  0  0  0
  4  9  1  0  0  0  0
  4  5  2  0  0  0  0
  5 10  1  0  0  0  0
  6  5  1  0  0  0  0
  6 21  1  0  0  0  0
  7  1  1  0  0  0  0
  8  2  1  0  0  0  0
 11  3  1  0  0  0  0
 12 11  2  0  0  0  0
 13 14  1  0  0  0  0
 13 16  2  0  0  0  0
 13 17  1  0  0  0  0
 14 20  1  0  0  0  0
 15 13  2  0  0  0  0
 18 14  1  0  0  0  0
 19 14  1  0  0  0  0
 21 22  1  0  0  0  0
 22 23  1  0  0  0  0
 22 25  1  0  0  0  0
 24 22  1  0  0  0  0
M  RAD  2  12   2  17   2
M  END
