Coordinates from ORCA-job p-CH3O-Ph-N2-OTf-B3LYP-6-31G_dp-scan-d09-49-n400
 OpenBabel02121707583D

 25 24  0  0  0  0  0  0  0  0999 V2000
   -2.2182    0.1758   -7.3254 C   0  0  0  0  0  0  0  0  0  0  0  0
   -0.9068    0.6287   -7.3488 C   0  0  0  0  0  0  0  0  0  0  0  0
   -0.2993    1.0058   -6.1501 C   0  0  0  0  0  0  0  0  0  0  0  0
   -0.9688    0.9054   -4.9379 C   0  0  0  0  0  0  0  0  0  0  0  0
   -2.2919    0.4587   -4.9138 C   0  0  0  0  0  0  0  0  0  0  0  0
   -2.9225    0.0925   -6.1114 C   0  0  0  0  0  0  0  0  0  0  0  0
   -2.7240   -0.1202   -8.2380 H   0  0  0  0  0  0  0  0  0  0  0  0
   -0.3579    0.6997   -8.2808 H   0  0  0  0  0  0  0  0  0  0  0  0
   -0.4646    1.1949   -4.0222 H   0  0  0  0  0  0  0  0  0  0  0  0
   -2.8119    0.3998   -3.9652 H   0  0  0  0  0  0  0  0  0  0  0  0
   -0.9871    3.5581   -6.4839 N   0  0  0  0  0  0  0  0  0  0  0  0
   -2.0257    3.9384   -6.5140 N   0  0  0  0  0  0  0  0  0  0  0  0
    2.3024    0.5493   -6.3999 S   0  0  0  0  0  0  0  0  0  0  0  0
    2.5694   -0.0975   -4.6632 C   0  0  0  0  0  0  0  0  0  0  0  0
    1.9427   -0.5878   -7.2314 O   0  0  0  0  0  0  0  0  0  0  0  0
    3.4084    1.4378   -6.6975 O   0  0  0  0  0  0  0  0  0  0  0  0
    1.0114    1.5315   -6.1454 O   0  0  0  0  0  0  0  0  0  0  0  0
    1.5745   -0.9210   -4.3291 F   0  0  0  0  0  0  0  0  0  0  0  0
    3.7254   -0.7566   -4.6335 F   0  0  0  0  0  0  0  0  0  0  0  0
    2.6083    0.9213   -3.8047 F   0  0  0  0  0  0  0  0  0  0  0  0
   -4.2036   -0.3553   -6.2059 O   0  0  0  0  0  0  0  0  0  0  0  0
   -4.9695   -0.4737   -5.0152 C   0  0  0  0  0  0  0  0  0  0  0  0
   -5.9476   -0.8457   -5.3233 H   0  0  0  0  0  0  0  0  0  0  0  0
   -5.0924    0.4961   -4.5163 H   0  0  0  0  0  0  0  0  0  0  0  0
   -4.5165   -1.1859   -4.3132 H   0  0  0  0  0  0  0  0  0  0  0  0
  1  6  1  0  0  0  0
  2  1  2  0  0  0  0
  2  3  1  0  0  0  0
  3 17  1  0  0  0  0
  3  4  2  0  0  0  0
  4  5  1  0  0  0  0
  4  9  1  0  0  0  0
  5 10  1  0  0  0  0
  6  5  2  0  0  0  0
  7  1  1  0  0  0  0
  8  2  1  0  0  0  0
 12 11  3  0  0  0  0
 13 17  1  0  0  0  0
 13 14  1  0  0  0  0
 14 19  1  0  0  0  0
 14 18  1  0  0  0  0
 14 20  1  0  0  0  0
 15 13  2  0  0  0  0
 16 13  2  0  0  0  0
 21  6  1  0  0  0  0
 21 22  1  0  0  0  0
 22 24  1  0  0  0  0
 22 25  1  0  0  0  0
 23 22  1  0  0  0  0
M  END
