Coordinates from ORCA-job p-CH3O-Ph-N2-OTf-B3LYP-6-31G_dp-scan-d09-49-n400
 OpenBabel02121707583D

 25 24  0  0  0  0  0  0  0  0999 V2000
   -2.2085    0.1512   -7.3249 C   0  0  0  0  0  0  0  0  0  0  0  0
   -0.8905    0.5866   -7.3407 C   0  0  0  0  0  0  0  0  0  0  0  0
   -0.2786    0.9353   -6.1357 C   0  0  0  0  0  0  0  0  0  0  0  0
   -0.9616    0.8600   -4.9293 C   0  0  0  0  0  0  0  0  0  0  0  0
   -2.2911    0.4308   -4.9135 C   0  0  0  0  0  0  0  0  0  0  0  0
   -2.9189    0.0717   -6.1145 C   0  0  0  0  0  0  0  0  0  0  0  0
   -2.7152   -0.1306   -8.2416 H   0  0  0  0  0  0  0  0  0  0  0  0
   -0.3374    0.6559   -8.2704 H   0  0  0  0  0  0  0  0  0  0  0  0
   -0.4602    1.1450   -4.0108 H   0  0  0  0  0  0  0  0  0  0  0  0
   -2.8189    0.3832   -3.9685 H   0  0  0  0  0  0  0  0  0  0  0  0
   -1.1630    3.9290   -6.5234 N   0  0  0  0  0  0  0  0  0  0  0  0
   -2.2364    4.1937   -6.5257 N   0  0  0  0  0  0  0  0  0  0  0  0
    2.3268    0.4962   -6.3929 S   0  0  0  0  0  0  0  0  0  0  0  0
    2.6325   -0.1175   -4.6516 C   0  0  0  0  0  0  0  0  0  0  0  0
    1.9597   -0.6576   -7.1979 O   0  0  0  0  0  0  0  0  0  0  0  0
    3.4185    1.3892   -6.7277 O   0  0  0  0  0  0  0  0  0  0  0  0
    1.0299    1.4684   -6.1257 O   0  0  0  0  0  0  0  0  0  0  0  0
    1.6271   -0.9077   -4.2693 F   0  0  0  0  0  0  0  0  0  0  0  0
    3.7718   -0.8061   -4.6413 F   0  0  0  0  0  0  0  0  0  0  0  0
    2.7232    0.9181   -3.8186 F   0  0  0  0  0  0  0  0  0  0  0  0
   -4.2051   -0.3606   -6.2163 O   0  0  0  0  0  0  0  0  0  0  0  0
   -4.9788   -0.4694   -5.0299 C   0  0  0  0  0  0  0  0  0  0  0  0
   -5.9591   -0.8312   -5.3429 H   0  0  0  0  0  0  0  0  0  0  0  0
   -5.0942    0.5022   -4.5326 H   0  0  0  0  0  0  0  0  0  0  0  0
   -4.5375   -1.1856   -4.3244 H   0  0  0  0  0  0  0  0  0  0  0  0
  1  6  1  0  0  0  0
  2  1  2  0  0  0  0
  2  3  1  0  0  0  0
  3 17  1  0  0  0  0
  3  4  2  0  0  0  0
  4  5  1  0  0  0  0
  4  9  1  0  0  0  0
  5 10  1  0  0  0  0
  6  5  2  0  0  0  0
  7  1  1  0  0  0  0
  8  2  1  0  0  0  0
 12 11  3  0  0  0  0
 13 17  1  0  0  0  0
 13 14  1  0  0  0  0
 14 19  1  0  0  0  0
 14 18  1  0  0  0  0
 14 20  1  0  0  0  0
 15 13  2  0  0  0  0
 16 13  2  0  0  0  0
 21  6  1  0  0  0  0
 21 22  1  0  0  0  0
 22 24  1  0  0  0  0
 22 25  1  0  0  0  0
 23 22  1  0  0  0  0
M  END
