Coordinates from ORCA-job p-CH3O-Ph-N2-OTf-B3LYP-6-31G_dp-scan-d09-49-n400
 OpenBabel02121707583D

 25 24  0  0  0  0  0  0  0  0999 V2000
   -1.8941   -0.4394   -6.3788 C   0  0  0  0  0  0  0  0  0  0  0  0
   -0.8971    0.5089   -6.6177 C   0  0  0  0  0  0  0  0  0  0  0  0
   -1.2387    1.7233   -6.1125 C   0  0  0  0  0  0  0  0  0  0  0  0
   -2.3089    2.1962   -5.4148 C   0  0  0  0  0  0  0  0  0  0  0  0
   -3.2785    1.2027   -5.1979 C   0  0  0  0  0  0  0  0  0  0  0  0
   -3.0725   -0.1052   -5.6769 C   0  0  0  0  0  0  0  0  0  0  0  0
   -1.7608   -1.4596   -6.7222 H   0  0  0  0  0  0  0  0  0  0  0  0
    0.0634    0.3315   -7.1197 H   0  0  0  0  0  0  0  0  0  0  0  0
   -2.4198    3.2108   -5.0571 H   0  0  0  0  0  0  0  0  0  0  0  0
   -4.1761    1.4751   -4.6574 H   0  0  0  0  0  0  0  0  0  0  0  0
    0.0312    3.0712   -6.4504 N   0  0  0  0  0  0  0  0  0  0  0  0
    0.5036    4.0346   -6.7167 N   0  0  0  0  0  0  0  0  0  0  0  0
    2.5461    1.1033   -6.2174 S   0  0  0  0  0  0  0  0  0  0  0  0
    2.8246   -0.6450   -5.6505 C   0  0  0  0  0  0  0  0  0  0  0  0
    1.8258    0.9164   -7.5183 O   0  0  0  0  0  0  0  0  0  0  0  0
    3.8808    1.7022   -6.3075 O   0  0  0  0  0  0  0  0  0  0  0  0
    1.6409    1.6504   -5.1612 O   0  0  0  0  0  0  0  0  0  0  0  0
    1.6438   -1.3026   -5.5914 F   0  0  0  0  0  0  0  0  0  0  0  0
    3.6219   -1.3033   -6.5011 F   0  0  0  0  0  0  0  0  0  0  0  0
    3.3785   -0.6764   -4.4323 F   0  0  0  0  0  0  0  0  0  0  0  0
   -3.9491   -1.1183   -5.5125 O   0  0  0  0  0  0  0  0  0  0  0  0
   -5.1484   -0.8848   -4.7772 C   0  0  0  0  0  0  0  0  0  0  0  0
   -5.6766   -1.8385   -4.7628 H   0  0  0  0  0  0  0  0  0  0  0  0
   -5.7754   -0.1295   -5.2671 H   0  0  0  0  0  0  0  0  0  0  0  0
   -4.9302   -0.5740   -3.7485 H   0  0  0  0  0  0  0  0  0  0  0  0
  1  6  1  0  0  0  0
  2  1  2  0  0  0  0
  2  3  1  0  0  0  0
  3  4  2  0  0  0  0
  4  5  1  0  0  0  0
  4  9  1  0  0  0  0
  5 10  1  0  0  0  0
  6 21  1  0  0  0  0
  6  5  2  0  0  0  0
  7  1  1  0  0  0  0
  8  2  1  0  0  0  0
 11  3  1  0  0  0  0
 12 11  1  0  0  0  0
 13 14  1  0  0  0  0
 13 17  1  0  0  0  0
 14 18  1  0  0  0  0
 14 20  1  0  0  0  0
 15 13  2  0  0  0  0
 16 13  2  0  0  0  0
 19 14  1  0  0  0  0
 21 22  1  0  0  0  0
 22 23  1  0  0  0  0
 22 25  1  0  0  0  0
 24 22  1  0  0  0  0
M  RAD  3  11   2  12   3  17   2
M  END
