Coordinates from ORCA-job p-CH3O-Ph-N2-OTf-B3LYP-6-31G_dp-scan-d09-49-n400
 OpenBabel02121707583D

 25 23  0  0  0  0  0  0  0  0999 V2000
   -2.1358   -0.4823   -6.2481 C   0  0  0  0  0  0  0  0  0  0  0  0
   -1.0253    0.3680   -6.3314 C   0  0  0  0  0  0  0  0  0  0  0  0
   -1.3238    1.5864   -5.8251 C   0  0  0  0  0  0  0  0  0  0  0  0
   -2.4188    2.1524   -5.2485 C   0  0  0  0  0  0  0  0  0  0  0  0
   -3.4972    1.2527   -5.1830 C   0  0  0  0  0  0  0  0  0  0  0  0
   -3.3550   -0.0568   -5.6806 C   0  0  0  0  0  0  0  0  0  0  0  0
   -2.0551   -1.4981   -6.6202 H   0  0  0  0  0  0  0  0  0  0  0  0
   -0.0481    0.0624   -6.7523 H   0  0  0  0  0  0  0  0  0  0  0  0
   -2.4770    3.1667   -4.8780 H   0  0  0  0  0  0  0  0  0  0  0  0
   -4.4244    1.5978   -4.7429 H   0  0  0  0  0  0  0  0  0  0  0  0
    0.1238    2.8913   -5.9446 N   0  0  0  0  0  0  0  0  0  0  0  0
    0.6131    3.8723   -6.0957 N   0  0  0  0  0  0  0  0  0  0  0  0
    2.4587    0.6941   -6.4508 S   0  0  0  0  0  0  0  0  0  0  0  0
    3.7977   -0.3557   -5.7019 C   0  0  0  0  0  0  0  0  0  0  0  0
    1.6621   -0.2795   -7.2579 O   0  0  0  0  0  0  0  0  0  0  0  0
    3.1518    1.7404   -7.2158 O   0  0  0  0  0  0  0  0  0  0  0  0
    1.7032    1.1818   -5.2528 O   0  0  0  0  0  0  0  0  0  0  0  0
    3.2643   -1.3527   -4.9804 F   0  0  0  0  0  0  0  0  0  0  0  0
    4.5629   -0.8872   -6.6640 F   0  0  0  0  0  0  0  0  0  0  0  0
    4.5724    0.3845   -4.8972 F   0  0  0  0  0  0  0  0  0  0  0  0
   -4.3346   -0.9861   -5.6599 O   0  0  0  0  0  0  0  0  0  0  0  0
   -5.5974   -0.6490   -5.0903 C   0  0  0  0  0  0  0  0  0  0  0  0
   -6.2113   -1.5455   -5.1813 H   0  0  0  0  0  0  0  0  0  0  0  0
   -6.0739    0.1745   -5.6362 H   0  0  0  0  0  0  0  0  0  0  0  0
   -5.4982   -0.3821   -4.0312 H   0  0  0  0  0  0  0  0  0  0  0  0
  1  6  1  0  0  0  0
  2  1  2  0  0  0  0
  2  3  1  0  0  0  0
  3  4  2  0  0  0  0
  4  5  1  0  0  0  0
  4  9  1  0  0  0  0
  5 10  1  0  0  0  0
  6 21  1  0  0  0  0
  6  5  2  0  0  0  0
  7  1  1  0  0  0  0
  8  2  1  0  0  0  0
 12 11  3  0  0  0  0
 13 14  1  0  0  0  0
 13 17  1  0  0  0  0
 14 18  1  0  0  0  0
 14 20  1  0  0  0  0
 15 13  2  0  0  0  0
 16 13  2  0  0  0  0
 19 14  1  0  0  0  0
 21 22  1  0  0  0  0
 22 25  1  0  0  0  0
 23 22  1  0  0  0  0
 24 22  1  0  0  0  0
M  RAD  2   3   2  17   2
M  END
