Coordinates from ORCA-job p-CH3O-Ph-N2-OTf-B3LYP-6-31G_dp-scan-d09-49-n400
 OpenBabel02121707583D

 25 24  0  0  0  0  0  0  0  0999 V2000
   -2.2013    0.1461   -7.3247 C   0  0  0  0  0  0  0  0  0  0  0  0
   -0.8821    0.5781   -7.3400 C   0  0  0  0  0  0  0  0  0  0  0  0
   -0.2696    0.9244   -6.1346 C   0  0  0  0  0  0  0  0  0  0  0  0
   -0.9541    0.8534   -4.9288 C   0  0  0  0  0  0  0  0  0  0  0  0
   -2.2847    0.4276   -4.9135 C   0  0  0  0  0  0  0  0  0  0  0  0
   -2.9124    0.0686   -6.1146 C   0  0  0  0  0  0  0  0  0  0  0  0
   -2.7082   -0.1349   -8.2415 H   0  0  0  0  0  0  0  0  0  0  0  0
   -0.3282    0.6452   -8.2694 H   0  0  0  0  0  0  0  0  0  0  0  0
   -0.4526    1.1379   -4.0101 H   0  0  0  0  0  0  0  0  0  0  0  0
   -2.8133    0.3823   -3.9688 H   0  0  0  0  0  0  0  0  0  0  0  0
   -1.2389    4.0379   -6.5395 N   0  0  0  0  0  0  0  0  0  0  0  0
   -2.3217    4.2603   -6.5340 N   0  0  0  0  0  0  0  0  0  0  0  0
    2.3352    0.4791   -6.3902 S   0  0  0  0  0  0  0  0  0  0  0  0
    2.6400   -0.1323   -4.6479 C   0  0  0  0  0  0  0  0  0  0  0  0
    1.9651   -0.6752   -7.1932 O   0  0  0  0  0  0  0  0  0  0  0  0
    3.4287    1.3692   -6.7268 O   0  0  0  0  0  0  0  0  0  0  0  0
    1.0403    1.4545   -6.1241 O   0  0  0  0  0  0  0  0  0  0  0  0
    1.6320   -0.9182   -4.2636 F   0  0  0  0  0  0  0  0  0  0  0  0
    3.7767   -0.8250   -4.6371 F   0  0  0  0  0  0  0  0  0  0  0  0
    2.7349    0.9045   -3.8170 F   0  0  0  0  0  0  0  0  0  0  0  0
   -4.1995   -0.3612   -6.2168 O   0  0  0  0  0  0  0  0  0  0  0  0
   -4.9741   -0.4670   -5.0308 C   0  0  0  0  0  0  0  0  0  0  0  0
   -5.9550   -0.8272   -5.3441 H   0  0  0  0  0  0  0  0  0  0  0  0
   -5.0879    0.5054   -4.5348 H   0  0  0  0  0  0  0  0  0  0  0  0
   -4.5349   -1.1832   -4.3241 H   0  0  0  0  0  0  0  0  0  0  0  0
  1  6  1  0  0  0  0
  2  1  2  0  0  0  0
  2  3  1  0  0  0  0
  3 17  1  0  0  0  0
  3  4  2  0  0  0  0
  4  5  1  0  0  0  0
  4  9  1  0  0  0  0
  5 10  1  0  0  0  0
  6  5  2  0  0  0  0
  7  1  1  0  0  0  0
  8  2  1  0  0  0  0
 11 12  3  0  0  0  0
 13 17  1  0  0  0  0
 13 14  1  0  0  0  0
 14 19  1  0  0  0  0
 14 18  1  0  0  0  0
 14 20  1  0  0  0  0
 15 13  2  0  0  0  0
 16 13  2  0  0  0  0
 21  6  1  0  0  0  0
 21 22  1  0  0  0  0
 22 24  1  0  0  0  0
 22 25  1  0  0  0  0
 23 22  1  0  0  0  0
M  END
