Coordinates from ORCA-job p-CH3O-Ph-N2-OTf-B3LYP-6-31G_dp-scan-d09-49-n400
 OpenBabel02121707583D

 25 24  0  0  0  0  0  0  0  0999 V2000
   -2.1724    0.1352   -7.3246 C   0  0  0  0  0  0  0  0  0  0  0  0
   -0.8492    0.5549   -7.3401 C   0  0  0  0  0  0  0  0  0  0  0  0
   -0.2338    0.8969   -6.1350 C   0  0  0  0  0  0  0  0  0  0  0  0
   -0.9206    0.8383   -4.9297 C   0  0  0  0  0  0  0  0  0  0  0  0
   -2.2550    0.4243   -4.9143 C   0  0  0  0  0  0  0  0  0  0  0  0
   -2.8847    0.0664   -6.1146 C   0  0  0  0  0  0  0  0  0  0  0  0
   -2.6811   -0.1437   -8.2411 H   0  0  0  0  0  0  0  0  0  0  0  0
   -0.2939    0.6141   -8.2692 H   0  0  0  0  0  0  0  0  0  0  0  0
   -0.4172    1.1208   -4.0114 H   0  0  0  0  0  0  0  0  0  0  0  0
   -2.7849    0.3867   -3.9700 H   0  0  0  0  0  0  0  0  0  0  0  0
   -1.5339    4.3809   -6.5957 N   0  0  0  0  0  0  0  0  0  0  0  0
   -2.6370    4.4428   -6.5634 N   0  0  0  0  0  0  0  0  0  0  0  0
    2.3666    0.4204   -6.3804 S   0  0  0  0  0  0  0  0  0  0  0  0
    2.6529   -0.1915   -4.6350 C   0  0  0  0  0  0  0  0  0  0  0  0
    1.9875   -0.7306   -7.1837 O   0  0  0  0  0  0  0  0  0  0  0  0
    3.4730    1.2966   -6.7116 O   0  0  0  0  0  0  0  0  0  0  0  0
    1.0822    1.4125   -6.1251 O   0  0  0  0  0  0  0  0  0  0  0  0
    1.6379   -0.9723   -4.2591 F   0  0  0  0  0  0  0  0  0  0  0  0
    3.7863   -0.8894   -4.6138 F   0  0  0  0  0  0  0  0  0  0  0  0
    2.7454    0.8454   -3.8038 F   0  0  0  0  0  0  0  0  0  0  0  0
   -4.1749   -0.3539   -6.2164 O   0  0  0  0  0  0  0  0  0  0  0  0
   -4.9506   -0.4517   -5.0304 C   0  0  0  0  0  0  0  0  0  0  0  0
   -5.9337   -0.8063   -5.3430 H   0  0  0  0  0  0  0  0  0  0  0  0
   -5.0582    0.5226   -4.5368 H   0  0  0  0  0  0  0  0  0  0  0  0
   -4.5162   -1.1691   -4.3218 H   0  0  0  0  0  0  0  0  0  0  0  0
  1  6  1  0  0  0  0
  2  1  2  0  0  0  0
  2  3  1  0  0  0  0
  3 17  1  0  0  0  0
  3  4  2  0  0  0  0
  4  5  1  0  0  0  0
  4  9  1  0  0  0  0
  5 10  1  0  0  0  0
  6  5  2  0  0  0  0
  7  1  1  0  0  0  0
  8  2  1  0  0  0  0
 11 12  3  0  0  0  0
 13 17  1  0  0  0  0
 13 14  1  0  0  0  0
 14 19  1  0  0  0  0
 14 18  1  0  0  0  0
 14 20  1  0  0  0  0
 15 13  2  0  0  0  0
 16 13  2  0  0  0  0
 21  6  1  0  0  0  0
 21 22  1  0  0  0  0
 22 24  1  0  0  0  0
 22 25  1  0  0  0  0
 23 22  1  0  0  0  0
M  END
