Coordinates from ORCA-job p-CH3O-Ph-N2-OTf-B3LYP-6-31G_dp-scan-d09-49-n400
 OpenBabel02121707583D

 25 24  0  0  0  0  0  0  0  0999 V2000
   -2.0963    0.1041   -7.3325 C   0  0  0  0  0  0  0  0  0  0  0  0
   -0.7626    0.4887   -7.3488 C   0  0  0  0  0  0  0  0  0  0  0  0
   -0.1442    0.8353   -6.1467 C   0  0  0  0  0  0  0  0  0  0  0  0
   -0.8365    0.8139   -4.9436 C   0  0  0  0  0  0  0  0  0  0  0  0
   -2.1813    0.4350   -4.9275 C   0  0  0  0  0  0  0  0  0  0  0  0
   -2.8150    0.0743   -6.1248 C   0  0  0  0  0  0  0  0  0  0  0  0
   -2.6086   -0.1762   -8.2466 H   0  0  0  0  0  0  0  0  0  0  0  0
   -0.2017    0.5171   -8.2761 H   0  0  0  0  0  0  0  0  0  0  0  0
   -0.3295    1.0978   -4.0277 H   0  0  0  0  0  0  0  0  0  0  0  0
   -2.7164    0.4269   -3.9854 H   0  0  0  0  0  0  0  0  0  0  0  0
   -2.3297    5.0688   -6.6390 N   0  0  0  0  0  0  0  0  0  0  0  0
   -3.3533    4.6653   -6.5330 N   0  0  0  0  0  0  0  0  0  0  0  0
    2.4446    0.2856   -6.3624 S   0  0  0  0  0  0  0  0  0  0  0  0
    2.6860   -0.3151   -4.6059 C   0  0  0  0  0  0  0  0  0  0  0  0
    2.0463   -0.8632   -7.1595 O   0  0  0  0  0  0  0  0  0  0  0  0
    3.5801    1.1271   -6.6847 O   0  0  0  0  0  0  0  0  0  0  0  0
    1.1853    1.3168   -6.1400 O   0  0  0  0  0  0  0  0  0  0  0  0
    1.6545   -1.0811   -4.2454 F   0  0  0  0  0  0  0  0  0  0  0  0
    3.8106   -1.0252   -4.5546 F   0  0  0  0  0  0  0  0  0  0  0  0
    2.7724    0.7279   -3.7812 F   0  0  0  0  0  0  0  0  0  0  0  0
   -4.1155   -0.3137   -6.2257 O   0  0  0  0  0  0  0  0  0  0  0  0
   -4.8982   -0.3731   -5.0417 C   0  0  0  0  0  0  0  0  0  0  0  0
   -5.8880   -0.7102   -5.3528 H   0  0  0  0  0  0  0  0  0  0  0  0
   -4.9851    0.6118   -4.5653 H   0  0  0  0  0  0  0  0  0  0  0  0
   -4.4838   -1.0883   -4.3190 H   0  0  0  0  0  0  0  0  0  0  0  0
  1  6  1  0  0  0  0
  2  1  2  0  0  0  0
  2  3  1  0  0  0  0
  3 17  1  0  0  0  0
  3  4  2  0  0  0  0
  4  5  1  0  0  0  0
  4  9  1  0  0  0  0
  5 10  1  0  0  0  0
  6  5  2  0  0  0  0
  7  1  1  0  0  0  0
  8  2  1  0  0  0  0
 11 12  3  0  0  0  0
 13 17  1  0  0  0  0
 13 14  1  0  0  0  0
 14 19  1  0  0  0  0
 14 18  1  0  0  0  0
 14 20  1  0  0  0  0
 15 13  2  0  0  0  0
 16 13  2  0  0  0  0
 21  6  1  0  0  0  0
 21 22  1  0  0  0  0
 22 24  1  0  0  0  0
 22 25  1  0  0  0  0
 23 22  1  0  0  0  0
M  END
