Coordinates from ORCA-job p-CH3O-Ph-N2-OTf-B3LYP-6-31G_dp-scan-d09-49-n400
 OpenBabel02121707583D

 25 24  0  0  0  0  0  0  0  0999 V2000
   -1.6364   -0.2724   -6.3584 C   0  0  0  0  0  0  0  0  0  0  0  0
   -0.8045    0.7431   -6.7535 C   0  0  0  0  0  0  0  0  0  0  0  0
   -1.1588    2.1482   -6.4994 C   0  0  0  0  0  0  0  0  0  0  0  0
   -2.3893    2.3733   -5.7414 C   0  0  0  0  0  0  0  0  0  0  0  0
   -3.1755    1.3418   -5.3243 C   0  0  0  0  0  0  0  0  0  0  0  0
   -2.8074   -0.0032   -5.6292 C   0  0  0  0  0  0  0  0  0  0  0  0
   -1.3657   -1.3029   -6.5575 H   0  0  0  0  0  0  0  0  0  0  0  0
    0.1028    0.5808   -7.3259 H   0  0  0  0  0  0  0  0  0  0  0  0
   -2.6454    3.4050   -5.5188 H   0  0  0  0  0  0  0  0  0  0  0  0
   -4.0757    1.5570   -4.7627 H   0  0  0  0  0  0  0  0  0  0  0  0
   -0.5631    2.9097   -6.7925 N   0  0  0  0  0  0  0  0  0  0  0  0
    0.1172    3.7735   -7.1237 N   0  0  0  0  0  0  0  0  0  0  0  0
    2.2641    0.9766   -5.7591 S   0  0  0  0  0  0  0  0  0  0  0  0
    2.5540   -0.8577   -5.8588 C   0  0  0  0  0  0  0  0  0  0  0  0
    2.0945    1.3596   -7.1870 O   0  0  0  0  0  0  0  0  0  0  0  0
    3.4315    1.5103   -5.0525 O   0  0  0  0  0  0  0  0  0  0  0  0
    0.9657    1.0437   -5.0062 O   0  0  0  0  0  0  0  0  0  0  0  0
    1.5136   -1.4562   -6.4974 F   0  0  0  0  0  0  0  0  0  0  0  0
    3.6683   -1.1388   -6.5436 F   0  0  0  0  0  0  0  0  0  0  0  0
    2.6509   -1.4055   -4.6404 F   0  0  0  0  0  0  0  0  0  0  0  0
   -3.5239   -1.0625   -5.2644 O   0  0  0  0  0  0  0  0  0  0  0  0
   -4.7210   -0.9042   -4.4881 C   0  0  0  0  0  0  0  0  0  0  0  0
   -5.0863   -1.9153   -4.3146 H   0  0  0  0  0  0  0  0  0  0  0  0
   -5.4723   -0.3308   -5.0408 H   0  0  0  0  0  0  0  0  0  0  0  0
   -4.5029   -0.4230   -3.5296 H   0  0  0  0  0  0  0  0  0  0  0  0
  1  6  2  0  0  0  0
  2  3  2  0  0  0  0
  2  1  1  0  0  0  0
  3  4  1  0  0  0  0
  4  9  1  0  0  0  0
  4  5  2  0  0  0  0
  5 10  1  0  0  0  0
  6  5  1  0  0  0  0
  6 21  1  0  0  0  0
  7  1  1  0  0  0  0
  8  2  1  0  0  0  0
 11  3  1  0  0  0  0
 12 11  1  0  0  0  0
 13 16  2  0  0  0  0
 13 17  1  0  0  0  0
 14 13  1  0  0  0  0
 14 20  1  0  0  0  0
 15 13  2  0  0  0  0
 18 14  1  0  0  0  0
 19 14  1  0  0  0  0
 21 22  1  0  0  0  0
 22 23  1  0  0  0  0
 22 25  1  0  0  0  0
 24 22  1  0  0  0  0
M  RAD  3  11   2  12   3  17   2
M  END
