Coordinates from ORCA-job p-CH3O-Ph-N2-OTf-B3LYP-6-31G_dp-scan-d09-49-n400
 OpenBabel02121707583D

 25 24  0  0  0  0  0  0  0  0999 V2000
   -1.8541   -0.4569   -6.0608 C   0  0  0  0  0  0  0  0  0  0  0  0
   -0.9118    0.5027   -6.3899 C   0  0  0  0  0  0  0  0  0  0  0  0
   -1.2958    1.8219   -6.1668 C   0  0  0  0  0  0  0  0  0  0  0  0
   -2.5086    2.2526   -5.6576 C   0  0  0  0  0  0  0  0  0  0  0  0
   -3.4360    1.2665   -5.3316 C   0  0  0  0  0  0  0  0  0  0  0  0
   -3.1102   -0.0898   -5.5311 C   0  0  0  0  0  0  0  0  0  0  0  0
   -1.6342   -1.5104   -6.1947 H   0  0  0  0  0  0  0  0  0  0  0  0
    0.0656    0.2627   -6.7887 H   0  0  0  0  0  0  0  0  0  0  0  0
   -2.7231    3.3047   -5.5121 H   0  0  0  0  0  0  0  0  0  0  0  0
   -4.3956    1.5587   -4.9259 H   0  0  0  0  0  0  0  0  0  0  0  0
   -0.2408    2.9290   -6.5295 N   0  0  0  0  0  0  0  0  0  0  0  0
    0.7665    3.2996   -6.8590 N   0  0  0  0  0  0  0  0  0  0  0  0
    2.7194    1.2090   -5.9314 S   0  0  0  0  0  0  0  0  0  0  0  0
    2.9427   -0.6379   -6.0434 C   0  0  0  0  0  0  0  0  0  0  0  0
    2.0427    1.4896   -7.2630 O   0  0  0  0  0  0  0  0  0  0  0  0
    4.0769    1.7420   -5.7996 O   0  0  0  0  0  0  0  0  0  0  0  0
    1.7828    1.4017   -4.8031 O   0  0  0  0  0  0  0  0  0  0  0  0
    1.7474   -1.2490   -6.2374 F   0  0  0  0  0  0  0  0  0  0  0  0
    3.7427   -0.9665   -7.0621 F   0  0  0  0  0  0  0  0  0  0  0  0
    3.4668   -1.1164   -4.9099 F   0  0  0  0  0  0  0  0  0  0  0  0
   -3.9346   -1.1157   -5.2478 O   0  0  0  0  0  0  0  0  0  0  0  0
   -5.2205   -0.8460   -4.6883 C   0  0  0  0  0  0  0  0  0  0  0  0
   -5.6862   -1.8200   -4.5397 H   0  0  0  0  0  0  0  0  0  0  0  0
   -5.8341   -0.2487   -5.3732 H   0  0  0  0  0  0  0  0  0  0  0  0
   -5.1336   -0.3330   -3.7234 H   0  0  0  0  0  0  0  0  0  0  0  0
  1  6  2  0  0  0  0
  2  3  2  0  0  0  0
  2  1  1  0  0  0  0
  3  4  1  0  0  0  0
  4  9  1  0  0  0  0
  4  5  2  0  0  0  0
  5 10  1  0  0  0  0
  6  5  1  0  0  0  0
  6 21  1  0  0  0  0
  7  1  1  0  0  0  0
  8  2  1  0  0  0  0
 11  3  1  0  0  0  0
 12 11  2  0  0  0  0
 13 16  2  0  0  0  0
 13 17  1  0  0  0  0
 14 13  1  0  0  0  0
 14 20  1  0  0  0  0
 15 13  2  0  0  0  0
 18 14  1  0  0  0  0
 19 14  1  0  0  0  0
 21 22  1  0  0  0  0
 22 23  1  0  0  0  0
 22 25  1  0  0  0  0
 24 22  1  0  0  0  0
M  RAD  2  12   2  17   2
M  END
