Coordinates from ORCA-job p-CH3O-Ph-N2-OTf-B3LYP-6-31G_dp-scan-d09-49-n400
 OpenBabel02121707583D

 25 24  0  0  0  0  0  0  0  0999 V2000
   -2.2134    0.1941   -7.3275 C   0  0  0  0  0  0  0  0  0  0  0  0
   -0.9092    0.6643   -7.3585 C   0  0  0  0  0  0  0  0  0  0  0  0
   -0.3102    1.0821   -6.1677 C   0  0  0  0  0  0  0  0  0  0  0  0
   -0.9617    0.9442   -4.9480 C   0  0  0  0  0  0  0  0  0  0  0  0
   -2.2779    0.4807   -4.9156 C   0  0  0  0  0  0  0  0  0  0  0  0
   -2.9126    0.1097   -6.1100 C   0  0  0  0  0  0  0  0  0  0  0  0
   -2.7168   -0.1197   -8.2355 H   0  0  0  0  0  0  0  0  0  0  0  0
   -0.3638    0.7340   -8.2926 H   0  0  0  0  0  0  0  0  0  0  0  0
   -0.4545    1.2360   -4.0348 H   0  0  0  0  0  0  0  0  0  0  0  0
   -2.7885    0.4071   -3.9630 H   0  0  0  0  0  0  0  0  0  0  0  0
   -0.9196    3.3575   -6.4603 N   0  0  0  0  0  0  0  0  0  0  0  0
   -1.9505    3.7619   -6.5029 N   0  0  0  0  0  0  0  0  0  0  0  0
    2.2829    0.5703   -6.4031 S   0  0  0  0  0  0  0  0  0  0  0  0
    2.5093   -0.0967   -4.6672 C   0  0  0  0  0  0  0  0  0  0  0  0
    1.9160   -0.5534   -7.2496 O   0  0  0  0  0  0  0  0  0  0  0  0
    3.4124    1.4373   -6.6742 O   0  0  0  0  0  0  0  0  0  0  0  0
    1.0116    1.5810   -6.1672 O   0  0  0  0  0  0  0  0  0  0  0  0
    1.5207   -0.9415   -4.3721 F   0  0  0  0  0  0  0  0  0  0  0  0
    3.6754   -0.7359   -4.6143 F   0  0  0  0  0  0  0  0  0  0  0  0
    2.5069    0.9108   -3.7938 F   0  0  0  0  0  0  0  0  0  0  0  0
   -4.1885   -0.3517   -6.1971 O   0  0  0  0  0  0  0  0  0  0  0  0
   -4.9480   -0.4757   -5.0025 C   0  0  0  0  0  0  0  0  0  0  0  0
   -5.9250   -0.8538   -5.3062 H   0  0  0  0  0  0  0  0  0  0  0  0
   -5.0742    0.4931   -4.5029 H   0  0  0  0  0  0  0  0  0  0  0  0
   -4.4868   -1.1855   -4.3034 H   0  0  0  0  0  0  0  0  0  0  0  0
  1  6  1  0  0  0  0
  2  1  2  0  0  0  0
  2  3  1  0  0  0  0
  3 17  1  0  0  0  0
  3  4  2  0  0  0  0
  4  5  1  0  0  0  0
  4  9  1  0  0  0  0
  5 10  1  0  0  0  0
  6  5  2  0  0  0  0
  7  1  1  0  0  0  0
  8  2  1  0  0  0  0
 12 11  3  0  0  0  0
 13 17  1  0  0  0  0
 13 14  1  0  0  0  0
 14 19  1  0  0  0  0
 14 18  1  0  0  0  0
 14 20  1  0  0  0  0
 15 13  2  0  0  0  0
 16 13  2  0  0  0  0
 21  6  1  0  0  0  0
 21 22  1  0  0  0  0
 22 24  1  0  0  0  0
 22 25  1  0  0  0  0
 23 22  1  0  0  0  0
M  END
