Coordinates from ORCA-job p-CH3O-Ph-N2-OTf-B3LYP-6-31G_dp-scan-d09-49-n400
 OpenBabel02121707583D

 25 24  0  0  0  0  0  0  0  0999 V2000
   -2.1784    0.1366   -7.3246 C   0  0  0  0  0  0  0  0  0  0  0  0
   -0.8560    0.5586   -7.3399 C   0  0  0  0  0  0  0  0  0  0  0  0
   -0.2410    0.9010   -6.1346 C   0  0  0  0  0  0  0  0  0  0  0  0
   -0.9277    0.8402   -4.9294 C   0  0  0  0  0  0  0  0  0  0  0  0
   -2.2614    0.4239   -4.9141 C   0  0  0  0  0  0  0  0  0  0  0  0
   -2.8905    0.0659   -6.1147 C   0  0  0  0  0  0  0  0  0  0  0  0
   -2.6868   -0.1425   -8.2412 H   0  0  0  0  0  0  0  0  0  0  0  0
   -0.3009    0.6194   -8.2691 H   0  0  0  0  0  0  0  0  0  0  0  0
   -0.4247    1.1229   -4.0109 H   0  0  0  0  0  0  0  0  0  0  0  0
   -2.7910    0.3848   -3.9698 H   0  0  0  0  0  0  0  0  0  0  0  0
   -1.4744    4.3246   -6.5860 N   0  0  0  0  0  0  0  0  0  0  0  0
   -2.5754    4.4187   -6.5590 N   0  0  0  0  0  0  0  0  0  0  0  0
    2.3602    0.4306   -6.3822 S   0  0  0  0  0  0  0  0  0  0  0  0
    2.6516   -0.1796   -4.6371 C   0  0  0  0  0  0  0  0  0  0  0  0
    1.9825   -0.7218   -7.1842 O   0  0  0  0  0  0  0  0  0  0  0  0
    3.4637    1.3094   -6.7160 O   0  0  0  0  0  0  0  0  0  0  0  0
    1.0738    1.4194   -6.1245 O   0  0  0  0  0  0  0  0  0  0  0  0
    1.6377   -0.9604   -4.2577 F   0  0  0  0  0  0  0  0  0  0  0  0
    3.7851   -0.8774   -4.6184 F   0  0  0  0  0  0  0  0  0  0  0  0
    2.7461    0.8580   -3.8071 F   0  0  0  0  0  0  0  0  0  0  0  0
   -4.1801   -0.3565   -6.2166 O   0  0  0  0  0  0  0  0  0  0  0  0
   -4.9555   -0.4565   -5.0306 C   0  0  0  0  0  0  0  0  0  0  0  0
   -5.9380   -0.8125   -5.3434 H   0  0  0  0  0  0  0  0  0  0  0  0
   -5.0647    0.5172   -4.5362 H   0  0  0  0  0  0  0  0  0  0  0  0
   -4.5198   -1.1737   -4.3226 H   0  0  0  0  0  0  0  0  0  0  0  0
  1  6  1  0  0  0  0
  2  1  2  0  0  0  0
  2  3  1  0  0  0  0
  3 17  1  0  0  0  0
  3  4  2  0  0  0  0
  4  5  1  0  0  0  0
  4  9  1  0  0  0  0
  5 10  1  0  0  0  0
  6  5  2  0  0  0  0
  7  1  1  0  0  0  0
  8  2  1  0  0  0  0
 11 12  3  0  0  0  0
 13 17  1  0  0  0  0
 13 14  1  0  0  0  0
 14 19  1  0  0  0  0
 14 18  1  0  0  0  0
 14 20  1  0  0  0  0
 15 13  2  0  0  0  0
 16 13  2  0  0  0  0
 21  6  1  0  0  0  0
 21 22  1  0  0  0  0
 22 24  1  0  0  0  0
 22 25  1  0  0  0  0
 23 22  1  0  0  0  0
M  END
