Coordinates from ORCA-job p-CH3O-Ph-N2-OTf-B3LYP-6-31G_dp-scan-d09-49-n400
 OpenBabel02121707583D

 25 24  0  0  0  0  0  0  0  0999 V2000
   -2.1945    0.1427   -7.3245 C   0  0  0  0  0  0  0  0  0  0  0  0
   -0.8744    0.5719   -7.3399 C   0  0  0  0  0  0  0  0  0  0  0  0
   -0.2612    0.9170   -6.1345 C   0  0  0  0  0  0  0  0  0  0  0  0
   -0.9465    0.8496   -4.9289 C   0  0  0  0  0  0  0  0  0  0  0  0
   -2.2780    0.4264   -4.9136 C   0  0  0  0  0  0  0  0  0  0  0  0
   -2.9060    0.0673   -6.1145 C   0  0  0  0  0  0  0  0  0  0  0  0
   -2.7017   -0.1381   -8.2413 H   0  0  0  0  0  0  0  0  0  0  0  0
   -0.3200    0.6368   -8.2691 H   0  0  0  0  0  0  0  0  0  0  0  0
   -0.4446    1.1336   -4.0102 H   0  0  0  0  0  0  0  0  0  0  0  0
   -2.8070    0.3829   -3.9691 H   0  0  0  0  0  0  0  0  0  0  0  0
   -1.3081    4.1310   -6.5549 N   0  0  0  0  0  0  0  0  0  0  0  0
   -2.3980    4.3151   -6.5428 N   0  0  0  0  0  0  0  0  0  0  0  0
    2.3426    0.4641   -6.3877 S   0  0  0  0  0  0  0  0  0  0  0  0
    2.6435   -0.1470   -4.6447 C   0  0  0  0  0  0  0  0  0  0  0  0
    1.9701   -0.6896   -7.1904 O   0  0  0  0  0  0  0  0  0  0  0  0
    3.4391    1.3507   -6.7236 O   0  0  0  0  0  0  0  0  0  0  0  0
    1.0503    1.4436   -6.1240 O   0  0  0  0  0  0  0  0  0  0  0  0
    1.6335   -0.9310   -4.2615 F   0  0  0  0  0  0  0  0  0  0  0  0
    3.7790   -0.8417   -4.6316 F   0  0  0  0  0  0  0  0  0  0  0  0
    2.7388    0.8900   -3.8140 F   0  0  0  0  0  0  0  0  0  0  0  0
   -4.1936   -0.3610   -6.2165 O   0  0  0  0  0  0  0  0  0  0  0  0
   -4.9684   -0.4653   -5.0305 C   0  0  0  0  0  0  0  0  0  0  0  0
   -5.9496   -0.8248   -5.3436 H   0  0  0  0  0  0  0  0  0  0  0  0
   -5.0813    0.5075   -4.5351 H   0  0  0  0  0  0  0  0  0  0  0  0
   -4.5298   -1.1815   -4.3234 H   0  0  0  0  0  0  0  0  0  0  0  0
  1  6  1  0  0  0  0
  2  1  2  0  0  0  0
  2  3  1  0  0  0  0
  3 17  1  0  0  0  0
  3  4  2  0  0  0  0
  4  5  1  0  0  0  0
  4  9  1  0  0  0  0
  5 10  1  0  0  0  0
  6  5  2  0  0  0  0
  7  1  1  0  0  0  0
  8  2  1  0  0  0  0
 11 12  3  0  0  0  0
 13 17  1  0  0  0  0
 13 14  1  0  0  0  0
 14 19  1  0  0  0  0
 14 18  1  0  0  0  0
 14 20  1  0  0  0  0
 15 13  2  0  0  0  0
 16 13  2  0  0  0  0
 21  6  1  0  0  0  0
 21 22  1  0  0  0  0
 22 24  1  0  0  0  0
 22 25  1  0  0  0  0
 23 22  1  0  0  0  0
M  END
