Coordinates from ORCA-job p-CH3O-Ph-N2-OTf-B3LYP-6-31G_dp-scan-d09-49-n400
 OpenBabel02121707583D

 25 24  0  0  0  0  0  0  0  0999 V2000
   -2.2165    0.1796   -7.3253 C   0  0  0  0  0  0  0  0  0  0  0  0
   -0.9072    0.6380   -7.3515 C   0  0  0  0  0  0  0  0  0  0  0  0
   -0.3017    1.0266   -6.1553 C   0  0  0  0  0  0  0  0  0  0  0  0
   -0.9668    0.9187   -4.9411 C   0  0  0  0  0  0  0  0  0  0  0  0
   -2.2879    0.4666   -4.9142 C   0  0  0  0  0  0  0  0  0  0  0  0
   -2.9194    0.0968   -6.1103 C   0  0  0  0  0  0  0  0  0  0  0  0
   -2.7217   -0.1224   -8.2364 H   0  0  0  0  0  0  0  0  0  0  0  0
   -0.3596    0.7076   -8.2843 H   0  0  0  0  0  0  0  0  0  0  0  0
   -0.4621    1.2105   -4.0265 H   0  0  0  0  0  0  0  0  0  0  0  0
   -2.8054    0.4050   -3.9644 H   0  0  0  0  0  0  0  0  0  0  0  0
   -0.9669    3.4924   -6.4778 N   0  0  0  0  0  0  0  0  0  0  0  0
   -1.9984    3.8923   -6.5128 N   0  0  0  0  0  0  0  0  0  0  0  0
    2.2976    0.5585   -6.4009 S   0  0  0  0  0  0  0  0  0  0  0  0
    2.5489   -0.0993   -4.6656 C   0  0  0  0  0  0  0  0  0  0  0  0
    1.9385   -0.5725   -7.2410 O   0  0  0  0  0  0  0  0  0  0  0  0
    3.4107    1.4423   -6.6856 O   0  0  0  0  0  0  0  0  0  0  0  0
    1.0109    1.5476   -6.1524 O   0  0  0  0  0  0  0  0  0  0  0  0
    1.5565   -0.9321   -4.3484 F   0  0  0  0  0  0  0  0  0  0  0  0
    3.7092   -0.7503   -4.6279 F   0  0  0  0  0  0  0  0  0  0  0  0
    2.5712    0.9136   -3.7994 F   0  0  0  0  0  0  0  0  0  0  0  0
   -4.1987   -0.3557   -6.2021 O   0  0  0  0  0  0  0  0  0  0  0  0
   -4.9627   -0.4746   -5.0101 C   0  0  0  0  0  0  0  0  0  0  0  0
   -5.9402   -0.8496   -5.3164 H   0  0  0  0  0  0  0  0  0  0  0  0
   -5.0873    0.4955   -4.5124 H   0  0  0  0  0  0  0  0  0  0  0  0
   -4.5067   -1.1848   -4.3079 H   0  0  0  0  0  0  0  0  0  0  0  0
  1  6  1  0  0  0  0
  2  1  2  0  0  0  0
  2  3  1  0  0  0  0
  3 17  1  0  0  0  0
  3  4  2  0  0  0  0
  4  5  1  0  0  0  0
  4  9  1  0  0  0  0
  5 10  1  0  0  0  0
  6  5  2  0  0  0  0
  7  1  1  0  0  0  0
  8  2  1  0  0  0  0
 12 11  3  0  0  0  0
 13 17  1  0  0  0  0
 13 14  1  0  0  0  0
 14 19  1  0  0  0  0
 14 18  1  0  0  0  0
 14 20  1  0  0  0  0
 15 13  2  0  0  0  0
 16 13  2  0  0  0  0
 21  6  1  0  0  0  0
 21 22  1  0  0  0  0
 22 24  1  0  0  0  0
 22 25  1  0  0  0  0
 23 22  1  0  0  0  0
M  END
