Coordinates from ORCA-job p-CH3O-Ph-N2-OTf-B3LYP-6-31G_dp-scan-d09-49-n400
 OpenBabel02121707583D

 25 24  0  0  0  0  0  0  0  0999 V2000
   -2.1179    0.1170   -7.3291 C   0  0  0  0  0  0  0  0  0  0  0  0
   -0.7867    0.5102   -7.3443 C   0  0  0  0  0  0  0  0  0  0  0  0
   -0.1686    0.8520   -6.1406 C   0  0  0  0  0  0  0  0  0  0  0  0
   -0.8601    0.8189   -4.9371 C   0  0  0  0  0  0  0  0  0  0  0  0
   -2.2024    0.4314   -4.9221 C   0  0  0  0  0  0  0  0  0  0  0  0
   -2.8352    0.0744   -6.1210 C   0  0  0  0  0  0  0  0  0  0  0  0
   -2.6293   -0.1604   -8.2446 H   0  0  0  0  0  0  0  0  0  0  0  0
   -0.2273    0.5492   -8.2721 H   0  0  0  0  0  0  0  0  0  0  0  0
   -0.3540    1.1005   -4.0199 H   0  0  0  0  0  0  0  0  0  0  0  0
   -2.7361    0.4135   -3.9793 H   0  0  0  0  0  0  0  0  0  0  0  0
   -2.0997    4.8629   -6.6357 N   0  0  0  0  0  0  0  0  0  0  0  0
   -3.1684    4.5941   -6.5497 N   0  0  0  0  0  0  0  0  0  0  0  0
    2.4240    0.3246   -6.3669 S   0  0  0  0  0  0  0  0  0  0  0  0
    2.6801   -0.2822   -4.6149 C   0  0  0  0  0  0  0  0  0  0  0  0
    2.0310   -0.8237   -7.1674 O   0  0  0  0  0  0  0  0  0  0  0  0
    3.5504    1.1774   -6.6915 O   0  0  0  0  0  0  0  0  0  0  0  0
    1.1569    1.3436   -6.1320 O   0  0  0  0  0  0  0  0  0  0  0  0
    1.6531   -1.0522   -4.2498 F   0  0  0  0  0  0  0  0  0  0  0  0
    3.8068   -0.9899   -4.5748 F   0  0  0  0  0  0  0  0  0  0  0  0
    2.7701    0.7576   -3.7868 F   0  0  0  0  0  0  0  0  0  0  0  0
   -4.1332   -0.3215   -6.2230 O   0  0  0  0  0  0  0  0  0  0  0  0
   -4.9145   -0.3927   -5.0388 C   0  0  0  0  0  0  0  0  0  0  0  0
   -5.9028   -0.7327   -5.3514 H   0  0  0  0  0  0  0  0  0  0  0  0
   -5.0060    0.5885   -4.5558 H   0  0  0  0  0  0  0  0  0  0  0  0
   -4.4959   -1.1105   -4.3213 H   0  0  0  0  0  0  0  0  0  0  0  0
  1  6  1  0  0  0  0
  2  1  2  0  0  0  0
  2  3  1  0  0  0  0
  3 17  1  0  0  0  0
  3  4  2  0  0  0  0
  4  5  1  0  0  0  0
  4  9  1  0  0  0  0
  5 10  1  0  0  0  0
  6  5  2  0  0  0  0
  7  1  1  0  0  0  0
  8  2  1  0  0  0  0
 11 12  3  0  0  0  0
 13 17  1  0  0  0  0
 13 14  1  0  0  0  0
 14 19  1  0  0  0  0
 14 18  1  0  0  0  0
 14 20  1  0  0  0  0
 15 13  2  0  0  0  0
 16 13  2  0  0  0  0
 21  6  1  0  0  0  0
 21 22  1  0  0  0  0
 22 24  1  0  0  0  0
 22 25  1  0  0  0  0
 23 22  1  0  0  0  0
M  END
