Coordinates from ORCA-job p-CH3O-Ph-N2-OTf-B3LYP-6-31G_dp-scan-d09-49-n400
 OpenBabel02121707583D

 25 24  0  0  0  0  0  0  0  0999 V2000
   -2.2018    0.1462   -7.3247 C   0  0  0  0  0  0  0  0  0  0  0  0
   -0.8827    0.5785   -7.3400 C   0  0  0  0  0  0  0  0  0  0  0  0
   -0.2702    0.9249   -6.1347 C   0  0  0  0  0  0  0  0  0  0  0  0
   -0.9546    0.8536   -4.9288 C   0  0  0  0  0  0  0  0  0  0  0  0
   -2.2851    0.4275   -4.9135 C   0  0  0  0  0  0  0  0  0  0  0  0
   -2.9129    0.0687   -6.1145 C   0  0  0  0  0  0  0  0  0  0  0  0
   -2.7087   -0.1347   -8.2415 H   0  0  0  0  0  0  0  0  0  0  0  0
   -0.3289    0.6459   -8.2694 H   0  0  0  0  0  0  0  0  0  0  0  0
   -0.4531    1.1381   -4.0101 H   0  0  0  0  0  0  0  0  0  0  0  0
   -2.8137    0.3821   -3.9688 H   0  0  0  0  0  0  0  0  0  0  0  0
   -1.2335    4.0300   -6.5382 N   0  0  0  0  0  0  0  0  0  0  0  0
   -2.3157    4.2554   -6.5333 N   0  0  0  0  0  0  0  0  0  0  0  0
    2.3346    0.4805   -6.3905 S   0  0  0  0  0  0  0  0  0  0  0  0
    2.6396   -0.1311   -4.6482 C   0  0  0  0  0  0  0  0  0  0  0  0
    1.9650   -0.6737   -7.1936 O   0  0  0  0  0  0  0  0  0  0  0  0
    3.4280    1.3709   -6.7269 O   0  0  0  0  0  0  0  0  0  0  0  0
    1.0395    1.4555   -6.1242 O   0  0  0  0  0  0  0  0  0  0  0  0
    1.6316   -0.9171   -4.2639 F   0  0  0  0  0  0  0  0  0  0  0  0
    3.7764   -0.8237   -4.6375 F   0  0  0  0  0  0  0  0  0  0  0  0
    2.7344    0.9056   -3.8172 F   0  0  0  0  0  0  0  0  0  0  0  0
   -4.1999   -0.3611   -6.2168 O   0  0  0  0  0  0  0  0  0  0  0  0
   -4.9746   -0.4669   -5.0308 C   0  0  0  0  0  0  0  0  0  0  0  0
   -5.9555   -0.8270   -5.3441 H   0  0  0  0  0  0  0  0  0  0  0  0
   -5.0883    0.5054   -4.5347 H   0  0  0  0  0  0  0  0  0  0  0  0
   -4.5354   -1.1833   -4.3242 H   0  0  0  0  0  0  0  0  0  0  0  0
  1  6  1  0  0  0  0
  2  1  2  0  0  0  0
  2  3  1  0  0  0  0
  3 17  1  0  0  0  0
  3  4  2  0  0  0  0
  4  5  1  0  0  0  0
  4  9  1  0  0  0  0
  5 10  1  0  0  0  0
  6  5  2  0  0  0  0
  7  1  1  0  0  0  0
  8  2  1  0  0  0  0
 11 12  3  0  0  0  0
 13 17  1  0  0  0  0
 13 14  1  0  0  0  0
 14 19  1  0  0  0  0
 14 18  1  0  0  0  0
 14 20  1  0  0  0  0
 15 13  2  0  0  0  0
 16 13  2  0  0  0  0
 21  6  1  0  0  0  0
 21 22  1  0  0  0  0
 22 24  1  0  0  0  0
 22 25  1  0  0  0  0
 23 22  1  0  0  0  0
M  END
