Coordinates from ORCA-job p-CH3O-Ph-N2-OTf-B3LYP-6-31G_dp-scan-d09-49-n400
 OpenBabel02121707583D

 25 24  0  0  0  0  0  0  0  0999 V2000
   -2.1077    0.1120   -7.3308 C   0  0  0  0  0  0  0  0  0  0  0  0
   -0.7752    0.5008   -7.3466 C   0  0  0  0  0  0  0  0  0  0  0  0
   -0.1569    0.8449   -6.1437 C   0  0  0  0  0  0  0  0  0  0  0  0
   -0.8489    0.8180   -4.9405 C   0  0  0  0  0  0  0  0  0  0  0  0
   -2.1925    0.4348   -4.9248 C   0  0  0  0  0  0  0  0  0  0  0  0
   -2.8257    0.0758   -6.1229 C   0  0  0  0  0  0  0  0  0  0  0  0
   -2.6195   -0.1670   -8.2456 H   0  0  0  0  0  0  0  0  0  0  0  0
   -0.2151    0.5345   -8.2741 H   0  0  0  0  0  0  0  0  0  0  0  0
   -0.3424    1.1009   -4.0239 H   0  0  0  0  0  0  0  0  0  0  0  0
   -2.7268    0.4219   -3.9823 H   0  0  0  0  0  0  0  0  0  0  0  0
   -2.2066    4.9550   -6.6371 N   0  0  0  0  0  0  0  0  0  0  0  0
   -3.2562    4.6220   -6.5409 N   0  0  0  0  0  0  0  0  0  0  0  0
    2.4338    0.3063   -6.3648 S   0  0  0  0  0  0  0  0  0  0  0  0
    2.6820   -0.2982   -4.6107 C   0  0  0  0  0  0  0  0  0  0  0  0
    2.0382   -0.8419   -7.1642 O   0  0  0  0  0  0  0  0  0  0  0  0
    3.5650    1.1535   -6.6877 O   0  0  0  0  0  0  0  0  0  0  0  0
    1.1706    1.3315   -6.1360 O   0  0  0  0  0  0  0  0  0  0  0  0
    1.6526   -1.0664   -4.2485 F   0  0  0  0  0  0  0  0  0  0  0  0
    3.8077   -1.0072   -4.5650 F   0  0  0  0  0  0  0  0  0  0  0  0
    2.7701    0.7428   -3.7839 F   0  0  0  0  0  0  0  0  0  0  0  0
   -4.1249   -0.3165   -6.2243 O   0  0  0  0  0  0  0  0  0  0  0  0
   -4.9064   -0.3835   -5.0400 C   0  0  0  0  0  0  0  0  0  0  0  0
   -5.8951   -0.7233   -5.3516 H   0  0  0  0  0  0  0  0  0  0  0  0
   -4.9969    0.5992   -4.5597 H   0  0  0  0  0  0  0  0  0  0  0  0
   -4.4887   -1.0998   -4.3203 H   0  0  0  0  0  0  0  0  0  0  0  0
  1  6  1  0  0  0  0
  2  1  2  0  0  0  0
  2  3  1  0  0  0  0
  3 17  1  0  0  0  0
  3  4  2  0  0  0  0
  4  5  1  0  0  0  0
  4  9  1  0  0  0  0
  5 10  1  0  0  0  0
  6  5  2  0  0  0  0
  7  1  1  0  0  0  0
  8  2  1  0  0  0  0
 11 12  3  0  0  0  0
 13 17  1  0  0  0  0
 13 14  1  0  0  0  0
 14 19  1  0  0  0  0
 14 18  1  0  0  0  0
 14 20  1  0  0  0  0
 15 13  2  0  0  0  0
 16 13  2  0  0  0  0
 21  6  1  0  0  0  0
 21 22  1  0  0  0  0
 22 24  1  0  0  0  0
 22 25  1  0  0  0  0
 23 22  1  0  0  0  0
M  END
