Coordinates from ORCA-job p-CH3O-Ph-N2-OTf-B3LYP-6-31G_dp-scan-d09-49-n400
 OpenBabel02121707583D

 25 23  0  0  0  0  0  0  0  0999 V2000
   -2.0049   -0.3887   -6.2933 C   0  0  0  0  0  0  0  0  0  0  0  0
   -0.9629    0.5531   -6.4132 C   0  0  0  0  0  0  0  0  0  0  0  0
   -1.3692    1.7021   -5.8749 C   0  0  0  0  0  0  0  0  0  0  0  0
   -2.4581    2.2158   -5.2579 C   0  0  0  0  0  0  0  0  0  0  0  0
   -3.4597    1.2269   -5.1630 C   0  0  0  0  0  0  0  0  0  0  0  0
   -3.2330   -0.0643   -5.6796 C   0  0  0  0  0  0  0  0  0  0  0  0
   -1.8493   -1.3942   -6.6714 H   0  0  0  0  0  0  0  0  0  0  0  0
    0.0511    0.3101   -6.8615 H   0  0  0  0  0  0  0  0  0  0  0  0
   -2.5745    3.2224   -4.8816 H   0  0  0  0  0  0  0  0  0  0  0  0
   -4.3945    1.4978   -4.6880 H   0  0  0  0  0  0  0  0  0  0  0  0
    0.0337    3.3065   -6.0994 N   0  0  0  0  0  0  0  0  0  0  0  0
    0.6090    4.2325   -6.2742 N   0  0  0  0  0  0  0  0  0  0  0  0
    2.5194    0.7982   -6.4747 S   0  0  0  0  0  0  0  0  0  0  0  0
    3.4114   -0.5838   -5.6116 C   0  0  0  0  0  0  0  0  0  0  0  0
    1.5686    0.0577   -7.3844 O   0  0  0  0  0  0  0  0  0  0  0  0
    3.5608    1.5571   -7.1733 O   0  0  0  0  0  0  0  0  0  0  0  0
    1.7991    1.4944   -5.3778 O   0  0  0  0  0  0  0  0  0  0  0  0
    2.5350   -1.3757   -4.9697 F   0  0  0  0  0  0  0  0  0  0  0  0
    4.0915   -1.3300   -6.4910 F   0  0  0  0  0  0  0  0  0  0  0  0
    4.2723   -0.0903   -4.7111 F   0  0  0  0  0  0  0  0  0  0  0  0
   -4.1364   -1.0682   -5.6348 O   0  0  0  0  0  0  0  0  0  0  0  0
   -5.3972   -0.8355   -5.0118 C   0  0  0  0  0  0  0  0  0  0  0  0
   -5.9443   -1.7753   -5.0907 H   0  0  0  0  0  0  0  0  0  0  0  0
   -5.9571   -0.0453   -5.5273 H   0  0  0  0  0  0  0  0  0  0  0  0
   -5.2763   -0.5730   -3.9537 H   0  0  0  0  0  0  0  0  0  0  0  0
  1  6  1  0  0  0  0
  2  1  2  0  0  0  0
  2  3  1  0  0  0  0
  3  4  2  0  0  0  0
  4  5  1  0  0  0  0
  4  9  1  0  0  0  0
  5 10  1  0  0  0  0
  6 21  1  0  0  0  0
  6  5  2  0  0  0  0
  7  1  1  0  0  0  0
  8  2  1  0  0  0  0
 12 11  3  0  0  0  0
 13 14  1  0  0  0  0
 13 17  1  0  0  0  0
 14 18  1  0  0  0  0
 14 20  1  0  0  0  0
 15 13  2  0  0  0  0
 16 13  2  0  0  0  0
 19 14  1  0  0  0  0
 21 22  1  0  0  0  0
 22 25  1  0  0  0  0
 23 22  1  0  0  0  0
 24 22  1  0  0  0  0
M  RAD  2   3   2  17   2
M  END
