Coordinates from ORCA-job p-CH3O-Ph-N2-OTf-B3LYP-6-31G_dp-scan-d09-49-n400
 OpenBabel02121707583D

 25 24  0  0  0  0  0  0  0  0999 V2000
   -1.8433   -0.4363   -6.0936 C   0  0  0  0  0  0  0  0  0  0  0  0
   -0.9103    0.5364   -6.4231 C   0  0  0  0  0  0  0  0  0  0  0  0
   -1.3186    1.8347   -6.1709 C   0  0  0  0  0  0  0  0  0  0  0  0
   -2.5169    2.2659   -5.6455 C   0  0  0  0  0  0  0  0  0  0  0  0
   -3.4317    1.2626   -5.3229 C   0  0  0  0  0  0  0  0  0  0  0  0
   -3.0960   -0.0872   -5.5449 C   0  0  0  0  0  0  0  0  0  0  0  0
   -1.6135   -1.4856   -6.2433 H   0  0  0  0  0  0  0  0  0  0  0  0
    0.0669    0.3163   -6.8353 H   0  0  0  0  0  0  0  0  0  0  0  0
   -2.7349    3.3144   -5.4839 H   0  0  0  0  0  0  0  0  0  0  0  0
   -4.3890    1.5414   -4.9024 H   0  0  0  0  0  0  0  0  0  0  0  0
   -0.2198    3.0081   -6.5507 N   0  0  0  0  0  0  0  0  0  0  0  0
    0.8025    3.3269   -6.8825 N   0  0  0  0  0  0  0  0  0  0  0  0
    2.7124    1.1971   -5.9379 S   0  0  0  0  0  0  0  0  0  0  0  0
    2.8939   -0.6569   -6.0032 C   0  0  0  0  0  0  0  0  0  0  0  0
    2.0243    1.4579   -7.2684 O   0  0  0  0  0  0  0  0  0  0  0  0
    4.0832    1.7025   -5.8405 O   0  0  0  0  0  0  0  0  0  0  0  0
    1.7965    1.4412   -4.8034 O   0  0  0  0  0  0  0  0  0  0  0  0
    1.6843   -1.2461   -6.1755 F   0  0  0  0  0  0  0  0  0  0  0  0
    3.6807   -1.0292   -7.0173 F   0  0  0  0  0  0  0  0  0  0  0  0
    3.4138   -1.1173   -4.8605 F   0  0  0  0  0  0  0  0  0  0  0  0
   -3.9086   -1.1256   -5.2659 O   0  0  0  0  0  0  0  0  0  0  0  0
   -5.1881   -0.8735   -4.6858 C   0  0  0  0  0  0  0  0  0  0  0  0
   -5.6446   -1.8528   -4.5435 H   0  0  0  0  0  0  0  0  0  0  0  0
   -5.8162   -0.2722   -5.3540 H   0  0  0  0  0  0  0  0  0  0  0  0
   -5.0926   -0.3723   -3.7153 H   0  0  0  0  0  0  0  0  0  0  0  0
  1  6  2  0  0  0  0
  2  3  2  0  0  0  0
  2  1  1  0  0  0  0
  3  4  1  0  0  0  0
  4  9  1  0  0  0  0
  4  5  2  0  0  0  0
  5 10  1  0  0  0  0
  6  5  1  0  0  0  0
  6 21  1  0  0  0  0
  7  1  1  0  0  0  0
  8  2  1  0  0  0  0
 11  3  1  0  0  0  0
 12 11  2  0  0  0  0
 13 16  2  0  0  0  0
 13 17  1  0  0  0  0
 14 13  1  0  0  0  0
 14 20  1  0  0  0  0
 15 13  2  0  0  0  0
 18 14  1  0  0  0  0
 19 14  1  0  0  0  0
 21 22  1  0  0  0  0
 22 23  1  0  0  0  0
 22 25  1  0  0  0  0
 24 22  1  0  0  0  0
M  RAD  2  12   2  17   2
M  END
