Coordinates from ORCA-job p-CH3O-Ph-N2-OTf-B3LYP-6-31G_dp-scan-d09-49-n400
 OpenBabel02121707583D

 25 24  0  0  0  0  0  0  0  0999 V2000
   -2.0899    0.0995   -7.3332 C   0  0  0  0  0  0  0  0  0  0  0  0
   -0.7554    0.4815   -7.3497 C   0  0  0  0  0  0  0  0  0  0  0  0
   -0.1369    0.8292   -6.1480 C   0  0  0  0  0  0  0  0  0  0  0  0
   -0.8297    0.8113   -4.9452 C   0  0  0  0  0  0  0  0  0  0  0  0
   -2.1752    0.4349   -4.9289 C   0  0  0  0  0  0  0  0  0  0  0  0
   -2.8091    0.0733   -6.1258 C   0  0  0  0  0  0  0  0  0  0  0  0
   -2.6023   -0.1816   -8.2469 H   0  0  0  0  0  0  0  0  0  0  0  0
   -0.1941    0.5070   -8.2767 H   0  0  0  0  0  0  0  0  0  0  0  0
   -0.3226    1.0960   -4.0295 H   0  0  0  0  0  0  0  0  0  0  0  0
   -2.7107    0.4297   -3.9870 H   0  0  0  0  0  0  0  0  0  0  0  0
   -2.4009    5.1353   -6.6409 N   0  0  0  0  0  0  0  0  0  0  0  0
   -3.4075    4.6923   -6.5298 N   0  0  0  0  0  0  0  0  0  0  0  0
    2.4509    0.2740   -6.3609 S   0  0  0  0  0  0  0  0  0  0  0  0
    2.6888   -0.3249   -4.6034 C   0  0  0  0  0  0  0  0  0  0  0  0
    2.0513   -0.8750   -7.1571 O   0  0  0  0  0  0  0  0  0  0  0  0
    3.5886    1.1128   -6.6829 O   0  0  0  0  0  0  0  0  0  0  0  0
    1.1935    1.3082   -6.1417 O   0  0  0  0  0  0  0  0  0  0  0  0
    1.6560   -1.0895   -4.2437 F   0  0  0  0  0  0  0  0  0  0  0  0
    3.8127   -1.0361   -4.5494 F   0  0  0  0  0  0  0  0  0  0  0  0
    2.7749    0.7189   -3.7797 F   0  0  0  0  0  0  0  0  0  0  0  0
   -4.1103   -0.3124   -6.2264 O   0  0  0  0  0  0  0  0  0  0  0  0
   -4.8938   -0.3676   -5.0427 C   0  0  0  0  0  0  0  0  0  0  0  0
   -5.8841   -0.7031   -5.3537 H   0  0  0  0  0  0  0  0  0  0  0  0
   -4.9787    0.6185   -4.5685 H   0  0  0  0  0  0  0  0  0  0  0  0
   -4.4814   -1.0821   -4.3183 H   0  0  0  0  0  0  0  0  0  0  0  0
  1  6  1  0  0  0  0
  2  1  2  0  0  0  0
  2  3  1  0  0  0  0
  3 17  1  0  0  0  0
  3  4  2  0  0  0  0
  4  5  1  0  0  0  0
  4  9  1  0  0  0  0
  5 10  1  0  0  0  0
  6  5  2  0  0  0  0
  7  1  1  0  0  0  0
  8  2  1  0  0  0  0
 11 12  3  0  0  0  0
 13 17  1  0  0  0  0
 13 14  1  0  0  0  0
 14 19  1  0  0  0  0
 14 18  1  0  0  0  0
 14 20  1  0  0  0  0
 15 13  2  0  0  0  0
 16 13  2  0  0  0  0
 21  6  1  0  0  0  0
 21 22  1  0  0  0  0
 22 24  1  0  0  0  0
 22 25  1  0  0  0  0
 23 22  1  0  0  0  0
M  END
