Coordinates from ORCA-job p-CH3O-Ph-N2-OTf-B3LYP-6-31G_dp-scan-d09-49-n400
 OpenBabel02121707583D

 25 24  0  0  0  0  0  0  0  0999 V2000
   -1.8193   -0.3985   -6.1509 C   0  0  0  0  0  0  0  0  0  0  0  0
   -0.9040    0.5962   -6.4814 C   0  0  0  0  0  0  0  0  0  0  0  0
   -1.3487    1.8607   -6.1813 C   0  0  0  0  0  0  0  0  0  0  0  0
   -2.5237    2.2894   -5.6240 C   0  0  0  0  0  0  0  0  0  0  0  0
   -3.4156    1.2583   -5.3066 C   0  0  0  0  0  0  0  0  0  0  0  0
   -3.0645   -0.0803   -5.5679 C   0  0  0  0  0  0  0  0  0  0  0  0
   -1.5732   -1.4400   -6.3274 H   0  0  0  0  0  0  0  0  0  0  0  0
    0.0734    0.4107   -6.9157 H   0  0  0  0  0  0  0  0  0  0  0  0
   -2.7480    3.3310   -5.4340 H   0  0  0  0  0  0  0  0  0  0  0  0
   -4.3673    1.5141   -4.8593 H   0  0  0  0  0  0  0  0  0  0  0  0
   -0.1898    3.1240   -6.5891 N   0  0  0  0  0  0  0  0  0  0  0  0
    0.8404    3.3908   -6.9295 N   0  0  0  0  0  0  0  0  0  0  0  0
    2.6820    1.1698   -5.9522 S   0  0  0  0  0  0  0  0  0  0  0  0
    2.8046   -0.6901   -5.9365 C   0  0  0  0  0  0  0  0  0  0  0  0
    2.0070    1.4006   -7.2918 O   0  0  0  0  0  0  0  0  0  0  0  0
    4.0689    1.6329   -5.8704 O   0  0  0  0  0  0  0  0  0  0  0  0
    1.7744    1.4885   -4.8289 O   0  0  0  0  0  0  0  0  0  0  0  0
    1.5790   -1.2478   -6.1045 F   0  0  0  0  0  0  0  0  0  0  0  0
    3.5937   -1.1304   -6.9215 F   0  0  0  0  0  0  0  0  0  0  0  0
    3.2919   -1.1198   -4.7675 F   0  0  0  0  0  0  0  0  0  0  0  0
   -3.8561   -1.1382   -5.2956 O   0  0  0  0  0  0  0  0  0  0  0  0
   -5.1227   -0.9176   -4.6769 C   0  0  0  0  0  0  0  0  0  0  0  0
   -5.5621   -1.9063   -4.5450 H   0  0  0  0  0  0  0  0  0  0  0  0
   -5.7770   -0.3106   -5.3144 H   0  0  0  0  0  0  0  0  0  0  0  0
   -5.0088   -0.4371   -3.6978 H   0  0  0  0  0  0  0  0  0  0  0  0
  1  6  2  0  0  0  0
  2  3  2  0  0  0  0
  2  1  1  0  0  0  0
  3  4  1  0  0  0  0
  4  9  1  0  0  0  0
  4  5  2  0  0  0  0
  5 10  1  0  0  0  0
  6  5  1  0  0  0  0
  6 21  1  0  0  0  0
  7  1  1  0  0  0  0
  8  2  1  0  0  0  0
 11  3  1  0  0  0  0
 12 11  2  0  0  0  0
 13 14  1  0  0  0  0
 13 16  2  0  0  0  0
 13 17  1  0  0  0  0
 14 20  1  0  0  0  0
 15 13  2  0  0  0  0
 18 14  1  0  0  0  0
 19 14  1  0  0  0  0
 21 22  1  0  0  0  0
 22 23  1  0  0  0  0
 22 25  1  0  0  0  0
 24 22  1  0  0  0  0
M  RAD  2  12   2  17   2
M  END
