Coordinates from ORCA-job p-CH3O-Ph-N2-OTf-B3LYP-6-31G_dp-scan-d09-49-n400
 OpenBabel02121707583D

 25 24  0  0  0  0  0  0  0  0999 V2000
   -2.1373    0.1244   -7.3272 C   0  0  0  0  0  0  0  0  0  0  0  0
   -0.8088    0.5269   -7.3423 C   0  0  0  0  0  0  0  0  0  0  0  0
   -0.1916    0.8671   -6.1377 C   0  0  0  0  0  0  0  0  0  0  0  0
   -0.8807    0.8226   -4.9334 C   0  0  0  0  0  0  0  0  0  0  0  0
   -2.2203    0.4259   -4.9184 C   0  0  0  0  0  0  0  0  0  0  0  0
   -2.8525    0.0708   -6.1182 C   0  0  0  0  0  0  0  0  0  0  0  0
   -2.6483   -0.1518   -8.2433 H   0  0  0  0  0  0  0  0  0  0  0  0
   -0.2511    0.5741   -8.2707 H   0  0  0  0  0  0  0  0  0  0  0  0
   -0.3752    1.1024   -4.0154 H   0  0  0  0  0  0  0  0  0  0  0  0
   -2.7525    0.3996   -3.9749 H   0  0  0  0  0  0  0  0  0  0  0  0
   -1.8989    4.7040   -6.6296 N   0  0  0  0  0  0  0  0  0  0  0  0
   -2.9924    4.5575   -6.5624 N   0  0  0  0  0  0  0  0  0  0  0  0
    2.4040    0.3569   -6.3710 S   0  0  0  0  0  0  0  0  0  0  0  0
    2.6719   -0.2512   -4.6212 C   0  0  0  0  0  0  0  0  0  0  0  0
    2.0155   -0.7927   -7.1718 O   0  0  0  0  0  0  0  0  0  0  0  0
    3.5233    1.2178   -6.6989 O   0  0  0  0  0  0  0  0  0  0  0  0
    1.1310    1.3664   -6.1284 O   0  0  0  0  0  0  0  0  0  0  0  0
    1.6494   -1.0250   -4.2514 F   0  0  0  0  0  0  0  0  0  0  0  0
    3.8011   -0.9553   -4.5882 F   0  0  0  0  0  0  0  0  0  0  0  0
    2.7632    0.7879   -3.7924 F   0  0  0  0  0  0  0  0  0  0  0  0
   -4.1481   -0.3329   -6.2204 O   0  0  0  0  0  0  0  0  0  0  0  0
   -4.9271   -0.4151   -5.0354 C   0  0  0  0  0  0  0  0  0  0  0  0
   -5.9140   -0.7589   -5.3482 H   0  0  0  0  0  0  0  0  0  0  0  0
   -5.0233    0.5630   -4.5468 H   0  0  0  0  0  0  0  0  0  0  0  0
   -4.5031   -1.1344   -4.3224 H   0  0  0  0  0  0  0  0  0  0  0  0
  1  6  1  0  0  0  0
  2  1  2  0  0  0  0
  2  3  1  0  0  0  0
  3 17  1  0  0  0  0
  3  4  2  0  0  0  0
  4  5  1  0  0  0  0
  4  9  1  0  0  0  0
  5 10  1  0  0  0  0
  6  5  2  0  0  0  0
  7  1  1  0  0  0  0
  8  2  1  0  0  0  0
 11 12  3  0  0  0  0
 13 17  1  0  0  0  0
 13 14  1  0  0  0  0
 14 19  1  0  0  0  0
 14 18  1  0  0  0  0
 14 20  1  0  0  0  0
 15 13  2  0  0  0  0
 16 13  2  0  0  0  0
 21  6  1  0  0  0  0
 21 22  1  0  0  0  0
 22 24  1  0  0  0  0
 22 25  1  0  0  0  0
 23 22  1  0  0  0  0
M  END
