Coordinates from ORCA-job p-CH3O-Ph-N2-OTf-B3LYP-6-31G_dp-scan-d09-49-n400
 OpenBabel02121707583D

 25 24  0  0  0  0  0  0  0  0999 V2000
   -1.7285   -0.3577   -6.2858 C   0  0  0  0  0  0  0  0  0  0  0  0
   -0.8480    0.6269   -6.6505 C   0  0  0  0  0  0  0  0  0  0  0  0
   -1.1661    2.0052   -6.3649 C   0  0  0  0  0  0  0  0  0  0  0  0
   -2.3928    2.3114   -5.6875 C   0  0  0  0  0  0  0  0  0  0  0  0
   -3.2555    1.3097   -5.3206 C   0  0  0  0  0  0  0  0  0  0  0  0
   -2.9290   -0.0408   -5.6132 C   0  0  0  0  0  0  0  0  0  0  0  0
   -1.4995   -1.3992   -6.4813 H   0  0  0  0  0  0  0  0  0  0  0  0
    0.0937    0.4327   -7.1549 H   0  0  0  0  0  0  0  0  0  0  0  0
   -2.6166    3.3495   -5.4621 H   0  0  0  0  0  0  0  0  0  0  0  0
   -4.1740    1.5624   -4.8071 H   0  0  0  0  0  0  0  0  0  0  0  0
   -0.4269    2.8424   -6.6419 N   0  0  0  0  0  0  0  0  0  0  0  0
    0.3172    3.6457   -6.9222 N   0  0  0  0  0  0  0  0  0  0  0  0
    2.4240    1.0830   -5.8736 S   0  0  0  0  0  0  0  0  0  0  0  0
    2.7033   -0.7563   -5.8869 C   0  0  0  0  0  0  0  0  0  0  0  0
    2.0069    1.3488   -7.2854 O   0  0  0  0  0  0  0  0  0  0  0  0
    3.7083    1.6533   -5.4548 O   0  0  0  0  0  0  0  0  0  0  0  0
    1.2846    1.2334   -4.9229 O   0  0  0  0  0  0  0  0  0  0  0  0
    1.5745   -1.3985   -6.2910 F   0  0  0  0  0  0  0  0  0  0  0  0
    3.6859   -1.0966   -6.7295 F   0  0  0  0  0  0  0  0  0  0  0  0
    3.0123   -1.2124   -4.6655 F   0  0  0  0  0  0  0  0  0  0  0  0
   -3.7008   -1.0776   -5.2919 O   0  0  0  0  0  0  0  0  0  0  0  0
   -4.9283   -0.8738   -4.5774 C   0  0  0  0  0  0  0  0  0  0  0  0
   -5.3429   -1.8696   -4.4271 H   0  0  0  0  0  0  0  0  0  0  0  0
   -5.6266   -0.2686   -5.1651 H   0  0  0  0  0  0  0  0  0  0  0  0
   -4.7410   -0.4031   -3.6070 H   0  0  0  0  0  0  0  0  0  0  0  0
  1  6  2  0  0  0  0
  2  3  2  0  0  0  0
  2  1  1  0  0  0  0
  3  4  1  0  0  0  0
  4  9  1  0  0  0  0
  4  5  2  0  0  0  0
  5 10  1  0  0  0  0
  6  5  1  0  0  0  0
  6 21  1  0  0  0  0
  7  1  1  0  0  0  0
  8  2  1  0  0  0  0
 11  3  1  0  0  0  0
 12 11  1  0  0  0  0
 13 16  2  0  0  0  0
 13 17  1  0  0  0  0
 14 13  1  0  0  0  0
 14 20  1  0  0  0  0
 15 13  2  0  0  0  0
 18 14  1  0  0  0  0
 19 14  1  0  0  0  0
 21 22  1  0  0  0  0
 22 23  1  0  0  0  0
 22 25  1  0  0  0  0
 24 22  1  0  0  0  0
M  RAD  3  11   2  12   3  17   2
M  END
