Coordinates from ORCA-job p-CH3O-Ph-N2-OTf-B3LYP-6-31G_dp-scan-d09-49-n400
 OpenBabel02121707583D

 25 24  0  0  0  0  0  0  0  0999 V2000
   -2.1124    0.1142   -7.3300 C   0  0  0  0  0  0  0  0  0  0  0  0
   -0.7806    0.5053   -7.3454 C   0  0  0  0  0  0  0  0  0  0  0  0
   -0.1629    0.8491   -6.1421 C   0  0  0  0  0  0  0  0  0  0  0  0
   -0.8543    0.8186   -4.9386 C   0  0  0  0  0  0  0  0  0  0  0  0
   -2.1973    0.4331   -4.9234 C   0  0  0  0  0  0  0  0  0  0  0  0
   -2.8302    0.0751   -6.1219 C   0  0  0  0  0  0  0  0  0  0  0  0
   -2.6240   -0.1641   -8.2450 H   0  0  0  0  0  0  0  0  0  0  0  0
   -0.2206    0.5412   -8.2729 H   0  0  0  0  0  0  0  0  0  0  0  0
   -0.3481    1.1005   -4.0216 H   0  0  0  0  0  0  0  0  0  0  0  0
   -2.7315    0.4177   -3.9808 H   0  0  0  0  0  0  0  0  0  0  0  0
   -2.1547    4.9090   -6.6365 N   0  0  0  0  0  0  0  0  0  0  0  0
   -3.2140    4.6069   -6.5449 N   0  0  0  0  0  0  0  0  0  0  0  0
    2.4288    0.3155   -6.3659 S   0  0  0  0  0  0  0  0  0  0  0  0
    2.6811   -0.2905   -4.6129 C   0  0  0  0  0  0  0  0  0  0  0  0
    2.0344   -0.8326   -7.1659 O   0  0  0  0  0  0  0  0  0  0  0  0
    3.5577    1.1654   -6.6896 O   0  0  0  0  0  0  0  0  0  0  0  0
    1.1639    1.3376   -6.1338 O   0  0  0  0  0  0  0  0  0  0  0  0
    1.6527   -1.0592   -4.2492 F   0  0  0  0  0  0  0  0  0  0  0  0
    3.8071   -0.9991   -4.5703 F   0  0  0  0  0  0  0  0  0  0  0  0
    2.7706    0.7499   -3.7853 F   0  0  0  0  0  0  0  0  0  0  0  0
   -4.1288   -0.3186   -6.2238 O   0  0  0  0  0  0  0  0  0  0  0  0
   -4.9104   -0.3875   -5.0396 C   0  0  0  0  0  0  0  0  0  0  0  0
   -5.8990   -0.7269   -5.3518 H   0  0  0  0  0  0  0  0  0  0  0  0
   -5.0009    0.5944   -4.5578 H   0  0  0  0  0  0  0  0  0  0  0  0
   -4.4925   -1.1048   -4.3211 H   0  0  0  0  0  0  0  0  0  0  0  0
  1  6  1  0  0  0  0
  2  1  2  0  0  0  0
  2  3  1  0  0  0  0
  3 17  1  0  0  0  0
  3  4  2  0  0  0  0
  4  5  1  0  0  0  0
  4  9  1  0  0  0  0
  5 10  1  0  0  0  0
  6  5  2  0  0  0  0
  7  1  1  0  0  0  0
  8  2  1  0  0  0  0
 11 12  3  0  0  0  0
 13 17  1  0  0  0  0
 13 14  1  0  0  0  0
 14 19  1  0  0  0  0
 14 18  1  0  0  0  0
 14 20  1  0  0  0  0
 15 13  2  0  0  0  0
 16 13  2  0  0  0  0
 21  6  1  0  0  0  0
 21 22  1  0  0  0  0
 22 24  1  0  0  0  0
 22 25  1  0  0  0  0
 23 22  1  0  0  0  0
M  END
