Coordinates from ORCA-job p-CH3O-Ph-N2-OTf-B3LYP-6-31G_dp-scan-d09-49-n400
 OpenBabel02121707583D

 25 23  0  0  0  0  0  0  0  0999 V2000
   -1.8919   -0.4085   -6.3817 C   0  0  0  0  0  0  0  0  0  0  0  0
   -0.8995    0.5520   -6.6060 C   0  0  0  0  0  0  0  0  0  0  0  0
   -1.2636    1.7445   -6.0799 C   0  0  0  0  0  0  0  0  0  0  0  0
   -2.3326    2.2116   -5.3821 C   0  0  0  0  0  0  0  0  0  0  0  0
   -3.2943    1.2045   -5.1818 C   0  0  0  0  0  0  0  0  0  0  0  0
   -3.0753   -0.0945   -5.6792 C   0  0  0  0  0  0  0  0  0  0  0  0
   -1.7468   -1.4225   -6.7387 H   0  0  0  0  0  0  0  0  0  0  0  0
    0.0707    0.3840   -7.1074 H   0  0  0  0  0  0  0  0  0  0  0  0
   -2.4516    3.2212   -5.0137 H   0  0  0  0  0  0  0  0  0  0  0  0
   -4.1956    1.4622   -4.6401 H   0  0  0  0  0  0  0  0  0  0  0  0
    0.0170    3.1501   -6.4251 N   0  0  0  0  0  0  0  0  0  0  0  0
    0.5127    4.1008   -6.6924 N   0  0  0  0  0  0  0  0  0  0  0  0
    2.5463    1.0512   -6.2735 S   0  0  0  0  0  0  0  0  0  0  0  0
    2.8494   -0.6601   -5.6161 C   0  0  0  0  0  0  0  0  0  0  0  0
    1.7983    0.7835   -7.5461 O   0  0  0  0  0  0  0  0  0  0  0  0
    3.8732    1.6520   -6.4353 O   0  0  0  0  0  0  0  0  0  0  0  0
    1.6636    1.6514   -5.2297 O   0  0  0  0  0  0  0  0  0  0  0  0
    1.6735   -1.3142   -5.4855 F   0  0  0  0  0  0  0  0  0  0  0  0
    3.6251   -1.3643   -6.4496 F   0  0  0  0  0  0  0  0  0  0  0  0
    3.4387   -0.6192   -4.4148 F   0  0  0  0  0  0  0  0  0  0  0  0
   -3.9439   -1.1177   -5.5328 O   0  0  0  0  0  0  0  0  0  0  0  0
   -5.1494   -0.9038   -4.8019 C   0  0  0  0  0  0  0  0  0  0  0  0
   -5.6708   -1.8613   -4.8051 H   0  0  0  0  0  0  0  0  0  0  0  0
   -5.7789   -0.1458   -5.2843 H   0  0  0  0  0  0  0  0  0  0  0  0
   -4.9400   -0.6069   -3.7671 H   0  0  0  0  0  0  0  0  0  0  0  0
  1  6  1  0  0  0  0
  2  1  2  0  0  0  0
  2  3  1  0  0  0  0
  3  4  2  0  0  0  0
  4  5  1  0  0  0  0
  4  9  1  0  0  0  0
  5 10  1  0  0  0  0
  6 21  1  0  0  0  0
  6  5  2  0  0  0  0
  7  1  1  0  0  0  0
  8  2  1  0  0  0  0
 12 11  3  0  0  0  0
 13 14  1  0  0  0  0
 13 17  1  0  0  0  0
 14 18  1  0  0  0  0
 14 20  1  0  0  0  0
 15 13  2  0  0  0  0
 16 13  2  0  0  0  0
 19 14  1  0  0  0  0
 21 22  1  0  0  0  0
 22 25  1  0  0  0  0
 23 22  1  0  0  0  0
 24 22  1  0  0  0  0
M  RAD  2   3   2  17   2
M  END
