Coordinates from ORCA-job p-CH3O-Ph-N2-OTf-B3LYP-6-31G_dp-scan-d09-49-n400
 OpenBabel02121707583D

 25 24  0  0  0  0  0  0  0  0999 V2000
   -1.8514   -0.4835   -6.0541 C   0  0  0  0  0  0  0  0  0  0  0  0
   -0.9011    0.4543   -6.3883 C   0  0  0  0  0  0  0  0  0  0  0  0
   -1.2211    1.8207   -6.1958 C   0  0  0  0  0  0  0  0  0  0  0  0
   -2.4605    2.2347   -5.6748 C   0  0  0  0  0  0  0  0  0  0  0  0
   -3.4007    1.2787   -5.3367 C   0  0  0  0  0  0  0  0  0  0  0  0
   -3.1004   -0.0890   -5.5236 C   0  0  0  0  0  0  0  0  0  0  0  0
   -1.6524   -1.5423   -6.1778 H   0  0  0  0  0  0  0  0  0  0  0  0
    0.0691    0.1847   -6.7851 H   0  0  0  0  0  0  0  0  0  0  0  0
   -2.6655    3.2908   -5.5346 H   0  0  0  0  0  0  0  0  0  0  0  0
   -4.3537    1.5911   -4.9303 H   0  0  0  0  0  0  0  0  0  0  0  0
   -0.3018    2.7432   -6.5161 N   0  0  0  0  0  0  0  0  0  0  0  0
    0.6043    3.3237   -6.8386 N   0  0  0  0  0  0  0  0  0  0  0  0
    2.6717    1.2171   -5.9216 S   0  0  0  0  0  0  0  0  0  0  0  0
    2.9754   -0.6136   -6.0809 C   0  0  0  0  0  0  0  0  0  0  0  0
    2.1076    1.5405   -7.2819 O   0  0  0  0  0  0  0  0  0  0  0  0
    3.9890    1.7860   -5.6239 O   0  0  0  0  0  0  0  0  0  0  0  0
    1.6330    1.3119   -4.8651 O   0  0  0  0  0  0  0  0  0  0  0  0
    1.8193   -1.2622   -6.3811 F   0  0  0  0  0  0  0  0  0  0  0  0
    3.8546   -0.8782   -7.0529 F   0  0  0  0  0  0  0  0  0  0  0  0
    3.4377   -1.1226   -4.9325 F   0  0  0  0  0  0  0  0  0  0  0  0
   -3.9399   -1.0901   -5.2285 O   0  0  0  0  0  0  0  0  0  0  0  0
   -5.2243   -0.7989   -4.6679 C   0  0  0  0  0  0  0  0  0  0  0  0
   -5.7003   -1.7665   -4.5127 H   0  0  0  0  0  0  0  0  0  0  0  0
   -5.8283   -0.1992   -5.3579 H   0  0  0  0  0  0  0  0  0  0  0  0
   -5.1261   -0.2810   -3.7076 H   0  0  0  0  0  0  0  0  0  0  0  0
  1  6  2  0  0  0  0
  2  3  2  0  0  0  0
  2  1  1  0  0  0  0
  3  4  1  0  0  0  0
  4  9  1  0  0  0  0
  4  5  2  0  0  0  0
  5 10  1  0  0  0  0
  6  5  1  0  0  0  0
  6 21  1  0  0  0  0
  7  1  1  0  0  0  0
  8  2  1  0  0  0  0
 11  3  1  0  0  0  0
 12 11  1  0  0  0  0
 13 16  2  0  0  0  0
 13 17  1  0  0  0  0
 14 13  1  0  0  0  0
 14 20  1  0  0  0  0
 15 13  2  0  0  0  0
 18 14  1  0  0  0  0
 19 14  1  0  0  0  0
 21 22  1  0  0  0  0
 22 23  1  0  0  0  0
 22 25  1  0  0  0  0
 24 22  1  0  0  0  0
M  RAD  3  11   2  12   3  17   2
M  END
