Coordinates from ORCA-job p-CH3O-Ph-N2-OTf-B3LYP-6-31G_dp-scan-d09-49-n400
 OpenBabel02121707583D

 25 24  0  0  0  0  0  0  0  0999 V2000
   -2.1864    0.1392   -7.3246 C   0  0  0  0  0  0  0  0  0  0  0  0
   -0.8650    0.5645   -7.3398 C   0  0  0  0  0  0  0  0  0  0  0  0
   -0.2509    0.9078   -6.1344 C   0  0  0  0  0  0  0  0  0  0  0  0
   -0.9370    0.8439   -4.9290 C   0  0  0  0  0  0  0  0  0  0  0  0
   -2.2697    0.4245   -4.9138 C   0  0  0  0  0  0  0  0  0  0  0  0
   -2.8982    0.0661   -6.1146 C   0  0  0  0  0  0  0  0  0  0  0  0
   -2.6942   -0.1406   -8.2413 H   0  0  0  0  0  0  0  0  0  0  0  0
   -0.3102    0.6273   -8.2690 H   0  0  0  0  0  0  0  0  0  0  0  0
   -0.4346    1.1271   -4.0104 H   0  0  0  0  0  0  0  0  0  0  0  0
   -2.7991    0.3832   -3.9694 H   0  0  0  0  0  0  0  0  0  0  0  0
   -1.3935    4.2367   -6.5717 N   0  0  0  0  0  0  0  0  0  0  0  0
   -2.4901    4.3746   -6.5519 N   0  0  0  0  0  0  0  0  0  0  0  0
    2.3517    0.4461   -6.3848 S   0  0  0  0  0  0  0  0  0  0  0  0
    2.6485   -0.1637   -4.6405 C   0  0  0  0  0  0  0  0  0  0  0  0
    1.9763   -0.7073   -7.1864 O   0  0  0  0  0  0  0  0  0  0  0  0
    3.4515    1.3287   -6.7205 O   0  0  0  0  0  0  0  0  0  0  0  0
    1.0623    1.4303   -6.1240 O   0  0  0  0  0  0  0  0  0  0  0  0
    1.6365   -0.9455   -4.2583 F   0  0  0  0  0  0  0  0  0  0  0  0
    3.7828   -0.8602   -4.6248 F   0  0  0  0  0  0  0  0  0  0  0  0
    2.7441    0.8741   -3.8108 F   0  0  0  0  0  0  0  0  0  0  0  0
   -4.1870   -0.3590   -6.2167 O   0  0  0  0  0  0  0  0  0  0  0  0
   -4.9620   -0.4615   -5.0307 C   0  0  0  0  0  0  0  0  0  0  0  0
   -5.9438   -0.8192   -5.3437 H   0  0  0  0  0  0  0  0  0  0  0  0
   -5.0730    0.5116   -4.5354 H   0  0  0  0  0  0  0  0  0  0  0  0
   -4.5247   -1.1784   -4.3234 H   0  0  0  0  0  0  0  0  0  0  0  0
  1  6  1  0  0  0  0
  2  1  2  0  0  0  0
  2  3  1  0  0  0  0
  3 17  1  0  0  0  0
  3  4  2  0  0  0  0
  4  5  1  0  0  0  0
  4  9  1  0  0  0  0
  5 10  1  0  0  0  0
  6  5  2  0  0  0  0
  7  1  1  0  0  0  0
  8  2  1  0  0  0  0
 11 12  3  0  0  0  0
 13 17  1  0  0  0  0
 13 14  1  0  0  0  0
 14 19  1  0  0  0  0
 14 18  1  0  0  0  0
 14 20  1  0  0  0  0
 15 13  2  0  0  0  0
 16 13  2  0  0  0  0
 21  6  1  0  0  0  0
 21 22  1  0  0  0  0
 22 24  1  0  0  0  0
 22 25  1  0  0  0  0
 23 22  1  0  0  0  0
M  END
