Coordinates from ORCA-job p-CH3O-Ph-N2-OTf-B3LYP-6-31G_dp-scan-d09-49-n400
 OpenBabel02121707583D

 25 23  0  0  0  0  0  0  0  0999 V2000
   -2.0645   -0.4291   -6.2682 C   0  0  0  0  0  0  0  0  0  0  0  0
   -0.9910    0.4721   -6.3727 C   0  0  0  0  0  0  0  0  0  0  0  0
   -1.3534    1.6561   -5.8546 C   0  0  0  0  0  0  0  0  0  0  0  0
   -2.4474    2.1929   -5.2588 C   0  0  0  0  0  0  0  0  0  0  0  0
   -3.4836    1.2424   -5.1760 C   0  0  0  0  0  0  0  0  0  0  0  0
   -3.2917   -0.0591   -5.6792 C   0  0  0  0  0  0  0  0  0  0  0  0
   -1.9405   -1.4410   -6.6400 H   0  0  0  0  0  0  0  0  0  0  0  0
    0.0058    0.2017   -6.8056 H   0  0  0  0  0  0  0  0  0  0  0  0
   -2.5397    3.2042   -4.8879 H   0  0  0  0  0  0  0  0  0  0  0  0
   -4.4170    1.5473   -4.7196 H   0  0  0  0  0  0  0  0  0  0  0  0
    0.0728    3.1089   -6.0244 N   0  0  0  0  0  0  0  0  0  0  0  0
    0.5888    4.0731   -6.1823 N   0  0  0  0  0  0  0  0  0  0  0  0
    2.4972    0.7595   -6.4701 S   0  0  0  0  0  0  0  0  0  0  0  0
    3.6006   -0.4932   -5.6536 C   0  0  0  0  0  0  0  0  0  0  0  0
    1.6058   -0.0862   -7.3343 O   0  0  0  0  0  0  0  0  0  0  0  0
    3.3976    1.6610   -7.1984 O   0  0  0  0  0  0  0  0  0  0  0  0
    1.7527    1.3600   -5.3258 O   0  0  0  0  0  0  0  0  0  0  0  0
    2.8679   -1.3892   -4.9723 F   0  0  0  0  0  0  0  0  0  0  0  0
    4.3268   -1.1474   -6.5694 F   0  0  0  0  0  0  0  0  0  0  0  0
    4.4343    0.1114   -4.7967 F   0  0  0  0  0  0  0  0  0  0  0  0
   -4.2286   -1.0313   -5.6438 O   0  0  0  0  0  0  0  0  0  0  0  0
   -5.4923   -0.7530   -5.0453 C   0  0  0  0  0  0  0  0  0  0  0  0
   -6.0680   -1.6753   -5.1276 H   0  0  0  0  0  0  0  0  0  0  0  0
   -6.0167    0.0509   -5.5765 H   0  0  0  0  0  0  0  0  0  0  0  0
   -5.3818   -0.4865   -3.9872 H   0  0  0  0  0  0  0  0  0  0  0  0
  1  6  1  0  0  0  0
  2  1  2  0  0  0  0
  2  3  1  0  0  0  0
  3  4  2  0  0  0  0
  4  5  1  0  0  0  0
  4  9  1  0  0  0  0
  5 10  1  0  0  0  0
  6 21  1  0  0  0  0
  6  5  2  0  0  0  0
  7  1  1  0  0  0  0
  8  2  1  0  0  0  0
 12 11  3  0  0  0  0
 13 14  1  0  0  0  0
 13 17  1  0  0  0  0
 14 18  1  0  0  0  0
 14 20  1  0  0  0  0
 15 13  2  0  0  0  0
 16 13  2  0  0  0  0
 19 14  1  0  0  0  0
 21 22  1  0  0  0  0
 22 25  1  0  0  0  0
 23 22  1  0  0  0  0
 24 22  1  0  0  0  0
M  RAD  2   3   2  17   2
M  END
