Coordinates from ORCA-job p-CH3O-Ph-N2-OTf-B3LYP-6-31G_dp-scan-d09-49-n400
 OpenBabel02121707583D

 25 24  0  0  0  0  0  0  0  0999 V2000
   -2.1456    0.1281   -7.3267 C   0  0  0  0  0  0  0  0  0  0  0  0
   -0.8181    0.5336   -7.3418 C   0  0  0  0  0  0  0  0  0  0  0  0
   -0.2004    0.8723   -6.1369 C   0  0  0  0  0  0  0  0  0  0  0  0
   -0.8891    0.8247   -4.9324 C   0  0  0  0  0  0  0  0  0  0  0  0
   -2.2278    0.4248   -4.9173 C   0  0  0  0  0  0  0  0  0  0  0  0
   -2.8599    0.0702   -6.1173 C   0  0  0  0  0  0  0  0  0  0  0  0
   -2.6564   -0.1477   -8.2430 H   0  0  0  0  0  0  0  0  0  0  0  0
   -0.2611    0.5844   -8.2705 H   0  0  0  0  0  0  0  0  0  0  0  0
   -0.3839    1.1046   -4.0142 H   0  0  0  0  0  0  0  0  0  0  0  0
   -2.7592    0.3955   -3.9735 H   0  0  0  0  0  0  0  0  0  0  0  0
   -1.8186    4.6383   -6.6258 N   0  0  0  0  0  0  0  0  0  0  0  0
   -2.9178    4.5387   -6.5660 N   0  0  0  0  0  0  0  0  0  0  0  0
    2.3962    0.3697   -6.3727 S   0  0  0  0  0  0  0  0  0  0  0  0
    2.6683   -0.2385   -4.6236 C   0  0  0  0  0  0  0  0  0  0  0  0
    2.0096   -0.7805   -7.1736 O   0  0  0  0  0  0  0  0  0  0  0  0
    3.5126    1.2339   -6.7018 O   0  0  0  0  0  0  0  0  0  0  0  0
    1.1205    1.3756   -6.1276 O   0  0  0  0  0  0  0  0  0  0  0  0
    1.6478   -1.0142   -4.2523 F   0  0  0  0  0  0  0  0  0  0  0  0
    3.7988   -0.9406   -4.5929 F   0  0  0  0  0  0  0  0  0  0  0  0
    2.7592    0.8005   -3.7946 F   0  0  0  0  0  0  0  0  0  0  0  0
   -4.1544   -0.3370   -6.2193 O   0  0  0  0  0  0  0  0  0  0  0  0
   -4.9321   -0.4243   -5.0338 C   0  0  0  0  0  0  0  0  0  0  0  0
   -5.9181   -0.7706   -5.3465 H   0  0  0  0  0  0  0  0  0  0  0  0
   -5.0311    0.5524   -4.5431 H   0  0  0  0  0  0  0  0  0  0  0  0
   -4.5051   -1.1437   -4.3228 H   0  0  0  0  0  0  0  0  0  0  0  0
  1  6  1  0  0  0  0
  2  1  2  0  0  0  0
  2  3  1  0  0  0  0
  3 17  1  0  0  0  0
  3  4  2  0  0  0  0
  4  5  1  0  0  0  0
  4  9  1  0  0  0  0
  5 10  1  0  0  0  0
  6  5  2  0  0  0  0
  7  1  1  0  0  0  0
  8  2  1  0  0  0  0
 11 12  3  0  0  0  0
 13 17  1  0  0  0  0
 13 14  1  0  0  0  0
 14 19  1  0  0  0  0
 14 18  1  0  0  0  0
 14 20  1  0  0  0  0
 15 13  2  0  0  0  0
 16 13  2  0  0  0  0
 21  6  1  0  0  0  0
 21 22  1  0  0  0  0
 22 24  1  0  0  0  0
 22 25  1  0  0  0  0
 23 22  1  0  0  0  0
M  END
