Coordinates from ORCA-job p-CH3O-Ph-N2-OTf-B3LYP-6-31G_dp-scan-d09-49-n400
 OpenBabel02121707583D

 25 24  0  0  0  0  0  0  0  0999 V2000
   -2.1540    0.1308   -7.3260 C   0  0  0  0  0  0  0  0  0  0  0  0
   -0.8278    0.5407   -7.3412 C   0  0  0  0  0  0  0  0  0  0  0  0
   -0.2111    0.8806   -6.1362 C   0  0  0  0  0  0  0  0  0  0  0  0
   -0.8985    0.8278   -4.9312 C   0  0  0  0  0  0  0  0  0  0  0  0
   -2.2359    0.4235   -4.9160 C   0  0  0  0  0  0  0  0  0  0  0  0
   -2.8675    0.0690   -6.1163 C   0  0  0  0  0  0  0  0  0  0  0  0
   -2.6644   -0.1454   -8.2423 H   0  0  0  0  0  0  0  0  0  0  0  0
   -0.2713    0.5940   -8.2700 H   0  0  0  0  0  0  0  0  0  0  0  0
   -0.3936    1.1073   -4.0128 H   0  0  0  0  0  0  0  0  0  0  0  0
   -2.7667    0.3909   -3.9720 H   0  0  0  0  0  0  0  0  0  0  0  0
   -1.7296    4.5581   -6.6181 N   0  0  0  0  0  0  0  0  0  0  0  0
   -2.8327    4.5095   -6.5668 N   0  0  0  0  0  0  0  0  0  0  0  0
    2.3869    0.3855   -6.3750 S   0  0  0  0  0  0  0  0  0  0  0  0
    2.6637   -0.2237   -4.6270 C   0  0  0  0  0  0  0  0  0  0  0  0
    2.0026   -0.7651   -7.1764 O   0  0  0  0  0  0  0  0  0  0  0  0
    3.5002    1.2534   -6.7049 O   0  0  0  0  0  0  0  0  0  0  0  0
    1.1087    1.3871   -6.1267 O   0  0  0  0  0  0  0  0  0  0  0  0
    1.6452   -1.0013   -4.2541 F   0  0  0  0  0  0  0  0  0  0  0  0
    3.7953   -0.9242   -4.5992 F   0  0  0  0  0  0  0  0  0  0  0  0
    2.7548    0.8147   -3.7974 F   0  0  0  0  0  0  0  0  0  0  0  0
   -4.1608   -0.3417   -6.2184 O   0  0  0  0  0  0  0  0  0  0  0  0
   -4.9379   -0.4324   -5.0327 C   0  0  0  0  0  0  0  0  0  0  0  0
   -5.9233   -0.7805   -5.3456 H   0  0  0  0  0  0  0  0  0  0  0  0
   -5.0390    0.5434   -4.5406 H   0  0  0  0  0  0  0  0  0  0  0  0
   -4.5091   -1.1518   -4.3229 H   0  0  0  0  0  0  0  0  0  0  0  0
  1  6  1  0  0  0  0
  2  1  2  0  0  0  0
  2  3  1  0  0  0  0
  3 17  1  0  0  0  0
  3  4  2  0  0  0  0
  4  5  1  0  0  0  0
  4  9  1  0  0  0  0
  5 10  1  0  0  0  0
  6  5  2  0  0  0  0
  7  1  1  0  0  0  0
  8  2  1  0  0  0  0
 11 12  3  0  0  0  0
 13 17  1  0  0  0  0
 13 14  1  0  0  0  0
 14 19  1  0  0  0  0
 14 18  1  0  0  0  0
 14 20  1  0  0  0  0
 15 13  2  0  0  0  0
 16 13  2  0  0  0  0
 21  6  1  0  0  0  0
 21 22  1  0  0  0  0
 22 24  1  0  0  0  0
 22 25  1  0  0  0  0
 23 22  1  0  0  0  0
M  END
