Coordinates from ORCA-job p-CH3O-Ph-N2-OTf-B3LYP-6-31G_dp-scan-d09-49-n400
 OpenBabel02121707583D

 25 24  0  0  0  0  0  0  0  0999 V2000
   -1.7133   -0.3451   -6.2960 C   0  0  0  0  0  0  0  0  0  0  0  0
   -0.8417    0.6439   -6.6693 C   0  0  0  0  0  0  0  0  0  0  0  0
   -1.1652    2.0260   -6.3901 C   0  0  0  0  0  0  0  0  0  0  0  0
   -2.3935    2.3217   -5.7035 C   0  0  0  0  0  0  0  0  0  0  0  0
   -3.2447    1.3158   -5.3263 C   0  0  0  0  0  0  0  0  0  0  0  0
   -2.9101   -0.0345   -5.6155 C   0  0  0  0  0  0  0  0  0  0  0  0
   -1.4767   -1.3855   -6.4884 H   0  0  0  0  0  0  0  0  0  0  0  0
    0.0965    0.4529   -7.1810 H   0  0  0  0  0  0  0  0  0  0  0  0
   -2.6235    3.3594   -5.4815 H   0  0  0  0  0  0  0  0  0  0  0  0
   -4.1614    1.5637   -4.8071 H   0  0  0  0  0  0  0  0  0  0  0  0
   -0.4461    2.8527   -6.6690 N   0  0  0  0  0  0  0  0  0  0  0  0
    0.2902    3.6647   -6.9535 N   0  0  0  0  0  0  0  0  0  0  0  0
    2.3954    1.0657   -5.8456 S   0  0  0  0  0  0  0  0  0  0  0  0
    2.6810   -0.7723   -5.8887 C   0  0  0  0  0  0  0  0  0  0  0  0
    2.0178    1.3601   -7.2619 O   0  0  0  0  0  0  0  0  0  0  0  0
    3.6634    1.6318   -5.3751 O   0  0  0  0  0  0  0  0  0  0  0  0
    1.2278    1.1901   -4.9241 O   0  0  0  0  0  0  0  0  0  0  0  0
    1.5658   -1.4076   -6.3389 F   0  0  0  0  0  0  0  0  0  0  0  0
    3.6883   -1.0925   -6.7097 F   0  0  0  0  0  0  0  0  0  0  0  0
    2.9557   -1.2535   -4.6689 F   0  0  0  0  0  0  0  0  0  0  0  0
   -3.6719   -1.0745   -5.2832 O   0  0  0  0  0  0  0  0  0  0  0  0
   -4.8946   -0.8770   -4.5584 C   0  0  0  0  0  0  0  0  0  0  0  0
   -5.2995   -1.8754   -4.3993 H   0  0  0  0  0  0  0  0  0  0  0  0
   -5.6032   -0.2807   -5.1428 H   0  0  0  0  0  0  0  0  0  0  0  0
   -4.7022   -0.3999   -3.5922 H   0  0  0  0  0  0  0  0  0  0  0  0
  1  6  2  0  0  0  0
  2  3  2  0  0  0  0
  2  1  1  0  0  0  0
  3  4  1  0  0  0  0
  4  9  1  0  0  0  0
  4  5  2  0  0  0  0
  5 10  1  0  0  0  0
  6  5  1  0  0  0  0
  6 21  1  0  0  0  0
  7  1  1  0  0  0  0
  8  2  1  0  0  0  0
 11  3  1  0  0  0  0
 12 11  1  0  0  0  0
 13 16  2  0  0  0  0
 13 17  1  0  0  0  0
 14 13  1  0  0  0  0
 14 20  1  0  0  0  0
 15 13  2  0  0  0  0
 18 14  1  0  0  0  0
 19 14  1  0  0  0  0
 21 22  1  0  0  0  0
 22 23  1  0  0  0  0
 22 25  1  0  0  0  0
 24 22  1  0  0  0  0
M  RAD  3  11   2  12   3  17   2
M  END
