Coordinates from ORCA-job p-CH3O-Ph-N2-OTf-B3LYP-6-31G_dp-scan-d09-49-n400
 OpenBabel02121707583D

 25 24  0  0  0  0  0  0  0  0999 V2000
   -2.1064    0.1111   -7.3311 C   0  0  0  0  0  0  0  0  0  0  0  0
   -0.7737    0.4994   -7.3469 C   0  0  0  0  0  0  0  0  0  0  0  0
   -0.1553    0.8438   -6.1442 C   0  0  0  0  0  0  0  0  0  0  0  0
   -0.8474    0.8176   -4.9409 C   0  0  0  0  0  0  0  0  0  0  0  0
   -2.1911    0.4350   -4.9252 C   0  0  0  0  0  0  0  0  0  0  0  0
   -2.8244    0.0757   -6.1232 C   0  0  0  0  0  0  0  0  0  0  0  0
   -2.6182   -0.1681   -8.2457 H   0  0  0  0  0  0  0  0  0  0  0  0
   -0.2135    0.5325   -8.2745 H   0  0  0  0  0  0  0  0  0  0  0  0
   -0.3408    1.1008   -4.0245 H   0  0  0  0  0  0  0  0  0  0  0  0
   -2.7255    0.4227   -3.9827 H   0  0  0  0  0  0  0  0  0  0  0  0
   -2.2214    4.9684   -6.6372 N   0  0  0  0  0  0  0  0  0  0  0  0
   -3.2680    4.6266   -6.5398 N   0  0  0  0  0  0  0  0  0  0  0  0
    2.4351    0.3038   -6.3645 S   0  0  0  0  0  0  0  0  0  0  0  0
    2.6823   -0.3003   -4.6101 C   0  0  0  0  0  0  0  0  0  0  0  0
    2.0392   -0.8445   -7.1636 O   0  0  0  0  0  0  0  0  0  0  0  0
    3.5669    1.1502   -6.6872 O   0  0  0  0  0  0  0  0  0  0  0  0
    1.1724    1.3298   -6.1367 O   0  0  0  0  0  0  0  0  0  0  0  0
    1.6527   -1.0683   -4.2483 F   0  0  0  0  0  0  0  0  0  0  0  0
    3.8079   -1.0093   -4.5636 F   0  0  0  0  0  0  0  0  0  0  0  0
    2.7700    0.7410   -3.7835 F   0  0  0  0  0  0  0  0  0  0  0  0
   -4.1238   -0.3161   -6.2244 O   0  0  0  0  0  0  0  0  0  0  0  0
   -4.9054   -0.3823   -5.0401 C   0  0  0  0  0  0  0  0  0  0  0  0
   -5.8942   -0.7218   -5.3517 H   0  0  0  0  0  0  0  0  0  0  0  0
   -4.9955    0.6007   -4.5603 H   0  0  0  0  0  0  0  0  0  0  0  0
   -4.4879   -1.0983   -4.3201 H   0  0  0  0  0  0  0  0  0  0  0  0
  1  6  1  0  0  0  0
  2  1  2  0  0  0  0
  2  3  1  0  0  0  0
  3 17  1  0  0  0  0
  3  4  2  0  0  0  0
  4  5  1  0  0  0  0
  4  9  1  0  0  0  0
  5 10  1  0  0  0  0
  6  5  2  0  0  0  0
  7  1  1  0  0  0  0
  8  2  1  0  0  0  0
 11 12  3  0  0  0  0
 13 17  1  0  0  0  0
 13 14  1  0  0  0  0
 14 19  1  0  0  0  0
 14 18  1  0  0  0  0
 14 20  1  0  0  0  0
 15 13  2  0  0  0  0
 16 13  2  0  0  0  0
 21  6  1  0  0  0  0
 21 22  1  0  0  0  0
 22 24  1  0  0  0  0
 22 25  1  0  0  0  0
 23 22  1  0  0  0  0
M  END
