Coordinates from ORCA-job p-CH3O-Ph-N2-OTf-B3LYP-6-31G_dp-scan-d09-49-n400
 OpenBabel02121707583D

 25 24  0  0  0  0  0  0  0  0999 V2000
   -2.2154    0.1850   -7.3259 C   0  0  0  0  0  0  0  0  0  0  0  0
   -0.9079    0.6479   -7.3540 C   0  0  0  0  0  0  0  0  0  0  0  0
   -0.3047    1.0469   -6.1598 C   0  0  0  0  0  0  0  0  0  0  0  0
   -0.9651    0.9289   -4.9437 C   0  0  0  0  0  0  0  0  0  0  0  0
   -2.2843    0.4725   -4.9147 C   0  0  0  0  0  0  0  0  0  0  0  0
   -2.9169    0.1018   -6.1100 C   0  0  0  0  0  0  0  0  0  0  0  0
   -2.7199   -0.1213   -8.2359 H   0  0  0  0  0  0  0  0  0  0  0  0
   -0.3612    0.7175   -8.2873 H   0  0  0  0  0  0  0  0  0  0  0  0
   -0.4596    1.2212   -4.0296 H   0  0  0  0  0  0  0  0  0  0  0  0
   -2.7995    0.4069   -3.9638 H   0  0  0  0  0  0  0  0  0  0  0  0
   -0.9479    3.4363   -6.4709 N   0  0  0  0  0  0  0  0  0  0  0  0
   -1.9790    3.8383   -6.5090 N   0  0  0  0  0  0  0  0  0  0  0  0
    2.2924    0.5643   -6.4019 S   0  0  0  0  0  0  0  0  0  0  0  0
    2.5337   -0.0985   -4.6668 C   0  0  0  0  0  0  0  0  0  0  0  0
    1.9313   -0.5633   -7.2456 O   0  0  0  0  0  0  0  0  0  0  0  0
    3.4115    1.4426   -6.6800 O   0  0  0  0  0  0  0  0  0  0  0  0
    1.0108    1.5609   -6.1578 O   0  0  0  0  0  0  0  0  0  0  0  0
    1.5427   -0.9364   -4.3592 F   0  0  0  0  0  0  0  0  0  0  0  0
    3.6964   -0.7447   -4.6233 F   0  0  0  0  0  0  0  0  0  0  0  0
    2.5458    0.9117   -3.7969 F   0  0  0  0  0  0  0  0  0  0  0  0
   -4.1950   -0.3542   -6.2000 O   0  0  0  0  0  0  0  0  0  0  0  0
   -4.9573   -0.4745   -5.0071 C   0  0  0  0  0  0  0  0  0  0  0  0
   -5.9346   -0.8508   -5.3123 H   0  0  0  0  0  0  0  0  0  0  0  0
   -5.0826    0.4954   -4.5091 H   0  0  0  0  0  0  0  0  0  0  0  0
   -4.4995   -1.1842   -4.3057 H   0  0  0  0  0  0  0  0  0  0  0  0
  1  6  1  0  0  0  0
  2  1  2  0  0  0  0
  2  3  1  0  0  0  0
  3 17  1  0  0  0  0
  3  4  2  0  0  0  0
  4  5  1  0  0  0  0
  4  9  1  0  0  0  0
  5 10  1  0  0  0  0
  6  5  2  0  0  0  0
  7  1  1  0  0  0  0
  8  2  1  0  0  0  0
 12 11  3  0  0  0  0
 13 17  1  0  0  0  0
 13 14  1  0  0  0  0
 14 19  1  0  0  0  0
 14 18  1  0  0  0  0
 14 20  1  0  0  0  0
 15 13  2  0  0  0  0
 16 13  2  0  0  0  0
 21  6  1  0  0  0  0
 21 22  1  0  0  0  0
 22 24  1  0  0  0  0
 22 25  1  0  0  0  0
 23 22  1  0  0  0  0
M  END
