Coordinates from ORCA-job p-CH3O-Ph-N2-OTf-B3LYP-6-31G_dp-scan-d09-49-n400
 OpenBabel02121707583D

 25 24  0  0  0  0  0  0  0  0999 V2000
   -2.1139    0.1150   -7.3297 C   0  0  0  0  0  0  0  0  0  0  0  0
   -0.7822    0.5068   -7.3451 C   0  0  0  0  0  0  0  0  0  0  0  0
   -0.1646    0.8502   -6.1416 C   0  0  0  0  0  0  0  0  0  0  0  0
   -0.8559    0.8188   -4.9382 C   0  0  0  0  0  0  0  0  0  0  0  0
   -2.1987    0.4327   -4.9230 C   0  0  0  0  0  0  0  0  0  0  0  0
   -2.8315    0.0750   -6.1217 C   0  0  0  0  0  0  0  0  0  0  0  0
   -2.6254   -0.1631   -8.2449 H   0  0  0  0  0  0  0  0  0  0  0  0
   -0.2224    0.5433   -8.2727 H   0  0  0  0  0  0  0  0  0  0  0  0
   -0.3497    1.1005   -4.0211 H   0  0  0  0  0  0  0  0  0  0  0  0
   -2.7328    0.4166   -3.9804 H   0  0  0  0  0  0  0  0  0  0  0  0
   -2.1392    4.8960   -6.6364 N   0  0  0  0  0  0  0  0  0  0  0  0
   -3.2013    4.6033   -6.5464 N   0  0  0  0  0  0  0  0  0  0  0  0
    2.4274    0.3181   -6.3662 S   0  0  0  0  0  0  0  0  0  0  0  0
    2.6807   -0.2882   -4.6135 C   0  0  0  0  0  0  0  0  0  0  0  0
    2.0334   -0.8300   -7.1664 O   0  0  0  0  0  0  0  0  0  0  0  0
    3.5557    1.1688   -6.6901 O   0  0  0  0  0  0  0  0  0  0  0  0
    1.1619    1.3394   -6.1333 O   0  0  0  0  0  0  0  0  0  0  0  0
    1.6526   -1.0573   -4.2495 F   0  0  0  0  0  0  0  0  0  0  0  0
    3.8068   -0.9967   -4.5716 F   0  0  0  0  0  0  0  0  0  0  0  0
    2.7704    0.7519   -3.7857 F   0  0  0  0  0  0  0  0  0  0  0  0
   -4.1300   -0.3193   -6.2236 O   0  0  0  0  0  0  0  0  0  0  0  0
   -4.9114   -0.3890   -5.0393 C   0  0  0  0  0  0  0  0  0  0  0  0
   -5.9000   -0.7287   -5.3516 H   0  0  0  0  0  0  0  0  0  0  0  0
   -5.0023    0.5927   -4.5572 H   0  0  0  0  0  0  0  0  0  0  0  0
   -4.4932   -1.1065   -4.3211 H   0  0  0  0  0  0  0  0  0  0  0  0
  1  6  1  0  0  0  0
  2  1  2  0  0  0  0
  2  3  1  0  0  0  0
  3 17  1  0  0  0  0
  3  4  2  0  0  0  0
  4  5  1  0  0  0  0
  4  9  1  0  0  0  0
  5 10  1  0  0  0  0
  6  5  2  0  0  0  0
  7  1  1  0  0  0  0
  8  2  1  0  0  0  0
 11 12  3  0  0  0  0
 13 17  1  0  0  0  0
 13 14  1  0  0  0  0
 14 19  1  0  0  0  0
 14 18  1  0  0  0  0
 14 20  1  0  0  0  0
 15 13  2  0  0  0  0
 16 13  2  0  0  0  0
 21  6  1  0  0  0  0
 21 22  1  0  0  0  0
 22 24  1  0  0  0  0
 22 25  1  0  0  0  0
 23 22  1  0  0  0  0
M  END
