Coordinates from ORCA-job p-CH3O-Ph-N2-OTf-B3LYP-6-31G_dp-scan-d09-49-n400
 OpenBabel02121707583D

 25 24  0  0  0  0  0  0  0  0999 V2000
   -2.1199    0.1173   -7.3290 C   0  0  0  0  0  0  0  0  0  0  0  0
   -0.7891    0.5120   -7.3440 C   0  0  0  0  0  0  0  0  0  0  0  0
   -0.1716    0.8540   -6.1402 C   0  0  0  0  0  0  0  0  0  0  0  0
   -0.8623    0.8186   -4.9365 C   0  0  0  0  0  0  0  0  0  0  0  0
   -2.2043    0.4298   -4.9215 C   0  0  0  0  0  0  0  0  0  0  0  0
   -2.8370    0.0734   -6.1207 C   0  0  0  0  0  0  0  0  0  0  0  0
   -2.6312   -0.1599   -8.2445 H   0  0  0  0  0  0  0  0  0  0  0  0
   -0.2298    0.5518   -8.2718 H   0  0  0  0  0  0  0  0  0  0  0  0
   -0.3564    1.0995   -4.0190 H   0  0  0  0  0  0  0  0  0  0  0  0
   -2.7379    0.4106   -3.9787 H   0  0  0  0  0  0  0  0  0  0  0  0
   -2.0772    4.8436   -6.6344 N   0  0  0  0  0  0  0  0  0  0  0  0
   -3.1495    4.5886   -6.5506 N   0  0  0  0  0  0  0  0  0  0  0  0
    2.4216    0.3286   -6.3674 S   0  0  0  0  0  0  0  0  0  0  0  0
    2.6797   -0.2782   -4.6156 C   0  0  0  0  0  0  0  0  0  0  0  0
    2.0292   -0.8200   -7.1677 O   0  0  0  0  0  0  0  0  0  0  0  0
    3.5471    1.1824   -6.6928 O   0  0  0  0  0  0  0  0  0  0  0  0
    1.1538    1.3462   -6.1314 O   0  0  0  0  0  0  0  0  0  0  0  0
    1.6532   -1.0485   -4.2495 F   0  0  0  0  0  0  0  0  0  0  0  0
    3.8066   -0.9856   -4.5767 F   0  0  0  0  0  0  0  0  0  0  0  0
    2.7703    0.7617   -3.7877 F   0  0  0  0  0  0  0  0  0  0  0  0
   -4.1347   -0.3231   -6.2229 O   0  0  0  0  0  0  0  0  0  0  0  0
   -4.9163   -0.3941   -5.0388 C   0  0  0  0  0  0  0  0  0  0  0  0
   -5.9049   -0.7330   -5.3516 H   0  0  0  0  0  0  0  0  0  0  0  0
   -5.0068    0.5870   -4.5554 H   0  0  0  0  0  0  0  0  0  0  0  0
   -4.4984   -1.1127   -4.3215 H   0  0  0  0  0  0  0  0  0  0  0  0
  1  6  1  0  0  0  0
  2  1  2  0  0  0  0
  2  3  1  0  0  0  0
  3 17  1  0  0  0  0
  3  4  2  0  0  0  0
  4  5  1  0  0  0  0
  4  9  1  0  0  0  0
  5 10  1  0  0  0  0
  6  5  2  0  0  0  0
  7  1  1  0  0  0  0
  8  2  1  0  0  0  0
 11 12  3  0  0  0  0
 13 17  1  0  0  0  0
 13 14  1  0  0  0  0
 14 19  1  0  0  0  0
 14 18  1  0  0  0  0
 14 20  1  0  0  0  0
 15 13  2  0  0  0  0
 16 13  2  0  0  0  0
 21  6  1  0  0  0  0
 21 22  1  0  0  0  0
 22 24  1  0  0  0  0
 22 25  1  0  0  0  0
 23 22  1  0  0  0  0
M  END
