Coordinates from ORCA-job p-CH3O-Ph-N2-OTf-B3LYP-6-31G_dp-scan-d09-49-n400
 OpenBabel02121707583D

 25 24  0  0  0  0  0  0  0  0999 V2000
   -2.2045    0.1481   -7.3247 C   0  0  0  0  0  0  0  0  0  0  0  0
   -0.8858    0.5815   -7.3402 C   0  0  0  0  0  0  0  0  0  0  0  0
   -0.2736    0.9285   -6.1349 C   0  0  0  0  0  0  0  0  0  0  0  0
   -0.9576    0.8558   -4.9289 C   0  0  0  0  0  0  0  0  0  0  0  0
   -2.2877    0.4286   -4.9135 C   0  0  0  0  0  0  0  0  0  0  0  0
   -2.9154    0.0697   -6.1146 C   0  0  0  0  0  0  0  0  0  0  0  0
   -2.7113   -0.1331   -8.2416 H   0  0  0  0  0  0  0  0  0  0  0  0
   -0.3322    0.6497   -8.2697 H   0  0  0  0  0  0  0  0  0  0  0  0
   -0.4561    1.1404   -4.0102 H   0  0  0  0  0  0  0  0  0  0  0  0
   -2.8160    0.3822   -3.9687 H   0  0  0  0  0  0  0  0  0  0  0  0
   -1.2056    3.9911   -6.5322 N   0  0  0  0  0  0  0  0  0  0  0  0
   -2.2845    4.2320   -6.5301 N   0  0  0  0  0  0  0  0  0  0  0  0
    2.3316    0.4865   -6.3914 S   0  0  0  0  0  0  0  0  0  0  0  0
    2.6375   -0.1255   -4.6495 C   0  0  0  0  0  0  0  0  0  0  0  0
    1.9628   -0.6678   -7.1949 O   0  0  0  0  0  0  0  0  0  0  0  0
    3.4240    1.3781   -6.7278 O   0  0  0  0  0  0  0  0  0  0  0  0
    1.0356    1.4602   -6.1245 O   0  0  0  0  0  0  0  0  0  0  0  0
    1.6306   -0.9128   -4.2653 F   0  0  0  0  0  0  0  0  0  0  0  0
    3.7752   -0.8167   -4.6393 F   0  0  0  0  0  0  0  0  0  0  0  0
    2.7313    0.9110   -3.8181 F   0  0  0  0  0  0  0  0  0  0  0  0
   -4.2022   -0.3610   -6.2167 O   0  0  0  0  0  0  0  0  0  0  0  0
   -4.9766   -0.4678   -5.0307 C   0  0  0  0  0  0  0  0  0  0  0  0
   -5.9573   -0.8285   -5.3440 H   0  0  0  0  0  0  0  0  0  0  0  0
   -5.0909    0.5043   -4.5342 H   0  0  0  0  0  0  0  0  0  0  0  0
   -4.5368   -1.1841   -4.3244 H   0  0  0  0  0  0  0  0  0  0  0  0
  1  6  1  0  0  0  0
  2  1  2  0  0  0  0
  2  3  1  0  0  0  0
  3 17  1  0  0  0  0
  3  4  2  0  0  0  0
  4  5  1  0  0  0  0
  4  9  1  0  0  0  0
  5 10  1  0  0  0  0
  6  5  2  0  0  0  0
  7  1  1  0  0  0  0
  8  2  1  0  0  0  0
 11 12  3  0  0  0  0
 13 17  1  0  0  0  0
 13 14  1  0  0  0  0
 14 19  1  0  0  0  0
 14 18  1  0  0  0  0
 14 20  1  0  0  0  0
 15 13  2  0  0  0  0
 16 13  2  0  0  0  0
 21  6  1  0  0  0  0
 21 22  1  0  0  0  0
 22 24  1  0  0  0  0
 22 25  1  0  0  0  0
 23 22  1  0  0  0  0
M  END
