Coordinates from ORCA-job p-CH3O-Ph-N2-OTf-B3LYP-6-31G_dp-scan-d09-49-n400
 OpenBabel02121707583D

 25 24  0  0  0  0  0  0  0  0999 V2000
   -2.2080    0.1507   -7.3248 C   0  0  0  0  0  0  0  0  0  0  0  0
   -0.8899    0.5858   -7.3406 C   0  0  0  0  0  0  0  0  0  0  0  0
   -0.2780    0.9343   -6.1356 C   0  0  0  0  0  0  0  0  0  0  0  0
   -0.9611    0.8593   -4.9293 C   0  0  0  0  0  0  0  0  0  0  0  0
   -2.2907    0.4304   -4.9135 C   0  0  0  0  0  0  0  0  0  0  0  0
   -2.9185    0.0714   -6.1145 C   0  0  0  0  0  0  0  0  0  0  0  0
   -2.7147   -0.1310   -8.2416 H   0  0  0  0  0  0  0  0  0  0  0  0
   -0.3367    0.6550   -8.2702 H   0  0  0  0  0  0  0  0  0  0  0  0
   -0.4597    1.1443   -4.0106 H   0  0  0  0  0  0  0  0  0  0  0  0
   -2.8186    0.3830   -3.9685 H   0  0  0  0  0  0  0  0  0  0  0  0
   -1.1683    3.9367   -6.5244 N   0  0  0  0  0  0  0  0  0  0  0  0
   -2.2424    4.1984   -6.5262 N   0  0  0  0  0  0  0  0  0  0  0  0
    2.3274    0.4951   -6.3928 S   0  0  0  0  0  0  0  0  0  0  0  0
    2.6333   -0.1184   -4.6513 C   0  0  0  0  0  0  0  0  0  0  0  0
    1.9601   -0.6588   -7.1976 O   0  0  0  0  0  0  0  0  0  0  0  0
    3.4191    1.3880   -6.7278 O   0  0  0  0  0  0  0  0  0  0  0  0
    1.0306    1.4674   -6.1255 O   0  0  0  0  0  0  0  0  0  0  0  0
    1.6277   -0.9083   -4.2688 F   0  0  0  0  0  0  0  0  0  0  0  0
    3.7723   -0.8074   -4.6411 F   0  0  0  0  0  0  0  0  0  0  0  0
    2.7244    0.9173   -3.8185 F   0  0  0  0  0  0  0  0  0  0  0  0
   -4.2048   -0.3606   -6.2163 O   0  0  0  0  0  0  0  0  0  0  0  0
   -4.9786   -0.4691   -5.0300 C   0  0  0  0  0  0  0  0  0  0  0  0
   -5.9590   -0.8307   -5.3431 H   0  0  0  0  0  0  0  0  0  0  0  0
   -5.0938    0.5026   -4.5329 H   0  0  0  0  0  0  0  0  0  0  0  0
   -4.5376   -1.1853   -4.3244 H   0  0  0  0  0  0  0  0  0  0  0  0
  1  6  1  0  0  0  0
  2  1  2  0  0  0  0
  2  3  1  0  0  0  0
  3 17  1  0  0  0  0
  3  4  2  0  0  0  0
  4  5  1  0  0  0  0
  4  9  1  0  0  0  0
  5 10  1  0  0  0  0
  6  5  2  0  0  0  0
  7  1  1  0  0  0  0
  8  2  1  0  0  0  0
 12 11  3  0  0  0  0
 13 17  1  0  0  0  0
 13 14  1  0  0  0  0
 14 19  1  0  0  0  0
 14 18  1  0  0  0  0
 14 20  1  0  0  0  0
 15 13  2  0  0  0  0
 16 13  2  0  0  0  0
 21  6  1  0  0  0  0
 21 22  1  0  0  0  0
 22 24  1  0  0  0  0
 22 25  1  0  0  0  0
 23 22  1  0  0  0  0
M  END
