Coordinates from ORCA-job p-CH3O-Ph-N2-OTf-B3LYP-6-31G_dp-scan-d09-49-n400
 OpenBabel02121707583D

 25 24  0  0  0  0  0  0  0  0999 V2000
   -2.2090    0.1517   -7.3249 C   0  0  0  0  0  0  0  0  0  0  0  0
   -0.8911    0.5873   -7.3408 C   0  0  0  0  0  0  0  0  0  0  0  0
   -0.2793    0.9363   -6.1359 C   0  0  0  0  0  0  0  0  0  0  0  0
   -0.9621    0.8606   -4.9294 C   0  0  0  0  0  0  0  0  0  0  0  0
   -2.2915    0.4311   -4.9135 C   0  0  0  0  0  0  0  0  0  0  0  0
   -2.9193    0.0719   -6.1144 C   0  0  0  0  0  0  0  0  0  0  0  0
   -2.7156   -0.1303   -8.2416 H   0  0  0  0  0  0  0  0  0  0  0  0
   -0.3380    0.6568   -8.2705 H   0  0  0  0  0  0  0  0  0  0  0  0
   -0.4606    1.1457   -4.0109 H   0  0  0  0  0  0  0  0  0  0  0  0
   -2.8191    0.3834   -3.9684 H   0  0  0  0  0  0  0  0  0  0  0  0
   -1.1578    3.9214   -6.5223 N   0  0  0  0  0  0  0  0  0  0  0  0
   -2.2305    4.1890   -6.5252 N   0  0  0  0  0  0  0  0  0  0  0  0
    2.3262    0.4973   -6.3931 S   0  0  0  0  0  0  0  0  0  0  0  0
    2.6318   -0.1166   -4.6518 C   0  0  0  0  0  0  0  0  0  0  0  0
    1.9592   -0.6563   -7.1983 O   0  0  0  0  0  0  0  0  0  0  0  0
    3.4179    1.3904   -6.7277 O   0  0  0  0  0  0  0  0  0  0  0  0
    1.0292    1.4695   -6.1260 O   0  0  0  0  0  0  0  0  0  0  0  0
    1.6265   -0.9071   -4.2698 F   0  0  0  0  0  0  0  0  0  0  0  0
    3.7711   -0.8049   -4.6414 F   0  0  0  0  0  0  0  0  0  0  0  0
    2.7220    0.9189   -3.8186 F   0  0  0  0  0  0  0  0  0  0  0  0
   -4.2054   -0.3606   -6.2162 O   0  0  0  0  0  0  0  0  0  0  0  0
   -4.9790   -0.4697   -5.0297 C   0  0  0  0  0  0  0  0  0  0  0  0
   -5.9592   -0.8317   -5.3427 H   0  0  0  0  0  0  0  0  0  0  0  0
   -5.0945    0.5018   -4.5323 H   0  0  0  0  0  0  0  0  0  0  0  0
   -4.5374   -1.1859   -4.3244 H   0  0  0  0  0  0  0  0  0  0  0  0
  1  6  1  0  0  0  0
  2  1  2  0  0  0  0
  2  3  1  0  0  0  0
  3 17  1  0  0  0  0
  3  4  2  0  0  0  0
  4  5  1  0  0  0  0
  4  9  1  0  0  0  0
  5 10  1  0  0  0  0
  6  5  2  0  0  0  0
  7  1  1  0  0  0  0
  8  2  1  0  0  0  0
 12 11  3  0  0  0  0
 13 17  1  0  0  0  0
 13 14  1  0  0  0  0
 14 19  1  0  0  0  0
 14 18  1  0  0  0  0
 14 20  1  0  0  0  0
 15 13  2  0  0  0  0
 16 13  2  0  0  0  0
 21  6  1  0  0  0  0
 21 22  1  0  0  0  0
 22 24  1  0  0  0  0
 22 25  1  0  0  0  0
 23 22  1  0  0  0  0
M  END
