Coordinates from ORCA-job p-CH3O-Ph-N2-OTf-B3LYP-6-31G_dp-scan-d09-49-n400
 OpenBabel02121707583D

 25 24  0  0  0  0  0  0  0  0999 V2000
   -2.1922    0.1417   -7.3245 C   0  0  0  0  0  0  0  0  0  0  0  0
   -0.8717    0.5697   -7.3398 C   0  0  0  0  0  0  0  0  0  0  0  0
   -0.2582    0.9144   -6.1344 C   0  0  0  0  0  0  0  0  0  0  0  0
   -0.9438    0.8481   -4.9289 C   0  0  0  0  0  0  0  0  0  0  0  0
   -2.2756    0.4259   -4.9137 C   0  0  0  0  0  0  0  0  0  0  0  0
   -2.9038    0.0669   -6.1145 C   0  0  0  0  0  0  0  0  0  0  0  0
   -2.6995   -0.1389   -8.2412 H   0  0  0  0  0  0  0  0  0  0  0  0
   -0.3172    0.6340   -8.2691 H   0  0  0  0  0  0  0  0  0  0  0  0
   -0.4418    1.1319   -4.0103 H   0  0  0  0  0  0  0  0  0  0  0  0
   -2.8047    0.3831   -3.9691 H   0  0  0  0  0  0  0  0  0  0  0  0
   -1.3321    4.1615   -6.5599 N   0  0  0  0  0  0  0  0  0  0  0  0
   -2.4241    4.3326   -6.5457 N   0  0  0  0  0  0  0  0  0  0  0  0
    2.3452    0.4590   -6.3869 S   0  0  0  0  0  0  0  0  0  0  0  0
    2.6448   -0.1519   -4.6435 C   0  0  0  0  0  0  0  0  0  0  0  0
    1.9719   -0.6945   -7.1894 O   0  0  0  0  0  0  0  0  0  0  0  0
    3.4427    1.3446   -6.7225 O   0  0  0  0  0  0  0  0  0  0  0  0
    1.0537    1.4399   -6.1240 O   0  0  0  0  0  0  0  0  0  0  0  0
    1.6342   -0.9354   -4.2609 F   0  0  0  0  0  0  0  0  0  0  0  0
    3.7800   -0.8470   -4.6297 F   0  0  0  0  0  0  0  0  0  0  0  0
    2.7401    0.8852   -3.8130 F   0  0  0  0  0  0  0  0  0  0  0  0
   -4.1917   -0.3605   -6.2165 O   0  0  0  0  0  0  0  0  0  0  0  0
   -4.9665   -0.4644   -5.0305 C   0  0  0  0  0  0  0  0  0  0  0  0
   -5.9479   -0.8234   -5.3435 H   0  0  0  0  0  0  0  0  0  0  0  0
   -5.0790    0.5085   -4.5351 H   0  0  0  0  0  0  0  0  0  0  0  0
   -4.5283   -1.1807   -4.3233 H   0  0  0  0  0  0  0  0  0  0  0  0
  1  6  1  0  0  0  0
  2  1  2  0  0  0  0
  2  3  1  0  0  0  0
  3 17  1  0  0  0  0
  3  4  2  0  0  0  0
  4  5  1  0  0  0  0
  4  9  1  0  0  0  0
  5 10  1  0  0  0  0
  6  5  2  0  0  0  0
  7  1  1  0  0  0  0
  8  2  1  0  0  0  0
 11 12  3  0  0  0  0
 13 17  1  0  0  0  0
 13 14  1  0  0  0  0
 14 19  1  0  0  0  0
 14 18  1  0  0  0  0
 14 20  1  0  0  0  0
 15 13  2  0  0  0  0
 16 13  2  0  0  0  0
 21  6  1  0  0  0  0
 21 22  1  0  0  0  0
 22 24  1  0  0  0  0
 22 25  1  0  0  0  0
 23 22  1  0  0  0  0
M  END
