Coordinates from ORCA-job p-CH3O-Ph-N2-OTf-B3LYP-6-31G_dp-scan-d09-49-n400
 OpenBabel02121707583D

 25 24  0  0  0  0  0  0  0  0999 V2000
   -2.1149    0.1157   -7.3295 C   0  0  0  0  0  0  0  0  0  0  0  0
   -0.7833    0.5075   -7.3449 C   0  0  0  0  0  0  0  0  0  0  0  0
   -0.1652    0.8501   -6.1414 C   0  0  0  0  0  0  0  0  0  0  0  0
   -0.8568    0.8188   -4.9380 C   0  0  0  0  0  0  0  0  0  0  0  0
   -2.1995    0.4326   -4.9228 C   0  0  0  0  0  0  0  0  0  0  0  0
   -2.8324    0.0750   -6.1215 C   0  0  0  0  0  0  0  0  0  0  0  0
   -2.6264   -0.1622   -8.2448 H   0  0  0  0  0  0  0  0  0  0  0  0
   -0.2236    0.5449   -8.2726 H   0  0  0  0  0  0  0  0  0  0  0  0
   -0.3507    1.1008   -4.0209 H   0  0  0  0  0  0  0  0  0  0  0  0
   -2.7335    0.4163   -3.9801 H   0  0  0  0  0  0  0  0  0  0  0  0
   -2.1308    4.8890   -6.6366 N   0  0  0  0  0  0  0  0  0  0  0  0
   -3.1943    4.6014   -6.5474 N   0  0  0  0  0  0  0  0  0  0  0  0
    2.4269    0.3195   -6.3663 S   0  0  0  0  0  0  0  0  0  0  0  0
    2.6806   -0.2871   -4.6138 C   0  0  0  0  0  0  0  0  0  0  0  0
    2.0332   -0.8286   -7.1668 O   0  0  0  0  0  0  0  0  0  0  0  0
    3.5547    1.1707   -6.6901 O   0  0  0  0  0  0  0  0  0  0  0  0
    1.1609    1.3402   -6.1330 O   0  0  0  0  0  0  0  0  0  0  0  0
    1.6528   -1.0567   -4.2498 F   0  0  0  0  0  0  0  0  0  0  0  0
    3.8070   -0.9952   -4.5722 F   0  0  0  0  0  0  0  0  0  0  0  0
    2.7701    0.7529   -3.7858 F   0  0  0  0  0  0  0  0  0  0  0  0
   -4.1308   -0.3197   -6.2234 O   0  0  0  0  0  0  0  0  0  0  0  0
   -4.9121   -0.3900   -5.0391 C   0  0  0  0  0  0  0  0  0  0  0  0
   -5.9006   -0.7299   -5.3514 H   0  0  0  0  0  0  0  0  0  0  0  0
   -5.0034    0.5916   -4.5568 H   0  0  0  0  0  0  0  0  0  0  0  0
   -4.4936   -1.1074   -4.3211 H   0  0  0  0  0  0  0  0  0  0  0  0
  1  6  1  0  0  0  0
  2  1  2  0  0  0  0
  2  3  1  0  0  0  0
  3 17  1  0  0  0  0
  3  4  2  0  0  0  0
  4  5  1  0  0  0  0
  4  9  1  0  0  0  0
  5 10  1  0  0  0  0
  6  5  2  0  0  0  0
  7  1  1  0  0  0  0
  8  2  1  0  0  0  0
 11 12  3  0  0  0  0
 13 17  1  0  0  0  0
 13 14  1  0  0  0  0
 14 19  1  0  0  0  0
 14 18  1  0  0  0  0
 14 20  1  0  0  0  0
 15 13  2  0  0  0  0
 16 13  2  0  0  0  0
 21  6  1  0  0  0  0
 21 22  1  0  0  0  0
 22 24  1  0  0  0  0
 22 25  1  0  0  0  0
 23 22  1  0  0  0  0
M  END
