Coordinates from ORCA-job p-CH3O-Ph-N2-OTf-B3LYP-6-31G_dp-scan-d09-49-n400
 OpenBabel02121707583D

 25 24  0  0  0  0  0  0  0  0999 V2000
   -1.8611   -0.4796   -6.0318 C   0  0  0  0  0  0  0  0  0  0  0  0
   -0.9098    0.4653   -6.3624 C   0  0  0  0  0  0  0  0  0  0  0  0
   -1.2644    1.8076   -6.1683 C   0  0  0  0  0  0  0  0  0  0  0  0
   -2.4916    2.2381   -5.6696 C   0  0  0  0  0  0  0  0  0  0  0  0
   -3.4310    1.2710   -5.3383 C   0  0  0  0  0  0  0  0  0  0  0  0
   -3.1182   -0.0925   -5.5172 C   0  0  0  0  0  0  0  0  0  0  0  0
   -1.6527   -1.5372   -6.1502 H   0  0  0  0  0  0  0  0  0  0  0  0
    0.0668    0.2041   -6.7486 H   0  0  0  0  0  0  0  0  0  0  0  0
   -2.7009    3.2938   -5.5381 H   0  0  0  0  0  0  0  0  0  0  0  0
   -4.3908    1.5779   -4.9440 H   0  0  0  0  0  0  0  0  0  0  0  0
   -0.2637    2.8295   -6.5142 N   0  0  0  0  0  0  0  0  0  0  0  0
    0.7026    3.2953   -6.8453 N   0  0  0  0  0  0  0  0  0  0  0  0
    2.7141    1.2199   -5.9265 S   0  0  0  0  0  0  0  0  0  0  0  0
    2.9830   -0.6169   -6.0846 C   0  0  0  0  0  0  0  0  0  0  0  0
    2.0883    1.5326   -7.2702 O   0  0  0  0  0  0  0  0  0  0  0  0
    4.0525    1.7745   -5.7113 O   0  0  0  0  0  0  0  0  0  0  0  0
    1.7276    1.3505   -4.8293 O   0  0  0  0  0  0  0  0  0  0  0  0
    1.8076   -1.2491   -6.3332 F   0  0  0  0  0  0  0  0  0  0  0  0
    3.8198   -0.8991   -7.0877 F   0  0  0  0  0  0  0  0  0  0  0  0
    3.4833   -1.1200   -4.9505 F   0  0  0  0  0  0  0  0  0  0  0  0
   -3.9549   -1.1033   -5.2277 O   0  0  0  0  0  0  0  0  0  0  0  0
   -5.2449   -0.8154   -4.6841 C   0  0  0  0  0  0  0  0  0  0  0  0
   -5.7199   -1.7837   -4.5289 H   0  0  0  0  0  0  0  0  0  0  0  0
   -5.8453   -0.2213   -5.3828 H   0  0  0  0  0  0  0  0  0  0  0  0
   -5.1620   -0.2918   -3.7249 H   0  0  0  0  0  0  0  0  0  0  0  0
  1  6  2  0  0  0  0
  2  3  2  0  0  0  0
  2  1  1  0  0  0  0
  3  4  1  0  0  0  0
  4  9  1  0  0  0  0
  4  5  2  0  0  0  0
  5 10  1  0  0  0  0
  6  5  1  0  0  0  0
  6 21  1  0  0  0  0
  7  1  1  0  0  0  0
  8  2  1  0  0  0  0
 11  3  1  0  0  0  0
 12 11  1  0  0  0  0
 13 16  2  0  0  0  0
 13 17  1  0  0  0  0
 14 13  1  0  0  0  0
 14 20  1  0  0  0  0
 15 13  2  0  0  0  0
 18 14  1  0  0  0  0
 19 14  1  0  0  0  0
 21 22  1  0  0  0  0
 22 23  1  0  0  0  0
 22 25  1  0  0  0  0
 24 22  1  0  0  0  0
M  RAD  3  11   2  12   3  17   2
M  END
