Coordinates from ORCA-job p-CH3O-Ph-N2-OTf-B3LYP-6-31G_dp-scan-d09-49-n400
 OpenBabel02121707583D

 25 24  0  0  0  0  0  0  0  0999 V2000
   -2.0933    0.1021   -7.3329 C   0  0  0  0  0  0  0  0  0  0  0  0
   -0.7592    0.4852   -7.3492 C   0  0  0  0  0  0  0  0  0  0  0  0
   -0.1403    0.8317   -6.1473 C   0  0  0  0  0  0  0  0  0  0  0  0
   -0.8332    0.8126   -4.9445 C   0  0  0  0  0  0  0  0  0  0  0  0
   -2.1784    0.4352   -4.9282 C   0  0  0  0  0  0  0  0  0  0  0  0
   -2.8123    0.0740   -6.1253 C   0  0  0  0  0  0  0  0  0  0  0  0
   -2.6056   -0.1785   -8.2468 H   0  0  0  0  0  0  0  0  0  0  0  0
   -0.1981    0.5124   -8.2765 H   0  0  0  0  0  0  0  0  0  0  0  0
   -0.3262    1.0973   -4.0287 H   0  0  0  0  0  0  0  0  0  0  0  0
   -2.7136    0.4287   -3.9861 H   0  0  0  0  0  0  0  0  0  0  0  0
   -2.3648    5.1017   -6.6400 N   0  0  0  0  0  0  0  0  0  0  0  0
   -3.3803    4.6786   -6.5315 N   0  0  0  0  0  0  0  0  0  0  0  0
    2.4480    0.2797   -6.3616 S   0  0  0  0  0  0  0  0  0  0  0  0
    2.6875   -0.3201   -4.6046 C   0  0  0  0  0  0  0  0  0  0  0  0
    2.0492   -0.8692   -7.1583 O   0  0  0  0  0  0  0  0  0  0  0  0
    3.5846    1.1200   -6.6837 O   0  0  0  0  0  0  0  0  0  0  0  0
    1.1895    1.3123   -6.1409 O   0  0  0  0  0  0  0  0  0  0  0  0
    1.6555   -1.0855   -4.2447 F   0  0  0  0  0  0  0  0  0  0  0  0
    3.8120   -1.0305   -4.5519 F   0  0  0  0  0  0  0  0  0  0  0  0
    2.7735    0.7234   -3.7804 F   0  0  0  0  0  0  0  0  0  0  0  0
   -4.1131   -0.3130   -6.2260 O   0  0  0  0  0  0  0  0  0  0  0  0
   -4.8961   -0.3705   -5.0421 C   0  0  0  0  0  0  0  0  0  0  0  0
   -5.8861   -0.7070   -5.3532 H   0  0  0  0  0  0  0  0  0  0  0  0
   -4.9822    0.6149   -4.5668 H   0  0  0  0  0  0  0  0  0  0  0  0
   -4.4826   -1.0853   -4.3186 H   0  0  0  0  0  0  0  0  0  0  0  0
  1  6  1  0  0  0  0
  2  1  2  0  0  0  0
  2  3  1  0  0  0  0
  3 17  1  0  0  0  0
  3  4  2  0  0  0  0
  4  5  1  0  0  0  0
  4  9  1  0  0  0  0
  5 10  1  0  0  0  0
  6  5  2  0  0  0  0
  7  1  1  0  0  0  0
  8  2  1  0  0  0  0
 11 12  3  0  0  0  0
 13 17  1  0  0  0  0
 13 14  1  0  0  0  0
 14 19  1  0  0  0  0
 14 18  1  0  0  0  0
 14 20  1  0  0  0  0
 15 13  2  0  0  0  0
 16 13  2  0  0  0  0
 21  6  1  0  0  0  0
 21 22  1  0  0  0  0
 22 24  1  0  0  0  0
 22 25  1  0  0  0  0
 23 22  1  0  0  0  0
M  END
