Coordinates from ORCA-job p-CH3O-Ph-N2-OTf-B3LYP-6-31G_dp-scan-d09-49-n400
 OpenBabel02121707583D

 25 24  0  0  0  0  0  0  0  0999 V2000
   -2.2149    0.1590   -7.3252 C   0  0  0  0  0  0  0  0  0  0  0  0
   -0.8991    0.6003   -7.3433 C   0  0  0  0  0  0  0  0  0  0  0  0
   -0.2882    0.9564   -6.1400 C   0  0  0  0  0  0  0  0  0  0  0  0
   -0.9676    0.8745   -4.9321 C   0  0  0  0  0  0  0  0  0  0  0  0
   -2.2950    0.4394   -4.9138 C   0  0  0  0  0  0  0  0  0  0  0  0
   -2.9233    0.0776   -6.1137 C   0  0  0  0  0  0  0  0  0  0  0  0
   -2.7214   -0.1268   -8.2408 H   0  0  0  0  0  0  0  0  0  0  0  0
   -0.3475    0.6709   -8.2738 H   0  0  0  0  0  0  0  0  0  0  0  0
   -0.4657    1.1616   -4.0144 H   0  0  0  0  0  0  0  0  0  0  0  0
   -2.8206    0.3886   -3.9678 H   0  0  0  0  0  0  0  0  0  0  0  0
   -1.0798    3.7904   -6.5058 N   0  0  0  0  0  0  0  0  0  0  0  0
   -2.1402    4.1036   -6.5174 N   0  0  0  0  0  0  0  0  0  0  0  0
    2.3168    0.5173   -6.3961 S   0  0  0  0  0  0  0  0  0  0  0  0
    2.6135   -0.1053   -4.6561 C   0  0  0  0  0  0  0  0  0  0  0  0
    1.9532   -0.6325   -7.2084 O   0  0  0  0  0  0  0  0  0  0  0  0
    3.4109    1.4110   -6.7209 O   0  0  0  0  0  0  0  0  0  0  0  0
    1.0198    1.4899   -6.1318 O   0  0  0  0  0  0  0  0  0  0  0  0
    1.6117   -0.9059   -4.2865 F   0  0  0  0  0  0  0  0  0  0  0  0
    3.7581   -0.7846   -4.6412 F   0  0  0  0  0  0  0  0  0  0  0  0
    2.6892    0.9259   -3.8158 F   0  0  0  0  0  0  0  0  0  0  0  0
   -4.2078   -0.3601   -6.2133 O   0  0  0  0  0  0  0  0  0  0  0  0
   -4.9789   -0.4728   -5.0256 C   0  0  0  0  0  0  0  0  0  0  0  0
   -5.9582   -0.8387   -5.3372 H   0  0  0  0  0  0  0  0  0  0  0  0
   -5.0976    0.4980   -4.5277 H   0  0  0  0  0  0  0  0  0  0  0  0
   -4.5332   -1.1875   -4.3214 H   0  0  0  0  0  0  0  0  0  0  0  0
  1  6  1  0  0  0  0
  2  1  2  0  0  0  0
  2  3  1  0  0  0  0
  3 17  1  0  0  0  0
  3  4  2  0  0  0  0
  4  5  1  0  0  0  0
  4  9  1  0  0  0  0
  5 10  1  0  0  0  0
  6  5  2  0  0  0  0
  7  1  1  0  0  0  0
  8  2  1  0  0  0  0
 12 11  3  0  0  0  0
 13 17  1  0  0  0  0
 13 14  1  0  0  0  0
 14 19  1  0  0  0  0
 14 18  1  0  0  0  0
 14 20  1  0  0  0  0
 15 13  2  0  0  0  0
 16 13  2  0  0  0  0
 21  6  1  0  0  0  0
 21 22  1  0  0  0  0
 22 24  1  0  0  0  0
 22 25  1  0  0  0  0
 23 22  1  0  0  0  0
M  END
