Coordinates from ORCA-job p-CH3O-Ph-N2-OTf-B3LYP-6-31G_dp-scan-d09-49-n400
 OpenBabel02121707583D

 25 24  0  0  0  0  0  0  0  0999 V2000
   -2.2181    0.1751   -7.3253 C   0  0  0  0  0  0  0  0  0  0  0  0
   -0.9065    0.6276   -7.3486 C   0  0  0  0  0  0  0  0  0  0  0  0
   -0.2989    1.0038   -6.1497 C   0  0  0  0  0  0  0  0  0  0  0  0
   -0.9689    0.9043   -4.9376 C   0  0  0  0  0  0  0  0  0  0  0  0
   -2.2922    0.4581   -4.9138 C   0  0  0  0  0  0  0  0  0  0  0  0
   -2.9227    0.0919   -6.1114 C   0  0  0  0  0  0  0  0  0  0  0  0
   -2.7240   -0.1205   -8.2381 H   0  0  0  0  0  0  0  0  0  0  0  0
   -0.3576    0.6985   -8.2805 H   0  0  0  0  0  0  0  0  0  0  0  0
   -0.4648    1.1940   -4.0219 H   0  0  0  0  0  0  0  0  0  0  0  0
   -2.8125    0.3997   -3.9653 H   0  0  0  0  0  0  0  0  0  0  0  0
   -0.9896    3.5657   -6.4845 N   0  0  0  0  0  0  0  0  0  0  0  0
   -2.0290    3.9438   -6.5140 N   0  0  0  0  0  0  0  0  0  0  0  0
    2.3029    0.5485   -6.3998 S   0  0  0  0  0  0  0  0  0  0  0  0
    2.5712   -0.0977   -4.6631 C   0  0  0  0  0  0  0  0  0  0  0  0
    1.9432   -0.5891   -7.2308 O   0  0  0  0  0  0  0  0  0  0  0  0
    3.4083    1.4374   -6.6983 O   0  0  0  0  0  0  0  0  0  0  0  0
    1.0115    1.5300   -6.1448 O   0  0  0  0  0  0  0  0  0  0  0  0
    1.5760   -0.9203   -4.3276 F   0  0  0  0  0  0  0  0  0  0  0  0
    3.7268   -0.7575   -4.6340 F   0  0  0  0  0  0  0  0  0  0  0  0
    2.6115    0.9215   -3.8051 F   0  0  0  0  0  0  0  0  0  0  0  0
   -4.2038   -0.3555   -6.2061 O   0  0  0  0  0  0  0  0  0  0  0  0
   -4.9700   -0.4737   -5.0156 C   0  0  0  0  0  0  0  0  0  0  0  0
   -5.9481   -0.8455   -5.3239 H   0  0  0  0  0  0  0  0  0  0  0  0
   -5.0929    0.4962   -4.5168 H   0  0  0  0  0  0  0  0  0  0  0  0
   -4.5172   -1.1859   -4.3135 H   0  0  0  0  0  0  0  0  0  0  0  0
  1  6  1  0  0  0  0
  2  1  2  0  0  0  0
  2  3  1  0  0  0  0
  3 17  1  0  0  0  0
  3  4  2  0  0  0  0
  4  5  1  0  0  0  0
  4  9  1  0  0  0  0
  5 10  1  0  0  0  0
  6  5  2  0  0  0  0
  7  1  1  0  0  0  0
  8  2  1  0  0  0  0
 12 11  3  0  0  0  0
 13 17  1  0  0  0  0
 13 14  1  0  0  0  0
 14 19  1  0  0  0  0
 14 18  1  0  0  0  0
 14 20  1  0  0  0  0
 15 13  2  0  0  0  0
 16 13  2  0  0  0  0
 21  6  1  0  0  0  0
 21 22  1  0  0  0  0
 22 24  1  0  0  0  0
 22 25  1  0  0  0  0
 23 22  1  0  0  0  0
M  END
