Coordinates from ORCA-job p-CH3O-Ph-N2-OTf-B3LYP-6-31G_dp-scan-d09-49-n400
 OpenBabel02121707583D

 25 24  0  0  0  0  0  0  0  0999 V2000
   -2.2035    0.1473   -7.3247 C   0  0  0  0  0  0  0  0  0  0  0  0
   -0.8846    0.5802   -7.3401 C   0  0  0  0  0  0  0  0  0  0  0  0
   -0.2723    0.9270   -6.1348 C   0  0  0  0  0  0  0  0  0  0  0  0
   -0.9564    0.8549   -4.9288 C   0  0  0  0  0  0  0  0  0  0  0  0
   -2.2868    0.4281   -4.9135 C   0  0  0  0  0  0  0  0  0  0  0  0
   -2.9144    0.0692   -6.1146 C   0  0  0  0  0  0  0  0  0  0  0  0
   -2.7103   -0.1338   -8.2416 H   0  0  0  0  0  0  0  0  0  0  0  0
   -0.3309    0.6481   -8.2695 H   0  0  0  0  0  0  0  0  0  0  0  0
   -0.4550    1.1394   -4.0101 H   0  0  0  0  0  0  0  0  0  0  0  0
   -2.8152    0.3821   -3.9687 H   0  0  0  0  0  0  0  0  0  0  0  0
   -1.2166    4.0066   -6.5346 N   0  0  0  0  0  0  0  0  0  0  0  0
   -2.2969    4.2414   -6.5313 N   0  0  0  0  0  0  0  0  0  0  0  0
    2.3328    0.4841   -6.3910 S   0  0  0  0  0  0  0  0  0  0  0  0
    2.6385   -0.1277   -4.6490 C   0  0  0  0  0  0  0  0  0  0  0  0
    1.9636   -0.6702   -7.1943 O   0  0  0  0  0  0  0  0  0  0  0  0
    3.4255    1.3753   -6.7275 O   0  0  0  0  0  0  0  0  0  0  0  0
    1.0372    1.4583   -6.1244 O   0  0  0  0  0  0  0  0  0  0  0  0
    1.6312   -0.9145   -4.2647 F   0  0  0  0  0  0  0  0  0  0  0  0
    3.7758   -0.8194   -4.6387 F   0  0  0  0  0  0  0  0  0  0  0  0
    2.7327    0.9089   -3.8177 F   0  0  0  0  0  0  0  0  0  0  0  0
   -4.2013   -0.3611   -6.2168 O   0  0  0  0  0  0  0  0  0  0  0  0
   -4.9759   -0.4674   -5.0308 C   0  0  0  0  0  0  0  0  0  0  0  0
   -5.9567   -0.8279   -5.3441 H   0  0  0  0  0  0  0  0  0  0  0  0
   -5.0899    0.5048   -4.5344 H   0  0  0  0  0  0  0  0  0  0  0  0
   -4.5363   -1.1838   -4.3243 H   0  0  0  0  0  0  0  0  0  0  0  0
  1  6  1  0  0  0  0
  2  1  2  0  0  0  0
  2  3  1  0  0  0  0
  3 17  1  0  0  0  0
  3  4  2  0  0  0  0
  4  5  1  0  0  0  0
  4  9  1  0  0  0  0
  5 10  1  0  0  0  0
  6  5  2  0  0  0  0
  7  1  1  0  0  0  0
  8  2  1  0  0  0  0
 11 12  3  0  0  0  0
 13 17  1  0  0  0  0
 13 14  1  0  0  0  0
 14 19  1  0  0  0  0
 14 18  1  0  0  0  0
 14 20  1  0  0  0  0
 15 13  2  0  0  0  0
 16 13  2  0  0  0  0
 21  6  1  0  0  0  0
 21 22  1  0  0  0  0
 22 24  1  0  0  0  0
 22 25  1  0  0  0  0
 23 22  1  0  0  0  0
M  END
