Coordinates from ORCA-job p-CH3O-Ph-N2-OTf-B3LYP-6-31G_dp-scan-d09-49-n400
 OpenBabel02121707583D

 25 24  0  0  0  0  0  0  0  0999 V2000
   -1.8479   -0.4444   -6.0807 C   0  0  0  0  0  0  0  0  0  0  0  0
   -0.9110    0.5232   -6.4098 C   0  0  0  0  0  0  0  0  0  0  0  0
   -1.3102    1.8296   -6.1689 C   0  0  0  0  0  0  0  0  0  0  0  0
   -2.5141    2.2607   -5.6502 C   0  0  0  0  0  0  0  0  0  0  0  0
   -3.4339    1.2641   -5.3264 C   0  0  0  0  0  0  0  0  0  0  0  0
   -3.1020   -0.0883   -5.5396 C   0  0  0  0  0  0  0  0  0  0  0  0
   -1.6219   -1.4954   -6.2242 H   0  0  0  0  0  0  0  0  0  0  0  0
    0.0663    0.2953   -6.8167 H   0  0  0  0  0  0  0  0  0  0  0  0
   -2.7308    3.3106   -5.4949 H   0  0  0  0  0  0  0  0  0  0  0  0
   -4.3923    1.5480   -4.9119 H   0  0  0  0  0  0  0  0  0  0  0  0
   -0.2278    2.9783   -6.5418 N   0  0  0  0  0  0  0  0  0  0  0  0
    0.7900    3.3148   -6.8726 N   0  0  0  0  0  0  0  0  0  0  0  0
    2.7162    1.2021   -5.9354 S   0  0  0  0  0  0  0  0  0  0  0  0
    2.9134   -0.6495   -6.0187 C   0  0  0  0  0  0  0  0  0  0  0  0
    2.0298    1.4699   -7.2653 O   0  0  0  0  0  0  0  0  0  0  0  0
    4.0822    1.7183   -5.8281 O   0  0  0  0  0  0  0  0  0  0  0  0
    1.7944    1.4271   -4.8015 O   0  0  0  0  0  0  0  0  0  0  0  0
    1.7088   -1.2471   -6.1963 F   0  0  0  0  0  0  0  0  0  0  0  0
    3.7032   -1.0053   -7.0364 F   0  0  0  0  0  0  0  0  0  0  0  0
    3.4374   -1.1166   -4.8805 F   0  0  0  0  0  0  0  0  0  0  0  0
   -3.9193   -1.1220   -5.2591 O   0  0  0  0  0  0  0  0  0  0  0  0
   -5.2014   -0.8629   -4.6873 C   0  0  0  0  0  0  0  0  0  0  0  0
   -5.6616   -1.8402   -4.5426 H   0  0  0  0  0  0  0  0  0  0  0  0
   -5.8237   -0.2631   -5.3622 H   0  0  0  0  0  0  0  0  0  0  0  0
   -5.1096   -0.3571   -3.7189 H   0  0  0  0  0  0  0  0  0  0  0  0
  1  6  2  0  0  0  0
  2  3  2  0  0  0  0
  2  1  1  0  0  0  0
  3  4  1  0  0  0  0
  4  9  1  0  0  0  0
  4  5  2  0  0  0  0
  5 10  1  0  0  0  0
  6  5  1  0  0  0  0
  6 21  1  0  0  0  0
  7  1  1  0  0  0  0
  8  2  1  0  0  0  0
 11  3  1  0  0  0  0
 12 11  2  0  0  0  0
 13 16  2  0  0  0  0
 13 17  1  0  0  0  0
 14 13  1  0  0  0  0
 14 20  1  0  0  0  0
 15 13  2  0  0  0  0
 18 14  1  0  0  0  0
 19 14  1  0  0  0  0
 21 22  1  0  0  0  0
 22 23  1  0  0  0  0
 22 25  1  0  0  0  0
 24 22  1  0  0  0  0
M  RAD  2  12   2  17   2
M  END
