Coordinates from ORCA-job p-CH3O-Ph-N2-OTf-B3LYP-6-31G_dp-scan-d09-49-n400
 OpenBabel02121707583D

 25 23  0  0  0  0  0  0  0  0999 V2000
   -1.9250   -0.3320   -6.4121 C   0  0  0  0  0  0  0  0  0  0  0  0
   -0.9232    0.6542   -6.5528 C   0  0  0  0  0  0  0  0  0  0  0  0
   -1.3372    1.7485   -5.9331 C   0  0  0  0  0  0  0  0  0  0  0  0
   -2.3912    2.2127   -5.2291 C   0  0  0  0  0  0  0  0  0  0  0  0
   -3.3525    1.1827   -5.1173 C   0  0  0  0  0  0  0  0  0  0  0  0
   -3.1202   -0.0757   -5.7074 C   0  0  0  0  0  0  0  0  0  0  0  0
   -1.7579   -1.3163   -6.8384 H   0  0  0  0  0  0  0  0  0  0  0  0
    0.0934    0.4606   -7.0486 H   0  0  0  0  0  0  0  0  0  0  0  0
   -2.5139    3.1993   -4.8052 H   0  0  0  0  0  0  0  0  0  0  0  0
   -4.2637    1.4010   -4.5736 H   0  0  0  0  0  0  0  0  0  0  0  0
   -0.0045    3.5617   -6.2569 N   0  0  0  0  0  0  0  0  0  0  0  0
    0.6357    4.4337   -6.4774 N   0  0  0  0  0  0  0  0  0  0  0  0
    2.5178    0.8447   -6.4692 S   0  0  0  0  0  0  0  0  0  0  0  0
    3.0169   -0.6632   -5.5068 C   0  0  0  0  0  0  0  0  0  0  0  0
    1.5824    0.2638   -7.5106 O   0  0  0  0  0  0  0  0  0  0  0  0
    3.7599    1.3862   -7.0225 O   0  0  0  0  0  0  0  0  0  0  0  0
    1.7876    1.6708   -5.4786 O   0  0  0  0  0  0  0  0  0  0  0  0
    1.9244   -1.2711   -5.0069 F   0  0  0  0  0  0  0  0  0  0  0  0
    3.6651   -1.5351   -6.2879 F   0  0  0  0  0  0  0  0  0  0  0  0
    3.8149   -0.3237   -4.4865 F   0  0  0  0  0  0  0  0  0  0  0  0
   -3.9880   -1.1113   -5.6519 O   0  0  0  0  0  0  0  0  0  0  0  0
   -5.2079   -0.9500   -4.9334 C   0  0  0  0  0  0  0  0  0  0  0  0
   -5.7293   -1.9042   -5.0165 H   0  0  0  0  0  0  0  0  0  0  0  0
   -5.8283   -0.1584   -5.3722 H   0  0  0  0  0  0  0  0  0  0  0  0
   -5.0209   -0.7289   -3.8753 H   0  0  0  0  0  0  0  0  0  0  0  0
  1  6  1  0  0  0  0
  2  1  2  0  0  0  0
  2  3  1  0  0  0  0
  3  4  2  0  0  0  0
  4  5  1  0  0  0  0
  4  9  1  0  0  0  0
  5 10  1  0  0  0  0
  6 21  1  0  0  0  0
  6  5  2  0  0  0  0
  7  1  1  0  0  0  0
  8  2  1  0  0  0  0
 12 11  3  0  0  0  0
 13 14  1  0  0  0  0
 13 17  1  0  0  0  0
 14 18  1  0  0  0  0
 14 20  1  0  0  0  0
 15 13  2  0  0  0  0
 16 13  2  0  0  0  0
 19 14  1  0  0  0  0
 21 22  1  0  0  0  0
 22 25  1  0  0  0  0
 23 22  1  0  0  0  0
 24 22  1  0  0  0  0
M  RAD  2   3   2  17   2
M  END
