Coordinates from ORCA-job p-CH3O-Ph-N2-OTf-B3LYP-6-31G_dp-scan-d09-49-n400
 OpenBabel02121707583D

 25 24  0  0  0  0  0  0  0  0999 V2000
   -2.2104    0.1530   -7.3250 C   0  0  0  0  0  0  0  0  0  0  0  0
   -0.8928    0.5896   -7.3412 C   0  0  0  0  0  0  0  0  0  0  0  0
   -0.2811    0.9395   -6.1365 C   0  0  0  0  0  0  0  0  0  0  0  0
   -0.9634    0.8628   -4.9298 C   0  0  0  0  0  0  0  0  0  0  0  0
   -2.2925    0.4324   -4.9135 C   0  0  0  0  0  0  0  0  0  0  0  0
   -2.9203    0.0728   -6.1143 C   0  0  0  0  0  0  0  0  0  0  0  0
   -2.7170   -0.1295   -8.2415 H   0  0  0  0  0  0  0  0  0  0  0  0
   -0.3400    0.6593   -8.2710 H   0  0  0  0  0  0  0  0  0  0  0  0
   -0.4618    1.1482   -4.0114 H   0  0  0  0  0  0  0  0  0  0  0  0
   -2.8198    0.3841   -3.9683 H   0  0  0  0  0  0  0  0  0  0  0  0
   -1.1422    3.8985   -6.5195 N   0  0  0  0  0  0  0  0  0  0  0  0
   -2.2127    4.1746   -6.5240 N   0  0  0  0  0  0  0  0  0  0  0  0
    2.3244    0.5009   -6.3936 S   0  0  0  0  0  0  0  0  0  0  0  0
    2.6289   -0.1142   -4.6525 C   0  0  0  0  0  0  0  0  0  0  0  0
    1.9580   -0.6522   -7.1998 O   0  0  0  0  0  0  0  0  0  0  0  0
    3.4163    1.3943   -6.7268 O   0  0  0  0  0  0  0  0  0  0  0  0
    1.0273    1.4729   -6.1268 O   0  0  0  0  0  0  0  0  0  0  0  0
    1.6242   -0.9063   -4.2722 F   0  0  0  0  0  0  0  0  0  0  0  0
    3.7691   -0.8011   -4.6416 F   0  0  0  0  0  0  0  0  0  0  0  0
    2.7170    0.9207   -3.8183 F   0  0  0  0  0  0  0  0  0  0  0  0
   -4.2062   -0.3606   -6.2157 O   0  0  0  0  0  0  0  0  0  0  0  0
   -4.9792   -0.4706   -5.0291 C   0  0  0  0  0  0  0  0  0  0  0  0
   -5.9593   -0.8333   -5.3418 H   0  0  0  0  0  0  0  0  0  0  0  0
   -5.0954    0.5007   -4.5315 H   0  0  0  0  0  0  0  0  0  0  0  0
   -4.5369   -1.1865   -4.3240 H   0  0  0  0  0  0  0  0  0  0  0  0
  1  6  1  0  0  0  0
  2  1  2  0  0  0  0
  2  3  1  0  0  0  0
  3 17  1  0  0  0  0
  3  4  2  0  0  0  0
  4  5  1  0  0  0  0
  4  9  1  0  0  0  0
  5 10  1  0  0  0  0
  6  5  2  0  0  0  0
  7  1  1  0  0  0  0
  8  2  1  0  0  0  0
 12 11  3  0  0  0  0
 13 17  1  0  0  0  0
 13 14  1  0  0  0  0
 14 19  1  0  0  0  0
 14 18  1  0  0  0  0
 14 20  1  0  0  0  0
 15 13  2  0  0  0  0
 16 13  2  0  0  0  0
 21  6  1  0  0  0  0
 21 22  1  0  0  0  0
 22 24  1  0  0  0  0
 22 25  1  0  0  0  0
 23 22  1  0  0  0  0
M  END
