Coordinates from ORCA-job p-CH3O-Ph-N2-OTf-B3LYP-6-31G_dp-scan-d09-49-n400
 OpenBabel02121707583D

 25 24  0  0  0  0  0  0  0  0999 V2000
   -2.1352    0.1237   -7.3274 C   0  0  0  0  0  0  0  0  0  0  0  0
   -0.8064    0.5249   -7.3425 C   0  0  0  0  0  0  0  0  0  0  0  0
   -0.1885    0.8645   -6.1380 C   0  0  0  0  0  0  0  0  0  0  0  0
   -0.8783    0.8220   -4.9338 C   0  0  0  0  0  0  0  0  0  0  0  0
   -2.2184    0.4266   -4.9189 C   0  0  0  0  0  0  0  0  0  0  0  0
   -2.8506    0.0713   -6.1185 C   0  0  0  0  0  0  0  0  0  0  0  0
   -2.6462   -0.1525   -8.2434 H   0  0  0  0  0  0  0  0  0  0  0  0
   -0.2485    0.5716   -8.2708 H   0  0  0  0  0  0  0  0  0  0  0  0
   -0.3728    1.1024   -4.0160 H   0  0  0  0  0  0  0  0  0  0  0  0
   -2.7506    0.4013   -3.9755 H   0  0  0  0  0  0  0  0  0  0  0  0
   -1.9221    4.7227   -6.6306 N   0  0  0  0  0  0  0  0  0  0  0  0
   -3.0135    4.5622   -6.5611 N   0  0  0  0  0  0  0  0  0  0  0  0
    2.4066    0.3530   -6.3705 S   0  0  0  0  0  0  0  0  0  0  0  0
    2.6731   -0.2549   -4.6204 C   0  0  0  0  0  0  0  0  0  0  0  0
    2.0176   -0.7964   -7.1713 O   0  0  0  0  0  0  0  0  0  0  0  0
    3.5266    1.2132   -6.6980 O   0  0  0  0  0  0  0  0  0  0  0  0
    1.1340    1.3636   -6.1288 O   0  0  0  0  0  0  0  0  0  0  0  0
    1.6502   -1.0285   -4.2513 F   0  0  0  0  0  0  0  0  0  0  0  0
    3.8021   -0.9592   -4.5866 F   0  0  0  0  0  0  0  0  0  0  0  0
    2.7639    0.7843   -3.7917 F   0  0  0  0  0  0  0  0  0  0  0  0
   -4.1464   -0.3316   -6.2206 O   0  0  0  0  0  0  0  0  0  0  0  0
   -4.9257   -0.4125   -5.0357 C   0  0  0  0  0  0  0  0  0  0  0  0
   -5.9128   -0.7559   -5.3485 H   0  0  0  0  0  0  0  0  0  0  0  0
   -5.0214    0.5659   -4.5478 H   0  0  0  0  0  0  0  0  0  0  0  0
   -4.5024   -1.1317   -4.3222 H   0  0  0  0  0  0  0  0  0  0  0  0
  1  6  1  0  0  0  0
  2  1  2  0  0  0  0
  2  3  1  0  0  0  0
  3 17  1  0  0  0  0
  3  4  2  0  0  0  0
  4  5  1  0  0  0  0
  4  9  1  0  0  0  0
  5 10  1  0  0  0  0
  6  5  2  0  0  0  0
  7  1  1  0  0  0  0
  8  2  1  0  0  0  0
 11 12  3  0  0  0  0
 13 17  1  0  0  0  0
 13 14  1  0  0  0  0
 14 19  1  0  0  0  0
 14 18  1  0  0  0  0
 14 20  1  0  0  0  0
 15 13  2  0  0  0  0
 16 13  2  0  0  0  0
 21  6  1  0  0  0  0
 21 22  1  0  0  0  0
 22 24  1  0  0  0  0
 22 25  1  0  0  0  0
 23 22  1  0  0  0  0
M  END
