Coordinates from ORCA-job p-CH3O-Ph-N2-OTf-B3LYP-6-31G_dp-scan-d09-49-n400
 OpenBabel02121707583D

 25 24  0  0  0  0  0  0  0  0999 V2000
   -2.1777    0.1364   -7.3246 C   0  0  0  0  0  0  0  0  0  0  0  0
   -0.8552    0.5582   -7.3400 C   0  0  0  0  0  0  0  0  0  0  0  0
   -0.2402    0.9004   -6.1347 C   0  0  0  0  0  0  0  0  0  0  0  0
   -0.9268    0.8400   -4.9294 C   0  0  0  0  0  0  0  0  0  0  0  0
   -2.2606    0.4239   -4.9141 C   0  0  0  0  0  0  0  0  0  0  0  0
   -2.8898    0.0659   -6.1147 C   0  0  0  0  0  0  0  0  0  0  0  0
   -2.6861   -0.1427   -8.2412 H   0  0  0  0  0  0  0  0  0  0  0  0
   -0.3001    0.6188   -8.2691 H   0  0  0  0  0  0  0  0  0  0  0  0
   -0.4238    1.1227   -4.0110 H   0  0  0  0  0  0  0  0  0  0  0  0
   -2.7903    0.3850   -3.9698 H   0  0  0  0  0  0  0  0  0  0  0  0
   -1.4817    4.3317   -6.5872 N   0  0  0  0  0  0  0  0  0  0  0  0
   -2.5830    4.4220   -6.5596 N   0  0  0  0  0  0  0  0  0  0  0  0
    2.3610    0.4293   -6.3820 S   0  0  0  0  0  0  0  0  0  0  0  0
    2.6517   -0.1811   -4.6369 C   0  0  0  0  0  0  0  0  0  0  0  0
    1.9831   -0.7229   -7.1842 O   0  0  0  0  0  0  0  0  0  0  0  0
    3.4649    1.3078   -6.7155 O   0  0  0  0  0  0  0  0  0  0  0  0
    1.0748    1.4186   -6.1246 O   0  0  0  0  0  0  0  0  0  0  0  0
    1.6377   -0.9619   -4.2579 F   0  0  0  0  0  0  0  0  0  0  0  0
    3.7852   -0.8788   -4.6178 F   0  0  0  0  0  0  0  0  0  0  0  0
    2.7460    0.8564   -3.8067 F   0  0  0  0  0  0  0  0  0  0  0  0
   -4.1795   -0.3563   -6.2165 O   0  0  0  0  0  0  0  0  0  0  0  0
   -4.9549   -0.4560   -5.0305 C   0  0  0  0  0  0  0  0  0  0  0  0
   -5.9375   -0.8118   -5.3433 H   0  0  0  0  0  0  0  0  0  0  0  0
   -5.0639    0.5178   -4.5362 H   0  0  0  0  0  0  0  0  0  0  0  0
   -4.5193   -1.1732   -4.3225 H   0  0  0  0  0  0  0  0  0  0  0  0
  1  6  1  0  0  0  0
  2  1  2  0  0  0  0
  2  3  1  0  0  0  0
  3 17  1  0  0  0  0
  3  4  2  0  0  0  0
  4  5  1  0  0  0  0
  4  9  1  0  0  0  0
  5 10  1  0  0  0  0
  6  5  2  0  0  0  0
  7  1  1  0  0  0  0
  8  2  1  0  0  0  0
 11 12  3  0  0  0  0
 13 17  1  0  0  0  0
 13 14  1  0  0  0  0
 14 19  1  0  0  0  0
 14 18  1  0  0  0  0
 14 20  1  0  0  0  0
 15 13  2  0  0  0  0
 16 13  2  0  0  0  0
 21  6  1  0  0  0  0
 21 22  1  0  0  0  0
 22 24  1  0  0  0  0
 22 25  1  0  0  0  0
 23 22  1  0  0  0  0
M  END
