Coordinates from ORCA-job p-CH3O-Ph-N2-OTf-B3LYP-6-31G_dp-scan-d09-49-n400
 OpenBabel02121707583D

 25 24  0  0  0  0  0  0  0  0999 V2000
   -2.1951    0.1430   -7.3245 C   0  0  0  0  0  0  0  0  0  0  0  0
   -0.8750    0.5724   -7.3399 C   0  0  0  0  0  0  0  0  0  0  0  0
   -0.2619    0.9177   -6.1345 C   0  0  0  0  0  0  0  0  0  0  0  0
   -0.9472    0.8499   -4.9289 C   0  0  0  0  0  0  0  0  0  0  0  0
   -2.2786    0.4265   -4.9136 C   0  0  0  0  0  0  0  0  0  0  0  0
   -2.9065    0.0674   -6.1145 C   0  0  0  0  0  0  0  0  0  0  0  0
   -2.7022   -0.1379   -8.2413 H   0  0  0  0  0  0  0  0  0  0  0  0
   -0.3207    0.6375   -8.2691 H   0  0  0  0  0  0  0  0  0  0  0  0
   -0.4453    1.1340   -4.0102 H   0  0  0  0  0  0  0  0  0  0  0  0
   -2.8075    0.3828   -3.9690 H   0  0  0  0  0  0  0  0  0  0  0  0
   -1.3022    4.1234   -6.5536 N   0  0  0  0  0  0  0  0  0  0  0  0
   -2.3915    4.3106   -6.5421 N   0  0  0  0  0  0  0  0  0  0  0  0
    2.3419    0.4653   -6.3879 S   0  0  0  0  0  0  0  0  0  0  0  0
    2.6432   -0.1458   -4.6449 C   0  0  0  0  0  0  0  0  0  0  0  0
    1.9696   -0.6884   -7.1906 O   0  0  0  0  0  0  0  0  0  0  0  0
    3.4382    1.3523   -6.7239 O   0  0  0  0  0  0  0  0  0  0  0  0
    1.0495    1.4445   -6.1240 O   0  0  0  0  0  0  0  0  0  0  0  0
    1.6333   -0.9299   -4.2617 F   0  0  0  0  0  0  0  0  0  0  0  0
    3.7788   -0.8403   -4.6321 F   0  0  0  0  0  0  0  0  0  0  0  0
    2.7386    0.8912   -3.8143 F   0  0  0  0  0  0  0  0  0  0  0  0
   -4.1941   -0.3610   -6.2166 O   0  0  0  0  0  0  0  0  0  0  0  0
   -4.9689   -0.4655   -5.0306 C   0  0  0  0  0  0  0  0  0  0  0  0
   -5.9500   -0.8251   -5.3436 H   0  0  0  0  0  0  0  0  0  0  0  0
   -5.0819    0.5073   -4.5351 H   0  0  0  0  0  0  0  0  0  0  0  0
   -4.5302   -1.1817   -4.3235 H   0  0  0  0  0  0  0  0  0  0  0  0
  1  6  1  0  0  0  0
  2  1  2  0  0  0  0
  2  3  1  0  0  0  0
  3 17  1  0  0  0  0
  3  4  2  0  0  0  0
  4  5  1  0  0  0  0
  4  9  1  0  0  0  0
  5 10  1  0  0  0  0
  6  5  2  0  0  0  0
  7  1  1  0  0  0  0
  8  2  1  0  0  0  0
 11 12  3  0  0  0  0
 13 17  1  0  0  0  0
 13 14  1  0  0  0  0
 14 19  1  0  0  0  0
 14 18  1  0  0  0  0
 14 20  1  0  0  0  0
 15 13  2  0  0  0  0
 16 13  2  0  0  0  0
 21  6  1  0  0  0  0
 21 22  1  0  0  0  0
 22 24  1  0  0  0  0
 22 25  1  0  0  0  0
 23 22  1  0  0  0  0
M  END
