Coordinates from ORCA-job p-CH3O-Ph-N2-OTf-B3LYP-6-31G_dp-scan-d09-49-n400
 OpenBabel02121707583D

 25 24  0  0  0  0  0  0  0  0999 V2000
   -2.2179    0.1770   -7.3255 C   0  0  0  0  0  0  0  0  0  0  0  0
   -0.9071    0.6315   -7.3497 C   0  0  0  0  0  0  0  0  0  0  0  0
   -0.3002    1.0120   -6.1518 C   0  0  0  0  0  0  0  0  0  0  0  0
   -0.9683    0.9092   -4.9390 C   0  0  0  0  0  0  0  0  0  0  0  0
   -2.2908    0.4610   -4.9141 C   0  0  0  0  0  0  0  0  0  0  0  0
   -2.9218    0.0939   -6.1112 C   0  0  0  0  0  0  0  0  0  0  0  0
   -2.7236   -0.1207   -8.2377 H   0  0  0  0  0  0  0  0  0  0  0  0
   -0.3586    0.7019   -8.2820 H   0  0  0  0  0  0  0  0  0  0  0  0
   -0.4640    1.1990   -4.0235 H   0  0  0  0  0  0  0  0  0  0  0  0
   -2.8101    0.4012   -3.9651 H   0  0  0  0  0  0  0  0  0  0  0  0
   -0.9800    3.5358   -6.4809 N   0  0  0  0  0  0  0  0  0  0  0  0
   -2.0162    3.9228   -6.5123 N   0  0  0  0  0  0  0  0  0  0  0  0
    2.3008    0.5522   -6.4003 S   0  0  0  0  0  0  0  0  0  0  0  0
    2.5637   -0.0973   -4.6639 C   0  0  0  0  0  0  0  0  0  0  0  0
    1.9414   -0.5834   -7.2340 O   0  0  0  0  0  0  0  0  0  0  0  0
    3.4087    1.4395   -6.6946 O   0  0  0  0  0  0  0  0  0  0  0  0
    1.0110    1.5362   -6.1476 O   0  0  0  0  0  0  0  0  0  0  0  0
    1.5695   -0.9234   -4.3343 F   0  0  0  0  0  0  0  0  0  0  0  0
    3.7210   -0.7539   -4.6318 F   0  0  0  0  0  0  0  0  0  0  0  0
    2.5978    0.9201   -3.8034 F   0  0  0  0  0  0  0  0  0  0  0  0
   -4.2024   -0.3551   -6.2049 O   0  0  0  0  0  0  0  0  0  0  0  0
   -4.9678   -0.4736   -5.0139 C   0  0  0  0  0  0  0  0  0  0  0  0
   -5.9458   -0.8463   -5.3214 H   0  0  0  0  0  0  0  0  0  0  0  0
   -5.0910    0.4962   -4.5152 H   0  0  0  0  0  0  0  0  0  0  0  0
   -4.5140   -1.1854   -4.3119 H   0  0  0  0  0  0  0  0  0  0  0  0
  1  6  1  0  0  0  0
  2  1  2  0  0  0  0
  2  3  1  0  0  0  0
  3 17  1  0  0  0  0
  3  4  2  0  0  0  0
  4  5  1  0  0  0  0
  4  9  1  0  0  0  0
  5 10  1  0  0  0  0
  6  5  2  0  0  0  0
  7  1  1  0  0  0  0
  8  2  1  0  0  0  0
 12 11  3  0  0  0  0
 13 17  1  0  0  0  0
 13 14  1  0  0  0  0
 14 19  1  0  0  0  0
 14 18  1  0  0  0  0
 14 20  1  0  0  0  0
 15 13  2  0  0  0  0
 16 13  2  0  0  0  0
 21  6  1  0  0  0  0
 21 22  1  0  0  0  0
 22 24  1  0  0  0  0
 22 25  1  0  0  0  0
 23 22  1  0  0  0  0
M  END
