Coordinates from ORCA-job p-CH3O-Ph-N2-OTf-B3LYP-6-31G_dp-scan-d09-49-n400
 OpenBabel02121707583D

 25 24  0  0  0  0  0  0  0  0999 V2000
   -1.7303   -0.3596   -6.2840 C   0  0  0  0  0  0  0  0  0  0  0  0
   -0.8495    0.6248   -6.6490 C   0  0  0  0  0  0  0  0  0  0  0  0
   -1.1687    2.0010   -6.3626 C   0  0  0  0  0  0  0  0  0  0  0  0
   -2.3938    2.3103   -5.6873 C   0  0  0  0  0  0  0  0  0  0  0  0
   -3.2577    1.3087   -5.3210 C   0  0  0  0  0  0  0  0  0  0  0  0
   -2.9313   -0.0418   -5.6125 C   0  0  0  0  0  0  0  0  0  0  0  0
   -1.5020   -1.4013   -6.4792 H   0  0  0  0  0  0  0  0  0  0  0  0
    0.0924    0.4310   -7.1531 H   0  0  0  0  0  0  0  0  0  0  0  0
   -2.6174    3.3485   -5.4622 H   0  0  0  0  0  0  0  0  0  0  0  0
   -4.1766    1.5619   -4.8084 H   0  0  0  0  0  0  0  0  0  0  0  0
   -0.4215    2.8445   -6.6408 N   0  0  0  0  0  0  0  0  0  0  0  0
    0.3240    3.6454   -6.9202 N   0  0  0  0  0  0  0  0  0  0  0  0
    2.4277    1.0848   -5.8745 S   0  0  0  0  0  0  0  0  0  0  0  0
    2.7055   -0.7547   -5.8878 C   0  0  0  0  0  0  0  0  0  0  0  0
    2.0066    1.3503   -7.2854 O   0  0  0  0  0  0  0  0  0  0  0  0
    3.7140    1.6542   -5.4604 O   0  0  0  0  0  0  0  0  0  0  0  0
    1.2914    1.2373   -4.9207 O   0  0  0  0  0  0  0  0  0  0  0  0
    1.5755   -1.3964   -6.2893 F   0  0  0  0  0  0  0  0  0  0  0  0
    3.6861   -1.0958   -6.7325 F   0  0  0  0  0  0  0  0  0  0  0  0
    3.0169   -1.2105   -4.6670 F   0  0  0  0  0  0  0  0  0  0  0  0
   -3.7038   -1.0785   -5.2914 O   0  0  0  0  0  0  0  0  0  0  0  0
   -4.9317   -0.8737   -4.5783 C   0  0  0  0  0  0  0  0  0  0  0  0
   -5.3471   -1.8691   -4.4278 H   0  0  0  0  0  0  0  0  0  0  0  0
   -5.6292   -0.2684   -5.1668 H   0  0  0  0  0  0  0  0  0  0  0  0
   -4.7452   -0.4025   -3.6079 H   0  0  0  0  0  0  0  0  0  0  0  0
  1  6  2  0  0  0  0
  2  3  2  0  0  0  0
  2  1  1  0  0  0  0
  3  4  1  0  0  0  0
  4  9  1  0  0  0  0
  4  5  2  0  0  0  0
  5 10  1  0  0  0  0
  6  5  1  0  0  0  0
  6 21  1  0  0  0  0
  7  1  1  0  0  0  0
  8  2  1  0  0  0  0
 11  3  1  0  0  0  0
 12 11  1  0  0  0  0
 13 16  2  0  0  0  0
 13 17  1  0  0  0  0
 14 13  1  0  0  0  0
 14 20  1  0  0  0  0
 15 13  2  0  0  0  0
 18 14  1  0  0  0  0
 19 14  1  0  0  0  0
 21 22  1  0  0  0  0
 22 23  1  0  0  0  0
 22 25  1  0  0  0  0
 24 22  1  0  0  0  0
M  RAD  3  11   2  12   3  17   2
M  END
