Coordinates from ORCA-job p-CH3O-Ph-N2-OTf-B3LYP-6-31G_dp-scan-d09-49-n400
 OpenBabel02121707583D

 25 24  0  0  0  0  0  0  0  0999 V2000
   -2.2172    0.1656   -7.3251 C   0  0  0  0  0  0  0  0  0  0  0  0
   -0.9031    0.6115   -7.3452 C   0  0  0  0  0  0  0  0  0  0  0  0
   -0.2935    0.9753   -6.1436 C   0  0  0  0  0  0  0  0  0  0  0  0
   -0.9693    0.8868   -4.9340 C   0  0  0  0  0  0  0  0  0  0  0  0
   -2.2951    0.4471   -4.9136 C   0  0  0  0  0  0  0  0  0  0  0  0
   -2.9242    0.0835   -6.1127 C   0  0  0  0  0  0  0  0  0  0  0  0
   -2.7234   -0.1241   -8.2396 H   0  0  0  0  0  0  0  0  0  0  0  0
   -0.3524    0.6819   -8.2762 H   0  0  0  0  0  0  0  0  0  0  0  0
   -0.4665    1.1748   -4.0171 H   0  0  0  0  0  0  0  0  0  0  0  0
   -2.8187    0.3933   -3.9667 H   0  0  0  0  0  0  0  0  0  0  0  0
   -1.0345    3.6888   -6.4957 N   0  0  0  0  0  0  0  0  0  0  0  0
   -2.0854    4.0329   -6.5157 N   0  0  0  0  0  0  0  0  0  0  0  0
    2.3107    0.5324   -6.3979 S   0  0  0  0  0  0  0  0  0  0  0  0
    2.5965   -0.1006   -4.6596 C   0  0  0  0  0  0  0  0  0  0  0  0
    1.9496   -0.6122   -7.2185 O   0  0  0  0  0  0  0  0  0  0  0  0
    3.4085    1.4255   -6.7116 O   0  0  0  0  0  0  0  0  0  0  0  0
    1.0150    1.5071   -6.1365 O   0  0  0  0  0  0  0  0  0  0  0  0
    1.5976   -0.9106   -4.3040 F   0  0  0  0  0  0  0  0  0  0  0  0
    3.7459   -0.7716   -4.6397 F   0  0  0  0  0  0  0  0  0  0  0  0
    2.6579    0.9254   -3.8115 F   0  0  0  0  0  0  0  0  0  0  0  0
   -4.2073   -0.3581   -6.2104 O   0  0  0  0  0  0  0  0  0  0  0  0
   -4.9765   -0.4732   -5.0216 C   0  0  0  0  0  0  0  0  0  0  0  0
   -5.9553   -0.8416   -5.3319 H   0  0  0  0  0  0  0  0  0  0  0  0
   -5.0970    0.4973   -4.5234 H   0  0  0  0  0  0  0  0  0  0  0  0
   -4.5280   -1.1868   -4.3182 H   0  0  0  0  0  0  0  0  0  0  0  0
  1  6  1  0  0  0  0
  2  1  2  0  0  0  0
  2  3  1  0  0  0  0
  3 17  1  0  0  0  0
  3  4  2  0  0  0  0
  4  5  1  0  0  0  0
  4  9  1  0  0  0  0
  5 10  1  0  0  0  0
  6  5  2  0  0  0  0
  7  1  1  0  0  0  0
  8  2  1  0  0  0  0
 12 11  3  0  0  0  0
 13 17  1  0  0  0  0
 13 14  1  0  0  0  0
 14 19  1  0  0  0  0
 14 18  1  0  0  0  0
 14 20  1  0  0  0  0
 15 13  2  0  0  0  0
 16 13  2  0  0  0  0
 21  6  1  0  0  0  0
 21 22  1  0  0  0  0
 22 24  1  0  0  0  0
 22 25  1  0  0  0  0
 23 22  1  0  0  0  0
M  END
