Coordinates from ORCA-job p-CH3O-Ph-N2-OTf-B3LYP-6-31G_dp-scan-d09-49-n400
 OpenBabel02121707583D

 25 24  0  0  0  0  0  0  0  0999 V2000
   -2.0938    0.1023   -7.3328 C   0  0  0  0  0  0  0  0  0  0  0  0
   -0.7597    0.4858   -7.3492 C   0  0  0  0  0  0  0  0  0  0  0  0
   -0.1413    0.8328   -6.1473 C   0  0  0  0  0  0  0  0  0  0  0  0
   -0.8338    0.8128   -4.9443 C   0  0  0  0  0  0  0  0  0  0  0  0
   -2.1788    0.4349   -4.9281 C   0  0  0  0  0  0  0  0  0  0  0  0
   -2.8127    0.0739   -6.1252 C   0  0  0  0  0  0  0  0  0  0  0  0
   -2.6061   -0.1783   -8.2468 H   0  0  0  0  0  0  0  0  0  0  0  0
   -0.1986    0.5131   -8.2764 H   0  0  0  0  0  0  0  0  0  0  0  0
   -0.3268    1.0970   -4.0284 H   0  0  0  0  0  0  0  0  0  0  0  0
   -2.7141    0.4280   -3.9860 H   0  0  0  0  0  0  0  0  0  0  0  0
   -2.3581    5.0955   -6.6396 N   0  0  0  0  0  0  0  0  0  0  0  0
   -3.3751    4.6762   -6.5316 N   0  0  0  0  0  0  0  0  0  0  0  0
    2.4471    0.2809   -6.3618 S   0  0  0  0  0  0  0  0  0  0  0  0
    2.6872   -0.3189   -4.6049 C   0  0  0  0  0  0  0  0  0  0  0  0
    2.0483   -0.8681   -7.1584 O   0  0  0  0  0  0  0  0  0  0  0  0
    3.5835    1.1213   -6.6841 O   0  0  0  0  0  0  0  0  0  0  0  0
    1.1886    1.3133   -6.1407 O   0  0  0  0  0  0  0  0  0  0  0  0
    1.6551   -1.0844   -4.2446 F   0  0  0  0  0  0  0  0  0  0  0  0
    3.8115   -1.0295   -4.5525 F   0  0  0  0  0  0  0  0  0  0  0  0
    2.7735    0.7245   -3.7807 F   0  0  0  0  0  0  0  0  0  0  0  0
   -4.1134   -0.3132   -6.2260 O   0  0  0  0  0  0  0  0  0  0  0  0
   -4.8964   -0.3709   -5.0421 C   0  0  0  0  0  0  0  0  0  0  0  0
   -5.8864   -0.7074   -5.3532 H   0  0  0  0  0  0  0  0  0  0  0  0
   -4.9825    0.6145   -4.5666 H   0  0  0  0  0  0  0  0  0  0  0  0
   -4.4828   -1.0858   -4.3188 H   0  0  0  0  0  0  0  0  0  0  0  0
  1  6  1  0  0  0  0
  2  1  2  0  0  0  0
  2  3  1  0  0  0  0
  3 17  1  0  0  0  0
  3  4  2  0  0  0  0
  4  5  1  0  0  0  0
  4  9  1  0  0  0  0
  5 10  1  0  0  0  0
  6  5  2  0  0  0  0
  7  1  1  0  0  0  0
  8  2  1  0  0  0  0
 11 12  3  0  0  0  0
 13 17  1  0  0  0  0
 13 14  1  0  0  0  0
 14 19  1  0  0  0  0
 14 18  1  0  0  0  0
 14 20  1  0  0  0  0
 15 13  2  0  0  0  0
 16 13  2  0  0  0  0
 21  6  1  0  0  0  0
 21 22  1  0  0  0  0
 22 24  1  0  0  0  0
 22 25  1  0  0  0  0
 23 22  1  0  0  0  0
M  END
