Coordinates from ORCA-job p-CH3O-Ph-N2-OTf-B3LYP-6-31G_dp-scan-d09-49-n400
 OpenBabel02121707583D

 25 24  0  0  0  0  0  0  0  0999 V2000
   -2.1916    0.1414   -7.3245 C   0  0  0  0  0  0  0  0  0  0  0  0
   -0.8711    0.5692   -7.3398 C   0  0  0  0  0  0  0  0  0  0  0  0
   -0.2575    0.9138   -6.1344 C   0  0  0  0  0  0  0  0  0  0  0  0
   -0.9432    0.8477   -4.9289 C   0  0  0  0  0  0  0  0  0  0  0  0
   -2.2751    0.4258   -4.9137 C   0  0  0  0  0  0  0  0  0  0  0  0
   -2.9032    0.0668   -6.1145 C   0  0  0  0  0  0  0  0  0  0  0  0
   -2.6990   -0.1391   -8.2412 H   0  0  0  0  0  0  0  0  0  0  0  0
   -0.3165    0.6333   -8.2691 H   0  0  0  0  0  0  0  0  0  0  0  0
   -0.4411    1.1315   -4.0103 H   0  0  0  0  0  0  0  0  0  0  0  0
   -2.8042    0.3831   -3.9692 H   0  0  0  0  0  0  0  0  0  0  0  0
   -1.3381    4.1690   -6.5611 N   0  0  0  0  0  0  0  0  0  0  0  0
   -2.4306    4.3369   -6.5463 N   0  0  0  0  0  0  0  0  0  0  0  0
    2.3458    0.4578   -6.3867 S   0  0  0  0  0  0  0  0  0  0  0  0
    2.6451   -0.1531   -4.6432 C   0  0  0  0  0  0  0  0  0  0  0  0
    1.9724   -0.6957   -7.1892 O   0  0  0  0  0  0  0  0  0  0  0  0
    3.4436    1.3430   -6.7223 O   0  0  0  0  0  0  0  0  0  0  0  0
    1.0546    1.4389   -6.1240 O   0  0  0  0  0  0  0  0  0  0  0  0
    1.6344   -0.9364   -4.2607 F   0  0  0  0  0  0  0  0  0  0  0  0
    3.7803   -0.8483   -4.6292 F   0  0  0  0  0  0  0  0  0  0  0  0
    2.7404    0.8841   -3.8128 F   0  0  0  0  0  0  0  0  0  0  0  0
   -4.1912   -0.3604   -6.2165 O   0  0  0  0  0  0  0  0  0  0  0  0
   -4.9661   -0.4641   -5.0305 C   0  0  0  0  0  0  0  0  0  0  0  0
   -5.9475   -0.8230   -5.3435 H   0  0  0  0  0  0  0  0  0  0  0  0
   -5.0784    0.5088   -4.5351 H   0  0  0  0  0  0  0  0  0  0  0  0
   -4.5279   -1.1805   -4.3233 H   0  0  0  0  0  0  0  0  0  0  0  0
  1  6  1  0  0  0  0
  2  1  2  0  0  0  0
  2  3  1  0  0  0  0
  3 17  1  0  0  0  0
  3  4  2  0  0  0  0
  4  5  1  0  0  0  0
  4  9  1  0  0  0  0
  5 10  1  0  0  0  0
  6  5  2  0  0  0  0
  7  1  1  0  0  0  0
  8  2  1  0  0  0  0
 11 12  3  0  0  0  0
 13 17  1  0  0  0  0
 13 14  1  0  0  0  0
 14 19  1  0  0  0  0
 14 18  1  0  0  0  0
 14 20  1  0  0  0  0
 15 13  2  0  0  0  0
 16 13  2  0  0  0  0
 21  6  1  0  0  0  0
 21 22  1  0  0  0  0
 22 24  1  0  0  0  0
 22 25  1  0  0  0  0
 23 22  1  0  0  0  0
M  END
