Coordinates from ORCA-job p-CH3O-Ph-N2-OTf-B3LYP-6-31G_dp-scan-d09-49-n400
 OpenBabel02121707583D

 25 24  0  0  0  0  0  0  0  0999 V2000
   -2.0894    0.0993   -7.3332 C   0  0  0  0  0  0  0  0  0  0  0  0
   -0.7548    0.4808   -7.3497 C   0  0  0  0  0  0  0  0  0  0  0  0
   -0.1359    0.8281   -6.1481 C   0  0  0  0  0  0  0  0  0  0  0  0
   -0.8291    0.8112   -4.9454 C   0  0  0  0  0  0  0  0  0  0  0  0
   -2.1747    0.4352   -4.9290 C   0  0  0  0  0  0  0  0  0  0  0  0
   -2.8087    0.0734   -6.1258 C   0  0  0  0  0  0  0  0  0  0  0  0
   -2.6019   -0.1818   -8.2470 H   0  0  0  0  0  0  0  0  0  0  0  0
   -0.1935    0.5064   -8.2768 H   0  0  0  0  0  0  0  0  0  0  0  0
   -0.3220    1.0963   -4.0298 H   0  0  0  0  0  0  0  0  0  0  0  0
   -2.7102    0.4304   -3.9870 H   0  0  0  0  0  0  0  0  0  0  0  0
   -2.4077    5.1415   -6.6413 N   0  0  0  0  0  0  0  0  0  0  0  0
   -3.4126    4.6947   -6.5297 N   0  0  0  0  0  0  0  0  0  0  0  0
    2.4518    0.2729   -6.3608 S   0  0  0  0  0  0  0  0  0  0  0  0
    2.6891   -0.3261   -4.6032 C   0  0  0  0  0  0  0  0  0  0  0  0
    2.0523   -0.8760   -7.1571 O   0  0  0  0  0  0  0  0  0  0  0  0
    3.5897    1.1116   -6.6825 O   0  0  0  0  0  0  0  0  0  0  0  0
    1.1944    1.3072   -6.1419 O   0  0  0  0  0  0  0  0  0  0  0  0
    1.6563   -1.0908   -4.2439 F   0  0  0  0  0  0  0  0  0  0  0  0
    3.8131   -1.0371   -4.5488 F   0  0  0  0  0  0  0  0  0  0  0  0
    2.7748    0.7178   -3.7794 F   0  0  0  0  0  0  0  0  0  0  0  0
   -4.1100   -0.3122   -6.2264 O   0  0  0  0  0  0  0  0  0  0  0  0
   -4.8934   -0.3672   -5.0427 C   0  0  0  0  0  0  0  0  0  0  0  0
   -5.8838   -0.7027   -5.3536 H   0  0  0  0  0  0  0  0  0  0  0  0
   -4.9784    0.6190   -4.5687 H   0  0  0  0  0  0  0  0  0  0  0  0
   -4.4811   -1.0816   -4.3181 H   0  0  0  0  0  0  0  0  0  0  0  0
  1  6  1  0  0  0  0
  2  1  2  0  0  0  0
  2  3  1  0  0  0  0
  3 17  1  0  0  0  0
  3  4  2  0  0  0  0
  4  5  1  0  0  0  0
  4  9  1  0  0  0  0
  5 10  1  0  0  0  0
  6  5  2  0  0  0  0
  7  1  1  0  0  0  0
  8  2  1  0  0  0  0
 11 12  3  0  0  0  0
 13 17  1  0  0  0  0
 13 14  1  0  0  0  0
 14 19  1  0  0  0  0
 14 18  1  0  0  0  0
 14 20  1  0  0  0  0
 15 13  2  0  0  0  0
 16 13  2  0  0  0  0
 21  6  1  0  0  0  0
 21 22  1  0  0  0  0
 22 24  1  0  0  0  0
 22 25  1  0  0  0  0
 23 22  1  0  0  0  0
M  END
