Coordinates from ORCA-job p-CH3O-Ph-N2-OTf-B3LYP-6-31G_dp-scan-d09-49-n400
 OpenBabel02121707583D

 25 24  0  0  0  0  0  0  0  0999 V2000
   -1.8528   -0.4849   -6.0518 C   0  0  0  0  0  0  0  0  0  0  0  0
   -0.9017    0.4527   -6.3860 C   0  0  0  0  0  0  0  0  0  0  0  0
   -1.2238    1.8173   -6.1937 C   0  0  0  0  0  0  0  0  0  0  0  0
   -2.4616    2.2341   -5.6745 C   0  0  0  0  0  0  0  0  0  0  0  0
   -3.4024    1.2778   -5.3367 C   0  0  0  0  0  0  0  0  0  0  0  0
   -3.1022   -0.0898   -5.5226 C   0  0  0  0  0  0  0  0  0  0  0  0
   -1.6538   -1.5437   -6.1748 H   0  0  0  0  0  0  0  0  0  0  0  0
    0.0689    0.1832   -6.7817 H   0  0  0  0  0  0  0  0  0  0  0  0
   -2.6664    3.2903   -5.5353 H   0  0  0  0  0  0  0  0  0  0  0  0
   -4.3557    1.5905   -4.9313 H   0  0  0  0  0  0  0  0  0  0  0  0
   -0.2978    2.7467   -6.5167 N   0  0  0  0  0  0  0  0  0  0  0  0
    0.6091    3.3250   -6.8395 N   0  0  0  0  0  0  0  0  0  0  0  0
    2.6747    1.2180   -5.9220 S   0  0  0  0  0  0  0  0  0  0  0  0
    2.9770   -0.6128   -6.0824 C   0  0  0  0  0  0  0  0  0  0  0  0
    2.1095    1.5424   -7.2817 O   0  0  0  0  0  0  0  0  0  0  0  0
    3.9927    1.7858   -5.6255 O   0  0  0  0  0  0  0  0  0  0  0  0
    1.6369    1.3135   -4.8647 O   0  0  0  0  0  0  0  0  0  0  0  0
    1.8204   -1.2606   -6.3820 F   0  0  0  0  0  0  0  0  0  0  0  0
    3.8553   -0.8774   -7.0552 F   0  0  0  0  0  0  0  0  0  0  0  0
    3.4401   -1.1224   -4.9346 F   0  0  0  0  0  0  0  0  0  0  0  0
   -3.9422   -1.0909   -5.2277 O   0  0  0  0  0  0  0  0  0  0  0  0
   -5.2269   -0.7989   -4.6686 C   0  0  0  0  0  0  0  0  0  0  0  0
   -5.7035   -1.7662   -4.5132 H   0  0  0  0  0  0  0  0  0  0  0  0
   -5.8301   -0.1993   -5.3595 H   0  0  0  0  0  0  0  0  0  0  0  0
   -5.1295   -0.2804   -3.7084 H   0  0  0  0  0  0  0  0  0  0  0  0
  1  6  2  0  0  0  0
  2  3  2  0  0  0  0
  2  1  1  0  0  0  0
  3  4  1  0  0  0  0
  4  9  1  0  0  0  0
  4  5  2  0  0  0  0
  5 10  1  0  0  0  0
  6  5  1  0  0  0  0
  6 21  1  0  0  0  0
  7  1  1  0  0  0  0
  8  2  1  0  0  0  0
 11  3  1  0  0  0  0
 12 11  1  0  0  0  0
 13 16  2  0  0  0  0
 13 17  1  0  0  0  0
 14 13  1  0  0  0  0
 14 20  1  0  0  0  0
 15 13  2  0  0  0  0
 18 14  1  0  0  0  0
 19 14  1  0  0  0  0
 21 22  1  0  0  0  0
 22 23  1  0  0  0  0
 22 25  1  0  0  0  0
 24 22  1  0  0  0  0
M  RAD  3  11   2  12   3  17   2
M  END
