Coordinates from ORCA-job p-CH3O-Ph-N2-OTf-B3LYP-6-31G_dp-scan-d09-49-n400
 OpenBabel02121707583D

 25 24  0  0  0  0  0  0  0  0999 V2000
   -1.8119   -0.3889   -6.1593 C   0  0  0  0  0  0  0  0  0  0  0  0
   -0.9000    0.6112   -6.4880 C   0  0  0  0  0  0  0  0  0  0  0  0
   -1.3559    1.8663   -6.1783 C   0  0  0  0  0  0  0  0  0  0  0  0
   -2.5259    2.2953   -5.6164 C   0  0  0  0  0  0  0  0  0  0  0  0
   -3.4127    1.2573   -5.3023 C   0  0  0  0  0  0  0  0  0  0  0  0
   -3.0568   -0.0785   -5.5717 C   0  0  0  0  0  0  0  0  0  0  0  0
   -1.5606   -1.4283   -6.3408 H   0  0  0  0  0  0  0  0  0  0  0  0
    0.0789    0.4337   -6.9242 H   0  0  0  0  0  0  0  0  0  0  0  0
   -2.7523    3.3353   -5.4209 H   0  0  0  0  0  0  0  0  0  0  0  0
   -4.3641    1.5076   -4.8513 H   0  0  0  0  0  0  0  0  0  0  0  0
   -0.1807    3.1541   -6.5938 N   0  0  0  0  0  0  0  0  0  0  0  0
    0.8477    3.4141   -6.9404 N   0  0  0  0  0  0  0  0  0  0  0  0
    2.6734    1.1613   -5.9623 S   0  0  0  0  0  0  0  0  0  0  0  0
    2.7846   -0.6988   -5.9217 C   0  0  0  0  0  0  0  0  0  0  0  0
    2.0014    1.3804   -7.3038 O   0  0  0  0  0  0  0  0  0  0  0  0
    4.0634    1.6165   -5.8841 O   0  0  0  0  0  0  0  0  0  0  0  0
    1.7676    1.4987   -4.8425 O   0  0  0  0  0  0  0  0  0  0  0  0
    1.5559   -1.2506   -6.0898 F   0  0  0  0  0  0  0  0  0  0  0  0
    3.5759   -1.1572   -6.8968 F   0  0  0  0  0  0  0  0  0  0  0  0
    3.2624   -1.1177   -4.7448 F   0  0  0  0  0  0  0  0  0  0  0  0
   -3.8435   -1.1410   -5.3025 O   0  0  0  0  0  0  0  0  0  0  0  0
   -5.1085   -0.9283   -4.6780 C   0  0  0  0  0  0  0  0  0  0  0  0
   -5.5437   -1.9192   -4.5492 H   0  0  0  0  0  0  0  0  0  0  0  0
   -5.7676   -0.3208   -5.3101 H   0  0  0  0  0  0  0  0  0  0  0  0
   -4.9928   -0.4521   -3.6970 H   0  0  0  0  0  0  0  0  0  0  0  0
  1  6  2  0  0  0  0
  2  3  2  0  0  0  0
  2  1  1  0  0  0  0
  3  4  1  0  0  0  0
  4  9  1  0  0  0  0
  4  5  2  0  0  0  0
  5 10  1  0  0  0  0
  6 21  1  0  0  0  0
  6  5  1  0  0  0  0
  7  1  1  0  0  0  0
  8  2  1  0  0  0  0
 11  3  1  0  0  0  0
 12 11  2  0  0  0  0
 13 14  1  0  0  0  0
 13 16  2  0  0  0  0
 13 17  1  0  0  0  0
 14 20  1  0  0  0  0
 15 13  2  0  0  0  0
 18 14  1  0  0  0  0
 19 14  1  0  0  0  0
 21 22  1  0  0  0  0
 22 23  1  0  0  0  0
 22 25  1  0  0  0  0
 24 22  1  0  0  0  0
M  RAD  2  12   2  17   2
M  END
