Coordinates from ORCA-job p-CH3O-Ph-N2-OTf-B3LYP-6-31G_dp-scan-d09-49-n400
 OpenBabel02121707583D

 25 24  0  0  0  0  0  0  0  0999 V2000
   -2.1440    0.1274   -7.3267 C   0  0  0  0  0  0  0  0  0  0  0  0
   -0.8162    0.5323   -7.3418 C   0  0  0  0  0  0  0  0  0  0  0  0
   -0.1986    0.8712   -6.1370 C   0  0  0  0  0  0  0  0  0  0  0  0
   -0.8875    0.8242   -4.9325 C   0  0  0  0  0  0  0  0  0  0  0  0
   -2.2263    0.4250   -4.9175 C   0  0  0  0  0  0  0  0  0  0  0  0
   -2.8584    0.0704   -6.1175 C   0  0  0  0  0  0  0  0  0  0  0  0
   -2.6547   -0.1485   -8.2430 H   0  0  0  0  0  0  0  0  0  0  0  0
   -0.2591    0.5824   -8.2704 H   0  0  0  0  0  0  0  0  0  0  0  0
   -0.3822    1.1042   -4.0144 H   0  0  0  0  0  0  0  0  0  0  0  0
   -2.7579    0.3962   -3.9738 H   0  0  0  0  0  0  0  0  0  0  0  0
   -1.8345    4.6515   -6.6267 N   0  0  0  0  0  0  0  0  0  0  0  0
   -2.9328    4.5428   -6.5655 N   0  0  0  0  0  0  0  0  0  0  0  0
    2.3977    0.3671   -6.3724 S   0  0  0  0  0  0  0  0  0  0  0  0
    2.6691   -0.2410   -4.6232 C   0  0  0  0  0  0  0  0  0  0  0  0
    2.0107   -0.7829   -7.1732 O   0  0  0  0  0  0  0  0  0  0  0  0
    3.5147    1.2307   -6.7013 O   0  0  0  0  0  0  0  0  0  0  0  0
    1.1226    1.3738   -6.1277 O   0  0  0  0  0  0  0  0  0  0  0  0
    1.6482   -1.0164   -4.2521 F   0  0  0  0  0  0  0  0  0  0  0  0
    3.7993   -0.9435   -4.5920 F   0  0  0  0  0  0  0  0  0  0  0  0
    2.7601    0.7980   -3.7942 F   0  0  0  0  0  0  0  0  0  0  0  0
   -4.1531   -0.3361   -6.2195 O   0  0  0  0  0  0  0  0  0  0  0  0
   -4.9311   -0.4225   -5.0342 C   0  0  0  0  0  0  0  0  0  0  0  0
   -5.9173   -0.7683   -5.3469 H   0  0  0  0  0  0  0  0  0  0  0  0
   -5.0296    0.5544   -4.5437 H   0  0  0  0  0  0  0  0  0  0  0  0
   -4.5048   -1.1420   -4.3228 H   0  0  0  0  0  0  0  0  0  0  0  0
  1  6  1  0  0  0  0
  2  1  2  0  0  0  0
  2  3  1  0  0  0  0
  3 17  1  0  0  0  0
  3  4  2  0  0  0  0
  4  5  1  0  0  0  0
  4  9  1  0  0  0  0
  5 10  1  0  0  0  0
  6  5  2  0  0  0  0
  7  1  1  0  0  0  0
  8  2  1  0  0  0  0
 11 12  3  0  0  0  0
 13 17  1  0  0  0  0
 13 14  1  0  0  0  0
 14 19  1  0  0  0  0
 14 18  1  0  0  0  0
 14 20  1  0  0  0  0
 15 13  2  0  0  0  0
 16 13  2  0  0  0  0
 21  6  1  0  0  0  0
 21 22  1  0  0  0  0
 22 24  1  0  0  0  0
 22 25  1  0  0  0  0
 23 22  1  0  0  0  0
M  END
