Coordinates from ORCA-job p-CH3O-Ph-N2-OTf-B3LYP-6-31G_dp-scan-d09-49-n400
 OpenBabel02121707583D

 25 24  0  0  0  0  0  0  0  0999 V2000
   -2.2143    0.1884   -7.3263 C   0  0  0  0  0  0  0  0  0  0  0  0
   -0.9082    0.6545   -7.3557 C   0  0  0  0  0  0  0  0  0  0  0  0
   -0.3067    1.0612   -6.1629 C   0  0  0  0  0  0  0  0  0  0  0  0
   -0.9636    0.9358   -4.9454 C   0  0  0  0  0  0  0  0  0  0  0  0
   -2.2816    0.4763   -4.9150 C   0  0  0  0  0  0  0  0  0  0  0  0
   -2.9149    0.1049   -6.1098 C   0  0  0  0  0  0  0  0  0  0  0  0
   -2.7183   -0.1212   -8.2355 H   0  0  0  0  0  0  0  0  0  0  0  0
   -0.3621    0.7241   -8.2894 H   0  0  0  0  0  0  0  0  0  0  0  0
   -0.4575    1.2284   -4.0318 H   0  0  0  0  0  0  0  0  0  0  0  0
   -2.7950    0.4078   -3.9634 H   0  0  0  0  0  0  0  0  0  0  0  0
   -0.9361    3.4029   -6.4672 N   0  0  0  0  0  0  0  0  0  0  0  0
   -1.9670    3.8061   -6.5073 N   0  0  0  0  0  0  0  0  0  0  0  0
    2.2887    0.5676   -6.4024 S   0  0  0  0  0  0  0  0  0  0  0  0
    2.5227   -0.0985   -4.6674 C   0  0  0  0  0  0  0  0  0  0  0  0
    1.9259   -0.5576   -7.2485 O   0  0  0  0  0  0  0  0  0  0  0  0
    3.4123    1.4416   -6.6761 O   0  0  0  0  0  0  0  0  0  0  0  0
    1.0111    1.5698   -6.1617 O   0  0  0  0  0  0  0  0  0  0  0  0
    1.5326   -0.9396   -4.3663 F   0  0  0  0  0  0  0  0  0  0  0  0
    3.6869   -0.7418   -4.6198 F   0  0  0  0  0  0  0  0  0  0  0  0
    2.5283    0.9098   -3.7950 F   0  0  0  0  0  0  0  0  0  0  0  0
   -4.1920   -0.3535   -6.1985 O   0  0  0  0  0  0  0  0  0  0  0  0
   -4.9532   -0.4750   -5.0048 C   0  0  0  0  0  0  0  0  0  0  0  0
   -5.9304   -0.8523   -5.3093 H   0  0  0  0  0  0  0  0  0  0  0  0
   -5.0791    0.4946   -4.5065 H   0  0  0  0  0  0  0  0  0  0  0  0
   -4.4939   -1.1844   -4.3041 H   0  0  0  0  0  0  0  0  0  0  0  0
  1  6  1  0  0  0  0
  2  1  2  0  0  0  0
  2  3  1  0  0  0  0
  3 17  1  0  0  0  0
  3  4  2  0  0  0  0
  4  5  1  0  0  0  0
  4  9  1  0  0  0  0
  5 10  1  0  0  0  0
  6  5  2  0  0  0  0
  7  1  1  0  0  0  0
  8  2  1  0  0  0  0
 12 11  3  0  0  0  0
 13 17  1  0  0  0  0
 13 14  1  0  0  0  0
 14 19  1  0  0  0  0
 14 18  1  0  0  0  0
 14 20  1  0  0  0  0
 15 13  2  0  0  0  0
 16 13  2  0  0  0  0
 21  6  1  0  0  0  0
 21 22  1  0  0  0  0
 22 24  1  0  0  0  0
 22 25  1  0  0  0  0
 23 22  1  0  0  0  0
M  END
