Coordinates from ORCA-job p-CH3O-Ph-N2-OTf-B3LYP-6-31G_dp-scan-d09-49-n400
 OpenBabel02121707583D

 25 24  0  0  0  0  0  0  0  0999 V2000
   -2.1445    0.1274   -7.3267 C   0  0  0  0  0  0  0  0  0  0  0  0
   -0.8169    0.5329   -7.3418 C   0  0  0  0  0  0  0  0  0  0  0  0
   -0.1998    0.8726   -6.1370 C   0  0  0  0  0  0  0  0  0  0  0  0
   -0.8882    0.8244   -4.9324 C   0  0  0  0  0  0  0  0  0  0  0  0
   -2.2269    0.4246   -4.9173 C   0  0  0  0  0  0  0  0  0  0  0  0
   -2.8589    0.0701   -6.1174 C   0  0  0  0  0  0  0  0  0  0  0  0
   -2.6553   -0.1485   -8.2430 H   0  0  0  0  0  0  0  0  0  0  0  0
   -0.2598    0.5828   -8.2704 H   0  0  0  0  0  0  0  0  0  0  0  0
   -0.3828    1.1038   -4.0141 H   0  0  0  0  0  0  0  0  0  0  0  0
   -2.7584    0.3955   -3.9736 H   0  0  0  0  0  0  0  0  0  0  0  0
   -1.8276    4.6455   -6.6260 N   0  0  0  0  0  0  0  0  0  0  0  0
   -2.9262    4.5409   -6.5655 N   0  0  0  0  0  0  0  0  0  0  0  0
    2.3968    0.3683   -6.3726 S   0  0  0  0  0  0  0  0  0  0  0  0
    2.6687   -0.2397   -4.6234 C   0  0  0  0  0  0  0  0  0  0  0  0
    2.0098   -0.7819   -7.1732 O   0  0  0  0  0  0  0  0  0  0  0  0
    3.5136    1.2320   -6.7018 O   0  0  0  0  0  0  0  0  0  0  0  0
    1.1217    1.3747   -6.1276 O   0  0  0  0  0  0  0  0  0  0  0  0
    1.6479   -1.0149   -4.2518 F   0  0  0  0  0  0  0  0  0  0  0  0
    3.7989   -0.9424   -4.5926 F   0  0  0  0  0  0  0  0  0  0  0  0
    2.7602    0.7994   -3.7946 F   0  0  0  0  0  0  0  0  0  0  0  0
   -4.1536   -0.3365   -6.2195 O   0  0  0  0  0  0  0  0  0  0  0  0
   -4.9315   -0.4231   -5.0342 C   0  0  0  0  0  0  0  0  0  0  0  0
   -5.9177   -0.7689   -5.3470 H   0  0  0  0  0  0  0  0  0  0  0  0
   -5.0300    0.5537   -4.5436 H   0  0  0  0  0  0  0  0  0  0  0  0
   -4.5052   -1.1427   -4.3230 H   0  0  0  0  0  0  0  0  0  0  0  0
  1  6  1  0  0  0  0
  2  1  2  0  0  0  0
  2  3  1  0  0  0  0
  3 17  1  0  0  0  0
  3  4  2  0  0  0  0
  4  5  1  0  0  0  0
  4  9  1  0  0  0  0
  5 10  1  0  0  0  0
  6  5  2  0  0  0  0
  7  1  1  0  0  0  0
  8  2  1  0  0  0  0
 11 12  3  0  0  0  0
 13 17  1  0  0  0  0
 13 14  1  0  0  0  0
 14 19  1  0  0  0  0
 14 18  1  0  0  0  0
 14 20  1  0  0  0  0
 15 13  2  0  0  0  0
 16 13  2  0  0  0  0
 21  6  1  0  0  0  0
 21 22  1  0  0  0  0
 22 24  1  0  0  0  0
 22 25  1  0  0  0  0
 23 22  1  0  0  0  0
M  END
