Coordinates from ORCA-job p-CH3O-Ph-N2-OTf-B3LYP-6-31G_dp-scan-d09-49-n400
 OpenBabel02121707583D

 25 24  0  0  0  0  0  0  0  0999 V2000
   -1.7703   -0.3942   -6.2627 C   0  0  0  0  0  0  0  0  0  0  0  0
   -0.8659    0.5776   -6.6084 C   0  0  0  0  0  0  0  0  0  0  0  0
   -1.1720    1.9441   -6.3084 C   0  0  0  0  0  0  0  0  0  0  0  0
   -2.3898    2.2824   -5.6532 C   0  0  0  0  0  0  0  0  0  0  0  0
   -3.2812    1.2926   -5.3084 C   0  0  0  0  0  0  0  0  0  0  0  0
   -2.9768   -0.0588   -5.6078 C   0  0  0  0  0  0  0  0  0  0  0  0
   -1.5616   -1.4388   -6.4648 H   0  0  0  0  0  0  0  0  0  0  0  0
    0.0820    0.3695   -7.0957 H   0  0  0  0  0  0  0  0  0  0  0  0
   -2.5971    3.3223   -5.4220 H   0  0  0  0  0  0  0  0  0  0  0  0
   -4.2027    1.5594   -4.8077 H   0  0  0  0  0  0  0  0  0  0  0  0
   -0.3700    2.8202   -6.5907 N   0  0  0  0  0  0  0  0  0  0  0  0
    0.3935    3.5966   -6.8691 N   0  0  0  0  0  0  0  0  0  0  0  0
    2.4923    1.1292   -5.9250 S   0  0  0  0  0  0  0  0  0  0  0  0
    2.7574   -0.7120   -5.8901 C   0  0  0  0  0  0  0  0  0  0  0  0
    1.9906    1.3472   -7.3195 O   0  0  0  0  0  0  0  0  0  0  0  0
    3.8072    1.6992   -5.6137 O   0  0  0  0  0  0  0  0  0  0  0  0
    1.4168    1.3312   -4.9147 O   0  0  0  0  0  0  0  0  0  0  0  0
    1.6042   -1.3597   -6.2069 F   0  0  0  0  0  0  0  0  0  0  0  0
    3.6888   -1.0890   -6.7744 F   0  0  0  0  0  0  0  0  0  0  0  0
    3.1323   -1.1276   -4.6729 F   0  0  0  0  0  0  0  0  0  0  0  0
   -3.7738   -1.0861   -5.3095 O   0  0  0  0  0  0  0  0  0  0  0  0
   -5.0085   -0.8627   -4.6157 C   0  0  0  0  0  0  0  0  0  0  0  0
   -5.4480   -1.8504   -4.4826 H   0  0  0  0  0  0  0  0  0  0  0  0
   -5.6833   -0.2364   -5.2091 H   0  0  0  0  0  0  0  0  0  0  0  0
   -4.8296   -0.4053   -3.6371 H   0  0  0  0  0  0  0  0  0  0  0  0
  1  6  2  0  0  0  0
  2  3  2  0  0  0  0
  2  1  1  0  0  0  0
  3  4  1  0  0  0  0
  4  9  1  0  0  0  0
  4  5  2  0  0  0  0
  5 10  1  0  0  0  0
  6 21  1  0  0  0  0
  6  5  1  0  0  0  0
  7  1  1  0  0  0  0
  8  2  1  0  0  0  0
 11  3  1  0  0  0  0
 12 11  1  0  0  0  0
 13 14  1  0  0  0  0
 13 16  2  0  0  0  0
 13 17  1  0  0  0  0
 14 20  1  0  0  0  0
 15 13  2  0  0  0  0
 18 14  1  0  0  0  0
 19 14  1  0  0  0  0
 21 22  1  0  0  0  0
 22 23  1  0  0  0  0
 22 25  1  0  0  0  0
 24 22  1  0  0  0  0
M  RAD  3  11   2  12   3  17   2
M  END
