Coordinates from ORCA-job p-CH3O-Ph-N2-OTf-B3LYP-6-31G_dp-scan-d09-49-n400
 OpenBabel02121707583D

 25 24  0  0  0  0  0  0  0  0999 V2000
   -2.1134    0.1149   -7.3298 C   0  0  0  0  0  0  0  0  0  0  0  0
   -0.7816    0.5061   -7.3452 C   0  0  0  0  0  0  0  0  0  0  0  0
   -0.1635    0.8491   -6.1418 C   0  0  0  0  0  0  0  0  0  0  0  0
   -0.8552    0.8187   -4.9384 C   0  0  0  0  0  0  0  0  0  0  0  0
   -2.1981    0.4331   -4.9232 C   0  0  0  0  0  0  0  0  0  0  0  0
   -2.8311    0.0752   -6.1218 C   0  0  0  0  0  0  0  0  0  0  0  0
   -2.6249   -0.1632   -8.2449 H   0  0  0  0  0  0  0  0  0  0  0  0
   -0.2218    0.5427   -8.2728 H   0  0  0  0  0  0  0  0  0  0  0  0
   -0.3490    1.1009   -4.0215 H   0  0  0  0  0  0  0  0  0  0  0  0
   -2.7322    0.4175   -3.9805 H   0  0  0  0  0  0  0  0  0  0  0  0
   -2.1463    4.9021   -6.6368 N   0  0  0  0  0  0  0  0  0  0  0  0
   -3.2071    4.6050   -6.5460 N   0  0  0  0  0  0  0  0  0  0  0  0
    2.4283    0.3169   -6.3660 S   0  0  0  0  0  0  0  0  0  0  0  0
    2.6810   -0.2894   -4.6132 C   0  0  0  0  0  0  0  0  0  0  0  0
    2.0343   -0.8312   -7.1664 O   0  0  0  0  0  0  0  0  0  0  0  0
    3.5568    1.1674   -6.6896 O   0  0  0  0  0  0  0  0  0  0  0  0
    1.1629    1.3385   -6.1335 O   0  0  0  0  0  0  0  0  0  0  0  0
    1.6529   -1.0586   -4.2496 F   0  0  0  0  0  0  0  0  0  0  0  0
    3.8072   -0.9978   -4.5709 F   0  0  0  0  0  0  0  0  0  0  0  0
    2.7702    0.7507   -3.7854 F   0  0  0  0  0  0  0  0  0  0  0  0
   -4.1296   -0.3190   -6.2236 O   0  0  0  0  0  0  0  0  0  0  0  0
   -4.9110   -0.3885   -5.0394 C   0  0  0  0  0  0  0  0  0  0  0  0
   -5.8995   -0.7283   -5.3516 H   0  0  0  0  0  0  0  0  0  0  0  0
   -5.0020    0.5933   -4.5573 H   0  0  0  0  0  0  0  0  0  0  0  0
   -4.4928   -1.1058   -4.3210 H   0  0  0  0  0  0  0  0  0  0  0  0
  1  6  1  0  0  0  0
  2  1  2  0  0  0  0
  2  3  1  0  0  0  0
  3 17  1  0  0  0  0
  3  4  2  0  0  0  0
  4  5  1  0  0  0  0
  4  9  1  0  0  0  0
  5 10  1  0  0  0  0
  6  5  2  0  0  0  0
  7  1  1  0  0  0  0
  8  2  1  0  0  0  0
 11 12  3  0  0  0  0
 13 17  1  0  0  0  0
 13 14  1  0  0  0  0
 14 19  1  0  0  0  0
 14 18  1  0  0  0  0
 14 20  1  0  0  0  0
 15 13  2  0  0  0  0
 16 13  2  0  0  0  0
 21  6  1  0  0  0  0
 21 22  1  0  0  0  0
 22 24  1  0  0  0  0
 22 25  1  0  0  0  0
 23 22  1  0  0  0  0
M  END
