Coordinates from ORCA-job p-CH3O-Ph-N2-OTf-B3LYP-6-31G_dp-scan-d09-49-n400
 OpenBabel02121707583D

 25 24  0  0  0  0  0  0  0  0999 V2000
   -2.1036    0.1093   -7.3315 C   0  0  0  0  0  0  0  0  0  0  0  0
   -0.7707    0.4966   -7.3475 C   0  0  0  0  0  0  0  0  0  0  0  0
   -0.1522    0.8415   -6.1450 C   0  0  0  0  0  0  0  0  0  0  0  0
   -0.8444    0.8168   -4.9418 C   0  0  0  0  0  0  0  0  0  0  0  0
   -2.1884    0.4352   -4.9259 C   0  0  0  0  0  0  0  0  0  0  0  0
   -2.8219    0.0754   -6.1236 C   0  0  0  0  0  0  0  0  0  0  0  0
   -2.6156   -0.1702   -8.2460 H   0  0  0  0  0  0  0  0  0  0  0  0
   -0.2103    0.5284   -8.2750 H   0  0  0  0  0  0  0  0  0  0  0  0
   -0.3377    1.1003   -4.0255 H   0  0  0  0  0  0  0  0  0  0  0  0
   -2.7230    0.4241   -3.9835 H   0  0  0  0  0  0  0  0  0  0  0  0
   -2.2505    4.9950   -6.6376 N   0  0  0  0  0  0  0  0  0  0  0  0
   -3.2913    4.6364   -6.5377 N   0  0  0  0  0  0  0  0  0  0  0  0
    2.4377    0.2989   -6.3639 S   0  0  0  0  0  0  0  0  0  0  0  0
    2.6831   -0.3044   -4.6090 C   0  0  0  0  0  0  0  0  0  0  0  0
    2.0413   -0.8494   -7.1627 O   0  0  0  0  0  0  0  0  0  0  0  0
    3.5707    1.1439   -6.6863 O   0  0  0  0  0  0  0  0  0  0  0  0
    1.1760    1.3264   -6.1377 O   0  0  0  0  0  0  0  0  0  0  0  0
    1.6530   -1.0721   -4.2478 F   0  0  0  0  0  0  0  0  0  0  0  0
    3.8085   -1.0135   -4.5610 F   0  0  0  0  0  0  0  0  0  0  0  0
    2.7700    0.7373   -3.7827 F   0  0  0  0  0  0  0  0  0  0  0  0
   -4.1215   -0.3154   -6.2247 O   0  0  0  0  0  0  0  0  0  0  0  0
   -4.9034   -0.3798   -5.0404 C   0  0  0  0  0  0  0  0  0  0  0  0
   -5.8924   -0.7187   -5.3519 H   0  0  0  0  0  0  0  0  0  0  0  0
   -4.9927    0.6037   -4.5616 H   0  0  0  0  0  0  0  0  0  0  0  0
   -4.4867   -1.0955   -4.3197 H   0  0  0  0  0  0  0  0  0  0  0  0
  1  6  1  0  0  0  0
  2  1  2  0  0  0  0
  2  3  1  0  0  0  0
  3 17  1  0  0  0  0
  3  4  2  0  0  0  0
  4  5  1  0  0  0  0
  4  9  1  0  0  0  0
  5 10  1  0  0  0  0
  6  5  2  0  0  0  0
  7  1  1  0  0  0  0
  8  2  1  0  0  0  0
 11 12  3  0  0  0  0
 13 17  1  0  0  0  0
 13 14  1  0  0  0  0
 14 19  1  0  0  0  0
 14 18  1  0  0  0  0
 14 20  1  0  0  0  0
 15 13  2  0  0  0  0
 16 13  2  0  0  0  0
 21  6  1  0  0  0  0
 21 22  1  0  0  0  0
 22 24  1  0  0  0  0
 22 25  1  0  0  0  0
 23 22  1  0  0  0  0
M  END
