Coordinates from ORCA-job p-CH3O-Ph-N2-OTf-B3LYP-6-31G_dp-scan-d09-49-n400
 OpenBabel02121707583D

 25 24  0  0  0  0  0  0  0  0999 V2000
   -2.2166    0.1632   -7.3252 C   0  0  0  0  0  0  0  0  0  0  0  0
   -0.9019    0.6077   -7.3447 C   0  0  0  0  0  0  0  0  0  0  0  0
   -0.2919    0.9690   -6.1425 C   0  0  0  0  0  0  0  0  0  0  0  0
   -0.9690    0.8829   -4.9335 C   0  0  0  0  0  0  0  0  0  0  0  0
   -2.2953    0.4447   -4.9138 C   0  0  0  0  0  0  0  0  0  0  0  0
   -2.9241    0.0815   -6.1131 C   0  0  0  0  0  0  0  0  0  0  0  0
   -2.7229   -0.1253   -8.2400 H   0  0  0  0  0  0  0  0  0  0  0  0
   -0.3509    0.6780   -8.2755 H   0  0  0  0  0  0  0  0  0  0  0  0
   -0.4666    1.1709   -4.0163 H   0  0  0  0  0  0  0  0  0  0  0  0
   -2.8196    0.3920   -3.9671 H   0  0  0  0  0  0  0  0  0  0  0  0
   -1.0476    3.7199   -6.4982 N   0  0  0  0  0  0  0  0  0  0  0  0
   -2.1015    4.0547   -6.5148 N   0  0  0  0  0  0  0  0  0  0  0  0
    2.3126    0.5279   -6.3974 S   0  0  0  0  0  0  0  0  0  0  0  0
    2.6021   -0.1017   -4.6586 C   0  0  0  0  0  0  0  0  0  0  0  0
    1.9509   -0.6185   -7.2154 O   0  0  0  0  0  0  0  0  0  0  0  0
    3.4090    1.4214   -6.7148 O   0  0  0  0  0  0  0  0  0  0  0  0
    1.0163    1.5017   -6.1351 O   0  0  0  0  0  0  0  0  0  0  0  0
    1.6022   -0.9087   -4.2983 F   0  0  0  0  0  0  0  0  0  0  0  0
    3.7499   -0.7754   -4.6403 F   0  0  0  0  0  0  0  0  0  0  0  0
    2.6681    0.9260   -3.8131 F   0  0  0  0  0  0  0  0  0  0  0  0
   -4.2076   -0.3589   -6.2114 O   0  0  0  0  0  0  0  0  0  0  0  0
   -4.9775   -0.4730   -5.0230 C   0  0  0  0  0  0  0  0  0  0  0  0
   -5.9564   -0.8406   -5.3337 H   0  0  0  0  0  0  0  0  0  0  0  0
   -5.0975    0.4976   -4.5250 H   0  0  0  0  0  0  0  0  0  0  0  0
   -4.5300   -1.1868   -4.3191 H   0  0  0  0  0  0  0  0  0  0  0  0
  1  6  1  0  0  0  0
  2  1  2  0  0  0  0
  2  3  1  0  0  0  0
  3 17  1  0  0  0  0
  3  4  2  0  0  0  0
  4  5  1  0  0  0  0
  4  9  1  0  0  0  0
  5 10  1  0  0  0  0
  6  5  2  0  0  0  0
  7  1  1  0  0  0  0
  8  2  1  0  0  0  0
 12 11  3  0  0  0  0
 13 17  1  0  0  0  0
 13 14  1  0  0  0  0
 14 19  1  0  0  0  0
 14 18  1  0  0  0  0
 14 20  1  0  0  0  0
 15 13  2  0  0  0  0
 16 13  2  0  0  0  0
 21  6  1  0  0  0  0
 21 22  1  0  0  0  0
 22 24  1  0  0  0  0
 22 25  1  0  0  0  0
 23 22  1  0  0  0  0
M  END
