Coordinates from ORCA-job p-CH3O-Ph-N2-OTf-B3LYP-6-31G_dp-scan-d09-49-n400
 OpenBabel02121707583D

 25 24  0  0  0  0  0  0  0  0999 V2000
   -2.2116    0.1542   -7.3250 C   0  0  0  0  0  0  0  0  0  0  0  0
   -0.8944    0.5919   -7.3416 C   0  0  0  0  0  0  0  0  0  0  0  0
   -0.2828    0.9428   -6.1372 C   0  0  0  0  0  0  0  0  0  0  0  0
   -0.9646    0.8652   -4.9303 C   0  0  0  0  0  0  0  0  0  0  0  0
   -2.2933    0.4337   -4.9136 C   0  0  0  0  0  0  0  0  0  0  0  0
   -2.9213    0.0737   -6.1142 C   0  0  0  0  0  0  0  0  0  0  0  0
   -2.7182   -0.1289   -8.2413 H   0  0  0  0  0  0  0  0  0  0  0  0
   -0.3419    0.6619   -8.2716 H   0  0  0  0  0  0  0  0  0  0  0  0
   -0.4629    1.1510   -4.0120 H   0  0  0  0  0  0  0  0  0  0  0  0
   -2.8203    0.3849   -3.9682 H   0  0  0  0  0  0  0  0  0  0  0  0
   -1.1267    3.8757   -6.5167 N   0  0  0  0  0  0  0  0  0  0  0  0
   -2.1951    4.1602   -6.5228 N   0  0  0  0  0  0  0  0  0  0  0  0
    2.3226    0.5046   -6.3942 S   0  0  0  0  0  0  0  0  0  0  0  0
    2.6257   -0.1120   -4.6533 C   0  0  0  0  0  0  0  0  0  0  0  0
    1.9570   -0.6479   -7.2016 O   0  0  0  0  0  0  0  0  0  0  0  0
    3.4148    1.3983   -6.7257 O   0  0  0  0  0  0  0  0  0  0  0  0
    1.0254    1.4765   -6.1278 O   0  0  0  0  0  0  0  0  0  0  0  0
    1.6217   -0.9060   -4.2752 F   0  0  0  0  0  0  0  0  0  0  0  0
    3.7669   -0.7971   -4.6416 F   0  0  0  0  0  0  0  0  0  0  0  0
    2.7111    0.9222   -3.8179 F   0  0  0  0  0  0  0  0  0  0  0  0
   -4.2068   -0.3607   -6.2152 O   0  0  0  0  0  0  0  0  0  0  0  0
   -4.9794   -0.4714   -5.0283 C   0  0  0  0  0  0  0  0  0  0  0  0
   -5.9593   -0.8350   -5.3408 H   0  0  0  0  0  0  0  0  0  0  0  0
   -5.0962    0.4997   -4.5305 H   0  0  0  0  0  0  0  0  0  0  0  0
   -4.5362   -1.1871   -4.3234 H   0  0  0  0  0  0  0  0  0  0  0  0
  1  6  1  0  0  0  0
  2  1  2  0  0  0  0
  2  3  1  0  0  0  0
  3 17  1  0  0  0  0
  3  4  2  0  0  0  0
  4  5  1  0  0  0  0
  4  9  1  0  0  0  0
  5 10  1  0  0  0  0
  6  5  2  0  0  0  0
  7  1  1  0  0  0  0
  8  2  1  0  0  0  0
 12 11  3  0  0  0  0
 13 17  1  0  0  0  0
 13 14  1  0  0  0  0
 14 19  1  0  0  0  0
 14 18  1  0  0  0  0
 14 20  1  0  0  0  0
 15 13  2  0  0  0  0
 16 13  2  0  0  0  0
 21  6  1  0  0  0  0
 21 22  1  0  0  0  0
 22 24  1  0  0  0  0
 22 25  1  0  0  0  0
 23 22  1  0  0  0  0
M  END
