Coordinates from ORCA-job p-CH3O-Ph-N2-OTf-B3LYP-6-31G_dp-scan-d09-49-n400
 OpenBabel02121707583D

 25 24  0  0  0  0  0  0  0  0999 V2000
   -1.8596   -0.4746   -6.0361 C   0  0  0  0  0  0  0  0  0  0  0  0
   -0.9103    0.4730   -6.3662 C   0  0  0  0  0  0  0  0  0  0  0  0
   -1.2684    1.8130   -6.1685 C   0  0  0  0  0  0  0  0  0  0  0  0
   -2.4952    2.2410   -5.6686 C   0  0  0  0  0  0  0  0  0  0  0  0
   -3.4326    1.2711   -5.3381 C   0  0  0  0  0  0  0  0  0  0  0  0
   -3.1170   -0.0912   -5.5196 C   0  0  0  0  0  0  0  0  0  0  0  0
   -1.6490   -1.5315   -6.1567 H   0  0  0  0  0  0  0  0  0  0  0  0
    0.0664    0.2149   -6.7543 H   0  0  0  0  0  0  0  0  0  0  0  0
   -2.7062    3.2960   -5.5353 H   0  0  0  0  0  0  0  0  0  0  0  0
   -4.3927    1.5754   -4.9425 H   0  0  0  0  0  0  0  0  0  0  0  0
   -0.2634    2.8449   -6.5147 N   0  0  0  0  0  0  0  0  0  0  0  0
    0.7147    3.2889   -6.8439 N   0  0  0  0  0  0  0  0  0  0  0  0
    2.7144    1.2173   -5.9263 S   0  0  0  0  0  0  0  0  0  0  0  0
    2.9782   -0.6210   -6.0782 C   0  0  0  0  0  0  0  0  0  0  0  0
    2.0739    1.5225   -7.2666 O   0  0  0  0  0  0  0  0  0  0  0  0
    4.0560    1.7716   -5.7316 O   0  0  0  0  0  0  0  0  0  0  0  0
    1.7400    1.3572   -4.8203 O   0  0  0  0  0  0  0  0  0  0  0  0
    1.7999   -1.2513   -6.3147 F   0  0  0  0  0  0  0  0  0  0  0  0
    3.8069   -0.9090   -7.0864 F   0  0  0  0  0  0  0  0  0  0  0  0
    3.4863   -1.1191   -4.9456 F   0  0  0  0  0  0  0  0  0  0  0  0
   -3.9513   -1.1047   -5.2311 O   0  0  0  0  0  0  0  0  0  0  0  0
   -5.2411   -0.8202   -4.6855 C   0  0  0  0  0  0  0  0  0  0  0  0
   -5.7141   -1.7897   -4.5312 H   0  0  0  0  0  0  0  0  0  0  0  0
   -5.8436   -0.2262   -5.3825 H   0  0  0  0  0  0  0  0  0  0  0  0
   -5.1582   -0.2979   -3.7256 H   0  0  0  0  0  0  0  0  0  0  0  0
  1  6  2  0  0  0  0
  2  3  2  0  0  0  0
  2  1  1  0  0  0  0
  3  4  1  0  0  0  0
  4  9  1  0  0  0  0
  4  5  2  0  0  0  0
  5 10  1  0  0  0  0
  6  5  1  0  0  0  0
  6 21  1  0  0  0  0
  7  1  1  0  0  0  0
  8  2  1  0  0  0  0
 11  3  1  0  0  0  0
 12 11  1  0  0  0  0
 13 16  2  0  0  0  0
 13 17  1  0  0  0  0
 14 13  1  0  0  0  0
 14 20  1  0  0  0  0
 15 13  2  0  0  0  0
 18 14  1  0  0  0  0
 19 14  1  0  0  0  0
 21 22  1  0  0  0  0
 22 23  1  0  0  0  0
 22 25  1  0  0  0  0
 24 22  1  0  0  0  0
M  RAD  3  11   2  12   3  17   2
M  END
