Coordinates from ORCA-job p-CH3O-Ph-N2-OTf-B3LYP-6-31G_dp-scan-d09-49-n400
 OpenBabel02121707583D

 25 24  0  0  0  0  0  0  0  0999 V2000
   -2.2133    0.1561   -7.3250 C   0  0  0  0  0  0  0  0  0  0  0  0
   -0.8969    0.5956   -7.3424 C   0  0  0  0  0  0  0  0  0  0  0  0
   -0.2856    0.9491   -6.1385 C   0  0  0  0  0  0  0  0  0  0  0  0
   -0.9663    0.8696   -4.9311 C   0  0  0  0  0  0  0  0  0  0  0  0
   -2.2943    0.4362   -4.9136 C   0  0  0  0  0  0  0  0  0  0  0  0
   -2.9224    0.0752   -6.1139 C   0  0  0  0  0  0  0  0  0  0  0  0
   -2.7198   -0.1284   -8.2410 H   0  0  0  0  0  0  0  0  0  0  0  0
   -0.3448    0.6658   -8.2726 H   0  0  0  0  0  0  0  0  0  0  0  0
   -0.4647    1.1561   -4.0131 H   0  0  0  0  0  0  0  0  0  0  0  0
   -2.8207    0.3865   -3.9680 H   0  0  0  0  0  0  0  0  0  0  0  0
   -1.1022    3.8381   -6.5119 N   0  0  0  0  0  0  0  0  0  0  0  0
   -2.1670    4.1358   -6.5204 N   0  0  0  0  0  0  0  0  0  0  0  0
    2.3196    0.5106   -6.3951 S   0  0  0  0  0  0  0  0  0  0  0  0
    2.6198   -0.1087   -4.6546 C   0  0  0  0  0  0  0  0  0  0  0  0
    1.9550   -0.6406   -7.2048 O   0  0  0  0  0  0  0  0  0  0  0  0
    3.4126    1.4044   -6.7236 O   0  0  0  0  0  0  0  0  0  0  0  0
    1.0225    1.4828   -6.1297 O   0  0  0  0  0  0  0  0  0  0  0  0
    1.6169   -0.9057   -4.2804 F   0  0  0  0  0  0  0  0  0  0  0  0
    3.7626   -0.7911   -4.6415 F   0  0  0  0  0  0  0  0  0  0  0  0
    2.7008    0.9241   -3.8170 F   0  0  0  0  0  0  0  0  0  0  0  0
   -4.2074   -0.3610   -6.2143 O   0  0  0  0  0  0  0  0  0  0  0  0
   -4.9793   -0.4728   -5.0270 C   0  0  0  0  0  0  0  0  0  0  0  0
   -5.9588   -0.8376   -5.3390 H   0  0  0  0  0  0  0  0  0  0  0  0
   -5.0971    0.4982   -4.5291 H   0  0  0  0  0  0  0  0  0  0  0  0
   -4.5348   -1.1879   -4.3224 H   0  0  0  0  0  0  0  0  0  0  0  0
  1  6  1  0  0  0  0
  2  1  2  0  0  0  0
  2  3  1  0  0  0  0
  3 17  1  0  0  0  0
  3  4  2  0  0  0  0
  4  5  1  0  0  0  0
  4  9  1  0  0  0  0
  5 10  1  0  0  0  0
  6  5  2  0  0  0  0
  7  1  1  0  0  0  0
  8  2  1  0  0  0  0
 12 11  3  0  0  0  0
 13 17  1  0  0  0  0
 13 14  1  0  0  0  0
 14 19  1  0  0  0  0
 14 18  1  0  0  0  0
 14 20  1  0  0  0  0
 15 13  2  0  0  0  0
 16 13  2  0  0  0  0
 21  6  1  0  0  0  0
 21 22  1  0  0  0  0
 22 24  1  0  0  0  0
 22 25  1  0  0  0  0
 23 22  1  0  0  0  0
M  END
