Coordinates from ORCA-job p-CH3O-Ph-N2-OTf-B3LYP-6-31G_dp-scan-d09-49-n400
 OpenBabel02121707583D

 25 24  0  0  0  0  0  0  0  0999 V2000
   -2.1894    0.1404   -7.3245 C   0  0  0  0  0  0  0  0  0  0  0  0
   -0.8684    0.5671   -7.3398 C   0  0  0  0  0  0  0  0  0  0  0  0
   -0.2546    0.9111   -6.1344 C   0  0  0  0  0  0  0  0  0  0  0  0
   -0.9405    0.8460   -4.9289 C   0  0  0  0  0  0  0  0  0  0  0  0
   -2.2727    0.4252   -4.9137 C   0  0  0  0  0  0  0  0  0  0  0  0
   -2.9010    0.0665   -6.1145 C   0  0  0  0  0  0  0  0  0  0  0  0
   -2.6969   -0.1398   -8.2412 H   0  0  0  0  0  0  0  0  0  0  0  0
   -0.3138    0.6306   -8.2690 H   0  0  0  0  0  0  0  0  0  0  0  0
   -0.4382    1.1296   -4.0103 H   0  0  0  0  0  0  0  0  0  0  0  0
   -2.8019    0.3832   -3.9693 H   0  0  0  0  0  0  0  0  0  0  0  0
   -1.3624    4.1992   -6.5659 N   0  0  0  0  0  0  0  0  0  0  0  0
   -2.4568    4.3539   -6.5489 N   0  0  0  0  0  0  0  0  0  0  0  0
    2.3484    0.4526   -6.3859 S   0  0  0  0  0  0  0  0  0  0  0  0
    2.6466   -0.1578   -4.6421 C   0  0  0  0  0  0  0  0  0  0  0  0
    1.9741   -0.7008   -7.1880 O   0  0  0  0  0  0  0  0  0  0  0  0
    3.4471    1.3368   -6.7214 O   0  0  0  0  0  0  0  0  0  0  0  0
    1.0580    1.4351   -6.1240 O   0  0  0  0  0  0  0  0  0  0  0  0
    1.6353   -0.9405   -4.2597 F   0  0  0  0  0  0  0  0  0  0  0  0
    3.7814   -0.8536   -4.6273 F   0  0  0  0  0  0  0  0  0  0  0  0
    2.7420    0.8796   -3.8119 F   0  0  0  0  0  0  0  0  0  0  0  0
   -4.1893   -0.3598   -6.2166 O   0  0  0  0  0  0  0  0  0  0  0  0
   -4.9642   -0.4630   -5.0306 C   0  0  0  0  0  0  0  0  0  0  0  0
   -5.9459   -0.8215   -5.3436 H   0  0  0  0  0  0  0  0  0  0  0  0
   -5.0760    0.5100   -4.5352 H   0  0  0  0  0  0  0  0  0  0  0  0
   -4.5265   -1.1797   -4.3233 H   0  0  0  0  0  0  0  0  0  0  0  0
  1  6  1  0  0  0  0
  2  1  2  0  0  0  0
  2  3  1  0  0  0  0
  3 17  1  0  0  0  0
  3  4  2  0  0  0  0
  4  5  1  0  0  0  0
  4  9  1  0  0  0  0
  5 10  1  0  0  0  0
  6  5  2  0  0  0  0
  7  1  1  0  0  0  0
  8  2  1  0  0  0  0
 11 12  3  0  0  0  0
 13 17  1  0  0  0  0
 13 14  1  0  0  0  0
 14 19  1  0  0  0  0
 14 18  1  0  0  0  0
 14 20  1  0  0  0  0
 15 13  2  0  0  0  0
 16 13  2  0  0  0  0
 21  6  1  0  0  0  0
 21 22  1  0  0  0  0
 22 24  1  0  0  0  0
 22 25  1  0  0  0  0
 23 22  1  0  0  0  0
M  END
