Coordinates from ORCA-job p-CH3O-Ph-N2-OTf-B3LYP-6-31G_dp-scan-d09-49-n400
 OpenBabel02121707583D

 25 24  0  0  0  0  0  0  0  0999 V2000
   -2.2177    0.1684   -7.3251 C   0  0  0  0  0  0  0  0  0  0  0  0
   -0.9042    0.6161   -7.3461 C   0  0  0  0  0  0  0  0  0  0  0  0
   -0.2952    0.9833   -6.1452 C   0  0  0  0  0  0  0  0  0  0  0  0
   -0.9695    0.8920   -4.9350 C   0  0  0  0  0  0  0  0  0  0  0  0
   -2.2946    0.4505   -4.9136 C   0  0  0  0  0  0  0  0  0  0  0  0
   -2.9240    0.0860   -6.1123 C   0  0  0  0  0  0  0  0  0  0  0  0
   -2.7238   -0.1230   -8.2391 H   0  0  0  0  0  0  0  0  0  0  0  0
   -0.3540    0.6867   -8.2773 H   0  0  0  0  0  0  0  0  0  0  0  0
   -0.4664    1.1806   -4.0184 H   0  0  0  0  0  0  0  0  0  0  0  0
   -2.8174    0.3955   -3.9663 H   0  0  0  0  0  0  0  0  0  0  0  0
   -1.0197    3.6497   -6.4918 N   0  0  0  0  0  0  0  0  0  0  0  0
   -2.0670    4.0047   -6.5150 N   0  0  0  0  0  0  0  0  0  0  0  0
    2.3084    0.5378   -6.3985 S   0  0  0  0  0  0  0  0  0  0  0  0
    2.5893   -0.0993   -4.6608 C   0  0  0  0  0  0  0  0  0  0  0  0
    1.9481   -0.6047   -7.2224 O   0  0  0  0  0  0  0  0  0  0  0  0
    3.4081    1.4301   -6.7077 O   0  0  0  0  0  0  0  0  0  0  0  0
    1.0136    1.5140   -6.1387 O   0  0  0  0  0  0  0  0  0  0  0  0
    1.5915   -0.9132   -4.3111 F   0  0  0  0  0  0  0  0  0  0  0  0
    3.7405   -0.7672   -4.6385 F   0  0  0  0  0  0  0  0  0  0  0  0
    2.6447    0.9245   -3.8097 F   0  0  0  0  0  0  0  0  0  0  0  0
   -4.2066   -0.3572   -6.2092 O   0  0  0  0  0  0  0  0  0  0  0  0
   -4.9750   -0.4731   -5.0200 C   0  0  0  0  0  0  0  0  0  0  0  0
   -5.9535   -0.8426   -5.3297 H   0  0  0  0  0  0  0  0  0  0  0  0
   -5.0962    0.4971   -4.5216 H   0  0  0  0  0  0  0  0  0  0  0  0
   -4.5252   -1.1863   -4.3168 H   0  0  0  0  0  0  0  0  0  0  0  0
  1  6  1  0  0  0  0
  2  1  2  0  0  0  0
  2  3  1  0  0  0  0
  3 17  1  0  0  0  0
  3  4  2  0  0  0  0
  4  5  1  0  0  0  0
  4  9  1  0  0  0  0
  5 10  1  0  0  0  0
  6  5  2  0  0  0  0
  7  1  1  0  0  0  0
  8  2  1  0  0  0  0
 12 11  3  0  0  0  0
 13 17  1  0  0  0  0
 13 14  1  0  0  0  0
 14 19  1  0  0  0  0
 14 18  1  0  0  0  0
 14 20  1  0  0  0  0
 15 13  2  0  0  0  0
 16 13  2  0  0  0  0
 21  6  1  0  0  0  0
 21 22  1  0  0  0  0
 22 24  1  0  0  0  0
 22 25  1  0  0  0  0
 23 22  1  0  0  0  0
M  END
