Coordinates from ORCA-job p-CH3O-Ph-N2-OTf-B3LYP-6-31G_dp-scan-d09-49-n400
 OpenBabel02121707583D

 25 24  0  0  0  0  0  0  0  0999 V2000
   -1.8270   -0.4101   -6.1341 C   0  0  0  0  0  0  0  0  0  0  0  0
   -0.9064    0.5780   -6.4647 C   0  0  0  0  0  0  0  0  0  0  0  0
   -1.3408    1.8525   -6.1787 C   0  0  0  0  0  0  0  0  0  0  0  0
   -2.5224    2.2824   -5.6309 C   0  0  0  0  0  0  0  0  0  0  0  0
   -3.4211    1.2594   -5.3116 C   0  0  0  0  0  0  0  0  0  0  0  0
   -3.0744   -0.0826   -5.5611 C   0  0  0  0  0  0  0  0  0  0  0  0
   -1.5857   -1.4540   -6.3026 H   0  0  0  0  0  0  0  0  0  0  0  0
    0.0708    0.3823   -6.8928 H   0  0  0  0  0  0  0  0  0  0  0  0
   -2.7448    3.3262   -5.4496 H   0  0  0  0  0  0  0  0  0  0  0  0
   -4.3745    1.5221   -4.8721 H   0  0  0  0  0  0  0  0  0  0  0  0
   -0.1985    3.0915   -6.5789 N   0  0  0  0  0  0  0  0  0  0  0  0
    0.8310    3.3703   -6.9158 N   0  0  0  0  0  0  0  0  0  0  0  0
    2.6924    1.1786   -5.9465 S   0  0  0  0  0  0  0  0  0  0  0  0
    2.8317   -0.6802   -5.9565 C   0  0  0  0  0  0  0  0  0  0  0  0
    2.0121    1.4193   -7.2830 O   0  0  0  0  0  0  0  0  0  0  0  0
    4.0751    1.6535   -5.8620 O   0  0  0  0  0  0  0  0  0  0  0  0
    1.7836    1.4752   -4.8186 O   0  0  0  0  0  0  0  0  0  0  0  0
    1.6103   -1.2468   -6.1244 F   0  0  0  0  0  0  0  0  0  0  0  0
    3.6189   -1.1000   -6.9518 F   0  0  0  0  0  0  0  0  0  0  0  0
    3.3300   -1.1202   -4.7961 F   0  0  0  0  0  0  0  0  0  0  0  0
   -3.8722   -1.1348   -5.2865 O   0  0  0  0  0  0  0  0  0  0  0  0
   -5.1428   -0.9047   -4.6792 C   0  0  0  0  0  0  0  0  0  0  0  0
   -5.5874   -1.8905   -4.5440 H   0  0  0  0  0  0  0  0  0  0  0  0
   -5.7893   -0.2992   -5.3260 H   0  0  0  0  0  0  0  0  0  0  0  0
   -5.0345   -0.4179   -3.7026 H   0  0  0  0  0  0  0  0  0  0  0  0
  1  6  2  0  0  0  0
  2  3  2  0  0  0  0
  2  1  1  0  0  0  0
  3  4  1  0  0  0  0
  4  9  1  0  0  0  0
  4  5  2  0  0  0  0
  5 10  1  0  0  0  0
  6  5  1  0  0  0  0
  6 21  1  0  0  0  0
  7  1  1  0  0  0  0
  8  2  1  0  0  0  0
 11  3  1  0  0  0  0
 12 11  2  0  0  0  0
 13 16  2  0  0  0  0
 13 17  1  0  0  0  0
 14 13  1  0  0  0  0
 14 20  1  0  0  0  0
 15 13  2  0  0  0  0
 18 14  1  0  0  0  0
 19 14  1  0  0  0  0
 21 22  1  0  0  0  0
 22 23  1  0  0  0  0
 22 25  1  0  0  0  0
 24 22  1  0  0  0  0
M  RAD  2  12   2  17   2
M  END
