Coordinates from ORCA-job p-CH3O-Ph-N2-OTf-B3LYP-6-31G_dp-scan-d09-49-n400
 OpenBabel02121707583D

 25 24  0  0  0  0  0  0  0  0999 V2000
   -1.8131   -0.3902   -6.1582 C   0  0  0  0  0  0  0  0  0  0  0  0
   -0.9009    0.6090   -6.4872 C   0  0  0  0  0  0  0  0  0  0  0  0
   -1.3538    1.8666   -6.1793 C   0  0  0  0  0  0  0  0  0  0  0  0
   -2.5254    2.2944   -5.6177 C   0  0  0  0  0  0  0  0  0  0  0  0
   -3.4131    1.2578   -5.3033 C   0  0  0  0  0  0  0  0  0  0  0  0
   -3.0580   -0.0785   -5.5714 C   0  0  0  0  0  0  0  0  0  0  0  0
   -1.5628   -1.4300   -6.3391 H   0  0  0  0  0  0  0  0  0  0  0  0
    0.0779    0.4306   -6.9231 H   0  0  0  0  0  0  0  0  0  0  0  0
   -2.7516    3.3345   -5.4227 H   0  0  0  0  0  0  0  0  0  0  0  0
   -4.3646    1.5088   -4.8529 H   0  0  0  0  0  0  0  0  0  0  0  0
   -0.1829    3.1456   -6.5907 N   0  0  0  0  0  0  0  0  0  0  0  0
    0.8456    3.4078   -6.9362 N   0  0  0  0  0  0  0  0  0  0  0  0
    2.6747    1.1628   -5.9615 S   0  0  0  0  0  0  0  0  0  0  0  0
    2.7880   -0.6972   -5.9239 C   0  0  0  0  0  0  0  0  0  0  0  0
    2.0018    1.3832   -7.3027 O   0  0  0  0  0  0  0  0  0  0  0  0
    4.0640    1.6199   -5.8831 O   0  0  0  0  0  0  0  0  0  0  0  0
    1.7687    1.4975   -4.8411 O   0  0  0  0  0  0  0  0  0  0  0  0
    1.5602   -1.2508   -6.0921 F   0  0  0  0  0  0  0  0  0  0  0  0
    3.5795   -1.1530   -6.9000 F   0  0  0  0  0  0  0  0  0  0  0  0
    3.2671   -1.1168   -4.7478 F   0  0  0  0  0  0  0  0  0  0  0  0
   -3.8455   -1.1402   -5.3017 O   0  0  0  0  0  0  0  0  0  0  0  0
   -5.1107   -0.9263   -4.6779 C   0  0  0  0  0  0  0  0  0  0  0  0
   -5.5465   -1.9169   -4.5486 H   0  0  0  0  0  0  0  0  0  0  0  0
   -5.7692   -0.3189   -5.3107 H   0  0  0  0  0  0  0  0  0  0  0  0
   -4.9951   -0.4495   -3.6972 H   0  0  0  0  0  0  0  0  0  0  0  0
  1  6  2  0  0  0  0
  2  3  2  0  0  0  0
  2  1  1  0  0  0  0
  3  4  1  0  0  0  0
  4  9  1  0  0  0  0
  4  5  2  0  0  0  0
  5 10  1  0  0  0  0
  6  5  1  0  0  0  0
  6 21  1  0  0  0  0
  7  1  1  0  0  0  0
  8  2  1  0  0  0  0
 11  3  1  0  0  0  0
 12 11  2  0  0  0  0
 13 14  1  0  0  0  0
 13 16  2  0  0  0  0
 13 17  1  0  0  0  0
 14 20  1  0  0  0  0
 15 13  2  0  0  0  0
 18 14  1  0  0  0  0
 19 14  1  0  0  0  0
 21 22  1  0  0  0  0
 22 23  1  0  0  0  0
 22 25  1  0  0  0  0
 24 22  1  0  0  0  0
M  RAD  2  12   2  17   2
M  END
