Coordinates from ORCA-job p-CH3O-Ph-N2-OTf-B3LYP-6-31G_dp-scan-d09-49-n400
 OpenBabel02121707583D

 25 24  0  0  0  0  0  0  0  0999 V2000
   -2.1194    0.1175   -7.3290 C   0  0  0  0  0  0  0  0  0  0  0  0
   -0.7884    0.5114   -7.3441 C   0  0  0  0  0  0  0  0  0  0  0  0
   -0.1704    0.8529   -6.1402 C   0  0  0  0  0  0  0  0  0  0  0  0
   -0.8616    0.8187   -4.9367 C   0  0  0  0  0  0  0  0  0  0  0  0
   -2.2038    0.4305   -4.9217 C   0  0  0  0  0  0  0  0  0  0  0  0
   -2.8365    0.0739   -6.1208 C   0  0  0  0  0  0  0  0  0  0  0  0
   -2.6307   -0.1598   -8.2445 H   0  0  0  0  0  0  0  0  0  0  0  0
   -0.2291    0.5513   -8.2719 H   0  0  0  0  0  0  0  0  0  0  0  0
   -0.3557    1.1001   -4.0194 H   0  0  0  0  0  0  0  0  0  0  0  0
   -2.7374    0.4118   -3.9789 H   0  0  0  0  0  0  0  0  0  0  0  0
   -2.0843    4.8497   -6.6350 N   0  0  0  0  0  0  0  0  0  0  0  0
   -3.1554    4.5903   -6.5505 N   0  0  0  0  0  0  0  0  0  0  0  0
    2.4225    0.3273   -6.3673 S   0  0  0  0  0  0  0  0  0  0  0  0
    2.6799   -0.2796   -4.6154 C   0  0  0  0  0  0  0  0  0  0  0  0
    2.0300   -0.8212   -7.1677 O   0  0  0  0  0  0  0  0  0  0  0  0
    3.5483    1.1809   -6.6922 O   0  0  0  0  0  0  0  0  0  0  0  0
    1.1548    1.3453   -6.1316 O   0  0  0  0  0  0  0  0  0  0  0  0
    1.6533   -1.0499   -4.2498 F   0  0  0  0  0  0  0  0  0  0  0  0
    3.8068   -0.9869   -4.5760 F   0  0  0  0  0  0  0  0  0  0  0  0
    2.7701    0.7602   -3.7873 F   0  0  0  0  0  0  0  0  0  0  0  0
   -4.1343   -0.3226   -6.2229 O   0  0  0  0  0  0  0  0  0  0  0  0
   -4.9158   -0.3938   -5.0388 C   0  0  0  0  0  0  0  0  0  0  0  0
   -5.9042   -0.7333   -5.3514 H   0  0  0  0  0  0  0  0  0  0  0  0
   -5.0069    0.5873   -4.5555 H   0  0  0  0  0  0  0  0  0  0  0  0
   -4.4975   -1.1120   -4.3214 H   0  0  0  0  0  0  0  0  0  0  0  0
  1  6  1  0  0  0  0
  2  1  2  0  0  0  0
  2  3  1  0  0  0  0
  3 17  1  0  0  0  0
  3  4  2  0  0  0  0
  4  5  1  0  0  0  0
  4  9  1  0  0  0  0
  5 10  1  0  0  0  0
  6  5  2  0  0  0  0
  7  1  1  0  0  0  0
  8  2  1  0  0  0  0
 11 12  3  0  0  0  0
 13 17  1  0  0  0  0
 13 14  1  0  0  0  0
 14 19  1  0  0  0  0
 14 18  1  0  0  0  0
 14 20  1  0  0  0  0
 15 13  2  0  0  0  0
 16 13  2  0  0  0  0
 21  6  1  0  0  0  0
 21 22  1  0  0  0  0
 22 24  1  0  0  0  0
 22 25  1  0  0  0  0
 23 22  1  0  0  0  0
M  END
