Coordinates from ORCA-job p-CH3O-Ph-N2-OTf-B3LYP-6-31G_dp-scan-d09-49-n400
 OpenBabel02121707583D

 25 23  0  0  0  0  0  0  0  0999 V2000
   -1.9568   -0.3463   -6.3715 C   0  0  0  0  0  0  0  0  0  0  0  0
   -0.9438    0.6254   -6.5108 C   0  0  0  0  0  0  0  0  0  0  0  0
   -1.3572    1.7448   -5.9257 C   0  0  0  0  0  0  0  0  0  0  0  0
   -2.4265    2.2232   -5.2523 C   0  0  0  0  0  0  0  0  0  0  0  0
   -3.3995    1.2064   -5.1407 C   0  0  0  0  0  0  0  0  0  0  0  0
   -3.1649   -0.0662   -5.6986 C   0  0  0  0  0  0  0  0  0  0  0  0
   -1.7913   -1.3397   -6.7765 H   0  0  0  0  0  0  0  0  0  0  0  0
    0.0687    0.4180   -6.9903 H   0  0  0  0  0  0  0  0  0  0  0  0
   -2.5497    3.2181   -4.8483 H   0  0  0  0  0  0  0  0  0  0  0  0
   -4.3200    1.4431   -4.6214 H   0  0  0  0  0  0  0  0  0  0  0  0
    0.0095    3.4375   -6.2040 N   0  0  0  0  0  0  0  0  0  0  0  0
    0.6174    4.3360   -6.4085 N   0  0  0  0  0  0  0  0  0  0  0  0
    2.5215    0.8335   -6.4606 S   0  0  0  0  0  0  0  0  0  0  0  0
    3.1742   -0.6465   -5.5479 C   0  0  0  0  0  0  0  0  0  0  0  0
    1.5856    0.2048   -7.4688 O   0  0  0  0  0  0  0  0  0  0  0  0
    3.6968    1.4779   -7.0510 O   0  0  0  0  0  0  0  0  0  0  0  0
    1.7799    1.5905   -5.4218 O   0  0  0  0  0  0  0  0  0  0  0  0
    2.1565   -1.3478   -5.0157 F   0  0  0  0  0  0  0  0  0  0  0  0
    3.8559   -1.4512   -6.3724 F   0  0  0  0  0  0  0  0  0  0  0  0
    3.9864   -0.2621   -4.5545 F   0  0  0  0  0  0  0  0  0  0  0  0
   -4.0419   -1.0930   -5.6402 O   0  0  0  0  0  0  0  0  0  0  0  0
   -5.2754   -0.9081   -4.9508 C   0  0  0  0  0  0  0  0  0  0  0  0
   -5.8024   -1.8598   -5.0259 H   0  0  0  0  0  0  0  0  0  0  0  0
   -5.8801   -0.1209   -5.4183 H   0  0  0  0  0  0  0  0  0  0  0  0
   -5.1088   -0.6674   -3.8936 H   0  0  0  0  0  0  0  0  0  0  0  0
  1  6  1  0  0  0  0
  2  1  2  0  0  0  0
  2  3  1  0  0  0  0
  3  4  2  0  0  0  0
  4  5  1  0  0  0  0
  4  9  1  0  0  0  0
  5 10  1  0  0  0  0
  6 21  1  0  0  0  0
  6  5  2  0  0  0  0
  7  1  1  0  0  0  0
  8  2  1  0  0  0  0
 12 11  3  0  0  0  0
 13 14  1  0  0  0  0
 13 17  1  0  0  0  0
 14 18  1  0  0  0  0
 14 20  1  0  0  0  0
 15 13  2  0  0  0  0
 16 13  2  0  0  0  0
 19 14  1  0  0  0  0
 21 22  1  0  0  0  0
 22 25  1  0  0  0  0
 23 22  1  0  0  0  0
 24 22  1  0  0  0  0
M  RAD  2   3   2  17   2
M  END
