Coordinates from ORCA-job p-CH3O-Ph-N2-OTf-B3LYP-6-31G_dp-scan-d09-49-n400
 OpenBabel02121707583D

 25 24  0  0  0  0  0  0  0  0999 V2000
   -2.0912    0.1004   -7.3331 C   0  0  0  0  0  0  0  0  0  0  0  0
   -0.7569    0.4829   -7.3495 C   0  0  0  0  0  0  0  0  0  0  0  0
   -0.1383    0.8304   -6.1478 C   0  0  0  0  0  0  0  0  0  0  0  0
   -0.8311    0.8118   -4.9449 C   0  0  0  0  0  0  0  0  0  0  0  0
   -2.1764    0.4349   -4.9286 C   0  0  0  0  0  0  0  0  0  0  0  0
   -2.8103    0.0735   -6.1256 C   0  0  0  0  0  0  0  0  0  0  0  0
   -2.6036   -0.1805   -8.2469 H   0  0  0  0  0  0  0  0  0  0  0  0
   -0.1956    0.5090   -8.2766 H   0  0  0  0  0  0  0  0  0  0  0  0
   -0.3240    1.0963   -4.0292 H   0  0  0  0  0  0  0  0  0  0  0  0
   -2.7119    0.4291   -3.9867 H   0  0  0  0  0  0  0  0  0  0  0  0
   -2.3866    5.1221   -6.6404 N   0  0  0  0  0  0  0  0  0  0  0  0
   -3.3968    4.6870   -6.5303 N   0  0  0  0  0  0  0  0  0  0  0  0
    2.4496    0.2763   -6.3612 S   0  0  0  0  0  0  0  0  0  0  0  0
    2.6883   -0.3229   -4.6039 C   0  0  0  0  0  0  0  0  0  0  0  0
    2.0503   -0.8728   -7.1575 O   0  0  0  0  0  0  0  0  0  0  0  0
    3.5869    1.1156   -6.6834 O   0  0  0  0  0  0  0  0  0  0  0  0
    1.1919    1.3098   -6.1414 O   0  0  0  0  0  0  0  0  0  0  0  0
    1.6557   -1.0878   -4.2440 F   0  0  0  0  0  0  0  0  0  0  0  0
    3.8123   -1.0338   -4.5504 F   0  0  0  0  0  0  0  0  0  0  0  0
    2.7745    0.7208   -3.7801 F   0  0  0  0  0  0  0  0  0  0  0  0
   -4.1114   -0.3126   -6.2263 O   0  0  0  0  0  0  0  0  0  0  0  0
   -4.8947   -0.3687   -5.0425 C   0  0  0  0  0  0  0  0  0  0  0  0
   -5.8849   -0.7045   -5.3535 H   0  0  0  0  0  0  0  0  0  0  0  0
   -4.9800    0.6172   -4.5679 H   0  0  0  0  0  0  0  0  0  0  0  0
   -4.4819   -1.0834   -4.3185 H   0  0  0  0  0  0  0  0  0  0  0  0
  1  6  1  0  0  0  0
  2  1  2  0  0  0  0
  2  3  1  0  0  0  0
  3 17  1  0  0  0  0
  3  4  2  0  0  0  0
  4  5  1  0  0  0  0
  4  9  1  0  0  0  0
  5 10  1  0  0  0  0
  6  5  2  0  0  0  0
  7  1  1  0  0  0  0
  8  2  1  0  0  0  0
 11 12  3  0  0  0  0
 13 17  1  0  0  0  0
 13 14  1  0  0  0  0
 14 19  1  0  0  0  0
 14 18  1  0  0  0  0
 14 20  1  0  0  0  0
 15 13  2  0  0  0  0
 16 13  2  0  0  0  0
 21  6  1  0  0  0  0
 21 22  1  0  0  0  0
 22 24  1  0  0  0  0
 22 25  1  0  0  0  0
 23 22  1  0  0  0  0
M  END
