Coordinates from ORCA-job p-CH3O-Ph-N2-OTf-B3LYP-6-31G_dp-scan-d09-49-n400
 OpenBabel02121707583D

 25 24  0  0  0  0  0  0  0  0999 V2000
   -1.8443   -0.4784   -6.0742 C   0  0  0  0  0  0  0  0  0  0  0  0
   -0.8971    0.4609   -6.4098 C   0  0  0  0  0  0  0  0  0  0  0  0
   -1.2129    1.8294   -6.2079 C   0  0  0  0  0  0  0  0  0  0  0  0
   -2.4511    2.2378   -5.6735 C   0  0  0  0  0  0  0  0  0  0  0  0
   -3.3879    1.2802   -5.3339 C   0  0  0  0  0  0  0  0  0  0  0  0
   -3.0891   -0.0870   -5.5312 C   0  0  0  0  0  0  0  0  0  0  0  0
   -1.6459   -1.5364   -6.2054 H   0  0  0  0  0  0  0  0  0  0  0  0
    0.0705    0.1950   -6.8160 H   0  0  0  0  0  0  0  0  0  0  0  0
   -2.6554    3.2929   -5.5247 H   0  0  0  0  0  0  0  0  0  0  0  0
   -4.3376    1.5900   -4.9182 H   0  0  0  0  0  0  0  0  0  0  0  0
   -0.3089    2.7393   -6.5238 N   0  0  0  0  0  0  0  0  0  0  0  0
    0.5795    3.3480   -6.8423 N   0  0  0  0  0  0  0  0  0  0  0  0
    2.6531    1.2117   -5.9205 S   0  0  0  0  0  0  0  0  0  0  0  0
    2.9570   -0.6200   -6.0652 C   0  0  0  0  0  0  0  0  0  0  0  0
    2.1006    1.5292   -7.2848 O   0  0  0  0  0  0  0  0  0  0  0  0
    3.9682    1.7807   -5.6123 O   0  0  0  0  0  0  0  0  0  0  0  0
    1.6061    1.3113   -4.8714 O   0  0  0  0  0  0  0  0  0  0  0  0
    1.8031   -1.2697   -6.3732 F   0  0  0  0  0  0  0  0  0  0  0  0
    3.8453   -0.8918   -7.0270 F   0  0  0  0  0  0  0  0  0  0  0  0
    3.4075   -1.1235   -4.9095 F   0  0  0  0  0  0  0  0  0  0  0  0
   -3.9260   -1.0888   -5.2352 O   0  0  0  0  0  0  0  0  0  0  0  0
   -5.2058   -0.8018   -4.6612 C   0  0  0  0  0  0  0  0  0  0  0  0
   -5.6796   -1.7707   -4.5078 H   0  0  0  0  0  0  0  0  0  0  0  0
   -5.8161   -0.1984   -5.3424 H   0  0  0  0  0  0  0  0  0  0  0  0
   -5.0989   -0.2897   -3.6988 H   0  0  0  0  0  0  0  0  0  0  0  0
  1  6  2  0  0  0  0
  2  3  2  0  0  0  0
  2  1  1  0  0  0  0
  3  4  1  0  0  0  0
  4  9  1  0  0  0  0
  4  5  2  0  0  0  0
  5 10  1  0  0  0  0
  6  5  1  0  0  0  0
  6 21  1  0  0  0  0
  7  1  1  0  0  0  0
  8  2  1  0  0  0  0
 11  3  1  0  0  0  0
 12 11  1  0  0  0  0
 13 16  2  0  0  0  0
 13 17  1  0  0  0  0
 14 13  1  0  0  0  0
 14 20  1  0  0  0  0
 15 13  2  0  0  0  0
 18 14  1  0  0  0  0
 19 14  1  0  0  0  0
 21 22  1  0  0  0  0
 22 23  1  0  0  0  0
 22 25  1  0  0  0  0
 24 22  1  0  0  0  0
M  RAD  3  11   2  12   3  17   2
M  END
