Coordinates from ORCA-job p-CH3O-Ph-N2-OTf-B3LYP-6-31G_dp-scan-d09-49-n400
 OpenBabel02121707583D

 25 23  0  0  0  0  0  0  0  0999 V2000
   -1.8908   -0.4074   -6.3809 C   0  0  0  0  0  0  0  0  0  0  0  0
   -0.8992    0.5542   -6.6053 C   0  0  0  0  0  0  0  0  0  0  0  0
   -1.2659    1.7452   -6.0797 C   0  0  0  0  0  0  0  0  0  0  0  0
   -2.3345    2.2129   -5.3825 C   0  0  0  0  0  0  0  0  0  0  0  0
   -3.2953    1.2046   -5.1821 C   0  0  0  0  0  0  0  0  0  0  0  0
   -3.0748   -0.0944   -5.6788 C   0  0  0  0  0  0  0  0  0  0  0  0
   -1.7440   -1.4215   -6.7372 H   0  0  0  0  0  0  0  0  0  0  0  0
    0.0721    0.3869   -7.1060 H   0  0  0  0  0  0  0  0  0  0  0  0
   -2.4544    3.2228   -5.0153 H   0  0  0  0  0  0  0  0  0  0  0  0
   -4.1971    1.4620   -4.6411 H   0  0  0  0  0  0  0  0  0  0  0  0
    0.0190    3.1597   -6.4288 N   0  0  0  0  0  0  0  0  0  0  0  0
    0.5175    4.1090   -6.6954 N   0  0  0  0  0  0  0  0  0  0  0  0
    2.5440    1.0488   -6.2721 S   0  0  0  0  0  0  0  0  0  0  0  0
    2.8490   -0.6628   -5.6163 C   0  0  0  0  0  0  0  0  0  0  0  0
    1.7953    0.7811   -7.5446 O   0  0  0  0  0  0  0  0  0  0  0  0
    3.8703    1.6505   -6.4351 O   0  0  0  0  0  0  0  0  0  0  0  0
    1.6617    1.6478   -5.2276 O   0  0  0  0  0  0  0  0  0  0  0  0
    1.6738   -1.3179   -5.4851 F   0  0  0  0  0  0  0  0  0  0  0  0
    3.6245   -1.3658   -6.4511 F   0  0  0  0  0  0  0  0  0  0  0  0
    3.4394   -0.6222   -4.4155 F   0  0  0  0  0  0  0  0  0  0  0  0
   -3.9423   -1.1184   -5.5322 O   0  0  0  0  0  0  0  0  0  0  0  0
   -5.1481   -0.9054   -4.8016 C   0  0  0  0  0  0  0  0  0  0  0  0
   -5.6685   -1.8635   -4.8043 H   0  0  0  0  0  0  0  0  0  0  0  0
   -5.7783   -0.1484   -5.2846 H   0  0  0  0  0  0  0  0  0  0  0  0
   -4.9392   -0.6077   -3.7670 H   0  0  0  0  0  0  0  0  0  0  0  0
  1  6  1  0  0  0  0
  2  1  2  0  0  0  0
  2  3  1  0  0  0  0
  3  4  2  0  0  0  0
  4  5  1  0  0  0  0
  4  9  1  0  0  0  0
  5 10  1  0  0  0  0
  6 21  1  0  0  0  0
  6  5  2  0  0  0  0
  7  1  1  0  0  0  0
  8  2  1  0  0  0  0
 12 11  3  0  0  0  0
 13 14  1  0  0  0  0
 13 17  1  0  0  0  0
 14 18  1  0  0  0  0
 14 20  1  0  0  0  0
 15 13  2  0  0  0  0
 16 13  2  0  0  0  0
 19 14  1  0  0  0  0
 21 22  1  0  0  0  0
 22 25  1  0  0  0  0
 23 22  1  0  0  0  0
 24 22  1  0  0  0  0
M  RAD  2   3   2  17   2
M  END
