Coordinates from ORCA-job p-CH3O-Ph-N2-OTf-B3LYP-6-31G_dp-scan-d09-49-n400
 OpenBabel02121707583D

 25 24  0  0  0  0  0  0  0  0999 V2000
   -2.1888    0.1401   -7.3245 C   0  0  0  0  0  0  0  0  0  0  0  0
   -0.8677    0.5665   -7.3398 C   0  0  0  0  0  0  0  0  0  0  0  0
   -0.2538    0.9104   -6.1344 C   0  0  0  0  0  0  0  0  0  0  0  0
   -0.9398    0.8456   -4.9289 C   0  0  0  0  0  0  0  0  0  0  0  0
   -2.2721    0.4251   -4.9137 C   0  0  0  0  0  0  0  0  0  0  0  0
   -2.9005    0.0664   -6.1145 C   0  0  0  0  0  0  0  0  0  0  0  0
   -2.6964   -0.1400   -8.2412 H   0  0  0  0  0  0  0  0  0  0  0  0
   -0.3131    0.6299   -8.2690 H   0  0  0  0  0  0  0  0  0  0  0  0
   -0.4375    1.1291   -4.0103 H   0  0  0  0  0  0  0  0  0  0  0  0
   -2.8014    0.3832   -3.9693 H   0  0  0  0  0  0  0  0  0  0  0  0
   -1.3686    4.2067   -6.5671 N   0  0  0  0  0  0  0  0  0  0  0  0
   -2.4634    4.3581   -6.5495 N   0  0  0  0  0  0  0  0  0  0  0  0
    2.3491    0.4513   -6.3857 S   0  0  0  0  0  0  0  0  0  0  0  0
    2.6470   -0.1590   -4.6418 C   0  0  0  0  0  0  0  0  0  0  0  0
    1.9746   -0.7021   -7.1877 O   0  0  0  0  0  0  0  0  0  0  0  0
    3.4480    1.3352   -6.7212 O   0  0  0  0  0  0  0  0  0  0  0  0
    1.0588    1.4341   -6.1240 O   0  0  0  0  0  0  0  0  0  0  0  0
    1.6356   -0.9415   -4.2594 F   0  0  0  0  0  0  0  0  0  0  0  0
    3.7817   -0.8549   -4.6268 F   0  0  0  0  0  0  0  0  0  0  0  0
    2.7424    0.8784   -3.8117 F   0  0  0  0  0  0  0  0  0  0  0  0
   -4.1889   -0.3596   -6.2166 O   0  0  0  0  0  0  0  0  0  0  0  0
   -4.9638   -0.4627   -5.0306 C   0  0  0  0  0  0  0  0  0  0  0  0
   -5.9455   -0.8210   -5.3436 H   0  0  0  0  0  0  0  0  0  0  0  0
   -5.0754    0.5103   -4.5353 H   0  0  0  0  0  0  0  0  0  0  0  0
   -4.5261   -1.1794   -4.3233 H   0  0  0  0  0  0  0  0  0  0  0  0
  1  6  1  0  0  0  0
  2  1  2  0  0  0  0
  2  3  1  0  0  0  0
  3 17  1  0  0  0  0
  3  4  2  0  0  0  0
  4  5  1  0  0  0  0
  4  9  1  0  0  0  0
  5 10  1  0  0  0  0
  6  5  2  0  0  0  0
  7  1  1  0  0  0  0
  8  2  1  0  0  0  0
 11 12  3  0  0  0  0
 13 17  1  0  0  0  0
 13 14  1  0  0  0  0
 14 19  1  0  0  0  0
 14 18  1  0  0  0  0
 14 20  1  0  0  0  0
 15 13  2  0  0  0  0
 16 13  2  0  0  0  0
 21  6  1  0  0  0  0
 21 22  1  0  0  0  0
 22 24  1  0  0  0  0
 22 25  1  0  0  0  0
 23 22  1  0  0  0  0
M  END
