Coordinates from ORCA-job p-CH3O-Ph-N2-OTf-B3LYP-6-31G_dp-scan-d09-49-n400
 OpenBabel02121707583D

 25 24  0  0  0  0  0  0  0  0999 V2000
   -2.1968    0.1436   -7.3245 C   0  0  0  0  0  0  0  0  0  0  0  0
   -0.8770    0.5738   -7.3398 C   0  0  0  0  0  0  0  0  0  0  0  0
   -0.2640    0.9194   -6.1344 C   0  0  0  0  0  0  0  0  0  0  0  0
   -0.9492    0.8507   -4.9288 C   0  0  0  0  0  0  0  0  0  0  0  0
   -2.2803    0.4266   -4.9135 C   0  0  0  0  0  0  0  0  0  0  0  0
   -2.9081    0.0675   -6.1145 C   0  0  0  0  0  0  0  0  0  0  0  0
   -2.7038   -0.1372   -8.2413 H   0  0  0  0  0  0  0  0  0  0  0  0
   -0.3228    0.6396   -8.2691 H   0  0  0  0  0  0  0  0  0  0  0  0
   -0.4474    1.1350   -4.0101 H   0  0  0  0  0  0  0  0  0  0  0  0
   -2.8092    0.3826   -3.9690 H   0  0  0  0  0  0  0  0  0  0  0  0
   -1.2844    4.1001   -6.5497 N   0  0  0  0  0  0  0  0  0  0  0  0
   -2.3721    4.2969   -6.5398 N   0  0  0  0  0  0  0  0  0  0  0  0
    2.3401    0.4692   -6.3886 S   0  0  0  0  0  0  0  0  0  0  0  0
    2.6425   -0.1420   -4.6458 C   0  0  0  0  0  0  0  0  0  0  0  0
    1.9684   -0.6846   -7.1914 O   0  0  0  0  0  0  0  0  0  0  0  0
    3.4355    1.3572   -6.7248 O   0  0  0  0  0  0  0  0  0  0  0  0
    1.0469    1.4472   -6.1240 O   0  0  0  0  0  0  0  0  0  0  0  0
    1.6331   -0.9266   -4.2622 F   0  0  0  0  0  0  0  0  0  0  0  0
    3.7783   -0.8361   -4.6337 F   0  0  0  0  0  0  0  0  0  0  0  0
    2.7379    0.8949   -3.8151 F   0  0  0  0  0  0  0  0  0  0  0  0
   -4.1956   -0.3612   -6.2166 O   0  0  0  0  0  0  0  0  0  0  0  0
   -4.9705   -0.4658   -5.0307 C   0  0  0  0  0  0  0  0  0  0  0  0
   -5.9516   -0.8255   -5.3439 H   0  0  0  0  0  0  0  0  0  0  0  0
   -5.0836    0.5069   -4.5351 H   0  0  0  0  0  0  0  0  0  0  0  0
   -4.5318   -1.1820   -4.3236 H   0  0  0  0  0  0  0  0  0  0  0  0
  1  6  1  0  0  0  0
  2  1  2  0  0  0  0
  2  3  1  0  0  0  0
  3 17  1  0  0  0  0
  3  4  2  0  0  0  0
  4  5  1  0  0  0  0
  4  9  1  0  0  0  0
  5 10  1  0  0  0  0
  6  5  2  0  0  0  0
  7  1  1  0  0  0  0
  8  2  1  0  0  0  0
 11 12  3  0  0  0  0
 13 17  1  0  0  0  0
 13 14  1  0  0  0  0
 14 19  1  0  0  0  0
 14 18  1  0  0  0  0
 14 20  1  0  0  0  0
 15 13  2  0  0  0  0
 16 13  2  0  0  0  0
 21  6  1  0  0  0  0
 21 22  1  0  0  0  0
 22 24  1  0  0  0  0
 22 25  1  0  0  0  0
 23 22  1  0  0  0  0
M  END
