Coordinates from ORCA-job p-CH3O-Ph-N2-OTf-B3LYP-6-31G_dp-scan-d09-49-n400
 OpenBabel02121707583D

 25 24  0  0  0  0  0  0  0  0999 V2000
   -2.1870    0.1394   -7.3245 C   0  0  0  0  0  0  0  0  0  0  0  0
   -0.8657    0.5650   -7.3398 C   0  0  0  0  0  0  0  0  0  0  0  0
   -0.2516    0.9084   -6.1343 C   0  0  0  0  0  0  0  0  0  0  0  0
   -0.9377    0.8443   -4.9290 C   0  0  0  0  0  0  0  0  0  0  0  0
   -2.2703    0.4246   -4.9138 C   0  0  0  0  0  0  0  0  0  0  0  0
   -2.8988    0.0662   -6.1146 C   0  0  0  0  0  0  0  0  0  0  0  0
   -2.6948   -0.1404   -8.2413 H   0  0  0  0  0  0  0  0  0  0  0  0
   -0.3109    0.6280   -8.2690 H   0  0  0  0  0  0  0  0  0  0  0  0
   -0.4353    1.1276   -4.0104 H   0  0  0  0  0  0  0  0  0  0  0  0
   -2.7997    0.3832   -3.9694 H   0  0  0  0  0  0  0  0  0  0  0  0
   -1.3872    4.2292   -6.5706 N   0  0  0  0  0  0  0  0  0  0  0  0
   -2.4833    4.3705   -6.5513 N   0  0  0  0  0  0  0  0  0  0  0  0
    2.3510    0.4474   -6.3850 S   0  0  0  0  0  0  0  0  0  0  0  0
    2.6481   -0.1625   -4.6408 C   0  0  0  0  0  0  0  0  0  0  0  0
    1.9758   -0.7060   -7.1868 O   0  0  0  0  0  0  0  0  0  0  0  0
    3.4506    1.3304   -6.7207 O   0  0  0  0  0  0  0  0  0  0  0  0
    1.0615    1.4312   -6.1240 O   0  0  0  0  0  0  0  0  0  0  0  0
    1.6363   -0.9445   -4.2586 F   0  0  0  0  0  0  0  0  0  0  0  0
    3.7825   -0.8589   -4.6253 F   0  0  0  0  0  0  0  0  0  0  0  0
    2.7437    0.8752   -3.8111 F   0  0  0  0  0  0  0  0  0  0  0  0
   -4.1874   -0.3591   -6.2167 O   0  0  0  0  0  0  0  0  0  0  0  0
   -4.9624   -0.4618   -5.0307 C   0  0  0  0  0  0  0  0  0  0  0  0
   -5.9443   -0.8197   -5.3436 H   0  0  0  0  0  0  0  0  0  0  0  0
   -5.0736    0.5112   -4.5354 H   0  0  0  0  0  0  0  0  0  0  0  0
   -4.5251   -1.1787   -4.3234 H   0  0  0  0  0  0  0  0  0  0  0  0
  1  6  1  0  0  0  0
  2  1  2  0  0  0  0
  2  3  1  0  0  0  0
  3 17  1  0  0  0  0
  3  4  2  0  0  0  0
  4  5  1  0  0  0  0
  4  9  1  0  0  0  0
  5 10  1  0  0  0  0
  6  5  2  0  0  0  0
  7  1  1  0  0  0  0
  8  2  1  0  0  0  0
 11 12  3  0  0  0  0
 13 17  1  0  0  0  0
 13 14  1  0  0  0  0
 14 19  1  0  0  0  0
 14 18  1  0  0  0  0
 14 20  1  0  0  0  0
 15 13  2  0  0  0  0
 16 13  2  0  0  0  0
 21  6  1  0  0  0  0
 21 22  1  0  0  0  0
 22 24  1  0  0  0  0
 22 25  1  0  0  0  0
 23 22  1  0  0  0  0
M  END
