Coordinates from ORCA-job p-CH3O-Ph-N2-OTf-B3LYP-6-31G_dp-scan-d09-49-n400
 OpenBabel02121707583D

 25 24  0  0  0  0  0  0  0  0999 V2000
   -2.2142    0.1908   -7.3269 C   0  0  0  0  0  0  0  0  0  0  0  0
   -0.9088    0.6584   -7.3568 C   0  0  0  0  0  0  0  0  0  0  0  0
   -0.3083    1.0696   -6.1648 C   0  0  0  0  0  0  0  0  0  0  0  0
   -0.9631    0.9388   -4.9463 C   0  0  0  0  0  0  0  0  0  0  0  0
   -2.2804    0.4779   -4.9152 C   0  0  0  0  0  0  0  0  0  0  0  0
   -2.9143    0.1069   -6.1100 C   0  0  0  0  0  0  0  0  0  0  0  0
   -2.7180   -0.1204   -8.2356 H   0  0  0  0  0  0  0  0  0  0  0  0
   -0.3629    0.7279   -8.2906 H   0  0  0  0  0  0  0  0  0  0  0  0
   -0.4565    1.2308   -4.0328 H   0  0  0  0  0  0  0  0  0  0  0  0
   -2.7928    0.4073   -3.9632 H   0  0  0  0  0  0  0  0  0  0  0  0
   -0.9290    3.3829   -6.4639 N   0  0  0  0  0  0  0  0  0  0  0  0
   -1.9598    3.7867   -6.5047 N   0  0  0  0  0  0  0  0  0  0  0  0
    2.2866    0.5689   -6.4027 S   0  0  0  0  0  0  0  0  0  0  0  0
    2.5181   -0.0972   -4.6673 C   0  0  0  0  0  0  0  0  0  0  0  0
    1.9224   -0.5559   -7.2488 O   0  0  0  0  0  0  0  0  0  0  0  0
    3.4121    1.4407   -6.6757 O   0  0  0  0  0  0  0  0  0  0  0  0
    1.0112    1.5739   -6.1637 O   0  0  0  0  0  0  0  0  0  0  0  0
    1.5279   -0.9386   -4.3677 F   0  0  0  0  0  0  0  0  0  0  0  0
    3.6825   -0.7401   -4.6182 F   0  0  0  0  0  0  0  0  0  0  0  0
    2.5222    0.9111   -3.7949 F   0  0  0  0  0  0  0  0  0  0  0  0
   -4.1910   -0.3525   -6.1981 O   0  0  0  0  0  0  0  0  0  0  0  0
   -4.9516   -0.4750   -5.0042 C   0  0  0  0  0  0  0  0  0  0  0  0
   -5.9287   -0.8525   -5.3084 H   0  0  0  0  0  0  0  0  0  0  0  0
   -5.0776    0.4943   -4.5053 H   0  0  0  0  0  0  0  0  0  0  0  0
   -4.4917   -1.1846   -4.3041 H   0  0  0  0  0  0  0  0  0  0  0  0
  1  6  1  0  0  0  0
  2  1  2  0  0  0  0
  2  3  1  0  0  0  0
  3 17  1  0  0  0  0
  3  4  2  0  0  0  0
  4  5  1  0  0  0  0
  4  9  1  0  0  0  0
  5 10  1  0  0  0  0
  6  5  2  0  0  0  0
  7  1  1  0  0  0  0
  8  2  1  0  0  0  0
 12 11  3  0  0  0  0
 13 17  1  0  0  0  0
 13 14  1  0  0  0  0
 14 19  1  0  0  0  0
 14 18  1  0  0  0  0
 14 20  1  0  0  0  0
 15 13  2  0  0  0  0
 16 13  2  0  0  0  0
 21  6  1  0  0  0  0
 21 22  1  0  0  0  0
 22 24  1  0  0  0  0
 22 25  1  0  0  0  0
 23 22  1  0  0  0  0
M  END
