Coordinates from ORCA-job p-CH3O-Ph-N2-OTf-B3LYP-6-31G_dp-scan-d09-49-n400
 OpenBabel02121707583D

 25 24  0  0  0  0  0  0  0  0999 V2000
   -2.1595    0.1326   -7.3253 C   0  0  0  0  0  0  0  0  0  0  0  0
   -0.8341    0.5454   -7.3409 C   0  0  0  0  0  0  0  0  0  0  0  0
   -0.2173    0.8852   -6.1358 C   0  0  0  0  0  0  0  0  0  0  0  0
   -0.9046    0.8310   -4.9307 C   0  0  0  0  0  0  0  0  0  0  0  0
   -2.2411    0.4238   -4.9152 C   0  0  0  0  0  0  0  0  0  0  0  0
   -2.8723    0.0684   -6.1155 C   0  0  0  0  0  0  0  0  0  0  0  0
   -2.6695   -0.1442   -8.2417 H   0  0  0  0  0  0  0  0  0  0  0  0
   -0.2783    0.6011   -8.2699 H   0  0  0  0  0  0  0  0  0  0  0  0
   -0.4000    1.1117   -4.0125 H   0  0  0  0  0  0  0  0  0  0  0  0
   -2.7714    0.3895   -3.9710 H   0  0  0  0  0  0  0  0  0  0  0  0
   -1.6718    4.5022   -6.6129 N   0  0  0  0  0  0  0  0  0  0  0  0
   -2.7761    4.4874   -6.5675 N   0  0  0  0  0  0  0  0  0  0  0  0
    2.3814    0.3966   -6.3765 S   0  0  0  0  0  0  0  0  0  0  0  0
    2.6596   -0.2150   -4.6296 C   0  0  0  0  0  0  0  0  0  0  0  0
    1.9993   -0.7535   -7.1798 O   0  0  0  0  0  0  0  0  0  0  0  0
    3.4928    1.2673   -6.7051 O   0  0  0  0  0  0  0  0  0  0  0  0
    1.1010    1.3952   -6.1265 O   0  0  0  0  0  0  0  0  0  0  0  0
    1.6426   -0.9951   -4.2578 F   0  0  0  0  0  0  0  0  0  0  0  0
    3.7925   -0.9133   -4.6031 F   0  0  0  0  0  0  0  0  0  0  0  0
    2.7488    0.8223   -3.7983 F   0  0  0  0  0  0  0  0  0  0  0  0
   -4.1648   -0.3452   -6.2173 O   0  0  0  0  0  0  0  0  0  0  0  0
   -4.9415   -0.4375   -5.0316 C   0  0  0  0  0  0  0  0  0  0  0  0
   -5.9264   -0.7871   -5.3443 H   0  0  0  0  0  0  0  0  0  0  0  0
   -5.0439    0.5379   -4.5390 H   0  0  0  0  0  0  0  0  0  0  0  0
   -4.5114   -1.1566   -4.3220 H   0  0  0  0  0  0  0  0  0  0  0  0
  1  6  1  0  0  0  0
  2  1  2  0  0  0  0
  2  3  1  0  0  0  0
  3 17  1  0  0  0  0
  3  4  2  0  0  0  0
  4  5  1  0  0  0  0
  4  9  1  0  0  0  0
  5 10  1  0  0  0  0
  6  5  2  0  0  0  0
  7  1  1  0  0  0  0
  8  2  1  0  0  0  0
 11 12  3  0  0  0  0
 13 17  1  0  0  0  0
 13 14  1  0  0  0  0
 14 19  1  0  0  0  0
 14 18  1  0  0  0  0
 14 20  1  0  0  0  0
 15 13  2  0  0  0  0
 16 13  2  0  0  0  0
 21  6  1  0  0  0  0
 21 22  1  0  0  0  0
 22 24  1  0  0  0  0
 22 25  1  0  0  0  0
 23 22  1  0  0  0  0
M  END
