Coordinates from ORCA-job p-CH3O-Ph-N2-OTf-B3LYP-6-31G_dp-scan-d09-49-n400
 OpenBabel02121707583D

 25 24  0  0  0  0  0  0  0  0999 V2000
   -2.1709    0.1349   -7.3246 C   0  0  0  0  0  0  0  0  0  0  0  0
   -0.8475    0.5540   -7.3402 C   0  0  0  0  0  0  0  0  0  0  0  0
   -0.2319    0.8958   -6.1350 C   0  0  0  0  0  0  0  0  0  0  0  0
   -0.9188    0.8377   -4.9298 C   0  0  0  0  0  0  0  0  0  0  0  0
   -2.2534    0.4244   -4.9144 C   0  0  0  0  0  0  0  0  0  0  0  0
   -2.8832    0.0667   -6.1147 C   0  0  0  0  0  0  0  0  0  0  0  0
   -2.6797   -0.1438   -8.2410 H   0  0  0  0  0  0  0  0  0  0  0  0
   -0.2921    0.6128   -8.2693 H   0  0  0  0  0  0  0  0  0  0  0  0
   -0.4153    1.1201   -4.0115 H   0  0  0  0  0  0  0  0  0  0  0  0
   -2.7833    0.3872   -3.9700 H   0  0  0  0  0  0  0  0  0  0  0  0
   -1.5493    4.3946   -6.5979 N   0  0  0  0  0  0  0  0  0  0  0  0
   -2.6528    4.4482   -6.5642 N   0  0  0  0  0  0  0  0  0  0  0  0
    2.3682    0.4178   -6.3800 S   0  0  0  0  0  0  0  0  0  0  0  0
    2.6534   -0.1944   -4.6345 C   0  0  0  0  0  0  0  0  0  0  0  0
    1.9888   -0.7330   -7.1835 O   0  0  0  0  0  0  0  0  0  0  0  0
    3.4753    1.2933   -6.7106 O   0  0  0  0  0  0  0  0  0  0  0  0
    1.0844    1.4108   -6.1252 O   0  0  0  0  0  0  0  0  0  0  0  0
    1.6381   -0.9752   -4.2593 F   0  0  0  0  0  0  0  0  0  0  0  0
    3.7867   -0.8924   -4.6126 F   0  0  0  0  0  0  0  0  0  0  0  0
    2.7453    0.8424   -3.8031 F   0  0  0  0  0  0  0  0  0  0  0  0
   -4.1737   -0.3531   -6.2164 O   0  0  0  0  0  0  0  0  0  0  0  0
   -4.9494   -0.4503   -5.0304 C   0  0  0  0  0  0  0  0  0  0  0  0
   -5.9327   -0.8045   -5.3430 H   0  0  0  0  0  0  0  0  0  0  0  0
   -5.0566    0.5241   -4.5370 H   0  0  0  0  0  0  0  0  0  0  0  0
   -4.5154   -1.1678   -4.3217 H   0  0  0  0  0  0  0  0  0  0  0  0
  1  6  1  0  0  0  0
  2  1  2  0  0  0  0
  2  3  1  0  0  0  0
  3 17  1  0  0  0  0
  3  4  2  0  0  0  0
  4  5  1  0  0  0  0
  4  9  1  0  0  0  0
  5 10  1  0  0  0  0
  6  5  2  0  0  0  0
  7  1  1  0  0  0  0
  8  2  1  0  0  0  0
 11 12  3  0  0  0  0
 13 17  1  0  0  0  0
 13 14  1  0  0  0  0
 14 19  1  0  0  0  0
 14 18  1  0  0  0  0
 14 20  1  0  0  0  0
 15 13  2  0  0  0  0
 16 13  2  0  0  0  0
 21  6  1  0  0  0  0
 21 22  1  0  0  0  0
 22 24  1  0  0  0  0
 22 25  1  0  0  0  0
 23 22  1  0  0  0  0
M  END
