Coordinates from ORCA-job p-CH3O-Ph-N2-OTf-B3LYP-6-31G_dp-scan-d09-49-n400
 OpenBabel02121707583D

 25 24  0  0  0  0  0  0  0  0999 V2000
   -2.1882    0.1399   -7.3245 C   0  0  0  0  0  0  0  0  0  0  0  0
   -0.8671    0.5660   -7.3398 C   0  0  0  0  0  0  0  0  0  0  0  0
   -0.2531    0.9097   -6.1343 C   0  0  0  0  0  0  0  0  0  0  0  0
   -0.9391    0.8452   -4.9290 C   0  0  0  0  0  0  0  0  0  0  0  0
   -2.2715    0.4249   -4.9138 C   0  0  0  0  0  0  0  0  0  0  0  0
   -2.8999    0.0663   -6.1145 C   0  0  0  0  0  0  0  0  0  0  0  0
   -2.6958   -0.1401   -8.2412 H   0  0  0  0  0  0  0  0  0  0  0  0
   -0.3124    0.6293   -8.2690 H   0  0  0  0  0  0  0  0  0  0  0  0
   -0.4368    1.1286   -4.0103 H   0  0  0  0  0  0  0  0  0  0  0  0
   -2.8008    0.3832   -3.9693 H   0  0  0  0  0  0  0  0  0  0  0  0
   -1.3748    4.2142   -6.5683 N   0  0  0  0  0  0  0  0  0  0  0  0
   -2.4700    4.3623   -6.5502 N   0  0  0  0  0  0  0  0  0  0  0  0
    2.3497    0.4501   -6.3854 S   0  0  0  0  0  0  0  0  0  0  0  0
    2.6473   -0.1602   -4.6415 C   0  0  0  0  0  0  0  0  0  0  0  0
    1.9750   -0.7034   -7.1874 O   0  0  0  0  0  0  0  0  0  0  0  0
    3.4489    1.3336   -6.7210 O   0  0  0  0  0  0  0  0  0  0  0  0
    1.0597    1.4332   -6.1240 O   0  0  0  0  0  0  0  0  0  0  0  0
    1.6358   -0.9426   -4.2592 F   0  0  0  0  0  0  0  0  0  0  0  0
    3.7819   -0.8563   -4.6264 F   0  0  0  0  0  0  0  0  0  0  0  0
    2.7428    0.8773   -3.8115 F   0  0  0  0  0  0  0  0  0  0  0  0
   -4.1884   -0.3595   -6.2166 O   0  0  0  0  0  0  0  0  0  0  0  0
   -4.9633   -0.4625   -5.0306 C   0  0  0  0  0  0  0  0  0  0  0  0
   -5.9451   -0.8206   -5.3436 H   0  0  0  0  0  0  0  0  0  0  0  0
   -5.0749    0.5106   -4.5353 H   0  0  0  0  0  0  0  0  0  0  0  0
   -4.5258   -1.1792   -4.3233 H   0  0  0  0  0  0  0  0  0  0  0  0
  1  6  1  0  0  0  0
  2  1  2  0  0  0  0
  2  3  1  0  0  0  0
  3 17  1  0  0  0  0
  3  4  2  0  0  0  0
  4  5  1  0  0  0  0
  4  9  1  0  0  0  0
  5 10  1  0  0  0  0
  6  5  2  0  0  0  0
  7  1  1  0  0  0  0
  8  2  1  0  0  0  0
 11 12  3  0  0  0  0
 13 17  1  0  0  0  0
 13 14  1  0  0  0  0
 14 19  1  0  0  0  0
 14 18  1  0  0  0  0
 14 20  1  0  0  0  0
 15 13  2  0  0  0  0
 16 13  2  0  0  0  0
 21  6  1  0  0  0  0
 21 22  1  0  0  0  0
 22 24  1  0  0  0  0
 22 25  1  0  0  0  0
 23 22  1  0  0  0  0
M  END
