Coordinates from ORCA-job p-CH3O-Ph-N2-OTf-B3LYP-6-31G_dp-scan-d09-49-n400
 OpenBabel02121707583D

 25 24  0  0  0  0  0  0  0  0999 V2000
   -1.6544   -0.2905   -6.3424 C   0  0  0  0  0  0  0  0  0  0  0  0
   -0.8146    0.7181   -6.7356 C   0  0  0  0  0  0  0  0  0  0  0  0
   -1.1600    2.1169   -6.4752 C   0  0  0  0  0  0  0  0  0  0  0  0
   -2.3915    2.3613   -5.7383 C   0  0  0  0  0  0  0  0  0  0  0  0
   -3.1945    1.3364   -5.3296 C   0  0  0  0  0  0  0  0  0  0  0  0
   -2.8331   -0.0102   -5.6261 C   0  0  0  0  0  0  0  0  0  0  0  0
   -1.3909   -1.3240   -6.5363 H   0  0  0  0  0  0  0  0  0  0  0  0
    0.1037    0.5482   -7.2881 H   0  0  0  0  0  0  0  0  0  0  0  0
   -2.6425    3.3946   -5.5180 H   0  0  0  0  0  0  0  0  0  0  0  0
   -4.1001    1.5606   -4.7805 H   0  0  0  0  0  0  0  0  0  0  0  0
   -0.5325    2.8950   -6.7636 N   0  0  0  0  0  0  0  0  0  0  0  0
    0.1636    3.7458   -7.0797 N   0  0  0  0  0  0  0  0  0  0  0  0
    2.2930    0.9975   -5.7722 S   0  0  0  0  0  0  0  0  0  0  0  0
    2.5863   -0.8366   -5.8707 C   0  0  0  0  0  0  0  0  0  0  0  0
    2.0677    1.3662   -7.1987 O   0  0  0  0  0  0  0  0  0  0  0  0
    3.4904    1.5401   -5.1244 O   0  0  0  0  0  0  0  0  0  0  0  0
    1.0275    1.0694   -4.9722 O   0  0  0  0  0  0  0  0  0  0  0  0
    1.5253   -1.4444   -6.4661 F   0  0  0  0  0  0  0  0  0  0  0  0
    3.6754   -1.1194   -6.5944 F   0  0  0  0  0  0  0  0  0  0  0  0
    2.7304   -1.3761   -4.6529 F   0  0  0  0  0  0  0  0  0  0  0  0
   -3.5594   -1.0647   -5.2663 O   0  0  0  0  0  0  0  0  0  0  0  0
   -4.7630   -0.8964   -4.5022 C   0  0  0  0  0  0  0  0  0  0  0  0
   -5.1360   -1.9046   -4.3282 H   0  0  0  0  0  0  0  0  0  0  0  0
   -5.5054   -0.3207   -5.0646 H   0  0  0  0  0  0  0  0  0  0  0  0
   -4.5513   -0.4123   -3.5437 H   0  0  0  0  0  0  0  0  0  0  0  0
  1  6  2  0  0  0  0
  2  3  2  0  0  0  0
  2  1  1  0  0  0  0
  3  4  1  0  0  0  0
  4  9  1  0  0  0  0
  4  5  2  0  0  0  0
  5 10  1  0  0  0  0
  6  5  1  0  0  0  0
  6 21  1  0  0  0  0
  7  1  1  0  0  0  0
  8  2  1  0  0  0  0
 11  3  1  0  0  0  0
 12 11  1  0  0  0  0
 13 16  2  0  0  0  0
 13 17  1  0  0  0  0
 14 13  1  0  0  0  0
 14 20  1  0  0  0  0
 15 13  2  0  0  0  0
 18 14  1  0  0  0  0
 19 14  1  0  0  0  0
 21 22  1  0  0  0  0
 22 23  1  0  0  0  0
 22 25  1  0  0  0  0
 24 22  1  0  0  0  0
M  RAD  3  11   2  12   3  17   2
M  END
