Coordinates from ORCA-job p-CH3O-Ph-N2-OTf-B3LYP-6-31G_dp-scan-d09-49-n400
 OpenBabel02121707583D

 25 24  0  0  0  0  0  0  0  0999 V2000
   -2.2061    0.1493   -7.3248 C   0  0  0  0  0  0  0  0  0  0  0  0
   -0.8876    0.5833   -7.3404 C   0  0  0  0  0  0  0  0  0  0  0  0
   -0.2755    0.9309   -6.1352 C   0  0  0  0  0  0  0  0  0  0  0  0
   -0.9592    0.8572   -4.9290 C   0  0  0  0  0  0  0  0  0  0  0  0
   -2.2891    0.4293   -4.9135 C   0  0  0  0  0  0  0  0  0  0  0  0
   -2.9168    0.0704   -6.1146 C   0  0  0  0  0  0  0  0  0  0  0  0
   -2.7128   -0.1321   -8.2416 H   0  0  0  0  0  0  0  0  0  0  0  0
   -0.3342    0.6520   -8.2699 H   0  0  0  0  0  0  0  0  0  0  0  0
   -0.4578    1.1420   -4.0103 H   0  0  0  0  0  0  0  0  0  0  0  0
   -2.8172    0.3825   -3.9686 H   0  0  0  0  0  0  0  0  0  0  0  0
   -1.1894    3.9678   -6.5288 N   0  0  0  0  0  0  0  0  0  0  0  0
   -2.2663    4.2176   -6.5282 N   0  0  0  0  0  0  0  0  0  0  0  0
    2.3297    0.4901   -6.3920 S   0  0  0  0  0  0  0  0  0  0  0  0
    2.6359   -0.1223   -4.6503 C   0  0  0  0  0  0  0  0  0  0  0  0
    1.9616   -0.6641   -7.1959 O   0  0  0  0  0  0  0  0  0  0  0  0
    3.4218    1.3823   -6.7280 O   0  0  0  0  0  0  0  0  0  0  0  0
    1.0334    1.4632   -6.1249 O   0  0  0  0  0  0  0  0  0  0  0  0
    1.6295   -0.9105   -4.2665 F   0  0  0  0  0  0  0  0  0  0  0  0
    3.7741   -0.8127   -4.6402 F   0  0  0  0  0  0  0  0  0  0  0  0
    2.7289    0.9139   -3.8184 F   0  0  0  0  0  0  0  0  0  0  0  0
   -4.2034   -0.3609   -6.2166 O   0  0  0  0  0  0  0  0  0  0  0  0
   -4.9776   -0.4684   -5.0305 C   0  0  0  0  0  0  0  0  0  0  0  0
   -5.9581   -0.8294   -5.3437 H   0  0  0  0  0  0  0  0  0  0  0  0
   -5.0922    0.5035   -4.5337 H   0  0  0  0  0  0  0  0  0  0  0  0
   -4.5373   -1.1847   -4.3245 H   0  0  0  0  0  0  0  0  0  0  0  0
  1  6  1  0  0  0  0
  2  1  2  0  0  0  0
  2  3  1  0  0  0  0
  3 17  1  0  0  0  0
  3  4  2  0  0  0  0
  4  5  1  0  0  0  0
  4  9  1  0  0  0  0
  5 10  1  0  0  0  0
  6  5  2  0  0  0  0
  7  1  1  0  0  0  0
  8  2  1  0  0  0  0
 11 12  3  0  0  0  0
 13 17  1  0  0  0  0
 13 14  1  0  0  0  0
 14 19  1  0  0  0  0
 14 18  1  0  0  0  0
 14 20  1  0  0  0  0
 15 13  2  0  0  0  0
 16 13  2  0  0  0  0
 21  6  1  0  0  0  0
 21 22  1  0  0  0  0
 22 24  1  0  0  0  0
 22 25  1  0  0  0  0
 23 22  1  0  0  0  0
M  END
