Coordinates from ORCA-job p-CH3O-Ph-N2-OTf-B3LYP-6-31G_dp-scan-d09-49-n400
 OpenBabel02121707583D

 25 24  0  0  0  0  0  0  0  0999 V2000
   -1.8221   -0.4023   -6.1463 C   0  0  0  0  0  0  0  0  0  0  0  0
   -0.9049    0.5903   -6.4767 C   0  0  0  0  0  0  0  0  0  0  0  0
   -1.3460    1.8581   -6.1806 C   0  0  0  0  0  0  0  0  0  0  0  0
   -2.5230    2.2870   -5.6258 C   0  0  0  0  0  0  0  0  0  0  0  0
   -3.4172    1.2586   -5.3079 C   0  0  0  0  0  0  0  0  0  0  0  0
   -3.0678   -0.0811   -5.5661 C   0  0  0  0  0  0  0  0  0  0  0  0
   -1.5778   -1.4445   -6.3208 H   0  0  0  0  0  0  0  0  0  0  0  0
    0.0722    0.4015   -6.9094 H   0  0  0  0  0  0  0  0  0  0  0  0
   -2.7465    3.3293   -5.4381 H   0  0  0  0  0  0  0  0  0  0  0  0
   -4.3693    1.5166   -4.8628 H   0  0  0  0  0  0  0  0  0  0  0  0
   -0.1925    3.1132   -6.5857 N   0  0  0  0  0  0  0  0  0  0  0  0
    0.8376    3.3835   -6.9249 N   0  0  0  0  0  0  0  0  0  0  0  0
    2.6854    1.1729   -5.9505 S   0  0  0  0  0  0  0  0  0  0  0  0
    2.8133   -0.6867   -5.9422 C   0  0  0  0  0  0  0  0  0  0  0  0
    2.0079    1.4062   -7.2889 O   0  0  0  0  0  0  0  0  0  0  0  0
    4.0711    1.6398   -5.8689 O   0  0  0  0  0  0  0  0  0  0  0  0
    1.7780    1.4851   -4.8254 O   0  0  0  0  0  0  0  0  0  0  0  0
    1.5889   -1.2472   -6.1093 F   0  0  0  0  0  0  0  0  0  0  0  0
    3.6013   -1.1210   -6.9307 F   0  0  0  0  0  0  0  0  0  0  0  0
    3.3046   -1.1192   -4.7759 F   0  0  0  0  0  0  0  0  0  0  0  0
   -3.8615   -1.1371   -5.2932 O   0  0  0  0  0  0  0  0  0  0  0  0
   -5.1291   -0.9135   -4.6777 C   0  0  0  0  0  0  0  0  0  0  0  0
   -5.5704   -1.9012   -4.5450 H   0  0  0  0  0  0  0  0  0  0  0  0
   -5.7811   -0.3066   -5.3178 H   0  0  0  0  0  0  0  0  0  0  0  0
   -5.0167   -0.4314   -3.6993 H   0  0  0  0  0  0  0  0  0  0  0  0
  1  6  2  0  0  0  0
  2  3  2  0  0  0  0
  2  1  1  0  0  0  0
  3  4  1  0  0  0  0
  4  9  1  0  0  0  0
  4  5  2  0  0  0  0
  5 10  1  0  0  0  0
  6  5  1  0  0  0  0
  6 21  1  0  0  0  0
  7  1  1  0  0  0  0
  8  2  1  0  0  0  0
 11  3  1  0  0  0  0
 12 11  2  0  0  0  0
 13 14  1  0  0  0  0
 13 16  2  0  0  0  0
 13 17  1  0  0  0  0
 14 20  1  0  0  0  0
 15 13  2  0  0  0  0
 18 14  1  0  0  0  0
 19 14  1  0  0  0  0
 21 22  1  0  0  0  0
 22 23  1  0  0  0  0
 22 25  1  0  0  0  0
 24 22  1  0  0  0  0
M  RAD  2  12   2  17   2
M  END
