Coordinates from ORCA-job p-CH3O-Ph-N2-OTf-B3LYP-6-31G_dp-scan-d09-49-n400
 OpenBabel02121707583D

 25 24  0  0  0  0  0  0  0  0999 V2000
   -2.2158    0.1830   -7.3257 C   0  0  0  0  0  0  0  0  0  0  0  0
   -0.9076    0.6442   -7.3531 C   0  0  0  0  0  0  0  0  0  0  0  0
   -0.3035    1.0391   -6.1581 C   0  0  0  0  0  0  0  0  0  0  0  0
   -0.9657    0.9252   -4.9427 C   0  0  0  0  0  0  0  0  0  0  0  0
   -2.2856    0.4704   -4.9145 C   0  0  0  0  0  0  0  0  0  0  0  0
   -2.9178    0.0999   -6.1101 C   0  0  0  0  0  0  0  0  0  0  0  0
   -2.7206   -0.1217   -8.2361 H   0  0  0  0  0  0  0  0  0  0  0  0
   -0.3606    0.7138   -8.2862 H   0  0  0  0  0  0  0  0  0  0  0  0
   -0.4605    1.2174   -4.0285 H   0  0  0  0  0  0  0  0  0  0  0  0
   -2.8017    0.4065   -3.9640 H   0  0  0  0  0  0  0  0  0  0  0  0
   -0.9551    3.4571   -6.4736 N   0  0  0  0  0  0  0  0  0  0  0  0
   -1.9863    3.8584   -6.5106 N   0  0  0  0  0  0  0  0  0  0  0  0
    2.2945    0.5623   -6.4015 S   0  0  0  0  0  0  0  0  0  0  0  0
    2.5392   -0.0990   -4.6664 C   0  0  0  0  0  0  0  0  0  0  0  0
    1.9343   -0.5664   -7.2442 O   0  0  0  0  0  0  0  0  0  0  0  0
    3.4114    1.4428   -6.6817 O   0  0  0  0  0  0  0  0  0  0  0  0
    1.0109    1.5560   -6.1558 O   0  0  0  0  0  0  0  0  0  0  0  0
    1.5476   -0.9351   -4.3556 F   0  0  0  0  0  0  0  0  0  0  0  0
    3.7010   -0.7469   -4.6250 F   0  0  0  0  0  0  0  0  0  0  0  0
    2.5549    0.9121   -3.7976 F   0  0  0  0  0  0  0  0  0  0  0  0
   -4.1963   -0.3549   -6.2007 O   0  0  0  0  0  0  0  0  0  0  0  0
   -4.9593   -0.4746   -5.0081 C   0  0  0  0  0  0  0  0  0  0  0  0
   -5.9366   -0.8504   -5.3137 H   0  0  0  0  0  0  0  0  0  0  0  0
   -5.0844    0.4954   -4.5103 H   0  0  0  0  0  0  0  0  0  0  0  0
   -4.5021   -1.1843   -4.3063 H   0  0  0  0  0  0  0  0  0  0  0  0
  1  6  1  0  0  0  0
  2  1  2  0  0  0  0
  2  3  1  0  0  0  0
  3 17  1  0  0  0  0
  3  4  2  0  0  0  0
  4  5  1  0  0  0  0
  4  9  1  0  0  0  0
  5 10  1  0  0  0  0
  6  5  2  0  0  0  0
  7  1  1  0  0  0  0
  8  2  1  0  0  0  0
 12 11  3  0  0  0  0
 13 17  1  0  0  0  0
 13 14  1  0  0  0  0
 14 19  1  0  0  0  0
 14 18  1  0  0  0  0
 14 20  1  0  0  0  0
 15 13  2  0  0  0  0
 16 13  2  0  0  0  0
 21  6  1  0  0  0  0
 21 22  1  0  0  0  0
 22 24  1  0  0  0  0
 22 25  1  0  0  0  0
 23 22  1  0  0  0  0
M  END
