Coordinates from ORCA-job p-CH3O-Ph-N2-OTf-B3LYP-6-31G_dp-scan-d09-49-n400
 OpenBabel02121707583D

 25 24  0  0  0  0  0  0  0  0999 V2000
   -2.2152    0.1858   -7.3260 C   0  0  0  0  0  0  0  0  0  0  0  0
   -0.9080    0.6492   -7.3543 C   0  0  0  0  0  0  0  0  0  0  0  0
   -0.3051    1.0496   -6.1603 C   0  0  0  0  0  0  0  0  0  0  0  0
   -0.9649    0.9301   -4.9440 C   0  0  0  0  0  0  0  0  0  0  0  0
   -2.2839    0.4732   -4.9148 C   0  0  0  0  0  0  0  0  0  0  0  0
   -2.9166    0.1024   -6.1100 C   0  0  0  0  0  0  0  0  0  0  0  0
   -2.7196   -0.1212   -8.2359 H   0  0  0  0  0  0  0  0  0  0  0  0
   -0.3614    0.7188   -8.2876 H   0  0  0  0  0  0  0  0  0  0  0  0
   -0.4592    1.2223   -4.0299 H   0  0  0  0  0  0  0  0  0  0  0  0
   -2.7987    0.4070   -3.9638 H   0  0  0  0  0  0  0  0  0  0  0  0
   -0.9456    3.4295   -6.4699 N   0  0  0  0  0  0  0  0  0  0  0  0
   -1.9766    3.8317   -6.5083 N   0  0  0  0  0  0  0  0  0  0  0  0
    2.2917    0.5649   -6.4020 S   0  0  0  0  0  0  0  0  0  0  0  0
    2.5319   -0.0982   -4.6669 C   0  0  0  0  0  0  0  0  0  0  0  0
    1.9301   -0.5624   -7.2459 O   0  0  0  0  0  0  0  0  0  0  0  0
    3.4115    1.4424   -6.6797 O   0  0  0  0  0  0  0  0  0  0  0  0
    1.0108    1.5624   -6.1584 O   0  0  0  0  0  0  0  0  0  0  0  0
    1.5408   -0.9361   -4.3598 F   0  0  0  0  0  0  0  0  0  0  0  0
    3.6946   -0.7445   -4.6229 F   0  0  0  0  0  0  0  0  0  0  0  0
    2.5438    0.9118   -3.7967 F   0  0  0  0  0  0  0  0  0  0  0  0
   -4.1945   -0.3539   -6.1999 O   0  0  0  0  0  0  0  0  0  0  0  0
   -4.9567   -0.4745   -5.0068 C   0  0  0  0  0  0  0  0  0  0  0  0
   -5.9340   -0.8509   -5.3119 H   0  0  0  0  0  0  0  0  0  0  0  0
   -5.0821    0.4952   -4.5087 H   0  0  0  0  0  0  0  0  0  0  0  0
   -4.4986   -1.1843   -4.3056 H   0  0  0  0  0  0  0  0  0  0  0  0
  1  6  1  0  0  0  0
  2  1  2  0  0  0  0
  2  3  1  0  0  0  0
  3 17  1  0  0  0  0
  3  4  2  0  0  0  0
  4  5  1  0  0  0  0
  4  9  1  0  0  0  0
  5 10  1  0  0  0  0
  6  5  2  0  0  0  0
  7  1  1  0  0  0  0
  8  2  1  0  0  0  0
 12 11  3  0  0  0  0
 13 17  1  0  0  0  0
 13 14  1  0  0  0  0
 14 19  1  0  0  0  0
 14 18  1  0  0  0  0
 14 20  1  0  0  0  0
 15 13  2  0  0  0  0
 16 13  2  0  0  0  0
 21  6  1  0  0  0  0
 21 22  1  0  0  0  0
 22 24  1  0  0  0  0
 22 25  1  0  0  0  0
 23 22  1  0  0  0  0
M  END
