Coordinates from ORCA-job p-CH3O-Ph-N2-OTf-B3LYP-6-31G_dp-scan-d09-49-n400
 OpenBabel02121707583D

 25 23  0  0  0  0  0  0  0  0999 V2000
   -2.0805   -0.4414   -6.2600 C   0  0  0  0  0  0  0  0  0  0  0  0
   -0.9979    0.4482   -6.3581 C   0  0  0  0  0  0  0  0  0  0  0  0
   -1.3478    1.6405   -5.8448 C   0  0  0  0  0  0  0  0  0  0  0  0
   -2.4428    2.1847   -5.2556 C   0  0  0  0  0  0  0  0  0  0  0  0
   -3.4891    1.2455   -5.1782 C   0  0  0  0  0  0  0  0  0  0  0  0
   -3.3074   -0.0583   -5.6788 C   0  0  0  0  0  0  0  0  0  0  0  0
   -1.9655   -1.4545   -6.6310 H   0  0  0  0  0  0  0  0  0  0  0  0
   -0.0051    0.1687   -6.7863 H   0  0  0  0  0  0  0  0  0  0  0  0
   -2.5281    3.1970   -4.8856 H   0  0  0  0  0  0  0  0  0  0  0  0
   -4.4221    1.5600   -4.7276 H   0  0  0  0  0  0  0  0  0  0  0  0
    0.0854    3.0596   -5.9994 N   0  0  0  0  0  0  0  0  0  0  0  0
    0.5861    4.0332   -6.1517 N   0  0  0  0  0  0  0  0  0  0  0  0
    2.4897    0.7440   -6.4706 S   0  0  0  0  0  0  0  0  0  0  0  0
    3.6517   -0.4632   -5.6663 C   0  0  0  0  0  0  0  0  0  0  0  0
    1.6151   -0.1357   -7.3148 O   0  0  0  0  0  0  0  0  0  0  0  0
    3.3433    1.6782   -7.2148 O   0  0  0  0  0  0  0  0  0  0  0  0
    1.7447    1.3232   -5.3137 O   0  0  0  0  0  0  0  0  0  0  0  0
    2.9637   -1.3803   -4.9674 F   0  0  0  0  0  0  0  0  0  0  0  0
    4.3845   -1.0962   -6.5916 F   0  0  0  0  0  0  0  0  0  0  0  0
    4.4782    0.1763   -4.8280 F   0  0  0  0  0  0  0  0  0  0  0  0
   -4.2542   -1.0210   -5.6481 O   0  0  0  0  0  0  0  0  0  0  0  0
   -5.5192   -0.7291   -5.0587 C   0  0  0  0  0  0  0  0  0  0  0  0
   -6.1034   -1.6458   -5.1438 H   0  0  0  0  0  0  0  0  0  0  0  0
   -6.0318    0.0792   -5.5946 H   0  0  0  0  0  0  0  0  0  0  0  0
   -5.4133   -0.4623   -4.0002 H   0  0  0  0  0  0  0  0  0  0  0  0
  1  6  1  0  0  0  0
  2  1  2  0  0  0  0
  2  3  1  0  0  0  0
  3  4  2  0  0  0  0
  4  5  1  0  0  0  0
  4  9  1  0  0  0  0
  5 10  1  0  0  0  0
  6 21  1  0  0  0  0
  6  5  2  0  0  0  0
  7  1  1  0  0  0  0
  8  2  1  0  0  0  0
 12 11  3  0  0  0  0
 13 14  1  0  0  0  0
 13 17  1  0  0  0  0
 14 18  1  0  0  0  0
 14 20  1  0  0  0  0
 15 13  2  0  0  0  0
 16 13  2  0  0  0  0
 19 14  1  0  0  0  0
 21 22  1  0  0  0  0
 22 25  1  0  0  0  0
 23 22  1  0  0  0  0
 24 22  1  0  0  0  0
M  RAD  2   3   2  17   2
M  END
