Coordinates from ORCA-job p-CH3O-Ph-N2-OTf-B3LYP-6-31G_dp-scan-d09-49-n400
 OpenBabel02121707583D

 25 24  0  0  0  0  0  0  0  0999 V2000
   -1.8589   -0.4885   -6.0337 C   0  0  0  0  0  0  0  0  0  0  0  0
   -0.9053    0.4490   -6.3670 C   0  0  0  0  0  0  0  0  0  0  0  0
   -1.2372    1.8073   -6.1813 C   0  0  0  0  0  0  0  0  0  0  0  0
   -2.4728    2.2323   -5.6756 C   0  0  0  0  0  0  0  0  0  0  0  0
   -3.4157    1.2751   -5.3392 C   0  0  0  0  0  0  0  0  0  0  0  0
   -3.1124   -0.0922   -5.5158 C   0  0  0  0  0  0  0  0  0  0  0  0
   -1.6579   -1.5477   -6.1499 H   0  0  0  0  0  0  0  0  0  0  0  0
    0.0682    0.1784   -6.7542 H   0  0  0  0  0  0  0  0  0  0  0  0
   -2.6785    3.2892   -5.5445 H   0  0  0  0  0  0  0  0  0  0  0  0
   -4.3723    1.5888   -4.9424 H   0  0  0  0  0  0  0  0  0  0  0  0
   -0.2846    2.7652   -6.5137 N   0  0  0  0  0  0  0  0  0  0  0  0
    0.6404    3.3112   -6.8399 N   0  0  0  0  0  0  0  0  0  0  0  0
    2.6936    1.2217   -5.9227 S   0  0  0  0  0  0  0  0  0  0  0  0
    2.9897   -0.6092   -6.0948 C   0  0  0  0  0  0  0  0  0  0  0  0
    2.1144    1.5513   -7.2775 O   0  0  0  0  0  0  0  0  0  0  0  0
    4.0163    1.7859   -5.6417 O   0  0  0  0  0  0  0  0  0  0  0  0
    1.6671    1.3183   -4.8560 O   0  0  0  0  0  0  0  0  0  0  0  0
    1.8288   -1.2529   -6.3840 F   0  0  0  0  0  0  0  0  0  0  0  0
    3.8568   -0.8707   -7.0781 F   0  0  0  0  0  0  0  0  0  0  0  0
    3.4644   -1.1234   -4.9541 F   0  0  0  0  0  0  0  0  0  0  0  0
   -3.9537   -1.0943   -5.2217 O   0  0  0  0  0  0  0  0  0  0  0  0
   -5.2422   -0.7995   -4.6747 C   0  0  0  0  0  0  0  0  0  0  0  0
   -5.7204   -1.7658   -4.5175 H   0  0  0  0  0  0  0  0  0  0  0  0
   -5.8406   -0.2038   -5.3734 H   0  0  0  0  0  0  0  0  0  0  0  0
   -5.1532   -0.2754   -3.7167 H   0  0  0  0  0  0  0  0  0  0  0  0
  1  6  2  0  0  0  0
  2  3  2  0  0  0  0
  2  1  1  0  0  0  0
  3  4  1  0  0  0  0
  4  9  1  0  0  0  0
  4  5  2  0  0  0  0
  5 10  1  0  0  0  0
  6  5  1  0  0  0  0
  6 21  1  0  0  0  0
  7  1  1  0  0  0  0
  8  2  1  0  0  0  0
 11  3  1  0  0  0  0
 12 11  1  0  0  0  0
 13 16  2  0  0  0  0
 13 17  1  0  0  0  0
 14 13  1  0  0  0  0
 14 20  1  0  0  0  0
 15 13  2  0  0  0  0
 18 14  1  0  0  0  0
 19 14  1  0  0  0  0
 21 22  1  0  0  0  0
 22 23  1  0  0  0  0
 22 25  1  0  0  0  0
 24 22  1  0  0  0  0
M  RAD  3  11   2  12   3  17   2
M  END
