Coordinates from ORCA-job p-CH3O-Ph-N2-OTf-B3LYP-6-31G_dp-scan-d09-49-n400
 OpenBabel02121707583D

 25 23  0  0  0  0  0  0  0  0999 V2000
   -2.0255   -0.4026   -6.2836 C   0  0  0  0  0  0  0  0  0  0  0  0
   -0.9729    0.5259   -6.3998 C   0  0  0  0  0  0  0  0  0  0  0  0
   -1.3667    1.6866   -5.8702 C   0  0  0  0  0  0  0  0  0  0  0  0
   -2.4567    2.2097   -5.2612 C   0  0  0  0  0  0  0  0  0  0  0  0
   -3.4698    1.2330   -5.1691 C   0  0  0  0  0  0  0  0  0  0  0  0
   -3.2539   -0.0624   -5.6791 C   0  0  0  0  0  0  0  0  0  0  0  0
   -1.8798   -1.4109   -6.6579 H   0  0  0  0  0  0  0  0  0  0  0  0
    0.0362    0.2741   -6.8420 H   0  0  0  0  0  0  0  0  0  0  0  0
   -2.5652    3.2184   -4.8882 H   0  0  0  0  0  0  0  0  0  0  0  0
   -4.4045    1.5159   -4.7011 H   0  0  0  0  0  0  0  0  0  0  0  0
    0.0481    3.2422   -6.0790 N   0  0  0  0  0  0  0  0  0  0  0  0
    0.6047    4.1801   -6.2519 N   0  0  0  0  0  0  0  0  0  0  0  0
    2.5103    0.7875   -6.4663 S   0  0  0  0  0  0  0  0  0  0  0  0
    3.4799   -0.5572   -5.6280 C   0  0  0  0  0  0  0  0  0  0  0  0
    1.5784    0.0140   -7.3644 O   0  0  0  0  0  0  0  0  0  0  0  0
    3.5041    1.6023   -7.1725 O   0  0  0  0  0  0  0  0  0  0  0  0
    1.7799    1.4436   -5.3495 O   0  0  0  0  0  0  0  0  0  0  0  0
    2.6535   -1.3934   -4.9770 F   0  0  0  0  0  0  0  0  0  0  0  0
    4.1785   -1.2648   -6.5250 F   0  0  0  0  0  0  0  0  0  0  0  0
    4.3327   -0.0293   -4.7395 F   0  0  0  0  0  0  0  0  0  0  0  0
   -4.1683   -1.0562   -5.6360 O   0  0  0  0  0  0  0  0  0  0  0  0
   -5.4303   -0.8078   -5.0216 C   0  0  0  0  0  0  0  0  0  0  0  0
   -5.9867   -1.7422   -5.1001 H   0  0  0  0  0  0  0  0  0  0  0  0
   -5.9788   -0.0139   -5.5435 H   0  0  0  0  0  0  0  0  0  0  0  0
   -5.3130   -0.5424   -3.9638 H   0  0  0  0  0  0  0  0  0  0  0  0
  1  6  1  0  0  0  0
  2  1  2  0  0  0  0
  2  3  1  0  0  0  0
  3  4  2  0  0  0  0
  4  5  1  0  0  0  0
  4  9  1  0  0  0  0
  5 10  1  0  0  0  0
  6 21  1  0  0  0  0
  6  5  2  0  0  0  0
  7  1  1  0  0  0  0
  8  2  1  0  0  0  0
 12 11  3  0  0  0  0
 13 14  1  0  0  0  0
 13 17  1  0  0  0  0
 14 18  1  0  0  0  0
 14 20  1  0  0  0  0
 15 13  2  0  0  0  0
 16 13  2  0  0  0  0
 19 14  1  0  0  0  0
 21 22  1  0  0  0  0
 22 25  1  0  0  0  0
 23 22  1  0  0  0  0
 24 22  1  0  0  0  0
M  RAD  2   3   2  17   2
M  END
