Coordinates from ORCA-job p-CH3O-Ph-N2-OTf-B3LYP-6-31G_dp-scan-d09-49-n400
 OpenBabel02121707583D

 25 24  0  0  0  0  0  0  0  0999 V2000
   -1.6817   -0.3179   -6.3180 C   0  0  0  0  0  0  0  0  0  0  0  0
   -0.8280    0.6811   -6.7055 C   0  0  0  0  0  0  0  0  0  0  0  0
   -1.1643    2.0704   -6.4389 C   0  0  0  0  0  0  0  0  0  0  0  0
   -2.3944    2.3428   -5.7301 C   0  0  0  0  0  0  0  0  0  0  0  0
   -3.2207    1.3275   -5.3334 C   0  0  0  0  0  0  0  0  0  0  0  0
   -2.8700   -0.0216   -5.6202 C   0  0  0  0  0  0  0  0  0  0  0  0
   -1.4297   -1.3552   -6.5069 H   0  0  0  0  0  0  0  0  0  0  0  0
    0.1011    0.5000   -7.2361 H   0  0  0  0  0  0  0  0  0  0  0  0
   -2.6367    3.3788   -5.5128 H   0  0  0  0  0  0  0  0  0  0  0  0
   -4.1327    1.5642   -4.8007 H   0  0  0  0  0  0  0  0  0  0  0  0
   -0.4875    2.8765   -6.7239 N   0  0  0  0  0  0  0  0  0  0  0  0
    0.2292    3.7076   -7.0222 N   0  0  0  0  0  0  0  0  0  0  0  0
    2.3379    1.0285   -5.7952 S   0  0  0  0  0  0  0  0  0  0  0  0
    2.6336   -0.8059   -5.8870 C   0  0  0  0  0  0  0  0  0  0  0  0
    2.0413    1.3753   -7.2167 O   0  0  0  0  0  0  0  0  0  0  0  0
    3.5692    1.5821   -5.2239 O   0  0  0  0  0  0  0  0  0  0  0  0
    1.1161    1.1110   -4.9370 O   0  0  0  0  0  0  0  0  0  0  0  0
    1.5476   -1.4255   -6.4223 F   0  0  0  0  0  0  0  0  0  0  0  0
    3.6868   -1.0940   -6.6606 F   0  0  0  0  0  0  0  0  0  0  0  0
    2.8404   -1.3307   -4.6717 F   0  0  0  0  0  0  0  0  0  0  0  0
   -3.6120   -1.0688   -5.2689 O   0  0  0  0  0  0  0  0  0  0  0  0
   -4.8248   -0.8850   -4.5237 C   0  0  0  0  0  0  0  0  0  0  0  0
   -5.2111   -1.8885   -4.3511 H   0  0  0  0  0  0  0  0  0  0  0  0
   -5.5526   -0.3037   -5.0992 H   0  0  0  0  0  0  0  0  0  0  0  0
   -4.6225   -0.3989   -3.5640 H   0  0  0  0  0  0  0  0  0  0  0  0
  1  6  2  0  0  0  0
  2  3  2  0  0  0  0
  2  1  1  0  0  0  0
  3  4  1  0  0  0  0
  4  9  1  0  0  0  0
  4  5  2  0  0  0  0
  5 10  1  0  0  0  0
  6  5  1  0  0  0  0
  6 21  1  0  0  0  0
  7  1  1  0  0  0  0
  8  2  1  0  0  0  0
 11  3  1  0  0  0  0
 12 11  1  0  0  0  0
 13 16  2  0  0  0  0
 13 17  1  0  0  0  0
 14 13  1  0  0  0  0
 14 20  1  0  0  0  0
 15 13  2  0  0  0  0
 18 14  1  0  0  0  0
 19 14  1  0  0  0  0
 21 22  1  0  0  0  0
 22 23  1  0  0  0  0
 22 25  1  0  0  0  0
 24 22  1  0  0  0  0
M  RAD  3  11   2  12   3  17   2
M  END
