Coordinates from ORCA-job p-CH3O-Ph-N2-OTf-B3LYP-6-31G_dp-scan-d09-49-n400
 OpenBabel02121707583D

 25 24  0  0  0  0  0  0  0  0999 V2000
   -1.8559   -0.4616   -6.0536 C   0  0  0  0  0  0  0  0  0  0  0  0
   -0.9117    0.4951   -6.3829 C   0  0  0  0  0  0  0  0  0  0  0  0
   -1.2899    1.8191   -6.1665 C   0  0  0  0  0  0  0  0  0  0  0  0
   -2.5061    2.2496   -5.6606 C   0  0  0  0  0  0  0  0  0  0  0  0
   -3.4361    1.2675   -5.3335 C   0  0  0  0  0  0  0  0  0  0  0  0
   -3.1126   -0.0903   -5.5279 C   0  0  0  0  0  0  0  0  0  0  0  0
   -1.6382   -1.5160   -6.1837 H   0  0  0  0  0  0  0  0  0  0  0  0
    0.0656    0.2504   -6.7786 H   0  0  0  0  0  0  0  0  0  0  0  0
   -2.7197    3.3025   -5.5186 H   0  0  0  0  0  0  0  0  0  0  0  0
   -4.3961    1.5628   -4.9308 H   0  0  0  0  0  0  0  0  0  0  0  0
   -0.2458    2.9093   -6.5256 N   0  0  0  0  0  0  0  0  0  0  0  0
    0.7559    3.2959   -6.8548 N   0  0  0  0  0  0  0  0  0  0  0  0
    2.7194    1.2113   -5.9299 S   0  0  0  0  0  0  0  0  0  0  0  0
    2.9527   -0.6336   -6.0529 C   0  0  0  0  0  0  0  0  0  0  0  0
    2.0497    1.4978   -7.2632 O   0  0  0  0  0  0  0  0  0  0  0  0
    4.0733    1.7500   -5.7846 O   0  0  0  0  0  0  0  0  0  0  0  0
    1.7747    1.3908   -4.8058 O   0  0  0  0  0  0  0  0  0  0  0  0
    1.7613   -1.2496   -6.2563 F   0  0  0  0  0  0  0  0  0  0  0  0
    3.7589   -0.9516   -7.0700 F   0  0  0  0  0  0  0  0  0  0  0  0
    3.4740   -1.1172   -4.9202 F   0  0  0  0  0  0  0  0  0  0  0  0
   -3.9396   -1.1132   -5.2432 O   0  0  0  0  0  0  0  0  0  0  0  0
   -5.2267   -0.8396   -4.6880 C   0  0  0  0  0  0  0  0  0  0  0  0
   -5.6943   -1.8124   -4.5378 H   0  0  0  0  0  0  0  0  0  0  0  0
   -5.8372   -0.2434   -5.3764 H   0  0  0  0  0  0  0  0  0  0  0  0
   -5.1414   -0.3238   -3.7245 H   0  0  0  0  0  0  0  0  0  0  0  0
  1  6  2  0  0  0  0
  2  3  2  0  0  0  0
  2  1  1  0  0  0  0
  3  4  1  0  0  0  0
  4  9  1  0  0  0  0
  4  5  2  0  0  0  0
  5 10  1  0  0  0  0
  6  5  1  0  0  0  0
  6 21  1  0  0  0  0
  7  1  1  0  0  0  0
  8  2  1  0  0  0  0
 11  3  1  0  0  0  0
 12 11  1  0  0  0  0
 13 16  2  0  0  0  0
 13 17  1  0  0  0  0
 14 13  1  0  0  0  0
 14 20  1  0  0  0  0
 15 13  2  0  0  0  0
 18 14  1  0  0  0  0
 19 14  1  0  0  0  0
 21 22  1  0  0  0  0
 22 23  1  0  0  0  0
 22 25  1  0  0  0  0
 24 22  1  0  0  0  0
M  RAD  3  11   2  12   3  17   2
M  END
