Coordinates from ORCA-job p-CH3O-Ph-N2-OTf-B3LYP-6-31G_dp-scan-d09-49-n400
 OpenBabel02121707583D

 25 24  0  0  0  0  0  0  0  0999 V2000
   -2.2144    0.1580   -7.3252 C   0  0  0  0  0  0  0  0  0  0  0  0
   -0.8984    0.5988   -7.3430 C   0  0  0  0  0  0  0  0  0  0  0  0
   -0.2873    0.9539   -6.1395 C   0  0  0  0  0  0  0  0  0  0  0  0
   -0.9672    0.8728   -4.9317 C   0  0  0  0  0  0  0  0  0  0  0  0
   -2.2948    0.4383   -4.9138 C   0  0  0  0  0  0  0  0  0  0  0  0
   -2.9231    0.0768   -6.1138 C   0  0  0  0  0  0  0  0  0  0  0  0
   -2.7209   -0.1273   -8.2409 H   0  0  0  0  0  0  0  0  0  0  0  0
   -0.3466    0.6692   -8.2734 H   0  0  0  0  0  0  0  0  0  0  0  0
   -0.4654    1.1597   -4.0139 H   0  0  0  0  0  0  0  0  0  0  0  0
   -2.8207    0.3879   -3.9678 H   0  0  0  0  0  0  0  0  0  0  0  0
   -1.0873    3.8063   -6.5077 N   0  0  0  0  0  0  0  0  0  0  0  0
   -2.1491    4.1144   -6.5183 N   0  0  0  0  0  0  0  0  0  0  0  0
    2.3177    0.5150   -6.3958 S   0  0  0  0  0  0  0  0  0  0  0  0
    2.6157   -0.1064   -4.6556 C   0  0  0  0  0  0  0  0  0  0  0  0
    1.9538   -0.6353   -7.2072 O   0  0  0  0  0  0  0  0  0  0  0  0
    3.4115    1.4088   -6.7219 O   0  0  0  0  0  0  0  0  0  0  0  0
    1.0207    1.4875   -6.1310 O   0  0  0  0  0  0  0  0  0  0  0  0
    1.6135   -0.9057   -4.2843 F   0  0  0  0  0  0  0  0  0  0  0  0
    3.7597   -0.7868   -4.6413 F   0  0  0  0  0  0  0  0  0  0  0  0
    2.6933    0.9254   -3.8163 F   0  0  0  0  0  0  0  0  0  0  0  0
   -4.2077   -0.3604   -6.2137 O   0  0  0  0  0  0  0  0  0  0  0  0
   -4.9791   -0.4728   -5.0261 C   0  0  0  0  0  0  0  0  0  0  0  0
   -5.9585   -0.8384   -5.3378 H   0  0  0  0  0  0  0  0  0  0  0  0
   -5.0975    0.4980   -4.5282 H   0  0  0  0  0  0  0  0  0  0  0  0
   -4.5338   -1.1877   -4.3217 H   0  0  0  0  0  0  0  0  0  0  0  0
  1  6  1  0  0  0  0
  2  1  2  0  0  0  0
  2  3  1  0  0  0  0
  3 17  1  0  0  0  0
  3  4  2  0  0  0  0
  4  5  1  0  0  0  0
  4  9  1  0  0  0  0
  5 10  1  0  0  0  0
  6  5  2  0  0  0  0
  7  1  1  0  0  0  0
  8  2  1  0  0  0  0
 12 11  3  0  0  0  0
 13 17  1  0  0  0  0
 13 14  1  0  0  0  0
 14 19  1  0  0  0  0
 14 18  1  0  0  0  0
 14 20  1  0  0  0  0
 15 13  2  0  0  0  0
 16 13  2  0  0  0  0
 21  6  1  0  0  0  0
 21 22  1  0  0  0  0
 22 24  1  0  0  0  0
 22 25  1  0  0  0  0
 23 22  1  0  0  0  0
M  END
