Coordinates from ORCA-job p-CH3O-Ph-N2-OTf-B3LYP-6-31G_dp-scan-d09-49-n400
 OpenBabel02121707583D

 25 24  0  0  0  0  0  0  0  0999 V2000
   -2.1050    0.1102   -7.3313 C   0  0  0  0  0  0  0  0  0  0  0  0
   -0.7722    0.4980   -7.3472 C   0  0  0  0  0  0  0  0  0  0  0  0
   -0.1537    0.8427   -6.1446 C   0  0  0  0  0  0  0  0  0  0  0  0
   -0.8459    0.8173   -4.9414 C   0  0  0  0  0  0  0  0  0  0  0  0
   -2.1897    0.4351   -4.9256 C   0  0  0  0  0  0  0  0  0  0  0  0
   -2.8231    0.0756   -6.1234 C   0  0  0  0  0  0  0  0  0  0  0  0
   -2.6169   -0.1691   -8.2459 H   0  0  0  0  0  0  0  0  0  0  0  0
   -0.2119    0.5304   -8.2747 H   0  0  0  0  0  0  0  0  0  0  0  0
   -0.3392    1.1006   -4.0250 H   0  0  0  0  0  0  0  0  0  0  0  0
   -2.7242    0.4234   -3.9831 H   0  0  0  0  0  0  0  0  0  0  0  0
   -2.2360    4.9817   -6.6374 N   0  0  0  0  0  0  0  0  0  0  0  0
   -3.2797    4.6314   -6.5387 N   0  0  0  0  0  0  0  0  0  0  0  0
    2.4364    0.3013   -6.3642 S   0  0  0  0  0  0  0  0  0  0  0  0
    2.6827   -0.3024   -4.6095 C   0  0  0  0  0  0  0  0  0  0  0  0
    2.0403   -0.8470   -7.1632 O   0  0  0  0  0  0  0  0  0  0  0  0
    3.5688    1.1470   -6.6868 O   0  0  0  0  0  0  0  0  0  0  0  0
    1.1742    1.3281   -6.1372 O   0  0  0  0  0  0  0  0  0  0  0  0
    1.6528   -1.0702   -4.2481 F   0  0  0  0  0  0  0  0  0  0  0  0
    3.8082   -1.0114   -4.5623 F   0  0  0  0  0  0  0  0  0  0  0  0
    2.7700    0.7391   -3.7831 F   0  0  0  0  0  0  0  0  0  0  0  0
   -4.1226   -0.3157   -6.2246 O   0  0  0  0  0  0  0  0  0  0  0  0
   -4.9044   -0.3810   -5.0403 C   0  0  0  0  0  0  0  0  0  0  0  0
   -5.8933   -0.7202   -5.3518 H   0  0  0  0  0  0  0  0  0  0  0  0
   -4.9941    0.6022   -4.5610 H   0  0  0  0  0  0  0  0  0  0  0  0
   -4.4873   -1.0969   -4.3199 H   0  0  0  0  0  0  0  0  0  0  0  0
  1  6  1  0  0  0  0
  2  1  2  0  0  0  0
  2  3  1  0  0  0  0
  3 17  1  0  0  0  0
  3  4  2  0  0  0  0
  4  5  1  0  0  0  0
  4  9  1  0  0  0  0
  5 10  1  0  0  0  0
  6  5  2  0  0  0  0
  7  1  1  0  0  0  0
  8  2  1  0  0  0  0
 11 12  3  0  0  0  0
 13 17  1  0  0  0  0
 13 14  1  0  0  0  0
 14 19  1  0  0  0  0
 14 18  1  0  0  0  0
 14 20  1  0  0  0  0
 15 13  2  0  0  0  0
 16 13  2  0  0  0  0
 21  6  1  0  0  0  0
 21 22  1  0  0  0  0
 22 24  1  0  0  0  0
 22 25  1  0  0  0  0
 23 22  1  0  0  0  0
M  END
