Coordinates from ORCA-job p-CH3O-Ph-N2-OTf-B3LYP-6-31G_dp-scan-d09-49-n400
 OpenBabel02121707583D

 25 24  0  0  0  0  0  0  0  0999 V2000
   -1.6772   -0.3133   -6.3211 C   0  0  0  0  0  0  0  0  0  0  0  0
   -0.8257    0.6874   -6.7086 C   0  0  0  0  0  0  0  0  0  0  0  0
   -1.1629    2.0784   -6.4420 C   0  0  0  0  0  0  0  0  0  0  0  0
   -2.3944    2.3456   -5.7298 C   0  0  0  0  0  0  0  0  0  0  0  0
   -3.2175    1.3286   -5.3326 C   0  0  0  0  0  0  0  0  0  0  0  0
   -2.8649   -0.0199   -5.6213 C   0  0  0  0  0  0  0  0  0  0  0  0
   -1.4234   -1.3500   -6.5109 H   0  0  0  0  0  0  0  0  0  0  0  0
    0.1028    0.5083   -7.2412 H   0  0  0  0  0  0  0  0  0  0  0  0
   -2.6385    3.3810   -5.5115 H   0  0  0  0  0  0  0  0  0  0  0  0
   -4.1291    1.5630   -4.7983 H   0  0  0  0  0  0  0  0  0  0  0  0
   -0.4949    2.8787   -6.7259 N   0  0  0  0  0  0  0  0  0  0  0  0
    0.2196    3.7126   -7.0261 N   0  0  0  0  0  0  0  0  0  0  0  0
    2.3339    1.0249   -5.7960 S   0  0  0  0  0  0  0  0  0  0  0  0
    2.6254   -0.8105   -5.8828 C   0  0  0  0  0  0  0  0  0  0  0  0
    2.0441    1.3699   -7.2190 O   0  0  0  0  0  0  0  0  0  0  0  0
    3.5637    1.5764   -5.2197 O   0  0  0  0  0  0  0  0  0  0  0  0
    1.1086    1.1116   -4.9427 O   0  0  0  0  0  0  0  0  0  0  0  0
    1.5402   -1.4283   -6.4220 F   0  0  0  0  0  0  0  0  0  0  0  0
    3.6815   -1.1027   -6.6508 F   0  0  0  0  0  0  0  0  0  0  0  0
    2.8250   -1.3335   -4.6655 F   0  0  0  0  0  0  0  0  0  0  0  0
   -3.6045   -1.0685   -5.2698 O   0  0  0  0  0  0  0  0  0  0  0  0
   -4.8166   -0.8878   -4.5226 C   0  0  0  0  0  0  0  0  0  0  0  0
   -5.2006   -1.8922   -4.3504 H   0  0  0  0  0  0  0  0  0  0  0  0
   -5.5464   -0.3074   -5.0965 H   0  0  0  0  0  0  0  0  0  0  0  0
   -4.6139   -0.4022   -3.5628 H   0  0  0  0  0  0  0  0  0  0  0  0
  1  6  2  0  0  0  0
  2  3  2  0  0  0  0
  2  1  1  0  0  0  0
  3  4  1  0  0  0  0
  4  9  1  0  0  0  0
  4  5  2  0  0  0  0
  5 10  1  0  0  0  0
  6  5  1  0  0  0  0
  6 21  1  0  0  0  0
  7  1  1  0  0  0  0
  8  2  1  0  0  0  0
 11  3  1  0  0  0  0
 12 11  1  0  0  0  0
 13 16  2  0  0  0  0
 13 17  1  0  0  0  0
 14 13  1  0  0  0  0
 14 20  1  0  0  0  0
 15 13  2  0  0  0  0
 18 14  1  0  0  0  0
 19 14  1  0  0  0  0
 21 22  1  0  0  0  0
 22 23  1  0  0  0  0
 22 25  1  0  0  0  0
 24 22  1  0  0  0  0
M  RAD  3  11   2  12   3  17   2
M  END
