Coordinates from ORCA-job p-CH3O-Ph-N2-OTf-B3LYP-6-31G_dp-scan-d09-49-n400
 OpenBabel02121707583D

 25 24  0  0  0  0  0  0  0  0999 V2000
   -2.1321    0.1224   -7.3278 C   0  0  0  0  0  0  0  0  0  0  0  0
   -0.8028    0.5222   -7.3428 C   0  0  0  0  0  0  0  0  0  0  0  0
   -0.1849    0.8621   -6.1384 C   0  0  0  0  0  0  0  0  0  0  0  0
   -0.8750    0.8212   -4.9344 C   0  0  0  0  0  0  0  0  0  0  0  0
   -2.2154    0.4273   -4.9195 C   0  0  0  0  0  0  0  0  0  0  0  0
   -2.8478    0.0718   -6.1190 C   0  0  0  0  0  0  0  0  0  0  0  0
   -2.6431   -0.1539   -8.2437 H   0  0  0  0  0  0  0  0  0  0  0  0
   -0.2446    0.5676   -8.2711 H   0  0  0  0  0  0  0  0  0  0  0  0
   -0.3694    1.1018   -4.0167 H   0  0  0  0  0  0  0  0  0  0  0  0
   -2.7480    0.4033   -3.9762 H   0  0  0  0  0  0  0  0  0  0  0  0
   -1.9545    4.7483   -6.6314 N   0  0  0  0  0  0  0  0  0  0  0  0
   -3.0426    4.5682   -6.5589 N   0  0  0  0  0  0  0  0  0  0  0  0
    2.4098    0.3478   -6.3698 S   0  0  0  0  0  0  0  0  0  0  0  0
    2.6746   -0.2597   -4.6194 C   0  0  0  0  0  0  0  0  0  0  0  0
    2.0201   -0.8016   -7.1705 O   0  0  0  0  0  0  0  0  0  0  0  0
    3.5309    1.2066   -6.6970 O   0  0  0  0  0  0  0  0  0  0  0  0
    1.1382    1.3598   -6.1294 O   0  0  0  0  0  0  0  0  0  0  0  0
    1.6510   -1.0326   -4.2507 F   0  0  0  0  0  0  0  0  0  0  0  0
    3.8032   -0.9647   -4.5844 F   0  0  0  0  0  0  0  0  0  0  0  0
    2.7655    0.7797   -3.7909 F   0  0  0  0  0  0  0  0  0  0  0  0
   -4.1440   -0.3298   -6.2211 O   0  0  0  0  0  0  0  0  0  0  0  0
   -4.9237   -0.4087   -5.0364 C   0  0  0  0  0  0  0  0  0  0  0  0
   -5.9112   -0.7511   -5.3491 H   0  0  0  0  0  0  0  0  0  0  0  0
   -5.0184    0.5703   -4.5494 H   0  0  0  0  0  0  0  0  0  0  0  0
   -4.5016   -1.1277   -4.3221 H   0  0  0  0  0  0  0  0  0  0  0  0
  1  6  1  0  0  0  0
  2  1  2  0  0  0  0
  2  3  1  0  0  0  0
  3 17  1  0  0  0  0
  3  4  2  0  0  0  0
  4  5  1  0  0  0  0
  4  9  1  0  0  0  0
  5 10  1  0  0  0  0
  6  5  2  0  0  0  0
  7  1  1  0  0  0  0
  8  2  1  0  0  0  0
 11 12  3  0  0  0  0
 13 17  1  0  0  0  0
 13 14  1  0  0  0  0
 14 19  1  0  0  0  0
 14 18  1  0  0  0  0
 14 20  1  0  0  0  0
 15 13  2  0  0  0  0
 16 13  2  0  0  0  0
 21  6  1  0  0  0  0
 21 22  1  0  0  0  0
 22 24  1  0  0  0  0
 22 25  1  0  0  0  0
 23 22  1  0  0  0  0
M  END
