Coordinates from ORCA-job p-CH3O-Ph-N2-OTf-B3LYP-6-31G_dp-scan-d09-49-n400
 OpenBabel02121707583D

 25 24  0  0  0  0  0  0  0  0999 V2000
   -1.8606   -0.4860   -6.0286 C   0  0  0  0  0  0  0  0  0  0  0  0
   -0.9076    0.4539   -6.3609 C   0  0  0  0  0  0  0  0  0  0  0  0
   -1.2479    1.8067   -6.1749 C   0  0  0  0  0  0  0  0  0  0  0  0
   -2.4813    2.2339   -5.6744 C   0  0  0  0  0  0  0  0  0  0  0  0
   -3.4236    1.2736   -5.3398 C   0  0  0  0  0  0  0  0  0  0  0  0
   -3.1164   -0.0925   -5.5146 C   0  0  0  0  0  0  0  0  0  0  0  0
   -1.6567   -1.5448   -6.1438 H   0  0  0  0  0  0  0  0  0  0  0  0
    0.0676    0.1860   -6.7458 H   0  0  0  0  0  0  0  0  0  0  0  0
   -2.6888    3.2905   -5.5453 H   0  0  0  0  0  0  0  0  0  0  0  0
   -4.3820    1.5853   -4.9460 H   0  0  0  0  0  0  0  0  0  0  0  0
   -0.2768    2.7880   -6.5127 N   0  0  0  0  0  0  0  0  0  0  0  0
    0.6669    3.2998   -6.8417 N   0  0  0  0  0  0  0  0  0  0  0  0
    2.7038    1.2217   -5.9232 S   0  0  0  0  0  0  0  0  0  0  0  0
    2.9909   -0.6109   -6.0950 C   0  0  0  0  0  0  0  0  0  0  0  0
    2.1062    1.5474   -7.2735 O   0  0  0  0  0  0  0  0  0  0  0  0
    4.0324    1.7830   -5.6666 O   0  0  0  0  0  0  0  0  0  0  0  0
    1.6924    1.3281   -4.8445 O   0  0  0  0  0  0  0  0  0  0  0  0
    1.8248   -1.2507   -6.3691 F   0  0  0  0  0  0  0  0  0  0  0  0
    3.8459   -0.8770   -7.0874 F   0  0  0  0  0  0  0  0  0  0  0  0
    3.4770   -1.1230   -4.9583 F   0  0  0  0  0  0  0  0  0  0  0  0
   -3.9563   -1.0975   -5.2220 O   0  0  0  0  0  0  0  0  0  0  0  0
   -5.2464   -0.8044   -4.6790 C   0  0  0  0  0  0  0  0  0  0  0  0
   -5.7236   -1.7713   -4.5219 H   0  0  0  0  0  0  0  0  0  0  0  0
   -5.8442   -0.2105   -5.3798 H   0  0  0  0  0  0  0  0  0  0  0  0
   -5.1614   -0.2789   -3.7213 H   0  0  0  0  0  0  0  0  0  0  0  0
  1  6  2  0  0  0  0
  2  3  2  0  0  0  0
  2  1  1  0  0  0  0
  3  4  1  0  0  0  0
  4  9  1  0  0  0  0
  4  5  2  0  0  0  0
  5 10  1  0  0  0  0
  6  5  1  0  0  0  0
  6 21  1  0  0  0  0
  7  1  1  0  0  0  0
  8  2  1  0  0  0  0
 11  3  1  0  0  0  0
 12 11  1  0  0  0  0
 13 16  2  0  0  0  0
 13 17  1  0  0  0  0
 14 13  1  0  0  0  0
 14 20  1  0  0  0  0
 15 13  2  0  0  0  0
 18 14  1  0  0  0  0
 19 14  1  0  0  0  0
 21 22  1  0  0  0  0
 22 23  1  0  0  0  0
 22 25  1  0  0  0  0
 24 22  1  0  0  0  0
M  RAD  3  11   2  12   3  17   2
M  END
