Coordinates from ORCA-job p-CH3O-Ph-N2-OTf-B3LYP-6-31G_dp-scan-d09-49-n400
 OpenBabel02121707583D

 25 24  0  0  0  0  0  0  0  0999 V2000
   -2.2040    0.1477   -7.3247 C   0  0  0  0  0  0  0  0  0  0  0  0
   -0.8852    0.5808   -7.3401 C   0  0  0  0  0  0  0  0  0  0  0  0
   -0.2729    0.9278   -6.1348 C   0  0  0  0  0  0  0  0  0  0  0  0
   -0.9570    0.8553   -4.9289 C   0  0  0  0  0  0  0  0  0  0  0  0
   -2.2873    0.4283   -4.9135 C   0  0  0  0  0  0  0  0  0  0  0  0
   -2.9149    0.0695   -6.1146 C   0  0  0  0  0  0  0  0  0  0  0  0
   -2.7108   -0.1334   -8.2416 H   0  0  0  0  0  0  0  0  0  0  0  0
   -0.3316    0.6489   -8.2696 H   0  0  0  0  0  0  0  0  0  0  0  0
   -0.4556    1.1399   -4.0101 H   0  0  0  0  0  0  0  0  0  0  0  0
   -2.8156    0.3822   -3.9687 H   0  0  0  0  0  0  0  0  0  0  0  0
   -1.2111    3.9988   -6.5334 N   0  0  0  0  0  0  0  0  0  0  0  0
   -2.2907    4.2367   -6.5307 N   0  0  0  0  0  0  0  0  0  0  0  0
    2.3322    0.4853   -6.3912 S   0  0  0  0  0  0  0  0  0  0  0  0
    2.6380   -0.1266   -4.6493 C   0  0  0  0  0  0  0  0  0  0  0  0
    1.9632   -0.6690   -7.1946 O   0  0  0  0  0  0  0  0  0  0  0  0
    3.4247    1.3767   -6.7277 O   0  0  0  0  0  0  0  0  0  0  0  0
    1.0364    1.4593   -6.1244 O   0  0  0  0  0  0  0  0  0  0  0  0
    1.6309   -0.9137   -4.2650 F   0  0  0  0  0  0  0  0  0  0  0  0
    3.7755   -0.8181   -4.6390 F   0  0  0  0  0  0  0  0  0  0  0  0
    2.7320    0.9100   -3.8179 F   0  0  0  0  0  0  0  0  0  0  0  0
   -4.2018   -0.3610   -6.2167 O   0  0  0  0  0  0  0  0  0  0  0  0
   -4.9762   -0.4676   -5.0307 C   0  0  0  0  0  0  0  0  0  0  0  0
   -5.9570   -0.8282   -5.3440 H   0  0  0  0  0  0  0  0  0  0  0  0
   -5.0904    0.5045   -4.5343 H   0  0  0  0  0  0  0  0  0  0  0  0
   -4.5366   -1.1840   -4.3244 H   0  0  0  0  0  0  0  0  0  0  0  0
  1  6  1  0  0  0  0
  2  1  2  0  0  0  0
  2  3  1  0  0  0  0
  3 17  1  0  0  0  0
  3  4  2  0  0  0  0
  4  5  1  0  0  0  0
  4  9  1  0  0  0  0
  5 10  1  0  0  0  0
  6  5  2  0  0  0  0
  7  1  1  0  0  0  0
  8  2  1  0  0  0  0
 11 12  3  0  0  0  0
 13 17  1  0  0  0  0
 13 14  1  0  0  0  0
 14 19  1  0  0  0  0
 14 18  1  0  0  0  0
 14 20  1  0  0  0  0
 15 13  2  0  0  0  0
 16 13  2  0  0  0  0
 21  6  1  0  0  0  0
 21 22  1  0  0  0  0
 22 24  1  0  0  0  0
 22 25  1  0  0  0  0
 23 22  1  0  0  0  0
M  END
