Coordinates from ORCA-job p-CH3O-Ph-N2-OTf-B3LYP-6-31G_dp-scan-d09-49-n400
 OpenBabel02121707583D

 25 24  0  0  0  0  0  0  0  0999 V2000
   -2.1015    0.1077   -7.3318 C   0  0  0  0  0  0  0  0  0  0  0  0
   -0.7683    0.4944   -7.3480 C   0  0  0  0  0  0  0  0  0  0  0  0
   -0.1501    0.8403   -6.1456 C   0  0  0  0  0  0  0  0  0  0  0  0
   -0.8421    0.8160   -4.9423 C   0  0  0  0  0  0  0  0  0  0  0  0
   -2.1863    0.4350   -4.9264 C   0  0  0  0  0  0  0  0  0  0  0  0
   -2.8198    0.0750   -6.1240 C   0  0  0  0  0  0  0  0  0  0  0  0
   -2.6135   -0.1722   -8.2461 H   0  0  0  0  0  0  0  0  0  0  0  0
   -0.2077    0.5250   -8.2753 H   0  0  0  0  0  0  0  0  0  0  0  0
   -0.3353    1.0994   -4.0261 H   0  0  0  0  0  0  0  0  0  0  0  0
   -2.7211    0.4247   -3.9841 H   0  0  0  0  0  0  0  0  0  0  0  0
   -2.2726    5.0155   -6.6377 N   0  0  0  0  0  0  0  0  0  0  0  0
   -3.3088    4.6442   -6.5360 N   0  0  0  0  0  0  0  0  0  0  0  0
    2.4394    0.2952   -6.3635 S   0  0  0  0  0  0  0  0  0  0  0  0
    2.6837   -0.3073   -4.6081 C   0  0  0  0  0  0  0  0  0  0  0  0
    2.0424   -0.8533   -7.1617 O   0  0  0  0  0  0  0  0  0  0  0  0
    3.5732    1.1391   -6.6860 O   0  0  0  0  0  0  0  0  0  0  0  0
    1.1786    1.3238   -6.1384 O   0  0  0  0  0  0  0  0  0  0  0  0
    1.6532   -1.0744   -4.2470 F   0  0  0  0  0  0  0  0  0  0  0  0
    3.8089   -1.0168   -4.5592 F   0  0  0  0  0  0  0  0  0  0  0  0
    2.7707    0.7348   -3.7824 F   0  0  0  0  0  0  0  0  0  0  0  0
   -4.1197   -0.3149   -6.2250 O   0  0  0  0  0  0  0  0  0  0  0  0
   -4.9018   -0.3778   -5.0408 C   0  0  0  0  0  0  0  0  0  0  0  0
   -5.8911   -0.7161   -5.3522 H   0  0  0  0  0  0  0  0  0  0  0  0
   -4.9903    0.6062   -4.5628 H   0  0  0  0  0  0  0  0  0  0  0  0
   -4.4858   -1.0933   -4.3195 H   0  0  0  0  0  0  0  0  0  0  0  0
  1  6  1  0  0  0  0
  2  1  2  0  0  0  0
  2  3  1  0  0  0  0
  3 17  1  0  0  0  0
  3  4  2  0  0  0  0
  4  5  1  0  0  0  0
  4  9  1  0  0  0  0
  5 10  1  0  0  0  0
  6  5  2  0  0  0  0
  7  1  1  0  0  0  0
  8  2  1  0  0  0  0
 11 12  3  0  0  0  0
 13 17  1  0  0  0  0
 13 14  1  0  0  0  0
 14 19  1  0  0  0  0
 14 18  1  0  0  0  0
 14 20  1  0  0  0  0
 15 13  2  0  0  0  0
 16 13  2  0  0  0  0
 21  6  1  0  0  0  0
 21 22  1  0  0  0  0
 22 24  1  0  0  0  0
 22 25  1  0  0  0  0
 23 22  1  0  0  0  0
M  END
