Coordinates from ORCA-job p-CH3O-Ph-N2-OTf-B3LYP-6-31G_dp-scan-d09-49-n400
 OpenBabel02121707583D

 25 23  0  0  0  0  0  0  0  0999 V2000
   -1.9581   -0.3457   -6.3715 C   0  0  0  0  0  0  0  0  0  0  0  0
   -0.9445    0.6248   -6.5116 C   0  0  0  0  0  0  0  0  0  0  0  0
   -1.3560    1.7467   -5.9277 C   0  0  0  0  0  0  0  0  0  0  0  0
   -2.4263    2.2245   -5.2546 C   0  0  0  0  0  0  0  0  0  0  0  0
   -3.3999    1.2086   -5.1420 C   0  0  0  0  0  0  0  0  0  0  0  0
   -3.1661   -0.0644   -5.6989 C   0  0  0  0  0  0  0  0  0  0  0  0
   -1.7936   -1.3395   -6.7759 H   0  0  0  0  0  0  0  0  0  0  0  0
    0.0662    0.4167   -6.9912 H   0  0  0  0  0  0  0  0  0  0  0  0
   -2.5492    3.2196   -4.8508 H   0  0  0  0  0  0  0  0  0  0  0  0
   -4.3202    1.4463   -4.6228 H   0  0  0  0  0  0  0  0  0  0  0  0
    0.0040    3.4197   -6.2000 N   0  0  0  0  0  0  0  0  0  0  0  0
    0.6105    4.3193   -6.4040 N   0  0  0  0  0  0  0  0  0  0  0  0
    2.5210    0.8334   -6.4597 S   0  0  0  0  0  0  0  0  0  0  0  0
    3.1809   -0.6449   -5.5494 C   0  0  0  0  0  0  0  0  0  0  0  0
    1.5895    0.2031   -7.4701 O   0  0  0  0  0  0  0  0  0  0  0  0
    3.6937    1.4860   -7.0464 O   0  0  0  0  0  0  0  0  0  0  0  0
    1.7744    1.5837   -5.4191 O   0  0  0  0  0  0  0  0  0  0  0  0
    2.1666   -1.3533   -5.0198 F   0  0  0  0  0  0  0  0  0  0  0  0
    3.8681   -1.4439   -6.3749 F   0  0  0  0  0  0  0  0  0  0  0  0
    3.9898   -0.2581   -4.5542 F   0  0  0  0  0  0  0  0  0  0  0  0
   -4.0437   -1.0907   -5.6397 O   0  0  0  0  0  0  0  0  0  0  0  0
   -5.2770   -0.9047   -4.9501 C   0  0  0  0  0  0  0  0  0  0  0  0
   -5.8044   -1.8562   -5.0244 H   0  0  0  0  0  0  0  0  0  0  0  0
   -5.8814   -0.1175   -5.4180 H   0  0  0  0  0  0  0  0  0  0  0  0
   -5.1099   -0.6632   -3.8931 H   0  0  0  0  0  0  0  0  0  0  0  0
  1  6  1  0  0  0  0
  2  1  2  0  0  0  0
  2  3  1  0  0  0  0
  3  4  2  0  0  0  0
  4  5  1  0  0  0  0
  4  9  1  0  0  0  0
  5 10  1  0  0  0  0
  6 21  1  0  0  0  0
  6  5  2  0  0  0  0
  7  1  1  0  0  0  0
  8  2  1  0  0  0  0
 12 11  3  0  0  0  0
 13 14  1  0  0  0  0
 13 17  1  0  0  0  0
 14 18  1  0  0  0  0
 14 20  1  0  0  0  0
 15 13  2  0  0  0  0
 16 13  2  0  0  0  0
 19 14  1  0  0  0  0
 21 22  1  0  0  0  0
 22 25  1  0  0  0  0
 23 22  1  0  0  0  0
 24 22  1  0  0  0  0
M  RAD  2   3   2  17   2
M  END
