Coordinates from ORCA-job p-CH3O-Ph-N2-OTf-B3LYP-6-31G_dp-scan-d09-49-n400
 OpenBabel02121707583D

 25 24  0  0  0  0  0  0  0  0999 V2000
   -2.2180    0.1713   -7.3252 C   0  0  0  0  0  0  0  0  0  0  0  0
   -0.9053    0.6211   -7.3471 C   0  0  0  0  0  0  0  0  0  0  0  0
   -0.2969    0.9922   -6.1471 C   0  0  0  0  0  0  0  0  0  0  0  0
   -0.9694    0.8975   -4.9361 C   0  0  0  0  0  0  0  0  0  0  0  0
   -2.2937    0.4540   -4.9137 C   0  0  0  0  0  0  0  0  0  0  0  0
   -2.9236    0.0887   -6.1119 C   0  0  0  0  0  0  0  0  0  0  0  0
   -2.7240   -0.1219   -8.2386 H   0  0  0  0  0  0  0  0  0  0  0  0
   -0.3556    0.6917   -8.2787 H   0  0  0  0  0  0  0  0  0  0  0  0
   -0.4659    1.1867   -4.0199 H   0  0  0  0  0  0  0  0  0  0  0  0
   -2.8155    0.3976   -3.9659 H   0  0  0  0  0  0  0  0  0  0  0  0
   -1.0055    3.6113   -6.4882 N   0  0  0  0  0  0  0  0  0  0  0  0
   -2.0493    3.9767   -6.5143 N   0  0  0  0  0  0  0  0  0  0  0  0
    2.3060    0.5428   -6.3991 S   0  0  0  0  0  0  0  0  0  0  0  0
    2.5814   -0.0985   -4.6619 C   0  0  0  0  0  0  0  0  0  0  0  0
    1.9461   -0.5974   -7.2263 O   0  0  0  0  0  0  0  0  0  0  0  0
    3.4081    1.4339   -6.7035 O   0  0  0  0  0  0  0  0  0  0  0  0
    1.0125    1.5211   -6.1413 O   0  0  0  0  0  0  0  0  0  0  0  0
    1.5848   -0.9162   -4.3186 F   0  0  0  0  0  0  0  0  0  0  0  0
    3.7346   -0.7628   -4.6369 F   0  0  0  0  0  0  0  0  0  0  0  0
    2.6302    0.9233   -3.8077 F   0  0  0  0  0  0  0  0  0  0  0  0
   -4.2055   -0.3564   -6.2079 O   0  0  0  0  0  0  0  0  0  0  0  0
   -4.9730   -0.4733   -5.0181 C   0  0  0  0  0  0  0  0  0  0  0  0
   -5.9513   -0.8439   -5.3272 H   0  0  0  0  0  0  0  0  0  0  0  0
   -5.0950    0.4968   -4.5196 H   0  0  0  0  0  0  0  0  0  0  0  0
   -4.5218   -1.1860   -4.3153 H   0  0  0  0  0  0  0  0  0  0  0  0
  1  6  1  0  0  0  0
  2  1  2  0  0  0  0
  2  3  1  0  0  0  0
  3 17  1  0  0  0  0
  3  4  2  0  0  0  0
  4  5  1  0  0  0  0
  4  9  1  0  0  0  0
  5 10  1  0  0  0  0
  6  5  2  0  0  0  0
  7  1  1  0  0  0  0
  8  2  1  0  0  0  0
 12 11  3  0  0  0  0
 13 17  1  0  0  0  0
 13 14  1  0  0  0  0
 14 19  1  0  0  0  0
 14 18  1  0  0  0  0
 14 20  1  0  0  0  0
 15 13  2  0  0  0  0
 16 13  2  0  0  0  0
 21  6  1  0  0  0  0
 21 22  1  0  0  0  0
 22 24  1  0  0  0  0
 22 25  1  0  0  0  0
 23 22  1  0  0  0  0
M  END
