Coordinates from ORCA-job p-CH3O-Ph-N2-OTf-B3LYP-6-31G_dp-scan-d09-49-n400
 OpenBabel02121707583D

 25 24  0  0  0  0  0  0  0  0999 V2000
   -2.2179    0.1701   -7.3251 C   0  0  0  0  0  0  0  0  0  0  0  0
   -0.9049    0.6191   -7.3467 C   0  0  0  0  0  0  0  0  0  0  0  0
   -0.2963    0.9886   -6.1463 C   0  0  0  0  0  0  0  0  0  0  0  0
   -0.9695    0.8953   -4.9356 C   0  0  0  0  0  0  0  0  0  0  0  0
   -2.2941    0.4525   -4.9137 C   0  0  0  0  0  0  0  0  0  0  0  0
   -2.9238    0.0876   -6.1121 C   0  0  0  0  0  0  0  0  0  0  0  0
   -2.7239   -0.1223   -8.2388 H   0  0  0  0  0  0  0  0  0  0  0  0
   -0.3550    0.6897   -8.2781 H   0  0  0  0  0  0  0  0  0  0  0  0
   -0.4662    1.1842   -4.0193 H   0  0  0  0  0  0  0  0  0  0  0  0
   -2.8163    0.3968   -3.9660 H   0  0  0  0  0  0  0  0  0  0  0  0
   -1.0110    3.6266   -6.4896 N   0  0  0  0  0  0  0  0  0  0  0  0
   -2.0562    3.9879   -6.5146 N   0  0  0  0  0  0  0  0  0  0  0  0
    2.3069    0.5408   -6.3989 S   0  0  0  0  0  0  0  0  0  0  0  0
    2.5847   -0.0988   -4.6615 C   0  0  0  0  0  0  0  0  0  0  0  0
    1.9469   -0.6003   -7.2248 O   0  0  0  0  0  0  0  0  0  0  0  0
    3.4081    1.4325   -6.7052 O   0  0  0  0  0  0  0  0  0  0  0  0
    1.0129    1.5182   -6.1402 O   0  0  0  0  0  0  0  0  0  0  0  0
    1.5876   -0.9150   -4.3155 F   0  0  0  0  0  0  0  0  0  0  0  0
    3.7371   -0.7645   -4.6376 F   0  0  0  0  0  0  0  0  0  0  0  0
    2.6362    0.9238   -3.8085 F   0  0  0  0  0  0  0  0  0  0  0  0
   -4.2060   -0.3567   -6.2084 O   0  0  0  0  0  0  0  0  0  0  0  0
   -4.9738   -0.4732   -5.0189 C   0  0  0  0  0  0  0  0  0  0  0  0
   -5.9522   -0.8434   -5.3282 H   0  0  0  0  0  0  0  0  0  0  0  0
   -5.0955    0.4969   -4.5204 H   0  0  0  0  0  0  0  0  0  0  0  0
   -4.5233   -1.1861   -4.3160 H   0  0  0  0  0  0  0  0  0  0  0  0
  1  6  1  0  0  0  0
  2  1  2  0  0  0  0
  2  3  1  0  0  0  0
  3 17  1  0  0  0  0
  3  4  2  0  0  0  0
  4  5  1  0  0  0  0
  4  9  1  0  0  0  0
  5 10  1  0  0  0  0
  6  5  2  0  0  0  0
  7  1  1  0  0  0  0
  8  2  1  0  0  0  0
 12 11  3  0  0  0  0
 13 17  1  0  0  0  0
 13 14  1  0  0  0  0
 14 19  1  0  0  0  0
 14 18  1  0  0  0  0
 14 20  1  0  0  0  0
 15 13  2  0  0  0  0
 16 13  2  0  0  0  0
 21  6  1  0  0  0  0
 21 22  1  0  0  0  0
 22 24  1  0  0  0  0
 22 25  1  0  0  0  0
 23 22  1  0  0  0  0
M  END
