Coordinates from ORCA-job p-CH3O-Ph-N2-OTf-B3LYP-6-31G_dp-scan-d09-49-n400
 OpenBabel02121707583D

 25 24  0  0  0  0  0  0  0  0999 V2000
   -2.1110    0.1137   -7.3302 C   0  0  0  0  0  0  0  0  0  0  0  0
   -0.7790    0.5041   -7.3458 C   0  0  0  0  0  0  0  0  0  0  0  0
   -0.1612    0.8482   -6.1426 C   0  0  0  0  0  0  0  0  0  0  0  0
   -0.8527    0.8185   -4.9392 C   0  0  0  0  0  0  0  0  0  0  0  0
   -2.1959    0.4337   -4.9238 C   0  0  0  0  0  0  0  0  0  0  0  0
   -2.8288    0.0755   -6.1223 C   0  0  0  0  0  0  0  0  0  0  0  0
   -2.6227   -0.1648   -8.2452 H   0  0  0  0  0  0  0  0  0  0  0  0
   -0.2189    0.5392   -8.2733 H   0  0  0  0  0  0  0  0  0  0  0  0
   -0.3464    1.1006   -4.0223 H   0  0  0  0  0  0  0  0  0  0  0  0
   -2.7302    0.4191   -3.9813 H   0  0  0  0  0  0  0  0  0  0  0  0
   -2.1698    4.9223   -6.6367 N   0  0  0  0  0  0  0  0  0  0  0  0
   -3.2264    4.6112   -6.5437 N   0  0  0  0  0  0  0  0  0  0  0  0
    2.4302    0.3128   -6.3655 S   0  0  0  0  0  0  0  0  0  0  0  0
    2.6813   -0.2928   -4.6122 C   0  0  0  0  0  0  0  0  0  0  0  0
    2.0353   -0.8354   -7.1653 O   0  0  0  0  0  0  0  0  0  0  0  0
    3.5598    1.1618   -6.6891 O   0  0  0  0  0  0  0  0  0  0  0  0
    1.1659    1.3359   -6.1344 O   0  0  0  0  0  0  0  0  0  0  0  0
    1.6525   -1.0612   -4.2489 F   0  0  0  0  0  0  0  0  0  0  0  0
    3.8071   -1.0017   -4.5688 F   0  0  0  0  0  0  0  0  0  0  0  0
    2.7706    0.7478   -3.7849 F   0  0  0  0  0  0  0  0  0  0  0  0
   -4.1276   -0.3179   -6.2239 O   0  0  0  0  0  0  0  0  0  0  0  0
   -4.9091   -0.3865   -5.0397 C   0  0  0  0  0  0  0  0  0  0  0  0
   -5.8977   -0.7262   -5.3517 H   0  0  0  0  0  0  0  0  0  0  0  0
   -4.9998    0.5957   -4.5584 H   0  0  0  0  0  0  0  0  0  0  0  0
   -4.4911   -1.1034   -4.3209 H   0  0  0  0  0  0  0  0  0  0  0  0
  1  6  1  0  0  0  0
  2  1  2  0  0  0  0
  2  3  1  0  0  0  0
  3 17  1  0  0  0  0
  3  4  2  0  0  0  0
  4  5  1  0  0  0  0
  4  9  1  0  0  0  0
  5 10  1  0  0  0  0
  6  5  2  0  0  0  0
  7  1  1  0  0  0  0
  8  2  1  0  0  0  0
 11 12  3  0  0  0  0
 13 17  1  0  0  0  0
 13 14  1  0  0  0  0
 14 19  1  0  0  0  0
 14 18  1  0  0  0  0
 14 20  1  0  0  0  0
 15 13  2  0  0  0  0
 16 13  2  0  0  0  0
 21  6  1  0  0  0  0
 21 22  1  0  0  0  0
 22 24  1  0  0  0  0
 22 25  1  0  0  0  0
 23 22  1  0  0  0  0
M  END
