Coordinates from ORCA-job p-CH3O-Ph-N2-OTf-B3LYP-6-31G_dp-scan-d09-49-n400
 OpenBabel02121707583D

 25 24  0  0  0  0  0  0  0  0999 V2000
   -2.1876    0.1396   -7.3245 C   0  0  0  0  0  0  0  0  0  0  0  0
   -0.8664    0.5655   -7.3398 C   0  0  0  0  0  0  0  0  0  0  0  0
   -0.2524    0.9091   -6.1343 C   0  0  0  0  0  0  0  0  0  0  0  0
   -0.9384    0.8448   -4.9290 C   0  0  0  0  0  0  0  0  0  0  0  0
   -2.2709    0.4248   -4.9138 C   0  0  0  0  0  0  0  0  0  0  0  0
   -2.8994    0.0662   -6.1146 C   0  0  0  0  0  0  0  0  0  0  0  0
   -2.6953   -0.1403   -8.2413 H   0  0  0  0  0  0  0  0  0  0  0  0
   -0.3117    0.6286   -8.2690 H   0  0  0  0  0  0  0  0  0  0  0  0
   -0.4360    1.1281   -4.0103 H   0  0  0  0  0  0  0  0  0  0  0  0
   -2.8002    0.3832   -3.9693 H   0  0  0  0  0  0  0  0  0  0  0  0
   -1.3810    4.2217   -6.5694 N   0  0  0  0  0  0  0  0  0  0  0  0
   -2.4767    4.3664   -6.5507 N   0  0  0  0  0  0  0  0  0  0  0  0
    2.3504    0.4487   -6.3852 S   0  0  0  0  0  0  0  0  0  0  0  0
    2.6477   -0.1613   -4.6412 C   0  0  0  0  0  0  0  0  0  0  0  0
    1.9754   -0.7047   -7.1871 O   0  0  0  0  0  0  0  0  0  0  0  0
    3.4497    1.3320   -6.7209 O   0  0  0  0  0  0  0  0  0  0  0  0
    1.0606    1.4322   -6.1240 O   0  0  0  0  0  0  0  0  0  0  0  0
    1.6360   -0.9435   -4.2589 F   0  0  0  0  0  0  0  0  0  0  0  0
    3.7822   -0.8576   -4.6258 F   0  0  0  0  0  0  0  0  0  0  0  0
    2.7433    0.8763   -3.8113 F   0  0  0  0  0  0  0  0  0  0  0  0
   -4.1879   -0.3593   -6.2166 O   0  0  0  0  0  0  0  0  0  0  0  0
   -4.9629   -0.4621   -5.0306 C   0  0  0  0  0  0  0  0  0  0  0  0
   -5.9447   -0.8201   -5.3436 H   0  0  0  0  0  0  0  0  0  0  0  0
   -5.0742    0.5109   -4.5353 H   0  0  0  0  0  0  0  0  0  0  0  0
   -4.5254   -1.1790   -4.3234 H   0  0  0  0  0  0  0  0  0  0  0  0
  1  6  1  0  0  0  0
  2  1  2  0  0  0  0
  2  3  1  0  0  0  0
  3 17  1  0  0  0  0
  3  4  2  0  0  0  0
  4  5  1  0  0  0  0
  4  9  1  0  0  0  0
  5 10  1  0  0  0  0
  6  5  2  0  0  0  0
  7  1  1  0  0  0  0
  8  2  1  0  0  0  0
 11 12  3  0  0  0  0
 13 17  1  0  0  0  0
 13 14  1  0  0  0  0
 14 19  1  0  0  0  0
 14 18  1  0  0  0  0
 14 20  1  0  0  0  0
 15 13  2  0  0  0  0
 16 13  2  0  0  0  0
 21  6  1  0  0  0  0
 21 22  1  0  0  0  0
 22 24  1  0  0  0  0
 22 25  1  0  0  0  0
 23 22  1  0  0  0  0
M  END
