Coordinates from ORCA-job p-CH3O-Ph-N2-OTf-B3LYP-6-31G_dp-scan-d09-49-n400
 OpenBabel02121707583D

 25 24  0  0  0  0  0  0  0  0999 V2000
   -1.8464   -0.4413   -6.0857 C   0  0  0  0  0  0  0  0  0  0  0  0
   -0.9109    0.5282   -6.4146 C   0  0  0  0  0  0  0  0  0  0  0  0
   -1.3129    1.8318   -6.1692 C   0  0  0  0  0  0  0  0  0  0  0  0
   -2.5151    2.2625   -5.6479 C   0  0  0  0  0  0  0  0  0  0  0  0
   -3.4332    1.2636   -5.3250 C   0  0  0  0  0  0  0  0  0  0  0  0
   -3.1000   -0.0878   -5.5418 C   0  0  0  0  0  0  0  0  0  0  0  0
   -1.6191   -1.4916   -6.2319 H   0  0  0  0  0  0  0  0  0  0  0  0
    0.0665    0.3030   -6.8234 H   0  0  0  0  0  0  0  0  0  0  0  0
   -2.7323    3.3119   -5.4900 H   0  0  0  0  0  0  0  0  0  0  0  0
   -4.3912    1.5456   -4.9083 H   0  0  0  0  0  0  0  0  0  0  0  0
   -0.2250    2.9889   -6.5440 N   0  0  0  0  0  0  0  0  0  0  0  0
    0.7949    3.3179   -6.8752 N   0  0  0  0  0  0  0  0  0  0  0  0
    2.7152    1.2005   -5.9371 S   0  0  0  0  0  0  0  0  0  0  0  0
    2.9065   -0.6521   -6.0124 C   0  0  0  0  0  0  0  0  0  0  0  0
    2.0260    1.4644   -7.2665 O   0  0  0  0  0  0  0  0  0  0  0  0
    4.0830    1.7129   -5.8362 O   0  0  0  0  0  0  0  0  0  0  0  0
    1.7972    1.4336   -4.8018 O   0  0  0  0  0  0  0  0  0  0  0  0
    1.6999   -1.2467   -6.1860 F   0  0  0  0  0  0  0  0  0  0  0  0
    3.6940   -1.0148   -7.0294 F   0  0  0  0  0  0  0  0  0  0  0  0
    3.4304   -1.1157   -4.8727 F   0  0  0  0  0  0  0  0  0  0  0  0
   -3.9157   -1.1233   -5.2623 O   0  0  0  0  0  0  0  0  0  0  0  0
   -5.1968   -0.8669   -4.6873 C   0  0  0  0  0  0  0  0  0  0  0  0
   -5.6557   -1.8449   -4.5439 H   0  0  0  0  0  0  0  0  0  0  0  0
   -5.8213   -0.2663   -5.3596 H   0  0  0  0  0  0  0  0  0  0  0  0
   -5.1036   -0.3631   -3.7180 H   0  0  0  0  0  0  0  0  0  0  0  0
  1  6  2  0  0  0  0
  2  3  2  0  0  0  0
  2  1  1  0  0  0  0
  3  4  1  0  0  0  0
  4  9  1  0  0  0  0
  4  5  2  0  0  0  0
  5 10  1  0  0  0  0
  6  5  1  0  0  0  0
  6 21  1  0  0  0  0
  7  1  1  0  0  0  0
  8  2  1  0  0  0  0
 11  3  1  0  0  0  0
 12 11  2  0  0  0  0
 13 16  2  0  0  0  0
 13 17  1  0  0  0  0
 14 13  1  0  0  0  0
 14 20  1  0  0  0  0
 15 13  2  0  0  0  0
 18 14  1  0  0  0  0
 19 14  1  0  0  0  0
 21 22  1  0  0  0  0
 22 23  1  0  0  0  0
 22 25  1  0  0  0  0
 24 22  1  0  0  0  0
M  RAD  2  12   2  17   2
M  END
