Coordinates from ORCA-job p-CH3O-Ph-N2-OTf-B3LYP-6-31G_dp-scan-d09-49-n400
 OpenBabel02121707583D

 25 24  0  0  0  0  0  0  0  0999 V2000
   -2.1569    0.1317   -7.3256 C   0  0  0  0  0  0  0  0  0  0  0  0
   -0.8311    0.5429   -7.3410 C   0  0  0  0  0  0  0  0  0  0  0  0
   -0.2141    0.8822   -6.1359 C   0  0  0  0  0  0  0  0  0  0  0  0
   -0.9016    0.8290   -4.9309 C   0  0  0  0  0  0  0  0  0  0  0  0
   -2.2386    0.4233   -4.9156 C   0  0  0  0  0  0  0  0  0  0  0  0
   -2.8700    0.0685   -6.1159 C   0  0  0  0  0  0  0  0  0  0  0  0
   -2.6671   -0.1446   -8.2421 H   0  0  0  0  0  0  0  0  0  0  0  0
   -0.2750    0.5979   -8.2700 H   0  0  0  0  0  0  0  0  0  0  0  0
   -0.3969    1.1093   -4.0126 H   0  0  0  0  0  0  0  0  0  0  0  0
   -2.7691    0.3898   -3.9714 H   0  0  0  0  0  0  0  0  0  0  0  0
   -1.7001    4.5297   -6.6155 N   0  0  0  0  0  0  0  0  0  0  0  0
   -2.8039    4.4981   -6.5671 N   0  0  0  0  0  0  0  0  0  0  0  0
    2.3843    0.3912   -6.3758 S   0  0  0  0  0  0  0  0  0  0  0  0
    2.6620   -0.2190   -4.6283 C   0  0  0  0  0  0  0  0  0  0  0  0
    2.0013   -0.7592   -7.1781 O   0  0  0  0  0  0  0  0  0  0  0  0
    3.4964    1.2607   -6.7051 O   0  0  0  0  0  0  0  0  0  0  0  0
    1.1047    1.3910   -6.1266 O   0  0  0  0  0  0  0  0  0  0  0  0
    1.6444   -0.9982   -4.2559 F   0  0  0  0  0  0  0  0  0  0  0  0
    3.7944   -0.9182   -4.6012 F   0  0  0  0  0  0  0  0  0  0  0  0
    2.7519    0.8188   -3.7979 F   0  0  0  0  0  0  0  0  0  0  0  0
   -4.1630   -0.3435   -6.2179 O   0  0  0  0  0  0  0  0  0  0  0  0
   -4.9400   -0.4347   -5.0322 C   0  0  0  0  0  0  0  0  0  0  0  0
   -5.9253   -0.7832   -5.3451 H   0  0  0  0  0  0  0  0  0  0  0  0
   -5.0414    0.5409   -4.5398 H   0  0  0  0  0  0  0  0  0  0  0  0
   -4.5109   -1.1542   -4.3225 H   0  0  0  0  0  0  0  0  0  0  0  0
  1  6  1  0  0  0  0
  2  1  2  0  0  0  0
  2  3  1  0  0  0  0
  3 17  1  0  0  0  0
  3  4  2  0  0  0  0
  4  5  1  0  0  0  0
  4  9  1  0  0  0  0
  5 10  1  0  0  0  0
  6  5  2  0  0  0  0
  7  1  1  0  0  0  0
  8  2  1  0  0  0  0
 11 12  3  0  0  0  0
 13 17  1  0  0  0  0
 13 14  1  0  0  0  0
 14 19  1  0  0  0  0
 14 18  1  0  0  0  0
 14 20  1  0  0  0  0
 15 13  2  0  0  0  0
 16 13  2  0  0  0  0
 21  6  1  0  0  0  0
 21 22  1  0  0  0  0
 22 24  1  0  0  0  0
 22 25  1  0  0  0  0
 23 22  1  0  0  0  0
M  END
