Coordinates from ORCA-job p-CH3O-Ph-N2-OTf-B3LYP-6-31G_dp-scan-d09-49-n400
 OpenBabel02121707583D

 25 24  0  0  0  0  0  0  0  0999 V2000
   -2.1508    0.1300   -7.3262 C   0  0  0  0  0  0  0  0  0  0  0  0
   -0.8239    0.5379   -7.3415 C   0  0  0  0  0  0  0  0  0  0  0  0
   -0.2065    0.8768   -6.1365 C   0  0  0  0  0  0  0  0  0  0  0  0
   -0.8947    0.8265   -4.9317 C   0  0  0  0  0  0  0  0  0  0  0  0
   -2.2327    0.4242   -4.9166 C   0  0  0  0  0  0  0  0  0  0  0  0
   -2.8645    0.0697   -6.1167 C   0  0  0  0  0  0  0  0  0  0  0  0
   -2.6613   -0.1459   -8.2426 H   0  0  0  0  0  0  0  0  0  0  0  0
   -0.2673    0.5905   -8.2703 H   0  0  0  0  0  0  0  0  0  0  0  0
   -0.3896    1.1064   -4.0135 H   0  0  0  0  0  0  0  0  0  0  0  0
   -2.7636    0.3929   -3.9726 H   0  0  0  0  0  0  0  0  0  0  0  0
   -1.7656    4.5917   -6.6217 N   0  0  0  0  0  0  0  0  0  0  0  0
   -2.8674    4.5224   -6.5669 N   0  0  0  0  0  0  0  0  0  0  0  0
    2.3907    0.3788   -6.3740 S   0  0  0  0  0  0  0  0  0  0  0  0
    2.6656   -0.2297   -4.6255 C   0  0  0  0  0  0  0  0  0  0  0  0
    2.0053   -0.7717   -7.1751 O   0  0  0  0  0  0  0  0  0  0  0  0
    3.5053    1.2451   -6.7037 O   0  0  0  0  0  0  0  0  0  0  0  0
    1.1135    1.3822   -6.1271 O   0  0  0  0  0  0  0  0  0  0  0  0
    1.6463   -1.0067   -4.2532 F   0  0  0  0  0  0  0  0  0  0  0  0
    3.7968   -0.9308   -4.5964 F   0  0  0  0  0  0  0  0  0  0  0  0
    2.7564    0.8090   -3.7963 F   0  0  0  0  0  0  0  0  0  0  0  0
   -4.1583   -0.3396   -6.2187 O   0  0  0  0  0  0  0  0  0  0  0  0
   -4.9354   -0.4295   -5.0331 C   0  0  0  0  0  0  0  0  0  0  0  0
   -5.9210   -0.7772   -5.3458 H   0  0  0  0  0  0  0  0  0  0  0  0
   -5.0360    0.5464   -4.5412 H   0  0  0  0  0  0  0  0  0  0  0  0
   -4.5071   -1.1490   -4.3230 H   0  0  0  0  0  0  0  0  0  0  0  0
  1  6  1  0  0  0  0
  2  1  2  0  0  0  0
  2  3  1  0  0  0  0
  3 17  1  0  0  0  0
  3  4  2  0  0  0  0
  4  5  1  0  0  0  0
  4  9  1  0  0  0  0
  5 10  1  0  0  0  0
  6  5  2  0  0  0  0
  7  1  1  0  0  0  0
  8  2  1  0  0  0  0
 11 12  3  0  0  0  0
 13 17  1  0  0  0  0
 13 14  1  0  0  0  0
 14 19  1  0  0  0  0
 14 18  1  0  0  0  0
 14 20  1  0  0  0  0
 15 13  2  0  0  0  0
 16 13  2  0  0  0  0
 21  6  1  0  0  0  0
 21 22  1  0  0  0  0
 22 24  1  0  0  0  0
 22 25  1  0  0  0  0
 23 22  1  0  0  0  0
M  END
