Coordinates from ORCA-job p-CH3O-Ph-N2-OTf-B3LYP-6-31G_dp-scan-d09-49-n400
 OpenBabel02121707583D

 25 24  0  0  0  0  0  0  0  0999 V2000
   -2.2008    0.1459   -7.3247 C   0  0  0  0  0  0  0  0  0  0  0  0
   -0.8815    0.5776   -7.3400 C   0  0  0  0  0  0  0  0  0  0  0  0
   -0.2689    0.9238   -6.1346 C   0  0  0  0  0  0  0  0  0  0  0  0
   -0.9535    0.8532   -4.9288 C   0  0  0  0  0  0  0  0  0  0  0  0
   -2.2842    0.4275   -4.9135 C   0  0  0  0  0  0  0  0  0  0  0  0
   -2.9119    0.0685   -6.1146 C   0  0  0  0  0  0  0  0  0  0  0  0
   -2.7076   -0.1352   -8.2415 H   0  0  0  0  0  0  0  0  0  0  0  0
   -0.3276    0.6446   -8.2694 H   0  0  0  0  0  0  0  0  0  0  0  0
   -0.4520    1.1375   -4.0101 H   0  0  0  0  0  0  0  0  0  0  0  0
   -2.8128    0.3823   -3.9689 H   0  0  0  0  0  0  0  0  0  0  0  0
   -1.2445    4.0458   -6.5408 N   0  0  0  0  0  0  0  0  0  0  0  0
   -2.3280    4.2650   -6.5348 N   0  0  0  0  0  0  0  0  0  0  0  0
    2.3358    0.4778   -6.3900 S   0  0  0  0  0  0  0  0  0  0  0  0
    2.6403   -0.1335   -4.6477 C   0  0  0  0  0  0  0  0  0  0  0  0
    1.9655   -0.6764   -7.1929 O   0  0  0  0  0  0  0  0  0  0  0  0
    3.4296    1.3676   -6.7266 O   0  0  0  0  0  0  0  0  0  0  0  0
    1.0412    1.4536   -6.1241 O   0  0  0  0  0  0  0  0  0  0  0  0
    1.6321   -0.9192   -4.2633 F   0  0  0  0  0  0  0  0  0  0  0  0
    3.7769   -0.8265   -4.6367 F   0  0  0  0  0  0  0  0  0  0  0  0
    2.7353    0.9033   -3.8168 F   0  0  0  0  0  0  0  0  0  0  0  0
   -4.1990   -0.3613   -6.2168 O   0  0  0  0  0  0  0  0  0  0  0  0
   -4.9737   -0.4669   -5.0308 C   0  0  0  0  0  0  0  0  0  0  0  0
   -5.9545   -0.8271   -5.3440 H   0  0  0  0  0  0  0  0  0  0  0  0
   -5.0874    0.5055   -4.5348 H   0  0  0  0  0  0  0  0  0  0  0  0
   -4.5344   -1.1831   -4.3240 H   0  0  0  0  0  0  0  0  0  0  0  0
  1  6  1  0  0  0  0
  2  1  2  0  0  0  0
  2  3  1  0  0  0  0
  3 17  1  0  0  0  0
  3  4  2  0  0  0  0
  4  5  1  0  0  0  0
  4  9  1  0  0  0  0
  5 10  1  0  0  0  0
  6  5  2  0  0  0  0
  7  1  1  0  0  0  0
  8  2  1  0  0  0  0
 11 12  3  0  0  0  0
 13 17  1  0  0  0  0
 13 14  1  0  0  0  0
 14 19  1  0  0  0  0
 14 18  1  0  0  0  0
 14 20  1  0  0  0  0
 15 13  2  0  0  0  0
 16 13  2  0  0  0  0
 21  6  1  0  0  0  0
 21 22  1  0  0  0  0
 22 24  1  0  0  0  0
 22 25  1  0  0  0  0
 23 22  1  0  0  0  0
M  END
