Coordinates from ORCA-job p-CH3O-Ph-N2-OTf-B3LYP-6-31G_dp-scan-d09-49-n400
 OpenBabel02121707583D

 25 24  0  0  0  0  0  0  0  0999 V2000
   -2.1416    0.1264   -7.3268 C   0  0  0  0  0  0  0  0  0  0  0  0
   -0.8136    0.5303   -7.3420 C   0  0  0  0  0  0  0  0  0  0  0  0
   -0.1959    0.8694   -6.1372 C   0  0  0  0  0  0  0  0  0  0  0  0
   -0.8850    0.8236   -4.9328 C   0  0  0  0  0  0  0  0  0  0  0  0
   -2.2242    0.4253   -4.9178 C   0  0  0  0  0  0  0  0  0  0  0  0
   -2.8563    0.0706   -6.1177 C   0  0  0  0  0  0  0  0  0  0  0  0
   -2.6524   -0.1495   -8.2431 H   0  0  0  0  0  0  0  0  0  0  0  0
   -0.2563    0.5795   -8.2705 H   0  0  0  0  0  0  0  0  0  0  0  0
   -0.3797    1.1036   -4.0148 H   0  0  0  0  0  0  0  0  0  0  0  0
   -2.7559    0.3975   -3.9742 H   0  0  0  0  0  0  0  0  0  0  0  0
   -1.8579    4.6712   -6.6281 N   0  0  0  0  0  0  0  0  0  0  0  0
   -2.9546    4.5488   -6.5647 N   0  0  0  0  0  0  0  0  0  0  0  0
    2.4001    0.3633   -6.3719 S   0  0  0  0  0  0  0  0  0  0  0  0
    2.6701   -0.2448   -4.6224 C   0  0  0  0  0  0  0  0  0  0  0  0
    2.0125   -0.7865   -7.1727 O   0  0  0  0  0  0  0  0  0  0  0  0
    3.5179    1.2260   -6.7003 O   0  0  0  0  0  0  0  0  0  0  0  0
    1.1256    1.3710   -6.1280 O   0  0  0  0  0  0  0  0  0  0  0  0
    1.6488   -1.0198   -4.2519 F   0  0  0  0  0  0  0  0  0  0  0  0
    3.8001   -0.9478   -4.5906 F   0  0  0  0  0  0  0  0  0  0  0  0
    2.7611    0.7942   -3.7935 F   0  0  0  0  0  0  0  0  0  0  0  0
   -4.1513   -0.3350   -6.2198 O   0  0  0  0  0  0  0  0  0  0  0  0
   -4.9296   -0.4200   -5.0345 C   0  0  0  0  0  0  0  0  0  0  0  0
   -5.9161   -0.7651   -5.3473 H   0  0  0  0  0  0  0  0  0  0  0  0
   -5.0274    0.5573   -4.5447 H   0  0  0  0  0  0  0  0  0  0  0  0
   -4.5041   -1.1394   -4.3227 H   0  0  0  0  0  0  0  0  0  0  0  0
  1  6  1  0  0  0  0
  2  1  2  0  0  0  0
  2  3  1  0  0  0  0
  3 17  1  0  0  0  0
  3  4  2  0  0  0  0
  4  5  1  0  0  0  0
  4  9  1  0  0  0  0
  5 10  1  0  0  0  0
  6  5  2  0  0  0  0
  7  1  1  0  0  0  0
  8  2  1  0  0  0  0
 11 12  3  0  0  0  0
 13 17  1  0  0  0  0
 13 14  1  0  0  0  0
 14 19  1  0  0  0  0
 14 18  1  0  0  0  0
 14 20  1  0  0  0  0
 15 13  2  0  0  0  0
 16 13  2  0  0  0  0
 21  6  1  0  0  0  0
 21 22  1  0  0  0  0
 22 24  1  0  0  0  0
 22 25  1  0  0  0  0
 23 22  1  0  0  0  0
M  END
