Coordinates from ORCA-job p-CH3O-Ph-N2-OTf-B3LYP-6-31G_dp-scan-d09-49-n400
 OpenBabel02121707583D

 25 23  0  0  0  0  0  0  0  0999 V2000
   -2.0469   -0.4167   -6.2755 C   0  0  0  0  0  0  0  0  0  0  0  0
   -0.9831    0.4972   -6.3863 C   0  0  0  0  0  0  0  0  0  0  0  0
   -1.3602    1.6710   -5.8635 C   0  0  0  0  0  0  0  0  0  0  0  0
   -2.4524    2.2014   -5.2615 C   0  0  0  0  0  0  0  0  0  0  0  0
   -3.4778    1.2386   -5.1735 C   0  0  0  0  0  0  0  0  0  0  0  0
   -3.2747   -0.0604   -5.6791 C   0  0  0  0  0  0  0  0  0  0  0  0
   -1.9128   -1.4272   -6.6479 H   0  0  0  0  0  0  0  0  0  0  0  0
    0.0191    0.2358   -6.8236 H   0  0  0  0  0  0  0  0  0  0  0  0
   -2.5523    3.2117   -4.8901 H   0  0  0  0  0  0  0  0  0  0  0  0
   -4.4118    1.5334   -4.7117 H   0  0  0  0  0  0  0  0  0  0  0  0
    0.0610    3.1683   -6.0515 N   0  0  0  0  0  0  0  0  0  0  0  0
    0.5971    4.1197   -6.2171 N   0  0  0  0  0  0  0  0  0  0  0  0
    2.5031    0.7740   -6.4662 S   0  0  0  0  0  0  0  0  0  0  0  0
    3.5461   -0.5241   -5.6422 C   0  0  0  0  0  0  0  0  0  0  0  0
    1.5935   -0.0367   -7.3491 O   0  0  0  0  0  0  0  0  0  0  0  0
    3.4479    1.6391   -7.1812 O   0  0  0  0  0  0  0  0  0  0  0  0
    1.7631    1.3967   -5.3337 O   0  0  0  0  0  0  0  0  0  0  0  0
    2.7699   -1.3965   -4.9778 F   0  0  0  0  0  0  0  0  0  0  0  0
    4.2618   -1.1998   -6.5504 F   0  0  0  0  0  0  0  0  0  0  0  0
    4.3882    0.0435   -4.7681 F   0  0  0  0  0  0  0  0  0  0  0  0
   -4.2010   -1.0428   -5.6393 O   0  0  0  0  0  0  0  0  0  0  0  0
   -5.4638   -0.7783   -5.0329 C   0  0  0  0  0  0  0  0  0  0  0  0
   -6.0303   -1.7066   -5.1126 H   0  0  0  0  0  0  0  0  0  0  0  0
   -5.9999    0.0205   -5.5600 H   0  0  0  0  0  0  0  0  0  0  0  0
   -5.3496   -0.5118   -3.9751 H   0  0  0  0  0  0  0  0  0  0  0  0
  1  6  1  0  0  0  0
  2  1  2  0  0  0  0
  2  3  1  0  0  0  0
  3  4  2  0  0  0  0
  4  5  1  0  0  0  0
  4  9  1  0  0  0  0
  5 10  1  0  0  0  0
  6 21  1  0  0  0  0
  6  5  2  0  0  0  0
  7  1  1  0  0  0  0
  8  2  1  0  0  0  0
 12 11  3  0  0  0  0
 13 14  1  0  0  0  0
 13 17  1  0  0  0  0
 14 18  1  0  0  0  0
 14 20  1  0  0  0  0
 15 13  2  0  0  0  0
 16 13  2  0  0  0  0
 19 14  1  0  0  0  0
 21 22  1  0  0  0  0
 22 25  1  0  0  0  0
 23 22  1  0  0  0  0
 24 22  1  0  0  0  0
M  RAD  2   3   2  17   2
M  END
