Coordinates from ORCA-job p-CH3O-Ph-N2-OTf-B3LYP-6-31G_dp-scan-d09-49-n400
 OpenBabel02121707583D

 25 24  0  0  0  0  0  0  0  0999 V2000
   -1.7524   -0.3781   -6.2752 C   0  0  0  0  0  0  0  0  0  0  0  0
   -0.8588    0.5996   -6.6292 C   0  0  0  0  0  0  0  0  0  0  0  0
   -1.1692    1.9706   -6.3327 C   0  0  0  0  0  0  0  0  0  0  0  0
   -2.3900    2.2948   -5.6667 C   0  0  0  0  0  0  0  0  0  0  0  0
   -3.2693    1.2996   -5.3131 C   0  0  0  0  0  0  0  0  0  0  0  0
   -2.9559   -0.0511   -5.6113 C   0  0  0  0  0  0  0  0  0  0  0  0
   -1.5356   -1.4212   -6.4759 H   0  0  0  0  0  0  0  0  0  0  0  0
    0.0866    0.3989   -7.1247 H   0  0  0  0  0  0  0  0  0  0  0  0
   -2.6039    3.3338   -5.4361 H   0  0  0  0  0  0  0  0  0  0  0  0
   -4.1891    1.5599   -4.8058 H   0  0  0  0  0  0  0  0  0  0  0  0
   -0.3939    2.8303   -6.6115 N   0  0  0  0  0  0  0  0  0  0  0  0
    0.3602    3.6197   -6.8886 N   0  0  0  0  0  0  0  0  0  0  0  0
    2.4631    1.1096   -5.9048 S   0  0  0  0  0  0  0  0  0  0  0  0
    2.7322   -0.7313   -5.8852 C   0  0  0  0  0  0  0  0  0  0  0  0
    1.9943    1.3436   -7.3073 O   0  0  0  0  0  0  0  0  0  0  0  0
    3.7675    1.6799   -5.5531 O   0  0  0  0  0  0  0  0  0  0  0  0
    1.3627    1.2939   -4.9172 O   0  0  0  0  0  0  0  0  0  0  0  0
    1.5872   -1.3775   -6.2333 F   0  0  0  0  0  0  0  0  0  0  0  0
    3.6826   -1.0964   -6.7540 F   0  0  0  0  0  0  0  0  0  0  0  0
    3.0827   -1.1601   -4.6652 F   0  0  0  0  0  0  0  0  0  0  0  0
   -3.7421   -1.0828   -5.3038 O   0  0  0  0  0  0  0  0  0  0  0  0
   -4.9734   -0.8685   -4.6002 C   0  0  0  0  0  0  0  0  0  0  0  0
   -5.4024   -1.8599   -4.4607 H   0  0  0  0  0  0  0  0  0  0  0  0
   -5.6586   -0.2504   -5.1900 H   0  0  0  0  0  0  0  0  0  0  0  0
   -4.7902   -0.4067   -3.6246 H   0  0  0  0  0  0  0  0  0  0  0  0
  1  6  2  0  0  0  0
  2  3  2  0  0  0  0
  2  1  1  0  0  0  0
  3  4  1  0  0  0  0
  4  9  1  0  0  0  0
  4  5  2  0  0  0  0
  5 10  1  0  0  0  0
  6  5  1  0  0  0  0
  6 21  1  0  0  0  0
  7  1  1  0  0  0  0
  8  2  1  0  0  0  0
 11  3  1  0  0  0  0
 12 11  1  0  0  0  0
 13 14  1  0  0  0  0
 13 16  2  0  0  0  0
 13 17  1  0  0  0  0
 14 20  1  0  0  0  0
 15 13  2  0  0  0  0
 18 14  1  0  0  0  0
 19 14  1  0  0  0  0
 21 22  1  0  0  0  0
 22 23  1  0  0  0  0
 22 25  1  0  0  0  0
 24 22  1  0  0  0  0
M  RAD  3  11   2  12   3  17   2
M  END
