Coordinates from ORCA-job p-CH3O-Ph-N2-OTf-B3LYP-6-31G_dp-scan-d09-49-n400
 OpenBabel02121707583D

 25 24  0  0  0  0  0  0  0  0999 V2000
   -2.1463    0.1283   -7.3265 C   0  0  0  0  0  0  0  0  0  0  0  0
   -0.8188    0.5342   -7.3417 C   0  0  0  0  0  0  0  0  0  0  0  0
   -0.2012    0.8731   -6.1368 C   0  0  0  0  0  0  0  0  0  0  0  0
   -0.8899    0.8250   -4.9322 C   0  0  0  0  0  0  0  0  0  0  0  0
   -2.2285    0.4246   -4.9172 C   0  0  0  0  0  0  0  0  0  0  0  0
   -2.8604    0.0702   -6.1172 C   0  0  0  0  0  0  0  0  0  0  0  0
   -2.6569   -0.1476   -8.2428 H   0  0  0  0  0  0  0  0  0  0  0  0
   -0.2619    0.5852   -8.2704 H   0  0  0  0  0  0  0  0  0  0  0  0
   -0.3846    1.1048   -4.0141 H   0  0  0  0  0  0  0  0  0  0  0  0
   -2.7598    0.3950   -3.9734 H   0  0  0  0  0  0  0  0  0  0  0  0
   -1.8113    4.6317   -6.6252 N   0  0  0  0  0  0  0  0  0  0  0  0
   -2.9109    4.5364   -6.5661 N   0  0  0  0  0  0  0  0  0  0  0  0
    2.3953    0.3710   -6.3729 S   0  0  0  0  0  0  0  0  0  0  0  0
    2.6679   -0.2372   -4.6239 C   0  0  0  0  0  0  0  0  0  0  0  0
    2.0089   -0.7792   -7.1738 O   0  0  0  0  0  0  0  0  0  0  0  0
    3.5116    1.2354   -6.7021 O   0  0  0  0  0  0  0  0  0  0  0  0
    1.1195    1.3766   -6.1275 O   0  0  0  0  0  0  0  0  0  0  0  0
    1.6475   -1.0130   -4.2523 F   0  0  0  0  0  0  0  0  0  0  0  0
    3.7983   -0.9394   -4.5935 F   0  0  0  0  0  0  0  0  0  0  0  0
    2.7590    0.8017   -3.7949 F   0  0  0  0  0  0  0  0  0  0  0  0
   -4.1549   -0.3373   -6.2193 O   0  0  0  0  0  0  0  0  0  0  0  0
   -4.9325   -0.4250   -5.0338 C   0  0  0  0  0  0  0  0  0  0  0  0
   -5.9185   -0.7714   -5.3465 H   0  0  0  0  0  0  0  0  0  0  0  0
   -5.0317    0.5516   -4.5428 H   0  0  0  0  0  0  0  0  0  0  0  0
   -4.5055   -1.1445   -4.3229 H   0  0  0  0  0  0  0  0  0  0  0  0
  1  6  1  0  0  0  0
  2  1  2  0  0  0  0
  2  3  1  0  0  0  0
  3 17  1  0  0  0  0
  3  4  2  0  0  0  0
  4  5  1  0  0  0  0
  4  9  1  0  0  0  0
  5 10  1  0  0  0  0
  6  5  2  0  0  0  0
  7  1  1  0  0  0  0
  8  2  1  0  0  0  0
 11 12  3  0  0  0  0
 13 17  1  0  0  0  0
 13 14  1  0  0  0  0
 14 19  1  0  0  0  0
 14 18  1  0  0  0  0
 14 20  1  0  0  0  0
 15 13  2  0  0  0  0
 16 13  2  0  0  0  0
 21  6  1  0  0  0  0
 21 22  1  0  0  0  0
 22 24  1  0  0  0  0
 22 25  1  0  0  0  0
 23 22  1  0  0  0  0
M  END
