Coordinates from ORCA-job p-CH3O-Ph-N2-OTf-B3LYP-6-31G_dp-scan-d09-49-n400
 OpenBabel02121707583D

 25 24  0  0  0  0  0  0  0  0999 V2000
   -2.2139    0.1571   -7.3251 C   0  0  0  0  0  0  0  0  0  0  0  0
   -0.8976    0.5972   -7.3427 C   0  0  0  0  0  0  0  0  0  0  0  0
   -0.2865    0.9515   -6.1390 C   0  0  0  0  0  0  0  0  0  0  0  0
   -0.9668    0.8712   -4.9314 C   0  0  0  0  0  0  0  0  0  0  0  0
   -2.2946    0.4372   -4.9137 C   0  0  0  0  0  0  0  0  0  0  0  0
   -2.9227    0.0760   -6.1138 C   0  0  0  0  0  0  0  0  0  0  0  0
   -2.7204   -0.1279   -8.2410 H   0  0  0  0  0  0  0  0  0  0  0  0
   -0.3458    0.6675   -8.2730 H   0  0  0  0  0  0  0  0  0  0  0  0
   -0.4650    1.1578   -4.0135 H   0  0  0  0  0  0  0  0  0  0  0  0
   -2.8207    0.3872   -3.9679 H   0  0  0  0  0  0  0  0  0  0  0  0
   -1.0947    3.8221   -6.5098 N   0  0  0  0  0  0  0  0  0  0  0  0
   -2.1580    4.1251   -6.5193 N   0  0  0  0  0  0  0  0  0  0  0  0
    2.3187    0.5128   -6.3954 S   0  0  0  0  0  0  0  0  0  0  0  0
    2.6178   -0.1075   -4.6551 C   0  0  0  0  0  0  0  0  0  0  0  0
    1.9544   -0.6380   -7.2060 O   0  0  0  0  0  0  0  0  0  0  0  0
    3.4120    1.4066   -6.7228 O   0  0  0  0  0  0  0  0  0  0  0  0
    1.0216    1.4851   -6.1303 O   0  0  0  0  0  0  0  0  0  0  0  0
    1.6152   -0.9056   -4.2823 F   0  0  0  0  0  0  0  0  0  0  0  0
    3.7612   -0.7889   -4.6414 F   0  0  0  0  0  0  0  0  0  0  0  0
    2.6971    0.9248   -3.8166 F   0  0  0  0  0  0  0  0  0  0  0  0
   -4.2075   -0.3607   -6.2140 O   0  0  0  0  0  0  0  0  0  0  0  0
   -4.9792   -0.4728   -5.0265 C   0  0  0  0  0  0  0  0  0  0  0  0
   -5.9586   -0.8380   -5.3384 H   0  0  0  0  0  0  0  0  0  0  0  0
   -5.0973    0.4981   -4.5286 H   0  0  0  0  0  0  0  0  0  0  0  0
   -4.5343   -1.1878   -4.3221 H   0  0  0  0  0  0  0  0  0  0  0  0
  1  6  1  0  0  0  0
  2  1  2  0  0  0  0
  2  3  1  0  0  0  0
  3 17  1  0  0  0  0
  3  4  2  0  0  0  0
  4  5  1  0  0  0  0
  4  9  1  0  0  0  0
  5 10  1  0  0  0  0
  6  5  2  0  0  0  0
  7  1  1  0  0  0  0
  8  2  1  0  0  0  0
 12 11  3  0  0  0  0
 13 17  1  0  0  0  0
 13 14  1  0  0  0  0
 14 19  1  0  0  0  0
 14 18  1  0  0  0  0
 14 20  1  0  0  0  0
 15 13  2  0  0  0  0
 16 13  2  0  0  0  0
 21  6  1  0  0  0  0
 21 22  1  0  0  0  0
 22 24  1  0  0  0  0
 22 25  1  0  0  0  0
 23 22  1  0  0  0  0
M  END
