Coordinates from ORCA-job p-CH3O-Ph-N2-OTf-B3LYP-6-31G_dp-scan-d09-49-n400
 OpenBabel02121707583D

 25 24  0  0  0  0  0  0  0  0999 V2000
   -2.2126    0.1988   -7.3287 C   0  0  0  0  0  0  0  0  0  0  0  0
   -0.9098    0.6719   -7.3608 C   0  0  0  0  0  0  0  0  0  0  0  0
   -0.3129    1.0980   -6.1714 C   0  0  0  0  0  0  0  0  0  0  0  0
   -0.9599    0.9492   -4.9500 C   0  0  0  0  0  0  0  0  0  0  0  0
   -2.2748    0.4829   -4.9165 C   0  0  0  0  0  0  0  0  0  0  0  0
   -2.9109    0.1132   -6.1107 C   0  0  0  0  0  0  0  0  0  0  0  0
   -2.7155   -0.1178   -8.2361 H   0  0  0  0  0  0  0  0  0  0  0  0
   -0.3651    0.7421   -8.2953 H   0  0  0  0  0  0  0  0  0  0  0  0
   -0.4518    1.2401   -4.0371 H   0  0  0  0  0  0  0  0  0  0  0  0
   -2.7832    0.4047   -3.9630 H   0  0  0  0  0  0  0  0  0  0  0  0
   -0.9089    3.3261   -6.4534 N   0  0  0  0  0  0  0  0  0  0  0  0
   -1.9404    3.7300   -6.4982 N   0  0  0  0  0  0  0  0  0  0  0  0
    2.2779    0.5707   -6.4037 S   0  0  0  0  0  0  0  0  0  0  0  0
    2.5004   -0.0941   -4.6663 C   0  0  0  0  0  0  0  0  0  0  0  0
    1.9064   -0.5529   -7.2481 O   0  0  0  0  0  0  0  0  0  0  0  0
    3.4121    1.4315   -6.6755 O   0  0  0  0  0  0  0  0  0  0  0  0
    1.0123    1.5890   -6.1714 O   0  0  0  0  0  0  0  0  0  0  0  0
    1.5115   -0.9387   -4.3720 F   0  0  0  0  0  0  0  0  0  0  0  0
    3.6665   -0.7331   -4.6105 F   0  0  0  0  0  0  0  0  0  0  0  0
    2.4963    0.9145   -3.7940 F   0  0  0  0  0  0  0  0  0  0  0  0
   -4.1859   -0.3501   -6.1967 O   0  0  0  0  0  0  0  0  0  0  0  0
   -4.9441   -0.4763   -5.0014 C   0  0  0  0  0  0  0  0  0  0  0  0
   -5.9213   -0.8542   -5.3047 H   0  0  0  0  0  0  0  0  0  0  0  0
   -5.0701    0.4918   -4.5003 H   0  0  0  0  0  0  0  0  0  0  0  0
   -4.4820   -1.1870   -4.3040 H   0  0  0  0  0  0  0  0  0  0  0  0
  1  6  1  0  0  0  0
  2  1  2  0  0  0  0
  2  3  1  0  0  0  0
  3  4  2  0  0  0  0
  4  5  1  0  0  0  0
  4  9  1  0  0  0  0
  5 10  1  0  0  0  0
  6  5  2  0  0  0  0
  7  1  1  0  0  0  0
  8  2  1  0  0  0  0
 12 11  3  0  0  0  0
 13 17  1  0  0  0  0
 13 14  1  0  0  0  0
 14 19  1  0  0  0  0
 14 18  1  0  0  0  0
 14 20  1  0  0  0  0
 15 13  2  0  0  0  0
 16 13  2  0  0  0  0
 17  3  1  0  0  0  0
 21  6  1  0  0  0  0
 21 22  1  0  0  0  0
 22 24  1  0  0  0  0
 22 25  1  0  0  0  0
 23 22  1  0  0  0  0
M  END
