Coordinates from ORCA-job p-CH3O-Ph-N2-OTf-B3LYP-6-31G_dp-scan-d09-49-n400
 OpenBabel02121707583D

 25 24  0  0  0  0  0  0  0  0999 V2000
   -2.2108    0.1534   -7.3250 C   0  0  0  0  0  0  0  0  0  0  0  0
   -0.8933    0.5903   -7.3413 C   0  0  0  0  0  0  0  0  0  0  0  0
   -0.2816    0.9405   -6.1367 C   0  0  0  0  0  0  0  0  0  0  0  0
   -0.9638    0.8636   -4.9300 C   0  0  0  0  0  0  0  0  0  0  0  0
   -2.2927    0.4328   -4.9135 C   0  0  0  0  0  0  0  0  0  0  0  0
   -2.9206    0.0731   -6.1143 C   0  0  0  0  0  0  0  0  0  0  0  0
   -2.7174   -0.1293   -8.2414 H   0  0  0  0  0  0  0  0  0  0  0  0
   -0.3406    0.6602   -8.2712 H   0  0  0  0  0  0  0  0  0  0  0  0
   -0.4622    1.1491   -4.0116 H   0  0  0  0  0  0  0  0  0  0  0  0
   -2.8200    0.3844   -3.9683 H   0  0  0  0  0  0  0  0  0  0  0  0
   -1.1370    3.8909   -6.5186 N   0  0  0  0  0  0  0  0  0  0  0  0
   -2.2068    4.1698   -6.5236 N   0  0  0  0  0  0  0  0  0  0  0  0
    2.3238    0.5022   -6.3938 S   0  0  0  0  0  0  0  0  0  0  0  0
    2.6279   -0.1135   -4.6528 C   0  0  0  0  0  0  0  0  0  0  0  0
    1.9577   -0.6508   -7.2005 O   0  0  0  0  0  0  0  0  0  0  0  0
    3.4158    1.3957   -6.7265 O   0  0  0  0  0  0  0  0  0  0  0  0
    1.0266    1.4741   -6.1271 O   0  0  0  0  0  0  0  0  0  0  0  0
    1.6235   -0.9062   -4.2733 F   0  0  0  0  0  0  0  0  0  0  0  0
    3.7685   -0.7997   -4.6416 F   0  0  0  0  0  0  0  0  0  0  0  0
    2.7150    0.9212   -3.8182 F   0  0  0  0  0  0  0  0  0  0  0  0
   -4.2064   -0.3606   -6.2156 O   0  0  0  0  0  0  0  0  0  0  0  0
   -4.9793   -0.4708   -5.0288 C   0  0  0  0  0  0  0  0  0  0  0  0
   -5.9593   -0.8338   -5.3415 H   0  0  0  0  0  0  0  0  0  0  0  0
   -5.0957    0.5004   -4.5312 H   0  0  0  0  0  0  0  0  0  0  0  0
   -4.5367   -1.1867   -4.3238 H   0  0  0  0  0  0  0  0  0  0  0  0
  1  6  1  0  0  0  0
  2  1  2  0  0  0  0
  2  3  1  0  0  0  0
  3 17  1  0  0  0  0
  3  4  2  0  0  0  0
  4  5  1  0  0  0  0
  4  9  1  0  0  0  0
  5 10  1  0  0  0  0
  6  5  2  0  0  0  0
  7  1  1  0  0  0  0
  8  2  1  0  0  0  0
 12 11  3  0  0  0  0
 13 17  1  0  0  0  0
 13 14  1  0  0  0  0
 14 19  1  0  0  0  0
 14 18  1  0  0  0  0
 14 20  1  0  0  0  0
 15 13  2  0  0  0  0
 16 13  2  0  0  0  0
 21  6  1  0  0  0  0
 21 22  1  0  0  0  0
 22 24  1  0  0  0  0
 22 25  1  0  0  0  0
 23 22  1  0  0  0  0
M  END
