Coordinates from ORCA-job p-CH3O-Ph-N2-OTf-B3LYP-6-31G_dp-scan-d09-49-n400
 OpenBabel02121707583D

 25 24  0  0  0  0  0  0  0  0999 V2000
   -1.8611   -0.4859   -6.0289 C   0  0  0  0  0  0  0  0  0  0  0  0
   -0.9079    0.4544   -6.3612 C   0  0  0  0  0  0  0  0  0  0  0  0
   -1.2506    1.8052   -6.1738 C   0  0  0  0  0  0  0  0  0  0  0  0
   -2.4824    2.2341   -5.6737 C   0  0  0  0  0  0  0  0  0  0  0  0
   -3.4244    1.2729   -5.3394 C   0  0  0  0  0  0  0  0  0  0  0  0
   -3.1168   -0.0929   -5.5147 C   0  0  0  0  0  0  0  0  0  0  0  0
   -1.6568   -1.5446   -6.1445 H   0  0  0  0  0  0  0  0  0  0  0  0
    0.0674    0.1872   -6.7463 H   0  0  0  0  0  0  0  0  0  0  0  0
   -2.6897    3.2906   -5.5443 H   0  0  0  0  0  0  0  0  0  0  0  0
   -4.3829    1.5842   -4.9453 H   0  0  0  0  0  0  0  0  0  0  0  0
   -0.2733    2.7941   -6.5140 N   0  0  0  0  0  0  0  0  0  0  0  0
    0.6721    3.3017   -6.8434 N   0  0  0  0  0  0  0  0  0  0  0  0
    2.7053    1.2219   -5.9237 S   0  0  0  0  0  0  0  0  0  0  0  0
    2.9896   -0.6113   -6.0939 C   0  0  0  0  0  0  0  0  0  0  0  0
    2.1067    1.5470   -7.2739 O   0  0  0  0  0  0  0  0  0  0  0  0
    4.0350    1.7815   -5.6695 O   0  0  0  0  0  0  0  0  0  0  0  0
    1.6952    1.3312   -4.8441 O   0  0  0  0  0  0  0  0  0  0  0  0
    1.8224   -1.2497   -6.3666 F   0  0  0  0  0  0  0  0  0  0  0  0
    3.8435   -0.8794   -7.0868 F   0  0  0  0  0  0  0  0  0  0  0  0
    3.4758   -1.1228   -4.9572 F   0  0  0  0  0  0  0  0  0  0  0  0
   -3.9566   -1.0985   -5.2224 O   0  0  0  0  0  0  0  0  0  0  0  0
   -5.2464   -0.8058   -4.6792 C   0  0  0  0  0  0  0  0  0  0  0  0
   -5.7237   -1.7726   -4.5223 H   0  0  0  0  0  0  0  0  0  0  0  0
   -5.8445   -0.2116   -5.3797 H   0  0  0  0  0  0  0  0  0  0  0  0
   -5.1615   -0.2805   -3.7213 H   0  0  0  0  0  0  0  0  0  0  0  0
  1  6  2  0  0  0  0
  2  3  2  0  0  0  0
  2  1  1  0  0  0  0
  3  4  1  0  0  0  0
  4  9  1  0  0  0  0
  4  5  2  0  0  0  0
  5 10  1  0  0  0  0
  6  5  1  0  0  0  0
  6 21  1  0  0  0  0
  7  1  1  0  0  0  0
  8  2  1  0  0  0  0
 11  3  1  0  0  0  0
 12 11  1  0  0  0  0
 13 16  2  0  0  0  0
 13 17  1  0  0  0  0
 14 13  1  0  0  0  0
 14 20  1  0  0  0  0
 15 13  2  0  0  0  0
 18 14  1  0  0  0  0
 19 14  1  0  0  0  0
 21 22  1  0  0  0  0
 22 23  1  0  0  0  0
 22 25  1  0  0  0  0
 24 22  1  0  0  0  0
M  RAD  3  11   2  12   3  17   2
M  END
