Coordinates from ORCA-job p-CH3O-Ph-N2-OTf-B3LYP-6-31G_dp-scan-d09-49-n400
 OpenBabel02121707583D

 25 24  0  0  0  0  0  0  0  0999 V2000
   -1.7918   -0.4153   -6.2427 C   0  0  0  0  0  0  0  0  0  0  0  0
   -0.8733    0.5487   -6.5775 C   0  0  0  0  0  0  0  0  0  0  0  0
   -1.1758    1.9102   -6.2765 C   0  0  0  0  0  0  0  0  0  0  0  0
   -2.3908    2.2666   -5.6375 C   0  0  0  0  0  0  0  0  0  0  0  0
   -3.2972    1.2838   -5.3036 C   0  0  0  0  0  0  0  0  0  0  0  0
   -3.0029   -0.0687   -5.6017 C   0  0  0  0  0  0  0  0  0  0  0  0
   -1.5921   -1.4617   -6.4443 H   0  0  0  0  0  0  0  0  0  0  0  0
    0.0784    0.3303   -7.0519 H   0  0  0  0  0  0  0  0  0  0  0  0
   -2.5906    3.3082   -5.4081 H   0  0  0  0  0  0  0  0  0  0  0  0
   -4.2216    1.5592   -4.8130 H   0  0  0  0  0  0  0  0  0  0  0  0
   -0.3393    2.8084   -6.5649 N   0  0  0  0  0  0  0  0  0  0  0  0
    0.4350    3.5687   -6.8469 N   0  0  0  0  0  0  0  0  0  0  0  0
    2.5302    1.1539   -5.9514 S   0  0  0  0  0  0  0  0  0  0  0  0
    2.7888   -0.6880   -5.8988 C   0  0  0  0  0  0  0  0  0  0  0  0
    1.9892    1.3541   -7.3347 O   0  0  0  0  0  0  0  0  0  0  0  0
    3.8570    1.7208   -5.6881 O   0  0  0  0  0  0  0  0  0  0  0  0
    1.4854    1.3779   -4.9149 O   0  0  0  0  0  0  0  0  0  0  0  0
    1.6261   -1.3355   -6.1793 F   0  0  0  0  0  0  0  0  0  0  0  0
    3.6972   -1.0800   -6.8003 F   0  0  0  0  0  0  0  0  0  0  0  0
    3.1910   -1.0889   -4.6856 F   0  0  0  0  0  0  0  0  0  0  0  0
   -3.8136   -1.0902   -5.3148 O   0  0  0  0  0  0  0  0  0  0  0  0
   -5.0533   -0.8546   -4.6354 C   0  0  0  0  0  0  0  0  0  0  0  0
   -5.5058   -1.8374   -4.5093 H   0  0  0  0  0  0  0  0  0  0  0  0
   -5.7145   -0.2195   -5.2350 H   0  0  0  0  0  0  0  0  0  0  0  0
   -4.8814   -0.4008   -3.6537 H   0  0  0  0  0  0  0  0  0  0  0  0
  1  6  2  0  0  0  0
  2  3  2  0  0  0  0
  2  1  1  0  0  0  0
  3  4  1  0  0  0  0
  4  9  1  0  0  0  0
  4  5  2  0  0  0  0
  5 10  1  0  0  0  0
  6 21  1  0  0  0  0
  6  5  1  0  0  0  0
  7  1  1  0  0  0  0
  8  2  1  0  0  0  0
 11  3  1  0  0  0  0
 12 11  1  0  0  0  0
 13 14  1  0  0  0  0
 13 16  2  0  0  0  0
 13 17  1  0  0  0  0
 14 20  1  0  0  0  0
 15 13  2  0  0  0  0
 18 14  1  0  0  0  0
 19 14  1  0  0  0  0
 21 22  1  0  0  0  0
 22 23  1  0  0  0  0
 22 25  1  0  0  0  0
 24 22  1  0  0  0  0
M  RAD  3  11   2  12   3  17   2
M  END
