Coordinates from ORCA-job p-CH3O-Ph-N2-OTf-B3LYP-6-31G_dp-scan-d09-49-n400
 OpenBabel02121707583D

 25 24  0  0  0  0  0  0  0  0999 V2000
   -2.2177    0.1771   -7.3255 C   0  0  0  0  0  0  0  0  0  0  0  0
   -0.9071    0.6322   -7.3500 C   0  0  0  0  0  0  0  0  0  0  0  0
   -0.3005    1.0143   -6.1524 C   0  0  0  0  0  0  0  0  0  0  0  0
   -0.9682    0.9107   -4.9394 C   0  0  0  0  0  0  0  0  0  0  0  0
   -2.2905    0.4619   -4.9142 C   0  0  0  0  0  0  0  0  0  0  0  0
   -2.9215    0.0943   -6.1111 C   0  0  0  0  0  0  0  0  0  0  0  0
   -2.7232   -0.1214   -8.2375 H   0  0  0  0  0  0  0  0  0  0  0  0
   -0.3587    0.7020   -8.2824 H   0  0  0  0  0  0  0  0  0  0  0  0
   -0.4638    1.2009   -4.0240 H   0  0  0  0  0  0  0  0  0  0  0  0
   -2.8095    0.4019   -3.9650 H   0  0  0  0  0  0  0  0  0  0  0  0
   -0.9778    3.5285   -6.4797 N   0  0  0  0  0  0  0  0  0  0  0  0
   -2.0131    3.9178   -6.5114 N   0  0  0  0  0  0  0  0  0  0  0  0
    2.3004    0.5534   -6.4005 S   0  0  0  0  0  0  0  0  0  0  0  0
    2.5615   -0.0975   -4.6643 C   0  0  0  0  0  0  0  0  0  0  0  0
    1.9411   -0.5816   -7.2352 O   0  0  0  0  0  0  0  0  0  0  0  0
    3.4089    1.4403   -6.6933 O   0  0  0  0  0  0  0  0  0  0  0  0
    1.0109    1.5380   -6.1483 O   0  0  0  0  0  0  0  0  0  0  0  0
    1.5677   -0.9246   -4.3365 F   0  0  0  0  0  0  0  0  0  0  0  0
    3.7193   -0.7532   -4.6314 F   0  0  0  0  0  0  0  0  0  0  0  0
    2.5939    0.9192   -3.8029 F   0  0  0  0  0  0  0  0  0  0  0  0
   -4.2019   -0.3551   -6.2046 O   0  0  0  0  0  0  0  0  0  0  0  0
   -4.9672   -0.4736   -5.0134 C   0  0  0  0  0  0  0  0  0  0  0  0
   -5.9451   -0.8466   -5.3208 H   0  0  0  0  0  0  0  0  0  0  0  0
   -5.0905    0.4963   -4.5150 H   0  0  0  0  0  0  0  0  0  0  0  0
   -4.5131   -1.1851   -4.3113 H   0  0  0  0  0  0  0  0  0  0  0  0
  1  6  1  0  0  0  0
  2  1  2  0  0  0  0
  2  3  1  0  0  0  0
  3 17  1  0  0  0  0
  3  4  2  0  0  0  0
  4  5  1  0  0  0  0
  4  9  1  0  0  0  0
  5 10  1  0  0  0  0
  6  5  2  0  0  0  0
  7  1  1  0  0  0  0
  8  2  1  0  0  0  0
 12 11  3  0  0  0  0
 13 17  1  0  0  0  0
 13 14  1  0  0  0  0
 14 19  1  0  0  0  0
 14 18  1  0  0  0  0
 14 20  1  0  0  0  0
 15 13  2  0  0  0  0
 16 13  2  0  0  0  0
 21  6  1  0  0  0  0
 21 22  1  0  0  0  0
 22 24  1  0  0  0  0
 22 25  1  0  0  0  0
 23 22  1  0  0  0  0
M  END
