Coordinates from ORCA-job p-CH3O-Ph-N2-OTf-B3LYP-6-31G_dp-scan-d09-49-n400
 OpenBabel02121707583D

 25 24  0  0  0  0  0  0  0  0999 V2000
   -2.0971    0.1048   -7.3324 C   0  0  0  0  0  0  0  0  0  0  0  0
   -0.7634    0.4895   -7.3487 C   0  0  0  0  0  0  0  0  0  0  0  0
   -0.1447    0.8354   -6.1465 C   0  0  0  0  0  0  0  0  0  0  0  0
   -0.8373    0.8142   -4.9435 C   0  0  0  0  0  0  0  0  0  0  0  0
   -2.1820    0.4353   -4.9274 C   0  0  0  0  0  0  0  0  0  0  0  0
   -2.8158    0.0746   -6.1247 C   0  0  0  0  0  0  0  0  0  0  0  0
   -2.6093   -0.1754   -8.2465 H   0  0  0  0  0  0  0  0  0  0  0  0
   -0.2026    0.5184   -8.2760 H   0  0  0  0  0  0  0  0  0  0  0  0
   -0.3303    1.0984   -4.0276 H   0  0  0  0  0  0  0  0  0  0  0  0
   -2.7170    0.4270   -3.9852 H   0  0  0  0  0  0  0  0  0  0  0  0
   -2.3222    5.0617   -6.6390 N   0  0  0  0  0  0  0  0  0  0  0  0
   -3.3475    4.6623   -6.5336 N   0  0  0  0  0  0  0  0  0  0  0  0
    2.4442    0.2868   -6.3625 S   0  0  0  0  0  0  0  0  0  0  0  0
    2.6857   -0.3142   -4.6062 C   0  0  0  0  0  0  0  0  0  0  0  0
    2.0462   -0.8619   -7.1599 O   0  0  0  0  0  0  0  0  0  0  0  0
    3.5795    1.1288   -6.6847 O   0  0  0  0  0  0  0  0  0  0  0  0
    1.1845    1.3176   -6.1399 O   0  0  0  0  0  0  0  0  0  0  0  0
    1.6545   -1.0806   -4.2459 F   0  0  0  0  0  0  0  0  0  0  0  0
    3.8106   -1.0241   -4.5551 F   0  0  0  0  0  0  0  0  0  0  0  0
    2.7719    0.7286   -3.7813 F   0  0  0  0  0  0  0  0  0  0  0  0
   -4.1162   -0.3139   -6.2255 O   0  0  0  0  0  0  0  0  0  0  0  0
   -4.8988   -0.3739   -5.0415 C   0  0  0  0  0  0  0  0  0  0  0  0
   -5.8884   -0.7113   -5.3526 H   0  0  0  0  0  0  0  0  0  0  0  0
   -4.9861    0.6109   -4.5649 H   0  0  0  0  0  0  0  0  0  0  0  0
   -4.4840   -1.0890   -4.3190 H   0  0  0  0  0  0  0  0  0  0  0  0
  1  6  1  0  0  0  0
  2  1  2  0  0  0  0
  2  3  1  0  0  0  0
  3 17  1  0  0  0  0
  3  4  2  0  0  0  0
  4  5  1  0  0  0  0
  4  9  1  0  0  0  0
  5 10  1  0  0  0  0
  6  5  2  0  0  0  0
  7  1  1  0  0  0  0
  8  2  1  0  0  0  0
 11 12  3  0  0  0  0
 13 17  1  0  0  0  0
 13 14  1  0  0  0  0
 14 19  1  0  0  0  0
 14 18  1  0  0  0  0
 14 20  1  0  0  0  0
 15 13  2  0  0  0  0
 16 13  2  0  0  0  0
 21  6  1  0  0  0  0
 21 22  1  0  0  0  0
 22 24  1  0  0  0  0
 22 25  1  0  0  0  0
 23 22  1  0  0  0  0
M  END
