Coordinates from ORCA-job p-CH3O-Ph-N2-OTf-B3LYP-6-31G_dp-scan-d09-49-n400
 OpenBabel02121707583D

 25 24  0  0  0  0  0  0  0  0999 V2000
   -2.1939    0.1425   -7.3245 C   0  0  0  0  0  0  0  0  0  0  0  0
   -0.8737    0.5713   -7.3398 C   0  0  0  0  0  0  0  0  0  0  0  0
   -0.2604    0.9164   -6.1345 C   0  0  0  0  0  0  0  0  0  0  0  0
   -0.9458    0.8492   -4.9289 C   0  0  0  0  0  0  0  0  0  0  0  0
   -2.2774    0.4263   -4.9136 C   0  0  0  0  0  0  0  0  0  0  0  0
   -2.9054    0.0672   -6.1145 C   0  0  0  0  0  0  0  0  0  0  0  0
   -2.7011   -0.1383   -8.2412 H   0  0  0  0  0  0  0  0  0  0  0  0
   -0.3193    0.6361   -8.2691 H   0  0  0  0  0  0  0  0  0  0  0  0
   -0.4439    1.1332   -4.0102 H   0  0  0  0  0  0  0  0  0  0  0  0
   -2.8064    0.3829   -3.9691 H   0  0  0  0  0  0  0  0  0  0  0  0
   -1.3141    4.1387   -6.5562 N   0  0  0  0  0  0  0  0  0  0  0  0
   -2.4045    4.3195   -6.5436 N   0  0  0  0  0  0  0  0  0  0  0  0
    2.3432    0.4628   -6.3875 S   0  0  0  0  0  0  0  0  0  0  0  0
    2.6438   -0.1483   -4.6444 C   0  0  0  0  0  0  0  0  0  0  0  0
    1.9705   -0.6908   -7.1902 O   0  0  0  0  0  0  0  0  0  0  0  0
    3.4400    1.3492   -6.7233 O   0  0  0  0  0  0  0  0  0  0  0  0
    1.0512    1.4427   -6.1240 O   0  0  0  0  0  0  0  0  0  0  0  0
    1.6336   -0.9321   -4.2614 F   0  0  0  0  0  0  0  0  0  0  0  0
    3.7792   -0.8430   -4.6312 F   0  0  0  0  0  0  0  0  0  0  0  0
    2.7391    0.8887   -3.8138 F   0  0  0  0  0  0  0  0  0  0  0  0
   -4.1931   -0.3609   -6.2165 O   0  0  0  0  0  0  0  0  0  0  0  0
   -4.9679   -0.4651   -5.0305 C   0  0  0  0  0  0  0  0  0  0  0  0
   -5.9492   -0.8244   -5.3436 H   0  0  0  0  0  0  0  0  0  0  0  0
   -5.0807    0.5078   -4.5351 H   0  0  0  0  0  0  0  0  0  0  0  0
   -4.5294   -1.1813   -4.3234 H   0  0  0  0  0  0  0  0  0  0  0  0
  1  6  1  0  0  0  0
  2  1  2  0  0  0  0
  2  3  1  0  0  0  0
  3 17  1  0  0  0  0
  3  4  2  0  0  0  0
  4  5  1  0  0  0  0
  4  9  1  0  0  0  0
  5 10  1  0  0  0  0
  6  5  2  0  0  0  0
  7  1  1  0  0  0  0
  8  2  1  0  0  0  0
 11 12  3  0  0  0  0
 13 17  1  0  0  0  0
 13 14  1  0  0  0  0
 14 19  1  0  0  0  0
 14 18  1  0  0  0  0
 14 20  1  0  0  0  0
 15 13  2  0  0  0  0
 16 13  2  0  0  0  0
 21  6  1  0  0  0  0
 21 22  1  0  0  0  0
 22 24  1  0  0  0  0
 22 25  1  0  0  0  0
 23 22  1  0  0  0  0
M  END
