Coordinates from ORCA-job p-CH3O-Ph-N2-OTf-B3LYP-6-31G_dp-scan-d09-49-n400
 OpenBabel02121707583D

 25 24  0  0  0  0  0  0  0  0999 V2000
   -1.6481   -0.2845   -6.3485 C   0  0  0  0  0  0  0  0  0  0  0  0
   -0.8111    0.7263   -6.7434 C   0  0  0  0  0  0  0  0  0  0  0  0
   -1.1596    2.1273   -6.4861 C   0  0  0  0  0  0  0  0  0  0  0  0
   -2.3902    2.3657   -5.7411 C   0  0  0  0  0  0  0  0  0  0  0  0
   -3.1871    1.3388   -5.3281 C   0  0  0  0  0  0  0  0  0  0  0  0
   -2.8235   -0.0076   -5.6270 C   0  0  0  0  0  0  0  0  0  0  0  0
   -1.3823   -1.3171   -6.5438 H   0  0  0  0  0  0  0  0  0  0  0  0
    0.1026    0.5583   -7.3038 H   0  0  0  0  0  0  0  0  0  0  0  0
   -2.6428    3.3987   -5.5206 H   0  0  0  0  0  0  0  0  0  0  0  0
   -4.0903    1.5602   -4.7741 H   0  0  0  0  0  0  0  0  0  0  0  0
   -0.5433    2.8998   -6.7773 N   0  0  0  0  0  0  0  0  0  0  0  0
    0.1468    3.7553   -7.0995 N   0  0  0  0  0  0  0  0  0  0  0  0
    2.2796    0.9891   -5.7632 S   0  0  0  0  0  0  0  0  0  0  0  0
    2.5760   -0.8440   -5.8686 C   0  0  0  0  0  0  0  0  0  0  0  0
    2.0772    1.3684   -7.1893 O   0  0  0  0  0  0  0  0  0  0  0  0
    3.4633    1.5286   -5.0884 O   0  0  0  0  0  0  0  0  0  0  0  0
    0.9997    1.0529   -4.9830 O   0  0  0  0  0  0  0  0  0  0  0  0
    1.5252   -1.4483   -6.4849 F   0  0  0  0  0  0  0  0  0  0  0  0
    3.6769   -1.1209   -6.5766 F   0  0  0  0  0  0  0  0  0  0  0  0
    2.7011   -1.3910   -4.6522 F   0  0  0  0  0  0  0  0  0  0  0  0
   -3.5463   -1.0634   -5.2642 O   0  0  0  0  0  0  0  0  0  0  0  0
   -4.7470   -0.8980   -4.4951 C   0  0  0  0  0  0  0  0  0  0  0  0
   -5.1174   -1.9070   -4.3204 H   0  0  0  0  0  0  0  0  0  0  0  0
   -5.4928   -0.3232   -5.0538 H   0  0  0  0  0  0  0  0  0  0  0  0
   -4.5323   -0.4144   -3.5370 H   0  0  0  0  0  0  0  0  0  0  0  0
  1  6  2  0  0  0  0
  2  3  2  0  0  0  0
  2  1  1  0  0  0  0
  3  4  1  0  0  0  0
  4  9  1  0  0  0  0
  4  5  2  0  0  0  0
  5 10  1  0  0  0  0
  6  5  1  0  0  0  0
  6 21  1  0  0  0  0
  7  1  1  0  0  0  0
  8  2  1  0  0  0  0
 11  3  1  0  0  0  0
 12 11  1  0  0  0  0
 13 16  2  0  0  0  0
 13 17  1  0  0  0  0
 14 13  1  0  0  0  0
 14 20  1  0  0  0  0
 15 13  2  0  0  0  0
 18 14  1  0  0  0  0
 19 14  1  0  0  0  0
 21 22  1  0  0  0  0
 22 23  1  0  0  0  0
 22 25  1  0  0  0  0
 24 22  1  0  0  0  0
M  RAD  3  11   2  12   3  17   2
M  END
