Coordinates from ORCA-job p-CH3O-Ph-N2-OTf-B3LYP-6-31G_dp-scan-d09-49-n400
 OpenBabel02121707583D

 25 24  0  0  0  0  0  0  0  0999 V2000
   -2.2130    0.1957   -7.3279 C   0  0  0  0  0  0  0  0  0  0  0  0
   -0.9094    0.6672   -7.3595 C   0  0  0  0  0  0  0  0  0  0  0  0
   -0.3112    1.0886   -6.1692 C   0  0  0  0  0  0  0  0  0  0  0  0
   -0.9610    0.9465   -4.9488 C   0  0  0  0  0  0  0  0  0  0  0  0
   -2.2765    0.4818   -4.9159 C   0  0  0  0  0  0  0  0  0  0  0  0
   -2.9118    0.1109   -6.1102 C   0  0  0  0  0  0  0  0  0  0  0  0
   -2.7161   -0.1194   -8.2356 H   0  0  0  0  0  0  0  0  0  0  0  0
   -0.3643    0.7371   -8.2937 H   0  0  0  0  0  0  0  0  0  0  0  0
   -0.4534    1.2382   -4.0358 H   0  0  0  0  0  0  0  0  0  0  0  0
   -2.7863    0.4065   -3.9629 H   0  0  0  0  0  0  0  0  0  0  0  0
   -0.9153    3.3449   -6.4582 N   0  0  0  0  0  0  0  0  0  0  0  0
   -1.9463    3.7493   -6.5015 N   0  0  0  0  0  0  0  0  0  0  0  0
    2.2812    0.5710   -6.4033 S   0  0  0  0  0  0  0  0  0  0  0  0
    2.5050   -0.0961   -4.6671 C   0  0  0  0  0  0  0  0  0  0  0  0
    1.9131   -0.5522   -7.2498 O   0  0  0  0  0  0  0  0  0  0  0  0
    3.4126    1.4359   -6.6735 O   0  0  0  0  0  0  0  0  0  0  0  0
    1.0119    1.5845   -6.1690 O   0  0  0  0  0  0  0  0  0  0  0  0
    1.5152   -0.9396   -4.3726 F   0  0  0  0  0  0  0  0  0  0  0  0
    3.6703   -0.7368   -4.6132 F   0  0  0  0  0  0  0  0  0  0  0  0
    2.5033    0.9115   -3.7937 F   0  0  0  0  0  0  0  0  0  0  0  0
   -4.1873   -0.3514   -6.1967 O   0  0  0  0  0  0  0  0  0  0  0  0
   -4.9462   -0.4761   -5.0018 C   0  0  0  0  0  0  0  0  0  0  0  0
   -5.9232   -0.8544   -5.3052 H   0  0  0  0  0  0  0  0  0  0  0  0
   -5.0725    0.4925   -4.5018 H   0  0  0  0  0  0  0  0  0  0  0  0
   -4.4845   -1.1860   -4.3032 H   0  0  0  0  0  0  0  0  0  0  0  0
  1  6  1  0  0  0  0
  2  1  2  0  0  0  0
  2  3  1  0  0  0  0
  3 17  1  0  0  0  0
  3  4  2  0  0  0  0
  4  5  1  0  0  0  0
  4  9  1  0  0  0  0
  5 10  1  0  0  0  0
  6  5  2  0  0  0  0
  7  1  1  0  0  0  0
  8  2  1  0  0  0  0
 12 11  3  0  0  0  0
 13 17  1  0  0  0  0
 13 14  1  0  0  0  0
 14 19  1  0  0  0  0
 14 18  1  0  0  0  0
 14 20  1  0  0  0  0
 15 13  2  0  0  0  0
 16 13  2  0  0  0  0
 21  6  1  0  0  0  0
 21 22  1  0  0  0  0
 22 24  1  0  0  0  0
 22 25  1  0  0  0  0
 23 22  1  0  0  0  0
M  END
