Coordinates from ORCA-job p-CH3O-Ph-N2-OTf-B3LYP-6-31G_dp-scan-d09-49-n400
 OpenBabel02121707583D

 25 24  0  0  0  0  0  0  0  0999 V2000
   -2.2173    0.1662   -7.3251 C   0  0  0  0  0  0  0  0  0  0  0  0
   -0.9033    0.6124   -7.3454 C   0  0  0  0  0  0  0  0  0  0  0  0
   -0.2938    0.9768   -6.1439 C   0  0  0  0  0  0  0  0  0  0  0  0
   -0.9694    0.8878   -4.9342 C   0  0  0  0  0  0  0  0  0  0  0  0
   -2.2950    0.4477   -4.9136 C   0  0  0  0  0  0  0  0  0  0  0  0
   -2.9241    0.0840   -6.1126 C   0  0  0  0  0  0  0  0  0  0  0  0
   -2.7235   -0.1239   -8.2395 H   0  0  0  0  0  0  0  0  0  0  0  0
   -0.3527    0.6829   -8.2764 H   0  0  0  0  0  0  0  0  0  0  0  0
   -0.4665    1.1759   -4.0174 H   0  0  0  0  0  0  0  0  0  0  0  0
   -2.8185    0.3937   -3.9666 H   0  0  0  0  0  0  0  0  0  0  0  0
   -1.0315    3.6809   -6.4949 N   0  0  0  0  0  0  0  0  0  0  0  0
   -2.0816    4.0273   -6.5156 N   0  0  0  0  0  0  0  0  0  0  0  0
    2.3102    0.5335   -6.3980 S   0  0  0  0  0  0  0  0  0  0  0  0
    2.5951   -0.1003   -4.6598 C   0  0  0  0  0  0  0  0  0  0  0  0
    1.9493   -0.6107   -7.2193 O   0  0  0  0  0  0  0  0  0  0  0  0
    3.4084    1.4265   -6.7109 O   0  0  0  0  0  0  0  0  0  0  0  0
    1.0147    1.5085   -6.1370 O   0  0  0  0  0  0  0  0  0  0  0  0
    1.5964   -0.9111   -4.3054 F   0  0  0  0  0  0  0  0  0  0  0  0
    3.7449   -0.7707   -4.6395 F   0  0  0  0  0  0  0  0  0  0  0  0
    2.6553    0.9253   -3.8111 F   0  0  0  0  0  0  0  0  0  0  0  0
   -4.2072   -0.3580   -6.2102 O   0  0  0  0  0  0  0  0  0  0  0  0
   -4.9762   -0.4732   -5.0213 C   0  0  0  0  0  0  0  0  0  0  0  0
   -5.9549   -0.8418   -5.3315 H   0  0  0  0  0  0  0  0  0  0  0  0
   -5.0969    0.4972   -4.5230 H   0  0  0  0  0  0  0  0  0  0  0  0
   -4.5274   -1.1867   -4.3179 H   0  0  0  0  0  0  0  0  0  0  0  0
  1  6  1  0  0  0  0
  2  1  2  0  0  0  0
  2  3  1  0  0  0  0
  3 17  1  0  0  0  0
  3  4  2  0  0  0  0
  4  5  1  0  0  0  0
  4  9  1  0  0  0  0
  5 10  1  0  0  0  0
  6  5  2  0  0  0  0
  7  1  1  0  0  0  0
  8  2  1  0  0  0  0
 12 11  3  0  0  0  0
 13 17  1  0  0  0  0
 13 14  1  0  0  0  0
 14 19  1  0  0  0  0
 14 18  1  0  0  0  0
 14 20  1  0  0  0  0
 15 13  2  0  0  0  0
 16 13  2  0  0  0  0
 21  6  1  0  0  0  0
 21 22  1  0  0  0  0
 22 24  1  0  0  0  0
 22 25  1  0  0  0  0
 23 22  1  0  0  0  0
M  END
