Coordinates from ORCA-job p-CH3O-Ph-N2-OTf-B3LYP-6-31G_dp-scan-d09-49-n400
 OpenBabel02121707583D

 25 24  0  0  0  0  0  0  0  0999 V2000
   -2.2154    0.1600   -7.3253 C   0  0  0  0  0  0  0  0  0  0  0  0
   -0.8998    0.6020   -7.3437 C   0  0  0  0  0  0  0  0  0  0  0  0
   -0.2890    0.9590   -6.1406 C   0  0  0  0  0  0  0  0  0  0  0  0
   -0.9680    0.8763   -4.9324 C   0  0  0  0  0  0  0  0  0  0  0  0
   -2.2951    0.4405   -4.9138 C   0  0  0  0  0  0  0  0  0  0  0  0
   -2.9236    0.0784   -6.1136 C   0  0  0  0  0  0  0  0  0  0  0  0
   -2.7218   -0.1263   -8.2407 H   0  0  0  0  0  0  0  0  0  0  0  0
   -0.3484    0.6726   -8.2742 H   0  0  0  0  0  0  0  0  0  0  0  0
   -0.4660    1.1636   -4.0148 H   0  0  0  0  0  0  0  0  0  0  0  0
   -2.8205    0.3894   -3.9677 H   0  0  0  0  0  0  0  0  0  0  0  0
   -1.0724    3.7746   -6.5039 N   0  0  0  0  0  0  0  0  0  0  0  0
   -2.1314    4.0928   -6.5165 N   0  0  0  0  0  0  0  0  0  0  0  0
    2.3159    0.5195   -6.3964 S   0  0  0  0  0  0  0  0  0  0  0  0
    2.6111   -0.1043   -4.6566 C   0  0  0  0  0  0  0  0  0  0  0  0
    1.9527   -0.6296   -7.2098 O   0  0  0  0  0  0  0  0  0  0  0  0
    3.4104    1.4132   -6.7198 O   0  0  0  0  0  0  0  0  0  0  0  0
    1.0190    1.4924   -6.1325 O   0  0  0  0  0  0  0  0  0  0  0  0
    1.6098   -0.9062   -4.2888 F   0  0  0  0  0  0  0  0  0  0  0  0
    3.7565   -0.7824   -4.6410 F   0  0  0  0  0  0  0  0  0  0  0  0
    2.6849    0.9262   -3.8153 F   0  0  0  0  0  0  0  0  0  0  0  0
   -4.2078   -0.3598   -6.2130 O   0  0  0  0  0  0  0  0  0  0  0  0
   -4.9787   -0.4729   -5.0251 C   0  0  0  0  0  0  0  0  0  0  0  0
   -5.9579   -0.8392   -5.3365 H   0  0  0  0  0  0  0  0  0  0  0  0
   -5.0977    0.4979   -4.5271 H   0  0  0  0  0  0  0  0  0  0  0  0
   -4.5326   -1.1874   -4.3209 H   0  0  0  0  0  0  0  0  0  0  0  0
  1  6  1  0  0  0  0
  2  1  2  0  0  0  0
  2  3  1  0  0  0  0
  3 17  1  0  0  0  0
  3  4  2  0  0  0  0
  4  5  1  0  0  0  0
  4  9  1  0  0  0  0
  5 10  1  0  0  0  0
  6  5  2  0  0  0  0
  7  1  1  0  0  0  0
  8  2  1  0  0  0  0
 12 11  3  0  0  0  0
 13 17  1  0  0  0  0
 13 14  1  0  0  0  0
 14 19  1  0  0  0  0
 14 18  1  0  0  0  0
 14 20  1  0  0  0  0
 15 13  2  0  0  0  0
 16 13  2  0  0  0  0
 21  6  1  0  0  0  0
 21 22  1  0  0  0  0
 22 24  1  0  0  0  0
 22 25  1  0  0  0  0
 23 22  1  0  0  0  0
M  END
