Coordinates from ORCA-job p-CH3O-Ph-N2-OTf-B3LYP-6-31G_dp-scan-d09-49-n400
 OpenBabel02121707583D

 25 24  0  0  0  0  0  0  0  0999 V2000
   -2.2129    0.1555   -7.3250 C   0  0  0  0  0  0  0  0  0  0  0  0
   -0.8960    0.5942   -7.3421 C   0  0  0  0  0  0  0  0  0  0  0  0
   -0.2846    0.9466   -6.1380 C   0  0  0  0  0  0  0  0  0  0  0  0
   -0.9657    0.8677   -4.9308 C   0  0  0  0  0  0  0  0  0  0  0  0
   -2.2940    0.4351   -4.9136 C   0  0  0  0  0  0  0  0  0  0  0  0
   -2.9221    0.0746   -6.1140 C   0  0  0  0  0  0  0  0  0  0  0  0
   -2.7195   -0.1284   -8.2411 H   0  0  0  0  0  0  0  0  0  0  0  0
   -0.3438    0.6643   -8.2722 H   0  0  0  0  0  0  0  0  0  0  0  0
   -0.4640    1.1539   -4.0127 H   0  0  0  0  0  0  0  0  0  0  0  0
   -2.8205    0.3857   -3.9680 H   0  0  0  0  0  0  0  0  0  0  0  0
   -1.1112    3.8533   -6.5142 N   0  0  0  0  0  0  0  0  0  0  0  0
   -2.1774    4.1458   -6.5217 N   0  0  0  0  0  0  0  0  0  0  0  0
    2.3207    0.5083   -6.3947 S   0  0  0  0  0  0  0  0  0  0  0  0
    2.6221   -0.1099   -4.6540 C   0  0  0  0  0  0  0  0  0  0  0  0
    1.9557   -0.6435   -7.2035 O   0  0  0  0  0  0  0  0  0  0  0  0
    3.4134    1.4020   -6.7244 O   0  0  0  0  0  0  0  0  0  0  0  0
    1.0235    1.4803   -6.1289 O   0  0  0  0  0  0  0  0  0  0  0  0
    1.6188   -0.9058   -4.2783 F   0  0  0  0  0  0  0  0  0  0  0  0
    3.7643   -0.7934   -4.6414 F   0  0  0  0  0  0  0  0  0  0  0  0
    2.7048    0.9234   -3.8173 F   0  0  0  0  0  0  0  0  0  0  0  0
   -4.2072   -0.3609   -6.2146 O   0  0  0  0  0  0  0  0  0  0  0  0
   -4.9793   -0.4725   -5.0274 C   0  0  0  0  0  0  0  0  0  0  0  0
   -5.9590   -0.8368   -5.3396 H   0  0  0  0  0  0  0  0  0  0  0  0
   -5.0968    0.4985   -4.5295 H   0  0  0  0  0  0  0  0  0  0  0  0
   -4.5353   -1.1879   -4.3229 H   0  0  0  0  0  0  0  0  0  0  0  0
  1  6  1  0  0  0  0
  2  1  2  0  0  0  0
  2  3  1  0  0  0  0
  3 17  1  0  0  0  0
  3  4  2  0  0  0  0
  4  5  1  0  0  0  0
  4  9  1  0  0  0  0
  5 10  1  0  0  0  0
  6  5  2  0  0  0  0
  7  1  1  0  0  0  0
  8  2  1  0  0  0  0
 12 11  3  0  0  0  0
 13 17  1  0  0  0  0
 13 14  1  0  0  0  0
 14 19  1  0  0  0  0
 14 18  1  0  0  0  0
 14 20  1  0  0  0  0
 15 13  2  0  0  0  0
 16 13  2  0  0  0  0
 21  6  1  0  0  0  0
 21 22  1  0  0  0  0
 22 24  1  0  0  0  0
 22 25  1  0  0  0  0
 23 22  1  0  0  0  0
M  END
