Coordinates from ORCA-job p-CH3O-Ph-N2-OTf-B3LYP-6-31G_dp-scan-d09-49-n400
 OpenBabel02121707583D

 25 24  0  0  0  0  0  0  0  0999 V2000
   -1.7824   -0.3472   -6.2090 C   0  0  0  0  0  0  0  0  0  0  0  0
   -0.8888    0.6749   -6.5309 C   0  0  0  0  0  0  0  0  0  0  0  0
   -1.3732    1.9004   -6.1798 C   0  0  0  0  0  0  0  0  0  0  0  0
   -2.5281    2.3180   -5.5892 C   0  0  0  0  0  0  0  0  0  0  0  0
   -3.3937    1.2553   -5.2879 C   0  0  0  0  0  0  0  0  0  0  0  0
   -3.0220   -0.0686   -5.5949 C   0  0  0  0  0  0  0  0  0  0  0  0
   -1.5144   -1.3778   -6.4156 H   0  0  0  0  0  0  0  0  0  0  0  0
    0.0946    0.5336   -6.9823 H   0  0  0  0  0  0  0  0  0  0  0  0
   -2.7629    3.3498   -5.3646 H   0  0  0  0  0  0  0  0  0  0  0  0
   -4.3413    1.4815   -4.8162 H   0  0  0  0  0  0  0  0  0  0  0  0
   -0.1620    3.2371   -6.6009 N   0  0  0  0  0  0  0  0  0  0  0  0
    0.8584    3.4944   -6.9604 N   0  0  0  0  0  0  0  0  0  0  0  0
    2.6367    1.1253   -5.9994 S   0  0  0  0  0  0  0  0  0  0  0  0
    2.6981   -0.7310   -5.8504 C   0  0  0  0  0  0  0  0  0  0  0  0
    1.9645    1.2931   -7.3438 O   0  0  0  0  0  0  0  0  0  0  0  0
    4.0390    1.5468   -5.9502 O   0  0  0  0  0  0  0  0  0  0  0  0
    1.7489    1.5460   -4.8918 O   0  0  0  0  0  0  0  0  0  0  0  0
    1.4542   -1.2580   -5.9875 F   0  0  0  0  0  0  0  0  0  0  0  0
    3.4748   -1.2673   -6.7980 F   0  0  0  0  0  0  0  0  0  0  0  0
    3.1657   -1.0972   -4.6518 F   0  0  0  0  0  0  0  0  0  0  0  0
   -3.7889   -1.1486   -5.3374 O   0  0  0  0  0  0  0  0  0  0  0  0
   -5.0432   -0.9693   -4.6820 C   0  0  0  0  0  0  0  0  0  0  0  0
   -5.4610   -1.9693   -4.5665 H   0  0  0  0  0  0  0  0  0  0  0  0
   -5.7247   -0.3582   -5.2865 H   0  0  0  0  0  0  0  0  0  0  0  0
   -4.9138   -0.5133   -3.6931 H   0  0  0  0  0  0  0  0  0  0  0  0
  1  6  1  0  0  0  0
  2  1  2  0  0  0  0
  2  3  1  0  0  0  0
  3  4  2  0  0  0  0
  4  9  1  0  0  0  0
  4  5  1  0  0  0  0
  5 10  1  0  0  0  0
  6 21  1  0  0  0  0
  6  5  2  0  0  0  0
  7  1  1  0  0  0  0
  8  2  1  0  0  0  0
 11  3  1  0  0  0  0
 12 11  2  0  0  0  0
 13 16  2  0  0  0  0
 13 14  1  0  0  0  0
 13 17  1  0  0  0  0
 14 20  1  0  0  0  0
 15 13  2  0  0  0  0
 18 14  1  0  0  0  0
 19 14  1  0  0  0  0
 21 22  1  0  0  0  0
 22 23  1  0  0  0  0
 22 25  1  0  0  0  0
 24 22  1  0  0  0  0
M  RAD  2  12   2  17   2
M  END
