Coordinates from ORCA-job p-CH3O-Ph-N2-OTf-B3LYP-6-31G_dp-scan-d09-49-n400
 OpenBabel02121707583D

 25 24  0  0  0  0  0  0  0  0999 V2000
   -2.1530    0.1307   -7.3261 C   0  0  0  0  0  0  0  0  0  0  0  0
   -0.8264    0.5396   -7.3413 C   0  0  0  0  0  0  0  0  0  0  0  0
   -0.2091    0.8785   -6.1363 C   0  0  0  0  0  0  0  0  0  0  0  0
   -0.8971    0.8274   -4.9315 C   0  0  0  0  0  0  0  0  0  0  0  0
   -2.2348    0.4240   -4.9163 C   0  0  0  0  0  0  0  0  0  0  0  0
   -2.8665    0.0694   -6.1165 C   0  0  0  0  0  0  0  0  0  0  0  0
   -2.6634   -0.1452   -8.2425 H   0  0  0  0  0  0  0  0  0  0  0  0
   -0.2700    0.5931   -8.2702 H   0  0  0  0  0  0  0  0  0  0  0  0
   -0.3921    1.1074   -4.0132 H   0  0  0  0  0  0  0  0  0  0  0  0
   -2.7656    0.3920   -3.9723 H   0  0  0  0  0  0  0  0  0  0  0  0
   -1.7432    4.5712   -6.6198 N   0  0  0  0  0  0  0  0  0  0  0  0
   -2.8458    4.5147   -6.5671 N   0  0  0  0  0  0  0  0  0  0  0  0
    2.3886    0.3828   -6.3746 S   0  0  0  0  0  0  0  0  0  0  0  0
    2.6644   -0.2262   -4.6264 C   0  0  0  0  0  0  0  0  0  0  0  0
    2.0040   -0.7677   -7.1760 O   0  0  0  0  0  0  0  0  0  0  0  0
    3.5023    1.2502   -6.7042 O   0  0  0  0  0  0  0  0  0  0  0  0
    1.1105    1.3851   -6.1269 O   0  0  0  0  0  0  0  0  0  0  0  0
    1.6457   -1.0038   -4.2539 F   0  0  0  0  0  0  0  0  0  0  0  0
    3.7960   -0.9266   -4.5979 F   0  0  0  0  0  0  0  0  0  0  0  0
    2.7551    0.8124   -3.7968 F   0  0  0  0  0  0  0  0  0  0  0  0
   -4.1600   -0.3409   -6.2184 O   0  0  0  0  0  0  0  0  0  0  0  0
   -4.9369   -0.4315   -5.0328 C   0  0  0  0  0  0  0  0  0  0  0  0
   -5.9223   -0.7798   -5.3454 H   0  0  0  0  0  0  0  0  0  0  0  0
   -5.0381    0.5443   -4.5407 H   0  0  0  0  0  0  0  0  0  0  0  0
   -4.5080   -1.1509   -4.3228 H   0  0  0  0  0  0  0  0  0  0  0  0
  1  6  1  0  0  0  0
  2  1  2  0  0  0  0
  2  3  1  0  0  0  0
  3 17  1  0  0  0  0
  3  4  2  0  0  0  0
  4  5  1  0  0  0  0
  4  9  1  0  0  0  0
  5 10  1  0  0  0  0
  6  5  2  0  0  0  0
  7  1  1  0  0  0  0
  8  2  1  0  0  0  0
 11 12  3  0  0  0  0
 13 17  1  0  0  0  0
 13 14  1  0  0  0  0
 14 19  1  0  0  0  0
 14 18  1  0  0  0  0
 14 20  1  0  0  0  0
 15 13  2  0  0  0  0
 16 13  2  0  0  0  0
 21  6  1  0  0  0  0
 21 22  1  0  0  0  0
 22 24  1  0  0  0  0
 22 25  1  0  0  0  0
 23 22  1  0  0  0  0
M  END
