Coordinates from ORCA-job p-CH3O-Ph-N2-OTf-B3LYP-6-31G_dp-scan-d09-49-n400
 OpenBabel02121707583D

 25 24  0  0  0  0  0  0  0  0999 V2000
   -2.1647    0.1340   -7.3248 C   0  0  0  0  0  0  0  0  0  0  0  0
   -0.8405    0.5503   -7.3404 C   0  0  0  0  0  0  0  0  0  0  0  0
   -0.2243    0.8914   -6.1354 C   0  0  0  0  0  0  0  0  0  0  0  0
   -0.9115    0.8353   -4.9302 C   0  0  0  0  0  0  0  0  0  0  0  0
   -2.2469    0.4247   -4.9147 C   0  0  0  0  0  0  0  0  0  0  0  0
   -2.8773    0.0677   -6.1149 C   0  0  0  0  0  0  0  0  0  0  0  0
   -2.6741   -0.1441   -8.2412 H   0  0  0  0  0  0  0  0  0  0  0  0
   -0.2849    0.6074   -8.2695 H   0  0  0  0  0  0  0  0  0  0  0  0
   -0.4074    1.1170   -4.0120 H   0  0  0  0  0  0  0  0  0  0  0  0
   -2.7770    0.3890   -3.9704 H   0  0  0  0  0  0  0  0  0  0  0  0
   -1.6118    4.4488   -6.6065 N   0  0  0  0  0  0  0  0  0  0  0  0
   -2.7162    4.4682   -6.5672 N   0  0  0  0  0  0  0  0  0  0  0  0
    2.3748    0.4072   -6.3782 S   0  0  0  0  0  0  0  0  0  0  0  0
    2.6556   -0.2058   -4.6322 C   0  0  0  0  0  0  0  0  0  0  0  0
    1.9937   -0.7427   -7.1823 O   0  0  0  0  0  0  0  0  0  0  0  0
    3.4846    1.2799   -6.7070 O   0  0  0  0  0  0  0  0  0  0  0  0
    1.0931    1.4035   -6.1257 O   0  0  0  0  0  0  0  0  0  0  0  0
    1.6391   -0.9862   -4.2595 F   0  0  0  0  0  0  0  0  0  0  0  0
    3.7885   -0.9043   -4.6080 F   0  0  0  0  0  0  0  0  0  0  0  0
    2.7462    0.8308   -3.8002 F   0  0  0  0  0  0  0  0  0  0  0  0
   -4.1686   -0.3495   -6.2166 O   0  0  0  0  0  0  0  0  0  0  0  0
   -4.9448   -0.4443   -5.0307 C   0  0  0  0  0  0  0  0  0  0  0  0
   -5.9288   -0.7966   -5.3433 H   0  0  0  0  0  0  0  0  0  0  0  0
   -5.0500    0.5307   -4.5378 H   0  0  0  0  0  0  0  0  0  0  0  0
   -4.5125   -1.1623   -4.3214 H   0  0  0  0  0  0  0  0  0  0  0  0
  1  6  1  0  0  0  0
  2  1  2  0  0  0  0
  2  3  1  0  0  0  0
  3 17  1  0  0  0  0
  3  4  2  0  0  0  0
  4  5  1  0  0  0  0
  4  9  1  0  0  0  0
  5 10  1  0  0  0  0
  6  5  2  0  0  0  0
  7  1  1  0  0  0  0
  8  2  1  0  0  0  0
 11 12  3  0  0  0  0
 13 17  1  0  0  0  0
 13 14  1  0  0  0  0
 14 19  1  0  0  0  0
 14 18  1  0  0  0  0
 14 20  1  0  0  0  0
 15 13  2  0  0  0  0
 16 13  2  0  0  0  0
 21  6  1  0  0  0  0
 21 22  1  0  0  0  0
 22 24  1  0  0  0  0
 22 25  1  0  0  0  0
 23 22  1  0  0  0  0
M  END
