Coordinates from ORCA-job p-CH3O-Ph-N2-OTf-B3LYP-6-31G_dp-scan-d09-49-n400
 OpenBabel02121707583D

 25 24  0  0  0  0  0  0  0  0999 V2000
   -2.2135    0.1924   -7.3271 C   0  0  0  0  0  0  0  0  0  0  0  0
   -0.9088    0.6615   -7.3576 C   0  0  0  0  0  0  0  0  0  0  0  0
   -0.3091    1.0760   -6.1662 C   0  0  0  0  0  0  0  0  0  0  0  0
   -0.9622    0.9418   -4.9473 C   0  0  0  0  0  0  0  0  0  0  0  0
   -2.2789    0.4795   -4.9155 C   0  0  0  0  0  0  0  0  0  0  0  0
   -2.9133    0.1082   -6.1100 C   0  0  0  0  0  0  0  0  0  0  0  0
   -2.7170   -0.1203   -8.2355 H   0  0  0  0  0  0  0  0  0  0  0  0
   -0.3632    0.7312   -8.2916 H   0  0  0  0  0  0  0  0  0  0  0  0
   -0.4554    1.2340   -4.0339 H   0  0  0  0  0  0  0  0  0  0  0  0
   -2.7904    0.4073   -3.9632 H   0  0  0  0  0  0  0  0  0  0  0  0
   -0.9243    3.3703   -6.4623 N   0  0  0  0  0  0  0  0  0  0  0  0
   -1.9552    3.7743   -6.5040 N   0  0  0  0  0  0  0  0  0  0  0  0
    2.2845    0.5698   -6.4029 S   0  0  0  0  0  0  0  0  0  0  0  0
    2.5130   -0.0971   -4.6673 C   0  0  0  0  0  0  0  0  0  0  0  0
    1.9188   -0.5543   -7.2494 O   0  0  0  0  0  0  0  0  0  0  0  0
    3.4123    1.4389   -6.6746 O   0  0  0  0  0  0  0  0  0  0  0  0
    1.0113    1.5780   -6.1655 O   0  0  0  0  0  0  0  0  0  0  0  0
    1.5228   -0.9393   -4.3699 F   0  0  0  0  0  0  0  0  0  0  0  0
    3.6776   -0.7394   -4.6166 F   0  0  0  0  0  0  0  0  0  0  0  0
    2.5150    0.9107   -3.7943 F   0  0  0  0  0  0  0  0  0  0  0  0
   -4.1895   -0.3524   -6.1975 O   0  0  0  0  0  0  0  0  0  0  0  0
   -4.9494   -0.4756   -5.0032 C   0  0  0  0  0  0  0  0  0  0  0  0
   -5.9265   -0.8535   -5.3071 H   0  0  0  0  0  0  0  0  0  0  0  0
   -5.0755    0.4935   -4.5040 H   0  0  0  0  0  0  0  0  0  0  0  0
   -4.4888   -1.1853   -4.3036 H   0  0  0  0  0  0  0  0  0  0  0  0
  1  6  1  0  0  0  0
  2  1  2  0  0  0  0
  2  3  1  0  0  0  0
  3 17  1  0  0  0  0
  3  4  2  0  0  0  0
  4  5  1  0  0  0  0
  4  9  1  0  0  0  0
  5 10  1  0  0  0  0
  6  5  2  0  0  0  0
  7  1  1  0  0  0  0
  8  2  1  0  0  0  0
 12 11  3  0  0  0  0
 13 17  1  0  0  0  0
 13 14  1  0  0  0  0
 14 19  1  0  0  0  0
 14 18  1  0  0  0  0
 14 20  1  0  0  0  0
 15 13  2  0  0  0  0
 16 13  2  0  0  0  0
 21  6  1  0  0  0  0
 21 22  1  0  0  0  0
 22 24  1  0  0  0  0
 22 25  1  0  0  0  0
 23 22  1  0  0  0  0
M  END
