Coordinates from ORCA-job p-CH3O-Ph-N2-OTf-B3LYP-6-31G_dp-scan-d09-49-n400
 OpenBabel02121707583D

 25 24  0  0  0  0  0  0  0  0999 V2000
   -2.1257    0.1199   -7.3284 C   0  0  0  0  0  0  0  0  0  0  0  0
   -0.7956    0.5168   -7.3435 C   0  0  0  0  0  0  0  0  0  0  0  0
   -0.1776    0.8573   -6.1393 C   0  0  0  0  0  0  0  0  0  0  0  0
   -0.8683    0.8197   -4.9355 C   0  0  0  0  0  0  0  0  0  0  0  0
   -2.2096    0.4287   -4.9206 C   0  0  0  0  0  0  0  0  0  0  0  0
   -2.8422    0.0727   -6.1200 C   0  0  0  0  0  0  0  0  0  0  0  0
   -2.6369   -0.1568   -8.2442 H   0  0  0  0  0  0  0  0  0  0  0  0
   -0.2368    0.5594   -8.2715 H   0  0  0  0  0  0  0  0  0  0  0  0
   -0.3625    1.1007   -4.0180 H   0  0  0  0  0  0  0  0  0  0  0  0
   -2.7427    0.4074   -3.9776 H   0  0  0  0  0  0  0  0  0  0  0  0
   -2.0196    4.7989   -6.6331 N   0  0  0  0  0  0  0  0  0  0  0  0
   -3.1000    4.5791   -6.5545 N   0  0  0  0  0  0  0  0  0  0  0  0
    2.4162    0.3375   -6.3685 S   0  0  0  0  0  0  0  0  0  0  0  0
    2.6775   -0.2696   -4.6173 C   0  0  0  0  0  0  0  0  0  0  0  0
    2.0252   -0.8115   -7.1690 O   0  0  0  0  0  0  0  0  0  0  0  0
    3.5396    1.1938   -6.6948 O   0  0  0  0  0  0  0  0  0  0  0  0
    1.1465    1.3524   -6.1304 O   0  0  0  0  0  0  0  0  0  0  0  0
    1.6524   -1.0412   -4.2500 F   0  0  0  0  0  0  0  0  0  0  0  0
    3.8053   -0.9757   -4.5802 F   0  0  0  0  0  0  0  0  0  0  0  0
    2.7681    0.7701   -3.7892 F   0  0  0  0  0  0  0  0  0  0  0  0
   -4.1392   -0.3262   -6.2221 O   0  0  0  0  0  0  0  0  0  0  0  0
   -4.9198   -0.4010   -5.0376 C   0  0  0  0  0  0  0  0  0  0  0  0
   -5.9079   -0.7416   -5.3504 H   0  0  0  0  0  0  0  0  0  0  0  0
   -5.0124    0.5792   -4.5526 H   0  0  0  0  0  0  0  0  0  0  0  0
   -4.4999   -1.1197   -4.3218 H   0  0  0  0  0  0  0  0  0  0  0  0
  1  6  1  0  0  0  0
  2  1  2  0  0  0  0
  2  3  1  0  0  0  0
  3 17  1  0  0  0  0
  3  4  2  0  0  0  0
  4  5  1  0  0  0  0
  4  9  1  0  0  0  0
  5 10  1  0  0  0  0
  6  5  2  0  0  0  0
  7  1  1  0  0  0  0
  8  2  1  0  0  0  0
 11 12  3  0  0  0  0
 13 17  1  0  0  0  0
 13 14  1  0  0  0  0
 14 19  1  0  0  0  0
 14 18  1  0  0  0  0
 14 20  1  0  0  0  0
 15 13  2  0  0  0  0
 16 13  2  0  0  0  0
 21  6  1  0  0  0  0
 21 22  1  0  0  0  0
 22 24  1  0  0  0  0
 22 25  1  0  0  0  0
 23 22  1  0  0  0  0
M  END
