Coordinates from ORCA-job p-CH3O-Ph-N2-OTf-B3LYP-6-31G_dp-scan-d09-49-n400
 OpenBabel02121707583D

 25 24  0  0  0  0  0  0  0  0999 V2000
   -2.2178    0.1690   -7.3251 C   0  0  0  0  0  0  0  0  0  0  0  0
   -0.9045    0.6171   -7.3463 C   0  0  0  0  0  0  0  0  0  0  0  0
   -0.2956    0.9850   -6.1456 C   0  0  0  0  0  0  0  0  0  0  0  0
   -0.9695    0.8931   -4.9352 C   0  0  0  0  0  0  0  0  0  0  0  0
   -2.2944    0.4511   -4.9137 C   0  0  0  0  0  0  0  0  0  0  0  0
   -2.9239    0.0866   -6.1122 C   0  0  0  0  0  0  0  0  0  0  0  0
   -2.7239   -0.1228   -8.2390 H   0  0  0  0  0  0  0  0  0  0  0  0
   -0.3544    0.6877   -8.2776 H   0  0  0  0  0  0  0  0  0  0  0  0
   -0.4663    1.1818   -4.0187 H   0  0  0  0  0  0  0  0  0  0  0  0
   -2.8170    0.3959   -3.9662 H   0  0  0  0  0  0  0  0  0  0  0  0
   -1.0167    3.6420   -6.4910 N   0  0  0  0  0  0  0  0  0  0  0  0
   -2.0634    3.9991   -6.5148 N   0  0  0  0  0  0  0  0  0  0  0  0
    2.3079    0.5388   -6.3987 S   0  0  0  0  0  0  0  0  0  0  0  0
    2.5878   -0.0991   -4.6610 C   0  0  0  0  0  0  0  0  0  0  0  0
    1.9477   -0.6033   -7.2232 O   0  0  0  0  0  0  0  0  0  0  0  0
    3.4081    1.4309   -6.7069 O   0  0  0  0  0  0  0  0  0  0  0  0
    1.0134    1.5154   -6.1392 O   0  0  0  0  0  0  0  0  0  0  0  0
    1.5902   -0.9137   -4.3126 F   0  0  0  0  0  0  0  0  0  0  0  0
    3.7394   -0.7663   -4.6382 F   0  0  0  0  0  0  0  0  0  0  0  0
    2.6419    0.9243   -3.8093 F   0  0  0  0  0  0  0  0  0  0  0  0
   -4.2064   -0.3571   -6.2090 O   0  0  0  0  0  0  0  0  0  0  0  0
   -4.9746   -0.4732   -5.0196 C   0  0  0  0  0  0  0  0  0  0  0  0
   -5.9531   -0.8428   -5.3292 H   0  0  0  0  0  0  0  0  0  0  0  0
   -5.0960    0.4971   -4.5212 H   0  0  0  0  0  0  0  0  0  0  0  0
   -4.5246   -1.1863   -4.3165 H   0  0  0  0  0  0  0  0  0  0  0  0
  1  6  1  0  0  0  0
  2  1  2  0  0  0  0
  2  3  1  0  0  0  0
  3 17  1  0  0  0  0
  3  4  2  0  0  0  0
  4  5  1  0  0  0  0
  4  9  1  0  0  0  0
  5 10  1  0  0  0  0
  6  5  2  0  0  0  0
  7  1  1  0  0  0  0
  8  2  1  0  0  0  0
 12 11  3  0  0  0  0
 13 17  1  0  0  0  0
 13 14  1  0  0  0  0
 14 19  1  0  0  0  0
 14 18  1  0  0  0  0
 14 20  1  0  0  0  0
 15 13  2  0  0  0  0
 16 13  2  0  0  0  0
 21  6  1  0  0  0  0
 21 22  1  0  0  0  0
 22 24  1  0  0  0  0
 22 25  1  0  0  0  0
 23 22  1  0  0  0  0
M  END
