Coordinates from ORCA-job p-CH3O-Ph-N2-OTf-B3LYP-6-31G_dp-scan-d09-49-n400
 OpenBabel02121707583D

 25 24  0  0  0  0  0  0  0  0999 V2000
   -1.8398   -0.4304   -6.1029 C   0  0  0  0  0  0  0  0  0  0  0  0
   -0.9096    0.5458   -6.4327 C   0  0  0  0  0  0  0  0  0  0  0  0
   -1.3242    1.8385   -6.1725 C   0  0  0  0  0  0  0  0  0  0  0  0
   -2.5185    2.2696   -5.6421 C   0  0  0  0  0  0  0  0  0  0  0  0
   -3.4296    1.2617   -5.3203 C   0  0  0  0  0  0  0  0  0  0  0  0
   -3.0913   -0.0863   -5.5486 C   0  0  0  0  0  0  0  0  0  0  0  0
   -1.6073   -1.4785   -6.2570 H   0  0  0  0  0  0  0  0  0  0  0  0
    0.0676    0.3313   -6.8486 H   0  0  0  0  0  0  0  0  0  0  0  0
   -2.7375    3.3171   -5.4760 H   0  0  0  0  0  0  0  0  0  0  0  0
   -4.3861    1.5368   -4.8955 H   0  0  0  0  0  0  0  0  0  0  0  0
   -0.2145    3.0284   -6.5572 N   0  0  0  0  0  0  0  0  0  0  0  0
    0.8103    3.3363   -6.8900 N   0  0  0  0  0  0  0  0  0  0  0  0
    2.7087    1.1932   -5.9399 S   0  0  0  0  0  0  0  0  0  0  0  0
    2.8797   -0.6622   -5.9923 C   0  0  0  0  0  0  0  0  0  0  0  0
    2.0211    1.4494   -7.2712 O   0  0  0  0  0  0  0  0  0  0  0  0
    4.0826    1.6911   -5.8473 O   0  0  0  0  0  0  0  0  0  0  0  0
    1.7956    1.4502   -4.8059 O   0  0  0  0  0  0  0  0  0  0  0  0
    1.6669   -1.2457   -6.1622 F   0  0  0  0  0  0  0  0  0  0  0  0
    3.6656   -1.0460   -7.0029 F   0  0  0  0  0  0  0  0  0  0  0  0
    3.3955   -1.1180   -4.8459 F   0  0  0  0  0  0  0  0  0  0  0  0
   -3.9006   -1.1280   -5.2707 O   0  0  0  0  0  0  0  0  0  0  0  0
   -5.1781   -0.8809   -4.6844 C   0  0  0  0  0  0  0  0  0  0  0  0
   -5.6320   -1.8617   -4.5438 H   0  0  0  0  0  0  0  0  0  0  0  0
   -5.8104   -0.2785   -5.3478 H   0  0  0  0  0  0  0  0  0  0  0  0
   -5.0798   -0.3830   -3.7125 H   0  0  0  0  0  0  0  0  0  0  0  0
  1  6  2  0  0  0  0
  2  3  2  0  0  0  0
  2  1  1  0  0  0  0
  3  4  1  0  0  0  0
  4  9  1  0  0  0  0
  4  5  2  0  0  0  0
  5 10  1  0  0  0  0
  6  5  1  0  0  0  0
  6 21  1  0  0  0  0
  7  1  1  0  0  0  0
  8  2  1  0  0  0  0
 11  3  1  0  0  0  0
 12 11  2  0  0  0  0
 13 16  2  0  0  0  0
 13 17  1  0  0  0  0
 14 13  1  0  0  0  0
 14 20  1  0  0  0  0
 15 13  2  0  0  0  0
 18 14  1  0  0  0  0
 19 14  1  0  0  0  0
 21 22  1  0  0  0  0
 22 23  1  0  0  0  0
 22 25  1  0  0  0  0
 24 22  1  0  0  0  0
M  RAD  2  12   2  17   2
M  END
