Coordinates from ORCA-job p-CH3O-Ph-N2-OTf-B3LYP-6-31G_dp-scan-d09-49-n400
 OpenBabel02121707583D

 25 24  0  0  0  0  0  0  0  0999 V2000
   -2.1769    0.1362   -7.3246 C   0  0  0  0  0  0  0  0  0  0  0  0
   -0.8543    0.5577   -7.3400 C   0  0  0  0  0  0  0  0  0  0  0  0
   -0.2393    0.8999   -6.1347 C   0  0  0  0  0  0  0  0  0  0  0  0
   -0.9259    0.8397   -4.9295 C   0  0  0  0  0  0  0  0  0  0  0  0
   -2.2598    0.4240   -4.9142 C   0  0  0  0  0  0  0  0  0  0  0  0
   -2.8891    0.0660   -6.1146 C   0  0  0  0  0  0  0  0  0  0  0  0
   -2.6854   -0.1429   -8.2412 H   0  0  0  0  0  0  0  0  0  0  0  0
   -0.2992    0.6181   -8.2691 H   0  0  0  0  0  0  0  0  0  0  0  0
   -0.4229    1.1224   -4.0110 H   0  0  0  0  0  0  0  0  0  0  0  0
   -2.7895    0.3852   -3.9698 H   0  0  0  0  0  0  0  0  0  0  0  0
   -1.4890    4.3388   -6.5885 N   0  0  0  0  0  0  0  0  0  0  0  0
   -2.5906    4.4251   -6.5602 N   0  0  0  0  0  0  0  0  0  0  0  0
    2.3618    0.4281   -6.3818 S   0  0  0  0  0  0  0  0  0  0  0  0
    2.6519   -0.1826   -4.6366 C   0  0  0  0  0  0  0  0  0  0  0  0
    1.9837   -0.7240   -7.1841 O   0  0  0  0  0  0  0  0  0  0  0  0
    3.4660    1.3063   -6.7149 O   0  0  0  0  0  0  0  0  0  0  0  0
    1.0759    1.4177   -6.1247 O   0  0  0  0  0  0  0  0  0  0  0  0
    1.6377   -0.9634   -4.2581 F   0  0  0  0  0  0  0  0  0  0  0  0
    3.7854   -0.8804   -4.6173 F   0  0  0  0  0  0  0  0  0  0  0  0
    2.7458    0.8548   -3.8063 F   0  0  0  0  0  0  0  0  0  0  0  0
   -4.1788   -0.3560   -6.2165 O   0  0  0  0  0  0  0  0  0  0  0  0
   -4.9543   -0.4554   -5.0305 C   0  0  0  0  0  0  0  0  0  0  0  0
   -5.9369   -0.8111   -5.3433 H   0  0  0  0  0  0  0  0  0  0  0  0
   -5.0631    0.5184   -4.5363 H   0  0  0  0  0  0  0  0  0  0  0  0
   -4.5189   -1.1727   -4.3224 H   0  0  0  0  0  0  0  0  0  0  0  0
  1  6  1  0  0  0  0
  2  1  2  0  0  0  0
  2  3  1  0  0  0  0
  3 17  1  0  0  0  0
  3  4  2  0  0  0  0
  4  5  1  0  0  0  0
  4  9  1  0  0  0  0
  5 10  1  0  0  0  0
  6  5  2  0  0  0  0
  7  1  1  0  0  0  0
  8  2  1  0  0  0  0
 11 12  3  0  0  0  0
 13 17  1  0  0  0  0
 13 14  1  0  0  0  0
 14 19  1  0  0  0  0
 14 18  1  0  0  0  0
 14 20  1  0  0  0  0
 15 13  2  0  0  0  0
 16 13  2  0  0  0  0
 21  6  1  0  0  0  0
 21 22  1  0  0  0  0
 22 24  1  0  0  0  0
 22 25  1  0  0  0  0
 23 22  1  0  0  0  0
M  END
