Coordinates from ORCA-job p-CH3O-Ph-N2-OTf-B3LYP-6-31G_dp-scan-d09-49-n400
 OpenBabel02121707583D

 25 23  0  0  0  0  0  0  0  0999 V2000
   -2.1079   -0.4638   -6.2429 C   0  0  0  0  0  0  0  0  0  0  0  0
   -1.0099    0.4056   -6.3293 C   0  0  0  0  0  0  0  0  0  0  0  0
   -1.3380    1.6114   -5.8240 C   0  0  0  0  0  0  0  0  0  0  0  0
   -2.4354    2.1695   -5.2489 C   0  0  0  0  0  0  0  0  0  0  0  0
   -3.4988    1.2502   -5.1816 C   0  0  0  0  0  0  0  0  0  0  0  0
   -3.3344   -0.0578   -5.6768 C   0  0  0  0  0  0  0  0  0  0  0  0
   -2.0080   -1.4792   -6.6119 H   0  0  0  0  0  0  0  0  0  0  0  0
   -0.0231    0.1106   -6.7490 H   0  0  0  0  0  0  0  0  0  0  0  0
   -2.5087    3.1837   -4.8814 H   0  0  0  0  0  0  0  0  0  0  0  0
   -4.4313    1.5814   -4.7422 H   0  0  0  0  0  0  0  0  0  0  0  0
    0.1066    2.9777   -5.9551 N   0  0  0  0  0  0  0  0  0  0  0  0
    0.5912    3.9615   -6.0975 N   0  0  0  0  0  0  0  0  0  0  0  0
    2.4758    0.7136   -6.4685 S   0  0  0  0  0  0  0  0  0  0  0  0
    3.7392   -0.4074   -5.6920 C   0  0  0  0  0  0  0  0  0  0  0  0
    1.6314   -0.2257   -7.2734 O   0  0  0  0  0  0  0  0  0  0  0  0
    3.2412    1.6985   -7.2440 O   0  0  0  0  0  0  0  0  0  0  0  0
    1.7360    1.2586   -5.2887 O   0  0  0  0  0  0  0  0  0  0  0  0
    3.1362   -1.3579   -4.9613 F   0  0  0  0  0  0  0  0  0  0  0  0
    4.4787   -1.0021   -6.6371 F   0  0  0  0  0  0  0  0  0  0  0  0
    4.5513    0.2940   -4.8897 F   0  0  0  0  0  0  0  0  0  0  0  0
   -4.2983   -1.0035   -5.6549 O   0  0  0  0  0  0  0  0  0  0  0  0
   -5.5664   -0.6867   -5.0854 C   0  0  0  0  0  0  0  0  0  0  0  0
   -6.1655   -1.5933   -5.1756 H   0  0  0  0  0  0  0  0  0  0  0  0
   -6.0564    0.1284   -5.6320 H   0  0  0  0  0  0  0  0  0  0  0  0
   -5.4714   -0.4173   -4.0266 H   0  0  0  0  0  0  0  0  0  0  0  0
  1  6  1  0  0  0  0
  2  1  2  0  0  0  0
  2  3  1  0  0  0  0
  3  4  2  0  0  0  0
  4  5  1  0  0  0  0
  4  9  1  0  0  0  0
  5 10  1  0  0  0  0
  6 21  1  0  0  0  0
  6  5  2  0  0  0  0
  7  1  1  0  0  0  0
  8  2  1  0  0  0  0
 12 11  3  0  0  0  0
 13 14  1  0  0  0  0
 13 17  1  0  0  0  0
 14 18  1  0  0  0  0
 14 20  1  0  0  0  0
 15 13  2  0  0  0  0
 16 13  2  0  0  0  0
 19 14  1  0  0  0  0
 21 22  1  0  0  0  0
 22 25  1  0  0  0  0
 23 22  1  0  0  0  0
 24 22  1  0  0  0  0
M  RAD  2   3   2  17   2
M  END
