Coordinates from ORCA-job p-CH3O-Ph-N2-OTf-B3LYP-6-31G_dp-scan-d09-49-n400
 OpenBabel02121707583D

 25 24  0  0  0  0  0  0  0  0999 V2000
   -2.1120    0.1143   -7.3300 C   0  0  0  0  0  0  0  0  0  0  0  0
   -0.7799    0.5048   -7.3455 C   0  0  0  0  0  0  0  0  0  0  0  0
   -0.1618    0.8480   -6.1422 C   0  0  0  0  0  0  0  0  0  0  0  0
   -0.8536    0.8186   -4.9389 C   0  0  0  0  0  0  0  0  0  0  0  0
   -2.1967    0.4337   -4.9236 C   0  0  0  0  0  0  0  0  0  0  0  0
   -2.8297    0.0755   -6.1221 C   0  0  0  0  0  0  0  0  0  0  0  0
   -2.6235   -0.1641   -8.2451 H   0  0  0  0  0  0  0  0  0  0  0  0
   -0.2200    0.5406   -8.2731 H   0  0  0  0  0  0  0  0  0  0  0  0
   -0.3474    1.1010   -4.0221 H   0  0  0  0  0  0  0  0  0  0  0  0
   -2.7309    0.4188   -3.9810 H   0  0  0  0  0  0  0  0  0  0  0  0
   -2.1617    4.9152   -6.6369 N   0  0  0  0  0  0  0  0  0  0  0  0
   -3.2197    4.6088   -6.5447 N   0  0  0  0  0  0  0  0  0  0  0  0
    2.4297    0.3142   -6.3657 S   0  0  0  0  0  0  0  0  0  0  0  0
    2.6813   -0.2917   -4.6126 C   0  0  0  0  0  0  0  0  0  0  0  0
    2.0353   -0.8338   -7.1658 O   0  0  0  0  0  0  0  0  0  0  0  0
    3.5589    1.1639   -6.6891 O   0  0  0  0  0  0  0  0  0  0  0  0
    1.1649    1.3367   -6.1341 O   0  0  0  0  0  0  0  0  0  0  0  0
    1.6528   -1.0605   -4.2493 F   0  0  0  0  0  0  0  0  0  0  0  0
    3.8073   -1.0003   -4.5695 F   0  0  0  0  0  0  0  0  0  0  0  0
    2.7704    0.7487   -3.7850 F   0  0  0  0  0  0  0  0  0  0  0  0
   -4.1284   -0.3183   -6.2237 O   0  0  0  0  0  0  0  0  0  0  0  0
   -4.9099   -0.3872   -5.0395 C   0  0  0  0  0  0  0  0  0  0  0  0
   -5.8984   -0.7270   -5.3516 H   0  0  0  0  0  0  0  0  0  0  0  0
   -5.0008    0.5948   -4.5579 H   0  0  0  0  0  0  0  0  0  0  0  0
   -4.4918   -1.1043   -4.3209 H   0  0  0  0  0  0  0  0  0  0  0  0
  1  6  1  0  0  0  0
  2  1  2  0  0  0  0
  2  3  1  0  0  0  0
  3 17  1  0  0  0  0
  3  4  2  0  0  0  0
  4  5  1  0  0  0  0
  4  9  1  0  0  0  0
  5 10  1  0  0  0  0
  6  5  2  0  0  0  0
  7  1  1  0  0  0  0
  8  2  1  0  0  0  0
 11 12  3  0  0  0  0
 13 17  1  0  0  0  0
 13 14  1  0  0  0  0
 14 19  1  0  0  0  0
 14 18  1  0  0  0  0
 14 20  1  0  0  0  0
 15 13  2  0  0  0  0
 16 13  2  0  0  0  0
 21  6  1  0  0  0  0
 21 22  1  0  0  0  0
 22 24  1  0  0  0  0
 22 25  1  0  0  0  0
 23 22  1  0  0  0  0
M  END
