Coordinates from ORCA-job p-CH3O-Ph-N2-OTf-B3LYP-6-31G_dp-scan-d09-49-n400
 OpenBabel02121707583D

 25 24  0  0  0  0  0  0  0  0999 V2000
   -2.1215    0.1180   -7.3288 C   0  0  0  0  0  0  0  0  0  0  0  0
   -0.7909    0.5134   -7.3439 C   0  0  0  0  0  0  0  0  0  0  0  0
   -0.1734    0.8551   -6.1399 C   0  0  0  0  0  0  0  0  0  0  0  0
   -0.8640    0.8189   -4.9362 C   0  0  0  0  0  0  0  0  0  0  0  0
   -2.2058    0.4294   -4.9212 C   0  0  0  0  0  0  0  0  0  0  0  0
   -2.8384    0.0732   -6.1205 C   0  0  0  0  0  0  0  0  0  0  0  0
   -2.6328   -0.1590   -8.2444 H   0  0  0  0  0  0  0  0  0  0  0  0
   -0.2317    0.5539   -8.2717 H   0  0  0  0  0  0  0  0  0  0  0  0
   -0.3581    1.0997   -4.0187 H   0  0  0  0  0  0  0  0  0  0  0  0
   -2.7393    0.4096   -3.9784 H   0  0  0  0  0  0  0  0  0  0  0  0
   -2.0610    4.8309   -6.6340 N   0  0  0  0  0  0  0  0  0  0  0  0
   -3.1357    4.5858   -6.5517 N   0  0  0  0  0  0  0  0  0  0  0  0
    2.4200    0.3311   -6.3677 S   0  0  0  0  0  0  0  0  0  0  0  0
    2.6791   -0.2757   -4.6161 C   0  0  0  0  0  0  0  0  0  0  0  0
    2.0279   -0.8177   -7.1680 O   0  0  0  0  0  0  0  0  0  0  0  0
    3.5449    1.1856   -6.6934 O   0  0  0  0  0  0  0  0  0  0  0  0
    1.1518    1.3480   -6.1311 O   0  0  0  0  0  0  0  0  0  0  0  0
    1.6530   -1.0463   -4.2496 F   0  0  0  0  0  0  0  0  0  0  0  0
    3.8062   -0.9829   -4.5777 F   0  0  0  0  0  0  0  0  0  0  0  0
    2.7699    0.7641   -3.7881 F   0  0  0  0  0  0  0  0  0  0  0  0
   -4.1360   -0.3239   -6.2227 O   0  0  0  0  0  0  0  0  0  0  0  0
   -4.9173   -0.3960   -5.0385 C   0  0  0  0  0  0  0  0  0  0  0  0
   -5.9058   -0.7353   -5.3513 H   0  0  0  0  0  0  0  0  0  0  0  0
   -5.0083    0.5849   -4.5546 H   0  0  0  0  0  0  0  0  0  0  0  0
   -4.4989   -1.1146   -4.3216 H   0  0  0  0  0  0  0  0  0  0  0  0
  1  6  1  0  0  0  0
  2  1  2  0  0  0  0
  2  3  1  0  0  0  0
  3 17  1  0  0  0  0
  3  4  2  0  0  0  0
  4  5  1  0  0  0  0
  4  9  1  0  0  0  0
  5 10  1  0  0  0  0
  6  5  2  0  0  0  0
  7  1  1  0  0  0  0
  8  2  1  0  0  0  0
 11 12  3  0  0  0  0
 13 17  1  0  0  0  0
 13 14  1  0  0  0  0
 14 19  1  0  0  0  0
 14 18  1  0  0  0  0
 14 20  1  0  0  0  0
 15 13  2  0  0  0  0
 16 13  2  0  0  0  0
 21  6  1  0  0  0  0
 21 22  1  0  0  0  0
 22 24  1  0  0  0  0
 22 25  1  0  0  0  0
 23 22  1  0  0  0  0
M  END
