Coordinates from ORCA-job p-CH3O-Ph-N2-OTf-B3LYP-6-31G_dp-scan-d09-49-n400
 OpenBabel02121707583D

 25 24  0  0  0  0  0  0  0  0999 V2000
   -2.2127    0.1975   -7.3284 C   0  0  0  0  0  0  0  0  0  0  0  0
   -0.9096    0.6702   -7.3604 C   0  0  0  0  0  0  0  0  0  0  0  0
   -0.3123    1.0948   -6.1707 C   0  0  0  0  0  0  0  0  0  0  0  0
   -0.9602    0.9485   -4.9497 C   0  0  0  0  0  0  0  0  0  0  0  0
   -2.2753    0.4826   -4.9163 C   0  0  0  0  0  0  0  0  0  0  0  0
   -2.9111    0.1123   -6.1104 C   0  0  0  0  0  0  0  0  0  0  0  0
   -2.7156   -0.1187   -8.2358 H   0  0  0  0  0  0  0  0  0  0  0  0
   -0.3648    0.7402   -8.2947 H   0  0  0  0  0  0  0  0  0  0  0  0
   -0.4523    1.2397   -4.0367 H   0  0  0  0  0  0  0  0  0  0  0  0
   -2.7841    0.4055   -3.9629 H   0  0  0  0  0  0  0  0  0  0  0  0
   -0.9110    3.3323   -6.4554 N   0  0  0  0  0  0  0  0  0  0  0  0
   -1.9423    3.7364   -6.4996 N   0  0  0  0  0  0  0  0  0  0  0  0
    2.2792    0.5713   -6.4035 S   0  0  0  0  0  0  0  0  0  0  0  0
    2.5015   -0.0950   -4.6667 C   0  0  0  0  0  0  0  0  0  0  0  0
    1.9095   -0.5518   -7.2494 O   0  0  0  0  0  0  0  0  0  0  0  0
    3.4124    1.4338   -6.6739 O   0  0  0  0  0  0  0  0  0  0  0  0
    1.0121    1.5876   -6.1707 O   0  0  0  0  0  0  0  0  0  0  0  0
    1.5116   -0.9386   -4.3729 F   0  0  0  0  0  0  0  0  0  0  0  0
    3.6668   -0.7354   -4.6116 F   0  0  0  0  0  0  0  0  0  0  0  0
    2.4987    0.9129   -3.7937 F   0  0  0  0  0  0  0  0  0  0  0  0
   -4.1863   -0.3507   -6.1966 O   0  0  0  0  0  0  0  0  0  0  0  0
   -4.9447   -0.4762   -5.0013 C   0  0  0  0  0  0  0  0  0  0  0  0
   -5.9218   -0.8544   -5.3046 H   0  0  0  0  0  0  0  0  0  0  0  0
   -5.0708    0.4921   -4.5007 H   0  0  0  0  0  0  0  0  0  0  0  0
   -4.4826   -1.1865   -4.3034 H   0  0  0  0  0  0  0  0  0  0  0  0
  1  6  1  0  0  0  0
  2  1  2  0  0  0  0
  2  3  1  0  0  0  0
  3  4  2  0  0  0  0
  4  5  1  0  0  0  0
  4  9  1  0  0  0  0
  5 10  1  0  0  0  0
  6  5  2  0  0  0  0
  7  1  1  0  0  0  0
  8  2  1  0  0  0  0
 12 11  3  0  0  0  0
 13 17  1  0  0  0  0
 13 14  1  0  0  0  0
 14 19  1  0  0  0  0
 14 18  1  0  0  0  0
 14 20  1  0  0  0  0
 15 13  2  0  0  0  0
 16 13  2  0  0  0  0
 17  3  1  0  0  0  0
 21  6  1  0  0  0  0
 21 22  1  0  0  0  0
 22 24  1  0  0  0  0
 22 25  1  0  0  0  0
 23 22  1  0  0  0  0
M  END
