Coordinates from ORCA-job p-CH3O-Ph-N2-OTf-B3LYP-6-31G_dp-scan-d09-49-n400
 OpenBabel02121707583D

 25 24  0  0  0  0  0  0  0  0999 V2000
   -2.1792    0.1368   -7.3246 C   0  0  0  0  0  0  0  0  0  0  0  0
   -0.8568    0.5591   -7.3399 C   0  0  0  0  0  0  0  0  0  0  0  0
   -0.2419    0.9015   -6.1346 C   0  0  0  0  0  0  0  0  0  0  0  0
   -0.9285    0.8404   -4.9293 C   0  0  0  0  0  0  0  0  0  0  0  0
   -2.2621    0.4239   -4.9141 C   0  0  0  0  0  0  0  0  0  0  0  0
   -2.8912    0.0659   -6.1147 C   0  0  0  0  0  0  0  0  0  0  0  0
   -2.6874   -0.1424   -8.2412 H   0  0  0  0  0  0  0  0  0  0  0  0
   -0.3017    0.6201   -8.2691 H   0  0  0  0  0  0  0  0  0  0  0  0
   -0.4256    1.1232   -4.0108 H   0  0  0  0  0  0  0  0  0  0  0  0
   -2.7918    0.3845   -3.9697 H   0  0  0  0  0  0  0  0  0  0  0  0
   -1.4673    4.3174   -6.5848 N   0  0  0  0  0  0  0  0  0  0  0  0
   -2.5679    4.4154   -6.5584 N   0  0  0  0  0  0  0  0  0  0  0  0
    2.3594    0.4319   -6.3824 S   0  0  0  0  0  0  0  0  0  0  0  0
    2.6514   -0.1782   -4.6374 C   0  0  0  0  0  0  0  0  0  0  0  0
    1.9818   -0.7207   -7.1843 O   0  0  0  0  0  0  0  0  0  0  0  0
    3.4626    1.3110   -6.7166 O   0  0  0  0  0  0  0  0  0  0  0  0
    1.0728    1.4203   -6.1244 O   0  0  0  0  0  0  0  0  0  0  0  0
    1.6377   -0.9589   -4.2575 F   0  0  0  0  0  0  0  0  0  0  0  0
    3.7850   -0.8759   -4.6190 F   0  0  0  0  0  0  0  0  0  0  0  0
    2.7462    0.8595   -3.8075 F   0  0  0  0  0  0  0  0  0  0  0  0
   -4.1808   -0.3568   -6.2166 O   0  0  0  0  0  0  0  0  0  0  0  0
   -4.9561   -0.4570   -5.0306 C   0  0  0  0  0  0  0  0  0  0  0  0
   -5.9386   -0.8132   -5.3435 H   0  0  0  0  0  0  0  0  0  0  0  0
   -5.0654    0.5166   -4.5361 H   0  0  0  0  0  0  0  0  0  0  0  0
   -4.5203   -1.1742   -4.3227 H   0  0  0  0  0  0  0  0  0  0  0  0
  1  6  1  0  0  0  0
  2  1  2  0  0  0  0
  2  3  1  0  0  0  0
  3 17  1  0  0  0  0
  3  4  2  0  0  0  0
  4  5  1  0  0  0  0
  4  9  1  0  0  0  0
  5 10  1  0  0  0  0
  6  5  2  0  0  0  0
  7  1  1  0  0  0  0
  8  2  1  0  0  0  0
 11 12  3  0  0  0  0
 13 17  1  0  0  0  0
 13 14  1  0  0  0  0
 14 19  1  0  0  0  0
 14 18  1  0  0  0  0
 14 20  1  0  0  0  0
 15 13  2  0  0  0  0
 16 13  2  0  0  0  0
 21  6  1  0  0  0  0
 21 22  1  0  0  0  0
 22 24  1  0  0  0  0
 22 25  1  0  0  0  0
 23 22  1  0  0  0  0
M  END
