Coordinates from ORCA-job p-CH3O-Ph-N2-OTf-B3LYP-6-31G_dp-scan-d09-49-n400
 OpenBabel02121707583D

 25 24  0  0  0  0  0  0  0  0999 V2000
   -2.1820    0.1376   -7.3246 C   0  0  0  0  0  0  0  0  0  0  0  0
   -0.8600    0.5610   -7.3399 C   0  0  0  0  0  0  0  0  0  0  0  0
   -0.2453    0.9036   -6.1345 C   0  0  0  0  0  0  0  0  0  0  0  0
   -0.9318    0.8415   -4.9292 C   0  0  0  0  0  0  0  0  0  0  0  0
   -2.2650    0.4239   -4.9140 C   0  0  0  0  0  0  0  0  0  0  0  0
   -2.8940    0.0658   -6.1147 C   0  0  0  0  0  0  0  0  0  0  0  0
   -2.6901   -0.1416   -8.2413 H   0  0  0  0  0  0  0  0  0  0  0  0
   -0.3050    0.6228   -8.2690 H   0  0  0  0  0  0  0  0  0  0  0  0
   -0.4290    1.1243   -4.0106 H   0  0  0  0  0  0  0  0  0  0  0  0
   -2.7946    0.3838   -3.9696 H   0  0  0  0  0  0  0  0  0  0  0  0
   -1.4394    4.2884   -6.5799 N   0  0  0  0  0  0  0  0  0  0  0  0
   -2.5387    4.4015   -6.5560 N   0  0  0  0  0  0  0  0  0  0  0  0
    2.3565    0.4369   -6.3833 S   0  0  0  0  0  0  0  0  0  0  0  0
    2.6506   -0.1726   -4.6385 C   0  0  0  0  0  0  0  0  0  0  0  0
    1.9796   -0.7161   -7.1847 O   0  0  0  0  0  0  0  0  0  0  0  0
    3.4583    1.3174   -6.7184 O   0  0  0  0  0  0  0  0  0  0  0  0
    1.0688    1.4238   -6.1243 O   0  0  0  0  0  0  0  0  0  0  0  0
    1.6375   -0.9535   -4.2573 F   0  0  0  0  0  0  0  0  0  0  0  0
    3.7844   -0.8699   -4.6211 F   0  0  0  0  0  0  0  0  0  0  0  0
    2.7460    0.8654   -3.8090 F   0  0  0  0  0  0  0  0  0  0  0  0
   -4.1832   -0.3577   -6.2167 O   0  0  0  0  0  0  0  0  0  0  0  0
   -4.9584   -0.4589   -5.0307 C   0  0  0  0  0  0  0  0  0  0  0  0
   -5.9406   -0.8156   -5.3436 H   0  0  0  0  0  0  0  0  0  0  0  0
   -5.0684    0.5145   -4.5358 H   0  0  0  0  0  0  0  0  0  0  0  0
   -4.5220   -1.1761   -4.3231 H   0  0  0  0  0  0  0  0  0  0  0  0
  1  6  1  0  0  0  0
  2  1  2  0  0  0  0
  2  3  1  0  0  0  0
  3 17  1  0  0  0  0
  3  4  2  0  0  0  0
  4  5  1  0  0  0  0
  4  9  1  0  0  0  0
  5 10  1  0  0  0  0
  6  5  2  0  0  0  0
  7  1  1  0  0  0  0
  8  2  1  0  0  0  0
 11 12  3  0  0  0  0
 13 17  1  0  0  0  0
 13 14  1  0  0  0  0
 14 19  1  0  0  0  0
 14 18  1  0  0  0  0
 14 20  1  0  0  0  0
 15 13  2  0  0  0  0
 16 13  2  0  0  0  0
 21  6  1  0  0  0  0
 21 22  1  0  0  0  0
 22 24  1  0  0  0  0
 22 25  1  0  0  0  0
 23 22  1  0  0  0  0
M  END
