Coordinates from ORCA-job p-CH3O-Ph-N2-OTf-B3LYP-6-31G_dp-scan-d09-49-n400
 OpenBabel02121707583D

 25 24  0  0  0  0  0  0  0  0999 V2000
   -2.1433    0.1271   -7.3268 C   0  0  0  0  0  0  0  0  0  0  0  0
   -0.8154    0.5317   -7.3419 C   0  0  0  0  0  0  0  0  0  0  0  0
   -0.1977    0.8704   -6.1371 C   0  0  0  0  0  0  0  0  0  0  0  0
   -0.8867    0.8240   -4.9326 C   0  0  0  0  0  0  0  0  0  0  0  0
   -2.2257    0.4251   -4.9176 C   0  0  0  0  0  0  0  0  0  0  0  0
   -2.8578    0.0704   -6.1176 C   0  0  0  0  0  0  0  0  0  0  0  0
   -2.6541   -0.1486   -8.2431 H   0  0  0  0  0  0  0  0  0  0  0  0
   -0.2583    0.5816   -8.2705 H   0  0  0  0  0  0  0  0  0  0  0  0
   -0.3814    1.1040   -4.0146 H   0  0  0  0  0  0  0  0  0  0  0  0
   -2.7573    0.3967   -3.9739 H   0  0  0  0  0  0  0  0  0  0  0  0
   -1.8419    4.6581   -6.6273 N   0  0  0  0  0  0  0  0  0  0  0  0
   -2.9397    4.5450   -6.5654 N   0  0  0  0  0  0  0  0  0  0  0  0
    2.3986    0.3659   -6.3722 S   0  0  0  0  0  0  0  0  0  0  0  0
    2.6694   -0.2422   -4.6229 C   0  0  0  0  0  0  0  0  0  0  0  0
    2.0115   -0.7841   -7.1731 O   0  0  0  0  0  0  0  0  0  0  0  0
    3.5158    1.2292   -6.7009 O   0  0  0  0  0  0  0  0  0  0  0  0
    1.1236    1.3728   -6.1278 O   0  0  0  0  0  0  0  0  0  0  0  0
    1.6484   -1.0175   -4.2520 F   0  0  0  0  0  0  0  0  0  0  0  0
    3.7996   -0.9449   -4.5915 F   0  0  0  0  0  0  0  0  0  0  0  0
    2.7604    0.7968   -3.7940 F   0  0  0  0  0  0  0  0  0  0  0  0
   -4.1526   -0.3358   -6.2196 O   0  0  0  0  0  0  0  0  0  0  0  0
   -4.9306   -0.4218   -5.0342 C   0  0  0  0  0  0  0  0  0  0  0  0
   -5.9169   -0.7675   -5.3469 H   0  0  0  0  0  0  0  0  0  0  0  0
   -5.0289    0.5552   -4.5440 H   0  0  0  0  0  0  0  0  0  0  0  0
   -4.5044   -1.1412   -4.3227 H   0  0  0  0  0  0  0  0  0  0  0  0
  1  6  1  0  0  0  0
  2  1  2  0  0  0  0
  2  3  1  0  0  0  0
  3 17  1  0  0  0  0
  3  4  2  0  0  0  0
  4  5  1  0  0  0  0
  4  9  1  0  0  0  0
  5 10  1  0  0  0  0
  6  5  2  0  0  0  0
  7  1  1  0  0  0  0
  8  2  1  0  0  0  0
 11 12  3  0  0  0  0
 13 17  1  0  0  0  0
 13 14  1  0  0  0  0
 14 19  1  0  0  0  0
 14 18  1  0  0  0  0
 14 20  1  0  0  0  0
 15 13  2  0  0  0  0
 16 13  2  0  0  0  0
 21  6  1  0  0  0  0
 21 22  1  0  0  0  0
 22 24  1  0  0  0  0
 22 25  1  0  0  0  0
 23 22  1  0  0  0  0
M  END
