Coordinates from ORCA-job p-CH3O-Ph-N2-OTf-B3LYP-6-31G_dp-scan-d09-49-n400
 OpenBabel02121707583D

 25 24  0  0  0  0  0  0  0  0999 V2000
   -1.6697   -0.3064   -6.3285 C   0  0  0  0  0  0  0  0  0  0  0  0
   -0.8223    0.6967   -6.7197 C   0  0  0  0  0  0  0  0  0  0  0  0
   -1.1629    2.0897   -6.4567 C   0  0  0  0  0  0  0  0  0  0  0  0
   -2.3932    2.3511   -5.7361 C   0  0  0  0  0  0  0  0  0  0  0  0
   -3.2093    1.3318   -5.3329 C   0  0  0  0  0  0  0  0  0  0  0  0
   -2.8537   -0.0165   -5.6225 C   0  0  0  0  0  0  0  0  0  0  0  0
   -1.4125   -1.3421   -6.5185 H   0  0  0  0  0  0  0  0  0  0  0  0
    0.1021    0.5200   -7.2598 H   0  0  0  0  0  0  0  0  0  0  0  0
   -2.6394    3.3861   -5.5185 H   0  0  0  0  0  0  0  0  0  0  0  0
   -4.1184    1.5635   -4.7931 H   0  0  0  0  0  0  0  0  0  0  0  0
   -0.5064    2.8849   -6.7441 N   0  0  0  0  0  0  0  0  0  0  0  0
    0.2012    3.7244   -7.0502 N   0  0  0  0  0  0  0  0  0  0  0  0
    2.3158    1.0140   -5.7806 S   0  0  0  0  0  0  0  0  0  0  0  0
    2.6141   -0.8193   -5.8824 C   0  0  0  0  0  0  0  0  0  0  0  0
    2.0520    1.3757   -7.2037 O   0  0  0  0  0  0  0  0  0  0  0  0
    3.5307    1.5629   -5.1714 O   0  0  0  0  0  0  0  0  0  0  0  0
    1.0730    1.0858   -4.9493 O   0  0  0  0  0  0  0  0  0  0  0  0
    1.5402   -1.4337   -6.4472 F   0  0  0  0  0  0  0  0  0  0  0  0
    3.6844   -1.1000   -6.6348 F   0  0  0  0  0  0  0  0  0  0  0  0
    2.7938   -1.3550   -4.6675 F   0  0  0  0  0  0  0  0  0  0  0  0
   -3.5885   -1.0666   -5.2660 O   0  0  0  0  0  0  0  0  0  0  0  0
   -4.7971   -0.8890   -4.5124 C   0  0  0  0  0  0  0  0  0  0  0  0
   -5.1774   -1.8944   -4.3378 H   0  0  0  0  0  0  0  0  0  0  0  0
   -5.5317   -0.3108   -5.0826 H   0  0  0  0  0  0  0  0  0  0  0  0
   -4.5905   -0.4026   -3.5539 H   0  0  0  0  0  0  0  0  0  0  0  0
  1  6  2  0  0  0  0
  2  3  2  0  0  0  0
  2  1  1  0  0  0  0
  3  4  1  0  0  0  0
  4  9  1  0  0  0  0
  4  5  2  0  0  0  0
  5 10  1  0  0  0  0
  6  5  1  0  0  0  0
  6 21  1  0  0  0  0
  7  1  1  0  0  0  0
  8  2  1  0  0  0  0
 11  3  1  0  0  0  0
 12 11  1  0  0  0  0
 13 16  2  0  0  0  0
 13 17  1  0  0  0  0
 14 13  1  0  0  0  0
 14 20  1  0  0  0  0
 15 13  2  0  0  0  0
 18 14  1  0  0  0  0
 19 14  1  0  0  0  0
 21 22  1  0  0  0  0
 22 23  1  0  0  0  0
 22 25  1  0  0  0  0
 24 22  1  0  0  0  0
M  RAD  3  11   2  12   3  17   2
M  END
