Coordinates from ORCA-job p-CH3O-Ph-N2-OTf-B3LYP-6-31G_dp-scan-d09-49-n400
 OpenBabel02121707583D

 25 24  0  0  0  0  0  0  0  0999 V2000
   -2.0920    0.1012   -7.3330 C   0  0  0  0  0  0  0  0  0  0  0  0
   -0.7577    0.4837   -7.3494 C   0  0  0  0  0  0  0  0  0  0  0  0
   -0.1388    0.8305   -6.1476 C   0  0  0  0  0  0  0  0  0  0  0  0
   -0.8318    0.8121   -4.9448 C   0  0  0  0  0  0  0  0  0  0  0  0
   -2.1771    0.4352   -4.9285 C   0  0  0  0  0  0  0  0  0  0  0  0
   -2.8111    0.0738   -6.1255 C   0  0  0  0  0  0  0  0  0  0  0  0
   -2.6044   -0.1796   -8.2469 H   0  0  0  0  0  0  0  0  0  0  0  0
   -0.1966    0.5104   -8.2766 H   0  0  0  0  0  0  0  0  0  0  0  0
   -0.3248    1.0969   -4.0291 H   0  0  0  0  0  0  0  0  0  0  0  0
   -2.7125    0.4292   -3.9865 H   0  0  0  0  0  0  0  0  0  0  0  0
   -2.3791    5.1150   -6.6404 N   0  0  0  0  0  0  0  0  0  0  0  0
   -3.3911    4.6840   -6.5308 N   0  0  0  0  0  0  0  0  0  0  0  0
    2.4493    0.2774   -6.3614 S   0  0  0  0  0  0  0  0  0  0  0  0
    2.6881   -0.3220   -4.6041 C   0  0  0  0  0  0  0  0  0  0  0  0
    2.0502   -0.8715   -7.1579 O   0  0  0  0  0  0  0  0  0  0  0  0
    3.5863    1.1172   -6.6834 O   0  0  0  0  0  0  0  0  0  0  0  0
    1.1911    1.3106   -6.1412 O   0  0  0  0  0  0  0  0  0  0  0  0
    1.6558   -1.0872   -4.2443 F   0  0  0  0  0  0  0  0  0  0  0  0
    3.8124   -1.0326   -4.5508 F   0  0  0  0  0  0  0  0  0  0  0  0
    2.7740    0.7216   -3.7801 F   0  0  0  0  0  0  0  0  0  0  0  0
   -4.1121   -0.3127   -6.2261 O   0  0  0  0  0  0  0  0  0  0  0  0
   -4.8952   -0.3694   -5.0423 C   0  0  0  0  0  0  0  0  0  0  0  0
   -5.8854   -0.7056   -5.3533 H   0  0  0  0  0  0  0  0  0  0  0  0
   -4.9810    0.6163   -4.5674 H   0  0  0  0  0  0  0  0  0  0  0  0
   -4.4821   -1.0841   -4.3185 H   0  0  0  0  0  0  0  0  0  0  0  0
  1  6  1  0  0  0  0
  2  1  2  0  0  0  0
  2  3  1  0  0  0  0
  3 17  1  0  0  0  0
  3  4  2  0  0  0  0
  4  5  1  0  0  0  0
  4  9  1  0  0  0  0
  5 10  1  0  0  0  0
  6  5  2  0  0  0  0
  7  1  1  0  0  0  0
  8  2  1  0  0  0  0
 11 12  3  0  0  0  0
 13 17  1  0  0  0  0
 13 14  1  0  0  0  0
 14 19  1  0  0  0  0
 14 18  1  0  0  0  0
 14 20  1  0  0  0  0
 15 13  2  0  0  0  0
 16 13  2  0  0  0  0
 21  6  1  0  0  0  0
 21 22  1  0  0  0  0
 22 24  1  0  0  0  0
 22 25  1  0  0  0  0
 23 22  1  0  0  0  0
M  END
