Coordinates from ORCA-job p-CH3O-Ph-N2-OTf-B3LYP-6-31G_dp-scan-d09-49-n400
 OpenBabel02121707583D

 25 24  0  0  0  0  0  0  0  0999 V2000
   -1.8576   -0.4668   -6.0455 C   0  0  0  0  0  0  0  0  0  0  0  0
   -0.9112    0.4860   -6.3749 C   0  0  0  0  0  0  0  0  0  0  0  0
   -1.2808    1.8170   -6.1669 C   0  0  0  0  0  0  0  0  0  0  0  0
   -2.5020    2.2460   -5.6642 C   0  0  0  0  0  0  0  0  0  0  0  0
   -3.4352    1.2692   -5.3357 C   0  0  0  0  0  0  0  0  0  0  0  0
   -3.1149   -0.0906   -5.5243 C   0  0  0  0  0  0  0  0  0  0  0  0
   -1.6428   -1.5224   -6.1713 H   0  0  0  0  0  0  0  0  0  0  0  0
    0.0659    0.2354   -6.7671 H   0  0  0  0  0  0  0  0  0  0  0  0
   -2.7147    3.2998   -5.5262 H   0  0  0  0  0  0  0  0  0  0  0  0
   -4.3955    1.5682   -4.9366 H   0  0  0  0  0  0  0  0  0  0  0  0
   -0.2537    2.8826   -6.5200 N   0  0  0  0  0  0  0  0  0  0  0  0
    0.7401    3.2903   -6.8487 N   0  0  0  0  0  0  0  0  0  0  0  0
    2.7178    1.2138   -5.9283 S   0  0  0  0  0  0  0  0  0  0  0  0
    2.9644   -0.6283   -6.0639 C   0  0  0  0  0  0  0  0  0  0  0  0
    2.0573    1.5072   -7.2637 O   0  0  0  0  0  0  0  0  0  0  0  0
    4.0668    1.7601   -5.7658 O   0  0  0  0  0  0  0  0  0  0  0  0
    1.7628    1.3769   -4.8099 O   0  0  0  0  0  0  0  0  0  0  0  0
    1.7784   -1.2508   -6.2794 F   0  0  0  0  0  0  0  0  0  0  0  0
    3.7788   -0.9333   -7.0786 F   0  0  0  0  0  0  0  0  0  0  0  0
    3.4821   -1.1176   -4.9319 F   0  0  0  0  0  0  0  0  0  0  0  0
   -3.9449   -1.1096   -5.2382 O   0  0  0  0  0  0  0  0  0  0  0  0
   -5.2334   -0.8314   -4.6876 C   0  0  0  0  0  0  0  0  0  0  0  0
   -5.7033   -1.8028   -4.5356 H   0  0  0  0  0  0  0  0  0  0  0  0
   -5.8404   -0.2363   -5.3800 H   0  0  0  0  0  0  0  0  0  0  0  0
   -5.1496   -0.3126   -3.7257 H   0  0  0  0  0  0  0  0  0  0  0  0
  1  6  2  0  0  0  0
  2  3  2  0  0  0  0
  2  1  1  0  0  0  0
  3  4  1  0  0  0  0
  4  9  1  0  0  0  0
  4  5  2  0  0  0  0
  5 10  1  0  0  0  0
  6  5  1  0  0  0  0
  6 21  1  0  0  0  0
  7  1  1  0  0  0  0
  8  2  1  0  0  0  0
 11  3  1  0  0  0  0
 12 11  1  0  0  0  0
 13 16  2  0  0  0  0
 13 17  1  0  0  0  0
 14 13  1  0  0  0  0
 14 20  1  0  0  0  0
 15 13  2  0  0  0  0
 18 14  1  0  0  0  0
 19 14  1  0  0  0  0
 21 22  1  0  0  0  0
 22 23  1  0  0  0  0
 22 25  1  0  0  0  0
 24 22  1  0  0  0  0
M  RAD  3  11   2  12   3  17   2
M  END
