Coordinates from ORCA-job p-CH3O-Ph-N2-OTf-B3LYP-6-31G_dp-scan-d09-49-n400
 OpenBabel02121707583D

 25 24  0  0  0  0  0  0  0  0999 V2000
   -2.1732    0.1353   -7.3246 C   0  0  0  0  0  0  0  0  0  0  0  0
   -0.8501    0.5554   -7.3401 C   0  0  0  0  0  0  0  0  0  0  0  0
   -0.2347    0.8974   -6.1349 C   0  0  0  0  0  0  0  0  0  0  0  0
   -0.9215    0.8385   -4.9297 C   0  0  0  0  0  0  0  0  0  0  0  0
   -2.2558    0.4242   -4.9143 C   0  0  0  0  0  0  0  0  0  0  0  0
   -2.8854    0.0663   -6.1146 C   0  0  0  0  0  0  0  0  0  0  0  0
   -2.6818   -0.1435   -8.2411 H   0  0  0  0  0  0  0  0  0  0  0  0
   -0.2948    0.6148   -8.2692 H   0  0  0  0  0  0  0  0  0  0  0  0
   -0.4182    1.1211   -4.0113 H   0  0  0  0  0  0  0  0  0  0  0  0
   -2.7857    0.3865   -3.9699 H   0  0  0  0  0  0  0  0  0  0  0  0
   -1.5263    4.3739   -6.5945 N   0  0  0  0  0  0  0  0  0  0  0  0
   -2.6292    4.4400   -6.5629 N   0  0  0  0  0  0  0  0  0  0  0  0
    2.3658    0.4217   -6.3807 S   0  0  0  0  0  0  0  0  0  0  0  0
    2.6527   -0.1900   -4.6353 C   0  0  0  0  0  0  0  0  0  0  0  0
    1.9868   -0.7295   -7.1838 O   0  0  0  0  0  0  0  0  0  0  0  0
    3.4718    1.2982   -6.7122 O   0  0  0  0  0  0  0  0  0  0  0  0
    1.0812    1.4134   -6.1250 O   0  0  0  0  0  0  0  0  0  0  0  0
    1.6379   -0.9708   -4.2589 F   0  0  0  0  0  0  0  0  0  0  0  0
    3.7861   -0.8879   -4.6144 F   0  0  0  0  0  0  0  0  0  0  0  0
    2.7455    0.8470   -3.8042 F   0  0  0  0  0  0  0  0  0  0  0  0
   -4.1756   -0.3543   -6.2164 O   0  0  0  0  0  0  0  0  0  0  0  0
   -4.9512   -0.4524   -5.0304 C   0  0  0  0  0  0  0  0  0  0  0  0
   -5.9343   -0.8072   -5.3431 H   0  0  0  0  0  0  0  0  0  0  0  0
   -5.0591    0.5219   -4.5367 H   0  0  0  0  0  0  0  0  0  0  0  0
   -4.5167   -1.1697   -4.3219 H   0  0  0  0  0  0  0  0  0  0  0  0
  1  6  1  0  0  0  0
  2  1  2  0  0  0  0
  2  3  1  0  0  0  0
  3 17  1  0  0  0  0
  3  4  2  0  0  0  0
  4  5  1  0  0  0  0
  4  9  1  0  0  0  0
  5 10  1  0  0  0  0
  6  5  2  0  0  0  0
  7  1  1  0  0  0  0
  8  2  1  0  0  0  0
 11 12  3  0  0  0  0
 13 17  1  0  0  0  0
 13 14  1  0  0  0  0
 14 19  1  0  0  0  0
 14 18  1  0  0  0  0
 14 20  1  0  0  0  0
 15 13  2  0  0  0  0
 16 13  2  0  0  0  0
 21  6  1  0  0  0  0
 21 22  1  0  0  0  0
 22 24  1  0  0  0  0
 22 25  1  0  0  0  0
 23 22  1  0  0  0  0
M  END
