Coordinates from ORCA-job p-CH3O-Ph-N2-OTf-B3LYP-6-31G_dp-scan-d09-49-n400
 OpenBabel02121707583D

 25 24  0  0  0  0  0  0  0  0999 V2000
   -2.2151    0.1595   -7.3252 C   0  0  0  0  0  0  0  0  0  0  0  0
   -0.8994    0.6011   -7.3435 C   0  0  0  0  0  0  0  0  0  0  0  0
   -0.2886    0.9577   -6.1403 C   0  0  0  0  0  0  0  0  0  0  0  0
   -0.9678    0.8754   -4.9322 C   0  0  0  0  0  0  0  0  0  0  0  0
   -2.2951    0.4399   -4.9138 C   0  0  0  0  0  0  0  0  0  0  0  0
   -2.9235    0.0780   -6.1137 C   0  0  0  0  0  0  0  0  0  0  0  0
   -2.7216   -0.1266   -8.2408 H   0  0  0  0  0  0  0  0  0  0  0  0
   -0.3480    0.6717   -8.2740 H   0  0  0  0  0  0  0  0  0  0  0  0
   -0.4658    1.1626   -4.0146 H   0  0  0  0  0  0  0  0  0  0  0  0
   -2.8205    0.3890   -3.9677 H   0  0  0  0  0  0  0  0  0  0  0  0
   -1.0761    3.7825   -6.5048 N   0  0  0  0  0  0  0  0  0  0  0  0
   -2.1358    4.0982   -6.5169 N   0  0  0  0  0  0  0  0  0  0  0  0
    2.3163    0.5184   -6.3962 S   0  0  0  0  0  0  0  0  0  0  0  0
    2.6123   -0.1048   -4.6563 C   0  0  0  0  0  0  0  0  0  0  0  0
    1.9530   -0.6310   -7.2091 O   0  0  0  0  0  0  0  0  0  0  0  0
    3.4107    1.4121   -6.7204 O   0  0  0  0  0  0  0  0  0  0  0  0
    1.0194    1.4911   -6.1321 O   0  0  0  0  0  0  0  0  0  0  0  0
    1.6108   -0.9060   -4.2876 F   0  0  0  0  0  0  0  0  0  0  0  0
    3.7573   -0.7835   -4.6411 F   0  0  0  0  0  0  0  0  0  0  0  0
    2.6871    0.9261   -3.8156 F   0  0  0  0  0  0  0  0  0  0  0  0
   -4.2078   -0.3600   -6.2132 O   0  0  0  0  0  0  0  0  0  0  0  0
   -4.9788   -0.4729   -5.0254 C   0  0  0  0  0  0  0  0  0  0  0  0
   -5.9581   -0.8389   -5.3368 H   0  0  0  0  0  0  0  0  0  0  0  0
   -5.0976    0.4979   -4.5274 H   0  0  0  0  0  0  0  0  0  0  0  0
   -4.5329   -1.1875   -4.3212 H   0  0  0  0  0  0  0  0  0  0  0  0
  1  6  1  0  0  0  0
  2  1  2  0  0  0  0
  2  3  1  0  0  0  0
  3 17  1  0  0  0  0
  3  4  2  0  0  0  0
  4  5  1  0  0  0  0
  4  9  1  0  0  0  0
  5 10  1  0  0  0  0
  6  5  2  0  0  0  0
  7  1  1  0  0  0  0
  8  2  1  0  0  0  0
 12 11  3  0  0  0  0
 13 17  1  0  0  0  0
 13 14  1  0  0  0  0
 14 19  1  0  0  0  0
 14 18  1  0  0  0  0
 14 20  1  0  0  0  0
 15 13  2  0  0  0  0
 16 13  2  0  0  0  0
 21  6  1  0  0  0  0
 21 22  1  0  0  0  0
 22 24  1  0  0  0  0
 22 25  1  0  0  0  0
 23 22  1  0  0  0  0
M  END
