Coordinates from ORCA-job p-CH3O-Ph-N2-OTf-B3LYP-6-31G_dp-scan-d09-49-n400
 OpenBabel02121707583D

 25 24  0  0  0  0  0  0  0  0999 V2000
   -2.1096    0.1130   -7.3305 C   0  0  0  0  0  0  0  0  0  0  0  0
   -0.7774    0.5028   -7.3461 C   0  0  0  0  0  0  0  0  0  0  0  0
   -0.1596    0.8471   -6.1431 C   0  0  0  0  0  0  0  0  0  0  0  0
   -0.8512    0.8184   -4.9397 C   0  0  0  0  0  0  0  0  0  0  0  0
   -2.1944    0.4341   -4.9242 C   0  0  0  0  0  0  0  0  0  0  0  0
   -2.8275    0.0756   -6.1225 C   0  0  0  0  0  0  0  0  0  0  0  0
   -2.6213   -0.1658   -8.2454 H   0  0  0  0  0  0  0  0  0  0  0  0
   -0.2173    0.5371   -8.2736 H   0  0  0  0  0  0  0  0  0  0  0  0
   -0.3447    1.1006   -4.0229 H   0  0  0  0  0  0  0  0  0  0  0  0
   -2.7288    0.4202   -3.9817 H   0  0  0  0  0  0  0  0  0  0  0  0
   -2.1849    4.9356   -6.6367 N   0  0  0  0  0  0  0  0  0  0  0  0
   -3.2386    4.6155   -6.5425 N   0  0  0  0  0  0  0  0  0  0  0  0
    2.4315    0.3101   -6.3652 S   0  0  0  0  0  0  0  0  0  0  0  0
    2.6815   -0.2950   -4.6116 C   0  0  0  0  0  0  0  0  0  0  0  0
    2.0363   -0.8381   -7.1648 O   0  0  0  0  0  0  0  0  0  0  0  0
    3.5618    1.1583   -6.6886 O   0  0  0  0  0  0  0  0  0  0  0  0
    1.1678    1.3341   -6.1351 O   0  0  0  0  0  0  0  0  0  0  0  0
    1.6525   -1.0631   -4.2486 F   0  0  0  0  0  0  0  0  0  0  0  0
    3.8072   -1.0040   -4.5673 F   0  0  0  0  0  0  0  0  0  0  0  0
    2.7705    0.7458   -3.7845 F   0  0  0  0  0  0  0  0  0  0  0  0
   -4.1265   -0.3173   -6.2241 O   0  0  0  0  0  0  0  0  0  0  0  0
   -4.9080   -0.3852   -5.0398 C   0  0  0  0  0  0  0  0  0  0  0  0
   -5.8966   -0.7250   -5.3517 H   0  0  0  0  0  0  0  0  0  0  0  0
   -4.9986    0.5972   -4.5590 H   0  0  0  0  0  0  0  0  0  0  0  0
   -4.4900   -1.1018   -4.3207 H   0  0  0  0  0  0  0  0  0  0  0  0
  1  6  1  0  0  0  0
  2  1  2  0  0  0  0
  2  3  1  0  0  0  0
  3 17  1  0  0  0  0
  3  4  2  0  0  0  0
  4  5  1  0  0  0  0
  4  9  1  0  0  0  0
  5 10  1  0  0  0  0
  6  5  2  0  0  0  0
  7  1  1  0  0  0  0
  8  2  1  0  0  0  0
 11 12  3  0  0  0  0
 13 17  1  0  0  0  0
 13 14  1  0  0  0  0
 14 19  1  0  0  0  0
 14 18  1  0  0  0  0
 14 20  1  0  0  0  0
 15 13  2  0  0  0  0
 16 13  2  0  0  0  0
 21  6  1  0  0  0  0
 21 22  1  0  0  0  0
 22 24  1  0  0  0  0
 22 25  1  0  0  0  0
 23 22  1  0  0  0  0
M  END
