Coordinates from ORCA-job p-CH3O-Ph-N2-OTf-B3LYP-6-31G_dp-scan-d09-49-n400
 OpenBabel02121707583D

 25 24  0  0  0  0  0  0  0  0999 V2000
   -2.2163    0.1622   -7.3252 C   0  0  0  0  0  0  0  0  0  0  0  0
   -0.9013    0.6059   -7.3444 C   0  0  0  0  0  0  0  0  0  0  0  0
   -0.2911    0.9659   -6.1420 C   0  0  0  0  0  0  0  0  0  0  0  0
   -0.9688    0.8810   -4.9333 C   0  0  0  0  0  0  0  0  0  0  0  0
   -2.2953    0.4435   -4.9139 C   0  0  0  0  0  0  0  0  0  0  0  0
   -2.9240    0.0805   -6.1133 C   0  0  0  0  0  0  0  0  0  0  0  0
   -2.7226   -0.1257   -8.2403 H   0  0  0  0  0  0  0  0  0  0  0  0
   -0.3503    0.6764   -8.2752 H   0  0  0  0  0  0  0  0  0  0  0  0
   -0.4665    1.1690   -4.0160 H   0  0  0  0  0  0  0  0  0  0  0  0
   -2.8200    0.3914   -3.9674 H   0  0  0  0  0  0  0  0  0  0  0  0
   -1.0545    3.7354   -6.4995 N   0  0  0  0  0  0  0  0  0  0  0  0
   -2.1098    4.0655   -6.5146 N   0  0  0  0  0  0  0  0  0  0  0  0
    2.3135    0.5255   -6.3972 S   0  0  0  0  0  0  0  0  0  0  0  0
    2.6048   -0.1023   -4.6580 C   0  0  0  0  0  0  0  0  0  0  0  0
    1.9515   -0.6218   -7.2137 O   0  0  0  0  0  0  0  0  0  0  0  0
    3.4094    1.4191   -6.7164 O   0  0  0  0  0  0  0  0  0  0  0  0
    1.0170    1.4989   -6.1344 O   0  0  0  0  0  0  0  0  0  0  0  0
    1.6045   -0.9078   -4.2955 F   0  0  0  0  0  0  0  0  0  0  0  0
    3.7519   -0.7772   -4.6405 F   0  0  0  0  0  0  0  0  0  0  0  0
    2.6730    0.9263   -3.8138 F   0  0  0  0  0  0  0  0  0  0  0  0
   -4.2077   -0.3593   -6.2119 O   0  0  0  0  0  0  0  0  0  0  0  0
   -4.9779   -0.4729   -5.0237 C   0  0  0  0  0  0  0  0  0  0  0  0
   -5.9569   -0.8402   -5.3345 H   0  0  0  0  0  0  0  0  0  0  0  0
   -5.0976    0.4978   -4.5258 H   0  0  0  0  0  0  0  0  0  0  0  0
   -4.5308   -1.1869   -4.3196 H   0  0  0  0  0  0  0  0  0  0  0  0
  1  6  1  0  0  0  0
  2  1  2  0  0  0  0
  2  3  1  0  0  0  0
  3 17  1  0  0  0  0
  3  4  2  0  0  0  0
  4  5  1  0  0  0  0
  4  9  1  0  0  0  0
  5 10  1  0  0  0  0
  6  5  2  0  0  0  0
  7  1  1  0  0  0  0
  8  2  1  0  0  0  0
 12 11  3  0  0  0  0
 13 17  1  0  0  0  0
 13 14  1  0  0  0  0
 14 19  1  0  0  0  0
 14 18  1  0  0  0  0
 14 20  1  0  0  0  0
 15 13  2  0  0  0  0
 16 13  2  0  0  0  0
 21  6  1  0  0  0  0
 21 22  1  0  0  0  0
 22 24  1  0  0  0  0
 22 25  1  0  0  0  0
 23 22  1  0  0  0  0
M  END
