Coordinates from ORCA-job p-CH3O-Ph-N2-OTf-B3LYP-6-31G_dp-scan-d09-49-n400
 OpenBabel02121707583D

 25 24  0  0  0  0  0  0  0  0999 V2000
   -2.1225    0.1186   -7.3287 C   0  0  0  0  0  0  0  0  0  0  0  0
   -0.7920    0.5141   -7.3438 C   0  0  0  0  0  0  0  0  0  0  0  0
   -0.1740    0.8550   -6.1397 C   0  0  0  0  0  0  0  0  0  0  0  0
   -0.8649    0.8191   -4.9361 C   0  0  0  0  0  0  0  0  0  0  0  0
   -2.2067    0.4295   -4.9212 C   0  0  0  0  0  0  0  0  0  0  0  0
   -2.8393    0.0732   -6.1204 C   0  0  0  0  0  0  0  0  0  0  0  0
   -2.6338   -0.1583   -8.2444 H   0  0  0  0  0  0  0  0  0  0  0  0
   -0.2330    0.5554   -8.2717 H   0  0  0  0  0  0  0  0  0  0  0  0
   -0.3591    1.1002   -4.0186 H   0  0  0  0  0  0  0  0  0  0  0  0
   -2.7400    0.4094   -3.9782 H   0  0  0  0  0  0  0  0  0  0  0  0
   -2.0521    4.8242   -6.6340 N   0  0  0  0  0  0  0  0  0  0  0  0
   -3.1280    4.5844   -6.5525 N   0  0  0  0  0  0  0  0  0  0  0  0
    2.4194    0.3324   -6.3679 S   0  0  0  0  0  0  0  0  0  0  0  0
    2.6788   -0.2745   -4.6164 C   0  0  0  0  0  0  0  0  0  0  0  0
    2.0276   -0.8163   -7.1683 O   0  0  0  0  0  0  0  0  0  0  0  0
    3.5439    1.1874   -6.6935 O   0  0  0  0  0  0  0  0  0  0  0  0
    1.1506    1.3488   -6.1310 O   0  0  0  0  0  0  0  0  0  0  0  0
    1.6530   -1.0455   -4.2498 F   0  0  0  0  0  0  0  0  0  0  0  0
    3.8062   -0.9813   -4.5782 F   0  0  0  0  0  0  0  0  0  0  0  0
    2.7692    0.7652   -3.7882 F   0  0  0  0  0  0  0  0  0  0  0  0
   -4.1368   -0.3244   -6.2225 O   0  0  0  0  0  0  0  0  0  0  0  0
   -4.9178   -0.3972   -5.0382 C   0  0  0  0  0  0  0  0  0  0  0  0
   -5.9062   -0.7369   -5.3510 H   0  0  0  0  0  0  0  0  0  0  0  0
   -5.0094    0.5835   -4.5541 H   0  0  0  0  0  0  0  0  0  0  0  0
   -4.4990   -1.1158   -4.3216 H   0  0  0  0  0  0  0  0  0  0  0  0
  1  6  1  0  0  0  0
  2  1  2  0  0  0  0
  2  3  1  0  0  0  0
  3 17  1  0  0  0  0
  3  4  2  0  0  0  0
  4  5  1  0  0  0  0
  4  9  1  0  0  0  0
  5 10  1  0  0  0  0
  6  5  2  0  0  0  0
  7  1  1  0  0  0  0
  8  2  1  0  0  0  0
 11 12  3  0  0  0  0
 13 17  1  0  0  0  0
 13 14  1  0  0  0  0
 14 19  1  0  0  0  0
 14 18  1  0  0  0  0
 14 20  1  0  0  0  0
 15 13  2  0  0  0  0
 16 13  2  0  0  0  0
 21  6  1  0  0  0  0
 21 22  1  0  0  0  0
 22 24  1  0  0  0  0
 22 25  1  0  0  0  0
 23 22  1  0  0  0  0
M  END
