Coordinates from ORCA-job p-CH3O-Ph-N2-OTf-B3LYP-6-31G_dp-scan-d09-49-n400
 OpenBabel02121707583D

 25 24  0  0  0  0  0  0  0  0999 V2000
   -2.1336    0.1231   -7.3276 C   0  0  0  0  0  0  0  0  0  0  0  0
   -0.8046    0.5236   -7.3427 C   0  0  0  0  0  0  0  0  0  0  0  0
   -0.1867    0.8633   -6.1382 C   0  0  0  0  0  0  0  0  0  0  0  0
   -0.8767    0.8216   -4.9341 C   0  0  0  0  0  0  0  0  0  0  0  0
   -2.2169    0.4269   -4.9192 C   0  0  0  0  0  0  0  0  0  0  0  0
   -2.8492    0.0715   -6.1188 C   0  0  0  0  0  0  0  0  0  0  0  0
   -2.6446   -0.1532   -8.2436 H   0  0  0  0  0  0  0  0  0  0  0  0
   -0.2465    0.5696   -8.2710 H   0  0  0  0  0  0  0  0  0  0  0  0
   -0.3711    1.1021   -4.0163 H   0  0  0  0  0  0  0  0  0  0  0  0
   -2.7493    0.4023   -3.9758 H   0  0  0  0  0  0  0  0  0  0  0  0
   -1.9383    4.7355   -6.6310 N   0  0  0  0  0  0  0  0  0  0  0  0
   -3.0281    4.5652   -6.5600 N   0  0  0  0  0  0  0  0  0  0  0  0
    2.4082    0.3504   -6.3702 S   0  0  0  0  0  0  0  0  0  0  0  0
    2.6739   -0.2573   -4.6199 C   0  0  0  0  0  0  0  0  0  0  0  0
    2.0189   -0.7990   -7.1709 O   0  0  0  0  0  0  0  0  0  0  0  0
    3.5288    1.2099   -6.6975 O   0  0  0  0  0  0  0  0  0  0  0  0
    1.1361    1.3617   -6.1291 O   0  0  0  0  0  0  0  0  0  0  0  0
    1.6506   -1.0306   -4.2510 F   0  0  0  0  0  0  0  0  0  0  0  0
    3.8027   -0.9619   -4.5855 F   0  0  0  0  0  0  0  0  0  0  0  0
    2.7647    0.7820   -3.7913 F   0  0  0  0  0  0  0  0  0  0  0  0
   -4.1452   -0.3308   -6.2209 O   0  0  0  0  0  0  0  0  0  0  0  0
   -4.9247   -0.4106   -5.0360 C   0  0  0  0  0  0  0  0  0  0  0  0
   -5.9120   -0.7535   -5.3488 H   0  0  0  0  0  0  0  0  0  0  0  0
   -5.0199    0.5681   -4.5486 H   0  0  0  0  0  0  0  0  0  0  0  0
   -4.5020   -1.1297   -4.3221 H   0  0  0  0  0  0  0  0  0  0  0  0
  1  6  1  0  0  0  0
  2  1  2  0  0  0  0
  2  3  1  0  0  0  0
  3 17  1  0  0  0  0
  3  4  2  0  0  0  0
  4  5  1  0  0  0  0
  4  9  1  0  0  0  0
  5 10  1  0  0  0  0
  6  5  2  0  0  0  0
  7  1  1  0  0  0  0
  8  2  1  0  0  0  0
 11 12  3  0  0  0  0
 13 17  1  0  0  0  0
 13 14  1  0  0  0  0
 14 19  1  0  0  0  0
 14 18  1  0  0  0  0
 14 20  1  0  0  0  0
 15 13  2  0  0  0  0
 16 13  2  0  0  0  0
 21  6  1  0  0  0  0
 21 22  1  0  0  0  0
 22 24  1  0  0  0  0
 22 25  1  0  0  0  0
 23 22  1  0  0  0  0
M  END
