Coordinates from ORCA-job p-CH3O-Ph-N2-OTf-B3LYP-6-31G_dp-scan-d09-49-n400
 OpenBabel02121707583D

 25 24  0  0  0  0  0  0  0  0999 V2000
   -2.1105    0.1136   -7.3303 C   0  0  0  0  0  0  0  0  0  0  0  0
   -0.7783    0.5035   -7.3459 C   0  0  0  0  0  0  0  0  0  0  0  0
   -0.1601    0.8471   -6.1427 C   0  0  0  0  0  0  0  0  0  0  0  0
   -0.8521    0.8185   -4.9395 C   0  0  0  0  0  0  0  0  0  0  0  0
   -2.1953    0.4342   -4.9240 C   0  0  0  0  0  0  0  0  0  0  0  0
   -2.8284    0.0757   -6.1224 C   0  0  0  0  0  0  0  0  0  0  0  0
   -2.6222   -0.1649   -8.2453 H   0  0  0  0  0  0  0  0  0  0  0  0
   -0.2183    0.5386   -8.2735 H   0  0  0  0  0  0  0  0  0  0  0  0
   -0.3457    1.1011   -4.0227 H   0  0  0  0  0  0  0  0  0  0  0  0
   -2.7295    0.4200   -3.9815 H   0  0  0  0  0  0  0  0  0  0  0  0
   -2.1768    4.9285   -6.6370 N   0  0  0  0  0  0  0  0  0  0  0  0
   -3.2320    4.6131   -6.5434 N   0  0  0  0  0  0  0  0  0  0  0  0
    2.4311    0.3115   -6.3654 S   0  0  0  0  0  0  0  0  0  0  0  0
    2.6815   -0.2940   -4.6119 C   0  0  0  0  0  0  0  0  0  0  0  0
    2.0362   -0.8366   -7.1653 O   0  0  0  0  0  0  0  0  0  0  0  0
    3.5610    1.1603   -6.6886 O   0  0  0  0  0  0  0  0  0  0  0  0
    1.1668    1.3349   -6.1347 O   0  0  0  0  0  0  0  0  0  0  0  0
    1.6526   -1.0625   -4.2490 F   0  0  0  0  0  0  0  0  0  0  0  0
    3.8073   -1.0028   -4.5680 F   0  0  0  0  0  0  0  0  0  0  0  0
    2.7704    0.7466   -3.7846 F   0  0  0  0  0  0  0  0  0  0  0  0
   -4.1272   -0.3176   -6.2239 O   0  0  0  0  0  0  0  0  0  0  0  0
   -4.9087   -0.3861   -5.0396 C   0  0  0  0  0  0  0  0  0  0  0  0
   -5.8972   -0.7260   -5.3516 H   0  0  0  0  0  0  0  0  0  0  0  0
   -4.9996    0.5962   -4.5585 H   0  0  0  0  0  0  0  0  0  0  0  0
   -4.4905   -1.1027   -4.3207 H   0  0  0  0  0  0  0  0  0  0  0  0
  1  6  1  0  0  0  0
  2  1  2  0  0  0  0
  2  3  1  0  0  0  0
  3 17  1  0  0  0  0
  3  4  2  0  0  0  0
  4  5  1  0  0  0  0
  4  9  1  0  0  0  0
  5 10  1  0  0  0  0
  6  5  2  0  0  0  0
  7  1  1  0  0  0  0
  8  2  1  0  0  0  0
 11 12  3  0  0  0  0
 13 17  1  0  0  0  0
 13 14  1  0  0  0  0
 14 19  1  0  0  0  0
 14 18  1  0  0  0  0
 14 20  1  0  0  0  0
 15 13  2  0  0  0  0
 16 13  2  0  0  0  0
 21  6  1  0  0  0  0
 21 22  1  0  0  0  0
 22 24  1  0  0  0  0
 22 25  1  0  0  0  0
 23 22  1  0  0  0  0
M  END
