Coordinates from ORCA-job p-CH3O-Ph-N2-OTf-B3LYP-6-31G_dp-scan-d09-49-n400
 OpenBabel02121707583D

 25 24  0  0  0  0  0  0  0  0999 V2000
   -1.6140   -0.2490   -6.3740 C   0  0  0  0  0  0  0  0  0  0  0  0
   -0.7919    0.7764   -6.7678 C   0  0  0  0  0  0  0  0  0  0  0  0
   -1.1604    2.1865   -6.5180 C   0  0  0  0  0  0  0  0  0  0  0  0
   -2.3904    2.3872   -5.7389 C   0  0  0  0  0  0  0  0  0  0  0  0
   -3.1572    1.3460   -5.3167 C   0  0  0  0  0  0  0  0  0  0  0  0
   -2.7785    0.0044   -5.6329 C   0  0  0  0  0  0  0  0  0  0  0  0
   -1.3332   -1.2754   -6.5801 H   0  0  0  0  0  0  0  0  0  0  0  0
    0.1044    0.6257   -7.3604 H   0  0  0  0  0  0  0  0  0  0  0  0
   -2.6548    3.4160   -5.5119 H   0  0  0  0  0  0  0  0  0  0  0  0
   -4.0529    1.5485   -4.7431 H   0  0  0  0  0  0  0  0  0  0  0  0
   -0.5988    2.9330   -6.8151 N   0  0  0  0  0  0  0  0  0  0  0  0
    0.0636    3.8109   -7.1619 N   0  0  0  0  0  0  0  0  0  0  0  0
    2.2450    0.9550   -5.7601 S   0  0  0  0  0  0  0  0  0  0  0  0
    2.5105   -0.8838   -5.8368 C   0  0  0  0  0  0  0  0  0  0  0  0
    2.1286    1.3335   -7.1920 O   0  0  0  0  0  0  0  0  0  0  0  0
    3.3889    1.4769   -5.0087 O   0  0  0  0  0  0  0  0  0  0  0  0
    0.9193    1.0431   -5.0507 O   0  0  0  0  0  0  0  0  0  0  0  0
    1.4816   -1.4710   -6.5030 F   0  0  0  0  0  0  0  0  0  0  0  0
    3.6411   -1.1848   -6.4849 F   0  0  0  0  0  0  0  0  0  0  0  0
    2.5621   -1.4231   -4.6122 F   0  0  0  0  0  0  0  0  0  0  0  0
   -3.4832   -1.0625   -5.2670 O   0  0  0  0  0  0  0  0  0  0  0  0
   -4.6753   -0.9188   -4.4802 C   0  0  0  0  0  0  0  0  0  0  0  0
   -5.0308   -1.9340   -4.3102 H   0  0  0  0  0  0  0  0  0  0  0  0
   -5.4358   -0.3484   -5.0232 H   0  0  0  0  0  0  0  0  0  0  0  0
   -4.4536   -0.4419   -3.5204 H   0  0  0  0  0  0  0  0  0  0  0  0
  1  6  2  0  0  0  0
  2  3  2  0  0  0  0
  2  1  1  0  0  0  0
  3  4  1  0  0  0  0
  4  9  1  0  0  0  0
  4  5  2  0  0  0  0
  5 10  1  0  0  0  0
  6  5  1  0  0  0  0
  6 21  1  0  0  0  0
  7  1  1  0  0  0  0
  8  2  1  0  0  0  0
 11  3  1  0  0  0  0
 12 11  1  0  0  0  0
 13 17  2  0  0  0  0
 13 16  1  0  0  0  0
 14 13  1  0  0  0  0
 14 20  1  0  0  0  0
 15 13  2  0  0  0  0
 18 14  1  0  0  0  0
 19 14  1  0  0  0  0
 21 22  1  0  0  0  0
 22 23  1  0  0  0  0
 22 25  1  0  0  0  0
 24 22  1  0  0  0  0
M  RAD  3  11   2  12   3  16   2
M  END
