Coordinates from ORCA-job p-CH3O-Ph-N2-OTf-B3LYP-6-31G_dp-scan-d09-49-n400
 OpenBabel02121707583D

 25 24  0  0  0  0  0  0  0  0999 V2000
   -1.8245   -0.4063   -6.1394 C   0  0  0  0  0  0  0  0  0  0  0  0
   -0.9056    0.5839   -6.4701 C   0  0  0  0  0  0  0  0  0  0  0  0
   -1.3436    1.8552   -6.1797 C   0  0  0  0  0  0  0  0  0  0  0  0
   -2.5230    2.2847   -5.6289 C   0  0  0  0  0  0  0  0  0  0  0  0
   -3.4194    1.2591   -5.3101 C   0  0  0  0  0  0  0  0  0  0  0  0
   -3.0712   -0.0819   -5.5632 C   0  0  0  0  0  0  0  0  0  0  0  0
   -1.5815   -1.4495   -6.3103 H   0  0  0  0  0  0  0  0  0  0  0  0
    0.0716    0.3915   -6.9001 H   0  0  0  0  0  0  0  0  0  0  0  0
   -2.7460    3.3278   -5.4449 H   0  0  0  0  0  0  0  0  0  0  0  0
   -4.3723    1.5196   -4.8682 H   0  0  0  0  0  0  0  0  0  0  0  0
   -0.1958    3.1023   -6.5824 N   0  0  0  0  0  0  0  0  0  0  0  0
    0.8341    3.3769   -6.9203 N   0  0  0  0  0  0  0  0  0  0  0  0
    2.6891    1.1757   -5.9480 S   0  0  0  0  0  0  0  0  0  0  0  0
    2.8231   -0.6835   -5.9502 C   0  0  0  0  0  0  0  0  0  0  0  0
    2.0106    1.4136   -7.2855 O   0  0  0  0  0  0  0  0  0  0  0  0
    4.0732    1.6468   -5.8642 O   0  0  0  0  0  0  0  0  0  0  0  0
    1.7805    1.4791   -4.8216 O   0  0  0  0  0  0  0  0  0  0  0  0
    1.6003   -1.2472   -6.1182 F   0  0  0  0  0  0  0  0  0  0  0  0
    3.6109   -1.1097   -6.9424 F   0  0  0  0  0  0  0  0  0  0  0  0
    3.3179   -1.1205   -4.7872 F   0  0  0  0  0  0  0  0  0  0  0  0
   -3.8670   -1.1359   -5.2892 O   0  0  0  0  0  0  0  0  0  0  0  0
   -5.1363   -0.9089   -4.6783 C   0  0  0  0  0  0  0  0  0  0  0  0
   -5.5792   -1.8956   -4.5441 H   0  0  0  0  0  0  0  0  0  0  0  0
   -5.7853   -0.3030   -5.3223 H   0  0  0  0  0  0  0  0  0  0  0  0
   -5.0263   -0.4240   -3.7010 H   0  0  0  0  0  0  0  0  0  0  0  0
  1  6  2  0  0  0  0
  2  3  2  0  0  0  0
  2  1  1  0  0  0  0
  3  4  1  0  0  0  0
  4  9  1  0  0  0  0
  4  5  2  0  0  0  0
  5 10  1  0  0  0  0
  6  5  1  0  0  0  0
  6 21  1  0  0  0  0
  7  1  1  0  0  0  0
  8  2  1  0  0  0  0
 11  3  1  0  0  0  0
 12 11  2  0  0  0  0
 13 16  2  0  0  0  0
 13 17  1  0  0  0  0
 14 13  1  0  0  0  0
 14 20  1  0  0  0  0
 15 13  2  0  0  0  0
 18 14  1  0  0  0  0
 19 14  1  0  0  0  0
 21 22  1  0  0  0  0
 22 23  1  0  0  0  0
 22 25  1  0  0  0  0
 24 22  1  0  0  0  0
M  RAD  2  12   2  17   2
M  END
