Coordinates from ORCA-job p-CH3O-Ph-N2-OTf-B3LYP-6-31G_dp-scan-d09-49-n400
 OpenBabel02121707583D

 25 24  0  0  0  0  0  0  0  0999 V2000
   -2.1693    0.1347   -7.3246 C   0  0  0  0  0  0  0  0  0  0  0  0
   -0.8457    0.5531   -7.3402 C   0  0  0  0  0  0  0  0  0  0  0  0
   -0.2300    0.8947   -6.1351 C   0  0  0  0  0  0  0  0  0  0  0  0
   -0.9170    0.8372   -4.9299 C   0  0  0  0  0  0  0  0  0  0  0  0
   -2.2518    0.4245   -4.9144 C   0  0  0  0  0  0  0  0  0  0  0  0
   -2.8817    0.0669   -6.1147 C   0  0  0  0  0  0  0  0  0  0  0  0
   -2.6783   -0.1439   -8.2411 H   0  0  0  0  0  0  0  0  0  0  0  0
   -0.2903    0.6114   -8.2693 H   0  0  0  0  0  0  0  0  0  0  0  0
   -0.4133    1.1194   -4.0116 H   0  0  0  0  0  0  0  0  0  0  0  0
   -2.7817    0.3877   -3.9701 H   0  0  0  0  0  0  0  0  0  0  0  0
   -1.5648    4.4083   -6.6002 N   0  0  0  0  0  0  0  0  0  0  0  0
   -2.6686    4.4534   -6.5651 N   0  0  0  0  0  0  0  0  0  0  0  0
    2.3698    0.4151   -6.3795 S   0  0  0  0  0  0  0  0  0  0  0  0
    2.6539   -0.1973   -4.6339 C   0  0  0  0  0  0  0  0  0  0  0  0
    1.9900   -0.7353   -7.1833 O   0  0  0  0  0  0  0  0  0  0  0  0
    3.4776    1.2900   -6.7096 O   0  0  0  0  0  0  0  0  0  0  0  0
    1.0866    1.4090   -6.1254 O   0  0  0  0  0  0  0  0  0  0  0  0
    1.6383   -0.9781   -4.2594 F   0  0  0  0  0  0  0  0  0  0  0  0
    3.7871   -0.8954   -4.6115 F   0  0  0  0  0  0  0  0  0  0  0  0
    2.7454    0.8394   -3.8023 F   0  0  0  0  0  0  0  0  0  0  0  0
   -4.1724   -0.3523   -6.2164 O   0  0  0  0  0  0  0  0  0  0  0  0
   -4.9482   -0.4489   -5.0304 C   0  0  0  0  0  0  0  0  0  0  0  0
   -5.9317   -0.8027   -5.3431 H   0  0  0  0  0  0  0  0  0  0  0  0
   -5.0549    0.5257   -4.5372 H   0  0  0  0  0  0  0  0  0  0  0  0
   -4.5146   -1.1665   -4.3216 H   0  0  0  0  0  0  0  0  0  0  0  0
  1  6  1  0  0  0  0
  2  1  2  0  0  0  0
  2  3  1  0  0  0  0
  3 17  1  0  0  0  0
  3  4  2  0  0  0  0
  4  5  1  0  0  0  0
  4  9  1  0  0  0  0
  5 10  1  0  0  0  0
  6  5  2  0  0  0  0
  7  1  1  0  0  0  0
  8  2  1  0  0  0  0
 11 12  3  0  0  0  0
 13 17  1  0  0  0  0
 13 14  1  0  0  0  0
 14 19  1  0  0  0  0
 14 18  1  0  0  0  0
 14 20  1  0  0  0  0
 15 13  2  0  0  0  0
 16 13  2  0  0  0  0
 21  6  1  0  0  0  0
 21 22  1  0  0  0  0
 22 24  1  0  0  0  0
 22 25  1  0  0  0  0
 23 22  1  0  0  0  0
M  END
