Coordinates from ORCA-job p-CH3O-Ph-N2-OTf-B3LYP-6-31G_dp-scan-d09-49-n400
 OpenBabel02121707583D

 25 24  0  0  0  0  0  0  0  0999 V2000
   -2.2152    0.1871   -7.3263 C   0  0  0  0  0  0  0  0  0  0  0  0
   -0.9084    0.6515   -7.3550 C   0  0  0  0  0  0  0  0  0  0  0  0
   -0.3061    1.0549   -6.1615 C   0  0  0  0  0  0  0  0  0  0  0  0
   -0.9645    0.9322   -4.9445 C   0  0  0  0  0  0  0  0  0  0  0  0
   -2.2831    0.4744   -4.9148 C   0  0  0  0  0  0  0  0  0  0  0  0
   -2.9162    0.1037   -6.1100 C   0  0  0  0  0  0  0  0  0  0  0  0
   -2.7195   -0.1209   -8.2358 H   0  0  0  0  0  0  0  0  0  0  0  0
   -0.3619    0.7209   -8.2885 H   0  0  0  0  0  0  0  0  0  0  0  0
   -0.4585    1.2242   -4.0306 H   0  0  0  0  0  0  0  0  0  0  0  0
   -2.7973    0.4070   -3.9636 H   0  0  0  0  0  0  0  0  0  0  0  0
   -0.9408    3.4158   -6.4682 N   0  0  0  0  0  0  0  0  0  0  0  0
   -1.9718    3.8185   -6.5071 N   0  0  0  0  0  0  0  0  0  0  0  0
    2.2907    0.5663   -6.4022 S   0  0  0  0  0  0  0  0  0  0  0  0
    2.5286   -0.0978   -4.6671 C   0  0  0  0  0  0  0  0  0  0  0  0
    1.9289   -0.5604   -7.2469 O   0  0  0  0  0  0  0  0  0  0  0  0
    3.4116    1.4429   -6.6783 O   0  0  0  0  0  0  0  0  0  0  0  0
    1.0109    1.5652   -6.1599 O   0  0  0  0  0  0  0  0  0  0  0  0
    1.5379   -0.9371   -4.3624 F   0  0  0  0  0  0  0  0  0  0  0  0
    3.6919   -0.7427   -4.6216 F   0  0  0  0  0  0  0  0  0  0  0  0
    2.5378    0.9116   -3.7961 F   0  0  0  0  0  0  0  0  0  0  0  0
   -4.1938   -0.3533   -6.1994 O   0  0  0  0  0  0  0  0  0  0  0  0
   -4.9556   -0.4743   -5.0061 C   0  0  0  0  0  0  0  0  0  0  0  0
   -5.9329   -0.8509   -5.3110 H   0  0  0  0  0  0  0  0  0  0  0  0
   -5.0811    0.4954   -4.5079 H   0  0  0  0  0  0  0  0  0  0  0  0
   -4.4972   -1.1840   -4.3051 H   0  0  0  0  0  0  0  0  0  0  0  0
  1  6  1  0  0  0  0
  2  1  2  0  0  0  0
  2  3  1  0  0  0  0
  3 17  1  0  0  0  0
  3  4  2  0  0  0  0
  4  5  1  0  0  0  0
  4  9  1  0  0  0  0
  5 10  1  0  0  0  0
  6  5  2  0  0  0  0
  7  1  1  0  0  0  0
  8  2  1  0  0  0  0
 12 11  3  0  0  0  0
 13 17  1  0  0  0  0
 13 14  1  0  0  0  0
 14 19  1  0  0  0  0
 14 18  1  0  0  0  0
 14 20  1  0  0  0  0
 15 13  2  0  0  0  0
 16 13  2  0  0  0  0
 21  6  1  0  0  0  0
 21 22  1  0  0  0  0
 22 24  1  0  0  0  0
 22 25  1  0  0  0  0
 23 22  1  0  0  0  0
M  END
