Coordinates from ORCA-job p-CH3O-Ph-N2-OTf-B3LYP-6-31G_dp-scan-d09-49-n400
 OpenBabel02121707583D

 25 24  0  0  0  0  0  0  0  0999 V2000
   -1.8587   -0.4709   -6.0399 C   0  0  0  0  0  0  0  0  0  0  0  0
   -0.9107    0.4792   -6.3698 C   0  0  0  0  0  0  0  0  0  0  0  0
   -1.2747    1.8147   -6.1676 C   0  0  0  0  0  0  0  0  0  0  0  0
   -2.4988    2.2434   -5.6669 C   0  0  0  0  0  0  0  0  0  0  0  0
   -3.4343    1.2702   -5.3372 C   0  0  0  0  0  0  0  0  0  0  0  0
   -3.1162   -0.0909   -5.5216 C   0  0  0  0  0  0  0  0  0  0  0  0
   -1.6460   -1.5272   -6.1627 H   0  0  0  0  0  0  0  0  0  0  0  0
    0.0662    0.2245   -6.7596 H   0  0  0  0  0  0  0  0  0  0  0  0
   -2.7108    3.2979   -5.5317 H   0  0  0  0  0  0  0  0  0  0  0  0
   -4.3946    1.5719   -4.9403 H   0  0  0  0  0  0  0  0  0  0  0  0
   -0.2586    2.8635   -6.5172 N   0  0  0  0  0  0  0  0  0  0  0  0
    0.7278    3.2892   -6.8458 N   0  0  0  0  0  0  0  0  0  0  0  0
    2.7165    1.2156   -5.9270 S   0  0  0  0  0  0  0  0  0  0  0  0
    2.9720   -0.6245   -6.0720 C   0  0  0  0  0  0  0  0  0  0  0  0
    2.0658    1.5155   -7.2647 O   0  0  0  0  0  0  0  0  0  0  0  0
    4.0617    1.7662   -5.7483 O   0  0  0  0  0  0  0  0  0  0  0  0
    1.7517    1.3664   -4.8146 O   0  0  0  0  0  0  0  0  0  0  0  0
    1.7899   -1.2510   -6.2982 F   0  0  0  0  0  0  0  0  0  0  0  0
    3.7936   -0.9202   -7.0836 F   0  0  0  0  0  0  0  0  0  0  0  0
    3.4850   -1.1188   -4.9399 F   0  0  0  0  0  0  0  0  0  0  0  0
   -3.9484   -1.1071   -5.2341 O   0  0  0  0  0  0  0  0  0  0  0  0
   -5.2377   -0.8256   -4.6866 C   0  0  0  0  0  0  0  0  0  0  0  0
   -5.7092   -1.7959   -4.5331 H   0  0  0  0  0  0  0  0  0  0  0  0
   -5.8423   -0.2313   -5.3817 H   0  0  0  0  0  0  0  0  0  0  0  0
   -5.1547   -0.3045   -3.7258 H   0  0  0  0  0  0  0  0  0  0  0  0
  1  6  2  0  0  0  0
  2  3  2  0  0  0  0
  2  1  1  0  0  0  0
  3  4  1  0  0  0  0
  4  9  1  0  0  0  0
  4  5  2  0  0  0  0
  5 10  1  0  0  0  0
  6  5  1  0  0  0  0
  6 21  1  0  0  0  0
  7  1  1  0  0  0  0
  8  2  1  0  0  0  0
 11  3  1  0  0  0  0
 12 11  1  0  0  0  0
 13 16  2  0  0  0  0
 13 17  1  0  0  0  0
 14 13  1  0  0  0  0
 14 20  1  0  0  0  0
 15 13  2  0  0  0  0
 18 14  1  0  0  0  0
 19 14  1  0  0  0  0
 21 22  1  0  0  0  0
 22 23  1  0  0  0  0
 22 25  1  0  0  0  0
 24 22  1  0  0  0  0
M  RAD  3  11   2  12   3  17   2
M  END
