Coordinates from ORCA-job p-CH3O-Ph-N2-OTf-B3LYP-6-31G_dp-scan-d09-49-n400
 OpenBabel02121707583D

 25 24  0  0  0  0  0  0  0  0999 V2000
   -2.1840    0.1383   -7.3246 C   0  0  0  0  0  0  0  0  0  0  0  0
   -0.8622    0.5625   -7.3398 C   0  0  0  0  0  0  0  0  0  0  0  0
   -0.2478    0.9053   -6.1344 C   0  0  0  0  0  0  0  0  0  0  0  0
   -0.9341    0.8424   -4.9291 C   0  0  0  0  0  0  0  0  0  0  0  0
   -2.2671    0.4241   -4.9139 C   0  0  0  0  0  0  0  0  0  0  0  0
   -2.8959    0.0659   -6.1147 C   0  0  0  0  0  0  0  0  0  0  0  0
   -2.6919   -0.1412   -8.2413 H   0  0  0  0  0  0  0  0  0  0  0  0
   -0.3073    0.6247   -8.2690 H   0  0  0  0  0  0  0  0  0  0  0  0
   -0.4315    1.1254   -4.0105 H   0  0  0  0  0  0  0  0  0  0  0  0
   -2.7966    0.3835   -3.9695 H   0  0  0  0  0  0  0  0  0  0  0  0
   -1.4193    4.2664   -6.5764 N   0  0  0  0  0  0  0  0  0  0  0  0
   -2.5175    4.3903   -6.5542 N   0  0  0  0  0  0  0  0  0  0  0  0
    2.3544    0.4409   -6.3840 S   0  0  0  0  0  0  0  0  0  0  0  0
    2.6498   -0.1687   -4.6394 C   0  0  0  0  0  0  0  0  0  0  0  0
    1.9782   -0.7124   -7.1854 O   0  0  0  0  0  0  0  0  0  0  0  0
    3.4553    1.3223   -6.7194 O   0  0  0  0  0  0  0  0  0  0  0  0
    1.0660    1.4265   -6.1241 O   0  0  0  0  0  0  0  0  0  0  0  0
    1.6372   -0.9499   -4.2576 F   0  0  0  0  0  0  0  0  0  0  0  0
    3.7838   -0.8657   -4.6228 F   0  0  0  0  0  0  0  0  0  0  0  0
    2.7454    0.8692   -3.8098 F   0  0  0  0  0  0  0  0  0  0  0  0
   -4.1849   -0.3582   -6.2167 O   0  0  0  0  0  0  0  0  0  0  0  0
   -4.9600   -0.4601   -5.0307 C   0  0  0  0  0  0  0  0  0  0  0  0
   -5.9421   -0.8172   -5.3437 H   0  0  0  0  0  0  0  0  0  0  0  0
   -5.0705    0.5132   -4.5356 H   0  0  0  0  0  0  0  0  0  0  0  0
   -4.5232   -1.1772   -4.3233 H   0  0  0  0  0  0  0  0  0  0  0  0
  1  6  1  0  0  0  0
  2  1  2  0  0  0  0
  2  3  1  0  0  0  0
  3 17  1  0  0  0  0
  3  4  2  0  0  0  0
  4  5  1  0  0  0  0
  4  9  1  0  0  0  0
  5 10  1  0  0  0  0
  6  5  2  0  0  0  0
  7  1  1  0  0  0  0
  8  2  1  0  0  0  0
 11 12  3  0  0  0  0
 13 17  1  0  0  0  0
 13 14  1  0  0  0  0
 14 19  1  0  0  0  0
 14 18  1  0  0  0  0
 14 20  1  0  0  0  0
 15 13  2  0  0  0  0
 16 13  2  0  0  0  0
 21  6  1  0  0  0  0
 21 22  1  0  0  0  0
 22 24  1  0  0  0  0
 22 25  1  0  0  0  0
 23 22  1  0  0  0  0
M  END
