Coordinates from ORCA-job p-CH3O-Ph-N2-OTf-B3LYP-6-31G_dp-scan-d09-49-n400
 OpenBabel02121707583D

 25 24  0  0  0  0  0  0  0  0999 V2000
   -2.1273    0.1205   -7.3282 C   0  0  0  0  0  0  0  0  0  0  0  0
   -0.7974    0.5181   -7.3433 C   0  0  0  0  0  0  0  0  0  0  0  0
   -0.1794    0.8585   -6.1391 C   0  0  0  0  0  0  0  0  0  0  0  0
   -0.8700    0.8201   -4.9353 C   0  0  0  0  0  0  0  0  0  0  0  0
   -2.2111    0.4284   -4.9204 C   0  0  0  0  0  0  0  0  0  0  0  0
   -2.8436    0.0725   -6.1197 C   0  0  0  0  0  0  0  0  0  0  0  0
   -2.6384   -0.1561   -8.2441 H   0  0  0  0  0  0  0  0  0  0  0  0
   -0.2388    0.5615   -8.2714 H   0  0  0  0  0  0  0  0  0  0  0  0
   -0.3643    1.1009   -4.0176 H   0  0  0  0  0  0  0  0  0  0  0  0
   -2.7440    0.4064   -3.9772 H   0  0  0  0  0  0  0  0  0  0  0  0
   -2.0033    4.7863   -6.6326 N   0  0  0  0  0  0  0  0  0  0  0  0
   -3.0858    4.5764   -6.5556 N   0  0  0  0  0  0  0  0  0  0  0  0
    2.4146    0.3400   -6.3689 S   0  0  0  0  0  0  0  0  0  0  0  0
    2.6768   -0.2671   -4.6178 C   0  0  0  0  0  0  0  0  0  0  0  0
    2.0239   -0.8091   -7.1693 O   0  0  0  0  0  0  0  0  0  0  0  0
    3.5374    1.1969   -6.6954 O   0  0  0  0  0  0  0  0  0  0  0  0
    1.1444    1.3542   -6.1302 O   0  0  0  0  0  0  0  0  0  0  0  0
    1.6521   -1.0390   -4.2501 F   0  0  0  0  0  0  0  0  0  0  0  0
    3.8048   -0.9730   -4.5813 F   0  0  0  0  0  0  0  0  0  0  0  0
    2.7675    0.7725   -3.7896 F   0  0  0  0  0  0  0  0  0  0  0  0
   -4.1404   -0.3271   -6.2219 O   0  0  0  0  0  0  0  0  0  0  0  0
   -4.9208   -0.4029   -5.0373 C   0  0  0  0  0  0  0  0  0  0  0  0
   -5.9087   -0.7440   -5.3501 H   0  0  0  0  0  0  0  0  0  0  0  0
   -5.0139    0.5770   -4.5518 H   0  0  0  0  0  0  0  0  0  0  0  0
   -4.5003   -1.1217   -4.3219 H   0  0  0  0  0  0  0  0  0  0  0  0
  1  6  1  0  0  0  0
  2  1  2  0  0  0  0
  2  3  1  0  0  0  0
  3 17  1  0  0  0  0
  3  4  2  0  0  0  0
  4  5  1  0  0  0  0
  4  9  1  0  0  0  0
  5 10  1  0  0  0  0
  6  5  2  0  0  0  0
  7  1  1  0  0  0  0
  8  2  1  0  0  0  0
 11 12  3  0  0  0  0
 13 17  1  0  0  0  0
 13 14  1  0  0  0  0
 14 19  1  0  0  0  0
 14 18  1  0  0  0  0
 14 20  1  0  0  0  0
 15 13  2  0  0  0  0
 16 13  2  0  0  0  0
 21  6  1  0  0  0  0
 21 22  1  0  0  0  0
 22 24  1  0  0  0  0
 22 25  1  0  0  0  0
 23 22  1  0  0  0  0
M  END
