Coordinates from ORCA-job p-CH3O-Ph-N2-OTf-B3LYP-6-31G_dp-scan-d09-49-n400
 OpenBabel02121707583D

 25 24  0  0  0  0  0  0  0  0999 V2000
   -1.6433   -0.2791   -6.3528 C   0  0  0  0  0  0  0  0  0  0  0  0
   -0.8088    0.7337   -6.7473 C   0  0  0  0  0  0  0  0  0  0  0  0
   -1.1587    2.1366   -6.4896 C   0  0  0  0  0  0  0  0  0  0  0  0
   -2.3901    2.3687   -5.7399 C   0  0  0  0  0  0  0  0  0  0  0  0
   -3.1831    1.3396   -5.3266 C   0  0  0  0  0  0  0  0  0  0  0  0
   -2.8176   -0.0058   -5.6286 C   0  0  0  0  0  0  0  0  0  0  0  0
   -1.3755   -1.3108   -6.5500 H   0  0  0  0  0  0  0  0  0  0  0  0
    0.1038    0.5687   -7.3106 H   0  0  0  0  0  0  0  0  0  0  0  0
   -2.6444    3.4009   -5.5177 H   0  0  0  0  0  0  0  0  0  0  0  0
   -4.0855    1.5583   -4.7700 H   0  0  0  0  0  0  0  0  0  0  0  0
   -0.5515    2.9035   -6.7797 N   0  0  0  0  0  0  0  0  0  0  0  0
    0.1354    3.7624   -7.1042 N   0  0  0  0  0  0  0  0  0  0  0  0
    2.2758    0.9851   -5.7652 S   0  0  0  0  0  0  0  0  0  0  0  0
    2.5657   -0.8495   -5.8623 C   0  0  0  0  0  0  0  0  0  0  0  0
    2.0822    1.3603   -7.1933 O   0  0  0  0  0  0  0  0  0  0  0  0
    3.4574    1.5226   -5.0853 O   0  0  0  0  0  0  0  0  0  0  0  0
    0.9919    1.0561   -4.9915 O   0  0  0  0  0  0  0  0  0  0  0  0
    1.5159   -1.4518   -6.4821 F   0  0  0  0  0  0  0  0  0  0  0  0
    3.6694   -1.1330   -6.5631 F   0  0  0  0  0  0  0  0  0  0  0  0
    2.6819   -1.3925   -4.6433 F   0  0  0  0  0  0  0  0  0  0  0  0
   -3.5376   -1.0634   -5.2660 O   0  0  0  0  0  0  0  0  0  0  0  0
   -4.7372   -0.9017   -4.4941 C   0  0  0  0  0  0  0  0  0  0  0  0
   -5.1052   -1.9118   -4.3206 H   0  0  0  0  0  0  0  0  0  0  0  0
   -5.4853   -0.3274   -5.0503 H   0  0  0  0  0  0  0  0  0  0  0  0
   -4.5215   -0.4195   -3.5356 H   0  0  0  0  0  0  0  0  0  0  0  0
  1  6  2  0  0  0  0
  2  3  2  0  0  0  0
  2  1  1  0  0  0  0
  3  4  1  0  0  0  0
  4  9  1  0  0  0  0
  4  5  2  0  0  0  0
  5 10  1  0  0  0  0
  6  5  1  0  0  0  0
  6 21  1  0  0  0  0
  7  1  1  0  0  0  0
  8  2  1  0  0  0  0
 11  3  1  0  0  0  0
 12 11  1  0  0  0  0
 13 16  2  0  0  0  0
 13 17  1  0  0  0  0
 14 13  1  0  0  0  0
 14 20  1  0  0  0  0
 15 13  2  0  0  0  0
 18 14  1  0  0  0  0
 19 14  1  0  0  0  0
 21 22  1  0  0  0  0
 22 23  1  0  0  0  0
 22 25  1  0  0  0  0
 24 22  1  0  0  0  0
M  RAD  3  11   2  12   3  17   2
M  END
