Coordinates from ORCA-job p-CH3O-Ph-N2-OTf-B3LYP-6-31G_dp-scan-d09-49-n400
 OpenBabel02121707583D

 25 24  0  0  0  0  0  0  0  0999 V2000
   -2.2136    0.1930   -7.3273 C   0  0  0  0  0  0  0  0  0  0  0  0
   -0.9091    0.6625   -7.3580 C   0  0  0  0  0  0  0  0  0  0  0  0
   -0.3097    1.0787   -6.1669 C   0  0  0  0  0  0  0  0  0  0  0  0
   -0.9621    0.9426   -4.9475 C   0  0  0  0  0  0  0  0  0  0  0  0
   -2.2786    0.4798   -4.9155 C   0  0  0  0  0  0  0  0  0  0  0  0
   -2.9131    0.1089   -6.1100 C   0  0  0  0  0  0  0  0  0  0  0  0
   -2.7171   -0.1201   -8.2355 H   0  0  0  0  0  0  0  0  0  0  0  0
   -0.3635    0.7321   -8.2920 H   0  0  0  0  0  0  0  0  0  0  0  0
   -0.4550    1.2344   -4.0343 H   0  0  0  0  0  0  0  0  0  0  0  0
   -2.7897    0.4070   -3.9631 H   0  0  0  0  0  0  0  0  0  0  0  0
   -0.9220    3.3635   -6.4612 N   0  0  0  0  0  0  0  0  0  0  0  0
   -1.9529    3.7677   -6.5031 N   0  0  0  0  0  0  0  0  0  0  0  0
    2.2841    0.5704   -6.4030 S   0  0  0  0  0  0  0  0  0  0  0  0
    2.5117   -0.0967   -4.6673 C   0  0  0  0  0  0  0  0  0  0  0  0
    1.9184   -0.5535   -7.2497 O   0  0  0  0  0  0  0  0  0  0  0  0
    3.4123    1.4392   -6.6742 O   0  0  0  0  0  0  0  0  0  0  0  0
    1.0114    1.5791   -6.1663 O   0  0  0  0  0  0  0  0  0  0  0  0
    1.5218   -0.9394   -4.3707 F   0  0  0  0  0  0  0  0  0  0  0  0
    3.6767   -0.7383   -4.6159 F   0  0  0  0  0  0  0  0  0  0  0  0
    2.5126    0.9110   -3.7941 F   0  0  0  0  0  0  0  0  0  0  0  0
   -4.1893   -0.3519   -6.1974 O   0  0  0  0  0  0  0  0  0  0  0  0
   -4.9491   -0.4753   -5.0030 C   0  0  0  0  0  0  0  0  0  0  0  0
   -5.9262   -0.8531   -5.3068 H   0  0  0  0  0  0  0  0  0  0  0  0
   -5.0752    0.4937   -4.5036 H   0  0  0  0  0  0  0  0  0  0  0  0
   -4.4884   -1.1851   -4.3035 H   0  0  0  0  0  0  0  0  0  0  0  0
  1  6  1  0  0  0  0
  2  1  2  0  0  0  0
  2  3  1  0  0  0  0
  3 17  1  0  0  0  0
  3  4  2  0  0  0  0
  4  5  1  0  0  0  0
  4  9  1  0  0  0  0
  5 10  1  0  0  0  0
  6  5  2  0  0  0  0
  7  1  1  0  0  0  0
  8  2  1  0  0  0  0
 12 11  3  0  0  0  0
 13 17  1  0  0  0  0
 13 14  1  0  0  0  0
 14 19  1  0  0  0  0
 14 18  1  0  0  0  0
 14 20  1  0  0  0  0
 15 13  2  0  0  0  0
 16 13  2  0  0  0  0
 21  6  1  0  0  0  0
 21 22  1  0  0  0  0
 22 24  1  0  0  0  0
 22 25  1  0  0  0  0
 23 22  1  0  0  0  0
M  END
