Coordinates from ORCA-job p-CH3O-Ph-N2-OTf-B3LYP-6-31G_dp-scan-d09-49-n400
 OpenBabel02121707583D

 25 24  0  0  0  0  0  0  0  0999 V2000
   -2.1996    0.1452   -7.3246 C   0  0  0  0  0  0  0  0  0  0  0  0
   -0.8802    0.5765   -7.3399 C   0  0  0  0  0  0  0  0  0  0  0  0
   -0.2675    0.9225   -6.1345 C   0  0  0  0  0  0  0  0  0  0  0  0
   -0.9523    0.8525   -4.9288 C   0  0  0  0  0  0  0  0  0  0  0  0
   -2.2831    0.4273   -4.9135 C   0  0  0  0  0  0  0  0  0  0  0  0
   -2.9108    0.0682   -6.1145 C   0  0  0  0  0  0  0  0  0  0  0  0
   -2.7066   -0.1357   -8.2415 H   0  0  0  0  0  0  0  0  0  0  0  0
   -0.3262    0.6432   -8.2693 H   0  0  0  0  0  0  0  0  0  0  0  0
   -0.4507    1.1368   -4.0101 H   0  0  0  0  0  0  0  0  0  0  0  0
   -2.8118    0.3823   -3.9689 H   0  0  0  0  0  0  0  0  0  0  0  0
   -1.2558    4.0614   -6.5433 N   0  0  0  0  0  0  0  0  0  0  0  0
   -2.3405    4.2743   -6.5362 N   0  0  0  0  0  0  0  0  0  0  0  0
    2.3370    0.4753   -6.3896 S   0  0  0  0  0  0  0  0  0  0  0  0
    2.6410   -0.1359   -4.6471 C   0  0  0  0  0  0  0  0  0  0  0  0
    1.9662   -0.6788   -7.1924 O   0  0  0  0  0  0  0  0  0  0  0  0
    3.4312    1.3645   -6.7262 O   0  0  0  0  0  0  0  0  0  0  0  0
    1.0428    1.4518   -6.1241 O   0  0  0  0  0  0  0  0  0  0  0  0
    1.6324   -0.9212   -4.2629 F   0  0  0  0  0  0  0  0  0  0  0  0
    3.7773   -0.8292   -4.6358 F   0  0  0  0  0  0  0  0  0  0  0  0
    2.7362    0.9010   -3.8163 F   0  0  0  0  0  0  0  0  0  0  0  0
   -4.1980   -0.3613   -6.2167 O   0  0  0  0  0  0  0  0  0  0  0  0
   -4.9728   -0.4667   -5.0308 C   0  0  0  0  0  0  0  0  0  0  0  0
   -5.9537   -0.8267   -5.3440 H   0  0  0  0  0  0  0  0  0  0  0  0
   -5.0863    0.5059   -4.5349 H   0  0  0  0  0  0  0  0  0  0  0  0
   -4.5337   -1.1829   -4.3239 H   0  0  0  0  0  0  0  0  0  0  0  0
  1  6  1  0  0  0  0
  2  1  2  0  0  0  0
  2  3  1  0  0  0  0
  3 17  1  0  0  0  0
  3  4  2  0  0  0  0
  4  5  1  0  0  0  0
  4  9  1  0  0  0  0
  5 10  1  0  0  0  0
  6  5  2  0  0  0  0
  7  1  1  0  0  0  0
  8  2  1  0  0  0  0
 11 12  3  0  0  0  0
 13 17  1  0  0  0  0
 13 14  1  0  0  0  0
 14 19  1  0  0  0  0
 14 18  1  0  0  0  0
 14 20  1  0  0  0  0
 15 13  2  0  0  0  0
 16 13  2  0  0  0  0
 21  6  1  0  0  0  0
 21 22  1  0  0  0  0
 22 24  1  0  0  0  0
 22 25  1  0  0  0  0
 23 22  1  0  0  0  0
M  END
