Coordinates from ORCA-job p-CH3O-Ph-N2-OTf-B3LYP-6-31G_dp-scan-d09-49-n400
 OpenBabel02121707583D

 25 24  0  0  0  0  0  0  0  0999 V2000
   -2.2066    0.1495   -7.3248 C   0  0  0  0  0  0  0  0  0  0  0  0
   -0.8882    0.5839   -7.3404 C   0  0  0  0  0  0  0  0  0  0  0  0
   -0.2761    0.9317   -6.1352 C   0  0  0  0  0  0  0  0  0  0  0  0
   -0.9597    0.8577   -4.9291 C   0  0  0  0  0  0  0  0  0  0  0  0
   -2.2895    0.4296   -4.9135 C   0  0  0  0  0  0  0  0  0  0  0  0
   -2.9172    0.0706   -6.1145 C   0  0  0  0  0  0  0  0  0  0  0  0
   -2.7133   -0.1319   -8.2416 H   0  0  0  0  0  0  0  0  0  0  0  0
   -0.3348    0.6526   -8.2700 H   0  0  0  0  0  0  0  0  0  0  0  0
   -0.4583    1.1425   -4.0104 H   0  0  0  0  0  0  0  0  0  0  0  0
   -2.8176    0.3825   -3.9686 H   0  0  0  0  0  0  0  0  0  0  0  0
   -1.1841    3.9600   -6.5277 N   0  0  0  0  0  0  0  0  0  0  0  0
   -2.2603    4.2127   -6.5276 N   0  0  0  0  0  0  0  0  0  0  0  0
    2.3292    0.4915   -6.3922 S   0  0  0  0  0  0  0  0  0  0  0  0
    2.6353   -0.1213   -4.6506 C   0  0  0  0  0  0  0  0  0  0  0  0
    1.9613   -0.6626   -7.1964 O   0  0  0  0  0  0  0  0  0  0  0  0
    3.4211    1.3839   -6.7279 O   0  0  0  0  0  0  0  0  0  0  0  0
    1.0327    1.4643   -6.1250 O   0  0  0  0  0  0  0  0  0  0  0  0
    1.6291   -0.9100   -4.2671 F   0  0  0  0  0  0  0  0  0  0  0  0
    3.7737   -0.8113   -4.6405 F   0  0  0  0  0  0  0  0  0  0  0  0
    2.7277    0.9148   -3.8184 F   0  0  0  0  0  0  0  0  0  0  0  0
   -4.2038   -0.3608   -6.2165 O   0  0  0  0  0  0  0  0  0  0  0  0
   -4.9779   -0.4685   -5.0304 C   0  0  0  0  0  0  0  0  0  0  0  0
   -5.9584   -0.8296   -5.3436 H   0  0  0  0  0  0  0  0  0  0  0  0
   -5.0926    0.5034   -4.5335 H   0  0  0  0  0  0  0  0  0  0  0  0
   -4.5375   -1.1848   -4.3244 H   0  0  0  0  0  0  0  0  0  0  0  0
  1  6  1  0  0  0  0
  2  1  2  0  0  0  0
  2  3  1  0  0  0  0
  3 17  1  0  0  0  0
  3  4  2  0  0  0  0
  4  5  1  0  0  0  0
  4  9  1  0  0  0  0
  5 10  1  0  0  0  0
  6  5  2  0  0  0  0
  7  1  1  0  0  0  0
  8  2  1  0  0  0  0
 11 12  3  0  0  0  0
 13 17  1  0  0  0  0
 13 14  1  0  0  0  0
 14 19  1  0  0  0  0
 14 18  1  0  0  0  0
 14 20  1  0  0  0  0
 15 13  2  0  0  0  0
 16 13  2  0  0  0  0
 21  6  1  0  0  0  0
 21 22  1  0  0  0  0
 22 24  1  0  0  0  0
 22 25  1  0  0  0  0
 23 22  1  0  0  0  0
M  END
