Coordinates from ORCA-job p-CH3O-Ph-N2-OTf-B3LYP-6-31G_dp-scan-d09-49-n400
 OpenBabel02121707583D

 25 24  0  0  0  0  0  0  0  0999 V2000
   -1.8339   -0.4208   -6.1181 C   0  0  0  0  0  0  0  0  0  0  0  0
   -0.9082    0.5612   -6.4483 C   0  0  0  0  0  0  0  0  0  0  0  0
   -1.3326    1.8451   -6.1755 C   0  0  0  0  0  0  0  0  0  0  0  0
   -2.5206    2.2757   -5.6367 C   0  0  0  0  0  0  0  0  0  0  0  0
   -3.4257    1.2605   -5.3160 C   0  0  0  0  0  0  0  0  0  0  0  0
   -3.0834   -0.0847   -5.5547 C   0  0  0  0  0  0  0  0  0  0  0  0
   -1.5972   -1.4669   -6.2793 H   0  0  0  0  0  0  0  0  0  0  0  0
    0.0689    0.3558   -6.8703 H   0  0  0  0  0  0  0  0  0  0  0  0
   -2.7412    3.3214   -5.4632 H   0  0  0  0  0  0  0  0  0  0  0  0
   -4.3807    1.5296   -4.8841 H   0  0  0  0  0  0  0  0  0  0  0  0
   -0.2065    3.0595   -6.5678 N   0  0  0  0  0  0  0  0  0  0  0  0
    0.8211    3.3521   -6.9024 N   0  0  0  0  0  0  0  0  0  0  0  0
    2.7015    1.1865   -5.9429 S   0  0  0  0  0  0  0  0  0  0  0  0
    2.8567   -0.6708   -5.9748 C   0  0  0  0  0  0  0  0  0  0  0  0
    2.0165    1.4352   -7.2764 O   0  0  0  0  0  0  0  0  0  0  0  0
    4.0799    1.6729   -5.8555 O   0  0  0  0  0  0  0  0  0  0  0  0
    1.7912    1.4631   -4.8112 O   0  0  0  0  0  0  0  0  0  0  0  0
    1.6395   -1.2459   -6.1429 F   0  0  0  0  0  0  0  0  0  0  0  0
    3.6426   -1.0723   -6.9786 F   0  0  0  0  0  0  0  0  0  0  0  0
    3.3646   -1.1191   -4.8219 F   0  0  0  0  0  0  0  0  0  0  0  0
   -3.8872   -1.1314   -5.2784 O   0  0  0  0  0  0  0  0  0  0  0  0
   -5.1614   -0.8925   -4.6819 C   0  0  0  0  0  0  0  0  0  0  0  0
   -5.6108   -1.8757   -4.5440 H   0  0  0  0  0  0  0  0  0  0  0  0
   -5.8006   -0.2885   -5.3373 H   0  0  0  0  0  0  0  0  0  0  0  0
   -5.0583   -0.4001   -3.7077 H   0  0  0  0  0  0  0  0  0  0  0  0
  1  6  2  0  0  0  0
  2  3  2  0  0  0  0
  2  1  1  0  0  0  0
  3  4  1  0  0  0  0
  4  9  1  0  0  0  0
  4  5  2  0  0  0  0
  5 10  1  0  0  0  0
  6  5  1  0  0  0  0
  6 21  1  0  0  0  0
  7  1  1  0  0  0  0
  8  2  1  0  0  0  0
 11  3  1  0  0  0  0
 12 11  2  0  0  0  0
 13 16  2  0  0  0  0
 13 17  1  0  0  0  0
 14 13  1  0  0  0  0
 14 20  1  0  0  0  0
 15 13  2  0  0  0  0
 18 14  1  0  0  0  0
 19 14  1  0  0  0  0
 21 22  1  0  0  0  0
 22 23  1  0  0  0  0
 22 25  1  0  0  0  0
 24 22  1  0  0  0  0
M  RAD  2  12   2  17   2
M  END
