Coordinates from ORCA-job p-CH3O-Ph-N2-OTf-B3LYP-6-31G_dp-scan-d09-49-n400
 OpenBabel02121707583D

 25 24  0  0  0  0  0  0  0  0999 V2000
   -2.1899    0.1406   -7.3245 C   0  0  0  0  0  0  0  0  0  0  0  0
   -0.8691    0.5676   -7.3398 C   0  0  0  0  0  0  0  0  0  0  0  0
   -0.2553    0.9117   -6.1344 C   0  0  0  0  0  0  0  0  0  0  0  0
   -0.9411    0.8464   -4.9289 C   0  0  0  0  0  0  0  0  0  0  0  0
   -2.2733    0.4253   -4.9137 C   0  0  0  0  0  0  0  0  0  0  0  0
   -2.9016    0.0666   -6.1145 C   0  0  0  0  0  0  0  0  0  0  0  0
   -2.6974   -0.1397   -8.2412 H   0  0  0  0  0  0  0  0  0  0  0  0
   -0.3145    0.6313   -8.2690 H   0  0  0  0  0  0  0  0  0  0  0  0
   -0.4389    1.1301   -4.0103 H   0  0  0  0  0  0  0  0  0  0  0  0
   -2.8025    0.3832   -3.9692 H   0  0  0  0  0  0  0  0  0  0  0  0
   -1.3563    4.1917   -6.5647 N   0  0  0  0  0  0  0  0  0  0  0  0
   -2.4502    4.3497   -6.5483 N   0  0  0  0  0  0  0  0  0  0  0  0
    2.3478    0.4539   -6.3861 S   0  0  0  0  0  0  0  0  0  0  0  0
    2.6462   -0.1567   -4.6424 C   0  0  0  0  0  0  0  0  0  0  0  0
    1.9737   -0.6995   -7.1883 O   0  0  0  0  0  0  0  0  0  0  0  0
    3.4462    1.3384   -6.7216 O   0  0  0  0  0  0  0  0  0  0  0  0
    1.0571    1.4361   -6.1240 O   0  0  0  0  0  0  0  0  0  0  0  0
    1.6351   -0.9395   -4.2600 F   0  0  0  0  0  0  0  0  0  0  0  0
    3.7811   -0.8523   -4.6278 F   0  0  0  0  0  0  0  0  0  0  0  0
    2.7416    0.8807   -3.8121 F   0  0  0  0  0  0  0  0  0  0  0  0
   -4.1898   -0.3600   -6.2166 O   0  0  0  0  0  0  0  0  0  0  0  0
   -4.9647   -0.4633   -5.0305 C   0  0  0  0  0  0  0  0  0  0  0  0
   -5.9463   -0.8219   -5.3435 H   0  0  0  0  0  0  0  0  0  0  0  0
   -5.0766    0.5097   -4.5352 H   0  0  0  0  0  0  0  0  0  0  0  0
   -4.5268   -1.1799   -4.3233 H   0  0  0  0  0  0  0  0  0  0  0  0
  1  6  1  0  0  0  0
  2  1  2  0  0  0  0
  2  3  1  0  0  0  0
  3 17  1  0  0  0  0
  3  4  2  0  0  0  0
  4  5  1  0  0  0  0
  4  9  1  0  0  0  0
  5 10  1  0  0  0  0
  6  5  2  0  0  0  0
  7  1  1  0  0  0  0
  8  2  1  0  0  0  0
 11 12  3  0  0  0  0
 13 17  1  0  0  0  0
 13 14  1  0  0  0  0
 14 19  1  0  0  0  0
 14 18  1  0  0  0  0
 14 20  1  0  0  0  0
 15 13  2  0  0  0  0
 16 13  2  0  0  0  0
 21  6  1  0  0  0  0
 21 22  1  0  0  0  0
 22 24  1  0  0  0  0
 22 25  1  0  0  0  0
 23 22  1  0  0  0  0
M  END
