Coordinates from ORCA-job p-CH3O-Ph-N2-OTf-B3LYP-6-31G_dp-scan-d09-49-n400
 OpenBabel02121707583D

 25 24  0  0  0  0  0  0  0  0999 V2000
   -2.0907    0.1002   -7.3331 C   0  0  0  0  0  0  0  0  0  0  0  0
   -0.7563    0.4823   -7.3496 C   0  0  0  0  0  0  0  0  0  0  0  0
   -0.1374    0.8293   -6.1478 C   0  0  0  0  0  0  0  0  0  0  0  0
   -0.8305    0.8116   -4.9451 C   0  0  0  0  0  0  0  0  0  0  0  0
   -2.1759    0.4352   -4.9288 C   0  0  0  0  0  0  0  0  0  0  0  0
   -2.8099    0.0736   -6.1257 C   0  0  0  0  0  0  0  0  0  0  0  0
   -2.6031   -0.1807   -8.2470 H   0  0  0  0  0  0  0  0  0  0  0  0
   -0.1951    0.5084   -8.2767 H   0  0  0  0  0  0  0  0  0  0  0  0
   -0.3234    1.0966   -4.0295 H   0  0  0  0  0  0  0  0  0  0  0  0
   -2.7113    0.4298   -3.9868 H   0  0  0  0  0  0  0  0  0  0  0  0
   -2.3934    5.1282   -6.6409 N   0  0  0  0  0  0  0  0  0  0  0  0
   -3.4019    4.6894   -6.5302 N   0  0  0  0  0  0  0  0  0  0  0  0
    2.4505    0.2751   -6.3611 S   0  0  0  0  0  0  0  0  0  0  0  0
    2.6886   -0.3240   -4.6036 C   0  0  0  0  0  0  0  0  0  0  0  0
    2.0513   -0.8738   -7.1575 O   0  0  0  0  0  0  0  0  0  0  0  0
    3.5880    1.1144   -6.6829 O   0  0  0  0  0  0  0  0  0  0  0  0
    1.1927    1.3089   -6.1416 O   0  0  0  0  0  0  0  0  0  0  0  0
    1.6560   -1.0890   -4.2441 F   0  0  0  0  0  0  0  0  0  0  0  0
    3.8128   -1.0348   -4.5498 F   0  0  0  0  0  0  0  0  0  0  0  0
    2.7744    0.7197   -3.7798 F   0  0  0  0  0  0  0  0  0  0  0  0
   -4.1110   -0.3125   -6.2263 O   0  0  0  0  0  0  0  0  0  0  0  0
   -4.8943   -0.3683   -5.0425 C   0  0  0  0  0  0  0  0  0  0  0  0
   -5.8846   -0.7041   -5.3535 H   0  0  0  0  0  0  0  0  0  0  0  0
   -4.9797    0.6176   -4.5680 H   0  0  0  0  0  0  0  0  0  0  0  0
   -4.4816   -1.0828   -4.3183 H   0  0  0  0  0  0  0  0  0  0  0  0
  1  6  1  0  0  0  0
  2  1  2  0  0  0  0
  2  3  1  0  0  0  0
  3 17  1  0  0  0  0
  3  4  2  0  0  0  0
  4  5  1  0  0  0  0
  4  9  1  0  0  0  0
  5 10  1  0  0  0  0
  6  5  2  0  0  0  0
  7  1  1  0  0  0  0
  8  2  1  0  0  0  0
 11 12  3  0  0  0  0
 13 17  1  0  0  0  0
 13 14  1  0  0  0  0
 14 19  1  0  0  0  0
 14 18  1  0  0  0  0
 14 20  1  0  0  0  0
 15 13  2  0  0  0  0
 16 13  2  0  0  0  0
 21  6  1  0  0  0  0
 21 22  1  0  0  0  0
 22 24  1  0  0  0  0
 22 25  1  0  0  0  0
 23 22  1  0  0  0  0
M  END
