Coordinates from ORCA-job p-CH3O-Ph-N2-OTf-B3LYP-6-31G_dp-scan-d09-49-n400
 OpenBabel02121707583D

 25 24  0  0  0  0  0  0  0  0999 V2000
   -2.1563    0.1314   -7.3257 C   0  0  0  0  0  0  0  0  0  0  0  0
   -0.8303    0.5423   -7.3410 C   0  0  0  0  0  0  0  0  0  0  0  0
   -0.2133    0.8815   -6.1360 C   0  0  0  0  0  0  0  0  0  0  0  0
   -0.9009    0.8285   -4.9309 C   0  0  0  0  0  0  0  0  0  0  0  0
   -2.2380    0.4233   -4.9157 C   0  0  0  0  0  0  0  0  0  0  0  0
   -2.8695    0.0686   -6.1160 C   0  0  0  0  0  0  0  0  0  0  0  0
   -2.6665   -0.1448   -8.2421 H   0  0  0  0  0  0  0  0  0  0  0  0
   -0.2742    0.5971   -8.2700 H   0  0  0  0  0  0  0  0  0  0  0  0
   -0.3961    1.1088   -4.0127 H   0  0  0  0  0  0  0  0  0  0  0  0
   -2.7685    0.3900   -3.9716 H   0  0  0  0  0  0  0  0  0  0  0  0
   -1.7072    4.5366   -6.6162 N   0  0  0  0  0  0  0  0  0  0  0  0
   -2.8109    4.5008   -6.5670 N   0  0  0  0  0  0  0  0  0  0  0  0
    2.3850    0.3898   -6.3756 S   0  0  0  0  0  0  0  0  0  0  0  0
    2.6625   -0.2201   -4.6280 C   0  0  0  0  0  0  0  0  0  0  0  0
    2.0018   -0.7606   -7.1777 O   0  0  0  0  0  0  0  0  0  0  0  0
    3.4973    1.2591   -6.7051 O   0  0  0  0  0  0  0  0  0  0  0  0
    1.1056    1.3900   -6.1266 O   0  0  0  0  0  0  0  0  0  0  0  0
    1.6448   -0.9990   -4.2555 F   0  0  0  0  0  0  0  0  0  0  0  0
    3.7948   -0.9194   -4.6007 F   0  0  0  0  0  0  0  0  0  0  0  0
    2.7526    0.8179   -3.7977 F   0  0  0  0  0  0  0  0  0  0  0  0
   -4.1625   -0.3431   -6.2180 O   0  0  0  0  0  0  0  0  0  0  0  0
   -4.9396   -0.4341   -5.0324 C   0  0  0  0  0  0  0  0  0  0  0  0
   -5.9249   -0.7822   -5.3452 H   0  0  0  0  0  0  0  0  0  0  0  0
   -5.0407    0.5416   -4.5400 H   0  0  0  0  0  0  0  0  0  0  0  0
   -4.5107   -1.1536   -4.3226 H   0  0  0  0  0  0  0  0  0  0  0  0
  1  6  1  0  0  0  0
  2  1  2  0  0  0  0
  2  3  1  0  0  0  0
  3 17  1  0  0  0  0
  3  4  2  0  0  0  0
  4  5  1  0  0  0  0
  4  9  1  0  0  0  0
  5 10  1  0  0  0  0
  6  5  2  0  0  0  0
  7  1  1  0  0  0  0
  8  2  1  0  0  0  0
 11 12  3  0  0  0  0
 13 17  1  0  0  0  0
 13 14  1  0  0  0  0
 14 19  1  0  0  0  0
 14 18  1  0  0  0  0
 14 20  1  0  0  0  0
 15 13  2  0  0  0  0
 16 13  2  0  0  0  0
 21  6  1  0  0  0  0
 21 22  1  0  0  0  0
 22 24  1  0  0  0  0
 22 25  1  0  0  0  0
 23 22  1  0  0  0  0
M  END
