16
Coordinates from ORCA-job p-NO2-Ph-N2-Cl-B3LYPG-aug-cc-pVDZ-scan-d09-49-n400
  C   -1.55225414633473     -1.61822945577279     -1.34191887489807
  C   -0.14550277834847     -1.60050707179730     -1.33706704755762
  C   0.28955664954351     -0.39788077567441     -0.86077073754631
  C   -0.23465848411362      0.71954974347123     -0.41678040952583
  C   -1.64897345543916      0.67904592917602     -0.43064050967312
  C   -2.26090266718605     -0.49166451138035     -0.89399517119500
  H   -2.09210448903811     -2.49647506450232     -1.68940702806949
  H   0.47103956498519     -2.43171624644791     -1.66769769651924
  H   0.37782729754155      1.68019318468793     -0.03676094813242
  H   -2.24136378388514      1.52731860779875     -0.09330072540190
  N   -3.74268360669882     -0.55153369672870     -0.91541368549007
  O   -4.35218318633833      0.43566104698641     -0.52248716367914
  O   -4.26119555729361     -1.58587051254709     -1.32445784723633
  N   2.40405437492173     -0.21975558789083     -0.79335754664646
  N   3.06804335339110      0.60596246112955     -0.46226865763226
  Cl  1.40240091429296      2.99380194949179      0.48262404920324
