16
Coordinates from ORCA-job p-NO2-Ph-N2-Cl-B3LYPG-aug-cc-pVDZ-scan-d09-49-n400
  C   -1.46844720833013     -1.56518371858510     -1.31274387233627
  C   -0.08734583634706     -1.40776871987027     -1.26317773672448
  C   0.45430136253442     -0.19859395278015     -0.79771951622508
  C   -0.36013311929796      0.86800042267095     -0.38175579780754
  C   -1.74359400054287      0.70612910460066     -0.43658602062161
  C   -2.27066807235343     -0.50103655957691     -0.89736805390792
  H   -1.92618822120903     -2.48564410183491     -1.66464436768639
  H   0.58099713929879     -2.20679159568630     -1.57887185899126
  H   0.09320815267477      1.78924321576257     -0.02626890787372
  H   -2.41368445960653      1.50361491924203     -0.12578519074743
  N   -3.74516034520476     -0.66185777363274     -0.94987564309510
  O   -4.43054604572450      0.28541414407952     -0.58150298050631
  O   -4.18162584609438     -1.73355182927450     -1.35687565684755
  N   1.86434450504128     -0.14005180425028     -0.79014978748307
  N   2.76070842173007      0.55444161261459     -0.49471683960428
  Cl  2.35493357343131      2.44153663652083      0.35434223045801
