Coordinates from ORCA-job 4-MeO-Ph-N2-BF4-B3LYPG-6-31G_dp-MTMO-d009-169-n800
 OpenBabel09051908083D

 22 20  0  0  0  0  0  0  0  0999 V2000
   -0.7127    0.6852    0.5113 C   0  0  0  0  0  0  0  0  0  0  0  0
    0.1563    0.8219   -0.6399 C   0  0  0  0  0  0  0  0  0  0  0  0
   -0.5137    1.6527   -1.3866 C   0  0  0  0  0  0  0  0  0  0  0  0
   -1.6121    2.4188   -1.5342 C   0  0  0  0  0  0  0  0  0  0  0  0
   -2.3892    2.2305   -0.3750 C   0  0  0  0  0  0  0  0  0  0  0  0
   -1.9310    1.3636    0.6457 C   0  0  0  0  0  0  0  0  0  0  0  0
   -0.2742    0.0066    1.2503 H   0  0  0  0  0  0  0  0  0  0  0  0
    1.1285    0.2517   -0.6349 H   0  0  0  0  0  0  0  0  0  0  0  0
   -1.8786    3.0583   -2.3639 H   0  0  0  0  0  0  0  0  0  0  0  0
   -3.3341    2.7537   -0.2743 H   0  0  0  0  0  0  0  0  0  0  0  0
    3.7107    1.9823   -0.7539 N   0  0  0  0  0  0  0  0  0  0  0  0
    4.7128    2.0204   -0.2904 N   0  0  0  0  0  0  0  0  0  0  0  0
    2.3091   -0.4906    1.3278 B   0  0  0  0  0  0  0  0  0  0  0  0
    1.1244   -1.1040    1.8189 F   0  0  0  0  0  0  0  0  0  0  0  0
    2.2216    0.8854    1.5439 F   0  0  0  0  0  0  0  0  0  0  0  0
    3.4326   -1.0614    1.8538 F   0  0  0  0  0  0  0  0  0  0  0  0
    2.3027   -0.6807   -0.1251 F   0  0  0  0  0  0  0  0  0  0  0  0
   -2.7323    1.2503    1.7218 O   0  0  0  0  0  0  0  0  0  0  0  0
   -2.2951    0.4074    2.7975 C   0  0  0  0  0  0  0  0  0  0  0  0
   -3.0635    0.4929    3.5655 H   0  0  0  0  0  0  0  0  0  0  0  0
   -1.3310    0.7428    3.1934 H   0  0  0  0  0  0  0  0  0  0  0  0
   -2.2113   -0.6343    2.4695 H   0  0  0  0  0  0  0  0  0  0  0  0
  1  6  1  0  0  0  0
  1  7  1  0  0  0  0
  2  8  1  0  0  0  0
  2  1  2  0  0  0  0
  3  2  1  0  0  0  0
  4  3  2  0  0  0  0
  4  5  1  0  0  0  0
  5 10  1  0  0  0  0
  5  6  2  0  0  0  0
  6 18  1  0  0  0  0
  9  4  1  0  0  0  0
 11 12  3  0  0  0  0
 13 15  1  0  0  0  0
 13 14  1  0  0  0  0
 13 16  1  0  0  0  0
 17 13  1  0  0  0  0
 18 19  1  0  0  0  0
 19 21  1  0  0  0  0
 19 20  1  0  0  0  0
 22 19  1  0  0  0  0
M  RAD  1   3   2
M  END
