Coordinates from ORCA-job 4-MeO-Ph-N2-BF4-B3LYPG-6-31G_dp-MTMO-d009-169-n800
 OpenBabel09051908083D

 22 20  0  0  0  0  0  0  0  0999 V2000
   -1.1534    0.8441    0.2618 C   0  0  0  0  0  0  0  0  0  0  0  0
   -0.5671    0.7969   -1.0624 C   0  0  0  0  0  0  0  0  0  0  0  0
   -1.5368    1.2464   -1.8059 C   0  0  0  0  0  0  0  0  0  0  0  0
   -2.7965    1.7199   -1.8704 C   0  0  0  0  0  0  0  0  0  0  0  0
   -3.2825    1.7374   -0.5488 C   0  0  0  0  0  0  0  0  0  0  0  0
   -2.4539    1.3005    0.5127 C   0  0  0  0  0  0  0  0  0  0  0  0
   -0.4402    0.5044    1.0180 H   0  0  0  0  0  0  0  0  0  0  0  0
    0.5070    0.4529   -1.1497 H   0  0  0  0  0  0  0  0  0  0  0  0
   -3.3552    2.0308   -2.7418 H   0  0  0  0  0  0  0  0  0  0  0  0
   -4.2909    2.0873   -0.3552 H   0  0  0  0  0  0  0  0  0  0  0  0
    8.4933   -0.2139    2.8948 N   0  0  0  0  0  0  0  0  0  0  0  0
    8.2920   -1.1660    2.3708 N   0  0  0  0  0  0  0  0  0  0  0  0
    2.1468    0.5654    0.5863 B   0  0  0  0  0  0  0  0  0  0  0  0
    1.2798   -0.1584    1.4489 F   0  0  0  0  0  0  0  0  0  0  0  0
    1.7133    1.8886    0.5250 F   0  0  0  0  0  0  0  0  0  0  0  0
    3.4564    0.4255    0.9460 F   0  0  0  0  0  0  0  0  0  0  0  0
    1.9520    0.0003   -0.7551 F   0  0  0  0  0  0  0  0  0  0  0  0
   -2.9971    1.3620    1.7433 O   0  0  0  0  0  0  0  0  0  0  0  0
   -2.1789    0.9767    2.8580 C   0  0  0  0  0  0  0  0  0  0  0  0
   -2.7940    1.1441    3.7415 H   0  0  0  0  0  0  0  0  0  0  0  0
   -1.2732    1.5894    2.9102 H   0  0  0  0  0  0  0  0  0  0  0  0
   -1.9012   -0.0805    2.7933 H   0  0  0  0  0  0  0  0  0  0  0  0
  1  6  1  0  0  0  0
  1  7  1  0  0  0  0
  2  1  2  0  0  0  0
  3  2  1  0  0  0  0
  4  3  2  0  0  0  0
  4  5  1  0  0  0  0
  5 10  1  0  0  0  0
  5  6  2  0  0  0  0
  6 18  1  0  0  0  0
  8  2  1  0  0  0  0
  9  4  1  0  0  0  0
 12 11  3  0  0  0  0
 13 16  1  0  0  0  0
 13 14  1  0  0  0  0
 15 13  1  0  0  0  0
 17 13  1  0  0  0  0
 18 19  1  0  0  0  0
 19 21  1  0  0  0  0
 19 20  1  0  0  0  0
 22 19  1  0  0  0  0
M  RAD  1   3   2
M  END
