Coordinates from ORCA-job 4-MeO-Ph-N2-BF4-B3LYPG-6-31G_dp-MTMO-d009-169-n800
 OpenBabel09051908083D

 22 20  0  0  0  0  0  0  0  0999 V2000
   -0.8884    0.7458    0.2807 C   0  0  0  0  0  0  0  0  0  0  0  0
   -0.4156    0.6367   -1.0843 C   0  0  0  0  0  0  0  0  0  0  0  0
   -1.3662    1.2242   -1.7523 C   0  0  0  0  0  0  0  0  0  0  0  0
   -2.5490    1.8683   -1.7204 C   0  0  0  0  0  0  0  0  0  0  0  0
   -2.9291    1.9319   -0.3658 C   0  0  0  0  0  0  0  0  0  0  0  0
   -2.0931    1.3709    0.6294 C   0  0  0  0  0  0  0  0  0  0  0  0
   -0.1797    0.2929    0.9790 H   0  0  0  0  0  0  0  0  0  0  0  0
    0.5840    0.1338   -1.2566 H   0  0  0  0  0  0  0  0  0  0  0  0
   -3.1210    2.2685   -2.5454 H   0  0  0  0  0  0  0  0  0  0  0  0
   -3.8633    2.4128   -0.0958 H   0  0  0  0  0  0  0  0  0  0  0  0
    5.0863    0.8125    3.1085 N   0  0  0  0  0  0  0  0  0  0  0  0
    5.7143    0.7781    2.1999 N   0  0  0  0  0  0  0  0  0  0  0  0
    2.3613   -0.0707    0.3203 B   0  0  0  0  0  0  0  0  0  0  0  0
    1.4549   -0.6369    1.2552 F   0  0  0  0  0  0  0  0  0  0  0  0
    2.1801    1.3096    0.2993 F   0  0  0  0  0  0  0  0  0  0  0  0
    3.6505   -0.4582    0.5625 F   0  0  0  0  0  0  0  0  0  0  0  0
    1.9507   -0.5654   -1.0000 F   0  0  0  0  0  0  0  0  0  0  0  0
   -2.5340    1.4852    1.8964 O   0  0  0  0  0  0  0  0  0  0  0  0
   -1.7014    0.9705    2.9461 C   0  0  0  0  0  0  0  0  0  0  0  0
   -2.2320    1.1905    3.8720 H   0  0  0  0  0  0  0  0  0  0  0  0
   -0.7245    1.4640    2.9490 H   0  0  0  0  0  0  0  0  0  0  0  0
   -1.5651   -0.1115    2.8439 H   0  0  0  0  0  0  0  0  0  0  0  0
  1  6  1  0  0  0  0
  1  7  1  0  0  0  0
  2  1  2  0  0  0  0
  3  4  2  0  0  0  0
  3  2  1  0  0  0  0
  4  5  1  0  0  0  0
  5 10  1  0  0  0  0
  5  6  2  0  0  0  0
  6 18  1  0  0  0  0
  8  2  1  0  0  0  0
  9  4  1  0  0  0  0
 12 11  3  0  0  0  0
 13 16  1  0  0  0  0
 13 14  1  0  0  0  0
 15 13  1  0  0  0  0
 17 13  1  0  0  0  0
 18 19  1  0  0  0  0
 19 21  1  0  0  0  0
 19 20  1  0  0  0  0
 22 19  1  0  0  0  0
M  RAD  1   3   2
M  END
