Coordinates from ORCA-job 4-MeO-Ph-N2-BF4-B3LYPG-6-31G_dp-MTMO-d009-169-n800
 OpenBabel09051908083D

 22 20  0  0  0  0  0  0  0  0999 V2000
   -1.1229    0.8389    0.2688 C   0  0  0  0  0  0  0  0  0  0  0  0
   -0.5363    0.7918   -1.0553 C   0  0  0  0  0  0  0  0  0  0  0  0
   -1.5063    1.2401   -1.7991 C   0  0  0  0  0  0  0  0  0  0  0  0
   -2.7665    1.7124   -1.8640 C   0  0  0  0  0  0  0  0  0  0  0  0
   -3.2527    1.7300   -0.5424 C   0  0  0  0  0  0  0  0  0  0  0  0
   -2.4239    1.2942    0.5194 C   0  0  0  0  0  0  0  0  0  0  0  0
   -0.4095    0.5000    1.0253 H   0  0  0  0  0  0  0  0  0  0  0  0
    0.5380    0.4489   -1.1421 H   0  0  0  0  0  0  0  0  0  0  0  0
   -3.3253    2.0226   -2.7355 H   0  0  0  0  0  0  0  0  0  0  0  0
   -4.2615    2.0789   -0.3491 H   0  0  0  0  0  0  0  0  0  0  0  0
    8.1894   -0.1639    2.8228 N   0  0  0  0  0  0  0  0  0  0  0  0
    7.9910   -1.1150    2.2960 N   0  0  0  0  0  0  0  0  0  0  0  0
    2.1773    0.5633    0.5952 B   0  0  0  0  0  0  0  0  0  0  0  0
    1.3105   -0.1608    1.4578 F   0  0  0  0  0  0  0  0  0  0  0  0
    1.7429    1.8861    0.5332 F   0  0  0  0  0  0  0  0  0  0  0  0
    3.4868    0.4246    0.9559 F   0  0  0  0  0  0  0  0  0  0  0  0
    1.9836   -0.0025   -0.7458 F   0  0  0  0  0  0  0  0  0  0  0  0
   -2.9673    1.3554    1.7499 O   0  0  0  0  0  0  0  0  0  0  0  0
   -2.1489    0.9713    2.8648 C   0  0  0  0  0  0  0  0  0  0  0  0
   -2.7643    1.1384    3.7482 H   0  0  0  0  0  0  0  0  0  0  0  0
   -1.2437    1.5847    2.9169 H   0  0  0  0  0  0  0  0  0  0  0  0
   -1.8704   -0.0858    2.8004 H   0  0  0  0  0  0  0  0  0  0  0  0
  1  6  1  0  0  0  0
  1  7  1  0  0  0  0
  2  1  2  0  0  0  0
  3  2  1  0  0  0  0
  4  3  2  0  0  0  0
  4  5  1  0  0  0  0
  5 10  1  0  0  0  0
  5  6  2  0  0  0  0
  6 18  1  0  0  0  0
  8  2  1  0  0  0  0
  9  4  1  0  0  0  0
 12 11  3  0  0  0  0
 13 16  1  0  0  0  0
 13 14  1  0  0  0  0
 15 13  1  0  0  0  0
 17 13  1  0  0  0  0
 18 19  1  0  0  0  0
 19 21  1  0  0  0  0
 19 20  1  0  0  0  0
 22 19  1  0  0  0  0
M  RAD  1   3   2
M  END
