Coordinates from ORCA-job 4-MeO-Ph-N2-BF4-B3LYPG-6-31G_dp-MTMO-d009-169-n800
 OpenBabel09051908083D

 22 20  0  0  0  0  0  0  0  0999 V2000
   -0.7742    0.7137    0.4793 C   0  0  0  0  0  0  0  0  0  0  0  0
    0.0583    0.8928   -0.6930 C   0  0  0  0  0  0  0  0  0  0  0  0
   -0.6606    1.7071   -1.4114 C   0  0  0  0  0  0  0  0  0  0  0  0
   -1.7975    2.4206   -1.5289 C   0  0  0  0  0  0  0  0  0  0  0  0
   -2.5367    2.1922   -0.3524 C   0  0  0  0  0  0  0  0  0  0  0  0
   -2.0168    1.3375    0.6494 C   0  0  0  0  0  0  0  0  0  0  0  0
   -0.2830    0.0637    1.2111 H   0  0  0  0  0  0  0  0  0  0  0  0
    1.0554    0.3700   -0.7040 H   0  0  0  0  0  0  0  0  0  0  0  0
   -2.1137    3.0496   -2.3492 H   0  0  0  0  0  0  0  0  0  0  0  0
   -3.5002    2.6738   -0.2247 H   0  0  0  0  0  0  0  0  0  0  0  0
    4.3788    1.6700   -0.5948 N   0  0  0  0  0  0  0  0  0  0  0  0
    5.2323    1.3197    0.0133 N   0  0  0  0  0  0  0  0  0  0  0  0
    2.3099   -0.2516    1.2585 B   0  0  0  0  0  0  0  0  0  0  0  0
    1.1954   -0.9032    1.8519 F   0  0  0  0  0  0  0  0  0  0  0  0
    2.1444    1.1283    1.3882 F   0  0  0  0  0  0  0  0  0  0  0  0
    3.4967   -0.7107    1.7576 F   0  0  0  0  0  0  0  0  0  0  0  0
    2.2465   -0.5394   -0.1760 F   0  0  0  0  0  0  0  0  0  0  0  0
   -2.7837    1.1826    1.7448 O   0  0  0  0  0  0  0  0  0  0  0  0
   -2.2887    0.3401    2.7960 C   0  0  0  0  0  0  0  0  0  0  0  0
   -3.0361    0.3919    3.5872 H   0  0  0  0  0  0  0  0  0  0  0  0
   -1.3235    0.6988    3.1679 H   0  0  0  0  0  0  0  0  0  0  0  0
   -2.1832   -0.6939    2.4506 H   0  0  0  0  0  0  0  0  0  0  0  0
  1  6  1  0  0  0  0
  1  7  1  0  0  0  0
  2  1  2  0  0  0  0
  3  2  1  0  0  0  0
  4  3  2  0  0  0  0
  4  5  1  0  0  0  0
  5 10  1  0  0  0  0
  5  6  2  0  0  0  0
  6 18  1  0  0  0  0
  8  2  1  0  0  0  0
  9  4  1  0  0  0  0
 11 12  3  0  0  0  0
 13 15  1  0  0  0  0
 13 16  1  0  0  0  0
 13 14  1  0  0  0  0
 17 13  1  0  0  0  0
 18 19  1  0  0  0  0
 19 21  1  0  0  0  0
 19 20  1  0  0  0  0
 22 19  1  0  0  0  0
M  RAD  1   3   2
M  END
