Coordinates from ORCA-job 4-MeO-Ph-N2-BF4-B3LYPG-6-31G_dp-MTMO-d009-169-n800
 OpenBabel09051908083D

 22 21  0  0  0  0  0  0  0  0999 V2000
   -0.2959    0.5048    0.4025 C   0  0  0  0  0  0  0  0  0  0  0  0
    0.7165    0.7982   -0.5022 C   0  0  0  0  0  0  0  0  0  0  0  0
    0.4016    1.8089   -1.3849 C   0  0  0  0  0  0  0  0  0  0  0  0
   -0.7439    2.5899   -1.4805 C   0  0  0  0  0  0  0  0  0  0  0  0
   -1.7112    2.2849   -0.5375 C   0  0  0  0  0  0  0  0  0  0  0  0
   -1.4800    1.2686    0.4271 C   0  0  0  0  0  0  0  0  0  0  0  0
   -0.1051   -0.2983    1.1114 H   0  0  0  0  0  0  0  0  0  0  0  0
    1.6651    0.2788   -0.4113 H   0  0  0  0  0  0  0  0  0  0  0  0
   -0.8738    3.3716   -2.2177 H   0  0  0  0  0  0  0  0  0  0  0  0
   -2.6435    2.8370   -0.5061 H   0  0  0  0  0  0  0  0  0  0  0  0
    1.6402    2.2291   -2.4409 N   0  0  0  0  0  0  0  0  0  0  0  0
    2.4795    2.4599   -3.1299 N   0  0  0  0  0  0  0  0  0  0  0  0
    1.7503   -0.5082    2.6123 B   0  0  0  0  0  0  0  0  0  0  0  0
    0.7024   -1.4469    2.3579 F   0  0  0  0  0  0  0  0  0  0  0  0
    1.1299    0.7165    2.9560 F   0  0  0  0  0  0  0  0  0  0  0  0
    2.5847   -0.9564    3.6074 F   0  0  0  0  0  0  0  0  0  0  0  0
    2.4647   -0.3291    1.3907 F   0  0  0  0  0  0  0  0  0  0  0  0
   -2.4284    1.1093    1.3472 O   0  0  0  0  0  0  0  0  0  0  0  0
   -2.1472    0.2391    2.4744 C   0  0  0  0  0  0  0  0  0  0  0  0
   -2.9561    0.4270    3.1793 H   0  0  0  0  0  0  0  0  0  0  0  0
   -1.1723    0.4765    2.9086 H   0  0  0  0  0  0  0  0  0  0  0  0
   -2.1578   -0.8076    2.1576 H   0  0  0  0  0  0  0  0  0  0  0  0
  1  6  1  0  0  0  0
  1  7  1  0  0  0  0
  2  8  1  0  0  0  0
  2  1  2  0  0  0  0
  3  2  1  0  0  0  0
  4  3  2  0  0  0  0
  4  5  1  0  0  0  0
  5 10  1  0  0  0  0
  5  6  2  0  0  0  0
  6 18  1  0  0  0  0
  9  4  1  0  0  0  0
 11  3  1  0  0  0  0
 12 11  1  0  0  0  0
 13 15  1  0  0  0  0
 13 16  1  0  0  0  0
 14 13  1  0  0  0  0
 17 13  1  0  0  0  0
 18 19  1  0  0  0  0
 19 21  1  0  0  0  0
 19 20  1  0  0  0  0
 22 19  1  0  0  0  0
M  RAD  2  11   2  12   3
M  END
