Coordinates from ORCA-job 4-MeO-Ph-N2-BF4-B3LYPG-6-31G_dp-MTMO-d009-169-n800
 OpenBabel09051908083D

 22 20  0  0  0  0  0  0  0  0999 V2000
   -0.5737    0.6333    0.7848 C   0  0  0  0  0  0  0  0  0  0  0  0
    0.5644    0.8453   -0.0851 C   0  0  0  0  0  0  0  0  0  0  0  0
    0.1054    1.7170   -0.9361 C   0  0  0  0  0  0  0  0  0  0  0  0
   -0.9311    2.4796   -1.3346 C   0  0  0  0  0  0  0  0  0  0  0  0
   -1.9834    2.2183   -0.4363 C   0  0  0  0  0  0  0  0  0  0  0  0
   -1.7974    1.2961    0.6216 C   0  0  0  0  0  0  0  0  0  0  0  0
   -0.3363   -0.0819    1.5762 H   0  0  0  0  0  0  0  0  0  0  0  0
    1.5278    0.2980    0.1519 H   0  0  0  0  0  0  0  0  0  0  0  0
   -0.9821    3.1608   -2.1723 H   0  0  0  0  0  0  0  0  0  0  0  0
   -2.9328    2.7278   -0.5635 H   0  0  0  0  0  0  0  0  0  0  0  0
    2.9599    2.4251   -3.1870 N   0  0  0  0  0  0  0  0  0  0  0  0
    3.9361    2.5253   -3.6949 N   0  0  0  0  0  0  0  0  0  0  0  0
    2.1917   -0.5184    2.2755 B   0  0  0  0  0  0  0  0  0  0  0  0
    0.9797   -1.2555    2.3259 F   0  0  0  0  0  0  0  0  0  0  0  0
    1.9202    0.8132    2.5847 F   0  0  0  0  0  0  0  0  0  0  0  0
    3.1660   -1.0808    3.0491 F   0  0  0  0  0  0  0  0  0  0  0  0
    2.6205   -0.5396    0.8691 F   0  0  0  0  0  0  0  0  0  0  0  0
   -2.8572    1.1173    1.4333 O   0  0  0  0  0  0  0  0  0  0  0  0
   -2.7043    0.2318    2.5510 C   0  0  0  0  0  0  0  0  0  0  0  0
   -3.6564    0.2636    3.0802 H   0  0  0  0  0  0  0  0  0  0  0  0
   -1.8976    0.5680    3.2109 H   0  0  0  0  0  0  0  0  0  0  0  0
   -2.4996   -0.7908    2.2167 H   0  0  0  0  0  0  0  0  0  0  0  0
  1  7  1  0  0  0  0
  2  8  1  0  0  0  0
  2  1  2  0  0  0  0
  3  2  1  0  0  0  0
  4  3  2  0  0  0  0
  4  5  1  0  0  0  0
  5  6  2  0  0  0  0
  6  1  1  0  0  0  0
  6 18  1  0  0  0  0
  9  4  1  0  0  0  0
 10  5  1  0  0  0  0
 12 11  3  0  0  0  0
 13 14  1  0  0  0  0
 13 15  1  0  0  0  0
 13 16  1  0  0  0  0
 17 13  1  0  0  0  0
 18 19  1  0  0  0  0
 19 20  1  0  0  0  0
 19 21  1  0  0  0  0
 22 19  1  0  0  0  0
M  RAD  1   3   2
M  END
