Coordinates from ORCA-job 4-MeO-Ph-N2-BF4-B3LYPG-6-31G_dp-MTMO-d009-169-n800
 OpenBabel09051908083D

 22 20  0  0  0  0  0  0  0  0999 V2000
   -0.8089    0.7350    0.4620 C   0  0  0  0  0  0  0  0  0  0  0  0
   -0.0061    0.9197   -0.7299 C   0  0  0  0  0  0  0  0  0  0  0  0
   -0.7625    1.7046   -1.4430 C   0  0  0  0  0  0  0  0  0  0  0  0
   -1.9167    2.3924   -1.5421 C   0  0  0  0  0  0  0  0  0  0  0  0
   -2.6247    2.1607   -0.3470 C   0  0  0  0  0  0  0  0  0  0  0  0
   -2.0623    1.3310    0.6526 C   0  0  0  0  0  0  0  0  0  0  0  0
   -0.2895    0.0990    1.1867 H   0  0  0  0  0  0  0  0  0  0  0  0
    1.0006    0.4161   -0.7591 H   0  0  0  0  0  0  0  0  0  0  0  0
   -2.2647    3.0056   -2.3615 H   0  0  0  0  0  0  0  0  0  0  0  0
   -3.5964    2.6209   -0.2034 H   0  0  0  0  0  0  0  0  0  0  0  0
    4.7867    1.5938   -0.4078 N   0  0  0  0  0  0  0  0  0  0  0  0
    5.4895    1.1013    0.2882 N   0  0  0  0  0  0  0  0  0  0  0  0
    2.3031   -0.1991    1.1751 B   0  0  0  0  0  0  0  0  0  0  0  0
    1.2016   -0.8660    1.7773 F   0  0  0  0  0  0  0  0  0  0  0  0
    2.1313    1.1770    1.3248 F   0  0  0  0  0  0  0  0  0  0  0  0
    3.4987   -0.6589    1.6547 F   0  0  0  0  0  0  0  0  0  0  0  0
    2.2220   -0.4710   -0.2608 F   0  0  0  0  0  0  0  0  0  0  0  0
   -2.8009    1.1701    1.7664 O   0  0  0  0  0  0  0  0  0  0  0  0
   -2.2597    0.3559    2.8175 C   0  0  0  0  0  0  0  0  0  0  0  0
   -2.9921    0.3961    3.6233 H   0  0  0  0  0  0  0  0  0  0  0  0
   -1.2984    0.7481    3.1645 H   0  0  0  0  0  0  0  0  0  0  0  0
   -2.1306   -0.6789    2.4829 H   0  0  0  0  0  0  0  0  0  0  0  0
  1  6  1  0  0  0  0
  1  7  1  0  0  0  0
  2  1  2  0  0  0  0
  3  2  1  0  0  0  0
  4  3  2  0  0  0  0
  4  5  1  0  0  0  0
  5 10  1  0  0  0  0
  5  6  2  0  0  0  0
  6 18  1  0  0  0  0
  8  2  1  0  0  0  0
  9  4  1  0  0  0  0
 11 12  3  0  0  0  0
 13 15  1  0  0  0  0
 13 16  1  0  0  0  0
 13 14  1  0  0  0  0
 17 13  1  0  0  0  0
 18 19  1  0  0  0  0
 19 21  1  0  0  0  0
 19 20  1  0  0  0  0
 22 19  1  0  0  0  0
M  RAD  1   3   2
M  END
