Coordinates from ORCA-job 4-MeO-Ph-N2-BF4-B3LYPG-6-31G_dp-MTMO-d009-169-n800
 OpenBabel09051908083D

 22 20  0  0  0  0  0  0  0  0999 V2000
   -0.8536    0.7015    0.3710 C   0  0  0  0  0  0  0  0  0  0  0  0
   -0.2248    0.7331   -0.9335 C   0  0  0  0  0  0  0  0  0  0  0  0
   -1.0547    1.4647   -1.6204 C   0  0  0  0  0  0  0  0  0  0  0  0
   -2.1868    2.1949   -1.6320 C   0  0  0  0  0  0  0  0  0  0  0  0
   -2.7228    2.1159   -0.3320 C   0  0  0  0  0  0  0  0  0  0  0  0
   -2.0491    1.3708    0.6654 C   0  0  0  0  0  0  0  0  0  0  0  0
   -0.2697    0.1018    1.0742 H   0  0  0  0  0  0  0  0  0  0  0  0
    0.7552    0.1835   -1.0613 H   0  0  0  0  0  0  0  0  0  0  0  0
   -2.6289    2.7396   -2.4541 H   0  0  0  0  0  0  0  0  0  0  0  0
   -3.6515    2.6289   -0.1060 H   0  0  0  0  0  0  0  0  0  0  0  0
    4.9482    2.0960    1.1638 N   0  0  0  0  0  0  0  0  0  0  0  0
    5.5003    1.2137    1.5350 N   0  0  0  0  0  0  0  0  0  0  0  0
    2.2878   -0.3970    0.6752 B   0  0  0  0  0  0  0  0  0  0  0  0
    1.2292   -1.0376    1.3707 F   0  0  0  0  0  0  0  0  0  0  0  0
    2.1806    0.9803    0.8680 F   0  0  0  0  0  0  0  0  0  0  0  0
    3.5087   -0.9059    1.0204 F   0  0  0  0  0  0  0  0  0  0  0  0
    2.0493   -0.6388   -0.7518 F   0  0  0  0  0  0  0  0  0  0  0  0
   -2.6300    1.3595    1.8798 O   0  0  0  0  0  0  0  0  0  0  0  0
   -1.9572    0.6637    2.9395 C   0  0  0  0  0  0  0  0  0  0  0  0
   -2.5769    0.8106    3.8234 H   0  0  0  0  0  0  0  0  0  0  0  0
   -0.9587    1.0797    3.1094 H   0  0  0  0  0  0  0  0  0  0  0  0
   -1.8746   -0.4055    2.7165 H   0  0  0  0  0  0  0  0  0  0  0  0
  1  6  1  0  0  0  0
  1  7  1  0  0  0  0
  2  1  2  0  0  0  0
  3  2  1  0  0  0  0
  4  3  2  0  0  0  0
  4  5  1  0  0  0  0
  5 10  1  0  0  0  0
  5  6  2  0  0  0  0
  6 18  1  0  0  0  0
  8  2  1  0  0  0  0
  9  4  1  0  0  0  0
 11 12  3  0  0  0  0
 13 15  1  0  0  0  0
 13 16  1  0  0  0  0
 13 14  1  0  0  0  0
 17 13  1  0  0  0  0
 18 19  1  0  0  0  0
 19 21  1  0  0  0  0
 19 20  1  0  0  0  0
 22 19  1  0  0  0  0
M  RAD  1   3   2
M  END
