Coordinates from ORCA-job 4-MeO-Ph-N2-BF4-B3LYPG-6-31G_dp-MTMO-d009-169-n800
 OpenBabel09051908083D

 22 20  0  0  0  0  0  0  0  0999 V2000
   -1.0641    0.8269    0.2829 C   0  0  0  0  0  0  0  0  0  0  0  0
   -0.4762    0.7793   -1.0405 C   0  0  0  0  0  0  0  0  0  0  0  0
   -1.4457    1.2270   -1.7855 C   0  0  0  0  0  0  0  0  0  0  0  0
   -2.7059    1.6988   -1.8518 C   0  0  0  0  0  0  0  0  0  0  0  0
   -3.1934    1.7170   -0.5306 C   0  0  0  0  0  0  0  0  0  0  0  0
   -2.3654    1.2821    0.5321 C   0  0  0  0  0  0  0  0  0  0  0  0
   -0.3512    0.4887    1.0402 H   0  0  0  0  0  0  0  0  0  0  0  0
    0.5984    0.4372   -1.1259 H   0  0  0  0  0  0  0  0  0  0  0  0
   -3.2641    2.0082   -2.7240 H   0  0  0  0  0  0  0  0  0  0  0  0
   -4.2024    2.0658   -0.3385 H   0  0  0  0  0  0  0  0  0  0  0  0
    7.6004   -0.0666    2.6816 N   0  0  0  0  0  0  0  0  0  0  0  0
    7.4024   -1.0102    2.1414 N   0  0  0  0  0  0  0  0  0  0  0  0
    2.2366    0.5590    0.6147 B   0  0  0  0  0  0  0  0  0  0  0  0
    1.3694   -0.1654    1.4767 F   0  0  0  0  0  0  0  0  0  0  0  0
    1.8005    1.8811    0.5507 F   0  0  0  0  0  0  0  0  0  0  0  0
    3.5458    0.4226    0.9783 F   0  0  0  0  0  0  0  0  0  0  0  0
    2.0462   -0.0084   -0.7258 F   0  0  0  0  0  0  0  0  0  0  0  0
   -2.9099    1.3439    1.7621 O   0  0  0  0  0  0  0  0  0  0  0  0
   -2.0923    0.9606    2.8779 C   0  0  0  0  0  0  0  0  0  0  0  0
   -2.7083    1.1285    3.7607 H   0  0  0  0  0  0  0  0  0  0  0  0
   -1.1871    1.5739    2.9302 H   0  0  0  0  0  0  0  0  0  0  0  0
   -1.8139   -0.0966    2.8146 H   0  0  0  0  0  0  0  0  0  0  0  0
  1  6  1  0  0  0  0
  1  7  1  0  0  0  0
  2  1  2  0  0  0  0
  3  2  1  0  0  0  0
  4  3  2  0  0  0  0
  4  5  1  0  0  0  0
  5 10  1  0  0  0  0
  5  6  2  0  0  0  0
  6 18  1  0  0  0  0
  8  2  1  0  0  0  0
  9  4  1  0  0  0  0
 12 11  3  0  0  0  0
 13 16  1  0  0  0  0
 13 14  1  0  0  0  0
 15 13  1  0  0  0  0
 17 13  1  0  0  0  0
 18 19  1  0  0  0  0
 19 21  1  0  0  0  0
 19 20  1  0  0  0  0
 22 19  1  0  0  0  0
M  RAD  1   3   2
M  END
