Coordinates from ORCA-job 4-MeO-Ph-N2-BF4-B3LYPG-6-31G_dp-MTMO-d009-169-n800
 OpenBabel09051908083D

 22 20  0  0  0  0  0  0  0  0999 V2000
   -1.2124    0.8541    0.2482 C   0  0  0  0  0  0  0  0  0  0  0  0
   -0.6266    0.8063   -1.0762 C   0  0  0  0  0  0  0  0  0  0  0  0
   -1.5953    1.2584   -1.8193 C   0  0  0  0  0  0  0  0  0  0  0  0
   -2.8542    1.7343   -1.8834 C   0  0  0  0  0  0  0  0  0  0  0  0
   -3.3398    1.7521   -0.5616 C   0  0  0  0  0  0  0  0  0  0  0  0
   -2.5120    1.3130    0.4995 C   0  0  0  0  0  0  0  0  0  0  0  0
   -0.4997    0.5127    1.0041 H   0  0  0  0  0  0  0  0  0  0  0  0
    0.4469    0.4602   -1.1640 H   0  0  0  0  0  0  0  0  0  0  0  0
   -3.4124    2.0468   -2.7544 H   0  0  0  0  0  0  0  0  0  0  0  0
   -4.3475    2.1039   -0.3676 H   0  0  0  0  0  0  0  0  0  0  0  0
    9.0825   -0.3114    3.0342 N   0  0  0  0  0  0  0  0  0  0  0  0
    8.8757   -1.2630    2.5115 N   0  0  0  0  0  0  0  0  0  0  0  0
    2.0875    0.5691    0.5703 B   0  0  0  0  0  0  0  0  0  0  0  0
    1.2199   -0.1536    1.4330 F   0  0  0  0  0  0  0  0  0  0  0  0
    1.6562    1.8931    0.5100 F   0  0  0  0  0  0  0  0  0  0  0  0
    3.3971    0.4268    0.9288 F   0  0  0  0  0  0  0  0  0  0  0  0
    1.8908    0.0051   -0.7713 F   0  0  0  0  0  0  0  0  0  0  0  0
   -3.0550    1.3748    1.7302 O   0  0  0  0  0  0  0  0  0  0  0  0
   -2.2373    0.9874    2.8446 C   0  0  0  0  0  0  0  0  0  0  0  0
   -2.8521    1.1554    3.7283 H   0  0  0  0  0  0  0  0  0  0  0  0
   -1.3305    1.5983    2.8971 H   0  0  0  0  0  0  0  0  0  0  0  0
   -1.9617   -0.0704    2.7793 H   0  0  0  0  0  0  0  0  0  0  0  0
  1  6  1  0  0  0  0
  1  7  1  0  0  0  0
  2  1  2  0  0  0  0
  3  2  1  0  0  0  0
  4  3  2  0  0  0  0
  4  5  1  0  0  0  0
  5 10  1  0  0  0  0
  5  6  2  0  0  0  0
  6 18  1  0  0  0  0
  8  2  1  0  0  0  0
  9  4  1  0  0  0  0
 12 11  3  0  0  0  0
 13 16  1  0  0  0  0
 13 14  1  0  0  0  0
 15 13  1  0  0  0  0
 17 13  1  0  0  0  0
 18 19  1  0  0  0  0
 19 21  1  0  0  0  0
 19 20  1  0  0  0  0
 22 19  1  0  0  0  0
M  RAD  1   3   2
M  END
