Coordinates from ORCA-job 4-MeO-Ph-N2-BF4-B3LYPG-6-31G_dp-MTMO-d009-169-n800
 OpenBabel09051908083D

 22 20  0  0  0  0  0  0  0  0999 V2000
   -1.2558    0.8683    0.2376 C   0  0  0  0  0  0  0  0  0  0  0  0
   -0.6705    0.8250   -1.0871 C   0  0  0  0  0  0  0  0  0  0  0  0
   -1.6497    1.2507   -1.8320 C   0  0  0  0  0  0  0  0  0  0  0  0
   -2.9186    1.6988   -1.8977 C   0  0  0  0  0  0  0  0  0  0  0  0
   -3.4030    1.7147   -0.5755 C   0  0  0  0  0  0  0  0  0  0  0  0
   -2.5647    1.3007    0.4875 C   0  0  0  0  0  0  0  0  0  0  0  0
   -0.5352    0.5472    0.9950 H   0  0  0  0  0  0  0  0  0  0  0  0
    0.4106    0.5028   -1.1742 H   0  0  0  0  0  0  0  0  0  0  0  0
   -3.4845    1.9932   -2.7701 H   0  0  0  0  0  0  0  0  0  0  0  0
   -4.4179    2.0459   -0.3825 H   0  0  0  0  0  0  0  0  0  0  0  0
    9.5566   -0.5173    3.1594 N   0  0  0  0  0  0  0  0  0  0  0  0
    9.3383   -1.4615    2.6279 N   0  0  0  0  0  0  0  0  0  0  0  0
    2.0507    0.6615    0.5570 B   0  0  0  0  0  0  0  0  0  0  0  0
    1.2008   -0.0760    1.4249 F   0  0  0  0  0  0  0  0  0  0  0  0
    1.5890    1.9748    0.4893 F   0  0  0  0  0  0  0  0  0  0  0  0
    3.3636    0.5515    0.9145 F   0  0  0  0  0  0  0  0  0  0  0  0
    1.8650    0.0851   -0.7811 F   0  0  0  0  0  0  0  0  0  0  0  0
   -3.1075    1.3591    1.7184 O   0  0  0  0  0  0  0  0  0  0  0  0
   -2.2805    0.9974    2.8344 C   0  0  0  0  0  0  0  0  0  0  0  0
   -2.8975    1.1589    3.7178 H   0  0  0  0  0  0  0  0  0  0  0  0
   -1.3866    1.6276    2.8812 H   0  0  0  0  0  0  0  0  0  0  0  0
   -1.9827   -0.0548    2.7766 H   0  0  0  0  0  0  0  0  0  0  0  0
  1  6  1  0  0  0  0
  1  7  1  0  0  0  0
  2  1  2  0  0  0  0
  3  2  1  0  0  0  0
  4  3  2  0  0  0  0
  4  5  1  0  0  0  0
  5 10  1  0  0  0  0
  5  6  2  0  0  0  0
  6 18  1  0  0  0  0
  8  2  1  0  0  0  0
  9  4  1  0  0  0  0
 12 11  3  0  0  0  0
 13 16  1  0  0  0  0
 13 14  1  0  0  0  0
 15 13  1  0  0  0  0
 17 13  1  0  0  0  0
 18 19  1  0  0  0  0
 19 21  1  0  0  0  0
 19 20  1  0  0  0  0
 22 19  1  0  0  0  0
M  RAD  1   3   2
M  END
