Coordinates from ORCA-job 4-MeO-Ph-N2-BF4-B3LYPG-6-31G_dp-MTMO-d009-169-n800
 OpenBabel09051908083D

 22 20  0  0  0  0  0  0  0  0999 V2000
   -0.5095    0.6451    0.7393 C   0  0  0  0  0  0  0  0  0  0  0  0
    0.6332    0.8479   -0.1158 C   0  0  0  0  0  0  0  0  0  0  0  0
    0.2113    1.7242   -0.9887 C   0  0  0  0  0  0  0  0  0  0  0  0
   -0.8204    2.4916   -1.3947 C   0  0  0  0  0  0  0  0  0  0  0  0
   -1.8851    2.2389   -0.5099 C   0  0  0  0  0  0  0  0  0  0  0  0
   -1.7242    1.3193    0.5538 C   0  0  0  0  0  0  0  0  0  0  0  0
   -0.2944   -0.0679    1.5376 H   0  0  0  0  0  0  0  0  0  0  0  0
    1.5900    0.2999    0.1177 H   0  0  0  0  0  0  0  0  0  0  0  0
   -0.8588    3.1738   -2.2316 H   0  0  0  0  0  0  0  0  0  0  0  0
   -2.8285    2.7560   -0.6500 H   0  0  0  0  0  0  0  0  0  0  0  0
    2.2941    2.2501   -2.6281 N   0  0  0  0  0  0  0  0  0  0  0  0
    3.2620    2.3523   -3.1500 N   0  0  0  0  0  0  0  0  0  0  0  0
    2.2590   -0.5151    2.2428 B   0  0  0  0  0  0  0  0  0  0  0  0
    1.0445   -1.2484    2.2860 F   0  0  0  0  0  0  0  0  0  0  0  0
    1.9868    0.8206    2.5405 F   0  0  0  0  0  0  0  0  0  0  0  0
    3.2213   -1.0719    3.0375 F   0  0  0  0  0  0  0  0  0  0  0  0
    2.7052   -0.5481    0.8462 F   0  0  0  0  0  0  0  0  0  0  0  0
   -2.7995    1.1549    1.3485 O   0  0  0  0  0  0  0  0  0  0  0  0
   -2.6760    0.2709    2.4707 C   0  0  0  0  0  0  0  0  0  0  0  0
   -3.6373    0.3134    2.9821 H   0  0  0  0  0  0  0  0  0  0  0  0
   -1.8784    0.6006    3.1448 H   0  0  0  0  0  0  0  0  0  0  0  0
   -2.4754   -0.7547    2.1428 H   0  0  0  0  0  0  0  0  0  0  0  0
  1  7  1  0  0  0  0
  2  8  1  0  0  0  0
  2  1  2  0  0  0  0
  3  2  1  0  0  0  0
  4  3  2  0  0  0  0
  4  5  1  0  0  0  0
  5  6  2  0  0  0  0
  6  1  1  0  0  0  0
  6 18  1  0  0  0  0
  9  4  1  0  0  0  0
 10  5  1  0  0  0  0
 12 11  3  0  0  0  0
 13 14  1  0  0  0  0
 13 15  1  0  0  0  0
 13 16  1  0  0  0  0
 17 13  1  0  0  0  0
 18 19  1  0  0  0  0
 19 20  1  0  0  0  0
 19 21  1  0  0  0  0
 22 19  1  0  0  0  0
M  RAD  1   3   2
M  END
