Coordinates from ORCA-job 4-MeO-Ph-N2-BF4-B3LYPG-6-31G_dp-MTMO-d009-169-n800
 OpenBabel09051908083D

 22 21  0  0  0  0  0  0  0  0999 V2000
   -0.6086    0.0046    0.0734 C   0  0  0  0  0  0  0  0  0  0  0  0
    0.4050    0.2269   -0.8120 C   0  0  0  0  0  0  0  0  0  0  0  0
    0.6437    1.5507   -1.3187 C   0  0  0  0  0  0  0  0  0  0  0  0
   -0.2193    2.6337   -0.9151 C   0  0  0  0  0  0  0  0  0  0  0  0
   -1.2055    2.3992   -0.0092 C   0  0  0  0  0  0  0  0  0  0  0  0
   -1.3523    1.1030    0.5717 C   0  0  0  0  0  0  0  0  0  0  0  0
   -0.7126   -0.9764    0.5117 H   0  0  0  0  0  0  0  0  0  0  0  0
    1.0642   -0.5747   -1.1202 H   0  0  0  0  0  0  0  0  0  0  0  0
   -0.0411    3.6241   -1.3194 H   0  0  0  0  0  0  0  0  0  0  0  0
   -1.8416    3.1974    0.3542 H   0  0  0  0  0  0  0  0  0  0  0  0
    1.5907    1.7591   -2.0264 N   0  0  0  0  0  0  0  0  0  0  0  0
    2.4875    1.9554   -2.6943 N   0  0  0  0  0  0  0  0  0  0  0  0
    1.5711    0.5041    2.2622 B   0  0  0  0  0  0  0  0  0  0  0  0
    0.9405   -0.7718    2.2964 F   0  0  0  0  0  0  0  0  0  0  0  0
    0.5412    1.4808    2.3549 F   0  0  0  0  0  0  0  0  0  0  0  0
    2.4730    0.6390    3.2915 F   0  0  0  0  0  0  0  0  0  0  0  0
    2.2144    0.6546    1.0016 F   0  0  0  0  0  0  0  0  0  0  0  0
   -2.2334    1.0157    1.5416 O   0  0  0  0  0  0  0  0  0  0  0  0
   -2.2154   -0.1477    2.4091 C   0  0  0  0  0  0  0  0  0  0  0  0
   -2.8029    0.1444    3.2779 H   0  0  0  0  0  0  0  0  0  0  0  0
   -1.1833   -0.3756    2.6847 H   0  0  0  0  0  0  0  0  0  0  0  0
   -2.6952   -0.9928    1.9055 H   0  0  0  0  0  0  0  0  0  0  0  0
  1  7  1  0  0  0  0
  1  6  1  0  0  0  0
  2  1  2  0  0  0  0
  3  4  2  0  0  0  0
  3  2  1  0  0  0  0
  4  5  1  0  0  0  0
  5 10  1  0  0  0  0
  5  6  2  0  0  0  0
  6 18  1  0  0  0  0
  8  2  1  0  0  0  0
  9  4  1  0  0  0  0
 11  3  1  0  0  0  0
 12 11  1  0  0  0  0
 13 14  1  0  0  0  0
 13 15  1  0  0  0  0
 13 16  1  0  0  0  0
 17 13  1  0  0  0  0
 18 19  1  0  0  0  0
 19 21  1  0  0  0  0
 19 20  1  0  0  0  0
 22 19  1  0  0  0  0
M  RAD  2  11   2  12   3
M  END
