Coordinates from ORCA-job 4-MeO-Ph-N2-BF4-B3LYPG-6-31G_dp-MTMO-d009-169-n800
 OpenBabel09051908083D

 22 20  0  0  0  0  0  0  0  0999 V2000
   -0.8076    0.7356    0.4619 C   0  0  0  0  0  0  0  0  0  0  0  0
   -0.0034    0.9204   -0.7292 C   0  0  0  0  0  0  0  0  0  0  0  0
   -0.7595    1.7054   -1.4423 C   0  0  0  0  0  0  0  0  0  0  0  0
   -1.9139    2.3931   -1.5419 C   0  0  0  0  0  0  0  0  0  0  0  0
   -2.6230    2.1613   -0.3476 C   0  0  0  0  0  0  0  0  0  0  0  0
   -2.0611    1.3314    0.6521 C   0  0  0  0  0  0  0  0  0  0  0  0
   -0.2886    0.0988    1.1865 H   0  0  0  0  0  0  0  0  0  0  0  0
    1.0031    0.4167   -0.7575 H   0  0  0  0  0  0  0  0  0  0  0  0
   -2.2608    3.0066   -2.3616 H   0  0  0  0  0  0  0  0  0  0  0  0
   -3.5948    2.6216   -0.2049 H   0  0  0  0  0  0  0  0  0  0  0  0
    4.7705    1.5966   -0.4138 N   0  0  0  0  0  0  0  0  0  0  0  0
    5.4808    1.1079    0.2772 N   0  0  0  0  0  0  0  0  0  0  0  0
    2.3035   -0.2012    1.1796 B   0  0  0  0  0  0  0  0  0  0  0  0
    1.1986   -0.8649    1.7802 F   0  0  0  0  0  0  0  0  0  0  0  0
    2.1362    1.1751    1.3295 F   0  0  0  0  0  0  0  0  0  0  0  0
    3.4966   -0.6658    1.6606 F   0  0  0  0  0  0  0  0  0  0  0  0
    2.2230   -0.4725   -0.2563 F   0  0  0  0  0  0  0  0  0  0  0  0
   -2.8001    1.1698    1.7654 O   0  0  0  0  0  0  0  0  0  0  0  0
   -2.2594    0.3551    2.8164 C   0  0  0  0  0  0  0  0  0  0  0  0
   -2.9919    0.3953    3.6221 H   0  0  0  0  0  0  0  0  0  0  0  0
   -1.2979    0.7468    3.1636 H   0  0  0  0  0  0  0  0  0  0  0  0
   -2.1306   -0.6796    2.4815 H   0  0  0  0  0  0  0  0  0  0  0  0
  1  6  1  0  0  0  0
  1  7  1  0  0  0  0
  2  1  2  0  0  0  0
  3  2  1  0  0  0  0
  4  3  2  0  0  0  0
  4  5  1  0  0  0  0
  5 10  1  0  0  0  0
  5  6  2  0  0  0  0
  6 18  1  0  0  0  0
  8  2  1  0  0  0  0
  9  4  1  0  0  0  0
 11 12  3  0  0  0  0
 13 15  1  0  0  0  0
 13 16  1  0  0  0  0
 13 14  1  0  0  0  0
 17 13  1  0  0  0  0
 18 19  1  0  0  0  0
 19 21  1  0  0  0  0
 19 20  1  0  0  0  0
 22 19  1  0  0  0  0
M  RAD  1   3   2
M  END
