Coordinates from ORCA-job 4-MeO-Ph-N2-BF4-B3LYPG-6-31G_dp-MTMO-d009-169-n800
 OpenBabel09051908083D

 22 20  0  0  0  0  0  0  0  0999 V2000
   -1.4429    0.9019    0.1928 C   0  0  0  0  0  0  0  0  0  0  0  0
   -0.8605    0.8567   -1.1331 C   0  0  0  0  0  0  0  0  0  0  0  0
   -1.8370    1.2935   -1.8751 C   0  0  0  0  0  0  0  0  0  0  0  0
   -3.1020    1.7531   -1.9374 C   0  0  0  0  0  0  0  0  0  0  0  0
   -3.5839    1.7698   -0.6142 C   0  0  0  0  0  0  0  0  0  0  0  0
   -2.7475    1.3454    0.4462 C   0  0  0  0  0  0  0  0  0  0  0  0
   -0.7239    0.5727    0.9481 H   0  0  0  0  0  0  0  0  0  0  0  0
    0.2176    0.5248   -1.2230 H   0  0  0  0  0  0  0  0  0  0  0  0
   -3.6668    2.0548   -2.8080 H   0  0  0  0  0  0  0  0  0  0  0  0
   -4.5954    2.1095   -0.4186 H   0  0  0  0  0  0  0  0  0  0  0  0
   11.4122   -0.8349    3.6106 N   0  0  0  0  0  0  0  0  0  0  0  0
   11.1874   -1.7764    3.0771 N   0  0  0  0  0  0  0  0  0  0  0  0
    1.8621    0.6643    0.5043 B   0  0  0  0  0  0  0  0  0  0  0  0
    1.0078   -0.0680    1.3721 F   0  0  0  0  0  0  0  0  0  0  0  0
    1.4118    1.9817    0.4410 F   0  0  0  0  0  0  0  0  0  0  0  0
    3.1749    0.5417    0.8579 F   0  0  0  0  0  0  0  0  0  0  0  0
    1.6683    0.0930   -0.8351 F   0  0  0  0  0  0  0  0  0  0  0  0
   -3.2877    1.4054    1.6782 O   0  0  0  0  0  0  0  0  0  0  0  0
   -2.4621    1.0331    2.7918 C   0  0  0  0  0  0  0  0  0  0  0  0
   -3.0763    1.1974    3.6766 H   0  0  0  0  0  0  0  0  0  0  0  0
   -1.5627    1.6554    2.8390 H   0  0  0  0  0  0  0  0  0  0  0  0
   -2.1735   -0.0214    2.7303 H   0  0  0  0  0  0  0  0  0  0  0  0
  1  6  1  0  0  0  0
  1  7  1  0  0  0  0
  2  1  2  0  0  0  0
  3  2  1  0  0  0  0
  4  3  2  0  0  0  0
  4  5  1  0  0  0  0
  5 10  1  0  0  0  0
  5  6  2  0  0  0  0
  6 18  1  0  0  0  0
  8  2  1  0  0  0  0
  9  4  1  0  0  0  0
 12 11  3  0  0  0  0
 13 16  1  0  0  0  0
 13 14  1  0  0  0  0
 15 13  1  0  0  0  0
 17 13  1  0  0  0  0
 18 19  1  0  0  0  0
 19 21  1  0  0  0  0
 19 20  1  0  0  0  0
 22 19  1  0  0  0  0
M  RAD  1   3   2
M  END
