Coordinates from ORCA-job 4-MeO-Ph-N2-BF4-B3LYPG-6-31G_dp-MTMO-d009-169-n800
 OpenBabel09051908083D

 22 20  0  0  0  0  0  0  0  0999 V2000
   -1.2431    0.8661    0.2407 C   0  0  0  0  0  0  0  0  0  0  0  0
   -0.6576    0.8230   -1.0839 C   0  0  0  0  0  0  0  0  0  0  0  0
   -1.6370    1.2476   -1.8291 C   0  0  0  0  0  0  0  0  0  0  0  0
   -2.9063    1.6945   -1.8951 C   0  0  0  0  0  0  0  0  0  0  0  0
   -3.3910    1.7104   -0.5730 C   0  0  0  0  0  0  0  0  0  0  0  0
   -2.5525    1.2975    0.4903 C   0  0  0  0  0  0  0  0  0  0  0  0
   -0.5224    0.5460    0.9984 H   0  0  0  0  0  0  0  0  0  0  0  0
    0.4238    0.5018   -1.1707 H   0  0  0  0  0  0  0  0  0  0  0  0
   -3.4724    1.9881   -2.7677 H   0  0  0  0  0  0  0  0  0  0  0  0
   -4.4062    2.0407   -0.3803 H   0  0  0  0  0  0  0  0  0  0  0  0
    9.4327   -0.4973    3.1289 N   0  0  0  0  0  0  0  0  0  0  0  0
    9.2132   -1.4412    2.5974 N   0  0  0  0  0  0  0  0  0  0  0  0
    2.0635    0.6622    0.5606 B   0  0  0  0  0  0  0  0  0  0  0  0
    1.2141   -0.0761    1.4283 F   0  0  0  0  0  0  0  0  0  0  0  0
    1.6008    1.9750    0.4928 F   0  0  0  0  0  0  0  0  0  0  0  0
    3.3765    0.5532    0.9184 F   0  0  0  0  0  0  0  0  0  0  0  0
    1.8787    0.0856   -0.7775 F   0  0  0  0  0  0  0  0  0  0  0  0
   -3.0956    1.3557    1.7211 O   0  0  0  0  0  0  0  0  0  0  0  0
   -2.2685    0.9951    2.8373 C   0  0  0  0  0  0  0  0  0  0  0  0
   -2.8858    1.1563    3.7205 H   0  0  0  0  0  0  0  0  0  0  0  0
   -1.3752    1.6261    2.8841 H   0  0  0  0  0  0  0  0  0  0  0  0
   -1.9697   -0.0568    2.7798 H   0  0  0  0  0  0  0  0  0  0  0  0
  1  6  1  0  0  0  0
  1  7  1  0  0  0  0
  2  1  2  0  0  0  0
  3  2  1  0  0  0  0
  4  3  2  0  0  0  0
  4  5  1  0  0  0  0
  5 10  1  0  0  0  0
  5  6  2  0  0  0  0
  6 18  1  0  0  0  0
  8  2  1  0  0  0  0
  9  4  1  0  0  0  0
 12 11  3  0  0  0  0
 13 16  1  0  0  0  0
 13 14  1  0  0  0  0
 15 13  1  0  0  0  0
 17 13  1  0  0  0  0
 18 19  1  0  0  0  0
 19 21  1  0  0  0  0
 19 20  1  0  0  0  0
 22 19  1  0  0  0  0
M  RAD  1   3   2
M  END
