Coordinates from ORCA-job 4-MeO-Ph-N2-BF4-B3LYPG-6-31G_dp-MTMO-d009-169-n800
 OpenBabel09051908083D

 22 20  0  0  0  0  0  0  0  0999 V2000
   -0.6976    0.6518    0.5217 C   0  0  0  0  0  0  0  0  0  0  0  0
    0.1883    0.7706   -0.6181 C   0  0  0  0  0  0  0  0  0  0  0  0
   -0.4377    1.6389   -1.3598 C   0  0  0  0  0  0  0  0  0  0  0  0
   -1.5119    2.4367   -1.5168 C   0  0  0  0  0  0  0  0  0  0  0  0
   -2.3098    2.2615   -0.3696 C   0  0  0  0  0  0  0  0  0  0  0  0
   -1.8947    1.3688    0.6472 C   0  0  0  0  0  0  0  0  0  0  0  0
   -0.2831   -0.0342    1.2667 H   0  0  0  0  0  0  0  0  0  0  0  0
    1.1493    0.1805   -0.6043 H   0  0  0  0  0  0  0  0  0  0  0  0
   -1.7493    3.0895   -2.3450 H   0  0  0  0  0  0  0  0  0  0  0  0
   -3.2386    2.8140   -0.2756 H   0  0  0  0  0  0  0  0  0  0  0  0
    3.4295    2.0687   -0.8541 N   0  0  0  0  0  0  0  0  0  0  0  0
    4.4445    2.1931   -0.4359 N   0  0  0  0  0  0  0  0  0  0  0  0
    2.3253   -0.5290    1.3607 B   0  0  0  0  0  0  0  0  0  0  0  0
    1.1351   -1.1265    1.8560 F   0  0  0  0  0  0  0  0  0  0  0  0
    2.2488    0.8510    1.5553 F   0  0  0  0  0  0  0  0  0  0  0  0
    3.4434   -1.1006    1.8971 F   0  0  0  0  0  0  0  0  0  0  0  0
    2.3212   -0.7407   -0.0903 F   0  0  0  0  0  0  0  0  0  0  0  0
   -2.7139    1.2719    1.7116 O   0  0  0  0  0  0  0  0  0  0  0  0
   -2.3192    0.4061    2.7851 C   0  0  0  0  0  0  0  0  0  0  0  0
   -3.0929    0.5125    3.5451 H   0  0  0  0  0  0  0  0  0  0  0  0
   -1.3486    0.7041    3.1947 H   0  0  0  0  0  0  0  0  0  0  0  0
   -2.2686   -0.6354    2.4496 H   0  0  0  0  0  0  0  0  0  0  0  0
  1  6  1  0  0  0  0
  1  7  1  0  0  0  0
  2  8  1  0  0  0  0
  2  1  2  0  0  0  0
  3  2  1  0  0  0  0
  4  3  2  0  0  0  0
  4  5  1  0  0  0  0
  5 10  1  0  0  0  0
  5  6  2  0  0  0  0
  6 18  1  0  0  0  0
  9  4  1  0  0  0  0
 11 12  3  0  0  0  0
 13 15  1  0  0  0  0
 13 14  1  0  0  0  0
 13 16  1  0  0  0  0
 17 13  1  0  0  0  0
 18 19  1  0  0  0  0
 19 21  1  0  0  0  0
 19 20  1  0  0  0  0
 22 19  1  0  0  0  0
M  RAD  1   3   2
M  END
