Coordinates from ORCA-job 4-MeO-Ph-N2-BF4-B3LYPG-6-31G_dp-MTMO-d009-169-n800
 OpenBabel09051908083D

 22 20  0  0  0  0  0  0  0  0999 V2000
   -1.2340    0.8647    0.2431 C   0  0  0  0  0  0  0  0  0  0  0  0
   -0.6482    0.8217   -1.0814 C   0  0  0  0  0  0  0  0  0  0  0  0
   -1.6278    1.2454   -1.8269 C   0  0  0  0  0  0  0  0  0  0  0  0
   -2.8975    1.6913   -1.8933 C   0  0  0  0  0  0  0  0  0  0  0  0
   -3.3824    1.7071   -0.5713 C   0  0  0  0  0  0  0  0  0  0  0  0
   -2.5438    1.2951    0.4922 C   0  0  0  0  0  0  0  0  0  0  0  0
   -0.5132    0.5453    1.0009 H   0  0  0  0  0  0  0  0  0  0  0  0
    0.4334    0.5012   -1.1681 H   0  0  0  0  0  0  0  0  0  0  0  0
   -3.4637    1.9842   -2.7661 H   0  0  0  0  0  0  0  0  0  0  0  0
   -4.3979    2.0367   -0.3789 H   0  0  0  0  0  0  0  0  0  0  0  0
    9.3443   -0.4834    3.1071 N   0  0  0  0  0  0  0  0  0  0  0  0
    9.1231   -1.4266    2.5752 N   0  0  0  0  0  0  0  0  0  0  0  0
    2.0728    0.6627    0.5632 B   0  0  0  0  0  0  0  0  0  0  0  0
    1.2237   -0.0762    1.4306 F   0  0  0  0  0  0  0  0  0  0  0  0
    1.6093    1.9753    0.4955 F   0  0  0  0  0  0  0  0  0  0  0  0
    3.3858    0.5546    0.9213 F   0  0  0  0  0  0  0  0  0  0  0  0
    1.8886    0.0863   -0.7751 F   0  0  0  0  0  0  0  0  0  0  0  0
   -3.0872    1.3532    1.7229 O   0  0  0  0  0  0  0  0  0  0  0  0
   -2.2600    0.9935    2.8394 C   0  0  0  0  0  0  0  0  0  0  0  0
   -2.8777    1.1544    3.7224 H   0  0  0  0  0  0  0  0  0  0  0  0
   -1.3672    1.6253    2.8863 H   0  0  0  0  0  0  0  0  0  0  0  0
   -1.9604   -0.0582    2.7822 H   0  0  0  0  0  0  0  0  0  0  0  0
  1  6  1  0  0  0  0
  1  7  1  0  0  0  0
  2  1  2  0  0  0  0
  3  2  1  0  0  0  0
  4  3  2  0  0  0  0
  4  5  1  0  0  0  0
  5 10  1  0  0  0  0
  5  6  2  0  0  0  0
  6 18  1  0  0  0  0
  8  2  1  0  0  0  0
  9  4  1  0  0  0  0
 12 11  3  0  0  0  0
 13 16  1  0  0  0  0
 13 14  1  0  0  0  0
 15 13  1  0  0  0  0
 17 13  1  0  0  0  0
 18 19  1  0  0  0  0
 19 21  1  0  0  0  0
 19 20  1  0  0  0  0
 22 19  1  0  0  0  0
M  RAD  1   3   2
M  END
