Coordinates from ORCA-job 4-MeO-Ph-N2-BF4-B3LYPG-6-31G_dp-MTMO-d009-169-n800
 OpenBabel09051908083D

 22 20  0  0  0  0  0  0  0  0999 V2000
   -0.4867    0.6362    0.7171 C   0  0  0  0  0  0  0  0  0  0  0  0
    0.6404    0.8410   -0.1290 C   0  0  0  0  0  0  0  0  0  0  0  0
    0.2913    1.7409   -1.0381 C   0  0  0  0  0  0  0  0  0  0  0  0
   -0.7644    2.5115   -1.4081 C   0  0  0  0  0  0  0  0  0  0  0  0
   -1.8309    2.2579   -0.5349 C   0  0  0  0  0  0  0  0  0  0  0  0
   -1.6910    1.3285    0.5231 C   0  0  0  0  0  0  0  0  0  0  0  0
   -0.2952   -0.0765    1.5191 H   0  0  0  0  0  0  0  0  0  0  0  0
    1.5855    0.2892    0.0718 H   0  0  0  0  0  0  0  0  0  0  0  0
   -0.8063    3.2103   -2.2310 H   0  0  0  0  0  0  0  0  0  0  0  0
   -2.7695    2.7847   -0.6699 H   0  0  0  0  0  0  0  0  0  0  0  0
    1.9701    2.1354   -2.3078 N   0  0  0  0  0  0  0  0  0  0  0  0
    2.9342    2.2452   -2.8342 N   0  0  0  0  0  0  0  0  0  0  0  0
    2.3276   -0.4933    2.2091 B   0  0  0  0  0  0  0  0  0  0  0  0
    1.0900   -1.1756    2.3552 F   0  0  0  0  0  0  0  0  0  0  0  0
    2.1094    0.8741    2.4116 F   0  0  0  0  0  0  0  0  0  0  0  0
    3.2924   -1.0144    3.0300 F   0  0  0  0  0  0  0  0  0  0  0  0
    2.7283   -0.6503    0.8186 F   0  0  0  0  0  0  0  0  0  0  0  0
   -2.7770    1.1749    1.3039 O   0  0  0  0  0  0  0  0  0  0  0  0
   -2.6853    0.2748    2.4164 C   0  0  0  0  0  0  0  0  0  0  0  0
   -3.6533    0.3277    2.9141 H   0  0  0  0  0  0  0  0  0  0  0  0
   -1.8921    0.5811    3.1062 H   0  0  0  0  0  0  0  0  0  0  0  0
   -2.4976   -0.7498    2.0780 H   0  0  0  0  0  0  0  0  0  0  0  0
  1  7  1  0  0  0  0
  2  8  1  0  0  0  0
  2  1  2  0  0  0  0
  3  2  1  0  0  0  0
  4  3  2  0  0  0  0
  4  5  1  0  0  0  0
  5  6  2  0  0  0  0
  6  1  1  0  0  0  0
  6 18  1  0  0  0  0
  9  4  1  0  0  0  0
 10  5  1  0  0  0  0
 12 11  3  0  0  0  0
 13 14  1  0  0  0  0
 13 15  1  0  0  0  0
 13 16  1  0  0  0  0
 17 13  1  0  0  0  0
 18 19  1  0  0  0  0
 19 20  1  0  0  0  0
 19 21  1  0  0  0  0
 22 19  1  0  0  0  0
M  RAD  1   3   2
M  END
