Coordinates from ORCA-job 4-MeO-Ph-N2-BF4-B3LYPG-6-31G_dp-MTMO-d009-169-n800
 OpenBabel09051908083D

 22 20  0  0  0  0  0  0  0  0999 V2000
   -0.7690    0.7105    0.4824 C   0  0  0  0  0  0  0  0  0  0  0  0
    0.0680    0.8883   -0.6869 C   0  0  0  0  0  0  0  0  0  0  0  0
   -0.6452    1.7065   -1.4065 C   0  0  0  0  0  0  0  0  0  0  0  0
   -1.7793    2.4240   -1.5271 C   0  0  0  0  0  0  0  0  0  0  0  0
   -2.5232    2.1965   -0.3534 C   0  0  0  0  0  0  0  0  0  0  0  0
   -2.0099    1.3385    0.6489 C   0  0  0  0  0  0  0  0  0  0  0  0
   -0.2824    0.0584    1.2152 H   0  0  0  0  0  0  0  0  0  0  0  0
    1.0633    0.3621   -0.6954 H   0  0  0  0  0  0  0  0  0  0  0  0
   -2.0905    3.0553   -2.3476 H   0  0  0  0  0  0  0  0  0  0  0  0
   -3.4854    2.6815   -0.2282 H   0  0  0  0  0  0  0  0  0  0  0  0
    4.3181    1.6836   -0.6209 N   0  0  0  0  0  0  0  0  0  0  0  0
    5.1919    1.3581   -0.0281 N   0  0  0  0  0  0  0  0  0  0  0  0
    2.3111   -0.2615    1.2700 B   0  0  0  0  0  0  0  0  0  0  0  0
    1.1942   -0.9115    1.8603 F   0  0  0  0  0  0  0  0  0  0  0  0
    2.1470    1.1187    1.3992 F   0  0  0  0  0  0  0  0  0  0  0  0
    3.4961   -0.7220    1.7719 F   0  0  0  0  0  0  0  0  0  0  0  0
    2.2510   -0.5493   -0.1648 F   0  0  0  0  0  0  0  0  0  0  0  0
   -2.7812    1.1850    1.7415 O   0  0  0  0  0  0  0  0  0  0  0  0
   -2.2931    0.3392    2.7932 C   0  0  0  0  0  0  0  0  0  0  0  0
   -3.0431    0.3928    3.5819 H   0  0  0  0  0  0  0  0  0  0  0  0
   -1.3279    0.6937    3.1690 H   0  0  0  0  0  0  0  0  0  0  0  0
   -2.1905   -0.6947    2.4468 H   0  0  0  0  0  0  0  0  0  0  0  0
  1  6  1  0  0  0  0
  1  7  1  0  0  0  0
  2  1  2  0  0  0  0
  3  2  1  0  0  0  0
  4  3  2  0  0  0  0
  4  5  1  0  0  0  0
  5 10  1  0  0  0  0
  5  6  2  0  0  0  0
  6 18  1  0  0  0  0
  8  2  1  0  0  0  0
  9  4  1  0  0  0  0
 11 12  3  0  0  0  0
 13 15  1  0  0  0  0
 13 16  1  0  0  0  0
 13 14  1  0  0  0  0
 17 13  1  0  0  0  0
 18 19  1  0  0  0  0
 19 21  1  0  0  0  0
 19 20  1  0  0  0  0
 22 19  1  0  0  0  0
M  RAD  1   3   2
M  END
