Coordinates from ORCA-job 4-MeO-Ph-N2-BF4-B3LYPG-6-31G_dp-MTMO-d009-169-n800
 OpenBabel09051908083D

 22 21  0  0  0  0  0  0  0  0999 V2000
   -0.5967    0.0368    0.1110 C   0  0  0  0  0  0  0  0  0  0  0  0
    0.4212    0.2644   -0.7809 C   0  0  0  0  0  0  0  0  0  0  0  0
    0.5582    1.5656   -1.3055 C   0  0  0  0  0  0  0  0  0  0  0  0
   -0.2946    2.6452   -0.9709 C   0  0  0  0  0  0  0  0  0  0  0  0
   -1.2834    2.4004   -0.0567 C   0  0  0  0  0  0  0  0  0  0  0  0
   -1.3895    1.1192    0.5569 C   0  0  0  0  0  0  0  0  0  0  0  0
   -0.6457   -0.9237    0.6012 H   0  0  0  0  0  0  0  0  0  0  0  0
    1.1248   -0.5151   -1.0393 H   0  0  0  0  0  0  0  0  0  0  0  0
   -0.1468    3.6266   -1.4055 H   0  0  0  0  0  0  0  0  0  0  0  0
   -1.9486    3.1872    0.2783 H   0  0  0  0  0  0  0  0  0  0  0  0
    1.6880    1.8289   -2.1256 N   0  0  0  0  0  0  0  0  0  0  0  0
    2.5843    2.0292   -2.7696 N   0  0  0  0  0  0  0  0  0  0  0  0
    1.6087    0.3997    2.2893 B   0  0  0  0  0  0  0  0  0  0  0  0
    0.9386   -0.8585    2.3025 F   0  0  0  0  0  0  0  0  0  0  0  0
    0.6118    1.4064    2.3840 F   0  0  0  0  0  0  0  0  0  0  0  0
    2.5038    0.4903    3.3316 F   0  0  0  0  0  0  0  0  0  0  0  0
    2.2722    0.5403    1.0390 F   0  0  0  0  0  0  0  0  0  0  0  0
   -2.2763    1.0302    1.5307 O   0  0  0  0  0  0  0  0  0  0  0  0
   -2.2240   -0.1108    2.4222 C   0  0  0  0  0  0  0  0  0  0  0  0
   -2.8292    0.1771    3.2805 H   0  0  0  0  0  0  0  0  0  0  0  0
   -1.1886   -0.3012    2.7130 H   0  0  0  0  0  0  0  0  0  0  0  0
   -2.6684   -0.9850    1.9352 H   0  0  0  0  0  0  0  0  0  0  0  0
  1  6  1  0  0  0  0
  1  7  1  0  0  0  0
  2  1  2  0  0  0  0
  3  4  2  0  0  0  0
  3  2  1  0  0  0  0
  4  5  1  0  0  0  0
  5 10  1  0  0  0  0
  5  6  2  0  0  0  0
  6 18  1  0  0  0  0
  8  2  1  0  0  0  0
  9  4  1  0  0  0  0
 11  3  1  0  0  0  0
 12 11  1  0  0  0  0
 13 14  1  0  0  0  0
 13 15  1  0  0  0  0
 13 16  1  0  0  0  0
 17 13  1  0  0  0  0
 18 19  1  0  0  0  0
 19 21  1  0  0  0  0
 19 20  1  0  0  0  0
 22 19  1  0  0  0  0
M  RAD  2  11   2  12   3
M  END
