Coordinates from ORCA-job 4-MeO-Ph-N2-BF4-B3LYPG-6-31G_dp-MTMO-d009-169-n800
 OpenBabel09051908083D

 22 20  0  0  0  0  0  0  0  0999 V2000
   -1.2395    0.8656    0.2417 C   0  0  0  0  0  0  0  0  0  0  0  0
   -0.6538    0.8225   -1.0829 C   0  0  0  0  0  0  0  0  0  0  0  0
   -1.6333    1.2467   -1.8282 C   0  0  0  0  0  0  0  0  0  0  0  0
   -2.9028    1.6932   -1.8944 C   0  0  0  0  0  0  0  0  0  0  0  0
   -3.3876    1.7090   -0.5723 C   0  0  0  0  0  0  0  0  0  0  0  0
   -2.5491    1.2965    0.4911 C   0  0  0  0  0  0  0  0  0  0  0  0
   -0.5187    0.5457    0.9994 H   0  0  0  0  0  0  0  0  0  0  0  0
    0.4277    0.5016   -1.1697 H   0  0  0  0  0  0  0  0  0  0  0  0
   -3.4689    1.9866   -2.7671 H   0  0  0  0  0  0  0  0  0  0  0  0
   -4.4029    2.0391   -0.3798 H   0  0  0  0  0  0  0  0  0  0  0  0
    9.3974   -0.4917    3.1202 N   0  0  0  0  0  0  0  0  0  0  0  0
    9.1773   -1.4354    2.5885 N   0  0  0  0  0  0  0  0  0  0  0  0
    2.0672    0.6624    0.5617 B   0  0  0  0  0  0  0  0  0  0  0  0
    1.2179   -0.0761    1.4292 F   0  0  0  0  0  0  0  0  0  0  0  0
    1.6042    1.9752    0.4939 F   0  0  0  0  0  0  0  0  0  0  0  0
    3.3802    0.5538    0.9196 F   0  0  0  0  0  0  0  0  0  0  0  0
    1.8827    0.0859   -0.7766 F   0  0  0  0  0  0  0  0  0  0  0  0
   -3.0923    1.3547    1.7218 O   0  0  0  0  0  0  0  0  0  0  0  0
   -2.2651    0.9944    2.8382 C   0  0  0  0  0  0  0  0  0  0  0  0
   -2.8826    1.1555    3.7213 H   0  0  0  0  0  0  0  0  0  0  0  0
   -1.3720    1.6258    2.8850 H   0  0  0  0  0  0  0  0  0  0  0  0
   -1.9660   -0.0574    2.7808 H   0  0  0  0  0  0  0  0  0  0  0  0
  1  6  1  0  0  0  0
  1  7  1  0  0  0  0
  2  1  2  0  0  0  0
  3  2  1  0  0  0  0
  4  3  2  0  0  0  0
  4  5  1  0  0  0  0
  5 10  1  0  0  0  0
  5  6  2  0  0  0  0
  6 18  1  0  0  0  0
  8  2  1  0  0  0  0
  9  4  1  0  0  0  0
 12 11  3  0  0  0  0
 13 16  1  0  0  0  0
 13 14  1  0  0  0  0
 15 13  1  0  0  0  0
 17 13  1  0  0  0  0
 18 19  1  0  0  0  0
 19 21  1  0  0  0  0
 19 20  1  0  0  0  0
 22 19  1  0  0  0  0
M  RAD  1   3   2
M  END
