Coordinates from ORCA-job 4-MeO-Ph-N2-BF4-B3LYPG-6-31G_dp-MTMO-d009-169-n800
 OpenBabel09051908083D

 22 20  0  0  0  0  0  0  0  0999 V2000
   -0.7860    0.7190    0.4734 C   0  0  0  0  0  0  0  0  0  0  0  0
    0.0353    0.8979   -0.7066 C   0  0  0  0  0  0  0  0  0  0  0  0
   -0.6952    1.7036   -1.4231 C   0  0  0  0  0  0  0  0  0  0  0  0
   -1.8369    2.4103   -1.5341 C   0  0  0  0  0  0  0  0  0  0  0  0
   -2.5647    2.1827   -0.3503 C   0  0  0  0  0  0  0  0  0  0  0  0
   -2.0311    1.3359    0.6510 C   0  0  0  0  0  0  0  0  0  0  0  0
   -0.2860    0.0742    1.2036 H   0  0  0  0  0  0  0  0  0  0  0  0
    1.0354    0.3807   -0.7246 H   0  0  0  0  0  0  0  0  0  0  0  0
   -2.1640    3.0338   -2.3544 H   0  0  0  0  0  0  0  0  0  0  0  0
   -3.5301    2.6589   -0.2168 H   0  0  0  0  0  0  0  0  0  0  0  0
    4.5132    1.6542   -0.5251 N   0  0  0  0  0  0  0  0  0  0  0  0
    5.3164    1.2519    0.1184 N   0  0  0  0  0  0  0  0  0  0  0  0
    2.3075   -0.2372    1.2257 B   0  0  0  0  0  0  0  0  0  0  0  0
    1.2003   -0.8952    1.8253 F   0  0  0  0  0  0  0  0  0  0  0  0
    2.1374    1.1415    1.3602 F   0  0  0  0  0  0  0  0  0  0  0  0
    3.4999   -0.6926    1.7160 F   0  0  0  0  0  0  0  0  0  0  0  0
    2.2359   -0.5218   -0.2089 F   0  0  0  0  0  0  0  0  0  0  0  0
   -2.7879    1.1811    1.7534 O   0  0  0  0  0  0  0  0  0  0  0  0
   -2.2784    0.3478    2.8050 C   0  0  0  0  0  0  0  0  0  0  0  0
   -3.0205    0.3974    3.6013 H   0  0  0  0  0  0  0  0  0  0  0  0
   -1.3136    0.7164    3.1680 H   0  0  0  0  0  0  0  0  0  0  0  0
   -2.1669   -0.6870    2.4638 H   0  0  0  0  0  0  0  0  0  0  0  0
  1  6  1  0  0  0  0
  1  7  1  0  0  0  0
  2  1  2  0  0  0  0
  3  2  1  0  0  0  0
  4  3  2  0  0  0  0
  4  5  1  0  0  0  0
  5 10  1  0  0  0  0
  5  6  2  0  0  0  0
  6 18  1  0  0  0  0
  8  2  1  0  0  0  0
  9  4  1  0  0  0  0
 11 12  3  0  0  0  0
 13 15  1  0  0  0  0
 13 16  1  0  0  0  0
 13 14  1  0  0  0  0
 17 13  1  0  0  0  0
 18 19  1  0  0  0  0
 19 21  1  0  0  0  0
 19 20  1  0  0  0  0
 22 19  1  0  0  0  0
M  RAD  1   3   2
M  END
