Coordinates from ORCA-job 4-MeO-Ph-N2-BF4-B3LYPG-6-31G_dp-MTMO-d009-169-n800
 OpenBabel09051908083D

 22 20  0  0  0  0  0  0  0  0999 V2000
   -0.9387    0.7624    0.3008 C   0  0  0  0  0  0  0  0  0  0  0  0
   -0.3914    0.6797   -1.0381 C   0  0  0  0  0  0  0  0  0  0  0  0
   -1.3242    1.2457   -1.7488 C   0  0  0  0  0  0  0  0  0  0  0  0
   -2.5268    1.8525   -1.7727 C   0  0  0  0  0  0  0  0  0  0  0  0
   -2.9790    1.8921   -0.4395 C   0  0  0  0  0  0  0  0  0  0  0  0
   -2.1783    1.3467    0.5926 C   0  0  0  0  0  0  0  0  0  0  0  0
   -0.2507    0.3287    1.0320 H   0  0  0  0  0  0  0  0  0  0  0  0
    0.6300    0.2106   -1.1587 H   0  0  0  0  0  0  0  0  0  0  0  0
   -3.0672    2.2424   -2.6236 H   0  0  0  0  0  0  0  0  0  0  0  0
   -3.9401    2.3421   -0.2148 H   0  0  0  0  0  0  0  0  0  0  0  0
    5.8539    0.3935    2.7791 N   0  0  0  0  0  0  0  0  0  0  0  0
    6.2185    0.7017    1.7826 N   0  0  0  0  0  0  0  0  0  0  0  0
    2.3212    0.0636    0.5242 B   0  0  0  0  0  0  0  0  0  0  0  0
    1.3883   -0.5280    1.4175 F   0  0  0  0  0  0  0  0  0  0  0  0
    2.0898    1.4360    0.4793 F   0  0  0  0  0  0  0  0  0  0  0  0
    3.6090   -0.2728    0.8415 F   0  0  0  0  0  0  0  0  0  0  0  0
    2.0028   -0.4574   -0.8093 F   0  0  0  0  0  0  0  0  0  0  0  0
   -2.6855    1.4349    1.8367 O   0  0  0  0  0  0  0  0  0  0  0  0
   -1.8910    0.9347    2.9225 C   0  0  0  0  0  0  0  0  0  0  0  0
   -2.4716    1.1329    3.8228 H   0  0  0  0  0  0  0  0  0  0  0  0
   -0.9289    1.4538    2.9755 H   0  0  0  0  0  0  0  0  0  0  0  0
   -1.7202   -0.1423    2.8198 H   0  0  0  0  0  0  0  0  0  0  0  0
  1  6  1  0  0  0  0
  1  7  1  0  0  0  0
  2  1  2  0  0  0  0
  3  2  1  0  0  0  0
  4  3  2  0  0  0  0
  4  5  1  0  0  0  0
  5 10  1  0  0  0  0
  5  6  2  0  0  0  0
  6 18  1  0  0  0  0
  8  2  1  0  0  0  0
  9  4  1  0  0  0  0
 12 11  3  0  0  0  0
 13 16  1  0  0  0  0
 13 14  1  0  0  0  0
 15 13  1  0  0  0  0
 17 13  1  0  0  0  0
 18 19  1  0  0  0  0
 19 21  1  0  0  0  0
 19 20  1  0  0  0  0
 22 19  1  0  0  0  0
M  RAD  1   3   2
M  END
