Coordinates from ORCA-job 4-MeO-Ph-N2-BF4-B3LYPG-6-31G_dp-MTMO-d009-169-n800
 OpenBabel09051908083D

 22 20  0  0  0  0  0  0  0  0999 V2000
   -0.8474    0.7349    0.2824 C   0  0  0  0  0  0  0  0  0  0  0  0
   -0.3754    0.6558   -1.0847 C   0  0  0  0  0  0  0  0  0  0  0  0
   -1.3118    1.2846   -1.7359 C   0  0  0  0  0  0  0  0  0  0  0  0
   -2.4685    1.9730   -1.6819 C   0  0  0  0  0  0  0  0  0  0  0  0
   -2.8475    2.0069   -0.3258 C   0  0  0  0  0  0  0  0  0  0  0  0
   -2.0308    1.3886    0.6513 C   0  0  0  0  0  0  0  0  0  0  0  0
   -0.1613    0.2251    0.9644 H   0  0  0  0  0  0  0  0  0  0  0  0
    0.6055    0.1227   -1.2701 H   0  0  0  0  0  0  0  0  0  0  0  0
   -3.0252    2.4201   -2.4932 H   0  0  0  0  0  0  0  0  0  0  0  0
   -3.7659    2.5091   -0.0409 H   0  0  0  0  0  0  0  0  0  0  0  0
    4.6288    1.5348    2.7499 N   0  0  0  0  0  0  0  0  0  0  0  0
    5.3670    0.8810    2.2512 N   0  0  0  0  0  0  0  0  0  0  0  0
    2.3492   -0.2688    0.3339 B   0  0  0  0  0  0  0  0  0  0  0  0
    1.3905   -0.8370    1.2141 F   0  0  0  0  0  0  0  0  0  0  0  0
    2.2561    1.1187    0.4074 F   0  0  0  0  0  0  0  0  0  0  0  0
    3.6067   -0.7517    0.5711 F   0  0  0  0  0  0  0  0  0  0  0  0
    1.9396   -0.6474   -1.0238 F   0  0  0  0  0  0  0  0  0  0  0  0
   -2.4677    1.4773    1.9214 O   0  0  0  0  0  0  0  0  0  0  0  0
   -1.6488    0.9086    2.9542 C   0  0  0  0  0  0  0  0  0  0  0  0
   -2.1721    1.1158    3.8870 H   0  0  0  0  0  0  0  0  0  0  0  0
   -0.6585    1.3746    2.9695 H   0  0  0  0  0  0  0  0  0  0  0  0
   -1.5426   -0.1733    2.8197 H   0  0  0  0  0  0  0  0  0  0  0  0
  1  6  1  0  0  0  0
  1  7  1  0  0  0  0
  2  1  2  0  0  0  0
  3  4  2  0  0  0  0
  3  2  1  0  0  0  0
  4  5  1  0  0  0  0
  5 10  1  0  0  0  0
  5  6  2  0  0  0  0
  6 18  1  0  0  0  0
  8  2  1  0  0  0  0
  9  4  1  0  0  0  0
 12 11  3  0  0  0  0
 13 15  1  0  0  0  0
 13 16  1  0  0  0  0
 13 14  1  0  0  0  0
 17 13  1  0  0  0  0
 18 19  1  0  0  0  0
 19 21  1  0  0  0  0
 19 20  1  0  0  0  0
 22 19  1  0  0  0  0
M  RAD  1   3   2
M  END
