Coordinates from ORCA-job 4-MeO-Ph-N2-BF4-B3LYPG-6-31G_dp-MTMO-d009-169-n800
 OpenBabel09051908083D

 22 20  0  0  0  0  0  0  0  0999 V2000
   -1.1712    0.8471    0.2577 C   0  0  0  0  0  0  0  0  0  0  0  0
   -0.5852    0.7998   -1.0666 C   0  0  0  0  0  0  0  0  0  0  0  0
   -1.5546    1.2500   -1.8099 C   0  0  0  0  0  0  0  0  0  0  0  0
   -2.8141    1.7242   -1.8743 C   0  0  0  0  0  0  0  0  0  0  0  0
   -3.2999    1.7418   -0.5526 C   0  0  0  0  0  0  0  0  0  0  0  0
   -2.4715    1.3043    0.5088 C   0  0  0  0  0  0  0  0  0  0  0  0
   -0.4582    0.5069    1.0138 H   0  0  0  0  0  0  0  0  0  0  0  0
    0.4887    0.4552   -1.1541 H   0  0  0  0  0  0  0  0  0  0  0  0
   -3.3727    2.0356   -2.7455 H   0  0  0  0  0  0  0  0  0  0  0  0
   -4.3081    2.0922   -0.3589 H   0  0  0  0  0  0  0  0  0  0  0  0
    8.6719   -0.2435    2.9372 N   0  0  0  0  0  0  0  0  0  0  0  0
    8.4686   -1.1955    2.4139 N   0  0  0  0  0  0  0  0  0  0  0  0
    2.1289    0.5665    0.5812 B   0  0  0  0  0  0  0  0  0  0  0  0
    1.2618   -0.1570    1.4438 F   0  0  0  0  0  0  0  0  0  0  0  0
    1.6960    1.8900    0.5203 F   0  0  0  0  0  0  0  0  0  0  0  0
    3.4385    0.4260    0.9405 F   0  0  0  0  0  0  0  0  0  0  0  0
    1.9334    0.0019   -0.7602 F   0  0  0  0  0  0  0  0  0  0  0  0
   -3.0146    1.3658    1.7394 O   0  0  0  0  0  0  0  0  0  0  0  0
   -2.1965    0.9800    2.8540 C   0  0  0  0  0  0  0  0  0  0  0  0
   -2.8115    1.1475    3.7376 H   0  0  0  0  0  0  0  0  0  0  0  0
   -1.2905    1.5921    2.9063 H   0  0  0  0  0  0  0  0  0  0  0  0
   -1.9194   -0.0774    2.7891 H   0  0  0  0  0  0  0  0  0  0  0  0
  1  6  1  0  0  0  0
  1  7  1  0  0  0  0
  2  1  2  0  0  0  0
  3  2  1  0  0  0  0
  4  3  2  0  0  0  0
  4  5  1  0  0  0  0
  5 10  1  0  0  0  0
  5  6  2  0  0  0  0
  6 18  1  0  0  0  0
  8  2  1  0  0  0  0
  9  4  1  0  0  0  0
 12 11  3  0  0  0  0
 13 16  1  0  0  0  0
 13 14  1  0  0  0  0
 15 13  1  0  0  0  0
 17 13  1  0  0  0  0
 18 19  1  0  0  0  0
 19 21  1  0  0  0  0
 19 20  1  0  0  0  0
 22 19  1  0  0  0  0
M  RAD  1   3   2
M  END
