Coordinates from ORCA-job 4-MeO-Ph-N2-BF4-B3LYPG-6-31G_dp-MTMO-d009-169-n800
 OpenBabel09051908083D

 22 20  0  0  0  0  0  0  0  0999 V2000
   -0.5296    0.6400    0.7530 C   0  0  0  0  0  0  0  0  0  0  0  0
    0.6143    0.8419   -0.1076 C   0  0  0  0  0  0  0  0  0  0  0  0
    0.1750    1.7148   -0.9704 C   0  0  0  0  0  0  0  0  0  0  0  0
   -0.8547    2.4822   -1.3779 C   0  0  0  0  0  0  0  0  0  0  0  0
   -1.9161    2.2302   -0.4881 C   0  0  0  0  0  0  0  0  0  0  0  0
   -1.7469    1.3112    0.5751 C   0  0  0  0  0  0  0  0  0  0  0  0
   -0.3063   -0.0730    1.5499 H   0  0  0  0  0  0  0  0  0  0  0  0
    1.5724    0.2918    0.1320 H   0  0  0  0  0  0  0  0  0  0  0  0
   -0.8944    3.1617   -2.2173 H   0  0  0  0  0  0  0  0  0  0  0  0
   -2.8609    2.7458   -0.6248 H   0  0  0  0  0  0  0  0  0  0  0  0
    2.5116    2.3224   -2.8221 N   0  0  0  0  0  0  0  0  0  0  0  0
    3.4798    2.4361   -3.3416 N   0  0  0  0  0  0  0  0  0  0  0  0
    2.2305   -0.5199    2.2596 B   0  0  0  0  0  0  0  0  0  0  0  0
    1.0153   -1.2516    2.3045 F   0  0  0  0  0  0  0  0  0  0  0  0
    1.9619    0.8148    2.5607 F   0  0  0  0  0  0  0  0  0  0  0  0
    3.1958   -1.0815    3.0461 F   0  0  0  0  0  0  0  0  0  0  0  0
    2.6710   -0.5500    0.8587 F   0  0  0  0  0  0  0  0  0  0  0  0
   -2.8163    1.1438    1.3770 O   0  0  0  0  0  0  0  0  0  0  0  0
   -2.6819    0.2613    2.4992 C   0  0  0  0  0  0  0  0  0  0  0  0
   -3.6393    0.3020    3.0181 H   0  0  0  0  0  0  0  0  0  0  0  0
   -1.8798    0.5937    3.1666 H   0  0  0  0  0  0  0  0  0  0  0  0
   -2.4813   -0.7641    2.1707 H   0  0  0  0  0  0  0  0  0  0  0  0
  1  7  1  0  0  0  0
  2  8  1  0  0  0  0
  2  1  2  0  0  0  0
  3  2  1  0  0  0  0
  4  3  2  0  0  0  0
  4  5  1  0  0  0  0
  5  6  2  0  0  0  0
  6  1  1  0  0  0  0
  6 18  1  0  0  0  0
  9  4  1  0  0  0  0
 10  5  1  0  0  0  0
 12 11  3  0  0  0  0
 13 14  1  0  0  0  0
 13 15  1  0  0  0  0
 13 16  1  0  0  0  0
 17 13  1  0  0  0  0
 18 19  1  0  0  0  0
 19 20  1  0  0  0  0
 19 21  1  0  0  0  0
 22 19  1  0  0  0  0
M  RAD  1   3   2
M  END
