Coordinates from ORCA-job 4-MeO-Ph-N2-BF4-B3LYPG-6-31G_dp-MTMO-d009-169-n800
 OpenBabel09051908083D

 22 21  0  0  0  0  0  0  0  0999 V2000
   -0.6063   -0.0110    0.0551 C   0  0  0  0  0  0  0  0  0  0  0  0
    0.4046    0.2026   -0.8226 C   0  0  0  0  0  0  0  0  0  0  0  0
    0.7326    1.5472   -1.3460 C   0  0  0  0  0  0  0  0  0  0  0  0
   -0.1706    2.6297   -0.8811 C   0  0  0  0  0  0  0  0  0  0  0  0
   -1.1510    2.3986    0.0180 C   0  0  0  0  0  0  0  0  0  0  0  0
   -1.3223    1.0948    0.5844 C   0  0  0  0  0  0  0  0  0  0  0  0
   -0.7421   -1.0021    0.4626 H   0  0  0  0  0  0  0  0  0  0  0  0
    1.0425   -0.6037   -1.1651 H   0  0  0  0  0  0  0  0  0  0  0  0
    0.0316    3.6193   -1.2780 H   0  0  0  0  0  0  0  0  0  0  0  0
   -1.7723    3.2034    0.3938 H   0  0  0  0  0  0  0  0  0  0  0  0
    1.4827    1.7078   -1.9234 N   0  0  0  0  0  0  0  0  0  0  0  0
    2.3868    1.9039   -2.6244 N   0  0  0  0  0  0  0  0  0  0  0  0
    1.5465    0.5626    2.2380 B   0  0  0  0  0  0  0  0  0  0  0  0
    0.9455   -0.7250    2.2829 F   0  0  0  0  0  0  0  0  0  0  0  0
    0.4910    1.5157    2.3344 F   0  0  0  0  0  0  0  0  0  0  0  0
    2.4536    0.7280    3.2546 F   0  0  0  0  0  0  0  0  0  0  0  0
    2.1698    0.7271    0.9674 F   0  0  0  0  0  0  0  0  0  0  0  0
   -2.2034    1.0083    1.5460 O   0  0  0  0  0  0  0  0  0  0  0  0
   -2.2121   -0.1684    2.3997 C   0  0  0  0  0  0  0  0  0  0  0  0
   -2.7962    0.1258    3.2698 H   0  0  0  0  0  0  0  0  0  0  0  0
   -1.1840   -0.4161    2.6732 H   0  0  0  0  0  0  0  0  0  0  0  0
   -2.7070   -0.9952    1.8818 H   0  0  0  0  0  0  0  0  0  0  0  0
  1  7  1  0  0  0  0
  1  6  1  0  0  0  0
  2  1  2  0  0  0  0
  3  4  2  0  0  0  0
  3  2  1  0  0  0  0
  4  5  1  0  0  0  0
  5 10  1  0  0  0  0
  5  6  2  0  0  0  0
  6 18  1  0  0  0  0
  8  2  1  0  0  0  0
  9  4  1  0  0  0  0
 11  3  1  0  0  0  0
 12 11  1  0  0  0  0
 13 14  1  0  0  0  0
 13 15  1  0  0  0  0
 13 16  1  0  0  0  0
 17 13  1  0  0  0  0
 18 19  1  0  0  0  0
 19 21  1  0  0  0  0
 19 20  1  0  0  0  0
 22 19  1  0  0  0  0
M  RAD  2  11   2  12   3
M  END
