Coordinates from ORCA-job 4-MeO-Ph-N2-BF4-B3LYPG-6-31G_dp-MTMO-d009-169-n800
 OpenBabel09051908083D

 22 20  0  0  0  0  0  0  0  0999 V2000
   -1.6231    0.9372    0.1506 C   0  0  0  0  0  0  0  0  0  0  0  0
   -1.0404    0.8921   -1.1753 C   0  0  0  0  0  0  0  0  0  0  0  0
   -2.0185    1.3236   -1.9181 C   0  0  0  0  0  0  0  0  0  0  0  0
   -3.2854    1.7781   -1.9813 C   0  0  0  0  0  0  0  0  0  0  0  0
   -3.7674    1.7951   -0.6582 C   0  0  0  0  0  0  0  0  0  0  0  0
   -2.9295    1.3759    0.4030 C   0  0  0  0  0  0  0  0  0  0  0  0
   -0.9028    0.6121    0.9064 H   0  0  0  0  0  0  0  0  0  0  0  0
    0.0391    0.5645   -1.2646 H   0  0  0  0  0  0  0  0  0  0  0  0
   -3.8513    2.0761   -2.8525 H   0  0  0  0  0  0  0  0  0  0  0  0
   -4.7803    2.1311   -0.4632 H   0  0  0  0  0  0  0  0  0  0  0  0
   13.2242   -1.2011    4.0403 N   0  0  0  0  0  0  0  0  0  0  0  0
   12.9918   -2.1392    3.5040 N   0  0  0  0  0  0  0  0  0  0  0  0
    1.6832    0.7141    0.4618 B   0  0  0  0  0  0  0  0  0  0  0  0
    0.8322   -0.0205    1.3308 F   0  0  0  0  0  0  0  0  0  0  0  0
    1.2274    2.0295    0.3966 F   0  0  0  0  0  0  0  0  0  0  0  0
    2.9966    0.5975    0.8152 F   0  0  0  0  0  0  0  0  0  0  0  0
    1.4915    0.1399   -0.8767 F   0  0  0  0  0  0  0  0  0  0  0  0
   -3.4700    1.4358    1.6348 O   0  0  0  0  0  0  0  0  0  0  0  0
   -2.6430    1.0689    2.7492 C   0  0  0  0  0  0  0  0  0  0  0  0
   -3.2580    1.2324    3.6336 H   0  0  0  0  0  0  0  0  0  0  0  0
   -1.7461    1.6949    2.7953 H   0  0  0  0  0  0  0  0  0  0  0  0
   -2.3503    0.0154    2.6897 H   0  0  0  0  0  0  0  0  0  0  0  0
  1  6  1  0  0  0  0
  1  7  1  0  0  0  0
  2  1  2  0  0  0  0
  3  2  1  0  0  0  0
  4  3  2  0  0  0  0
  4  5  1  0  0  0  0
  5 10  1  0  0  0  0
  5  6  2  0  0  0  0
  6 18  1  0  0  0  0
  8  2  1  0  0  0  0
  9  4  1  0  0  0  0
 12 11  3  0  0  0  0
 13 16  1  0  0  0  0
 13 14  1  0  0  0  0
 15 13  1  0  0  0  0
 17 13  1  0  0  0  0
 18 19  1  0  0  0  0
 19 21  1  0  0  0  0
 19 20  1  0  0  0  0
 22 19  1  0  0  0  0
M  RAD  1   3   2
M  END
