Coordinates from ORCA-job 4-MeO-Ph-N2-BF4-B3LYPG-6-31G_dp-MTMO-d009-169-n800
 OpenBabel09051908083D

 22 20  0  0  0  0  0  0  0  0999 V2000
   -1.4989    0.9141    0.1800 C   0  0  0  0  0  0  0  0  0  0  0  0
   -0.9153    0.8703   -1.1454 C   0  0  0  0  0  0  0  0  0  0  0  0
   -1.8952    1.2961   -1.8893 C   0  0  0  0  0  0  0  0  0  0  0  0
   -3.1642    1.7442   -1.9537 C   0  0  0  0  0  0  0  0  0  0  0  0
   -3.6471    1.7605   -0.6308 C   0  0  0  0  0  0  0  0  0  0  0  0
   -2.8076    1.3468    0.4313 C   0  0  0  0  0  0  0  0  0  0  0  0
   -0.7775    0.5934    0.9367 H   0  0  0  0  0  0  0  0  0  0  0  0
    0.1659    0.5482   -1.2339 H   0  0  0  0  0  0  0  0  0  0  0  0
   -3.7313    2.0383   -2.8255 H   0  0  0  0  0  0  0  0  0  0  0  0
   -4.6616    2.0918   -0.4368 H   0  0  0  0  0  0  0  0  0  0  0  0
   11.9917   -0.9807    3.7435 N   0  0  0  0  0  0  0  0  0  0  0  0
   11.7604   -1.9218    3.2121 N   0  0  0  0  0  0  0  0  0  0  0  0
    1.8083    0.7082    0.4936 B   0  0  0  0  0  0  0  0  0  0  0  0
    0.9603   -0.0300    1.3627 F   0  0  0  0  0  0  0  0  0  0  0  0
    1.3459    2.0212    0.4267 F   0  0  0  0  0  0  0  0  0  0  0  0
    3.1220    0.5987    0.8482 F   0  0  0  0  0  0  0  0  0  0  0  0
    1.6205    0.1317   -0.8445 F   0  0  0  0  0  0  0  0  0  0  0  0
   -3.3490    1.4056    1.6628 O   0  0  0  0  0  0  0  0  0  0  0  0
   -2.5207    1.0443    2.7780 C   0  0  0  0  0  0  0  0  0  0  0  0
   -3.1368    1.2060    3.6619 H   0  0  0  0  0  0  0  0  0  0  0  0
   -1.6268    1.6745    2.8237 H   0  0  0  0  0  0  0  0  0  0  0  0
   -2.2230   -0.0079    2.7201 H   0  0  0  0  0  0  0  0  0  0  0  0
  1  6  1  0  0  0  0
  1  7  1  0  0  0  0
  2  1  2  0  0  0  0
  3  2  1  0  0  0  0
  4  3  2  0  0  0  0
  4  5  1  0  0  0  0
  5 10  1  0  0  0  0
  5  6  2  0  0  0  0
  6 18  1  0  0  0  0
  8  2  1  0  0  0  0
  9  4  1  0  0  0  0
 12 11  3  0  0  0  0
 13 16  1  0  0  0  0
 13 14  1  0  0  0  0
 15 13  1  0  0  0  0
 17 13  1  0  0  0  0
 18 19  1  0  0  0  0
 19 21  1  0  0  0  0
 19 20  1  0  0  0  0
 22 19  1  0  0  0  0
M  RAD  1   3   2
M  END
