Coordinates from ORCA-job 4-MeO-Ph-N2-BF4-B3LYPG-6-31G_dp-MTMO-d009-169-n800
 OpenBabel09051908083D

 22 20  0  0  0  0  0  0  0  0999 V2000
   -0.4856    0.6308    0.7146 C   0  0  0  0  0  0  0  0  0  0  0  0
    0.6367    0.8358   -0.1288 C   0  0  0  0  0  0  0  0  0  0  0  0
    0.3116    1.7434   -1.0494 C   0  0  0  0  0  0  0  0  0  0  0  0
   -0.7532    2.5155   -1.4056 C   0  0  0  0  0  0  0  0  0  0  0  0
   -1.8202    2.2627   -0.5367 C   0  0  0  0  0  0  0  0  0  0  0  0
   -1.6864    1.3294    0.5191 C   0  0  0  0  0  0  0  0  0  0  0  0
   -0.3017   -0.0814    1.5180 H   0  0  0  0  0  0  0  0  0  0  0  0
    1.5789    0.2829    0.0626 H   0  0  0  0  0  0  0  0  0  0  0  0
   -0.7952    3.2196   -2.2240 H   0  0  0  0  0  0  0  0  0  0  0  0
   -2.7573    2.7926   -0.6689 H   0  0  0  0  0  0  0  0  0  0  0  0
    1.9201    2.1123   -2.2511 N   0  0  0  0  0  0  0  0  0  0  0  0
    2.8783    2.2282   -2.7870 N   0  0  0  0  0  0  0  0  0  0  0  0
    2.3457   -0.4870    2.2006 B   0  0  0  0  0  0  0  0  0  0  0  0
    1.1051   -1.1592    2.3699 F   0  0  0  0  0  0  0  0  0  0  0  0
    2.1357    0.8867    2.3770 F   0  0  0  0  0  0  0  0  0  0  0  0
    3.3115   -0.9940    3.0306 F   0  0  0  0  0  0  0  0  0  0  0  0
    2.7375   -0.6749    0.8147 F   0  0  0  0  0  0  0  0  0  0  0  0
   -2.7749    1.1794    1.2961 O   0  0  0  0  0  0  0  0  0  0  0  0
   -2.6930    0.2747    2.4058 C   0  0  0  0  0  0  0  0  0  0  0  0
   -3.6629    0.3315    2.8994 H   0  0  0  0  0  0  0  0  0  0  0  0
   -1.9011    0.5740    3.0999 H   0  0  0  0  0  0  0  0  0  0  0  0
   -2.5097   -0.7495    2.0644 H   0  0  0  0  0  0  0  0  0  0  0  0
  1  7  1  0  0  0  0
  2  8  1  0  0  0  0
  2  1  2  0  0  0  0
  3  2  1  0  0  0  0
  4  3  2  0  0  0  0
  4  5  1  0  0  0  0
  5  6  2  0  0  0  0
  6  1  1  0  0  0  0
  6 18  1  0  0  0  0
  9  4  1  0  0  0  0
 10  5  1  0  0  0  0
 12 11  3  0  0  0  0
 13 14  1  0  0  0  0
 13 15  1  0  0  0  0
 13 16  1  0  0  0  0
 17 13  1  0  0  0  0
 18 19  1  0  0  0  0
 19 20  1  0  0  0  0
 19 21  1  0  0  0  0
 22 19  1  0  0  0  0
M  RAD  1   3   2
M  END
