Coordinates from ORCA-job 4-MeO-Ph-N2-BF4-B3LYPG-6-31G_dp-MTMO-d009-169-n800
 OpenBabel09051908083D

 22 20  0  0  0  0  0  0  0  0999 V2000
   -1.2468    0.8668    0.2398 C   0  0  0  0  0  0  0  0  0  0  0  0
   -0.6613    0.8236   -1.0848 C   0  0  0  0  0  0  0  0  0  0  0  0
   -1.6406    1.2485   -1.8299 C   0  0  0  0  0  0  0  0  0  0  0  0
   -2.9098    1.6958   -1.8959 C   0  0  0  0  0  0  0  0  0  0  0  0
   -3.3945    1.7116   -0.5737 C   0  0  0  0  0  0  0  0  0  0  0  0
   -2.5560    1.2984    0.4895 C   0  0  0  0  0  0  0  0  0  0  0  0
   -0.5261    0.5463    0.9974 H   0  0  0  0  0  0  0  0  0  0  0  0
    0.4201    0.5020   -1.1717 H   0  0  0  0  0  0  0  0  0  0  0  0
   -3.4758    1.9897   -2.7684 H   0  0  0  0  0  0  0  0  0  0  0  0
   -4.4095    2.0422   -0.3810 H   0  0  0  0  0  0  0  0  0  0  0  0
    9.4684   -0.5028    3.1372 N   0  0  0  0  0  0  0  0  0  0  0  0
    9.2490   -1.4470    2.6063 N   0  0  0  0  0  0  0  0  0  0  0  0
    2.0598    0.6619    0.5597 B   0  0  0  0  0  0  0  0  0  0  0  0
    1.2102   -0.0761    1.4275 F   0  0  0  0  0  0  0  0  0  0  0  0
    1.5975    1.9749    0.4918 F   0  0  0  0  0  0  0  0  0  0  0  0
    3.3728    0.5526    0.9174 F   0  0  0  0  0  0  0  0  0  0  0  0
    1.8747    0.0853   -0.7784 F   0  0  0  0  0  0  0  0  0  0  0  0
   -3.0991    1.3567    1.7203 O   0  0  0  0  0  0  0  0  0  0  0  0
   -2.2720    0.9957    2.8365 C   0  0  0  0  0  0  0  0  0  0  0  0
   -2.8892    1.1570    3.7197 H   0  0  0  0  0  0  0  0  0  0  0  0
   -1.3785    1.6265    2.8833 H   0  0  0  0  0  0  0  0  0  0  0  0
   -1.9735   -0.0562    2.7789 H   0  0  0  0  0  0  0  0  0  0  0  0
  1  6  1  0  0  0  0
  1  7  1  0  0  0  0
  2  1  2  0  0  0  0
  3  2  1  0  0  0  0
  4  3  2  0  0  0  0
  4  5  1  0  0  0  0
  5 10  1  0  0  0  0
  5  6  2  0  0  0  0
  6 18  1  0  0  0  0
  8  2  1  0  0  0  0
  9  4  1  0  0  0  0
 12 11  3  0  0  0  0
 13 16  1  0  0  0  0
 13 14  1  0  0  0  0
 15 13  1  0  0  0  0
 17 13  1  0  0  0  0
 18 19  1  0  0  0  0
 19 21  1  0  0  0  0
 19 20  1  0  0  0  0
 22 19  1  0  0  0  0
M  RAD  1   3   2
M  END
