Coordinates from ORCA-job 4-MeO-Ph-N2-BF4-B3LYPG-6-31G_dp-MTMO-d009-169-n800
 OpenBabel09051908083D

 22 20  0  0  0  0  0  0  0  0999 V2000
   -0.9700    0.7869    0.3034 C   0  0  0  0  0  0  0  0  0  0  0  0
   -0.3796    0.7158   -1.0180 C   0  0  0  0  0  0  0  0  0  0  0  0
   -1.3209    1.2279   -1.7592 C   0  0  0  0  0  0  0  0  0  0  0  0
   -2.5519    1.7719   -1.8218 C   0  0  0  0  0  0  0  0  0  0  0  0
   -3.0433    1.8048   -0.5024 C   0  0  0  0  0  0  0  0  0  0  0  0
   -2.2442    1.3112    0.5566 C   0  0  0  0  0  0  0  0  0  0  0  0
   -0.2773    0.4018    1.0591 H   0  0  0  0  0  0  0  0  0  0  0  0
    0.6655    0.3025   -1.0976 H   0  0  0  0  0  0  0  0  0  0  0  0
   -3.0873    2.1229   -2.6926 H   0  0  0  0  0  0  0  0  0  0  0  0
   -4.0311    2.2091   -0.3096 H   0  0  0  0  0  0  0  0  0  0  0  0
    6.5352   -0.2351    2.4891 N   0  0  0  0  0  0  0  0  0  0  0  0
    6.4339    0.4450    1.6239 N   0  0  0  0  0  0  0  0  0  0  0  0
    2.3004    0.2989    0.6819 B   0  0  0  0  0  0  0  0  0  0  0  0
    1.3692   -0.3086    1.5708 F   0  0  0  0  0  0  0  0  0  0  0  0
    1.9894    1.6520    0.5692 F   0  0  0  0  0  0  0  0  0  0  0  0
    3.5913    0.0551    1.0648 F   0  0  0  0  0  0  0  0  0  0  0  0
    2.0646   -0.2960   -0.6337 F   0  0  0  0  0  0  0  0  0  0  0  0
   -2.7857    1.3874    1.7866 O   0  0  0  0  0  0  0  0  0  0  0  0
   -1.9963    0.9321    2.8962 C   0  0  0  0  0  0  0  0  0  0  0  0
   -2.6042    1.1186    3.7810 H   0  0  0  0  0  0  0  0  0  0  0  0
   -1.0558    1.4878    2.9630 H   0  0  0  0  0  0  0  0  0  0  0  0
   -1.7819   -0.1384    2.8107 H   0  0  0  0  0  0  0  0  0  0  0  0
  1  6  1  0  0  0  0
  1  7  1  0  0  0  0
  2  1  2  0  0  0  0
  3  2  1  0  0  0  0
  4  3  2  0  0  0  0
  4  5  1  0  0  0  0
  5 10  1  0  0  0  0
  5  6  2  0  0  0  0
  6 18  1  0  0  0  0
  8  2  1  0  0  0  0
  9  4  1  0  0  0  0
 12 11  3  0  0  0  0
 13 16  1  0  0  0  0
 13 14  1  0  0  0  0
 15 13  1  0  0  0  0
 17 13  1  0  0  0  0
 18 19  1  0  0  0  0
 19 21  1  0  0  0  0
 19 20  1  0  0  0  0
 22 19  1  0  0  0  0
M  RAD  1   3   2
M  END
