Coordinates from ORCA-job 4-MeO-Ph-N2-BF4-B3LYPG-6-31G_dp-MTMO-d009-169-n800
 OpenBabel09051908083D

 22 21  0  0  0  0  0  0  0  0999 V2000
   -0.6069   -0.0008    0.0662 C   0  0  0  0  0  0  0  0  0  0  0  0
    0.4053    0.2193   -0.8171 C   0  0  0  0  0  0  0  0  0  0  0  0
    0.6721    1.5493   -1.3275 C   0  0  0  0  0  0  0  0  0  0  0  0
   -0.2012    2.6321   -0.9038 C   0  0  0  0  0  0  0  0  0  0  0  0
   -1.1852    2.3993    0.0003 C   0  0  0  0  0  0  0  0  0  0  0  0
   -1.3406    1.1003    0.5758 C   0  0  0  0  0  0  0  0  0  0  0  0
   -0.7216   -0.9855    0.4939 H   0  0  0  0  0  0  0  0  0  0  0  0
    1.0559   -0.5853   -1.1369 H   0  0  0  0  0  0  0  0  0  0  0  0
   -0.0160    3.6229   -1.3045 H   0  0  0  0  0  0  0  0  0  0  0  0
   -1.8157    3.2000    0.3686 H   0  0  0  0  0  0  0  0  0  0  0  0
    1.5520    1.7409   -1.9939 N   0  0  0  0  0  0  0  0  0  0  0  0
    2.4488    1.9368   -2.6732 N   0  0  0  0  0  0  0  0  0  0  0  0
    1.5617    0.5247    2.2563 B   0  0  0  0  0  0  0  0  0  0  0  0
    0.9413   -0.7555    2.2942 F   0  0  0  0  0  0  0  0  0  0  0  0
    0.5229    1.4933    2.3496 F   0  0  0  0  0  0  0  0  0  0  0  0
    2.4649    0.6702    3.2819 F   0  0  0  0  0  0  0  0  0  0  0  0
    2.1989    0.6797    0.9927 F   0  0  0  0  0  0  0  0  0  0  0  0
   -2.2214    1.0134    1.5431 O   0  0  0  0  0  0  0  0  0  0  0  0
   -2.2135   -0.1552    2.4051 C   0  0  0  0  0  0  0  0  0  0  0  0
   -2.7997    0.1376    3.2744 H   0  0  0  0  0  0  0  0  0  0  0  0
   -1.1829   -0.3908    2.6799 H   0  0  0  0  0  0  0  0  0  0  0  0
   -2.6991   -0.9933    1.8960 H   0  0  0  0  0  0  0  0  0  0  0  0
  1  7  1  0  0  0  0
  1  6  1  0  0  0  0
  2  1  2  0  0  0  0
  3  4  2  0  0  0  0
  3  2  1  0  0  0  0
  4  5  1  0  0  0  0
  5 10  1  0  0  0  0
  5  6  2  0  0  0  0
  6 18  1  0  0  0  0
  8  2  1  0  0  0  0
  9  4  1  0  0  0  0
 11  3  1  0  0  0  0
 12 11  1  0  0  0  0
 13 14  1  0  0  0  0
 13 15  1  0  0  0  0
 13 16  1  0  0  0  0
 17 13  1  0  0  0  0
 18 19  1  0  0  0  0
 19 21  1  0  0  0  0
 19 20  1  0  0  0  0
 22 19  1  0  0  0  0
M  RAD  2  11   2  12   3
M  END
