Coordinates from ORCA-job 4-MeO-Ph-N2-BF4-B3LYPG-6-31G_dp-MTMO-d009-169-n800
 OpenBabel09051908083D

 22 20  0  0  0  0  0  0  0  0999 V2000
   -0.8525    0.7024    0.3413 C   0  0  0  0  0  0  0  0  0  0  0  0
   -0.2766    0.6996   -0.9879 C   0  0  0  0  0  0  0  0  0  0  0  0
   -1.1366    1.4093   -1.6607 C   0  0  0  0  0  0  0  0  0  0  0  0
   -2.2693    2.1385   -1.6457 C   0  0  0  0  0  0  0  0  0  0  0  0
   -2.7521    2.0944   -0.3234 C   0  0  0  0  0  0  0  0  0  0  0  0
   -2.0365    1.3780    0.6657 C   0  0  0  0  0  0  0  0  0  0  0  0
   -0.2402    0.1205    1.0352 H   0  0  0  0  0  0  0  0  0  0  0  0
    0.6991    0.1485   -1.1398 H   0  0  0  0  0  0  0  0  0  0  0  0
   -2.7453    2.6604   -2.4636 H   0  0  0  0  0  0  0  0  0  0  0  0
   -3.6723    2.6119   -0.0739 H   0  0  0  0  0  0  0  0  0  0  0  0
    4.8566    2.0705    1.6265 N   0  0  0  0  0  0  0  0  0  0  0  0
    5.4140    1.1396    1.8360 N   0  0  0  0  0  0  0  0  0  0  0  0
    2.2973   -0.3933    0.5515 B   0  0  0  0  0  0  0  0  0  0  0  0
    1.2620   -1.0217    1.2914 F   0  0  0  0  0  0  0  0  0  0  0  0
    2.1970    0.9870    0.7265 F   0  0  0  0  0  0  0  0  0  0  0  0
    3.5287   -0.8982    0.8640 F   0  0  0  0  0  0  0  0  0  0  0  0
    2.0110   -0.6580   -0.8625 F   0  0  0  0  0  0  0  0  0  0  0  0
   -2.5674    1.3992    1.9027 O   0  0  0  0  0  0  0  0  0  0  0  0
   -1.8485    0.7364    2.9532 C   0  0  0  0  0  0  0  0  0  0  0  0
   -2.4329    0.9055    3.8570 H   0  0  0  0  0  0  0  0  0  0  0  0
   -0.8465    1.1616    3.0707 H   0  0  0  0  0  0  0  0  0  0  0  0
   -1.7692   -0.3384    2.7572 H   0  0  0  0  0  0  0  0  0  0  0  0
  1  6  1  0  0  0  0
  1  7  1  0  0  0  0
  2  1  2  0  0  0  0
  3  4  2  0  0  0  0
  3  2  1  0  0  0  0
  4  5  1  0  0  0  0
  5 10  1  0  0  0  0
  5  6  2  0  0  0  0
  6 18  1  0  0  0  0
  8  2  1  0  0  0  0
  9  4  1  0  0  0  0
 11 12  3  0  0  0  0
 13 15  1  0  0  0  0
 13 16  1  0  0  0  0
 13 14  1  0  0  0  0
 17 13  1  0  0  0  0
 18 19  1  0  0  0  0
 19 21  1  0  0  0  0
 19 20  1  0  0  0  0
 22 19  1  0  0  0  0
M  RAD  1   3   2
M  END
