Coordinates from ORCA-job 4-MeO-Ph-N2-BF4-B3LYPG-6-31G_dp-MTMO-d009-169-n800
 OpenBabel09051908083D

 22 20  0  0  0  0  0  0  0  0999 V2000
   -0.8515    0.6966    0.3748 C   0  0  0  0  0  0  0  0  0  0  0  0
   -0.2146    0.7321   -0.9257 C   0  0  0  0  0  0  0  0  0  0  0  0
   -1.0353    1.4738   -1.6127 C   0  0  0  0  0  0  0  0  0  0  0  0
   -2.1636    2.2097   -1.6271 C   0  0  0  0  0  0  0  0  0  0  0  0
   -2.7080    2.1261   -0.3309 C   0  0  0  0  0  0  0  0  0  0  0  0
   -2.0447    1.3711    0.6661 C   0  0  0  0  0  0  0  0  0  0  0  0
   -0.2743    0.0909    1.0785 H   0  0  0  0  0  0  0  0  0  0  0  0
    0.7633    0.1786   -1.0501 H   0  0  0  0  0  0  0  0  0  0  0  0
   -2.5978    2.7614   -2.4488 H   0  0  0  0  0  0  0  0  0  0  0  0
   -3.6351    2.6433   -0.1075 H   0  0  0  0  0  0  0  0  0  0  0  0
    4.9163    2.1152    1.0878 N   0  0  0  0  0  0  0  0  0  0  0  0
    5.4856    1.2524    1.4784 N   0  0  0  0  0  0  0  0  0  0  0  0
    2.2840   -0.4062    0.6956 B   0  0  0  0  0  0  0  0  0  0  0  0
    1.2238   -1.0456    1.3895 F   0  0  0  0  0  0  0  0  0  0  0  0
    2.1741    0.9719    0.8835 F   0  0  0  0  0  0  0  0  0  0  0  0
    3.5046   -0.9116    1.0472 F   0  0  0  0  0  0  0  0  0  0  0  0
    2.0511   -0.6525   -0.7312 F   0  0  0  0  0  0  0  0  0  0  0  0
   -2.6328    1.3562    1.8770 O   0  0  0  0  0  0  0  0  0  0  0  0
   -1.9697    0.6509    2.9366 C   0  0  0  0  0  0  0  0  0  0  0  0
   -2.5931    0.7972    3.8181 H   0  0  0  0  0  0  0  0  0  0  0  0
   -0.9696    1.0598    3.1135 H   0  0  0  0  0  0  0  0  0  0  0  0
   -1.8926   -0.4176    2.7086 H   0  0  0  0  0  0  0  0  0  0  0  0
  1  6  1  0  0  0  0
  1  7  1  0  0  0  0
  2  1  2  0  0  0  0
  3  2  1  0  0  0  0
  4  3  2  0  0  0  0
  4  5  1  0  0  0  0
  5 10  1  0  0  0  0
  5  6  2  0  0  0  0
  6 18  1  0  0  0  0
  8  2  1  0  0  0  0
  9  4  1  0  0  0  0
 11 12  3  0  0  0  0
 13 15  1  0  0  0  0
 13 16  1  0  0  0  0
 13 14  1  0  0  0  0
 17 13  1  0  0  0  0
 18 19  1  0  0  0  0
 19 21  1  0  0  0  0
 19 20  1  0  0  0  0
 22 19  1  0  0  0  0
M  RAD  1   3   2
M  END
