Coordinates from ORCA-job 4-MeO-Ph-N2-BF4-B3LYPG-6-31G_dp-MTMO-d009-169-n800
 OpenBabel09051908083D

 22 20  0  0  0  0  0  0  0  0999 V2000
   -1.0052    0.8318    0.2714 C   0  0  0  0  0  0  0  0  0  0  0  0
   -0.4455    0.7935   -1.0645 C   0  0  0  0  0  0  0  0  0  0  0  0
   -1.4453    1.2091   -1.7888 C   0  0  0  0  0  0  0  0  0  0  0  0
   -2.7156    1.6567   -1.8259 C   0  0  0  0  0  0  0  0  0  0  0  0
   -3.1728    1.6696   -0.4939 C   0  0  0  0  0  0  0  0  0  0  0  0
   -2.3100    1.2587    0.5504 C   0  0  0  0  0  0  0  0  0  0  0  0
   -0.2694    0.5047    1.0124 H   0  0  0  0  0  0  0  0  0  0  0  0
    0.6321    0.4712   -1.1698 H   0  0  0  0  0  0  0  0  0  0  0  0
   -3.3000    1.9517   -2.6858 H   0  0  0  0  0  0  0  0  0  0  0  0
   -4.1848    1.9964   -0.2796 H   0  0  0  0  0  0  0  0  0  0  0  0
    7.2469   -0.2976    2.8590 N   0  0  0  0  0  0  0  0  0  0  0  0
    6.5887   -0.7122    2.0736 N   0  0  0  0  0  0  0  0  0  0  0  0
    2.3000    0.5887    0.5646 B   0  0  0  0  0  0  0  0  0  0  0  0
    1.4479   -0.1459    1.4346 F   0  0  0  0  0  0  0  0  0  0  0  0
    1.8546    1.9087    0.5165 F   0  0  0  0  0  0  0  0  0  0  0  0
    3.6149    0.4585    0.9125 F   0  0  0  0  0  0  0  0  0  0  0  0
    2.0945    0.0297   -0.7756 F   0  0  0  0  0  0  0  0  0  0  0  0
   -2.8253    1.3133    1.7930 O   0  0  0  0  0  0  0  0  0  0  0  0
   -1.9705    0.9561    2.8898 C   0  0  0  0  0  0  0  0  0  0  0  0
   -2.5683    1.1134    3.7870 H   0  0  0  0  0  0  0  0  0  0  0  0
   -1.0795    1.5916    2.9163 H   0  0  0  0  0  0  0  0  0  0  0  0
   -1.6675   -0.0941    2.8244 H   0  0  0  0  0  0  0  0  0  0  0  0
  1  6  1  0  0  0  0
  1  7  1  0  0  0  0
  2  1  2  0  0  0  0
  3  2  1  0  0  0  0
  4  3  2  0  0  0  0
  4  5  1  0  0  0  0
  5 10  1  0  0  0  0
  5  6  2  0  0  0  0
  6 18  1  0  0  0  0
  8  2  1  0  0  0  0
  9  4  1  0  0  0  0
 12 11  3  0  0  0  0
 13 16  1  0  0  0  0
 13 14  1  0  0  0  0
 15 13  1  0  0  0  0
 17 13  1  0  0  0  0
 18 19  1  0  0  0  0
 19 21  1  0  0  0  0
 19 20  1  0  0  0  0
 22 19  1  0  0  0  0
M  RAD  1   3   2
M  END
