Coordinates from ORCA-job 4-MeO-Ph-N2-BF4-B3LYPG-6-31G_dp-MTMO-d009-169-n800
 OpenBabel09051908083D

 22 20  0  0  0  0  0  0  0  0999 V2000
   -0.9631    0.7820    0.3055 C   0  0  0  0  0  0  0  0  0  0  0  0
   -0.3762    0.7097   -1.0173 C   0  0  0  0  0  0  0  0  0  0  0  0
   -1.3152    1.2300   -1.7555 C   0  0  0  0  0  0  0  0  0  0  0  0
   -2.5428    1.7817   -1.8147 C   0  0  0  0  0  0  0  0  0  0  0  0
   -3.0313    1.8150   -0.4942 C   0  0  0  0  0  0  0  0  0  0  0  0
   -2.2334    1.3140    0.5622 C   0  0  0  0  0  0  0  0  0  0  0  0
   -0.2712    0.3921    1.0591 H   0  0  0  0  0  0  0  0  0  0  0  0
    0.6662    0.2903   -1.1014 H   0  0  0  0  0  0  0  0  0  0  0  0
   -3.0777    2.1378   -2.6837 H   0  0  0  0  0  0  0  0  0  0  0  0
   -4.0162    2.2252   -0.2984 H   0  0  0  0  0  0  0  0  0  0  0  0
    6.3727   -0.1340    2.5370 N   0  0  0  0  0  0  0  0  0  0  0  0
    6.4210    0.4452    1.5971 N   0  0  0  0  0  0  0  0  0  0  0  0
    2.3068    0.2763    0.6642 B   0  0  0  0  0  0  0  0  0  0  0  0
    1.3784   -0.3302    1.5558 F   0  0  0  0  0  0  0  0  0  0  0  0
    1.9998    1.6306    0.5550 F   0  0  0  0  0  0  0  0  0  0  0  0
    3.5992    0.0289    1.0407 F   0  0  0  0  0  0  0  0  0  0  0  0
    2.0642   -0.3157   -0.6513 F   0  0  0  0  0  0  0  0  0  0  0  0
   -2.7723    1.3911    1.7933 O   0  0  0  0  0  0  0  0  0  0  0  0
   -1.9839    0.9291    2.9008 C   0  0  0  0  0  0  0  0  0  0  0  0
   -2.5895    1.1167    3.7868 H   0  0  0  0  0  0  0  0  0  0  0  0
   -1.0405    1.4800    2.9676 H   0  0  0  0  0  0  0  0  0  0  0  0
   -1.7751   -0.1423    2.8126 H   0  0  0  0  0  0  0  0  0  0  0  0
  1  6  1  0  0  0  0
  1  7  1  0  0  0  0
  2  1  2  0  0  0  0
  3  2  1  0  0  0  0
  4  3  2  0  0  0  0
  4  5  1  0  0  0  0
  5 10  1  0  0  0  0
  5  6  2  0  0  0  0
  6 18  1  0  0  0  0
  8  2  1  0  0  0  0
  9  4  1  0  0  0  0
 12 11  3  0  0  0  0
 13 16  1  0  0  0  0
 13 14  1  0  0  0  0
 15 13  1  0  0  0  0
 17 13  1  0  0  0  0
 18 19  1  0  0  0  0
 19 21  1  0  0  0  0
 19 20  1  0  0  0  0
 22 19  1  0  0  0  0
M  RAD  1   3   2
M  END
