Coordinates from ORCA-job 4-MeO-Ph-N2-BF4-B3LYPG-6-31G_dp-MTMO-d009-169-n800
 OpenBabel09051908083D

 22 20  0  0  0  0  0  0  0  0999 V2000
   -0.9597    0.7756    0.3078 C   0  0  0  0  0  0  0  0  0  0  0  0
   -0.3757    0.7005   -1.0163 C   0  0  0  0  0  0  0  0  0  0  0  0
   -1.3101    1.2323   -1.7518 C   0  0  0  0  0  0  0  0  0  0  0  0
   -2.5329    1.7951   -1.8083 C   0  0  0  0  0  0  0  0  0  0  0  0
   -3.0191    1.8298   -0.4871 C   0  0  0  0  0  0  0  0  0  0  0  0
   -2.2246    1.3189    0.5671 C   0  0  0  0  0  0  0  0  0  0  0  0
   -0.2701    0.3784    1.0594 H   0  0  0  0  0  0  0  0  0  0  0  0
    0.6631    0.2718   -1.1042 H   0  0  0  0  0  0  0  0  0  0  0  0
   -3.0657    2.1580   -2.6758 H   0  0  0  0  0  0  0  0  0  0  0  0
   -3.9998    2.2488   -0.2888 H   0  0  0  0  0  0  0  0  0  0  0  0
    6.2466   -0.0429    2.5531 N   0  0  0  0  0  0  0  0  0  0  0  0
    6.4299    0.4839    1.5992 N   0  0  0  0  0  0  0  0  0  0  0  0
    2.3092    0.2452    0.6488 B   0  0  0  0  0  0  0  0  0  0  0  0
    1.3809   -0.3577    1.5421 F   0  0  0  0  0  0  0  0  0  0  0  0
    2.0103    1.6017    0.5433 F   0  0  0  0  0  0  0  0  0  0  0  0
    3.6017   -0.0106    1.0187 F   0  0  0  0  0  0  0  0  0  0  0  0
    2.0580   -0.3424   -0.6677 F   0  0  0  0  0  0  0  0  0  0  0  0
   -2.7616    1.3984    1.7991 O   0  0  0  0  0  0  0  0  0  0  0  0
   -1.9762    0.9271    2.9047 C   0  0  0  0  0  0  0  0  0  0  0  0
   -2.5796    1.1176    3.7918 H   0  0  0  0  0  0  0  0  0  0  0  0
   -1.0283    1.4700    2.9723 H   0  0  0  0  0  0  0  0  0  0  0  0
   -1.7765   -0.1459    2.8139 H   0  0  0  0  0  0  0  0  0  0  0  0
  1  6  1  0  0  0  0
  1  7  1  0  0  0  0
  2  1  2  0  0  0  0
  3  2  1  0  0  0  0
  4  3  2  0  0  0  0
  4  5  1  0  0  0  0
  5 10  1  0  0  0  0
  5  6  2  0  0  0  0
  6 18  1  0  0  0  0
  8  2  1  0  0  0  0
  9  4  1  0  0  0  0
 12 11  3  0  0  0  0
 13 16  1  0  0  0  0
 13 14  1  0  0  0  0
 15 13  1  0  0  0  0
 17 13  1  0  0  0  0
 18 19  1  0  0  0  0
 19 21  1  0  0  0  0
 19 20  1  0  0  0  0
 22 19  1  0  0  0  0
M  RAD  1   3   2
M  END
