Coordinates from ORCA-job 4-MeO-Ph-N2-BF4-B3LYPG-6-31G_dp-MTMO-d009-169-n800
 OpenBabel09051908083D

 22 20  0  0  0  0  0  0  0  0999 V2000
   -0.8432    0.6966    0.3997 C   0  0  0  0  0  0  0  0  0  0  0  0
   -0.1562    0.7672   -0.8736 C   0  0  0  0  0  0  0  0  0  0  0  0
   -0.9497    1.5293   -1.5702 C   0  0  0  0  0  0  0  0  0  0  0  0
   -2.0773    2.2657   -1.6075 C   0  0  0  0  0  0  0  0  0  0  0  0
   -2.6716    2.1466   -0.3363 C   0  0  0  0  0  0  0  0  0  0  0  0
   -2.0470    1.3632    0.6638 C   0  0  0  0  0  0  0  0  0  0  0  0
   -0.2910    0.0740    1.1093 H   0  0  0  0  0  0  0  0  0  0  0  0
    0.8246    0.2161   -0.9730 H   0  0  0  0  0  0  0  0  0  0  0  0
   -2.4794    2.8402   -2.4300 H   0  0  0  0  0  0  0  0  0  0  0  0
   -3.6065    2.6586   -0.1346 H   0  0  0  0  0  0  0  0  0  0  0  0
    4.8945    2.1018    0.6750 N   0  0  0  0  0  0  0  0  0  0  0  0
    5.4990    1.2956    1.1284 N   0  0  0  0  0  0  0  0  0  0  0  0
    2.2775   -0.3968    0.8257 B   0  0  0  0  0  0  0  0  0  0  0  0
    1.2010   -1.0419    1.4892 F   0  0  0  0  0  0  0  0  0  0  0  0
    2.1558    0.9810    1.0115 F   0  0  0  0  0  0  0  0  0  0  0  0
    3.4901   -0.8960    1.2126 F   0  0  0  0  0  0  0  0  0  0  0  0
    2.0881   -0.6417   -0.6070 F   0  0  0  0  0  0  0  0  0  0  0  0
   -2.6807    1.3147    1.8505 O   0  0  0  0  0  0  0  0  0  0  0  0
   -2.0577    0.5791    2.9141 C   0  0  0  0  0  0  0  0  0  0  0  0
   -2.7120    0.7036    3.7763 H   0  0  0  0  0  0  0  0  0  0  0  0
   -1.0635    0.9795    3.1373 H   0  0  0  0  0  0  0  0  0  0  0  0
   -1.9748   -0.4831    2.6600 H   0  0  0  0  0  0  0  0  0  0  0  0
  1  6  1  0  0  0  0
  1  7  1  0  0  0  0
  2  1  2  0  0  0  0
  3  2  1  0  0  0  0
  4  3  2  0  0  0  0
  4  5  1  0  0  0  0
  5 10  1  0  0  0  0
  5  6  2  0  0  0  0
  6 18  1  0  0  0  0
  8  2  1  0  0  0  0
  9  4  1  0  0  0  0
 11 12  3  0  0  0  0
 13 15  1  0  0  0  0
 13 16  1  0  0  0  0
 13 14  1  0  0  0  0
 17 13  1  0  0  0  0
 18 19  1  0  0  0  0
 19 21  1  0  0  0  0
 19 20  1  0  0  0  0
 22 19  1  0  0  0  0
M  RAD  1   3   2
M  END
