Coordinates from ORCA-job 4-MeO-Ph-N2-BF4-B3LYPG-6-31G_dp-MTMO-d009-169-n800
 OpenBabel09051908083D

 22 20  0  0  0  0  0  0  0  0999 V2000
   -0.8363    0.7264    0.2827 C   0  0  0  0  0  0  0  0  0  0  0  0
   -0.3692    0.6470   -1.0861 C   0  0  0  0  0  0  0  0  0  0  0  0
   -1.3002    1.2891   -1.7319 C   0  0  0  0  0  0  0  0  0  0  0  0
   -2.4486    1.9909   -1.6717 C   0  0  0  0  0  0  0  0  0  0  0  0
   -2.8230    2.0244   -0.3144 C   0  0  0  0  0  0  0  0  0  0  0  0
   -2.0106    1.3929    0.6578 C   0  0  0  0  0  0  0  0  0  0  0  0
   -0.1537    0.2068    0.9609 H   0  0  0  0  0  0  0  0  0  0  0  0
    0.6051    0.1046   -1.2760 H   0  0  0  0  0  0  0  0  0  0  0  0
   -3.0025    2.4471   -2.4798 H   0  0  0  0  0  0  0  0  0  0  0  0
   -3.7346    2.5364   -0.0248 H   0  0  0  0  0  0  0  0  0  0  0  0
    4.4727    1.6031    2.7054 N   0  0  0  0  0  0  0  0  0  0  0  0
    5.2492    0.9498    2.2680 N   0  0  0  0  0  0  0  0  0  0  0  0
    2.3500   -0.2991    0.3249 B   0  0  0  0  0  0  0  0  0  0  0  0
    1.3929   -0.8618    1.2105 F   0  0  0  0  0  0  0  0  0  0  0  0
    2.2612    1.0894    0.3956 F   0  0  0  0  0  0  0  0  0  0  0  0
    3.6072   -0.7840    0.5592 F   0  0  0  0  0  0  0  0  0  0  0  0
    1.9343   -0.6793   -1.0299 F   0  0  0  0  0  0  0  0  0  0  0  0
   -2.4420    1.4825    1.9298 O   0  0  0  0  0  0  0  0  0  0  0  0
   -1.6259    0.9012    2.9577 C   0  0  0  0  0  0  0  0  0  0  0  0
   -2.1426    1.1129    3.8932 H   0  0  0  0  0  0  0  0  0  0  0  0
   -0.6297    1.3546    2.9697 H   0  0  0  0  0  0  0  0  0  0  0  0
   -1.5339   -0.1816    2.8203 H   0  0  0  0  0  0  0  0  0  0  0  0
  1  6  1  0  0  0  0
  1  7  1  0  0  0  0
  2  1  2  0  0  0  0
  3  4  2  0  0  0  0
  3  2  1  0  0  0  0
  4  5  1  0  0  0  0
  5 10  1  0  0  0  0
  5  6  2  0  0  0  0
  6 18  1  0  0  0  0
  8  2  1  0  0  0  0
  9  4  1  0  0  0  0
 12 11  3  0  0  0  0
 13 15  1  0  0  0  0
 13 16  1  0  0  0  0
 13 14  1  0  0  0  0
 17 13  1  0  0  0  0
 18 19  1  0  0  0  0
 19 21  1  0  0  0  0
 19 20  1  0  0  0  0
 22 19  1  0  0  0  0
M  RAD  1   3   2
M  END
