Coordinates from ORCA-job 4-MeO-Ph-N2-BF4-B3LYPG-6-31G_dp-MTMO-d009-169-n800
 OpenBabel09051908083D

 22 20  0  0  0  0  0  0  0  0999 V2000
   -1.0818    0.8311    0.2785 C   0  0  0  0  0  0  0  0  0  0  0  0
   -0.4942    0.7841   -1.0451 C   0  0  0  0  0  0  0  0  0  0  0  0
   -1.4642    1.2312   -1.7897 C   0  0  0  0  0  0  0  0  0  0  0  0
   -2.7246    1.7028   -1.8555 C   0  0  0  0  0  0  0  0  0  0  0  0
   -3.2117    1.7205   -0.5342 C   0  0  0  0  0  0  0  0  0  0  0  0
   -2.3833    1.2857    0.5282 C   0  0  0  0  0  0  0  0  0  0  0  0
   -0.3686    0.4929    1.0356 H   0  0  0  0  0  0  0  0  0  0  0  0
    0.5803    0.4421   -1.1310 H   0  0  0  0  0  0  0  0  0  0  0  0
   -3.2831    2.0122   -2.7275 H   0  0  0  0  0  0  0  0  0  0  0  0
   -4.2208    2.0689   -0.3417 H   0  0  0  0  0  0  0  0  0  0  0  0
    7.7795   -0.0957    2.7233 N   0  0  0  0  0  0  0  0  0  0  0  0
    7.5817   -1.0436    2.1906 N   0  0  0  0  0  0  0  0  0  0  0  0
    2.2184    0.5600    0.6087 B   0  0  0  0  0  0  0  0  0  0  0  0
    1.3515   -0.1643    1.4709 F   0  0  0  0  0  0  0  0  0  0  0  0
    1.7826    1.8824    0.5454 F   0  0  0  0  0  0  0  0  0  0  0  0
    3.5277    0.4231    0.9712 F   0  0  0  0  0  0  0  0  0  0  0  0
    2.0269   -0.0068   -0.7320 F   0  0  0  0  0  0  0  0  0  0  0  0
   -2.9274    1.3471    1.7584 O   0  0  0  0  0  0  0  0  0  0  0  0
   -2.1093    0.9639    2.8739 C   0  0  0  0  0  0  0  0  0  0  0  0
   -2.7252    1.1311    3.7569 H   0  0  0  0  0  0  0  0  0  0  0  0
   -1.2044    1.5778    2.9261 H   0  0  0  0  0  0  0  0  0  0  0  0
   -1.8302   -0.0931    2.8102 H   0  0  0  0  0  0  0  0  0  0  0  0
  1  6  1  0  0  0  0
  1  7  1  0  0  0  0
  2  1  2  0  0  0  0
  3  2  1  0  0  0  0
  4  3  2  0  0  0  0
  4  5  1  0  0  0  0
  5 10  1  0  0  0  0
  5  6  2  0  0  0  0
  6 18  1  0  0  0  0
  8  2  1  0  0  0  0
  9  4  1  0  0  0  0
 12 11  3  0  0  0  0
 13 16  1  0  0  0  0
 13 14  1  0  0  0  0
 15 13  1  0  0  0  0
 17 13  1  0  0  0  0
 18 19  1  0  0  0  0
 19 21  1  0  0  0  0
 19 20  1  0  0  0  0
 22 19  1  0  0  0  0
M  RAD  1   3   2
M  END
