Coordinates from ORCA-job 4-MeO-Ph-N2-BF4-B3LYPG-6-31G_dp-MTMO-d009-169-n800
 OpenBabel09051908083D

 22 21  0  0  0  0  0  0  0  0999 V2000
   -0.2775    0.4985    0.3865 C   0  0  0  0  0  0  0  0  0  0  0  0
    0.7209    0.7963   -0.5232 C   0  0  0  0  0  0  0  0  0  0  0  0
    0.4323    1.8254   -1.4134 C   0  0  0  0  0  0  0  0  0  0  0  0
   -0.7347    2.5959   -1.4799 C   0  0  0  0  0  0  0  0  0  0  0  0
   -1.6941    2.2920   -0.5364 C   0  0  0  0  0  0  0  0  0  0  0  0
   -1.4591    1.2690    0.4239 C   0  0  0  0  0  0  0  0  0  0  0  0
   -0.0900   -0.3080    1.0915 H   0  0  0  0  0  0  0  0  0  0  0  0
    1.6668    0.2704   -0.4518 H   0  0  0  0  0  0  0  0  0  0  0  0
   -0.8716    3.3832   -2.2109 H   0  0  0  0  0  0  0  0  0  0  0  0
   -2.6249    2.8455   -0.4920 H   0  0  0  0  0  0  0  0  0  0  0  0
    1.5863    2.2114   -2.4226 N   0  0  0  0  0  0  0  0  0  0  0  0
    2.4162    2.4540   -3.1250 N   0  0  0  0  0  0  0  0  0  0  0  0
    1.7255   -0.5017    2.6340 B   0  0  0  0  0  0  0  0  0  0  0  0
    0.6827   -1.4458    2.3761 F   0  0  0  0  0  0  0  0  0  0  0  0
    1.0951    0.7209    2.9737 F   0  0  0  0  0  0  0  0  0  0  0  0
    2.5550   -0.9434    3.6360 F   0  0  0  0  0  0  0  0  0  0  0  0
    2.4436   -0.3195    1.4176 F   0  0  0  0  0  0  0  0  0  0  0  0
   -2.3995    1.1125    1.3471 O   0  0  0  0  0  0  0  0  0  0  0  0
   -2.1255    0.2303    2.4697 C   0  0  0  0  0  0  0  0  0  0  0  0
   -2.9342    0.4209    3.1740 H   0  0  0  0  0  0  0  0  0  0  0  0
   -1.1484    0.4584    2.9033 H   0  0  0  0  0  0  0  0  0  0  0  0
   -2.1450   -0.8129    2.1431 H   0  0  0  0  0  0  0  0  0  0  0  0
  1  6  1  0  0  0  0
  1  7  1  0  0  0  0
  2  8  1  0  0  0  0
  2  1  2  0  0  0  0
  3  2  1  0  0  0  0
  4  3  2  0  0  0  0
  4  5  1  0  0  0  0
  5 10  1  0  0  0  0
  5  6  2  0  0  0  0
  6 18  1  0  0  0  0
  9  4  1  0  0  0  0
 11  3  1  0  0  0  0
 12 11  1  0  0  0  0
 13 15  1  0  0  0  0
 13 16  1  0  0  0  0
 14 13  1  0  0  0  0
 17 13  1  0  0  0  0
 18 19  1  0  0  0  0
 19 21  1  0  0  0  0
 19 20  1  0  0  0  0
 22 19  1  0  0  0  0
M  RAD  2  11   2  12   3
M  END
