Coordinates from ORCA-job 4-MeO-Ph-N2-BF4-B3LYPG-6-31G_dp-MTMO-d009-169-n800
 OpenBabel09051908083D

 22 20  0  0  0  0  0  0  0  0999 V2000
   -1.0996    0.8347    0.2743 C   0  0  0  0  0  0  0  0  0  0  0  0
   -0.5125    0.7878   -1.0496 C   0  0  0  0  0  0  0  0  0  0  0  0
   -1.4827    1.2351   -1.7938 C   0  0  0  0  0  0  0  0  0  0  0  0
   -2.7430    1.7069   -1.8591 C   0  0  0  0  0  0  0  0  0  0  0  0
   -3.2297    1.7244   -0.5377 C   0  0  0  0  0  0  0  0  0  0  0  0
   -2.4010    1.2894    0.5244 C   0  0  0  0  0  0  0  0  0  0  0  0
   -0.3863    0.4963    1.0310 H   0  0  0  0  0  0  0  0  0  0  0  0
    0.5620    0.4455   -1.1360 H   0  0  0  0  0  0  0  0  0  0  0  0
   -3.3018    2.0165   -2.7309 H   0  0  0  0  0  0  0  0  0  0  0  0
   -4.2387    2.0728   -0.3448 H   0  0  0  0  0  0  0  0  0  0  0  0
    7.9576   -0.1255    2.7668 N   0  0  0  0  0  0  0  0  0  0  0  0
    7.7601   -1.0753    2.2371 N   0  0  0  0  0  0  0  0  0  0  0  0
    2.2005    0.5615    0.6026 B   0  0  0  0  0  0  0  0  0  0  0  0
    1.3337   -0.1627    1.4651 F   0  0  0  0  0  0  0  0  0  0  0  0
    1.7654    1.8841    0.5400 F   0  0  0  0  0  0  0  0  0  0  0  0
    3.5100    0.4238    0.9642 F   0  0  0  0  0  0  0  0  0  0  0  0
    2.0080   -0.0048   -0.7382 F   0  0  0  0  0  0  0  0  0  0  0  0
   -2.9448    1.3506    1.7547 O   0  0  0  0  0  0  0  0  0  0  0  0
   -2.1264    0.9671    2.8699 C   0  0  0  0  0  0  0  0  0  0  0  0
   -2.7421    1.1342    3.7532 H   0  0  0  0  0  0  0  0  0  0  0  0
   -1.2216    1.5810    2.9221 H   0  0  0  0  0  0  0  0  0  0  0  0
   -1.8473   -0.0898    2.8059 H   0  0  0  0  0  0  0  0  0  0  0  0
  1  6  1  0  0  0  0
  1  7  1  0  0  0  0
  2  1  2  0  0  0  0
  3  2  1  0  0  0  0
  4  3  2  0  0  0  0
  4  5  1  0  0  0  0
  5 10  1  0  0  0  0
  5  6  2  0  0  0  0
  6 18  1  0  0  0  0
  8  2  1  0  0  0  0
  9  4  1  0  0  0  0
 12 11  3  0  0  0  0
 13 16  1  0  0  0  0
 13 14  1  0  0  0  0
 15 13  1  0  0  0  0
 17 13  1  0  0  0  0
 18 19  1  0  0  0  0
 19 21  1  0  0  0  0
 19 20  1  0  0  0  0
 22 19  1  0  0  0  0
M  RAD  1   3   2
M  END
