Coordinates from ORCA-job 4-MeO-Ph-N2-BF4-B3LYPG-6-31G_dp-MTMO-d009-169-n800
 OpenBabel09051908083D

 22 20  0  0  0  0  0  0  0  0999 V2000
   -0.7810    0.7157    0.4761 C   0  0  0  0  0  0  0  0  0  0  0  0
    0.0451    0.8941   -0.7007 C   0  0  0  0  0  0  0  0  0  0  0  0
   -0.6797    1.7042   -1.4180 C   0  0  0  0  0  0  0  0  0  0  0  0
   -1.8187    2.4149   -1.5318 C   0  0  0  0  0  0  0  0  0  0  0  0
   -2.5514    2.1874   -0.3509 C   0  0  0  0  0  0  0  0  0  0  0  0
   -2.0245    1.3367    0.6505 C   0  0  0  0  0  0  0  0  0  0  0  0
   -0.2853    0.0687    1.2073 H   0  0  0  0  0  0  0  0  0  0  0  0
    1.0437    0.3743   -0.7158 H   0  0  0  0  0  0  0  0  0  0  0  0
   -2.1409    3.0409   -2.3520 H   0  0  0  0  0  0  0  0  0  0  0  0
   -3.5156    2.6666   -0.2198 H   0  0  0  0  0  0  0  0  0  0  0  0
    4.4535    1.6633   -0.5553 N   0  0  0  0  0  0  0  0  0  0  0  0
    5.2788    1.2839    0.0738 N   0  0  0  0  0  0  0  0  0  0  0  0
    2.3085   -0.2441    1.2392 B   0  0  0  0  0  0  0  0  0  0  0  0
    1.1993   -0.9004    1.8368 F   0  0  0  0  0  0  0  0  0  0  0  0
    2.1385    1.1351    1.3707 F   0  0  0  0  0  0  0  0  0  0  0  0
    3.4994   -0.6987    1.7331 F   0  0  0  0  0  0  0  0  0  0  0  0
    2.2405   -0.5310   -0.1953 F   0  0  0  0  0  0  0  0  0  0  0  0
   -2.7858    1.1826    1.7499 O   0  0  0  0  0  0  0  0  0  0  0  0
   -2.2833    0.3449    2.8014 C   0  0  0  0  0  0  0  0  0  0  0  0
   -3.0278    0.3959    3.5954 H   0  0  0  0  0  0  0  0  0  0  0  0
   -1.3181    0.7085    3.1684 H   0  0  0  0  0  0  0  0  0  0  0  0
   -2.1753   -0.6897    2.4584 H   0  0  0  0  0  0  0  0  0  0  0  0
  1  6  1  0  0  0  0
  1  7  1  0  0  0  0
  2  1  2  0  0  0  0
  3  2  1  0  0  0  0
  4  3  2  0  0  0  0
  4  5  1  0  0  0  0
  5 10  1  0  0  0  0
  5  6  2  0  0  0  0
  6 18  1  0  0  0  0
  8  2  1  0  0  0  0
  9  4  1  0  0  0  0
 11 12  3  0  0  0  0
 13 15  1  0  0  0  0
 13 16  1  0  0  0  0
 13 14  1  0  0  0  0
 17 13  1  0  0  0  0
 18 19  1  0  0  0  0
 19 21  1  0  0  0  0
 19 20  1  0  0  0  0
 22 19  1  0  0  0  0
M  RAD  1   3   2
M  END
