Coordinates from ORCA-job 4-MeO-Ph-N2-BF4-B3LYPG-6-31G_dp-MTMO-d009-169-n800
 OpenBabel09051908083D

 22 20  0  0  0  0  0  0  0  0999 V2000
   -0.8317    0.6942    0.4138 C   0  0  0  0  0  0  0  0  0  0  0  0
   -0.1115    0.7882   -0.8395 C   0  0  0  0  0  0  0  0  0  0  0  0
   -0.8837    1.5697   -1.5384 C   0  0  0  0  0  0  0  0  0  0  0  0
   -2.0088    2.3089   -1.5895 C   0  0  0  0  0  0  0  0  0  0  0  0
   -2.6363    2.1659   -0.3368 C   0  0  0  0  0  0  0  0  0  0  0  0
   -2.0397    1.3592    0.6618 C   0  0  0  0  0  0  0  0  0  0  0  0
   -0.2971    0.0587    1.1261 H   0  0  0  0  0  0  0  0  0  0  0  0
    0.8696    0.2372   -0.9211 H   0  0  0  0  0  0  0  0  0  0  0  0
   -2.3883    2.9007   -2.4105 H   0  0  0  0  0  0  0  0  0  0  0  0
   -3.5745    2.6769   -0.1484 H   0  0  0  0  0  0  0  0  0  0  0  0
    4.8105    2.0731    0.3693 N   0  0  0  0  0  0  0  0  0  0  0  0
    5.4531    1.3400    0.8898 N   0  0  0  0  0  0  0  0  0  0  0  0
    2.2733   -0.3887    0.9218 B   0  0  0  0  0  0  0  0  0  0  0  0
    1.1862   -1.0324    1.5700 F   0  0  0  0  0  0  0  0  0  0  0  0
    2.1435    0.9905    1.0958 F   0  0  0  0  0  0  0  0  0  0  0  0
    3.4801   -0.8800    1.3355 F   0  0  0  0  0  0  0  0  0  0  0  0
    2.1115   -0.6434   -0.5116 F   0  0  0  0  0  0  0  0  0  0  0  0
   -2.7026    1.2878    1.8313 O   0  0  0  0  0  0  0  0  0  0  0  0
   -2.1086    0.5262    2.8932 C   0  0  0  0  0  0  0  0  0  0  0  0
   -2.7813    0.6377    3.7430 H   0  0  0  0  0  0  0  0  0  0  0  0
   -1.1168    0.9143    3.1466 H   0  0  0  0  0  0  0  0  0  0  0  0
   -2.0271   -0.5311    2.6192 H   0  0  0  0  0  0  0  0  0  0  0  0
  1  6  1  0  0  0  0
  1  7  1  0  0  0  0
  2  1  2  0  0  0  0
  3  2  1  0  0  0  0
  4  3  2  0  0  0  0
  4  5  1  0  0  0  0
  5 10  1  0  0  0  0
  5  6  2  0  0  0  0
  6 18  1  0  0  0  0
  8  2  1  0  0  0  0
  9  4  1  0  0  0  0
 11 12  3  0  0  0  0
 13 15  1  0  0  0  0
 13 16  1  0  0  0  0
 13 14  1  0  0  0  0
 17 13  1  0  0  0  0
 18 19  1  0  0  0  0
 19 21  1  0  0  0  0
 19 20  1  0  0  0  0
 22 19  1  0  0  0  0
M  RAD  1   3   2
M  END
