Coordinates from ORCA-job 4-MeO-Ph-N2-BF4-B3LYPG-6-31G_dp-MTMO-d009-169-n800
 OpenBabel09051908083D

 22 20  0  0  0  0  0  0  0  0999 V2000
   -0.5435    0.6370    0.7633 C   0  0  0  0  0  0  0  0  0  0  0  0
    0.5993    0.8400   -0.1007 C   0  0  0  0  0  0  0  0  0  0  0  0
    0.1526    1.7117   -0.9594 C   0  0  0  0  0  0  0  0  0  0  0  0
   -0.8783    2.4781   -1.3654 C   0  0  0  0  0  0  0  0  0  0  0  0
   -1.9370    2.2251   -0.4724 C   0  0  0  0  0  0  0  0  0  0  0  0
   -1.7626    1.3060    0.5900 C   0  0  0  0  0  0  0  0  0  0  0  0
   -0.3157   -0.0761    1.5591 H   0  0  0  0  0  0  0  0  0  0  0  0
    1.5586    0.2897    0.1397 H   0  0  0  0  0  0  0  0  0  0  0  0
   -0.9207    3.1570   -2.2052 H   0  0  0  0  0  0  0  0  0  0  0  0
   -2.8829    2.7393   -0.6065 H   0  0  0  0  0  0  0  0  0  0  0  0
    2.6569    2.3640   -2.9467 N   0  0  0  0  0  0  0  0  0  0  0  0
    3.6266    2.4807   -3.4632 N   0  0  0  0  0  0  0  0  0  0  0  0
    2.2154   -0.5217    2.2676 B   0  0  0  0  0  0  0  0  0  0  0  0
    1.0002   -1.2534    2.3148 F   0  0  0  0  0  0  0  0  0  0  0  0
    1.9478    0.8125    2.5702 F   0  0  0  0  0  0  0  0  0  0  0  0
    3.1829   -1.0844    3.0500 F   0  0  0  0  0  0  0  0  0  0  0  0
    2.6520   -0.5505    0.8646 F   0  0  0  0  0  0  0  0  0  0  0  0
   -2.8286    1.1363    1.3956 O   0  0  0  0  0  0  0  0  0  0  0  0
   -2.6883    0.2536    2.5171 C   0  0  0  0  0  0  0  0  0  0  0  0
   -3.6436    0.2925    3.0398 H   0  0  0  0  0  0  0  0  0  0  0  0
   -1.8840    0.5873    3.1814 H   0  0  0  0  0  0  0  0  0  0  0  0
   -2.4871   -0.7713    2.1875 H   0  0  0  0  0  0  0  0  0  0  0  0
  1  7  1  0  0  0  0
  2  8  1  0  0  0  0
  2  1  2  0  0  0  0
  3  2  1  0  0  0  0
  4  3  2  0  0  0  0
  4  5  1  0  0  0  0
  5  6  2  0  0  0  0
  6  1  1  0  0  0  0
  6 18  1  0  0  0  0
  9  4  1  0  0  0  0
 10  5  1  0  0  0  0
 12 11  3  0  0  0  0
 13 14  1  0  0  0  0
 13 15  1  0  0  0  0
 13 16  1  0  0  0  0
 17 13  1  0  0  0  0
 18 19  1  0  0  0  0
 19 20  1  0  0  0  0
 19 21  1  0  0  0  0
 22 19  1  0  0  0  0
M  RAD  1   3   2
M  END
