Coordinates from ORCA-job 4-MeO-Ph-N2-BF4-B3LYPG-6-31G_dp-MTMO-d009-169-n800
 OpenBabel09051908083D

 22 20  0  0  0  0  0  0  0  0999 V2000
   -1.0747    0.8295    0.2802 C   0  0  0  0  0  0  0  0  0  0  0  0
   -0.4869    0.7824   -1.0433 C   0  0  0  0  0  0  0  0  0  0  0  0
   -1.4568    1.2295   -1.7880 C   0  0  0  0  0  0  0  0  0  0  0  0
   -2.7171    1.7013   -1.8540 C   0  0  0  0  0  0  0  0  0  0  0  0
   -3.2043    1.7191   -0.5328 C   0  0  0  0  0  0  0  0  0  0  0  0
   -2.3761    1.2843    0.5298 C   0  0  0  0  0  0  0  0  0  0  0  0
   -0.3616    0.4913    1.0374 H   0  0  0  0  0  0  0  0  0  0  0  0
    0.5876    0.4403   -1.1290 H   0  0  0  0  0  0  0  0  0  0  0  0
   -3.2755    2.0107   -2.7261 H   0  0  0  0  0  0  0  0  0  0  0  0
   -4.2134    2.0676   -0.3404 H   0  0  0  0  0  0  0  0  0  0  0  0
    7.7082   -0.0836    2.7062 N   0  0  0  0  0  0  0  0  0  0  0  0
    7.5097   -1.0303    2.1714 N   0  0  0  0  0  0  0  0  0  0  0  0
    2.2255    0.5594    0.6111 B   0  0  0  0  0  0  0  0  0  0  0  0
    1.3586   -0.1651    1.4733 F   0  0  0  0  0  0  0  0  0  0  0  0
    1.7895    1.8816    0.5476 F   0  0  0  0  0  0  0  0  0  0  0  0
    3.5348    0.4228    0.9741 F   0  0  0  0  0  0  0  0  0  0  0  0
    2.0346   -0.0077   -0.7295 F   0  0  0  0  0  0  0  0  0  0  0  0
   -2.9204    1.3458    1.7598 O   0  0  0  0  0  0  0  0  0  0  0  0
   -2.1024    0.9626    2.8755 C   0  0  0  0  0  0  0  0  0  0  0  0
   -2.7184    1.1300    3.7584 H   0  0  0  0  0  0  0  0  0  0  0  0
   -1.1975    1.5763    2.9277 H   0  0  0  0  0  0  0  0  0  0  0  0
   -1.8235   -0.0944    2.8119 H   0  0  0  0  0  0  0  0  0  0  0  0
  1  6  1  0  0  0  0
  1  7  1  0  0  0  0
  2  1  2  0  0  0  0
  3  2  1  0  0  0  0
  4  3  2  0  0  0  0
  4  5  1  0  0  0  0
  5 10  1  0  0  0  0
  5  6  2  0  0  0  0
  6 18  1  0  0  0  0
  8  2  1  0  0  0  0
  9  4  1  0  0  0  0
 12 11  3  0  0  0  0
 13 16  1  0  0  0  0
 13 14  1  0  0  0  0
 15 13  1  0  0  0  0
 17 13  1  0  0  0  0
 18 19  1  0  0  0  0
 19 21  1  0  0  0  0
 19 20  1  0  0  0  0
 22 19  1  0  0  0  0
M  RAD  1   3   2
M  END
