Coordinates from ORCA-job 4-MeO-Ph-N2-BF4-B3LYPG-6-31G_dp-MTMO-d009-169-n800
 OpenBabel09051908083D

 22 20  0  0  0  0  0  0  0  0999 V2000
   -1.4004    0.8941    0.2030 C   0  0  0  0  0  0  0  0  0  0  0  0
   -0.8173    0.8492   -1.1226 C   0  0  0  0  0  0  0  0  0  0  0  0
   -1.7941    1.2842   -1.8652 C   0  0  0  0  0  0  0  0  0  0  0  0
   -3.0597    1.7420   -1.9283 C   0  0  0  0  0  0  0  0  0  0  0  0
   -3.5423    1.7587   -0.6053 C   0  0  0  0  0  0  0  0  0  0  0  0
   -2.7057    1.3359    0.4556 C   0  0  0  0  0  0  0  0  0  0  0  0
   -0.6812    0.5661    0.9587 H   0  0  0  0  0  0  0  0  0  0  0  0
    0.2612    0.5188   -1.2119 H   0  0  0  0  0  0  0  0  0  0  0  0
   -3.6246    2.0427   -2.7992 H   0  0  0  0  0  0  0  0  0  0  0  0
   -4.5543    2.0970   -0.4103 H   0  0  0  0  0  0  0  0  0  0  0  0
   10.9894   -0.7597    3.5074 N   0  0  0  0  0  0  0  0  0  0  0  0
   10.7664   -1.7022    2.9748 N   0  0  0  0  0  0  0  0  0  0  0  0
    1.9047    0.6615    0.5163 B   0  0  0  0  0  0  0  0  0  0  0  0
    1.0511   -0.0717    1.3840 F   0  0  0  0  0  0  0  0  0  0  0  0
    1.4526    1.9782    0.4522 F   0  0  0  0  0  0  0  0  0  0  0  0
    3.2175    0.5409    0.8708 F   0  0  0  0  0  0  0  0  0  0  0  0
    1.7126    0.0892   -0.8229 F   0  0  0  0  0  0  0  0  0  0  0  0
   -3.2465    1.3956    1.6874 O   0  0  0  0  0  0  0  0  0  0  0  0
   -2.4208    1.0249    2.8015 C   0  0  0  0  0  0  0  0  0  0  0  0
   -3.0356    1.1888    3.6859 H   0  0  0  0  0  0  0  0  0  0  0  0
   -1.5222    1.6484    2.8487 H   0  0  0  0  0  0  0  0  0  0  0  0
   -2.1309   -0.0292    2.7406 H   0  0  0  0  0  0  0  0  0  0  0  0
  1  6  1  0  0  0  0
  1  7  1  0  0  0  0
  2  1  2  0  0  0  0
  3  2  1  0  0  0  0
  4  3  2  0  0  0  0
  4  5  1  0  0  0  0
  5 10  1  0  0  0  0
  5  6  2  0  0  0  0
  6 18  1  0  0  0  0
  8  2  1  0  0  0  0
  9  4  1  0  0  0  0
 12 11  3  0  0  0  0
 13 16  1  0  0  0  0
 13 14  1  0  0  0  0
 15 13  1  0  0  0  0
 17 13  1  0  0  0  0
 18 19  1  0  0  0  0
 19 21  1  0  0  0  0
 19 20  1  0  0  0  0
 22 19  1  0  0  0  0
M  RAD  1   3   2
M  END
