Coordinates from ORCA-job 4-MeO-Ph-N2-BF4-B3LYPG-6-31G_dp-MTMO-d009-169-n800
 OpenBabel09051908083D

 22 20  0  0  0  0  0  0  0  0999 V2000
   -1.4535    0.9039    0.1903 C   0  0  0  0  0  0  0  0  0  0  0  0
   -0.8713    0.8586   -1.1357 C   0  0  0  0  0  0  0  0  0  0  0  0
   -1.8477    1.2957   -1.8776 C   0  0  0  0  0  0  0  0  0  0  0  0
   -3.1126    1.7557   -1.9397 C   0  0  0  0  0  0  0  0  0  0  0  0
   -3.5944    1.7725   -0.6165 C   0  0  0  0  0  0  0  0  0  0  0  0
   -2.7580    1.3478    0.4438 C   0  0  0  0  0  0  0  0  0  0  0  0
   -0.7345    0.5744    0.9454 H   0  0  0  0  0  0  0  0  0  0  0  0
    0.2067    0.5264   -1.2257 H   0  0  0  0  0  0  0  0  0  0  0  0
   -3.6774    2.0577   -2.8102 H   0  0  0  0  0  0  0  0  0  0  0  0
   -4.6057    2.1124   -0.4207 H   0  0  0  0  0  0  0  0  0  0  0  0
   11.5178   -0.8538    3.6364 N   0  0  0  0  0  0  0  0  0  0  0  0
   11.2925   -1.7952    3.1027 N   0  0  0  0  0  0  0  0  0  0  0  0
    1.8514    0.6652    0.5013 B   0  0  0  0  0  0  0  0  0  0  0  0
    0.9971   -0.0669    1.3691 F   0  0  0  0  0  0  0  0  0  0  0  0
    1.4016    1.9828    0.4382 F   0  0  0  0  0  0  0  0  0  0  0  0
    3.1643    0.5421    0.8547 F   0  0  0  0  0  0  0  0  0  0  0  0
    1.6573    0.0941   -0.8381 F   0  0  0  0  0  0  0  0  0  0  0  0
   -3.2980    1.4078    1.6759 O   0  0  0  0  0  0  0  0  0  0  0  0
   -2.4724    1.0352    2.7893 C   0  0  0  0  0  0  0  0  0  0  0  0
   -3.0864    1.1995    3.6742 H   0  0  0  0  0  0  0  0  0  0  0  0
   -1.5728    1.6572    2.8365 H   0  0  0  0  0  0  0  0  0  0  0  0
   -2.1841   -0.0195    2.7277 H   0  0  0  0  0  0  0  0  0  0  0  0
  1  6  1  0  0  0  0
  1  7  1  0  0  0  0
  2  1  2  0  0  0  0
  3  2  1  0  0  0  0
  4  3  2  0  0  0  0
  4  5  1  0  0  0  0
  5 10  1  0  0  0  0
  5  6  2  0  0  0  0
  6 18  1  0  0  0  0
  8  2  1  0  0  0  0
  9  4  1  0  0  0  0
 12 11  3  0  0  0  0
 13 16  1  0  0  0  0
 13 14  1  0  0  0  0
 15 13  1  0  0  0  0
 17 13  1  0  0  0  0
 18 19  1  0  0  0  0
 19 21  1  0  0  0  0
 19 20  1  0  0  0  0
 22 19  1  0  0  0  0
M  RAD  1   3   2
M  END
