Coordinates from ORCA-job 4-MeO-Ph-N2-BF4-B3LYPG-6-31G_dp-MTMO-d009-169-n800
 OpenBabel09051908083D

 22 20  0  0  0  0  0  0  0  0999 V2000
   -0.5038    0.6461    0.7359 C   0  0  0  0  0  0  0  0  0  0  0  0
    0.6377    0.8492   -0.1175 C   0  0  0  0  0  0  0  0  0  0  0  0
    0.2232    1.7266   -0.9955 C   0  0  0  0  0  0  0  0  0  0  0  0
   -0.8104    2.4937   -1.3997 C   0  0  0  0  0  0  0  0  0  0  0  0
   -1.8758    2.2410   -0.5163 C   0  0  0  0  0  0  0  0  0  0  0  0
   -1.7177    1.3215    0.5478 C   0  0  0  0  0  0  0  0  0  0  0  0
   -0.2918   -0.0667    1.5348 H   0  0  0  0  0  0  0  0  0  0  0  0
    1.5939    0.3023    0.1131 H   0  0  0  0  0  0  0  0  0  0  0  0
   -0.8490    3.1769   -2.2356 H   0  0  0  0  0  0  0  0  0  0  0  0
   -2.8188    2.7585   -0.6573 H   0  0  0  0  0  0  0  0  0  0  0  0
    2.2313    2.2301   -2.5719 N   0  0  0  0  0  0  0  0  0  0  0  0
    3.1993    2.3302   -3.0938 N   0  0  0  0  0  0  0  0  0  0  0  0
    2.2683   -0.5142    2.2373 B   0  0  0  0  0  0  0  0  0  0  0  0
    1.0540   -1.2477    2.2812 F   0  0  0  0  0  0  0  0  0  0  0  0
    1.9953    0.8223    2.5327 F   0  0  0  0  0  0  0  0  0  0  0  0
    3.2296   -1.0686    3.0355 F   0  0  0  0  0  0  0  0  0  0  0  0
    2.7162   -0.5497    0.8424 F   0  0  0  0  0  0  0  0  0  0  0  0
   -2.7949    1.1584    1.3401 O   0  0  0  0  0  0  0  0  0  0  0  0
   -2.6752    0.2743    2.4625 C   0  0  0  0  0  0  0  0  0  0  0  0
   -3.6377    0.3177    2.9715 H   0  0  0  0  0  0  0  0  0  0  0  0
   -1.8790    0.6031    3.1388 H   0  0  0  0  0  0  0  0  0  0  0  0
   -2.4748   -0.7515    2.1352 H   0  0  0  0  0  0  0  0  0  0  0  0
  1  7  1  0  0  0  0
  2  8  1  0  0  0  0
  2  1  2  0  0  0  0
  3  2  1  0  0  0  0
  4  3  2  0  0  0  0
  4  5  1  0  0  0  0
  5  6  2  0  0  0  0
  6  1  1  0  0  0  0
  6 18  1  0  0  0  0
  9  4  1  0  0  0  0
 10  5  1  0  0  0  0
 12 11  3  0  0  0  0
 13 14  1  0  0  0  0
 13 15  1  0  0  0  0
 13 16  1  0  0  0  0
 17 13  1  0  0  0  0
 18 19  1  0  0  0  0
 19 20  1  0  0  0  0
 19 21  1  0  0  0  0
 22 19  1  0  0  0  0
M  RAD  1   3   2
M  END
