Coordinates from ORCA-job 4-MeO-Ph-N2-BF4-B3LYPG-6-31G_dp-MTMO-d009-169-n800
 OpenBabel09051908083D

 22 20  0  0  0  0  0  0  0  0999 V2000
   -0.8408    0.6938    0.4019 C   0  0  0  0  0  0  0  0  0  0  0  0
   -0.1480    0.7673   -0.8681 C   0  0  0  0  0  0  0  0  0  0  0  0
   -0.9355    1.5360   -1.5644 C   0  0  0  0  0  0  0  0  0  0  0  0
   -2.0610    2.2753   -1.6037 C   0  0  0  0  0  0  0  0  0  0  0  0
   -2.6613    2.1529   -0.3356 C   0  0  0  0  0  0  0  0  0  0  0  0
   -2.0436    1.3632    0.6637 C   0  0  0  0  0  0  0  0  0  0  0  0
   -0.2928    0.0680    1.1119 H   0  0  0  0  0  0  0  0  0  0  0  0
    0.8316    0.2141   -0.9646 H   0  0  0  0  0  0  0  0  0  0  0  0
   -2.4579    2.8541   -2.4257 H   0  0  0  0  0  0  0  0  0  0  0  0
   -3.5954    2.6671   -0.1358 H   0  0  0  0  0  0  0  0  0  0  0  0
    4.8668    2.1081    0.6213 N   0  0  0  0  0  0  0  0  0  0  0  0
    5.4829    1.3154    1.0831 N   0  0  0  0  0  0  0  0  0  0  0  0
    2.2756   -0.3998    0.8426 B   0  0  0  0  0  0  0  0  0  0  0  0
    1.1979   -1.0431    1.5059 F   0  0  0  0  0  0  0  0  0  0  0  0
    2.1522    0.9788    1.0231 F   0  0  0  0  0  0  0  0  0  0  0  0
    3.4877   -0.8961    1.2346 F   0  0  0  0  0  0  0  0  0  0  0  0
    2.0899   -0.6498   -0.5894 F   0  0  0  0  0  0  0  0  0  0  0  0
   -2.6823    1.3117    1.8476 O   0  0  0  0  0  0  0  0  0  0  0  0
   -2.0660    0.5697    2.9106 C   0  0  0  0  0  0  0  0  0  0  0  0
   -2.7229    0.6934    3.7709 H   0  0  0  0  0  0  0  0  0  0  0  0
   -1.0710    0.9653    3.1388 H   0  0  0  0  0  0  0  0  0  0  0  0
   -1.9862   -0.4919    2.6527 H   0  0  0  0  0  0  0  0  0  0  0  0
  1  6  1  0  0  0  0
  1  7  1  0  0  0  0
  2  1  2  0  0  0  0
  3  2  1  0  0  0  0
  4  3  2  0  0  0  0
  4  5  1  0  0  0  0
  5 10  1  0  0  0  0
  5  6  2  0  0  0  0
  6 18  1  0  0  0  0
  8  2  1  0  0  0  0
  9  4  1  0  0  0  0
 11 12  3  0  0  0  0
 13 15  1  0  0  0  0
 13 16  1  0  0  0  0
 13 14  1  0  0  0  0
 17 13  1  0  0  0  0
 18 19  1  0  0  0  0
 19 21  1  0  0  0  0
 19 20  1  0  0  0  0
 22 19  1  0  0  0  0
M  RAD  1   3   2
M  END
