Coordinates from ORCA-job 4-MeO-Ph-N2-BF4-B3LYPG-6-31G_dp-MTMO-d009-169-n800
 OpenBabel09051908083D

 22 20  0  0  0  0  0  0  0  0999 V2000
   -1.4880    0.9124    0.1827 C   0  0  0  0  0  0  0  0  0  0  0  0
   -0.9045    0.8688   -1.1427 C   0  0  0  0  0  0  0  0  0  0  0  0
   -1.8849    1.2931   -1.8867 C   0  0  0  0  0  0  0  0  0  0  0  0
   -3.1544    1.7397   -1.9513 C   0  0  0  0  0  0  0  0  0  0  0  0
   -3.6372    1.7559   -0.6284 C   0  0  0  0  0  0  0  0  0  0  0  0
   -2.7972    1.3435    0.4338 C   0  0  0  0  0  0  0  0  0  0  0  0
   -0.7662    0.5928    0.9395 H   0  0  0  0  0  0  0  0  0  0  0  0
    0.1771    0.5479   -1.2312 H   0  0  0  0  0  0  0  0  0  0  0  0
   -3.7218    2.0328   -2.8231 H   0  0  0  0  0  0  0  0  0  0  0  0
   -4.6522    2.0860   -0.4344 H   0  0  0  0  0  0  0  0  0  0  0  0
   11.8853   -0.9643    3.7185 N   0  0  0  0  0  0  0  0  0  0  0  0
   11.6529   -1.9055    3.1876 N   0  0  0  0  0  0  0  0  0  0  0  0
    1.8196    0.7100    0.4957 B   0  0  0  0  0  0  0  0  0  0  0  0
    0.9725   -0.0293    1.3647 F   0  0  0  0  0  0  0  0  0  0  0  0
    1.3558    2.0225    0.4291 F   0  0  0  0  0  0  0  0  0  0  0  0
    3.1335    0.6019    0.8502 F   0  0  0  0  0  0  0  0  0  0  0  0
    1.6324    0.1336   -0.8425 F   0  0  0  0  0  0  0  0  0  0  0  0
   -3.3387    1.4021    1.6654 O   0  0  0  0  0  0  0  0  0  0  0  0
   -2.5100    1.0422    2.7807 C   0  0  0  0  0  0  0  0  0  0  0  0
   -3.1263    1.2034    3.6646 H   0  0  0  0  0  0  0  0  0  0  0  0
   -1.6169    1.6736    2.8262 H   0  0  0  0  0  0  0  0  0  0  0  0
   -2.2109   -0.0096    2.7232 H   0  0  0  0  0  0  0  0  0  0  0  0
  1  6  1  0  0  0  0
  1  7  1  0  0  0  0
  2  1  2  0  0  0  0
  3  2  1  0  0  0  0
  4  3  2  0  0  0  0
  4  5  1  0  0  0  0
  5 10  1  0  0  0  0
  5  6  2  0  0  0  0
  6 18  1  0  0  0  0
  8  2  1  0  0  0  0
  9  4  1  0  0  0  0
 12 11  3  0  0  0  0
 13 16  1  0  0  0  0
 13 14  1  0  0  0  0
 15 13  1  0  0  0  0
 17 13  1  0  0  0  0
 18 19  1  0  0  0  0
 19 21  1  0  0  0  0
 19 20  1  0  0  0  0
 22 19  1  0  0  0  0
M  RAD  1   3   2
M  END
