Coordinates from ORCA-job 4-MeO-Ph-N2-BF4-B3LYPG-6-31G_dp-MTMO-d009-169-n800
 OpenBabel09051908083D

 22 20  0  0  0  0  0  0  0  0999 V2000
   -1.1193    0.8383    0.2696 C   0  0  0  0  0  0  0  0  0  0  0  0
   -0.5327    0.7912   -1.0544 C   0  0  0  0  0  0  0  0  0  0  0  0
   -1.5027    1.2393   -1.7983 C   0  0  0  0  0  0  0  0  0  0  0  0
   -2.7629    1.7116   -1.8632 C   0  0  0  0  0  0  0  0  0  0  0  0
   -3.2492    1.7291   -0.5416 C   0  0  0  0  0  0  0  0  0  0  0  0
   -2.4204    1.2934    0.5201 C   0  0  0  0  0  0  0  0  0  0  0  0
   -0.4059    0.4994    1.0261 H   0  0  0  0  0  0  0  0  0  0  0  0
    0.5417    0.4484   -1.1412 H   0  0  0  0  0  0  0  0  0  0  0  0
   -3.3217    2.0216   -2.7348 H   0  0  0  0  0  0  0  0  0  0  0  0
   -4.2580    2.0779   -0.3484 H   0  0  0  0  0  0  0  0  0  0  0  0
    8.1538   -0.1580    2.8142 N   0  0  0  0  0  0  0  0  0  0  0  0
    7.9556   -1.1090    2.2870 N   0  0  0  0  0  0  0  0  0  0  0  0
    2.1809    0.5630    0.5964 B   0  0  0  0  0  0  0  0  0  0  0  0
    1.3140   -0.1610    1.4589 F   0  0  0  0  0  0  0  0  0  0  0  0
    1.7464    1.8858    0.5342 F   0  0  0  0  0  0  0  0  0  0  0  0
    3.4904    0.4245    0.9571 F   0  0  0  0  0  0  0  0  0  0  0  0
    1.9873   -0.0028   -0.7447 F   0  0  0  0  0  0  0  0  0  0  0  0
   -2.9639    1.3547    1.7506 O   0  0  0  0  0  0  0  0  0  0  0  0
   -2.1454    0.9706    2.8656 C   0  0  0  0  0  0  0  0  0  0  0  0
   -2.7609    1.1377    3.7490 H   0  0  0  0  0  0  0  0  0  0  0  0
   -1.2403    1.5841    2.9177 H   0  0  0  0  0  0  0  0  0  0  0  0
   -1.8668   -0.0864    2.8013 H   0  0  0  0  0  0  0  0  0  0  0  0
  1  6  1  0  0  0  0
  1  7  1  0  0  0  0
  2  1  2  0  0  0  0
  3  2  1  0  0  0  0
  4  3  2  0  0  0  0
  4  5  1  0  0  0  0
  5 10  1  0  0  0  0
  5  6  2  0  0  0  0
  6 18  1  0  0  0  0
  8  2  1  0  0  0  0
  9  4  1  0  0  0  0
 12 11  3  0  0  0  0
 13 16  1  0  0  0  0
 13 14  1  0  0  0  0
 15 13  1  0  0  0  0
 17 13  1  0  0  0  0
 18 19  1  0  0  0  0
 19 21  1  0  0  0  0
 19 20  1  0  0  0  0
 22 19  1  0  0  0  0
M  RAD  1   3   2
M  END
