Coordinates from ORCA-job 4-MeO-Ph-N2-BF4-B3LYPG-6-31G_dp-MTMO-d009-169-n800
 OpenBabel09051908083D

 22 20  0  0  0  0  0  0  0  0999 V2000
   -0.9320    0.7567    0.3013 C   0  0  0  0  0  0  0  0  0  0  0  0
   -0.3895    0.6732   -1.0396 C   0  0  0  0  0  0  0  0  0  0  0  0
   -1.3179    1.2516   -1.7459 C   0  0  0  0  0  0  0  0  0  0  0  0
   -2.5135    1.8723   -1.7644 C   0  0  0  0  0  0  0  0  0  0  0  0
   -2.9615    1.9118   -0.4298 C   0  0  0  0  0  0  0  0  0  0  0  0
   -2.1642    1.3539    0.5983 C   0  0  0  0  0  0  0  0  0  0  0  0
   -0.2477    0.3110    1.0285 H   0  0  0  0  0  0  0  0  0  0  0  0
    0.6263    0.1921   -1.1653 H   0  0  0  0  0  0  0  0  0  0  0  0
   -3.0517    2.2717   -2.6122 H   0  0  0  0  0  0  0  0  0  0  0  0
   -3.9169    2.3716   -0.2006 H   0  0  0  0  0  0  0  0  0  0  0  0
    5.7303    0.5120    2.7810 N   0  0  0  0  0  0  0  0  0  0  0  0
    6.1662    0.7760    1.8006 N   0  0  0  0  0  0  0  0  0  0  0  0
    2.3216    0.0141    0.5085 B   0  0  0  0  0  0  0  0  0  0  0  0
    1.3836   -0.5712    1.4001 F   0  0  0  0  0  0  0  0  0  0  0  0
    2.1100    1.3898    0.4750 F   0  0  0  0  0  0  0  0  0  0  0  0
    3.6057   -0.3435    0.8177 F   0  0  0  0  0  0  0  0  0  0  0  0
    1.9905   -0.4918   -0.8284 F   0  0  0  0  0  0  0  0  0  0  0  0
   -2.6676    1.4434    1.8439 O   0  0  0  0  0  0  0  0  0  0  0  0
   -1.8756    0.9316    2.9261 C   0  0  0  0  0  0  0  0  0  0  0  0
   -2.4521    1.1328    3.8285 H   0  0  0  0  0  0  0  0  0  0  0  0
   -0.9083    1.4410    2.9786 H   0  0  0  0  0  0  0  0  0  0  0  0
   -1.7158   -0.1467    2.8196 H   0  0  0  0  0  0  0  0  0  0  0  0
  1  6  1  0  0  0  0
  1  7  1  0  0  0  0
  2  1  2  0  0  0  0
  3  2  1  0  0  0  0
  4  3  2  0  0  0  0
  4  5  1  0  0  0  0
  5 10  1  0  0  0  0
  5  6  2  0  0  0  0
  6 18  1  0  0  0  0
  8  2  1  0  0  0  0
  9  4  1  0  0  0  0
 12 11  3  0  0  0  0
 13 16  1  0  0  0  0
 13 14  1  0  0  0  0
 15 13  1  0  0  0  0
 17 13  1  0  0  0  0
 18 19  1  0  0  0  0
 19 21  1  0  0  0  0
 19 20  1  0  0  0  0
 22 19  1  0  0  0  0
M  RAD  1   3   2
M  END
