Coordinates from ORCA-job 4-MeO-Ph-N2-BF4-B3LYPG-6-31G_dp-MTMO-d009-169-n800
 OpenBabel09051908083D

 22 20  0  0  0  0  0  0  0  0999 V2000
   -0.9310    0.7556    0.3003 C   0  0  0  0  0  0  0  0  0  0  0  0
   -0.3903    0.6722   -1.0410 C   0  0  0  0  0  0  0  0  0  0  0  0
   -1.3178    1.2534   -1.7463 C   0  0  0  0  0  0  0  0  0  0  0  0
   -2.5121    1.8765   -1.7631 C   0  0  0  0  0  0  0  0  0  0  0  0
   -2.9586    1.9159   -0.4279 C   0  0  0  0  0  0  0  0  0  0  0  0
   -2.1616    1.3554    0.5990 C   0  0  0  0  0  0  0  0  0  0  0  0
   -0.2478    0.3071    1.0269 H   0  0  0  0  0  0  0  0  0  0  0  0
    0.6246    0.1893   -1.1676 H   0  0  0  0  0  0  0  0  0  0  0  0
   -3.0505    2.2776   -2.6100 H   0  0  0  0  0  0  0  0  0  0  0  0
   -3.9129    2.3774   -0.1977 H   0  0  0  0  0  0  0  0  0  0  0  0
    5.7080    0.5392    2.7824 N   0  0  0  0  0  0  0  0  0  0  0  0
    6.1603    0.7897    1.8059 N   0  0  0  0  0  0  0  0  0  0  0  0
    2.3213    0.0034    0.5065 B   0  0  0  0  0  0  0  0  0  0  0  0
    1.3818   -0.5802    1.3975 F   0  0  0  0  0  0  0  0  0  0  0  0
    2.1158    1.3801    0.4769 F   0  0  0  0  0  0  0  0  0  0  0  0
    3.6041   -0.3609    0.8131 F   0  0  0  0  0  0  0  0  0  0  0  0
    1.9869   -0.4975   -0.8316 F   0  0  0  0  0  0  0  0  0  0  0  0
   -2.6636    1.4450    1.8451 O   0  0  0  0  0  0  0  0  0  0  0  0
   -1.8718    0.9309    2.9263 C   0  0  0  0  0  0  0  0  0  0  0  0
   -2.4469    1.1329    3.8293 H   0  0  0  0  0  0  0  0  0  0  0  0
   -0.9033    1.4382    2.9781 H   0  0  0  0  0  0  0  0  0  0  0  0
   -1.7145   -0.1477    2.8191 H   0  0  0  0  0  0  0  0  0  0  0  0
  1  6  1  0  0  0  0
  1  7  1  0  0  0  0
  2  1  2  0  0  0  0
  3  2  1  0  0  0  0
  4  3  2  0  0  0  0
  4  5  1  0  0  0  0
  5 10  1  0  0  0  0
  5  6  2  0  0  0  0
  6 18  1  0  0  0  0
  8  2  1  0  0  0  0
  9  4  1  0  0  0  0
 12 11  3  0  0  0  0
 13 16  1  0  0  0  0
 13 14  1  0  0  0  0
 15 13  1  0  0  0  0
 17 13  1  0  0  0  0
 18 19  1  0  0  0  0
 19 21  1  0  0  0  0
 19 20  1  0  0  0  0
 22 19  1  0  0  0  0
M  RAD  1   3   2
M  END
