Coordinates from ORCA-job 4-MeO-Ph-N2-BF4-B3LYPG-6-31G_dp-MTMO-d009-169-n800
 OpenBabel09051908083D

 22 20  0  0  0  0  0  0  0  0999 V2000
   -1.0925    0.8334    0.2760 C   0  0  0  0  0  0  0  0  0  0  0  0
   -0.5052    0.7864   -1.0478 C   0  0  0  0  0  0  0  0  0  0  0  0
   -1.4753    1.2336   -1.7922 C   0  0  0  0  0  0  0  0  0  0  0  0
   -2.7358    1.7051   -1.8577 C   0  0  0  0  0  0  0  0  0  0  0  0
   -3.2225    1.7227   -0.5363 C   0  0  0  0  0  0  0  0  0  0  0  0
   -2.3939    1.2879    0.5259 C   0  0  0  0  0  0  0  0  0  0  0  0
   -0.3791    0.4951    1.0328 H   0  0  0  0  0  0  0  0  0  0  0  0
    0.5693    0.4443   -1.1340 H   0  0  0  0  0  0  0  0  0  0  0  0
   -3.2944    2.0146   -2.7295 H   0  0  0  0  0  0  0  0  0  0  0  0
   -4.2316    2.0710   -0.3435 H   0  0  0  0  0  0  0  0  0  0  0  0
    7.8863   -0.1138    2.7494 N   0  0  0  0  0  0  0  0  0  0  0  0
    7.6885   -1.0629    2.2187 N   0  0  0  0  0  0  0  0  0  0  0  0
    2.2077    0.5610    0.6050 B   0  0  0  0  0  0  0  0  0  0  0  0
    1.3409   -0.1632    1.4674 F   0  0  0  0  0  0  0  0  0  0  0  0
    1.7724    1.8835    0.5421 F   0  0  0  0  0  0  0  0  0  0  0  0
    3.5172    0.4236    0.9670 F   0  0  0  0  0  0  0  0  0  0  0  0
    2.0156   -0.0054   -0.7358 F   0  0  0  0  0  0  0  0  0  0  0  0
   -2.9378    1.3491    1.7562 O   0  0  0  0  0  0  0  0  0  0  0  0
   -2.1195    0.9658    2.8715 C   0  0  0  0  0  0  0  0  0  0  0  0
   -2.7353    1.1329    3.7547 H   0  0  0  0  0  0  0  0  0  0  0  0
   -1.2147    1.5798    2.9237 H   0  0  0  0  0  0  0  0  0  0  0  0
   -1.8403   -0.0911    2.8076 H   0  0  0  0  0  0  0  0  0  0  0  0
  1  6  1  0  0  0  0
  1  7  1  0  0  0  0
  2  1  2  0  0  0  0
  3  2  1  0  0  0  0
  4  3  2  0  0  0  0
  4  5  1  0  0  0  0
  5 10  1  0  0  0  0
  5  6  2  0  0  0  0
  6 18  1  0  0  0  0
  8  2  1  0  0  0  0
  9  4  1  0  0  0  0
 12 11  3  0  0  0  0
 13 16  1  0  0  0  0
 13 14  1  0  0  0  0
 15 13  1  0  0  0  0
 17 13  1  0  0  0  0
 18 19  1  0  0  0  0
 19 21  1  0  0  0  0
 19 20  1  0  0  0  0
 22 19  1  0  0  0  0
M  RAD  1   3   2
M  END
