Coordinates from ORCA-job 4-MeO-Ph-N2-BF4-B3LYPG-6-31G_dp-MTMO-d009-169-n800
 OpenBabel09051908083D

 22 20  0  0  0  0  0  0  0  0999 V2000
   -1.4358    0.9006    0.1945 C   0  0  0  0  0  0  0  0  0  0  0  0
   -0.8533    0.8554   -1.1314 C   0  0  0  0  0  0  0  0  0  0  0  0
   -1.8298    1.2919   -1.8735 C   0  0  0  0  0  0  0  0  0  0  0  0
   -3.0949    1.7513   -1.9359 C   0  0  0  0  0  0  0  0  0  0  0  0
   -3.5770    1.7680   -0.6127 C   0  0  0  0  0  0  0  0  0  0  0  0
   -2.7406    1.3439    0.4477 C   0  0  0  0  0  0  0  0  0  0  0  0
   -0.7168    0.5716    0.9498 H   0  0  0  0  0  0  0  0  0  0  0  0
    0.2248    0.5238   -1.2211 H   0  0  0  0  0  0  0  0  0  0  0  0
   -3.6597    2.0529   -2.8065 H   0  0  0  0  0  0  0  0  0  0  0  0
   -4.5885    2.1075   -0.4172 H   0  0  0  0  0  0  0  0  0  0  0  0
   11.3418   -0.8222    3.5933 N   0  0  0  0  0  0  0  0  0  0  0  0
   11.1172   -1.7640    3.0601 N   0  0  0  0  0  0  0  0  0  0  0  0
    1.8692    0.6638    0.5063 B   0  0  0  0  0  0  0  0  0  0  0  0
    1.0150   -0.0687    1.3741 F   0  0  0  0  0  0  0  0  0  0  0  0
    1.4186    1.9811    0.4429 F   0  0  0  0  0  0  0  0  0  0  0  0
    3.1820    0.5415    0.8601 F   0  0  0  0  0  0  0  0  0  0  0  0
    1.6757    0.0923   -0.8331 F   0  0  0  0  0  0  0  0  0  0  0  0
   -3.2808    1.4038    1.6797 O   0  0  0  0  0  0  0  0  0  0  0  0
   -2.4552    1.0318    2.7934 C   0  0  0  0  0  0  0  0  0  0  0  0
   -3.0695    1.1959    3.6781 H   0  0  0  0  0  0  0  0  0  0  0  0
   -1.5559    1.6542    2.8406 H   0  0  0  0  0  0  0  0  0  0  0  0
   -2.1665   -0.0227    2.7320 H   0  0  0  0  0  0  0  0  0  0  0  0
  1  6  1  0  0  0  0
  1  7  1  0  0  0  0
  2  1  2  0  0  0  0
  3  2  1  0  0  0  0
  4  3  2  0  0  0  0
  4  5  1  0  0  0  0
  5 10  1  0  0  0  0
  5  6  2  0  0  0  0
  6 18  1  0  0  0  0
  8  2  1  0  0  0  0
  9  4  1  0  0  0  0
 12 11  3  0  0  0  0
 13 16  1  0  0  0  0
 13 14  1  0  0  0  0
 15 13  1  0  0  0  0
 17 13  1  0  0  0  0
 18 19  1  0  0  0  0
 19 21  1  0  0  0  0
 19 20  1  0  0  0  0
 22 19  1  0  0  0  0
M  RAD  1   3   2
M  END
