Coordinates from ORCA-job 4-MeO-Ph-N2-BF4-B3LYPG-6-31G_dp-MTMO-d009-169-n800
 OpenBabel09051908083D

 22 20  0  0  0  0  0  0  0  0999 V2000
   -1.4075    0.8954    0.2013 C   0  0  0  0  0  0  0  0  0  0  0  0
   -0.8245    0.8504   -1.1244 C   0  0  0  0  0  0  0  0  0  0  0  0
   -1.8012    1.2858   -1.8669 C   0  0  0  0  0  0  0  0  0  0  0  0
   -3.0667    1.7439   -1.9298 C   0  0  0  0  0  0  0  0  0  0  0  0
   -3.5492    1.7606   -0.6068 C   0  0  0  0  0  0  0  0  0  0  0  0
   -2.7127    1.3375    0.4540 C   0  0  0  0  0  0  0  0  0  0  0  0
   -0.6884    0.5672    0.9569 H   0  0  0  0  0  0  0  0  0  0  0  0
    0.2539    0.5198   -1.2137 H   0  0  0  0  0  0  0  0  0  0  0  0
   -3.6316    2.0448   -2.8007 H   0  0  0  0  0  0  0  0  0  0  0  0
   -4.5611    2.0992   -0.4117 H   0  0  0  0  0  0  0  0  0  0  0  0
   11.0599   -0.7721    3.5246 N   0  0  0  0  0  0  0  0  0  0  0  0
   10.8366   -1.7145    2.9919 N   0  0  0  0  0  0  0  0  0  0  0  0
    1.8976    0.6619    0.5143 B   0  0  0  0  0  0  0  0  0  0  0  0
    1.0438   -0.0711    1.3820 F   0  0  0  0  0  0  0  0  0  0  0  0
    1.4458    1.9787    0.4503 F   0  0  0  0  0  0  0  0  0  0  0  0
    3.2104    0.5410    0.8687 F   0  0  0  0  0  0  0  0  0  0  0  0
    1.7052    0.0898   -0.8249 F   0  0  0  0  0  0  0  0  0  0  0  0
   -3.2533    1.3972    1.6859 O   0  0  0  0  0  0  0  0  0  0  0  0
   -2.4277    1.0263    2.7998 C   0  0  0  0  0  0  0  0  0  0  0  0
   -3.0424    1.1902    3.6844 H   0  0  0  0  0  0  0  0  0  0  0  0
   -1.5290    1.6496    2.8471 H   0  0  0  0  0  0  0  0  0  0  0  0
   -2.1380   -0.0279    2.7389 H   0  0  0  0  0  0  0  0  0  0  0  0
  1  6  1  0  0  0  0
  1  7  1  0  0  0  0
  2  1  2  0  0  0  0
  3  2  1  0  0  0  0
  4  3  2  0  0  0  0
  4  5  1  0  0  0  0
  5 10  1  0  0  0  0
  5  6  2  0  0  0  0
  6 18  1  0  0  0  0
  8  2  1  0  0  0  0
  9  4  1  0  0  0  0
 12 11  3  0  0  0  0
 13 16  1  0  0  0  0
 13 14  1  0  0  0  0
 15 13  1  0  0  0  0
 17 13  1  0  0  0  0
 18 19  1  0  0  0  0
 19 21  1  0  0  0  0
 19 20  1  0  0  0  0
 22 19  1  0  0  0  0
M  RAD  1   3   2
M  END
