Coordinates from ORCA-job 4-MeO-Ph-N2-BF4-B3LYPG-6-31G_dp-MTMO-d009-169-n800
 OpenBabel09051908083D

 22 20  0  0  0  0  0  0  0  0999 V2000
   -1.3132    0.8783    0.2239 C   0  0  0  0  0  0  0  0  0  0  0  0
   -0.7288    0.8342   -1.1012 C   0  0  0  0  0  0  0  0  0  0  0  0
   -1.7068    1.2644   -1.8451 C   0  0  0  0  0  0  0  0  0  0  0  0
   -2.9742    1.7171   -1.9097 C   0  0  0  0  0  0  0  0  0  0  0  0
   -3.4578    1.7334   -0.5871 C   0  0  0  0  0  0  0  0  0  0  0  0
   -2.6205    1.3152    0.4749 C   0  0  0  0  0  0  0  0  0  0  0  0
   -0.5933    0.5539    0.9805 H   0  0  0  0  0  0  0  0  0  0  0  0
    0.3511    0.5082   -1.1892 H   0  0  0  0  0  0  0  0  0  0  0  0
   -3.5395    2.0145   -2.7815 H   0  0  0  0  0  0  0  0  0  0  0  0
   -4.4713    2.0680   -0.3933 H   0  0  0  0  0  0  0  0  0  0  0  0
   10.1237   -0.6106    3.2968 N   0  0  0  0  0  0  0  0  0  0  0  0
    9.9048   -1.5549    2.7658 N   0  0  0  0  0  0  0  0  0  0  0  0
    1.9926    0.6597    0.5408 B   0  0  0  0  0  0  0  0  0  0  0  0
    1.1409   -0.0758    1.4086 F   0  0  0  0  0  0  0  0  0  0  0  0
    1.5353    1.9745    0.4745 F   0  0  0  0  0  0  0  0  0  0  0  0
    3.3054    0.5448    0.8971 F   0  0  0  0  0  0  0  0  0  0  0  0
    1.8040    0.0850   -0.7977 F   0  0  0  0  0  0  0  0  0  0  0  0
   -3.1624    1.3742    1.7062 O   0  0  0  0  0  0  0  0  0  0  0  0
   -2.3361    1.0082    2.8214 C   0  0  0  0  0  0  0  0  0  0  0  0
   -2.9521    1.1709    3.7052 H   0  0  0  0  0  0  0  0  0  0  0  0
   -1.4399    1.6352    2.8684 H   0  0  0  0  0  0  0  0  0  0  0  0
   -2.0421   -0.0449    2.7621 H   0  0  0  0  0  0  0  0  0  0  0  0
  1  6  1  0  0  0  0
  1  7  1  0  0  0  0
  2  1  2  0  0  0  0
  3  2  1  0  0  0  0
  4  3  2  0  0  0  0
  4  5  1  0  0  0  0
  5 10  1  0  0  0  0
  5  6  2  0  0  0  0
  6 18  1  0  0  0  0
  8  2  1  0  0  0  0
  9  4  1  0  0  0  0
 12 11  3  0  0  0  0
 13 16  1  0  0  0  0
 13 14  1  0  0  0  0
 15 13  1  0  0  0  0
 17 13  1  0  0  0  0
 18 19  1  0  0  0  0
 19 21  1  0  0  0  0
 19 20  1  0  0  0  0
 22 19  1  0  0  0  0
M  RAD  1   3   2
M  END
