Coordinates from ORCA-job 4-MeO-Ph-N2-BF4-B3LYPG-6-31G_dp-MTMO-d009-169-n800
 OpenBabel09051908083D

 22 20  0  0  0  0  0  0  0  0999 V2000
   -0.5826    0.6335    0.7901 C   0  0  0  0  0  0  0  0  0  0  0  0
    0.5535    0.8498   -0.0814 C   0  0  0  0  0  0  0  0  0  0  0  0
    0.0906    1.7218   -0.9299 C   0  0  0  0  0  0  0  0  0  0  0  0
   -0.9484    2.4829   -1.3248 C   0  0  0  0  0  0  0  0  0  0  0  0
   -1.9985    2.2175   -0.4251 C   0  0  0  0  0  0  0  0  0  0  0  0
   -1.8082    1.2937    0.6307 C   0  0  0  0  0  0  0  0  0  0  0  0
   -0.3419   -0.0829    1.5794 H   0  0  0  0  0  0  0  0  0  0  0  0
    1.5186    0.3042    0.1535 H   0  0  0  0  0  0  0  0  0  0  0  0
   -1.0028    3.1655   -2.1611 H   0  0  0  0  0  0  0  0  0  0  0  0
   -2.9493    2.7251   -0.5495 H   0  0  0  0  0  0  0  0  0  0  0  0
    3.0473    2.4340   -3.2474 N   0  0  0  0  0  0  0  0  0  0  0  0
    4.0267    2.5233   -3.7513 N   0  0  0  0  0  0  0  0  0  0  0  0
    2.1865   -0.5151    2.2748 B   0  0  0  0  0  0  0  0  0  0  0  0
    0.9763   -1.2551    2.3254 F   0  0  0  0  0  0  0  0  0  0  0  0
    1.9125    0.8151    2.5872 F   0  0  0  0  0  0  0  0  0  0  0  0
    3.1634   -1.0770    3.0454 F   0  0  0  0  0  0  0  0  0  0  0  0
    2.6131   -0.5323    0.8675 F   0  0  0  0  0  0  0  0  0  0  0  0
   -2.8659    1.1108    1.4442 O   0  0  0  0  0  0  0  0  0  0  0  0
   -2.7084    0.2237    2.5601 C   0  0  0  0  0  0  0  0  0  0  0  0
   -3.6594    0.2522    3.0913 H   0  0  0  0  0  0  0  0  0  0  0  0
   -1.9011    0.5607    3.2188 H   0  0  0  0  0  0  0  0  0  0  0  0
   -2.5019   -0.7979    2.2235 H   0  0  0  0  0  0  0  0  0  0  0  0
  1  7  1  0  0  0  0
  2  8  1  0  0  0  0
  2  1  2  0  0  0  0
  3  2  1  0  0  0  0
  4  3  2  0  0  0  0
  4  5  1  0  0  0  0
  5  6  2  0  0  0  0
  6  1  1  0  0  0  0
  6 18  1  0  0  0  0
  9  4  1  0  0  0  0
 10  5  1  0  0  0  0
 12 11  3  0  0  0  0
 13 14  1  0  0  0  0
 13 15  1  0  0  0  0
 13 16  1  0  0  0  0
 17 13  1  0  0  0  0
 18 19  1  0  0  0  0
 19 20  1  0  0  0  0
 19 21  1  0  0  0  0
 22 19  1  0  0  0  0
M  RAD  1   3   2
M  END
