Coordinates from ORCA-job 4-MeO-Ph-N2-BF4-B3LYPG-6-31G_dp-MTMO-d009-169-n800
 OpenBabel09051908083D

 22 20  0  0  0  0  0  0  0  0999 V2000
   -1.2989    0.8757    0.2273 C   0  0  0  0  0  0  0  0  0  0  0  0
   -0.7143    0.8319   -1.0977 C   0  0  0  0  0  0  0  0  0  0  0  0
   -1.6925    1.2610   -1.8419 C   0  0  0  0  0  0  0  0  0  0  0  0
   -2.9603    1.7128   -1.9067 C   0  0  0  0  0  0  0  0  0  0  0  0
   -3.4441    1.7289   -0.5842 C   0  0  0  0  0  0  0  0  0  0  0  0
   -2.6065    1.3116    0.4781 C   0  0  0  0  0  0  0  0  0  0  0  0
   -0.5789    0.5521    0.9841 H   0  0  0  0  0  0  0  0  0  0  0  0
    0.3659    0.5067   -1.1855 H   0  0  0  0  0  0  0  0  0  0  0  0
   -3.5257    2.0095   -2.7786 H   0  0  0  0  0  0  0  0  0  0  0  0
   -4.4579    2.0627   -0.3906 H   0  0  0  0  0  0  0  0  0  0  0  0
    9.9821   -0.5868    3.2624 N   0  0  0  0  0  0  0  0  0  0  0  0
    9.7637   -1.5314    2.7316 N   0  0  0  0  0  0  0  0  0  0  0  0
    2.0070    0.6599    0.5448 B   0  0  0  0  0  0  0  0  0  0  0  0
    1.1558   -0.0760    1.4127 F   0  0  0  0  0  0  0  0  0  0  0  0
    1.5488    1.9743    0.4782 F   0  0  0  0  0  0  0  0  0  0  0  0
    3.3199    0.5462    0.9014 F   0  0  0  0  0  0  0  0  0  0  0  0
    1.8192    0.0847   -0.7936 F   0  0  0  0  0  0  0  0  0  0  0  0
   -3.1487    1.3705    1.7093 O   0  0  0  0  0  0  0  0  0  0  0  0
   -2.3222    1.0055    2.8246 C   0  0  0  0  0  0  0  0  0  0  0  0
   -2.9384    1.1679    3.7083 H   0  0  0  0  0  0  0  0  0  0  0  0
   -1.4265    1.6332    2.8716 H   0  0  0  0  0  0  0  0  0  0  0  0
   -2.0274   -0.0475    2.7657 H   0  0  0  0  0  0  0  0  0  0  0  0
  1  6  1  0  0  0  0
  1  7  1  0  0  0  0
  2  1  2  0  0  0  0
  3  2  1  0  0  0  0
  4  3  2  0  0  0  0
  4  5  1  0  0  0  0
  5 10  1  0  0  0  0
  5  6  2  0  0  0  0
  6 18  1  0  0  0  0
  8  2  1  0  0  0  0
  9  4  1  0  0  0  0
 12 11  3  0  0  0  0
 13 16  1  0  0  0  0
 13 14  1  0  0  0  0
 15 13  1  0  0  0  0
 17 13  1  0  0  0  0
 18 19  1  0  0  0  0
 19 21  1  0  0  0  0
 19 20  1  0  0  0  0
 22 19  1  0  0  0  0
M  RAD  1   3   2
M  END
