Coordinates from ORCA-job 4-MeO-Ph-N2-BF4-B3LYPG-6-31G_dp-MTMO-d009-169-n800
 OpenBabel09051908083D

 22 20  0  0  0  0  0  0  0  0999 V2000
   -0.4869    0.6373    0.7177 C   0  0  0  0  0  0  0  0  0  0  0  0
    0.6411    0.8422   -0.1289 C   0  0  0  0  0  0  0  0  0  0  0  0
    0.2875    1.7404   -1.0361 C   0  0  0  0  0  0  0  0  0  0  0  0
   -0.7666    2.5106   -1.4086 C   0  0  0  0  0  0  0  0  0  0  0  0
   -1.8331    2.2569   -0.5346 C   0  0  0  0  0  0  0  0  0  0  0  0
   -1.6919    1.3283    0.5239 C   0  0  0  0  0  0  0  0  0  0  0  0
   -0.2940   -0.0756    1.5194 H   0  0  0  0  0  0  0  0  0  0  0  0
    1.5868    0.2908    0.0738 H   0  0  0  0  0  0  0  0  0  0  0  0
   -0.8085    3.2082   -2.2323 H   0  0  0  0  0  0  0  0  0  0  0  0
   -2.7720    2.7829   -0.6701 H   0  0  0  0  0  0  0  0  0  0  0  0
    1.9803    2.1401   -2.3193 N   0  0  0  0  0  0  0  0  0  0  0  0
    2.9453    2.2488   -2.8444 N   0  0  0  0  0  0  0  0  0  0  0  0
    2.3240   -0.4948    2.2107 B   0  0  0  0  0  0  0  0  0  0  0  0
    1.0873   -1.1799    2.3510 F   0  0  0  0  0  0  0  0  0  0  0  0
    2.1031    0.8710    2.4192 F   0  0  0  0  0  0  0  0  0  0  0  0
    3.2883   -1.0186    3.0302 F   0  0  0  0  0  0  0  0  0  0  0  0
    2.7273   -0.6445    0.8197 F   0  0  0  0  0  0  0  0  0  0  0  0
   -2.7774    1.1739    1.3055 O   0  0  0  0  0  0  0  0  0  0  0  0
   -2.6837    0.2750    2.4187 C   0  0  0  0  0  0  0  0  0  0  0  0
   -3.6514    0.3273    2.9171 H   0  0  0  0  0  0  0  0  0  0  0  0
   -1.8904    0.5829    3.1075 H   0  0  0  0  0  0  0  0  0  0  0  0
   -2.4952   -0.7496    2.0812 H   0  0  0  0  0  0  0  0  0  0  0  0
  1  7  1  0  0  0  0
  2  8  1  0  0  0  0
  2  1  2  0  0  0  0
  3  2  1  0  0  0  0
  4  3  2  0  0  0  0
  4  5  1  0  0  0  0
  5  6  2  0  0  0  0
  6  1  1  0  0  0  0
  6 18  1  0  0  0  0
  9  4  1  0  0  0  0
 10  5  1  0  0  0  0
 12 11  3  0  0  0  0
 13 14  1  0  0  0  0
 13 15  1  0  0  0  0
 13 16  1  0  0  0  0
 17 13  1  0  0  0  0
 18 19  1  0  0  0  0
 19 20  1  0  0  0  0
 19 21  1  0  0  0  0
 22 19  1  0  0  0  0
M  RAD  1   3   2
M  END
