Coordinates from ORCA-job 4-MeO-Ph-N2-BF4-B3LYPG-6-31G_dp-MTMO-d009-169-n800
 OpenBabel09051908083D

 22 20  0  0  0  0  0  0  0  0999 V2000
   -0.5796    0.6334    0.7883 C   0  0  0  0  0  0  0  0  0  0  0  0
    0.5572    0.8481   -0.0826 C   0  0  0  0  0  0  0  0  0  0  0  0
    0.0956    1.7200   -0.9320 C   0  0  0  0  0  0  0  0  0  0  0  0
   -0.9425    2.4816   -1.3282 C   0  0  0  0  0  0  0  0  0  0  0  0
   -1.9934    2.2177   -0.4289 C   0  0  0  0  0  0  0  0  0  0  0  0
   -1.8046    1.2945    0.6276 C   0  0  0  0  0  0  0  0  0  0  0  0
   -0.3401   -0.0825    1.5784 H   0  0  0  0  0  0  0  0  0  0  0  0
    1.5217    0.3019    0.1531 H   0  0  0  0  0  0  0  0  0  0  0  0
   -0.9957    3.1636   -2.1650 H   0  0  0  0  0  0  0  0  0  0  0  0
   -2.9436    2.7259   -0.5543 H   0  0  0  0  0  0  0  0  0  0  0  0
    3.0179    2.4316   -3.2276 N   0  0  0  0  0  0  0  0  0  0  0  0
    3.9962    2.5248   -3.7328 N   0  0  0  0  0  0  0  0  0  0  0  0
    2.1882   -0.5164    2.2752 B   0  0  0  0  0  0  0  0  0  0  0  0
    0.9773   -1.2552    2.3258 F   0  0  0  0  0  0  0  0  0  0  0  0
    1.9152    0.8143    2.5865 F   0  0  0  0  0  0  0  0  0  0  0  0
    3.1642   -1.0785    3.0468 F   0  0  0  0  0  0  0  0  0  0  0  0
    2.6154   -0.5350    0.8682 F   0  0  0  0  0  0  0  0  0  0  0  0
   -2.8630    1.1131    1.4405 O   0  0  0  0  0  0  0  0  0  0  0  0
   -2.7071    0.2266    2.5571 C   0  0  0  0  0  0  0  0  0  0  0  0
   -3.6584    0.2563    3.0877 H   0  0  0  0  0  0  0  0  0  0  0  0
   -1.8999    0.5633    3.2162 H   0  0  0  0  0  0  0  0  0  0  0  0
   -2.5012   -0.7954    2.2214 H   0  0  0  0  0  0  0  0  0  0  0  0
  1  7  1  0  0  0  0
  2  8  1  0  0  0  0
  2  1  2  0  0  0  0
  3  2  1  0  0  0  0
  4  3  2  0  0  0  0
  4  5  1  0  0  0  0
  5  6  2  0  0  0  0
  6  1  1  0  0  0  0
  6 18  1  0  0  0  0
  9  4  1  0  0  0  0
 10  5  1  0  0  0  0
 12 11  3  0  0  0  0
 13 14  1  0  0  0  0
 13 15  1  0  0  0  0
 13 16  1  0  0  0  0
 17 13  1  0  0  0  0
 18 19  1  0  0  0  0
 19 20  1  0  0  0  0
 19 21  1  0  0  0  0
 22 19  1  0  0  0  0
M  RAD  1   3   2
M  END
