Coordinates from ORCA-job 4-MeO-Ph-N2-BF4-B3LYPG-6-31G_dp-MTMO-d009-169-n800
 OpenBabel09051908083D

 22 20  0  0  0  0  0  0  0  0999 V2000
   -0.7609    0.7068    0.4881 C   0  0  0  0  0  0  0  0  0  0  0  0
    0.0831    0.8818   -0.6766 C   0  0  0  0  0  0  0  0  0  0  0  0
   -0.6223    1.7038   -1.3996 C   0  0  0  0  0  0  0  0  0  0  0  0
   -1.7520    2.4272   -1.5253 C   0  0  0  0  0  0  0  0  0  0  0  0
   -2.5033    2.2021   -0.3558 C   0  0  0  0  0  0  0  0  0  0  0  0
   -1.9996    1.3407    0.6484 C   0  0  0  0  0  0  0  0  0  0  0  0
   -0.2816    0.0511    1.2224 H   0  0  0  0  0  0  0  0  0  0  0  0
    1.0758    0.3502   -0.6815 H   0  0  0  0  0  0  0  0  0  0  0  0
   -2.0556    3.0612   -2.3466 H   0  0  0  0  0  0  0  0  0  0  0  0
   -3.4637    2.6918   -0.2353 H   0  0  0  0  0  0  0  0  0  0  0  0
    4.2263    1.7127   -0.6583 N   0  0  0  0  0  0  0  0  0  0  0  0
    5.1325    1.4290   -0.0933 N   0  0  0  0  0  0  0  0  0  0  0  0
    2.3127   -0.2832    1.2866 B   0  0  0  0  0  0  0  0  0  0  0  0
    1.1886   -0.9308    1.8658 F   0  0  0  0  0  0  0  0  0  0  0  0
    2.1539    1.0971    1.4218 F   0  0  0  0  0  0  0  0  0  0  0  0
    3.4918   -0.7519    1.7937 F   0  0  0  0  0  0  0  0  0  0  0  0
    2.2603   -0.5633   -0.1504 F   0  0  0  0  0  0  0  0  0  0  0  0
   -2.7778    1.1899    1.7365 O   0  0  0  0  0  0  0  0  0  0  0  0
   -2.2996    0.3412    2.7903 C   0  0  0  0  0  0  0  0  0  0  0  0
   -3.0542    0.3973    3.5745 H   0  0  0  0  0  0  0  0  0  0  0  0
   -1.3353    0.6915    3.1722 H   0  0  0  0  0  0  0  0  0  0  0  0
   -2.1992   -0.6928    2.4437 H   0  0  0  0  0  0  0  0  0  0  0  0
  1  6  1  0  0  0  0
  1  7  1  0  0  0  0
  2  1  2  0  0  0  0
  3  2  1  0  0  0  0
  4  3  2  0  0  0  0
  4  5  1  0  0  0  0
  5 10  1  0  0  0  0
  5  6  2  0  0  0  0
  6 18  1  0  0  0  0
  8  2  1  0  0  0  0
  9  4  1  0  0  0  0
 11 12  3  0  0  0  0
 13 15  1  0  0  0  0
 13 16  1  0  0  0  0
 13 14  1  0  0  0  0
 17 13  1  0  0  0  0
 18 19  1  0  0  0  0
 19 21  1  0  0  0  0
 19 20  1  0  0  0  0
 22 19  1  0  0  0  0
M  RAD  1   3   2
M  END
