Coordinates from ORCA-job 4-MeO-Ph-N2-BF4-B3LYPG-6-31G_dp-MTMO-d009-169-n800
 OpenBabel09051908083D

 22 20  0  0  0  0  0  0  0  0999 V2000
   -1.4482    0.9029    0.1916 C   0  0  0  0  0  0  0  0  0  0  0  0
   -0.8659    0.8576   -1.1344 C   0  0  0  0  0  0  0  0  0  0  0  0
   -1.8423    1.2946   -1.8763 C   0  0  0  0  0  0  0  0  0  0  0  0
   -3.1073    1.7544   -1.9385 C   0  0  0  0  0  0  0  0  0  0  0  0
   -3.5891    1.7711   -0.6153 C   0  0  0  0  0  0  0  0  0  0  0  0
   -2.7527    1.3466    0.4450 C   0  0  0  0  0  0  0  0  0  0  0  0
   -0.7292    0.5735    0.9467 H   0  0  0  0  0  0  0  0  0  0  0  0
    0.2121    0.5256   -1.2244 H   0  0  0  0  0  0  0  0  0  0  0  0
   -3.6721    2.0563   -2.8091 H   0  0  0  0  0  0  0  0  0  0  0  0
   -4.6005    2.1110   -0.4197 H   0  0  0  0  0  0  0  0  0  0  0  0
   11.4650   -0.8443    3.6235 N   0  0  0  0  0  0  0  0  0  0  0  0
   11.2399   -1.7858    3.0899 N   0  0  0  0  0  0  0  0  0  0  0  0
    1.8568    0.6648    0.5028 B   0  0  0  0  0  0  0  0  0  0  0  0
    1.0024   -0.0675    1.3706 F   0  0  0  0  0  0  0  0  0  0  0  0
    1.4067    1.9823    0.4396 F   0  0  0  0  0  0  0  0  0  0  0  0
    3.1696    0.5419    0.8563 F   0  0  0  0  0  0  0  0  0  0  0  0
    1.6628    0.0935   -0.8366 F   0  0  0  0  0  0  0  0  0  0  0  0
   -3.2928    1.4066    1.6770 O   0  0  0  0  0  0  0  0  0  0  0  0
   -2.4672    1.0341    2.7905 C   0  0  0  0  0  0  0  0  0  0  0  0
   -3.0814    1.1984    3.6754 H   0  0  0  0  0  0  0  0  0  0  0  0
   -1.5677    1.6563    2.8377 H   0  0  0  0  0  0  0  0  0  0  0  0
   -2.1788   -0.0204    2.7290 H   0  0  0  0  0  0  0  0  0  0  0  0
  1  6  1  0  0  0  0
  1  7  1  0  0  0  0
  2  1  2  0  0  0  0
  3  2  1  0  0  0  0
  4  3  2  0  0  0  0
  4  5  1  0  0  0  0
  5 10  1  0  0  0  0
  5  6  2  0  0  0  0
  6 18  1  0  0  0  0
  8  2  1  0  0  0  0
  9  4  1  0  0  0  0
 12 11  3  0  0  0  0
 13 16  1  0  0  0  0
 13 14  1  0  0  0  0
 15 13  1  0  0  0  0
 17 13  1  0  0  0  0
 18 19  1  0  0  0  0
 19 21  1  0  0  0  0
 19 20  1  0  0  0  0
 22 19  1  0  0  0  0
M  RAD  1   3   2
M  END
