Coordinates from ORCA-job 4-MeO-Ph-N2-BF4-B3LYPG-6-31G_dp-MTMO-d009-169-n800
 OpenBabel09051908083D

 22 20  0  0  0  0  0  0  0  0999 V2000
   -1.3114    0.8780    0.2243 C   0  0  0  0  0  0  0  0  0  0  0  0
   -0.7270    0.8339   -1.1008 C   0  0  0  0  0  0  0  0  0  0  0  0
   -1.7050    1.2640   -1.8447 C   0  0  0  0  0  0  0  0  0  0  0  0
   -2.9724    1.7166   -1.9093 C   0  0  0  0  0  0  0  0  0  0  0  0
   -3.4561    1.7328   -0.5868 C   0  0  0  0  0  0  0  0  0  0  0  0
   -2.6187    1.3147    0.4753 C   0  0  0  0  0  0  0  0  0  0  0  0
   -0.5915    0.5537    0.9809 H   0  0  0  0  0  0  0  0  0  0  0  0
    0.3530    0.5080   -1.1888 H   0  0  0  0  0  0  0  0  0  0  0  0
   -3.5378    2.0139   -2.7811 H   0  0  0  0  0  0  0  0  0  0  0  0
   -4.4697    2.0673   -0.3930 H   0  0  0  0  0  0  0  0  0  0  0  0
   10.1060   -0.6076    3.2925 N   0  0  0  0  0  0  0  0  0  0  0  0
    9.8872   -1.5519    2.7615 N   0  0  0  0  0  0  0  0  0  0  0  0
    1.9944    0.6597    0.5413 B   0  0  0  0  0  0  0  0  0  0  0  0
    1.1428   -0.0758    1.4092 F   0  0  0  0  0  0  0  0  0  0  0  0
    1.5370    1.9745    0.4750 F   0  0  0  0  0  0  0  0  0  0  0  0
    3.3072    0.5450    0.8976 F   0  0  0  0  0  0  0  0  0  0  0  0
    1.8059    0.0849   -0.7972 F   0  0  0  0  0  0  0  0  0  0  0  0
   -3.1607    1.3737    1.7066 O   0  0  0  0  0  0  0  0  0  0  0  0
   -2.3343    1.0079    2.8218 C   0  0  0  0  0  0  0  0  0  0  0  0
   -2.9504    1.1705    3.7056 H   0  0  0  0  0  0  0  0  0  0  0  0
   -1.4383    1.6349    2.8688 H   0  0  0  0  0  0  0  0  0  0  0  0
   -2.0402   -0.0453    2.7625 H   0  0  0  0  0  0  0  0  0  0  0  0
  1  6  1  0  0  0  0
  1  7  1  0  0  0  0
  2  1  2  0  0  0  0
  3  2  1  0  0  0  0
  4  3  2  0  0  0  0
  4  5  1  0  0  0  0
  5 10  1  0  0  0  0
  5  6  2  0  0  0  0
  6 18  1  0  0  0  0
  8  2  1  0  0  0  0
  9  4  1  0  0  0  0
 12 11  3  0  0  0  0
 13 16  1  0  0  0  0
 13 14  1  0  0  0  0
 15 13  1  0  0  0  0
 17 13  1  0  0  0  0
 18 19  1  0  0  0  0
 19 21  1  0  0  0  0
 19 20  1  0  0  0  0
 22 19  1  0  0  0  0
M  RAD  1   3   2
M  END
