Coordinates from ORCA-job 4-MeO-Ph-N2-BF4-B3LYPG-6-31G_dp-MTMO-d009-169-n800
 OpenBabel09051908083D

 22 20  0  0  0  0  0  0  0  0999 V2000
   -1.5079    0.9157    0.1779 C   0  0  0  0  0  0  0  0  0  0  0  0
   -0.9243    0.8717   -1.1476 C   0  0  0  0  0  0  0  0  0  0  0  0
   -1.9038    1.2984   -1.8914 C   0  0  0  0  0  0  0  0  0  0  0  0
   -3.1725    1.7475   -1.9557 C   0  0  0  0  0  0  0  0  0  0  0  0
   -3.6554    1.7640   -0.6329 C   0  0  0  0  0  0  0  0  0  0  0  0
   -2.8162    1.3493    0.4292 C   0  0  0  0  0  0  0  0  0  0  0  0
   -0.7868    0.5942    0.9345 H   0  0  0  0  0  0  0  0  0  0  0  0
    0.1566    0.5487   -1.2360 H   0  0  0  0  0  0  0  0  0  0  0  0
   -3.7392    2.0423   -2.8275 H   0  0  0  0  0  0  0  0  0  0  0  0
   -4.6697    2.0961   -0.4388 H   0  0  0  0  0  0  0  0  0  0  0  0
   12.0804   -0.9951    3.7644 N   0  0  0  0  0  0  0  0  0  0  0  0
   11.8495   -1.9360    3.2325 N   0  0  0  0  0  0  0  0  0  0  0  0
    1.7990    0.7072    0.4917 B   0  0  0  0  0  0  0  0  0  0  0  0
    0.9505   -0.0303    1.3608 F   0  0  0  0  0  0  0  0  0  0  0  0
    1.3376    2.0205    0.4248 F   0  0  0  0  0  0  0  0  0  0  0  0
    3.1126    0.5967    0.8463 F   0  0  0  0  0  0  0  0  0  0  0  0
    1.6108    0.1309   -0.8464 F   0  0  0  0  0  0  0  0  0  0  0  0
   -3.3577    1.4083    1.6607 O   0  0  0  0  0  0  0  0  0  0  0  0
   -2.5298    1.0461    2.7758 C   0  0  0  0  0  0  0  0  0  0  0  0
   -3.1458    1.2081    3.6598 H   0  0  0  0  0  0  0  0  0  0  0  0
   -1.6353    1.6756    2.8217 H   0  0  0  0  0  0  0  0  0  0  0  0
   -2.2329   -0.0063    2.7177 H   0  0  0  0  0  0  0  0  0  0  0  0
  1  6  1  0  0  0  0
  1  7  1  0  0  0  0
  2  1  2  0  0  0  0
  3  2  1  0  0  0  0
  4  3  2  0  0  0  0
  4  5  1  0  0  0  0
  5 10  1  0  0  0  0
  5  6  2  0  0  0  0
  6 18  1  0  0  0  0
  8  2  1  0  0  0  0
  9  4  1  0  0  0  0
 12 11  3  0  0  0  0
 13 16  1  0  0  0  0
 13 14  1  0  0  0  0
 15 13  1  0  0  0  0
 17 13  1  0  0  0  0
 18 19  1  0  0  0  0
 19 21  1  0  0  0  0
 19 20  1  0  0  0  0
 22 19  1  0  0  0  0
M  RAD  1   3   2
M  END
