Coordinates from ORCA-job 4-MeO-Ph-N2-BF4-B3LYPG-6-31G_dp-MTMO-d009-169-n800
 OpenBabel09051908083D

 22 20  0  0  0  0  0  0  0  0999 V2000
   -1.3862    0.8915    0.2064 C   0  0  0  0  0  0  0  0  0  0  0  0
   -0.8029    0.8467   -1.1192 C   0  0  0  0  0  0  0  0  0  0  0  0
   -1.7798    1.2811   -1.8620 C   0  0  0  0  0  0  0  0  0  0  0  0
   -3.0457    1.7382   -1.9252 C   0  0  0  0  0  0  0  0  0  0  0  0
   -3.5284    1.7548   -0.6023 C   0  0  0  0  0  0  0  0  0  0  0  0
   -2.6918    1.3326    0.4588 C   0  0  0  0  0  0  0  0  0  0  0  0
   -0.6670    0.5640    0.9622 H   0  0  0  0  0  0  0  0  0  0  0  0
    0.2758    0.5169   -1.2082 H   0  0  0  0  0  0  0  0  0  0  0  0
   -3.6106    2.0384   -2.7963 H   0  0  0  0  0  0  0  0  0  0  0  0
   -4.5406    2.0926   -0.4075 H   0  0  0  0  0  0  0  0  0  0  0  0
   10.8482   -0.7349    3.4730 N   0  0  0  0  0  0  0  0  0  0  0  0
   10.6260   -1.6777    2.9407 N   0  0  0  0  0  0  0  0  0  0  0  0
    1.9190    0.6608    0.5203 B   0  0  0  0  0  0  0  0  0  0  0  0
    1.0656   -0.0727    1.3880 F   0  0  0  0  0  0  0  0  0  0  0  0
    1.4662    1.9773    0.4559 F   0  0  0  0  0  0  0  0  0  0  0  0
    3.2318    0.5411    0.8751 F   0  0  0  0  0  0  0  0  0  0  0  0
    1.7274    0.0882   -0.8188 F   0  0  0  0  0  0  0  0  0  0  0  0
   -3.2328    1.3922    1.6905 O   0  0  0  0  0  0  0  0  0  0  0  0
   -2.4070    1.0222    2.8047 C   0  0  0  0  0  0  0  0  0  0  0  0
   -3.0220    1.1859    3.6891 H   0  0  0  0  0  0  0  0  0  0  0  0
   -1.5088    1.6462    2.8520 H   0  0  0  0  0  0  0  0  0  0  0  0
   -2.1165   -0.0318    2.7441 H   0  0  0  0  0  0  0  0  0  0  0  0
  1  6  1  0  0  0  0
  1  7  1  0  0  0  0
  2  1  2  0  0  0  0
  3  2  1  0  0  0  0
  4  3  2  0  0  0  0
  4  5  1  0  0  0  0
  5 10  1  0  0  0  0
  5  6  2  0  0  0  0
  6 18  1  0  0  0  0
  8  2  1  0  0  0  0
  9  4  1  0  0  0  0
 12 11  3  0  0  0  0
 13 16  1  0  0  0  0
 13 14  1  0  0  0  0
 15 13  1  0  0  0  0
 17 13  1  0  0  0  0
 18 19  1  0  0  0  0
 19 21  1  0  0  0  0
 19 20  1  0  0  0  0
 22 19  1  0  0  0  0
M  RAD  1   3   2
M  END
