Coordinates from ORCA-job 4-MeO-Ph-N2-BF4-B3LYPG-6-31G_dp-MTMO-d009-169-n800
 OpenBabel09051908083D

 22 20  0  0  0  0  0  0  0  0999 V2000
   -1.5932    0.9315    0.1577 C   0  0  0  0  0  0  0  0  0  0  0  0
   -1.0101    0.8865   -1.1680 C   0  0  0  0  0  0  0  0  0  0  0  0
   -1.9882    1.3176   -1.9111 C   0  0  0  0  0  0  0  0  0  0  0  0
   -3.2551    1.7716   -1.9747 C   0  0  0  0  0  0  0  0  0  0  0  0
   -3.7376    1.7886   -0.6518 C   0  0  0  0  0  0  0  0  0  0  0  0
   -2.8998    1.3697    0.4097 C   0  0  0  0  0  0  0  0  0  0  0  0
   -0.8730    0.6067    0.9138 H   0  0  0  0  0  0  0  0  0  0  0  0
    0.0696    0.5594   -1.2569 H   0  0  0  0  0  0  0  0  0  0  0  0
   -3.8210    2.0693   -2.8461 H   0  0  0  0  0  0  0  0  0  0  0  0
   -4.7506    2.1242   -0.4571 H   0  0  0  0  0  0  0  0  0  0  0  0
   12.9262   -1.1449    3.9675 N   0  0  0  0  0  0  0  0  0  0  0  0
   12.6944   -2.0838    3.4323 N   0  0  0  0  0  0  0  0  0  0  0  0
    1.7131    0.7099    0.4701 B   0  0  0  0  0  0  0  0  0  0  0  0
    0.8621   -0.0250    1.3390 F   0  0  0  0  0  0  0  0  0  0  0  0
    1.2567    2.0251    0.4045 F   0  0  0  0  0  0  0  0  0  0  0  0
    3.0264    0.5940    0.8240 F   0  0  0  0  0  0  0  0  0  0  0  0
    1.5221    0.1354   -0.8684 F   0  0  0  0  0  0  0  0  0  0  0  0
   -3.4407    1.4296    1.6414 O   0  0  0  0  0  0  0  0  0  0  0  0
   -2.6139    1.0630    2.7560 C   0  0  0  0  0  0  0  0  0  0  0  0
   -3.2292    1.2264    3.6403 H   0  0  0  0  0  0  0  0  0  0  0  0
   -1.7172    1.6893    2.8023 H   0  0  0  0  0  0  0  0  0  0  0  0
   -2.3209    0.0096    2.6967 H   0  0  0  0  0  0  0  0  0  0  0  0
  1  6  1  0  0  0  0
  1  7  1  0  0  0  0
  2  1  2  0  0  0  0
  3  2  1  0  0  0  0
  4  3  2  0  0  0  0
  4  5  1  0  0  0  0
  5 10  1  0  0  0  0
  5  6  2  0  0  0  0
  6 18  1  0  0  0  0
  8  2  1  0  0  0  0
  9  4  1  0  0  0  0
 12 11  3  0  0  0  0
 13 16  1  0  0  0  0
 13 14  1  0  0  0  0
 15 13  1  0  0  0  0
 17 13  1  0  0  0  0
 18 19  1  0  0  0  0
 19 21  1  0  0  0  0
 19 20  1  0  0  0  0
 22 19  1  0  0  0  0
M  RAD  1   3   2
M  END
