Coordinates from ORCA-job 4-MeO-Ph-N2-BF4-B3LYPG-6-31G_dp-MTMO-d009-169-n800
 OpenBabel09051908083D

 22 20  0  0  0  0  0  0  0  0999 V2000
   -1.2576    0.8686    0.2372 C   0  0  0  0  0  0  0  0  0  0  0  0
   -0.6723    0.8252   -1.0876 C   0  0  0  0  0  0  0  0  0  0  0  0
   -1.6515    1.2511   -1.8324 C   0  0  0  0  0  0  0  0  0  0  0  0
   -2.9203    1.6995   -1.8981 C   0  0  0  0  0  0  0  0  0  0  0  0
   -3.4047    1.7154   -0.5758 C   0  0  0  0  0  0  0  0  0  0  0  0
   -2.5665    1.3012    0.4871 C   0  0  0  0  0  0  0  0  0  0  0  0
   -0.5370    0.5474    0.9945 H   0  0  0  0  0  0  0  0  0  0  0  0
    0.4087    0.5029   -1.1746 H   0  0  0  0  0  0  0  0  0  0  0  0
   -3.4862    1.9940   -2.7705 H   0  0  0  0  0  0  0  0  0  0  0  0
   -4.4195    2.0467   -0.3829 H   0  0  0  0  0  0  0  0  0  0  0  0
    9.5744   -0.5200    3.1636 N   0  0  0  0  0  0  0  0  0  0  0  0
    9.3561   -1.4643    2.6324 N   0  0  0  0  0  0  0  0  0  0  0  0
    2.0488    0.6614    0.5565 B   0  0  0  0  0  0  0  0  0  0  0  0
    1.1989   -0.0761    1.4244 F   0  0  0  0  0  0  0  0  0  0  0  0
    1.5874    1.9747    0.4888 F   0  0  0  0  0  0  0  0  0  0  0  0
    3.3618    0.5512    0.9139 F   0  0  0  0  0  0  0  0  0  0  0  0
    1.8631    0.0850   -0.7816 F   0  0  0  0  0  0  0  0  0  0  0  0
   -3.1092    1.3596    1.7181 O   0  0  0  0  0  0  0  0  0  0  0  0
   -2.2822    0.9977    2.8340 C   0  0  0  0  0  0  0  0  0  0  0  0
   -2.8992    1.1593    3.7174 H   0  0  0  0  0  0  0  0  0  0  0  0
   -1.3882    1.6278    2.8808 H   0  0  0  0  0  0  0  0  0  0  0  0
   -1.9846   -0.0545    2.7761 H   0  0  0  0  0  0  0  0  0  0  0  0
  1  6  1  0  0  0  0
  1  7  1  0  0  0  0
  2  1  2  0  0  0  0
  3  2  1  0  0  0  0
  4  3  2  0  0  0  0
  4  5  1  0  0  0  0
  5 10  1  0  0  0  0
  5  6  2  0  0  0  0
  6 18  1  0  0  0  0
  8  2  1  0  0  0  0
  9  4  1  0  0  0  0
 12 11  3  0  0  0  0
 13 16  1  0  0  0  0
 13 14  1  0  0  0  0
 15 13  1  0  0  0  0
 17 13  1  0  0  0  0
 18 19  1  0  0  0  0
 19 21  1  0  0  0  0
 19 20  1  0  0  0  0
 22 19  1  0  0  0  0
M  RAD  1   3   2
M  END
