Coordinates from ORCA-job 4-MeO-Ph-N2-BF4-B3LYPG-6-31G_dp-MTMO-d009-169-n800
 OpenBabel09051908083D

 22 20  0  0  0  0  0  0  0  0999 V2000
   -1.2666    0.8701    0.2350 C   0  0  0  0  0  0  0  0  0  0  0  0
   -0.6815    0.8266   -1.0898 C   0  0  0  0  0  0  0  0  0  0  0  0
   -1.6604    1.2533   -1.8345 C   0  0  0  0  0  0  0  0  0  0  0  0
   -2.9290    1.7025   -1.8999 C   0  0  0  0  0  0  0  0  0  0  0  0
   -3.4133    1.7184   -0.5776 C   0  0  0  0  0  0  0  0  0  0  0  0
   -2.5752    1.3035    0.4851 C   0  0  0  0  0  0  0  0  0  0  0  0
   -0.5462    0.5483    0.9922 H   0  0  0  0  0  0  0  0  0  0  0  0
    0.3994    0.5037   -1.1770 H   0  0  0  0  0  0  0  0  0  0  0  0
   -3.4948    1.9975   -2.7722 H   0  0  0  0  0  0  0  0  0  0  0  0
   -4.4278    2.0504   -0.3845 H   0  0  0  0  0  0  0  0  0  0  0  0
    9.6631   -0.5343    3.1850 N   0  0  0  0  0  0  0  0  0  0  0  0
    9.4451   -1.4789    2.6541 N   0  0  0  0  0  0  0  0  0  0  0  0
    2.0397    0.6609    0.5540 B   0  0  0  0  0  0  0  0  0  0  0  0
    1.1894   -0.0761    1.4219 F   0  0  0  0  0  0  0  0  0  0  0  0
    1.5790    1.9745    0.4864 F   0  0  0  0  0  0  0  0  0  0  0  0
    3.3526    0.5499    0.9112 F   0  0  0  0  0  0  0  0  0  0  0  0
    1.8534    0.0847   -0.7842 F   0  0  0  0  0  0  0  0  0  0  0  0
   -3.1178    1.3620    1.7162 O   0  0  0  0  0  0  0  0  0  0  0  0
   -2.2909    0.9994    2.8320 C   0  0  0  0  0  0  0  0  0  0  0  0
   -2.9077    1.1612    3.7154 H   0  0  0  0  0  0  0  0  0  0  0  0
   -1.3965    1.6289    2.8788 H   0  0  0  0  0  0  0  0  0  0  0  0
   -1.9940   -0.0530    2.7738 H   0  0  0  0  0  0  0  0  0  0  0  0
  1  6  1  0  0  0  0
  1  7  1  0  0  0  0
  2  1  2  0  0  0  0
  3  2  1  0  0  0  0
  4  3  2  0  0  0  0
  4  5  1  0  0  0  0
  5 10  1  0  0  0  0
  5  6  2  0  0  0  0
  6 18  1  0  0  0  0
  8  2  1  0  0  0  0
  9  4  1  0  0  0  0
 12 11  3  0  0  0  0
 13 16  1  0  0  0  0
 13 14  1  0  0  0  0
 15 13  1  0  0  0  0
 17 13  1  0  0  0  0
 18 19  1  0  0  0  0
 19 21  1  0  0  0  0
 19 20  1  0  0  0  0
 22 19  1  0  0  0  0
M  RAD  1   3   2
M  END
