Coordinates from ORCA-job 4-MeO-Ph-N2-BF4-B3LYPG-6-31G_dp-MTMO-d009-169-n800
 OpenBabel09051908083D

 22 20  0  0  0  0  0  0  0  0999 V2000
   -0.8506    0.6950    0.3758 C   0  0  0  0  0  0  0  0  0  0  0  0
   -0.2126    0.7305   -0.9241 C   0  0  0  0  0  0  0  0  0  0  0  0
   -1.0311    1.4747   -1.6111 C   0  0  0  0  0  0  0  0  0  0  0  0
   -2.1581    2.2125   -1.6258 C   0  0  0  0  0  0  0  0  0  0  0  0
   -2.7039    2.1286   -0.3302 C   0  0  0  0  0  0  0  0  0  0  0  0
   -2.0429    1.3714    0.6666 C   0  0  0  0  0  0  0  0  0  0  0  0
   -0.2744    0.0888    1.0798 H   0  0  0  0  0  0  0  0  0  0  0  0
    0.7643    0.1756   -1.0482 H   0  0  0  0  0  0  0  0  0  0  0  0
   -2.5907    2.7656   -2.4475 H   0  0  0  0  0  0  0  0  0  0  0  0
   -3.6302    2.6471   -0.1071 H   0  0  0  0  0  0  0  0  0  0  0  0
    4.9036    2.1196    1.0772 N   0  0  0  0  0  0  0  0  0  0  0  0
    5.4769    1.2605    1.4703 N   0  0  0  0  0  0  0  0  0  0  0  0
    2.2835   -0.4086    0.6971 B   0  0  0  0  0  0  0  0  0  0  0  0
    1.2243   -1.0485    1.3918 F   0  0  0  0  0  0  0  0  0  0  0  0
    2.1705    0.9701    0.8822 F   0  0  0  0  0  0  0  0  0  0  0  0
    3.5052   -0.9101    1.0501 F   0  0  0  0  0  0  0  0  0  0  0  0
    2.0511   -0.6579   -0.7293 F   0  0  0  0  0  0  0  0  0  0  0  0
   -2.6322    1.3565    1.8769 O   0  0  0  0  0  0  0  0  0  0  0  0
   -1.9713    0.6493    2.9366 C   0  0  0  0  0  0  0  0  0  0  0  0
   -2.5953    0.7957    3.8176 H   0  0  0  0  0  0  0  0  0  0  0  0
   -0.9707    1.0564    3.1149 H   0  0  0  0  0  0  0  0  0  0  0  0
   -1.8956   -0.4192    2.7077 H   0  0  0  0  0  0  0  0  0  0  0  0
  1  6  1  0  0  0  0
  1  7  1  0  0  0  0
  2  1  2  0  0  0  0
  3  2  1  0  0  0  0
  4  3  2  0  0  0  0
  4  5  1  0  0  0  0
  5 10  1  0  0  0  0
  5  6  2  0  0  0  0
  6 18  1  0  0  0  0
  8  2  1  0  0  0  0
  9  4  1  0  0  0  0
 11 12  3  0  0  0  0
 13 15  1  0  0  0  0
 13 16  1  0  0  0  0
 13 14  1  0  0  0  0
 17 13  1  0  0  0  0
 18 19  1  0  0  0  0
 19 21  1  0  0  0  0
 19 20  1  0  0  0  0
 22 19  1  0  0  0  0
M  RAD  1   3   2
M  END
