Coordinates from ORCA-job 4-MeO-Ph-N2-BF4-B3LYPG-6-31G_dp-MTMO-d009-169-n800
 OpenBabel09051908083D

 22 20  0  0  0  0  0  0  0  0999 V2000
   -1.0800    0.8308    0.2790 C   0  0  0  0  0  0  0  0  0  0  0  0
   -0.4924    0.7837   -1.0447 C   0  0  0  0  0  0  0  0  0  0  0  0
   -1.4624    1.2308   -1.7893 C   0  0  0  0  0  0  0  0  0  0  0  0
   -2.7228    1.7024   -1.8551 C   0  0  0  0  0  0  0  0  0  0  0  0
   -3.2099    1.7201   -0.5338 C   0  0  0  0  0  0  0  0  0  0  0  0
   -2.3815    1.2853    0.5286 C   0  0  0  0  0  0  0  0  0  0  0  0
   -0.3668    0.4926    1.0360 H   0  0  0  0  0  0  0  0  0  0  0  0
    0.5821    0.4417   -1.1306 H   0  0  0  0  0  0  0  0  0  0  0  0
   -3.2812    2.0118   -2.7271 H   0  0  0  0  0  0  0  0  0  0  0  0
   -4.2190    2.0685   -0.3413 H   0  0  0  0  0  0  0  0  0  0  0  0
    7.7616   -0.0927    2.7191 N   0  0  0  0  0  0  0  0  0  0  0  0
    7.5637   -1.0403    2.1858 N   0  0  0  0  0  0  0  0  0  0  0  0
    2.2202    0.5599    0.6093 B   0  0  0  0  0  0  0  0  0  0  0  0
    1.3532   -0.1645    1.4715 F   0  0  0  0  0  0  0  0  0  0  0  0
    1.7844    1.8822    0.5459 F   0  0  0  0  0  0  0  0  0  0  0  0
    3.5295    0.4230    0.9719 F   0  0  0  0  0  0  0  0  0  0  0  0
    2.0288   -0.0070   -0.7314 F   0  0  0  0  0  0  0  0  0  0  0  0
   -2.9256    1.3467    1.7587 O   0  0  0  0  0  0  0  0  0  0  0  0
   -2.1075    0.9636    2.8743 C   0  0  0  0  0  0  0  0  0  0  0  0
   -2.7235    1.1309    3.7573 H   0  0  0  0  0  0  0  0  0  0  0  0
   -1.2027    1.5774    2.9265 H   0  0  0  0  0  0  0  0  0  0  0  0
   -1.8284   -0.0934    2.8106 H   0  0  0  0  0  0  0  0  0  0  0  0
  1  6  1  0  0  0  0
  1  7  1  0  0  0  0
  2  1  2  0  0  0  0
  3  2  1  0  0  0  0
  4  3  2  0  0  0  0
  4  5  1  0  0  0  0
  5 10  1  0  0  0  0
  5  6  2  0  0  0  0
  6 18  1  0  0  0  0
  8  2  1  0  0  0  0
  9  4  1  0  0  0  0
 12 11  3  0  0  0  0
 13 16  1  0  0  0  0
 13 14  1  0  0  0  0
 15 13  1  0  0  0  0
 17 13  1  0  0  0  0
 18 19  1  0  0  0  0
 19 21  1  0  0  0  0
 19 20  1  0  0  0  0
 22 19  1  0  0  0  0
M  RAD  1   3   2
M  END
