Coordinates from ORCA-job 4-MeO-Ph-N2-BF4-B3LYPG-6-31G_dp-MTMO-d009-169-n800
 OpenBabel09051908083D

 22 20  0  0  0  0  0  0  0  0999 V2000
   -1.1587    0.8450    0.2605 C   0  0  0  0  0  0  0  0  0  0  0  0
   -0.5726    0.7977   -1.0637 C   0  0  0  0  0  0  0  0  0  0  0  0
   -1.5422    1.2474   -1.8071 C   0  0  0  0  0  0  0  0  0  0  0  0
   -2.8019    1.7211   -1.8716 C   0  0  0  0  0  0  0  0  0  0  0  0
   -3.2877    1.7387   -0.5498 C   0  0  0  0  0  0  0  0  0  0  0  0
   -2.4592    1.3017    0.5116 C   0  0  0  0  0  0  0  0  0  0  0  0
   -0.4455    0.5052    1.0167 H   0  0  0  0  0  0  0  0  0  0  0  0
    0.5014    0.4536   -1.1512 H   0  0  0  0  0  0  0  0  0  0  0  0
   -3.3606    2.0322   -2.7428 H   0  0  0  0  0  0  0  0  0  0  0  0
   -4.2960    2.0888   -0.3562 H   0  0  0  0  0  0  0  0  0  0  0  0
    8.5464   -0.2231    2.9084 N   0  0  0  0  0  0  0  0  0  0  0  0
    8.3450   -1.1746    2.3834 N   0  0  0  0  0  0  0  0  0  0  0  0
    2.1415    0.5657    0.5846 B   0  0  0  0  0  0  0  0  0  0  0  0
    1.2745   -0.1579    1.4473 F   0  0  0  0  0  0  0  0  0  0  0  0
    1.7082    1.8890    0.5234 F   0  0  0  0  0  0  0  0  0  0  0  0
    3.4511    0.4256    0.9441 F   0  0  0  0  0  0  0  0  0  0  0  0
    1.9464    0.0008   -0.7567 F   0  0  0  0  0  0  0  0  0  0  0  0
   -3.0023    1.3631    1.7422 O   0  0  0  0  0  0  0  0  0  0  0  0
   -2.1840    0.9777    2.8568 C   0  0  0  0  0  0  0  0  0  0  0  0
   -2.7991    1.1451    3.7404 H   0  0  0  0  0  0  0  0  0  0  0  0
   -1.2782    1.5902    2.9090 H   0  0  0  0  0  0  0  0  0  0  0  0
   -1.9065   -0.0796    2.7920 H   0  0  0  0  0  0  0  0  0  0  0  0
  1  6  1  0  0  0  0
  1  7  1  0  0  0  0
  2  1  2  0  0  0  0
  3  2  1  0  0  0  0
  4  3  2  0  0  0  0
  4  5  1  0  0  0  0
  5 10  1  0  0  0  0
  5  6  2  0  0  0  0
  6 18  1  0  0  0  0
  8  2  1  0  0  0  0
  9  4  1  0  0  0  0
 12 11  3  0  0  0  0
 13 16  1  0  0  0  0
 13 14  1  0  0  0  0
 15 13  1  0  0  0  0
 17 13  1  0  0  0  0
 18 19  1  0  0  0  0
 19 21  1  0  0  0  0
 19 20  1  0  0  0  0
 22 19  1  0  0  0  0
M  RAD  1   3   2
M  END
