Coordinates from ORCA-job 4-MeO-Ph-N2-BF4-B3LYPG-6-31G_dp-MTMO-d009-169-n800
 OpenBabel09051908083D

 22 20  0  0  0  0  0  0  0  0999 V2000
   -1.1874    0.8499    0.2540 C   0  0  0  0  0  0  0  0  0  0  0  0
   -0.6014    0.8023   -1.0704 C   0  0  0  0  0  0  0  0  0  0  0  0
   -1.5706    1.2533   -1.8136 C   0  0  0  0  0  0  0  0  0  0  0  0
   -2.8298    1.7282   -1.8778 C   0  0  0  0  0  0  0  0  0  0  0  0
   -3.3155    1.7459   -0.5561 C   0  0  0  0  0  0  0  0  0  0  0  0
   -2.4874    1.3077    0.5052 C   0  0  0  0  0  0  0  0  0  0  0  0
   -0.4744    0.5092    1.0100 H   0  0  0  0  0  0  0  0  0  0  0  0
    0.4723    0.4571   -1.1580 H   0  0  0  0  0  0  0  0  0  0  0  0
   -3.3883    2.0400   -2.7490 H   0  0  0  0  0  0  0  0  0  0  0  0
   -4.3235    2.0968   -0.3623 H   0  0  0  0  0  0  0  0  0  0  0  0
    8.8326   -0.2700    2.9752 N   0  0  0  0  0  0  0  0  0  0  0  0
    8.6279   -1.2220    2.4523 N   0  0  0  0  0  0  0  0  0  0  0  0
    2.1127    0.5676    0.5769 B   0  0  0  0  0  0  0  0  0  0  0  0
    1.2454   -0.1557    1.4395 F   0  0  0  0  0  0  0  0  0  0  0  0
    1.6804    1.8912    0.5162 F   0  0  0  0  0  0  0  0  0  0  0  0
    3.4223    0.4263    0.9358 F   0  0  0  0  0  0  0  0  0  0  0  0
    1.9167    0.0032   -0.7647 F   0  0  0  0  0  0  0  0  0  0  0  0
   -3.0304    1.3693    1.7358 O   0  0  0  0  0  0  0  0  0  0  0  0
   -2.2125    0.9829    2.8503 C   0  0  0  0  0  0  0  0  0  0  0  0
   -2.8274    1.1506    3.7340 H   0  0  0  0  0  0  0  0  0  0  0  0
   -1.3061    1.5946    2.9027 H   0  0  0  0  0  0  0  0  0  0  0  0
   -1.9359   -0.0747    2.7852 H   0  0  0  0  0  0  0  0  0  0  0  0
  1  6  1  0  0  0  0
  1  7  1  0  0  0  0
  2  1  2  0  0  0  0
  3  2  1  0  0  0  0
  4  3  2  0  0  0  0
  4  5  1  0  0  0  0
  5 10  1  0  0  0  0
  5  6  2  0  0  0  0
  6 18  1  0  0  0  0
  8  2  1  0  0  0  0
  9  4  1  0  0  0  0
 12 11  3  0  0  0  0
 13 16  1  0  0  0  0
 13 14  1  0  0  0  0
 15 13  1  0  0  0  0
 17 13  1  0  0  0  0
 18 19  1  0  0  0  0
 19 21  1  0  0  0  0
 19 20  1  0  0  0  0
 22 19  1  0  0  0  0
M  RAD  1   3   2
M  END
