Coordinates from ORCA-job 4-MeO-Ph-N2-BF4-B3LYPG-6-31G_dp-MTMO-d009-169-n800
 OpenBabel09051908083D

 22 20  0  0  0  0  0  0  0  0999 V2000
   -0.5358    0.6383    0.7578 C   0  0  0  0  0  0  0  0  0  0  0  0
    0.6075    0.8405   -0.1045 C   0  0  0  0  0  0  0  0  0  0  0  0
    0.1649    1.7128   -0.9654 C   0  0  0  0  0  0  0  0  0  0  0  0
   -0.8650    2.4798   -1.3726 C   0  0  0  0  0  0  0  0  0  0  0  0
   -1.9253    2.2277   -0.4812 C   0  0  0  0  0  0  0  0  0  0  0  0
   -1.7538    1.3088    0.5818 C   0  0  0  0  0  0  0  0  0  0  0  0
   -0.3103   -0.0745    1.5543 H   0  0  0  0  0  0  0  0  0  0  0  0
    1.5662    0.2902    0.1356 H   0  0  0  0  0  0  0  0  0  0  0  0
   -0.9058    3.1588   -2.2124 H   0  0  0  0  0  0  0  0  0  0  0  0
   -2.8705    2.7427   -0.6169 H   0  0  0  0  0  0  0  0  0  0  0  0
    2.5768    2.3426   -2.8793 N   0  0  0  0  0  0  0  0  0  0  0  0
    3.5457    2.4589   -3.3972 N   0  0  0  0  0  0  0  0  0  0  0  0
    2.2234   -0.5211    2.2637 B   0  0  0  0  0  0  0  0  0  0  0  0
    1.0080   -1.2526    2.3099 F   0  0  0  0  0  0  0  0  0  0  0  0
    1.9554    0.8135    2.5652 F   0  0  0  0  0  0  0  0  0  0  0  0
    3.1897   -1.0832    3.0481 F   0  0  0  0  0  0  0  0  0  0  0  0
    2.6618   -0.5509    0.8616 F   0  0  0  0  0  0  0  0  0  0  0  0
   -2.8217    1.1407    1.3854 O   0  0  0  0  0  0  0  0  0  0  0  0
   -2.6847    0.2582    2.5074 C   0  0  0  0  0  0  0  0  0  0  0  0
   -3.6412    0.2983    3.0281 H   0  0  0  0  0  0  0  0  0  0  0  0
   -1.8816    0.5911    3.1734 H   0  0  0  0  0  0  0  0  0  0  0  0
   -2.4841   -0.7671    2.1786 H   0  0  0  0  0  0  0  0  0  0  0  0
  1  7  1  0  0  0  0
  2  8  1  0  0  0  0
  2  1  2  0  0  0  0
  3  2  1  0  0  0  0
  4  3  2  0  0  0  0
  4  5  1  0  0  0  0
  5  6  2  0  0  0  0
  6  1  1  0  0  0  0
  6 18  1  0  0  0  0
  9  4  1  0  0  0  0
 10  5  1  0  0  0  0
 12 11  3  0  0  0  0
 13 14  1  0  0  0  0
 13 15  1  0  0  0  0
 13 16  1  0  0  0  0
 17 13  1  0  0  0  0
 18 19  1  0  0  0  0
 19 20  1  0  0  0  0
 19 21  1  0  0  0  0
 22 19  1  0  0  0  0
M  RAD  1   3   2
M  END
