Coordinates from ORCA-job 4-MeO-Ph-N2-BF4-B3LYPG-6-31G_dp-MTMO-d009-169-n800
 OpenBabel09051908083D

 22 20  0  0  0  0  0  0  0  0999 V2000
   -0.9688    0.7857    0.3046 C   0  0  0  0  0  0  0  0  0  0  0  0
   -0.3778    0.7142   -1.0164 C   0  0  0  0  0  0  0  0  0  0  0  0
   -1.3180    1.2279   -1.7579 C   0  0  0  0  0  0  0  0  0  0  0  0
   -2.5483    1.7734   -1.8210 C   0  0  0  0  0  0  0  0  0  0  0  0
   -3.0403    1.8065   -0.5018 C   0  0  0  0  0  0  0  0  0  0  0  0
   -2.2424    1.3116    0.5573 C   0  0  0  0  0  0  0  0  0  0  0  0
   -0.2767    0.3999    1.0605 H   0  0  0  0  0  0  0  0  0  0  0  0
    0.6667    0.3000   -1.0964 H   0  0  0  0  0  0  0  0  0  0  0  0
   -3.0826    2.1252   -2.6921 H   0  0  0  0  0  0  0  0  0  0  0  0
   -4.0278    2.2120   -0.3092 H   0  0  0  0  0  0  0  0  0  0  0  0
    6.5195   -0.2281    2.4844 N   0  0  0  0  0  0  0  0  0  0  0  0
    6.4200    0.4530    1.6198 N   0  0  0  0  0  0  0  0  0  0  0  0
    2.3011    0.2956    0.6807 B   0  0  0  0  0  0  0  0  0  0  0  0
    1.3705   -0.3122    1.5698 F   0  0  0  0  0  0  0  0  0  0  0  0
    1.9892    1.6485    0.5670 F   0  0  0  0  0  0  0  0  0  0  0  0
    3.5923    0.0539    1.0644 F   0  0  0  0  0  0  0  0  0  0  0  0
    2.0664   -0.3002   -0.6343 F   0  0  0  0  0  0  0  0  0  0  0  0
   -2.7846    1.3882    1.7871 O   0  0  0  0  0  0  0  0  0  0  0  0
   -1.9962    0.9318    2.8971 C   0  0  0  0  0  0  0  0  0  0  0  0
   -2.6043    1.1187    3.7816 H   0  0  0  0  0  0  0  0  0  0  0  0
   -1.0552    1.4867    2.9645 H   0  0  0  0  0  0  0  0  0  0  0  0
   -1.7828   -0.1389    2.8115 H   0  0  0  0  0  0  0  0  0  0  0  0
  1  6  1  0  0  0  0
  1  7  1  0  0  0  0
  2  1  2  0  0  0  0
  3  2  1  0  0  0  0
  4  3  2  0  0  0  0
  4  5  1  0  0  0  0
  5 10  1  0  0  0  0
  5  6  2  0  0  0  0
  6 18  1  0  0  0  0
  8  2  1  0  0  0  0
  9  4  1  0  0  0  0
 12 11  3  0  0  0  0
 13 16  1  0  0  0  0
 13 14  1  0  0  0  0
 15 13  1  0  0  0  0
 17 13  1  0  0  0  0
 18 19  1  0  0  0  0
 19 21  1  0  0  0  0
 19 20  1  0  0  0  0
 22 19  1  0  0  0  0
M  RAD  1   3   2
M  END
