Coordinates from ORCA-job 4-MeO-Ph-N2-BF4-B3LYPG-6-31G_dp-MTMO-d009-169-n800
 OpenBabel09051908083D

 22 20  0  0  0  0  0  0  0  0999 V2000
   -1.5632    0.9258    0.1648 C   0  0  0  0  0  0  0  0  0  0  0  0
   -0.9798    0.8810   -1.1607 C   0  0  0  0  0  0  0  0  0  0  0  0
   -1.9580    1.3112   -1.9041 C   0  0  0  0  0  0  0  0  0  0  0  0
   -3.2253    1.7642   -1.9681 C   0  0  0  0  0  0  0  0  0  0  0  0
   -3.7081    1.7811   -0.6453 C   0  0  0  0  0  0  0  0  0  0  0  0
   -2.8702    1.3631    0.4165 C   0  0  0  0  0  0  0  0  0  0  0  0
   -0.8429    0.6017    0.9212 H   0  0  0  0  0  0  0  0  0  0  0  0
    0.1002    0.5548   -1.2493 H   0  0  0  0  0  0  0  0  0  0  0  0
   -3.7912    2.0613   -2.8396 H   0  0  0  0  0  0  0  0  0  0  0  0
   -4.7214    2.1160   -0.4509 H   0  0  0  0  0  0  0  0  0  0  0  0
   12.6275   -1.0901    3.8951 N   0  0  0  0  0  0  0  0  0  0  0  0
   12.3965   -2.0297    3.3609 N   0  0  0  0  0  0  0  0  0  0  0  0
    1.7431    0.7071    0.4782 B   0  0  0  0  0  0  0  0  0  0  0  0
    0.8925   -0.0283    1.3470 F   0  0  0  0  0  0  0  0  0  0  0  0
    1.2857    2.0219    0.4122 F   0  0  0  0  0  0  0  0  0  0  0  0
    3.0565    0.5924    0.8325 F   0  0  0  0  0  0  0  0  0  0  0  0
    1.5530    0.1321   -0.8602 F   0  0  0  0  0  0  0  0  0  0  0  0
   -3.4114    1.4228    1.6480 O   0  0  0  0  0  0  0  0  0  0  0  0
   -2.5846    1.0571    2.7629 C   0  0  0  0  0  0  0  0  0  0  0  0
   -3.2001    1.2202    3.6470 H   0  0  0  0  0  0  0  0  0  0  0  0
   -1.6883    1.6840    2.8093 H   0  0  0  0  0  0  0  0  0  0  0  0
   -2.2907    0.0039    2.7039 H   0  0  0  0  0  0  0  0  0  0  0  0
  1  6  1  0  0  0  0
  1  7  1  0  0  0  0
  2  1  2  0  0  0  0
  3  2  1  0  0  0  0
  4  3  2  0  0  0  0
  4  5  1  0  0  0  0
  5 10  1  0  0  0  0
  5  6  2  0  0  0  0
  6 18  1  0  0  0  0
  8  2  1  0  0  0  0
  9  4  1  0  0  0  0
 12 11  3  0  0  0  0
 13 16  1  0  0  0  0
 13 14  1  0  0  0  0
 15 13  1  0  0  0  0
 17 13  1  0  0  0  0
 18 19  1  0  0  0  0
 19 21  1  0  0  0  0
 19 20  1  0  0  0  0
 22 19  1  0  0  0  0
M  RAD  1   3   2
M  END
