Coordinates from ORCA-job 4-MeO-Ph-N2-BF4-B3LYPG-6-31G_dp-MTMO-d009-169-n800
 OpenBabel09051908083D

 22 20  0  0  0  0  0  0  0  0999 V2000
   -1.4093    0.8957    0.2009 C   0  0  0  0  0  0  0  0  0  0  0  0
   -0.8263    0.8507   -1.1248 C   0  0  0  0  0  0  0  0  0  0  0  0
   -1.8030    1.2862   -1.8673 C   0  0  0  0  0  0  0  0  0  0  0  0
   -3.0685    1.7444   -1.9302 C   0  0  0  0  0  0  0  0  0  0  0  0
   -3.5509    1.7610   -0.6072 C   0  0  0  0  0  0  0  0  0  0  0  0
   -2.7144    1.3379    0.4536 C   0  0  0  0  0  0  0  0  0  0  0  0
   -0.6901    0.5674    0.9565 H   0  0  0  0  0  0  0  0  0  0  0  0
    0.2521    0.5200   -1.2142 H   0  0  0  0  0  0  0  0  0  0  0  0
   -3.6334    2.0453   -2.8010 H   0  0  0  0  0  0  0  0  0  0  0  0
   -4.5628    2.0997   -0.4120 H   0  0  0  0  0  0  0  0  0  0  0  0
   11.0775   -0.7752    3.5289 N   0  0  0  0  0  0  0  0  0  0  0  0
   10.8542   -1.7175    2.9961 N   0  0  0  0  0  0  0  0  0  0  0  0
    1.8958    0.6620    0.5138 B   0  0  0  0  0  0  0  0  0  0  0  0
    1.0420   -0.0710    1.3815 F   0  0  0  0  0  0  0  0  0  0  0  0
    1.4441    1.9789    0.4499 F   0  0  0  0  0  0  0  0  0  0  0  0
    3.2086    0.5410    0.8681 F   0  0  0  0  0  0  0  0  0  0  0  0
    1.7033    0.0899   -0.8254 F   0  0  0  0  0  0  0  0  0  0  0  0
   -3.2551    1.3977    1.6855 O   0  0  0  0  0  0  0  0  0  0  0  0
   -2.4294    1.0266    2.7994 C   0  0  0  0  0  0  0  0  0  0  0  0
   -3.0441    1.1906    3.6840 H   0  0  0  0  0  0  0  0  0  0  0  0
   -1.5307    1.6499    2.8467 H   0  0  0  0  0  0  0  0  0  0  0  0
   -2.1398   -0.0276    2.7384 H   0  0  0  0  0  0  0  0  0  0  0  0
  1  6  1  0  0  0  0
  1  7  1  0  0  0  0
  2  1  2  0  0  0  0
  3  2  1  0  0  0  0
  4  3  2  0  0  0  0
  4  5  1  0  0  0  0
  5 10  1  0  0  0  0
  5  6  2  0  0  0  0
  6 18  1  0  0  0  0
  8  2  1  0  0  0  0
  9  4  1  0  0  0  0
 12 11  3  0  0  0  0
 13 16  1  0  0  0  0
 13 14  1  0  0  0  0
 15 13  1  0  0  0  0
 17 13  1  0  0  0  0
 18 19  1  0  0  0  0
 19 21  1  0  0  0  0
 19 20  1  0  0  0  0
 22 19  1  0  0  0  0
M  RAD  1   3   2
M  END
