Coordinates from ORCA-job 4-MeO-Ph-N2-BF4-B3LYPG-6-31G_dp-MTMO-d009-169-n800
 OpenBabel09051908083D

 22 20  0  0  0  0  0  0  0  0999 V2000
   -1.0907    0.8330    0.2764 C   0  0  0  0  0  0  0  0  0  0  0  0
   -0.5034    0.7861   -1.0474 C   0  0  0  0  0  0  0  0  0  0  0  0
   -1.4735    1.2332   -1.7918 C   0  0  0  0  0  0  0  0  0  0  0  0
   -2.7339    1.7047   -1.8573 C   0  0  0  0  0  0  0  0  0  0  0  0
   -3.2208    1.7223   -0.5359 C   0  0  0  0  0  0  0  0  0  0  0  0
   -2.3921    1.2875    0.5263 C   0  0  0  0  0  0  0  0  0  0  0  0
   -0.3774    0.4948    1.0333 H   0  0  0  0  0  0  0  0  0  0  0  0
    0.5712    0.4440   -1.1335 H   0  0  0  0  0  0  0  0  0  0  0  0
   -3.2926    2.0142   -2.7292 H   0  0  0  0  0  0  0  0  0  0  0  0
   -4.2299    2.0706   -0.3432 H   0  0  0  0  0  0  0  0  0  0  0  0
    7.8685   -0.1108    2.7451 N   0  0  0  0  0  0  0  0  0  0  0  0
    7.6707   -1.0598    2.2141 N   0  0  0  0  0  0  0  0  0  0  0  0
    2.2095    0.5609    0.6056 B   0  0  0  0  0  0  0  0  0  0  0  0
    1.3426   -0.1634    1.4680 F   0  0  0  0  0  0  0  0  0  0  0  0
    1.7742    1.8834    0.5427 F   0  0  0  0  0  0  0  0  0  0  0  0
    3.5189    0.4235    0.9677 F   0  0  0  0  0  0  0  0  0  0  0  0
    2.0175   -0.0056   -0.7352 F   0  0  0  0  0  0  0  0  0  0  0  0
   -2.9361    1.3487    1.7566 O   0  0  0  0  0  0  0  0  0  0  0  0
   -2.1178    0.9655    2.8719 C   0  0  0  0  0  0  0  0  0  0  0  0
   -2.7336    1.1326    3.7550 H   0  0  0  0  0  0  0  0  0  0  0  0
   -1.2130    1.5795    2.9241 H   0  0  0  0  0  0  0  0  0  0  0  0
   -1.8386   -0.0914    2.8081 H   0  0  0  0  0  0  0  0  0  0  0  0
  1  6  1  0  0  0  0
  1  7  1  0  0  0  0
  2  1  2  0  0  0  0
  3  2  1  0  0  0  0
  4  3  2  0  0  0  0
  4  5  1  0  0  0  0
  5 10  1  0  0  0  0
  5  6  2  0  0  0  0
  6 18  1  0  0  0  0
  8  2  1  0  0  0  0
  9  4  1  0  0  0  0
 12 11  3  0  0  0  0
 13 16  1  0  0  0  0
 13 14  1  0  0  0  0
 15 13  1  0  0  0  0
 17 13  1  0  0  0  0
 18 19  1  0  0  0  0
 19 21  1  0  0  0  0
 19 20  1  0  0  0  0
 22 19  1  0  0  0  0
M  RAD  1   3   2
M  END
