Coordinates from ORCA-job 4-MeO-Ph-N2-BF4-B3LYPG-6-31G_dp-MTMO-d009-169-n800
 OpenBabel09051908083D

 22 20  0  0  0  0  0  0  0  0999 V2000
   -1.2630    0.8695    0.2359 C   0  0  0  0  0  0  0  0  0  0  0  0
   -0.6778    0.8261   -1.0889 C   0  0  0  0  0  0  0  0  0  0  0  0
   -1.6568    1.2524   -1.8337 C   0  0  0  0  0  0  0  0  0  0  0  0
   -2.9255    1.7013   -1.8992 C   0  0  0  0  0  0  0  0  0  0  0  0
   -3.4099    1.7172   -0.5769 C   0  0  0  0  0  0  0  0  0  0  0  0
   -2.5717    1.3026    0.4859 C   0  0  0  0  0  0  0  0  0  0  0  0
   -0.5425    0.5479    0.9931 H   0  0  0  0  0  0  0  0  0  0  0  0
    0.4031    0.5034   -1.1761 H   0  0  0  0  0  0  0  0  0  0  0  0
   -3.4914    1.9961   -2.7715 H   0  0  0  0  0  0  0  0  0  0  0  0
   -4.4245    2.0489   -0.3838 H   0  0  0  0  0  0  0  0  0  0  0  0
    9.6276   -0.5285    3.1764 N   0  0  0  0  0  0  0  0  0  0  0  0
    9.4095   -1.4730    2.6455 N   0  0  0  0  0  0  0  0  0  0  0  0
    2.0433    0.6611    0.5550 B   0  0  0  0  0  0  0  0  0  0  0  0
    1.1932   -0.0761    1.4229 F   0  0  0  0  0  0  0  0  0  0  0  0
    1.5823    1.9745    0.4874 F   0  0  0  0  0  0  0  0  0  0  0  0
    3.3563    0.5504    0.9123 F   0  0  0  0  0  0  0  0  0  0  0  0
    1.8573    0.0848   -0.7832 F   0  0  0  0  0  0  0  0  0  0  0  0
   -3.1144    1.3611    1.7169 O   0  0  0  0  0  0  0  0  0  0  0  0
   -2.2874    0.9987    2.8328 C   0  0  0  0  0  0  0  0  0  0  0  0
   -2.9043    1.1604    3.7162 H   0  0  0  0  0  0  0  0  0  0  0  0
   -1.3932    1.6284    2.8796 H   0  0  0  0  0  0  0  0  0  0  0  0
   -1.9903   -0.0536    2.7747 H   0  0  0  0  0  0  0  0  0  0  0  0
  1  6  1  0  0  0  0
  1  7  1  0  0  0  0
  2  1  2  0  0  0  0
  3  2  1  0  0  0  0
  4  3  2  0  0  0  0
  4  5  1  0  0  0  0
  5 10  1  0  0  0  0
  5  6  2  0  0  0  0
  6 18  1  0  0  0  0
  8  2  1  0  0  0  0
  9  4  1  0  0  0  0
 12 11  3  0  0  0  0
 13 16  1  0  0  0  0
 13 14  1  0  0  0  0
 15 13  1  0  0  0  0
 17 13  1  0  0  0  0
 18 19  1  0  0  0  0
 19 21  1  0  0  0  0
 19 20  1  0  0  0  0
 22 19  1  0  0  0  0
M  RAD  1   3   2
M  END
