Coordinates from ORCA-job 4-MeO-Ph-N2-BF4-B3LYPG-6-31G_dp-MTMO-d009-169-n800
 OpenBabel09051908083D

 22 20  0  0  0  0  0  0  0  0999 V2000
   -0.5016    0.6464    0.7346 C   0  0  0  0  0  0  0  0  0  0  0  0
    0.6392    0.8498   -0.1182 C   0  0  0  0  0  0  0  0  0  0  0  0
    0.2282    1.7277   -0.9984 C   0  0  0  0  0  0  0  0  0  0  0  0
   -0.8065    2.4945   -1.4016 C   0  0  0  0  0  0  0  0  0  0  0  0
   -1.8721    2.2417   -0.5189 C   0  0  0  0  0  0  0  0  0  0  0  0
   -1.7151    1.3223    0.5454 C   0  0  0  0  0  0  0  0  0  0  0  0
   -0.2909   -0.0663    1.5337 H   0  0  0  0  0  0  0  0  0  0  0  0
    1.5952    0.3033    0.1113 H   0  0  0  0  0  0  0  0  0  0  0  0
   -0.8453    3.1782   -2.2371 H   0  0  0  0  0  0  0  0  0  0  0  0
   -2.8150    2.7594   -0.6602 H   0  0  0  0  0  0  0  0  0  0  0  0
    2.2066    2.2221   -2.5494 N   0  0  0  0  0  0  0  0  0  0  0  0
    3.1747    2.3214   -3.0713 N   0  0  0  0  0  0  0  0  0  0  0  0
    2.2722   -0.5139    2.2350 B   0  0  0  0  0  0  0  0  0  0  0  0
    1.0580   -1.2474    2.2793 F   0  0  0  0  0  0  0  0  0  0  0  0
    1.9988    0.8230    2.5293 F   0  0  0  0  0  0  0  0  0  0  0  0
    3.2331   -1.0672    3.0347 F   0  0  0  0  0  0  0  0  0  0  0  0
    2.7207   -0.5506    0.8408 F   0  0  0  0  0  0  0  0  0  0  0  0
   -2.7931    1.1598    1.3368 O   0  0  0  0  0  0  0  0  0  0  0  0
   -2.6749    0.2757    2.4594 C   0  0  0  0  0  0  0  0  0  0  0  0
   -3.6380    0.3196    2.9673 H   0  0  0  0  0  0  0  0  0  0  0  0
   -1.8794    0.6042    3.1364 H   0  0  0  0  0  0  0  0  0  0  0  0
   -2.4747   -0.7503    2.1323 H   0  0  0  0  0  0  0  0  0  0  0  0
  1  7  1  0  0  0  0
  2  8  1  0  0  0  0
  2  1  2  0  0  0  0
  3  2  1  0  0  0  0
  4  3  2  0  0  0  0
  4  5  1  0  0  0  0
  5  6  2  0  0  0  0
  6  1  1  0  0  0  0
  6 18  1  0  0  0  0
  9  4  1  0  0  0  0
 10  5  1  0  0  0  0
 12 11  3  0  0  0  0
 13 14  1  0  0  0  0
 13 15  1  0  0  0  0
 13 16  1  0  0  0  0
 17 13  1  0  0  0  0
 18 19  1  0  0  0  0
 19 20  1  0  0  0  0
 19 21  1  0  0  0  0
 22 19  1  0  0  0  0
M  RAD  1   3   2
M  END
