Coordinates from ORCA-job 4-MeO-Ph-N2-BF4-B3LYPG-6-31G_dp-MTMO-d009-169-n800
 OpenBabel09051908083D

 22 20  0  0  0  0  0  0  0  0999 V2000
   -0.5164    0.6435    0.7437 C   0  0  0  0  0  0  0  0  0  0  0  0
    0.6272    0.8460   -0.1133 C   0  0  0  0  0  0  0  0  0  0  0  0
    0.1978    1.7209   -0.9817 C   0  0  0  0  0  0  0  0  0  0  0  0
   -0.8325    2.4885   -1.3889 C   0  0  0  0  0  0  0  0  0  0  0  0
   -1.8961    2.2360   -0.5023 C   0  0  0  0  0  0  0  0  0  0  0  0
   -1.7322    1.3165    0.5611 C   0  0  0  0  0  0  0  0  0  0  0  0
   -0.2981   -0.0697    1.5413 H   0  0  0  0  0  0  0  0  0  0  0  0
    1.5845    0.2970    0.1230 H   0  0  0  0  0  0  0  0  0  0  0  0
   -0.8710    3.1697   -2.2268 H   0  0  0  0  0  0  0  0  0  0  0  0
   -2.8401    2.7525   -0.6413 H   0  0  0  0  0  0  0  0  0  0  0  0
    2.3702    2.2754   -2.6962 N   0  0  0  0  0  0  0  0  0  0  0  0
    3.3381    2.3812   -3.2177 N   0  0  0  0  0  0  0  0  0  0  0  0
    2.2482   -0.5167    2.2492 B   0  0  0  0  0  0  0  0  0  0  0  0
    1.0335   -1.2495    2.2923 F   0  0  0  0  0  0  0  0  0  0  0  0
    1.9772    0.8184    2.5487 F   0  0  0  0  0  0  0  0  0  0  0  0
    3.2116   -1.0757    3.0404 F   0  0  0  0  0  0  0  0  0  0  0  0
    2.6925   -0.5478    0.8508 F   0  0  0  0  0  0  0  0  0  0  0  0
   -2.8052    1.1508    1.3585 O   0  0  0  0  0  0  0  0  0  0  0  0
   -2.6774    0.2674    2.4807 C   0  0  0  0  0  0  0  0  0  0  0  0
   -3.6372    0.3091    2.9951 H   0  0  0  0  0  0  0  0  0  0  0  0
   -1.8781    0.5982    3.1522 H   0  0  0  0  0  0  0  0  0  0  0  0
   -2.4768   -0.7581    2.1526 H   0  0  0  0  0  0  0  0  0  0  0  0
  1  7  1  0  0  0  0
  2  8  1  0  0  0  0
  2  1  2  0  0  0  0
  3  2  1  0  0  0  0
  4  3  2  0  0  0  0
  4  5  1  0  0  0  0
  5  6  2  0  0  0  0
  6  1  1  0  0  0  0
  6 18  1  0  0  0  0
  9  4  1  0  0  0  0
 10  5  1  0  0  0  0
 12 11  3  0  0  0  0
 13 14  1  0  0  0  0
 13 15  1  0  0  0  0
 13 16  1  0  0  0  0
 17 13  1  0  0  0  0
 18 19  1  0  0  0  0
 19 20  1  0  0  0  0
 19 21  1  0  0  0  0
 22 19  1  0  0  0  0
M  RAD  1   3   2
M  END
