Coordinates from ORCA-job 4-MeO-Ph-N2-BF4-B3LYPG-6-31G_dp-MTMO-d009-169-n800
 OpenBabel09051908083D

 22 20  0  0  0  0  0  0  0  0999 V2000
   -1.6020    0.9331    0.1556 C   0  0  0  0  0  0  0  0  0  0  0  0
   -1.0190    0.8881   -1.1701 C   0  0  0  0  0  0  0  0  0  0  0  0
   -1.9971    1.3194   -1.9132 C   0  0  0  0  0  0  0  0  0  0  0  0
   -3.2640    1.7736   -1.9767 C   0  0  0  0  0  0  0  0  0  0  0  0
   -3.7463    1.7907   -0.6537 C   0  0  0  0  0  0  0  0  0  0  0  0
   -2.9085    1.3716    0.4077 C   0  0  0  0  0  0  0  0  0  0  0  0
   -0.8818    0.6082    0.9116 H   0  0  0  0  0  0  0  0  0  0  0  0
    0.0606    0.5608   -1.2592 H   0  0  0  0  0  0  0  0  0  0  0  0
   -3.8298    2.0715   -2.8480 H   0  0  0  0  0  0  0  0  0  0  0  0
   -4.7593    2.1265   -0.4589 H   0  0  0  0  0  0  0  0  0  0  0  0
   13.0140   -1.1612    3.9888 N   0  0  0  0  0  0  0  0  0  0  0  0
   12.7820   -2.0999    3.4535 N   0  0  0  0  0  0  0  0  0  0  0  0
    1.7042    0.7109    0.4677 B   0  0  0  0  0  0  0  0  0  0  0  0
    0.8532   -0.0238    1.3366 F   0  0  0  0  0  0  0  0  0  0  0  0
    1.2481    2.0262    0.4023 F   0  0  0  0  0  0  0  0  0  0  0  0
    3.0176    0.5947    0.8215 F   0  0  0  0  0  0  0  0  0  0  0  0
    1.5130    0.1365   -0.8708 F   0  0  0  0  0  0  0  0  0  0  0  0
   -3.4493    1.4315    1.6395 O   0  0  0  0  0  0  0  0  0  0  0  0
   -2.6225    1.0648    2.7540 C   0  0  0  0  0  0  0  0  0  0  0  0
   -3.2377    1.2282    3.6383 H   0  0  0  0  0  0  0  0  0  0  0  0
   -1.7257    1.6908    2.8003 H   0  0  0  0  0  0  0  0  0  0  0  0
   -2.3297    0.0113    2.6946 H   0  0  0  0  0  0  0  0  0  0  0  0
  1  6  1  0  0  0  0
  1  7  1  0  0  0  0
  2  1  2  0  0  0  0
  3  2  1  0  0  0  0
  4  3  2  0  0  0  0
  4  5  1  0  0  0  0
  5 10  1  0  0  0  0
  5  6  2  0  0  0  0
  6 18  1  0  0  0  0
  8  2  1  0  0  0  0
  9  4  1  0  0  0  0
 12 11  3  0  0  0  0
 13 16  1  0  0  0  0
 13 14  1  0  0  0  0
 15 13  1  0  0  0  0
 17 13  1  0  0  0  0
 18 19  1  0  0  0  0
 19 21  1  0  0  0  0
 19 20  1  0  0  0  0
 22 19  1  0  0  0  0
M  RAD  1   3   2
M  END
