Coordinates from ORCA-job 4-MeO-Ph-N2-BF4-B3LYPG-6-31G_dp-MTMO-d009-169-n800
 OpenBabel09051908083D

 22 20  0  0  0  0  0  0  0  0999 V2000
   -0.8168    0.7026    0.2833 C   0  0  0  0  0  0  0  0  0  0  0  0
   -0.3595    0.6199   -1.0887 C   0  0  0  0  0  0  0  0  0  0  0  0
   -1.2729    1.2987   -1.7224 C   0  0  0  0  0  0  0  0  0  0  0  0
   -2.4008    2.0317   -1.6498 C   0  0  0  0  0  0  0  0  0  0  0  0
   -2.7664    2.0652   -0.2901 C   0  0  0  0  0  0  0  0  0  0  0  0
   -1.9677    1.4012    0.6716 C   0  0  0  0  0  0  0  0  0  0  0  0
   -0.1422    0.1629    0.9541 H   0  0  0  0  0  0  0  0  0  0  0  0
    0.5985    0.0564   -1.2886 H   0  0  0  0  0  0  0  0  0  0  0  0
   -2.9464    2.5091   -2.4513 H   0  0  0  0  0  0  0  0  0  0  0  0
   -3.6606    2.6020    0.0091 H   0  0  0  0  0  0  0  0  0  0  0  0
    4.1593    1.7323    2.6193 N   0  0  0  0  0  0  0  0  0  0  0  0
    5.0162    1.1134    2.2972 N   0  0  0  0  0  0  0  0  0  0  0  0
    2.3460   -0.3578    0.3051 B   0  0  0  0  0  0  0  0  0  0  0  0
    1.3986   -0.9092    1.2086 F   0  0  0  0  0  0  0  0  0  0  0  0
    2.2517    1.0331    0.3555 F   0  0  0  0  0  0  0  0  0  0  0  0
    3.6075   -0.8307    0.5384 F   0  0  0  0  0  0  0  0  0  0  0  0
    1.9198   -0.7579   -1.0385 F   0  0  0  0  0  0  0  0  0  0  0  0
   -2.3873    1.4938    1.9472 O   0  0  0  0  0  0  0  0  0  0  0  0
   -1.5806    0.8818    2.9647 C   0  0  0  0  0  0  0  0  0  0  0  0
   -2.0808    1.1064    3.9061 H   0  0  0  0  0  0  0  0  0  0  0  0
   -0.5698    1.3017    2.9684 H   0  0  0  0  0  0  0  0  0  0  0  0
   -1.5261   -0.2030    2.8220 H   0  0  0  0  0  0  0  0  0  0  0  0
  1  6  1  0  0  0  0
  1  7  1  0  0  0  0
  2  1  2  0  0  0  0
  3  4  2  0  0  0  0
  3  2  1  0  0  0  0
  4  5  1  0  0  0  0
  5 10  1  0  0  0  0
  5  6  2  0  0  0  0
  6 18  1  0  0  0  0
  8  2  1  0  0  0  0
  9  4  1  0  0  0  0
 12 11  3  0  0  0  0
 13 15  1  0  0  0  0
 13 16  1  0  0  0  0
 13 14  1  0  0  0  0
 17 13  1  0  0  0  0
 18 19  1  0  0  0  0
 19 21  1  0  0  0  0
 19 20  1  0  0  0  0
 22 19  1  0  0  0  0
M  RAD  1   3   2
M  END
