Coordinates from ORCA-job 4-MeO-Ph-N2-BF4-B3LYPG-6-31G_dp-MTMO-d009-169-n800
 OpenBabel09051908083D

 22 20  0  0  0  0  0  0  0  0999 V2000
   -0.9793    0.7944    0.2959 C   0  0  0  0  0  0  0  0  0  0  0  0
   -0.3926    0.7276   -1.0275 C   0  0  0  0  0  0  0  0  0  0  0  0
   -1.3419    1.2294   -1.7658 C   0  0  0  0  0  0  0  0  0  0  0  0
   -2.5776    1.7632   -1.8242 C   0  0  0  0  0  0  0  0  0  0  0  0
   -3.0644    1.7933   -0.5031 C   0  0  0  0  0  0  0  0  0  0  0  0
   -2.2570    1.3080    0.5534 C   0  0  0  0  0  0  0  0  0  0  0  0
   -0.2809    0.4142    1.0491 H   0  0  0  0  0  0  0  0  0  0  0  0
    0.6555    0.3225   -1.1089 H   0  0  0  0  0  0  0  0  0  0  0  0
   -3.1190    2.1090   -2.6933 H   0  0  0  0  0  0  0  0  0  0  0  0
   -4.0550    2.1892   -0.3070 H   0  0  0  0  0  0  0  0  0  0  0  0
    6.6925   -0.2297    2.5805 N   0  0  0  0  0  0  0  0  0  0  0  0
    6.4845    0.3098    1.6385 N   0  0  0  0  0  0  0  0  0  0  0  0
    2.2945    0.3260    0.6742 B   0  0  0  0  0  0  0  0  0  0  0  0
    1.3658   -0.2847    1.5643 F   0  0  0  0  0  0  0  0  0  0  0  0
    1.9784    1.6781    0.5626 F   0  0  0  0  0  0  0  0  0  0  0  0
    3.5863    0.0858    1.0555 F   0  0  0  0  0  0  0  0  0  0  0  0
    2.0581   -0.2691   -0.6414 F   0  0  0  0  0  0  0  0  0  0  0  0
   -2.7943    1.3806    1.7854 O   0  0  0  0  0  0  0  0  0  0  0  0
   -1.9968    0.9324    2.8923 C   0  0  0  0  0  0  0  0  0  0  0  0
   -2.6024    1.1148    3.7793 H   0  0  0  0  0  0  0  0  0  0  0  0
   -1.0603    1.4954    2.9547 H   0  0  0  0  0  0  0  0  0  0  0  0
   -1.7742   -0.1364    2.8066 H   0  0  0  0  0  0  0  0  0  0  0  0
  1  6  1  0  0  0  0
  1  7  1  0  0  0  0
  2  1  2  0  0  0  0
  3  2  1  0  0  0  0
  4  3  2  0  0  0  0
  4  5  1  0  0  0  0
  5 10  1  0  0  0  0
  5  6  2  0  0  0  0
  6 18  1  0  0  0  0
  8  2  1  0  0  0  0
  9  4  1  0  0  0  0
 12 11  3  0  0  0  0
 13 16  1  0  0  0  0
 13 14  1  0  0  0  0
 15 13  1  0  0  0  0
 17 13  1  0  0  0  0
 18 19  1  0  0  0  0
 19 21  1  0  0  0  0
 19 20  1  0  0  0  0
 22 19  1  0  0  0  0
M  RAD  1   3   2
M  END
