Coordinates from ORCA-job 4-MeO-Ph-N2-BF4-B3LYPG-6-31G_dp-MTMO-d009-169-n800
 OpenBabel09051908083D

 22 20  0  0  0  0  0  0  0  0999 V2000
   -0.5722    0.6334    0.7839 C   0  0  0  0  0  0  0  0  0  0  0  0
    0.5660    0.8448   -0.0857 C   0  0  0  0  0  0  0  0  0  0  0  0
    0.1077    1.7165   -0.9371 C   0  0  0  0  0  0  0  0  0  0  0  0
   -0.9284    2.4793   -1.3361 C   0  0  0  0  0  0  0  0  0  0  0  0
   -1.9811    2.2185   -0.4381 C   0  0  0  0  0  0  0  0  0  0  0  0
   -1.7957    1.2965    0.6201 C   0  0  0  0  0  0  0  0  0  0  0  0
   -0.3353   -0.0816    1.5756 H   0  0  0  0  0  0  0  0  0  0  0  0
    1.5293    0.2973    0.1516 H   0  0  0  0  0  0  0  0  0  0  0  0
   -0.9789    3.1602   -2.1740 H   0  0  0  0  0  0  0  0  0  0  0  0
   -2.9303    2.7283   -0.5657 H   0  0  0  0  0  0  0  0  0  0  0  0
    2.9457    2.4230   -3.1765 N   0  0  0  0  0  0  0  0  0  0  0  0
    3.9215    2.5245   -3.6850 N   0  0  0  0  0  0  0  0  0  0  0  0
    2.1926   -0.5188    2.2755 B   0  0  0  0  0  0  0  0  0  0  0  0
    0.9805   -1.2555    2.3258 F   0  0  0  0  0  0  0  0  0  0  0  0
    1.9215    0.8130    2.5842 F   0  0  0  0  0  0  0  0  0  0  0  0
    3.1666   -1.0812    3.0494 F   0  0  0  0  0  0  0  0  0  0  0  0
    2.6218   -0.5404    0.8691 F   0  0  0  0  0  0  0  0  0  0  0  0
   -2.8558    1.1183    1.4315 O   0  0  0  0  0  0  0  0  0  0  0  0
   -2.7036    0.2330    2.5495 C   0  0  0  0  0  0  0  0  0  0  0  0
   -3.6559    0.2652    3.0783 H   0  0  0  0  0  0  0  0  0  0  0  0
   -1.8970    0.5690    3.2096 H   0  0  0  0  0  0  0  0  0  0  0  0
   -2.4991   -0.7898    2.2155 H   0  0  0  0  0  0  0  0  0  0  0  0
  1  7  1  0  0  0  0
  2  8  1  0  0  0  0
  2  1  2  0  0  0  0
  3  2  1  0  0  0  0
  4  3  2  0  0  0  0
  4  5  1  0  0  0  0
  5  6  2  0  0  0  0
  6  1  1  0  0  0  0
  6 18  1  0  0  0  0
  9  4  1  0  0  0  0
 10  5  1  0  0  0  0
 12 11  3  0  0  0  0
 13 14  1  0  0  0  0
 13 15  1  0  0  0  0
 13 16  1  0  0  0  0
 17 13  1  0  0  0  0
 18 19  1  0  0  0  0
 19 20  1  0  0  0  0
 19 21  1  0  0  0  0
 22 19  1  0  0  0  0
M  RAD  1   3   2
M  END
