Coordinates from ORCA-job 4-MeO-Ph-N2-BF4-B3LYPG-6-31G_dp-MTMO-d009-169-n800
 OpenBabel09051908083D

 22 20  0  0  0  0  0  0  0  0999 V2000
   -1.5115    0.9163    0.1770 C   0  0  0  0  0  0  0  0  0  0  0  0
   -0.9279    0.8722   -1.1484 C   0  0  0  0  0  0  0  0  0  0  0  0
   -1.9073    1.2993   -1.8922 C   0  0  0  0  0  0  0  0  0  0  0  0
   -3.1758    1.7488   -1.9566 C   0  0  0  0  0  0  0  0  0  0  0  0
   -3.6587    1.7653   -0.6337 C   0  0  0  0  0  0  0  0  0  0  0  0
   -2.8197    1.3503    0.4283 C   0  0  0  0  0  0  0  0  0  0  0  0
   -0.7905    0.5946    0.9336 H   0  0  0  0  0  0  0  0  0  0  0  0
    0.1529    0.5489   -1.2368 H   0  0  0  0  0  0  0  0  0  0  0  0
   -3.7424    2.0438   -2.8283 H   0  0  0  0  0  0  0  0  0  0  0  0
   -4.6729    2.0976   -0.4397 H   0  0  0  0  0  0  0  0  0  0  0  0
   12.1158   -1.0009    3.7728 N   0  0  0  0  0  0  0  0  0  0  0  0
   11.8851   -1.9418    3.2406 N   0  0  0  0  0  0  0  0  0  0  0  0
    1.7954    0.7069    0.4909 B   0  0  0  0  0  0  0  0  0  0  0  0
    0.9466   -0.0303    1.3600 F   0  0  0  0  0  0  0  0  0  0  0  0
    1.3343    2.0204    0.4241 F   0  0  0  0  0  0  0  0  0  0  0  0
    3.1089    0.5960    0.8456 F   0  0  0  0  0  0  0  0  0  0  0  0
    1.6070    0.1307   -0.8472 F   0  0  0  0  0  0  0  0  0  0  0  0
   -3.3612    1.4094    1.6598 O   0  0  0  0  0  0  0  0  0  0  0  0
   -2.5334    1.0468    2.7750 C   0  0  0  0  0  0  0  0  0  0  0  0
   -3.1493    1.2090    3.6589 H   0  0  0  0  0  0  0  0  0  0  0  0
   -1.6388    1.6761    2.8209 H   0  0  0  0  0  0  0  0  0  0  0  0
   -2.2368   -0.0057    2.7168 H   0  0  0  0  0  0  0  0  0  0  0  0
  1  6  1  0  0  0  0
  1  7  1  0  0  0  0
  2  1  2  0  0  0  0
  3  2  1  0  0  0  0
  4  3  2  0  0  0  0
  4  5  1  0  0  0  0
  5 10  1  0  0  0  0
  5  6  2  0  0  0  0
  6 18  1  0  0  0  0
  8  2  1  0  0  0  0
  9  4  1  0  0  0  0
 12 11  3  0  0  0  0
 13 16  1  0  0  0  0
 13 14  1  0  0  0  0
 15 13  1  0  0  0  0
 17 13  1  0  0  0  0
 18 19  1  0  0  0  0
 19 21  1  0  0  0  0
 19 20  1  0  0  0  0
 22 19  1  0  0  0  0
M  RAD  1   3   2
M  END
