Coordinates from ORCA-job 4-MeO-Ph-N2-BF4-B3LYPG-6-31G_dp-MTMO-d009-169-n800
 OpenBabel09051908083D

 22 20  0  0  0  0  0  0  0  0999 V2000
   -0.5247    0.6412    0.7495 C   0  0  0  0  0  0  0  0  0  0  0  0
    0.6192    0.8434   -0.1099 C   0  0  0  0  0  0  0  0  0  0  0  0
    0.1831    1.7168   -0.9744 C   0  0  0  0  0  0  0  0  0  0  0  0
   -0.8466    2.4845   -1.3820 C   0  0  0  0  0  0  0  0  0  0  0  0
   -1.9089    2.2323   -0.4933 C   0  0  0  0  0  0  0  0  0  0  0  0
   -1.7415    1.3131    0.5699 C   0  0  0  0  0  0  0  0  0  0  0  0
   -0.3032   -0.0718    1.5465 H   0  0  0  0  0  0  0  0  0  0  0  0
    1.5771    0.2936    0.1288 H   0  0  0  0  0  0  0  0  0  0  0  0
   -0.8857    3.1645   -2.2209 H   0  0  0  0  0  0  0  0  0  0  0  0
   -2.8534    2.7482   -0.6310 H   0  0  0  0  0  0  0  0  0  0  0  0
    2.4599    2.3055   -2.7761 N   0  0  0  0  0  0  0  0  0  0  0  0
    3.4280    2.4164   -3.2964 N   0  0  0  0  0  0  0  0  0  0  0  0
    2.2367   -0.5188    2.2560 B   0  0  0  0  0  0  0  0  0  0  0  0
    1.0216   -1.2509    2.3000 F   0  0  0  0  0  0  0  0  0  0  0  0
    1.9672    0.8160    2.5567 F   0  0  0  0  0  0  0  0  0  0  0  0
    3.2013   -1.0796    3.0440 F   0  0  0  0  0  0  0  0  0  0  0  0
    2.6786   -0.5490    0.8559 F   0  0  0  0  0  0  0  0  0  0  0  0
   -2.8122    1.1463    1.3702 O   0  0  0  0  0  0  0  0  0  0  0  0
   -2.6800    0.2636    2.4925 C   0  0  0  0  0  0  0  0  0  0  0  0
   -3.6382    0.3047    3.0099 H   0  0  0  0  0  0  0  0  0  0  0  0
   -1.8788    0.5955    3.1613 H   0  0  0  0  0  0  0  0  0  0  0  0
   -2.4794   -0.7619    2.1642 H   0  0  0  0  0  0  0  0  0  0  0  0
  1  7  1  0  0  0  0
  2  8  1  0  0  0  0
  2  1  2  0  0  0  0
  3  2  1  0  0  0  0
  4  3  2  0  0  0  0
  4  5  1  0  0  0  0
  5  6  2  0  0  0  0
  6  1  1  0  0  0  0
  6 18  1  0  0  0  0
  9  4  1  0  0  0  0
 10  5  1  0  0  0  0
 12 11  3  0  0  0  0
 13 14  1  0  0  0  0
 13 15  1  0  0  0  0
 13 16  1  0  0  0  0
 17 13  1  0  0  0  0
 18 19  1  0  0  0  0
 19 20  1  0  0  0  0
 19 21  1  0  0  0  0
 22 19  1  0  0  0  0
M  RAD  1   3   2
M  END
