Coordinates from ORCA-job 4-MeO-Ph-N2-BF4-B3LYPG-6-31G_dp-MTMO-d009-169-n800
 OpenBabel09051908083D

 22 20  0  0  0  0  0  0  0  0999 V2000
   -1.1892    0.8502    0.2535 C   0  0  0  0  0  0  0  0  0  0  0  0
   -0.6032    0.8026   -1.0708 C   0  0  0  0  0  0  0  0  0  0  0  0
   -1.5723    1.2537   -1.8140 C   0  0  0  0  0  0  0  0  0  0  0  0
   -2.8315    1.7286   -1.8782 C   0  0  0  0  0  0  0  0  0  0  0  0
   -3.3173    1.7463   -0.5565 C   0  0  0  0  0  0  0  0  0  0  0  0
   -2.4891    1.3081    0.5048 C   0  0  0  0  0  0  0  0  0  0  0  0
   -0.4762    0.5094    1.0096 H   0  0  0  0  0  0  0  0  0  0  0  0
    0.4705    0.4574   -1.1584 H   0  0  0  0  0  0  0  0  0  0  0  0
   -3.3900    2.0405   -2.7494 H   0  0  0  0  0  0  0  0  0  0  0  0
   -4.3252    2.0973   -0.3626 H   0  0  0  0  0  0  0  0  0  0  0  0
    8.8505   -0.2730    2.9795 N   0  0  0  0  0  0  0  0  0  0  0  0
    8.6456   -1.2249    2.4566 N   0  0  0  0  0  0  0  0  0  0  0  0
    2.1109    0.5677    0.5764 B   0  0  0  0  0  0  0  0  0  0  0  0
    1.2436   -0.1556    1.4390 F   0  0  0  0  0  0  0  0  0  0  0  0
    1.6787    1.8913    0.5158 F   0  0  0  0  0  0  0  0  0  0  0  0
    3.4205    0.4264    0.9353 F   0  0  0  0  0  0  0  0  0  0  0  0
    1.9149    0.0033   -0.7652 F   0  0  0  0  0  0  0  0  0  0  0  0
   -3.0321    1.3697    1.7354 O   0  0  0  0  0  0  0  0  0  0  0  0
   -2.2142    0.9832    2.8499 C   0  0  0  0  0  0  0  0  0  0  0  0
   -2.8292    1.1509    3.7336 H   0  0  0  0  0  0  0  0  0  0  0  0
   -1.3079    1.5948    2.9023 H   0  0  0  0  0  0  0  0  0  0  0  0
   -1.9378   -0.0744    2.7848 H   0  0  0  0  0  0  0  0  0  0  0  0
  1  6  1  0  0  0  0
  1  7  1  0  0  0  0
  2  1  2  0  0  0  0
  3  2  1  0  0  0  0
  4  3  2  0  0  0  0
  4  5  1  0  0  0  0
  5 10  1  0  0  0  0
  5  6  2  0  0  0  0
  6 18  1  0  0  0  0
  8  2  1  0  0  0  0
  9  4  1  0  0  0  0
 12 11  3  0  0  0  0
 13 16  1  0  0  0  0
 13 14  1  0  0  0  0
 15 13  1  0  0  0  0
 17 13  1  0  0  0  0
 18 19  1  0  0  0  0
 19 21  1  0  0  0  0
 19 20  1  0  0  0  0
 22 19  1  0  0  0  0
M  RAD  1   3   2
M  END
