Coordinates from ORCA-job 4-MeO-Ph-N2-BF4-B3LYPG-6-31G_dp-MTMO-d009-169-n800
 OpenBabel09051908083D

 22 20  0  0  0  0  0  0  0  0999 V2000
   -0.9184    0.7437    0.3005 C   0  0  0  0  0  0  0  0  0  0  0  0
   -0.3857    0.6568   -1.0438 C   0  0  0  0  0  0  0  0  0  0  0  0
   -1.3025    1.2636   -1.7412 C   0  0  0  0  0  0  0  0  0  0  0  0
   -2.4844    1.9101   -1.7495 C   0  0  0  0  0  0  0  0  0  0  0  0
   -2.9241    1.9508   -0.4121 C   0  0  0  0  0  0  0  0  0  0  0  0
   -2.1349    1.3675    0.6080 C   0  0  0  0  0  0  0  0  0  0  0  0
   -0.2413    0.2773    1.0215 H   0  0  0  0  0  0  0  0  0  0  0  0
    0.6183    0.1533   -1.1779 H   0  0  0  0  0  0  0  0  0  0  0  0
   -3.0183    2.3268   -2.5917 H   0  0  0  0  0  0  0  0  0  0  0  0
   -3.8676    2.4307   -0.1750 H   0  0  0  0  0  0  0  0  0  0  0  0
    5.5097    0.7009    2.7687 N   0  0  0  0  0  0  0  0  0  0  0  0
    6.0367    0.9425    1.8281 N   0  0  0  0  0  0  0  0  0  0  0  0
    2.3185   -0.0743    0.4860 B   0  0  0  0  0  0  0  0  0  0  0  0
    1.3747   -0.6435    1.3814 F   0  0  0  0  0  0  0  0  0  0  0  0
    2.1382    1.3062    0.4620 F   0  0  0  0  0  0  0  0  0  0  0  0
    3.5967   -0.4621    0.7821 F   0  0  0  0  0  0  0  0  0  0  0  0
    1.9656   -0.5643   -0.8516 F   0  0  0  0  0  0  0  0  0  0  0  0
   -2.6298    1.4601    1.8567 O   0  0  0  0  0  0  0  0  0  0  0  0
   -1.8445    0.9232    2.9315 C   0  0  0  0  0  0  0  0  0  0  0  0
   -2.4116    1.1318    3.8381 H   0  0  0  0  0  0  0  0  0  0  0  0
   -0.8654    1.4100    2.9823 H   0  0  0  0  0  0  0  0  0  0  0  0
   -1.7101   -0.1578    2.8173 H   0  0  0  0  0  0  0  0  0  0  0  0
  1  6  1  0  0  0  0
  1  7  1  0  0  0  0
  2  1  2  0  0  0  0
  3  2  1  0  0  0  0
  4  3  2  0  0  0  0
  4  5  1  0  0  0  0
  5 10  1  0  0  0  0
  5  6  2  0  0  0  0
  6 18  1  0  0  0  0
  8  2  1  0  0  0  0
  9  4  1  0  0  0  0
 12 11  3  0  0  0  0
 13 16  1  0  0  0  0
 13 14  1  0  0  0  0
 15 13  1  0  0  0  0
 17 13  1  0  0  0  0
 18 19  1  0  0  0  0
 19 21  1  0  0  0  0
 19 20  1  0  0  0  0
 22 19  1  0  0  0  0
M  RAD  1   3   2
M  END
