Coordinates from ORCA-job 4-MeO-Ph-N2-BF4-B3LYPG-6-31G_dp-MTMO-d009-169-n800
 OpenBabel09051908083D

 22 20  0  0  0  0  0  0  0  0999 V2000
   -1.1963    0.8514    0.2519 C   0  0  0  0  0  0  0  0  0  0  0  0
   -0.6104    0.8037   -1.0725 C   0  0  0  0  0  0  0  0  0  0  0  0
   -1.5794    1.2551   -1.8156 C   0  0  0  0  0  0  0  0  0  0  0  0
   -2.8385    1.7304   -1.8798 C   0  0  0  0  0  0  0  0  0  0  0  0
   -3.3242    1.7481   -0.5580 C   0  0  0  0  0  0  0  0  0  0  0  0
   -2.4962    1.3096    0.5032 C   0  0  0  0  0  0  0  0  0  0  0  0
   -0.4835    0.5105    1.0079 H   0  0  0  0  0  0  0  0  0  0  0  0
    0.4632    0.4582   -1.1602 H   0  0  0  0  0  0  0  0  0  0  0  0
   -3.3969    2.0424   -2.7509 H   0  0  0  0  0  0  0  0  0  0  0  0
   -4.3321    2.0993   -0.3642 H   0  0  0  0  0  0  0  0  0  0  0  0
    8.9219   -0.2848    2.9963 N   0  0  0  0  0  0  0  0  0  0  0  0
    8.7164   -1.2367    2.4735 N   0  0  0  0  0  0  0  0  0  0  0  0
    2.1037    0.5681    0.5745 B   0  0  0  0  0  0  0  0  0  0  0  0
    1.2363   -0.1550    1.4371 F   0  0  0  0  0  0  0  0  0  0  0  0
    1.6718    1.8919    0.5140 F   0  0  0  0  0  0  0  0  0  0  0  0
    3.4133    0.4265    0.9332 F   0  0  0  0  0  0  0  0  0  0  0  0
    1.9075    0.0039   -0.7671 F   0  0  0  0  0  0  0  0  0  0  0  0
   -3.0392    1.3713    1.7339 O   0  0  0  0  0  0  0  0  0  0  0  0
   -2.2213    0.9845    2.8483 C   0  0  0  0  0  0  0  0  0  0  0  0
   -2.8362    1.1523    3.7320 H   0  0  0  0  0  0  0  0  0  0  0  0
   -1.3149    1.5959    2.9007 H   0  0  0  0  0  0  0  0  0  0  0  0
   -1.9451   -0.0731    2.7831 H   0  0  0  0  0  0  0  0  0  0  0  0
  1  6  1  0  0  0  0
  1  7  1  0  0  0  0
  2  1  2  0  0  0  0
  3  2  1  0  0  0  0
  4  3  2  0  0  0  0
  4  5  1  0  0  0  0
  5 10  1  0  0  0  0
  5  6  2  0  0  0  0
  6 18  1  0  0  0  0
  8  2  1  0  0  0  0
  9  4  1  0  0  0  0
 12 11  3  0  0  0  0
 13 16  1  0  0  0  0
 13 14  1  0  0  0  0
 15 13  1  0  0  0  0
 17 13  1  0  0  0  0
 18 19  1  0  0  0  0
 19 21  1  0  0  0  0
 19 20  1  0  0  0  0
 22 19  1  0  0  0  0
M  RAD  1   3   2
M  END
