Coordinates from ORCA-job 4-MeO-Ph-N2-BF4-B3LYPG-6-31G_dp-MTMO-d009-169-n800
 OpenBabel09051908083D

 22 20  0  0  0  0  0  0  0  0999 V2000
   -0.7997    0.7305    0.4657 C   0  0  0  0  0  0  0  0  0  0  0  0
    0.0104    0.9135   -0.7217 C   0  0  0  0  0  0  0  0  0  0  0  0
   -0.7373    1.7054   -1.4361 C   0  0  0  0  0  0  0  0  0  0  0  0
   -1.8877    2.3991   -1.5396 C   0  0  0  0  0  0  0  0  0  0  0  0
   -2.6031    2.1686   -0.3488 C   0  0  0  0  0  0  0  0  0  0  0  0
   -2.0505    1.3330    0.6515 C   0  0  0  0  0  0  0  0  0  0  0  0
   -0.2867    0.0909    1.1919 H   0  0  0  0  0  0  0  0  0  0  0  0
    1.0147    0.4052   -0.7462 H   0  0  0  0  0  0  0  0  0  0  0  0
   -2.2280    3.0159   -2.3595 H   0  0  0  0  0  0  0  0  0  0  0  0
   -3.5729    2.6340   -0.2092 H   0  0  0  0  0  0  0  0  0  0  0  0
    4.6790    1.6175   -0.4520 N   0  0  0  0  0  0  0  0  0  0  0  0
    5.4232    1.1567    0.2225 N   0  0  0  0  0  0  0  0  0  0  0  0
    2.3047   -0.2141    1.1960 B   0  0  0  0  0  0  0  0  0  0  0  0
    1.1984   -0.8745    1.7969 F   0  0  0  0  0  0  0  0  0  0  0  0
    2.1379    1.1632    1.3404 F   0  0  0  0  0  0  0  0  0  0  0  0
    3.4971   -0.6768    1.6803 F   0  0  0  0  0  0  0  0  0  0  0  0
    2.2268   -0.4903   -0.2393 F   0  0  0  0  0  0  0  0  0  0  0  0
   -2.7955    1.1736    1.7611 O   0  0  0  0  0  0  0  0  0  0  0  0
   -2.2652    0.3524    2.8123 C   0  0  0  0  0  0  0  0  0  0  0  0
   -3.0009    0.3957    3.6149 H   0  0  0  0  0  0  0  0  0  0  0  0
   -1.3025    0.7364    3.1648 H   0  0  0  0  0  0  0  0  0  0  0  0
   -2.1422   -0.6823    2.4752 H   0  0  0  0  0  0  0  0  0  0  0  0
  1  6  1  0  0  0  0
  1  7  1  0  0  0  0
  2  1  2  0  0  0  0
  3  2  1  0  0  0  0
  4  3  2  0  0  0  0
  4  5  1  0  0  0  0
  5 10  1  0  0  0  0
  5  6  2  0  0  0  0
  6 18  1  0  0  0  0
  8  2  1  0  0  0  0
  9  4  1  0  0  0  0
 11 12  3  0  0  0  0
 13 15  1  0  0  0  0
 13 16  1  0  0  0  0
 13 14  1  0  0  0  0
 17 13  1  0  0  0  0
 18 19  1  0  0  0  0
 19 21  1  0  0  0  0
 19 20  1  0  0  0  0
 22 19  1  0  0  0  0
M  RAD  1   3   2
M  END
