Coordinates from ORCA-job 4-MeO-Ph-N2-BF4-B3LYPG-6-31G_dp-MTMO-d009-169-n800
 OpenBabel09051908083D

 22 20  0  0  0  0  0  0  0  0999 V2000
   -0.8197    0.6894    0.4269 C   0  0  0  0  0  0  0  0  0  0  0  0
   -0.0758    0.7971   -0.8115 C   0  0  0  0  0  0  0  0  0  0  0  0
   -0.8282    1.5968   -1.5116 C   0  0  0  0  0  0  0  0  0  0  0  0
   -1.9487    2.3423   -1.5730 C   0  0  0  0  0  0  0  0  0  0  0  0
   -2.6003    2.1844   -0.3345 C   0  0  0  0  0  0  0  0  0  0  0  0
   -2.0279    1.3583    0.6624 C   0  0  0  0  0  0  0  0  0  0  0  0
   -0.2986    0.0459    1.1421 H   0  0  0  0  0  0  0  0  0  0  0  0
    0.9036    0.2433   -0.8808 H   0  0  0  0  0  0  0  0  0  0  0  0
   -2.3098    2.9478   -2.3924 H   0  0  0  0  0  0  0  0  0  0  0  0
   -3.5384    2.6989   -0.1557 H   0  0  0  0  0  0  0  0  0  0  0  0
    4.7032    2.0322    0.1294 N   0  0  0  0  0  0  0  0  0  0  0  0
    5.3828    1.4024    0.7315 N   0  0  0  0  0  0  0  0  0  0  0  0
    2.2735   -0.3844    0.9868 B   0  0  0  0  0  0  0  0  0  0  0  0
    1.1845   -1.0270    1.6326 F   0  0  0  0  0  0  0  0  0  0  0  0
    2.1331    0.9967    1.1431 F   0  0  0  0  0  0  0  0  0  0  0  0
    3.4802   -0.8613    1.4175 F   0  0  0  0  0  0  0  0  0  0  0  0
    2.1275   -0.6559   -0.4446 F   0  0  0  0  0  0  0  0  0  0  0  0
   -2.7129    1.2738    1.8182 O   0  0  0  0  0  0  0  0  0  0  0  0
   -2.1468    0.4874    2.8772 C   0  0  0  0  0  0  0  0  0  0  0  0
   -2.8336    0.5919    3.7165 H   0  0  0  0  0  0  0  0  0  0  0  0
   -1.1555    0.8593    3.1554 H   0  0  0  0  0  0  0  0  0  0  0  0
   -2.0722   -0.5658    2.5860 H   0  0  0  0  0  0  0  0  0  0  0  0
  1  6  1  0  0  0  0
  1  7  1  0  0  0  0
  2  1  2  0  0  0  0
  3  2  1  0  0  0  0
  4  3  2  0  0  0  0
  4  5  1  0  0  0  0
  5 10  1  0  0  0  0
  5  6  2  0  0  0  0
  6 18  1  0  0  0  0
  8  2  1  0  0  0  0
  9  4  1  0  0  0  0
 11 12  3  0  0  0  0
 13 15  1  0  0  0  0
 13 16  1  0  0  0  0
 13 14  1  0  0  0  0
 17 13  1  0  0  0  0
 18 19  1  0  0  0  0
 19 21  1  0  0  0  0
 19 20  1  0  0  0  0
 22 19  1  0  0  0  0
M  RAD  1   3   2
M  END
