Coordinates from ORCA-job 4-MeO-Ph-N2-BF4-B3LYPG-6-31G_dp-MTMO-d009-169-n800
 OpenBabel09051908083D

 22 20  0  0  0  0  0  0  0  0999 V2000
   -1.2178    0.8550    0.2469 C   0  0  0  0  0  0  0  0  0  0  0  0
   -0.6320    0.8072   -1.0774 C   0  0  0  0  0  0  0  0  0  0  0  0
   -1.6006    1.2595   -1.8205 C   0  0  0  0  0  0  0  0  0  0  0  0
   -2.8594    1.7357   -1.8846 C   0  0  0  0  0  0  0  0  0  0  0  0
   -3.3450    1.7535   -0.5628 C   0  0  0  0  0  0  0  0  0  0  0  0
   -2.5173    1.3141    0.4983 C   0  0  0  0  0  0  0  0  0  0  0  0
   -0.5052    0.5135    1.0029 H   0  0  0  0  0  0  0  0  0  0  0  0
    0.4415    0.4608   -1.1653 H   0  0  0  0  0  0  0  0  0  0  0  0
   -3.4176    2.0482   -2.7556 H   0  0  0  0  0  0  0  0  0  0  0  0
   -4.3526    2.1054   -0.3688 H   0  0  0  0  0  0  0  0  0  0  0  0
    9.1360   -0.3202    3.0468 N   0  0  0  0  0  0  0  0  0  0  0  0
    8.9288   -1.2718    2.5241 N   0  0  0  0  0  0  0  0  0  0  0  0
    2.0821    0.5694    0.5690 B   0  0  0  0  0  0  0  0  0  0  0  0
    1.2144   -0.1532    1.4316 F   0  0  0  0  0  0  0  0  0  0  0  0
    1.6510    1.8935    0.5086 F   0  0  0  0  0  0  0  0  0  0  0  0
    3.3917    0.4269    0.9273 F   0  0  0  0  0  0  0  0  0  0  0  0
    1.8852    0.0055   -0.7727 F   0  0  0  0  0  0  0  0  0  0  0  0
   -3.0602    1.3760    1.7290 O   0  0  0  0  0  0  0  0  0  0  0  0
   -2.2427    0.9884    2.8434 C   0  0  0  0  0  0  0  0  0  0  0  0
   -2.8574    1.1564    3.7271 H   0  0  0  0  0  0  0  0  0  0  0  0
   -1.3358    1.5991    2.8959 H   0  0  0  0  0  0  0  0  0  0  0  0
   -1.9672   -0.0694    2.7780 H   0  0  0  0  0  0  0  0  0  0  0  0
  1  6  1  0  0  0  0
  1  7  1  0  0  0  0
  2  1  2  0  0  0  0
  3  2  1  0  0  0  0
  4  3  2  0  0  0  0
  4  5  1  0  0  0  0
  5 10  1  0  0  0  0
  5  6  2  0  0  0  0
  6 18  1  0  0  0  0
  8  2  1  0  0  0  0
  9  4  1  0  0  0  0
 12 11  3  0  0  0  0
 13 16  1  0  0  0  0
 13 14  1  0  0  0  0
 15 13  1  0  0  0  0
 17 13  1  0  0  0  0
 18 19  1  0  0  0  0
 19 21  1  0  0  0  0
 19 20  1  0  0  0  0
 22 19  1  0  0  0  0
M  RAD  1   3   2
M  END
