Coordinates from ORCA-job 4-MeO-Ph-N2-BF4-B3LYPG-6-31G_dp-MTMO-d009-169-n800
 OpenBabel09051908083D

 22 20  0  0  0  0  0  0  0  0999 V2000
   -1.3257    0.8805    0.2209 C   0  0  0  0  0  0  0  0  0  0  0  0
   -0.7415    0.8363   -1.1043 C   0  0  0  0  0  0  0  0  0  0  0  0
   -1.7193    1.2673   -1.8480 C   0  0  0  0  0  0  0  0  0  0  0  0
   -2.9863    1.7209   -1.9123 C   0  0  0  0  0  0  0  0  0  0  0  0
   -3.4698    1.7372   -0.5897 C   0  0  0  0  0  0  0  0  0  0  0  0
   -2.6326    1.3182    0.4722 C   0  0  0  0  0  0  0  0  0  0  0  0
   -0.6060    0.5556    0.9774 H   0  0  0  0  0  0  0  0  0  0  0  0
    0.3382    0.5096   -1.1925 H   0  0  0  0  0  0  0  0  0  0  0  0
   -3.5516    2.0188   -2.7840 H   0  0  0  0  0  0  0  0  0  0  0  0
   -4.4831    2.0724   -0.3957 H   0  0  0  0  0  0  0  0  0  0  0  0
   10.2476   -0.6315    3.3269 N   0  0  0  0  0  0  0  0  0  0  0  0
   10.0281   -1.5756    2.7957 N   0  0  0  0  0  0  0  0  0  0  0  0
    1.9800    0.6596    0.5373 B   0  0  0  0  0  0  0  0  0  0  0  0
    1.1279   -0.0755    1.4051 F   0  0  0  0  0  0  0  0  0  0  0  0
    1.5236    1.9747    0.4714 F   0  0  0  0  0  0  0  0  0  0  0  0
    3.2928    0.5438    0.8933 F   0  0  0  0  0  0  0  0  0  0  0  0
    1.7909    0.0853   -0.8014 F   0  0  0  0  0  0  0  0  0  0  0  0
   -3.1744    1.3774    1.7035 O   0  0  0  0  0  0  0  0  0  0  0  0
   -2.3482    1.0106    2.8185 C   0  0  0  0  0  0  0  0  0  0  0  0
   -2.9640    1.1735    3.7024 H   0  0  0  0  0  0  0  0  0  0  0  0
   -1.4517    1.6370    2.8656 H   0  0  0  0  0  0  0  0  0  0  0  0
   -2.0549   -0.0427    2.7590 H   0  0  0  0  0  0  0  0  0  0  0  0
  1  6  1  0  0  0  0
  1  7  1  0  0  0  0
  2  1  2  0  0  0  0
  3  2  1  0  0  0  0
  4  3  2  0  0  0  0
  4  5  1  0  0  0  0
  5 10  1  0  0  0  0
  5  6  2  0  0  0  0
  6 18  1  0  0  0  0
  8  2  1  0  0  0  0
  9  4  1  0  0  0  0
 12 11  3  0  0  0  0
 13 16  1  0  0  0  0
 13 14  1  0  0  0  0
 15 13  1  0  0  0  0
 17 13  1  0  0  0  0
 18 19  1  0  0  0  0
 19 21  1  0  0  0  0
 19 20  1  0  0  0  0
 22 19  1  0  0  0  0
M  RAD  1   3   2
M  END
