Coordinates from ORCA-job 4-MeO-Ph-N2-BF4-B3LYPG-6-31G_dp-MTMO-d009-169-n800
 OpenBabel09051908083D

 22 20  0  0  0  0  0  0  0  0999 V2000
   -0.8492    0.6930    0.3771 C   0  0  0  0  0  0  0  0  0  0  0  0
   -0.2085    0.7281   -0.9217 C   0  0  0  0  0  0  0  0  0  0  0  0
   -1.0209    1.4805   -1.6069 C   0  0  0  0  0  0  0  0  0  0  0  0
   -2.1476    2.2189   -1.6234 C   0  0  0  0  0  0  0  0  0  0  0  0
   -2.6964    2.1340   -0.3291 C   0  0  0  0  0  0  0  0  0  0  0  0
   -2.0399    1.3722    0.6671 C   0  0  0  0  0  0  0  0  0  0  0  0
   -0.2752    0.0856    1.0819 H   0  0  0  0  0  0  0  0  0  0  0  0
    0.7667    0.1702   -1.0446 H   0  0  0  0  0  0  0  0  0  0  0  0
   -2.5770    2.7742   -2.4452 H   0  0  0  0  0  0  0  0  0  0  0  0
   -3.6214    2.6553   -0.1069 H   0  0  0  0  0  0  0  0  0  0  0  0
    4.8839    2.1303    1.0487 N   0  0  0  0  0  0  0  0  0  0  0  0
    5.4670    1.2813    1.4491 N   0  0  0  0  0  0  0  0  0  0  0  0
    2.2813   -0.4140    0.7040 B   0  0  0  0  0  0  0  0  0  0  0  0
    1.2227   -1.0520    1.4014 F   0  0  0  0  0  0  0  0  0  0  0  0
    2.1666    0.9654    0.8835 F   0  0  0  0  0  0  0  0  0  0  0  0
    3.5034   -0.9126    1.0595 F   0  0  0  0  0  0  0  0  0  0  0  0
    2.0495   -0.6690   -0.7212 F   0  0  0  0  0  0  0  0  0  0  0  0
   -2.6317    1.3562    1.8763 O   0  0  0  0  0  0  0  0  0  0  0  0
   -1.9755    0.6437    2.9353 C   0  0  0  0  0  0  0  0  0  0  0  0
   -2.6008    0.7901    3.8155 H   0  0  0  0  0  0  0  0  0  0  0  0
   -0.9738    1.0467    3.1167 H   0  0  0  0  0  0  0  0  0  0  0  0
   -1.9032   -0.4244    2.7038 H   0  0  0  0  0  0  0  0  0  0  0  0
  1  6  1  0  0  0  0
  1  7  1  0  0  0  0
  2  1  2  0  0  0  0
  3  2  1  0  0  0  0
  4  3  2  0  0  0  0
  4  5  1  0  0  0  0
  5 10  1  0  0  0  0
  5  6  2  0  0  0  0
  6 18  1  0  0  0  0
  8  2  1  0  0  0  0
  9  4  1  0  0  0  0
 11 12  3  0  0  0  0
 13 15  1  0  0  0  0
 13 16  1  0  0  0  0
 13 14  1  0  0  0  0
 17 13  1  0  0  0  0
 18 19  1  0  0  0  0
 19 21  1  0  0  0  0
 19 20  1  0  0  0  0
 22 19  1  0  0  0  0
M  RAD  1   3   2
M  END
