Coordinates from ORCA-job 4-MeO-Ph-N2-BF4-B3LYPG-6-31G_dp-MTMO-d009-169-n800
 OpenBabel09051908083D

 22 20  0  0  0  0  0  0  0  0999 V2000
   -1.1372    0.8414    0.2655 C   0  0  0  0  0  0  0  0  0  0  0  0
   -0.5508    0.7942   -1.0587 C   0  0  0  0  0  0  0  0  0  0  0  0
   -1.5207    1.2430   -1.8023 C   0  0  0  0  0  0  0  0  0  0  0  0
   -2.7807    1.7159   -1.8670 C   0  0  0  0  0  0  0  0  0  0  0  0
   -3.2667    1.7335   -0.5453 C   0  0  0  0  0  0  0  0  0  0  0  0
   -2.4380    1.2972    0.5163 C   0  0  0  0  0  0  0  0  0  0  0  0
   -0.4239    0.5021    1.0218 H   0  0  0  0  0  0  0  0  0  0  0  0
    0.5234    0.4508   -1.1458 H   0  0  0  0  0  0  0  0  0  0  0  0
   -3.3395    2.0264   -2.7384 H   0  0  0  0  0  0  0  0  0  0  0  0
   -4.2753    2.0828   -0.3519 H   0  0  0  0  0  0  0  0  0  0  0  0
    8.3324   -0.1874    2.8568 N   0  0  0  0  0  0  0  0  0  0  0  0
    8.1327   -1.1391    2.3314 N   0  0  0  0  0  0  0  0  0  0  0  0
    2.1629    0.5643    0.5909 B   0  0  0  0  0  0  0  0  0  0  0  0
    1.2961   -0.1596    1.4535 F   0  0  0  0  0  0  0  0  0  0  0  0
    1.7290    1.8873    0.5293 F   0  0  0  0  0  0  0  0  0  0  0  0
    3.4725    0.4250    0.9511 F   0  0  0  0  0  0  0  0  0  0  0  0
    1.9687   -0.0011   -0.7503 F   0  0  0  0  0  0  0  0  0  0  0  0
   -2.9813    1.3585    1.7468 O   0  0  0  0  0  0  0  0  0  0  0  0
   -2.1629    0.9738    2.8616 C   0  0  0  0  0  0  0  0  0  0  0  0
   -2.7782    1.1410    3.7451 H   0  0  0  0  0  0  0  0  0  0  0  0
   -1.2575    1.5869    2.9138 H   0  0  0  0  0  0  0  0  0  0  0  0
   -1.8848   -0.0833    2.7971 H   0  0  0  0  0  0  0  0  0  0  0  0
  1  6  1  0  0  0  0
  1  7  1  0  0  0  0
  2  1  2  0  0  0  0
  3  2  1  0  0  0  0
  4  3  2  0  0  0  0
  4  5  1  0  0  0  0
  5 10  1  0  0  0  0
  5  6  2  0  0  0  0
  6 18  1  0  0  0  0
  8  2  1  0  0  0  0
  9  4  1  0  0  0  0
 12 11  3  0  0  0  0
 13 16  1  0  0  0  0
 13 14  1  0  0  0  0
 15 13  1  0  0  0  0
 17 13  1  0  0  0  0
 18 19  1  0  0  0  0
 19 21  1  0  0  0  0
 19 20  1  0  0  0  0
 22 19  1  0  0  0  0
M  RAD  1   3   2
M  END
