Coordinates from ORCA-job 4-MeO-Ph-N2-BF4-B3LYPG-6-31G_dp-MTMO-d009-169-n800
 OpenBabel09051908083D

 22 20  0  0  0  0  0  0  0  0999 V2000
   -0.4977    0.6471    0.7322 C   0  0  0  0  0  0  0  0  0  0  0  0
    0.6414    0.8511   -0.1193 C   0  0  0  0  0  0  0  0  0  0  0  0
    0.2380    1.7303   -1.0046 C   0  0  0  0  0  0  0  0  0  0  0  0
   -0.7994    2.4964   -1.4052 C   0  0  0  0  0  0  0  0  0  0  0  0
   -1.8653    2.2432   -0.5238 C   0  0  0  0  0  0  0  0  0  0  0  0
   -1.7105    1.3238    0.5408 C   0  0  0  0  0  0  0  0  0  0  0  0
   -0.2898   -0.0654    1.5319 H   0  0  0  0  0  0  0  0  0  0  0  0
    1.5971    0.3060    0.1068 H   0  0  0  0  0  0  0  0  0  0  0  0
   -0.8391    3.1810   -2.2399 H   0  0  0  0  0  0  0  0  0  0  0  0
   -2.8080    2.7610   -0.6655 H   0  0  0  0  0  0  0  0  0  0  0  0
    2.1590    2.2048   -2.5029 N   0  0  0  0  0  0  0  0  0  0  0  0
    3.1281    2.3016   -3.0233 N   0  0  0  0  0  0  0  0  0  0  0  0
    2.2811   -0.5128    2.2291 B   0  0  0  0  0  0  0  0  0  0  0  0
    1.0669   -1.2466    2.2749 F   0  0  0  0  0  0  0  0  0  0  0  0
    2.0068    0.8250    2.5207 F   0  0  0  0  0  0  0  0  0  0  0  0
    3.2412   -1.0634    3.0322 F   0  0  0  0  0  0  0  0  0  0  0  0
    2.7306   -0.5524    0.8365 F   0  0  0  0  0  0  0  0  0  0  0  0
   -2.7900    1.1626    1.3302 O   0  0  0  0  0  0  0  0  0  0  0  0
   -2.6751    0.2784    2.4531 C   0  0  0  0  0  0  0  0  0  0  0  0
   -3.6393    0.3232    2.9589 H   0  0  0  0  0  0  0  0  0  0  0  0
   -1.8808    0.6062    3.1319 H   0  0  0  0  0  0  0  0  0  0  0  0
   -2.4750   -0.7477    2.1266 H   0  0  0  0  0  0  0  0  0  0  0  0
  1  7  1  0  0  0  0
  2  8  1  0  0  0  0
  2  1  2  0  0  0  0
  3  2  1  0  0  0  0
  4  3  2  0  0  0  0
  4  5  1  0  0  0  0
  5  6  2  0  0  0  0
  6  1  1  0  0  0  0
  6 18  1  0  0  0  0
  9  4  1  0  0  0  0
 10  5  1  0  0  0  0
 12 11  3  0  0  0  0
 13 14  1  0  0  0  0
 13 15  1  0  0  0  0
 13 16  1  0  0  0  0
 17 13  1  0  0  0  0
 18 19  1  0  0  0  0
 19 20  1  0  0  0  0
 19 21  1  0  0  0  0
 22 19  1  0  0  0  0
M  RAD  1   3   2
M  END
