Coordinates from ORCA-job 4-MeO-Ph-N2-BF4-B3LYPG-6-31G_dp-MTMO-d009-169-n800
 OpenBabel09051908083D

 22 20  0  0  0  0  0  0  0  0999 V2000
   -0.8544    0.7012    0.3608 C   0  0  0  0  0  0  0  0  0  0  0  0
   -0.2435    0.7209   -0.9524 C   0  0  0  0  0  0  0  0  0  0  0  0
   -1.0829    1.4461   -1.6346 C   0  0  0  0  0  0  0  0  0  0  0  0
   -2.2147    2.1767   -1.6371 C   0  0  0  0  0  0  0  0  0  0  0  0
   -2.7328    2.1097   -0.3292 C   0  0  0  0  0  0  0  0  0  0  0  0
   -2.0454    1.3736    0.6656 C   0  0  0  0  0  0  0  0  0  0  0  0
   -0.2613    0.1068    1.0608 H   0  0  0  0  0  0  0  0  0  0  0  0
    0.7349    0.1701   -1.0884 H   0  0  0  0  0  0  0  0  0  0  0  0
   -2.6680    2.7141   -2.4579 H   0  0  0  0  0  0  0  0  0  0  0  0
   -3.6583    2.6249   -0.0952 H   0  0  0  0  0  0  0  0  0  0  0  0
    4.9264    2.0957    1.3190 N   0  0  0  0  0  0  0  0  0  0  0  0
    5.4794    1.1944    1.6398 N   0  0  0  0  0  0  0  0  0  0  0  0
    2.2904   -0.3980    0.6332 B   0  0  0  0  0  0  0  0  0  0  0  0
    1.2390   -1.0323    1.3452 F   0  0  0  0  0  0  0  0  0  0  0  0
    2.1886    0.9805    0.8195 F   0  0  0  0  0  0  0  0  0  0  0  0
    3.5142   -0.9081    0.9661 F   0  0  0  0  0  0  0  0  0  0  0  0
    2.0338   -0.6478   -0.7894 F   0  0  0  0  0  0  0  0  0  0  0  0
   -2.6096    1.3734    1.8879 O   0  0  0  0  0  0  0  0  0  0  0  0
   -1.9221    0.6876    2.9446 C   0  0  0  0  0  0  0  0  0  0  0  0
   -2.5300    0.8421    3.8354 H   0  0  0  0  0  0  0  0  0  0  0  0
   -0.9217    1.1055    3.0973 H   0  0  0  0  0  0  0  0  0  0  0  0
   -1.8419   -0.3836    2.7302 H   0  0  0  0  0  0  0  0  0  0  0  0
  1  6  1  0  0  0  0
  1  7  1  0  0  0  0
  2  1  2  0  0  0  0
  3  2  1  0  0  0  0
  4  3  2  0  0  0  0
  4  5  1  0  0  0  0
  5 10  1  0  0  0  0
  5  6  2  0  0  0  0
  6 18  1  0  0  0  0
  8  2  1  0  0  0  0
  9  4  1  0  0  0  0
 11 12  3  0  0  0  0
 13 15  1  0  0  0  0
 13 16  1  0  0  0  0
 13 14  1  0  0  0  0
 17 13  1  0  0  0  0
 18 19  1  0  0  0  0
 19 21  1  0  0  0  0
 19 20  1  0  0  0  0
 22 19  1  0  0  0  0
M  RAD  1   3   2
M  END
