Coordinates from ORCA-job 4-MeO-Ph-N2-BF4-B3LYPG-6-31G_dp-MTMO-d009-169-n800
 OpenBabel09051908083D

 22 20  0  0  0  0  0  0  0  0999 V2000
   -0.9684    0.7852    0.3052 C   0  0  0  0  0  0  0  0  0  0  0  0
   -0.3772    0.7133   -1.0160 C   0  0  0  0  0  0  0  0  0  0  0  0
   -1.3168    1.2276   -1.7577 C   0  0  0  0  0  0  0  0  0  0  0  0
   -2.5469    1.7735   -1.8214 C   0  0  0  0  0  0  0  0  0  0  0  0
   -3.0391    1.8070   -0.5023 C   0  0  0  0  0  0  0  0  0  0  0  0
   -2.2418    1.3118    0.5573 C   0  0  0  0  0  0  0  0  0  0  0  0
   -0.2768    0.3992    1.0613 H   0  0  0  0  0  0  0  0  0  0  0  0
    0.6675    0.2985   -1.0952 H   0  0  0  0  0  0  0  0  0  0  0  0
   -3.0811    2.1255   -2.6925 H   0  0  0  0  0  0  0  0  0  0  0  0
   -4.0264    2.2131   -0.3101 H   0  0  0  0  0  0  0  0  0  0  0  0
    6.5034   -0.2331    2.4722 N   0  0  0  0  0  0  0  0  0  0  0  0
    6.4281    0.4670    1.6205 N   0  0  0  0  0  0  0  0  0  0  0  0
    2.3016    0.2940    0.6831 B   0  0  0  0  0  0  0  0  0  0  0  0
    1.3704   -0.3139    1.5714 F   0  0  0  0  0  0  0  0  0  0  0  0
    1.9908    1.6472    0.5711 F   0  0  0  0  0  0  0  0  0  0  0  0
    3.5926    0.0499    1.0656 F   0  0  0  0  0  0  0  0  0  0  0  0
    2.0659   -0.3001   -0.6331 F   0  0  0  0  0  0  0  0  0  0  0  0
   -2.7844    1.3888    1.7868 O   0  0  0  0  0  0  0  0  0  0  0  0
   -1.9968    0.9321    2.8972 C   0  0  0  0  0  0  0  0  0  0  0  0
   -2.6052    1.1195    3.7813 H   0  0  0  0  0  0  0  0  0  0  0  0
   -1.0555    1.4864    2.9649 H   0  0  0  0  0  0  0  0  0  0  0  0
   -1.7840   -0.1387    2.8117 H   0  0  0  0  0  0  0  0  0  0  0  0
  1  6  1  0  0  0  0
  1  7  1  0  0  0  0
  2  1  2  0  0  0  0
  3  2  1  0  0  0  0
  4  3  2  0  0  0  0
  4  5  1  0  0  0  0
  5 10  1  0  0  0  0
  5  6  2  0  0  0  0
  6 18  1  0  0  0  0
  8  2  1  0  0  0  0
  9  4  1  0  0  0  0
 12 11  3  0  0  0  0
 13 16  1  0  0  0  0
 13 14  1  0  0  0  0
 15 13  1  0  0  0  0
 17 13  1  0  0  0  0
 18 19  1  0  0  0  0
 19 21  1  0  0  0  0
 19 20  1  0  0  0  0
 22 19  1  0  0  0  0
M  RAD  1   3   2
M  END
