Coordinates from ORCA-job 4-MeO-Ph-N2-BF4-B3LYPG-6-31G_dp-MTMO-d009-169-n800
 OpenBabel09051908083D

 22 20  0  0  0  0  0  0  0  0999 V2000
   -0.9617    0.7804    0.3057 C   0  0  0  0  0  0  0  0  0  0  0  0
   -0.3763    0.7075   -1.0176 C   0  0  0  0  0  0  0  0  0  0  0  0
   -1.3145    1.2307   -1.7546 C   0  0  0  0  0  0  0  0  0  0  0  0
   -2.5409    1.7854   -1.8124 C   0  0  0  0  0  0  0  0  0  0  0  0
   -3.0281    1.8190   -0.4915 C   0  0  0  0  0  0  0  0  0  0  0  0
   -2.2306    1.3153    0.5638 C   0  0  0  0  0  0  0  0  0  0  0  0
   -0.2701    0.3885    1.0586 H   0  0  0  0  0  0  0  0  0  0  0  0
    0.6651    0.2855   -1.1033 H   0  0  0  0  0  0  0  0  0  0  0  0
   -3.0756    2.1434   -2.6808 H   0  0  0  0  0  0  0  0  0  0  0  0
   -4.0118    2.2315   -0.2946 H   0  0  0  0  0  0  0  0  0  0  0  0
    6.3264   -0.1022    2.5485 N   0  0  0  0  0  0  0  0  0  0  0  0
    6.4256    0.4508    1.5971 N   0  0  0  0  0  0  0  0  0  0  0  0
    2.3080    0.2673    0.6583 B   0  0  0  0  0  0  0  0  0  0  0  0
    1.3796   -0.3381    1.5505 F   0  0  0  0  0  0  0  0  0  0  0  0
    2.0037    1.6224    0.5506 F   0  0  0  0  0  0  0  0  0  0  0  0
    3.6005    0.0171    1.0327 F   0  0  0  0  0  0  0  0  0  0  0  0
    2.0625   -0.3230   -0.6575 F   0  0  0  0  0  0  0  0  0  0  0  0
   -2.7683    1.3929    1.7955 O   0  0  0  0  0  0  0  0  0  0  0  0
   -1.9801    0.9284    2.9020 C   0  0  0  0  0  0  0  0  0  0  0  0
   -2.5847    1.1166    3.7887 H   0  0  0  0  0  0  0  0  0  0  0  0
   -1.0355    1.4772    2.9687 H   0  0  0  0  0  0  0  0  0  0  0  0
   -1.7736   -0.1434    2.8129 H   0  0  0  0  0  0  0  0  0  0  0  0
  1  6  1  0  0  0  0
  1  7  1  0  0  0  0
  2  1  2  0  0  0  0
  3  2  1  0  0  0  0
  4  3  2  0  0  0  0
  4  5  1  0  0  0  0
  5 10  1  0  0  0  0
  5  6  2  0  0  0  0
  6 18  1  0  0  0  0
  8  2  1  0  0  0  0
  9  4  1  0  0  0  0
 12 11  3  0  0  0  0
 13 16  1  0  0  0  0
 13 14  1  0  0  0  0
 15 13  1  0  0  0  0
 17 13  1  0  0  0  0
 18 19  1  0  0  0  0
 19 21  1  0  0  0  0
 19 20  1  0  0  0  0
 22 19  1  0  0  0  0
M  RAD  1   3   2
M  END
