Coordinates from ORCA-job 4-MeO-Ph-N2-BF4-B3LYPG-6-31G_dp-MTMO-d009-169-n800
 OpenBabel09051908083D

 22 20  0  0  0  0  0  0  0  0999 V2000
   -1.4040    0.8947    0.2022 C   0  0  0  0  0  0  0  0  0  0  0  0
   -0.8209    0.8498   -1.1235 C   0  0  0  0  0  0  0  0  0  0  0  0
   -1.7977    1.2850   -1.8661 C   0  0  0  0  0  0  0  0  0  0  0  0
   -3.0632    1.7430   -1.9290 C   0  0  0  0  0  0  0  0  0  0  0  0
   -3.5457    1.7596   -0.6060 C   0  0  0  0  0  0  0  0  0  0  0  0
   -2.7092    1.3367    0.4548 C   0  0  0  0  0  0  0  0  0  0  0  0
   -0.6848    0.5666    0.9578 H   0  0  0  0  0  0  0  0  0  0  0  0
    0.2576    0.5193   -1.2128 H   0  0  0  0  0  0  0  0  0  0  0  0
   -3.6281    2.0437   -2.7999 H   0  0  0  0  0  0  0  0  0  0  0  0
   -4.5577    2.0981   -0.4110 H   0  0  0  0  0  0  0  0  0  0  0  0
   11.0246   -0.7659    3.5160 N   0  0  0  0  0  0  0  0  0  0  0  0
   10.8015   -1.7083    2.9833 N   0  0  0  0  0  0  0  0  0  0  0  0
    1.9012    0.6617    0.5153 B   0  0  0  0  0  0  0  0  0  0  0  0
    1.0474   -0.0714    1.3830 F   0  0  0  0  0  0  0  0  0  0  0  0
    1.4492    1.9785    0.4513 F   0  0  0  0  0  0  0  0  0  0  0  0
    3.2140    0.5409    0.8697 F   0  0  0  0  0  0  0  0  0  0  0  0
    1.7089    0.0895   -0.8239 F   0  0  0  0  0  0  0  0  0  0  0  0
   -3.2499    1.3964    1.6866 O   0  0  0  0  0  0  0  0  0  0  0  0
   -2.4242    1.0256    2.8007 C   0  0  0  0  0  0  0  0  0  0  0  0
   -3.0390    1.1895    3.6852 H   0  0  0  0  0  0  0  0  0  0  0  0
   -1.5256    1.6490    2.8479 H   0  0  0  0  0  0  0  0  0  0  0  0
   -2.1344   -0.0286    2.7397 H   0  0  0  0  0  0  0  0  0  0  0  0
  1  6  1  0  0  0  0
  1  7  1  0  0  0  0
  2  1  2  0  0  0  0
  3  2  1  0  0  0  0
  4  3  2  0  0  0  0
  4  5  1  0  0  0  0
  5 10  1  0  0  0  0
  5  6  2  0  0  0  0
  6 18  1  0  0  0  0
  8  2  1  0  0  0  0
  9  4  1  0  0  0  0
 12 11  3  0  0  0  0
 13 16  1  0  0  0  0
 13 14  1  0  0  0  0
 15 13  1  0  0  0  0
 17 13  1  0  0  0  0
 18 19  1  0  0  0  0
 19 21  1  0  0  0  0
 19 20  1  0  0  0  0
 22 19  1  0  0  0  0
M  RAD  1   3   2
M  END
