Coordinates from ORCA-job 4-MeO-Ph-N2-BF4-B3LYPG-6-31G_dp-MTMO-d009-169-n800
 OpenBabel09051908083D

 22 21  0  0  0  0  0  0  0  0999 V2000
   -0.2855    0.5005    0.3931 C   0  0  0  0  0  0  0  0  0  0  0  0
    0.7189    0.7970   -0.5139 C   0  0  0  0  0  0  0  0  0  0  0  0
    0.4204    1.8192   -1.4009 C   0  0  0  0  0  0  0  0  0  0  0  0
   -0.7382    2.5937   -1.4796 C   0  0  0  0  0  0  0  0  0  0  0  0
   -1.7011    2.2891   -0.5368 C   0  0  0  0  0  0  0  0  0  0  0  0
   -1.4680    1.2685    0.4250 C   0  0  0  0  0  0  0  0  0  0  0  0
   -0.0974   -0.3048    1.0995 H   0  0  0  0  0  0  0  0  0  0  0  0
    1.6660    0.2740   -0.4342 H   0  0  0  0  0  0  0  0  0  0  0  0
   -0.8720    3.3790   -2.2128 H   0  0  0  0  0  0  0  0  0  0  0  0
   -2.6326    2.8420   -0.4976 H   0  0  0  0  0  0  0  0  0  0  0  0
    1.6085    2.2188   -2.4285 N   0  0  0  0  0  0  0  0  0  0  0  0
    2.4419    2.4562   -3.1259 N   0  0  0  0  0  0  0  0  0  0  0  0
    1.7365   -0.5038    2.6240 B   0  0  0  0  0  0  0  0  0  0  0  0
    0.6906   -1.4455    2.3705 F   0  0  0  0  0  0  0  0  0  0  0  0
    1.1114    0.7213    2.9615 F   0  0  0  0  0  0  0  0  0  0  0  0
    2.5674   -0.9459    3.6248 F   0  0  0  0  0  0  0  0  0  0  0  0
    2.4534   -0.3276    1.4050 F   0  0  0  0  0  0  0  0  0  0  0  0
   -2.4119    1.1107    1.3467 O   0  0  0  0  0  0  0  0  0  0  0  0
   -2.1350    0.2336    2.4713 C   0  0  0  0  0  0  0  0  0  0  0  0
   -2.9433    0.4237    3.1762 H   0  0  0  0  0  0  0  0  0  0  0  0
   -1.1585    0.4650    2.9048 H   0  0  0  0  0  0  0  0  0  0  0  0
   -2.1516   -0.8111    2.1491 H   0  0  0  0  0  0  0  0  0  0  0  0
  1  6  1  0  0  0  0
  1  7  1  0  0  0  0
  2  8  1  0  0  0  0
  2  1  2  0  0  0  0
  3  2  1  0  0  0  0
  4  3  2  0  0  0  0
  4  5  1  0  0  0  0
  5 10  1  0  0  0  0
  5  6  2  0  0  0  0
  6 18  1  0  0  0  0
  9  4  1  0  0  0  0
 11  3  1  0  0  0  0
 12 11  1  0  0  0  0
 13 15  1  0  0  0  0
 13 16  1  0  0  0  0
 14 13  1  0  0  0  0
 17 13  1  0  0  0  0
 18 19  1  0  0  0  0
 19 21  1  0  0  0  0
 19 20  1  0  0  0  0
 22 19  1  0  0  0  0
M  RAD  2  11   2  12   3
M  END
