Coordinates from ORCA-job 4-MeO-Ph-N2-BF4-B3LYPG-6-31G_dp-MTMO-d009-169-n800
 OpenBabel09051908083D

 22 20  0  0  0  0  0  0  0  0999 V2000
   -1.5525    0.9238    0.1673 C   0  0  0  0  0  0  0  0  0  0  0  0
   -0.9690    0.8791   -1.1581 C   0  0  0  0  0  0  0  0  0  0  0  0
   -1.9474    1.3089   -1.9017 C   0  0  0  0  0  0  0  0  0  0  0  0
   -3.2149    1.7613   -1.9658 C   0  0  0  0  0  0  0  0  0  0  0  0
   -3.6978    1.7781   -0.6429 C   0  0  0  0  0  0  0  0  0  0  0  0
   -2.8597    1.3606    0.4189 C   0  0  0  0  0  0  0  0  0  0  0  0
   -0.8322    0.6001    0.9238 H   0  0  0  0  0  0  0  0  0  0  0  0
    0.1111    0.5533   -1.2467 H   0  0  0  0  0  0  0  0  0  0  0  0
   -3.7808    2.0581   -2.8373 H   0  0  0  0  0  0  0  0  0  0  0  0
   -4.7112    2.1127   -0.4487 H   0  0  0  0  0  0  0  0  0  0  0  0
   12.5219   -1.0711    3.8697 N   0  0  0  0  0  0  0  0  0  0  0  0
   12.2911   -2.0110    3.3358 N   0  0  0  0  0  0  0  0  0  0  0  0
    1.7538    0.7065    0.4810 B   0  0  0  0  0  0  0  0  0  0  0  0
    0.9035   -0.0291    1.3498 F   0  0  0  0  0  0  0  0  0  0  0  0
    1.2959    2.0211    0.4148 F   0  0  0  0  0  0  0  0  0  0  0  0
    3.0672    0.5924    0.8354 F   0  0  0  0  0  0  0  0  0  0  0  0
    1.5640    0.1313   -0.8574 F   0  0  0  0  0  0  0  0  0  0  0  0
   -3.4010    1.4202    1.6504 O   0  0  0  0  0  0  0  0  0  0  0  0
   -2.5741    1.0550    2.7654 C   0  0  0  0  0  0  0  0  0  0  0  0
   -3.1897    1.2180    3.6494 H   0  0  0  0  0  0  0  0  0  0  0  0
   -1.6781    1.6822    2.8117 H   0  0  0  0  0  0  0  0  0  0  0  0
   -2.2799    0.0019    2.7065 H   0  0  0  0  0  0  0  0  0  0  0  0
  1  6  1  0  0  0  0
  1  7  1  0  0  0  0
  2  1  2  0  0  0  0
  3  2  1  0  0  0  0
  4  3  2  0  0  0  0
  4  5  1  0  0  0  0
  5 10  1  0  0  0  0
  5  6  2  0  0  0  0
  6 18  1  0  0  0  0
  8  2  1  0  0  0  0
  9  4  1  0  0  0  0
 12 11  3  0  0  0  0
 13 16  1  0  0  0  0
 13 14  1  0  0  0  0
 15 13  1  0  0  0  0
 17 13  1  0  0  0  0
 18 19  1  0  0  0  0
 19 21  1  0  0  0  0
 19 20  1  0  0  0  0
 22 19  1  0  0  0  0
M  RAD  1   3   2
M  END
