Coordinates from ORCA-job 4-MeO-Ph-N2-BF4-B3LYPG-6-31G_dp-MTMO-d009-169-n800
 OpenBabel09051908083D

 22 20  0  0  0  0  0  0  0  0999 V2000
   -1.4217    0.8980    0.1979 C   0  0  0  0  0  0  0  0  0  0  0  0
   -0.8389    0.8529   -1.1279 C   0  0  0  0  0  0  0  0  0  0  0  0
   -1.8155    1.2889   -1.8702 C   0  0  0  0  0  0  0  0  0  0  0  0
   -3.0808    1.7476   -1.9328 C   0  0  0  0  0  0  0  0  0  0  0  0
   -3.5631    1.7643   -0.6098 C   0  0  0  0  0  0  0  0  0  0  0  0
   -2.7266    1.3407    0.4509 C   0  0  0  0  0  0  0  0  0  0  0  0
   -0.7026    0.5694    0.9534 H   0  0  0  0  0  0  0  0  0  0  0  0
    0.2394    0.5218   -1.2174 H   0  0  0  0  0  0  0  0  0  0  0  0
   -3.6457    2.0488   -2.8036 H   0  0  0  0  0  0  0  0  0  0  0  0
   -4.5748    2.1033   -0.4144 H   0  0  0  0  0  0  0  0  0  0  0  0
   11.2008   -0.7972    3.5591 N   0  0  0  0  0  0  0  0  0  0  0  0
   10.9769   -1.7392    3.0259 N   0  0  0  0  0  0  0  0  0  0  0  0
    1.8834    0.6628    0.5103 B   0  0  0  0  0  0  0  0  0  0  0  0
    1.0294   -0.0699    1.3780 F   0  0  0  0  0  0  0  0  0  0  0  0
    1.4323    1.9799    0.4466 F   0  0  0  0  0  0  0  0  0  0  0  0
    3.1962    0.5412    0.8643 F   0  0  0  0  0  0  0  0  0  0  0  0
    1.6904    0.0911   -0.8290 F   0  0  0  0  0  0  0  0  0  0  0  0
   -3.2671    1.4005    1.6828 O   0  0  0  0  0  0  0  0  0  0  0  0
   -2.4415    1.0290    2.7966 C   0  0  0  0  0  0  0  0  0  0  0  0
   -3.0560    1.1931    3.6813 H   0  0  0  0  0  0  0  0  0  0  0  0
   -1.5425    1.6519    2.8439 H   0  0  0  0  0  0  0  0  0  0  0  0
   -2.1522   -0.0253    2.7354 H   0  0  0  0  0  0  0  0  0  0  0  0
  1  6  1  0  0  0  0
  1  7  1  0  0  0  0
  2  1  2  0  0  0  0
  3  2  1  0  0  0  0
  4  3  2  0  0  0  0
  4  5  1  0  0  0  0
  5 10  1  0  0  0  0
  5  6  2  0  0  0  0
  6 18  1  0  0  0  0
  8  2  1  0  0  0  0
  9  4  1  0  0  0  0
 12 11  3  0  0  0  0
 13 16  1  0  0  0  0
 13 14  1  0  0  0  0
 15 13  1  0  0  0  0
 17 13  1  0  0  0  0
 18 19  1  0  0  0  0
 19 21  1  0  0  0  0
 19 20  1  0  0  0  0
 22 19  1  0  0  0  0
M  RAD  1   3   2
M  END
