Coordinates from ORCA-job 4-MeO-Ph-N2-BF4-B3LYPG-6-31G_dp-MTMO-d009-169-n800
 OpenBabel09051908083D

 22 20  0  0  0  0  0  0  0  0999 V2000
   -1.0110    0.8318    0.2712 C   0  0  0  0  0  0  0  0  0  0  0  0
   -0.4509    0.7928   -1.0645 C   0  0  0  0  0  0  0  0  0  0  0  0
   -1.4494    1.2105   -1.7893 C   0  0  0  0  0  0  0  0  0  0  0  0
   -2.7191    1.6596   -1.8271 C   0  0  0  0  0  0  0  0  0  0  0  0
   -3.1770    1.6729   -0.4954 C   0  0  0  0  0  0  0  0  0  0  0  0
   -2.3155    1.2605    0.5494 C   0  0  0  0  0  0  0  0  0  0  0  0
   -0.2761    0.5042    1.0127 H   0  0  0  0  0  0  0  0  0  0  0  0
    0.6266    0.4693   -1.1697 H   0  0  0  0  0  0  0  0  0  0  0  0
   -3.3028    1.9554   -2.6874 H   0  0  0  0  0  0  0  0  0  0  0  0
   -4.1886    2.0011   -0.2816 H   0  0  0  0  0  0  0  0  0  0  0  0
    7.3009   -0.3052    2.8759 N   0  0  0  0  0  0  0  0  0  0  0  0
    6.6494   -0.7161    2.0830 N   0  0  0  0  0  0  0  0  0  0  0  0
    2.2942    0.5873    0.5618 B   0  0  0  0  0  0  0  0  0  0  0  0
    1.4430   -0.1468    1.4328 F   0  0  0  0  0  0  0  0  0  0  0  0
    1.8485    1.9072    0.5128 F   0  0  0  0  0  0  0  0  0  0  0  0
    3.6095    0.4576    0.9081 F   0  0  0  0  0  0  0  0  0  0  0  0
    2.0877    0.0272   -0.7781 F   0  0  0  0  0  0  0  0  0  0  0  0
   -2.8316    1.3157    1.7916 O   0  0  0  0  0  0  0  0  0  0  0  0
   -1.9782    0.9568    2.8890 C   0  0  0  0  0  0  0  0  0  0  0  0
   -2.5765    1.1147    3.7858 H   0  0  0  0  0  0  0  0  0  0  0  0
   -1.0864    1.5910    2.9165 H   0  0  0  0  0  0  0  0  0  0  0  0
   -1.6768   -0.0939    2.8235 H   0  0  0  0  0  0  0  0  0  0  0  0
  1  6  1  0  0  0  0
  1  7  1  0  0  0  0
  2  1  2  0  0  0  0
  3  2  1  0  0  0  0
  4  3  2  0  0  0  0
  4  5  1  0  0  0  0
  5 10  1  0  0  0  0
  5  6  2  0  0  0  0
  6 18  1  0  0  0  0
  8  2  1  0  0  0  0
  9  4  1  0  0  0  0
 12 11  3  0  0  0  0
 13 16  1  0  0  0  0
 13 14  1  0  0  0  0
 15 13  1  0  0  0  0
 17 13  1  0  0  0  0
 18 19  1  0  0  0  0
 19 21  1  0  0  0  0
 19 20  1  0  0  0  0
 22 19  1  0  0  0  0
M  RAD  1   3   2
M  END
