Coordinates from ORCA-job 4-MeO-Ph-N2-BF4-B3LYPG-6-31G_dp-MTMO-d009-169-n800
 OpenBabel09051908083D

 22 20  0  0  0  0  0  0  0  0999 V2000
   -1.1856    0.8496    0.2544 C   0  0  0  0  0  0  0  0  0  0  0  0
   -0.5996    0.8020   -1.0700 C   0  0  0  0  0  0  0  0  0  0  0  0
   -1.5688    1.2529   -1.8132 C   0  0  0  0  0  0  0  0  0  0  0  0
   -2.8281    1.7278   -1.8774 C   0  0  0  0  0  0  0  0  0  0  0  0
   -3.3138    1.7454   -0.5557 C   0  0  0  0  0  0  0  0  0  0  0  0
   -2.4856    1.3073    0.5056 C   0  0  0  0  0  0  0  0  0  0  0  0
   -0.4726    0.5089    1.0104 H   0  0  0  0  0  0  0  0  0  0  0  0
    0.4742    0.4569   -1.1576 H   0  0  0  0  0  0  0  0  0  0  0  0
   -3.3866    2.0395   -2.7486 H   0  0  0  0  0  0  0  0  0  0  0  0
   -4.3218    2.0963   -0.3619 H   0  0  0  0  0  0  0  0  0  0  0  0
    8.8148   -0.2671    2.9710 N   0  0  0  0  0  0  0  0  0  0  0  0
    8.6102   -1.2191    2.4481 N   0  0  0  0  0  0  0  0  0  0  0  0
    2.1145    0.5674    0.5773 B   0  0  0  0  0  0  0  0  0  0  0  0
    1.2472   -0.1558    1.4400 F   0  0  0  0  0  0  0  0  0  0  0  0
    1.6822    1.8911    0.5167 F   0  0  0  0  0  0  0  0  0  0  0  0
    3.4241    0.4263    0.9363 F   0  0  0  0  0  0  0  0  0  0  0  0
    1.9186    0.0030   -0.7642 F   0  0  0  0  0  0  0  0  0  0  0  0
   -3.0286    1.3690    1.7362 O   0  0  0  0  0  0  0  0  0  0  0  0
   -2.2107    0.9826    2.8507 C   0  0  0  0  0  0  0  0  0  0  0  0
   -2.8256    1.1502    3.7344 H   0  0  0  0  0  0  0  0  0  0  0  0
   -1.3044    1.5943    2.9031 H   0  0  0  0  0  0  0  0  0  0  0  0
   -1.9341   -0.0750    2.7857 H   0  0  0  0  0  0  0  0  0  0  0  0
  1  6  1  0  0  0  0
  1  7  1  0  0  0  0
  2  1  2  0  0  0  0
  3  2  1  0  0  0  0
  4  3  2  0  0  0  0
  4  5  1  0  0  0  0
  5 10  1  0  0  0  0
  5  6  2  0  0  0  0
  6 18  1  0  0  0  0
  8  2  1  0  0  0  0
  9  4  1  0  0  0  0
 12 11  3  0  0  0  0
 13 16  1  0  0  0  0
 13 14  1  0  0  0  0
 15 13  1  0  0  0  0
 17 13  1  0  0  0  0
 18 19  1  0  0  0  0
 19 21  1  0  0  0  0
 19 20  1  0  0  0  0
 22 19  1  0  0  0  0
M  RAD  1   3   2
M  END
