Coordinates from ORCA-job 4-MeO-Ph-N2-BF4-B3LYPG-6-31G_dp-MTMO-d009-169-n800
 OpenBabel09051908083D

 22 20  0  0  0  0  0  0  0  0999 V2000
   -1.1247    0.8392    0.2683 C   0  0  0  0  0  0  0  0  0  0  0  0
   -0.5382    0.7922   -1.0558 C   0  0  0  0  0  0  0  0  0  0  0  0
   -1.5083    1.2404   -1.7996 C   0  0  0  0  0  0  0  0  0  0  0  0
   -2.7684    1.7128   -1.8643 C   0  0  0  0  0  0  0  0  0  0  0  0
   -3.2545    1.7302   -0.5427 C   0  0  0  0  0  0  0  0  0  0  0  0
   -2.4257    1.2945    0.5190 C   0  0  0  0  0  0  0  0  0  0  0  0
   -0.4112    0.5002    1.0247 H   0  0  0  0  0  0  0  0  0  0  0  0
    0.5362    0.4493   -1.1427 H   0  0  0  0  0  0  0  0  0  0  0  0
   -3.3273    2.0229   -2.7358 H   0  0  0  0  0  0  0  0  0  0  0  0
   -4.2633    2.0791   -0.3493 H   0  0  0  0  0  0  0  0  0  0  0  0
    8.2068   -0.1672    2.8276 N   0  0  0  0  0  0  0  0  0  0  0  0
    8.0084   -1.1181    2.3004 N   0  0  0  0  0  0  0  0  0  0  0  0
    2.1755    0.5636    0.5946 B   0  0  0  0  0  0  0  0  0  0  0  0
    1.3087   -0.1605    1.4571 F   0  0  0  0  0  0  0  0  0  0  0  0
    1.7413    1.8865    0.5328 F   0  0  0  0  0  0  0  0  0  0  0  0
    3.4851    0.4247    0.9553 F   0  0  0  0  0  0  0  0  0  0  0  0
    1.9818   -0.0020   -0.7465 F   0  0  0  0  0  0  0  0  0  0  0  0
   -2.9690    1.3557    1.7495 O   0  0  0  0  0  0  0  0  0  0  0  0
   -2.1504    0.9716    2.8644 C   0  0  0  0  0  0  0  0  0  0  0  0
   -2.7658    1.1387    3.7478 H   0  0  0  0  0  0  0  0  0  0  0  0
   -1.2453    1.5851    2.9164 H   0  0  0  0  0  0  0  0  0  0  0  0
   -1.8718   -0.0854    2.8000 H   0  0  0  0  0  0  0  0  0  0  0  0
  1  6  1  0  0  0  0
  1  7  1  0  0  0  0
  2  1  2  0  0  0  0
  3  2  1  0  0  0  0
  4  3  2  0  0  0  0
  4  5  1  0  0  0  0
  5 10  1  0  0  0  0
  5  6  2  0  0  0  0
  6 18  1  0  0  0  0
  8  2  1  0  0  0  0
  9  4  1  0  0  0  0
 12 11  3  0  0  0  0
 13 16  1  0  0  0  0
 13 14  1  0  0  0  0
 15 13  1  0  0  0  0
 17 13  1  0  0  0  0
 18 19  1  0  0  0  0
 19 21  1  0  0  0  0
 19 20  1  0  0  0  0
 22 19  1  0  0  0  0
M  RAD  1   3   2
M  END
