Coordinates from ORCA-job 4-MeO-Ph-N2-BF4-B3LYPG-6-31G_dp-MTMO-d009-169-n800
 OpenBabel09051908083D

 22 20  0  0  0  0  0  0  0  0999 V2000
   -0.9367    0.7614    0.3006 C   0  0  0  0  0  0  0  0  0  0  0  0
   -0.3914    0.6787   -1.0393 C   0  0  0  0  0  0  0  0  0  0  0  0
   -1.3238    1.2475   -1.7482 C   0  0  0  0  0  0  0  0  0  0  0  0
   -2.5246    1.8580   -1.7698 C   0  0  0  0  0  0  0  0  0  0  0  0
   -2.9748    1.8974   -0.4360 C   0  0  0  0  0  0  0  0  0  0  0  0
   -2.1742    1.3489    0.5945 C   0  0  0  0  0  0  0  0  0  0  0  0
   -0.2491    0.3238    1.0299 H   0  0  0  0  0  0  0  0  0  0  0  0
    0.6284    0.2061   -1.1619 H   0  0  0  0  0  0  0  0  0  0  0  0
   -3.0650    2.2505   -2.6195 H   0  0  0  0  0  0  0  0  0  0  0  0
   -3.9343    2.3498   -0.2093 H   0  0  0  0  0  0  0  0  0  0  0  0
    5.8084    0.4388    2.7849 N   0  0  0  0  0  0  0  0  0  0  0  0
    6.2081    0.7153    1.7927 N   0  0  0  0  0  0  0  0  0  0  0  0
    2.3224    0.0480    0.5175 B   0  0  0  0  0  0  0  0  0  0  0  0
    1.3869   -0.5412    1.4095 F   0  0  0  0  0  0  0  0  0  0  0  0
    2.0996    1.4218    0.4779 F   0  0  0  0  0  0  0  0  0  0  0  0
    3.6084   -0.2980    0.8317 F   0  0  0  0  0  0  0  0  0  0  0  0
    1.9989   -0.4661   -0.8179 F   0  0  0  0  0  0  0  0  0  0  0  0
   -2.6797    1.4374    1.8393 O   0  0  0  0  0  0  0  0  0  0  0  0
   -1.8851    0.9342    2.9237 C   0  0  0  0  0  0  0  0  0  0  0  0
   -2.4641    1.1330    3.8249 H   0  0  0  0  0  0  0  0  0  0  0  0
   -0.9217    1.4511    2.9761 H   0  0  0  0  0  0  0  0  0  0  0  0
   -1.7168   -0.1430    2.8198 H   0  0  0  0  0  0  0  0  0  0  0  0
  1  6  1  0  0  0  0
  1  7  1  0  0  0  0
  2  1  2  0  0  0  0
  3  2  1  0  0  0  0
  4  3  2  0  0  0  0
  4  5  1  0  0  0  0
  5 10  1  0  0  0  0
  5  6  2  0  0  0  0
  6 18  1  0  0  0  0
  8  2  1  0  0  0  0
  9  4  1  0  0  0  0
 12 11  3  0  0  0  0
 13 16  1  0  0  0  0
 13 14  1  0  0  0  0
 15 13  1  0  0  0  0
 17 13  1  0  0  0  0
 18 19  1  0  0  0  0
 19 21  1  0  0  0  0
 19 20  1  0  0  0  0
 22 19  1  0  0  0  0
M  RAD  1   3   2
M  END
