Coordinates from ORCA-job 4-MeO-Ph-N2-BF4-B3LYPG-6-31G_dp-MTMO-d009-169-n800
 OpenBabel09051908083D

 22 20  0  0  0  0  0  0  0  0999 V2000
   -0.9977    0.8318    0.2721 C   0  0  0  0  0  0  0  0  0  0  0  0
   -0.4383    0.7943   -1.0639 C   0  0  0  0  0  0  0  0  0  0  0  0
   -1.4395    1.2072   -1.7881 C   0  0  0  0  0  0  0  0  0  0  0  0
   -2.7104    1.6529   -1.8246 C   0  0  0  0  0  0  0  0  0  0  0  0
   -3.1672    1.6654   -0.4924 C   0  0  0  0  0  0  0  0  0  0  0  0
   -2.3032    1.2565    0.5516 C   0  0  0  0  0  0  0  0  0  0  0  0
   -0.2614    0.5052    1.0129 H   0  0  0  0  0  0  0  0  0  0  0  0
    0.6395    0.4733   -1.1690 H   0  0  0  0  0  0  0  0  0  0  0  0
   -3.2957    1.9469   -2.6844 H   0  0  0  0  0  0  0  0  0  0  0  0
   -4.1797    1.9905   -0.2779 H   0  0  0  0  0  0  0  0  0  0  0  0
    7.1762   -0.2855    2.8354 N   0  0  0  0  0  0  0  0  0  0  0  0
    6.5140   -0.7095    2.0583 N   0  0  0  0  0  0  0  0  0  0  0  0
    2.3076    0.5904    0.5690 B   0  0  0  0  0  0  0  0  0  0  0  0
    1.4544   -0.1453    1.4371 F   0  0  0  0  0  0  0  0  0  0  0  0
    1.8627    1.9105    0.5225 F   0  0  0  0  0  0  0  0  0  0  0  0
    3.6223    0.4593    0.9187 F   0  0  0  0  0  0  0  0  0  0  0  0
    2.1036    0.0335   -0.7720 F   0  0  0  0  0  0  0  0  0  0  0  0
   -2.8178    1.3104    1.7944 O   0  0  0  0  0  0  0  0  0  0  0  0
   -1.9617    0.9554    2.8909 C   0  0  0  0  0  0  0  0  0  0  0  0
   -2.5592    1.1120    3.7883 H   0  0  0  0  0  0  0  0  0  0  0  0
   -1.0719    1.5927    2.9165 H   0  0  0  0  0  0  0  0  0  0  0  0
   -1.6567   -0.0942    2.8258 H   0  0  0  0  0  0  0  0  0  0  0  0
  1  6  1  0  0  0  0
  1  7  1  0  0  0  0
  2  1  2  0  0  0  0
  3  2  1  0  0  0  0
  4  3  2  0  0  0  0
  4  5  1  0  0  0  0
  5 10  1  0  0  0  0
  5  6  2  0  0  0  0
  6 18  1  0  0  0  0
  8  2  1  0  0  0  0
  9  4  1  0  0  0  0
 12 11  3  0  0  0  0
 13 16  1  0  0  0  0
 13 14  1  0  0  0  0
 15 13  1  0  0  0  0
 17 13  1  0  0  0  0
 18 19  1  0  0  0  0
 19 21  1  0  0  0  0
 19 20  1  0  0  0  0
 22 19  1  0  0  0  0
M  RAD  1   3   2
M  END
