Coordinates from ORCA-job 4-MeO-Ph-N2-BF4-B3LYPG-6-31G_dp-MTMO-d009-169-n800
 OpenBabel09051908083D

 22 20  0  0  0  0  0  0  0  0999 V2000
   -0.8596    0.7315    0.2791 C   0  0  0  0  0  0  0  0  0  0  0  0
   -0.3966    0.6352   -1.0901 C   0  0  0  0  0  0  0  0  0  0  0  0
   -1.3358    1.2586   -1.7418 C   0  0  0  0  0  0  0  0  0  0  0  0
   -2.4981    1.9377   -1.6903 C   0  0  0  0  0  0  0  0  0  0  0  0
   -2.8690    1.9871   -0.3326 C   0  0  0  0  0  0  0  0  0  0  0  0
   -2.0437    1.3842    0.6470 C   0  0  0  0  0  0  0  0  0  0  0  0
   -0.1622    0.2417    0.9641 H   0  0  0  0  0  0  0  0  0  0  0  0
    0.5861    0.1066   -1.2765 H   0  0  0  0  0  0  0  0  0  0  0  0
   -3.0626    2.3699   -2.5043 H   0  0  0  0  0  0  0  0  0  0  0  0
   -3.7878    2.4890   -0.0482 H   0  0  0  0  0  0  0  0  0  0  0  0
    4.7217    1.3009    2.9603 N   0  0  0  0  0  0  0  0  0  0  0  0
    5.4480    0.8492    2.2606 N   0  0  0  0  0  0  0  0  0  0  0  0
    2.3552   -0.2005    0.3017 B   0  0  0  0  0  0  0  0  0  0  0  0
    1.4294   -0.7603    1.2217 F   0  0  0  0  0  0  0  0  0  0  0  0
    2.2201    1.1856    0.3185 F   0  0  0  0  0  0  0  0  0  0  0  0
    3.6306   -0.6351    0.5352 F   0  0  0  0  0  0  0  0  0  0  0  0
    1.9315   -0.6462   -1.0309 F   0  0  0  0  0  0  0  0  0  0  0  0
   -2.4735    1.4875    1.9187 O   0  0  0  0  0  0  0  0  0  0  0  0
   -1.6480    0.9323    2.9534 C   0  0  0  0  0  0  0  0  0  0  0  0
   -2.1660    1.1505    3.8867 H   0  0  0  0  0  0  0  0  0  0  0  0
   -0.6580    1.3992    2.9574 H   0  0  0  0  0  0  0  0  0  0  0  0
   -1.5417   -0.1511    2.8315 H   0  0  0  0  0  0  0  0  0  0  0  0
  1  6  1  0  0  0  0
  1  7  1  0  0  0  0
  2  1  2  0  0  0  0
  3  4  2  0  0  0  0
  3  2  1  0  0  0  0
  4  5  1  0  0  0  0
  5 10  1  0  0  0  0
  5  6  2  0  0  0  0
  6 18  1  0  0  0  0
  8  2  1  0  0  0  0
  9  4  1  0  0  0  0
 12 11  3  0  0  0  0
 13 15  1  0  0  0  0
 13 16  1  0  0  0  0
 13 14  1  0  0  0  0
 17 13  1  0  0  0  0
 18 19  1  0  0  0  0
 19 21  1  0  0  0  0
 19 20  1  0  0  0  0
 22 19  1  0  0  0  0
M  RAD  1   3   2
M  END
