Coordinates from ORCA-job 4-MeO-Ph-N2-BF4-B3LYPG-6-31G_dp-MTMO-d009-169-n800
 OpenBabel09051908083D

 22 20  0  0  0  0  0  0  0  0999 V2000
   -1.1139    0.8373    0.2709 C   0  0  0  0  0  0  0  0  0  0  0  0
   -0.5272    0.7903   -1.0531 C   0  0  0  0  0  0  0  0  0  0  0  0
   -1.4973    1.2382   -1.7971 C   0  0  0  0  0  0  0  0  0  0  0  0
   -2.7575    1.7102   -1.8621 C   0  0  0  0  0  0  0  0  0  0  0  0
   -3.2439    1.7277   -0.5406 C   0  0  0  0  0  0  0  0  0  0  0  0
   -2.4151    1.2923    0.5213 C   0  0  0  0  0  0  0  0  0  0  0  0
   -0.4006    0.4986    1.0275 H   0  0  0  0  0  0  0  0  0  0  0  0
    0.5472    0.4477   -1.1398 H   0  0  0  0  0  0  0  0  0  0  0  0
   -3.3164    2.0201   -2.7337 H   0  0  0  0  0  0  0  0  0  0  0  0
   -4.2528    2.0764   -0.3474 H   0  0  0  0  0  0  0  0  0  0  0  0
    8.1002   -0.1493    2.8014 N   0  0  0  0  0  0  0  0  0  0  0  0
    7.9023   -1.1000    2.2735 N   0  0  0  0  0  0  0  0  0  0  0  0
    2.1863    0.5627    0.5980 B   0  0  0  0  0  0  0  0  0  0  0  0
    1.3194   -0.1614    1.4605 F   0  0  0  0  0  0  0  0  0  0  0  0
    1.7516    1.8854    0.5358 F   0  0  0  0  0  0  0  0  0  0  0  0
    3.4958    0.4243    0.9590 F   0  0  0  0  0  0  0  0  0  0  0  0
    1.9930   -0.0032   -0.7430 F   0  0  0  0  0  0  0  0  0  0  0  0
   -2.9587    1.3535    1.7517 O   0  0  0  0  0  0  0  0  0  0  0  0
   -2.1402    0.9697    2.8668 C   0  0  0  0  0  0  0  0  0  0  0  0
   -2.7557    1.1367    3.7501 H   0  0  0  0  0  0  0  0  0  0  0  0
   -1.2352    1.5833    2.9189 H   0  0  0  0  0  0  0  0  0  0  0  0
   -1.8614   -0.0873    2.8026 H   0  0  0  0  0  0  0  0  0  0  0  0
  1  6  1  0  0  0  0
  1  7  1  0  0  0  0
  2  1  2  0  0  0  0
  3  2  1  0  0  0  0
  4  3  2  0  0  0  0
  4  5  1  0  0  0  0
  5 10  1  0  0  0  0
  5  6  2  0  0  0  0
  6 18  1  0  0  0  0
  8  2  1  0  0  0  0
  9  4  1  0  0  0  0
 12 11  3  0  0  0  0
 13 16  1  0  0  0  0
 13 14  1  0  0  0  0
 15 13  1  0  0  0  0
 17 13  1  0  0  0  0
 18 19  1  0  0  0  0
 19 21  1  0  0  0  0
 19 20  1  0  0  0  0
 22 19  1  0  0  0  0
M  RAD  1   3   2
M  END
