Coordinates from ORCA-job 4-MeO-Ph-N2-BF4-B3LYPG-6-31G_dp-MTMO-d009-169-n800
 OpenBabel09051908083D

 22 20  0  0  0  0  0  0  0  0999 V2000
   -1.5649    0.9261    0.1644 C   0  0  0  0  0  0  0  0  0  0  0  0
   -0.9815    0.8813   -1.1611 C   0  0  0  0  0  0  0  0  0  0  0  0
   -1.9598    1.3116   -1.9046 C   0  0  0  0  0  0  0  0  0  0  0  0
   -3.2271    1.7647   -1.9685 C   0  0  0  0  0  0  0  0  0  0  0  0
   -3.7098    1.7815   -0.6456 C   0  0  0  0  0  0  0  0  0  0  0  0
   -2.8719    1.3635    0.4161 C   0  0  0  0  0  0  0  0  0  0  0  0
   -0.8447    0.6020    0.9207 H   0  0  0  0  0  0  0  0  0  0  0  0
    0.0984    0.5550   -1.2498 H   0  0  0  0  0  0  0  0  0  0  0  0
   -3.7929    2.0618   -2.8400 H   0  0  0  0  0  0  0  0  0  0  0  0
   -4.7231    2.1165   -0.4513 H   0  0  0  0  0  0  0  0  0  0  0  0
   12.6451   -1.0933    3.8994 N   0  0  0  0  0  0  0  0  0  0  0  0
   12.4140   -2.0329    3.3651 N   0  0  0  0  0  0  0  0  0  0  0  0
    1.7414    0.7072    0.4778 B   0  0  0  0  0  0  0  0  0  0  0  0
    0.8907   -0.0281    1.3466 F   0  0  0  0  0  0  0  0  0  0  0  0
    1.2840    2.0220    0.4117 F   0  0  0  0  0  0  0  0  0  0  0  0
    3.0547    0.5924    0.8320 F   0  0  0  0  0  0  0  0  0  0  0  0
    1.5512    0.1323   -0.8607 F   0  0  0  0  0  0  0  0  0  0  0  0
   -3.4131    1.4232    1.6477 O   0  0  0  0  0  0  0  0  0  0  0  0
   -2.5863    1.0575    2.7625 C   0  0  0  0  0  0  0  0  0  0  0  0
   -3.2018    1.2206    3.6466 H   0  0  0  0  0  0  0  0  0  0  0  0
   -1.6900    1.6843    2.8089 H   0  0  0  0  0  0  0  0  0  0  0  0
   -2.2925    0.0042    2.7035 H   0  0  0  0  0  0  0  0  0  0  0  0
  1  6  1  0  0  0  0
  1  7  1  0  0  0  0
  2  1  2  0  0  0  0
  3  2  1  0  0  0  0
  4  3  2  0  0  0  0
  4  5  1  0  0  0  0
  5 10  1  0  0  0  0
  5  6  2  0  0  0  0
  6 18  1  0  0  0  0
  8  2  1  0  0  0  0
  9  4  1  0  0  0  0
 12 11  3  0  0  0  0
 13 16  1  0  0  0  0
 13 14  1  0  0  0  0
 15 13  1  0  0  0  0
 17 13  1  0  0  0  0
 18 19  1  0  0  0  0
 19 21  1  0  0  0  0
 19 20  1  0  0  0  0
 22 19  1  0  0  0  0
M  RAD  1   3   2
M  END
