Coordinates from ORCA-job 4-MeO-Ph-N2-BF4-B3LYPG-6-31G_dp-MTMO-d009-169-n800
 OpenBabel09051908083D

 22 20  0  0  0  0  0  0  0  0999 V2000
   -0.9659    0.7825    0.3095 C   0  0  0  0  0  0  0  0  0  0  0  0
   -0.3729    0.7090   -1.0107 C   0  0  0  0  0  0  0  0  0  0  0  0
   -1.3085    1.2279   -1.7540 C   0  0  0  0  0  0  0  0  0  0  0  0
   -2.5373    1.7766   -1.8201 C   0  0  0  0  0  0  0  0  0  0  0  0
   -3.0318    1.8109   -0.5020 C   0  0  0  0  0  0  0  0  0  0  0  0
   -2.2383    1.3128    0.5590 C   0  0  0  0  0  0  0  0  0  0  0  0
   -0.2767    0.3954    1.0670 H   0  0  0  0  0  0  0  0  0  0  0  0
    0.6711    0.2917   -1.0893 H   0  0  0  0  0  0  0  0  0  0  0  0
   -3.0688    2.1301   -2.6922 H   0  0  0  0  0  0  0  0  0  0  0  0
   -4.0183    2.2198   -0.3114 H   0  0  0  0  0  0  0  0  0  0  0  0
    6.4576   -0.2207    2.4523 N   0  0  0  0  0  0  0  0  0  0  0  0
    6.4134    0.4917    1.6086 N   0  0  0  0  0  0  0  0  0  0  0  0
    2.3047    0.2865    0.6821 B   0  0  0  0  0  0  0  0  0  0  0  0
    1.3749   -0.3213    1.5711 F   0  0  0  0  0  0  0  0  0  0  0  0
    1.9938    1.6396    0.5691 F   0  0  0  0  0  0  0  0  0  0  0  0
    3.5965    0.0436    1.0632 F   0  0  0  0  0  0  0  0  0  0  0  0
    2.0683   -0.3085   -0.6338 F   0  0  0  0  0  0  0  0  0  0  0  0
   -2.7836    1.3910    1.7873 O   0  0  0  0  0  0  0  0  0  0  0  0
   -2.0002    0.9315    2.8994 C   0  0  0  0  0  0  0  0  0  0  0  0
   -2.6104    1.1200    3.7822 H   0  0  0  0  0  0  0  0  0  0  0  0
   -1.0577    1.4833    2.9700 H   0  0  0  0  0  0  0  0  0  0  0  0
   -1.7901   -0.1399    2.8140 H   0  0  0  0  0  0  0  0  0  0  0  0
  1  6  1  0  0  0  0
  1  7  1  0  0  0  0
  2  1  2  0  0  0  0
  3  2  1  0  0  0  0
  4  3  2  0  0  0  0
  4  5  1  0  0  0  0
  5 10  1  0  0  0  0
  5  6  2  0  0  0  0
  6 18  1  0  0  0  0
  8  2  1  0  0  0  0
  9  4  1  0  0  0  0
 12 11  3  0  0  0  0
 13 16  1  0  0  0  0
 13 14  1  0  0  0  0
 15 13  1  0  0  0  0
 17 13  1  0  0  0  0
 18 19  1  0  0  0  0
 19 21  1  0  0  0  0
 19 20  1  0  0  0  0
 22 19  1  0  0  0  0
M  RAD  1   3   2
M  END
