Coordinates from ORCA-job 4-MeO-Ph-N2-BF4-B3LYPG-6-31G_dp-MTMO-d009-169-n800
 OpenBabel09051908083D

 22 20  0  0  0  0  0  0  0  0999 V2000
   -0.8222    0.7115    0.2837 C   0  0  0  0  0  0  0  0  0  0  0  0
   -0.3617    0.6292   -1.0872 C   0  0  0  0  0  0  0  0  0  0  0  0
   -1.2817    1.2948   -1.7250 C   0  0  0  0  0  0  0  0  0  0  0  0
   -2.4168    2.0172   -1.6566 C   0  0  0  0  0  0  0  0  0  0  0  0
   -2.7853    2.0512   -0.2978 C   0  0  0  0  0  0  0  0  0  0  0  0
   -1.9814    1.3988    0.6675 C   0  0  0  0  0  0  0  0  0  0  0  0
   -0.1445    0.1792    0.9571 H   0  0  0  0  0  0  0  0  0  0  0  0
    0.6015    0.0725   -1.2837 H   0  0  0  0  0  0  0  0  0  0  0  0
   -2.9652    2.4870   -2.4607 H   0  0  0  0  0  0  0  0  0  0  0  0
   -3.6856    2.5794   -0.0019 H   0  0  0  0  0  0  0  0  0  0  0  0
    4.2567    1.6890    2.6480 N   0  0  0  0  0  0  0  0  0  0  0  0
    5.0871    1.0541    2.2897 N   0  0  0  0  0  0  0  0  0  0  0  0
    2.3484   -0.3383    0.3095 B   0  0  0  0  0  0  0  0  0  0  0  0
    1.3974   -0.8938    1.2065 F   0  0  0  0  0  0  0  0  0  0  0  0
    2.2547    1.0520    0.3661 F   0  0  0  0  0  0  0  0  0  0  0  0
    3.6088   -0.8136    0.5444 F   0  0  0  0  0  0  0  0  0  0  0  0
    1.9264   -0.7324   -1.0377 F   0  0  0  0  0  0  0  0  0  0  0  0
   -2.4049    1.4908    1.9419 O   0  0  0  0  0  0  0  0  0  0  0  0
   -1.5948    0.8894    2.9631 C   0  0  0  0  0  0  0  0  0  0  0  0
   -2.1010    1.1092    3.9024 H   0  0  0  0  0  0  0  0  0  0  0  0
   -0.5891    1.3213    2.9700 H   0  0  0  0  0  0  0  0  0  0  0  0
   -1.5269   -0.1948    2.8219 H   0  0  0  0  0  0  0  0  0  0  0  0
  1  6  1  0  0  0  0
  1  7  1  0  0  0  0
  2  1  2  0  0  0  0
  3  4  2  0  0  0  0
  3  2  1  0  0  0  0
  4  5  1  0  0  0  0
  5 10  1  0  0  0  0
  5  6  2  0  0  0  0
  6 18  1  0  0  0  0
  8  2  1  0  0  0  0
  9  4  1  0  0  0  0
 12 11  3  0  0  0  0
 13 15  1  0  0  0  0
 13 16  1  0  0  0  0
 13 14  1  0  0  0  0
 17 13  1  0  0  0  0
 18 19  1  0  0  0  0
 19 21  1  0  0  0  0
 19 20  1  0  0  0  0
 22 19  1  0  0  0  0
M  RAD  1   3   2
M  END
