Coordinates from ORCA-job 4-MeO-Ph-N2-BF4-B3LYPG-6-31G_dp-MTMO-d009-169-n800
 OpenBabel09051908083D

 22 20  0  0  0  0  0  0  0  0999 V2000
   -0.8405    0.7303    0.2831 C   0  0  0  0  0  0  0  0  0  0  0  0
   -0.3706    0.6509   -1.0849 C   0  0  0  0  0  0  0  0  0  0  0  0
   -1.3042    1.2872   -1.7330 C   0  0  0  0  0  0  0  0  0  0  0  0
   -2.4561    1.9834   -1.6754 C   0  0  0  0  0  0  0  0  0  0  0  0
   -2.8330    2.0170   -0.3188 C   0  0  0  0  0  0  0  0  0  0  0  0
   -2.0187    1.3912    0.6554 C   0  0  0  0  0  0  0  0  0  0  0  0
   -0.1564    0.2147    0.9627 H   0  0  0  0  0  0  0  0  0  0  0  0
    0.6062    0.1126   -1.2725 H   0  0  0  0  0  0  0  0  0  0  0  0
   -3.0108    2.4355   -2.4853 H   0  0  0  0  0  0  0  0  0  0  0  0
   -3.7477    2.5247   -0.0313 H   0  0  0  0  0  0  0  0  0  0  0  0
    4.5331    1.5743    2.7210 N   0  0  0  0  0  0  0  0  0  0  0  0
    5.2940    0.9199    2.2585 N   0  0  0  0  0  0  0  0  0  0  0  0
    2.3502   -0.2866    0.3284 B   0  0  0  0  0  0  0  0  0  0  0  0
    1.3911   -0.8521    1.2100 F   0  0  0  0  0  0  0  0  0  0  0  0
    2.2588    1.1015    0.4004 F   0  0  0  0  0  0  0  0  0  0  0  0
    3.6074   -0.7698    0.5660 F   0  0  0  0  0  0  0  0  0  0  0  0
    1.9388   -0.6660   -1.0280 F   0  0  0  0  0  0  0  0  0  0  0  0
   -2.4527    1.4804    1.9266 O   0  0  0  0  0  0  0  0  0  0  0  0
   -1.6353    0.9046    2.9566 C   0  0  0  0  0  0  0  0  0  0  0  0
   -2.1551    1.1140    3.8909 H   0  0  0  0  0  0  0  0  0  0  0  0
   -0.6418    1.3637    2.9703 H   0  0  0  0  0  0  0  0  0  0  0  0
   -1.5369   -0.1778    2.8203 H   0  0  0  0  0  0  0  0  0  0  0  0
  1  6  1  0  0  0  0
  1  7  1  0  0  0  0
  2  1  2  0  0  0  0
  3  4  2  0  0  0  0
  3  2  1  0  0  0  0
  4  5  1  0  0  0  0
  5 10  1  0  0  0  0
  5  6  2  0  0  0  0
  6 18  1  0  0  0  0
  8  2  1  0  0  0  0
  9  4  1  0  0  0  0
 12 11  3  0  0  0  0
 13 15  1  0  0  0  0
 13 16  1  0  0  0  0
 13 14  1  0  0  0  0
 17 13  1  0  0  0  0
 18 19  1  0  0  0  0
 19 21  1  0  0  0  0
 19 20  1  0  0  0  0
 22 19  1  0  0  0  0
M  RAD  1   3   2
M  END
