Coordinates from ORCA-job 4-MeO-Ph-N2-BF4-B3LYPG-6-31G_dp-MTMO-d009-169-n800
 OpenBabel09051908083D

 22 20  0  0  0  0  0  0  0  0999 V2000
   -0.6981    0.6572    0.5207 C   0  0  0  0  0  0  0  0  0  0  0  0
    0.1853    0.7774   -0.6212 C   0  0  0  0  0  0  0  0  0  0  0  0
   -0.4467    1.6402   -1.3642 C   0  0  0  0  0  0  0  0  0  0  0  0
   -1.5248    2.4331   -1.5204 C   0  0  0  0  0  0  0  0  0  0  0  0
   -2.3197    2.2571   -0.3714 C   0  0  0  0  0  0  0  0  0  0  0  0
   -1.8983    1.3688    0.6467 C   0  0  0  0  0  0  0  0  0  0  0  0
   -0.2802   -0.0288    1.2642 H   0  0  0  0  0  0  0  0  0  0  0  0
    1.1464    0.1880   -0.6088 H   0  0  0  0  0  0  0  0  0  0  0  0
   -1.7656    3.0843   -2.3490 H   0  0  0  0  0  0  0  0  0  0  0  0
   -3.2506    2.8059   -0.2766 H   0  0  0  0  0  0  0  0  0  0  0  0
    3.4592    2.0658   -0.8407 N   0  0  0  0  0  0  0  0  0  0  0  0
    4.4727    2.1817   -0.4165 N   0  0  0  0  0  0  0  0  0  0  0  0
    2.3233   -0.5286    1.3573 B   0  0  0  0  0  0  0  0  0  0  0  0
    1.1306   -1.1227    1.8525 F   0  0  0  0  0  0  0  0  0  0  0  0
    2.2519    0.8510    1.5557 F   0  0  0  0  0  0  0  0  0  0  0  0
    3.4389   -1.1064    1.8923 F   0  0  0  0  0  0  0  0  0  0  0  0
    2.3175   -0.7368   -0.0937 F   0  0  0  0  0  0  0  0  0  0  0  0
   -2.7149    1.2705    1.7129 O   0  0  0  0  0  0  0  0  0  0  0  0
   -2.3147    0.4076    2.7868 C   0  0  0  0  0  0  0  0  0  0  0  0
   -3.0876    0.5118    3.5480 H   0  0  0  0  0  0  0  0  0  0  0  0
   -1.3446    0.7103    3.1943 H   0  0  0  0  0  0  0  0  0  0  0  0
   -2.2601   -0.6340    2.4524 H   0  0  0  0  0  0  0  0  0  0  0  0
  1  6  1  0  0  0  0
  1  7  1  0  0  0  0
  2  8  1  0  0  0  0
  2  1  2  0  0  0  0
  3  2  1  0  0  0  0
  4  3  2  0  0  0  0
  4  5  1  0  0  0  0
  5 10  1  0  0  0  0
  5  6  2  0  0  0  0
  6 18  1  0  0  0  0
  9  4  1  0  0  0  0
 11 12  3  0  0  0  0
 13 15  1  0  0  0  0
 13 14  1  0  0  0  0
 13 16  1  0  0  0  0
 17 13  1  0  0  0  0
 18 19  1  0  0  0  0
 19 21  1  0  0  0  0
 19 20  1  0  0  0  0
 22 19  1  0  0  0  0
M  RAD  1   3   2
M  END
