Coordinates from ORCA-job 4-MeO-Ph-N2-BF4-B3LYPG-6-31G_dp-MTMO-d009-169-n800
 OpenBabel09051908083D

 22 20  0  0  0  0  0  0  0  0999 V2000
   -0.8504    0.7004    0.3856 C   0  0  0  0  0  0  0  0  0  0  0  0
   -0.1920    0.7524   -0.9034 C   0  0  0  0  0  0  0  0  0  0  0  0
   -1.0048    1.4975   -1.5960 C   0  0  0  0  0  0  0  0  0  0  0  0
   -2.1357    2.2291   -1.6212 C   0  0  0  0  0  0  0  0  0  0  0  0
   -2.7014    2.1294   -0.3352 C   0  0  0  0  0  0  0  0  0  0  0  0
   -2.0513    1.3666    0.6644 C   0  0  0  0  0  0  0  0  0  0  0  0
   -0.2827    0.0891    1.0924 H   0  0  0  0  0  0  0  0  0  0  0  0
    0.7895    0.2034   -1.0168 H   0  0  0  0  0  0  0  0  0  0  0  0
   -2.5584    2.7878   -2.4442 H   0  0  0  0  0  0  0  0  0  0  0  0
   -3.6343    2.6402   -0.1219 H   0  0  0  0  0  0  0  0  0  0  0  0
    4.9449    2.1000    0.9177 N   0  0  0  0  0  0  0  0  0  0  0  0
    5.5199    1.2535    1.3346 N   0  0  0  0  0  0  0  0  0  0  0  0
    2.2825   -0.3975    0.7506 B   0  0  0  0  0  0  0  0  0  0  0  0
    1.2122   -1.0419    1.4244 F   0  0  0  0  0  0  0  0  0  0  0  0
    2.1701    0.9792    0.9468 F   0  0  0  0  0  0  0  0  0  0  0  0
    3.4977   -0.9056    1.1162 F   0  0  0  0  0  0  0  0  0  0  0  0
    2.0703   -0.6333   -0.6812 F   0  0  0  0  0  0  0  0  0  0  0  0
   -2.6590    1.3360    1.8652 O   0  0  0  0  0  0  0  0  0  0  0  0
   -2.0101    0.6220    2.9279 C   0  0  0  0  0  0  0  0  0  0  0  0
   -2.6476    0.7570    3.8010 H   0  0  0  0  0  0  0  0  0  0  0  0
   -1.0142    1.0322    3.1245 H   0  0  0  0  0  0  0  0  0  0  0  0
   -1.9256   -0.4438    2.6901 H   0  0  0  0  0  0  0  0  0  0  0  0
  1  6  1  0  0  0  0
  1  7  1  0  0  0  0
  2  1  2  0  0  0  0
  3  2  1  0  0  0  0
  4  3  2  0  0  0  0
  4  5  1  0  0  0  0
  5 10  1  0  0  0  0
  5  6  2  0  0  0  0
  6 18  1  0  0  0  0
  8  2  1  0  0  0  0
  9  4  1  0  0  0  0
 11 12  3  0  0  0  0
 13 15  1  0  0  0  0
 13 16  1  0  0  0  0
 13 14  1  0  0  0  0
 17 13  1  0  0  0  0
 18 19  1  0  0  0  0
 19 21  1  0  0  0  0
 19 20  1  0  0  0  0
 22 19  1  0  0  0  0
M  RAD  1   3   2
M  END
