Coordinates from ORCA-job 4-MeO-Ph-N2-BF4-B3LYPG-6-31G_dp-MTMO-d009-169-n800
 OpenBabel09051908083D

 22 20  0  0  0  0  0  0  0  0999 V2000
   -1.0764    0.8300    0.2798 C   0  0  0  0  0  0  0  0  0  0  0  0
   -0.4888    0.7828   -1.0438 C   0  0  0  0  0  0  0  0  0  0  0  0
   -1.4587    1.2300   -1.7885 C   0  0  0  0  0  0  0  0  0  0  0  0
   -2.7190    1.7016   -1.8544 C   0  0  0  0  0  0  0  0  0  0  0  0
   -3.2062    1.7194   -0.5331 C   0  0  0  0  0  0  0  0  0  0  0  0
   -2.3779    1.2846    0.5294 C   0  0  0  0  0  0  0  0  0  0  0  0
   -0.3633    0.4918    1.0369 H   0  0  0  0  0  0  0  0  0  0  0  0
    0.5858    0.4408   -1.1296 H   0  0  0  0  0  0  0  0  0  0  0  0
   -3.2774    2.0111   -2.7264 H   0  0  0  0  0  0  0  0  0  0  0  0
   -4.2153    2.0678   -0.3407 H   0  0  0  0  0  0  0  0  0  0  0  0
    7.7260   -0.0867    2.7105 N   0  0  0  0  0  0  0  0  0  0  0  0
    7.5277   -1.0337    2.1762 N   0  0  0  0  0  0  0  0  0  0  0  0
    2.2237    0.5596    0.6105 B   0  0  0  0  0  0  0  0  0  0  0  0
    1.3568   -0.1648    1.4727 F   0  0  0  0  0  0  0  0  0  0  0  0
    1.7878    1.8819    0.5471 F   0  0  0  0  0  0  0  0  0  0  0  0
    3.5331    0.4229    0.9734 F   0  0  0  0  0  0  0  0  0  0  0  0
    2.0327   -0.0074   -0.7301 F   0  0  0  0  0  0  0  0  0  0  0  0
   -2.9221    1.3461    1.7595 O   0  0  0  0  0  0  0  0  0  0  0  0
   -2.1041    0.9629    2.8751 C   0  0  0  0  0  0  0  0  0  0  0  0
   -2.7201    1.1303    3.7580 H   0  0  0  0  0  0  0  0  0  0  0  0
   -1.1992    1.5767    2.9273 H   0  0  0  0  0  0  0  0  0  0  0  0
   -1.8251   -0.0941    2.8115 H   0  0  0  0  0  0  0  0  0  0  0  0
  1  6  1  0  0  0  0
  1  7  1  0  0  0  0
  2  1  2  0  0  0  0
  3  2  1  0  0  0  0
  4  3  2  0  0  0  0
  4  5  1  0  0  0  0
  5 10  1  0  0  0  0
  5  6  2  0  0  0  0
  6 18  1  0  0  0  0
  8  2  1  0  0  0  0
  9  4  1  0  0  0  0
 12 11  3  0  0  0  0
 13 16  1  0  0  0  0
 13 14  1  0  0  0  0
 15 13  1  0  0  0  0
 17 13  1  0  0  0  0
 18 19  1  0  0  0  0
 19 21  1  0  0  0  0
 19 20  1  0  0  0  0
 22 19  1  0  0  0  0
M  RAD  1   3   2
M  END
