Coordinates from ORCA-job 4-MeO-Ph-N2-BF4-B3LYPG-6-31G_dp-MTMO-d009-169-n800
 OpenBabel09051908083D

 22 20  0  0  0  0  0  0  0  0999 V2000
   -1.1265    0.8395    0.2680 C   0  0  0  0  0  0  0  0  0  0  0  0
   -0.5399    0.7925   -1.0561 C   0  0  0  0  0  0  0  0  0  0  0  0
   -1.5099    1.2408   -1.7999 C   0  0  0  0  0  0  0  0  0  0  0  0
   -2.7700    1.7133   -1.8647 C   0  0  0  0  0  0  0  0  0  0  0  0
   -3.2562    1.7308   -0.5431 C   0  0  0  0  0  0  0  0  0  0  0  0
   -2.4275    1.2949    0.5186 C   0  0  0  0  0  0  0  0  0  0  0  0
   -0.4131    0.5005    1.0244 H   0  0  0  0  0  0  0  0  0  0  0  0
    0.5344    0.4495   -1.1430 H   0  0  0  0  0  0  0  0  0  0  0  0
   -3.3288    2.0235   -2.7362 H   0  0  0  0  0  0  0  0  0  0  0  0
   -4.2650    2.0798   -0.3498 H   0  0  0  0  0  0  0  0  0  0  0  0
    8.2253   -0.1698    2.8311 N   0  0  0  0  0  0  0  0  0  0  0  0
    8.0263   -1.1212    2.3050 N   0  0  0  0  0  0  0  0  0  0  0  0
    2.1737    0.5636    0.5942 B   0  0  0  0  0  0  0  0  0  0  0  0
    1.3069   -0.1604    1.4567 F   0  0  0  0  0  0  0  0  0  0  0  0
    1.7394    1.8865    0.5323 F   0  0  0  0  0  0  0  0  0  0  0  0
    3.4833    0.4247    0.9547 F   0  0  0  0  0  0  0  0  0  0  0  0
    1.9799   -0.0021   -0.7469 F   0  0  0  0  0  0  0  0  0  0  0  0
   -2.9709    1.3562    1.7491 O   0  0  0  0  0  0  0  0  0  0  0  0
   -2.1524    0.9719    2.8640 C   0  0  0  0  0  0  0  0  0  0  0  0
   -2.7678    1.1390    3.7474 H   0  0  0  0  0  0  0  0  0  0  0  0
   -1.2473    1.5853    2.9161 H   0  0  0  0  0  0  0  0  0  0  0  0
   -1.8739   -0.0851    2.7996 H   0  0  0  0  0  0  0  0  0  0  0  0
  1  6  1  0  0  0  0
  1  7  1  0  0  0  0
  2  1  2  0  0  0  0
  3  2  1  0  0  0  0
  4  3  2  0  0  0  0
  4  5  1  0  0  0  0
  5 10  1  0  0  0  0
  5  6  2  0  0  0  0
  6 18  1  0  0  0  0
  8  2  1  0  0  0  0
  9  4  1  0  0  0  0
 12 11  3  0  0  0  0
 13 16  1  0  0  0  0
 13 14  1  0  0  0  0
 15 13  1  0  0  0  0
 17 13  1  0  0  0  0
 18 19  1  0  0  0  0
 19 21  1  0  0  0  0
 19 20  1  0  0  0  0
 22 19  1  0  0  0  0
M  RAD  1   3   2
M  END
