Coordinates from ORCA-job 4-MeO-Ph-N2-BF4-B3LYPG-6-31G_dp-MTMO-d009-169-n800
 OpenBabel09051908083D

 22 20  0  0  0  0  0  0  0  0999 V2000
   -1.6073    0.9341    0.1543 C   0  0  0  0  0  0  0  0  0  0  0  0
   -1.0244    0.8891   -1.1714 C   0  0  0  0  0  0  0  0  0  0  0  0
   -2.0024    1.3205   -1.9144 C   0  0  0  0  0  0  0  0  0  0  0  0
   -3.2693    1.7748   -1.9778 C   0  0  0  0  0  0  0  0  0  0  0  0
   -3.7516    1.7919   -0.6548 C   0  0  0  0  0  0  0  0  0  0  0  0
   -2.9137    1.3727    0.4065 C   0  0  0  0  0  0  0  0  0  0  0  0
   -0.8871    0.6091    0.9103 H   0  0  0  0  0  0  0  0  0  0  0  0
    0.0552    0.5617   -1.2605 H   0  0  0  0  0  0  0  0  0  0  0  0
   -3.8352    2.0728   -2.8491 H   0  0  0  0  0  0  0  0  0  0  0  0
   -4.7645    2.1278   -0.4600 H   0  0  0  0  0  0  0  0  0  0  0  0
   13.0666   -1.1710    4.0016 N   0  0  0  0  0  0  0  0  0  0  0  0
   12.8344   -2.1097    3.4662 N   0  0  0  0  0  0  0  0  0  0  0  0
    1.6989    0.7116    0.4663 B   0  0  0  0  0  0  0  0  0  0  0  0
    0.8479   -0.0231    1.3352 F   0  0  0  0  0  0  0  0  0  0  0  0
    1.2430    2.0269    0.4009 F   0  0  0  0  0  0  0  0  0  0  0  0
    3.0123    0.5953    0.8199 F   0  0  0  0  0  0  0  0  0  0  0  0
    1.5076    0.1372   -0.8723 F   0  0  0  0  0  0  0  0  0  0  0  0
   -3.4545    1.4327    1.6383 O   0  0  0  0  0  0  0  0  0  0  0  0
   -2.6277    1.0658    2.7528 C   0  0  0  0  0  0  0  0  0  0  0  0
   -3.2427    1.2292    3.6371 H   0  0  0  0  0  0  0  0  0  0  0  0
   -1.7308    1.6918    2.7991 H   0  0  0  0  0  0  0  0  0  0  0  0
   -2.3349    0.0123    2.6933 H   0  0  0  0  0  0  0  0  0  0  0  0
  1  6  1  0  0  0  0
  1  7  1  0  0  0  0
  2  1  2  0  0  0  0
  3  2  1  0  0  0  0
  4  3  2  0  0  0  0
  4  5  1  0  0  0  0
  5 10  1  0  0  0  0
  5  6  2  0  0  0  0
  6 18  1  0  0  0  0
  8  2  1  0  0  0  0
  9  4  1  0  0  0  0
 12 11  3  0  0  0  0
 13 16  1  0  0  0  0
 13 14  1  0  0  0  0
 15 13  1  0  0  0  0
 17 13  1  0  0  0  0
 18 19  1  0  0  0  0
 19 21  1  0  0  0  0
 19 20  1  0  0  0  0
 22 19  1  0  0  0  0
M  RAD  1   3   2
M  END
