Coordinates from ORCA-job 4-MeO-Ph-N2-BF4-B3LYPG-6-31G_dp-MTMO-d009-169-n800
 OpenBabel09051908083D

 22 20  0  0  0  0  0  0  0  0999 V2000
   -1.1157    0.8376    0.2705 C   0  0  0  0  0  0  0  0  0  0  0  0
   -0.5290    0.7906   -1.0535 C   0  0  0  0  0  0  0  0  0  0  0  0
   -1.4991    1.2385   -1.7975 C   0  0  0  0  0  0  0  0  0  0  0  0
   -2.7593    1.7107   -1.8625 C   0  0  0  0  0  0  0  0  0  0  0  0
   -3.2457    1.7282   -0.5409 C   0  0  0  0  0  0  0  0  0  0  0  0
   -2.4169    1.2927    0.5209 C   0  0  0  0  0  0  0  0  0  0  0  0
   -0.4023    0.4989    1.0270 H   0  0  0  0  0  0  0  0  0  0  0  0
    0.5454    0.4479   -1.1403 H   0  0  0  0  0  0  0  0  0  0  0  0
   -3.3182    2.0206   -2.7341 H   0  0  0  0  0  0  0  0  0  0  0  0
   -4.2545    2.0769   -0.3478 H   0  0  0  0  0  0  0  0  0  0  0  0
    8.1180   -0.1522    2.8057 N   0  0  0  0  0  0  0  0  0  0  0  0
    7.9200   -1.1030    2.2780 N   0  0  0  0  0  0  0  0  0  0  0  0
    2.1845    0.5628    0.5975 B   0  0  0  0  0  0  0  0  0  0  0  0
    1.3176   -0.1613    1.4600 F   0  0  0  0  0  0  0  0  0  0  0  0
    1.7499    1.8856    0.5353 F   0  0  0  0  0  0  0  0  0  0  0  0
    3.4940    0.4244    0.9584 F   0  0  0  0  0  0  0  0  0  0  0  0
    1.9911   -0.0031   -0.7435 F   0  0  0  0  0  0  0  0  0  0  0  0
   -2.9604    1.3539    1.7514 O   0  0  0  0  0  0  0  0  0  0  0  0
   -2.1419    0.9700    2.8664 C   0  0  0  0  0  0  0  0  0  0  0  0
   -2.7575    1.1371    3.7497 H   0  0  0  0  0  0  0  0  0  0  0  0
   -1.2369    1.5836    2.9185 H   0  0  0  0  0  0  0  0  0  0  0  0
   -1.8632   -0.0870    2.8021 H   0  0  0  0  0  0  0  0  0  0  0  0
  1  6  1  0  0  0  0
  1  7  1  0  0  0  0
  2  1  2  0  0  0  0
  3  2  1  0  0  0  0
  4  3  2  0  0  0  0
  4  5  1  0  0  0  0
  5 10  1  0  0  0  0
  5  6  2  0  0  0  0
  6 18  1  0  0  0  0
  8  2  1  0  0  0  0
  9  4  1  0  0  0  0
 12 11  3  0  0  0  0
 13 16  1  0  0  0  0
 13 14  1  0  0  0  0
 15 13  1  0  0  0  0
 17 13  1  0  0  0  0
 18 19  1  0  0  0  0
 19 21  1  0  0  0  0
 19 20  1  0  0  0  0
 22 19  1  0  0  0  0
M  RAD  1   3   2
M  END
