Coordinates from ORCA-job 4-MeO-Ph-N2-BF4-B3LYPG-6-31G_dp-MTMO-d009-169-n800
 OpenBabel09051908083D

 22 20  0  0  0  0  0  0  0  0999 V2000
   -1.2522    0.8677    0.2385 C   0  0  0  0  0  0  0  0  0  0  0  0
   -0.6668    0.8244   -1.0861 C   0  0  0  0  0  0  0  0  0  0  0  0
   -1.6460    1.2498   -1.8311 C   0  0  0  0  0  0  0  0  0  0  0  0
   -2.9151    1.6976   -1.8970 C   0  0  0  0  0  0  0  0  0  0  0  0
   -3.3996    1.7135   -0.5748 C   0  0  0  0  0  0  0  0  0  0  0  0
   -2.5613    1.2998    0.4883 C   0  0  0  0  0  0  0  0  0  0  0  0
   -0.5316    0.5469    0.9960 H   0  0  0  0  0  0  0  0  0  0  0  0
    0.4144    0.5025   -1.1732 H   0  0  0  0  0  0  0  0  0  0  0  0
   -3.4811    1.9918   -2.7694 H   0  0  0  0  0  0  0  0  0  0  0  0
   -4.4145    2.0444   -0.3819 H   0  0  0  0  0  0  0  0  0  0  0  0
    9.5213   -0.5115    3.1505 N   0  0  0  0  0  0  0  0  0  0  0  0
    9.3027   -1.4558    2.6193 N   0  0  0  0  0  0  0  0  0  0  0  0
    2.0543    0.6617    0.5580 B   0  0  0  0  0  0  0  0  0  0  0  0
    1.2046   -0.0760    1.4258 F   0  0  0  0  0  0  0  0  0  0  0  0
    1.5924    1.9748    0.4903 F   0  0  0  0  0  0  0  0  0  0  0  0
    3.3673    0.5519    0.9156 F   0  0  0  0  0  0  0  0  0  0  0  0
    1.8690    0.0852   -0.7801 F   0  0  0  0  0  0  0  0  0  0  0  0
   -3.1042    1.3581    1.7192 O   0  0  0  0  0  0  0  0  0  0  0  0
   -2.2771    0.9967    2.8353 C   0  0  0  0  0  0  0  0  0  0  0  0
   -2.8943    1.1582    3.7185 H   0  0  0  0  0  0  0  0  0  0  0  0
   -1.3834    1.6272    2.8821 H   0  0  0  0  0  0  0  0  0  0  0  0
   -1.9790   -0.0553    2.7775 H   0  0  0  0  0  0  0  0  0  0  0  0
  1  6  1  0  0  0  0
  1  7  1  0  0  0  0
  2  1  2  0  0  0  0
  3  2  1  0  0  0  0
  4  3  2  0  0  0  0
  4  5  1  0  0  0  0
  5 10  1  0  0  0  0
  5  6  2  0  0  0  0
  6 18  1  0  0  0  0
  8  2  1  0  0  0  0
  9  4  1  0  0  0  0
 12 11  3  0  0  0  0
 13 16  1  0  0  0  0
 13 14  1  0  0  0  0
 15 13  1  0  0  0  0
 17 13  1  0  0  0  0
 18 19  1  0  0  0  0
 19 21  1  0  0  0  0
 19 20  1  0  0  0  0
 22 19  1  0  0  0  0
M  RAD  1   3   2
M  END
