Coordinates from ORCA-job 4-MeO-Ph-N2-BF4-B3LYPG-6-31G_dp-MTMO-d009-169-n800
 OpenBabel09051908083D

 22 20  0  0  0  0  0  0  0  0999 V2000
   -1.3168    0.8789    0.2230 C   0  0  0  0  0  0  0  0  0  0  0  0
   -0.7324    0.8348   -1.1021 C   0  0  0  0  0  0  0  0  0  0  0  0
   -1.7104    1.2652   -1.8460 C   0  0  0  0  0  0  0  0  0  0  0  0
   -2.9776    1.7182   -1.9104 C   0  0  0  0  0  0  0  0  0  0  0  0
   -3.4613    1.7345   -0.5879 C   0  0  0  0  0  0  0  0  0  0  0  0
   -2.6239    1.3160    0.4741 C   0  0  0  0  0  0  0  0  0  0  0  0
   -0.5969    0.5544    0.9796 H   0  0  0  0  0  0  0  0  0  0  0  0
    0.3474    0.5086   -1.1901 H   0  0  0  0  0  0  0  0  0  0  0  0
   -3.5430    2.0157   -2.7822 H   0  0  0  0  0  0  0  0  0  0  0  0
   -4.4747    2.0693   -0.3940 H   0  0  0  0  0  0  0  0  0  0  0  0
   10.1591   -0.6165    3.3054 N   0  0  0  0  0  0  0  0  0  0  0  0
    9.9400   -1.5608    2.7744 N   0  0  0  0  0  0  0  0  0  0  0  0
    1.9890    0.6596    0.5398 B   0  0  0  0  0  0  0  0  0  0  0  0
    1.1372   -0.0757    1.4076 F   0  0  0  0  0  0  0  0  0  0  0  0
    1.5320    1.9746    0.4736 F   0  0  0  0  0  0  0  0  0  0  0  0
    3.3018    0.5445    0.8960 F   0  0  0  0  0  0  0  0  0  0  0  0
    1.8003    0.0851   -0.7988 F   0  0  0  0  0  0  0  0  0  0  0  0
   -3.1658    1.3751    1.7054 O   0  0  0  0  0  0  0  0  0  0  0  0
   -2.3396    1.0089    2.8205 C   0  0  0  0  0  0  0  0  0  0  0  0
   -2.9555    1.1716    3.7044 H   0  0  0  0  0  0  0  0  0  0  0  0
   -1.4433    1.6357    2.8676 H   0  0  0  0  0  0  0  0  0  0  0  0
   -2.0457   -0.0443    2.7612 H   0  0  0  0  0  0  0  0  0  0  0  0
  1  6  1  0  0  0  0
  1  7  1  0  0  0  0
  2  1  2  0  0  0  0
  3  2  1  0  0  0  0
  4  3  2  0  0  0  0
  4  5  1  0  0  0  0
  5 10  1  0  0  0  0
  5  6  2  0  0  0  0
  6 18  1  0  0  0  0
  8  2  1  0  0  0  0
  9  4  1  0  0  0  0
 12 11  3  0  0  0  0
 13 16  1  0  0  0  0
 13 14  1  0  0  0  0
 15 13  1  0  0  0  0
 17 13  1  0  0  0  0
 18 19  1  0  0  0  0
 19 21  1  0  0  0  0
 19 20  1  0  0  0  0
 22 19  1  0  0  0  0
M  RAD  1   3   2
M  END
