Coordinates from ORCA-job 4-MeO-Ph-N2-BF4-B3LYPG-6-31G_dp-MTMO-d009-169-n800
 OpenBabel09051908083D

 22 20  0  0  0  0  0  0  0  0999 V2000
   -1.5097    0.9160    0.1775 C   0  0  0  0  0  0  0  0  0  0  0  0
   -0.9261    0.8720   -1.1480 C   0  0  0  0  0  0  0  0  0  0  0  0
   -1.9056    1.2988   -1.8918 C   0  0  0  0  0  0  0  0  0  0  0  0
   -3.1741    1.7482   -1.9561 C   0  0  0  0  0  0  0  0  0  0  0  0
   -3.6570    1.7646   -0.6333 C   0  0  0  0  0  0  0  0  0  0  0  0
   -2.8180    1.3498    0.4287 C   0  0  0  0  0  0  0  0  0  0  0  0
   -0.7886    0.5944    0.9341 H   0  0  0  0  0  0  0  0  0  0  0  0
    0.1548    0.5488   -1.2364 H   0  0  0  0  0  0  0  0  0  0  0  0
   -3.7408    2.0430   -2.8279 H   0  0  0  0  0  0  0  0  0  0  0  0
   -4.6713    2.0969   -0.4393 H   0  0  0  0  0  0  0  0  0  0  0  0
   12.0981   -0.9980    3.7686 N   0  0  0  0  0  0  0  0  0  0  0  0
   11.8673   -1.9389    3.2366 N   0  0  0  0  0  0  0  0  0  0  0  0
    1.7972    0.7070    0.4913 B   0  0  0  0  0  0  0  0  0  0  0  0
    0.9486   -0.0303    1.3604 F   0  0  0  0  0  0  0  0  0  0  0  0
    1.3360    2.0205    0.4244 F   0  0  0  0  0  0  0  0  0  0  0  0
    3.1108    0.5963    0.8459 F   0  0  0  0  0  0  0  0  0  0  0  0
    1.6089    0.1308   -0.8468 F   0  0  0  0  0  0  0  0  0  0  0  0
   -3.3594    1.4089    1.6602 O   0  0  0  0  0  0  0  0  0  0  0  0
   -2.5316    1.0464    2.7754 C   0  0  0  0  0  0  0  0  0  0  0  0
   -3.1476    1.2085    3.6594 H   0  0  0  0  0  0  0  0  0  0  0  0
   -1.6370    1.6758    2.8213 H   0  0  0  0  0  0  0  0  0  0  0  0
   -2.2348   -0.0060    2.7173 H   0  0  0  0  0  0  0  0  0  0  0  0
  1  6  1  0  0  0  0
  1  7  1  0  0  0  0
  2  1  2  0  0  0  0
  3  2  1  0  0  0  0
  4  3  2  0  0  0  0
  4  5  1  0  0  0  0
  5 10  1  0  0  0  0
  5  6  2  0  0  0  0
  6 18  1  0  0  0  0
  8  2  1  0  0  0  0
  9  4  1  0  0  0  0
 12 11  3  0  0  0  0
 13 16  1  0  0  0  0
 13 14  1  0  0  0  0
 15 13  1  0  0  0  0
 17 13  1  0  0  0  0
 18 19  1  0  0  0  0
 19 21  1  0  0  0  0
 19 20  1  0  0  0  0
 22 19  1  0  0  0  0
M  RAD  1   3   2
M  END
