Coordinates from ORCA-job 4-MeO-Ph-N2-BF4-B3LYPG-6-31G_dp-MTMO-d009-169-n800
 OpenBabel09051908083D

 22 20  0  0  0  0  0  0  0  0999 V2000
   -0.5061    0.6457    0.7373 C   0  0  0  0  0  0  0  0  0  0  0  0
    0.6359    0.8488   -0.1169 C   0  0  0  0  0  0  0  0  0  0  0  0
    0.2183    1.7257   -0.9927 C   0  0  0  0  0  0  0  0  0  0  0  0
   -0.8145    2.4930   -1.3977 C   0  0  0  0  0  0  0  0  0  0  0  0
   -1.8795    2.2402   -0.5137 C   0  0  0  0  0  0  0  0  0  0  0  0
   -1.7203    1.3206    0.5502 C   0  0  0  0  0  0  0  0  0  0  0  0
   -0.2928   -0.0672    1.5359 H   0  0  0  0  0  0  0  0  0  0  0  0
    1.5924    0.3014    0.1149 H   0  0  0  0  0  0  0  0  0  0  0  0
   -0.8529    3.1757   -2.2340 H   0  0  0  0  0  0  0  0  0  0  0  0
   -2.8227    2.7576   -0.6544 H   0  0  0  0  0  0  0  0  0  0  0  0
    2.2565    2.2378   -2.5942 N   0  0  0  0  0  0  0  0  0  0  0  0
    3.2245    2.3386   -3.1161 N   0  0  0  0  0  0  0  0  0  0  0  0
    2.2646   -0.5145    2.2395 B   0  0  0  0  0  0  0  0  0  0  0  0
    1.0503   -1.2479    2.2830 F   0  0  0  0  0  0  0  0  0  0  0  0
    1.9919    0.8217    2.5359 F   0  0  0  0  0  0  0  0  0  0  0  0
    3.2263   -1.0699    3.0362 F   0  0  0  0  0  0  0  0  0  0  0  0
    2.7118   -0.5488    0.8438 F   0  0  0  0  0  0  0  0  0  0  0  0
   -2.7967    1.1570    1.3435 O   0  0  0  0  0  0  0  0  0  0  0  0
   -2.6755    0.2729    2.4658 C   0  0  0  0  0  0  0  0  0  0  0  0
   -3.6376    0.3159    2.9758 H   0  0  0  0  0  0  0  0  0  0  0  0
   -1.8788    0.6021    3.1412 H   0  0  0  0  0  0  0  0  0  0  0  0
   -2.4750   -0.7528    2.1382 H   0  0  0  0  0  0  0  0  0  0  0  0
  1  7  1  0  0  0  0
  2  8  1  0  0  0  0
  2  1  2  0  0  0  0
  3  2  1  0  0  0  0
  4  3  2  0  0  0  0
  4  5  1  0  0  0  0
  5  6  2  0  0  0  0
  6  1  1  0  0  0  0
  6 18  1  0  0  0  0
  9  4  1  0  0  0  0
 10  5  1  0  0  0  0
 12 11  3  0  0  0  0
 13 14  1  0  0  0  0
 13 15  1  0  0  0  0
 13 16  1  0  0  0  0
 17 13  1  0  0  0  0
 18 19  1  0  0  0  0
 19 20  1  0  0  0  0
 19 21  1  0  0  0  0
 22 19  1  0  0  0  0
M  RAD  1   3   2
M  END
