Coordinates from ORCA-job 4-MeO-Ph-N2-BF4-B3LYPG-6-31G_dp-MTMO-d009-169-n800
 OpenBabel09051908083D

 22 20  0  0  0  0  0  0  0  0999 V2000
   -0.8375    0.6927    0.4060 C   0  0  0  0  0  0  0  0  0  0  0  0
   -0.1354    0.7718   -0.8586 C   0  0  0  0  0  0  0  0  0  0  0  0
   -0.9146    1.5492   -1.5543 C   0  0  0  0  0  0  0  0  0  0  0  0
   -2.0400    2.2884   -1.5984 C   0  0  0  0  0  0  0  0  0  0  0  0
   -2.6499    2.1596   -0.3355 C   0  0  0  0  0  0  0  0  0  0  0  0
   -2.0409    1.3625    0.6633 C   0  0  0  0  0  0  0  0  0  0  0  0
   -0.2947    0.0634    1.1172 H   0  0  0  0  0  0  0  0  0  0  0  0
    0.8440    0.2181   -0.9498 H   0  0  0  0  0  0  0  0  0  0  0  0
   -2.4304    2.8717   -2.4203 H   0  0  0  0  0  0  0  0  0  0  0  0
   -3.5846    2.6742   -0.1394 H   0  0  0  0  0  0  0  0  0  0  0  0
    4.8402    2.1049    0.5321 N   0  0  0  0  0  0  0  0  0  0  0  0
    5.4691    1.3339    1.0130 N   0  0  0  0  0  0  0  0  0  0  0  0
    2.2742   -0.3996    0.8706 B   0  0  0  0  0  0  0  0  0  0  0  0
    1.1933   -1.0407    1.5308 F   0  0  0  0  0  0  0  0  0  0  0  0
    2.1503    0.9797    1.0462 F   0  0  0  0  0  0  0  0  0  0  0  0
    3.4846   -0.8944    1.2695 F   0  0  0  0  0  0  0  0  0  0  0  0
    2.0945   -0.6538   -0.5614 F   0  0  0  0  0  0  0  0  0  0  0  0
   -2.6882    1.3048    1.8423 O   0  0  0  0  0  0  0  0  0  0  0  0
   -2.0812    0.5540    2.9045 C   0  0  0  0  0  0  0  0  0  0  0  0
   -2.7432    0.6744    3.7613 H   0  0  0  0  0  0  0  0  0  0  0  0
   -1.0864    0.9447    3.1417 H   0  0  0  0  0  0  0  0  0  0  0  0
   -2.0031   -0.5061    2.6405 H   0  0  0  0  0  0  0  0  0  0  0  0
  1  6  1  0  0  0  0
  1  7  1  0  0  0  0
  2  1  2  0  0  0  0
  3  2  1  0  0  0  0
  4  3  2  0  0  0  0
  4  5  1  0  0  0  0
  5 10  1  0  0  0  0
  5  6  2  0  0  0  0
  6 18  1  0  0  0  0
  8  2  1  0  0  0  0
  9  4  1  0  0  0  0
 11 12  3  0  0  0  0
 13 15  1  0  0  0  0
 13 16  1  0  0  0  0
 13 14  1  0  0  0  0
 17 13  1  0  0  0  0
 18 19  1  0  0  0  0
 19 21  1  0  0  0  0
 19 20  1  0  0  0  0
 22 19  1  0  0  0  0
M  RAD  1   3   2
M  END
