Coordinates from ORCA-job 4-MeO-Ph-N2-BF4-B3LYPG-6-31G_dp-MTMO-d009-169-n800
 OpenBabel09051908083D

 22 20  0  0  0  0  0  0  0  0999 V2000
   -0.8756    0.7397    0.2780 C   0  0  0  0  0  0  0  0  0  0  0  0
   -0.4106    0.6359   -1.0899 C   0  0  0  0  0  0  0  0  0  0  0  0
   -1.3573    1.2398   -1.7489 C   0  0  0  0  0  0  0  0  0  0  0  0
   -2.5315    1.8987   -1.7060 C   0  0  0  0  0  0  0  0  0  0  0  0
   -2.9044    1.9562   -0.3491 C   0  0  0  0  0  0  0  0  0  0  0  0
   -2.0707    1.3769    0.6376 C   0  0  0  0  0  0  0  0  0  0  0  0
   -0.1701    0.2710    0.9692 H   0  0  0  0  0  0  0  0  0  0  0  0
    0.5811    0.1213   -1.2707 H   0  0  0  0  0  0  0  0  0  0  0  0
   -3.1024    2.3127   -2.5249 H   0  0  0  0  0  0  0  0  0  0  0  0
   -3.8314    2.4463   -0.0708 H   0  0  0  0  0  0  0  0  0  0  0  0
    4.9303    1.0798    3.0788 N   0  0  0  0  0  0  0  0  0  0  0  0
    5.5868    0.7658    2.2471 N   0  0  0  0  0  0  0  0  0  0  0  0
    2.3594   -0.1295    0.3019 B   0  0  0  0  0  0  0  0  0  0  0  0
    1.4474   -0.6901    1.2349 F   0  0  0  0  0  0  0  0  0  0  0  0
    2.2003    1.2538    0.2953 F   0  0  0  0  0  0  0  0  0  0  0  0
    3.6430   -0.5395    0.5359 F   0  0  0  0  0  0  0  0  0  0  0  0
    1.9370   -0.6047   -1.0215 F   0  0  0  0  0  0  0  0  0  0  0  0
   -2.5040    1.4865    1.9076 O   0  0  0  0  0  0  0  0  0  0  0  0
   -1.6725    0.9537    2.9491 C   0  0  0  0  0  0  0  0  0  0  0  0
   -2.1958    1.1727    3.8793 H   0  0  0  0  0  0  0  0  0  0  0  0
   -0.6897    1.4355    2.9508 H   0  0  0  0  0  0  0  0  0  0  0  0
   -1.5495   -0.1291    2.8377 H   0  0  0  0  0  0  0  0  0  0  0  0
  1  6  1  0  0  0  0
  1  7  1  0  0  0  0
  2  1  2  0  0  0  0
  3  4  2  0  0  0  0
  3  2  1  0  0  0  0
  4  5  1  0  0  0  0
  5 10  1  0  0  0  0
  5  6  2  0  0  0  0
  6 18  1  0  0  0  0
  8  2  1  0  0  0  0
  9  4  1  0  0  0  0
 12 11  3  0  0  0  0
 13 16  1  0  0  0  0
 13 14  1  0  0  0  0
 15 13  1  0  0  0  0
 17 13  1  0  0  0  0
 18 19  1  0  0  0  0
 19 21  1  0  0  0  0
 19 20  1  0  0  0  0
 22 19  1  0  0  0  0
M  RAD  1   3   2
M  END
