Coordinates from ORCA-job 4-MeO-Ph-N2-BF4-B3LYPG-6-31G_dp-MTMO-d009-169-n800
 OpenBabel09051908083D

 22 20  0  0  0  0  0  0  0  0999 V2000
   -1.2684    0.8704    0.2346 C   0  0  0  0  0  0  0  0  0  0  0  0
   -0.6833    0.8269   -1.0902 C   0  0  0  0  0  0  0  0  0  0  0  0
   -1.6622    1.2538   -1.8349 C   0  0  0  0  0  0  0  0  0  0  0  0
   -2.9307    1.7031   -1.9003 C   0  0  0  0  0  0  0  0  0  0  0  0
   -3.4150    1.7190   -0.5780 C   0  0  0  0  0  0  0  0  0  0  0  0
   -2.5769    1.3040    0.4848 C   0  0  0  0  0  0  0  0  0  0  0  0
   -0.5480    0.5485    0.9918 H   0  0  0  0  0  0  0  0  0  0  0  0
    0.3975    0.5038   -1.1775 H   0  0  0  0  0  0  0  0  0  0  0  0
   -3.4965    1.9982   -2.7726 H   0  0  0  0  0  0  0  0  0  0  0  0
   -4.4295    2.0511   -0.3848 H   0  0  0  0  0  0  0  0  0  0  0  0
    9.6808   -0.5372    3.1893 N   0  0  0  0  0  0  0  0  0  0  0  0
    9.4628   -1.4818    2.6585 N   0  0  0  0  0  0  0  0  0  0  0  0
    2.0378    0.6608    0.5535 B   0  0  0  0  0  0  0  0  0  0  0  0
    1.1876   -0.0761    1.4214 F   0  0  0  0  0  0  0  0  0  0  0  0
    1.5773    1.9745    0.4860 F   0  0  0  0  0  0  0  0  0  0  0  0
    3.3508    0.5497    0.9106 F   0  0  0  0  0  0  0  0  0  0  0  0
    1.8515    0.0847   -0.7847 F   0  0  0  0  0  0  0  0  0  0  0  0
   -3.1195    1.3625    1.7158 O   0  0  0  0  0  0  0  0  0  0  0  0
   -2.2927    0.9997    2.8316 C   0  0  0  0  0  0  0  0  0  0  0  0
   -2.9094    1.1615    3.7150 H   0  0  0  0  0  0  0  0  0  0  0  0
   -1.3982    1.6291    2.8784 H   0  0  0  0  0  0  0  0  0  0  0  0
   -1.9959   -0.0527    2.7733 H   0  0  0  0  0  0  0  0  0  0  0  0
  1  6  1  0  0  0  0
  1  7  1  0  0  0  0
  2  1  2  0  0  0  0
  3  2  1  0  0  0  0
  4  3  2  0  0  0  0
  4  5  1  0  0  0  0
  5 10  1  0  0  0  0
  5  6  2  0  0  0  0
  6 18  1  0  0  0  0
  8  2  1  0  0  0  0
  9  4  1  0  0  0  0
 12 11  3  0  0  0  0
 13 16  1  0  0  0  0
 13 14  1  0  0  0  0
 15 13  1  0  0  0  0
 17 13  1  0  0  0  0
 18 19  1  0  0  0  0
 19 21  1  0  0  0  0
 19 20  1  0  0  0  0
 22 19  1  0  0  0  0
M  RAD  1   3   2
M  END
