Coordinates from ORCA-job 4-MeO-Ph-N2-BF4-B3LYPG-6-31G_dp-MTMO-d009-169-n800
 OpenBabel09051908083D

 22 20  0  0  0  0  0  0  0  0999 V2000
   -0.9924    0.8314    0.2734 C   0  0  0  0  0  0  0  0  0  0  0  0
   -0.4330    0.7942   -1.0626 C   0  0  0  0  0  0  0  0  0  0  0  0
   -1.4346    1.2057   -1.7871 C   0  0  0  0  0  0  0  0  0  0  0  0
   -2.7059    1.6503   -1.8237 C   0  0  0  0  0  0  0  0  0  0  0  0
   -3.1627    1.6627   -0.4916 C   0  0  0  0  0  0  0  0  0  0  0  0
   -2.2984    1.2550    0.5526 C   0  0  0  0  0  0  0  0  0  0  0  0
   -0.2560    0.5054    1.0143 H   0  0  0  0  0  0  0  0  0  0  0  0
    0.6452    0.4742   -1.1674 H   0  0  0  0  0  0  0  0  0  0  0  0
   -3.2914    1.9435   -2.6836 H   0  0  0  0  0  0  0  0  0  0  0  0
   -4.1756    1.9867   -0.2771 H   0  0  0  0  0  0  0  0  0  0  0  0
    7.1231   -0.2762    2.8195 N   0  0  0  0  0  0  0  0  0  0  0  0
    6.4642   -0.7080    2.0439 N   0  0  0  0  0  0  0  0  0  0  0  0
    2.3134    0.5916    0.5717 B   0  0  0  0  0  0  0  0  0  0  0  0
    1.4599   -0.1451    1.4387 F   0  0  0  0  0  0  0  0  0  0  0  0
    1.8685    1.9117    0.5264 F   0  0  0  0  0  0  0  0  0  0  0  0
    3.6281    0.4603    0.9221 F   0  0  0  0  0  0  0  0  0  0  0  0
    2.1101    0.0360   -0.7699 F   0  0  0  0  0  0  0  0  0  0  0  0
   -2.8132    1.3087    1.7954 O   0  0  0  0  0  0  0  0  0  0  0  0
   -1.9567    0.9550    2.8920 C   0  0  0  0  0  0  0  0  0  0  0  0
   -2.5545    1.1112    3.7894 H   0  0  0  0  0  0  0  0  0  0  0  0
   -1.0677    1.5933    2.9175 H   0  0  0  0  0  0  0  0  0  0  0  0
   -1.6505   -0.0943    2.8273 H   0  0  0  0  0  0  0  0  0  0  0  0
  1  6  1  0  0  0  0
  1  7  1  0  0  0  0
  2  1  2  0  0  0  0
  3  2  1  0  0  0  0
  4  3  2  0  0  0  0
  4  5  1  0  0  0  0
  5 10  1  0  0  0  0
  5  6  2  0  0  0  0
  6 18  1  0  0  0  0
  8  2  1  0  0  0  0
  9  4  1  0  0  0  0
 12 11  3  0  0  0  0
 13 16  1  0  0  0  0
 13 14  1  0  0  0  0
 15 13  1  0  0  0  0
 17 13  1  0  0  0  0
 18 19  1  0  0  0  0
 19 21  1  0  0  0  0
 19 20  1  0  0  0  0
 22 19  1  0  0  0  0
M  RAD  1   3   2
M  END
