Coordinates from ORCA-job 4-MeO-Ph-N2-BF4-B3LYPG-6-31G_dp-MTMO-d009-169-n800
 OpenBabel09051908083D

 22 20  0  0  0  0  0  0  0  0999 V2000
   -0.5422    0.6372    0.7624 C   0  0  0  0  0  0  0  0  0  0  0  0
    0.6007    0.8400   -0.1014 C   0  0  0  0  0  0  0  0  0  0  0  0
    0.1546    1.7118   -0.9604 C   0  0  0  0  0  0  0  0  0  0  0  0
   -0.8760    2.4783   -1.3666 C   0  0  0  0  0  0  0  0  0  0  0  0
   -1.9350    2.2255   -0.4739 C   0  0  0  0  0  0  0  0  0  0  0  0
   -1.7611    1.3065    0.5886 C   0  0  0  0  0  0  0  0  0  0  0  0
   -0.3148   -0.0758    1.5583 H   0  0  0  0  0  0  0  0  0  0  0  0
    1.5599    0.2897    0.1391 H   0  0  0  0  0  0  0  0  0  0  0  0
   -0.9182    3.1572   -2.2065 H   0  0  0  0  0  0  0  0  0  0  0  0
   -2.8808    2.7399   -0.6083 H   0  0  0  0  0  0  0  0  0  0  0  0
    2.6435    2.3606   -2.9356 N   0  0  0  0  0  0  0  0  0  0  0  0
    3.6130    2.4774   -3.4523 N   0  0  0  0  0  0  0  0  0  0  0  0
    2.2167   -0.5216    2.2671 B   0  0  0  0  0  0  0  0  0  0  0  0
    1.0014   -1.2532    2.3140 F   0  0  0  0  0  0  0  0  0  0  0  0
    1.9491    0.8127    2.5694 F   0  0  0  0  0  0  0  0  0  0  0  0
    3.1839   -1.0843    3.0498 F   0  0  0  0  0  0  0  0  0  0  0  0
    2.6536   -0.5507    0.8642 F   0  0  0  0  0  0  0  0  0  0  0  0
   -2.8274    1.1370    1.3939 O   0  0  0  0  0  0  0  0  0  0  0  0
   -2.6876    0.2544    2.5155 C   0  0  0  0  0  0  0  0  0  0  0  0
   -3.6431    0.2935    3.0379 H   0  0  0  0  0  0  0  0  0  0  0  0
   -1.8836    0.5880    3.1801 H   0  0  0  0  0  0  0  0  0  0  0  0
   -2.4866   -0.7706    2.1861 H   0  0  0  0  0  0  0  0  0  0  0  0
  1  7  1  0  0  0  0
  2  8  1  0  0  0  0
  2  1  2  0  0  0  0
  3  2  1  0  0  0  0
  4  3  2  0  0  0  0
  4  5  1  0  0  0  0
  5  6  2  0  0  0  0
  6  1  1  0  0  0  0
  6 18  1  0  0  0  0
  9  4  1  0  0  0  0
 10  5  1  0  0  0  0
 12 11  3  0  0  0  0
 13 14  1  0  0  0  0
 13 15  1  0  0  0  0
 13 16  1  0  0  0  0
 17 13  1  0  0  0  0
 18 19  1  0  0  0  0
 19 20  1  0  0  0  0
 19 21  1  0  0  0  0
 22 19  1  0  0  0  0
M  RAD  1   3   2
M  END
