Coordinates from ORCA-job 4-MeO-Ph-N2-BF4-B3LYPG-6-31G_dp-MTMO-d009-169-n800
 OpenBabel09051908083D

 22 20  0  0  0  0  0  0  0  0999 V2000
   -1.6143    0.9355    0.1526 C   0  0  0  0  0  0  0  0  0  0  0  0
   -1.0315    0.8904   -1.1731 C   0  0  0  0  0  0  0  0  0  0  0  0
   -2.0096    1.3220   -1.9161 C   0  0  0  0  0  0  0  0  0  0  0  0
   -3.2764    1.7764   -1.9794 C   0  0  0  0  0  0  0  0  0  0  0  0
   -3.7586    1.7934   -0.6563 C   0  0  0  0  0  0  0  0  0  0  0  0
   -2.9207    1.3742    0.4049 C   0  0  0  0  0  0  0  0  0  0  0  0
   -0.8941    0.6104    0.9086 H   0  0  0  0  0  0  0  0  0  0  0  0
    0.0480    0.5629   -1.2624 H   0  0  0  0  0  0  0  0  0  0  0  0
   -3.8423    2.0744   -2.8506 H   0  0  0  0  0  0  0  0  0  0  0  0
   -4.7714    2.1294   -0.4614 H   0  0  0  0  0  0  0  0  0  0  0  0
   13.1368   -1.1842    4.0186 N   0  0  0  0  0  0  0  0  0  0  0  0
   12.9044   -2.1227    3.4831 N   0  0  0  0  0  0  0  0  0  0  0  0
    1.6919    0.7126    0.4643 B   0  0  0  0  0  0  0  0  0  0  0  0
    0.8408   -0.0221    1.3333 F   0  0  0  0  0  0  0  0  0  0  0  0
    1.2361    2.0279    0.3990 F   0  0  0  0  0  0  0  0  0  0  0  0
    3.0053    0.5961    0.8178 F   0  0  0  0  0  0  0  0  0  0  0  0
    1.5004    0.1383   -0.8742 F   0  0  0  0  0  0  0  0  0  0  0  0
   -3.4614    1.4341    1.6368 O   0  0  0  0  0  0  0  0  0  0  0  0
   -2.6345    1.0672    2.7512 C   0  0  0  0  0  0  0  0  0  0  0  0
   -3.2495    1.2306    3.6355 H   0  0  0  0  0  0  0  0  0  0  0  0
   -1.7376    1.6931    2.7974 H   0  0  0  0  0  0  0  0  0  0  0  0
   -2.3418    0.0137    2.6917 H   0  0  0  0  0  0  0  0  0  0  0  0
  1  6  1  0  0  0  0
  1  7  1  0  0  0  0
  2  1  2  0  0  0  0
  3  2  1  0  0  0  0
  4  3  2  0  0  0  0
  4  5  1  0  0  0  0
  5 10  1  0  0  0  0
  5  6  2  0  0  0  0
  6 18  1  0  0  0  0
  8  2  1  0  0  0  0
  9  4  1  0  0  0  0
 12 11  3  0  0  0  0
 13 16  1  0  0  0  0
 13 14  1  0  0  0  0
 15 13  1  0  0  0  0
 17 13  1  0  0  0  0
 18 19  1  0  0  0  0
 19 21  1  0  0  0  0
 19 20  1  0  0  0  0
 22 19  1  0  0  0  0
M  RAD  1   3   2
M  END
