Coordinates from ORCA-job 4-MeO-Ph-N2-BF4-B3LYPG-6-31G_dp-MTMO-d009-169-n800
 OpenBabel09051908083D

 22 20  0  0  0  0  0  0  0  0999 V2000
   -0.8291    0.6919    0.4163 C   0  0  0  0  0  0  0  0  0  0  0  0
   -0.1034    0.7881   -0.8337 C   0  0  0  0  0  0  0  0  0  0  0  0
   -0.8700    1.5754   -1.5324 C   0  0  0  0  0  0  0  0  0  0  0  0
   -1.9932    2.3173   -1.5857 C   0  0  0  0  0  0  0  0  0  0  0  0
   -2.6264    2.1715   -0.3361 C   0  0  0  0  0  0  0  0  0  0  0  0
   -2.0362    1.3593    0.6619 C   0  0  0  0  0  0  0  0  0  0  0  0
   -0.2983    0.0536    1.1291 H   0  0  0  0  0  0  0  0  0  0  0  0
    0.8767    0.2355   -0.9124 H   0  0  0  0  0  0  0  0  0  0  0  0
   -2.3679    2.9127   -2.4063 H   0  0  0  0  0  0  0  0  0  0  0  0
   -3.5639    2.6845   -0.1498 H   0  0  0  0  0  0  0  0  0  0  0  0
    4.7801    2.0744    0.3184 N   0  0  0  0  0  0  0  0  0  0  0  0
    5.4364    1.3597    0.8471 N   0  0  0  0  0  0  0  0  0  0  0  0
    2.2725   -0.3907    0.9374 B   0  0  0  0  0  0  0  0  0  0  0  0
    1.1841   -1.0329    1.5851 F   0  0  0  0  0  0  0  0  0  0  0  0
    2.1419    0.9890    1.1072 F   0  0  0  0  0  0  0  0  0  0  0  0
    3.4787   -0.8802    1.3552 F   0  0  0  0  0  0  0  0  0  0  0  0
    2.1141   -0.6494   -0.4955 F   0  0  0  0  0  0  0  0  0  0  0  0
   -2.7040    1.2856    1.8284 O   0  0  0  0  0  0  0  0  0  0  0  0
   -2.1169    0.5176    2.8897 C   0  0  0  0  0  0  0  0  0  0  0  0
   -2.7923    0.6285    3.7373 H   0  0  0  0  0  0  0  0  0  0  0  0
   -1.1246    0.9008    3.1482 H   0  0  0  0  0  0  0  0  0  0  0  0
   -2.0385   -0.5389    2.6118 H   0  0  0  0  0  0  0  0  0  0  0  0
  1  6  1  0  0  0  0
  1  7  1  0  0  0  0
  2  1  2  0  0  0  0
  3  2  1  0  0  0  0
  4  3  2  0  0  0  0
  4  5  1  0  0  0  0
  5 10  1  0  0  0  0
  5  6  2  0  0  0  0
  6 18  1  0  0  0  0
  8  2  1  0  0  0  0
  9  4  1  0  0  0  0
 11 12  3  0  0  0  0
 13 15  1  0  0  0  0
 13 16  1  0  0  0  0
 13 14  1  0  0  0  0
 17 13  1  0  0  0  0
 18 19  1  0  0  0  0
 19 21  1  0  0  0  0
 19 20  1  0  0  0  0
 22 19  1  0  0  0  0
M  RAD  1   3   2
M  END
