Coordinates from ORCA-job 4-MeO-Ph-N2-BF4-B3LYPG-6-31G_dp-MTMO-d009-169-n800
 OpenBabel09051908083D

 22 20  0  0  0  0  0  0  0  0999 V2000
   -1.1677    0.8465    0.2585 C   0  0  0  0  0  0  0  0  0  0  0  0
   -0.5816    0.7992   -1.0658 C   0  0  0  0  0  0  0  0  0  0  0  0
   -1.5510    1.2493   -1.8091 C   0  0  0  0  0  0  0  0  0  0  0  0
   -2.8106    1.7234   -1.8735 C   0  0  0  0  0  0  0  0  0  0  0  0
   -3.2964    1.7410   -0.5518 C   0  0  0  0  0  0  0  0  0  0  0  0
   -2.4680    1.3036    0.5096 C   0  0  0  0  0  0  0  0  0  0  0  0
   -0.4546    0.5064    1.0146 H   0  0  0  0  0  0  0  0  0  0  0  0
    0.4924    0.4547   -1.1533 H   0  0  0  0  0  0  0  0  0  0  0  0
   -3.3692    2.0346   -2.7448 H   0  0  0  0  0  0  0  0  0  0  0  0
   -4.3046    2.0912   -0.3581 H   0  0  0  0  0  0  0  0  0  0  0  0
    8.6362   -0.2376    2.9288 N   0  0  0  0  0  0  0  0  0  0  0  0
    8.4332   -1.1896    2.4054 N   0  0  0  0  0  0  0  0  0  0  0  0
    2.1325    0.5663    0.5822 B   0  0  0  0  0  0  0  0  0  0  0  0
    1.2654   -0.1573    1.4448 F   0  0  0  0  0  0  0  0  0  0  0  0
    1.6995    1.8897    0.5212 F   0  0  0  0  0  0  0  0  0  0  0  0
    3.4421    0.4259    0.9416 F   0  0  0  0  0  0  0  0  0  0  0  0
    1.9371    0.0016   -0.7592 F   0  0  0  0  0  0  0  0  0  0  0  0
   -3.0111    1.3650    1.7402 O   0  0  0  0  0  0  0  0  0  0  0  0
   -2.1929    0.9793    2.8548 C   0  0  0  0  0  0  0  0  0  0  0  0
   -2.8080    1.1468    3.7384 H   0  0  0  0  0  0  0  0  0  0  0  0
   -1.2870    1.5916    2.9070 H   0  0  0  0  0  0  0  0  0  0  0  0
   -1.9157   -0.0781    2.7899 H   0  0  0  0  0  0  0  0  0  0  0  0
  1  6  1  0  0  0  0
  1  7  1  0  0  0  0
  2  1  2  0  0  0  0
  3  2  1  0  0  0  0
  4  3  2  0  0  0  0
  4  5  1  0  0  0  0
  5 10  1  0  0  0  0
  5  6  2  0  0  0  0
  6 18  1  0  0  0  0
  8  2  1  0  0  0  0
  9  4  1  0  0  0  0
 12 11  3  0  0  0  0
 13 16  1  0  0  0  0
 13 14  1  0  0  0  0
 15 13  1  0  0  0  0
 17 13  1  0  0  0  0
 18 19  1  0  0  0  0
 19 21  1  0  0  0  0
 19 20  1  0  0  0  0
 22 19  1  0  0  0  0
M  RAD  1   3   2
M  END
