Coordinates from ORCA-job 4-MeO-Ph-N2-BF4-B3LYPG-6-31G_dp-MTMO-d009-169-n800
 OpenBabel09051908083D

 22 20  0  0  0  0  0  0  0  0999 V2000
   -1.5472    0.9228    0.1686 C   0  0  0  0  0  0  0  0  0  0  0  0
   -0.9637    0.8782   -1.1568 C   0  0  0  0  0  0  0  0  0  0  0  0
   -1.9421    1.3077   -1.9004 C   0  0  0  0  0  0  0  0  0  0  0  0
   -3.2097    1.7599   -1.9646 C   0  0  0  0  0  0  0  0  0  0  0  0
   -3.6926    1.7766   -0.6418 C   0  0  0  0  0  0  0  0  0  0  0  0
   -2.8545    1.3593    0.4201 C   0  0  0  0  0  0  0  0  0  0  0  0
   -0.8268    0.5993    0.9250 H   0  0  0  0  0  0  0  0  0  0  0  0
    0.1165    0.5527   -1.2454 H   0  0  0  0  0  0  0  0  0  0  0  0
   -3.7757    2.0565   -2.8362 H   0  0  0  0  0  0  0  0  0  0  0  0
   -4.7061    2.1110   -0.4475 H   0  0  0  0  0  0  0  0  0  0  0  0
   12.4690   -1.0617    3.8570 N   0  0  0  0  0  0  0  0  0  0  0  0
   12.2383   -2.0018    3.3233 N   0  0  0  0  0  0  0  0  0  0  0  0
    1.7592    0.7063    0.4823 B   0  0  0  0  0  0  0  0  0  0  0  0
    0.9090   -0.0295    1.3512 F   0  0  0  0  0  0  0  0  0  0  0  0
    1.3009    2.0208    0.4160 F   0  0  0  0  0  0  0  0  0  0  0  0
    3.0726    0.5925    0.8368 F   0  0  0  0  0  0  0  0  0  0  0  0
    1.5696    0.1310   -0.8560 F   0  0  0  0  0  0  0  0  0  0  0  0
   -3.3959    1.4189    1.6516 O   0  0  0  0  0  0  0  0  0  0  0  0
   -2.5689    1.0539    2.7666 C   0  0  0  0  0  0  0  0  0  0  0  0
   -3.1845    1.2168    3.6506 H   0  0  0  0  0  0  0  0  0  0  0  0
   -1.6730    1.6814    2.8129 H   0  0  0  0  0  0  0  0  0  0  0  0
   -2.2744    0.0009    2.7078 H   0  0  0  0  0  0  0  0  0  0  0  0
  1  6  1  0  0  0  0
  1  7  1  0  0  0  0
  2  1  2  0  0  0  0
  3  2  1  0  0  0  0
  4  3  2  0  0  0  0
  4  5  1  0  0  0  0
  5 10  1  0  0  0  0
  5  6  2  0  0  0  0
  6 18  1  0  0  0  0
  8  2  1  0  0  0  0
  9  4  1  0  0  0  0
 12 11  3  0  0  0  0
 13 16  1  0  0  0  0
 13 14  1  0  0  0  0
 15 13  1  0  0  0  0
 17 13  1  0  0  0  0
 18 19  1  0  0  0  0
 19 21  1  0  0  0  0
 19 20  1  0  0  0  0
 22 19  1  0  0  0  0
M  RAD  1   3   2
M  END
