Coordinates from ORCA-job 4-MeO-Ph-N2-BF4-B3LYPG-6-31G_dp-MTMO-d009-169-n800
 OpenBabel09051908083D

 22 20  0  0  0  0  0  0  0  0999 V2000
   -1.2648    0.8698    0.2354 C   0  0  0  0  0  0  0  0  0  0  0  0
   -0.6797    0.8264   -1.0894 C   0  0  0  0  0  0  0  0  0  0  0  0
   -1.6586    1.2529   -1.8341 C   0  0  0  0  0  0  0  0  0  0  0  0
   -2.9273    1.7019   -1.8996 C   0  0  0  0  0  0  0  0  0  0  0  0
   -3.4116    1.7178   -0.5773 C   0  0  0  0  0  0  0  0  0  0  0  0
   -2.5734    1.3030    0.4855 C   0  0  0  0  0  0  0  0  0  0  0  0
   -0.5443    0.5481    0.9927 H   0  0  0  0  0  0  0  0  0  0  0  0
    0.4012    0.5035   -1.1766 H   0  0  0  0  0  0  0  0  0  0  0  0
   -3.4931    1.9968   -2.7719 H   0  0  0  0  0  0  0  0  0  0  0  0
   -4.4262    2.0497   -0.3842 H   0  0  0  0  0  0  0  0  0  0  0  0
    9.6454   -0.5314    3.1807 N   0  0  0  0  0  0  0  0  0  0  0  0
    9.4273   -1.4760    2.6498 N   0  0  0  0  0  0  0  0  0  0  0  0
    2.0415    0.6610    0.5545 B   0  0  0  0  0  0  0  0  0  0  0  0
    1.1913   -0.0761    1.4224 F   0  0  0  0  0  0  0  0  0  0  0  0
    1.5806    1.9745    0.4869 F   0  0  0  0  0  0  0  0  0  0  0  0
    3.3544    0.5501    0.9117 F   0  0  0  0  0  0  0  0  0  0  0  0
    1.8554    0.0848   -0.7837 F   0  0  0  0  0  0  0  0  0  0  0  0
   -3.1161    1.3615    1.7165 O   0  0  0  0  0  0  0  0  0  0  0  0
   -2.2892    0.9990    2.8324 C   0  0  0  0  0  0  0  0  0  0  0  0
   -2.9060    1.1608    3.7158 H   0  0  0  0  0  0  0  0  0  0  0  0
   -1.3948    1.6286    2.8792 H   0  0  0  0  0  0  0  0  0  0  0  0
   -1.9921   -0.0533    2.7742 H   0  0  0  0  0  0  0  0  0  0  0  0
  1  6  1  0  0  0  0
  1  7  1  0  0  0  0
  2  1  2  0  0  0  0
  3  2  1  0  0  0  0
  4  3  2  0  0  0  0
  4  5  1  0  0  0  0
  5 10  1  0  0  0  0
  5  6  2  0  0  0  0
  6 18  1  0  0  0  0
  8  2  1  0  0  0  0
  9  4  1  0  0  0  0
 12 11  3  0  0  0  0
 13 16  1  0  0  0  0
 13 14  1  0  0  0  0
 15 13  1  0  0  0  0
 17 13  1  0  0  0  0
 18 19  1  0  0  0  0
 19 21  1  0  0  0  0
 19 20  1  0  0  0  0
 22 19  1  0  0  0  0
M  RAD  1   3   2
M  END
