Coordinates from ORCA-job 4-MeO-Ph-N2-BF4-B3LYPG-6-31G_dp-MTMO-d009-169-n800
 OpenBabel09051908083D

 22 20  0  0  0  0  0  0  0  0999 V2000
   -1.2035    0.8526    0.2502 C   0  0  0  0  0  0  0  0  0  0  0  0
   -0.6176    0.8049   -1.0741 C   0  0  0  0  0  0  0  0  0  0  0  0
   -1.5865    1.2566   -1.8172 C   0  0  0  0  0  0  0  0  0  0  0  0
   -2.8455    1.7321   -1.8814 C   0  0  0  0  0  0  0  0  0  0  0  0
   -3.3312    1.7499   -0.5596 C   0  0  0  0  0  0  0  0  0  0  0  0
   -2.5032    1.3111    0.5015 C   0  0  0  0  0  0  0  0  0  0  0  0
   -0.4907    0.5115    1.0062 H   0  0  0  0  0  0  0  0  0  0  0  0
    0.4560    0.4591   -1.1619 H   0  0  0  0  0  0  0  0  0  0  0  0
   -3.4038    2.0443   -2.7525 H   0  0  0  0  0  0  0  0  0  0  0  0
   -4.3389    2.1013   -0.3657 H   0  0  0  0  0  0  0  0  0  0  0  0
    8.9933   -0.2966    3.0132 N   0  0  0  0  0  0  0  0  0  0  0  0
    8.7872   -1.2484    2.4905 N   0  0  0  0  0  0  0  0  0  0  0  0
    2.0965    0.5686    0.5726 B   0  0  0  0  0  0  0  0  0  0  0  0
    1.2290   -0.1544    1.4353 F   0  0  0  0  0  0  0  0  0  0  0  0
    1.6649    1.8924    0.5122 F   0  0  0  0  0  0  0  0  0  0  0  0
    3.4061    0.4266    0.9312 F   0  0  0  0  0  0  0  0  0  0  0  0
    1.9000    0.0044   -0.7690 F   0  0  0  0  0  0  0  0  0  0  0  0
   -3.0462    1.3729    1.7323 O   0  0  0  0  0  0  0  0  0  0  0  0
   -2.2285    0.9858    2.8466 C   0  0  0  0  0  0  0  0  0  0  0  0
   -2.8433    1.1537    3.7303 H   0  0  0  0  0  0  0  0  0  0  0  0
   -1.3218    1.5970    2.8991 H   0  0  0  0  0  0  0  0  0  0  0  0
   -1.9525   -0.0719    2.7814 H   0  0  0  0  0  0  0  0  0  0  0  0
  1  6  1  0  0  0  0
  1  7  1  0  0  0  0
  2  1  2  0  0  0  0
  3  2  1  0  0  0  0
  4  3  2  0  0  0  0
  4  5  1  0  0  0  0
  5 10  1  0  0  0  0
  5  6  2  0  0  0  0
  6 18  1  0  0  0  0
  8  2  1  0  0  0  0
  9  4  1  0  0  0  0
 12 11  3  0  0  0  0
 13 16  1  0  0  0  0
 13 14  1  0  0  0  0
 15 13  1  0  0  0  0
 17 13  1  0  0  0  0
 18 19  1  0  0  0  0
 19 21  1  0  0  0  0
 19 20  1  0  0  0  0
 22 19  1  0  0  0  0
M  RAD  1   3   2
M  END
