Coordinates from ORCA-job 4-MeO-Ph-N2-BF4-B3LYPG-6-31G_dp-MTMO-d009-169-n800
 OpenBabel09051908083D

 22 20  0  0  0  0  0  0  0  0999 V2000
   -1.4376    0.9010    0.1941 C   0  0  0  0  0  0  0  0  0  0  0  0
   -0.8551    0.8557   -1.1318 C   0  0  0  0  0  0  0  0  0  0  0  0
   -1.8316    1.2923   -1.8739 C   0  0  0  0  0  0  0  0  0  0  0  0
   -3.0967    1.7517   -1.9363 C   0  0  0  0  0  0  0  0  0  0  0  0
   -3.5787    1.7684   -0.6131 C   0  0  0  0  0  0  0  0  0  0  0  0
   -2.7423    1.3443    0.4473 C   0  0  0  0  0  0  0  0  0  0  0  0
   -0.7186    0.5718    0.9494 H   0  0  0  0  0  0  0  0  0  0  0  0
    0.2230    0.5240   -1.2216 H   0  0  0  0  0  0  0  0  0  0  0  0
   -3.6615    2.0534   -2.8069 H   0  0  0  0  0  0  0  0  0  0  0  0
   -4.5902    2.1080   -0.4176 H   0  0  0  0  0  0  0  0  0  0  0  0
   11.3594   -0.8254    3.5977 N   0  0  0  0  0  0  0  0  0  0  0  0
   11.1348   -1.7671    3.0643 N   0  0  0  0  0  0  0  0  0  0  0  0
    1.8674    0.6639    0.5058 B   0  0  0  0  0  0  0  0  0  0  0  0
    1.0132   -0.0685    1.3736 F   0  0  0  0  0  0  0  0  0  0  0  0
    1.4169    1.9812    0.4424 F   0  0  0  0  0  0  0  0  0  0  0  0
    3.1802    0.5415    0.8595 F   0  0  0  0  0  0  0  0  0  0  0  0
    1.6738    0.0925   -0.8336 F   0  0  0  0  0  0  0  0  0  0  0  0
   -3.2825    1.4042    1.6793 O   0  0  0  0  0  0  0  0  0  0  0  0
   -2.4569    1.0321    2.7930 C   0  0  0  0  0  0  0  0  0  0  0  0
   -3.0712    1.1963    3.6777 H   0  0  0  0  0  0  0  0  0  0  0  0
   -1.5576    1.6545    2.8402 H   0  0  0  0  0  0  0  0  0  0  0  0
   -2.1682   -0.0224    2.7316 H   0  0  0  0  0  0  0  0  0  0  0  0
  1  6  1  0  0  0  0
  1  7  1  0  0  0  0
  2  1  2  0  0  0  0
  3  2  1  0  0  0  0
  4  3  2  0  0  0  0
  4  5  1  0  0  0  0
  5 10  1  0  0  0  0
  5  6  2  0  0  0  0
  6 18  1  0  0  0  0
  8  2  1  0  0  0  0
  9  4  1  0  0  0  0
 12 11  3  0  0  0  0
 13 16  1  0  0  0  0
 13 14  1  0  0  0  0
 15 13  1  0  0  0  0
 17 13  1  0  0  0  0
 18 19  1  0  0  0  0
 19 21  1  0  0  0  0
 19 20  1  0  0  0  0
 22 19  1  0  0  0  0
M  RAD  1   3   2
M  END
