Coordinates from ORCA-job 4-MeO-Ph-N2-BF4-B3LYPG-6-31G_dp-MTMO-d009-169-n800
 OpenBabel09051908083D

 22 20  0  0  0  0  0  0  0  0999 V2000
   -0.7360    0.7021    0.5022 C   0  0  0  0  0  0  0  0  0  0  0  0
    0.1165    0.8516   -0.6598 C   0  0  0  0  0  0  0  0  0  0  0  0
   -0.5807    1.6619   -1.4040 C   0  0  0  0  0  0  0  0  0  0  0  0
   -1.6966    2.4038   -1.5431 C   0  0  0  0  0  0  0  0  0  0  0  0
   -2.4559    2.2054   -0.3738 C   0  0  0  0  0  0  0  0  0  0  0  0
   -1.9672    1.3546    0.6465 C   0  0  0  0  0  0  0  0  0  0  0  0
   -0.2777    0.0343    1.2384 H   0  0  0  0  0  0  0  0  0  0  0  0
    1.1010    0.3016   -0.6631 H   0  0  0  0  0  0  0  0  0  0  0  0
   -1.9864    3.0330   -2.3729 H   0  0  0  0  0  0  0  0  0  0  0  0
   -3.4109    2.7083   -0.2654 H   0  0  0  0  0  0  0  0  0  0  0  0
    3.9747    1.9088   -0.6456 N   0  0  0  0  0  0  0  0  0  0  0  0
    4.9520    1.7839   -0.1455 N   0  0  0  0  0  0  0  0  0  0  0  0
    2.3063   -0.4289    1.2845 B   0  0  0  0  0  0  0  0  0  0  0  0
    1.1419   -1.0771    1.7773 F   0  0  0  0  0  0  0  0  0  0  0  0
    2.1836    0.9426    1.5116 F   0  0  0  0  0  0  0  0  0  0  0  0
    3.4494   -0.9724    1.7975 F   0  0  0  0  0  0  0  0  0  0  0  0
    2.2958   -0.6077   -0.1705 F   0  0  0  0  0  0  0  0  0  0  0  0
   -2.7537    1.2302    1.7322 O   0  0  0  0  0  0  0  0  0  0  0  0
   -2.2849    0.4061    2.8093 C   0  0  0  0  0  0  0  0  0  0  0  0
   -3.0476    0.4780    3.5843 H   0  0  0  0  0  0  0  0  0  0  0  0
   -1.3257    0.7686    3.1931 H   0  0  0  0  0  0  0  0  0  0  0  0
   -2.1781   -0.6355    2.4879 H   0  0  0  0  0  0  0  0  0  0  0  0
  1  6  1  0  0  0  0
  1  7  1  0  0  0  0
  2  1  2  0  0  0  0
  3  2  1  0  0  0  0
  4  3  2  0  0  0  0
  4  5  1  0  0  0  0
  5 10  1  0  0  0  0
  5  6  2  0  0  0  0
  6 18  1  0  0  0  0
  8  2  1  0  0  0  0
  9  4  1  0  0  0  0
 11 12  3  0  0  0  0
 13 15  1  0  0  0  0
 13 14  1  0  0  0  0
 13 16  1  0  0  0  0
 17 13  1  0  0  0  0
 18 19  1  0  0  0  0
 19 21  1  0  0  0  0
 19 20  1  0  0  0  0
 22 19  1  0  0  0  0
M  RAD  1   3   2
M  END
