Coordinates from ORCA-job 4-MeO-Ph-N2-BF4-B3LYPG-6-31G_dp-MTMO-d009-169-n800
 OpenBabel09051908083D

 22 21  0  0  0  0  0  0  0  0999 V2000
   -0.2911    0.5042    0.3995 C   0  0  0  0  0  0  0  0  0  0  0  0
    0.7182    0.8006   -0.5041 C   0  0  0  0  0  0  0  0  0  0  0  0
    0.4138    1.8163   -1.3926 C   0  0  0  0  0  0  0  0  0  0  0  0
   -0.7420    2.5903   -1.4813 C   0  0  0  0  0  0  0  0  0  0  0  0
   -1.7083    2.2851   -0.5405 C   0  0  0  0  0  0  0  0  0  0  0  0
   -1.4756    1.2685    0.4246 C   0  0  0  0  0  0  0  0  0  0  0  0
   -0.1034   -0.2993    1.1083 H   0  0  0  0  0  0  0  0  0  0  0  0
    1.6670    0.2814   -0.4165 H   0  0  0  0  0  0  0  0  0  0  0  0
   -0.8744    3.3727   -2.2179 H   0  0  0  0  0  0  0  0  0  0  0  0
   -2.6414    2.8356   -0.5074 H   0  0  0  0  0  0  0  0  0  0  0  0
    1.6209    2.2240   -2.4266 N   0  0  0  0  0  0  0  0  0  0  0  0
    2.4578    2.4562   -3.1204 N   0  0  0  0  0  0  0  0  0  0  0  0
    1.7472   -0.5094    2.6146 B   0  0  0  0  0  0  0  0  0  0  0  0
    0.6992   -1.4477    2.3577 F   0  0  0  0  0  0  0  0  0  0  0  0
    1.1256    0.7165    2.9542 F   0  0  0  0  0  0  0  0  0  0  0  0
    2.5759   -0.9566    3.6150 F   0  0  0  0  0  0  0  0  0  0  0  0
    2.4664   -0.3327    1.3966 F   0  0  0  0  0  0  0  0  0  0  0  0
   -2.4222    1.1098    1.3448 O   0  0  0  0  0  0  0  0  0  0  0  0
   -2.1420    0.2393    2.4732 C   0  0  0  0  0  0  0  0  0  0  0  0
   -2.9506    0.4297    3.1778 H   0  0  0  0  0  0  0  0  0  0  0  0
   -1.1664    0.4761    2.9058 H   0  0  0  0  0  0  0  0  0  0  0  0
   -2.1546   -0.8072    2.1564 H   0  0  0  0  0  0  0  0  0  0  0  0
  1  6  1  0  0  0  0
  1  7  1  0  0  0  0
  2  8  1  0  0  0  0
  2  1  2  0  0  0  0
  3  2  1  0  0  0  0
  4  3  2  0  0  0  0
  4  5  1  0  0  0  0
  5 10  1  0  0  0  0
  5  6  2  0  0  0  0
  6 18  1  0  0  0  0
  9  4  1  0  0  0  0
 11  3  1  0  0  0  0
 12 11  1  0  0  0  0
 13 15  1  0  0  0  0
 13 16  1  0  0  0  0
 14 13  1  0  0  0  0
 17 13  1  0  0  0  0
 18 19  1  0  0  0  0
 19 21  1  0  0  0  0
 19 20  1  0  0  0  0
 22 19  1  0  0  0  0
M  RAD  2  11   2  12   3
M  END
