Coordinates from ORCA-job 4-MeO-Ph-N2-BF4-B3LYPG-6-31G_dp-MTMO-d009-169-n800
 OpenBabel09051908083D

 22 21  0  0  0  0  0  0  0  0999 V2000
   -0.6065   -0.0034    0.0630 C   0  0  0  0  0  0  0  0  0  0  0  0
    0.4054    0.2154   -0.8189 C   0  0  0  0  0  0  0  0  0  0  0  0
    0.6866    1.5487   -1.3317 C   0  0  0  0  0  0  0  0  0  0  0  0
   -0.1930    2.6313   -0.8982 C   0  0  0  0  0  0  0  0  0  0  0  0
   -1.1761    2.3992    0.0047 C   0  0  0  0  0  0  0  0  0  0  0  0
   -1.3356    1.0990    0.5778 C   0  0  0  0  0  0  0  0  0  0  0  0
   -0.7265   -0.9898    0.4855 H   0  0  0  0  0  0  0  0  0  0  0  0
    1.0523   -0.5901   -1.1444 H   0  0  0  0  0  0  0  0  0  0  0  0
   -0.0039    3.6222   -1.2975 H   0  0  0  0  0  0  0  0  0  0  0  0
   -1.8041    3.2010    0.3750 H   0  0  0  0  0  0  0  0  0  0  0  0
    1.5337    1.7324   -1.9763 N   0  0  0  0  0  0  0  0  0  0  0  0
    2.4315    1.9281   -2.6609 N   0  0  0  0  0  0  0  0  0  0  0  0
    1.5577    0.5345    2.2523 B   0  0  0  0  0  0  0  0  0  0  0  0
    0.9419   -0.7475    2.2923 F   0  0  0  0  0  0  0  0  0  0  0  0
    0.5149    1.4994    2.3459 F   0  0  0  0  0  0  0  0  0  0  0  0
    2.4618    0.6851    3.2758 F   0  0  0  0  0  0  0  0  0  0  0  0
    2.1917    0.6913    0.9870 F   0  0  0  0  0  0  0  0  0  0  0  0
   -2.2163    1.0122    1.5437 O   0  0  0  0  0  0  0  0  0  0  0  0
   -2.2129   -0.1586    2.4035 C   0  0  0  0  0  0  0  0  0  0  0  0
   -2.7985    0.1345    3.2730 H   0  0  0  0  0  0  0  0  0  0  0  0
   -1.1830   -0.3976    2.6779 H   0  0  0  0  0  0  0  0  0  0  0  0
   -2.7011   -0.9937    1.8919 H   0  0  0  0  0  0  0  0  0  0  0  0
  1  7  1  0  0  0  0
  1  6  1  0  0  0  0
  2  1  2  0  0  0  0
  3  4  2  0  0  0  0
  3  2  1  0  0  0  0
  4  5  1  0  0  0  0
  5 10  1  0  0  0  0
  5  6  2  0  0  0  0
  6 18  1  0  0  0  0
  8  2  1  0  0  0  0
  9  4  1  0  0  0  0
 11  3  1  0  0  0  0
 12 11  1  0  0  0  0
 13 14  1  0  0  0  0
 13 15  1  0  0  0  0
 13 16  1  0  0  0  0
 17 13  1  0  0  0  0
 18 19  1  0  0  0  0
 19 21  1  0  0  0  0
 19 20  1  0  0  0  0
 22 19  1  0  0  0  0
M  RAD  2  11   2  12   3
M  END
