Coordinates from ORCA-job 4-MeO-Ph-N2-BF4-B3LYPG-6-31G_dp-MTMO-d009-169-n800
 OpenBabel09051908083D

 22 20  0  0  0  0  0  0  0  0999 V2000
   -1.6476    0.9419    0.1447 C   0  0  0  0  0  0  0  0  0  0  0  0
   -1.0653    0.8968   -1.1813 C   0  0  0  0  0  0  0  0  0  0  0  0
   -2.0436    1.3284   -1.9239 C   0  0  0  0  0  0  0  0  0  0  0  0
   -3.3105    1.7828   -1.9867 C   0  0  0  0  0  0  0  0  0  0  0  0
   -3.7922    1.7999   -0.6635 C   0  0  0  0  0  0  0  0  0  0  0  0
   -2.9539    1.3807    0.3975 C   0  0  0  0  0  0  0  0  0  0  0  0
   -0.9272    0.6168    0.9004 H   0  0  0  0  0  0  0  0  0  0  0  0
    0.0142    0.5692   -1.2710 H   0  0  0  0  0  0  0  0  0  0  0  0
   -3.8767    2.0808   -2.8577 H   0  0  0  0  0  0  0  0  0  0  0  0
   -4.8050    2.1359   -0.4682 H   0  0  0  0  0  0  0  0  0  0  0  0
   13.4694   -1.2482    4.1001 N   0  0  0  0  0  0  0  0  0  0  0  0
   13.2363   -2.1858    3.5633 N   0  0  0  0  0  0  0  0  0  0  0  0
    1.6588    0.7186    0.4549 B   0  0  0  0  0  0  0  0  0  0  0  0
    0.8080   -0.0161    1.3241 F   0  0  0  0  0  0  0  0  0  0  0  0
    1.2031    2.0340    0.3899 F   0  0  0  0  0  0  0  0  0  0  0  0
    2.9723    0.6019    0.8077 F   0  0  0  0  0  0  0  0  0  0  0  0
    1.4666    0.1445   -0.8837 F   0  0  0  0  0  0  0  0  0  0  0  0
   -3.4942    1.4406    1.6295 O   0  0  0  0  0  0  0  0  0  0  0  0
   -2.6669    1.0737    2.7436 C   0  0  0  0  0  0  0  0  0  0  0  0
   -3.2816    1.2371    3.6282 H   0  0  0  0  0  0  0  0  0  0  0  0
   -1.7700    1.6997    2.7895 H   0  0  0  0  0  0  0  0  0  0  0  0
   -2.3742    0.0202    2.6840 H   0  0  0  0  0  0  0  0  0  0  0  0
  1  6  1  0  0  0  0
  1  7  1  0  0  0  0
  2  1  2  0  0  0  0
  3  2  1  0  0  0  0
  4  3  2  0  0  0  0
  4  5  1  0  0  0  0
  5 10  1  0  0  0  0
  5  6  2  0  0  0  0
  6 18  1  0  0  0  0
  8  2  1  0  0  0  0
  9  4  1  0  0  0  0
 12 11  3  0  0  0  0
 13 16  1  0  0  0  0
 13 14  1  0  0  0  0
 15 13  1  0  0  0  0
 17 13  1  0  0  0  0
 18 19  1  0  0  0  0
 19 21  1  0  0  0  0
 19 20  1  0  0  0  0
 22 19  1  0  0  0  0
M  RAD  1   3   2
M  END
