Coordinates from ORCA-job 4-MeO-Ph-N2-BF4-B3LYPG-6-31G_dp-MTMO-d009-169-n800
 OpenBabel09051908083D

 22 20  0  0  0  0  0  0  0  0999 V2000
   -0.8842    0.7428    0.2797 C   0  0  0  0  0  0  0  0  0  0  0  0
   -0.4158    0.6334   -1.0865 C   0  0  0  0  0  0  0  0  0  0  0  0
   -1.3659    1.2250   -1.7517 C   0  0  0  0  0  0  0  0  0  0  0  0
   -2.5459    1.8739   -1.7159 C   0  0  0  0  0  0  0  0  0  0  0  0
   -2.9219    1.9377   -0.3601 C   0  0  0  0  0  0  0  0  0  0  0  0
   -2.0855    1.3725    0.6323 C   0  0  0  0  0  0  0  0  0  0  0  0
   -0.1757    0.2862    0.9757 H   0  0  0  0  0  0  0  0  0  0  0  0
    0.5817    0.1277   -1.2622 H   0  0  0  0  0  0  0  0  0  0  0  0
   -3.1188    2.2770   -2.5388 H   0  0  0  0  0  0  0  0  0  0  0  0
   -3.8535    2.4219   -0.0871 H   0  0  0  0  0  0  0  0  0  0  0  0
    5.0160    0.8558    3.1062 N   0  0  0  0  0  0  0  0  0  0  0  0
    5.6764    0.7930    2.2226 N   0  0  0  0  0  0  0  0  0  0  0  0
    2.3631   -0.0837    0.3110 B   0  0  0  0  0  0  0  0  0  0  0  0
    1.4570   -0.6489    1.2468 F   0  0  0  0  0  0  0  0  0  0  0  0
    2.1868    1.2973    0.2937 F   0  0  0  0  0  0  0  0  0  0  0  0
    3.6514   -0.4762    0.5492 F   0  0  0  0  0  0  0  0  0  0  0  0
    1.9479   -0.5741   -1.0094 F   0  0  0  0  0  0  0  0  0  0  0  0
   -2.5223    1.4875    1.9007 O   0  0  0  0  0  0  0  0  0  0  0  0
   -1.6887    0.9690    2.9476 C   0  0  0  0  0  0  0  0  0  0  0  0
   -2.2154    1.1908    3.8752 H   0  0  0  0  0  0  0  0  0  0  0  0
   -0.7097    1.4585    2.9477 H   0  0  0  0  0  0  0  0  0  0  0  0
   -1.5571   -0.1135    2.8446 H   0  0  0  0  0  0  0  0  0  0  0  0
  1  6  1  0  0  0  0
  1  7  1  0  0  0  0
  2  1  2  0  0  0  0
  3  4  2  0  0  0  0
  3  2  1  0  0  0  0
  4  5  1  0  0  0  0
  5 10  1  0  0  0  0
  5  6  2  0  0  0  0
  6 18  1  0  0  0  0
  8  2  1  0  0  0  0
  9  4  1  0  0  0  0
 12 11  3  0  0  0  0
 13 16  1  0  0  0  0
 13 14  1  0  0  0  0
 15 13  1  0  0  0  0
 17 13  1  0  0  0  0
 18 19  1  0  0  0  0
 19 21  1  0  0  0  0
 19 20  1  0  0  0  0
 22 19  1  0  0  0  0
M  RAD  1   3   2
M  END
