Coordinates from ORCA-job 4-MeO-Ph-N2-BF4-B3LYPG-6-31G_dp-MTMO-d009-169-n800
 OpenBabel09051908083D

 22 20  0  0  0  0  0  0  0  0999 V2000
   -1.3756    0.8895    0.2090 C   0  0  0  0  0  0  0  0  0  0  0  0
   -0.7921    0.8448   -1.1165 C   0  0  0  0  0  0  0  0  0  0  0  0
   -1.7691    1.2787   -1.8595 C   0  0  0  0  0  0  0  0  0  0  0  0
   -3.0352    1.7353   -1.9229 C   0  0  0  0  0  0  0  0  0  0  0  0
   -3.5180    1.7518   -0.6001 C   0  0  0  0  0  0  0  0  0  0  0  0
   -2.6814    1.3301    0.4611 C   0  0  0  0  0  0  0  0  0  0  0  0
   -0.6562    0.5624    0.9649 H   0  0  0  0  0  0  0  0  0  0  0  0
    0.2868    0.5155   -1.2054 H   0  0  0  0  0  0  0  0  0  0  0  0
   -3.6001    2.0351   -2.7941 H   0  0  0  0  0  0  0  0  0  0  0  0
   -4.5304    2.0892   -0.4054 H   0  0  0  0  0  0  0  0  0  0  0  0
   10.7424   -0.7164    3.4472 N   0  0  0  0  0  0  0  0  0  0  0  0
   10.5206   -1.6595    2.9151 N   0  0  0  0  0  0  0  0  0  0  0  0
    1.9297    0.6604    0.5233 B   0  0  0  0  0  0  0  0  0  0  0  0
    1.0765   -0.0733    1.3910 F   0  0  0  0  0  0  0  0  0  0  0  0
    1.4763    1.9767    0.4586 F   0  0  0  0  0  0  0  0  0  0  0  0
    3.2425    0.5413    0.8783 F   0  0  0  0  0  0  0  0  0  0  0  0
    1.7385    0.0876   -0.8157 F   0  0  0  0  0  0  0  0  0  0  0  0
   -3.2225    1.3897    1.6928 O   0  0  0  0  0  0  0  0  0  0  0  0
   -2.3967    1.0202    2.8071 C   0  0  0  0  0  0  0  0  0  0  0  0
   -3.0118    1.1837    3.6914 H   0  0  0  0  0  0  0  0  0  0  0  0
   -1.4987    1.6445    2.8544 H   0  0  0  0  0  0  0  0  0  0  0  0
   -2.1057   -0.0338    2.7467 H   0  0  0  0  0  0  0  0  0  0  0  0
  1  6  1  0  0  0  0
  1  7  1  0  0  0  0
  2  1  2  0  0  0  0
  3  2  1  0  0  0  0
  4  3  2  0  0  0  0
  4  5  1  0  0  0  0
  5 10  1  0  0  0  0
  5  6  2  0  0  0  0
  6 18  1  0  0  0  0
  8  2  1  0  0  0  0
  9  4  1  0  0  0  0
 12 11  3  0  0  0  0
 13 16  1  0  0  0  0
 13 14  1  0  0  0  0
 15 13  1  0  0  0  0
 17 13  1  0  0  0  0
 18 19  1  0  0  0  0
 19 21  1  0  0  0  0
 19 20  1  0  0  0  0
 22 19  1  0  0  0  0
M  RAD  1   3   2
M  END
