Coordinates from ORCA-job 4-MeO-Ph-N2-BF4-B3LYPG-6-31G_dp-MTMO-d009-169-n800
 OpenBabel09051908083D

 22 20  0  0  0  0  0  0  0  0999 V2000
   -1.5259    0.9189    0.1737 C   0  0  0  0  0  0  0  0  0  0  0  0
   -0.9422    0.8746   -1.1518 C   0  0  0  0  0  0  0  0  0  0  0  0
   -1.9212    1.3027   -1.8955 C   0  0  0  0  0  0  0  0  0  0  0  0
   -3.1892    1.7535   -1.9598 C   0  0  0  0  0  0  0  0  0  0  0  0
   -3.6722    1.7701   -0.6370 C   0  0  0  0  0  0  0  0  0  0  0  0
   -2.8336    1.3540    0.4250 C   0  0  0  0  0  0  0  0  0  0  0  0
   -0.8051    0.5963    0.9302 H   0  0  0  0  0  0  0  0  0  0  0  0
    0.1383    0.5502   -1.2402 H   0  0  0  0  0  0  0  0  0  0  0  0
   -3.7555    2.0492   -2.8315 H   0  0  0  0  0  0  0  0  0  0  0  0
   -4.6861    2.1034   -0.4429 H   0  0  0  0  0  0  0  0  0  0  0  0
   12.2573   -1.0248    3.8063 N   0  0  0  0  0  0  0  0  0  0  0  0
   12.0268   -1.9654    3.2735 N   0  0  0  0  0  0  0  0  0  0  0  0
    1.7808    0.7063    0.4876 B   0  0  0  0  0  0  0  0  0  0  0  0
    0.9314   -0.0303    1.3565 F   0  0  0  0  0  0  0  0  0  0  0  0
    1.3211    2.0202    0.4209 F   0  0  0  0  0  0  0  0  0  0  0  0
    3.0943    0.5941    0.8422 F   0  0  0  0  0  0  0  0  0  0  0  0
    1.5919    0.1304   -0.8506 F   0  0  0  0  0  0  0  0  0  0  0  0
   -3.3751    1.4133    1.6565 O   0  0  0  0  0  0  0  0  0  0  0  0
   -2.5477    1.0497    2.7716 C   0  0  0  0  0  0  0  0  0  0  0  0
   -3.1636    1.2122    3.6556 H   0  0  0  0  0  0  0  0  0  0  0  0
   -1.6525    1.6781    2.8177 H   0  0  0  0  0  0  0  0  0  0  0  0
   -2.2521   -0.0031    2.7131 H   0  0  0  0  0  0  0  0  0  0  0  0
  1  6  1  0  0  0  0
  1  7  1  0  0  0  0
  2  1  2  0  0  0  0
  3  2  1  0  0  0  0
  4  3  2  0  0  0  0
  4  5  1  0  0  0  0
  5 10  1  0  0  0  0
  5  6  2  0  0  0  0
  6 18  1  0  0  0  0
  8  2  1  0  0  0  0
  9  4  1  0  0  0  0
 12 11  3  0  0  0  0
 13 16  1  0  0  0  0
 13 14  1  0  0  0  0
 15 13  1  0  0  0  0
 17 13  1  0  0  0  0
 18 19  1  0  0  0  0
 19 21  1  0  0  0  0
 19 20  1  0  0  0  0
 22 19  1  0  0  0  0
M  RAD  1   3   2
M  END
