Coordinates from ORCA-job 4-MeO-Ph-N2-BF4-B3LYPG-6-31G_dp-MTMO-d009-169-n800
 OpenBabel09051908083D

 22 20  0  0  0  0  0  0  0  0999 V2000
   -0.8829    0.7415    0.2801 C   0  0  0  0  0  0  0  0  0  0  0  0
   -0.4148    0.6320   -1.0863 C   0  0  0  0  0  0  0  0  0  0  0  0
   -1.3641    1.2256   -1.7507 C   0  0  0  0  0  0  0  0  0  0  0  0
   -2.5430    1.8765   -1.7143 C   0  0  0  0  0  0  0  0  0  0  0  0
   -2.9187    1.9402   -0.3585 C   0  0  0  0  0  0  0  0  0  0  0  0
   -2.0830    1.3729    0.6334 C   0  0  0  0  0  0  0  0  0  0  0  0
   -0.1747    0.2836    0.9758 H   0  0  0  0  0  0  0  0  0  0  0  0
    0.5817    0.1248   -1.2628 H   0  0  0  0  0  0  0  0  0  0  0  0
   -3.1153    2.2810   -2.5370 H   0  0  0  0  0  0  0  0  0  0  0  0
   -3.8494    2.4259   -0.0850 H   0  0  0  0  0  0  0  0  0  0  0  0
    4.9965    0.8676    3.1028 N   0  0  0  0  0  0  0  0  0  0  0  0
    5.6631    0.8015    2.2240 N   0  0  0  0  0  0  0  0  0  0  0  0
    2.3629   -0.0880    0.3086 B   0  0  0  0  0  0  0  0  0  0  0  0
    1.4572   -0.6532    1.2448 F   0  0  0  0  0  0  0  0  0  0  0  0
    2.1856    1.2930    0.2906 F   0  0  0  0  0  0  0  0  0  0  0  0
    3.6515   -0.4792    0.5473 F   0  0  0  0  0  0  0  0  0  0  0  0
    1.9479   -0.5793   -1.0113 F   0  0  0  0  0  0  0  0  0  0  0  0
   -2.5193    1.4880    1.9019 O   0  0  0  0  0  0  0  0  0  0  0  0
   -1.6862    0.9679    2.9484 C   0  0  0  0  0  0  0  0  0  0  0  0
   -2.2123    1.1902    3.8762 H   0  0  0  0  0  0  0  0  0  0  0  0
   -0.7064    1.4559    2.9484 H   0  0  0  0  0  0  0  0  0  0  0  0
   -1.5563   -0.1148    2.8450 H   0  0  0  0  0  0  0  0  0  0  0  0
  1  6  1  0  0  0  0
  1  7  1  0  0  0  0
  2  1  2  0  0  0  0
  3  4  2  0  0  0  0
  3  2  1  0  0  0  0
  4  5  1  0  0  0  0
  5 10  1  0  0  0  0
  5  6  2  0  0  0  0
  6 18  1  0  0  0  0
  8  2  1  0  0  0  0
  9  4  1  0  0  0  0
 12 11  3  0  0  0  0
 13 16  1  0  0  0  0
 13 14  1  0  0  0  0
 15 13  1  0  0  0  0
 17 13  1  0  0  0  0
 18 19  1  0  0  0  0
 19 20  1  0  0  0  0
 21 19  1  0  0  0  0
 22 19  1  0  0  0  0
M  RAD  1   3   2
M  END
