Coordinates from ORCA-job 4-MeO-Ph-N2-BF4-B3LYPG-6-31G_dp-MTMO-d009-169-n800
 OpenBabel09051908083D

 22 20  0  0  0  0  0  0  0  0999 V2000
   -0.5027    0.6463    0.7352 C   0  0  0  0  0  0  0  0  0  0  0  0
    0.6385    0.8496   -0.1179 C   0  0  0  0  0  0  0  0  0  0  0  0
    0.2258    1.7271   -0.9970 C   0  0  0  0  0  0  0  0  0  0  0  0
   -0.8085    2.4940   -1.4007 C   0  0  0  0  0  0  0  0  0  0  0  0
   -1.8740    2.2412   -0.5178 C   0  0  0  0  0  0  0  0  0  0  0  0
   -1.7164    1.3218    0.5465 C   0  0  0  0  0  0  0  0  0  0  0  0
   -0.2913   -0.0665    1.5341 H   0  0  0  0  0  0  0  0  0  0  0  0
    1.5945    0.3028    0.1124 H   0  0  0  0  0  0  0  0  0  0  0  0
   -0.8472    3.1773   -2.2366 H   0  0  0  0  0  0  0  0  0  0  0  0
   -2.8170    2.7588   -0.6591 H   0  0  0  0  0  0  0  0  0  0  0  0
    2.2188    2.2266   -2.5610 N   0  0  0  0  0  0  0  0  0  0  0  0
    3.1868    2.3266   -3.0829 N   0  0  0  0  0  0  0  0  0  0  0  0
    2.2701   -0.5143    2.2365 B   0  0  0  0  0  0  0  0  0  0  0  0
    1.0558   -1.2477    2.2804 F   0  0  0  0  0  0  0  0  0  0  0  0
    1.9970    0.8224    2.5317 F   0  0  0  0  0  0  0  0  0  0  0  0
    3.2312   -1.0685    3.0352 F   0  0  0  0  0  0  0  0  0  0  0  0
    2.7183   -0.5500    0.8419 F   0  0  0  0  0  0  0  0  0  0  0  0
   -2.7939    1.1591    1.3384 O   0  0  0  0  0  0  0  0  0  0  0  0
   -2.6749    0.2751    2.4610 C   0  0  0  0  0  0  0  0  0  0  0  0
   -3.6376    0.3189    2.9697 H   0  0  0  0  0  0  0  0  0  0  0  0
   -1.8789    0.6039    3.1375 H   0  0  0  0  0  0  0  0  0  0  0  0
   -2.4746   -0.7508    2.1339 H   0  0  0  0  0  0  0  0  0  0  0  0
  1  7  1  0  0  0  0
  2  8  1  0  0  0  0
  2  1  2  0  0  0  0
  3  2  1  0  0  0  0
  4  3  2  0  0  0  0
  4  5  1  0  0  0  0
  5  6  2  0  0  0  0
  6  1  1  0  0  0  0
  6 18  1  0  0  0  0
  9  4  1  0  0  0  0
 10  5  1  0  0  0  0
 12 11  3  0  0  0  0
 13 14  1  0  0  0  0
 13 15  1  0  0  0  0
 13 16  1  0  0  0  0
 17 13  1  0  0  0  0
 18 19  1  0  0  0  0
 19 20  1  0  0  0  0
 19 21  1  0  0  0  0
 22 19  1  0  0  0  0
M  RAD  1   3   2
M  END
