Coordinates from ORCA-job 4-MeO-Ph-N2-BF4-B3LYPG-6-31G_dp-MTMO-d009-169-n800
 OpenBabel09051908083D

 22 20  0  0  0  0  0  0  0  0999 V2000
   -1.2194    0.8626    0.2475 C   0  0  0  0  0  0  0  0  0  0  0  0
   -0.6328    0.8196   -1.0766 C   0  0  0  0  0  0  0  0  0  0  0  0
   -1.6124    1.2414   -1.8231 C   0  0  0  0  0  0  0  0  0  0  0  0
   -2.8827    1.6853   -1.8908 C   0  0  0  0  0  0  0  0  0  0  0  0
   -3.3685    1.7012   -0.5690 C   0  0  0  0  0  0  0  0  0  0  0  0
   -2.5301    1.2911    0.4954 C   0  0  0  0  0  0  0  0  0  0  0  0
   -0.4988    0.5448    1.0061 H   0  0  0  0  0  0  0  0  0  0  0  0
    0.4495    0.5006   -1.1627 H   0  0  0  0  0  0  0  0  0  0  0  0
   -3.4487    1.9769   -2.7641 H   0  0  0  0  0  0  0  0  0  0  0  0
   -4.3846    2.0294   -0.3775 H   0  0  0  0  0  0  0  0  0  0  0  0
    9.2042   -0.4624    3.0709 N   0  0  0  0  0  0  0  0  0  0  0  0
    8.9777   -1.4036    2.5374 N   0  0  0  0  0  0  0  0  0  0  0  0
    2.0884    0.6642    0.5676 B   0  0  0  0  0  0  0  0  0  0  0  0
    1.2398   -0.0766    1.4338 F   0  0  0  0  0  0  0  0  0  0  0  0
    1.6235    1.9763    0.5008 F   0  0  0  0  0  0  0  0  0  0  0  0
    3.4014    0.5571    0.9259 F   0  0  0  0  0  0  0  0  0  0  0  0
    1.9052    0.0886   -0.7714 F   0  0  0  0  0  0  0  0  0  0  0  0
   -3.0746    1.3492    1.7256 O   0  0  0  0  0  0  0  0  0  0  0  0
   -2.2479    0.9913    2.8430 C   0  0  0  0  0  0  0  0  0  0  0  0
   -2.8667    1.1516    3.7254 H   0  0  0  0  0  0  0  0  0  0  0  0
   -1.3562    1.6246    2.8905 H   0  0  0  0  0  0  0  0  0  0  0  0
   -1.9465   -0.0599    2.7866 H   0  0  0  0  0  0  0  0  0  0  0  0
  1  6  1  0  0  0  0
  1  7  1  0  0  0  0
  2  1  2  0  0  0  0
  3  2  1  0  0  0  0
  4  3  2  0  0  0  0
  4  5  1  0  0  0  0
  5 10  1  0  0  0  0
  5  6  2  0  0  0  0
  6 18  1  0  0  0  0
  8  2  1  0  0  0  0
  9  4  1  0  0  0  0
 12 11  3  0  0  0  0
 13 16  1  0  0  0  0
 13 14  1  0  0  0  0
 15 13  1  0  0  0  0
 17 13  1  0  0  0  0
 18 19  1  0  0  0  0
 19 21  1  0  0  0  0
 19 20  1  0  0  0  0
 22 19  1  0  0  0  0
M  RAD  1   3   2
M  END
