Coordinates from ORCA-job 4-MeO-Ph-N2-BF4-B3LYPG-6-31G_dp-MTMO-d009-169-n800
 OpenBabel09051908083D

 22 20  0  0  0  0  0  0  0  0999 V2000
   -0.9733    0.7896    0.3005 C   0  0  0  0  0  0  0  0  0  0  0  0
   -0.3845    0.7201   -1.0217 C   0  0  0  0  0  0  0  0  0  0  0  0
   -1.3287    1.2288   -1.7616 C   0  0  0  0  0  0  0  0  0  0  0  0
   -2.5613    1.7693   -1.8224 C   0  0  0  0  0  0  0  0  0  0  0  0
   -3.0508    1.8011   -0.5023 C   0  0  0  0  0  0  0  0  0  0  0  0
   -2.2487    1.3102    0.5555 C   0  0  0  0  0  0  0  0  0  0  0  0
   -0.2784    0.4065    1.0553 H   0  0  0  0  0  0  0  0  0  0  0  0
    0.6615    0.3096   -1.1022 H   0  0  0  0  0  0  0  0  0  0  0  0
   -3.0990    2.1187   -2.6925 H   0  0  0  0  0  0  0  0  0  0  0  0
   -4.0396    2.2026   -0.3081 H   0  0  0  0  0  0  0  0  0  0  0  0
    6.5973   -0.2264    2.5305 N   0  0  0  0  0  0  0  0  0  0  0  0
    6.4463    0.3892    1.6251 N   0  0  0  0  0  0  0  0  0  0  0  0
    2.2982    0.3086    0.6781 B   0  0  0  0  0  0  0  0  0  0  0  0
    1.3685   -0.2992    1.5686 F   0  0  0  0  0  0  0  0  0  0  0  0
    1.9850    1.6612    0.5645 F   0  0  0  0  0  0  0  0  0  0  0  0
    3.5897    0.0670    1.0600 F   0  0  0  0  0  0  0  0  0  0  0  0
    2.0616   -0.2877   -0.6367 F   0  0  0  0  0  0  0  0  0  0  0  0
   -2.7885    1.3850    1.7864 O   0  0  0  0  0  0  0  0  0  0  0  0
   -1.9962    0.9316    2.8948 C   0  0  0  0  0  0  0  0  0  0  0  0
   -2.6031    1.1165    3.7805 H   0  0  0  0  0  0  0  0  0  0  0  0
   -1.0570    1.4896    2.9601 H   0  0  0  0  0  0  0  0  0  0  0  0
   -1.7791   -0.1384    2.8088 H   0  0  0  0  0  0  0  0  0  0  0  0
  1  6  1  0  0  0  0
  1  7  1  0  0  0  0
  2  1  2  0  0  0  0
  3  2  1  0  0  0  0
  4  3  2  0  0  0  0
  4  5  1  0  0  0  0
  5 10  1  0  0  0  0
  5  6  2  0  0  0  0
  6 18  1  0  0  0  0
  8  2  1  0  0  0  0
  9  4  1  0  0  0  0
 12 11  3  0  0  0  0
 13 16  1  0  0  0  0
 13 14  1  0  0  0  0
 15 13  1  0  0  0  0
 17 13  1  0  0  0  0
 18 19  1  0  0  0  0
 19 21  1  0  0  0  0
 19 20  1  0  0  0  0
 22 19  1  0  0  0  0
M  RAD  1   3   2
M  END
