Coordinates from ORCA-job 4-MeO-Ph-N2-BF4-B3LYPG-6-31G_dp-MTMO-d009-169-n800
 OpenBabel09051908083D

 22 20  0  0  0  0  0  0  0  0999 V2000
   -0.7784    0.7142    0.4776 C   0  0  0  0  0  0  0  0  0  0  0  0
    0.0501    0.8926   -0.6974 C   0  0  0  0  0  0  0  0  0  0  0  0
   -0.6718    1.7049   -1.4151 C   0  0  0  0  0  0  0  0  0  0  0  0
   -1.8095    2.4173   -1.5305 C   0  0  0  0  0  0  0  0  0  0  0  0
   -2.5449    2.1896   -0.3513 C   0  0  0  0  0  0  0  0  0  0  0  0
   -2.0213    1.3369    0.6502 C   0  0  0  0  0  0  0  0  0  0  0  0
   -0.2850    0.0661    1.2093 H   0  0  0  0  0  0  0  0  0  0  0  0
    1.0481    0.3715   -0.7111 H   0  0  0  0  0  0  0  0  0  0  0  0
   -2.1292    3.0447   -2.3506 H   0  0  0  0  0  0  0  0  0  0  0  0
   -3.5086    2.6703   -0.2215 H   0  0  0  0  0  0  0  0  0  0  0  0
    4.4240    1.6663   -0.5714 N   0  0  0  0  0  0  0  0  0  0  0  0
    5.2600    1.2982    0.0503 N   0  0  0  0  0  0  0  0  0  0  0  0
    2.3091   -0.2468    1.2463 B   0  0  0  0  0  0  0  0  0  0  0  0
    1.1990   -0.9023    1.8430 F   0  0  0  0  0  0  0  0  0  0  0  0
    2.1391    1.1327    1.3763 F   0  0  0  0  0  0  0  0  0  0  0  0
    3.4994   -0.7009    1.7420 F   0  0  0  0  0  0  0  0  0  0  0  0
    2.2428   -0.5350   -0.1881 F   0  0  0  0  0  0  0  0  0  0  0  0
   -2.7850    1.1829    1.7480 O   0  0  0  0  0  0  0  0  0  0  0  0
   -2.2860    0.3429    2.7994 C   0  0  0  0  0  0  0  0  0  0  0  0
   -3.0319    0.3946    3.5921 H   0  0  0  0  0  0  0  0  0  0  0  0
   -1.3208    0.7042    3.1686 H   0  0  0  0  0  0  0  0  0  0  0  0
   -2.1795   -0.6914    2.4554 H   0  0  0  0  0  0  0  0  0  0  0  0
  1  6  1  0  0  0  0
  1  7  1  0  0  0  0
  2  1  2  0  0  0  0
  3  2  1  0  0  0  0
  4  3  2  0  0  0  0
  4  5  1  0  0  0  0
  5 10  1  0  0  0  0
  5  6  2  0  0  0  0
  6 18  1  0  0  0  0
  8  2  1  0  0  0  0
  9  4  1  0  0  0  0
 11 12  3  0  0  0  0
 13 15  1  0  0  0  0
 13 16  1  0  0  0  0
 13 14  1  0  0  0  0
 17 13  1  0  0  0  0
 18 19  1  0  0  0  0
 19 21  1  0  0  0  0
 19 20  1  0  0  0  0
 22 19  1  0  0  0  0
M  RAD  1   3   2
M  END
