Coordinates from ORCA-job 4-MeO-Ph-N2-BF4-B3LYPG-6-31G_dp-MTMO-d009-169-n800
 OpenBabel09051908083D

 22 20  0  0  0  0  0  0  0  0999 V2000
   -1.0658    0.8274    0.2823 C   0  0  0  0  0  0  0  0  0  0  0  0
   -0.4780    0.7799   -1.0411 C   0  0  0  0  0  0  0  0  0  0  0  0
   -1.4476    1.2274   -1.7860 C   0  0  0  0  0  0  0  0  0  0  0  0
   -2.7079    1.6993   -1.8521 C   0  0  0  0  0  0  0  0  0  0  0  0
   -3.1952    1.7173   -0.5309 C   0  0  0  0  0  0  0  0  0  0  0  0
   -2.3671    1.2824    0.5317 C   0  0  0  0  0  0  0  0  0  0  0  0
   -0.3528    0.4891    1.0396 H   0  0  0  0  0  0  0  0  0  0  0  0
    0.5965    0.4378   -1.1266 H   0  0  0  0  0  0  0  0  0  0  0  0
   -3.2661    2.0087   -2.7243 H   0  0  0  0  0  0  0  0  0  0  0  0
   -4.2042    2.0661   -0.3387 H   0  0  0  0  0  0  0  0  0  0  0  0
    7.6181   -0.0694    2.6860 N   0  0  0  0  0  0  0  0  0  0  0  0
    7.4195   -1.0133    2.1465 N   0  0  0  0  0  0  0  0  0  0  0  0
    2.2347    0.5590    0.6141 B   0  0  0  0  0  0  0  0  0  0  0  0
    1.3676   -0.1655    1.4761 F   0  0  0  0  0  0  0  0  0  0  0  0
    1.7986    1.8811    0.5502 F   0  0  0  0  0  0  0  0  0  0  0  0
    3.5439    0.4226    0.9777 F   0  0  0  0  0  0  0  0  0  0  0  0
    2.0443   -0.0083   -0.7265 F   0  0  0  0  0  0  0  0  0  0  0  0
   -2.9115    1.3442    1.7617 O   0  0  0  0  0  0  0  0  0  0  0  0
   -2.0937    0.9609    2.8775 C   0  0  0  0  0  0  0  0  0  0  0  0
   -2.7096    1.1287    3.7604 H   0  0  0  0  0  0  0  0  0  0  0  0
   -1.1885    1.5743    2.9297 H   0  0  0  0  0  0  0  0  0  0  0  0
   -1.8151   -0.0962    2.8141 H   0  0  0  0  0  0  0  0  0  0  0  0
  1  6  1  0  0  0  0
  1  7  1  0  0  0  0
  2  1  2  0  0  0  0
  3  2  1  0  0  0  0
  4  3  2  0  0  0  0
  4  5  1  0  0  0  0
  5 10  1  0  0  0  0
  5  6  2  0  0  0  0
  6 18  1  0  0  0  0
  8  2  1  0  0  0  0
  9  4  1  0  0  0  0
 12 11  3  0  0  0  0
 13 16  1  0  0  0  0
 13 14  1  0  0  0  0
 15 13  1  0  0  0  0
 17 13  1  0  0  0  0
 18 19  1  0  0  0  0
 19 21  1  0  0  0  0
 19 20  1  0  0  0  0
 22 19  1  0  0  0  0
M  RAD  1   3   2
M  END
