Coordinates from ORCA-job 4-MeO-Ph-N2-BF4-B3LYPG-6-31G_dp-MTMO-d009-169-n800
 OpenBabel09051908083D

 22 20  0  0  0  0  0  0  0  0999 V2000
   -0.9274    0.7516    0.3016 C   0  0  0  0  0  0  0  0  0  0  0  0
   -0.3876    0.6674   -1.0402 C   0  0  0  0  0  0  0  0  0  0  0  0
   -1.3115    1.2560   -1.7438 C   0  0  0  0  0  0  0  0  0  0  0  0
   -2.5017    1.8873   -1.7590 C   0  0  0  0  0  0  0  0  0  0  0  0
   -2.9475    1.9268   -0.4236 C   0  0  0  0  0  0  0  0  0  0  0  0
   -2.1539    1.3589    0.6018 C   0  0  0  0  0  0  0  0  0  0  0  0
   -0.2465    0.2976    1.0268 H   0  0  0  0  0  0  0  0  0  0  0  0
    0.6239    0.1779   -1.1687 H   0  0  0  0  0  0  0  0  0  0  0  0
   -3.0375    2.2937   -2.6049 H   0  0  0  0  0  0  0  0  0  0  0  0
   -3.8986    2.3942   -0.1920 H   0  0  0  0  0  0  0  0  0  0  0  0
    5.6534    0.5884    2.7752 N   0  0  0  0  0  0  0  0  0  0  0  0
    6.1230    0.8347    1.8058 N   0  0  0  0  0  0  0  0  0  0  0  0
    2.3200   -0.0197    0.5008 B   0  0  0  0  0  0  0  0  0  0  0  0
    1.3794   -0.6003    1.3925 F   0  0  0  0  0  0  0  0  0  0  0  0
    2.1191    1.3579    0.4717 F   0  0  0  0  0  0  0  0  0  0  0  0
    3.6020   -0.3877    0.8060 F   0  0  0  0  0  0  0  0  0  0  0  0
    1.9823   -0.5189   -0.8370 F   0  0  0  0  0  0  0  0  0  0  0  0
   -2.6550    1.4494    1.8483 O   0  0  0  0  0  0  0  0  0  0  0  0
   -1.8661    0.9282    2.9282 C   0  0  0  0  0  0  0  0  0  0  0  0
   -2.4398    1.1318    3.8318 H   0  0  0  0  0  0  0  0  0  0  0  0
   -0.8945    1.4294    2.9809 H   0  0  0  0  0  0  0  0  0  0  0  0
   -1.7155   -0.1512    2.8188 H   0  0  0  0  0  0  0  0  0  0  0  0
  1  6  1  0  0  0  0
  1  7  1  0  0  0  0
  2  1  2  0  0  0  0
  3  2  1  0  0  0  0
  4  3  2  0  0  0  0
  4  5  1  0  0  0  0
  5 10  1  0  0  0  0
  5  6  2  0  0  0  0
  6 18  1  0  0  0  0
  8  2  1  0  0  0  0
  9  4  1  0  0  0  0
 12 11  3  0  0  0  0
 13 16  1  0  0  0  0
 13 14  1  0  0  0  0
 15 13  1  0  0  0  0
 17 13  1  0  0  0  0
 18 19  1  0  0  0  0
 19 21  1  0  0  0  0
 19 20  1  0  0  0  0
 22 19  1  0  0  0  0
M  RAD  1   3   2
M  END
