Coordinates from ORCA-job 4-MeO-Ph-N2-BF4-B3LYPG-6-31G_dp-MTMO-d009-169-n800
 OpenBabel09051908083D

 22 20  0  0  0  0  0  0  0  0999 V2000
   -1.1390    0.8417    0.2651 C   0  0  0  0  0  0  0  0  0  0  0  0
   -0.5526    0.7946   -1.0590 C   0  0  0  0  0  0  0  0  0  0  0  0
   -1.5225    1.2434   -1.8027 C   0  0  0  0  0  0  0  0  0  0  0  0
   -2.7824    1.7163   -1.8674 C   0  0  0  0  0  0  0  0  0  0  0  0
   -3.2685    1.7338   -0.5457 C   0  0  0  0  0  0  0  0  0  0  0  0
   -2.4398    1.2975    0.5159 C   0  0  0  0  0  0  0  0  0  0  0  0
   -0.4257    0.5023    1.0214 H   0  0  0  0  0  0  0  0  0  0  0  0
    0.5216    0.4511   -1.1462 H   0  0  0  0  0  0  0  0  0  0  0  0
   -3.3412    2.0268   -2.7388 H   0  0  0  0  0  0  0  0  0  0  0  0
   -4.2771    2.0832   -0.3523 H   0  0  0  0  0  0  0  0  0  0  0  0
    8.3505   -0.1904    2.8608 N   0  0  0  0  0  0  0  0  0  0  0  0
    8.1503   -1.1423    2.3359 N   0  0  0  0  0  0  0  0  0  0  0  0
    2.1612    0.5644    0.5904 B   0  0  0  0  0  0  0  0  0  0  0  0
    1.2943   -0.1595    1.4530 F   0  0  0  0  0  0  0  0  0  0  0  0
    1.7273    1.8875    0.5288 F   0  0  0  0  0  0  0  0  0  0  0  0
    3.4708    0.4251    0.9506 F   0  0  0  0  0  0  0  0  0  0  0  0
    1.9669   -0.0009   -0.7508 F   0  0  0  0  0  0  0  0  0  0  0  0
   -2.9831    1.3588    1.7464 O   0  0  0  0  0  0  0  0  0  0  0  0
   -2.1648    0.9742    2.8612 C   0  0  0  0  0  0  0  0  0  0  0  0
   -2.7801    1.1414    3.7447 H   0  0  0  0  0  0  0  0  0  0  0  0
   -1.2594    1.5872    2.9134 H   0  0  0  0  0  0  0  0  0  0  0  0
   -1.8866   -0.0830    2.7967 H   0  0  0  0  0  0  0  0  0  0  0  0
  1  6  1  0  0  0  0
  1  7  1  0  0  0  0
  2  1  2  0  0  0  0
  3  2  1  0  0  0  0
  4  3  2  0  0  0  0
  4  5  1  0  0  0  0
  5 10  1  0  0  0  0
  5  6  2  0  0  0  0
  6 18  1  0  0  0  0
  8  2  1  0  0  0  0
  9  4  1  0  0  0  0
 12 11  3  0  0  0  0
 13 16  1  0  0  0  0
 13 14  1  0  0  0  0
 15 13  1  0  0  0  0
 17 13  1  0  0  0  0
 18 19  1  0  0  0  0
 19 21  1  0  0  0  0
 19 20  1  0  0  0  0
 22 19  1  0  0  0  0
M  RAD  1   3   2
M  END
