Coordinates from ORCA-job 4-MeO-Ph-N2-BF4-B3LYPG-6-31G_dp-MTMO-d009-169-n800
 OpenBabel09051908083D

 22 20  0  0  0  0  0  0  0  0999 V2000
   -0.7706    0.7097    0.4821 C   0  0  0  0  0  0  0  0  0  0  0  0
    0.0650    0.8874   -0.6880 C   0  0  0  0  0  0  0  0  0  0  0  0
   -0.6485    1.7058   -1.4072 C   0  0  0  0  0  0  0  0  0  0  0  0
   -1.7823    2.4235   -1.5271 C   0  0  0  0  0  0  0  0  0  0  0  0
   -2.5252    2.1961   -0.3526 C   0  0  0  0  0  0  0  0  0  0  0  0
   -2.0114    1.3381    0.6494 C   0  0  0  0  0  0  0  0  0  0  0  0
   -0.2838    0.0586    1.2155 H   0  0  0  0  0  0  0  0  0  0  0  0
    1.0608    0.3619   -0.6976 H   0  0  0  0  0  0  0  0  0  0  0  0
   -2.0947    3.0545   -2.3474 H   0  0  0  0  0  0  0  0  0  0  0  0
   -3.4872    2.6811   -0.2267 H   0  0  0  0  0  0  0  0  0  0  0  0
    4.3339    1.6800   -0.6142 N   0  0  0  0  0  0  0  0  0  0  0  0
    5.2009    1.3477   -0.0151 N   0  0  0  0  0  0  0  0  0  0  0  0
    2.3112   -0.2581    1.2653 B   0  0  0  0  0  0  0  0  0  0  0  0
    1.1982   -0.9112    1.8585 F   0  0  0  0  0  0  0  0  0  0  0  0
    2.1424    1.1219    1.3924 F   0  0  0  0  0  0  0  0  0  0  0  0
    3.4993   -0.7127    1.7654 F   0  0  0  0  0  0  0  0  0  0  0  0
    2.2496   -0.5482   -0.1692 F   0  0  0  0  0  0  0  0  0  0  0  0
   -2.7820    1.1850    1.7425 O   0  0  0  0  0  0  0  0  0  0  0  0
   -2.2935    0.3395    2.7943 C   0  0  0  0  0  0  0  0  0  0  0  0
   -3.0432    0.3931    3.5832 H   0  0  0  0  0  0  0  0  0  0  0  0
   -1.3282    0.6943    3.1697 H   0  0  0  0  0  0  0  0  0  0  0  0
   -2.1908   -0.6945    2.4480 H   0  0  0  0  0  0  0  0  0  0  0  0
  1  6  1  0  0  0  0
  1  7  1  0  0  0  0
  2  1  2  0  0  0  0
  3  2  1  0  0  0  0
  4  3  2  0  0  0  0
  4  5  1  0  0  0  0
  5 10  1  0  0  0  0
  5  6  2  0  0  0  0
  6 18  1  0  0  0  0
  8  2  1  0  0  0  0
  9  4  1  0  0  0  0
 11 12  3  0  0  0  0
 13 15  1  0  0  0  0
 13 16  1  0  0  0  0
 13 14  1  0  0  0  0
 17 13  1  0  0  0  0
 18 19  1  0  0  0  0
 19 21  1  0  0  0  0
 19 20  1  0  0  0  0
 22 19  1  0  0  0  0
M  RAD  1   3   2
M  END
