Coordinates from ORCA-job 4-MeO-Ph-N2-BF4-B3LYPG-6-31G_dp-MTMO-d009-169-n800
 OpenBabel09051908083D

 22 20  0  0  0  0  0  0  0  0999 V2000
   -0.7885    0.7207    0.4720 C   0  0  0  0  0  0  0  0  0  0  0  0
    0.0306    0.9001   -0.7095 C   0  0  0  0  0  0  0  0  0  0  0  0
   -0.7029    1.7035   -1.4256 C   0  0  0  0  0  0  0  0  0  0  0  0
   -1.8459    2.4082   -1.5352 C   0  0  0  0  0  0  0  0  0  0  0  0
   -2.5713    2.1803   -0.3499 C   0  0  0  0  0  0  0  0  0  0  0  0
   -2.0344    1.3355    0.6512 C   0  0  0  0  0  0  0  0  0  0  0  0
   -0.2863    0.0769    1.2016 H   0  0  0  0  0  0  0  0  0  0  0  0
    1.0314    0.3844   -0.7289 H   0  0  0  0  0  0  0  0  0  0  0  0
   -2.1755    3.0305   -2.3554 H   0  0  0  0  0  0  0  0  0  0  0  0
   -3.5374    2.6548   -0.2151 H   0  0  0  0  0  0  0  0  0  0  0  0
    4.5432    1.6487   -0.5110 N   0  0  0  0  0  0  0  0  0  0  0  0
    5.3353    1.2356    0.1393 N   0  0  0  0  0  0  0  0  0  0  0  0
    2.3069   -0.2335    1.2196 B   0  0  0  0  0  0  0  0  0  0  0  0
    1.2004   -0.8924    1.8198 F   0  0  0  0  0  0  0  0  0  0  0  0
    2.1363    1.1450    1.3554 F   0  0  0  0  0  0  0  0  0  0  0  0
    3.4997   -0.6889    1.7086 F   0  0  0  0  0  0  0  0  0  0  0  0
    2.2341   -0.5170   -0.2151 F   0  0  0  0  0  0  0  0  0  0  0  0
   -2.7891    1.1802    1.7550 O   0  0  0  0  0  0  0  0  0  0  0  0
   -2.2759    0.3490    2.8065 C   0  0  0  0  0  0  0  0  0  0  0  0
   -3.0168    0.3976    3.6041 H   0  0  0  0  0  0  0  0  0  0  0  0
   -1.3114    0.7202    3.1677 H   0  0  0  0  0  0  0  0  0  0  0  0
   -2.1626   -0.6858    2.4662 H   0  0  0  0  0  0  0  0  0  0  0  0
  1  6  1  0  0  0  0
  1  7  1  0  0  0  0
  2  1  2  0  0  0  0
  3  2  1  0  0  0  0
  4  3  2  0  0  0  0
  4  5  1  0  0  0  0
  5 10  1  0  0  0  0
  5  6  2  0  0  0  0
  6 18  1  0  0  0  0
  8  2  1  0  0  0  0
  9  4  1  0  0  0  0
 11 12  3  0  0  0  0
 13 15  1  0  0  0  0
 13 16  1  0  0  0  0
 13 14  1  0  0  0  0
 17 13  1  0  0  0  0
 18 19  1  0  0  0  0
 19 21  1  0  0  0  0
 19 20  1  0  0  0  0
 22 19  1  0  0  0  0
M  RAD  1   3   2
M  END
