Coordinates from ORCA-job 4-MeO-Ph-N2-BF4-B3LYPG-6-31G_dp-MTMO-d009-169-n800
 OpenBabel09051908083D

 22 20  0  0  0  0  0  0  0  0999 V2000
   -1.3096    0.8776    0.2247 C   0  0  0  0  0  0  0  0  0  0  0  0
   -0.7252    0.8336   -1.1004 C   0  0  0  0  0  0  0  0  0  0  0  0
   -1.7032    1.2636   -1.8443 C   0  0  0  0  0  0  0  0  0  0  0  0
   -2.9707    1.7161   -1.9089 C   0  0  0  0  0  0  0  0  0  0  0  0
   -3.4544    1.7323   -0.5864 C   0  0  0  0  0  0  0  0  0  0  0  0
   -2.6170    1.3143    0.4757 C   0  0  0  0  0  0  0  0  0  0  0  0
   -0.5897    0.5535    0.9814 H   0  0  0  0  0  0  0  0  0  0  0  0
    0.3548    0.5079   -1.1883 H   0  0  0  0  0  0  0  0  0  0  0  0
   -3.5361    2.0132   -2.7807 H   0  0  0  0  0  0  0  0  0  0  0  0
   -4.4680    2.0667   -0.3926 H   0  0  0  0  0  0  0  0  0  0  0  0
   10.0883   -0.6046    3.2882 N   0  0  0  0  0  0  0  0  0  0  0  0
    9.8695   -1.5490    2.7573 N   0  0  0  0  0  0  0  0  0  0  0  0
    1.9962    0.6597    0.5418 B   0  0  0  0  0  0  0  0  0  0  0  0
    1.1446   -0.0759    1.4097 F   0  0  0  0  0  0  0  0  0  0  0  0
    1.5387    1.9745    0.4755 F   0  0  0  0  0  0  0  0  0  0  0  0
    3.3091    0.5452    0.8981 F   0  0  0  0  0  0  0  0  0  0  0  0
    1.8078    0.0849   -0.7967 F   0  0  0  0  0  0  0  0  0  0  0  0
   -3.1590    1.3733    1.7070 O   0  0  0  0  0  0  0  0  0  0  0  0
   -2.3326    1.0075    2.8222 C   0  0  0  0  0  0  0  0  0  0  0  0
   -2.9487    1.1701    3.7060 H   0  0  0  0  0  0  0  0  0  0  0  0
   -1.4366    1.6347    2.8692 H   0  0  0  0  0  0  0  0  0  0  0  0
   -2.0384   -0.0456    2.7630 H   0  0  0  0  0  0  0  0  0  0  0  0
  1  6  1  0  0  0  0
  1  7  1  0  0  0  0
  2  1  2  0  0  0  0
  3  2  1  0  0  0  0
  4  3  2  0  0  0  0
  4  5  1  0  0  0  0
  5 10  1  0  0  0  0
  5  6  2  0  0  0  0
  6 18  1  0  0  0  0
  8  2  1  0  0  0  0
  9  4  1  0  0  0  0
 12 11  3  0  0  0  0
 13 16  1  0  0  0  0
 13 14  1  0  0  0  0
 15 13  1  0  0  0  0
 17 13  1  0  0  0  0
 18 19  1  0  0  0  0
 19 21  1  0  0  0  0
 19 20  1  0  0  0  0
 22 19  1  0  0  0  0
M  RAD  1   3   2
M  END
