Coordinates from ORCA-job 4-MeO-Ph-N2-BF4-B3LYPG-6-31G_dp-MTMO-d009-169-n800
 OpenBabel09051908083D

 22 21  0  0  0  0  0  0  0  0999 V2000
   -0.3006    0.5180    0.4160 C   0  0  0  0  0  0  0  0  0  0  0  0
    0.7186    0.8101   -0.4854 C   0  0  0  0  0  0  0  0  0  0  0  0
    0.3886    1.8048   -1.3730 C   0  0  0  0  0  0  0  0  0  0  0  0
   -0.7525    2.5829   -1.4872 C   0  0  0  0  0  0  0  0  0  0  0  0
   -1.7241    2.2775   -0.5455 C   0  0  0  0  0  0  0  0  0  0  0  0
   -1.4907    1.2713    0.4275 C   0  0  0  0  0  0  0  0  0  0  0  0
   -0.1065   -0.2795    1.1306 H   0  0  0  0  0  0  0  0  0  0  0  0
    1.6701    0.2976   -0.3804 H   0  0  0  0  0  0  0  0  0  0  0  0
   -0.8823    3.3568   -2.2323 H   0  0  0  0  0  0  0  0  0  0  0  0
   -2.6606    2.8233   -0.5261 H   0  0  0  0  0  0  0  0  0  0  0  0
    1.6609    2.2402   -2.4471 N   0  0  0  0  0  0  0  0  0  0  0  0
    2.5040    2.4623   -3.1322 N   0  0  0  0  0  0  0  0  0  0  0  0
    1.7643   -0.5241    2.6025 B   0  0  0  0  0  0  0  0  0  0  0  0
    0.7103   -1.4534    2.3398 F   0  0  0  0  0  0  0  0  0  0  0  0
    1.1535    0.7001    2.9608 F   0  0  0  0  0  0  0  0  0  0  0  0
    2.5996   -0.9892    3.5889 F   0  0  0  0  0  0  0  0  0  0  0  0
    2.4774   -0.3363    1.3800 F   0  0  0  0  0  0  0  0  0  0  0  0
   -2.4434    1.1092    1.3448 O   0  0  0  0  0  0  0  0  0  0  0  0
   -2.1568    0.2495    2.4775 C   0  0  0  0  0  0  0  0  0  0  0  0
   -2.9706    0.4310    3.1787 H   0  0  0  0  0  0  0  0  0  0  0  0
   -1.1870    0.5007    2.9157 H   0  0  0  0  0  0  0  0  0  0  0  0
   -2.1521   -0.7994    2.1679 H   0  0  0  0  0  0  0  0  0  0  0  0
  1  6  1  0  0  0  0
  1  7  1  0  0  0  0
  2  8  1  0  0  0  0
  2  1  2  0  0  0  0
  3  2  1  0  0  0  0
  4  3  2  0  0  0  0
  4  5  1  0  0  0  0
  5 10  1  0  0  0  0
  5  6  2  0  0  0  0
  6 18  1  0  0  0  0
  9  4  1  0  0  0  0
 11  3  1  0  0  0  0
 12 11  1  0  0  0  0
 13 15  1  0  0  0  0
 13 16  1  0  0  0  0
 14 13  1  0  0  0  0
 17 13  1  0  0  0  0
 18 19  1  0  0  0  0
 19 21  1  0  0  0  0
 19 20  1  0  0  0  0
 22 19  1  0  0  0  0
M  RAD  2  11   2  12   3
M  END
