Coordinates from ORCA-job 4-MeO-Ph-N2-BF4-B3LYPG-6-31G_dp-MTMO-d009-169-n800
 OpenBabel09051908083D

 22 20  0  0  0  0  0  0  0  0999 V2000
   -1.1319    0.8405    0.2668 C   0  0  0  0  0  0  0  0  0  0  0  0
   -0.5454    0.7934   -1.0573 C   0  0  0  0  0  0  0  0  0  0  0  0
   -1.5153    1.2419   -1.8011 C   0  0  0  0  0  0  0  0  0  0  0  0
   -2.7753    1.7146   -1.8659 C   0  0  0  0  0  0  0  0  0  0  0  0
   -3.2615    1.7321   -0.5443 C   0  0  0  0  0  0  0  0  0  0  0  0
   -2.4328    1.2960    0.5174 C   0  0  0  0  0  0  0  0  0  0  0  0
   -0.4185    0.5013    1.0232 H   0  0  0  0  0  0  0  0  0  0  0  0
    0.5289    0.4502   -1.1444 H   0  0  0  0  0  0  0  0  0  0  0  0
   -3.3341    2.0249   -2.7374 H   0  0  0  0  0  0  0  0  0  0  0  0
   -4.2702    2.0812   -0.3509 H   0  0  0  0  0  0  0  0  0  0  0  0
    8.2791   -0.1786    2.8436 N   0  0  0  0  0  0  0  0  0  0  0  0
    8.0795   -1.1304    2.3184 N   0  0  0  0  0  0  0  0  0  0  0  0
    2.1683    0.5640    0.5926 B   0  0  0  0  0  0  0  0  0  0  0  0
    1.3015   -0.1600    1.4551 F   0  0  0  0  0  0  0  0  0  0  0  0
    1.7342    1.8869    0.5308 F   0  0  0  0  0  0  0  0  0  0  0  0
    3.4779    0.4249    0.9529 F   0  0  0  0  0  0  0  0  0  0  0  0
    1.9743   -0.0015   -0.7486 F   0  0  0  0  0  0  0  0  0  0  0  0
   -2.9762    1.3573    1.7479 O   0  0  0  0  0  0  0  0  0  0  0  0
   -2.1578    0.9729    2.8628 C   0  0  0  0  0  0  0  0  0  0  0  0
   -2.7732    1.1400    3.7462 H   0  0  0  0  0  0  0  0  0  0  0  0
   -1.2525    1.5861    2.9150 H   0  0  0  0  0  0  0  0  0  0  0  0
   -1.8794   -0.0842    2.7984 H   0  0  0  0  0  0  0  0  0  0  0  0
  1  6  1  0  0  0  0
  1  7  1  0  0  0  0
  2  1  2  0  0  0  0
  3  2  1  0  0  0  0
  4  3  2  0  0  0  0
  4  5  1  0  0  0  0
  5 10  1  0  0  0  0
  5  6  2  0  0  0  0
  6 18  1  0  0  0  0
  8  2  1  0  0  0  0
  9  4  1  0  0  0  0
 12 11  3  0  0  0  0
 13 16  1  0  0  0  0
 13 14  1  0  0  0  0
 15 13  1  0  0  0  0
 17 13  1  0  0  0  0
 18 19  1  0  0  0  0
 19 21  1  0  0  0  0
 19 20  1  0  0  0  0
 22 19  1  0  0  0  0
M  RAD  1   3   2
M  END
