Coordinates from ORCA-job 4-MeO-Ph-N2-BF4-B3LYPG-6-31G_dp-MTMO-d009-169-n800
 OpenBabel09051908083D

 22 20  0  0  0  0  0  0  0  0999 V2000
   -1.5561    0.9244    0.1665 C   0  0  0  0  0  0  0  0  0  0  0  0
   -0.9726    0.8798   -1.1590 C   0  0  0  0  0  0  0  0  0  0  0  0
   -1.9509    1.3097   -1.9025 C   0  0  0  0  0  0  0  0  0  0  0  0
   -3.2184    1.7623   -1.9665 C   0  0  0  0  0  0  0  0  0  0  0  0
   -3.7012    1.7791   -0.6437 C   0  0  0  0  0  0  0  0  0  0  0  0
   -2.8632    1.3615    0.4181 C   0  0  0  0  0  0  0  0  0  0  0  0
   -0.8358    0.6006    0.9229 H   0  0  0  0  0  0  0  0  0  0  0  0
    0.1074    0.5538   -1.2476 H   0  0  0  0  0  0  0  0  0  0  0  0
   -3.7843    2.0592   -2.8381 H   0  0  0  0  0  0  0  0  0  0  0  0
   -4.7146    2.1138   -0.4494 H   0  0  0  0  0  0  0  0  0  0  0  0
   12.5571   -1.0774    3.8781 N   0  0  0  0  0  0  0  0  0  0  0  0
   12.3263   -2.0172    3.3442 N   0  0  0  0  0  0  0  0  0  0  0  0
    1.7503    0.7067    0.4801 B   0  0  0  0  0  0  0  0  0  0  0  0
    0.8998   -0.0289    1.3489 F   0  0  0  0  0  0  0  0  0  0  0  0
    1.2925    2.0213    0.4139 F   0  0  0  0  0  0  0  0  0  0  0  0
    3.0636    0.5924    0.8345 F   0  0  0  0  0  0  0  0  0  0  0  0
    1.5603    0.1316   -0.8583 F   0  0  0  0  0  0  0  0  0  0  0  0
   -3.4045    1.4211    1.6496 O   0  0  0  0  0  0  0  0  0  0  0  0
   -2.5776    1.0557    2.7645 C   0  0  0  0  0  0  0  0  0  0  0  0
   -3.1932    1.2187    3.6486 H   0  0  0  0  0  0  0  0  0  0  0  0
   -1.6815    1.6828    2.8109 H   0  0  0  0  0  0  0  0  0  0  0  0
   -2.2835    0.0026    2.7056 H   0  0  0  0  0  0  0  0  0  0  0  0
  1  6  1  0  0  0  0
  1  7  1  0  0  0  0
  2  1  2  0  0  0  0
  3  2  1  0  0  0  0
  4  3  2  0  0  0  0
  4  5  1  0  0  0  0
  5 10  1  0  0  0  0
  5  6  2  0  0  0  0
  6 18  1  0  0  0  0
  8  2  1  0  0  0  0
  9  4  1  0  0  0  0
 12 11  3  0  0  0  0
 13 16  1  0  0  0  0
 13 14  1  0  0  0  0
 15 13  1  0  0  0  0
 17 13  1  0  0  0  0
 18 19  1  0  0  0  0
 19 21  1  0  0  0  0
 19 20  1  0  0  0  0
 22 19  1  0  0  0  0
M  RAD  1   3   2
M  END
