Coordinates from ORCA-job 4-MeO-Ph-N2-BF4-B3LYPG-6-31G_dp-MTMO-d009-169-n800
 OpenBabel09051908083D

 22 20  0  0  0  0  0  0  0  0999 V2000
   -0.8307    0.6926    0.4153 C   0  0  0  0  0  0  0  0  0  0  0  0
   -0.1092    0.7865   -0.8373 C   0  0  0  0  0  0  0  0  0  0  0  0
   -0.8791    1.5702   -1.5366 C   0  0  0  0  0  0  0  0  0  0  0  0
   -2.0031    2.3111   -1.5883 C   0  0  0  0  0  0  0  0  0  0  0  0
   -2.6320    2.1679   -0.3364 C   0  0  0  0  0  0  0  0  0  0  0  0
   -2.0379    1.3593    0.6623 C   0  0  0  0  0  0  0  0  0  0  0  0
   -0.2971    0.0568    1.1280 H   0  0  0  0  0  0  0  0  0  0  0  0
    0.8712    0.2343   -0.9187 H   0  0  0  0  0  0  0  0  0  0  0  0
   -2.3808    2.9043   -2.4091 H   0  0  0  0  0  0  0  0  0  0  0  0
   -3.5694    2.6805   -0.1485 H   0  0  0  0  0  0  0  0  0  0  0  0
    4.7979    2.0760    0.3588 N   0  0  0  0  0  0  0  0  0  0  0  0
    5.4444    1.3472    0.8804 N   0  0  0  0  0  0  0  0  0  0  0  0
    2.2730   -0.3901    0.9233 B   0  0  0  0  0  0  0  0  0  0  0  0
    1.1881   -1.0353    1.5734 F   0  0  0  0  0  0  0  0  0  0  0  0
    2.1395    0.9892    1.0945 F   0  0  0  0  0  0  0  0  0  0  0  0
    3.4815   -0.8772    1.3375 F   0  0  0  0  0  0  0  0  0  0  0  0
    2.1121   -0.6478   -0.5096 F   0  0  0  0  0  0  0  0  0  0  0  0
   -2.7024    1.2882    1.8309 O   0  0  0  0  0  0  0  0  0  0  0  0
   -2.1112    0.5248    2.8930 C   0  0  0  0  0  0  0  0  0  0  0  0
   -2.7849    0.6366    3.7419 H   0  0  0  0  0  0  0  0  0  0  0  0
   -1.1192    0.9111    3.1482 H   0  0  0  0  0  0  0  0  0  0  0  0
   -2.0310   -0.5324    2.6182 H   0  0  0  0  0  0  0  0  0  0  0  0
  1  6  1  0  0  0  0
  1  7  1  0  0  0  0
  2  1  2  0  0  0  0
  3  2  1  0  0  0  0
  4  3  2  0  0  0  0
  4  5  1  0  0  0  0
  5 10  1  0  0  0  0
  5  6  2  0  0  0  0
  6 18  1  0  0  0  0
  8  2  1  0  0  0  0
  9  4  1  0  0  0  0
 11 12  3  0  0  0  0
 13 15  1  0  0  0  0
 13 16  1  0  0  0  0
 13 14  1  0  0  0  0
 17 13  1  0  0  0  0
 18 19  1  0  0  0  0
 19 21  1  0  0  0  0
 19 20  1  0  0  0  0
 22 19  1  0  0  0  0
M  RAD  1   3   2
M  END
