Coordinates from ORCA-job 4-MeO-Ph-N2-BF4-B3LYPG-6-31G_dp-MTMO-d009-169-n800
 OpenBabel09051908083D

 22 20  0  0  0  0  0  0  0  0999 V2000
   -0.8418    0.6955    0.4005 C   0  0  0  0  0  0  0  0  0  0  0  0
   -0.1502    0.7691   -0.8702 C   0  0  0  0  0  0  0  0  0  0  0  0
   -0.9401    1.5353   -1.5662 C   0  0  0  0  0  0  0  0  0  0  0  0
   -2.0668    2.2728   -1.6050 C   0  0  0  0  0  0  0  0  0  0  0  0
   -2.6657    2.1507   -0.3361 C   0  0  0  0  0  0  0  0  0  0  0  0
   -2.0454    1.3631    0.6632 C   0  0  0  0  0  0  0  0  0  0  0  0
   -0.2928    0.0700    1.1101 H   0  0  0  0  0  0  0  0  0  0  0  0
    0.8301    0.2172   -0.9668 H   0  0  0  0  0  0  0  0  0  0  0  0
   -2.4655    2.8502   -2.4271 H   0  0  0  0  0  0  0  0  0  0  0  0
   -3.6006    2.6632   -0.1358 H   0  0  0  0  0  0  0  0  0  0  0  0
    4.8793    2.1042    0.6319 N   0  0  0  0  0  0  0  0  0  0  0  0
    5.4915    1.3077    1.0922 N   0  0  0  0  0  0  0  0  0  0  0  0
    2.2761   -0.3979    0.8412 B   0  0  0  0  0  0  0  0  0  0  0  0
    1.1965   -1.0401    1.5027 F   0  0  0  0  0  0  0  0  0  0  0  0
    2.1564    0.9805    1.0246 F   0  0  0  0  0  0  0  0  0  0  0  0
    3.4867   -0.8983    1.2323 F   0  0  0  0  0  0  0  0  0  0  0  0
    2.0895   -0.6448   -0.5914 F   0  0  0  0  0  0  0  0  0  0  0  0
   -2.6826    1.3113    1.8479 O   0  0  0  0  0  0  0  0  0  0  0  0
   -2.0636    0.5712    2.9107 C   0  0  0  0  0  0  0  0  0  0  0  0
   -2.7196    0.6945    3.7717 H   0  0  0  0  0  0  0  0  0  0  0  0
   -1.0690    0.9685    3.1373 H   0  0  0  0  0  0  0  0  0  0  0  0
   -1.9825   -0.4905    2.6536 H   0  0  0  0  0  0  0  0  0  0  0  0
  1  6  1  0  0  0  0
  1  7  1  0  0  0  0
  2  1  2  0  0  0  0
  3  2  1  0  0  0  0
  4  3  2  0  0  0  0
  4  5  1  0  0  0  0
  5 10  1  0  0  0  0
  5  6  2  0  0  0  0
  6 18  1  0  0  0  0
  8  2  1  0  0  0  0
  9  4  1  0  0  0  0
 11 12  3  0  0  0  0
 13 15  1  0  0  0  0
 13 16  1  0  0  0  0
 13 14  1  0  0  0  0
 17 13  1  0  0  0  0
 18 19  1  0  0  0  0
 19 21  1  0  0  0  0
 19 20  1  0  0  0  0
 22 19  1  0  0  0  0
M  RAD  1   3   2
M  END
