Coordinates from ORCA-job 4-MeO-Ph-N2-BF4-B3LYPG-6-31G_dp-MTMO-d009-169-n800
 OpenBabel09051908083D

 22 20  0  0  0  0  0  0  0  0999 V2000
   -0.9798    0.7951    0.2955 C   0  0  0  0  0  0  0  0  0  0  0  0
   -0.3935    0.7288   -1.0279 C   0  0  0  0  0  0  0  0  0  0  0  0
   -1.3437    1.2291   -1.7660 C   0  0  0  0  0  0  0  0  0  0  0  0
   -2.5798    1.7618   -1.8238 C   0  0  0  0  0  0  0  0  0  0  0  0
   -3.0664    1.7915   -0.5025 C   0  0  0  0  0  0  0  0  0  0  0  0
   -2.2580    1.3072    0.5536 C   0  0  0  0  0  0  0  0  0  0  0  0
   -0.2808    0.4156    1.0485 H   0  0  0  0  0  0  0  0  0  0  0  0
    0.6548    0.3253   -1.1101 H   0  0  0  0  0  0  0  0  0  0  0  0
   -3.1218    2.1069   -2.6929 H   0  0  0  0  0  0  0  0  0  0  0  0
   -4.0574    2.1862   -0.3060 H   0  0  0  0  0  0  0  0  0  0  0  0
    6.7080   -0.2282    2.5915 N   0  0  0  0  0  0  0  0  0  0  0  0
    6.4778    0.2915    1.6435 N   0  0  0  0  0  0  0  0  0  0  0  0
    2.2945    0.3296    0.6706 B   0  0  0  0  0  0  0  0  0  0  0  0
    1.3669   -0.2833    1.5602 F   0  0  0  0  0  0  0  0  0  0  0  0
    1.9763    1.6812    0.5593 F   0  0  0  0  0  0  0  0  0  0  0  0
    3.5868    0.0922    1.0531 F   0  0  0  0  0  0  0  0  0  0  0  0
    2.0601   -0.2655   -0.6447 F   0  0  0  0  0  0  0  0  0  0  0  0
   -2.7948    1.3793    1.7859 O   0  0  0  0  0  0  0  0  0  0  0  0
   -1.9959    0.9328    2.8924 C   0  0  0  0  0  0  0  0  0  0  0  0
   -2.6014    1.1147    3.7798 H   0  0  0  0  0  0  0  0  0  0  0  0
   -1.0603    1.4973    2.9541 H   0  0  0  0  0  0  0  0  0  0  0  0
   -1.7719   -0.1357    2.8072 H   0  0  0  0  0  0  0  0  0  0  0  0
  1  6  1  0  0  0  0
  1  7  1  0  0  0  0
  2  1  2  0  0  0  0
  3  2  1  0  0  0  0
  4  3  2  0  0  0  0
  4  5  1  0  0  0  0
  5 10  1  0  0  0  0
  5  6  2  0  0  0  0
  6 18  1  0  0  0  0
  8  2  1  0  0  0  0
  9  4  1  0  0  0  0
 12 11  3  0  0  0  0
 13 16  1  0  0  0  0
 13 14  1  0  0  0  0
 15 13  1  0  0  0  0
 17 13  1  0  0  0  0
 18 19  1  0  0  0  0
 19 21  1  0  0  0  0
 19 20  1  0  0  0  0
 22 19  1  0  0  0  0
M  RAD  1   3   2
M  END
