Coordinates from ORCA-job 4-MeO-Ph-N2-BF4-B3LYPG-6-31G_dp-MTMO-d009-169-n800
 OpenBabel09051908083D

 22 20  0  0  0  0  0  0  0  0999 V2000
   -1.1838    0.8493    0.2548 C   0  0  0  0  0  0  0  0  0  0  0  0
   -0.5978    0.8017   -1.0695 C   0  0  0  0  0  0  0  0  0  0  0  0
   -1.5670    1.2526   -1.8128 C   0  0  0  0  0  0  0  0  0  0  0  0
   -2.8263    1.7273   -1.8770 C   0  0  0  0  0  0  0  0  0  0  0  0
   -3.3121    1.7450   -0.5553 C   0  0  0  0  0  0  0  0  0  0  0  0
   -2.4839    1.3070    0.5060 C   0  0  0  0  0  0  0  0  0  0  0  0
   -0.4708    0.5087    1.0108 H   0  0  0  0  0  0  0  0  0  0  0  0
    0.4760    0.4567   -1.1572 H   0  0  0  0  0  0  0  0  0  0  0  0
   -3.3848    2.0390   -2.7482 H   0  0  0  0  0  0  0  0  0  0  0  0
   -4.3201    2.0958   -0.3615 H   0  0  0  0  0  0  0  0  0  0  0  0
    8.7969   -0.2641    2.9668 N   0  0  0  0  0  0  0  0  0  0  0  0
    8.5925   -1.2161    2.4438 N   0  0  0  0  0  0  0  0  0  0  0  0
    2.1163    0.5673    0.5778 B   0  0  0  0  0  0  0  0  0  0  0  0
    1.2491   -0.1560    1.4404 F   0  0  0  0  0  0  0  0  0  0  0  0
    1.6839    1.8909    0.5171 F   0  0  0  0  0  0  0  0  0  0  0  0
    3.4259    0.4262    0.9368 F   0  0  0  0  0  0  0  0  0  0  0  0
    1.9204    0.0029   -0.7637 F   0  0  0  0  0  0  0  0  0  0  0  0
   -3.0269    1.3686    1.7366 O   0  0  0  0  0  0  0  0  0  0  0  0
   -2.2089    0.9822    2.8511 C   0  0  0  0  0  0  0  0  0  0  0  0
   -2.8239    1.1499    3.7348 H   0  0  0  0  0  0  0  0  0  0  0  0
   -1.3027    1.5940    2.9035 H   0  0  0  0  0  0  0  0  0  0  0  0
   -1.9323   -0.0753    2.7861 H   0  0  0  0  0  0  0  0  0  0  0  0
  1  6  1  0  0  0  0
  1  7  1  0  0  0  0
  2  1  2  0  0  0  0
  3  2  1  0  0  0  0
  4  3  2  0  0  0  0
  4  5  1  0  0  0  0
  5 10  1  0  0  0  0
  5  6  2  0  0  0  0
  6 18  1  0  0  0  0
  8  2  1  0  0  0  0
  9  4  1  0  0  0  0
 12 11  3  0  0  0  0
 13 16  1  0  0  0  0
 13 14  1  0  0  0  0
 15 13  1  0  0  0  0
 17 13  1  0  0  0  0
 18 19  1  0  0  0  0
 19 21  1  0  0  0  0
 19 20  1  0  0  0  0
 22 19  1  0  0  0  0
M  RAD  1   3   2
M  END
