Coordinates from ORCA-job 4-MeO-Ph-N2-BF4-B3LYPG-6-31G_dp-MTMO-d009-169-n800
 OpenBabel09051908083D

 22 20  0  0  0  0  0  0  0  0999 V2000
   -0.8337    0.7238    0.2828 C   0  0  0  0  0  0  0  0  0  0  0  0
   -0.3678    0.6440   -1.0864 C   0  0  0  0  0  0  0  0  0  0  0  0
   -1.2970    1.2903   -1.7308 C   0  0  0  0  0  0  0  0  0  0  0  0
   -2.4430    1.9959   -1.6690 C   0  0  0  0  0  0  0  0  0  0  0  0
   -2.8162    2.0294   -0.3114 C   0  0  0  0  0  0  0  0  0  0  0  0
   -2.0053    1.3940    0.6595 C   0  0  0  0  0  0  0  0  0  0  0  0
   -0.1520    0.2017    0.9601 H   0  0  0  0  0  0  0  0  0  0  0  0
    0.6045    0.0990   -1.2776 H   0  0  0  0  0  0  0  0  0  0  0  0
   -2.9960    2.4547   -2.4763 H   0  0  0  0  0  0  0  0  0  0  0  0
   -3.7258    2.5443   -0.0206 H   0  0  0  0  0  0  0  0  0  0  0  0
    4.4337    1.6205    2.6944 N   0  0  0  0  0  0  0  0  0  0  0  0
    5.2198    0.9685    2.2724 N   0  0  0  0  0  0  0  0  0  0  0  0
    2.3497   -0.3066    0.3224 B   0  0  0  0  0  0  0  0  0  0  0  0
    1.3938   -0.8676    1.2103 F   0  0  0  0  0  0  0  0  0  0  0  0
    2.2608    1.0822    0.3907 F   0  0  0  0  0  0  0  0  0  0  0  0
    3.6073   -0.7905    0.5563 F   0  0  0  0  0  0  0  0  0  0  0  0
    1.9324   -0.6890   -1.0310 F   0  0  0  0  0  0  0  0  0  0  0  0
   -2.4353    1.4840    1.9319 O   0  0  0  0  0  0  0  0  0  0  0  0
   -1.6202    0.8989    2.9586 C   0  0  0  0  0  0  0  0  0  0  0  0
   -2.1351    1.1119    3.8948 H   0  0  0  0  0  0  0  0  0  0  0  0
   -0.6223    1.3484    2.9698 H   0  0  0  0  0  0  0  0  0  0  0  0
   -1.5326   -0.1842    2.8203 H   0  0  0  0  0  0  0  0  0  0  0  0
  1  6  1  0  0  0  0
  1  7  1  0  0  0  0
  2  1  2  0  0  0  0
  3  4  2  0  0  0  0
  3  2  1  0  0  0  0
  4  5  1  0  0  0  0
  5 10  1  0  0  0  0
  5  6  2  0  0  0  0
  6 18  1  0  0  0  0
  8  2  1  0  0  0  0
  9  4  1  0  0  0  0
 12 11  3  0  0  0  0
 13 15  1  0  0  0  0
 13 16  1  0  0  0  0
 13 14  1  0  0  0  0
 17 13  1  0  0  0  0
 18 19  1  0  0  0  0
 19 21  1  0  0  0  0
 19 20  1  0  0  0  0
 22 19  1  0  0  0  0
M  RAD  1   3   2
M  END
