Coordinates from ORCA-job 4-MeO-Ph-N2-BF4-B3LYPG-6-31G_dp-MTMO-d009-169-n800
 OpenBabel09051908083D

 22 20  0  0  0  0  0  0  0  0999 V2000
   -1.4518    0.9036    0.1907 C   0  0  0  0  0  0  0  0  0  0  0  0
   -0.8695    0.8583   -1.1353 C   0  0  0  0  0  0  0  0  0  0  0  0
   -1.8459    1.2953   -1.8772 C   0  0  0  0  0  0  0  0  0  0  0  0
   -3.1108    1.7553   -1.9393 C   0  0  0  0  0  0  0  0  0  0  0  0
   -3.5926    1.7720   -0.6161 C   0  0  0  0  0  0  0  0  0  0  0  0
   -2.7562    1.3474    0.4442 C   0  0  0  0  0  0  0  0  0  0  0  0
   -0.7327    0.5741    0.9459 H   0  0  0  0  0  0  0  0  0  0  0  0
    0.2085    0.5261   -1.2253 H   0  0  0  0  0  0  0  0  0  0  0  0
   -3.6756    2.0572   -2.8098 H   0  0  0  0  0  0  0  0  0  0  0  0
   -4.6040    2.1120   -0.4204 H   0  0  0  0  0  0  0  0  0  0  0  0
   11.5002   -0.8507    3.6321 N   0  0  0  0  0  0  0  0  0  0  0  0
   11.2750   -1.7920    3.0984 N   0  0  0  0  0  0  0  0  0  0  0  0
    1.8532    0.6651    0.5018 B   0  0  0  0  0  0  0  0  0  0  0  0
    0.9989   -0.0671    1.3696 F   0  0  0  0  0  0  0  0  0  0  0  0
    1.4033    1.9826    0.4387 F   0  0  0  0  0  0  0  0  0  0  0  0
    3.1660    0.5421    0.8552 F   0  0  0  0  0  0  0  0  0  0  0  0
    1.6592    0.0939   -0.8376 F   0  0  0  0  0  0  0  0  0  0  0  0
   -3.2963    1.4074    1.6763 O   0  0  0  0  0  0  0  0  0  0  0  0
   -2.4706    1.0348    2.7897 C   0  0  0  0  0  0  0  0  0  0  0  0
   -3.0847    1.1991    3.6746 H   0  0  0  0  0  0  0  0  0  0  0  0
   -1.5711    1.6569    2.8369 H   0  0  0  0  0  0  0  0  0  0  0  0
   -2.1824   -0.0198    2.7282 H   0  0  0  0  0  0  0  0  0  0  0  0
  1  6  1  0  0  0  0
  1  7  1  0  0  0  0
  2  1  2  0  0  0  0
  3  2  1  0  0  0  0
  4  3  2  0  0  0  0
  4  5  1  0  0  0  0
  5 10  1  0  0  0  0
  5  6  2  0  0  0  0
  6 18  1  0  0  0  0
  8  2  1  0  0  0  0
  9  4  1  0  0  0  0
 12 11  3  0  0  0  0
 13 16  1  0  0  0  0
 13 14  1  0  0  0  0
 15 13  1  0  0  0  0
 17 13  1  0  0  0  0
 18 19  1  0  0  0  0
 19 21  1  0  0  0  0
 19 20  1  0  0  0  0
 22 19  1  0  0  0  0
M  RAD  1   3   2
M  END
