Coordinates from ORCA-job 4-MeO-Ph-N2-BF4-B3LYPG-6-31G_dp-MTMO-d009-169-n800
 OpenBabel09051908083D

 22 20  0  0  0  0  0  0  0  0999 V2000
   -1.0142    0.8309    0.2738 C   0  0  0  0  0  0  0  0  0  0  0  0
   -0.4526    0.7906   -1.0612 C   0  0  0  0  0  0  0  0  0  0  0  0
   -1.4489    1.2111   -1.7875 C   0  0  0  0  0  0  0  0  0  0  0  0
   -2.7179    1.6618   -1.8274 C   0  0  0  0  0  0  0  0  0  0  0  0
   -3.1774    1.6760   -0.4962 C   0  0  0  0  0  0  0  0  0  0  0  0
   -2.3183    1.2620    0.5498 C   0  0  0  0  0  0  0  0  0  0  0  0
   -0.2807    0.5028    1.0162 H   0  0  0  0  0  0  0  0  0  0  0  0
    0.6247    0.4664   -1.1667 H   0  0  0  0  0  0  0  0  0  0  0  0
   -3.2998    1.9581   -2.6886 H   0  0  0  0  0  0  0  0  0  0  0  0
   -4.1888    2.0058   -0.2835 H   0  0  0  0  0  0  0  0  0  0  0  0
    7.3214   -0.3043    2.8835 N   0  0  0  0  0  0  0  0  0  0  0  0
    6.6820   -0.7147    2.0805 N   0  0  0  0  0  0  0  0  0  0  0  0
    2.2936    0.5846    0.5579 B   0  0  0  0  0  0  0  0  0  0  0  0
    1.4429   -0.1500    1.4285 F   0  0  0  0  0  0  0  0  0  0  0  0
    1.8476    1.9045    0.5087 F   0  0  0  0  0  0  0  0  0  0  0  0
    3.6090    0.4559    0.9040 F   0  0  0  0  0  0  0  0  0  0  0  0
    2.0869    0.0245   -0.7822 F   0  0  0  0  0  0  0  0  0  0  0  0
   -2.8367    1.3182    1.7911 O   0  0  0  0  0  0  0  0  0  0  0  0
   -1.9864    0.9573    2.8901 C   0  0  0  0  0  0  0  0  0  0  0  0
   -2.5862    1.1160    3.7857 H   0  0  0  0  0  0  0  0  0  0  0  0
   -1.0935    1.5899    2.9198 H   0  0  0  0  0  0  0  0  0  0  0  0
   -1.6869   -0.0939    2.8249 H   0  0  0  0  0  0  0  0  0  0  0  0
  1  6  1  0  0  0  0
  1  7  1  0  0  0  0
  2  1  2  0  0  0  0
  3  2  1  0  0  0  0
  4  3  2  0  0  0  0
  4  5  1  0  0  0  0
  5 10  1  0  0  0  0
  5  6  2  0  0  0  0
  6 18  1  0  0  0  0
  8  2  1  0  0  0  0
  9  4  1  0  0  0  0
 12 11  3  0  0  0  0
 13 16  1  0  0  0  0
 13 14  1  0  0  0  0
 15 13  1  0  0  0  0
 17 13  1  0  0  0  0
 18 19  1  0  0  0  0
 19 21  1  0  0  0  0
 19 20  1  0  0  0  0
 22 19  1  0  0  0  0
M  RAD  1   3   2
M  END
