Coordinates from ORCA-job 4-MeO-Ph-N2-BF4-B3LYPG-6-31G_dp-MTMO-d009-169-n800
 OpenBabel09051908083D

 22 20  0  0  0  0  0  0  0  0999 V2000
   -1.1730    0.8474    0.2573 C   0  0  0  0  0  0  0  0  0  0  0  0
   -0.5870    0.8000   -1.0670 C   0  0  0  0  0  0  0  0  0  0  0  0
   -1.5564    1.2504   -1.8103 C   0  0  0  0  0  0  0  0  0  0  0  0
   -2.8158    1.7247   -1.8747 C   0  0  0  0  0  0  0  0  0  0  0  0
   -3.3016    1.7423   -0.5530 C   0  0  0  0  0  0  0  0  0  0  0  0
   -2.4733    1.3047    0.5084 C   0  0  0  0  0  0  0  0  0  0  0  0
   -0.4600    0.5072    1.0134 H   0  0  0  0  0  0  0  0  0  0  0  0
    0.4869    0.4554   -1.1546 H   0  0  0  0  0  0  0  0  0  0  0  0
   -3.3744    2.0361   -2.7459 H   0  0  0  0  0  0  0  0  0  0  0  0
   -4.3098    2.0927   -0.3592 H   0  0  0  0  0  0  0  0  0  0  0  0
    8.6898   -0.2464    2.9415 N   0  0  0  0  0  0  0  0  0  0  0  0
    8.4863   -1.1985    2.4182 N   0  0  0  0  0  0  0  0  0  0  0  0
    2.1271    0.5667    0.5807 B   0  0  0  0  0  0  0  0  0  0  0  0
    1.2600   -0.1568    1.4433 F   0  0  0  0  0  0  0  0  0  0  0  0
    1.6943    1.8901    0.5198 F   0  0  0  0  0  0  0  0  0  0  0  0
    3.4367    0.4260    0.9399 F   0  0  0  0  0  0  0  0  0  0  0  0
    1.9316    0.0020   -0.7607 F   0  0  0  0  0  0  0  0  0  0  0  0
   -3.0164    1.3662    1.7390 O   0  0  0  0  0  0  0  0  0  0  0  0
   -2.1983    0.9803    2.8536 C   0  0  0  0  0  0  0  0  0  0  0  0
   -2.8133    1.1478    3.7372 H   0  0  0  0  0  0  0  0  0  0  0  0
   -1.2922    1.5924    2.9059 H   0  0  0  0  0  0  0  0  0  0  0  0
   -1.9212   -0.0771    2.7886 H   0  0  0  0  0  0  0  0  0  0  0  0
  1  6  1  0  0  0  0
  1  7  1  0  0  0  0
  2  1  2  0  0  0  0
  3  2  1  0  0  0  0
  4  3  2  0  0  0  0
  4  5  1  0  0  0  0
  5 10  1  0  0  0  0
  5  6  2  0  0  0  0
  6 18  1  0  0  0  0
  8  2  1  0  0  0  0
  9  4  1  0  0  0  0
 12 11  3  0  0  0  0
 13 16  1  0  0  0  0
 13 14  1  0  0  0  0
 15 13  1  0  0  0  0
 17 13  1  0  0  0  0
 18 19  1  0  0  0  0
 19 21  1  0  0  0  0
 19 20  1  0  0  0  0
 22 19  1  0  0  0  0
M  RAD  1   3   2
M  END
