Coordinates from ORCA-job 4-MeO-Ph-N2-BF4-B3LYPG-6-31G_dp-MTMO-d009-169-n800
 OpenBabel09051908083D

 22 20  0  0  0  0  0  0  0  0999 V2000
   -0.9995    0.8318    0.2719 C   0  0  0  0  0  0  0  0  0  0  0  0
   -0.4401    0.7941   -1.0642 C   0  0  0  0  0  0  0  0  0  0  0  0
   -1.4410    1.2077   -1.7883 C   0  0  0  0  0  0  0  0  0  0  0  0
   -2.7118    1.6538   -1.8249 C   0  0  0  0  0  0  0  0  0  0  0  0
   -3.1686    1.6664   -0.4928 C   0  0  0  0  0  0  0  0  0  0  0  0
   -2.3049    1.2570    0.5513 C   0  0  0  0  0  0  0  0  0  0  0  0
   -0.2633    0.5051    1.0126 H   0  0  0  0  0  0  0  0  0  0  0  0
    0.6377    0.4729   -1.1693 H   0  0  0  0  0  0  0  0  0  0  0  0
   -3.2968    1.9481   -2.6847 H   0  0  0  0  0  0  0  0  0  0  0  0
   -4.1810    1.9919   -0.2782 H   0  0  0  0  0  0  0  0  0  0  0  0
    7.1938   -0.2887    2.8413 N   0  0  0  0  0  0  0  0  0  0  0  0
    6.5319   -0.7099    2.0624 N   0  0  0  0  0  0  0  0  0  0  0  0
    2.3057    0.5899    0.5679 B   0  0  0  0  0  0  0  0  0  0  0  0
    1.4527   -0.1454    1.4365 F   0  0  0  0  0  0  0  0  0  0  0  0
    1.8607    1.9101    0.5210 F   0  0  0  0  0  0  0  0  0  0  0  0
    3.6204    0.4591    0.9172 F   0  0  0  0  0  0  0  0  0  0  0  0
    2.1013    0.0325   -0.7729 F   0  0  0  0  0  0  0  0  0  0  0  0
   -2.8196    1.3111    1.7941 O   0  0  0  0  0  0  0  0  0  0  0  0
   -1.9637    0.9555    2.8906 C   0  0  0  0  0  0  0  0  0  0  0  0
   -2.5612    1.1123    3.7880 H   0  0  0  0  0  0  0  0  0  0  0  0
   -1.0737    1.5924    2.9164 H   0  0  0  0  0  0  0  0  0  0  0  0
   -1.6592   -0.0942    2.8254 H   0  0  0  0  0  0  0  0  0  0  0  0
  1  6  1  0  0  0  0
  1  7  1  0  0  0  0
  2  1  2  0  0  0  0
  3  2  1  0  0  0  0
  4  3  2  0  0  0  0
  4  5  1  0  0  0  0
  5 10  1  0  0  0  0
  5  6  2  0  0  0  0
  6 18  1  0  0  0  0
  8  2  1  0  0  0  0
  9  4  1  0  0  0  0
 12 11  3  0  0  0  0
 13 16  1  0  0  0  0
 13 14  1  0  0  0  0
 15 13  1  0  0  0  0
 17 13  1  0  0  0  0
 18 19  1  0  0  0  0
 19 21  1  0  0  0  0
 19 20  1  0  0  0  0
 22 19  1  0  0  0  0
M  RAD  1   3   2
M  END
