Coordinates from ORCA-job 4-MeO-Ph-N2-BF4-B3LYPG-6-31G_dp-MTMO-d009-169-n800
 OpenBabel09051908083D

 22 20  0  0  0  0  0  0  0  0999 V2000
   -1.3203    0.8795    0.2221 C   0  0  0  0  0  0  0  0  0  0  0  0
   -0.7361    0.8354   -1.1030 C   0  0  0  0  0  0  0  0  0  0  0  0
   -1.7139    1.2661   -1.8468 C   0  0  0  0  0  0  0  0  0  0  0  0
   -2.9811    1.7193   -1.9112 C   0  0  0  0  0  0  0  0  0  0  0  0
   -3.4647    1.7356   -0.5886 C   0  0  0  0  0  0  0  0  0  0  0  0
   -2.6274    1.3169    0.4733 C   0  0  0  0  0  0  0  0  0  0  0  0
   -0.6006    0.5549    0.9787 H   0  0  0  0  0  0  0  0  0  0  0  0
    0.3437    0.5090   -1.1911 H   0  0  0  0  0  0  0  0  0  0  0  0
   -3.5464    2.0170   -2.7829 H   0  0  0  0  0  0  0  0  0  0  0  0
   -4.4781    2.0705   -0.3947 H   0  0  0  0  0  0  0  0  0  0  0  0
   10.1945   -0.6225    3.3140 N   0  0  0  0  0  0  0  0  0  0  0  0
    9.9753   -1.5667    2.7829 N   0  0  0  0  0  0  0  0  0  0  0  0
    1.9854    0.6596    0.5388 B   0  0  0  0  0  0  0  0  0  0  0  0
    1.1335   -0.0756    1.4066 F   0  0  0  0  0  0  0  0  0  0  0  0
    1.5286    1.9746    0.4727 F   0  0  0  0  0  0  0  0  0  0  0  0
    3.2982    0.5442    0.8949 F   0  0  0  0  0  0  0  0  0  0  0  0
    1.7965    0.0851   -0.7998 F   0  0  0  0  0  0  0  0  0  0  0  0
   -3.1693    1.3760    1.7047 O   0  0  0  0  0  0  0  0  0  0  0  0
   -2.3430    1.0096    2.8197 C   0  0  0  0  0  0  0  0  0  0  0  0
   -2.9589    1.1724    3.7036 H   0  0  0  0  0  0  0  0  0  0  0  0
   -1.4466    1.6362    2.8668 H   0  0  0  0  0  0  0  0  0  0  0  0
   -2.0494   -0.0437    2.7603 H   0  0  0  0  0  0  0  0  0  0  0  0
  1  6  1  0  0  0  0
  1  7  1  0  0  0  0
  2  1  2  0  0  0  0
  3  2  1  0  0  0  0
  4  3  2  0  0  0  0
  4  5  1  0  0  0  0
  5 10  1  0  0  0  0
  5  6  2  0  0  0  0
  6 18  1  0  0  0  0
  8  2  1  0  0  0  0
  9  4  1  0  0  0  0
 12 11  3  0  0  0  0
 13 16  1  0  0  0  0
 13 14  1  0  0  0  0
 15 13  1  0  0  0  0
 17 13  1  0  0  0  0
 18 19  1  0  0  0  0
 19 21  1  0  0  0  0
 19 20  1  0  0  0  0
 22 19  1  0  0  0  0
M  RAD  1   3   2
M  END
