Coordinates from ORCA-job 4-MeO-Ph-N2-BF4-B3LYPG-6-31G_dp-MTMO-d009-169-n800
 OpenBabel09051908083D

 22 20  0  0  0  0  0  0  0  0999 V2000
   -1.3507    0.8850    0.2149 C   0  0  0  0  0  0  0  0  0  0  0  0
   -0.7668    0.8405   -1.1104 C   0  0  0  0  0  0  0  0  0  0  0  0
   -1.7442    1.2730   -1.8537 C   0  0  0  0  0  0  0  0  0  0  0  0
   -3.0107    1.7282   -1.9176 C   0  0  0  0  0  0  0  0  0  0  0  0
   -3.4939    1.7446   -0.5949 C   0  0  0  0  0  0  0  0  0  0  0  0
   -2.6570    1.3242    0.4666 C   0  0  0  0  0  0  0  0  0  0  0  0
   -0.6312    0.5589    0.9711 H   0  0  0  0  0  0  0  0  0  0  0  0
    0.3125    0.5125   -1.1990 H   0  0  0  0  0  0  0  0  0  0  0  0
   -3.5758    2.0271   -2.7890 H   0  0  0  0  0  0  0  0  0  0  0  0
   -4.5067    2.0810   -0.4005 H   0  0  0  0  0  0  0  0  0  0  0  0
   10.4951   -0.6737    3.3870 N   0  0  0  0  0  0  0  0  0  0  0  0
   10.2745   -1.6173    2.8555 N   0  0  0  0  0  0  0  0  0  0  0  0
    1.9548    0.6598    0.5303 B   0  0  0  0  0  0  0  0  0  0  0  0
    1.1021   -0.0746    1.3980 F   0  0  0  0  0  0  0  0  0  0  0  0
    1.5000    1.9755    0.4650 F   0  0  0  0  0  0  0  0  0  0  0  0
    3.2676    0.5423    0.8858 F   0  0  0  0  0  0  0  0  0  0  0  0
    1.7646    0.0862   -0.8086 F   0  0  0  0  0  0  0  0  0  0  0  0
   -3.1984    1.3836    1.6981 O   0  0  0  0  0  0  0  0  0  0  0  0
   -2.3725    1.0154    2.8128 C   0  0  0  0  0  0  0  0  0  0  0  0
   -2.9879    1.1786    3.6969 H   0  0  0  0  0  0  0  0  0  0  0  0
   -1.4752    1.6407    2.8600 H   0  0  0  0  0  0  0  0  0  0  0  0
   -2.0804   -0.0383    2.7528 H   0  0  0  0  0  0  0  0  0  0  0  0
  1  6  1  0  0  0  0
  1  7  1  0  0  0  0
  2  1  2  0  0  0  0
  3  2  1  0  0  0  0
  4  3  2  0  0  0  0
  4  5  1  0  0  0  0
  5 10  1  0  0  0  0
  5  6  2  0  0  0  0
  6 18  1  0  0  0  0
  8  2  1  0  0  0  0
  9  4  1  0  0  0  0
 12 11  3  0  0  0  0
 13 16  1  0  0  0  0
 13 14  1  0  0  0  0
 15 13  1  0  0  0  0
 17 13  1  0  0  0  0
 18 19  1  0  0  0  0
 19 21  1  0  0  0  0
 19 20  1  0  0  0  0
 22 19  1  0  0  0  0
M  RAD  1   3   2
M  END
