Coordinates from ORCA-job 4-MeO-Ph-N2-BF4-B3LYPG-6-31G_dp-MTMO-d009-169-n800
 OpenBabel09051908083D

 22 20  0  0  0  0  0  0  0  0999 V2000
   -1.4394    0.9013    0.1937 C   0  0  0  0  0  0  0  0  0  0  0  0
   -0.8569    0.8561   -1.1322 C   0  0  0  0  0  0  0  0  0  0  0  0
   -1.8334    1.2927   -1.8743 C   0  0  0  0  0  0  0  0  0  0  0  0
   -3.0984    1.7522   -1.9366 C   0  0  0  0  0  0  0  0  0  0  0  0
   -3.5804    1.7689   -0.6135 C   0  0  0  0  0  0  0  0  0  0  0  0
   -2.7440    1.3446    0.4469 C   0  0  0  0  0  0  0  0  0  0  0  0
   -0.7203    0.5721    0.9490 H   0  0  0  0  0  0  0  0  0  0  0  0
    0.2212    0.5243   -1.2220 H   0  0  0  0  0  0  0  0  0  0  0  0
   -3.6633    2.0538   -2.8073 H   0  0  0  0  0  0  0  0  0  0  0  0
   -4.5919    2.1085   -0.4179 H   0  0  0  0  0  0  0  0  0  0  0  0
   11.3770   -0.8285    3.6020 N   0  0  0  0  0  0  0  0  0  0  0  0
   11.1523   -1.7702    3.0686 N   0  0  0  0  0  0  0  0  0  0  0  0
    1.8656    0.6640    0.5053 B   0  0  0  0  0  0  0  0  0  0  0  0
    1.0114   -0.0684    1.3731 F   0  0  0  0  0  0  0  0  0  0  0  0
    1.4152    1.9814    0.4420 F   0  0  0  0  0  0  0  0  0  0  0  0
    3.1784    0.5416    0.8590 F   0  0  0  0  0  0  0  0  0  0  0  0
    1.6720    0.0926   -0.8341 F   0  0  0  0  0  0  0  0  0  0  0  0
   -3.2843    1.4046    1.6790 O   0  0  0  0  0  0  0  0  0  0  0  0
   -2.4586    1.0324    2.7926 C   0  0  0  0  0  0  0  0  0  0  0  0
   -3.0729    1.1967    3.6773 H   0  0  0  0  0  0  0  0  0  0  0  0
   -1.5593    1.6548    2.8398 H   0  0  0  0  0  0  0  0  0  0  0  0
   -2.1700   -0.0221    2.7311 H   0  0  0  0  0  0  0  0  0  0  0  0
  1  6  1  0  0  0  0
  1  7  1  0  0  0  0
  2  1  2  0  0  0  0
  3  2  1  0  0  0  0
  4  3  2  0  0  0  0
  4  5  1  0  0  0  0
  5 10  1  0  0  0  0
  5  6  2  0  0  0  0
  6 18  1  0  0  0  0
  8  2  1  0  0  0  0
  9  4  1  0  0  0  0
 12 11  3  0  0  0  0
 13 16  1  0  0  0  0
 13 14  1  0  0  0  0
 15 13  1  0  0  0  0
 17 13  1  0  0  0  0
 18 19  1  0  0  0  0
 19 21  1  0  0  0  0
 19 20  1  0  0  0  0
 22 19  1  0  0  0  0
M  RAD  1   3   2
M  END
