Coordinates from ORCA-job 4-MeO-Ph-N2-BF4-B3LYPG-6-31G_dp-MTMO-d009-169-n800
 OpenBabel09051908083D

 22 20  0  0  0  0  0  0  0  0999 V2000
   -1.4181    0.8973    0.1988 C   0  0  0  0  0  0  0  0  0  0  0  0
   -0.8353    0.8523   -1.1270 C   0  0  0  0  0  0  0  0  0  0  0  0
   -1.8120    1.2881   -1.8693 C   0  0  0  0  0  0  0  0  0  0  0  0
   -3.0773    1.7467   -1.9321 C   0  0  0  0  0  0  0  0  0  0  0  0
   -3.5596    1.7634   -0.6090 C   0  0  0  0  0  0  0  0  0  0  0  0
   -2.7231    1.3399    0.4517 C   0  0  0  0  0  0  0  0  0  0  0  0
   -0.6990    0.5688    0.9543 H   0  0  0  0  0  0  0  0  0  0  0  0
    0.2430    0.5212   -1.2165 H   0  0  0  0  0  0  0  0  0  0  0  0
   -3.6421    2.0479   -2.8029 H   0  0  0  0  0  0  0  0  0  0  0  0
   -4.5714    2.1024   -0.4137 H   0  0  0  0  0  0  0  0  0  0  0  0
   11.1656   -0.7908    3.5504 N   0  0  0  0  0  0  0  0  0  0  0  0
   10.9419   -1.7329    3.0174 N   0  0  0  0  0  0  0  0  0  0  0  0
    1.8869    0.6625    0.5113 B   0  0  0  0  0  0  0  0  0  0  0  0
    1.0330   -0.0703    1.3791 F   0  0  0  0  0  0  0  0  0  0  0  0
    1.4356    1.9796    0.4475 F   0  0  0  0  0  0  0  0  0  0  0  0
    3.1997    0.5411    0.8654 F   0  0  0  0  0  0  0  0  0  0  0  0
    1.6941    0.0907   -0.8280 F   0  0  0  0  0  0  0  0  0  0  0  0
   -3.2636    1.3997    1.6836 O   0  0  0  0  0  0  0  0  0  0  0  0
   -2.4380    1.0283    2.7974 C   0  0  0  0  0  0  0  0  0  0  0  0
   -3.0525    1.1924    3.6820 H   0  0  0  0  0  0  0  0  0  0  0  0
   -1.5391    1.6513    2.8447 H   0  0  0  0  0  0  0  0  0  0  0  0
   -2.1487   -0.0260    2.7363 H   0  0  0  0  0  0  0  0  0  0  0  0
  1  6  1  0  0  0  0
  1  7  1  0  0  0  0
  2  1  2  0  0  0  0
  3  2  1  0  0  0  0
  4  3  2  0  0  0  0
  4  5  1  0  0  0  0
  5 10  1  0  0  0  0
  5  6  2  0  0  0  0
  6 18  1  0  0  0  0
  8  2  1  0  0  0  0
  9  4  1  0  0  0  0
 12 11  3  0  0  0  0
 13 16  1  0  0  0  0
 13 14  1  0  0  0  0
 15 13  1  0  0  0  0
 17 13  1  0  0  0  0
 18 19  1  0  0  0  0
 19 21  1  0  0  0  0
 19 20  1  0  0  0  0
 22 19  1  0  0  0  0
M  RAD  1   3   2
M  END
