Coordinates from ORCA-job 4-MeO-Ph-N2-BF4-B3LYPG-6-31G_dp-MTMO-d009-169-n800
 OpenBabel09051908083D

 22 20  0  0  0  0  0  0  0  0999 V2000
   -1.5348    0.9205    0.1716 C   0  0  0  0  0  0  0  0  0  0  0  0
   -0.9512    0.8761   -1.1539 C   0  0  0  0  0  0  0  0  0  0  0  0
   -1.9299    1.3048   -1.8976 C   0  0  0  0  0  0  0  0  0  0  0  0
   -3.1977    1.7562   -1.9618 C   0  0  0  0  0  0  0  0  0  0  0  0
   -3.6807    1.7729   -0.6390 C   0  0  0  0  0  0  0  0  0  0  0  0
   -2.8423    1.3563    0.4229 C   0  0  0  0  0  0  0  0  0  0  0  0
   -0.8142    0.5975    0.9281 H   0  0  0  0  0  0  0  0  0  0  0  0
    0.1292    0.5512   -1.2423 H   0  0  0  0  0  0  0  0  0  0  0  0
   -3.7639    2.0524   -2.8335 H   0  0  0  0  0  0  0  0  0  0  0  0
   -4.6944    2.1067   -0.4448 H   0  0  0  0  0  0  0  0  0  0  0  0
   12.3456   -1.0401    3.8274 N   0  0  0  0  0  0  0  0  0  0  0  0
   12.1151   -1.9804    3.2942 N   0  0  0  0  0  0  0  0  0  0  0  0
    1.7718    0.7062    0.4854 B   0  0  0  0  0  0  0  0  0  0  0  0
    0.9220   -0.0301    1.3543 F   0  0  0  0  0  0  0  0  0  0  0  0
    1.3127    2.0203    0.4190 F   0  0  0  0  0  0  0  0  0  0  0  0
    3.0852    0.5932    0.8400 F   0  0  0  0  0  0  0  0  0  0  0  0
    1.5826    0.1305   -0.8528 F   0  0  0  0  0  0  0  0  0  0  0  0
   -3.3838    1.4157    1.6545 O   0  0  0  0  0  0  0  0  0  0  0  0
   -2.5566    1.0514    2.7695 C   0  0  0  0  0  0  0  0  0  0  0  0
   -3.1723    1.2141    3.6535 H   0  0  0  0  0  0  0  0  0  0  0  0
   -1.6610    1.6794    2.8157 H   0  0  0  0  0  0  0  0  0  0  0  0
   -2.2615   -0.0014    2.7109 H   0  0  0  0  0  0  0  0  0  0  0  0
  1  6  1  0  0  0  0
  1  7  1  0  0  0  0
  2  1  2  0  0  0  0
  3  2  1  0  0  0  0
  4  3  2  0  0  0  0
  4  5  1  0  0  0  0
  5 10  1  0  0  0  0
  5  6  2  0  0  0  0
  6 18  1  0  0  0  0
  8  2  1  0  0  0  0
  9  4  1  0  0  0  0
 12 11  3  0  0  0  0
 13 16  1  0  0  0  0
 13 14  1  0  0  0  0
 15 13  1  0  0  0  0
 17 13  1  0  0  0  0
 18 19  1  0  0  0  0
 19 21  1  0  0  0  0
 19 20  1  0  0  0  0
 22 19  1  0  0  0  0
M  RAD  1   3   2
M  END
