Coordinates from ORCA-job 4-MeO-Ph-N2-BF4-B3LYPG-6-31G_dp-MTMO-d009-169-n800
 OpenBabel09051908083D

 22 20  0  0  0  0  0  0  0  0999 V2000
   -0.4865    0.6351    0.7166 C   0  0  0  0  0  0  0  0  0  0  0  0
    0.6397    0.8399   -0.1291 C   0  0  0  0  0  0  0  0  0  0  0  0
    0.2951    1.7414   -1.0402 C   0  0  0  0  0  0  0  0  0  0  0  0
   -0.7621    2.5124   -1.4076 C   0  0  0  0  0  0  0  0  0  0  0  0
   -1.8287    2.2589   -0.5352 C   0  0  0  0  0  0  0  0  0  0  0  0
   -1.6901    1.3287    0.5223 C   0  0  0  0  0  0  0  0  0  0  0  0
   -0.2964   -0.0775    1.5189 H   0  0  0  0  0  0  0  0  0  0  0  0
    1.5841    0.2877    0.0698 H   0  0  0  0  0  0  0  0  0  0  0  0
   -0.8040    3.2122   -2.2296 H   0  0  0  0  0  0  0  0  0  0  0  0
   -2.7670    2.7864   -0.6696 H   0  0  0  0  0  0  0  0  0  0  0  0
    1.9600    2.1307   -2.2963 N   0  0  0  0  0  0  0  0  0  0  0  0
    2.9231    2.2417   -2.8243 N   0  0  0  0  0  0  0  0  0  0  0  0
    2.3313   -0.4919    2.2074 B   0  0  0  0  0  0  0  0  0  0  0  0
    1.0929   -1.1717    2.3589 F   0  0  0  0  0  0  0  0  0  0  0  0
    2.1153    0.8770    2.4042 F   0  0  0  0  0  0  0  0  0  0  0  0
    3.2964   -1.0102    3.0299 F   0  0  0  0  0  0  0  0  0  0  0  0
    2.7296   -0.6557    0.8177 F   0  0  0  0  0  0  0  0  0  0  0  0
   -2.7766    1.1758    1.3024 O   0  0  0  0  0  0  0  0  0  0  0  0
   -2.6868    0.2746    2.4142 C   0  0  0  0  0  0  0  0  0  0  0  0
   -3.6552    0.3282    2.9110 H   0  0  0  0  0  0  0  0  0  0  0  0
   -1.8939    0.5794    3.1049 H   0  0  0  0  0  0  0  0  0  0  0  0
   -2.5001   -0.7498    2.0750 H   0  0  0  0  0  0  0  0  0  0  0  0
  1  7  1  0  0  0  0
  2  8  1  0  0  0  0
  2  1  2  0  0  0  0
  3  2  1  0  0  0  0
  4  3  2  0  0  0  0
  4  5  1  0  0  0  0
  5  6  2  0  0  0  0
  6  1  1  0  0  0  0
  6 18  1  0  0  0  0
  9  4  1  0  0  0  0
 10  5  1  0  0  0  0
 12 11  3  0  0  0  0
 13 14  1  0  0  0  0
 13 15  1  0  0  0  0
 13 16  1  0  0  0  0
 17 13  1  0  0  0  0
 18 19  1  0  0  0  0
 19 20  1  0  0  0  0
 19 21  1  0  0  0  0
 22 19  1  0  0  0  0
M  RAD  1   3   2
M  END
