Coordinates from ORCA-job 4-MeO-Ph-N2-BF4-B3LYPG-6-31G_dp-MTMO-d009-169-n800
 OpenBabel09051908083D

 22 20  0  0  0  0  0  0  0  0999 V2000
   -1.6283    0.9382    0.1493 C   0  0  0  0  0  0  0  0  0  0  0  0
   -1.0458    0.8931   -1.1766 C   0  0  0  0  0  0  0  0  0  0  0  0
   -2.0239    1.3247   -1.9193 C   0  0  0  0  0  0  0  0  0  0  0  0
   -3.2907    1.7791   -1.9825 C   0  0  0  0  0  0  0  0  0  0  0  0
   -3.7728    1.7961   -0.6593 C   0  0  0  0  0  0  0  0  0  0  0  0
   -2.9347    1.3769    0.4018 C   0  0  0  0  0  0  0  0  0  0  0  0
   -0.9080    0.6131    0.9051 H   0  0  0  0  0  0  0  0  0  0  0  0
    0.0338    0.5655   -1.2660 H   0  0  0  0  0  0  0  0  0  0  0  0
   -3.8568    2.0771   -2.8536 H   0  0  0  0  0  0  0  0  0  0  0  0
   -4.7856    2.1321   -0.4643 H   0  0  0  0  0  0  0  0  0  0  0  0
   13.2768   -1.2113    4.0532 N   0  0  0  0  0  0  0  0  0  0  0  0
   13.0442   -2.1492    3.5166 N   0  0  0  0  0  0  0  0  0  0  0  0
    1.6780    0.7151    0.4603 B   0  0  0  0  0  0  0  0  0  0  0  0
    0.8270   -0.0195    1.3294 F   0  0  0  0  0  0  0  0  0  0  0  0
    1.2222    2.0305    0.3952 F   0  0  0  0  0  0  0  0  0  0  0  0
    2.9914    0.5985    0.8136 F   0  0  0  0  0  0  0  0  0  0  0  0
    1.4862    0.1409   -0.8783 F   0  0  0  0  0  0  0  0  0  0  0  0
   -3.4752    1.4369    1.6337 O   0  0  0  0  0  0  0  0  0  0  0  0
   -2.6482    1.0700    2.7480 C   0  0  0  0  0  0  0  0  0  0  0  0
   -3.2631    1.2334    3.6325 H   0  0  0  0  0  0  0  0  0  0  0  0
   -1.7512    1.6959    2.7941 H   0  0  0  0  0  0  0  0  0  0  0  0
   -2.3554    0.0165    2.6885 H   0  0  0  0  0  0  0  0  0  0  0  0
  1  6  1  0  0  0  0
  1  7  1  0  0  0  0
  2  1  2  0  0  0  0
  3  2  1  0  0  0  0
  4  3  2  0  0  0  0
  4  5  1  0  0  0  0
  5 10  1  0  0  0  0
  5  6  2  0  0  0  0
  6 18  1  0  0  0  0
  8  2  1  0  0  0  0
  9  4  1  0  0  0  0
 12 11  3  0  0  0  0
 13 16  1  0  0  0  0
 13 14  1  0  0  0  0
 15 13  1  0  0  0  0
 17 13  1  0  0  0  0
 18 19  1  0  0  0  0
 19 21  1  0  0  0  0
 19 20  1  0  0  0  0
 22 19  1  0  0  0  0
M  RAD  1   3   2
M  END
