Coordinates from ORCA-job 4-MeO-Ph-N2-BF4-B3LYPG-6-31G_dp-MTMO-d009-169-n800
 OpenBabel09051908083D

 22 21  0  0  0  0  0  0  0  0999 V2000
   -0.6053   -0.0035    0.0627 C   0  0  0  0  0  0  0  0  0  0  0  0
    0.4067    0.2149   -0.8181 C   0  0  0  0  0  0  0  0  0  0  0  0
    0.6935    1.5496   -1.3340 C   0  0  0  0  0  0  0  0  0  0  0  0
   -0.1913    2.6314   -0.8974 C   0  0  0  0  0  0  0  0  0  0  0  0
   -1.1740    2.3994    0.0048 C   0  0  0  0  0  0  0  0  0  0  0  0
   -1.3340    1.0989    0.5782 C   0  0  0  0  0  0  0  0  0  0  0  0
   -0.7256   -0.9902    0.4846 H   0  0  0  0  0  0  0  0  0  0  0  0
    1.0538   -0.5902   -1.1444 H   0  0  0  0  0  0  0  0  0  0  0  0
   -0.0015    3.6219   -1.2975 H   0  0  0  0  0  0  0  0  0  0  0  0
   -1.8022    3.2012    0.3745 H   0  0  0  0  0  0  0  0  0  0  0  0
    1.5243    1.7297   -1.9675 N   0  0  0  0  0  0  0  0  0  0  0  0
    2.4230    1.9259   -2.6542 N   0  0  0  0  0  0  0  0  0  0  0  0
    1.5569    0.5356    2.2503 B   0  0  0  0  0  0  0  0  0  0  0  0
    0.9417   -0.7466    2.2908 F   0  0  0  0  0  0  0  0  0  0  0  0
    0.5135    1.5000    2.3439 F   0  0  0  0  0  0  0  0  0  0  0  0
    2.4613    0.6871    3.2731 F   0  0  0  0  0  0  0  0  0  0  0  0
    2.1900    0.6926    0.9844 F   0  0  0  0  0  0  0  0  0  0  0  0
   -2.2147    1.0123    1.5435 O   0  0  0  0  0  0  0  0  0  0  0  0
   -2.2129   -0.1590    2.4030 C   0  0  0  0  0  0  0  0  0  0  0  0
   -2.7984    0.1347    3.2724 H   0  0  0  0  0  0  0  0  0  0  0  0
   -1.1832   -0.3989    2.6774 H   0  0  0  0  0  0  0  0  0  0  0  0
   -2.7018   -0.9931    1.8908 H   0  0  0  0  0  0  0  0  0  0  0  0
  1  7  1  0  0  0  0
  1  6  1  0  0  0  0
  2  1  2  0  0  0  0
  3  4  2  0  0  0  0
  3  2  1  0  0  0  0
  4  5  1  0  0  0  0
  5 10  1  0  0  0  0
  5  6  2  0  0  0  0
  6 18  1  0  0  0  0
  8  2  1  0  0  0  0
  9  4  1  0  0  0  0
 11  3  1  0  0  0  0
 12 11  1  0  0  0  0
 13 14  1  0  0  0  0
 13 15  1  0  0  0  0
 13 16  1  0  0  0  0
 17 13  1  0  0  0  0
 18 19  1  0  0  0  0
 19 21  1  0  0  0  0
 19 20  1  0  0  0  0
 22 19  1  0  0  0  0
M  RAD  2  11   2  12   3
M  END
