Coordinates from ORCA-job 4-MeO-Ph-N2-BF4-B3LYPG-6-31G_dp-MTMO-d009-169-n800
 OpenBabel09051908083D

 22 20  0  0  0  0  0  0  0  0999 V2000
   -1.6353    0.9396    0.1476 C   0  0  0  0  0  0  0  0  0  0  0  0
   -1.0529    0.8945   -1.1783 C   0  0  0  0  0  0  0  0  0  0  0  0
   -2.0311    1.3260   -1.9210 C   0  0  0  0  0  0  0  0  0  0  0  0
   -3.2979    1.7804   -1.9840 C   0  0  0  0  0  0  0  0  0  0  0  0
   -3.7798    1.7975   -0.6609 C   0  0  0  0  0  0  0  0  0  0  0  0
   -2.9417    1.3783    0.4002 C   0  0  0  0  0  0  0  0  0  0  0  0
   -0.9150    0.6144    0.9034 H   0  0  0  0  0  0  0  0  0  0  0  0
    0.0266    0.5669   -1.2678 H   0  0  0  0  0  0  0  0  0  0  0  0
   -3.8640    2.0784   -2.8551 H   0  0  0  0  0  0  0  0  0  0  0  0
   -4.7926    2.1335   -0.4657 H   0  0  0  0  0  0  0  0  0  0  0  0
   13.3468   -1.2247    4.0703 N   0  0  0  0  0  0  0  0  0  0  0  0
   13.1141   -2.1625    3.5336 N   0  0  0  0  0  0  0  0  0  0  0  0
    1.6710    0.7163    0.4583 B   0  0  0  0  0  0  0  0  0  0  0  0
    0.8201   -0.0183    1.3274 F   0  0  0  0  0  0  0  0  0  0  0  0
    1.2153    2.0318    0.3933 F   0  0  0  0  0  0  0  0  0  0  0  0
    2.9845    0.5997    0.8114 F   0  0  0  0  0  0  0  0  0  0  0  0
    1.4791    0.1422   -0.8802 F   0  0  0  0  0  0  0  0  0  0  0  0
   -3.4821    1.4382    1.6322 O   0  0  0  0  0  0  0  0  0  0  0  0
   -2.6550    1.0713    2.7464 C   0  0  0  0  0  0  0  0  0  0  0  0
   -3.2698    1.2348    3.6309 H   0  0  0  0  0  0  0  0  0  0  0  0
   -1.7581    1.6973    2.7924 H   0  0  0  0  0  0  0  0  0  0  0  0
   -2.3623    0.0178    2.6869 H   0  0  0  0  0  0  0  0  0  0  0  0
  1  6  1  0  0  0  0
  1  7  1  0  0  0  0
  2  1  2  0  0  0  0
  3  2  1  0  0  0  0
  4  3  2  0  0  0  0
  4  5  1  0  0  0  0
  5 10  1  0  0  0  0
  5  6  2  0  0  0  0
  6 18  1  0  0  0  0
  8  2  1  0  0  0  0
  9  4  1  0  0  0  0
 12 11  3  0  0  0  0
 13 16  1  0  0  0  0
 13 14  1  0  0  0  0
 15 13  1  0  0  0  0
 17 13  1  0  0  0  0
 18 19  1  0  0  0  0
 19 21  1  0  0  0  0
 19 20  1  0  0  0  0
 22 19  1  0  0  0  0
M  RAD  1   3   2
M  END
