Coordinates from ORCA-job 4-MeO-Ph-N2-BF4-B3LYPG-6-31G_dp-MTMO-d009-169-n800
 OpenBabel09051908083D

 22 20  0  0  0  0  0  0  0  0999 V2000
   -1.5508    0.9235    0.1678 C   0  0  0  0  0  0  0  0  0  0  0  0
   -0.9673    0.8788   -1.1577 C   0  0  0  0  0  0  0  0  0  0  0  0
   -1.9457    1.3085   -1.9013 C   0  0  0  0  0  0  0  0  0  0  0  0
   -3.2132    1.7608   -1.9654 C   0  0  0  0  0  0  0  0  0  0  0  0
   -3.6960    1.7776   -0.6425 C   0  0  0  0  0  0  0  0  0  0  0  0
   -2.8580    1.3602    0.4193 C   0  0  0  0  0  0  0  0  0  0  0  0
   -0.8304    0.5998    0.9242 H   0  0  0  0  0  0  0  0  0  0  0  0
    0.1129    0.5531   -1.2462 H   0  0  0  0  0  0  0  0  0  0  0  0
   -3.7791    2.0576   -2.8370 H   0  0  0  0  0  0  0  0  0  0  0  0
   -4.7095    2.1121   -0.4483 H   0  0  0  0  0  0  0  0  0  0  0  0
   12.5042   -1.0680    3.8654 N   0  0  0  0  0  0  0  0  0  0  0  0
   12.2735   -2.0079    3.3317 N   0  0  0  0  0  0  0  0  0  0  0  0
    1.7556    0.7065    0.4814 B   0  0  0  0  0  0  0  0  0  0  0  0
    0.9053   -0.0292    1.3503 F   0  0  0  0  0  0  0  0  0  0  0  0
    1.2975    2.0210    0.4152 F   0  0  0  0  0  0  0  0  0  0  0  0
    3.0690    0.5924    0.8359 F   0  0  0  0  0  0  0  0  0  0  0  0
    1.5659    0.1312   -0.8569 F   0  0  0  0  0  0  0  0  0  0  0  0
   -3.3993    1.4198    1.6508 O   0  0  0  0  0  0  0  0  0  0  0  0
   -2.5724    1.0546    2.7658 C   0  0  0  0  0  0  0  0  0  0  0  0
   -3.1880    1.2176    3.6498 H   0  0  0  0  0  0  0  0  0  0  0  0
   -1.6764    1.6820    2.8121 H   0  0  0  0  0  0  0  0  0  0  0  0
   -2.2780    0.0016    2.7069 H   0  0  0  0  0  0  0  0  0  0  0  0
  1  6  1  0  0  0  0
  1  7  1  0  0  0  0
  2  1  2  0  0  0  0
  3  2  1  0  0  0  0
  4  3  2  0  0  0  0
  4  5  1  0  0  0  0
  5 10  1  0  0  0  0
  5  6  2  0  0  0  0
  6 18  1  0  0  0  0
  8  2  1  0  0  0  0
  9  4  1  0  0  0  0
 12 11  3  0  0  0  0
 13 16  1  0  0  0  0
 13 14  1  0  0  0  0
 15 13  1  0  0  0  0
 17 13  1  0  0  0  0
 18 19  1  0  0  0  0
 19 21  1  0  0  0  0
 19 20  1  0  0  0  0
 22 19  1  0  0  0  0
M  RAD  1   3   2
M  END
