Coordinates from ORCA-job 4-MeO-Ph-N2-BF4-B3LYPG-6-31G_dp-MTMO-d009-169-n800
 OpenBabel09051908083D

 22 20  0  0  0  0  0  0  0  0999 V2000
   -1.0608    0.8259    0.2842 C   0  0  0  0  0  0  0  0  0  0  0  0
   -0.4726    0.7780   -1.0391 C   0  0  0  0  0  0  0  0  0  0  0  0
   -1.4416    1.2262   -1.7844 C   0  0  0  0  0  0  0  0  0  0  0  0
   -2.7018    1.6979   -1.8512 C   0  0  0  0  0  0  0  0  0  0  0  0
   -3.1897    1.7162   -0.5301 C   0  0  0  0  0  0  0  0  0  0  0  0
   -2.3622    1.2813    0.5329 C   0  0  0  0  0  0  0  0  0  0  0  0
   -0.3482    0.4880    1.0419 H   0  0  0  0  0  0  0  0  0  0  0  0
    0.6020    0.4360   -1.1241 H   0  0  0  0  0  0  0  0  0  0  0  0
   -3.2599    2.0071   -2.7235 H   0  0  0  0  0  0  0  0  0  0  0  0
   -4.1988    2.0651   -0.3384 H   0  0  0  0  0  0  0  0  0  0  0  0
    7.5653   -0.0615    2.6728 N   0  0  0  0  0  0  0  0  0  0  0  0
    7.3692   -1.0047    2.1312 N   0  0  0  0  0  0  0  0  0  0  0  0
    2.2406    0.5595    0.6155 B   0  0  0  0  0  0  0  0  0  0  0  0
    1.3734   -0.1645    1.4778 F   0  0  0  0  0  0  0  0  0  0  0  0
    1.8049    1.8816    0.5510 F   0  0  0  0  0  0  0  0  0  0  0  0
    3.5498    0.4228    0.9793 F   0  0  0  0  0  0  0  0  0  0  0  0
    2.0501   -0.0084   -0.7248 F   0  0  0  0  0  0  0  0  0  0  0  0
   -2.9071    1.3433    1.7627 O   0  0  0  0  0  0  0  0  0  0  0  0
   -2.0899    0.9599    2.8789 C   0  0  0  0  0  0  0  0  0  0  0  0
   -2.7063    1.1280    3.7614 H   0  0  0  0  0  0  0  0  0  0  0  0
   -1.1847    1.5731    2.9315 H   0  0  0  0  0  0  0  0  0  0  0  0
   -1.8117   -0.0973    2.8158 H   0  0  0  0  0  0  0  0  0  0  0  0
  1  6  1  0  0  0  0
  1  7  1  0  0  0  0
  2  1  2  0  0  0  0
  3  2  1  0  0  0  0
  4  3  2  0  0  0  0
  4  5  1  0  0  0  0
  5 10  1  0  0  0  0
  5  6  2  0  0  0  0
  6 18  1  0  0  0  0
  8  2  1  0  0  0  0
  9  4  1  0  0  0  0
 12 11  3  0  0  0  0
 13 16  1  0  0  0  0
 13 14  1  0  0  0  0
 15 13  1  0  0  0  0
 17 13  1  0  0  0  0
 18 19  1  0  0  0  0
 19 21  1  0  0  0  0
 19 20  1  0  0  0  0
 22 19  1  0  0  0  0
M  RAD  1   3   2
M  END
