Coordinates from ORCA-job 4-MeO-Ph-N2-BF4-B3LYPG-6-31G_dp-MTMO-d009-169-n800
 OpenBabel09051908083D

 22 20  0  0  0  0  0  0  0  0999 V2000
   -0.7654    0.7071    0.4855 C   0  0  0  0  0  0  0  0  0  0  0  0
    0.0747    0.8832   -0.6817 C   0  0  0  0  0  0  0  0  0  0  0  0
   -0.6329    1.7054   -1.4022 C   0  0  0  0  0  0  0  0  0  0  0  0
   -1.7645    2.4263   -1.5255 C   0  0  0  0  0  0  0  0  0  0  0  0
   -2.5121    2.1999   -0.3539 C   0  0  0  0  0  0  0  0  0  0  0  0
   -2.0046    1.3392    0.6490 C   0  0  0  0  0  0  0  0  0  0  0  0
   -0.2828    0.0540    1.2199 H   0  0  0  0  0  0  0  0  0  0  0  0
    1.0689    0.3539   -0.6884 H   0  0  0  0  0  0  0  0  0  0  0  0
   -2.0717    3.0592   -2.3462 H   0  0  0  0  0  0  0  0  0  0  0  0
   -3.4730    2.6881   -0.2307 H   0  0  0  0  0  0  0  0  0  0  0  0
    4.2731    1.6943   -0.6386 N   0  0  0  0  0  0  0  0  0  0  0  0
    5.1598    1.3863   -0.0558 N   0  0  0  0  0  0  0  0  0  0  0  0
    2.3130   -0.2686    1.2763 B   0  0  0  0  0  0  0  0  0  0  0  0
    1.1974   -0.9201    1.8661 F   0  0  0  0  0  0  0  0  0  0  0  0
    2.1464    1.1116    1.4048 F   0  0  0  0  0  0  0  0  0  0  0  0
    3.4992   -0.7262    1.7775 F   0  0  0  0  0  0  0  0  0  0  0  0
    2.2536   -0.5570   -0.1591 F   0  0  0  0  0  0  0  0  0  0  0  0
   -2.7799    1.1875    1.7391 O   0  0  0  0  0  0  0  0  0  0  0  0
   -2.2981    0.3392    2.7917 C   0  0  0  0  0  0  0  0  0  0  0  0
   -3.0506    0.3945    3.5779 H   0  0  0  0  0  0  0  0  0  0  0  0
   -1.3331    0.6904    3.1711 H   0  0  0  0  0  0  0  0  0  0  0  0
   -2.1976   -0.6947    2.4446 H   0  0  0  0  0  0  0  0  0  0  0  0
  1  6  1  0  0  0  0
  1  7  1  0  0  0  0
  2  1  2  0  0  0  0
  3  2  1  0  0  0  0
  4  3  2  0  0  0  0
  4  5  1  0  0  0  0
  5 10  1  0  0  0  0
  5  6  2  0  0  0  0
  6 18  1  0  0  0  0
  8  2  1  0  0  0  0
  9  4  1  0  0  0  0
 11 12  3  0  0  0  0
 13 15  1  0  0  0  0
 13 16  1  0  0  0  0
 13 14  1  0  0  0  0
 17 13  1  0  0  0  0
 18 19  1  0  0  0  0
 19 21  1  0  0  0  0
 19 20  1  0  0  0  0
 22 19  1  0  0  0  0
M  RAD  1   3   2
M  END
