Coordinates from ORCA-job 4-MeO-Ph-N2-BF4-B3LYPG-6-31G_dp-MTMO-d009-169-n800
 OpenBabel09051908083D

 22 20  0  0  0  0  0  0  0  0999 V2000
   -1.2196    0.8553    0.2465 C   0  0  0  0  0  0  0  0  0  0  0  0
   -0.6338    0.8074   -1.0779 C   0  0  0  0  0  0  0  0  0  0  0  0
   -1.6024    1.2598   -1.8209 C   0  0  0  0  0  0  0  0  0  0  0  0
   -2.8611    1.7361   -1.8850 C   0  0  0  0  0  0  0  0  0  0  0  0
   -3.3468    1.7539   -0.5632 C   0  0  0  0  0  0  0  0  0  0  0  0
   -2.5191    1.3145    0.4979 C   0  0  0  0  0  0  0  0  0  0  0  0
   -0.5070    0.5137    1.0025 H   0  0  0  0  0  0  0  0  0  0  0  0
    0.4396    0.4611   -1.1657 H   0  0  0  0  0  0  0  0  0  0  0  0
   -3.4193    2.0487   -2.7560 H   0  0  0  0  0  0  0  0  0  0  0  0
   -4.3543    2.1059   -0.3692 H   0  0  0  0  0  0  0  0  0  0  0  0
    9.1539   -0.3232    3.0510 N   0  0  0  0  0  0  0  0  0  0  0  0
    8.9465   -1.2747    2.5283 N   0  0  0  0  0  0  0  0  0  0  0  0
    2.0803    0.5696    0.5685 B   0  0  0  0  0  0  0  0  0  0  0  0
    1.2126   -0.1530    1.4311 F   0  0  0  0  0  0  0  0  0  0  0  0
    1.6493    1.8936    0.5082 F   0  0  0  0  0  0  0  0  0  0  0  0
    3.3899    0.4269    0.9269 F   0  0  0  0  0  0  0  0  0  0  0  0
    1.8834    0.0056   -0.7732 F   0  0  0  0  0  0  0  0  0  0  0  0
   -3.0620    1.3764    1.7286 O   0  0  0  0  0  0  0  0  0  0  0  0
   -2.2445    0.9887    2.8430 C   0  0  0  0  0  0  0  0  0  0  0  0
   -2.8592    1.1567    3.7267 H   0  0  0  0  0  0  0  0  0  0  0  0
   -1.3375    1.5994    2.8955 H   0  0  0  0  0  0  0  0  0  0  0  0
   -1.9691   -0.0691    2.7775 H   0  0  0  0  0  0  0  0  0  0  0  0
  1  6  1  0  0  0  0
  1  7  1  0  0  0  0
  2  1  2  0  0  0  0
  3  2  1  0  0  0  0
  4  3  2  0  0  0  0
  4  5  1  0  0  0  0
  5 10  1  0  0  0  0
  5  6  2  0  0  0  0
  6 18  1  0  0  0  0
  8  2  1  0  0  0  0
  9  4  1  0  0  0  0
 12 11  3  0  0  0  0
 13 16  1  0  0  0  0
 13 14  1  0  0  0  0
 15 13  1  0  0  0  0
 17 13  1  0  0  0  0
 18 19  1  0  0  0  0
 19 21  1  0  0  0  0
 19 20  1  0  0  0  0
 22 19  1  0  0  0  0
M  RAD  1   3   2
M  END
