Coordinates from ORCA-job 4-MeO-Ph-N2-BF4-B3LYPG-6-31G_dp-MTMO-d009-169-n800
 OpenBabel09051908083D

 22 20  0  0  0  0  0  0  0  0999 V2000
   -0.5666    0.6340    0.7799 C   0  0  0  0  0  0  0  0  0  0  0  0
    0.5730    0.8431   -0.0886 C   0  0  0  0  0  0  0  0  0  0  0  0
    0.1167    1.7146   -0.9414 C   0  0  0  0  0  0  0  0  0  0  0  0
   -0.9182    2.4782   -1.3421 C   0  0  0  0  0  0  0  0  0  0  0  0
   -1.9722    2.2195   -0.4450 C   0  0  0  0  0  0  0  0  0  0  0  0
   -1.7891    1.2984    0.6142 C   0  0  0  0  0  0  0  0  0  0  0  0
   -0.3316   -0.0805    1.5726 H   0  0  0  0  0  0  0  0  0  0  0  0
    1.5352    0.2947    0.1498 H   0  0  0  0  0  0  0  0  0  0  0  0
   -0.9669    3.1585   -2.1806 H   0  0  0  0  0  0  0  0  0  0  0  0
   -2.9206    2.7303   -0.5739 H   0  0  0  0  0  0  0  0  0  0  0  0
    2.8895    2.4137   -3.1339 N   0  0  0  0  0  0  0  0  0  0  0  0
    3.8635    2.5202   -3.6447 N   0  0  0  0  0  0  0  0  0  0  0  0
    2.1964   -0.5200    2.2749 B   0  0  0  0  0  0  0  0  0  0  0  0
    0.9833   -1.2551    2.3245 F   0  0  0  0  0  0  0  0  0  0  0  0
    1.9266    0.8124    2.5821 F   0  0  0  0  0  0  0  0  0  0  0  0
    3.1688   -1.0828    3.0506 F   0  0  0  0  0  0  0  0  0  0  0  0
    2.6272   -0.5435    0.8692 F   0  0  0  0  0  0  0  0  0  0  0  0
   -2.8503    1.1221    1.4246 O   0  0  0  0  0  0  0  0  0  0  0  0
   -2.7005    0.2374    2.5434 C   0  0  0  0  0  0  0  0  0  0  0  0
   -3.6533    0.2711    3.0711 H   0  0  0  0  0  0  0  0  0  0  0  0
   -1.8942    0.5730    3.2042 H   0  0  0  0  0  0  0  0  0  0  0  0
   -2.4968   -0.7859    2.2103 H   0  0  0  0  0  0  0  0  0  0  0  0
  1  7  1  0  0  0  0
  2  8  1  0  0  0  0
  2  1  2  0  0  0  0
  3  2  1  0  0  0  0
  4  3  2  0  0  0  0
  4  5  1  0  0  0  0
  5  6  2  0  0  0  0
  6  1  1  0  0  0  0
  6 18  1  0  0  0  0
  9  4  1  0  0  0  0
 10  5  1  0  0  0  0
 12 11  3  0  0  0  0
 13 14  1  0  0  0  0
 13 15  1  0  0  0  0
 13 16  1  0  0  0  0
 17 13  1  0  0  0  0
 18 19  1  0  0  0  0
 19 20  1  0  0  0  0
 19 21  1  0  0  0  0
 22 19  1  0  0  0  0
M  RAD  1   3   2
M  END
