Coordinates from ORCA-job 4-MeO-Ph-N2-BF4-B3LYPG-6-31G_dp-MTMO-d009-169-n800
 OpenBabel09051908083D

 22 20  0  0  0  0  0  0  0  0999 V2000
   -1.2539    0.8680    0.2380 C   0  0  0  0  0  0  0  0  0  0  0  0
   -0.6686    0.8248   -1.0867 C   0  0  0  0  0  0  0  0  0  0  0  0
   -1.6479    1.2502   -1.8316 C   0  0  0  0  0  0  0  0  0  0  0  0
   -2.9170    1.6981   -1.8973 C   0  0  0  0  0  0  0  0  0  0  0  0
   -3.4014    1.7138   -0.5751 C   0  0  0  0  0  0  0  0  0  0  0  0
   -2.5630    1.3001    0.4879 C   0  0  0  0  0  0  0  0  0  0  0  0
   -0.5333    0.5472    0.9954 H   0  0  0  0  0  0  0  0  0  0  0  0
    0.4126    0.5028   -1.1737 H   0  0  0  0  0  0  0  0  0  0  0  0
   -3.4830    1.9923   -2.7697 H   0  0  0  0  0  0  0  0  0  0  0  0
   -4.4163    2.0447   -0.3822 H   0  0  0  0  0  0  0  0  0  0  0  0
    9.5386   -0.5149    3.1555 N   0  0  0  0  0  0  0  0  0  0  0  0
    9.3203   -1.4588    2.6233 N   0  0  0  0  0  0  0  0  0  0  0  0
    2.0526    0.6619    0.5575 B   0  0  0  0  0  0  0  0  0  0  0  0
    1.2028   -0.0758    1.4253 F   0  0  0  0  0  0  0  0  0  0  0  0
    1.5908    1.9751    0.4898 F   0  0  0  0  0  0  0  0  0  0  0  0
    3.3655    0.5520    0.9150 F   0  0  0  0  0  0  0  0  0  0  0  0
    1.8670    0.0854   -0.7807 F   0  0  0  0  0  0  0  0  0  0  0  0
   -3.1058    1.3585    1.7188 O   0  0  0  0  0  0  0  0  0  0  0  0
   -2.2787    0.9971    2.8349 C   0  0  0  0  0  0  0  0  0  0  0  0
   -2.8957    1.1585    3.7182 H   0  0  0  0  0  0  0  0  0  0  0  0
   -1.3849    1.6276    2.8816 H   0  0  0  0  0  0  0  0  0  0  0  0
   -1.9806   -0.0550    2.7771 H   0  0  0  0  0  0  0  0  0  0  0  0
  1  6  1  0  0  0  0
  1  7  1  0  0  0  0
  2  1  2  0  0  0  0
  3  2  1  0  0  0  0
  4  3  2  0  0  0  0
  4  5  1  0  0  0  0
  5 10  1  0  0  0  0
  5  6  2  0  0  0  0
  6 18  1  0  0  0  0
  8  2  1  0  0  0  0
  9  4  1  0  0  0  0
 12 11  3  0  0  0  0
 13 16  1  0  0  0  0
 13 14  1  0  0  0  0
 15 13  1  0  0  0  0
 17 13  1  0  0  0  0
 18 19  1  0  0  0  0
 19 21  1  0  0  0  0
 19 20  1  0  0  0  0
 22 19  1  0  0  0  0
M  RAD  1   3   2
M  END
