Coordinates from ORCA-job 4-MeO-Ph-N2-BF4-B3LYPG-6-31G_dp-MTMO-d009-169-n800
 OpenBabel09051908083D

 22 20  0  0  0  0  0  0  0  0999 V2000
   -1.4935    0.9132    0.1813 C   0  0  0  0  0  0  0  0  0  0  0  0
   -0.9099    0.8696   -1.1441 C   0  0  0  0  0  0  0  0  0  0  0  0
   -1.8901    1.2946   -1.8880 C   0  0  0  0  0  0  0  0  0  0  0  0
   -3.1593    1.7420   -1.9525 C   0  0  0  0  0  0  0  0  0  0  0  0
   -3.6421    1.7583   -0.6296 C   0  0  0  0  0  0  0  0  0  0  0  0
   -2.8024    1.3452    0.4326 C   0  0  0  0  0  0  0  0  0  0  0  0
   -0.7718    0.5931    0.9380 H   0  0  0  0  0  0  0  0  0  0  0  0
    0.1715    0.5480   -1.2326 H   0  0  0  0  0  0  0  0  0  0  0  0
   -3.7265    2.0357   -2.8243 H   0  0  0  0  0  0  0  0  0  0  0  0
   -4.6569    2.0891   -0.4356 H   0  0  0  0  0  0  0  0  0  0  0  0
   11.9385   -0.9724    3.7310 N   0  0  0  0  0  0  0  0  0  0  0  0
   11.7067   -1.9135    3.1999 N   0  0  0  0  0  0  0  0  0  0  0  0
    1.8139    0.7090    0.4946 B   0  0  0  0  0  0  0  0  0  0  0  0
    0.9664   -0.0297    1.3637 F   0  0  0  0  0  0  0  0  0  0  0  0
    1.3508    2.0217    0.4279 F   0  0  0  0  0  0  0  0  0  0  0  0
    3.1277    0.6002    0.8492 F   0  0  0  0  0  0  0  0  0  0  0  0
    1.6264    0.1325   -0.8435 F   0  0  0  0  0  0  0  0  0  0  0  0
   -3.3438    1.4039    1.6641 O   0  0  0  0  0  0  0  0  0  0  0  0
   -2.5153    1.0432    2.7793 C   0  0  0  0  0  0  0  0  0  0  0  0
   -3.1315    1.2047    3.6633 H   0  0  0  0  0  0  0  0  0  0  0  0
   -1.6218    1.6740    2.8249 H   0  0  0  0  0  0  0  0  0  0  0  0
   -2.2169   -0.0088    2.7216 H   0  0  0  0  0  0  0  0  0  0  0  0
  1  6  1  0  0  0  0
  1  7  1  0  0  0  0
  2  1  2  0  0  0  0
  3  2  1  0  0  0  0
  4  3  2  0  0  0  0
  4  5  1  0  0  0  0
  5 10  1  0  0  0  0
  5  6  2  0  0  0  0
  6 18  1  0  0  0  0
  8  2  1  0  0  0  0
  9  4  1  0  0  0  0
 12 11  3  0  0  0  0
 13 16  1  0  0  0  0
 13 14  1  0  0  0  0
 15 13  1  0  0  0  0
 17 13  1  0  0  0  0
 18 19  1  0  0  0  0
 19 21  1  0  0  0  0
 19 20  1  0  0  0  0
 22 19  1  0  0  0  0
M  RAD  1   3   2
M  END
