Coordinates from ORCA-job 4-MeO-Ph-N2-BF4-B3LYPG-6-31G_dp-MTMO-d009-169-n800
 OpenBabel09051908083D

 22 21  0  0  0  0  0  0  0  0999 V2000
   -0.2982    0.5178    0.4142 C   0  0  0  0  0  0  0  0  0  0  0  0
    0.7192    0.8115   -0.4867 C   0  0  0  0  0  0  0  0  0  0  0  0
    0.3948    1.8090   -1.3768 C   0  0  0  0  0  0  0  0  0  0  0  0
   -0.7514    2.5835   -1.4874 C   0  0  0  0  0  0  0  0  0  0  0  0
   -1.7225    2.2780   -0.5468 C   0  0  0  0  0  0  0  0  0  0  0  0
   -1.4885    1.2713    0.4263 C   0  0  0  0  0  0  0  0  0  0  0  0
   -0.1051   -0.2792    1.1294 H   0  0  0  0  0  0  0  0  0  0  0  0
    1.6707    0.2990   -0.3834 H   0  0  0  0  0  0  0  0  0  0  0  0
   -0.8824    3.3579   -2.2319 H   0  0  0  0  0  0  0  0  0  0  0  0
   -2.6593    2.8231   -0.5263 H   0  0  0  0  0  0  0  0  0  0  0  0
    1.6512    2.2374   -2.4405 N   0  0  0  0  0  0  0  0  0  0  0  0
    2.4933    2.4588   -3.1279 N   0  0  0  0  0  0  0  0  0  0  0  0
    1.7626   -0.5247    2.6040 B   0  0  0  0  0  0  0  0  0  0  0  0
    0.7091   -1.4545    2.3410 F   0  0  0  0  0  0  0  0  0  0  0  0
    1.1508    0.6998    2.9604 F   0  0  0  0  0  0  0  0  0  0  0  0
    2.5964   -0.9883    3.5924 F   0  0  0  0  0  0  0  0  0  0  0  0
    2.4770   -0.3377    1.3825 F   0  0  0  0  0  0  0  0  0  0  0  0
   -2.4404    1.1093    1.3435 O   0  0  0  0  0  0  0  0  0  0  0  0
   -2.1544    0.2493    2.4766 C   0  0  0  0  0  0  0  0  0  0  0  0
   -2.9683    0.4314    3.1774 H   0  0  0  0  0  0  0  0  0  0  0  0
   -1.1845    0.5002    2.9147 H   0  0  0  0  0  0  0  0  0  0  0  0
   -2.1503   -0.7995    2.1667 H   0  0  0  0  0  0  0  0  0  0  0  0
  1  6  1  0  0  0  0
  1  7  1  0  0  0  0
  2  8  1  0  0  0  0
  2  1  2  0  0  0  0
  3  2  1  0  0  0  0
  4  3  2  0  0  0  0
  4  5  1  0  0  0  0
  5 10  1  0  0  0  0
  5  6  2  0  0  0  0
  6 18  1  0  0  0  0
  9  4  1  0  0  0  0
 11  3  1  0  0  0  0
 12 11  1  0  0  0  0
 13 15  1  0  0  0  0
 13 16  1  0  0  0  0
 14 13  1  0  0  0  0
 17 13  1  0  0  0  0
 18 19  1  0  0  0  0
 19 21  1  0  0  0  0
 19 20  1  0  0  0  0
 22 19  1  0  0  0  0
M  RAD  2  11   2  12   3
M  END
