Coordinates from ORCA-job 4-MeO-Ph-N2-BF4-B3LYPG-6-31G_dp-MTMO-d009-169-n800
 OpenBabel09051908083D

 22 20  0  0  0  0  0  0  0  0999 V2000
   -1.4641    0.9059    0.1878 C   0  0  0  0  0  0  0  0  0  0  0  0
   -0.8821    0.8605   -1.1383 C   0  0  0  0  0  0  0  0  0  0  0  0
   -1.8584    1.2979   -1.8800 C   0  0  0  0  0  0  0  0  0  0  0  0
   -3.1232    1.7582   -1.9420 C   0  0  0  0  0  0  0  0  0  0  0  0
   -3.6048    1.7750   -0.6187 C   0  0  0  0  0  0  0  0  0  0  0  0
   -2.7684    1.3500    0.4414 C   0  0  0  0  0  0  0  0  0  0  0  0
   -0.7451    0.5761    0.9428 H   0  0  0  0  0  0  0  0  0  0  0  0
    0.1958    0.5280   -1.2285 H   0  0  0  0  0  0  0  0  0  0  0  0
   -3.6881    2.0604   -2.8124 H   0  0  0  0  0  0  0  0  0  0  0  0
   -4.6161    2.1152   -0.4228 H   0  0  0  0  0  0  0  0  0  0  0  0
   11.6233   -0.8730    3.6623 N   0  0  0  0  0  0  0  0  0  0  0  0
   11.3976   -1.8140    3.1283 N   0  0  0  0  0  0  0  0  0  0  0  0
    1.8408    0.6663    0.4982 B   0  0  0  0  0  0  0  0  0  0  0  0
    0.9864   -0.0657    1.3661 F   0  0  0  0  0  0  0  0  0  0  0  0
    1.3914    1.9840    0.4353 F   0  0  0  0  0  0  0  0  0  0  0  0
    3.1537    0.5428    0.8514 F   0  0  0  0  0  0  0  0  0  0  0  0
    1.6464    0.0953   -0.8412 F   0  0  0  0  0  0  0  0  0  0  0  0
   -3.3083    1.4101    1.6736 O   0  0  0  0  0  0  0  0  0  0  0  0
   -2.4826    1.0372    2.7869 C   0  0  0  0  0  0  0  0  0  0  0  0
   -3.0966    1.2016    3.6719 H   0  0  0  0  0  0  0  0  0  0  0  0
   -1.5829    1.6591    2.8341 H   0  0  0  0  0  0  0  0  0  0  0  0
   -2.1946   -0.0175    2.7252 H   0  0  0  0  0  0  0  0  0  0  0  0
  1  6  1  0  0  0  0
  1  7  1  0  0  0  0
  2  1  2  0  0  0  0
  3  2  1  0  0  0  0
  4  3  2  0  0  0  0
  4  5  1  0  0  0  0
  5 10  1  0  0  0  0
  5  6  2  0  0  0  0
  6 18  1  0  0  0  0
  8  2  1  0  0  0  0
  9  4  1  0  0  0  0
 12 11  3  0  0  0  0
 13 16  1  0  0  0  0
 13 14  1  0  0  0  0
 15 13  1  0  0  0  0
 17 13  1  0  0  0  0
 18 19  1  0  0  0  0
 19 21  1  0  0  0  0
 19 20  1  0  0  0  0
 22 19  1  0  0  0  0
M  RAD  1   3   2
M  END
