Coordinates from ORCA-job 4-MeO-Ph-N2-BF4-B3LYPG-6-31G_dp-MTMO-d009-169-n800
 OpenBabel09051908083D

 22 20  0  0  0  0  0  0  0  0999 V2000
   -0.7599    0.7046    0.4895 C   0  0  0  0  0  0  0  0  0  0  0  0
    0.0851    0.8788   -0.6745 C   0  0  0  0  0  0  0  0  0  0  0  0
   -0.6178    1.7027   -1.3977 C   0  0  0  0  0  0  0  0  0  0  0  0
   -1.7460    2.4282   -1.5244 C   0  0  0  0  0  0  0  0  0  0  0  0
   -2.4986    2.2037   -0.3557 C   0  0  0  0  0  0  0  0  0  0  0  0
   -1.9977    1.3408    0.6487 C   0  0  0  0  0  0  0  0  0  0  0  0
   -0.2828    0.0489    1.2249 H   0  0  0  0  0  0  0  0  0  0  0  0
    1.0774    0.3461   -0.6791 H   0  0  0  0  0  0  0  0  0  0  0  0
   -2.0480    3.0630   -2.3457 H   0  0  0  0  0  0  0  0  0  0  0  0
   -3.4582    2.6951   -0.2358 H   0  0  0  0  0  0  0  0  0  0  0  0
    4.2119    1.7163   -0.6644 N   0  0  0  0  0  0  0  0  0  0  0  0
    5.1209    1.4380   -0.1014 N   0  0  0  0  0  0  0  0  0  0  0  0
    2.3136   -0.2849    1.2876 B   0  0  0  0  0  0  0  0  0  0  0  0
    1.1921   -0.9351    1.8679 F   0  0  0  0  0  0  0  0  0  0  0  0
    2.1510    1.0953    1.4214 F   0  0  0  0  0  0  0  0  0  0  0  0
    3.4950   -0.7490    1.7938 F   0  0  0  0  0  0  0  0  0  0  0  0
    2.2612   -0.5666   -0.1494 F   0  0  0  0  0  0  0  0  0  0  0  0
   -2.7775    1.1911    1.7358 O   0  0  0  0  0  0  0  0  0  0  0  0
   -2.3024    0.3413    2.7900 C   0  0  0  0  0  0  0  0  0  0  0  0
   -3.0580    0.3983    3.5731 H   0  0  0  0  0  0  0  0  0  0  0  0
   -1.3380    0.6900    3.1736 H   0  0  0  0  0  0  0  0  0  0  0  0
   -2.2031   -0.6929    2.4432 H   0  0  0  0  0  0  0  0  0  0  0  0
  1  6  1  0  0  0  0
  1  7  1  0  0  0  0
  2  1  2  0  0  0  0
  3  2  1  0  0  0  0
  4  3  2  0  0  0  0
  4  5  1  0  0  0  0
  5 10  1  0  0  0  0
  5  6  2  0  0  0  0
  6 18  1  0  0  0  0
  8  2  1  0  0  0  0
  9  4  1  0  0  0  0
 11 12  3  0  0  0  0
 13 15  1  0  0  0  0
 13 16  1  0  0  0  0
 13 14  1  0  0  0  0
 17 13  1  0  0  0  0
 18 19  1  0  0  0  0
 19 21  1  0  0  0  0
 19 20  1  0  0  0  0
 22 19  1  0  0  0  0
M  RAD  1   3   2
M  END
