Coordinates from ORCA-job 4-MeO-Ph-N2-BF4-B3LYPG-6-31G_dp-MTMO-d009-169-n800
 OpenBabel09051908083D

 22 20  0  0  0  0  0  0  0  0999 V2000
   -0.8270    0.6889    0.4188 C   0  0  0  0  0  0  0  0  0  0  0  0
   -0.0990    0.7850   -0.8300 C   0  0  0  0  0  0  0  0  0  0  0  0
   -0.8612    1.5763   -1.5290 C   0  0  0  0  0  0  0  0  0  0  0  0
   -1.9822    2.3216   -1.5834 C   0  0  0  0  0  0  0  0  0  0  0  0
   -2.6180    2.1755   -0.3352 C   0  0  0  0  0  0  0  0  0  0  0  0
   -2.0325    1.3597    0.6627 C   0  0  0  0  0  0  0  0  0  0  0  0
   -0.2983    0.0502    1.1325 H   0  0  0  0  0  0  0  0  0  0  0  0
    0.8797    0.2299   -0.9081 H   0  0  0  0  0  0  0  0  0  0  0  0
   -2.3537    2.9194   -2.4037 H   0  0  0  0  0  0  0  0  0  0  0  0
   -3.5541    2.6912   -0.1496 H   0  0  0  0  0  0  0  0  0  0  0  0
    4.7539    2.0788    0.2984 N   0  0  0  0  0  0  0  0  0  0  0  0
    5.4178    1.3730    0.8297 N   0  0  0  0  0  0  0  0  0  0  0  0
    2.2723   -0.3934    0.9408 B   0  0  0  0  0  0  0  0  0  0  0  0
    1.1874   -1.0378    1.5912 F   0  0  0  0  0  0  0  0  0  0  0  0
    2.1348    0.9868    1.1052 F   0  0  0  0  0  0  0  0  0  0  0  0
    3.4814   -0.8743    1.3601 F   0  0  0  0  0  0  0  0  0  0  0  0
    2.1149   -0.6581   -0.4910 F   0  0  0  0  0  0  0  0  0  0  0  0
   -2.7031    1.2865    1.8277 O   0  0  0  0  0  0  0  0  0  0  0  0
   -2.1212    0.5148    2.8889 C   0  0  0  0  0  0  0  0  0  0  0  0
   -2.7983    0.6264    3.7351 H   0  0  0  0  0  0  0  0  0  0  0  0
   -1.1283    0.8943    3.1507 H   0  0  0  0  0  0  0  0  0  0  0  0
   -2.0456   -0.5415    2.6094 H   0  0  0  0  0  0  0  0  0  0  0  0
  1  6  1  0  0  0  0
  1  7  1  0  0  0  0
  2  1  2  0  0  0  0
  3  2  1  0  0  0  0
  4  3  2  0  0  0  0
  4  5  1  0  0  0  0
  5 10  1  0  0  0  0
  5  6  2  0  0  0  0
  6 18  1  0  0  0  0
  8  2  1  0  0  0  0
  9  4  1  0  0  0  0
 11 12  3  0  0  0  0
 13 15  1  0  0  0  0
 13 16  1  0  0  0  0
 13 14  1  0  0  0  0
 17 13  1  0  0  0  0
 18 19  1  0  0  0  0
 19 21  1  0  0  0  0
 19 20  1  0  0  0  0
 22 19  1  0  0  0  0
M  RAD  1   3   2
M  END
