Coordinates from ORCA-job 4-MeO-Ph-N2-BF4-B3LYPG-6-31G_dp-MTMO-d009-169-n800
 OpenBabel09051908083D

 22 20  0  0  0  0  0  0  0  0999 V2000
   -1.3221    0.8799    0.2217 C   0  0  0  0  0  0  0  0  0  0  0  0
   -0.7379    0.8357   -1.1034 C   0  0  0  0  0  0  0  0  0  0  0  0
   -1.7157    1.2665   -1.8472 C   0  0  0  0  0  0  0  0  0  0  0  0
   -2.9828    1.7198   -1.9116 C   0  0  0  0  0  0  0  0  0  0  0  0
   -3.4664    1.7361   -0.5890 C   0  0  0  0  0  0  0  0  0  0  0  0
   -2.6292    1.3174    0.4730 C   0  0  0  0  0  0  0  0  0  0  0  0
   -0.6024    0.5551    0.9783 H   0  0  0  0  0  0  0  0  0  0  0  0
    0.3419    0.5092   -1.1915 H   0  0  0  0  0  0  0  0  0  0  0  0
   -3.5481    2.0176   -2.7833 H   0  0  0  0  0  0  0  0  0  0  0  0
   -4.4797    2.0712   -0.3950 H   0  0  0  0  0  0  0  0  0  0  0  0
   10.2122   -0.6255    3.3183 N   0  0  0  0  0  0  0  0  0  0  0  0
    9.9929   -1.5697    2.7872 N   0  0  0  0  0  0  0  0  0  0  0  0
    1.9836    0.6596    0.5383 B   0  0  0  0  0  0  0  0  0  0  0  0
    1.1316   -0.0756    1.4061 F   0  0  0  0  0  0  0  0  0  0  0  0
    1.5269    1.9747    0.4723 F   0  0  0  0  0  0  0  0  0  0  0  0
    3.2964    0.5441    0.8944 F   0  0  0  0  0  0  0  0  0  0  0  0
    1.7946    0.0852   -0.8003 F   0  0  0  0  0  0  0  0  0  0  0  0
   -3.1710    1.3764    1.7043 O   0  0  0  0  0  0  0  0  0  0  0  0
   -2.3448    1.0099    2.8193 C   0  0  0  0  0  0  0  0  0  0  0  0
   -2.9606    1.1727    3.7032 H   0  0  0  0  0  0  0  0  0  0  0  0
   -1.4483    1.6365    2.8664 H   0  0  0  0  0  0  0  0  0  0  0  0
   -2.0512   -0.0434    2.7599 H   0  0  0  0  0  0  0  0  0  0  0  0
  1  6  1  0  0  0  0
  1  7  1  0  0  0  0
  2  1  2  0  0  0  0
  3  2  1  0  0  0  0
  4  3  2  0  0  0  0
  4  5  1  0  0  0  0
  5 10  1  0  0  0  0
  5  6  2  0  0  0  0
  6 18  1  0  0  0  0
  8  2  1  0  0  0  0
  9  4  1  0  0  0  0
 12 11  3  0  0  0  0
 13 16  1  0  0  0  0
 13 14  1  0  0  0  0
 15 13  1  0  0  0  0
 17 13  1  0  0  0  0
 18 19  1  0  0  0  0
 19 21  1  0  0  0  0
 19 20  1  0  0  0  0
 22 19  1  0  0  0  0
M  RAD  1   3   2
M  END
