Coordinates from ORCA-job 4-MeO-Ph-N2-BF4-B3LYPG-6-31G_dp-MTMO-d009-169-n800
 OpenBabel09051908083D

 22 20  0  0  0  0  0  0  0  0999 V2000
   -1.4754    0.9103    0.1873 C   0  0  0  0  0  0  0  0  0  0  0  0
   -0.8913    0.8669   -1.1376 C   0  0  0  0  0  0  0  0  0  0  0  0
   -1.8715    1.2893   -1.8830 C   0  0  0  0  0  0  0  0  0  0  0  0
   -3.1417    1.7336   -1.9489 C   0  0  0  0  0  0  0  0  0  0  0  0
   -3.6254    1.7498   -0.6262 C   0  0  0  0  0  0  0  0  0  0  0  0
   -2.7856    1.3395    0.4370 C   0  0  0  0  0  0  0  0  0  0  0  0
   -0.7541    0.5925    0.9452 H   0  0  0  0  0  0  0  0  0  0  0  0
    0.1912    0.5484   -1.2260 H   0  0  0  0  0  0  0  0  0  0  0  0
   -3.7091    2.0251   -2.8213 H   0  0  0  0  0  0  0  0  0  0  0  0
   -4.6410    2.0784   -0.4332 H   0  0  0  0  0  0  0  0  0  0  0  0
   11.7636   -0.9460    3.6869 N   0  0  0  0  0  0  0  0  0  0  0  0
   11.5289   -1.8879    3.1584 N   0  0  0  0  0  0  0  0  0  0  0  0
    1.8341    0.7129    0.4973 B   0  0  0  0  0  0  0  0  0  0  0  0
    0.9882   -0.0283    1.3655 F   0  0  0  0  0  0  0  0  0  0  0  0
    1.3687    2.0248    0.4316 F   0  0  0  0  0  0  0  0  0  0  0  0
    3.1481    0.6064    0.8517 F   0  0  0  0  0  0  0  0  0  0  0  0
    1.6474    0.1372   -0.8414 F   0  0  0  0  0  0  0  0  0  0  0  0
   -3.3285    1.3980    1.6679 O   0  0  0  0  0  0  0  0  0  0  0  0
   -2.5005    1.0400    2.7844 C   0  0  0  0  0  0  0  0  0  0  0  0
   -3.1181    1.2007    3.6674 H   0  0  0  0  0  0  0  0  0  0  0  0
   -1.6085    1.6731    2.8306 H   0  0  0  0  0  0  0  0  0  0  0  0
   -2.1996   -0.0113    2.7278 H   0  0  0  0  0  0  0  0  0  0  0  0
  1  6  1  0  0  0  0
  1  7  1  0  0  0  0
  2  1  2  0  0  0  0
  3  2  1  0  0  0  0
  4  3  2  0  0  0  0
  4  5  1  0  0  0  0
  5 10  1  0  0  0  0
  5  6  2  0  0  0  0
  6 18  1  0  0  0  0
  8  2  1  0  0  0  0
  9  4  1  0  0  0  0
 12 11  3  0  0  0  0
 13 16  1  0  0  0  0
 13 14  1  0  0  0  0
 15 13  1  0  0  0  0
 17 13  1  0  0  0  0
 18 19  1  0  0  0  0
 19 21  1  0  0  0  0
 19 20  1  0  0  0  0
 22 19  1  0  0  0  0
M  RAD  1   3   2
M  END
