Coordinates from ORCA-job 4-MeO-Ph-N2-BF4-B3LYPG-6-31G_dp-MTMO-d009-169-n800
 OpenBabel09051908083D

 22 20  0  0  0  0  0  0  0  0999 V2000
   -1.6108    0.9348    0.1535 C   0  0  0  0  0  0  0  0  0  0  0  0
   -1.0280    0.8897   -1.1723 C   0  0  0  0  0  0  0  0  0  0  0  0
   -2.0060    1.3212   -1.9153 C   0  0  0  0  0  0  0  0  0  0  0  0
   -3.2728    1.7756   -1.9786 C   0  0  0  0  0  0  0  0  0  0  0  0
   -3.7551    1.7927   -0.6556 C   0  0  0  0  0  0  0  0  0  0  0  0
   -2.9172    1.3735    0.4057 C   0  0  0  0  0  0  0  0  0  0  0  0
   -0.8906    0.6097    0.9094 H   0  0  0  0  0  0  0  0  0  0  0  0
    0.0516    0.5623   -1.2615 H   0  0  0  0  0  0  0  0  0  0  0  0
   -3.8387    2.0736   -2.8498 H   0  0  0  0  0  0  0  0  0  0  0  0
   -4.7680    2.1286   -0.4607 H   0  0  0  0  0  0  0  0  0  0  0  0
   13.1017   -1.1776    4.0101 N   0  0  0  0  0  0  0  0  0  0  0  0
   12.8694   -2.1162    3.4746 N   0  0  0  0  0  0  0  0  0  0  0  0
    1.6954    0.7121    0.4653 B   0  0  0  0  0  0  0  0  0  0  0  0
    0.8444   -0.0226    1.3343 F   0  0  0  0  0  0  0  0  0  0  0  0
    1.2395    2.0274    0.3999 F   0  0  0  0  0  0  0  0  0  0  0  0
    3.0088    0.5957    0.8189 F   0  0  0  0  0  0  0  0  0  0  0  0
    1.5040    0.1378   -0.8732 F   0  0  0  0  0  0  0  0  0  0  0  0
   -3.4579    1.4334    1.6375 O   0  0  0  0  0  0  0  0  0  0  0  0
   -2.6311    1.0665    2.7520 C   0  0  0  0  0  0  0  0  0  0  0  0
   -3.2461    1.2299    3.6363 H   0  0  0  0  0  0  0  0  0  0  0  0
   -1.7342    1.6924    2.7982 H   0  0  0  0  0  0  0  0  0  0  0  0
   -2.3384    0.0130    2.6925 H   0  0  0  0  0  0  0  0  0  0  0  0
  1  6  1  0  0  0  0
  1  7  1  0  0  0  0
  2  1  2  0  0  0  0
  3  2  1  0  0  0  0
  4  3  2  0  0  0  0
  4  5  1  0  0  0  0
  5 10  1  0  0  0  0
  5  6  2  0  0  0  0
  6 18  1  0  0  0  0
  8  2  1  0  0  0  0
  9  4  1  0  0  0  0
 12 11  3  0  0  0  0
 13 16  1  0  0  0  0
 13 14  1  0  0  0  0
 15 13  1  0  0  0  0
 17 13  1  0  0  0  0
 18 19  1  0  0  0  0
 19 21  1  0  0  0  0
 19 20  1  0  0  0  0
 22 19  1  0  0  0  0
M  RAD  1   3   2
M  END
