Coordinates from ORCA-job 4-MeO-Ph-N2-BF4-B3LYPG-6-31G_dp-MTMO-d009-169-n800
 OpenBabel09051908083D

 22 20  0  0  0  0  0  0  0  0999 V2000
   -0.4859    0.6319    0.7151 C   0  0  0  0  0  0  0  0  0  0  0  0
    0.6375    0.8368   -0.1289 C   0  0  0  0  0  0  0  0  0  0  0  0
    0.3073    1.7429   -1.0469 C   0  0  0  0  0  0  0  0  0  0  0  0
   -0.7553    2.5148   -1.4061 C   0  0  0  0  0  0  0  0  0  0  0  0
   -1.8223    2.2618   -0.5363 C   0  0  0  0  0  0  0  0  0  0  0  0
   -1.6873    1.3292    0.5199 C   0  0  0  0  0  0  0  0  0  0  0  0
   -0.3004   -0.0805    1.5182 H   0  0  0  0  0  0  0  0  0  0  0  0
    1.5802    0.2840    0.0644 H   0  0  0  0  0  0  0  0  0  0  0  0
   -0.7973    3.2178   -2.2254 H   0  0  0  0  0  0  0  0  0  0  0  0
   -2.7596    2.7912   -0.6690 H   0  0  0  0  0  0  0  0  0  0  0  0
    1.9299    2.1168   -2.2622 N   0  0  0  0  0  0  0  0  0  0  0  0
    2.8894    2.2315   -2.7961 N   0  0  0  0  0  0  0  0  0  0  0  0
    2.3422   -0.4881    2.2023 B   0  0  0  0  0  0  0  0  0  0  0  0
    1.1020   -1.1619    2.3676 F   0  0  0  0  0  0  0  0  0  0  0  0
    2.1310    0.8845    2.3836 F   0  0  0  0  0  0  0  0  0  0  0  0
    3.3079   -0.9980    3.0303 F   0  0  0  0  0  0  0  0  0  0  0  0
    2.7352   -0.6704    0.8153 F   0  0  0  0  0  0  0  0  0  0  0  0
   -2.7754    1.1785    1.2977 O   0  0  0  0  0  0  0  0  0  0  0  0
   -2.6915    0.2746    2.4078 C   0  0  0  0  0  0  0  0  0  0  0  0
   -3.6610    0.3306    2.9022 H   0  0  0  0  0  0  0  0  0  0  0  0
   -1.8994    0.5752    3.1011 H   0  0  0  0  0  0  0  0  0  0  0  0
   -2.5074   -0.7497    2.0669 H   0  0  0  0  0  0  0  0  0  0  0  0
  1  7  1  0  0  0  0
  2  8  1  0  0  0  0
  2  1  2  0  0  0  0
  3  2  1  0  0  0  0
  4  3  2  0  0  0  0
  4  5  1  0  0  0  0
  5  6  2  0  0  0  0
  6  1  1  0  0  0  0
  6 18  1  0  0  0  0
  9  4  1  0  0  0  0
 10  5  1  0  0  0  0
 12 11  3  0  0  0  0
 13 14  1  0  0  0  0
 13 15  1  0  0  0  0
 13 16  1  0  0  0  0
 17 13  1  0  0  0  0
 18 19  1  0  0  0  0
 19 20  1  0  0  0  0
 19 21  1  0  0  0  0
 22 19  1  0  0  0  0
M  RAD  1   3   2
M  END
