Coordinates from ORCA-job 4-MeO-Ph-N2-BF4-B3LYPG-6-31G_dp-MTMO-d009-169-n800
 OpenBabel09051908083D

 22 20  0  0  0  0  0  0  0  0999 V2000
   -0.7910    0.7225    0.4708 C   0  0  0  0  0  0  0  0  0  0  0  0
    0.0259    0.9025   -0.7122 C   0  0  0  0  0  0  0  0  0  0  0  0
   -0.7105    1.7036   -1.4279 C   0  0  0  0  0  0  0  0  0  0  0  0
   -1.8549    2.4062   -1.5362 C   0  0  0  0  0  0  0  0  0  0  0  0
   -2.5781    2.1778   -0.3496 C   0  0  0  0  0  0  0  0  0  0  0  0
   -2.0379    1.3350    0.6514 C   0  0  0  0  0  0  0  0  0  0  0  0
   -0.2866    0.0798    1.1998 H   0  0  0  0  0  0  0  0  0  0  0  0
    1.0275    0.3884   -0.7328 H   0  0  0  0  0  0  0  0  0  0  0  0
   -2.1869    3.0273   -2.3563 H   0  0  0  0  0  0  0  0  0  0  0  0
   -3.5448    2.6505   -0.2137 H   0  0  0  0  0  0  0  0  0  0  0  0
    4.5735    1.6425   -0.4974 N   0  0  0  0  0  0  0  0  0  0  0  0
    5.3545    1.2183    0.1591 N   0  0  0  0  0  0  0  0  0  0  0  0
    2.3065   -0.2294    1.2137 B   0  0  0  0  0  0  0  0  0  0  0  0
    1.2009   -0.8891    1.8147 F   0  0  0  0  0  0  0  0  0  0  0  0
    2.1358    1.1489    1.3509 F   0  0  0  0  0  0  0  0  0  0  0  0
    3.4999   -0.6851    1.7012 F   0  0  0  0  0  0  0  0  0  0  0  0
    2.2322   -0.5117   -0.2211 F   0  0  0  0  0  0  0  0  0  0  0  0
   -2.7904    1.1791    1.7565 O   0  0  0  0  0  0  0  0  0  0  0  0
   -2.2738    0.3500    2.8080 C   0  0  0  0  0  0  0  0  0  0  0  0
   -3.0136    0.3975    3.6066 H   0  0  0  0  0  0  0  0  0  0  0  0
   -1.3096    0.7237    3.1674 H   0  0  0  0  0  0  0  0  0  0  0  0
   -2.1586   -0.6849    2.4684 H   0  0  0  0  0  0  0  0  0  0  0  0
  1  6  1  0  0  0  0
  1  7  1  0  0  0  0
  2  1  2  0  0  0  0
  3  2  1  0  0  0  0
  4  3  2  0  0  0  0
  4  5  1  0  0  0  0
  5 10  1  0  0  0  0
  5  6  2  0  0  0  0
  6 18  1  0  0  0  0
  8  2  1  0  0  0  0
  9  4  1  0  0  0  0
 11 12  3  0  0  0  0
 13 15  1  0  0  0  0
 13 16  1  0  0  0  0
 13 14  1  0  0  0  0
 17 13  1  0  0  0  0
 18 19  1  0  0  0  0
 19 21  1  0  0  0  0
 19 20  1  0  0  0  0
 22 19  1  0  0  0  0
M  RAD  1   3   2
M  END
