Coordinates from ORCA-job 4-MeO-Ph-N2-BF4-B3LYPG-6-31G_dp-MTMO-d009-169-n800
 OpenBabel09051908083D

 22 21  0  0  0  0  0  0  0  0999 V2000
   -0.3323    0.5249    0.4394 C   0  0  0  0  0  0  0  0  0  0  0  0
    0.7121    0.8119   -0.4514 C   0  0  0  0  0  0  0  0  0  0  0  0
    0.3401    1.7754   -1.3286 C   0  0  0  0  0  0  0  0  0  0  0  0
   -0.7666    2.5720   -1.4830 C   0  0  0  0  0  0  0  0  0  0  0  0
   -1.7525    2.2656   -0.5446 C   0  0  0  0  0  0  0  0  0  0  0  0
   -1.5257    1.2682    0.4344 C   0  0  0  0  0  0  0  0  0  0  0  0
   -0.1308   -0.2723    1.1549 H   0  0  0  0  0  0  0  0  0  0  0  0
    1.6652    0.3056   -0.3112 H   0  0  0  0  0  0  0  0  0  0  0  0
   -0.8837    3.3379   -2.2371 H   0  0  0  0  0  0  0  0  0  0  0  0
   -2.6910    2.8089   -0.5482 H   0  0  0  0  0  0  0  0  0  0  0  0
    1.7485    2.2739   -2.4717 N   0  0  0  0  0  0  0  0  0  0  0  0
    2.6148    2.4723   -3.1291 N   0  0  0  0  0  0  0  0  0  0  0  0
    1.8018   -0.5285    2.5617 B   0  0  0  0  0  0  0  0  0  0  0  0
    0.7281   -1.4407    2.3186 F   0  0  0  0  0  0  0  0  0  0  0  0
    1.2217    0.7094    2.9111 F   0  0  0  0  0  0  0  0  0  0  0  0
    2.6414   -1.0018    3.5395 F   0  0  0  0  0  0  0  0  0  0  0  0
    2.5070   -0.3690    1.3260 F   0  0  0  0  0  0  0  0  0  0  0  0
   -2.4893    1.1006    1.3462 O   0  0  0  0  0  0  0  0  0  0  0  0
   -2.1904    0.2614    2.4875 C   0  0  0  0  0  0  0  0  0  0  0  0
   -3.0075    0.4345    3.1872 H   0  0  0  0  0  0  0  0  0  0  0  0
   -1.2269    0.5353    2.9268 H   0  0  0  0  0  0  0  0  0  0  0  0
   -2.1642   -0.7920    2.1930 H   0  0  0  0  0  0  0  0  0  0  0  0
  1  7  1  0  0  0  0
  2  8  1  0  0  0  0
  2  1  2  0  0  0  0
  3  2  1  0  0  0  0
  4  3  2  0  0  0  0
  4  5  1  0  0  0  0
  5  6  2  0  0  0  0
  6  1  1  0  0  0  0
  6 18  1  0  0  0  0
  9  4  1  0  0  0  0
 10  5  1  0  0  0  0
 11  3  1  0  0  0  0
 12 11  1  0  0  0  0
 13 15  1  0  0  0  0
 13 16  1  0  0  0  0
 14 13  1  0  0  0  0
 17 13  1  0  0  0  0
 18 19  1  0  0  0  0
 19 21  1  0  0  0  0
 19 20  1  0  0  0  0
 22 19  1  0  0  0  0
M  RAD  2  11   2  12   3
M  END
