Coordinates from ORCA-job 4-MeO-Ph-N2-BF4-B3LYPG-6-31G_dp-MTMO-d009-169-n800
 OpenBabel09051908083D

 22 20  0  0  0  0  0  0  0  0999 V2000
   -0.5751    0.6332    0.7857 C   0  0  0  0  0  0  0  0  0  0  0  0
    0.5626    0.8459   -0.0844 C   0  0  0  0  0  0  0  0  0  0  0  0
    0.1030    1.7177   -0.9351 C   0  0  0  0  0  0  0  0  0  0  0  0
   -0.9338    2.4800   -1.3330 C   0  0  0  0  0  0  0  0  0  0  0  0
   -1.9858    2.2181   -0.4345 C   0  0  0  0  0  0  0  0  0  0  0  0
   -1.7992    1.2957    0.6231 C   0  0  0  0  0  0  0  0  0  0  0  0
   -0.3372   -0.0821    1.5768 H   0  0  0  0  0  0  0  0  0  0  0  0
    1.5263    0.2988    0.1523 H   0  0  0  0  0  0  0  0  0  0  0  0
   -0.9853    3.1614   -2.1705 H   0  0  0  0  0  0  0  0  0  0  0  0
   -2.9354    2.7273   -0.5613 H   0  0  0  0  0  0  0  0  0  0  0  0
    2.9742    2.4270   -3.1973 N   0  0  0  0  0  0  0  0  0  0  0  0
    3.9509    2.5257   -3.7047 N   0  0  0  0  0  0  0  0  0  0  0  0
    2.1907   -0.5180    2.2756 B   0  0  0  0  0  0  0  0  0  0  0  0
    0.9791   -1.2555    2.3260 F   0  0  0  0  0  0  0  0  0  0  0  0
    1.9190    0.8134    2.5852 F   0  0  0  0  0  0  0  0  0  0  0  0
    3.1655   -1.0803    3.0486 F   0  0  0  0  0  0  0  0  0  0  0  0
    2.6192   -0.5386    0.8690 F   0  0  0  0  0  0  0  0  0  0  0  0
   -2.8586    1.1163    1.4350 O   0  0  0  0  0  0  0  0  0  0  0  0
   -2.7050    0.2306    2.5526 C   0  0  0  0  0  0  0  0  0  0  0  0
   -3.6569    0.2619    3.0821 H   0  0  0  0  0  0  0  0  0  0  0  0
   -1.8981    0.5669    3.2122 H   0  0  0  0  0  0  0  0  0  0  0  0
   -2.5000   -0.7919    2.2179 H   0  0  0  0  0  0  0  0  0  0  0  0
  1  7  1  0  0  0  0
  2  8  1  0  0  0  0
  2  1  2  0  0  0  0
  3  2  1  0  0  0  0
  4  3  2  0  0  0  0
  4  5  1  0  0  0  0
  5  6  2  0  0  0  0
  6  1  1  0  0  0  0
  6 18  1  0  0  0  0
  9  4  1  0  0  0  0
 10  5  1  0  0  0  0
 12 11  3  0  0  0  0
 13 14  1  0  0  0  0
 13 15  1  0  0  0  0
 13 16  1  0  0  0  0
 17 13  1  0  0  0  0
 18 19  1  0  0  0  0
 19 20  1  0  0  0  0
 19 21  1  0  0  0  0
 22 19  1  0  0  0  0
M  RAD  1   3   2
M  END
