Coordinates from ORCA-job 4-MeO-Ph-N2-BF4-B3LYPG-6-31G_dp-MTMO-d009-169-n800
 OpenBabel09051908083D

 22 20  0  0  0  0  0  0  0  0999 V2000
   -1.6213    0.9368    0.1510 C   0  0  0  0  0  0  0  0  0  0  0  0
   -1.0387    0.8917   -1.1749 C   0  0  0  0  0  0  0  0  0  0  0  0
   -2.0167    1.3233   -1.9177 C   0  0  0  0  0  0  0  0  0  0  0  0
   -3.2836    1.7778   -1.9809 C   0  0  0  0  0  0  0  0  0  0  0  0
   -3.7657    1.7948   -0.6578 C   0  0  0  0  0  0  0  0  0  0  0  0
   -2.9277    1.3756    0.4034 C   0  0  0  0  0  0  0  0  0  0  0  0
   -0.9011    0.6117    0.9068 H   0  0  0  0  0  0  0  0  0  0  0  0
    0.0409    0.5642   -1.2642 H   0  0  0  0  0  0  0  0  0  0  0  0
   -3.8495    2.0758   -2.8521 H   0  0  0  0  0  0  0  0  0  0  0  0
   -4.7785    2.1308   -0.4629 H   0  0  0  0  0  0  0  0  0  0  0  0
   13.2068   -1.1977    4.0359 N   0  0  0  0  0  0  0  0  0  0  0  0
   12.9743   -2.1359    3.4998 N   0  0  0  0  0  0  0  0  0  0  0  0
    1.6849    0.7138    0.4623 B   0  0  0  0  0  0  0  0  0  0  0  0
    0.8339   -0.0208    1.3313 F   0  0  0  0  0  0  0  0  0  0  0  0
    1.2291    2.0292    0.3971 F   0  0  0  0  0  0  0  0  0  0  0  0
    2.9983    0.5972    0.8157 F   0  0  0  0  0  0  0  0  0  0  0  0
    1.4933    0.1396   -0.8762 F   0  0  0  0  0  0  0  0  0  0  0  0
   -3.4683    1.4355    1.6352 O   0  0  0  0  0  0  0  0  0  0  0  0
   -2.6413    1.0686    2.7496 C   0  0  0  0  0  0  0  0  0  0  0  0
   -3.2563    1.2320    3.6340 H   0  0  0  0  0  0  0  0  0  0  0  0
   -1.7444    1.6945    2.7957 H   0  0  0  0  0  0  0  0  0  0  0  0
   -2.3486    0.0151    2.6901 H   0  0  0  0  0  0  0  0  0  0  0  0
  1  6  1  0  0  0  0
  1  7  1  0  0  0  0
  2  1  2  0  0  0  0
  3  2  1  0  0  0  0
  4  3  2  0  0  0  0
  4  5  1  0  0  0  0
  5 10  1  0  0  0  0
  5  6  2  0  0  0  0
  6 18  1  0  0  0  0
  8  2  1  0  0  0  0
  9  4  1  0  0  0  0
 12 11  3  0  0  0  0
 13 16  1  0  0  0  0
 13 14  1  0  0  0  0
 15 13  1  0  0  0  0
 17 13  1  0  0  0  0
 18 19  1  0  0  0  0
 19 21  1  0  0  0  0
 19 20  1  0  0  0  0
 22 19  1  0  0  0  0
M  RAD  1   3   2
M  END
