Coordinates from ORCA-job 4-MeO-Ph-N2-BF4-B3LYPG-6-31G_dp-MTMO-d009-169-n800
 OpenBabel09051908083D

 22 20  0  0  0  0  0  0  0  0999 V2000
   -0.7479    0.7099    0.4977 C   0  0  0  0  0  0  0  0  0  0  0  0
    0.0989    0.8707   -0.6669 C   0  0  0  0  0  0  0  0  0  0  0  0
   -0.6083    1.6766   -1.4063 C   0  0  0  0  0  0  0  0  0  0  0  0
   -1.7332    2.4057   -1.5408 C   0  0  0  0  0  0  0  0  0  0  0  0
   -2.4866    2.1964   -0.3697 C   0  0  0  0  0  0  0  0  0  0  0  0
   -1.9857    1.3485    0.6472 C   0  0  0  0  0  0  0  0  0  0  0  0
   -0.2790    0.0482    1.2329 H   0  0  0  0  0  0  0  0  0  0  0  0
    1.0895    0.3320   -0.6728 H   0  0  0  0  0  0  0  0  0  0  0  0
   -2.0327    3.0330   -2.3687 H   0  0  0  0  0  0  0  0  0  0  0  0
   -3.4466    2.6889   -0.2572 H   0  0  0  0  0  0  0  0  0  0  0  0
    4.1095    1.8370   -0.6244 N   0  0  0  0  0  0  0  0  0  0  0  0
    5.0574    1.6236   -0.0984 N   0  0  0  0  0  0  0  0  0  0  0  0
    2.3088   -0.3755    1.2743 B   0  0  0  0  0  0  0  0  0  0  0  0
    1.1592   -1.0357    1.7844 F   0  0  0  0  0  0  0  0  0  0  0  0
    2.1677    0.9965    1.4867 F   0  0  0  0  0  0  0  0  0  0  0  0
    3.4655   -0.8950    1.7826 F   0  0  0  0  0  0  0  0  0  0  0  0
    2.2889   -0.5709   -0.1787 F   0  0  0  0  0  0  0  0  0  0  0  0
   -2.7674    1.2131    1.7350 O   0  0  0  0  0  0  0  0  0  0  0  0
   -2.2874    0.3895    2.8076 C   0  0  0  0  0  0  0  0  0  0  0  0
   -3.0482    0.4516    3.5854 H   0  0  0  0  0  0  0  0  0  0  0  0
   -1.3303    0.7593    3.1895 H   0  0  0  0  0  0  0  0  0  0  0  0
   -2.1722   -0.6498    2.4820 H   0  0  0  0  0  0  0  0  0  0  0  0
  1  6  1  0  0  0  0
  1  7  1  0  0  0  0
  2  1  2  0  0  0  0
  3  2  1  0  0  0  0
  4  3  2  0  0  0  0
  4  5  1  0  0  0  0
  5 10  1  0  0  0  0
  5  6  2  0  0  0  0
  6 18  1  0  0  0  0
  8  2  1  0  0  0  0
  9  4  1  0  0  0  0
 11 12  3  0  0  0  0
 13 15  1  0  0  0  0
 13 16  1  0  0  0  0
 13 14  1  0  0  0  0
 17 13  1  0  0  0  0
 18 19  1  0  0  0  0
 19 21  1  0  0  0  0
 19 20  1  0  0  0  0
 22 19  1  0  0  0  0
M  RAD  1   3   2
M  END
