Coordinates from ORCA-job 4-MeO-Ph-N2-BF4-B3LYPG-6-31G_dp-MTMO-d009-169-n800
 OpenBabel09051908083D

 22 20  0  0  0  0  0  0  0  0999 V2000
   -1.5844    0.9298    0.1598 C   0  0  0  0  0  0  0  0  0  0  0  0
   -1.0012    0.8849   -1.1658 C   0  0  0  0  0  0  0  0  0  0  0  0
   -1.9793    1.3158   -1.9091 C   0  0  0  0  0  0  0  0  0  0  0  0
   -3.2463    1.7695   -1.9728 C   0  0  0  0  0  0  0  0  0  0  0  0
   -3.7289    1.7865   -0.6499 C   0  0  0  0  0  0  0  0  0  0  0  0
   -2.8911    1.3679    0.4117 C   0  0  0  0  0  0  0  0  0  0  0  0
   -0.8642    0.6051    0.9160 H   0  0  0  0  0  0  0  0  0  0  0  0
    0.0786    0.5579   -1.2547 H   0  0  0  0  0  0  0  0  0  0  0  0
   -3.8121    2.0671   -2.8442 H   0  0  0  0  0  0  0  0  0  0  0  0
   -4.7420    2.1220   -0.4553 H   0  0  0  0  0  0  0  0  0  0  0  0
   12.8384   -1.1286    3.9462 N   0  0  0  0  0  0  0  0  0  0  0  0
   12.6069   -2.0677    3.4113 N   0  0  0  0  0  0  0  0  0  0  0  0
    1.7219    0.7089    0.4726 B   0  0  0  0  0  0  0  0  0  0  0  0
    0.8709   -0.0261    1.3414 F   0  0  0  0  0  0  0  0  0  0  0  0
    1.2653    2.0240    0.4068 F   0  0  0  0  0  0  0  0  0  0  0  0
    3.0352    0.5932    0.8266 F   0  0  0  0  0  0  0  0  0  0  0  0
    1.5311    0.1342   -0.8659 F   0  0  0  0  0  0  0  0  0  0  0  0
   -3.4321    1.4277    1.6433 O   0  0  0  0  0  0  0  0  0  0  0  0
   -2.6053    1.0613    2.7580 C   0  0  0  0  0  0  0  0  0  0  0  0
   -3.2206    1.2246    3.6422 H   0  0  0  0  0  0  0  0  0  0  0  0
   -1.7087    1.6877    2.8044 H   0  0  0  0  0  0  0  0  0  0  0  0
   -2.3121    0.0079    2.6988 H   0  0  0  0  0  0  0  0  0  0  0  0
  1  6  1  0  0  0  0
  1  7  1  0  0  0  0
  2  1  2  0  0  0  0
  3  2  1  0  0  0  0
  4  3  2  0  0  0  0
  4  5  1  0  0  0  0
  5 10  1  0  0  0  0
  5  6  2  0  0  0  0
  6 18  1  0  0  0  0
  8  2  1  0  0  0  0
  9  4  1  0  0  0  0
 12 11  3  0  0  0  0
 13 16  1  0  0  0  0
 13 14  1  0  0  0  0
 15 13  1  0  0  0  0
 17 13  1  0  0  0  0
 18 19  1  0  0  0  0
 19 21  1  0  0  0  0
 19 20  1  0  0  0  0
 22 19  1  0  0  0  0
M  RAD  1   3   2
M  END
