Coordinates from ORCA-job 4-MeO-Ph-N2-BF4-B3LYPG-6-31G_dp-MTMO-d009-169-n800
 OpenBabel09051908083D

 22 20  0  0  0  0  0  0  0  0999 V2000
   -1.4659    0.9062    0.1873 C   0  0  0  0  0  0  0  0  0  0  0  0
   -0.8839    0.8608   -1.1388 C   0  0  0  0  0  0  0  0  0  0  0  0
   -1.8602    1.2983   -1.8805 C   0  0  0  0  0  0  0  0  0  0  0  0
   -3.1250    1.7587   -1.9424 C   0  0  0  0  0  0  0  0  0  0  0  0
   -3.6066    1.7755   -0.6191 C   0  0  0  0  0  0  0  0  0  0  0  0
   -2.7702    1.3504    0.4410 C   0  0  0  0  0  0  0  0  0  0  0  0
   -0.7469    0.5764    0.9423 H   0  0  0  0  0  0  0  0  0  0  0  0
    0.1940    0.5283   -1.2290 H   0  0  0  0  0  0  0  0  0  0  0  0
   -3.6899    2.0609   -2.8128 H   0  0  0  0  0  0  0  0  0  0  0  0
   -4.6178    2.1157   -0.4231 H   0  0  0  0  0  0  0  0  0  0  0  0
   11.6409   -0.8762    3.6665 N   0  0  0  0  0  0  0  0  0  0  0  0
   11.4151   -1.8172    3.1326 N   0  0  0  0  0  0  0  0  0  0  0  0
    1.8391    0.6664    0.4977 B   0  0  0  0  0  0  0  0  0  0  0  0
    0.9846   -0.0656    1.3656 F   0  0  0  0  0  0  0  0  0  0  0  0
    1.3896    1.9841    0.4349 F   0  0  0  0  0  0  0  0  0  0  0  0
    3.1519    0.5429    0.8509 F   0  0  0  0  0  0  0  0  0  0  0  0
    1.6446    0.0955   -0.8417 F   0  0  0  0  0  0  0  0  0  0  0  0
   -3.3100    1.4105    1.6732 O   0  0  0  0  0  0  0  0  0  0  0  0
   -2.4843    1.0375    2.7865 C   0  0  0  0  0  0  0  0  0  0  0  0
   -3.0983    1.2019    3.6715 H   0  0  0  0  0  0  0  0  0  0  0  0
   -1.5846    1.6594    2.8337 H   0  0  0  0  0  0  0  0  0  0  0  0
   -2.1964   -0.0171    2.7248 H   0  0  0  0  0  0  0  0  0  0  0  0
  1  6  1  0  0  0  0
  1  7  1  0  0  0  0
  2  1  2  0  0  0  0
  3  2  1  0  0  0  0
  4  3  2  0  0  0  0
  4  5  1  0  0  0  0
  5 10  1  0  0  0  0
  5  6  2  0  0  0  0
  6 18  1  0  0  0  0
  8  2  1  0  0  0  0
  9  4  1  0  0  0  0
 12 11  3  0  0  0  0
 13 16  1  0  0  0  0
 13 14  1  0  0  0  0
 15 13  1  0  0  0  0
 17 13  1  0  0  0  0
 18 19  1  0  0  0  0
 19 21  1  0  0  0  0
 19 20  1  0  0  0  0
 22 19  1  0  0  0  0
M  RAD  1   3   2
M  END
