Coordinates from ORCA-job 4-MeO-Ph-N2-BF4-B3LYPG-6-31G_dp-MTMO-d009-169-n800
 OpenBabel09051908083D

 22 20  0  0  0  0  0  0  0  0999 V2000
   -1.6002    0.9328    0.1560 C   0  0  0  0  0  0  0  0  0  0  0  0
   -1.0173    0.8878   -1.1697 C   0  0  0  0  0  0  0  0  0  0  0  0
   -1.9953    1.3191   -1.9128 C   0  0  0  0  0  0  0  0  0  0  0  0
   -3.2622    1.7732   -1.9763 C   0  0  0  0  0  0  0  0  0  0  0  0
   -3.7446    1.7902   -0.6533 C   0  0  0  0  0  0  0  0  0  0  0  0
   -2.9068    1.3713    0.4081 C   0  0  0  0  0  0  0  0  0  0  0  0
   -0.8801    0.6079    0.9121 H   0  0  0  0  0  0  0  0  0  0  0  0
    0.0624    0.5605   -1.2587 H   0  0  0  0  0  0  0  0  0  0  0  0
   -3.8280    2.0711   -2.8476 H   0  0  0  0  0  0  0  0  0  0  0  0
   -4.7575    2.1261   -0.4586 H   0  0  0  0  0  0  0  0  0  0  0  0
   12.9964   -1.1579    3.9845 N   0  0  0  0  0  0  0  0  0  0  0  0
   12.7645   -2.0967    3.4493 N   0  0  0  0  0  0  0  0  0  0  0  0
    1.7060    0.7107    0.4682 B   0  0  0  0  0  0  0  0  0  0  0  0
    0.8550   -0.0241    1.3371 F   0  0  0  0  0  0  0  0  0  0  0  0
    1.2498    2.0259    0.4027 F   0  0  0  0  0  0  0  0  0  0  0  0
    3.0193    0.5945    0.8220 F   0  0  0  0  0  0  0  0  0  0  0  0
    1.5148    0.1363   -0.8703 F   0  0  0  0  0  0  0  0  0  0  0  0
   -3.4476    1.4311    1.6398 O   0  0  0  0  0  0  0  0  0  0  0  0
   -2.6208    1.0644    2.7544 C   0  0  0  0  0  0  0  0  0  0  0  0
   -3.2360    1.2278    3.6387 H   0  0  0  0  0  0  0  0  0  0  0  0
   -1.7240    1.6905    2.8007 H   0  0  0  0  0  0  0  0  0  0  0  0
   -2.3279    0.0110    2.6950 H   0  0  0  0  0  0  0  0  0  0  0  0
  1  6  1  0  0  0  0
  1  7  1  0  0  0  0
  2  1  2  0  0  0  0
  3  2  1  0  0  0  0
  4  3  2  0  0  0  0
  4  5  1  0  0  0  0
  5 10  1  0  0  0  0
  5  6  2  0  0  0  0
  6 18  1  0  0  0  0
  8  2  1  0  0  0  0
  9  4  1  0  0  0  0
 12 11  3  0  0  0  0
 13 16  1  0  0  0  0
 13 14  1  0  0  0  0
 15 13  1  0  0  0  0
 17 13  1  0  0  0  0
 18 19  1  0  0  0  0
 19 21  1  0  0  0  0
 19 20  1  0  0  0  0
 22 19  1  0  0  0  0
M  RAD  1   3   2
M  END
