Coordinates from ORCA-job 4-MeO-Ph-N2-BF4-B3LYPG-6-31G_dp-MTMO-d009-169-n800
 OpenBabel09051908083D

 22 20  0  0  0  0  0  0  0  0999 V2000
   -0.8209    0.7096    0.2831 C   0  0  0  0  0  0  0  0  0  0  0  0
   -0.3620    0.6273   -1.0884 C   0  0  0  0  0  0  0  0  0  0  0  0
   -1.2811    1.2951   -1.7251 C   0  0  0  0  0  0  0  0  0  0  0  0
   -2.4147    2.0198   -1.6554 C   0  0  0  0  0  0  0  0  0  0  0  0
   -2.7816    2.0540   -0.2961 C   0  0  0  0  0  0  0  0  0  0  0  0
   -1.9781    1.3994    0.6683 C   0  0  0  0  0  0  0  0  0  0  0  0
   -0.1436    0.1757    0.9557 H   0  0  0  0  0  0  0  0  0  0  0  0
    0.6003    0.0692   -1.2861 H   0  0  0  0  0  0  0  0  0  0  0  0
   -2.9632    2.4911   -2.4585 H   0  0  0  0  0  0  0  0  0  0  0  0
   -3.6805    2.5840    0.0009 H   0  0  0  0  0  0  0  0  0  0  0  0
    4.2330    1.6983    2.6455 N   0  0  0  0  0  0  0  0  0  0  0  0
    5.0707    1.0679    2.2963 N   0  0  0  0  0  0  0  0  0  0  0  0
    2.3482   -0.3431    0.3078 B   0  0  0  0  0  0  0  0  0  0  0  0
    1.3983   -0.8975    1.2065 F   0  0  0  0  0  0  0  0  0  0  0  0
    2.2562    1.0472    0.3647 F   0  0  0  0  0  0  0  0  0  0  0  0
    3.6083   -0.8201    0.5404 F   0  0  0  0  0  0  0  0  0  0  0  0
    1.9239   -0.7366   -1.0390 F   0  0  0  0  0  0  0  0  0  0  0  0
   -2.4002    1.4918    1.9431 O   0  0  0  0  0  0  0  0  0  0  0  0
   -1.5902    0.8885    2.9632 C   0  0  0  0  0  0  0  0  0  0  0  0
   -2.0946    1.1097    3.9032 H   0  0  0  0  0  0  0  0  0  0  0  0
   -0.5834    1.3180    2.9688 H   0  0  0  0  0  0  0  0  0  0  0  0
   -1.5251   -0.1958    2.8221 H   0  0  0  0  0  0  0  0  0  0  0  0
  1  6  1  0  0  0  0
  1  7  1  0  0  0  0
  2  1  2  0  0  0  0
  3  4  2  0  0  0  0
  3  2  1  0  0  0  0
  4  5  1  0  0  0  0
  5 10  1  0  0  0  0
  5  6  2  0  0  0  0
  6 18  1  0  0  0  0
  8  2  1  0  0  0  0
  9  4  1  0  0  0  0
 12 11  3  0  0  0  0
 13 15  1  0  0  0  0
 13 16  1  0  0  0  0
 13 14  1  0  0  0  0
 17 13  1  0  0  0  0
 18 19  1  0  0  0  0
 19 21  1  0  0  0  0
 19 20  1  0  0  0  0
 22 19  1  0  0  0  0
M  RAD  1   3   2
M  END
