Coordinates from ORCA-job 4-MeO-Ph-N2-BF4-B3LYPG-6-31G_dp-MTMO-d009-169-n800
 OpenBabel09051908083D

 22 20  0  0  0  0  0  0  0  0999 V2000
   -0.8549    0.7334    0.2837 C   0  0  0  0  0  0  0  0  0  0  0  0
   -0.3786    0.6529   -1.0821 C   0  0  0  0  0  0  0  0  0  0  0  0
   -1.3120    1.2836   -1.7355 C   0  0  0  0  0  0  0  0  0  0  0  0
   -2.4702    1.9698   -1.6856 C   0  0  0  0  0  0  0  0  0  0  0  0
   -2.8538    2.0041   -0.3309 C   0  0  0  0  0  0  0  0  0  0  0  0
   -2.0398    1.3863    0.6487 C   0  0  0  0  0  0  0  0  0  0  0  0
   -0.1686    0.2273    0.9682 H   0  0  0  0  0  0  0  0  0  0  0  0
    0.6026    0.1204   -1.2644 H   0  0  0  0  0  0  0  0  0  0  0  0
   -3.0245    2.4155   -2.4994 H   0  0  0  0  0  0  0  0  0  0  0  0
   -3.7733    2.5060   -0.0489 H   0  0  0  0  0  0  0  0  0  0  0  0
    4.7148    1.5042    2.7705 N   0  0  0  0  0  0  0  0  0  0  0  0
    5.4294    0.8578    2.2296 N   0  0  0  0  0  0  0  0  0  0  0  0
    2.3452   -0.2509    0.3378 B   0  0  0  0  0  0  0  0  0  0  0  0
    1.3926   -0.8181    1.2253 F   0  0  0  0  0  0  0  0  0  0  0  0
    2.2367    1.1367    0.3933 F   0  0  0  0  0  0  0  0  0  0  0  0
    3.6079   -0.7165    0.5810 F   0  0  0  0  0  0  0  0  0  0  0  0
    1.9381   -0.6501   -1.0144 F   0  0  0  0  0  0  0  0  0  0  0  0
   -2.4807    1.4753    1.9175 O   0  0  0  0  0  0  0  0  0  0  0  0
   -1.6654    0.9062    2.9528 C   0  0  0  0  0  0  0  0  0  0  0  0
   -2.1917    1.1134    3.8840 H   0  0  0  0  0  0  0  0  0  0  0  0
   -0.6750    1.3719    2.9715 H   0  0  0  0  0  0  0  0  0  0  0  0
   -1.5590   -0.1757    2.8185 H   0  0  0  0  0  0  0  0  0  0  0  0
  1  6  1  0  0  0  0
  1  7  1  0  0  0  0
  2  1  2  0  0  0  0
  3  4  2  0  0  0  0
  3  2  1  0  0  0  0
  4  5  1  0  0  0  0
  5 10  1  0  0  0  0
  5  6  2  0  0  0  0
  6 18  1  0  0  0  0
  8  2  1  0  0  0  0
  9  4  1  0  0  0  0
 12 11  3  0  0  0  0
 13 15  1  0  0  0  0
 13 16  1  0  0  0  0
 13 14  1  0  0  0  0
 17 13  1  0  0  0  0
 18 19  1  0  0  0  0
 19 21  1  0  0  0  0
 19 20  1  0  0  0  0
 22 19  1  0  0  0  0
M  RAD  1   3   2
M  END
