Coordinates from ORCA-job 4-MeO-Ph-N2-BF4-B3LYPG-6-31G_dp-MTMO-d009-169-n800
 OpenBabel09051908083D

 22 20  0  0  0  0  0  0  0  0999 V2000
   -0.8539    0.7070    0.3377 C   0  0  0  0  0  0  0  0  0  0  0  0
   -0.2835    0.7024   -0.9938 C   0  0  0  0  0  0  0  0  0  0  0  0
   -1.1512    1.4031   -1.6664 C   0  0  0  0  0  0  0  0  0  0  0  0
   -2.2876    2.1263   -1.6495 C   0  0  0  0  0  0  0  0  0  0  0  0
   -2.7646    2.0849   -0.3250 C   0  0  0  0  0  0  0  0  0  0  0  0
   -2.0406    1.3770    0.6642 C   0  0  0  0  0  0  0  0  0  0  0  0
   -0.2368    0.1294    1.0309 H   0  0  0  0  0  0  0  0  0  0  0  0
    0.6949    0.1560   -1.1477 H   0  0  0  0  0  0  0  0  0  0  0  0
   -2.7700    2.6426   -2.4674 H   0  0  0  0  0  0  0  0  0  0  0  0
   -3.6868    2.5979   -0.0739 H   0  0  0  0  0  0  0  0  0  0  0  0
    4.8813    2.0471    1.6780 N   0  0  0  0  0  0  0  0  0  0  0  0
    5.4283    1.1072    1.8743 N   0  0  0  0  0  0  0  0  0  0  0  0
    2.2999   -0.3843    0.5407 B   0  0  0  0  0  0  0  0  0  0  0  0
    1.2645   -1.0150    1.2790 F   0  0  0  0  0  0  0  0  0  0  0  0
    2.2027    0.9947    0.7231 F   0  0  0  0  0  0  0  0  0  0  0  0
    3.5306   -0.8939    0.8484 F   0  0  0  0  0  0  0  0  0  0  0  0
    2.0114   -0.6417   -0.8745 F   0  0  0  0  0  0  0  0  0  0  0  0
   -2.5665    1.4000    1.9033 O   0  0  0  0  0  0  0  0  0  0  0  0
   -1.8389    0.7465    2.9536 C   0  0  0  0  0  0  0  0  0  0  0  0
   -2.4205    0.9160    3.8592 H   0  0  0  0  0  0  0  0  0  0  0  0
   -0.8391    1.1786    3.0648 H   0  0  0  0  0  0  0  0  0  0  0  0
   -1.7536   -0.3286    2.7622 H   0  0  0  0  0  0  0  0  0  0  0  0
  1  6  1  0  0  0  0
  1  7  1  0  0  0  0
  2  1  2  0  0  0  0
  3  4  2  0  0  0  0
  3  2  1  0  0  0  0
  4  5  1  0  0  0  0
  5 10  1  0  0  0  0
  5  6  2  0  0  0  0
  6 18  1  0  0  0  0
  8  2  1  0  0  0  0
  9  4  1  0  0  0  0
 11 12  3  0  0  0  0
 13 15  1  0  0  0  0
 13 16  1  0  0  0  0
 13 14  1  0  0  0  0
 17 13  1  0  0  0  0
 18 19  1  0  0  0  0
 19 21  1  0  0  0  0
 19 20  1  0  0  0  0
 22 19  1  0  0  0  0
M  RAD  1   3   2
M  END
