Coordinates from ORCA-job 4-MeO-Ph-N2-BF4-B3LYPG-6-31G_dp-MTMO-d009-169-n800
 OpenBabel09051908083D

 22 20  0  0  0  0  0  0  0  0999 V2000
   -1.1462    0.8429    0.2634 C   0  0  0  0  0  0  0  0  0  0  0  0
   -0.5599    0.7957   -1.0607 C   0  0  0  0  0  0  0  0  0  0  0  0
   -1.5296    1.2449   -1.8043 C   0  0  0  0  0  0  0  0  0  0  0  0
   -2.7895    1.7181   -1.8689 C   0  0  0  0  0  0  0  0  0  0  0  0
   -3.2755    1.7356   -0.5472 C   0  0  0  0  0  0  0  0  0  0  0  0
   -2.4469    1.2990    0.5143 C   0  0  0  0  0  0  0  0  0  0  0  0
   -0.4329    0.5033    1.0197 H   0  0  0  0  0  0  0  0  0  0  0  0
    0.5143    0.4520   -1.1480 H   0  0  0  0  0  0  0  0  0  0  0  0
   -3.3482    2.0288   -2.7403 H   0  0  0  0  0  0  0  0  0  0  0  0
   -4.2840    2.0852   -0.3538 H   0  0  0  0  0  0  0  0  0  0  0  0
    8.4219   -0.2022    2.8778 N   0  0  0  0  0  0  0  0  0  0  0  0
    8.2212   -1.1542    2.3534 N   0  0  0  0  0  0  0  0  0  0  0  0
    2.1540    0.5649    0.5883 B   0  0  0  0  0  0  0  0  0  0  0  0
    1.2871   -0.1589    1.4509 F   0  0  0  0  0  0  0  0  0  0  0  0
    1.7203    1.8880    0.5269 F   0  0  0  0  0  0  0  0  0  0  0  0
    3.4636    0.4253    0.9482 F   0  0  0  0  0  0  0  0  0  0  0  0
    1.9594   -0.0003   -0.7529 F   0  0  0  0  0  0  0  0  0  0  0  0
   -2.9901    1.3604    1.7449 O   0  0  0  0  0  0  0  0  0  0  0  0
   -2.1718    0.9755    2.8596 C   0  0  0  0  0  0  0  0  0  0  0  0
   -2.7871    1.1427    3.7431 H   0  0  0  0  0  0  0  0  0  0  0  0
   -1.2663    1.5883    2.9118 H   0  0  0  0  0  0  0  0  0  0  0  0
   -1.8939   -0.0818    2.7950 H   0  0  0  0  0  0  0  0  0  0  0  0
  1  6  1  0  0  0  0
  1  7  1  0  0  0  0
  2  1  2  0  0  0  0
  3  2  1  0  0  0  0
  4  3  2  0  0  0  0
  4  5  1  0  0  0  0
  5 10  1  0  0  0  0
  5  6  2  0  0  0  0
  6 18  1  0  0  0  0
  8  2  1  0  0  0  0
  9  4  1  0  0  0  0
 12 11  3  0  0  0  0
 13 16  1  0  0  0  0
 13 14  1  0  0  0  0
 15 13  1  0  0  0  0
 17 13  1  0  0  0  0
 18 19  1  0  0  0  0
 19 21  1  0  0  0  0
 19 20  1  0  0  0  0
 22 19  1  0  0  0  0
M  RAD  1   3   2
M  END
