Coordinates from ORCA-job 4-MeO-Ph-N2-BF4-B3LYPG-6-31G_dp-MTMO-d009-169-n800
 OpenBabel09051908083D

 22 20  0  0  0  0  0  0  0  0999 V2000
   -1.4953    0.9135    0.1809 C   0  0  0  0  0  0  0  0  0  0  0  0
   -0.9117    0.8698   -1.1446 C   0  0  0  0  0  0  0  0  0  0  0  0
   -1.8918    1.2951   -1.8885 C   0  0  0  0  0  0  0  0  0  0  0  0
   -3.1610    1.7428   -1.9529 C   0  0  0  0  0  0  0  0  0  0  0  0
   -3.6438    1.7590   -0.6300 C   0  0  0  0  0  0  0  0  0  0  0  0
   -2.8041    1.3457    0.4321 C   0  0  0  0  0  0  0  0  0  0  0  0
   -0.7737    0.5932    0.9376 H   0  0  0  0  0  0  0  0  0  0  0  0
    0.1696    0.5480   -1.2330 H   0  0  0  0  0  0  0  0  0  0  0  0
   -3.7281    2.0366   -2.8247 H   0  0  0  0  0  0  0  0  0  0  0  0
   -4.6584    2.0900   -0.4360 H   0  0  0  0  0  0  0  0  0  0  0  0
   11.9562   -0.9752    3.7352 N   0  0  0  0  0  0  0  0  0  0  0  0
   11.7246   -1.9163    3.2039 N   0  0  0  0  0  0  0  0  0  0  0  0
    1.8120    0.7087    0.4943 B   0  0  0  0  0  0  0  0  0  0  0  0
    0.9644   -0.0298    1.3634 F   0  0  0  0  0  0  0  0  0  0  0  0
    1.3492    2.0215    0.4275 F   0  0  0  0  0  0  0  0  0  0  0  0
    3.1258    0.5997    0.8489 F   0  0  0  0  0  0  0  0  0  0  0  0
    1.6244    0.1322   -0.8438 F   0  0  0  0  0  0  0  0  0  0  0  0
   -3.3455    1.4045    1.6637 O   0  0  0  0  0  0  0  0  0  0  0  0
   -2.5171    1.0435    2.7789 C   0  0  0  0  0  0  0  0  0  0  0  0
   -3.1333    1.2052    3.6628 H   0  0  0  0  0  0  0  0  0  0  0  0
   -1.6234    1.6742    2.8245 H   0  0  0  0  0  0  0  0  0  0  0  0
   -2.2190   -0.0085    2.7211 H   0  0  0  0  0  0  0  0  0  0  0  0
  1  6  1  0  0  0  0
  1  7  1  0  0  0  0
  2  1  2  0  0  0  0
  3  2  1  0  0  0  0
  4  3  2  0  0  0  0
  4  5  1  0  0  0  0
  5 10  1  0  0  0  0
  5  6  2  0  0  0  0
  6 18  1  0  0  0  0
  8  2  1  0  0  0  0
  9  4  1  0  0  0  0
 12 11  3  0  0  0  0
 13 16  1  0  0  0  0
 13 14  1  0  0  0  0
 15 13  1  0  0  0  0
 17 13  1  0  0  0  0
 18 19  1  0  0  0  0
 19 21  1  0  0  0  0
 19 20  1  0  0  0  0
 22 19  1  0  0  0  0
M  RAD  1   3   2
M  END
