Coordinates from ORCA-job 4-MeO-Ph-N2-BF4-B3LYPG-6-31G_dp-MTMO-d009-169-n800
 OpenBabel09051908083D

 22 20  0  0  0  0  0  0  0  0999 V2000
   -0.5117    0.6446    0.7407 C   0  0  0  0  0  0  0  0  0  0  0  0
    0.6313    0.8473   -0.1150 C   0  0  0  0  0  0  0  0  0  0  0  0
    0.2067    1.7231   -0.9863 C   0  0  0  0  0  0  0  0  0  0  0  0
   -0.8244    2.4906   -1.3928 C   0  0  0  0  0  0  0  0  0  0  0  0
   -1.8888    2.2380   -0.5074 C   0  0  0  0  0  0  0  0  0  0  0  0
   -1.7269    1.3184    0.5562 C   0  0  0  0  0  0  0  0  0  0  0  0
   -0.2955   -0.0685    1.5387 H   0  0  0  0  0  0  0  0  0  0  0  0
    1.5883    0.2990    0.1196 H   0  0  0  0  0  0  0  0  0  0  0  0
   -0.8628    3.1725   -2.2300 H   0  0  0  0  0  0  0  0  0  0  0  0
   -2.8324    2.7549   -0.6471 H   0  0  0  0  0  0  0  0  0  0  0  0
    2.3193    2.2585   -2.6508 N   0  0  0  0  0  0  0  0  0  0  0  0
    3.2872    2.3617   -3.1727 N   0  0  0  0  0  0  0  0  0  0  0  0
    2.2553   -0.5156    2.2450 B   0  0  0  0  0  0  0  0  0  0  0  0
    1.0408   -1.2487    2.2880 F   0  0  0  0  0  0  0  0  0  0  0  0
    1.9835    0.8199    2.5434 F   0  0  0  0  0  0  0  0  0  0  0  0
    3.2180   -1.0733    3.0385 F   0  0  0  0  0  0  0  0  0  0  0  0
    2.7009   -0.5478    0.8477 F   0  0  0  0  0  0  0  0  0  0  0  0
   -2.8014    1.1535    1.3518 O   0  0  0  0  0  0  0  0  0  0  0  0
   -2.6764    0.2697    2.4740 C   0  0  0  0  0  0  0  0  0  0  0  0
   -3.6372    0.3119    2.9864 H   0  0  0  0  0  0  0  0  0  0  0  0
   -1.8782    0.5998    3.1472 H   0  0  0  0  0  0  0  0  0  0  0  0
   -2.4757   -0.7559    2.1460 H   0  0  0  0  0  0  0  0  0  0  0  0
  1  7  1  0  0  0  0
  2  8  1  0  0  0  0
  2  1  2  0  0  0  0
  3  2  1  0  0  0  0
  4  3  2  0  0  0  0
  4  5  1  0  0  0  0
  5  6  2  0  0  0  0
  6  1  1  0  0  0  0
  6 18  1  0  0  0  0
  9  4  1  0  0  0  0
 10  5  1  0  0  0  0
 12 11  3  0  0  0  0
 13 14  1  0  0  0  0
 13 15  1  0  0  0  0
 13 16  1  0  0  0  0
 17 13  1  0  0  0  0
 18 19  1  0  0  0  0
 19 20  1  0  0  0  0
 19 21  1  0  0  0  0
 22 19  1  0  0  0  0
M  RAD  1   3   2
M  END
