Coordinates from ORCA-job 4-MeO-Ph-N2-BF4-B3LYPG-6-31G_dp-MTMO-d009-169-n800
 OpenBabel09051908083D

 22 20  0  0  0  0  0  0  0  0999 V2000
   -1.3007    0.8760    0.2268 C   0  0  0  0  0  0  0  0  0  0  0  0
   -0.7161    0.8322   -1.0982 C   0  0  0  0  0  0  0  0  0  0  0  0
   -1.6943    1.2615   -1.8423 C   0  0  0  0  0  0  0  0  0  0  0  0
   -2.9620    1.7133   -1.9070 C   0  0  0  0  0  0  0  0  0  0  0  0
   -3.4458    1.7295   -0.5846 C   0  0  0  0  0  0  0  0  0  0  0  0
   -2.6083    1.3121    0.4777 C   0  0  0  0  0  0  0  0  0  0  0  0
   -0.5807    0.5524    0.9836 H   0  0  0  0  0  0  0  0  0  0  0  0
    0.3641    0.5069   -1.1860 H   0  0  0  0  0  0  0  0  0  0  0  0
   -3.5275    2.0101   -2.7789 H   0  0  0  0  0  0  0  0  0  0  0  0
   -4.4596    2.0634   -0.3909 H   0  0  0  0  0  0  0  0  0  0  0  0
    9.9998   -0.5898    3.2667 N   0  0  0  0  0  0  0  0  0  0  0  0
    9.7813   -1.5343    2.7359 N   0  0  0  0  0  0  0  0  0  0  0  0
    2.0052    0.6598    0.5443 B   0  0  0  0  0  0  0  0  0  0  0  0
    1.1539   -0.0760    1.4122 F   0  0  0  0  0  0  0  0  0  0  0  0
    1.5471    1.9744    0.4777 F   0  0  0  0  0  0  0  0  0  0  0  0
    3.3181    0.5460    0.9008 F   0  0  0  0  0  0  0  0  0  0  0  0
    1.8173    0.0847   -0.7941 F   0  0  0  0  0  0  0  0  0  0  0  0
   -3.1504    1.3710    1.7089 O   0  0  0  0  0  0  0  0  0  0  0  0
   -2.3239    1.0058    2.8242 C   0  0  0  0  0  0  0  0  0  0  0  0
   -2.9401    1.1683    3.7079 H   0  0  0  0  0  0  0  0  0  0  0  0
   -1.4282    1.6334    2.8712 H   0  0  0  0  0  0  0  0  0  0  0  0
   -2.0292   -0.0471    2.7652 H   0  0  0  0  0  0  0  0  0  0  0  0
  1  6  1  0  0  0  0
  1  7  1  0  0  0  0
  2  1  2  0  0  0  0
  3  2  1  0  0  0  0
  4  3  2  0  0  0  0
  4  5  1  0  0  0  0
  5 10  1  0  0  0  0
  5  6  2  0  0  0  0
  6 18  1  0  0  0  0
  8  2  1  0  0  0  0
  9  4  1  0  0  0  0
 12 11  3  0  0  0  0
 13 16  1  0  0  0  0
 13 14  1  0  0  0  0
 15 13  1  0  0  0  0
 17 13  1  0  0  0  0
 18 19  1  0  0  0  0
 19 21  1  0  0  0  0
 19 20  1  0  0  0  0
 22 19  1  0  0  0  0
M  RAD  1   3   2
M  END
