Coordinates from ORCA-job 4-MeO-Ph-N2-BF4-B3LYPG-6-31G_dp-MTMO-d009-169-n800
 OpenBabel09051908083D

 22 20  0  0  0  0  0  0  0  0999 V2000
   -0.7626    0.7061    0.4876 C   0  0  0  0  0  0  0  0  0  0  0  0
    0.0798    0.8814   -0.6781 C   0  0  0  0  0  0  0  0  0  0  0  0
   -0.6254    1.7045   -1.3999 C   0  0  0  0  0  0  0  0  0  0  0  0
   -1.7556    2.4272   -1.5252 C   0  0  0  0  0  0  0  0  0  0  0  0
   -2.5057    2.2016   -0.3549 C   0  0  0  0  0  0  0  0  0  0  0  0
   -2.0013    1.3400    0.6488 C   0  0  0  0  0  0  0  0  0  0  0  0
   -0.2826    0.0519    1.2226 H   0  0  0  0  0  0  0  0  0  0  0  0
    1.0731    0.3502   -0.6837 H   0  0  0  0  0  0  0  0  0  0  0  0
   -2.0604    3.0609   -2.3462 H   0  0  0  0  0  0  0  0  0  0  0  0
   -3.4660    2.6910   -0.2334 H   0  0  0  0  0  0  0  0  0  0  0  0
    4.2421    1.7043   -0.6498 N   0  0  0  0  0  0  0  0  0  0  0  0
    5.1402    1.4106   -0.0770 N   0  0  0  0  0  0  0  0  0  0  0  0
    2.3137   -0.2765    1.2814 B   0  0  0  0  0  0  0  0  0  0  0  0
    1.1957   -0.9273    1.8674 F   0  0  0  0  0  0  0  0  0  0  0  0
    2.1494    1.1037    1.4126 F   0  0  0  0  0  0  0  0  0  0  0  0
    3.4981   -0.7374    1.7838 F   0  0  0  0  0  0  0  0  0  0  0  0
    2.2566   -0.5616   -0.1549 F   0  0  0  0  0  0  0  0  0  0  0  0
   -2.7789    1.1892    1.7373 O   0  0  0  0  0  0  0  0  0  0  0  0
   -2.3002    0.3404    2.7909 C   0  0  0  0  0  0  0  0  0  0  0  0
   -3.0544    0.3963    3.5754 H   0  0  0  0  0  0  0  0  0  0  0  0
   -1.3357    0.6907    3.1725 H   0  0  0  0  0  0  0  0  0  0  0  0
   -2.2000   -0.6937    2.4441 H   0  0  0  0  0  0  0  0  0  0  0  0
  1  6  1  0  0  0  0
  1  7  1  0  0  0  0
  2  1  2  0  0  0  0
  3  2  1  0  0  0  0
  4  3  2  0  0  0  0
  4  5  1  0  0  0  0
  5 10  1  0  0  0  0
  5  6  2  0  0  0  0
  6 18  1  0  0  0  0
  8  2  1  0  0  0  0
  9  4  1  0  0  0  0
 11 12  3  0  0  0  0
 13 15  1  0  0  0  0
 13 16  1  0  0  0  0
 13 14  1  0  0  0  0
 17 13  1  0  0  0  0
 18 19  1  0  0  0  0
 19 21  1  0  0  0  0
 19 20  1  0  0  0  0
 22 19  1  0  0  0  0
M  RAD  1   3   2
M  END
