Coordinates from ORCA-job 4-MeO-Ph-N2-BF4-B3LYPG-6-31G_dp-MTMO-d009-169-n800
 OpenBabel09051908083D

 22 20  0  0  0  0  0  0  0  0999 V2000
   -1.1820    0.8490    0.2552 C   0  0  0  0  0  0  0  0  0  0  0  0
   -0.5960    0.8015   -1.0691 C   0  0  0  0  0  0  0  0  0  0  0  0
   -1.5652    1.2522   -1.8124 C   0  0  0  0  0  0  0  0  0  0  0  0
   -2.8246    1.7269   -1.8767 C   0  0  0  0  0  0  0  0  0  0  0  0
   -3.3103    1.7445   -0.5549 C   0  0  0  0  0  0  0  0  0  0  0  0
   -2.4821    1.3066    0.5064 C   0  0  0  0  0  0  0  0  0  0  0  0
   -0.4690    0.5084    1.0113 H   0  0  0  0  0  0  0  0  0  0  0  0
    0.4778    0.4565   -1.1567 H   0  0  0  0  0  0  0  0  0  0  0  0
   -3.3831    2.0385   -2.7478 H   0  0  0  0  0  0  0  0  0  0  0  0
   -4.3184    2.0953   -0.3611 H   0  0  0  0  0  0  0  0  0  0  0  0
    8.7790   -0.2612    2.9626 N   0  0  0  0  0  0  0  0  0  0  0  0
    8.5748   -1.2132    2.4396 N   0  0  0  0  0  0  0  0  0  0  0  0
    2.1181    0.5672    0.5783 B   0  0  0  0  0  0  0  0  0  0  0  0
    1.2509   -0.1561    1.4409 F   0  0  0  0  0  0  0  0  0  0  0  0
    1.6856    1.8908    0.5176 F   0  0  0  0  0  0  0  0  0  0  0  0
    3.4277    0.4262    0.9373 F   0  0  0  0  0  0  0  0  0  0  0  0
    1.9223    0.0027   -0.7632 F   0  0  0  0  0  0  0  0  0  0  0  0
   -3.0251    1.3682    1.7370 O   0  0  0  0  0  0  0  0  0  0  0  0
   -2.2071    0.9819    2.8515 C   0  0  0  0  0  0  0  0  0  0  0  0
   -2.8221    1.1495    3.7352 H   0  0  0  0  0  0  0  0  0  0  0  0
   -1.3009    1.5937    2.9039 H   0  0  0  0  0  0  0  0  0  0  0  0
   -1.9304   -0.0756    2.7865 H   0  0  0  0  0  0  0  0  0  0  0  0
  1  6  1  0  0  0  0
  1  7  1  0  0  0  0
  2  1  2  0  0  0  0
  3  2  1  0  0  0  0
  4  3  2  0  0  0  0
  4  5  1  0  0  0  0
  5 10  1  0  0  0  0
  5  6  2  0  0  0  0
  6 18  1  0  0  0  0
  8  2  1  0  0  0  0
  9  4  1  0  0  0  0
 12 11  3  0  0  0  0
 13 16  1  0  0  0  0
 13 14  1  0  0  0  0
 15 13  1  0  0  0  0
 17 13  1  0  0  0  0
 18 19  1  0  0  0  0
 19 21  1  0  0  0  0
 19 20  1  0  0  0  0
 22 19  1  0  0  0  0
M  RAD  1   3   2
M  END
