Coordinates from ORCA-job 4-MeO-Ph-N2-BF4-B3LYPG-6-31G_dp-MTMO-d009-169-n800
 OpenBabel09051908083D

 22 20  0  0  0  0  0  0  0  0999 V2000
   -0.7083    0.6801    0.5141 C   0  0  0  0  0  0  0  0  0  0  0  0
    0.1647    0.8136   -0.6346 C   0  0  0  0  0  0  0  0  0  0  0  0
   -0.4970    1.6512   -1.3808 C   0  0  0  0  0  0  0  0  0  0  0  0
   -1.5915    2.4226   -1.5309 C   0  0  0  0  0  0  0  0  0  0  0  0
   -2.3732    2.2366   -0.3746 C   0  0  0  0  0  0  0  0  0  0  0  0
   -1.9231    1.3650    0.6458 C   0  0  0  0  0  0  0  0  0  0  0  0
   -0.2744   -0.0005    1.2539 H   0  0  0  0  0  0  0  0  0  0  0  0
    1.1343    0.2388   -0.6275 H   0  0  0  0  0  0  0  0  0  0  0  0
   -1.8518    3.0649   -2.3606 H   0  0  0  0  0  0  0  0  0  0  0  0
   -3.3153    2.7651   -0.2757 H   0  0  0  0  0  0  0  0  0  0  0  0
    3.6489    2.0010   -0.7778 N   0  0  0  0  0  0  0  0  0  0  0  0
    4.6557    2.0597   -0.3269 N   0  0  0  0  0  0  0  0  0  0  0  0
    2.3123   -0.5007    1.3368 B   0  0  0  0  0  0  0  0  0  0  0  0
    1.1242   -1.1090    1.8268 F   0  0  0  0  0  0  0  0  0  0  0  0
    2.2296    0.8759    1.5507 F   0  0  0  0  0  0  0  0  0  0  0  0
    3.4325   -1.0753    1.8655 F   0  0  0  0  0  0  0  0  0  0  0  0
    2.3073   -0.6929   -0.1158 F   0  0  0  0  0  0  0  0  0  0  0  0
   -2.7285    1.2544    1.7192 O   0  0  0  0  0  0  0  0  0  0  0  0
   -2.2999    0.4068    2.7946 C   0  0  0  0  0  0  0  0  0  0  0  0
   -3.0700    0.4959    3.5605 H   0  0  0  0  0  0  0  0  0  0  0  0
   -1.3348    0.7352    3.1938 H   0  0  0  0  0  0  0  0  0  0  0  0
   -2.2219   -0.6348    2.4649 H   0  0  0  0  0  0  0  0  0  0  0  0
  1  6  1  0  0  0  0
  1  7  1  0  0  0  0
  2  8  1  0  0  0  0
  2  1  2  0  0  0  0
  3  2  1  0  0  0  0
  4  3  2  0  0  0  0
  4  5  1  0  0  0  0
  5 10  1  0  0  0  0
  5  6  2  0  0  0  0
  6 18  1  0  0  0  0
  9  4  1  0  0  0  0
 11 12  3  0  0  0  0
 13 15  1  0  0  0  0
 13 14  1  0  0  0  0
 13 16  1  0  0  0  0
 17 13  1  0  0  0  0
 18 19  1  0  0  0  0
 19 21  1  0  0  0  0
 19 20  1  0  0  0  0
 22 19  1  0  0  0  0
M  RAD  1   3   2
M  END
