Coordinates from ORCA-job 4-MeO-Ph-N2-BF4-B3LYPG-6-31G_dp-MTMO-d009-169-n800
 OpenBabel09051908083D

 22 20  0  0  0  0  0  0  0  0999 V2000
   -1.3933    0.8928    0.2047 C   0  0  0  0  0  0  0  0  0  0  0  0
   -0.8101    0.8479   -1.1209 C   0  0  0  0  0  0  0  0  0  0  0  0
   -1.7870    1.2826   -1.8636 C   0  0  0  0  0  0  0  0  0  0  0  0
   -3.0527    1.7401   -1.9267 C   0  0  0  0  0  0  0  0  0  0  0  0
   -3.5353    1.7567   -0.6038 C   0  0  0  0  0  0  0  0  0  0  0  0
   -2.6988    1.3342    0.4572 C   0  0  0  0  0  0  0  0  0  0  0  0
   -0.6741    0.5650    0.9605 H   0  0  0  0  0  0  0  0  0  0  0  0
    0.2685    0.5179   -1.2100 H   0  0  0  0  0  0  0  0  0  0  0  0
   -3.6176    2.0405   -2.7978 H   0  0  0  0  0  0  0  0  0  0  0  0
   -4.5475    2.0949   -0.4089 H   0  0  0  0  0  0  0  0  0  0  0  0
   10.9188   -0.7473    3.4902 N   0  0  0  0  0  0  0  0  0  0  0  0
   10.6962   -1.6899    2.9578 N   0  0  0  0  0  0  0  0  0  0  0  0
    1.9119    0.6611    0.5183 B   0  0  0  0  0  0  0  0  0  0  0  0
    1.0583   -0.0722    1.3860 F   0  0  0  0  0  0  0  0  0  0  0  0
    1.4594    1.9777    0.4540 F   0  0  0  0  0  0  0  0  0  0  0  0
    3.2247    0.5410    0.8730 F   0  0  0  0  0  0  0  0  0  0  0  0
    1.7200    0.0887   -0.8208 F   0  0  0  0  0  0  0  0  0  0  0  0
   -3.2396    1.3939    1.6889 O   0  0  0  0  0  0  0  0  0  0  0  0
   -2.4139    1.0236    2.8031 C   0  0  0  0  0  0  0  0  0  0  0  0
   -3.0288    1.1874    3.6875 H   0  0  0  0  0  0  0  0  0  0  0  0
   -1.5155    1.6473    2.8503 H   0  0  0  0  0  0  0  0  0  0  0  0
   -2.1237   -0.0305    2.7423 H   0  0  0  0  0  0  0  0  0  0  0  0
  1  6  1  0  0  0  0
  1  7  1  0  0  0  0
  2  1  2  0  0  0  0
  3  2  1  0  0  0  0
  4  3  2  0  0  0  0
  4  5  1  0  0  0  0
  5 10  1  0  0  0  0
  5  6  2  0  0  0  0
  6 18  1  0  0  0  0
  8  2  1  0  0  0  0
  9  4  1  0  0  0  0
 12 11  3  0  0  0  0
 13 16  1  0  0  0  0
 13 14  1  0  0  0  0
 15 13  1  0  0  0  0
 17 13  1  0  0  0  0
 18 19  1  0  0  0  0
 19 21  1  0  0  0  0
 19 20  1  0  0  0  0
 22 19  1  0  0  0  0
M  RAD  1   3   2
M  END
