Coordinates from ORCA-job 4-MeO-Ph-N2-BF4-B3LYPG-6-31G_dp-MTMO-d009-169-n800
 OpenBabel09051908083D

 22 20  0  0  0  0  0  0  0  0999 V2000
   -1.4234    0.8983    0.1975 C   0  0  0  0  0  0  0  0  0  0  0  0
   -0.8407    0.8532   -1.1283 C   0  0  0  0  0  0  0  0  0  0  0  0
   -1.8173    1.2893   -1.8706 C   0  0  0  0  0  0  0  0  0  0  0  0
   -3.0826    1.7481   -1.9332 C   0  0  0  0  0  0  0  0  0  0  0  0
   -3.5648    1.7648   -0.6101 C   0  0  0  0  0  0  0  0  0  0  0  0
   -2.7284    1.3411    0.4505 C   0  0  0  0  0  0  0  0  0  0  0  0
   -0.7044    0.5696    0.9530 H   0  0  0  0  0  0  0  0  0  0  0  0
    0.2376    0.5220   -1.2179 H   0  0  0  0  0  0  0  0  0  0  0  0
   -3.6474    2.0493   -2.8040 H   0  0  0  0  0  0  0  0  0  0  0  0
   -4.5765    2.1039   -0.4148 H   0  0  0  0  0  0  0  0  0  0  0  0
   11.2185   -0.8003    3.5633 N   0  0  0  0  0  0  0  0  0  0  0  0
   10.9945   -1.7423    3.0302 N   0  0  0  0  0  0  0  0  0  0  0  0
    1.8816    0.6629    0.5098 B   0  0  0  0  0  0  0  0  0  0  0  0
    1.0276   -0.0698    1.3775 F   0  0  0  0  0  0  0  0  0  0  0  0
    1.4306    1.9800    0.4462 F   0  0  0  0  0  0  0  0  0  0  0  0
    3.1944    0.5412    0.8638 F   0  0  0  0  0  0  0  0  0  0  0  0
    1.6886    0.0912   -0.8295 F   0  0  0  0  0  0  0  0  0  0  0  0
   -3.2688    1.4009    1.6824 O   0  0  0  0  0  0  0  0  0  0  0  0
   -2.4432    1.0294    2.7962 C   0  0  0  0  0  0  0  0  0  0  0  0
   -3.0576    1.1934    3.6809 H   0  0  0  0  0  0  0  0  0  0  0  0
   -1.5442    1.6522    2.8435 H   0  0  0  0  0  0  0  0  0  0  0  0
   -2.1540   -0.0250    2.7350 H   0  0  0  0  0  0  0  0  0  0  0  0
  1  6  1  0  0  0  0
  1  7  1  0  0  0  0
  2  1  2  0  0  0  0
  3  2  1  0  0  0  0
  4  3  2  0  0  0  0
  4  5  1  0  0  0  0
  5 10  1  0  0  0  0
  5  6  2  0  0  0  0
  6 18  1  0  0  0  0
  8  2  1  0  0  0  0
  9  4  1  0  0  0  0
 12 11  3  0  0  0  0
 13 16  1  0  0  0  0
 13 14  1  0  0  0  0
 15 13  1  0  0  0  0
 17 13  1  0  0  0  0
 18 19  1  0  0  0  0
 19 21  1  0  0  0  0
 19 20  1  0  0  0  0
 22 19  1  0  0  0  0
M  RAD  1   3   2
M  END
