Coordinates from ORCA-job 4-MeO-Ph-N2-BF4-B3LYPG-6-31G_dp-MTMO-d009-169-n800
 OpenBabel09051908083D

 22 20  0  0  0  0  0  0  0  0999 V2000
   -0.5188    0.6428    0.7453 C   0  0  0  0  0  0  0  0  0  0  0  0
    0.6250    0.8453   -0.1124 C   0  0  0  0  0  0  0  0  0  0  0  0
    0.1935    1.7197   -0.9796 C   0  0  0  0  0  0  0  0  0  0  0  0
   -0.8366    2.4874   -1.3870 C   0  0  0  0  0  0  0  0  0  0  0  0
   -1.8998    2.2350   -0.4998 C   0  0  0  0  0  0  0  0  0  0  0  0
   -1.7348    1.3155    0.5636 C   0  0  0  0  0  0  0  0  0  0  0  0
   -0.2995   -0.0703    1.5427 H   0  0  0  0  0  0  0  0  0  0  0  0
    1.5825    0.2960    0.1247 H   0  0  0  0  0  0  0  0  0  0  0  0
   -0.8751    3.1682   -2.2251 H   0  0  0  0  0  0  0  0  0  0  0  0
   -2.8439    2.7513   -0.6384 H   0  0  0  0  0  0  0  0  0  0  0  0
    2.3958    2.2840   -2.7189 N   0  0  0  0  0  0  0  0  0  0  0  0
    3.3637    2.3912   -3.2401 N   0  0  0  0  0  0  0  0  0  0  0  0
    2.2448   -0.5173    2.2512 B   0  0  0  0  0  0  0  0  0  0  0  0
    1.0300   -1.2499    2.2944 F   0  0  0  0  0  0  0  0  0  0  0  0
    1.9742    0.8177    2.5511 F   0  0  0  0  0  0  0  0  0  0  0  0
    3.2085   -1.0769    3.0414 F   0  0  0  0  0  0  0  0  0  0  0  0
    2.6884   -0.5480    0.8523 F   0  0  0  0  0  0  0  0  0  0  0  0
   -2.8072    1.1495    1.3618 O   0  0  0  0  0  0  0  0  0  0  0  0
   -2.6781    0.2663    2.4841 C   0  0  0  0  0  0  0  0  0  0  0  0
   -3.6373    0.3078    2.9994 H   0  0  0  0  0  0  0  0  0  0  0  0
   -1.8782    0.5975    3.1548 H   0  0  0  0  0  0  0  0  0  0  0  0
   -2.4774   -0.7592    2.1560 H   0  0  0  0  0  0  0  0  0  0  0  0
  1  7  1  0  0  0  0
  2  8  1  0  0  0  0
  2  1  2  0  0  0  0
  3  2  1  0  0  0  0
  4  3  2  0  0  0  0
  4  5  1  0  0  0  0
  5  6  2  0  0  0  0
  6  1  1  0  0  0  0
  6 18  1  0  0  0  0
  9  4  1  0  0  0  0
 10  5  1  0  0  0  0
 12 11  3  0  0  0  0
 13 14  1  0  0  0  0
 13 15  1  0  0  0  0
 13 16  1  0  0  0  0
 17 13  1  0  0  0  0
 18 19  1  0  0  0  0
 19 20  1  0  0  0  0
 19 21  1  0  0  0  0
 22 19  1  0  0  0  0
M  RAD  1   3   2
M  END
