Coordinates from ORCA-job 4-MeO-Ph-N2-BF4-B3LYPG-6-31G_dp-MTMO-d009-169-n800
 OpenBabel09051908083D

 22 20  0  0  0  0  0  0  0  0999 V2000
   -0.4849    0.6287    0.7137 C   0  0  0  0  0  0  0  0  0  0  0  0
    0.6351    0.8342   -0.1287 C   0  0  0  0  0  0  0  0  0  0  0  0
    0.3203    1.7449   -1.0545 C   0  0  0  0  0  0  0  0  0  0  0  0
   -0.7491    2.5169   -1.4045 C   0  0  0  0  0  0  0  0  0  0  0  0
   -1.8161    2.2645   -0.5376 C   0  0  0  0  0  0  0  0  0  0  0  0
   -1.6844    1.3296    0.5175 C   0  0  0  0  0  0  0  0  0  0  0  0
   -0.3041   -0.0833    1.5176 H   0  0  0  0  0  0  0  0  0  0  0  0
    1.5764    0.2816    0.0587 H   0  0  0  0  0  0  0  0  0  0  0  0
   -0.7913    3.2231   -2.2214 H   0  0  0  0  0  0  0  0  0  0  0  0
   -2.7528    2.7952   -0.6685 H   0  0  0  0  0  0  0  0  0  0  0  0
    1.9006    2.1034   -2.2290 N   0  0  0  0  0  0  0  0  0  0  0  0
    2.8566    2.2211   -2.7688 N   0  0  0  0  0  0  0  0  0  0  0  0
    2.3523   -0.4851    2.1971 B   0  0  0  0  0  0  0  0  0  0  0  0
    1.1112   -1.1549    2.3733 F   0  0  0  0  0  0  0  0  0  0  0  0
    2.1433    0.8906    2.3641 F   0  0  0  0  0  0  0  0  0  0  0  0
    3.3180   -0.9856    3.0318 F   0  0  0  0  0  0  0  0  0  0  0  0
    2.7429   -0.6835    0.8138 F   0  0  0  0  0  0  0  0  0  0  0  0
   -2.7738    1.1810    1.2931 O   0  0  0  0  0  0  0  0  0  0  0  0
   -2.6956    0.2751    2.4020 C   0  0  0  0  0  0  0  0  0  0  0  0
   -3.6662    0.3334    2.8940 H   0  0  0  0  0  0  0  0  0  0  0  0
   -1.9043    0.5720    3.0977 H   0  0  0  0  0  0  0  0  0  0  0  0
   -2.5140   -0.7492    2.0597 H   0  0  0  0  0  0  0  0  0  0  0  0
  1  7  1  0  0  0  0
  2  8  1  0  0  0  0
  2  1  2  0  0  0  0
  3  2  1  0  0  0  0
  4  3  2  0  0  0  0
  4  5  1  0  0  0  0
  5  6  2  0  0  0  0
  6  1  1  0  0  0  0
  6 18  1  0  0  0  0
  9  4  1  0  0  0  0
 10  5  1  0  0  0  0
 12 11  3  0  0  0  0
 13 15  1  0  0  0  0
 13 14  1  0  0  0  0
 13 16  1  0  0  0  0
 17 13  1  0  0  0  0
 18 19  1  0  0  0  0
 19 20  1  0  0  0  0
 19 21  1  0  0  0  0
 22 19  1  0  0  0  0
M  RAD  1   3   2
M  END
