Coordinates from ORCA-job 4-MeO-Ph-N2-BF4-B3LYPG-6-31G_dp-MTMO-d009-169-n800
 OpenBabel09051908083D

 22 20  0  0  0  0  0  0  0  0999 V2000
   -0.8484    0.6977    0.3885 C   0  0  0  0  0  0  0  0  0  0  0  0
   -0.1834    0.7533   -0.8970 C   0  0  0  0  0  0  0  0  0  0  0  0
   -0.9898    1.5050   -1.5898 C   0  0  0  0  0  0  0  0  0  0  0  0
   -2.1187    2.2397   -1.6175 C   0  0  0  0  0  0  0  0  0  0  0  0
   -2.6911    2.1361   -0.3348 C   0  0  0  0  0  0  0  0  0  0  0  0
   -2.0485    1.3665    0.6645 C   0  0  0  0  0  0  0  0  0  0  0  0
   -0.2854    0.0825    1.0957 H   0  0  0  0  0  0  0  0  0  0  0  0
    0.7970    0.2021   -1.0072 H   0  0  0  0  0  0  0  0  0  0  0  0
   -2.5356    2.8032   -2.4401 H   0  0  0  0  0  0  0  0  0  0  0  0
   -3.6234    2.6490   -0.1238 H   0  0  0  0  0  0  0  0  0  0  0  0
    4.9215    2.1093    0.8587 N   0  0  0  0  0  0  0  0  0  0  0  0
    5.5099    1.2763    1.2845 N   0  0  0  0  0  0  0  0  0  0  0  0
    2.2802   -0.4018    0.7687 B   0  0  0  0  0  0  0  0  0  0  0  0
    1.2082   -1.0446    1.4413 F   0  0  0  0  0  0  0  0  0  0  0  0
    2.1667    0.9756    0.9608 F   0  0  0  0  0  0  0  0  0  0  0  0
    3.4947   -0.9081    1.1395 F   0  0  0  0  0  0  0  0  0  0  0  0
    2.0724   -0.6413   -0.6629 F   0  0  0  0  0  0  0  0  0  0  0  0
   -2.6621    1.3324    1.8622 O   0  0  0  0  0  0  0  0  0  0  0  0
   -2.0204    0.6116    2.9246 C   0  0  0  0  0  0  0  0  0  0  0  0
   -2.6612    0.7454    3.7956 H   0  0  0  0  0  0  0  0  0  0  0  0
   -1.0239    1.0172    3.1271 H   0  0  0  0  0  0  0  0  0  0  0  0
   -1.9388   -0.4535    2.6827 H   0  0  0  0  0  0  0  0  0  0  0  0
  1  6  1  0  0  0  0
  1  7  1  0  0  0  0
  2  1  2  0  0  0  0
  3  2  1  0  0  0  0
  4  3  2  0  0  0  0
  4  5  1  0  0  0  0
  5 10  1  0  0  0  0
  5  6  2  0  0  0  0
  6 18  1  0  0  0  0
  8  2  1  0  0  0  0
  9  4  1  0  0  0  0
 11 12  3  0  0  0  0
 13 15  1  0  0  0  0
 13 16  1  0  0  0  0
 13 14  1  0  0  0  0
 17 13  1  0  0  0  0
 18 19  1  0  0  0  0
 19 21  1  0  0  0  0
 19 20  1  0  0  0  0
 22 19  1  0  0  0  0
M  RAD  1   3   2
M  END
