Coordinates from ORCA-job 4-MeO-Ph-N2-BF4-B3LYPG-6-31G_dp-MTMO-d009-169-n800
 OpenBabel09051908083D

 22 20  0  0  0  0  0  0  0  0999 V2000
   -0.8529    0.7340    0.2831 C   0  0  0  0  0  0  0  0  0  0  0  0
   -0.3781    0.6544   -1.0831 C   0  0  0  0  0  0  0  0  0  0  0  0
   -1.3121    1.2847   -1.7360 C   0  0  0  0  0  0  0  0  0  0  0  0
   -2.4703    1.9709   -1.6850 C   0  0  0  0  0  0  0  0  0  0  0  0
   -2.8524    2.0048   -0.3298 C   0  0  0  0  0  0  0  0  0  0  0  0
   -2.0376    1.3870    0.6491 C   0  0  0  0  0  0  0  0  0  0  0  0
   -0.1669    0.2268    0.9671 H   0  0  0  0  0  0  0  0  0  0  0  0
    0.6033    0.1219   -1.2664 H   0  0  0  0  0  0  0  0  0  0  0  0
   -3.0257    2.4169   -2.4979 H   0  0  0  0  0  0  0  0  0  0  0  0
   -3.7717    2.5067   -0.0471 H   0  0  0  0  0  0  0  0  0  0  0  0
    4.6945    1.5152    2.7631 N   0  0  0  0  0  0  0  0  0  0  0  0
    5.4154    0.8647    2.2357 N   0  0  0  0  0  0  0  0  0  0  0  0
    2.3461   -0.2565    0.3381 B   0  0  0  0  0  0  0  0  0  0  0  0
    1.3915   -0.8238    1.2233 F   0  0  0  0  0  0  0  0  0  0  0  0
    2.2442    1.1310    0.4003 F   0  0  0  0  0  0  0  0  0  0  0  0
    3.6067   -0.7296    0.5784 F   0  0  0  0  0  0  0  0  0  0  0  0
    1.9375   -0.6479   -1.0162 F   0  0  0  0  0  0  0  0  0  0  0  0
   -2.4776    1.4755    1.9183 O   0  0  0  0  0  0  0  0  0  0  0  0
   -1.6613    0.9064    2.9529 C   0  0  0  0  0  0  0  0  0  0  0  0
   -2.1868    1.1135    3.8845 H   0  0  0  0  0  0  0  0  0  0  0  0
   -0.6709    1.3722    2.9707 H   0  0  0  0  0  0  0  0  0  0  0  0
   -1.5549   -0.1754    2.8184 H   0  0  0  0  0  0  0  0  0  0  0  0
  1  6  1  0  0  0  0
  1  7  1  0  0  0  0
  2  1  2  0  0  0  0
  3  4  2  0  0  0  0
  3  2  1  0  0  0  0
  4  5  1  0  0  0  0
  5 10  1  0  0  0  0
  5  6  2  0  0  0  0
  6 18  1  0  0  0  0
  8  2  1  0  0  0  0
  9  4  1  0  0  0  0
 12 11  3  0  0  0  0
 13 15  1  0  0  0  0
 13 16  1  0  0  0  0
 13 14  1  0  0  0  0
 17 13  1  0  0  0  0
 18 19  1  0  0  0  0
 19 21  1  0  0  0  0
 19 20  1  0  0  0  0
 22 19  1  0  0  0  0
M  RAD  1   3   2
M  END
