Coordinates from ORCA-job 4-MeO-Ph-N2-BF4-B3LYPG-6-31G_dp-MTMO-d009-169-n800
 OpenBabel09051908083D

 22 20  0  0  0  0  0  0  0  0999 V2000
   -1.5596    0.9251    0.1657 C   0  0  0  0  0  0  0  0  0  0  0  0
   -0.9762    0.8804   -1.1598 C   0  0  0  0  0  0  0  0  0  0  0  0
   -1.9545    1.3104   -1.9033 C   0  0  0  0  0  0  0  0  0  0  0  0
   -3.2218    1.7633   -1.9673 C   0  0  0  0  0  0  0  0  0  0  0  0
   -3.7046    1.7801   -0.6445 C   0  0  0  0  0  0  0  0  0  0  0  0
   -2.8667    1.3623    0.4173 C   0  0  0  0  0  0  0  0  0  0  0  0
   -0.8394    0.6011    0.9220 H   0  0  0  0  0  0  0  0  0  0  0  0
    0.1038    0.5543   -1.2484 H   0  0  0  0  0  0  0  0  0  0  0  0
   -3.7877    2.0603   -2.8389 H   0  0  0  0  0  0  0  0  0  0  0  0
   -4.7180    2.1149   -0.4501 H   0  0  0  0  0  0  0  0  0  0  0  0
   12.5923   -1.0837    3.8866 N   0  0  0  0  0  0  0  0  0  0  0  0
   12.3614   -2.0235    3.3525 N   0  0  0  0  0  0  0  0  0  0  0  0
    1.7467    0.7069    0.4791 B   0  0  0  0  0  0  0  0  0  0  0  0
    0.8962   -0.0286    1.3480 F   0  0  0  0  0  0  0  0  0  0  0  0
    1.2891    2.0216    0.4131 F   0  0  0  0  0  0  0  0  0  0  0  0
    3.0600    0.5924    0.8335 F   0  0  0  0  0  0  0  0  0  0  0  0
    1.5567    0.1318   -0.8592 F   0  0  0  0  0  0  0  0  0  0  0  0
   -3.4080    1.4219    1.6488 O   0  0  0  0  0  0  0  0  0  0  0  0
   -2.5811    1.0564    2.7637 C   0  0  0  0  0  0  0  0  0  0  0  0
   -3.1966    1.2195    3.6478 H   0  0  0  0  0  0  0  0  0  0  0  0
   -1.6849    1.6834    2.8101 H   0  0  0  0  0  0  0  0  0  0  0  0
   -2.2871    0.0032    2.7048 H   0  0  0  0  0  0  0  0  0  0  0  0
  1  6  1  0  0  0  0
  1  7  1  0  0  0  0
  2  1  2  0  0  0  0
  3  2  1  0  0  0  0
  4  3  2  0  0  0  0
  4  5  1  0  0  0  0
  5 10  1  0  0  0  0
  5  6  2  0  0  0  0
  6 18  1  0  0  0  0
  8  2  1  0  0  0  0
  9  4  1  0  0  0  0
 12 11  3  0  0  0  0
 13 16  1  0  0  0  0
 13 14  1  0  0  0  0
 15 13  1  0  0  0  0
 17 13  1  0  0  0  0
 18 19  1  0  0  0  0
 19 21  1  0  0  0  0
 19 20  1  0  0  0  0
 22 19  1  0  0  0  0
M  RAD  1   3   2
M  END
