Coordinates from ORCA-job 4-MeO-Ph-N2-BF4-B3LYPG-6-31G_dp-MTMO-d009-169-n800
 OpenBabel09051908083D

 22 20  0  0  0  0  0  0  0  0999 V2000
   -1.5755    0.9281    0.1619 C   0  0  0  0  0  0  0  0  0  0  0  0
   -0.9923    0.8832   -1.1637 C   0  0  0  0  0  0  0  0  0  0  0  0
   -1.9704    1.3139   -1.9070 C   0  0  0  0  0  0  0  0  0  0  0  0
   -3.2375    1.7674   -1.9708 C   0  0  0  0  0  0  0  0  0  0  0  0
   -3.7202    1.7843   -0.6479 C   0  0  0  0  0  0  0  0  0  0  0  0
   -2.8824    1.3659    0.4137 C   0  0  0  0  0  0  0  0  0  0  0  0
   -0.8554    0.6037    0.9181 H   0  0  0  0  0  0  0  0  0  0  0  0
    0.0876    0.5566   -1.2524 H   0  0  0  0  0  0  0  0  0  0  0  0
   -3.8034    2.0648   -2.8423 H   0  0  0  0  0  0  0  0  0  0  0  0
   -4.7334    2.1196   -0.4535 H   0  0  0  0  0  0  0  0  0  0  0  0
   12.7506   -1.1124    3.9249 N   0  0  0  0  0  0  0  0  0  0  0  0
   12.5193   -2.0518    3.3903 N   0  0  0  0  0  0  0  0  0  0  0  0
    1.7307    0.7080    0.4749 B   0  0  0  0  0  0  0  0  0  0  0  0
    0.8799   -0.0271    1.3438 F   0  0  0  0  0  0  0  0  0  0  0  0
    1.2738    2.0230    0.4091 F   0  0  0  0  0  0  0  0  0  0  0  0
    3.0440    0.5927    0.8291 F   0  0  0  0  0  0  0  0  0  0  0  0
    1.5402    0.1333   -0.8635 F   0  0  0  0  0  0  0  0  0  0  0  0
   -3.4235    1.4257    1.6453 O   0  0  0  0  0  0  0  0  0  0  0  0
   -2.5967    1.0596    2.7600 C   0  0  0  0  0  0  0  0  0  0  0  0
   -3.2121    1.2228    3.6442 H   0  0  0  0  0  0  0  0  0  0  0  0
   -1.7002    1.6861    2.8064 H   0  0  0  0  0  0  0  0  0  0  0  0
   -2.3033    0.0063    2.7009 H   0  0  0  0  0  0  0  0  0  0  0  0
  1  6  1  0  0  0  0
  1  7  1  0  0  0  0
  2  1  2  0  0  0  0
  3  2  1  0  0  0  0
  4  3  2  0  0  0  0
  4  5  1  0  0  0  0
  5 10  1  0  0  0  0
  5  6  2  0  0  0  0
  6 18  1  0  0  0  0
  8  2  1  0  0  0  0
  9  4  1  0  0  0  0
 12 11  3  0  0  0  0
 13 16  1  0  0  0  0
 13 14  1  0  0  0  0
 15 13  1  0  0  0  0
 17 13  1  0  0  0  0
 18 19  1  0  0  0  0
 19 21  1  0  0  0  0
 19 20  1  0  0  0  0
 22 19  1  0  0  0  0
M  RAD  1   3   2
M  END
