Coordinates from ORCA-job 4-MeO-Ph-N2-BF4-B3LYPG-6-31G_dp-MTMO-d009-169-n800
 OpenBabel09051908083D

 22 20  0  0  0  0  0  0  0  0999 V2000
   -0.8501    0.6941    0.3764 C   0  0  0  0  0  0  0  0  0  0  0  0
   -0.2106    0.7297   -0.9229 C   0  0  0  0  0  0  0  0  0  0  0  0
   -1.0256    1.4787   -1.6088 C   0  0  0  0  0  0  0  0  0  0  0  0
   -2.1529    2.2162   -1.6247 C   0  0  0  0  0  0  0  0  0  0  0  0
   -2.7003    2.1314   -0.3299 C   0  0  0  0  0  0  0  0  0  0  0  0
   -2.0417    1.3717    0.6667 C   0  0  0  0  0  0  0  0  0  0  0  0
   -0.2750    0.0869    1.0806 H   0  0  0  0  0  0  0  0  0  0  0  0
    0.7657    0.1736   -1.0463 H   0  0  0  0  0  0  0  0  0  0  0  0
   -2.5839    2.7704   -2.4464 H   0  0  0  0  0  0  0  0  0  0  0  0
   -3.6261    2.6512   -0.1073 H   0  0  0  0  0  0  0  0  0  0  0  0
    4.8959    2.1256    1.0595 N   0  0  0  0  0  0  0  0  0  0  0  0
    5.4750    1.2726    1.4570 N   0  0  0  0  0  0  0  0  0  0  0  0
    2.2821   -0.4116    0.7024 B   0  0  0  0  0  0  0  0  0  0  0  0
    1.2224   -1.0496    1.3984 F   0  0  0  0  0  0  0  0  0  0  0  0
    2.1704    0.9673    0.8855 F   0  0  0  0  0  0  0  0  0  0  0  0
    3.5033   -0.9137    1.0562 F   0  0  0  0  0  0  0  0  0  0  0  0
    2.0500   -0.6627   -0.7235 F   0  0  0  0  0  0  0  0  0  0  0  0
   -2.6326    1.3558    1.8763 O   0  0  0  0  0  0  0  0  0  0  0  0
   -1.9741    0.6457    2.9355 C   0  0  0  0  0  0  0  0  0  0  0  0
   -2.5988    0.7921    3.8161 H   0  0  0  0  0  0  0  0  0  0  0  0
   -0.9729    1.0506    3.1155 H   0  0  0  0  0  0  0  0  0  0  0  0
   -1.9003   -0.4226    2.7052 H   0  0  0  0  0  0  0  0  0  0  0  0
  1  6  1  0  0  0  0
  1  7  1  0  0  0  0
  2  1  2  0  0  0  0
  3  2  1  0  0  0  0
  4  3  2  0  0  0  0
  4  5  1  0  0  0  0
  5 10  1  0  0  0  0
  5  6  2  0  0  0  0
  6 18  1  0  0  0  0
  8  2  1  0  0  0  0
  9  4  1  0  0  0  0
 11 12  3  0  0  0  0
 13 15  1  0  0  0  0
 13 16  1  0  0  0  0
 13 14  1  0  0  0  0
 17 13  1  0  0  0  0
 18 19  1  0  0  0  0
 19 21  1  0  0  0  0
 19 20  1  0  0  0  0
 22 19  1  0  0  0  0
M  RAD  1   3   2
M  END
