Coordinates from ORCA-job 4-MeO-Ph-N2-BF4-B3LYPG-6-31G_dp-MTMO-d009-169-n800
 OpenBabel09051908083D

 22 20  0  0  0  0  0  0  0  0999 V2000
   -0.7315    0.7010    0.5037 C   0  0  0  0  0  0  0  0  0  0  0  0
    0.1245    0.8490   -0.6561 C   0  0  0  0  0  0  0  0  0  0  0  0
   -0.5693    1.6613   -1.4011 C   0  0  0  0  0  0  0  0  0  0  0  0
   -1.6829    2.4066   -1.5417 C   0  0  0  0  0  0  0  0  0  0  0  0
   -2.4457    2.2094   -0.3746 C   0  0  0  0  0  0  0  0  0  0  0  0
   -1.9614    1.3565    0.6461 C   0  0  0  0  0  0  0  0  0  0  0  0
   -0.2761    0.0305    1.2396 H   0  0  0  0  0  0  0  0  0  0  0  0
    1.1067    0.2954   -0.6573 H   0  0  0  0  0  0  0  0  0  0  0  0
   -1.9685    3.0376   -2.3716 H   0  0  0  0  0  0  0  0  0  0  0  0
   -3.3995    2.7149   -0.2678 H   0  0  0  0  0  0  0  0  0  0  0  0
    3.9282    1.9224   -0.6669 N   0  0  0  0  0  0  0  0  0  0  0  0
    4.9151    1.8294   -0.1790 N   0  0  0  0  0  0  0  0  0  0  0  0
    2.3062   -0.4415    1.2950 B   0  0  0  0  0  0  0  0  0  0  0  0
    1.1345   -1.0792    1.7859 F   0  0  0  0  0  0  0  0  0  0  0  0
    2.1953    0.9309    1.5219 F   0  0  0  0  0  0  0  0  0  0  0  0
    3.4424   -0.9961    1.8113 F   0  0  0  0  0  0  0  0  0  0  0  0
    2.2970   -0.6204   -0.1596 F   0  0  0  0  0  0  0  0  0  0  0  0
   -2.7503    1.2329    1.7300 O   0  0  0  0  0  0  0  0  0  0  0  0
   -2.2861    0.4055    2.8066 C   0  0  0  0  0  0  0  0  0  0  0  0
   -3.0499    0.4788    3.5805 H   0  0  0  0  0  0  0  0  0  0  0  0
   -1.3264    0.7641    3.1926 H   0  0  0  0  0  0  0  0  0  0  0  0
   -2.1823   -0.6358    2.4838 H   0  0  0  0  0  0  0  0  0  0  0  0
  1  6  1  0  0  0  0
  1  7  1  0  0  0  0
  2  1  2  0  0  0  0
  3  2  1  0  0  0  0
  4  3  2  0  0  0  0
  4  5  1  0  0  0  0
  5 10  1  0  0  0  0
  5  6  2  0  0  0  0
  6 18  1  0  0  0  0
  8  2  1  0  0  0  0
  9  4  1  0  0  0  0
 11 12  3  0  0  0  0
 13 15  1  0  0  0  0
 13 14  1  0  0  0  0
 13 16  1  0  0  0  0
 17 13  1  0  0  0  0
 18 19  1  0  0  0  0
 19 21  1  0  0  0  0
 19 20  1  0  0  0  0
 22 19  1  0  0  0  0
M  RAD  1   3   2
M  END
