Coordinates from ORCA-job 4-MeO-Ph-N2-BF4-B3LYPG-6-31G_dp-MTMO-d009-169-n800
 OpenBabel09051908083D

 22 20  0  0  0  0  0  0  0  0999 V2000
   -0.5050    0.6459    0.7366 C   0  0  0  0  0  0  0  0  0  0  0  0
    0.6368    0.8490   -0.1172 C   0  0  0  0  0  0  0  0  0  0  0  0
    0.2207    1.7262   -0.9940 C   0  0  0  0  0  0  0  0  0  0  0  0
   -0.8125    2.4934   -1.3987 C   0  0  0  0  0  0  0  0  0  0  0  0
   -1.8777    2.2406   -0.5150 C   0  0  0  0  0  0  0  0  0  0  0  0
   -1.7190    1.3211    0.5490 C   0  0  0  0  0  0  0  0  0  0  0  0
   -0.2923   -0.0670    1.5353 H   0  0  0  0  0  0  0  0  0  0  0  0
    1.5932    0.3018    0.1140 H   0  0  0  0  0  0  0  0  0  0  0  0
   -0.8510    3.1763   -2.2348 H   0  0  0  0  0  0  0  0  0  0  0  0
   -2.8208    2.7580   -0.6558 H   0  0  0  0  0  0  0  0  0  0  0  0
    2.2439    2.2339   -2.5830 N   0  0  0  0  0  0  0  0  0  0  0  0
    3.2119    2.3343   -3.1049 N   0  0  0  0  0  0  0  0  0  0  0  0
    2.2665   -0.5143    2.2384 B   0  0  0  0  0  0  0  0  0  0  0  0
    1.0521   -1.2478    2.2820 F   0  0  0  0  0  0  0  0  0  0  0  0
    1.9936    0.8220    2.5343 F   0  0  0  0  0  0  0  0  0  0  0  0
    3.2280   -1.0692    3.0358 F   0  0  0  0  0  0  0  0  0  0  0  0
    2.7140   -0.5492    0.8431 F   0  0  0  0  0  0  0  0  0  0  0  0
   -2.7958    1.1577    1.3418 O   0  0  0  0  0  0  0  0  0  0  0  0
   -2.6753    0.2736    2.4642 C   0  0  0  0  0  0  0  0  0  0  0  0
   -3.6377    0.3168    2.9737 H   0  0  0  0  0  0  0  0  0  0  0  0
   -1.8789    0.6026    3.1400 H   0  0  0  0  0  0  0  0  0  0  0  0
   -2.4749   -0.7522    2.1367 H   0  0  0  0  0  0  0  0  0  0  0  0
  1  7  1  0  0  0  0
  2  8  1  0  0  0  0
  2  1  2  0  0  0  0
  3  2  1  0  0  0  0
  4  3  2  0  0  0  0
  4  5  1  0  0  0  0
  5  6  2  0  0  0  0
  6  1  1  0  0  0  0
  6 18  1  0  0  0  0
  9  4  1  0  0  0  0
 10  5  1  0  0  0  0
 12 11  3  0  0  0  0
 13 14  1  0  0  0  0
 13 15  1  0  0  0  0
 13 16  1  0  0  0  0
 17 13  1  0  0  0  0
 18 19  1  0  0  0  0
 19 20  1  0  0  0  0
 19 21  1  0  0  0  0
 22 19  1  0  0  0  0
M  RAD  1   3   2
M  END
