Coordinates from ORCA-job 4-MeO-Ph-N2-BF4-B3LYPG-6-31G_dp-MTMO-d009-169-n800
 OpenBabel09051908083D

 22 20  0  0  0  0  0  0  0  0999 V2000
   -0.7896    0.7231    0.4708 C   0  0  0  0  0  0  0  0  0  0  0  0
    0.0288    0.9034   -0.7113 C   0  0  0  0  0  0  0  0  0  0  0  0
   -0.7073    1.7046   -1.4273 C   0  0  0  0  0  0  0  0  0  0  0  0
   -1.8520    2.4070   -1.5360 C   0  0  0  0  0  0  0  0  0  0  0  0
   -2.5762    2.1785   -0.3502 C   0  0  0  0  0  0  0  0  0  0  0  0
   -2.0366    1.3353    0.6508 C   0  0  0  0  0  0  0  0  0  0  0  0
   -0.2853    0.0794    1.1993 H   0  0  0  0  0  0  0  0  0  0  0  0
    1.0300    0.3888   -0.7309 H   0  0  0  0  0  0  0  0  0  0  0  0
   -2.1828    3.0285   -2.3563 H   0  0  0  0  0  0  0  0  0  0  0  0
   -3.5431    2.6511   -0.2149 H   0  0  0  0  0  0  0  0  0  0  0  0
    4.5576    1.6449   -0.5045 N   0  0  0  0  0  0  0  0  0  0  0  0
    5.3460    1.2264    0.1468 N   0  0  0  0  0  0  0  0  0  0  0  0
    2.3064   -0.2318    1.2185 B   0  0  0  0  0  0  0  0  0  0  0  0
    1.1972   -0.8884    1.8173 F   0  0  0  0  0  0  0  0  0  0  0  0
    2.1402    1.1467    1.3567 F   0  0  0  0  0  0  0  0  0  0  0  0
    3.4970   -0.6927    1.7080 F   0  0  0  0  0  0  0  0  0  0  0  0
    2.2334   -0.5129   -0.2164 F   0  0  0  0  0  0  0  0  0  0  0  0
   -2.7897    1.1788    1.7554 O   0  0  0  0  0  0  0  0  0  0  0  0
   -2.2734    0.3492    2.8068 C   0  0  0  0  0  0  0  0  0  0  0  0
   -3.0134    0.3968    3.6053 H   0  0  0  0  0  0  0  0  0  0  0  0
   -1.3091    0.7225    3.1664 H   0  0  0  0  0  0  0  0  0  0  0  0
   -2.1585   -0.6856    2.4669 H   0  0  0  0  0  0  0  0  0  0  0  0
  1  6  1  0  0  0  0
  1  7  1  0  0  0  0
  2  1  2  0  0  0  0
  3  2  1  0  0  0  0
  4  3  2  0  0  0  0
  4  5  1  0  0  0  0
  5 10  1  0  0  0  0
  5  6  2  0  0  0  0
  6 18  1  0  0  0  0
  8  2  1  0  0  0  0
  9  4  1  0  0  0  0
 11 12  3  0  0  0  0
 13 15  1  0  0  0  0
 13 16  1  0  0  0  0
 13 14  1  0  0  0  0
 17 13  1  0  0  0  0
 18 19  1  0  0  0  0
 19 21  1  0  0  0  0
 19 20  1  0  0  0  0
 22 19  1  0  0  0  0
M  RAD  1   3   2
M  END
