Coordinates from ORCA-job 4-MeO-Ph-N2-BF4-B3LYPG-6-31G_dp-MTMO-d009-169-n800
 OpenBabel09051908083D

 22 20  0  0  0  0  0  0  0  0999 V2000
   -1.0889    0.8327    0.2768 C   0  0  0  0  0  0  0  0  0  0  0  0
   -0.5016    0.7857   -1.0469 C   0  0  0  0  0  0  0  0  0  0  0  0
   -1.4717    1.2328   -1.7914 C   0  0  0  0  0  0  0  0  0  0  0  0
   -2.7321    1.7043   -1.8569 C   0  0  0  0  0  0  0  0  0  0  0  0
   -3.2190    1.7219   -0.5356 C   0  0  0  0  0  0  0  0  0  0  0  0
   -2.3904    1.2871    0.5267 C   0  0  0  0  0  0  0  0  0  0  0  0
   -0.3756    0.4944    1.0337 H   0  0  0  0  0  0  0  0  0  0  0  0
    0.5730    0.4437   -1.1330 H   0  0  0  0  0  0  0  0  0  0  0  0
   -3.2907    2.0138   -2.7288 H   0  0  0  0  0  0  0  0  0  0  0  0
   -4.2281    2.0702   -0.3429 H   0  0  0  0  0  0  0  0  0  0  0  0
    7.8506   -0.1078    2.7408 N   0  0  0  0  0  0  0  0  0  0  0  0
    7.6530   -1.0566    2.2094 N   0  0  0  0  0  0  0  0  0  0  0  0
    2.2113    0.5608    0.6062 B   0  0  0  0  0  0  0  0  0  0  0  0
    1.3444   -0.1635    1.4685 F   0  0  0  0  0  0  0  0  0  0  0  0
    1.7759    1.8832    0.5432 F   0  0  0  0  0  0  0  0  0  0  0  0
    3.5207    0.4234    0.9684 F   0  0  0  0  0  0  0  0  0  0  0  0
    2.0194   -0.0058   -0.7345 F   0  0  0  0  0  0  0  0  0  0  0  0
   -2.9343    1.3484    1.7569 O   0  0  0  0  0  0  0  0  0  0  0  0
   -2.1161    0.9652    2.8723 C   0  0  0  0  0  0  0  0  0  0  0  0
   -2.7319    1.1323    3.7554 H   0  0  0  0  0  0  0  0  0  0  0  0
   -1.2113    1.5792    2.9245 H   0  0  0  0  0  0  0  0  0  0  0  0
   -1.8369   -0.0917    2.8085 H   0  0  0  0  0  0  0  0  0  0  0  0
  1  6  1  0  0  0  0
  1  7  1  0  0  0  0
  2  1  2  0  0  0  0
  3  2  1  0  0  0  0
  4  3  2  0  0  0  0
  4  5  1  0  0  0  0
  5 10  1  0  0  0  0
  5  6  2  0  0  0  0
  6 18  1  0  0  0  0
  8  2  1  0  0  0  0
  9  4  1  0  0  0  0
 12 11  3  0  0  0  0
 13 16  1  0  0  0  0
 13 14  1  0  0  0  0
 15 13  1  0  0  0  0
 17 13  1  0  0  0  0
 18 19  1  0  0  0  0
 19 21  1  0  0  0  0
 19 20  1  0  0  0  0
 22 19  1  0  0  0  0
M  RAD  1   3   2
M  END
