Coordinates from ORCA-job 4-MeO-Ph-N2-BF4-B3LYPG-6-31G_dp-MTMO-d009-169-n800
 OpenBabel09051908083D

 22 20  0  0  0  0  0  0  0  0999 V2000
   -0.6995    0.6607    0.5191 C   0  0  0  0  0  0  0  0  0  0  0  0
    0.1815    0.7820   -0.6246 C   0  0  0  0  0  0  0  0  0  0  0  0
   -0.4557    1.6402   -1.3685 C   0  0  0  0  0  0  0  0  0  0  0  0
   -1.5362    2.4301   -1.5234 C   0  0  0  0  0  0  0  0  0  0  0  0
   -2.3281    2.2536   -0.3725 C   0  0  0  0  0  0  0  0  0  0  0  0
   -1.9016    1.3685    0.6464 C   0  0  0  0  0  0  0  0  0  0  0  0
   -0.2788   -0.0245    1.2620 H   0  0  0  0  0  0  0  0  0  0  0  0
    1.1436    0.1943   -0.6133 H   0  0  0  0  0  0  0  0  0  0  0  0
   -1.7805    3.0796   -2.3523 H   0  0  0  0  0  0  0  0  0  0  0  0
   -3.2606    2.7995   -0.2767 H   0  0  0  0  0  0  0  0  0  0  0  0
    3.4889    2.0613   -0.8268 N   0  0  0  0  0  0  0  0  0  0  0  0
    4.5003    2.1689   -0.3955 N   0  0  0  0  0  0  0  0  0  0  0  0
    2.3208   -0.5269    1.3530 B   0  0  0  0  0  0  0  0  0  0  0  0
    1.1283   -1.1219    1.8480 F   0  0  0  0  0  0  0  0  0  0  0  0
    2.2492    0.8523    1.5539 F   0  0  0  0  0  0  0  0  0  0  0  0
    3.4366   -1.1054    1.8866 F   0  0  0  0  0  0  0  0  0  0  0  0
    2.3143   -0.7325   -0.0982 F   0  0  0  0  0  0  0  0  0  0  0  0
   -2.7157    1.2692    1.7144 O   0  0  0  0  0  0  0  0  0  0  0  0
   -2.3106    0.4093    2.7888 C   0  0  0  0  0  0  0  0  0  0  0  0
   -3.0825    0.5118    3.5512 H   0  0  0  0  0  0  0  0  0  0  0  0
   -1.3409    0.7159    3.1941 H   0  0  0  0  0  0  0  0  0  0  0  0
   -2.2529   -0.6326    2.4558 H   0  0  0  0  0  0  0  0  0  0  0  0
  1  6  1  0  0  0  0
  1  7  1  0  0  0  0
  2  8  1  0  0  0  0
  2  1  2  0  0  0  0
  3  2  1  0  0  0  0
  4  3  2  0  0  0  0
  4  5  1  0  0  0  0
  5 10  1  0  0  0  0
  5  6  2  0  0  0  0
  6 18  1  0  0  0  0
  9  4  1  0  0  0  0
 11 12  3  0  0  0  0
 13 15  1  0  0  0  0
 13 14  1  0  0  0  0
 13 16  1  0  0  0  0
 17 13  1  0  0  0  0
 18 19  1  0  0  0  0
 19 21  1  0  0  0  0
 19 20  1  0  0  0  0
 22 19  1  0  0  0  0
M  RAD  1   3   2
M  END
