Coordinates from ORCA-job 4-MeO-Ph-N2-BF4-B3LYPG-6-31G_dp-MTMO-d009-169-n800
 OpenBabel09051908083D

 22 20  0  0  0  0  0  0  0  0999 V2000
   -0.8352    0.7253    0.2834 C   0  0  0  0  0  0  0  0  0  0  0  0
   -0.3676    0.6454   -1.0853 C   0  0  0  0  0  0  0  0  0  0  0  0
   -1.2975    1.2898   -1.7306 C   0  0  0  0  0  0  0  0  0  0  0  0
   -2.4449    1.9932   -1.6702 C   0  0  0  0  0  0  0  0  0  0  0  0
   -2.8197    2.0267   -0.3130 C   0  0  0  0  0  0  0  0  0  0  0  0
   -2.0084    1.3934    0.6588 C   0  0  0  0  0  0  0  0  0  0  0  0
   -0.1530    0.2048    0.9613 H   0  0  0  0  0  0  0  0  0  0  0  0
    0.6055    0.1018   -1.2752 H   0  0  0  0  0  0  0  0  0  0  0  0
   -2.9977    2.4505   -2.4784 H   0  0  0  0  0  0  0  0  0  0  0  0
   -3.7306    2.5399   -0.0232 H   0  0  0  0  0  0  0  0  0  0  0  0
    4.4564    1.6096    2.6981 N   0  0  0  0  0  0  0  0  0  0  0  0
    5.2360    0.9565    2.2659 N   0  0  0  0  0  0  0  0  0  0  0  0
    2.3499   -0.3017    0.3237 B   0  0  0  0  0  0  0  0  0  0  0  0
    1.3928   -0.8641    1.2096 F   0  0  0  0  0  0  0  0  0  0  0  0
    2.2587    1.0871    0.3917 F   0  0  0  0  0  0  0  0  0  0  0  0
    3.6077   -0.7836    0.5603 F   0  0  0  0  0  0  0  0  0  0  0  0
    1.9352   -0.6848   -1.0302 F   0  0  0  0  0  0  0  0  0  0  0  0
   -2.4398    1.4830    1.9308 O   0  0  0  0  0  0  0  0  0  0  0  0
   -1.6246    0.8999    2.9585 C   0  0  0  0  0  0  0  0  0  0  0  0
   -2.1411    1.1119    3.8941 H   0  0  0  0  0  0  0  0  0  0  0  0
   -0.6277    1.3518    2.9708 H   0  0  0  0  0  0  0  0  0  0  0  0
   -1.5343   -0.1830    2.8205 H   0  0  0  0  0  0  0  0  0  0  0  0
  1  6  1  0  0  0  0
  1  7  1  0  0  0  0
  2  1  2  0  0  0  0
  3  4  2  0  0  0  0
  3  2  1  0  0  0  0
  4  5  1  0  0  0  0
  5 10  1  0  0  0  0
  5  6  2  0  0  0  0
  6 18  1  0  0  0  0
  8  2  1  0  0  0  0
  9  4  1  0  0  0  0
 12 11  3  0  0  0  0
 13 15  1  0  0  0  0
 13 16  1  0  0  0  0
 13 14  1  0  0  0  0
 17 13  1  0  0  0  0
 18 19  1  0  0  0  0
 19 21  1  0  0  0  0
 19 20  1  0  0  0  0
 22 19  1  0  0  0  0
M  RAD  1   3   2
M  END
