Coordinates from ORCA-job 4-MeO-Ph-N2-BF4-B3LYPG-6-31G_dp-MTMO-d009-169-n800
 OpenBabel09051908083D

 22 20  0  0  0  0  0  0  0  0999 V2000
   -1.3720    0.8889    0.2098 C   0  0  0  0  0  0  0  0  0  0  0  0
   -0.7885    0.8442   -1.1157 C   0  0  0  0  0  0  0  0  0  0  0  0
   -1.7656    1.2779   -1.8587 C   0  0  0  0  0  0  0  0  0  0  0  0
   -3.0317    1.7343   -1.9222 C   0  0  0  0  0  0  0  0  0  0  0  0
   -3.5146    1.7508   -0.5994 C   0  0  0  0  0  0  0  0  0  0  0  0
   -2.6779    1.3293    0.4619 C   0  0  0  0  0  0  0  0  0  0  0  0
   -0.6527    0.5619    0.9658 H   0  0  0  0  0  0  0  0  0  0  0  0
    0.2905    0.5151   -1.2045 H   0  0  0  0  0  0  0  0  0  0  0  0
   -3.5966    2.0340   -2.7934 H   0  0  0  0  0  0  0  0  0  0  0  0
   -4.5271    2.0881   -0.4047 H   0  0  0  0  0  0  0  0  0  0  0  0
   10.7071   -0.7103    3.4386 N   0  0  0  0  0  0  0  0  0  0  0  0
   10.4855   -1.6535    2.9066 N   0  0  0  0  0  0  0  0  0  0  0  0
    1.9333    0.6603    0.5243 B   0  0  0  0  0  0  0  0  0  0  0  0
    1.0802   -0.0735    1.3920 F   0  0  0  0  0  0  0  0  0  0  0  0
    1.4797    1.9765    0.4595 F   0  0  0  0  0  0  0  0  0  0  0  0
    3.2461    0.5414    0.8794 F   0  0  0  0  0  0  0  0  0  0  0  0
    1.7422    0.0873   -0.8147 F   0  0  0  0  0  0  0  0  0  0  0  0
   -3.2190    1.3888    1.6935 O   0  0  0  0  0  0  0  0  0  0  0  0
   -2.3932    1.0195    2.8079 C   0  0  0  0  0  0  0  0  0  0  0  0
   -3.0084    1.1830    3.6922 H   0  0  0  0  0  0  0  0  0  0  0  0
   -1.4953    1.6440    2.8552 H   0  0  0  0  0  0  0  0  0  0  0  0
   -2.1021   -0.0344    2.7475 H   0  0  0  0  0  0  0  0  0  0  0  0
  1  6  1  0  0  0  0
  1  7  1  0  0  0  0
  2  1  2  0  0  0  0
  3  2  1  0  0  0  0
  4  3  2  0  0  0  0
  4  5  1  0  0  0  0
  5 10  1  0  0  0  0
  5  6  2  0  0  0  0
  6 18  1  0  0  0  0
  8  2  1  0  0  0  0
  9  4  1  0  0  0  0
 12 11  3  0  0  0  0
 13 16  1  0  0  0  0
 13 14  1  0  0  0  0
 15 13  1  0  0  0  0
 17 13  1  0  0  0  0
 18 19  1  0  0  0  0
 19 21  1  0  0  0  0
 19 20  1  0  0  0  0
 22 19  1  0  0  0  0
M  RAD  1   3   2
M  END
