Coordinates from ORCA-job 4-MeO-Ph-N2-BF4-B3LYPG-6-31G_dp-MTMO-d009-169-n800
 OpenBabel09051908083D

 22 20  0  0  0  0  0  0  0  0999 V2000
   -0.8356    0.6897    0.4089 C   0  0  0  0  0  0  0  0  0  0  0  0
   -0.1315    0.7685   -0.8545 C   0  0  0  0  0  0  0  0  0  0  0  0
   -0.9048    1.5518   -1.5501 C   0  0  0  0  0  0  0  0  0  0  0  0
   -2.0287    2.2931   -1.5961 C   0  0  0  0  0  0  0  0  0  0  0  0
   -2.6414    2.1638   -0.3346 C   0  0  0  0  0  0  0  0  0  0  0  0
   -2.0376    1.3629    0.6643 C   0  0  0  0  0  0  0  0  0  0  0  0
   -0.2946    0.0606    1.1215 H   0  0  0  0  0  0  0  0  0  0  0  0
    0.8468    0.2124   -0.9447 H   0  0  0  0  0  0  0  0  0  0  0  0
   -2.4163    2.8785   -2.4179 H   0  0  0  0  0  0  0  0  0  0  0  0
   -3.5748    2.6811   -0.1396 H   0  0  0  0  0  0  0  0  0  0  0  0
    4.8165    2.1102    0.5101 N   0  0  0  0  0  0  0  0  0  0  0  0
    5.4530    1.3471    0.9936 N   0  0  0  0  0  0  0  0  0  0  0  0
    2.2744   -0.4022    0.8742 B   0  0  0  0  0  0  0  0  0  0  0  0
    1.1969   -1.0445    1.5382 F   0  0  0  0  0  0  0  0  0  0  0  0
    2.1446    0.9778    1.0438 F   0  0  0  0  0  0  0  0  0  0  0  0
    3.4877   -0.8892    1.2736 F   0  0  0  0  0  0  0  0  0  0  0  0
    2.0940   -0.6630   -0.5566 F   0  0  0  0  0  0  0  0  0  0  0  0
   -2.6881    1.3055    1.8416 O   0  0  0  0  0  0  0  0  0  0  0  0
   -2.0868    0.5504    2.9039 C   0  0  0  0  0  0  0  0  0  0  0  0
   -2.7510    0.6713    3.7590 H   0  0  0  0  0  0  0  0  0  0  0  0
   -1.0915    0.9373    3.1449 H   0  0  0  0  0  0  0  0  0  0  0  0
   -2.0117   -0.5094    2.6378 H   0  0  0  0  0  0  0  0  0  0  0  0
  1  6  1  0  0  0  0
  1  7  1  0  0  0  0
  2  1  2  0  0  0  0
  3  2  1  0  0  0  0
  4  3  2  0  0  0  0
  4  5  1  0  0  0  0
  5 10  1  0  0  0  0
  5  6  2  0  0  0  0
  6 18  1  0  0  0  0
  8  2  1  0  0  0  0
  9  4  1  0  0  0  0
 11 12  3  0  0  0  0
 13 15  1  0  0  0  0
 13 16  1  0  0  0  0
 13 14  1  0  0  0  0
 17 13  1  0  0  0  0
 18 19  1  0  0  0  0
 19 21  1  0  0  0  0
 19 20  1  0  0  0  0
 22 19  1  0  0  0  0
M  RAD  1   3   2
M  END
