Coordinates from ORCA-job 4-MeO-Ph-N2-BF4-B3LYPG-6-31G_dp-MTMO-d009-169-n800
 OpenBabel09051908083D

 22 21  0  0  0  0  0  0  0  0999 V2000
   -0.6100    0.0184    0.0919 C   0  0  0  0  0  0  0  0  0  0  0  0
    0.4085    0.2440   -0.7949 C   0  0  0  0  0  0  0  0  0  0  0  0
    0.5920    1.5560   -1.3039 C   0  0  0  0  0  0  0  0  0  0  0  0
   -0.2603    2.6385   -0.9408 C   0  0  0  0  0  0  0  0  0  0  0  0
   -1.2512    2.3984   -0.0329 C   0  0  0  0  0  0  0  0  0  0  0  0
   -1.3781    1.1095    0.5630 C   0  0  0  0  0  0  0  0  0  0  0  0
   -0.6880   -0.9532    0.5554 H   0  0  0  0  0  0  0  0  0  0  0  0
    1.0909   -0.5469   -1.0761 H   0  0  0  0  0  0  0  0  0  0  0  0
   -0.0958    3.6252   -1.3580 H   0  0  0  0  0  0  0  0  0  0  0  0
   -1.9021    3.1911    0.3160 H   0  0  0  0  0  0  0  0  0  0  0  0
    1.6596    1.7975   -2.0778 N   0  0  0  0  0  0  0  0  0  0  0  0
    2.5599    1.9956   -2.7246 N   0  0  0  0  0  0  0  0  0  0  0  0
    1.5948    0.4545    2.2689 B   0  0  0  0  0  0  0  0  0  0  0  0
    0.9406   -0.8109    2.2953 F   0  0  0  0  0  0  0  0  0  0  0  0
    0.5853    1.4498    2.3599 F   0  0  0  0  0  0  0  0  0  0  0  0
    2.4939    0.5662    3.3051 F   0  0  0  0  0  0  0  0  0  0  0  0
    2.2500    0.5946    1.0136 F   0  0  0  0  0  0  0  0  0  0  0  0
   -2.2618    1.0212    1.5364 O   0  0  0  0  0  0  0  0  0  0  0  0
   -2.2217   -0.1293    2.4177 C   0  0  0  0  0  0  0  0  0  0  0  0
   -2.8149    0.1616    3.2833 H   0  0  0  0  0  0  0  0  0  0  0  0
   -1.1866   -0.3374    2.6975 H   0  0  0  0  0  0  0  0  0  0  0  0
   -2.6851   -0.9908    1.9262 H   0  0  0  0  0  0  0  0  0  0  0  0
  1  7  1  0  0  0  0
  1  6  1  0  0  0  0
  2  1  2  0  0  0  0
  3  4  2  0  0  0  0
  3  2  1  0  0  0  0
  4  5  1  0  0  0  0
  5 10  1  0  0  0  0
  5  6  2  0  0  0  0
  6 18  1  0  0  0  0
  8  2  1  0  0  0  0
  9  4  1  0  0  0  0
 11  3  1  0  0  0  0
 12 11  1  0  0  0  0
 13 14  1  0  0  0  0
 13 15  1  0  0  0  0
 13 16  1  0  0  0  0
 17 13  1  0  0  0  0
 18 19  1  0  0  0  0
 19 21  1  0  0  0  0
 19 20  1  0  0  0  0
 22 19  1  0  0  0  0
M  RAD  2  11   2  12   3
M  END
