Coordinates from ORCA-job 4-MeO-Ph-N2-BF4-B3LYPG-6-31G_dp-MTMO-d009-169-n800
 OpenBabel09051908083D

 22 20  0  0  0  0  0  0  0  0999 V2000
   -0.8535    0.6998    0.3618 C   0  0  0  0  0  0  0  0  0  0  0  0
   -0.2415    0.7194   -0.9509 C   0  0  0  0  0  0  0  0  0  0  0  0
   -1.0787    1.4471   -1.6330 C   0  0  0  0  0  0  0  0  0  0  0  0
   -2.2093    2.1795   -1.6359 C   0  0  0  0  0  0  0  0  0  0  0  0
   -2.7287    2.1122   -0.3285 C   0  0  0  0  0  0  0  0  0  0  0  0
   -2.0436    1.3740    0.6662 C   0  0  0  0  0  0  0  0  0  0  0  0
   -0.2614    0.1047    1.0621 H   0  0  0  0  0  0  0  0  0  0  0  0
    0.7358    0.1670   -1.0866 H   0  0  0  0  0  0  0  0  0  0  0  0
   -2.6610    2.7184   -2.4567 H   0  0  0  0  0  0  0  0  0  0  0  0
   -3.6535    2.6289   -0.0947 H   0  0  0  0  0  0  0  0  0  0  0  0
    4.9138    2.1005    1.3080 N   0  0  0  0  0  0  0  0  0  0  0  0
    5.4706    1.2027    1.6322 N   0  0  0  0  0  0  0  0  0  0  0  0
    2.2899   -0.4004    0.6345 B   0  0  0  0  0  0  0  0  0  0  0  0
    1.2394   -1.0349    1.3473 F   0  0  0  0  0  0  0  0  0  0  0  0
    2.1852    0.9787    0.8177 F   0  0  0  0  0  0  0  0  0  0  0  0
    3.5147   -0.9069    0.9692 F   0  0  0  0  0  0  0  0  0  0  0  0
    2.0338   -0.6535   -0.7874 F   0  0  0  0  0  0  0  0  0  0  0  0
   -2.6088    1.3739    1.8880 O   0  0  0  0  0  0  0  0  0  0  0  0
   -1.9236    0.6857    2.9447 C   0  0  0  0  0  0  0  0  0  0  0  0
   -2.5320    0.8404    3.8351 H   0  0  0  0  0  0  0  0  0  0  0  0
   -0.9226    1.1018    3.0988 H   0  0  0  0  0  0  0  0  0  0  0  0
   -1.8451   -0.3854    2.7293 H   0  0  0  0  0  0  0  0  0  0  0  0
  1  6  1  0  0  0  0
  1  7  1  0  0  0  0
  2  1  2  0  0  0  0
  3  2  1  0  0  0  0
  4  3  2  0  0  0  0
  4  5  1  0  0  0  0
  5 10  1  0  0  0  0
  5  6  2  0  0  0  0
  6 18  1  0  0  0  0
  8  2  1  0  0  0  0
  9  4  1  0  0  0  0
 11 12  3  0  0  0  0
 13 15  1  0  0  0  0
 13 16  1  0  0  0  0
 13 14  1  0  0  0  0
 17 13  1  0  0  0  0
 18 19  1  0  0  0  0
 19 21  1  0  0  0  0
 19 20  1  0  0  0  0
 22 19  1  0  0  0  0
M  RAD  1   3   2
M  END
