Coordinates from ORCA-job 4-MeO-Ph-N2-BF4-B3LYPG-6-31G_dp-MTMO-d009-169-n800
 OpenBabel09051908083D

 22 20  0  0  0  0  0  0  0  0999 V2000
   -1.4057    0.8951    0.2017 C   0  0  0  0  0  0  0  0  0  0  0  0
   -0.8227    0.8501   -1.1240 C   0  0  0  0  0  0  0  0  0  0  0  0
   -1.7995    1.2854   -1.8665 C   0  0  0  0  0  0  0  0  0  0  0  0
   -3.0650    1.7435   -1.9294 C   0  0  0  0  0  0  0  0  0  0  0  0
   -3.5475    1.7601   -0.6064 C   0  0  0  0  0  0  0  0  0  0  0  0
   -2.7109    1.3371    0.4544 C   0  0  0  0  0  0  0  0  0  0  0  0
   -0.6866    0.5669    0.9574 H   0  0  0  0  0  0  0  0  0  0  0  0
    0.2558    0.5195   -1.2133 H   0  0  0  0  0  0  0  0  0  0  0  0
   -3.6298    2.0442   -2.8003 H   0  0  0  0  0  0  0  0  0  0  0  0
   -4.5594    2.0987   -0.4113 H   0  0  0  0  0  0  0  0  0  0  0  0
   11.0422   -0.7690    3.5203 N   0  0  0  0  0  0  0  0  0  0  0  0
   10.8191   -1.7114    2.9876 N   0  0  0  0  0  0  0  0  0  0  0  0
    1.8994    0.6618    0.5148 B   0  0  0  0  0  0  0  0  0  0  0  0
    1.0456   -0.0713    1.3825 F   0  0  0  0  0  0  0  0  0  0  0  0
    1.4475    1.9786    0.4508 F   0  0  0  0  0  0  0  0  0  0  0  0
    3.2122    0.5409    0.8692 F   0  0  0  0  0  0  0  0  0  0  0  0
    1.7070    0.0897   -0.8244 F   0  0  0  0  0  0  0  0  0  0  0  0
   -3.2516    1.3968    1.6862 O   0  0  0  0  0  0  0  0  0  0  0  0
   -2.4260    1.0260    2.8002 C   0  0  0  0  0  0  0  0  0  0  0  0
   -3.0407    1.1899    3.6848 H   0  0  0  0  0  0  0  0  0  0  0  0
   -1.5273    1.6493    2.8475 H   0  0  0  0  0  0  0  0  0  0  0  0
   -2.1362   -0.0283    2.7393 H   0  0  0  0  0  0  0  0  0  0  0  0
  1  6  1  0  0  0  0
  1  7  1  0  0  0  0
  2  1  2  0  0  0  0
  3  2  1  0  0  0  0
  4  3  2  0  0  0  0
  4  5  1  0  0  0  0
  5 10  1  0  0  0  0
  5  6  2  0  0  0  0
  6 18  1  0  0  0  0
  8  2  1  0  0  0  0
  9  4  1  0  0  0  0
 12 11  3  0  0  0  0
 13 16  1  0  0  0  0
 13 14  1  0  0  0  0
 15 13  1  0  0  0  0
 17 13  1  0  0  0  0
 18 19  1  0  0  0  0
 19 21  1  0  0  0  0
 19 20  1  0  0  0  0
 22 19  1  0  0  0  0
M  RAD  1   3   2
M  END
