Coordinates from ORCA-job 4-MeO-Ph-N2-BF4-B3LYPG-6-31G_dp-MTMO-d009-169-n800
 OpenBabel09051908083D

 22 20  0  0  0  0  0  0  0  0999 V2000
   -0.8022    0.7323    0.4644 C   0  0  0  0  0  0  0  0  0  0  0  0
    0.0058    0.9160   -0.7243 C   0  0  0  0  0  0  0  0  0  0  0  0
   -0.7448    1.7055   -1.4382 C   0  0  0  0  0  0  0  0  0  0  0  0
   -1.8966    2.3971   -1.5404 C   0  0  0  0  0  0  0  0  0  0  0  0
   -2.6098    2.1661   -0.3485 C   0  0  0  0  0  0  0  0  0  0  0  0
   -2.0540    1.3325    0.6517 C   0  0  0  0  0  0  0  0  0  0  0  0
   -0.2871    0.0936    1.1900 H   0  0  0  0  0  0  0  0  0  0  0  0
    1.0109    0.4093   -0.7500 H   0  0  0  0  0  0  0  0  0  0  0  0
   -2.2392    3.0128   -2.3602 H   0  0  0  0  0  0  0  0  0  0  0  0
   -3.5803    2.6297   -0.2077 H   0  0  0  0  0  0  0  0  0  0  0  0
    4.7094    1.6103   -0.4391 N   0  0  0  0  0  0  0  0  0  0  0  0
    5.4425    1.1398    0.2408 N   0  0  0  0  0  0  0  0  0  0  0  0
    2.3042   -0.2097    1.1906 B   0  0  0  0  0  0  0  0  0  0  0  0
    1.1984   -0.8711    1.7915 F   0  0  0  0  0  0  0  0  0  0  0  0
    2.1373    1.1673    1.3367 F   0  0  0  0  0  0  0  0  0  0  0  0
    3.4969   -0.6730    1.6738 F   0  0  0  0  0  0  0  0  0  0  0  0
    2.2254   -0.4844   -0.2448 F   0  0  0  0  0  0  0  0  0  0  0  0
   -2.7970    1.1722    1.7625 O   0  0  0  0  0  0  0  0  0  0  0  0
   -2.2631    0.3533    2.8136 C   0  0  0  0  0  0  0  0  0  0  0  0
   -2.9977    0.3954    3.6173 H   0  0  0  0  0  0  0  0  0  0  0  0
   -1.3008    0.7399    3.1643 H   0  0  0  0  0  0  0  0  0  0  0  0
   -2.1381   -0.6815    2.4772 H   0  0  0  0  0  0  0  0  0  0  0  0
  1  6  1  0  0  0  0
  1  7  1  0  0  0  0
  2  1  2  0  0  0  0
  3  2  1  0  0  0  0
  4  3  2  0  0  0  0
  4  5  1  0  0  0  0
  5 10  1  0  0  0  0
  5  6  2  0  0  0  0
  6 18  1  0  0  0  0
  8  2  1  0  0  0  0
  9  4  1  0  0  0  0
 11 12  3  0  0  0  0
 13 15  1  0  0  0  0
 13 16  1  0  0  0  0
 13 14  1  0  0  0  0
 17 13  1  0  0  0  0
 18 19  1  0  0  0  0
 19 21  1  0  0  0  0
 19 20  1  0  0  0  0
 22 19  1  0  0  0  0
M  RAD  1   3   2
M  END
