Coordinates from ORCA-job 4-MeO-Ph-N2-BF4-B3LYPG-6-31G_dp-MTMO-d009-169-n800
 OpenBabel09051908083D

 22 20  0  0  0  0  0  0  0  0999 V2000
   -1.4825    0.9116    0.1843 C   0  0  0  0  0  0  0  0  0  0  0  0
   -0.8989    0.8682   -1.1411 C   0  0  0  0  0  0  0  0  0  0  0  0
   -1.8795    1.2915   -1.8854 C   0  0  0  0  0  0  0  0  0  0  0  0
   -3.1494    1.7370   -1.9501 C   0  0  0  0  0  0  0  0  0  0  0  0
   -3.6323    1.7531   -0.6273 C   0  0  0  0  0  0  0  0  0  0  0  0
   -2.7921    1.3417    0.4351 C   0  0  0  0  0  0  0  0  0  0  0  0
   -0.7606    0.5928    0.9412 H   0  0  0  0  0  0  0  0  0  0  0  0
    0.1830    0.5481   -1.2295 H   0  0  0  0  0  0  0  0  0  0  0  0
   -3.7170    2.0295   -2.8221 H   0  0  0  0  0  0  0  0  0  0  0  0
   -4.6476    2.0825   -0.4335 H   0  0  0  0  0  0  0  0  0  0  0  0
   11.8323   -0.9567    3.7057 N   0  0  0  0  0  0  0  0  0  0  0  0
   11.5992   -1.8978    3.1749 N   0  0  0  0  0  0  0  0  0  0  0  0
    1.8255    0.7114    0.4967 B   0  0  0  0  0  0  0  0  0  0  0  0
    0.9790   -0.0286    1.3655 F   0  0  0  0  0  0  0  0  0  0  0  0
    1.3609    2.0236    0.4304 F   0  0  0  0  0  0  0  0  0  0  0  0
    3.1395    0.6040    0.8511 F   0  0  0  0  0  0  0  0  0  0  0  0
    1.6386    0.1351   -0.8416 F   0  0  0  0  0  0  0  0  0  0  0  0
   -3.3338    1.4002    1.6665 O   0  0  0  0  0  0  0  0  0  0  0  0
   -2.5051    1.0412    2.7821 C   0  0  0  0  0  0  0  0  0  0  0  0
   -3.1217    1.2021    3.6658 H   0  0  0  0  0  0  0  0  0  0  0  0
   -1.6125    1.6734    2.8276 H   0  0  0  0  0  0  0  0  0  0  0  0
   -2.2051   -0.0104    2.7248 H   0  0  0  0  0  0  0  0  0  0  0  0
  1  6  1  0  0  0  0
  1  7  1  0  0  0  0
  2  1  2  0  0  0  0
  3  2  1  0  0  0  0
  4  3  2  0  0  0  0
  4  5  1  0  0  0  0
  5 10  1  0  0  0  0
  5  6  2  0  0  0  0
  6 18  1  0  0  0  0
  8  2  1  0  0  0  0
  9  4  1  0  0  0  0
 12 11  3  0  0  0  0
 13 16  1  0  0  0  0
 13 14  1  0  0  0  0
 15 13  1  0  0  0  0
 17 13  1  0  0  0  0
 18 19  1  0  0  0  0
 19 21  1  0  0  0  0
 19 20  1  0  0  0  0
 22 19  1  0  0  0  0
M  RAD  1   3   2
M  END
