Coordinates from ORCA-job 4-MeO-Ph-N2-BF4-B3LYPG-6-31G_dp-MTMO-d009-169-n800
 OpenBabel09051908083D

 22 20  0  0  0  0  0  0  0  0999 V2000
   -0.7583    0.7055    0.4899 C   0  0  0  0  0  0  0  0  0  0  0  0
    0.0886    0.8801   -0.6728 C   0  0  0  0  0  0  0  0  0  0  0  0
   -0.6145    1.7032   -1.3969 C   0  0  0  0  0  0  0  0  0  0  0  0
   -1.7426    2.4288   -1.5243 C   0  0  0  0  0  0  0  0  0  0  0  0
   -2.4967    2.2040   -0.3566 C   0  0  0  0  0  0  0  0  0  0  0  0
   -1.9964    1.3412    0.6481 C   0  0  0  0  0  0  0  0  0  0  0  0
   -0.2816    0.0481    1.2245 H   0  0  0  0  0  0  0  0  0  0  0  0
    1.0804    0.3470   -0.6764 H   0  0  0  0  0  0  0  0  0  0  0  0
   -2.0433    3.0640   -2.3457 H   0  0  0  0  0  0  0  0  0  0  0  0
   -3.4565    2.6951   -0.2377 H   0  0  0  0  0  0  0  0  0  0  0  0
    4.1966    1.7216   -0.6747 N   0  0  0  0  0  0  0  0  0  0  0  0
    5.1117    1.4496   -0.1185 N   0  0  0  0  0  0  0  0  0  0  0  0
    2.3132   -0.2892    1.2936 B   0  0  0  0  0  0  0  0  0  0  0  0
    1.1862   -0.9364    1.8677 F   0  0  0  0  0  0  0  0  0  0  0  0
    2.1559    1.0910    1.4315 F   0  0  0  0  0  0  0  0  0  0  0  0
    3.4898   -0.7610    1.8036 F   0  0  0  0  0  0  0  0  0  0  0  0
    2.2649   -0.5661   -0.1441 F   0  0  0  0  0  0  0  0  0  0  0  0
   -2.7770    1.1908    1.7345 O   0  0  0  0  0  0  0  0  0  0  0  0
   -2.3021    0.3411    2.7890 C   0  0  0  0  0  0  0  0  0  0  0  0
   -3.0581    0.3979    3.5717 H   0  0  0  0  0  0  0  0  0  0  0  0
   -1.3380    0.6900    3.1729 H   0  0  0  0  0  0  0  0  0  0  0  0
   -2.2023   -0.6930    2.4421 H   0  0  0  0  0  0  0  0  0  0  0  0
  1  6  1  0  0  0  0
  1  7  1  0  0  0  0
  2  1  2  0  0  0  0
  3  2  1  0  0  0  0
  4  3  2  0  0  0  0
  4  5  1  0  0  0  0
  5 10  1  0  0  0  0
  5  6  2  0  0  0  0
  6 18  1  0  0  0  0
  8  2  1  0  0  0  0
  9  4  1  0  0  0  0
 11 12  3  0  0  0  0
 13 15  1  0  0  0  0
 13 16  1  0  0  0  0
 13 14  1  0  0  0  0
 17 13  1  0  0  0  0
 18 19  1  0  0  0  0
 19 21  1  0  0  0  0
 19 20  1  0  0  0  0
 22 19  1  0  0  0  0
M  RAD  1   3   2
M  END
