Coordinates from ORCA-job 4-MeO-Ph-N2-BF4-B3LYPG-6-31G_dp-MTMO-d009-169-n800
 OpenBabel09051908083D

 22 20  0  0  0  0  0  0  0  0999 V2000
   -1.4898    0.9127    0.1822 C   0  0  0  0  0  0  0  0  0  0  0  0
   -0.9063    0.8691   -1.1432 C   0  0  0  0  0  0  0  0  0  0  0  0
   -1.8866    1.2936   -1.8872 C   0  0  0  0  0  0  0  0  0  0  0  0
   -3.1561    1.7405   -1.9517 C   0  0  0  0  0  0  0  0  0  0  0  0
   -3.6389    1.7567   -0.6288 C   0  0  0  0  0  0  0  0  0  0  0  0
   -2.7989    1.3441    0.4334 C   0  0  0  0  0  0  0  0  0  0  0  0
   -0.7681    0.5929    0.9390 H   0  0  0  0  0  0  0  0  0  0  0  0
    0.1752    0.5479   -1.2317 H   0  0  0  0  0  0  0  0  0  0  0  0
   -3.7234    2.0338   -2.8235 H   0  0  0  0  0  0  0  0  0  0  0  0
   -4.6537    2.0871   -0.4348 H   0  0  0  0  0  0  0  0  0  0  0  0
   11.9030   -0.9670    3.7227 N   0  0  0  0  0  0  0  0  0  0  0  0
   11.6708   -1.9081    3.1917 N   0  0  0  0  0  0  0  0  0  0  0  0
    1.8177    0.7096    0.4953 B   0  0  0  0  0  0  0  0  0  0  0  0
    0.9705   -0.0294    1.3643 F   0  0  0  0  0  0  0  0  0  0  0  0
    1.3541    2.0222    0.4287 F   0  0  0  0  0  0  0  0  0  0  0  0
    3.1315    0.6013    0.8499 F   0  0  0  0  0  0  0  0  0  0  0  0
    1.6303    0.1332   -0.8428 F   0  0  0  0  0  0  0  0  0  0  0  0
   -3.3404    1.4027    1.6649 O   0  0  0  0  0  0  0  0  0  0  0  0
   -2.5117    1.0425    2.7802 C   0  0  0  0  0  0  0  0  0  0  0  0
   -3.1280    1.2039    3.6641 H   0  0  0  0  0  0  0  0  0  0  0  0
   -1.6185    1.6737    2.8257 H   0  0  0  0  0  0  0  0  0  0  0  0
   -2.2129   -0.0094    2.7226 H   0  0  0  0  0  0  0  0  0  0  0  0
  1  6  1  0  0  0  0
  1  7  1  0  0  0  0
  2  1  2  0  0  0  0
  3  2  1  0  0  0  0
  4  3  2  0  0  0  0
  4  5  1  0  0  0  0
  5 10  1  0  0  0  0
  5  6  2  0  0  0  0
  6 18  1  0  0  0  0
  8  2  1  0  0  0  0
  9  4  1  0  0  0  0
 12 11  3  0  0  0  0
 13 16  1  0  0  0  0
 13 14  1  0  0  0  0
 15 13  1  0  0  0  0
 17 13  1  0  0  0  0
 18 19  1  0  0  0  0
 19 21  1  0  0  0  0
 19 20  1  0  0  0  0
 22 19  1  0  0  0  0
M  RAD  1   3   2
M  END
