Coordinates from ORCA-job 4-MeO-Ph-N2-BF4-B3LYPG-6-31G_dp-MTMO-d009-169-n800
 OpenBabel09051908083D

 22 20  0  0  0  0  0  0  0  0999 V2000
   -1.1784    0.8484    0.2560 C   0  0  0  0  0  0  0  0  0  0  0  0
   -0.5924    0.8009   -1.0683 C   0  0  0  0  0  0  0  0  0  0  0  0
   -1.5617    1.2515   -1.8116 C   0  0  0  0  0  0  0  0  0  0  0  0
   -2.8211    1.7260   -1.8759 C   0  0  0  0  0  0  0  0  0  0  0  0
   -3.3069    1.7436   -0.5541 C   0  0  0  0  0  0  0  0  0  0  0  0
   -2.4786    1.3058    0.5072 C   0  0  0  0  0  0  0  0  0  0  0  0
   -0.4654    0.5079    1.0121 H   0  0  0  0  0  0  0  0  0  0  0  0
    0.4814    0.4560   -1.1559 H   0  0  0  0  0  0  0  0  0  0  0  0
   -3.3796    2.0375   -2.7471 H   0  0  0  0  0  0  0  0  0  0  0  0
   -4.3149    2.0942   -0.3604 H   0  0  0  0  0  0  0  0  0  0  0  0
    8.7433   -0.2553    2.9541 N   0  0  0  0  0  0  0  0  0  0  0  0
    8.5394   -1.2073    2.4310 N   0  0  0  0  0  0  0  0  0  0  0  0
    2.1217    0.5670    0.5793 B   0  0  0  0  0  0  0  0  0  0  0  0
    1.2545   -0.1564    1.4419 F   0  0  0  0  0  0  0  0  0  0  0  0
    1.6891    1.8905    0.5185 F   0  0  0  0  0  0  0  0  0  0  0  0
    3.4313    0.4261    0.9384 F   0  0  0  0  0  0  0  0  0  0  0  0
    1.9260    0.0025   -0.7622 F   0  0  0  0  0  0  0  0  0  0  0  0
   -3.0216    1.3674    1.7378 O   0  0  0  0  0  0  0  0  0  0  0  0
   -2.2036    0.9813    2.8523 C   0  0  0  0  0  0  0  0  0  0  0  0
   -2.8186    1.1489    3.7360 H   0  0  0  0  0  0  0  0  0  0  0  0
   -1.2975    1.5932    2.9047 H   0  0  0  0  0  0  0  0  0  0  0  0
   -1.9268   -0.0762    2.7874 H   0  0  0  0  0  0  0  0  0  0  0  0
  1  6  1  0  0  0  0
  1  7  1  0  0  0  0
  2  1  2  0  0  0  0
  3  2  1  0  0  0  0
  4  3  2  0  0  0  0
  4  5  1  0  0  0  0
  5 10  1  0  0  0  0
  5  6  2  0  0  0  0
  6 18  1  0  0  0  0
  8  2  1  0  0  0  0
  9  4  1  0  0  0  0
 12 11  3  0  0  0  0
 13 16  1  0  0  0  0
 13 14  1  0  0  0  0
 15 13  1  0  0  0  0
 17 13  1  0  0  0  0
 18 19  1  0  0  0  0
 19 21  1  0  0  0  0
 19 20  1  0  0  0  0
 22 19  1  0  0  0  0
M  RAD  1   3   2
M  END
