Coordinates from ORCA-job 4-MeO-Ph-N2-BF4-B3LYPG-6-31G_dp-MTMO-d009-169-n800
 OpenBabel09051908083D

 22 20  0  0  0  0  0  0  0  0999 V2000
   -0.5584    0.6348    0.7742 C   0  0  0  0  0  0  0  0  0  0  0  0
    0.5822    0.8416   -0.0929 C   0  0  0  0  0  0  0  0  0  0  0  0
    0.1293    1.7130   -0.9479 C   0  0  0  0  0  0  0  0  0  0  0  0
   -0.9039    2.4777   -1.3507 C   0  0  0  0  0  0  0  0  0  0  0  0
   -1.9596    2.2213   -0.4549 C   0  0  0  0  0  0  0  0  0  0  0  0
   -1.7796    1.3010    0.6057 C   0  0  0  0  0  0  0  0  0  0  0  0
   -0.3258   -0.0791    1.5680 H   0  0  0  0  0  0  0  0  0  0  0  0
    1.5434    0.2925    0.1463 H   0  0  0  0  0  0  0  0  0  0  0  0
   -0.9503    3.1572   -2.1899 H   0  0  0  0  0  0  0  0  0  0  0  0
   -2.9070    2.7334   -0.5858 H   0  0  0  0  0  0  0  0  0  0  0  0
    2.8071    2.3969   -3.0679 N   0  0  0  0  0  0  0  0  0  0  0  0
    3.7795    2.5083   -3.5806 N   0  0  0  0  0  0  0  0  0  0  0  0
    2.2030   -0.5208    2.2724 B   0  0  0  0  0  0  0  0  0  0  0  0
    0.9891   -1.2547    2.3215 F   0  0  0  0  0  0  0  0  0  0  0  0
    1.9340    0.8122    2.5779 F   0  0  0  0  0  0  0  0  0  0  0  0
    3.1739   -1.0836    3.0502 F   0  0  0  0  0  0  0  0  0  0  0  0
    2.6355   -0.5464    0.8675 F   0  0  0  0  0  0  0  0  0  0  0  0
   -2.8425    1.1274    1.4144 O   0  0  0  0  0  0  0  0  0  0  0  0
   -2.6962    0.2435    2.5343 C   0  0  0  0  0  0  0  0  0  0  0  0
   -3.6499    0.2793    3.0602 H   0  0  0  0  0  0  0  0  0  0  0  0
   -1.8905    0.5784    3.1963 H   0  0  0  0  0  0  0  0  0  0  0  0
   -2.4935   -0.7804    2.2026 H   0  0  0  0  0  0  0  0  0  0  0  0
  1  7  1  0  0  0  0
  2  8  1  0  0  0  0
  2  1  2  0  0  0  0
  3  2  1  0  0  0  0
  4  3  2  0  0  0  0
  4  5  1  0  0  0  0
  5  6  2  0  0  0  0
  6  1  1  0  0  0  0
  6 18  1  0  0  0  0
  9  4  1  0  0  0  0
 10  5  1  0  0  0  0
 12 11  3  0  0  0  0
 13 14  1  0  0  0  0
 13 15  1  0  0  0  0
 13 16  1  0  0  0  0
 17 13  1  0  0  0  0
 18 19  1  0  0  0  0
 19 20  1  0  0  0  0
 19 21  1  0  0  0  0
 22 19  1  0  0  0  0
M  RAD  1   3   2
M  END
