Coordinates from ORCA-job 4-MeO-Ph-N2-BF4-B3LYPG-6-31G_dp-MTMO-d009-169-n800
 OpenBabel09051908083D

 22 20  0  0  0  0  0  0  0  0999 V2000
   -1.2810    0.8726    0.2315 C   0  0  0  0  0  0  0  0  0  0  0  0
   -0.6961    0.8289   -1.0933 C   0  0  0  0  0  0  0  0  0  0  0  0
   -1.6747    1.2568   -1.8378 C   0  0  0  0  0  0  0  0  0  0  0  0
   -2.9429    1.7071   -1.9029 C   0  0  0  0  0  0  0  0  0  0  0  0
   -3.4270    1.7232   -0.5805 C   0  0  0  0  0  0  0  0  0  0  0  0
   -2.5891    1.3071    0.4820 C   0  0  0  0  0  0  0  0  0  0  0  0
   -0.5607    0.5500    0.9886 H   0  0  0  0  0  0  0  0  0  0  0  0
    0.3845    0.5050   -1.1808 H   0  0  0  0  0  0  0  0  0  0  0  0
   -3.5086    2.0029   -2.7750 H   0  0  0  0  0  0  0  0  0  0  0  0
   -4.4412    2.0560   -0.3872 H   0  0  0  0  0  0  0  0  0  0  0  0
    9.8049   -0.5575    3.2194 N   0  0  0  0  0  0  0  0  0  0  0  0
    9.5869   -1.5021    2.6886 N   0  0  0  0  0  0  0  0  0  0  0  0
    2.0251    0.6604    0.5499 B   0  0  0  0  0  0  0  0  0  0  0  0
    1.1744   -0.0761    1.4178 F   0  0  0  0  0  0  0  0  0  0  0  0
    1.5655    1.9743    0.4827 F   0  0  0  0  0  0  0  0  0  0  0  0
    3.3380    0.5481    0.9068 F   0  0  0  0  0  0  0  0  0  0  0  0
    1.8381    0.0846   -0.7884 F   0  0  0  0  0  0  0  0  0  0  0  0
   -3.1315    1.3658    1.7131 O   0  0  0  0  0  0  0  0  0  0  0  0
   -2.3048    1.0021    2.8287 C   0  0  0  0  0  0  0  0  0  0  0  0
   -2.9214    1.1642    3.7123 H   0  0  0  0  0  0  0  0  0  0  0  0
   -1.4098    1.6307    2.8756 H   0  0  0  0  0  0  0  0  0  0  0  0
   -2.0089   -0.0506    2.7702 H   0  0  0  0  0  0  0  0  0  0  0  0
  1  6  1  0  0  0  0
  1  7  1  0  0  0  0
  2  1  2  0  0  0  0
  3  2  1  0  0  0  0
  4  3  2  0  0  0  0
  4  5  1  0  0  0  0
  5 10  1  0  0  0  0
  5  6  2  0  0  0  0
  6 18  1  0  0  0  0
  8  2  1  0  0  0  0
  9  4  1  0  0  0  0
 12 11  3  0  0  0  0
 13 16  1  0  0  0  0
 13 14  1  0  0  0  0
 15 13  1  0  0  0  0
 17 13  1  0  0  0  0
 18 19  1  0  0  0  0
 19 21  1  0  0  0  0
 19 20  1  0  0  0  0
 22 19  1  0  0  0  0
M  RAD  1   3   2
M  END
