Coordinates from ORCA-job 4-MeO-Ph-N2-BF4-B3LYPG-6-31G_dp-MTMO-d009-169-n800
 OpenBabel09051908083D

 22 20  0  0  0  0  0  0  0  0999 V2000
   -1.0157    0.8315    0.2727 C   0  0  0  0  0  0  0  0  0  0  0  0
   -0.4544    0.7914   -1.0623 C   0  0  0  0  0  0  0  0  0  0  0  0
   -1.4509    1.2113   -1.7886 C   0  0  0  0  0  0  0  0  0  0  0  0
   -2.7201    1.6614   -1.8284 C   0  0  0  0  0  0  0  0  0  0  0  0
   -3.1795    1.6755   -0.4971 C   0  0  0  0  0  0  0  0  0  0  0  0
   -2.3200    1.2621    0.5489 C   0  0  0  0  0  0  0  0  0  0  0  0
   -0.2822    0.5038    1.0154 H   0  0  0  0  0  0  0  0  0  0  0  0
    0.6233    0.4672   -1.1671 H   0  0  0  0  0  0  0  0  0  0  0  0
   -3.3024    1.9576   -2.6894 H   0  0  0  0  0  0  0  0  0  0  0  0
   -4.1910    2.0050   -0.2847 H   0  0  0  0  0  0  0  0  0  0  0  0
    7.3395   -0.3091    2.8860 N   0  0  0  0  0  0  0  0  0  0  0  0
    6.6994   -0.7203    2.0840 N   0  0  0  0  0  0  0  0  0  0  0  0
    2.2913    0.5862    0.5596 B   0  0  0  0  0  0  0  0  0  0  0  0
    1.4404   -0.1481    1.4303 F   0  0  0  0  0  0  0  0  0  0  0  0
    1.8460    1.9062    0.5109 F   0  0  0  0  0  0  0  0  0  0  0  0
    3.6067    0.4561    0.9048 F   0  0  0  0  0  0  0  0  0  0  0  0
    2.0840    0.0265   -0.7807 F   0  0  0  0  0  0  0  0  0  0  0  0
   -2.8381    1.3181    1.7903 O   0  0  0  0  0  0  0  0  0  0  0  0
   -1.9874    0.9577    2.8891 C   0  0  0  0  0  0  0  0  0  0  0  0
   -2.5871    1.1163    3.7848 H   0  0  0  0  0  0  0  0  0  0  0  0
   -1.0947    1.5907    2.9185 H   0  0  0  0  0  0  0  0  0  0  0  0
   -1.6874   -0.0934    2.8240 H   0  0  0  0  0  0  0  0  0  0  0  0
  1  6  1  0  0  0  0
  1  7  1  0  0  0  0
  2  1  2  0  0  0  0
  3  2  1  0  0  0  0
  4  3  2  0  0  0  0
  4  5  1  0  0  0  0
  5 10  1  0  0  0  0
  5  6  2  0  0  0  0
  6 18  1  0  0  0  0
  8  2  1  0  0  0  0
  9  4  1  0  0  0  0
 12 11  3  0  0  0  0
 13 16  1  0  0  0  0
 13 14  1  0  0  0  0
 15 13  1  0  0  0  0
 17 13  1  0  0  0  0
 18 19  1  0  0  0  0
 19 21  1  0  0  0  0
 19 20  1  0  0  0  0
 22 19  1  0  0  0  0
M  RAD  1   3   2
M  END
