Coordinates from ORCA-job 4-MeO-Ph-N2-BF4-B3LYPG-6-31G_dp-MTMO-d009-169-n800
 OpenBabel09051908083D

 22 20  0  0  0  0  0  0  0  0999 V2000
   -1.1802    0.8487    0.2556 C   0  0  0  0  0  0  0  0  0  0  0  0
   -0.5942    0.8012   -1.0687 C   0  0  0  0  0  0  0  0  0  0  0  0
   -1.5635    1.2518   -1.8120 C   0  0  0  0  0  0  0  0  0  0  0  0
   -2.8228    1.7264   -1.8763 C   0  0  0  0  0  0  0  0  0  0  0  0
   -3.3086    1.7441   -0.5545 C   0  0  0  0  0  0  0  0  0  0  0  0
   -2.4803    1.3062    0.5068 C   0  0  0  0  0  0  0  0  0  0  0  0
   -0.4672    0.5082    1.0117 H   0  0  0  0  0  0  0  0  0  0  0  0
    0.4796    0.4563   -1.1563 H   0  0  0  0  0  0  0  0  0  0  0  0
   -3.3814    2.0380   -2.7475 H   0  0  0  0  0  0  0  0  0  0  0  0
   -4.3166    2.0947   -0.3607 H   0  0  0  0  0  0  0  0  0  0  0  0
    8.7612   -0.2582    2.9584 N   0  0  0  0  0  0  0  0  0  0  0  0
    8.5571   -1.2102    2.4353 N   0  0  0  0  0  0  0  0  0  0  0  0
    2.1199    0.5671    0.5788 B   0  0  0  0  0  0  0  0  0  0  0  0
    1.2527   -0.1563    1.4414 F   0  0  0  0  0  0  0  0  0  0  0  0
    1.6874    1.8907    0.5180 F   0  0  0  0  0  0  0  0  0  0  0  0
    3.4295    0.4262    0.9378 F   0  0  0  0  0  0  0  0  0  0  0  0
    1.9241    0.0026   -0.7627 F   0  0  0  0  0  0  0  0  0  0  0  0
   -3.0234    1.3678    1.7374 O   0  0  0  0  0  0  0  0  0  0  0  0
   -2.2054    0.9816    2.8519 C   0  0  0  0  0  0  0  0  0  0  0  0
   -2.8203    1.1492    3.7356 H   0  0  0  0  0  0  0  0  0  0  0  0
   -1.2992    1.5935    2.9043 H   0  0  0  0  0  0  0  0  0  0  0  0
   -1.9286   -0.0759    2.7869 H   0  0  0  0  0  0  0  0  0  0  0  0
  1  6  1  0  0  0  0
  1  7  1  0  0  0  0
  2  1  2  0  0  0  0
  3  2  1  0  0  0  0
  4  3  2  0  0  0  0
  4  5  1  0  0  0  0
  5 10  1  0  0  0  0
  5  6  2  0  0  0  0
  6 18  1  0  0  0  0
  8  2  1  0  0  0  0
  9  4  1  0  0  0  0
 12 11  3  0  0  0  0
 13 16  1  0  0  0  0
 13 14  1  0  0  0  0
 15 13  1  0  0  0  0
 17 13  1  0  0  0  0
 18 19  1  0  0  0  0
 19 21  1  0  0  0  0
 19 20  1  0  0  0  0
 22 19  1  0  0  0  0
M  RAD  1   3   2
M  END
