Coordinates from ORCA-job 4-MeO-Ph-N2-BF4-B3LYPG-6-31G_dp-MTMO-d009-169-n800
 OpenBabel09051908083D

 22 20  0  0  0  0  0  0  0  0999 V2000
   -0.7795    0.7165    0.4763 C   0  0  0  0  0  0  0  0  0  0  0  0
    0.0483    0.8957   -0.6994 C   0  0  0  0  0  0  0  0  0  0  0  0
   -0.6763    1.7058   -1.4169 C   0  0  0  0  0  0  0  0  0  0  0  0
   -1.8156    2.4160   -1.5313 C   0  0  0  0  0  0  0  0  0  0  0  0
   -2.5497    2.1879   -0.3516 C   0  0  0  0  0  0  0  0  0  0  0  0
   -2.0233    1.3368    0.6499 C   0  0  0  0  0  0  0  0  0  0  0  0
   -0.2840    0.0685    1.2069 H   0  0  0  0  0  0  0  0  0  0  0  0
    1.0466    0.3756   -0.7133 H   0  0  0  0  0  0  0  0  0  0  0  0
   -2.1366    3.0426   -2.3517 H   0  0  0  0  0  0  0  0  0  0  0  0
   -3.5142    2.6668   -0.2212 H   0  0  0  0  0  0  0  0  0  0  0  0
    4.4383    1.6634   -0.5645 N   0  0  0  0  0  0  0  0  0  0  0  0
    5.2709    1.2898    0.0585 N   0  0  0  0  0  0  0  0  0  0  0  0
    2.3086   -0.2454    1.2450 B   0  0  0  0  0  0  0  0  0  0  0  0
    1.1957   -0.8985    1.8403 F   0  0  0  0  0  0  0  0  0  0  0  0
    2.1429    1.1341    1.3772 F   0  0  0  0  0  0  0  0  0  0  0  0
    3.4965   -0.7052    1.7412 F   0  0  0  0  0  0  0  0  0  0  0  0
    2.2421   -0.5313   -0.1896 F   0  0  0  0  0  0  0  0  0  0  0  0
   -2.7855    1.1817    1.7485 O   0  0  0  0  0  0  0  0  0  0  0  0
   -2.2834    0.3433    2.7998 C   0  0  0  0  0  0  0  0  0  0  0  0
   -3.0282    0.3940    3.5936 H   0  0  0  0  0  0  0  0  0  0  0  0
   -1.3183    0.7065    3.1673 H   0  0  0  0  0  0  0  0  0  0  0  0
   -2.1754   -0.6910    2.4562 H   0  0  0  0  0  0  0  0  0  0  0  0
  1  6  1  0  0  0  0
  1  7  1  0  0  0  0
  2  1  2  0  0  0  0
  3  2  1  0  0  0  0
  4  3  2  0  0  0  0
  4  5  1  0  0  0  0
  5 10  1  0  0  0  0
  5  6  2  0  0  0  0
  6 18  1  0  0  0  0
  8  2  1  0  0  0  0
  9  4  1  0  0  0  0
 11 12  3  0  0  0  0
 13 15  1  0  0  0  0
 13 16  1  0  0  0  0
 13 14  1  0  0  0  0
 17 13  1  0  0  0  0
 18 19  1  0  0  0  0
 19 21  1  0  0  0  0
 19 20  1  0  0  0  0
 22 19  1  0  0  0  0
M  RAD  1   3   2
M  END
