Coordinates from ORCA-job 4-MeO-Ph-N2-BF4-B3LYPG-6-31G_dp-MTMO-d009-169-n800
 OpenBabel09051908083D

 22 20  0  0  0  0  0  0  0  0999 V2000
   -0.4901    0.6479    0.7286 C   0  0  0  0  0  0  0  0  0  0  0  0
    0.6440    0.8538   -0.1203 C   0  0  0  0  0  0  0  0  0  0  0  0
    0.2601    1.7360   -1.0192 C   0  0  0  0  0  0  0  0  0  0  0  0
   -0.7855    2.4996   -1.4121 C   0  0  0  0  0  0  0  0  0  0  0  0
   -1.8515    2.2457   -0.5334 C   0  0  0  0  0  0  0  0  0  0  0  0
   -1.7013    1.3267    0.5320 C   0  0  0  0  0  0  0  0  0  0  0  0
   -0.2882   -0.0635    1.5298 H   0  0  0  0  0  0  0  0  0  0  0  0
    1.5990    0.3123    0.0973 H   0  0  0  0  0  0  0  0  0  0  0  0
   -0.8279    3.1866   -2.2446 H   0  0  0  0  0  0  0  0  0  0  0  0
   -2.7940    2.7636   -0.6758 H   0  0  0  0  0  0  0  0  0  0  0  0
    2.0670    2.1708   -2.4108 N   0  0  0  0  0  0  0  0  0  0  0  0
    3.0357    2.2664   -2.9319 N   0  0  0  0  0  0  0  0  0  0  0  0
    2.2999   -0.5117    2.2171 B   0  0  0  0  0  0  0  0  0  0  0  0
    1.0854   -1.2449    2.2681 F   0  0  0  0  0  0  0  0  0  0  0  0
    2.0248    0.8288    2.5011 F   0  0  0  0  0  0  0  0  0  0  0  0
    3.2581   -1.0555    3.0286 F   0  0  0  0  0  0  0  0  0  0  0  0
    2.7512   -0.5603    0.8285 F   0  0  0  0  0  0  0  0  0  0  0  0
   -2.7842    1.1683    1.3172 O   0  0  0  0  0  0  0  0  0  0  0  0
   -2.6768    0.2841    2.4407 C   0  0  0  0  0  0  0  0  0  0  0  0
   -3.6434    0.3310    2.9416 H   0  0  0  0  0  0  0  0  0  0  0  0
   -1.8853    0.6103    3.1235 H   0  0  0  0  0  0  0  0  0  0  0  0
   -2.4771   -0.7425    2.1154 H   0  0  0  0  0  0  0  0  0  0  0  0
  1  7  1  0  0  0  0
  2  8  1  0  0  0  0
  2  1  2  0  0  0  0
  3  2  1  0  0  0  0
  4  3  2  0  0  0  0
  4  5  1  0  0  0  0
  5  6  2  0  0  0  0
  6  1  1  0  0  0  0
  6 18  1  0  0  0  0
  9  4  1  0  0  0  0
 10  5  1  0  0  0  0
 12 11  3  0  0  0  0
 13 14  1  0  0  0  0
 13 15  1  0  0  0  0
 13 16  1  0  0  0  0
 17 13  1  0  0  0  0
 18 19  1  0  0  0  0
 19 20  1  0  0  0  0
 19 21  1  0  0  0  0
 22 19  1  0  0  0  0
M  RAD  1   3   2
M  END
