Coordinates from ORCA-job 4-MeO-Ph-N2-BF4-B3LYPG-6-31G_dp-MTMO-d009-169-n800
 OpenBabel09051908083D

 22 20  0  0  0  0  0  0  0  0999 V2000
   -0.4910    0.6478    0.7289 C   0  0  0  0  0  0  0  0  0  0  0  0
    0.6437    0.8535   -0.1204 C   0  0  0  0  0  0  0  0  0  0  0  0
    0.2570    1.7354   -1.0173 C   0  0  0  0  0  0  0  0  0  0  0  0
   -0.7873    2.4994   -1.4113 C   0  0  0  0  0  0  0  0  0  0  0  0
   -1.8533    2.2455   -0.5322 C   0  0  0  0  0  0  0  0  0  0  0  0
   -1.7025    1.3264    0.5331 C   0  0  0  0  0  0  0  0  0  0  0  0
   -0.2882   -0.0638    1.5298 H   0  0  0  0  0  0  0  0  0  0  0  0
    1.5988    0.3116    0.0982 H   0  0  0  0  0  0  0  0  0  0  0  0
   -0.8294    3.1860   -2.2441 H   0  0  0  0  0  0  0  0  0  0  0  0
   -2.7958    2.7634   -0.6744 H   0  0  0  0  0  0  0  0  0  0  0  0
    2.0782    2.1750   -2.4223 N   0  0  0  0  0  0  0  0  0  0  0  0
    3.0477    2.2694   -2.9420 N   0  0  0  0  0  0  0  0  0  0  0  0
    2.2974   -0.5117    2.2185 B   0  0  0  0  0  0  0  0  0  0  0  0
    1.0831   -1.2451    2.2687 F   0  0  0  0  0  0  0  0  0  0  0  0
    2.0222    0.8284    2.5038 F   0  0  0  0  0  0  0  0  0  0  0  0
    3.2560   -1.0564    3.0288 F   0  0  0  0  0  0  0  0  0  0  0  0
    2.7485   -0.5587    0.8293 F   0  0  0  0  0  0  0  0  0  0  0  0
   -2.7849    1.1676    1.3189 O   0  0  0  0  0  0  0  0  0  0  0  0
   -2.6764    0.2833    2.4422 C   0  0  0  0  0  0  0  0  0  0  0  0
   -3.6427    0.3299    2.9439 H   0  0  0  0  0  0  0  0  0  0  0  0
   -1.8844    0.6097    3.1245 H   0  0  0  0  0  0  0  0  0  0  0  0
   -2.4767   -0.7432    2.1167 H   0  0  0  0  0  0  0  0  0  0  0  0
  1  7  1  0  0  0  0
  2  8  1  0  0  0  0
  2  1  2  0  0  0  0
  3  2  1  0  0  0  0
  4  3  2  0  0  0  0
  4  5  1  0  0  0  0
  5  6  2  0  0  0  0
  6  1  1  0  0  0  0
  6 18  1  0  0  0  0
  9  4  1  0  0  0  0
 10  5  1  0  0  0  0
 12 11  3  0  0  0  0
 13 14  1  0  0  0  0
 13 15  1  0  0  0  0
 13 16  1  0  0  0  0
 17 13  1  0  0  0  0
 18 19  1  0  0  0  0
 19 20  1  0  0  0  0
 19 21  1  0  0  0  0
 22 19  1  0  0  0  0
M  RAD  1   3   2
M  END
