Coordinates from ORCA-job 4-MeO-Ph-N2-BF4-B3LYPG-6-31G_dp-MTMO-d009-169-n800
 OpenBabel09051908083D

 22 20  0  0  0  0  0  0  0  0999 V2000
   -1.5366    0.9208    0.1711 C   0  0  0  0  0  0  0  0  0  0  0  0
   -0.9529    0.8764   -1.1543 C   0  0  0  0  0  0  0  0  0  0  0  0
   -1.9316    1.3052   -1.8980 C   0  0  0  0  0  0  0  0  0  0  0  0
   -3.1994    1.7568   -1.9622 C   0  0  0  0  0  0  0  0  0  0  0  0
   -3.6824    1.7735   -0.6394 C   0  0  0  0  0  0  0  0  0  0  0  0
   -2.8441    1.3567    0.4225 C   0  0  0  0  0  0  0  0  0  0  0  0
   -0.8160    0.5978    0.9276 H   0  0  0  0  0  0  0  0  0  0  0  0
    0.1274    0.5514   -1.2428 H   0  0  0  0  0  0  0  0  0  0  0  0
   -3.7656    2.0530   -2.8339 H   0  0  0  0  0  0  0  0  0  0  0  0
   -4.6961    2.1073   -0.4452 H   0  0  0  0  0  0  0  0  0  0  0  0
   12.3632   -1.0431    3.8316 N   0  0  0  0  0  0  0  0  0  0  0  0
   12.1327   -1.9835    3.2984 N   0  0  0  0  0  0  0  0  0  0  0  0
    1.7700    0.7062    0.4850 B   0  0  0  0  0  0  0  0  0  0  0  0
    0.9201   -0.0300    1.3539 F   0  0  0  0  0  0  0  0  0  0  0  0
    1.3110    2.0204    0.4185 F   0  0  0  0  0  0  0  0  0  0  0  0
    3.0834    0.5931    0.8396 F   0  0  0  0  0  0  0  0  0  0  0  0
    1.5807    0.1306   -0.8533 F   0  0  0  0  0  0  0  0  0  0  0  0
   -3.3855    1.4162    1.6540 O   0  0  0  0  0  0  0  0  0  0  0  0
   -2.5583    1.0518    2.7691 C   0  0  0  0  0  0  0  0  0  0  0  0
   -3.1741    1.2145    3.6531 H   0  0  0  0  0  0  0  0  0  0  0  0
   -1.6627    1.6797    2.8153 H   0  0  0  0  0  0  0  0  0  0  0  0
   -2.2633   -0.0011    2.7105 H   0  0  0  0  0  0  0  0  0  0  0  0
  1  6  1  0  0  0  0
  1  7  1  0  0  0  0
  2  1  2  0  0  0  0
  3  2  1  0  0  0  0
  4  3  2  0  0  0  0
  4  5  1  0  0  0  0
  5 10  1  0  0  0  0
  5  6  2  0  0  0  0
  6 18  1  0  0  0  0
  8  2  1  0  0  0  0
  9  4  1  0  0  0  0
 12 11  3  0  0  0  0
 13 16  1  0  0  0  0
 13 14  1  0  0  0  0
 15 13  1  0  0  0  0
 17 13  1  0  0  0  0
 18 19  1  0  0  0  0
 19 21  1  0  0  0  0
 19 20  1  0  0  0  0
 22 19  1  0  0  0  0
M  RAD  1   3   2
M  END
