Coordinates from ORCA-job 4-MeO-Ph-N2-BF4-B3LYPG-6-31G_dp-MTMO-d009-169-n800
 OpenBabel09051908083D

 22 20  0  0  0  0  0  0  0  0999 V2000
   -1.4712    0.9072    0.1861 C   0  0  0  0  0  0  0  0  0  0  0  0
   -0.8892    0.8618   -1.1401 C   0  0  0  0  0  0  0  0  0  0  0  0
   -1.8656    1.2994   -1.8817 C   0  0  0  0  0  0  0  0  0  0  0  0
   -3.1304    1.7598   -1.9435 C   0  0  0  0  0  0  0  0  0  0  0  0
   -3.6119    1.7766   -0.6202 C   0  0  0  0  0  0  0  0  0  0  0  0
   -2.7754    1.3515    0.4399 C   0  0  0  0  0  0  0  0  0  0  0  0
   -0.7521    0.5773    0.9410 H   0  0  0  0  0  0  0  0  0  0  0  0
    0.1886    0.5292   -1.2304 H   0  0  0  0  0  0  0  0  0  0  0  0
   -3.6953    2.0621   -2.8139 H   0  0  0  0  0  0  0  0  0  0  0  0
   -4.6231    2.1169   -0.4242 H   0  0  0  0  0  0  0  0  0  0  0  0
   11.6935   -0.8861    3.6797 N   0  0  0  0  0  0  0  0  0  0  0  0
   11.4676   -1.8267    3.1452 N   0  0  0  0  0  0  0  0  0  0  0  0
    1.8338    0.6671    0.4962 B   0  0  0  0  0  0  0  0  0  0  0  0
    0.9793   -0.0648    1.3641 F   0  0  0  0  0  0  0  0  0  0  0  0
    1.3845    1.9849    0.4335 F   0  0  0  0  0  0  0  0  0  0  0  0
    3.1467    0.5434    0.8492 F   0  0  0  0  0  0  0  0  0  0  0  0
    1.6392    0.0963   -0.8433 F   0  0  0  0  0  0  0  0  0  0  0  0
   -3.3152    1.4116    1.6721 O   0  0  0  0  0  0  0  0  0  0  0  0
   -2.4895    1.0386    2.7853 C   0  0  0  0  0  0  0  0  0  0  0  0
   -3.1033    1.2030    3.6703 H   0  0  0  0  0  0  0  0  0  0  0  0
   -1.5897    1.6604    2.8324 H   0  0  0  0  0  0  0  0  0  0  0  0
   -2.2015   -0.0161    2.7236 H   0  0  0  0  0  0  0  0  0  0  0  0
  1  6  1  0  0  0  0
  1  7  1  0  0  0  0
  2  1  2  0  0  0  0
  3  2  1  0  0  0  0
  4  3  2  0  0  0  0
  4  5  1  0  0  0  0
  5 10  1  0  0  0  0
  5  6  2  0  0  0  0
  6 18  1  0  0  0  0
  8  2  1  0  0  0  0
  9  4  1  0  0  0  0
 12 11  3  0  0  0  0
 13 16  1  0  0  0  0
 13 14  1  0  0  0  0
 15 13  1  0  0  0  0
 17 13  1  0  0  0  0
 18 19  1  0  0  0  0
 19 21  1  0  0  0  0
 19 20  1  0  0  0  0
 22 19  1  0  0  0  0
M  RAD  1   3   2
M  END
