Coordinates from ORCA-job 4-MeO-Ph-N2-BF4-B3LYPG-6-31G_dp-MTMO-d009-169-n800
 OpenBabel09051908083D

 22 20  0  0  0  0  0  0  0  0999 V2000
   -1.1480    0.8432    0.2630 C   0  0  0  0  0  0  0  0  0  0  0  0
   -0.5617    0.7959   -1.0612 C   0  0  0  0  0  0  0  0  0  0  0  0
   -1.5314    1.2452   -1.8047 C   0  0  0  0  0  0  0  0  0  0  0  0
   -2.7913    1.7186   -1.8693 C   0  0  0  0  0  0  0  0  0  0  0  0
   -3.2772    1.7361   -0.5476 C   0  0  0  0  0  0  0  0  0  0  0  0
   -2.4486    1.2994    0.5139 C   0  0  0  0  0  0  0  0  0  0  0  0
   -0.4347    0.5036    1.0193 H   0  0  0  0  0  0  0  0  0  0  0  0
    0.5124    0.4522   -1.1484 H   0  0  0  0  0  0  0  0  0  0  0  0
   -3.3500    2.0294   -2.7406 H   0  0  0  0  0  0  0  0  0  0  0  0
   -4.2857    2.0858   -0.3540 H   0  0  0  0  0  0  0  0  0  0  0  0
    8.4396   -0.2051    2.8824 N   0  0  0  0  0  0  0  0  0  0  0  0
    8.2390   -1.1569    2.3577 N   0  0  0  0  0  0  0  0  0  0  0  0
    2.1522    0.5650    0.5878 B   0  0  0  0  0  0  0  0  0  0  0  0
    1.2853   -0.1588    1.4504 F   0  0  0  0  0  0  0  0  0  0  0  0
    1.7185    1.8881    0.5263 F   0  0  0  0  0  0  0  0  0  0  0  0
    3.4618    0.4253    0.9476 F   0  0  0  0  0  0  0  0  0  0  0  0
    1.9575   -0.0002   -0.7535 F   0  0  0  0  0  0  0  0  0  0  0  0
   -2.9918    1.3608    1.7445 O   0  0  0  0  0  0  0  0  0  0  0  0
   -2.1735    0.9758    2.8592 C   0  0  0  0  0  0  0  0  0  0  0  0
   -2.7887    1.1431    3.7427 H   0  0  0  0  0  0  0  0  0  0  0  0
   -1.2679    1.5885    2.9114 H   0  0  0  0  0  0  0  0  0  0  0  0
   -1.8957   -0.0815    2.7945 H   0  0  0  0  0  0  0  0  0  0  0  0
  1  6  1  0  0  0  0
  1  7  1  0  0  0  0
  2  1  2  0  0  0  0
  3  2  1  0  0  0  0
  4  3  2  0  0  0  0
  4  5  1  0  0  0  0
  5 10  1  0  0  0  0
  5  6  2  0  0  0  0
  6 18  1  0  0  0  0
  8  2  1  0  0  0  0
  9  4  1  0  0  0  0
 12 11  3  0  0  0  0
 13 16  1  0  0  0  0
 13 14  1  0  0  0  0
 15 13  1  0  0  0  0
 17 13  1  0  0  0  0
 18 19  1  0  0  0  0
 19 21  1  0  0  0  0
 19 20  1  0  0  0  0
 22 19  1  0  0  0  0
M  RAD  1   3   2
M  END
