Coordinates from ORCA-job 4-MeO-Ph-N2-BF4-B3LYPG-6-31G_dp-MTMO-d009-169-n800
 OpenBabel09051908083D

 22 20  0  0  0  0  0  0  0  0999 V2000
   -1.1337    0.8407    0.2663 C   0  0  0  0  0  0  0  0  0  0  0  0
   -0.5472    0.7936   -1.0578 C   0  0  0  0  0  0  0  0  0  0  0  0
   -1.5171    1.2423   -1.8015 C   0  0  0  0  0  0  0  0  0  0  0  0
   -2.7771    1.7151   -1.8662 C   0  0  0  0  0  0  0  0  0  0  0  0
   -3.2632    1.7326   -0.5446 C   0  0  0  0  0  0  0  0  0  0  0  0
   -2.4345    1.2964    0.5170 C   0  0  0  0  0  0  0  0  0  0  0  0
   -0.4203    0.5015    1.0227 H   0  0  0  0  0  0  0  0  0  0  0  0
    0.5271    0.4503   -1.1448 H   0  0  0  0  0  0  0  0  0  0  0  0
   -3.3359    2.0254   -2.7377 H   0  0  0  0  0  0  0  0  0  0  0  0
   -4.2719    2.0818   -0.3512 H   0  0  0  0  0  0  0  0  0  0  0  0
    8.2967   -0.1815    2.8483 N   0  0  0  0  0  0  0  0  0  0  0  0
    8.0973   -1.1331    2.3227 N   0  0  0  0  0  0  0  0  0  0  0  0
    2.1665    0.5640    0.5920 B   0  0  0  0  0  0  0  0  0  0  0  0
    1.2997   -0.1599    1.4546 F   0  0  0  0  0  0  0  0  0  0  0  0
    1.7325    1.8870    0.5302 F   0  0  0  0  0  0  0  0  0  0  0  0
    3.4761    0.4249    0.9523 F   0  0  0  0  0  0  0  0  0  0  0  0
    1.9724   -0.0015   -0.7492 F   0  0  0  0  0  0  0  0  0  0  0  0
   -2.9778    1.3577    1.7476 O   0  0  0  0  0  0  0  0  0  0  0  0
   -2.1594    0.9732    2.8624 C   0  0  0  0  0  0  0  0  0  0  0  0
   -2.7748    1.1404    3.7459 H   0  0  0  0  0  0  0  0  0  0  0  0
   -1.2541    1.5863    2.9146 H   0  0  0  0  0  0  0  0  0  0  0  0
   -1.8812   -0.0839    2.7979 H   0  0  0  0  0  0  0  0  0  0  0  0
  1  6  1  0  0  0  0
  1  7  1  0  0  0  0
  2  1  2  0  0  0  0
  3  2  1  0  0  0  0
  4  3  2  0  0  0  0
  4  5  1  0  0  0  0
  5 10  1  0  0  0  0
  5  6  2  0  0  0  0
  6 18  1  0  0  0  0
  8  2  1  0  0  0  0
  9  4  1  0  0  0  0
 12 11  3  0  0  0  0
 13 16  1  0  0  0  0
 13 14  1  0  0  0  0
 15 13  1  0  0  0  0
 17 13  1  0  0  0  0
 18 19  1  0  0  0  0
 19 21  1  0  0  0  0
 19 20  1  0  0  0  0
 22 19  1  0  0  0  0
M  RAD  1   3   2
M  END
