Coordinates from ORCA-job 4-MeO-Ph-N2-BF4-B3LYPG-6-31G_dp-MTMO-d009-169-n800
 OpenBabel09051908083D

 22 20  0  0  0  0  0  0  0  0999 V2000
   -0.5529    0.6356    0.7701 C   0  0  0  0  0  0  0  0  0  0  0  0
    0.5887    0.8406   -0.0959 C   0  0  0  0  0  0  0  0  0  0  0  0
    0.1379    1.7120   -0.9522 C   0  0  0  0  0  0  0  0  0  0  0  0
   -0.8944    2.4774   -1.3562 C   0  0  0  0  0  0  0  0  0  0  0  0
   -1.9512    2.2226   -0.4615 C   0  0  0  0  0  0  0  0  0  0  0  0
   -1.7733    1.3028    0.5998 C   0  0  0  0  0  0  0  0  0  0  0  0
   -0.3221   -0.0779    1.5647 H   0  0  0  0  0  0  0  0  0  0  0  0
    1.5491    0.2910    0.1441 H   0  0  0  0  0  0  0  0  0  0  0  0
   -0.9392    3.1566   -2.1958 H   0  0  0  0  0  0  0  0  0  0  0  0
   -2.8981    2.7355   -0.5935 H   0  0  0  0  0  0  0  0  0  0  0  0
    2.7521    2.3858   -3.0241 N   0  0  0  0  0  0  0  0  0  0  0  0
    3.7232    2.5000   -3.5385 N   0  0  0  0  0  0  0  0  0  0  0  0
    2.2072   -0.5214    2.2711 B   0  0  0  0  0  0  0  0  0  0  0  0
    0.9926   -1.2542    2.3193 F   0  0  0  0  0  0  0  0  0  0  0  0
    1.9390    0.8122    2.5753 F   0  0  0  0  0  0  0  0  0  0  0  0
    3.1766   -1.0844    3.0507 F   0  0  0  0  0  0  0  0  0  0  0  0
    2.6413   -0.5484    0.8669 F   0  0  0  0  0  0  0  0  0  0  0  0
   -2.8373    1.1307    1.4076 O   0  0  0  0  0  0  0  0  0  0  0  0
   -2.6931    0.2475    2.5282 C   0  0  0  0  0  0  0  0  0  0  0  0
   -3.6473    0.2845    3.0530 H   0  0  0  0  0  0  0  0  0  0  0  0
   -1.8879    0.5820    3.1908 H   0  0  0  0  0  0  0  0  0  0  0  0
   -2.4911   -0.7769    2.1973 H   0  0  0  0  0  0  0  0  0  0  0  0
  1  7  1  0  0  0  0
  2  8  1  0  0  0  0
  2  1  2  0  0  0  0
  3  2  1  0  0  0  0
  4  3  2  0  0  0  0
  4  5  1  0  0  0  0
  5  6  2  0  0  0  0
  6  1  1  0  0  0  0
  6 18  1  0  0  0  0
  9  4  1  0  0  0  0
 10  5  1  0  0  0  0
 12 11  3  0  0  0  0
 13 14  1  0  0  0  0
 13 15  1  0  0  0  0
 13 16  1  0  0  0  0
 17 13  1  0  0  0  0
 18 19  1  0  0  0  0
 19 20  1  0  0  0  0
 19 21  1  0  0  0  0
 22 19  1  0  0  0  0
M  RAD  1   3   2
M  END
