Coordinates from ORCA-job 4-MeO-Ph-N2-BF4-B3LYPG-6-31G_dp-MTMO-d009-169-n800
 OpenBabel09051908083D

 22 20  0  0  0  0  0  0  0  0999 V2000
   -1.1999    0.8520    0.2511 C   0  0  0  0  0  0  0  0  0  0  0  0
   -0.6140    0.8043   -1.0733 C   0  0  0  0  0  0  0  0  0  0  0  0
   -1.5829    1.2558   -1.8164 C   0  0  0  0  0  0  0  0  0  0  0  0
   -2.8420    1.7313   -1.8806 C   0  0  0  0  0  0  0  0  0  0  0  0
   -3.3277    1.7490   -0.5588 C   0  0  0  0  0  0  0  0  0  0  0  0
   -2.4997    1.3104    0.5024 C   0  0  0  0  0  0  0  0  0  0  0  0
   -0.4871    0.5110    1.0071 H   0  0  0  0  0  0  0  0  0  0  0  0
    0.4596    0.4587   -1.1610 H   0  0  0  0  0  0  0  0  0  0  0  0
   -3.4004    2.0434   -2.7517 H   0  0  0  0  0  0  0  0  0  0  0  0
   -4.3355    2.1003   -0.3649 H   0  0  0  0  0  0  0  0  0  0  0  0
    8.9576   -0.2907    3.0047 N   0  0  0  0  0  0  0  0  0  0  0  0
    8.7518   -1.2425    2.4820 N   0  0  0  0  0  0  0  0  0  0  0  0
    2.1001    0.5683    0.5736 B   0  0  0  0  0  0  0  0  0  0  0  0
    1.2327   -0.1547    1.4362 F   0  0  0  0  0  0  0  0  0  0  0  0
    1.6683    1.8922    0.5131 F   0  0  0  0  0  0  0  0  0  0  0  0
    3.4097    0.4266    0.9322 F   0  0  0  0  0  0  0  0  0  0  0  0
    1.9038    0.0041   -0.7680 F   0  0  0  0  0  0  0  0  0  0  0  0
   -3.0427    1.3721    1.7331 O   0  0  0  0  0  0  0  0  0  0  0  0
   -2.2249    0.9851    2.8475 C   0  0  0  0  0  0  0  0  0  0  0  0
   -2.8397    1.1530    3.7312 H   0  0  0  0  0  0  0  0  0  0  0  0
   -1.3183    1.5964    2.8999 H   0  0  0  0  0  0  0  0  0  0  0  0
   -1.9488   -0.0725    2.7822 H   0  0  0  0  0  0  0  0  0  0  0  0
  1  6  1  0  0  0  0
  1  7  1  0  0  0  0
  2  1  2  0  0  0  0
  3  2  1  0  0  0  0
  4  3  2  0  0  0  0
  4  5  1  0  0  0  0
  5 10  1  0  0  0  0
  5  6  2  0  0  0  0
  6 18  1  0  0  0  0
  8  2  1  0  0  0  0
  9  4  1  0  0  0  0
 12 11  3  0  0  0  0
 13 16  1  0  0  0  0
 13 14  1  0  0  0  0
 15 13  1  0  0  0  0
 17 13  1  0  0  0  0
 18 19  1  0  0  0  0
 19 21  1  0  0  0  0
 19 20  1  0  0  0  0
 22 19  1  0  0  0  0
M  RAD  1   3   2
M  END
