Coordinates from ORCA-job 4-MeO-Ph-N2-BF4-B3LYPG-6-31G_dp-MTMO-d009-169-n800
 OpenBabel09051908083D

 22 21  0  0  0  0  0  0  0  0999 V2000
   -0.3245    0.5219    0.4330 C   0  0  0  0  0  0  0  0  0  0  0  0
    0.7129    0.8122   -0.4584 C   0  0  0  0  0  0  0  0  0  0  0  0
    0.3580    1.7873   -1.3398 C   0  0  0  0  0  0  0  0  0  0  0  0
   -0.7616    2.5758   -1.4832 C   0  0  0  0  0  0  0  0  0  0  0  0
   -1.7445    2.2686   -0.5462 C   0  0  0  0  0  0  0  0  0  0  0  0
   -1.5171    1.2681    0.4309 C   0  0  0  0  0  0  0  0  0  0  0  0
   -0.1279   -0.2754    1.1488 H   0  0  0  0  0  0  0  0  0  0  0  0
    1.6663    0.3056   -0.3280 H   0  0  0  0  0  0  0  0  0  0  0  0
   -0.8821    3.3444   -2.2344 H   0  0  0  0  0  0  0  0  0  0  0  0
   -2.6828    2.8120   -0.5437 H   0  0  0  0  0  0  0  0  0  0  0  0
    1.7185    2.2616   -2.4537 N   0  0  0  0  0  0  0  0  0  0  0  0
    2.5790    2.4650   -3.1188 N   0  0  0  0  0  0  0  0  0  0  0  0
    1.7956   -0.5271    2.5688 B   0  0  0  0  0  0  0  0  0  0  0  0
    0.7257   -1.4436    2.3261 F   0  0  0  0  0  0  0  0  0  0  0  0
    1.2091    0.7108    2.9118 F   0  0  0  0  0  0  0  0  0  0  0  0
    2.6320   -0.9927    3.5535 F   0  0  0  0  0  0  0  0  0  0  0  0
    2.5045   -0.3699    1.3364 F   0  0  0  0  0  0  0  0  0  0  0  0
   -2.4787    1.1017    1.3431 O   0  0  0  0  0  0  0  0  0  0  0  0
   -2.1830    0.2587    2.4834 C   0  0  0  0  0  0  0  0  0  0  0  0
   -2.9986    0.4360    3.1837 H   0  0  0  0  0  0  0  0  0  0  0  0
   -1.2173    0.5268    2.9212 H   0  0  0  0  0  0  0  0  0  0  0  0
   -2.1636   -0.7941    2.1868 H   0  0  0  0  0  0  0  0  0  0  0  0
  1  7  1  0  0  0  0
  2  8  1  0  0  0  0
  2  1  2  0  0  0  0
  3  2  1  0  0  0  0
  4  3  2  0  0  0  0
  4  5  1  0  0  0  0
  5 10  1  0  0  0  0
  5  6  2  0  0  0  0
  6  1  1  0  0  0  0
  6 18  1  0  0  0  0
  9  4  1  0  0  0  0
 11  3  1  0  0  0  0
 12 11  1  0  0  0  0
 13 15  1  0  0  0  0
 13 16  1  0  0  0  0
 14 13  1  0  0  0  0
 17 13  1  0  0  0  0
 18 19  1  0  0  0  0
 19 21  1  0  0  0  0
 19 20  1  0  0  0  0
 22 19  1  0  0  0  0
M  RAD  2  11   2  12   3
M  END
