Coordinates from ORCA-job 4-MeO-Ph-N2-BF4-B3LYPG-6-31G_dp-MTMO-d009-169-n800
 OpenBabel09051908083D

 22 20  0  0  0  0  0  0  0  0999 V2000
   -0.8322    0.6930    0.4134 C   0  0  0  0  0  0  0  0  0  0  0  0
   -0.1157    0.7836   -0.8422 C   0  0  0  0  0  0  0  0  0  0  0  0
   -0.8891    1.5639   -1.5413 C   0  0  0  0  0  0  0  0  0  0  0  0
   -2.0133    2.3045   -1.5910 C   0  0  0  0  0  0  0  0  0  0  0  0
   -2.6374    2.1647   -0.3363 C   0  0  0  0  0  0  0  0  0  0  0  0
   -2.0390    1.3598    0.6627 C   0  0  0  0  0  0  0  0  0  0  0  0
   -0.2960    0.0599    1.1263 H   0  0  0  0  0  0  0  0  0  0  0  0
    0.8644    0.2312   -0.9266 H   0  0  0  0  0  0  0  0  0  0  0  0
   -2.3945    2.8951   -2.4121 H   0  0  0  0  0  0  0  0  0  0  0  0
   -3.5744    2.6772   -0.1463 H   0  0  0  0  0  0  0  0  0  0  0  0
    4.8119    2.0789    0.4061 N   0  0  0  0  0  0  0  0  0  0  0  0
    5.4491    1.3362    0.9195 N   0  0  0  0  0  0  0  0  0  0  0  0
    2.2738   -0.3907    0.9072 B   0  0  0  0  0  0  0  0  0  0  0  0
    1.1921   -1.0385    1.5595 F   0  0  0  0  0  0  0  0  0  0  0  0
    2.1373    0.9885    1.0795 F   0  0  0  0  0  0  0  0  0  0  0  0
    3.4849   -0.8740    1.3179 F   0  0  0  0  0  0  0  0  0  0  0  0
    2.1087   -0.6483   -0.5253 F   0  0  0  0  0  0  0  0  0  0  0  0
   -2.6992    1.2921    1.8340 O   0  0  0  0  0  0  0  0  0  0  0  0
   -2.1033    0.5330    2.8967 C   0  0  0  0  0  0  0  0  0  0  0  0
   -2.7746    0.6465    3.7473 H   0  0  0  0  0  0  0  0  0  0  0  0
   -1.1113    0.9220    3.1475 H   0  0  0  0  0  0  0  0  0  0  0  0
   -2.0222   -0.5249    2.6250 H   0  0  0  0  0  0  0  0  0  0  0  0
  1  6  1  0  0  0  0
  1  7  1  0  0  0  0
  2  1  2  0  0  0  0
  3  2  1  0  0  0  0
  4  3  2  0  0  0  0
  4  5  1  0  0  0  0
  5 10  1  0  0  0  0
  5  6  2  0  0  0  0
  6 18  1  0  0  0  0
  8  2  1  0  0  0  0
  9  4  1  0  0  0  0
 11 12  3  0  0  0  0
 13 15  1  0  0  0  0
 13 16  1  0  0  0  0
 13 14  1  0  0  0  0
 17 13  1  0  0  0  0
 18 19  1  0  0  0  0
 19 21  1  0  0  0  0
 19 20  1  0  0  0  0
 22 19  1  0  0  0  0
M  RAD  1   3   2
M  END
