Coordinates from ORCA-job 4-MeO-Ph-N2-BF4-B3LYPG-6-31G_dp-MTMO-d009-169-n800
 OpenBabel09051908083D

 22 20  0  0  0  0  0  0  0  0999 V2000
   -0.7835    0.7173    0.4747 C   0  0  0  0  0  0  0  0  0  0  0  0
    0.0401    0.8959   -0.7037 C   0  0  0  0  0  0  0  0  0  0  0  0
   -0.6876    1.7038   -1.4207 C   0  0  0  0  0  0  0  0  0  0  0  0
   -1.8278    2.4125   -1.5330 C   0  0  0  0  0  0  0  0  0  0  0  0
   -2.5580    2.1850   -0.3506 C   0  0  0  0  0  0  0  0  0  0  0  0
   -2.0277    1.3363    0.6507 C   0  0  0  0  0  0  0  0  0  0  0  0
   -0.2856    0.0713    1.2054 H   0  0  0  0  0  0  0  0  0  0  0  0
    1.0395    0.3774   -0.7203 H   0  0  0  0  0  0  0  0  0  0  0  0
   -2.1525    3.0373   -2.3533 H   0  0  0  0  0  0  0  0  0  0  0  0
   -3.5228    2.6628   -0.2182 H   0  0  0  0  0  0  0  0  0  0  0  0
    4.4832    1.6594   -0.5399 N   0  0  0  0  0  0  0  0  0  0  0  0
    5.2976    1.2687    0.0965 N   0  0  0  0  0  0  0  0  0  0  0  0
    2.3079   -0.2411    1.2323 B   0  0  0  0  0  0  0  0  0  0  0  0
    1.1995   -0.8981    1.8308 F   0  0  0  0  0  0  0  0  0  0  0  0
    2.1378    1.1379    1.3654 F   0  0  0  0  0  0  0  0  0  0  0  0
    3.4994   -0.6961    1.7247 F   0  0  0  0  0  0  0  0  0  0  0  0
    2.2383   -0.5267   -0.2022 F   0  0  0  0  0  0  0  0  0  0  0  0
   -2.7867    1.1820    1.7517 O   0  0  0  0  0  0  0  0  0  0  0  0
   -2.2806    0.3465    2.8032 C   0  0  0  0  0  0  0  0  0  0  0  0
   -3.0239    0.3969    3.5985 H   0  0  0  0  0  0  0  0  0  0  0  0
   -1.3156    0.7126    3.1682 H   0  0  0  0  0  0  0  0  0  0  0  0
   -2.1710   -0.6882    2.4612 H   0  0  0  0  0  0  0  0  0  0  0  0
  1  6  1  0  0  0  0
  1  7  1  0  0  0  0
  2  1  2  0  0  0  0
  3  2  1  0  0  0  0
  4  3  2  0  0  0  0
  4  5  1  0  0  0  0
  5 10  1  0  0  0  0
  5  6  2  0  0  0  0
  6 18  1  0  0  0  0
  8  2  1  0  0  0  0
  9  4  1  0  0  0  0
 11 12  3  0  0  0  0
 13 15  1  0  0  0  0
 13 16  1  0  0  0  0
 13 14  1  0  0  0  0
 17 13  1  0  0  0  0
 18 19  1  0  0  0  0
 19 21  1  0  0  0  0
 19 20  1  0  0  0  0
 22 19  1  0  0  0  0
M  RAD  1   3   2
M  END
