Coordinates from ORCA-job 4-MeO-Ph-N2-BF4-B3LYPG-6-31G_dp-MTMO-d009-169-n800
 OpenBabel09051908083D

 22 20  0  0  0  0  0  0  0  0999 V2000
   -0.9791    0.8305    0.2768 C   0  0  0  0  0  0  0  0  0  0  0  0
   -0.4208    0.7933   -1.0596 C   0  0  0  0  0  0  0  0  0  0  0  0
   -1.4238    1.2022   -1.7838 C   0  0  0  0  0  0  0  0  0  0  0  0
   -2.6969    1.6411   -1.8203 C   0  0  0  0  0  0  0  0  0  0  0  0
   -3.1527    1.6535   -0.4877 C   0  0  0  0  0  0  0  0  0  0  0  0
   -2.2863    1.2499    0.5564 C   0  0  0  0  0  0  0  0  0  0  0  0
   -0.2411    0.5083    1.0177 H   0  0  0  0  0  0  0  0  0  0  0  0
    0.6584    0.4770   -1.1653 H   0  0  0  0  0  0  0  0  0  0  0  0
   -3.2843    1.9310   -2.6800 H   0  0  0  0  0  0  0  0  0  0  0  0
   -4.1665    1.9744   -0.2730 H   0  0  0  0  0  0  0  0  0  0  0  0
    6.9734   -0.2445    2.7903 N   0  0  0  0  0  0  0  0  0  0  0  0
    6.3514   -0.7388    2.0216 N   0  0  0  0  0  0  0  0  0  0  0  0
    2.3289    0.6023    0.5713 B   0  0  0  0  0  0  0  0  0  0  0  0
    1.4791   -0.1408    1.4359 F   0  0  0  0  0  0  0  0  0  0  0  0
    1.8791    1.9208    0.5311 F   0  0  0  0  0  0  0  0  0  0  0  0
    3.6447    0.4751    0.9203 F   0  0  0  0  0  0  0  0  0  0  0  0
    2.1274    0.0507   -0.7721 F   0  0  0  0  0  0  0  0  0  0  0  0
   -2.8006    1.3033    1.7994 O   0  0  0  0  0  0  0  0  0  0  0  0
   -1.9423    0.9539    2.8960 C   0  0  0  0  0  0  0  0  0  0  0  0
   -2.5402    1.1089    3.7935 H   0  0  0  0  0  0  0  0  0  0  0  0
   -1.0556    1.5956    2.9204 H   0  0  0  0  0  0  0  0  0  0  0  0
   -1.6323   -0.0943    2.8323 H   0  0  0  0  0  0  0  0  0  0  0  0
  1  6  1  0  0  0  0
  1  7  1  0  0  0  0
  2  1  2  0  0  0  0
  3  2  1  0  0  0  0
  4  3  2  0  0  0  0
  4  5  1  0  0  0  0
  5 10  1  0  0  0  0
  5  6  2  0  0  0  0
  6 18  1  0  0  0  0
  8  2  1  0  0  0  0
  9  4  1  0  0  0  0
 12 11  3  0  0  0  0
 13 16  1  0  0  0  0
 13 14  1  0  0  0  0
 15 13  1  0  0  0  0
 17 13  1  0  0  0  0
 18 19  1  0  0  0  0
 19 21  1  0  0  0  0
 19 20  1  0  0  0  0
 22 19  1  0  0  0  0
M  RAD  1   3   2
M  END
