Coordinates from ORCA-job 4-MeO-Ph-N2-BF4-B3LYPG-6-31G_dp-MTMO-d009-169-n800
 OpenBabel09051908083D

 22 20  0  0  0  0  0  0  0  0999 V2000
   -1.2935    0.8748    0.2286 C   0  0  0  0  0  0  0  0  0  0  0  0
   -0.7089    0.8310   -1.0964 C   0  0  0  0  0  0  0  0  0  0  0  0
   -1.6872    1.2598   -1.8406 C   0  0  0  0  0  0  0  0  0  0  0  0
   -2.9550    1.7111   -1.9055 C   0  0  0  0  0  0  0  0  0  0  0  0
   -3.4390    1.7272   -0.5831 C   0  0  0  0  0  0  0  0  0  0  0  0
   -2.6013    1.3103    0.4792 C   0  0  0  0  0  0  0  0  0  0  0  0
   -0.5734    0.5515    0.9854 H   0  0  0  0  0  0  0  0  0  0  0  0
    0.3715    0.5062   -1.1841 H   0  0  0  0  0  0  0  0  0  0  0  0
   -3.5206    2.0075   -2.7775 H   0  0  0  0  0  0  0  0  0  0  0  0
   -4.4529    2.0607   -0.3896 H   0  0  0  0  0  0  0  0  0  0  0  0
    9.9289   -0.5780    3.2495 N   0  0  0  0  0  0  0  0  0  0  0  0
    9.7107   -1.5226    2.7187 N   0  0  0  0  0  0  0  0  0  0  0  0
    2.0124    0.6600    0.5464 B   0  0  0  0  0  0  0  0  0  0  0  0
    1.1613   -0.0761    1.4143 F   0  0  0  0  0  0  0  0  0  0  0  0
    1.5538    1.9743    0.4795 F   0  0  0  0  0  0  0  0  0  0  0  0
    3.3253    0.5467    0.9030 F   0  0  0  0  0  0  0  0  0  0  0  0
    1.8248    0.0847   -0.7920 F   0  0  0  0  0  0  0  0  0  0  0  0
   -3.1435    1.3691    1.7104 O   0  0  0  0  0  0  0  0  0  0  0  0
   -2.3170    1.0044    2.8258 C   0  0  0  0  0  0  0  0  0  0  0  0
   -2.9333    1.1668    3.7095 H   0  0  0  0  0  0  0  0  0  0  0  0
   -1.4215    1.6324    2.8728 H   0  0  0  0  0  0  0  0  0  0  0  0
   -2.0218   -0.0484    2.7670 H   0  0  0  0  0  0  0  0  0  0  0  0
  1  6  1  0  0  0  0
  1  7  1  0  0  0  0
  2  1  2  0  0  0  0
  3  2  1  0  0  0  0
  4  3  2  0  0  0  0
  4  5  1  0  0  0  0
  5 10  1  0  0  0  0
  5  6  2  0  0  0  0
  6 18  1  0  0  0  0
  8  2  1  0  0  0  0
  9  4  1  0  0  0  0
 12 11  3  0  0  0  0
 13 16  1  0  0  0  0
 13 14  1  0  0  0  0
 15 13  1  0  0  0  0
 17 13  1  0  0  0  0
 18 19  1  0  0  0  0
 19 21  1  0  0  0  0
 19 20  1  0  0  0  0
 22 19  1  0  0  0  0
M  RAD  1   3   2
M  END
