Coordinates from ORCA-job 4-MeO-Ph-N2-BF4-B3LYPG-6-31G_dp-MTMO-d009-169-n800
 OpenBabel09051908083D

 22 20  0  0  0  0  0  0  0  0999 V2000
   -1.5312    0.9199    0.1724 C   0  0  0  0  0  0  0  0  0  0  0  0
   -0.9476    0.8755   -1.1530 C   0  0  0  0  0  0  0  0  0  0  0  0
   -1.9264    1.3040   -1.8967 C   0  0  0  0  0  0  0  0  0  0  0  0
   -3.1943    1.7551   -1.9610 C   0  0  0  0  0  0  0  0  0  0  0  0
   -3.6773    1.7718   -0.6382 C   0  0  0  0  0  0  0  0  0  0  0  0
   -2.8389    1.3554    0.4238 C   0  0  0  0  0  0  0  0  0  0  0  0
   -0.8106    0.5971    0.9289 H   0  0  0  0  0  0  0  0  0  0  0  0
    0.1329    0.5508   -1.2414 H   0  0  0  0  0  0  0  0  0  0  0  0
   -3.7605    2.0511   -2.8327 H   0  0  0  0  0  0  0  0  0  0  0  0
   -4.6911    2.1053   -0.4441 H   0  0  0  0  0  0  0  0  0  0  0  0
   12.3102   -1.0340    3.8190 N   0  0  0  0  0  0  0  0  0  0  0  0
   12.0798   -1.9744    3.2859 N   0  0  0  0  0  0  0  0  0  0  0  0
    1.7754    0.7062    0.4863 B   0  0  0  0  0  0  0  0  0  0  0  0
    0.9257   -0.0301    1.3552 F   0  0  0  0  0  0  0  0  0  0  0  0
    1.3160    2.0203    0.4197 F   0  0  0  0  0  0  0  0  0  0  0  0
    3.0888    0.5936    0.8409 F   0  0  0  0  0  0  0  0  0  0  0  0
    1.5863    0.1305   -0.8519 F   0  0  0  0  0  0  0  0  0  0  0  0
   -3.3803    1.4148    1.6553 O   0  0  0  0  0  0  0  0  0  0  0  0
   -2.5530    1.0507    2.7703 C   0  0  0  0  0  0  0  0  0  0  0  0
   -3.1688    1.2133    3.6543 H   0  0  0  0  0  0  0  0  0  0  0  0
   -1.6576    1.6789    2.8165 H   0  0  0  0  0  0  0  0  0  0  0  0
   -2.2577   -0.0021    2.7118 H   0  0  0  0  0  0  0  0  0  0  0  0
  1  6  1  0  0  0  0
  1  7  1  0  0  0  0
  2  1  2  0  0  0  0
  3  2  1  0  0  0  0
  4  3  2  0  0  0  0
  4  5  1  0  0  0  0
  5 10  1  0  0  0  0
  5  6  2  0  0  0  0
  6 18  1  0  0  0  0
  8  2  1  0  0  0  0
  9  4  1  0  0  0  0
 12 11  3  0  0  0  0
 13 16  1  0  0  0  0
 13 14  1  0  0  0  0
 15 13  1  0  0  0  0
 17 13  1  0  0  0  0
 18 19  1  0  0  0  0
 19 21  1  0  0  0  0
 19 20  1  0  0  0  0
 22 19  1  0  0  0  0
M  RAD  1   3   2
M  END
