Coordinates from ORCA-job 4-MeO-Ph-N2-BF4-B3LYPG-6-31G_dp-MTMO-d009-169-n800
 OpenBabel09051908083D

 22 20  0  0  0  0  0  0  0  0999 V2000
   -1.5490    0.9231    0.1682 C   0  0  0  0  0  0  0  0  0  0  0  0
   -0.9655    0.8785   -1.1573 C   0  0  0  0  0  0  0  0  0  0  0  0
   -1.9439    1.3081   -1.9009 C   0  0  0  0  0  0  0  0  0  0  0  0
   -3.2114    1.7603   -1.9650 C   0  0  0  0  0  0  0  0  0  0  0  0
   -3.6943    1.7771   -0.6421 C   0  0  0  0  0  0  0  0  0  0  0  0
   -2.8563    1.3598    0.4197 C   0  0  0  0  0  0  0  0  0  0  0  0
   -0.8286    0.5995    0.9246 H   0  0  0  0  0  0  0  0  0  0  0  0
    0.1147    0.5529   -1.2458 H   0  0  0  0  0  0  0  0  0  0  0  0
   -3.7774    2.0570   -2.8366 H   0  0  0  0  0  0  0  0  0  0  0  0
   -4.7078    2.1115   -0.4479 H   0  0  0  0  0  0  0  0  0  0  0  0
   12.4866   -1.0649    3.8612 N   0  0  0  0  0  0  0  0  0  0  0  0
   12.2559   -2.0049    3.3275 N   0  0  0  0  0  0  0  0  0  0  0  0
    1.7574    0.7064    0.4819 B   0  0  0  0  0  0  0  0  0  0  0  0
    0.9071   -0.0293    1.3507 F   0  0  0  0  0  0  0  0  0  0  0  0
    1.2992    2.0209    0.4156 F   0  0  0  0  0  0  0  0  0  0  0  0
    3.0708    0.5925    0.8364 F   0  0  0  0  0  0  0  0  0  0  0  0
    1.5677    0.1311   -0.8564 F   0  0  0  0  0  0  0  0  0  0  0  0
   -3.3976    1.4193    1.6512 O   0  0  0  0  0  0  0  0  0  0  0  0
   -2.5706    1.0543    2.7662 C   0  0  0  0  0  0  0  0  0  0  0  0
   -3.1863    1.2172    3.6502 H   0  0  0  0  0  0  0  0  0  0  0  0
   -1.6747    1.6817    2.8125 H   0  0  0  0  0  0  0  0  0  0  0  0
   -2.2762    0.0012    2.7074 H   0  0  0  0  0  0  0  0  0  0  0  0
  1  6  1  0  0  0  0
  1  7  1  0  0  0  0
  2  1  2  0  0  0  0
  3  2  1  0  0  0  0
  4  3  2  0  0  0  0
  4  5  1  0  0  0  0
  5 10  1  0  0  0  0
  5  6  2  0  0  0  0
  6 18  1  0  0  0  0
  8  2  1  0  0  0  0
  9  4  1  0  0  0  0
 12 11  3  0  0  0  0
 13 16  1  0  0  0  0
 13 14  1  0  0  0  0
 15 13  1  0  0  0  0
 17 13  1  0  0  0  0
 18 19  1  0  0  0  0
 19 21  1  0  0  0  0
 19 20  1  0  0  0  0
 22 19  1  0  0  0  0
M  RAD  1   3   2
M  END
