Coordinates from ORCA-job 4-MeO-Ph-N2-BF4-B3LYPG-6-31G_dp-MTMO-d009-169-n800
 OpenBabel09051908083D

 22 20  0  0  0  0  0  0  0  0999 V2000
   -0.7214    0.6934    0.5087 C   0  0  0  0  0  0  0  0  0  0  0  0
    0.1445    0.8396   -0.6440 C   0  0  0  0  0  0  0  0  0  0  0  0
   -0.5357    1.6639   -1.3887 C   0  0  0  0  0  0  0  0  0  0  0  0
   -1.6421    2.4191   -1.5335 C   0  0  0  0  0  0  0  0  0  0  0  0
   -2.4151    2.2224   -0.3731 C   0  0  0  0  0  0  0  0  0  0  0  0
   -1.9460    1.3594    0.6460 C   0  0  0  0  0  0  0  0  0  0  0  0
   -0.2752    0.0172    1.2454 H   0  0  0  0  0  0  0  0  0  0  0  0
    1.1216    0.2780   -0.6409 H   0  0  0  0  0  0  0  0  0  0  0  0
   -1.9160    3.0568   -2.3623 H   0  0  0  0  0  0  0  0  0  0  0  0
   -3.3649    2.7362   -0.2701 H   0  0  0  0  0  0  0  0  0  0  0  0
    3.8125    1.9298   -0.7400 N   0  0  0  0  0  0  0  0  0  0  0  0
    4.8094    1.9180   -0.2640 N   0  0  0  0  0  0  0  0  0  0  0  0
    2.3088   -0.4582    1.3214 B   0  0  0  0  0  0  0  0  0  0  0  0
    1.1301   -1.0836    1.8124 F   0  0  0  0  0  0  0  0  0  0  0  0
    2.2081    0.9165    1.5392 F   0  0  0  0  0  0  0  0  0  0  0  0
    3.4380   -1.0190    1.8464 F   0  0  0  0  0  0  0  0  0  0  0  0
    2.3035   -0.6466   -0.1316 F   0  0  0  0  0  0  0  0  0  0  0  0
   -2.7439    1.2371    1.7236 O   0  0  0  0  0  0  0  0  0  0  0  0
   -2.2960    0.3979    2.7979 C   0  0  0  0  0  0  0  0  0  0  0  0
   -3.0635    0.4754    3.5676 H   0  0  0  0  0  0  0  0  0  0  0  0
   -1.3343    0.7426    3.1918 H   0  0  0  0  0  0  0  0  0  0  0  0
   -2.2025   -0.6426    2.4691 H   0  0  0  0  0  0  0  0  0  0  0  0
  1  6  1  0  0  0  0
  1  7  1  0  0  0  0
  2  8  1  0  0  0  0
  2  1  2  0  0  0  0
  3  2  1  0  0  0  0
  4  3  2  0  0  0  0
  4  5  1  0  0  0  0
  5 10  1  0  0  0  0
  5  6  2  0  0  0  0
  6 18  1  0  0  0  0
  9  4  1  0  0  0  0
 11 12  3  0  0  0  0
 13 15  1  0  0  0  0
 13 14  1  0  0  0  0
 13 16  1  0  0  0  0
 17 13  1  0  0  0  0
 18 19  1  0  0  0  0
 19 21  1  0  0  0  0
 19 20  1  0  0  0  0
 22 19  1  0  0  0  0
M  RAD  1   3   2
M  END
