Coordinates from ORCA-job 4-MeO-Ph-N2-BF4-B3LYPG-6-31G_dp-MTMO-d009-169-n800
 OpenBabel09051908083D

 22 20  0  0  0  0  0  0  0  0999 V2000
   -0.8544    0.7025    0.3600 C   0  0  0  0  0  0  0  0  0  0  0  0
   -0.2459    0.7207   -0.9544 C   0  0  0  0  0  0  0  0  0  0  0  0
   -1.0880    1.4427   -1.6365 C   0  0  0  0  0  0  0  0  0  0  0  0
   -2.2207    2.1719   -1.6383 C   0  0  0  0  0  0  0  0  0  0  0  0
   -2.7363    2.1065   -0.3293 C   0  0  0  0  0  0  0  0  0  0  0  0
   -2.0460    1.3735    0.6656 C   0  0  0  0  0  0  0  0  0  0  0  0
   -0.2593    0.1104    1.0602 H   0  0  0  0  0  0  0  0  0  0  0  0
    0.7327    0.1708   -1.0914 H   0  0  0  0  0  0  0  0  0  0  0  0
   -2.6761    2.7073   -2.4593 H   0  0  0  0  0  0  0  0  0  0  0  0
   -3.6623    2.6206   -0.0945 H   0  0  0  0  0  0  0  0  0  0  0  0
    4.9308    2.0886    1.3441 N   0  0  0  0  0  0  0  0  0  0  0  0
    5.4783    1.1808    1.6561 N   0  0  0  0  0  0  0  0  0  0  0  0
    2.2915   -0.3949    0.6259 B   0  0  0  0  0  0  0  0  0  0  0  0
    1.2415   -1.0316    1.3374 F   0  0  0  0  0  0  0  0  0  0  0  0
    2.1867    0.9835    0.8129 F   0  0  0  0  0  0  0  0  0  0  0  0
    3.5166   -0.9021    0.9583 F   0  0  0  0  0  0  0  0  0  0  0  0
    2.0344   -0.6445   -0.7966 F   0  0  0  0  0  0  0  0  0  0  0  0
   -2.6080    1.3748    1.8889 O   0  0  0  0  0  0  0  0  0  0  0  0
   -1.9176    0.6921    2.9457 C   0  0  0  0  0  0  0  0  0  0  0  0
   -2.5245    0.8469    3.8372 H   0  0  0  0  0  0  0  0  0  0  0  0
   -0.9179    1.1123    3.0963 H   0  0  0  0  0  0  0  0  0  0  0  0
   -1.8357   -0.3793    2.7331 H   0  0  0  0  0  0  0  0  0  0  0  0
  1  6  1  0  0  0  0
  1  7  1  0  0  0  0
  2  1  2  0  0  0  0
  3  2  1  0  0  0  0
  4  3  2  0  0  0  0
  4  5  1  0  0  0  0
  5 10  1  0  0  0  0
  5  6  2  0  0  0  0
  6 18  1  0  0  0  0
  8  2  1  0  0  0  0
  9  4  1  0  0  0  0
 11 12  3  0  0  0  0
 13 15  1  0  0  0  0
 13 16  1  0  0  0  0
 13 14  1  0  0  0  0
 17 13  1  0  0  0  0
 18 19  1  0  0  0  0
 19 21  1  0  0  0  0
 19 20  1  0  0  0  0
 22 19  1  0  0  0  0
M  RAD  1   3   2
M  END
