Coordinates from ORCA-job 4-MeO-Ph-N2-BF4-B3LYPG-6-31G_dp-MTMO-d009-169-n800
 OpenBabel09051908083D

 22 20  0  0  0  0  0  0  0  0999 V2000
   -1.3578    0.8863    0.2132 C   0  0  0  0  0  0  0  0  0  0  0  0
   -0.7741    0.8418   -1.1122 C   0  0  0  0  0  0  0  0  0  0  0  0
   -1.7513    1.2747   -1.8554 C   0  0  0  0  0  0  0  0  0  0  0  0
   -3.0177    1.7303   -1.9191 C   0  0  0  0  0  0  0  0  0  0  0  0
   -3.5008    1.7467   -0.5964 C   0  0  0  0  0  0  0  0  0  0  0  0
   -2.6640    1.3259    0.4651 C   0  0  0  0  0  0  0  0  0  0  0  0
   -0.6383    0.5599    0.9694 H   0  0  0  0  0  0  0  0  0  0  0  0
    0.3051    0.5133   -1.2008 H   0  0  0  0  0  0  0  0  0  0  0  0
   -3.5827    2.0295   -2.7905 H   0  0  0  0  0  0  0  0  0  0  0  0
   -4.5135    2.0834   -0.4019 H   0  0  0  0  0  0  0  0  0  0  0  0
   10.5658   -0.6859    3.4042 N   0  0  0  0  0  0  0  0  0  0  0  0
   10.3449   -1.6293    2.8725 N   0  0  0  0  0  0  0  0  0  0  0  0
    1.9476    0.6599    0.5283 B   0  0  0  0  0  0  0  0  0  0  0  0
    1.0948   -0.0743    1.3960 F   0  0  0  0  0  0  0  0  0  0  0  0
    1.4932    1.9758    0.4632 F   0  0  0  0  0  0  0  0  0  0  0  0
    3.2604    0.5419    0.8837 F   0  0  0  0  0  0  0  0  0  0  0  0
    1.7572    0.0866   -0.8106 F   0  0  0  0  0  0  0  0  0  0  0  0
   -3.2053    1.3853    1.6966 O   0  0  0  0  0  0  0  0  0  0  0  0
   -2.3794    1.0167    2.8112 C   0  0  0  0  0  0  0  0  0  0  0  0
   -2.9947    1.1801    3.6954 H   0  0  0  0  0  0  0  0  0  0  0  0
   -1.4819    1.6418    2.8584 H   0  0  0  0  0  0  0  0  0  0  0  0
   -2.0877   -0.0370    2.7510 H   0  0  0  0  0  0  0  0  0  0  0  0
  1  6  1  0  0  0  0
  1  7  1  0  0  0  0
  2  1  2  0  0  0  0
  3  2  1  0  0  0  0
  4  3  2  0  0  0  0
  4  5  1  0  0  0  0
  5 10  1  0  0  0  0
  5  6  2  0  0  0  0
  6 18  1  0  0  0  0
  8  2  1  0  0  0  0
  9  4  1  0  0  0  0
 12 11  3  0  0  0  0
 13 16  1  0  0  0  0
 13 14  1  0  0  0  0
 15 13  1  0  0  0  0
 17 13  1  0  0  0  0
 18 19  1  0  0  0  0
 19 21  1  0  0  0  0
 19 20  1  0  0  0  0
 22 19  1  0  0  0  0
M  RAD  1   3   2
M  END
