Coordinates from ORCA-job 4-MeO-Ph-N2-BF4-B3LYPG-6-31G_dp-MTMO-d009-169-n800
 OpenBabel09051908083D

 22 20  0  0  0  0  0  0  0  0999 V2000
   -1.2486    0.8671    0.2394 C   0  0  0  0  0  0  0  0  0  0  0  0
   -0.6631    0.8239   -1.0852 C   0  0  0  0  0  0  0  0  0  0  0  0
   -1.6424    1.2490   -1.8303 C   0  0  0  0  0  0  0  0  0  0  0  0
   -2.9116    1.6964   -1.8963 C   0  0  0  0  0  0  0  0  0  0  0  0
   -3.3962    1.7123   -0.5741 C   0  0  0  0  0  0  0  0  0  0  0  0
   -2.5578    1.2988    0.4891 C   0  0  0  0  0  0  0  0  0  0  0  0
   -0.5279    0.5465    0.9969 H   0  0  0  0  0  0  0  0  0  0  0  0
    0.4182    0.5022   -1.1722 H   0  0  0  0  0  0  0  0  0  0  0  0
   -3.4776    1.9903   -2.7688 H   0  0  0  0  0  0  0  0  0  0  0  0
   -4.4112    2.0429   -0.3813 H   0  0  0  0  0  0  0  0  0  0  0  0
    9.4860   -0.5057    3.1417 N   0  0  0  0  0  0  0  0  0  0  0  0
    9.2669   -1.4500    2.6106 N   0  0  0  0  0  0  0  0  0  0  0  0
    2.0580    0.6619    0.5591 B   0  0  0  0  0  0  0  0  0  0  0  0
    1.2084   -0.0761    1.4269 F   0  0  0  0  0  0  0  0  0  0  0  0
    1.5958    1.9749    0.4913 F   0  0  0  0  0  0  0  0  0  0  0  0
    3.3710    0.5524    0.9168 F   0  0  0  0  0  0  0  0  0  0  0  0
    1.8728    0.0853   -0.7790 F   0  0  0  0  0  0  0  0  0  0  0  0
   -3.1008    1.3571    1.7199 O   0  0  0  0  0  0  0  0  0  0  0  0
   -2.2737    0.9961    2.8361 C   0  0  0  0  0  0  0  0  0  0  0  0
   -2.8909    1.1574    3.7193 H   0  0  0  0  0  0  0  0  0  0  0  0
   -1.3801    1.6268    2.8829 H   0  0  0  0  0  0  0  0  0  0  0  0
   -1.9753   -0.0559    2.7784 H   0  0  0  0  0  0  0  0  0  0  0  0
  1  6  1  0  0  0  0
  1  7  1  0  0  0  0
  2  1  2  0  0  0  0
  3  2  1  0  0  0  0
  4  3  2  0  0  0  0
  4  5  1  0  0  0  0
  5 10  1  0  0  0  0
  5  6  2  0  0  0  0
  6 18  1  0  0  0  0
  8  2  1  0  0  0  0
  9  4  1  0  0  0  0
 12 11  3  0  0  0  0
 13 16  1  0  0  0  0
 13 14  1  0  0  0  0
 15 13  1  0  0  0  0
 17 13  1  0  0  0  0
 18 19  1  0  0  0  0
 19 21  1  0  0  0  0
 19 20  1  0  0  0  0
 22 19  1  0  0  0  0
M  RAD  1   3   2
M  END
