Coordinates from ORCA-job 4-MeO-Ph-N2-BF4-B3LYPG-6-31G_dp-MTMO-d009-169-n800
 OpenBabel09051908083D

 22 20  0  0  0  0  0  0  0  0999 V2000
   -1.6248    0.9375    0.1501 C   0  0  0  0  0  0  0  0  0  0  0  0
   -1.0422    0.8924   -1.1757 C   0  0  0  0  0  0  0  0  0  0  0  0
   -2.0203    1.3240   -1.9185 C   0  0  0  0  0  0  0  0  0  0  0  0
   -3.2872    1.7784   -1.9817 C   0  0  0  0  0  0  0  0  0  0  0  0
   -3.7692    1.7954   -0.6586 C   0  0  0  0  0  0  0  0  0  0  0  0
   -2.9312    1.3762    0.4026 C   0  0  0  0  0  0  0  0  0  0  0  0
   -0.9046    0.6124    0.9060 H   0  0  0  0  0  0  0  0  0  0  0  0
    0.0373    0.5649   -1.2651 H   0  0  0  0  0  0  0  0  0  0  0  0
   -3.8532    2.0764   -2.8528 H   0  0  0  0  0  0  0  0  0  0  0  0
   -4.7821    2.1314   -0.4636 H   0  0  0  0  0  0  0  0  0  0  0  0
   13.2417   -1.2045    4.0446 N   0  0  0  0  0  0  0  0  0  0  0  0
   13.0093   -2.1425    3.5082 N   0  0  0  0  0  0  0  0  0  0  0  0
    1.6815    0.7145    0.4613 B   0  0  0  0  0  0  0  0  0  0  0  0
    0.8305   -0.0202    1.3303 F   0  0  0  0  0  0  0  0  0  0  0  0
    1.2257    2.0299    0.3961 F   0  0  0  0  0  0  0  0  0  0  0  0
    2.9949    0.5979    0.8146 F   0  0  0  0  0  0  0  0  0  0  0  0
    1.4897    0.1403   -0.8773 F   0  0  0  0  0  0  0  0  0  0  0  0
   -3.4717    1.4362    1.6345 O   0  0  0  0  0  0  0  0  0  0  0  0
   -2.6447    1.0693    2.7488 C   0  0  0  0  0  0  0  0  0  0  0  0
   -3.2597    1.2327    3.6332 H   0  0  0  0  0  0  0  0  0  0  0  0
   -1.7478    1.6952    2.7949 H   0  0  0  0  0  0  0  0  0  0  0  0
   -2.3520    0.0158    2.6893 H   0  0  0  0  0  0  0  0  0  0  0  0
  1  6  1  0  0  0  0
  1  7  1  0  0  0  0
  2  1  2  0  0  0  0
  3  2  1  0  0  0  0
  4  3  2  0  0  0  0
  4  5  1  0  0  0  0
  5 10  1  0  0  0  0
  5  6  2  0  0  0  0
  6 18  1  0  0  0  0
  8  2  1  0  0  0  0
  9  4  1  0  0  0  0
 12 11  3  0  0  0  0
 13 16  1  0  0  0  0
 13 14  1  0  0  0  0
 15 13  1  0  0  0  0
 17 13  1  0  0  0  0
 18 19  1  0  0  0  0
 19 21  1  0  0  0  0
 19 20  1  0  0  0  0
 22 19  1  0  0  0  0
M  RAD  1   3   2
M  END
