Coordinates from ORCA-job 4-MeO-Ph-N2-BF4-B3LYPG-6-31G_dp-MTMO-d009-169-n800
 OpenBabel09051908083D

 22 20  0  0  0  0  0  0  0  0999 V2000
   -1.3293    0.8811    0.2200 C   0  0  0  0  0  0  0  0  0  0  0  0
   -0.7451    0.8369   -1.1052 C   0  0  0  0  0  0  0  0  0  0  0  0
   -1.7228    1.2681   -1.8488 C   0  0  0  0  0  0  0  0  0  0  0  0
   -2.9898    1.7220   -1.9131 C   0  0  0  0  0  0  0  0  0  0  0  0
   -3.4733    1.7383   -0.5905 C   0  0  0  0  0  0  0  0  0  0  0  0
   -2.6361    1.3191    0.4714 C   0  0  0  0  0  0  0  0  0  0  0  0
   -0.6096    0.5560    0.9765 H   0  0  0  0  0  0  0  0  0  0  0  0
    0.3345    0.5100   -1.1934 H   0  0  0  0  0  0  0  0  0  0  0  0
   -3.5550    2.0200   -2.7847 H   0  0  0  0  0  0  0  0  0  0  0  0
   -4.4865    2.0737   -0.3964 H   0  0  0  0  0  0  0  0  0  0  0  0
   10.2829   -0.6375    3.3355 N   0  0  0  0  0  0  0  0  0  0  0  0
   10.0634   -1.5815    2.8043 N   0  0  0  0  0  0  0  0  0  0  0  0
    1.9764    0.6596    0.5363 B   0  0  0  0  0  0  0  0  0  0  0  0
    1.1242   -0.0754    1.4041 F   0  0  0  0  0  0  0  0  0  0  0  0
    1.5202    1.9748    0.4705 F   0  0  0  0  0  0  0  0  0  0  0  0
    3.2892    0.5436    0.8922 F   0  0  0  0  0  0  0  0  0  0  0  0
    1.7871    0.0854   -0.8024 F   0  0  0  0  0  0  0  0  0  0  0  0
   -3.1778    1.3783    1.7028 O   0  0  0  0  0  0  0  0  0  0  0  0
   -2.3517    1.0113    2.8177 C   0  0  0  0  0  0  0  0  0  0  0  0
   -2.9675    1.1742    3.7016 H   0  0  0  0  0  0  0  0  0  0  0  0
   -1.4550    1.6375    2.8648 H   0  0  0  0  0  0  0  0  0  0  0  0
   -2.0585   -0.0421    2.7581 H   0  0  0  0  0  0  0  0  0  0  0  0
  1  6  1  0  0  0  0
  1  7  1  0  0  0  0
  2  1  2  0  0  0  0
  3  2  1  0  0  0  0
  4  3  2  0  0  0  0
  4  5  1  0  0  0  0
  5 10  1  0  0  0  0
  5  6  2  0  0  0  0
  6 18  1  0  0  0  0
  8  2  1  0  0  0  0
  9  4  1  0  0  0  0
 12 11  3  0  0  0  0
 13 16  1  0  0  0  0
 13 14  1  0  0  0  0
 15 13  1  0  0  0  0
 17 13  1  0  0  0  0
 18 19  1  0  0  0  0
 19 21  1  0  0  0  0
 19 20  1  0  0  0  0
 22 19  1  0  0  0  0
M  RAD  1   3   2
M  END
