Coordinates from ORCA-job 4-MeO-Ph-N2-BF4-B3LYPG-6-31G_dp-MTMO-d009-169-n800
 OpenBabel09051908083D

 22 20  0  0  0  0  0  0  0  0999 V2000
   -0.8184    0.6885    0.4262 C   0  0  0  0  0  0  0  0  0  0  0  0
   -0.0739    0.7963   -0.8119 C   0  0  0  0  0  0  0  0  0  0  0  0
   -0.8235    1.6003   -1.5102 C   0  0  0  0  0  0  0  0  0  0  0  0
   -1.9443    2.3454   -1.5719 C   0  0  0  0  0  0  0  0  0  0  0  0
   -2.5967    2.1869   -0.3339 C   0  0  0  0  0  0  0  0  0  0  0  0
   -2.0259    1.3586    0.6621 C   0  0  0  0  0  0  0  0  0  0  0  0
   -0.2973    0.0452    1.1418 H   0  0  0  0  0  0  0  0  0  0  0  0
    0.9051    0.2421   -0.8804 H   0  0  0  0  0  0  0  0  0  0  0  0
   -2.3049    2.9513   -2.3912 H   0  0  0  0  0  0  0  0  0  0  0  0
   -3.5343    2.7024   -0.1552 H   0  0  0  0  0  0  0  0  0  0  0  0
    4.6926    2.0323    0.1125 N   0  0  0  0  0  0  0  0  0  0  0  0
    5.3743    1.4102    0.7203 N   0  0  0  0  0  0  0  0  0  0  0  0
    2.2717   -0.3848    0.9935 B   0  0  0  0  0  0  0  0  0  0  0  0
    1.1821   -1.0247    1.6415 F   0  0  0  0  0  0  0  0  0  0  0  0
    2.1322    0.9968    1.1456 F   0  0  0  0  0  0  0  0  0  0  0  0
    3.4779   -0.8613    1.4260 F   0  0  0  0  0  0  0  0  0  0  0  0
    2.1257   -0.6606   -0.4369 F   0  0  0  0  0  0  0  0  0  0  0  0
   -2.7114    1.2733    1.8175 O   0  0  0  0  0  0  0  0  0  0  0  0
   -2.1472    0.4837    2.8751 C   0  0  0  0  0  0  0  0  0  0  0  0
   -2.8339    0.5883    3.7146 H   0  0  0  0  0  0  0  0  0  0  0  0
   -1.1550    0.8525    3.1541 H   0  0  0  0  0  0  0  0  0  0  0  0
   -2.0751   -0.5692    2.5821 H   0  0  0  0  0  0  0  0  0  0  0  0
  1  6  1  0  0  0  0
  1  7  1  0  0  0  0
  2  1  2  0  0  0  0
  3  2  1  0  0  0  0
  4  3  2  0  0  0  0
  4  5  1  0  0  0  0
  5 10  1  0  0  0  0
  5  6  2  0  0  0  0
  6 18  1  0  0  0  0
  8  2  1  0  0  0  0
  9  4  1  0  0  0  0
 11 12  3  0  0  0  0
 13 15  1  0  0  0  0
 13 16  1  0  0  0  0
 13 14  1  0  0  0  0
 17 13  1  0  0  0  0
 18 19  1  0  0  0  0
 19 21  1  0  0  0  0
 19 20  1  0  0  0  0
 22 19  1  0  0  0  0
M  RAD  1   3   2
M  END
