Coordinates from ORCA-job 4-MeO-Ph-N2-BF4-B3LYPG-6-31G_dp-MTMO-d009-169-n800
 OpenBabel09051908083D

 22 20  0  0  0  0  0  0  0  0999 V2000
   -1.1408    0.8420    0.2647 C   0  0  0  0  0  0  0  0  0  0  0  0
   -0.5545    0.7948   -1.0595 C   0  0  0  0  0  0  0  0  0  0  0  0
   -1.5243    1.2438   -1.8031 C   0  0  0  0  0  0  0  0  0  0  0  0
   -2.7842    1.7168   -1.8677 C   0  0  0  0  0  0  0  0  0  0  0  0
   -3.2702    1.7344   -0.5461 C   0  0  0  0  0  0  0  0  0  0  0  0
   -2.4416    1.2979    0.5155 C   0  0  0  0  0  0  0  0  0  0  0  0
   -0.4275    0.5026    1.0210 H   0  0  0  0  0  0  0  0  0  0  0  0
    0.5197    0.4513   -1.1466 H   0  0  0  0  0  0  0  0  0  0  0  0
   -3.3430    2.0274   -2.7391 H   0  0  0  0  0  0  0  0  0  0  0  0
   -4.2788    2.0838   -0.3526 H   0  0  0  0  0  0  0  0  0  0  0  0
    8.3681   -0.1933    2.8653 N   0  0  0  0  0  0  0  0  0  0  0  0
    8.1681   -1.1450    2.3402 N   0  0  0  0  0  0  0  0  0  0  0  0
    2.1593    0.5645    0.5899 B   0  0  0  0  0  0  0  0  0  0  0  0
    1.2925   -0.1594    1.4525 F   0  0  0  0  0  0  0  0  0  0  0  0
    1.7255    1.8876    0.5283 F   0  0  0  0  0  0  0  0  0  0  0  0
    3.4690    0.4251    0.9499 F   0  0  0  0  0  0  0  0  0  0  0  0
    1.9649   -0.0009   -0.7514 F   0  0  0  0  0  0  0  0  0  0  0  0
   -2.9848    1.3593    1.7460 O   0  0  0  0  0  0  0  0  0  0  0  0
   -2.1665    0.9745    2.8608 C   0  0  0  0  0  0  0  0  0  0  0  0
   -2.7817    1.1417    3.7443 H   0  0  0  0  0  0  0  0  0  0  0  0
   -1.2610    1.5874    2.9130 H   0  0  0  0  0  0  0  0  0  0  0  0
   -1.8885   -0.0827    2.7962 H   0  0  0  0  0  0  0  0  0  0  0  0
  1  6  1  0  0  0  0
  1  7  1  0  0  0  0
  2  1  2  0  0  0  0
  3  2  1  0  0  0  0
  4  3  2  0  0  0  0
  4  5  1  0  0  0  0
  5 10  1  0  0  0  0
  5  6  2  0  0  0  0
  6 18  1  0  0  0  0
  8  2  1  0  0  0  0
  9  4  1  0  0  0  0
 12 11  3  0  0  0  0
 13 16  1  0  0  0  0
 13 14  1  0  0  0  0
 15 13  1  0  0  0  0
 17 13  1  0  0  0  0
 18 19  1  0  0  0  0
 19 21  1  0  0  0  0
 19 20  1  0  0  0  0
 22 19  1  0  0  0  0
M  RAD  1   3   2
M  END
