Coordinates from ORCA-job 4-MeO-Ph-N2-BF4-B3LYPG-6-31G_dp-MTMO-d009-169-n800
 OpenBabel09051908083D

 22 20  0  0  0  0  0  0  0  0999 V2000
   -1.1211    0.8386    0.2692 C   0  0  0  0  0  0  0  0  0  0  0  0
   -0.5345    0.7915   -1.0548 C   0  0  0  0  0  0  0  0  0  0  0  0
   -1.5045    1.2397   -1.7987 C   0  0  0  0  0  0  0  0  0  0  0  0
   -2.7647    1.7120   -1.8636 C   0  0  0  0  0  0  0  0  0  0  0  0
   -3.2509    1.7295   -0.5420 C   0  0  0  0  0  0  0  0  0  0  0  0
   -2.4222    1.2938    0.5198 C   0  0  0  0  0  0  0  0  0  0  0  0
   -0.4077    0.4997    1.0257 H   0  0  0  0  0  0  0  0  0  0  0  0
    0.5399    0.4487   -1.1417 H   0  0  0  0  0  0  0  0  0  0  0  0
   -3.3235    2.0221   -2.7351 H   0  0  0  0  0  0  0  0  0  0  0  0
   -4.2597    2.0784   -0.3488 H   0  0  0  0  0  0  0  0  0  0  0  0
    8.1716   -0.1610    2.8185 N   0  0  0  0  0  0  0  0  0  0  0  0
    7.9733   -1.1120    2.2915 N   0  0  0  0  0  0  0  0  0  0  0  0
    2.1791    0.5631    0.5958 B   0  0  0  0  0  0  0  0  0  0  0  0
    1.3122   -0.1609    1.4583 F   0  0  0  0  0  0  0  0  0  0  0  0
    1.7446    1.8860    0.5337 F   0  0  0  0  0  0  0  0  0  0  0  0
    3.4886    0.4245    0.9565 F   0  0  0  0  0  0  0  0  0  0  0  0
    1.9855   -0.0026   -0.7453 F   0  0  0  0  0  0  0  0  0  0  0  0
   -2.9656    1.3551    1.7502 O   0  0  0  0  0  0  0  0  0  0  0  0
   -2.1472    0.9710    2.8652 C   0  0  0  0  0  0  0  0  0  0  0  0
   -2.7626    1.1381    3.7486 H   0  0  0  0  0  0  0  0  0  0  0  0
   -1.2420    1.5844    2.9173 H   0  0  0  0  0  0  0  0  0  0  0  0
   -1.8686   -0.0861    2.8009 H   0  0  0  0  0  0  0  0  0  0  0  0
  1  6  1  0  0  0  0
  1  7  1  0  0  0  0
  2  1  2  0  0  0  0
  3  2  1  0  0  0  0
  4  3  2  0  0  0  0
  4  5  1  0  0  0  0
  5 10  1  0  0  0  0
  5  6  2  0  0  0  0
  6 18  1  0  0  0  0
  8  2  1  0  0  0  0
  9  4  1  0  0  0  0
 12 11  3  0  0  0  0
 13 16  1  0  0  0  0
 13 14  1  0  0  0  0
 15 13  1  0  0  0  0
 17 13  1  0  0  0  0
 18 19  1  0  0  0  0
 19 21  1  0  0  0  0
 19 20  1  0  0  0  0
 22 19  1  0  0  0  0
M  RAD  1   3   2
M  END
