Coordinates from ORCA-job 4-MeO-Ph-N2-BF4-B3LYPG-6-31G_dp-MTMO-d009-169-n800
 OpenBabel09051908083D

 22 20  0  0  0  0  0  0  0  0999 V2000
   -1.4412    0.9016    0.1933 C   0  0  0  0  0  0  0  0  0  0  0  0
   -0.8587    0.8564   -1.1327 C   0  0  0  0  0  0  0  0  0  0  0  0
   -1.8352    1.2931   -1.8747 C   0  0  0  0  0  0  0  0  0  0  0  0
   -3.1002    1.7526   -1.9370 C   0  0  0  0  0  0  0  0  0  0  0  0
   -3.5822    1.7694   -0.6139 C   0  0  0  0  0  0  0  0  0  0  0  0
   -2.7458    1.3450    0.4465 C   0  0  0  0  0  0  0  0  0  0  0  0
   -0.7221    0.5724    0.9485 H   0  0  0  0  0  0  0  0  0  0  0  0
    0.2194    0.5245   -1.2225 H   0  0  0  0  0  0  0  0  0  0  0  0
   -3.6650    2.0543   -2.8076 H   0  0  0  0  0  0  0  0  0  0  0  0
   -4.5937    2.1090   -0.4183 H   0  0  0  0  0  0  0  0  0  0  0  0
   11.3946   -0.8317    3.6063 N   0  0  0  0  0  0  0  0  0  0  0  0
   11.1698   -1.7733    3.0729 N   0  0  0  0  0  0  0  0  0  0  0  0
    1.8638    0.6642    0.5048 B   0  0  0  0  0  0  0  0  0  0  0  0
    1.0096   -0.0682    1.3726 F   0  0  0  0  0  0  0  0  0  0  0  0
    1.4135    1.9816    0.4415 F   0  0  0  0  0  0  0  0  0  0  0  0
    3.1766    0.5416    0.8585 F   0  0  0  0  0  0  0  0  0  0  0  0
    1.6702    0.0928   -0.8346 F   0  0  0  0  0  0  0  0  0  0  0  0
   -3.2860    1.4050    1.6786 O   0  0  0  0  0  0  0  0  0  0  0  0
   -2.4604    1.0328    2.7922 C   0  0  0  0  0  0  0  0  0  0  0  0
   -3.0746    1.1970    3.6769 H   0  0  0  0  0  0  0  0  0  0  0  0
   -1.5610    1.6551    2.8394 H   0  0  0  0  0  0  0  0  0  0  0  0
   -2.1718   -0.0217    2.7307 H   0  0  0  0  0  0  0  0  0  0  0  0
  1  6  1  0  0  0  0
  1  7  1  0  0  0  0
  2  1  2  0  0  0  0
  3  2  1  0  0  0  0
  4  3  2  0  0  0  0
  4  5  1  0  0  0  0
  5 10  1  0  0  0  0
  5  6  2  0  0  0  0
  6 18  1  0  0  0  0
  8  2  1  0  0  0  0
  9  4  1  0  0  0  0
 12 11  3  0  0  0  0
 13 16  1  0  0  0  0
 13 14  1  0  0  0  0
 15 13  1  0  0  0  0
 17 13  1  0  0  0  0
 18 19  1  0  0  0  0
 19 21  1  0  0  0  0
 19 20  1  0  0  0  0
 22 19  1  0  0  0  0
M  RAD  1   3   2
M  END
