Coordinates from ORCA-job 4-MeO-Ph-N2-BF4-B3LYPG-6-31G_dp-MTMO-d009-169-n800
 OpenBabel09051908083D

 22 20  0  0  0  0  0  0  0  0999 V2000
   -0.5140    0.6440    0.7422 C   0  0  0  0  0  0  0  0  0  0  0  0
    0.6293    0.8467   -0.1142 C   0  0  0  0  0  0  0  0  0  0  0  0
    0.2022    1.7220   -0.9840 C   0  0  0  0  0  0  0  0  0  0  0  0
   -0.8285    2.4896   -1.3908 C   0  0  0  0  0  0  0  0  0  0  0  0
   -1.8925    2.2370   -0.5049 C   0  0  0  0  0  0  0  0  0  0  0  0
   -1.7295    1.3175    0.5587 C   0  0  0  0  0  0  0  0  0  0  0  0
   -0.2968   -0.0691    1.5400 H   0  0  0  0  0  0  0  0  0  0  0  0
    1.5865    0.2980    0.1213 H   0  0  0  0  0  0  0  0  0  0  0  0
   -0.8668    3.1711   -2.2284 H   0  0  0  0  0  0  0  0  0  0  0  0
   -2.8362    2.7537   -0.6442 H   0  0  0  0  0  0  0  0  0  0  0  0
    2.3447    2.2669   -2.6735 N   0  0  0  0  0  0  0  0  0  0  0  0
    3.3126    2.3714   -3.1952 N   0  0  0  0  0  0  0  0  0  0  0  0
    2.2517   -0.5161    2.2471 B   0  0  0  0  0  0  0  0  0  0  0  0
    1.0371   -1.2491    2.2901 F   0  0  0  0  0  0  0  0  0  0  0  0
    1.9803    0.8191    2.5462 F   0  0  0  0  0  0  0  0  0  0  0  0
    3.2148   -1.0745    3.0394 F   0  0  0  0  0  0  0  0  0  0  0  0
    2.6967   -0.5478    0.8493 F   0  0  0  0  0  0  0  0  0  0  0  0
   -2.8033    1.1521    1.3551 O   0  0  0  0  0  0  0  0  0  0  0  0
   -2.6769    0.2685    2.4773 C   0  0  0  0  0  0  0  0  0  0  0  0
   -3.6372    0.3105    2.9908 H   0  0  0  0  0  0  0  0  0  0  0  0
   -1.8781    0.5990    3.1497 H   0  0  0  0  0  0  0  0  0  0  0  0
   -2.4762   -0.7570    2.1493 H   0  0  0  0  0  0  0  0  0  0  0  0
  1  7  1  0  0  0  0
  2  8  1  0  0  0  0
  2  1  2  0  0  0  0
  3  2  1  0  0  0  0
  4  3  2  0  0  0  0
  4  5  1  0  0  0  0
  5  6  2  0  0  0  0
  6  1  1  0  0  0  0
  6 18  1  0  0  0  0
  9  4  1  0  0  0  0
 10  5  1  0  0  0  0
 12 11  3  0  0  0  0
 13 14  1  0  0  0  0
 13 15  1  0  0  0  0
 13 16  1  0  0  0  0
 17 13  1  0  0  0  0
 18 19  1  0  0  0  0
 19 20  1  0  0  0  0
 19 21  1  0  0  0  0
 22 19  1  0  0  0  0
M  RAD  1   3   2
M  END
