Coordinates from ORCA-job 4-MeO-Ph-N2-BF4-B3LYPG-6-31G_dp-MTMO-d009-169-n800
 OpenBabel09051908083D

 22 20  0  0  0  0  0  0  0  0999 V2000
   -0.7276    0.6973    0.5058 C   0  0  0  0  0  0  0  0  0  0  0  0
    0.1312    0.8433   -0.6519 C   0  0  0  0  0  0  0  0  0  0  0  0
   -0.5572    1.6599   -1.3974 C   0  0  0  0  0  0  0  0  0  0  0  0
   -1.6674    2.4097   -1.5397 C   0  0  0  0  0  0  0  0  0  0  0  0
   -2.4334    2.2140   -0.3743 C   0  0  0  0  0  0  0  0  0  0  0  0
   -1.9550    1.3578    0.6463 C   0  0  0  0  0  0  0  0  0  0  0  0
   -0.2765    0.0255    1.2431 H   0  0  0  0  0  0  0  0  0  0  0  0
    1.1118    0.2867   -0.6522 H   0  0  0  0  0  0  0  0  0  0  0  0
   -1.9491    3.0428   -2.3694 H   0  0  0  0  0  0  0  0  0  0  0  0
   -3.3853    2.7234   -0.2691 H   0  0  0  0  0  0  0  0  0  0  0  0
    3.8824    1.9303   -0.6852 N   0  0  0  0  0  0  0  0  0  0  0  0
    4.8738    1.8644   -0.2020 N   0  0  0  0  0  0  0  0  0  0  0  0
    2.3071   -0.4498    1.3009 B   0  0  0  0  0  0  0  0  0  0  0  0
    1.1357   -1.0865    1.7925 F   0  0  0  0  0  0  0  0  0  0  0  0
    2.1959    0.9233    1.5244 F   0  0  0  0  0  0  0  0  0  0  0  0
    3.4436   -1.0024    1.8186 F   0  0  0  0  0  0  0  0  0  0  0  0
    2.2987   -0.6320   -0.1535 F   0  0  0  0  0  0  0  0  0  0  0  0
   -2.7470    1.2362    1.7282 O   0  0  0  0  0  0  0  0  0  0  0  0
   -2.2892    0.4054    2.8048 C   0  0  0  0  0  0  0  0  0  0  0  0
   -3.0545    0.4812    3.5769 H   0  0  0  0  0  0  0  0  0  0  0  0
   -1.3288    0.7591    3.1936 H   0  0  0  0  0  0  0  0  0  0  0  0
   -2.1894   -0.6360    2.4809 H   0  0  0  0  0  0  0  0  0  0  0  0
  1  6  1  0  0  0  0
  1  7  1  0  0  0  0
  2  1  2  0  0  0  0
  3  2  1  0  0  0  0
  4  3  2  0  0  0  0
  4  5  1  0  0  0  0
  5 10  1  0  0  0  0
  5  6  2  0  0  0  0
  6 18  1  0  0  0  0
  8  2  1  0  0  0  0
  9  4  1  0  0  0  0
 11 12  3  0  0  0  0
 13 15  1  0  0  0  0
 13 14  1  0  0  0  0
 13 16  1  0  0  0  0
 17 13  1  0  0  0  0
 18 19  1  0  0  0  0
 19 21  1  0  0  0  0
 19 20  1  0  0  0  0
 22 19  1  0  0  0  0
M  RAD  1   3   2
M  END
