Coordinates from ORCA-job 4-MeO-Ph-N2-BF4-B3LYPG-6-31G_dp-MTMO-d009-169-n800
 OpenBabel09051908083D

 22 20  0  0  0  0  0  0  0  0999 V2000
   -0.9332    0.7582    0.3001 C   0  0  0  0  0  0  0  0  0  0  0  0
   -0.3913    0.6752   -1.0408 C   0  0  0  0  0  0  0  0  0  0  0  0
   -1.3210    1.2511   -1.7474 C   0  0  0  0  0  0  0  0  0  0  0  0
   -2.5180    1.8692   -1.7658 C   0  0  0  0  0  0  0  0  0  0  0  0
   -2.9654    1.9086   -0.4309 C   0  0  0  0  0  0  0  0  0  0  0  0
   -2.1666    1.3530    0.5972 C   0  0  0  0  0  0  0  0  0  0  0  0
   -0.2483    0.3137    1.0275 H   0  0  0  0  0  0  0  0  0  0  0  0
    0.6257    0.1962   -1.1659 H   0  0  0  0  0  0  0  0  0  0  0  0
   -3.0576    2.2668   -2.6135 H   0  0  0  0  0  0  0  0  0  0  0  0
   -3.9218    2.3663   -0.2018 H   0  0  0  0  0  0  0  0  0  0  0  0
    5.7463    0.4992    2.7850 N   0  0  0  0  0  0  0  0  0  0  0  0
    6.1797    0.7642    1.8038 N   0  0  0  0  0  0  0  0  0  0  0  0
    2.3221    0.0197    0.5104 B   0  0  0  0  0  0  0  0  0  0  0  0
    1.3836   -0.5659    1.4013 F   0  0  0  0  0  0  0  0  0  0  0  0
    2.1119    1.3955    0.4786 F   0  0  0  0  0  0  0  0  0  0  0  0
    3.6057   -0.3400    0.8189 F   0  0  0  0  0  0  0  0  0  0  0  0
    1.9907   -0.4844   -0.8273 F   0  0  0  0  0  0  0  0  0  0  0  0
   -2.6696    1.4421    1.8429 O   0  0  0  0  0  0  0  0  0  0  0  0
   -1.8762    0.9327    2.9252 C   0  0  0  0  0  0  0  0  0  0  0  0
   -2.4526    1.1334    3.8277 H   0  0  0  0  0  0  0  0  0  0  0  0
   -0.9098    1.4440    2.9769 H   0  0  0  0  0  0  0  0  0  0  0  0
   -1.7144   -0.1454    2.8194 H   0  0  0  0  0  0  0  0  0  0  0  0
  1  6  1  0  0  0  0
  1  7  1  0  0  0  0
  2  1  2  0  0  0  0
  3  2  1  0  0  0  0
  4  3  2  0  0  0  0
  4  5  1  0  0  0  0
  5 10  1  0  0  0  0
  5  6  2  0  0  0  0
  6 18  1  0  0  0  0
  8  2  1  0  0  0  0
  9  4  1  0  0  0  0
 12 11  3  0  0  0  0
 13 16  1  0  0  0  0
 13 14  1  0  0  0  0
 15 13  1  0  0  0  0
 17 13  1  0  0  0  0
 18 19  1  0  0  0  0
 19 21  1  0  0  0  0
 19 20  1  0  0  0  0
 22 19  1  0  0  0  0
M  RAD  1   3   2
M  END
