Coordinates from ORCA-job 4-MeO-Ph-N2-BF4-B3LYPG-6-31G_dp-MTMO-d009-169-n800
 OpenBabel09051908083D

 22 20  0  0  0  0  0  0  0  0999 V2000
   -1.4164    0.8970    0.1992 C   0  0  0  0  0  0  0  0  0  0  0  0
   -0.8335    0.8520   -1.1266 C   0  0  0  0  0  0  0  0  0  0  0  0
   -1.8102    1.2877   -1.8689 C   0  0  0  0  0  0  0  0  0  0  0  0
   -3.0755    1.7463   -1.9317 C   0  0  0  0  0  0  0  0  0  0  0  0
   -3.5579    1.7629   -0.6086 C   0  0  0  0  0  0  0  0  0  0  0  0
   -2.7214    1.3395    0.4521 C   0  0  0  0  0  0  0  0  0  0  0  0
   -0.6973    0.5685    0.9547 H   0  0  0  0  0  0  0  0  0  0  0  0
    0.2448    0.5210   -1.2161 H   0  0  0  0  0  0  0  0  0  0  0  0
   -3.6404    2.0473   -2.8025 H   0  0  0  0  0  0  0  0  0  0  0  0
   -4.5697    2.1018   -0.4134 H   0  0  0  0  0  0  0  0  0  0  0  0
   11.1480   -0.7877    3.5461 N   0  0  0  0  0  0  0  0  0  0  0  0
   10.9243   -1.7299    3.0132 N   0  0  0  0  0  0  0  0  0  0  0  0
    1.8887    0.6624    0.5118 B   0  0  0  0  0  0  0  0  0  0  0  0
    1.0348   -0.0704    1.3795 F   0  0  0  0  0  0  0  0  0  0  0  0
    1.4373    1.9794    0.4480 F   0  0  0  0  0  0  0  0  0  0  0  0
    3.2015    0.5410    0.8660 F   0  0  0  0  0  0  0  0  0  0  0  0
    1.6959    0.0905   -0.8275 F   0  0  0  0  0  0  0  0  0  0  0  0
   -3.2619    1.3993    1.6839 O   0  0  0  0  0  0  0  0  0  0  0  0
   -2.4363    1.0280    2.7978 C   0  0  0  0  0  0  0  0  0  0  0  0
   -3.0508    1.1920    3.6824 H   0  0  0  0  0  0  0  0  0  0  0  0
   -1.5374    1.6510    2.8451 H   0  0  0  0  0  0  0  0  0  0  0  0
   -2.1469   -0.0263    2.7367 H   0  0  0  0  0  0  0  0  0  0  0  0
  1  6  1  0  0  0  0
  1  7  1  0  0  0  0
  2  1  2  0  0  0  0
  3  2  1  0  0  0  0
  4  3  2  0  0  0  0
  4  5  1  0  0  0  0
  5 10  1  0  0  0  0
  5  6  2  0  0  0  0
  6 18  1  0  0  0  0
  8  2  1  0  0  0  0
  9  4  1  0  0  0  0
 12 11  3  0  0  0  0
 13 16  1  0  0  0  0
 13 14  1  0  0  0  0
 15 13  1  0  0  0  0
 17 13  1  0  0  0  0
 18 19  1  0  0  0  0
 19 21  1  0  0  0  0
 19 20  1  0  0  0  0
 22 19  1  0  0  0  0
M  RAD  1   3   2
M  END
