Coordinates from ORCA-job 4-MeO-Ph-N2-BF4-B3LYPG-6-31G_dp-MTMO-d009-169-n800
 OpenBabel09051908083D

 22 20  0  0  0  0  0  0  0  0999 V2000
   -1.4270    0.8990    0.1967 C   0  0  0  0  0  0  0  0  0  0  0  0
   -0.8443    0.8539   -1.1292 C   0  0  0  0  0  0  0  0  0  0  0  0
   -1.8209    1.2900   -1.8714 C   0  0  0  0  0  0  0  0  0  0  0  0
   -3.0861    1.7490   -1.9340 C   0  0  0  0  0  0  0  0  0  0  0  0
   -3.5683    1.7657   -0.6109 C   0  0  0  0  0  0  0  0  0  0  0  0
   -2.7318    1.3419    0.4497 C   0  0  0  0  0  0  0  0  0  0  0  0
   -0.7079    0.5702    0.9521 H   0  0  0  0  0  0  0  0  0  0  0  0
    0.2339    0.5225   -1.2188 H   0  0  0  0  0  0  0  0  0  0  0  0
   -3.6509    2.0504   -2.8047 H   0  0  0  0  0  0  0  0  0  0  0  0
   -4.5799    2.1049   -0.4155 H   0  0  0  0  0  0  0  0  0  0  0  0
   11.2537   -0.8065    3.5718 N   0  0  0  0  0  0  0  0  0  0  0  0
   11.0296   -1.7484    3.0388 N   0  0  0  0  0  0  0  0  0  0  0  0
    1.8781    0.6631    0.5088 B   0  0  0  0  0  0  0  0  0  0  0  0
    1.0240   -0.0695    1.3766 F   0  0  0  0  0  0  0  0  0  0  0  0
    1.4272    1.9803    0.4452 F   0  0  0  0  0  0  0  0  0  0  0  0
    3.1908    0.5412    0.8628 F   0  0  0  0  0  0  0  0  0  0  0  0
    1.6849    0.0915   -0.8305 F   0  0  0  0  0  0  0  0  0  0  0  0
   -3.2722    1.4018    1.6816 O   0  0  0  0  0  0  0  0  0  0  0  0
   -2.4466    1.0301    2.7954 C   0  0  0  0  0  0  0  0  0  0  0  0
   -3.0610    1.1942    3.6801 H   0  0  0  0  0  0  0  0  0  0  0  0
   -1.5475    1.6528    2.8426 H   0  0  0  0  0  0  0  0  0  0  0  0
   -2.1576   -0.0244    2.7341 H   0  0  0  0  0  0  0  0  0  0  0  0
  1  6  1  0  0  0  0
  1  7  1  0  0  0  0
  2  1  2  0  0  0  0
  3  2  1  0  0  0  0
  4  3  2  0  0  0  0
  4  5  1  0  0  0  0
  5 10  1  0  0  0  0
  5  6  2  0  0  0  0
  6 18  1  0  0  0  0
  8  2  1  0  0  0  0
  9  4  1  0  0  0  0
 12 11  3  0  0  0  0
 13 16  1  0  0  0  0
 13 14  1  0  0  0  0
 15 13  1  0  0  0  0
 17 13  1  0  0  0  0
 18 19  1  0  0  0  0
 19 21  1  0  0  0  0
 19 20  1  0  0  0  0
 22 19  1  0  0  0  0
M  RAD  1   3   2
M  END
