Coordinates from ORCA-job 4-MeO-Ph-N2-BF4-B3LYPG-6-31G_dp-MTMO-d009-169-n800
 OpenBabel09051908083D

 22 20  0  0  0  0  0  0  0  0999 V2000
   -1.5205    0.9179    0.1749 C   0  0  0  0  0  0  0  0  0  0  0  0
   -0.9369    0.8737   -1.1505 C   0  0  0  0  0  0  0  0  0  0  0  0
   -1.9159    1.3014   -1.8943 C   0  0  0  0  0  0  0  0  0  0  0  0
   -3.1842    1.7518   -1.9586 C   0  0  0  0  0  0  0  0  0  0  0  0
   -3.6671    1.7684   -0.6358 C   0  0  0  0  0  0  0  0  0  0  0  0
   -2.8284    1.3527    0.4262 C   0  0  0  0  0  0  0  0  0  0  0  0
   -0.7997    0.5957    0.9315 H   0  0  0  0  0  0  0  0  0  0  0  0
    0.1438    0.5497   -1.2389 H   0  0  0  0  0  0  0  0  0  0  0  0
   -3.7506    2.0473   -2.8303 H   0  0  0  0  0  0  0  0  0  0  0  0
   -4.6811    2.1013   -0.4417 H   0  0  0  0  0  0  0  0  0  0  0  0
   12.2043   -1.0158    3.7937 N   0  0  0  0  0  0  0  0  0  0  0  0
   11.9737   -1.9565    3.2612 N   0  0  0  0  0  0  0  0  0  0  0  0
    1.7863    0.7064    0.4888 B   0  0  0  0  0  0  0  0  0  0  0  0
    0.9370   -0.0304    1.3579 F   0  0  0  0  0  0  0  0  0  0  0  0
    1.3260    2.0202    0.4221 F   0  0  0  0  0  0  0  0  0  0  0  0
    3.0997    0.5947    0.8435 F   0  0  0  0  0  0  0  0  0  0  0  0
    1.5975    0.1304   -0.8493 F   0  0  0  0  0  0  0  0  0  0  0  0
   -3.3699    1.4119    1.6577 O   0  0  0  0  0  0  0  0  0  0  0  0
   -2.5424    1.0486    2.7728 C   0  0  0  0  0  0  0  0  0  0  0  0
   -3.1582    1.2110    3.6568 H   0  0  0  0  0  0  0  0  0  0  0  0
   -1.6473    1.6773    2.8189 H   0  0  0  0  0  0  0  0  0  0  0  0
   -2.2464   -0.0041    2.7145 H   0  0  0  0  0  0  0  0  0  0  0  0
  1  6  1  0  0  0  0
  1  7  1  0  0  0  0
  2  1  2  0  0  0  0
  3  2  1  0  0  0  0
  4  3  2  0  0  0  0
  4  5  1  0  0  0  0
  5 10  1  0  0  0  0
  5  6  2  0  0  0  0
  6 18  1  0  0  0  0
  8  2  1  0  0  0  0
  9  4  1  0  0  0  0
 12 11  3  0  0  0  0
 13 16  1  0  0  0  0
 13 14  1  0  0  0  0
 15 13  1  0  0  0  0
 17 13  1  0  0  0  0
 18 19  1  0  0  0  0
 19 21  1  0  0  0  0
 19 20  1  0  0  0  0
 22 19  1  0  0  0  0
M  RAD  1   3   2
M  END
