Coordinates from ORCA-job 4-MeO-Ph-N2-BF4-B3LYPG-6-31G_dp-MTMO-d009-169-n800
 OpenBabel09051908083D

 22 20  0  0  0  0  0  0  0  0999 V2000
   -1.5061    0.9153    0.1783 C   0  0  0  0  0  0  0  0  0  0  0  0
   -0.9225    0.8714   -1.1471 C   0  0  0  0  0  0  0  0  0  0  0  0
   -1.9021    1.2979   -1.8910 C   0  0  0  0  0  0  0  0  0  0  0  0
   -3.1708    1.7469   -1.9553 C   0  0  0  0  0  0  0  0  0  0  0  0
   -3.6537    1.7633   -0.6325 C   0  0  0  0  0  0  0  0  0  0  0  0
   -2.8145    1.3488    0.4296 C   0  0  0  0  0  0  0  0  0  0  0  0
   -0.7849    0.5941    0.9349 H   0  0  0  0  0  0  0  0  0  0  0  0
    0.1585    0.5486   -1.2355 H   0  0  0  0  0  0  0  0  0  0  0  0
   -3.7376    2.0415   -2.8271 H   0  0  0  0  0  0  0  0  0  0  0  0
   -4.6680    2.0953   -0.4384 H   0  0  0  0  0  0  0  0  0  0  0  0
   12.0626   -0.9922    3.7602 N   0  0  0  0  0  0  0  0  0  0  0  0
   11.8317   -1.9332    3.2284 N   0  0  0  0  0  0  0  0  0  0  0  0
    1.8009    0.7074    0.4920 B   0  0  0  0  0  0  0  0  0  0  0  0
    0.9525   -0.0302    1.3612 F   0  0  0  0  0  0  0  0  0  0  0  0
    1.3393    2.0206    0.4252 F   0  0  0  0  0  0  0  0  0  0  0  0
    3.1145    0.5971    0.8467 F   0  0  0  0  0  0  0  0  0  0  0  0
    1.6127    0.1310   -0.8460 F   0  0  0  0  0  0  0  0  0  0  0  0
   -3.3559    1.4078    1.6611 O   0  0  0  0  0  0  0  0  0  0  0  0
   -2.5280    1.0457    2.7763 C   0  0  0  0  0  0  0  0  0  0  0  0
   -3.1440    1.2077    3.6602 H   0  0  0  0  0  0  0  0  0  0  0  0
   -1.6336    1.6754    2.8221 H   0  0  0  0  0  0  0  0  0  0  0  0
   -2.2309   -0.0067    2.7182 H   0  0  0  0  0  0  0  0  0  0  0  0
  1  6  1  0  0  0  0
  1  7  1  0  0  0  0
  2  1  2  0  0  0  0
  3  2  1  0  0  0  0
  4  3  2  0  0  0  0
  4  5  1  0  0  0  0
  5 10  1  0  0  0  0
  5  6  2  0  0  0  0
  6 18  1  0  0  0  0
  8  2  1  0  0  0  0
  9  4  1  0  0  0  0
 12 11  3  0  0  0  0
 13 16  1  0  0  0  0
 13 14  1  0  0  0  0
 15 13  1  0  0  0  0
 17 13  1  0  0  0  0
 18 19  1  0  0  0  0
 19 21  1  0  0  0  0
 19 20  1  0  0  0  0
 22 19  1  0  0  0  0
M  RAD  1   3   2
M  END
