Coordinates from ORCA-job 4-MeO-Ph-N2-BF4-B3LYPG-6-31G_dp-MTMO-d009-169-n800
 OpenBabel09051908083D

 22 20  0  0  0  0  0  0  0  0999 V2000
   -0.7986    0.7281    0.4669 C   0  0  0  0  0  0  0  0  0  0  0  0
    0.0122    0.9102   -0.7200 C   0  0  0  0  0  0  0  0  0  0  0  0
   -0.7330    1.7043   -1.4345 C   0  0  0  0  0  0  0  0  0  0  0  0
   -1.8818    2.4003   -1.5389 C   0  0  0  0  0  0  0  0  0  0  0  0
   -2.5983    2.1704   -0.3485 C   0  0  0  0  0  0  0  0  0  0  0  0
   -2.0484    1.3333    0.6519 C   0  0  0  0  0  0  0  0  0  0  0  0
   -0.2876    0.0885    1.1942 H   0  0  0  0  0  0  0  0  0  0  0  0
    1.0161    0.4008   -0.7443 H   0  0  0  0  0  0  0  0  0  0  0  0
   -2.2209    3.0178   -2.3588 H   0  0  0  0  0  0  0  0  0  0  0  0
   -3.5673    2.6376   -0.2094 H   0  0  0  0  0  0  0  0  0  0  0  0
    4.6645    1.6218   -0.4581 N   0  0  0  0  0  0  0  0  0  0  0  0
    5.4125    1.1660    0.2155 N   0  0  0  0  0  0  0  0  0  0  0  0
    2.3051   -0.2161    1.1970 B   0  0  0  0  0  0  0  0  0  0  0  0
    1.2014   -0.8785    1.7993 F   0  0  0  0  0  0  0  0  0  0  0  0
    2.1342    1.1613    1.3390 F   0  0  0  0  0  0  0  0  0  0  0  0
    3.4996   -0.6735    1.6809 F   0  0  0  0  0  0  0  0  0  0  0  0
    2.2274   -0.4946   -0.2381 F   0  0  0  0  0  0  0  0  0  0  0  0
   -2.7948    1.1752    1.7608 O   0  0  0  0  0  0  0  0  0  0  0  0
   -2.2675    0.3523    2.8121 C   0  0  0  0  0  0  0  0  0  0  0  0
   -3.0041    0.3966    3.6138 H   0  0  0  0  0  0  0  0  0  0  0  0
   -1.3045    0.7340    3.1661 H   0  0  0  0  0  0  0  0  0  0  0  0
   -2.1463   -0.6825    2.4745 H   0  0  0  0  0  0  0  0  0  0  0  0
  1  6  1  0  0  0  0
  1  7  1  0  0  0  0
  2  1  2  0  0  0  0
  3  2  1  0  0  0  0
  4  3  2  0  0  0  0
  4  5  1  0  0  0  0
  5 10  1  0  0  0  0
  5  6  2  0  0  0  0
  6 18  1  0  0  0  0
  8  2  1  0  0  0  0
  9  4  1  0  0  0  0
 11 12  3  0  0  0  0
 13 15  1  0  0  0  0
 13 16  1  0  0  0  0
 13 14  1  0  0  0  0
 17 13  1  0  0  0  0
 18 19  1  0  0  0  0
 19 21  1  0  0  0  0
 19 20  1  0  0  0  0
 22 19  1  0  0  0  0
M  RAD  1   3   2
M  END
