Coordinates from ORCA-job 4-MeO-Ph-N2-BF4-B3LYPG-6-31G_dp-MTMO-d009-169-n800
 OpenBabel09051908083D

 22 20  0  0  0  0  0  0  0  0999 V2000
   -0.5781    0.6333    0.7875 C   0  0  0  0  0  0  0  0  0  0  0  0
    0.5590    0.8473   -0.0832 C   0  0  0  0  0  0  0  0  0  0  0  0
    0.0982    1.7191   -0.9330 C   0  0  0  0  0  0  0  0  0  0  0  0
   -0.9396    2.4810   -1.3298 C   0  0  0  0  0  0  0  0  0  0  0  0
   -1.9908    2.2178   -0.4308 C   0  0  0  0  0  0  0  0  0  0  0  0
   -1.8028    1.2949    0.6261 C   0  0  0  0  0  0  0  0  0  0  0  0
   -0.3391   -0.0824    1.5779 H   0  0  0  0  0  0  0  0  0  0  0  0
    1.5232    0.3008    0.1529 H   0  0  0  0  0  0  0  0  0  0  0  0
   -0.9922    3.1628   -2.1669 H   0  0  0  0  0  0  0  0  0  0  0  0
   -2.9408    2.7264   -0.5567 H   0  0  0  0  0  0  0  0  0  0  0  0
    3.0033    2.4302   -3.2176 N   0  0  0  0  0  0  0  0  0  0  0  0
    3.9810    2.5254   -3.7236 N   0  0  0  0  0  0  0  0  0  0  0  0
    2.1890   -0.5170    2.2754 B   0  0  0  0  0  0  0  0  0  0  0  0
    0.9779   -1.2553    2.3259 F   0  0  0  0  0  0  0  0  0  0  0  0
    1.9165    0.8140    2.5862 F   0  0  0  0  0  0  0  0  0  0  0  0
    3.1646   -1.0793    3.0474 F   0  0  0  0  0  0  0  0  0  0  0  0
    2.6167   -0.5362    0.8685 F   0  0  0  0  0  0  0  0  0  0  0  0
   -2.8615    1.1142    1.4387 O   0  0  0  0  0  0  0  0  0  0  0  0
   -2.7064    0.2279    2.5556 C   0  0  0  0  0  0  0  0  0  0  0  0
   -3.6579    0.2582    3.0858 H   0  0  0  0  0  0  0  0  0  0  0  0
   -1.8993    0.5645    3.2149 H   0  0  0  0  0  0  0  0  0  0  0  0
   -2.5008   -0.7942    2.2202 H   0  0  0  0  0  0  0  0  0  0  0  0
  1  7  1  0  0  0  0
  2  8  1  0  0  0  0
  2  1  2  0  0  0  0
  3  2  1  0  0  0  0
  4  3  2  0  0  0  0
  4  5  1  0  0  0  0
  5  6  2  0  0  0  0
  6  1  1  0  0  0  0
  6 18  1  0  0  0  0
  9  4  1  0  0  0  0
 10  5  1  0  0  0  0
 12 11  3  0  0  0  0
 13 14  1  0  0  0  0
 13 15  1  0  0  0  0
 13 16  1  0  0  0  0
 17 13  1  0  0  0  0
 18 19  1  0  0  0  0
 19 20  1  0  0  0  0
 19 21  1  0  0  0  0
 22 19  1  0  0  0  0
M  RAD  1   3   2
M  END
