Coordinates from ORCA-job 4-MeO-Ph-N2-BF4-B3LYPG-6-31G_dp-MTMO-d009-169-n800
 OpenBabel09051908083D

 22 20  0  0  0  0  0  0  0  0999 V2000
   -0.7033    0.6700    0.5155 C   0  0  0  0  0  0  0  0  0  0  0  0
    0.1729    0.7952   -0.6317 C   0  0  0  0  0  0  0  0  0  0  0  0
   -0.4774    1.6425   -1.3769 C   0  0  0  0  0  0  0  0  0  0  0  0
   -1.5642    2.4242   -1.5289 C   0  0  0  0  0  0  0  0  0  0  0  0
   -2.3501    2.2451   -0.3744 C   0  0  0  0  0  0  0  0  0  0  0  0
   -1.9112    1.3675    0.6458 C   0  0  0  0  0  0  0  0  0  0  0  0
   -0.2765   -0.0130    1.2570 H   0  0  0  0  0  0  0  0  0  0  0  0
    1.1381    0.2129   -0.6226 H   0  0  0  0  0  0  0  0  0  0  0  0
   -1.8166    3.0695   -2.3587 H   0  0  0  0  0  0  0  0  0  0  0  0
   -3.2868    2.7834   -0.2768 H   0  0  0  0  0  0  0  0  0  0  0  0
    3.5658    2.0411   -0.7965 N   0  0  0  0  0  0  0  0  0  0  0  0
    4.5728    2.1266   -0.3503 N   0  0  0  0  0  0  0  0  0  0  0  0
    2.3151   -0.5186    1.3432 B   0  0  0  0  0  0  0  0  0  0  0  0
    1.1244   -1.1185    1.8367 F   0  0  0  0  0  0  0  0  0  0  0  0
    2.2396    0.8596    1.5500 F   0  0  0  0  0  0  0  0  0  0  0  0
    3.4327   -1.0961    1.8741 F   0  0  0  0  0  0  0  0  0  0  0  0
    2.3084   -0.7181   -0.1086 F   0  0  0  0  0  0  0  0  0  0  0  0
   -2.7196    1.2641    1.7176 O   0  0  0  0  0  0  0  0  0  0  0  0
   -2.3022    0.4110    2.7928 C   0  0  0  0  0  0  0  0  0  0  0  0
   -3.0721    0.5083    3.5579 H   0  0  0  0  0  0  0  0  0  0  0  0
   -1.3339    0.7280    3.1936 H   0  0  0  0  0  0  0  0  0  0  0  0
   -2.2357   -0.6312    2.4625 H   0  0  0  0  0  0  0  0  0  0  0  0
  1  6  1  0  0  0  0
  1  7  1  0  0  0  0
  2  8  1  0  0  0  0
  2  1  2  0  0  0  0
  3  2  1  0  0  0  0
  4  3  2  0  0  0  0
  4  5  1  0  0  0  0
  5 10  1  0  0  0  0
  5  6  2  0  0  0  0
  6 18  1  0  0  0  0
  9  4  1  0  0  0  0
 11 12  3  0  0  0  0
 13 15  1  0  0  0  0
 13 14  1  0  0  0  0
 13 16  1  0  0  0  0
 17 13  1  0  0  0  0
 18 19  1  0  0  0  0
 19 21  1  0  0  0  0
 19 20  1  0  0  0  0
 22 19  1  0  0  0  0
M  RAD  1   3   2
M  END
