Coordinates from ORCA-job 4-MeO-Ph-N2-BF4-B3LYPG-6-31G_dp-MTMO-d009-169-n800
 OpenBabel09051908083D

 22 20  0  0  0  0  0  0  0  0999 V2000
   -0.8686    0.7350    0.2791 C   0  0  0  0  0  0  0  0  0  0  0  0
   -0.4048    0.6334   -1.0896 C   0  0  0  0  0  0  0  0  0  0  0  0
   -1.3476    1.2472   -1.7450 C   0  0  0  0  0  0  0  0  0  0  0  0
   -2.5165    1.9153   -1.6985 C   0  0  0  0  0  0  0  0  0  0  0  0
   -2.8882    1.9699   -0.3412 C   0  0  0  0  0  0  0  0  0  0  0  0
   -2.0584    1.3799    0.6424 C   0  0  0  0  0  0  0  0  0  0  0  0
   -0.1661    0.2576    0.9676 H   0  0  0  0  0  0  0  0  0  0  0  0
    0.5826    0.1123   -1.2735 H   0  0  0  0  0  0  0  0  0  0  0  0
   -3.0846    2.3371   -2.5154 H   0  0  0  0  0  0  0  0  0  0  0  0
   -3.8112    2.4659   -0.0601 H   0  0  0  0  0  0  0  0  0  0  0  0
    4.8317    1.1814    3.0285 N   0  0  0  0  0  0  0  0  0  0  0  0
    5.5254    0.7909    2.2621 N   0  0  0  0  0  0  0  0  0  0  0  0
    2.3580   -0.1580    0.2976 B   0  0  0  0  0  0  0  0  0  0  0  0
    1.4429   -0.7182    1.2280 F   0  0  0  0  0  0  0  0  0  0  0  0
    2.2048    1.2262    0.2969 F   0  0  0  0  0  0  0  0  0  0  0  0
    3.6397   -0.5737    0.5314 F   0  0  0  0  0  0  0  0  0  0  0  0
    1.9345   -0.6257   -1.0277 F   0  0  0  0  0  0  0  0  0  0  0  0
   -2.4898    1.4875    1.9132 O   0  0  0  0  0  0  0  0  0  0  0  0
   -1.6611    0.9447    2.9518 C   0  0  0  0  0  0  0  0  0  0  0  0
   -2.1817    1.1641    3.8833 H   0  0  0  0  0  0  0  0  0  0  0  0
   -0.6748    1.4193    2.9542 H   0  0  0  0  0  0  0  0  0  0  0  0
   -1.5463   -0.1385    2.8363 H   0  0  0  0  0  0  0  0  0  0  0  0
  1  6  1  0  0  0  0
  1  7  1  0  0  0  0
  2  1  2  0  0  0  0
  3  4  2  0  0  0  0
  3  2  1  0  0  0  0
  4  5  1  0  0  0  0
  5 10  1  0  0  0  0
  5  6  2  0  0  0  0
  6 18  1  0  0  0  0
  8  2  1  0  0  0  0
  9  4  1  0  0  0  0
 12 11  3  0  0  0  0
 13 16  1  0  0  0  0
 13 14  1  0  0  0  0
 15 13  1  0  0  0  0
 17 13  1  0  0  0  0
 18 19  1  0  0  0  0
 19 21  1  0  0  0  0
 19 20  1  0  0  0  0
 22 19  1  0  0  0  0
M  RAD  1   3   2
M  END
