Coordinates from ORCA-job 4-MeO-Ph-N2-BF4-B3LYPG-6-31G_dp-MTMO-d009-169-n800
 OpenBabel09051908083D

 22 20  0  0  0  0  0  0  0  0999 V2000
   -0.9766    0.7925    0.2981 C   0  0  0  0  0  0  0  0  0  0  0  0
   -0.3889    0.7251   -1.0246 C   0  0  0  0  0  0  0  0  0  0  0  0
   -1.3362    1.2292   -1.7638 C   0  0  0  0  0  0  0  0  0  0  0  0
   -2.5708    1.7652   -1.8233 C   0  0  0  0  0  0  0  0  0  0  0  0
   -3.0590    1.7956   -0.5027 C   0  0  0  0  0  0  0  0  0  0  0  0
   -2.2537    1.3083    0.5545 C   0  0  0  0  0  0  0  0  0  0  0  0
   -0.2797    0.4118    1.0523 H   0  0  0  0  0  0  0  0  0  0  0  0
    0.6586    0.3186   -1.1057 H   0  0  0  0  0  0  0  0  0  0  0  0
   -3.1108    2.1123   -2.6929 H   0  0  0  0  0  0  0  0  0  0  0  0
   -4.0492    2.1932   -0.3075 H   0  0  0  0  0  0  0  0  0  0  0  0
    6.6614   -0.2191    2.5690 N   0  0  0  0  0  0  0  0  0  0  0  0
    6.4584    0.3225    1.6270 N   0  0  0  0  0  0  0  0  0  0  0  0
    2.2966    0.3217    0.6743 B   0  0  0  0  0  0  0  0  0  0  0  0
    1.3690   -0.2890    1.5652 F   0  0  0  0  0  0  0  0  0  0  0  0
    1.9798    1.6735    0.5617 F   0  0  0  0  0  0  0  0  0  0  0  0
    3.5889    0.0831    1.0554 F   0  0  0  0  0  0  0  0  0  0  0  0
    2.0605   -0.2746   -0.6405 F   0  0  0  0  0  0  0  0  0  0  0  0
   -2.7924    1.3814    1.7859 O   0  0  0  0  0  0  0  0  0  0  0  0
   -1.9969    0.9316    2.8936 C   0  0  0  0  0  0  0  0  0  0  0  0
   -2.6034    1.1148    3.7799 H   0  0  0  0  0  0  0  0  0  0  0  0
   -1.0597    1.4932    2.9574 H   0  0  0  0  0  0  0  0  0  0  0  0
   -1.7760   -0.1375    2.8080 H   0  0  0  0  0  0  0  0  0  0  0  0
  1  6  1  0  0  0  0
  1  7  1  0  0  0  0
  2  1  2  0  0  0  0
  3  2  1  0  0  0  0
  4  3  2  0  0  0  0
  4  5  1  0  0  0  0
  5 10  1  0  0  0  0
  5  6  2  0  0  0  0
  6 18  1  0  0  0  0
  8  2  1  0  0  0  0
  9  4  1  0  0  0  0
 12 11  3  0  0  0  0
 13 16  1  0  0  0  0
 13 14  1  0  0  0  0
 15 13  1  0  0  0  0
 17 13  1  0  0  0  0
 18 19  1  0  0  0  0
 19 21  1  0  0  0  0
 19 20  1  0  0  0  0
 22 19  1  0  0  0  0
M  RAD  1   3   2
M  END
