Coordinates from ORCA-job 4-MeO-Ph-N2-BF4-B3LYPG-6-31G_dp-MTMO-d009-169-n800
 OpenBabel09051908083D

 22 21  0  0  0  0  0  0  0  0999 V2000
   -0.4821    0.6239    0.7109 C   0  0  0  0  0  0  0  0  0  0  0  0
    0.6319    0.8302   -0.1291 C   0  0  0  0  0  0  0  0  0  0  0  0
    0.3441    1.7484   -1.0694 C   0  0  0  0  0  0  0  0  0  0  0  0
   -0.7391    2.5195   -1.4021 C   0  0  0  0  0  0  0  0  0  0  0  0
   -1.8059    2.2687   -0.5402 C   0  0  0  0  0  0  0  0  0  0  0  0
   -1.6787    1.3303    0.5135 C   0  0  0  0  0  0  0  0  0  0  0  0
   -0.3091   -0.0871    1.5164 H   0  0  0  0  0  0  0  0  0  0  0  0
    1.5704    0.2774    0.0502 H   0  0  0  0  0  0  0  0  0  0  0  0
   -0.7824    3.2306   -2.2152 H   0  0  0  0  0  0  0  0  0  0  0  0
   -2.7420    2.8011   -0.6676 H   0  0  0  0  0  0  0  0  0  0  0  0
    1.8517    2.0834   -2.1783 N   0  0  0  0  0  0  0  0  0  0  0  0
    2.7999    2.2098   -2.7308 N   0  0  0  0  0  0  0  0  0  0  0  0
    2.3666   -0.4821    2.1912 B   0  0  0  0  0  0  0  0  0  0  0  0
    1.1245   -1.1470    2.3810 F   0  0  0  0  0  0  0  0  0  0  0  0
    2.1591    0.8979    2.3368 F   0  0  0  0  0  0  0  0  0  0  0  0
    3.3308   -0.9676    3.0379 F   0  0  0  0  0  0  0  0  0  0  0  0
    2.7566   -0.7038    0.8147 F   0  0  0  0  0  0  0  0  0  0  0  0
   -2.7695    1.1855    1.2858 O   0  0  0  0  0  0  0  0  0  0  0  0
   -2.7006    0.2762    2.3932 C   0  0  0  0  0  0  0  0  0  0  0  0
   -3.6731    0.3384    2.8808 H   0  0  0  0  0  0  0  0  0  0  0  0
   -1.9107    0.5676    3.0927 H   0  0  0  0  0  0  0  0  0  0  0  0
   -2.5225   -0.7479    2.0489 H   0  0  0  0  0  0  0  0  0  0  0  0
  1  7  1  0  0  0  0
  2  8  1  0  0  0  0
  2  1  2  0  0  0  0
  3  2  1  0  0  0  0
  4  3  2  0  0  0  0
  4  5  1  0  0  0  0
  5  6  2  0  0  0  0
  6  1  1  0  0  0  0
  6 18  1  0  0  0  0
  9  4  1  0  0  0  0
 10  5  1  0  0  0  0
 11  3  1  0  0  0  0
 12 11  1  0  0  0  0
 13 15  1  0  0  0  0
 13 14  1  0  0  0  0
 13 16  1  0  0  0  0
 17 13  1  0  0  0  0
 18 19  1  0  0  0  0
 19 20  1  0  0  0  0
 19 21  1  0  0  0  0
 22 19  1  0  0  0  0
M  RAD  2  11   2  12   3
M  END
