Coordinates from ORCA-job 4-MeO-Ph-N2-BF4-B3LYPG-6-31G_dp-MTMO-d009-169-n800
 OpenBabel09051908083D

 22 20  0  0  0  0  0  0  0  0999 V2000
   -1.4807    0.9114    0.1849 C   0  0  0  0  0  0  0  0  0  0  0  0
   -0.8969    0.8680   -1.1404 C   0  0  0  0  0  0  0  0  0  0  0  0
   -1.8777    1.2909   -1.8849 C   0  0  0  0  0  0  0  0  0  0  0  0
   -3.1477    1.7359   -1.9498 C   0  0  0  0  0  0  0  0  0  0  0  0
   -3.6307    1.7520   -0.6270 C   0  0  0  0  0  0  0  0  0  0  0  0
   -2.7905    1.3410    0.4355 C   0  0  0  0  0  0  0  0  0  0  0  0
   -0.7588    0.5929    0.9420 H   0  0  0  0  0  0  0  0  0  0  0  0
    0.1851    0.5483   -1.2288 H   0  0  0  0  0  0  0  0  0  0  0  0
   -3.7153    2.0281   -2.8219 H   0  0  0  0  0  0  0  0  0  0  0  0
   -4.6461    2.0811   -0.4334 H   0  0  0  0  0  0  0  0  0  0  0  0
   11.8147   -0.9546    3.7015 N   0  0  0  0  0  0  0  0  0  0  0  0
   11.5813   -1.8954    3.1705 N   0  0  0  0  0  0  0  0  0  0  0  0
    1.8276    0.7121    0.4971 B   0  0  0  0  0  0  0  0  0  0  0  0
    0.9813   -0.0282    1.3657 F   0  0  0  0  0  0  0  0  0  0  0  0
    1.3627    2.0242    0.4309 F   0  0  0  0  0  0  0  0  0  0  0  0
    3.1416    0.6050    0.8514 F   0  0  0  0  0  0  0  0  0  0  0  0
    1.6408    0.1359   -0.8414 F   0  0  0  0  0  0  0  0  0  0  0  0
   -3.3324    1.3995    1.6669 O   0  0  0  0  0  0  0  0  0  0  0  0
   -2.5036    1.0409    2.7826 C   0  0  0  0  0  0  0  0  0  0  0  0
   -3.1204    1.2017    3.6662 H   0  0  0  0  0  0  0  0  0  0  0  0
   -1.6113    1.6735    2.8282 H   0  0  0  0  0  0  0  0  0  0  0  0
   -2.2032   -0.0105    2.7255 H   0  0  0  0  0  0  0  0  0  0  0  0
  1  6  1  0  0  0  0
  1  7  1  0  0  0  0
  2  1  2  0  0  0  0
  3  2  1  0  0  0  0
  4  3  2  0  0  0  0
  4  5  1  0  0  0  0
  5 10  1  0  0  0  0
  5  6  2  0  0  0  0
  6 18  1  0  0  0  0
  8  2  1  0  0  0  0
  9  4  1  0  0  0  0
 12 11  3  0  0  0  0
 13 16  1  0  0  0  0
 13 14  1  0  0  0  0
 15 13  1  0  0  0  0
 17 13  1  0  0  0  0
 18 19  1  0  0  0  0
 19 21  1  0  0  0  0
 19 20  1  0  0  0  0
 22 19  1  0  0  0  0
M  RAD  1   3   2
M  END
