Coordinates from ORCA-job 4-MeO-Ph-N2-BF4-B3LYPG-6-31G_dp-MTMO-d009-169-n800
 OpenBabel09051908083D

 22 20  0  0  0  0  0  0  0  0999 V2000
   -0.8452    0.6933    0.3927 C   0  0  0  0  0  0  0  0  0  0  0  0
   -0.1738    0.7503   -0.8896 C   0  0  0  0  0  0  0  0  0  0  0  0
   -0.9704    1.5131   -1.5818 C   0  0  0  0  0  0  0  0  0  0  0  0
   -2.0967    2.2517   -1.6127 C   0  0  0  0  0  0  0  0  0  0  0  0
   -2.6761    2.1452   -0.3334 C   0  0  0  0  0  0  0  0  0  0  0  0
   -2.0431    1.3672    0.6655 C   0  0  0  0  0  0  0  0  0  0  0  0
   -0.2868    0.0752    1.1011 H   0  0  0  0  0  0  0  0  0  0  0  0
    0.8041    0.1949   -0.9972 H   0  0  0  0  0  0  0  0  0  0  0  0
   -2.5069    2.8204   -2.4351 H   0  0  0  0  0  0  0  0  0  0  0  0
   -3.6065    2.6626   -0.1247 H   0  0  0  0  0  0  0  0  0  0  0  0
    4.8808    2.1237    0.7997 N   0  0  0  0  0  0  0  0  0  0  0  0
    5.4877    1.3087    1.2339 N   0  0  0  0  0  0  0  0  0  0  0  0
    2.2777   -0.4092    0.7839 B   0  0  0  0  0  0  0  0  0  0  0  0
    1.2072   -1.0510    1.4595 F   0  0  0  0  0  0  0  0  0  0  0  0
    2.1591    0.9694    0.9672 F   0  0  0  0  0  0  0  0  0  0  0  0
    3.4937   -0.9082    1.1594 F   0  0  0  0  0  0  0  0  0  0  0  0
    2.0730   -0.6577   -0.6464 F   0  0  0  0  0  0  0  0  0  0  0  0
   -2.6632    1.3309    1.8598 O   0  0  0  0  0  0  0  0  0  0  0  0
   -2.0312    0.6013    2.9221 C   0  0  0  0  0  0  0  0  0  0  0  0
   -2.6756    0.7348    3.7904 H   0  0  0  0  0  0  0  0  0  0  0  0
   -1.0333    1.0001    3.1315 H   0  0  0  0  0  0  0  0  0  0  0  0
   -1.9546   -0.4631    2.6755 H   0  0  0  0  0  0  0  0  0  0  0  0
  1  6  1  0  0  0  0
  1  7  1  0  0  0  0
  2  1  2  0  0  0  0
  3  2  1  0  0  0  0
  4  3  2  0  0  0  0
  4  5  1  0  0  0  0
  5 10  1  0  0  0  0
  5  6  2  0  0  0  0
  6 18  1  0  0  0  0
  8  2  1  0  0  0  0
  9  4  1  0  0  0  0
 11 12  3  0  0  0  0
 13 15  1  0  0  0  0
 13 16  1  0  0  0  0
 13 14  1  0  0  0  0
 17 13  1  0  0  0  0
 18 19  1  0  0  0  0
 19 21  1  0  0  0  0
 19 20  1  0  0  0  0
 22 19  1  0  0  0  0
M  RAD  1   3   2
M  END
