Coordinates from ORCA-job 4-MeO-Ph-N2-BF4-B3LYPG-6-31G_dp-MTMO-d009-169-n800
 OpenBabel09051908083D

 22 20  0  0  0  0  0  0  0  0999 V2000
   -0.8530    0.7056    0.3388 C   0  0  0  0  0  0  0  0  0  0  0  0
   -0.2814    0.7010   -0.9922 C   0  0  0  0  0  0  0  0  0  0  0  0
   -1.1470    1.4042   -1.6647 C   0  0  0  0  0  0  0  0  0  0  0  0
   -2.2821    2.1295   -1.6482 C   0  0  0  0  0  0  0  0  0  0  0  0
   -2.7605    2.0877   -0.3242 C   0  0  0  0  0  0  0  0  0  0  0  0
   -2.0387    1.3775    0.6649 C   0  0  0  0  0  0  0  0  0  0  0  0
   -0.2371    0.1274    1.0324 H   0  0  0  0  0  0  0  0  0  0  0  0
    0.6959    0.1529   -1.1456 H   0  0  0  0  0  0  0  0  0  0  0  0
   -2.7626    2.6472   -2.4662 H   0  0  0  0  0  0  0  0  0  0  0  0
   -3.6821    2.6021   -0.0734 H   0  0  0  0  0  0  0  0  0  0  0  0
    4.8696    2.0529    1.6661 N   0  0  0  0  0  0  0  0  0  0  0  0
    5.4195    1.1154    1.8658 N   0  0  0  0  0  0  0  0  0  0  0  0
    2.2993   -0.3868    0.5420 B   0  0  0  0  0  0  0  0  0  0  0  0
    1.2645   -1.0176    1.2808 F   0  0  0  0  0  0  0  0  0  0  0  0
    2.1988    0.9928    0.7210 F   0  0  0  0  0  0  0  0  0  0  0  0
    3.5310   -0.8924    0.8520 F   0  0  0  0  0  0  0  0  0  0  0  0
    2.0117   -0.6478   -0.8725 F   0  0  0  0  0  0  0  0  0  0  0  0
   -2.5657    1.4004    1.9035 O   0  0  0  0  0  0  0  0  0  0  0  0
   -1.8405    0.7443    2.9539 C   0  0  0  0  0  0  0  0  0  0  0  0
   -2.4227    0.9137    3.8590 H   0  0  0  0  0  0  0  0  0  0  0  0
   -0.8400    1.1744    3.0668 H   0  0  0  0  0  0  0  0  0  0  0  0
   -1.7569   -0.3308    2.7612 H   0  0  0  0  0  0  0  0  0  0  0  0
  1  6  1  0  0  0  0
  1  7  1  0  0  0  0
  2  1  2  0  0  0  0
  3  4  2  0  0  0  0
  3  2  1  0  0  0  0
  4  5  1  0  0  0  0
  5 10  1  0  0  0  0
  5  6  2  0  0  0  0
  6 18  1  0  0  0  0
  8  2  1  0  0  0  0
  9  4  1  0  0  0  0
 11 12  3  0  0  0  0
 13 15  1  0  0  0  0
 13 16  1  0  0  0  0
 13 14  1  0  0  0  0
 17 13  1  0  0  0  0
 18 19  1  0  0  0  0
 19 21  1  0  0  0  0
 19 20  1  0  0  0  0
 22 19  1  0  0  0  0
M  RAD  1   3   2
M  END
