Coordinates from ORCA-job 4-MeO-Ph-N2-BF4-B3LYPG-6-31G_dp-MTMO-d009-169-n800
 OpenBabel09051908083D

 22 20  0  0  0  0  0  0  0  0999 V2000
   -1.2158    0.8621    0.2494 C   0  0  0  0  0  0  0  0  0  0  0  0
   -0.6286    0.8190   -1.0744 C   0  0  0  0  0  0  0  0  0  0  0  0
   -1.6078    1.2403   -1.8217 C   0  0  0  0  0  0  0  0  0  0  0  0
   -2.8783    1.6836   -1.8904 C   0  0  0  0  0  0  0  0  0  0  0  0
   -3.3648    1.6996   -0.5688 C   0  0  0  0  0  0  0  0  0  0  0  0
   -2.5269    1.2901    0.4962 C   0  0  0  0  0  0  0  0  0  0  0  0
   -0.4957    0.5449    1.0086 H   0  0  0  0  0  0  0  0  0  0  0  0
    0.4541    0.5006   -1.1602 H   0  0  0  0  0  0  0  0  0  0  0  0
   -3.4440    1.9746   -2.7640 H   0  0  0  0  0  0  0  0  0  0  0  0
   -4.3811    2.0274   -0.3781 H   0  0  0  0  0  0  0  0  0  0  0  0
    9.1707   -0.4576    3.0603 N   0  0  0  0  0  0  0  0  0  0  0  0
    8.9420   -1.3983    2.5270 N   0  0  0  0  0  0  0  0  0  0  0  0
    2.0929    0.6648    0.5685 B   0  0  0  0  0  0  0  0  0  0  0  0
    1.2444   -0.0765    1.4343 F   0  0  0  0  0  0  0  0  0  0  0  0
    1.6277    1.9767    0.5021 F   0  0  0  0  0  0  0  0  0  0  0  0
    3.4059    0.5579    0.9267 F   0  0  0  0  0  0  0  0  0  0  0  0
    1.9098    0.0896   -0.7708 F   0  0  0  0  0  0  0  0  0  0  0  0
   -3.0724    1.3483    1.7260 O   0  0  0  0  0  0  0  0  0  0  0  0
   -2.2465    0.9909    2.8442 C   0  0  0  0  0  0  0  0  0  0  0  0
   -2.8661    1.1510    3.7260 H   0  0  0  0  0  0  0  0  0  0  0  0
   -1.3551    1.6247    2.8923 H   0  0  0  0  0  0  0  0  0  0  0  0
   -1.9445   -0.0602    2.7881 H   0  0  0  0  0  0  0  0  0  0  0  0
  1  6  1  0  0  0  0
  1  7  1  0  0  0  0
  2  1  2  0  0  0  0
  3  2  1  0  0  0  0
  4  3  2  0  0  0  0
  4  5  1  0  0  0  0
  5 10  1  0  0  0  0
  5  6  2  0  0  0  0
  6 18  1  0  0  0  0
  8  2  1  0  0  0  0
  9  4  1  0  0  0  0
 12 11  3  0  0  0  0
 13 16  1  0  0  0  0
 13 14  1  0  0  0  0
 15 13  1  0  0  0  0
 17 13  1  0  0  0  0
 18 19  1  0  0  0  0
 19 21  1  0  0  0  0
 19 20  1  0  0  0  0
 22 19  1  0  0  0  0
M  RAD  1   3   2
M  END
