Coordinates from ORCA-job 4-MeO-Ph-N2-BF4-B3LYPG-6-31G_dp-MTMO-d009-169-n800
 OpenBabel09051908083D

 22 20  0  0  0  0  0  0  0  0999 V2000
   -1.5897    0.9308    0.1585 C   0  0  0  0  0  0  0  0  0  0  0  0
   -1.0065    0.8858   -1.1671 C   0  0  0  0  0  0  0  0  0  0  0  0
   -1.9846    1.3169   -1.9103 C   0  0  0  0  0  0  0  0  0  0  0  0
   -3.2516    1.7708   -1.9740 C   0  0  0  0  0  0  0  0  0  0  0  0
   -3.7341    1.7878   -0.6510 C   0  0  0  0  0  0  0  0  0  0  0  0
   -2.8963    1.3690    0.4105 C   0  0  0  0  0  0  0  0  0  0  0  0
   -0.8695    0.6060    0.9147 H   0  0  0  0  0  0  0  0  0  0  0  0
    0.0732    0.5587   -1.2560 H   0  0  0  0  0  0  0  0  0  0  0  0
   -3.8174    2.0685   -2.8453 H   0  0  0  0  0  0  0  0  0  0  0  0
   -4.7471    2.1234   -0.4564 H   0  0  0  0  0  0  0  0  0  0  0  0
   12.8911   -1.1383    3.9589 N   0  0  0  0  0  0  0  0  0  0  0  0
   12.6594   -2.0773    3.4239 N   0  0  0  0  0  0  0  0  0  0  0  0
    1.7166    0.7094    0.4711 B   0  0  0  0  0  0  0  0  0  0  0  0
    0.8656   -0.0255    1.3400 F   0  0  0  0  0  0  0  0  0  0  0  0
    1.2601    2.0246    0.4055 F   0  0  0  0  0  0  0  0  0  0  0  0
    3.0299    0.5936    0.8251 F   0  0  0  0  0  0  0  0  0  0  0  0
    1.5257    0.1349   -0.8674 F   0  0  0  0  0  0  0  0  0  0  0  0
   -3.4373    1.4288    1.6422 O   0  0  0  0  0  0  0  0  0  0  0  0
   -2.6105    1.0623    2.7568 C   0  0  0  0  0  0  0  0  0  0  0  0
   -3.2258    1.2257    3.6410 H   0  0  0  0  0  0  0  0  0  0  0  0
   -1.7138    1.6886    2.8032 H   0  0  0  0  0  0  0  0  0  0  0  0
   -2.3174    0.0089    2.6975 H   0  0  0  0  0  0  0  0  0  0  0  0
  1  6  1  0  0  0  0
  1  7  1  0  0  0  0
  2  1  2  0  0  0  0
  3  2  1  0  0  0  0
  4  3  2  0  0  0  0
  4  5  1  0  0  0  0
  5 10  1  0  0  0  0
  5  6  2  0  0  0  0
  6 18  1  0  0  0  0
  8  2  1  0  0  0  0
  9  4  1  0  0  0  0
 12 11  3  0  0  0  0
 13 16  1  0  0  0  0
 13 14  1  0  0  0  0
 15 13  1  0  0  0  0
 17 13  1  0  0  0  0
 18 19  1  0  0  0  0
 19 21  1  0  0  0  0
 19 20  1  0  0  0  0
 22 19  1  0  0  0  0
M  RAD  1   3   2
M  END
