Coordinates from ORCA-job 4-MeO-Ph-N2-BF4-B3LYPG-6-31G_dp-MTMO-d009-169-n800
 OpenBabel09051908083D

 22 20  0  0  0  0  0  0  0  0999 V2000
   -1.1945    0.8511    0.2523 C   0  0  0  0  0  0  0  0  0  0  0  0
   -0.6086    0.8035   -1.0720 C   0  0  0  0  0  0  0  0  0  0  0  0
   -1.5776    1.2547   -1.8152 C   0  0  0  0  0  0  0  0  0  0  0  0
   -2.8368    1.7299   -1.8794 C   0  0  0  0  0  0  0  0  0  0  0  0
   -3.3225    1.7477   -0.5576 C   0  0  0  0  0  0  0  0  0  0  0  0
   -2.4944    1.3092    0.5036 C   0  0  0  0  0  0  0  0  0  0  0  0
   -0.4817    0.5102    1.0083 H   0  0  0  0  0  0  0  0  0  0  0  0
    0.4651    0.4580   -1.1597 H   0  0  0  0  0  0  0  0  0  0  0  0
   -3.3952    2.0419   -2.7505 H   0  0  0  0  0  0  0  0  0  0  0  0
   -4.3304    2.0988   -0.3638 H   0  0  0  0  0  0  0  0  0  0  0  0
    8.9040   -0.2818    2.9921 N   0  0  0  0  0  0  0  0  0  0  0  0
    8.6987   -1.2337    2.4693 N   0  0  0  0  0  0  0  0  0  0  0  0
    2.1055    0.5680    0.5750 B   0  0  0  0  0  0  0  0  0  0  0  0
    1.2381   -0.1551    1.4376 F   0  0  0  0  0  0  0  0  0  0  0  0
    1.6735    1.8917    0.5144 F   0  0  0  0  0  0  0  0  0  0  0  0
    3.4151    0.4265    0.9337 F   0  0  0  0  0  0  0  0  0  0  0  0
    1.9093    0.0037   -0.7666 F   0  0  0  0  0  0  0  0  0  0  0  0
   -3.0374    1.3709    1.7343 O   0  0  0  0  0  0  0  0  0  0  0  0
   -2.2196    0.9842    2.8487 C   0  0  0  0  0  0  0  0  0  0  0  0
   -2.8344    1.1519    3.7324 H   0  0  0  0  0  0  0  0  0  0  0  0
   -1.3131    1.5956    2.9011 H   0  0  0  0  0  0  0  0  0  0  0  0
   -1.9433   -0.0734    2.7835 H   0  0  0  0  0  0  0  0  0  0  0  0
  1  6  1  0  0  0  0
  1  7  1  0  0  0  0
  2  1  2  0  0  0  0
  3  2  1  0  0  0  0
  4  3  2  0  0  0  0
  4  5  1  0  0  0  0
  5 10  1  0  0  0  0
  5  6  2  0  0  0  0
  6 18  1  0  0  0  0
  8  2  1  0  0  0  0
  9  4  1  0  0  0  0
 12 11  3  0  0  0  0
 13 16  1  0  0  0  0
 13 14  1  0  0  0  0
 15 13  1  0  0  0  0
 17 13  1  0  0  0  0
 18 19  1  0  0  0  0
 19 21  1  0  0  0  0
 19 20  1  0  0  0  0
 22 19  1  0  0  0  0
M  RAD  1   3   2
M  END
