Coordinates from ORCA-job 4-MeO-Ph-N2-BF4-B3LYPG-6-31G_dp-MTMO-d009-169-n800
 OpenBabel09051908083D

 22 20  0  0  0  0  0  0  0  0999 V2000
   -0.7147    0.6891    0.5101 C   0  0  0  0  0  0  0  0  0  0  0  0
    0.1527    0.8272   -0.6427 C   0  0  0  0  0  0  0  0  0  0  0  0
   -0.5225    1.6533   -1.3897 C   0  0  0  0  0  0  0  0  0  0  0  0
   -1.6235    2.4162   -1.5360 C   0  0  0  0  0  0  0  0  0  0  0  0
   -2.3984    2.2272   -0.3757 C   0  0  0  0  0  0  0  0  0  0  0  0
   -1.9352    1.3631    0.6455 C   0  0  0  0  0  0  0  0  0  0  0  0
   -0.2734    0.0110    1.2480 H   0  0  0  0  0  0  0  0  0  0  0  0
    1.1260    0.2590   -0.6384 H   0  0  0  0  0  0  0  0  0  0  0  0
   -1.8924    3.0545   -2.3659 H   0  0  0  0  0  0  0  0  0  0  0  0
   -3.3447    2.7475   -0.2744 H   0  0  0  0  0  0  0  0  0  0  0  0
    3.7411    1.9746   -0.7429 N   0  0  0  0  0  0  0  0  0  0  0  0
    4.7409    2.0038   -0.2738 N   0  0  0  0  0  0  0  0  0  0  0  0
    2.3082   -0.4871    1.3241 B   0  0  0  0  0  0  0  0  0  0  0  0
    1.1220   -1.0995    1.8143 F   0  0  0  0  0  0  0  0  0  0  0  0
    2.2229    0.8885    1.5431 F   0  0  0  0  0  0  0  0  0  0  0  0
    3.4303   -1.0613    1.8496 F   0  0  0  0  0  0  0  0  0  0  0  0
    2.3014   -0.6741   -0.1288 F   0  0  0  0  0  0  0  0  0  0  0  0
   -2.7342    1.2480    1.7229 O   0  0  0  0  0  0  0  0  0  0  0  0
   -2.2924    0.4078    2.7989 C   0  0  0  0  0  0  0  0  0  0  0  0
   -3.0600    0.4914    3.5679 H   0  0  0  0  0  0  0  0  0  0  0  0
   -1.3289    0.7471    3.1930 H   0  0  0  0  0  0  0  0  0  0  0  0
   -2.2051   -0.6338    2.4719 H   0  0  0  0  0  0  0  0  0  0  0  0
  1  6  1  0  0  0  0
  1  7  1  0  0  0  0
  2  8  1  0  0  0  0
  2  1  2  0  0  0  0
  3  2  1  0  0  0  0
  4  3  2  0  0  0  0
  4  5  1  0  0  0  0
  5 10  1  0  0  0  0
  5  6  2  0  0  0  0
  6 18  1  0  0  0  0
  9  4  1  0  0  0  0
 11 12  3  0  0  0  0
 13 15  1  0  0  0  0
 13 14  1  0  0  0  0
 13 16  1  0  0  0  0
 17 13  1  0  0  0  0
 18 19  1  0  0  0  0
 19 21  1  0  0  0  0
 19 20  1  0  0  0  0
 22 19  1  0  0  0  0
M  RAD  1   3   2
M  END
