Coordinates from ORCA-job 4-MeO-Ph-N2-BF4-B3LYPG-6-31G_dp-MTMO-d009-169-n800
 OpenBabel09051908083D

 22 20  0  0  0  0  0  0  0  0999 V2000
   -0.8718    0.7373    0.2782 C   0  0  0  0  0  0  0  0  0  0  0  0
   -0.4080    0.6347   -1.0901 C   0  0  0  0  0  0  0  0  0  0  0  0
   -1.3528    1.2436   -1.7473 C   0  0  0  0  0  0  0  0  0  0  0  0
   -2.5243    1.9073   -1.7022 C   0  0  0  0  0  0  0  0  0  0  0  0
   -2.8961    1.9633   -0.3450 C   0  0  0  0  0  0  0  0  0  0  0  0
   -2.0642    1.3786    0.6399 C   0  0  0  0  0  0  0  0  0  0  0  0
   -0.1679    0.2642    0.9680 H   0  0  0  0  0  0  0  0  0  0  0  0
    0.5815    0.1167   -1.2726 H   0  0  0  0  0  0  0  0  0  0  0  0
   -3.0940    2.3253   -2.5199 H   0  0  0  0  0  0  0  0  0  0  0  0
   -3.8210    2.4565   -0.0651 H   0  0  0  0  0  0  0  0  0  0  0  0
    4.8786    1.1304    3.0563 N   0  0  0  0  0  0  0  0  0  0  0  0
    5.5541    0.7826    2.2540 N   0  0  0  0  0  0  0  0  0  0  0  0
    2.3588   -0.1448    0.2997 B   0  0  0  0  0  0  0  0  0  0  0  0
    1.4452   -0.7048    1.2315 F   0  0  0  0  0  0  0  0  0  0  0  0
    2.2043    1.2390    0.2968 F   0  0  0  0  0  0  0  0  0  0  0  0
    3.6411   -0.5593    0.5327 F   0  0  0  0  0  0  0  0  0  0  0  0
    1.9349   -0.6153   -1.0247 F   0  0  0  0  0  0  0  0  0  0  0  0
   -2.4963    1.4871    1.9105 O   0  0  0  0  0  0  0  0  0  0  0  0
   -1.6660    0.9492    2.9503 C   0  0  0  0  0  0  0  0  0  0  0  0
   -2.1876    1.1685    3.8813 H   0  0  0  0  0  0  0  0  0  0  0  0
   -0.6813    1.4272    2.9522 H   0  0  0  0  0  0  0  0  0  0  0  0
   -1.5473   -0.1338    2.8368 H   0  0  0  0  0  0  0  0  0  0  0  0
  1  6  1  0  0  0  0
  1  7  1  0  0  0  0
  2  1  2  0  0  0  0
  3  4  2  0  0  0  0
  3  2  1  0  0  0  0
  4  5  1  0  0  0  0
  5 10  1  0  0  0  0
  5  6  2  0  0  0  0
  6 18  1  0  0  0  0
  8  2  1  0  0  0  0
  9  4  1  0  0  0  0
 12 11  3  0  0  0  0
 13 16  1  0  0  0  0
 13 14  1  0  0  0  0
 15 13  1  0  0  0  0
 17 13  1  0  0  0  0
 18 19  1  0  0  0  0
 19 21  1  0  0  0  0
 19 20  1  0  0  0  0
 22 19  1  0  0  0  0
M  RAD  1   3   2
M  END
