Coordinates from ORCA-job 4-MeO-Ph-N2-BF4-B3LYPG-6-31G_dp-MTMO-d009-169-n800
 OpenBabel09051908083D

 22 20  0  0  0  0  0  0  0  0999 V2000
   -0.4853    0.6489    0.7270 C   0  0  0  0  0  0  0  0  0  0  0  0
    0.6455    0.8559   -0.1197 C   0  0  0  0  0  0  0  0  0  0  0  0
    0.2760    1.7400   -1.0295 C   0  0  0  0  0  0  0  0  0  0  0  0
   -0.7771    2.5011   -1.4159 C   0  0  0  0  0  0  0  0  0  0  0  0
   -1.8432    2.2468   -0.5398 C   0  0  0  0  0  0  0  0  0  0  0  0
   -1.6957    1.3284    0.5266 C   0  0  0  0  0  0  0  0  0  0  0  0
   -0.2885   -0.0615    1.5297 H   0  0  0  0  0  0  0  0  0  0  0  0
    1.5996    0.3171    0.0924 H   0  0  0  0  0  0  0  0  0  0  0  0
   -0.8216    3.1894   -2.2472 H   0  0  0  0  0  0  0  0  0  0  0  0
   -2.7860    2.7641   -0.6823 H   0  0  0  0  0  0  0  0  0  0  0  0
    2.0115    2.1512   -2.3542 N   0  0  0  0  0  0  0  0  0  0  0  0
    2.9777    2.2488   -2.8791 N   0  0  0  0  0  0  0  0  0  0  0  0
    2.3126   -0.5125    2.2096 B   0  0  0  0  0  0  0  0  0  0  0  0
    1.0966   -1.2431    2.2661 F   0  0  0  0  0  0  0  0  0  0  0  0
    2.0390    0.8311    2.4859 F   0  0  0  0  0  0  0  0  0  0  0  0
    3.2685   -1.0513    3.0284 F   0  0  0  0  0  0  0  0  0  0  0  0
    2.7648   -0.5706    0.8242 F   0  0  0  0  0  0  0  0  0  0  0  0
   -2.7808    1.1717    1.3087 O   0  0  0  0  0  0  0  0  0  0  0  0
   -2.6786    0.2878    2.4329 C   0  0  0  0  0  0  0  0  0  0  0  0
   -3.6471    0.3360    2.9300 H   0  0  0  0  0  0  0  0  0  0  0  0
   -1.8894    0.6134    3.1186 H   0  0  0  0  0  0  0  0  0  0  0  0
   -2.4787   -0.7391    2.1088 H   0  0  0  0  0  0  0  0  0  0  0  0
  1  7  1  0  0  0  0
  2  8  1  0  0  0  0
  2  1  2  0  0  0  0
  3  2  1  0  0  0  0
  4  3  2  0  0  0  0
  4  5  1  0  0  0  0
  5  6  2  0  0  0  0
  6  1  1  0  0  0  0
  6 18  1  0  0  0  0
  9  4  1  0  0  0  0
 10  5  1  0  0  0  0
 12 11  3  0  0  0  0
 13 14  1  0  0  0  0
 13 15  1  0  0  0  0
 13 16  1  0  0  0  0
 17 13  1  0  0  0  0
 18 19  1  0  0  0  0
 19 20  1  0  0  0  0
 19 21  1  0  0  0  0
 22 19  1  0  0  0  0
M  RAD  1   3   2
M  END
