Coordinates from ORCA-job 4-MeO-Ph-N2-BF4-B3LYPG-6-31G_dp-MTMO-d009-169-n800
 OpenBabel09051908083D

 22 20  0  0  0  0  0  0  0  0999 V2000
   -0.7105    0.6828    0.5126 C   0  0  0  0  0  0  0  0  0  0  0  0
    0.1607    0.8177   -0.6373 C   0  0  0  0  0  0  0  0  0  0  0  0
   -0.5054    1.6518   -1.3837 C   0  0  0  0  0  0  0  0  0  0  0  0
   -1.6018    2.4206   -1.5326 C   0  0  0  0  0  0  0  0  0  0  0  0
   -2.3813    2.2336   -0.3748 C   0  0  0  0  0  0  0  0  0  0  0  0
   -1.9271    1.3644    0.6457 C   0  0  0  0  0  0  0  0  0  0  0  0
   -0.2746    0.0031    1.2520 H   0  0  0  0  0  0  0  0  0  0  0  0
    1.1315    0.2451   -0.6311 H   0  0  0  0  0  0  0  0  0  0  0  0
   -1.8651    3.0615   -2.3623 H   0  0  0  0  0  0  0  0  0  0  0  0
   -3.3248    2.7595   -0.2750 H   0  0  0  0  0  0  0  0  0  0  0  0
    3.6797    1.9917   -0.7656 N   0  0  0  0  0  0  0  0  0  0  0  0
    4.6844    2.0402   -0.3086 N   0  0  0  0  0  0  0  0  0  0  0  0
    2.3105   -0.4957    1.3323 B   0  0  0  0  0  0  0  0  0  0  0  0
    1.1242   -1.1067    1.8227 F   0  0  0  0  0  0  0  0  0  0  0  0
    2.2252    0.8806    1.5472 F   0  0  0  0  0  0  0  0  0  0  0  0
    3.4325   -1.0682    1.8598 F   0  0  0  0  0  0  0  0  0  0  0  0
    2.3050   -0.6869   -0.1205 F   0  0  0  0  0  0  0  0  0  0  0  0
   -2.7303    1.2524    1.7206 O   0  0  0  0  0  0  0  0  0  0  0  0
   -2.2973    0.4071    2.7960 C   0  0  0  0  0  0  0  0  0  0  0  0
   -3.0665    0.4944    3.5631 H   0  0  0  0  0  0  0  0  0  0  0  0
   -1.3327    0.7390    3.1935 H   0  0  0  0  0  0  0  0  0  0  0  0
   -2.2164   -0.6345    2.4672 H   0  0  0  0  0  0  0  0  0  0  0  0
  1  6  1  0  0  0  0
  1  7  1  0  0  0  0
  2  8  1  0  0  0  0
  2  1  2  0  0  0  0
  3  2  1  0  0  0  0
  4  3  2  0  0  0  0
  4  5  1  0  0  0  0
  5 10  1  0  0  0  0
  5  6  2  0  0  0  0
  6 18  1  0  0  0  0
  9  4  1  0  0  0  0
 11 12  3  0  0  0  0
 13 15  1  0  0  0  0
 13 14  1  0  0  0  0
 13 16  1  0  0  0  0
 17 13  1  0  0  0  0
 18 19  1  0  0  0  0
 19 21  1  0  0  0  0
 19 20  1  0  0  0  0
 22 19  1  0  0  0  0
M  RAD  1   3   2
M  END
