Coordinates from ORCA-job 4-MeO-Ph-N2-BF4-B3LYPG-6-31G_dp-MTMO-d009-169-n800
 OpenBabel09051908083D

 22 20  0  0  0  0  0  0  0  0999 V2000
   -0.9866    0.8002    0.2911 C   0  0  0  0  0  0  0  0  0  0  0  0
   -0.4026    0.7359   -1.0337 C   0  0  0  0  0  0  0  0  0  0  0  0
   -1.3579    1.2287   -1.7704 C   0  0  0  0  0  0  0  0  0  0  0  0
   -2.5971    1.7546   -1.8260 C   0  0  0  0  0  0  0  0  0  0  0  0
   -3.0807    1.7831   -0.5038 C   0  0  0  0  0  0  0  0  0  0  0  0
   -2.2671    1.3053    0.5513 C   0  0  0  0  0  0  0  0  0  0  0  0
   -0.2841    0.4244    1.0428 H   0  0  0  0  0  0  0  0  0  0  0  0
    0.6480    0.3374   -1.1167 H   0  0  0  0  0  0  0  0  0  0  0  0
   -3.1430    2.0957   -2.6942 H   0  0  0  0  0  0  0  0  0  0  0  0
   -4.0736    2.1724   -0.3056 H   0  0  0  0  0  0  0  0  0  0  0  0
    6.8057   -0.2557    2.6269 N   0  0  0  0  0  0  0  0  0  0  0  0
    6.5332    0.2370    1.6756 N   0  0  0  0  0  0  0  0  0  0  0  0
    2.2900    0.3460    0.6665 B   0  0  0  0  0  0  0  0  0  0  0  0
    1.3635   -0.2709    1.5550 F   0  0  0  0  0  0  0  0  0  0  0  0
    1.9682    1.6971    0.5588 F   0  0  0  0  0  0  0  0  0  0  0  0
    3.5825    0.1097    1.0472 F   0  0  0  0  0  0  0  0  0  0  0  0
    2.0552   -0.2464   -0.6507 F   0  0  0  0  0  0  0  0  0  0  0  0
   -2.8015    1.3759    1.7847 O   0  0  0  0  0  0  0  0  0  0  0  0
   -1.9976    0.9353    2.8899 C   0  0  0  0  0  0  0  0  0  0  0  0
   -2.6020    1.1149    3.7784 H   0  0  0  0  0  0  0  0  0  0  0  0
   -1.0650    1.5050    2.9487 H   0  0  0  0  0  0  0  0  0  0  0  0
   -1.7676   -0.1321    2.8055 H   0  0  0  0  0  0  0  0  0  0  0  0
  1  6  1  0  0  0  0
  1  7  1  0  0  0  0
  2  1  2  0  0  0  0
  3  2  1  0  0  0  0
  4  3  2  0  0  0  0
  4  5  1  0  0  0  0
  5 10  1  0  0  0  0
  5  6  2  0  0  0  0
  6 18  1  0  0  0  0
  8  2  1  0  0  0  0
  9  4  1  0  0  0  0
 12 11  3  0  0  0  0
 13 16  1  0  0  0  0
 13 14  1  0  0  0  0
 15 13  1  0  0  0  0
 17 13  1  0  0  0  0
 18 19  1  0  0  0  0
 19 21  1  0  0  0  0
 19 20  1  0  0  0  0
 22 19  1  0  0  0  0
M  RAD  1   3   2
M  END
