Coordinates from ORCA-job 4-MeO-Ph-N2-BF4-B3LYPG-6-31G_dp-MTMO-d009-169-n800
 OpenBabel09051908083D

 22 20  0  0  0  0  0  0  0  0999 V2000
   -0.8416    0.7314    0.2824 C   0  0  0  0  0  0  0  0  0  0  0  0
   -0.3722    0.6524   -1.0857 C   0  0  0  0  0  0  0  0  0  0  0  0
   -1.3069    1.2866   -1.7342 C   0  0  0  0  0  0  0  0  0  0  0  0
   -2.4598    1.9811   -1.6770 C   0  0  0  0  0  0  0  0  0  0  0  0
   -2.8362    2.0148   -0.3202 C   0  0  0  0  0  0  0  0  0  0  0  0
   -2.0209    1.3908    0.6544 C   0  0  0  0  0  0  0  0  0  0  0  0
   -0.1570    0.2168    0.9623 H   0  0  0  0  0  0  0  0  0  0  0  0
    0.6058    0.1153   -1.2733 H   0  0  0  0  0  0  0  0  0  0  0  0
   -3.0156    2.4322   -2.4866 H   0  0  0  0  0  0  0  0  0  0  0  0
   -3.7516    2.5212   -0.0328 H   0  0  0  0  0  0  0  0  0  0  0  0
    4.5494    1.5676    2.7283 N   0  0  0  0  0  0  0  0  0  0  0  0
    5.3072    0.9133    2.2607 N   0  0  0  0  0  0  0  0  0  0  0  0
    2.3503   -0.2840    0.3296 B   0  0  0  0  0  0  0  0  0  0  0  0
    1.3913   -0.8497    1.2110 F   0  0  0  0  0  0  0  0  0  0  0  0
    2.2613    1.1039    0.4041 F   0  0  0  0  0  0  0  0  0  0  0  0
    3.6069   -0.7701    0.5649 F   0  0  0  0  0  0  0  0  0  0  0  0
    1.9378   -0.6607   -1.0275 F   0  0  0  0  0  0  0  0  0  0  0  0
   -2.4549    1.4799    1.9256 O   0  0  0  0  0  0  0  0  0  0  0  0
   -1.6366    0.9058    2.9559 C   0  0  0  0  0  0  0  0  0  0  0  0
   -2.1566    1.1150    3.8901 H   0  0  0  0  0  0  0  0  0  0  0  0
   -0.6437    1.3665    2.9692 H   0  0  0  0  0  0  0  0  0  0  0  0
   -1.5365   -0.1765    2.8201 H   0  0  0  0  0  0  0  0  0  0  0  0
  1  6  1  0  0  0  0
  1  7  1  0  0  0  0
  2  1  2  0  0  0  0
  3  4  2  0  0  0  0
  3  2  1  0  0  0  0
  4  5  1  0  0  0  0
  5 10  1  0  0  0  0
  5  6  2  0  0  0  0
  6 18  1  0  0  0  0
  8  2  1  0  0  0  0
  9  4  1  0  0  0  0
 12 11  3  0  0  0  0
 13 15  1  0  0  0  0
 13 16  1  0  0  0  0
 13 14  1  0  0  0  0
 17 13  1  0  0  0  0
 18 19  1  0  0  0  0
 19 21  1  0  0  0  0
 19 20  1  0  0  0  0
 22 19  1  0  0  0  0
M  RAD  1   3   2
M  END
