Coordinates from ORCA-job 4-MeO-Ph-N2-BF4-B3LYPG-6-31G_dp-MTMO-d009-169-n800
 OpenBabel09051908083D

 22 20  0  0  0  0  0  0  0  0999 V2000
   -0.5260    0.6409    0.7503 C   0  0  0  0  0  0  0  0  0  0  0  0
    0.6180    0.8430   -0.1093 C   0  0  0  0  0  0  0  0  0  0  0  0
    0.1810    1.7163   -0.9734 C   0  0  0  0  0  0  0  0  0  0  0  0
   -0.8487    2.4839   -1.3810 C   0  0  0  0  0  0  0  0  0  0  0  0
   -1.9107    2.2318   -0.4920 C   0  0  0  0  0  0  0  0  0  0  0  0
   -1.7429    1.3126    0.5712 C   0  0  0  0  0  0  0  0  0  0  0  0
   -0.3039   -0.0721    1.5474 H   0  0  0  0  0  0  0  0  0  0  0  0
    1.5759    0.2931    0.1296 H   0  0  0  0  0  0  0  0  0  0  0  0
   -0.8879    3.1638   -2.2200 H   0  0  0  0  0  0  0  0  0  0  0  0
   -2.8553    2.7476   -0.6294 H   0  0  0  0  0  0  0  0  0  0  0  0
    2.4728    2.3098   -2.7876 N   0  0  0  0  0  0  0  0  0  0  0  0
    3.4409    2.4214   -3.3077 N   0  0  0  0  0  0  0  0  0  0  0  0
    2.2351   -0.5191    2.2569 B   0  0  0  0  0  0  0  0  0  0  0  0
    1.0200   -1.2511    2.3011 F   0  0  0  0  0  0  0  0  0  0  0  0
    1.9658    0.8157    2.5577 F   0  0  0  0  0  0  0  0  0  0  0  0
    3.1999   -1.0801    3.0445 F   0  0  0  0  0  0  0  0  0  0  0  0
    2.6767   -0.5492    0.8566 F   0  0  0  0  0  0  0  0  0  0  0  0
   -2.8132    1.1457    1.3719 O   0  0  0  0  0  0  0  0  0  0  0  0
   -2.6805    0.2630    2.4942 C   0  0  0  0  0  0  0  0  0  0  0  0
   -3.6384    0.3040    3.0120 H   0  0  0  0  0  0  0  0  0  0  0  0
   -1.8790    0.5951    3.1626 H   0  0  0  0  0  0  0  0  0  0  0  0
   -2.4799   -0.7625    2.1659 H   0  0  0  0  0  0  0  0  0  0  0  0
  1  7  1  0  0  0  0
  2  8  1  0  0  0  0
  2  1  2  0  0  0  0
  3  2  1  0  0  0  0
  4  3  2  0  0  0  0
  4  5  1  0  0  0  0
  5  6  2  0  0  0  0
  6  1  1  0  0  0  0
  6 18  1  0  0  0  0
  9  4  1  0  0  0  0
 10  5  1  0  0  0  0
 12 11  3  0  0  0  0
 13 14  1  0  0  0  0
 13 15  1  0  0  0  0
 13 16  1  0  0  0  0
 17 13  1  0  0  0  0
 18 19  1  0  0  0  0
 19 20  1  0  0  0  0
 19 21  1  0  0  0  0
 22 19  1  0  0  0  0
M  RAD  1   3   2
M  END
