Coordinates from ORCA-job 4-MeO-Ph-N2-BF4-B3LYPG-6-31G_dp-MTMO-d009-169-n800
 OpenBabel09051908083D

 22 20  0  0  0  0  0  0  0  0999 V2000
   -0.5370    0.6382    0.7586 C   0  0  0  0  0  0  0  0  0  0  0  0
    0.6063    0.8403   -0.1039 C   0  0  0  0  0  0  0  0  0  0  0  0
    0.1629    1.7125   -0.9644 C   0  0  0  0  0  0  0  0  0  0  0  0
   -0.8672    2.4794   -1.3714 C   0  0  0  0  0  0  0  0  0  0  0  0
   -1.9272    2.2272   -0.4798 C   0  0  0  0  0  0  0  0  0  0  0  0
   -1.7552    1.3083    0.5831 C   0  0  0  0  0  0  0  0  0  0  0  0
   -0.3113   -0.0747    1.5550 H   0  0  0  0  0  0  0  0  0  0  0  0
    1.5651    0.2900    0.1363 H   0  0  0  0  0  0  0  0  0  0  0  0
   -0.9083    3.1584   -2.2112 H   0  0  0  0  0  0  0  0  0  0  0  0
   -2.8725    2.7421   -0.6152 H   0  0  0  0  0  0  0  0  0  0  0  0
    2.5900    2.3464   -2.8907 N   0  0  0  0  0  0  0  0  0  0  0  0
    3.5589    2.4629   -3.4084 N   0  0  0  0  0  0  0  0  0  0  0  0
    2.2219   -0.5212    2.2645 B   0  0  0  0  0  0  0  0  0  0  0  0
    1.0065   -1.2527    2.3107 F   0  0  0  0  0  0  0  0  0  0  0  0
    1.9542    0.8133    2.5661 F   0  0  0  0  0  0  0  0  0  0  0  0
    3.1883   -1.0836    3.0486 F   0  0  0  0  0  0  0  0  0  0  0  0
    2.6602   -0.5510    0.8623 F   0  0  0  0  0  0  0  0  0  0  0  0
   -2.8228    1.1399    1.3871 O   0  0  0  0  0  0  0  0  0  0  0  0
   -2.6852    0.2575    2.5091 C   0  0  0  0  0  0  0  0  0  0  0  0
   -3.6414    0.2974    3.0301 H   0  0  0  0  0  0  0  0  0  0  0  0
   -1.8819    0.5906    3.1747 H   0  0  0  0  0  0  0  0  0  0  0  0
   -2.4845   -0.7678    2.1801 H   0  0  0  0  0  0  0  0  0  0  0  0
  1  7  1  0  0  0  0
  2  8  1  0  0  0  0
  2  1  2  0  0  0  0
  3  2  1  0  0  0  0
  4  3  2  0  0  0  0
  4  5  1  0  0  0  0
  5  6  2  0  0  0  0
  6  1  1  0  0  0  0
  6 18  1  0  0  0  0
  9  4  1  0  0  0  0
 10  5  1  0  0  0  0
 12 11  3  0  0  0  0
 13 14  1  0  0  0  0
 13 15  1  0  0  0  0
 13 16  1  0  0  0  0
 17 13  1  0  0  0  0
 18 19  1  0  0  0  0
 19 20  1  0  0  0  0
 19 21  1  0  0  0  0
 22 19  1  0  0  0  0
M  RAD  1   3   2
M  END
