Coordinates from ORCA-job 4-MeO-Ph-N2-BF4-B3LYPG-6-31G_dp-MTMO-d009-169-n800
 OpenBabel09051908083D

 22 20  0  0  0  0  0  0  0  0999 V2000
   -1.4288    0.8993    0.1962 C   0  0  0  0  0  0  0  0  0  0  0  0
   -0.8461    0.8542   -1.1296 C   0  0  0  0  0  0  0  0  0  0  0  0
   -1.8227    1.2904   -1.8718 C   0  0  0  0  0  0  0  0  0  0  0  0
   -3.0879    1.7495   -1.9343 C   0  0  0  0  0  0  0  0  0  0  0  0
   -3.5700    1.7662   -0.6113 C   0  0  0  0  0  0  0  0  0  0  0  0
   -2.7336    1.3423    0.4493 C   0  0  0  0  0  0  0  0  0  0  0  0
   -0.7097    0.5704    0.9516 H   0  0  0  0  0  0  0  0  0  0  0  0
    0.2321    0.5228   -1.2193 H   0  0  0  0  0  0  0  0  0  0  0  0
   -3.6527    2.0509   -2.8051 H   0  0  0  0  0  0  0  0  0  0  0  0
   -4.5817    2.1055   -0.4158 H   0  0  0  0  0  0  0  0  0  0  0  0
   11.2713   -0.8097    3.5761 N   0  0  0  0  0  0  0  0  0  0  0  0
   11.0471   -1.7515    3.0430 N   0  0  0  0  0  0  0  0  0  0  0  0
    1.8763    0.6632    0.5083 B   0  0  0  0  0  0  0  0  0  0  0  0
    1.0222   -0.0694    1.3761 F   0  0  0  0  0  0  0  0  0  0  0  0
    1.4255    1.9805    0.4448 F   0  0  0  0  0  0  0  0  0  0  0  0
    3.1891    0.5413    0.8622 F   0  0  0  0  0  0  0  0  0  0  0  0
    1.6830    0.0916   -0.8310 F   0  0  0  0  0  0  0  0  0  0  0  0
   -3.2740    1.4022    1.6812 O   0  0  0  0  0  0  0  0  0  0  0  0
   -2.4483    1.0304    2.7950 C   0  0  0  0  0  0  0  0  0  0  0  0
   -3.0627    1.1945    3.6797 H   0  0  0  0  0  0  0  0  0  0  0  0
   -1.5492    1.6531    2.8422 H   0  0  0  0  0  0  0  0  0  0  0  0
   -2.1594   -0.0240    2.7337 H   0  0  0  0  0  0  0  0  0  0  0  0
  1  6  1  0  0  0  0
  1  7  1  0  0  0  0
  2  1  2  0  0  0  0
  3  2  1  0  0  0  0
  4  3  2  0  0  0  0
  4  5  1  0  0  0  0
  5 10  1  0  0  0  0
  5  6  2  0  0  0  0
  6 18  1  0  0  0  0
  8  2  1  0  0  0  0
  9  4  1  0  0  0  0
 12 11  3  0  0  0  0
 13 16  1  0  0  0  0
 13 14  1  0  0  0  0
 15 13  1  0  0  0  0
 17 13  1  0  0  0  0
 18 19  1  0  0  0  0
 19 21  1  0  0  0  0
 19 20  1  0  0  0  0
 22 19  1  0  0  0  0
M  RAD  1   3   2
M  END
