Coordinates from ORCA-job 4-MeO-Ph-N2-BF4-B3LYPG-6-31G_dp-MTMO-d009-169-n800
 OpenBabel09051908083D

 22 20  0  0  0  0  0  0  0  0999 V2000
   -1.4694    0.9069    0.1865 C   0  0  0  0  0  0  0  0  0  0  0  0
   -0.8875    0.8615   -1.1396 C   0  0  0  0  0  0  0  0  0  0  0  0
   -1.8638    1.2991   -1.8813 C   0  0  0  0  0  0  0  0  0  0  0  0
   -3.1285    1.7595   -1.9431 C   0  0  0  0  0  0  0  0  0  0  0  0
   -3.6101    1.7763   -0.6198 C   0  0  0  0  0  0  0  0  0  0  0  0
   -2.7737    1.3512    0.4403 C   0  0  0  0  0  0  0  0  0  0  0  0
   -0.7504    0.5770    0.9414 H   0  0  0  0  0  0  0  0  0  0  0  0
    0.1904    0.5288   -1.2299 H   0  0  0  0  0  0  0  0  0  0  0  0
   -3.6934    2.0618   -2.8135 H   0  0  0  0  0  0  0  0  0  0  0  0
   -4.6213    2.1167   -0.4238 H   0  0  0  0  0  0  0  0  0  0  0  0
   11.6761   -0.8825    3.6751 N   0  0  0  0  0  0  0  0  0  0  0  0
   11.4501   -1.8235    3.1411 N   0  0  0  0  0  0  0  0  0  0  0  0
    1.8355    0.6667    0.4967 B   0  0  0  0  0  0  0  0  0  0  0  0
    0.9810   -0.0652    1.3646 F   0  0  0  0  0  0  0  0  0  0  0  0
    1.3862    1.9845    0.4340 F   0  0  0  0  0  0  0  0  0  0  0  0
    3.1484    0.5431    0.8498 F   0  0  0  0  0  0  0  0  0  0  0  0
    1.6409    0.0959   -0.8427 F   0  0  0  0  0  0  0  0  0  0  0  0
   -3.3134    1.4113    1.6724 O   0  0  0  0  0  0  0  0  0  0  0  0
   -2.4878    1.0382    2.7857 C   0  0  0  0  0  0  0  0  0  0  0  0
   -3.1016    1.2026    3.6707 H   0  0  0  0  0  0  0  0  0  0  0  0
   -1.5880    1.6599    2.8328 H   0  0  0  0  0  0  0  0  0  0  0  0
   -2.1999   -0.0165    2.7239 H   0  0  0  0  0  0  0  0  0  0  0  0
  1  6  1  0  0  0  0
  1  7  1  0  0  0  0
  2  1  2  0  0  0  0
  3  2  1  0  0  0  0
  4  3  2  0  0  0  0
  4  5  1  0  0  0  0
  5 10  1  0  0  0  0
  5  6  2  0  0  0  0
  6 18  1  0  0  0  0
  8  2  1  0  0  0  0
  9  4  1  0  0  0  0
 12 11  3  0  0  0  0
 13 16  1  0  0  0  0
 13 14  1  0  0  0  0
 15 13  1  0  0  0  0
 17 13  1  0  0  0  0
 18 19  1  0  0  0  0
 19 21  1  0  0  0  0
 19 20  1  0  0  0  0
 22 19  1  0  0  0  0
M  RAD  1   3   2
M  END
