Coordinates from ORCA-job Ph-N2-OH-B3LYPG-6-31G_dp-MTMO-d009-169-n800
 OpenBabel09051908283D

 15 14  0  0  0  0  0  0  0  0999 V2000
   -1.4940   -1.1316   -0.9650 C   0  0  0  0  0  0  0  0  0  0  0  0
   -0.2136   -0.5813   -0.8827 C   0  0  0  0  0  0  0  0  0  0  0  0
   -0.0256    0.6489   -0.2433 C   0  0  0  0  0  0  0  0  0  0  0  0
   -1.1189    1.3244    0.3114 C   0  0  0  0  0  0  0  0  0  0  0  0
   -2.3913    0.7644    0.2222 C   0  0  0  0  0  0  0  0  0  0  0  0
   -2.5886   -0.4644   -0.4146 C   0  0  0  0  0  0  0  0  0  0  0  0
   -1.6306   -2.0877   -1.4616 H   0  0  0  0  0  0  0  0  0  0  0  0
    0.6378   -1.1047   -1.3132 H   0  0  0  0  0  0  0  0  0  0  0  0
   -0.9513    2.2779    0.8009 H   0  0  0  0  0  0  0  0  0  0  0  0
   -3.2359    1.2935    0.6540 H   0  0  0  0  0  0  0  0  0  0  0  0
    7.1940   -0.3248   -2.4380 N   0  0  0  0  0  0  0  0  0  0  0  0
    6.1469   -0.2410   -2.0940 N   0  0  0  0  0  0  0  0  0  0  0  0
   -3.5829   -0.8951   -0.4804 H   0  0  0  0  0  0  0  0  0  0  0  0
    1.2018    1.2407   -0.1294 O   0  0  0  0  0  0  0  0  0  0  0  0
    1.8640    0.6793   -0.5527 H   0  0  0  0  0  0  0  0  0  0  0  0
  1  2  2  0  0  0  0
  1  6  1  0  0  0  0
  2  3  1  0  0  0  0
  3 14  1  0  0  0  0
  3  4  2  0  0  0  0
  4  9  1  0  0  0  0
  5  4  1  0  0  0  0
  5 10  1  0  0  0  0
  6  5  2  0  0  0  0
  7  1  1  0  0  0  0
  8  2  1  0  0  0  0
 11 12  3  0  0  0  0
 13  6  1  0  0  0  0
 15 14  1  0  0  0  0
M  END
