Coordinates from ORCA-job Ph-N2-OH-B3LYPG-6-31G_dp-MTMO-d009-169-n800
 OpenBabel09051908283D

 15 14  0  0  0  0  0  0  0  0999 V2000
   -2.4183   -1.0536   -0.6944 C   0  0  0  0  0  0  0  0  0  0  0  0
   -1.1648   -0.4700   -0.5022 C   0  0  0  0  0  0  0  0  0  0  0  0
   -1.0658    0.7679    0.1423 C   0  0  0  0  0  0  0  0  0  0  0  0
   -2.2207    1.4177    0.5928 C   0  0  0  0  0  0  0  0  0  0  0  0
   -3.4655    0.8245    0.3947 C   0  0  0  0  0  0  0  0  0  0  0  0
   -3.5741   -0.4121   -0.2485 C   0  0  0  0  0  0  0  0  0  0  0  0
   -2.4860   -2.0154   -1.1943 H   0  0  0  0  0  0  0  0  0  0  0  0
   -0.2655   -0.9732   -0.8516 H   0  0  0  0  0  0  0  0  0  0  0  0
   -2.1216    2.3776    1.0884 H   0  0  0  0  0  0  0  0  0  0  0  0
   -4.3584    1.3335    0.7460 H   0  0  0  0  0  0  0  0  0  0  0  0
   13.7854   -0.9250   -4.3864 N   0  0  0  0  0  0  0  0  0  0  0  0
   12.7419   -0.8440   -4.0312 N   0  0  0  0  0  0  0  0  0  0  0  0
   -4.5474   -0.8679   -0.4000 H   0  0  0  0  0  0  0  0  0  0  0  0
    0.1313    1.3917    0.3602 O   0  0  0  0  0  0  0  0  0  0  0  0
    0.8413    0.8466   -0.0024 H   0  0  0  0  0  0  0  0  0  0  0  0
  1  2  2  0  0  0  0
  1  6  1  0  0  0  0
  2  3  1  0  0  0  0
  3 14  1  0  0  0  0
  3  4  2  0  0  0  0
  4  9  1  0  0  0  0
  5  4  1  0  0  0  0
  5 10  1  0  0  0  0
  6  5  2  0  0  0  0
  7  1  1  0  0  0  0
  8  2  1  0  0  0  0
 11 12  3  0  0  0  0
 13  6  1  0  0  0  0
 15 14  1  0  0  0  0
M  END
