Coordinates from ORCA-job Ph-N2-OH-B3LYPG-6-31G_dp-MTMO-d009-169-n800
 OpenBabel09051908283D

 15 14  0  0  0  0  0  0  0  0999 V2000
   -0.9616   -1.3364   -0.7902 C   0  0  0  0  0  0  0  0  0  0  0  0
    0.2924   -1.0506   -0.2476 C   0  0  0  0  0  0  0  0  0  0  0  0
    0.6085    0.2628    0.1153 C   0  0  0  0  0  0  0  0  0  0  0  0
   -0.3313    1.2847   -0.0608 C   0  0  0  0  0  0  0  0  0  0  0  0
   -1.5788    0.9860   -0.6034 C   0  0  0  0  0  0  0  0  0  0  0  0
   -1.9029   -0.3230   -0.9718 C   0  0  0  0  0  0  0  0  0  0  0  0
   -1.1984   -2.3584   -1.0723 H   0  0  0  0  0  0  0  0  0  0  0  0
    1.0237   -1.8443   -0.1065 H   0  0  0  0  0  0  0  0  0  0  0  0
   -0.0673    2.2951    0.2334 H   0  0  0  0  0  0  0  0  0  0  0  0
   -2.3041    1.7834   -0.7393 H   0  0  0  0  0  0  0  0  0  0  0  0
    1.9452    0.8485   -2.5545 N   0  0  0  0  0  0  0  0  0  0  0  0
    2.9804    0.9735   -2.1863 N   0  0  0  0  0  0  0  0  0  0  0  0
   -2.8765   -0.5490   -1.3948 H   0  0  0  0  0  0  0  0  0  0  0  0
    1.8161    0.6080    0.6564 O   0  0  0  0  0  0  0  0  0  0  0  0
    2.3664   -0.1820    0.7359 H   0  0  0  0  0  0  0  0  0  0  0  0
  1  2  1  0  0  0  0
  2  8  1  0  0  0  0
  2  3  2  0  0  0  0
  3 14  1  0  0  0  0
  4  3  1  0  0  0  0
  4  9  1  0  0  0  0
  5  4  2  0  0  0  0
  6  1  2  0  0  0  0
  6  5  1  0  0  0  0
  7  1  1  0  0  0  0
 10  5  1  0  0  0  0
 11 12  3  0  0  0  0
 13  6  1  0  0  0  0
 14 15  1  0  0  0  0
M  END
