Coordinates from ORCA-job Ph-N2-OH-B3LYPG-6-31G_dp-MTMO-d009-169-n800
 OpenBabel09051908283D

 15 14  0  0  0  0  0  0  0  0999 V2000
   -1.0042   -1.2198   -0.9265 C   0  0  0  0  0  0  0  0  0  0  0  0
    0.2678   -0.7917   -0.5419 C   0  0  0  0  0  0  0  0  0  0  0  0
    0.4355    0.4864    0.0039 C   0  0  0  0  0  0  0  0  0  0  0  0
   -0.6718    1.3278    0.1668 C   0  0  0  0  0  0  0  0  0  0  0  0
   -1.9355    0.8872   -0.2189 C   0  0  0  0  0  0  0  0  0  0  0  0
   -2.1116   -0.3863   -0.7684 C   0  0  0  0  0  0  0  0  0  0  0  0
   -1.1246   -2.2128   -1.3502 H   0  0  0  0  0  0  0  0  0  0  0  0
    1.1273   -1.4468   -0.6640 H   0  0  0  0  0  0  0  0  0  0  0  0
   -0.5201    2.3141    0.5927 H   0  0  0  0  0  0  0  0  0  0  0  0
   -2.7901    1.5455   -0.0896 H   0  0  0  0  0  0  0  0  0  0  0  0
    3.7050    0.2992   -2.8810 N   0  0  0  0  0  0  0  0  0  0  0  0
    3.5445    0.0291   -1.8220 N   0  0  0  0  0  0  0  0  0  0  0  0
   -3.0987   -0.7226   -1.0694 H   0  0  0  0  0  0  0  0  0  0  0  0
    1.6517    0.9671    0.4001 O   0  0  0  0  0  0  0  0  0  0  0  0
    2.3365    0.3218    0.1818 H   0  0  0  0  0  0  0  0  0  0  0  0
  1  6  2  0  0  0  0
  1  2  1  0  0  0  0
  2  3  2  0  0  0  0
  3  4  1  0  0  0  0
  3 14  1  0  0  0  0
  4  9  1  0  0  0  0
  5 10  1  0  0  0  0
  5  4  2  0  0  0  0
  6  5  1  0  0  0  0
  7  1  1  0  0  0  0
  8  2  1  0  0  0  0
 11 12  3  0  0  0  0
 13  6  1  0  0  0  0
 15 14  1  0  0  0  0
M  END
