Coordinates from ORCA-job Ph-N2-OH-B3LYPG-6-31G_dp-MTMO-d009-169-n800
 OpenBabel09051908283D

 15 14  0  0  0  0  0  0  0  0999 V2000
   -2.4667   -1.0501   -0.6808 C   0  0  0  0  0  0  0  0  0  0  0  0
   -1.2132   -0.4670   -0.4870 C   0  0  0  0  0  0  0  0  0  0  0  0
   -1.1146    0.7711    0.1571 C   0  0  0  0  0  0  0  0  0  0  0  0
   -2.2700    1.4216    0.6056 C   0  0  0  0  0  0  0  0  0  0  0  0
   -3.5147    0.8289    0.4058 C   0  0  0  0  0  0  0  0  0  0  0  0
   -3.6229   -0.4080   -0.2370 C   0  0  0  0  0  0  0  0  0  0  0  0
   -2.5339   -2.0121   -1.1804 H   0  0  0  0  0  0  0  0  0  0  0  0
   -0.3136   -0.9709   -0.8348 H   0  0  0  0  0  0  0  0  0  0  0  0
   -2.1712    2.3816    1.1009 H   0  0  0  0  0  0  0  0  0  0  0  0
   -4.4079    1.3385    0.7555 H   0  0  0  0  0  0  0  0  0  0  0  0
   14.1025   -0.9485   -4.4742 N   0  0  0  0  0  0  0  0  0  0  0  0
   13.0588   -0.8669   -4.1196 N   0  0  0  0  0  0  0  0  0  0  0  0
   -4.5961   -0.8635   -0.3899 H   0  0  0  0  0  0  0  0  0  0  0  0
    0.0824    1.3946    0.3768 O   0  0  0  0  0  0  0  0  0  0  0  0
    0.7930    0.8493    0.0155 H   0  0  0  0  0  0  0  0  0  0  0  0
  1  2  2  0  0  0  0
  1  6  1  0  0  0  0
  2  3  1  0  0  0  0
  3 14  1  0  0  0  0
  3  4  2  0  0  0  0
  4  9  1  0  0  0  0
  5  4  1  0  0  0  0
  5 10  1  0  0  0  0
  6  5  2  0  0  0  0
  7  1  1  0  0  0  0
  8  2  1  0  0  0  0
 11 12  3  0  0  0  0
 13  6  1  0  0  0  0
 15 14  1  0  0  0  0
M  END
