Coordinates from ORCA-job Ph-N2-OH-B3LYPG-6-31G_dp-MTMO-d009-169-n800
 OpenBabel09051908283D

 15 14  0  0  0  0  0  0  0  0999 V2000
   -0.9796   -1.3434   -0.7766 C   0  0  0  0  0  0  0  0  0  0  0  0
    0.2801   -1.0552   -0.2486 C   0  0  0  0  0  0  0  0  0  0  0  0
    0.5994    0.2596    0.1071 C   0  0  0  0  0  0  0  0  0  0  0  0
   -0.3413    1.2813   -0.0667 C   0  0  0  0  0  0  0  0  0  0  0  0
   -1.5944    0.9802   -0.5951 C   0  0  0  0  0  0  0  0  0  0  0  0
   -1.9226   -0.3307   -0.9532 C   0  0  0  0  0  0  0  0  0  0  0  0
   -1.2193   -2.3665   -1.0521 H   0  0  0  0  0  0  0  0  0  0  0  0
    1.0133   -1.8481   -0.1123 H   0  0  0  0  0  0  0  0  0  0  0  0
   -0.0739    2.2932    0.2192 H   0  0  0  0  0  0  0  0  0  0  0  0
   -2.3205    1.7773   -0.7284 H   0  0  0  0  0  0  0  0  0  0  0  0
    2.0452    0.9036   -2.6081 N   0  0  0  0  0  0  0  0  0  0  0  0
    3.0515    0.9817   -2.1569 N   0  0  0  0  0  0  0  0  0  0  0  0
   -2.9005   -0.5585   -1.3650 H   0  0  0  0  0  0  0  0  0  0  0  0
    1.8130    0.6073    0.6330 O   0  0  0  0  0  0  0  0  0  0  0  0
    2.3616   -0.1834    0.7170 H   0  0  0  0  0  0  0  0  0  0  0  0
  1  2  1  0  0  0  0
  2  8  1  0  0  0  0
  2  3  2  0  0  0  0
  3 14  1  0  0  0  0
  4  3  1  0  0  0  0
  4  9  1  0  0  0  0
  5  4  2  0  0  0  0
  6  1  2  0  0  0  0
  6  5  1  0  0  0  0
  7  1  1  0  0  0  0
 10  5  1  0  0  0  0
 11 12  3  0  0  0  0
 13  6  1  0  0  0  0
 14 15  1  0  0  0  0
M  END
