Coordinates from ORCA-job Ph-N2-OH-B3LYPG-6-31G_dp-MTMO-d009-169-n800
 OpenBabel09051908283D

 15 14  0  0  0  0  0  0  0  0999 V2000
   -1.4806   -1.1425   -0.9799 C   0  0  0  0  0  0  0  0  0  0  0  0
   -0.1832   -0.6282   -0.9473 C   0  0  0  0  0  0  0  0  0  0  0  0
    0.0628    0.5975   -0.3191 C   0  0  0  0  0  0  0  0  0  0  0  0
   -0.9901    1.3045    0.2735 C   0  0  0  0  0  0  0  0  0  0  0  0
   -2.2799    0.7803    0.2337 C   0  0  0  0  0  0  0  0  0  0  0  0
   -2.5351   -0.4441   -0.3913 C   0  0  0  0  0  0  0  0  0  0  0  0
   -1.6624   -2.0955   -1.4682 H   0  0  0  0  0  0  0  0  0  0  0  0
    0.6364   -1.1765   -1.4074 H   0  0  0  0  0  0  0  0  0  0  0  0
   -0.7775    2.2539    0.7535 H   0  0  0  0  0  0  0  0  0  0  0  0
   -3.0928    1.3338    0.6951 H   0  0  0  0  0  0  0  0  0  0  0  0
    6.7368   -0.1594   -2.1719 N   0  0  0  0  0  0  0  0  0  0  0  0
    5.6687   -0.1056   -1.8926 N   0  0  0  0  0  0  0  0  0  0  0  0
   -3.5426   -0.8473   -0.4182 H   0  0  0  0  0  0  0  0  0  0  0  0
    1.3097    1.1549   -0.2524 O   0  0  0  0  0  0  0  0  0  0  0  0
    1.9415    0.5726   -0.6940 H   0  0  0  0  0  0  0  0  0  0  0  0
  1  2  2  0  0  0  0
  1  6  1  0  0  0  0
  2  3  1  0  0  0  0
  3 14  1  0  0  0  0
  3  4  2  0  0  0  0
  4  9  1  0  0  0  0
  5  4  1  0  0  0  0
  5 10  1  0  0  0  0
  6  5  2  0  0  0  0
  7  1  1  0  0  0  0
  8  2  1  0  0  0  0
 11 12  3  0  0  0  0
 13  6  1  0  0  0  0
 15 14  1  0  0  0  0
M  END
