Coordinates from ORCA-job Ph-N2-OH-B3LYPG-6-31G_dp-MTMO-d009-169-n800
 OpenBabel09051908283D

 15 14  0  0  0  0  0  0  0  0999 V2000
   -1.0472   -1.1767   -0.9764 C   0  0  0  0  0  0  0  0  0  0  0  0
    0.2298   -0.6967   -0.6797 C   0  0  0  0  0  0  0  0  0  0  0  0
    0.3790    0.5603   -0.0815 C   0  0  0  0  0  0  0  0  0  0  0  0
   -0.7524    1.3285    0.2201 C   0  0  0  0  0  0  0  0  0  0  0  0
   -2.0207    0.8370   -0.0796 C   0  0  0  0  0  0  0  0  0  0  0  0
   -2.1783   -0.4160   -0.6794 C   0  0  0  0  0  0  0  0  0  0  0  0
   -1.1529   -2.1532   -1.4401 H   0  0  0  0  0  0  0  0  0  0  0  0
    1.1074   -1.2959   -0.9101 H   0  0  0  0  0  0  0  0  0  0  0  0
   -0.6151    2.2999    0.6832 H   0  0  0  0  0  0  0  0  0  0  0  0
   -2.8934    1.4391    0.1574 H   0  0  0  0  0  0  0  0  0  0  0  0
    4.2727   -0.0703   -2.7188 N   0  0  0  0  0  0  0  0  0  0  0  0
    3.7598   -0.0436   -1.7410 N   0  0  0  0  0  0  0  0  0  0  0  0
   -3.1693   -0.7927   -0.9122 H   0  0  0  0  0  0  0  0  0  0  0  0
    1.5976    1.0881    0.2360 O   0  0  0  0  0  0  0  0  0  0  0  0
    2.2947    0.4906   -0.0643 H   0  0  0  0  0  0  0  0  0  0  0  0
  1  2  2  0  0  0  0
  1  6  1  0  0  0  0
  2  3  1  0  0  0  0
  3  4  2  0  0  0  0
  3 14  1  0  0  0  0
  4  9  1  0  0  0  0
  5 10  1  0  0  0  0
  5  4  1  0  0  0  0
  6  5  2  0  0  0  0
  7  1  1  0  0  0  0
  8  2  1  0  0  0  0
 11 12  3  0  0  0  0
 13  6  1  0  0  0  0
 15 14  1  0  0  0  0
M  END
