Coordinates from ORCA-job Ph-N2-OH-B3LYPG-6-31G_dp-MTMO-d009-169-n800
 OpenBabel09051908283D

 15 14  0  0  0  0  0  0  0  0999 V2000
   -1.5031   -1.1303   -0.9623 C   0  0  0  0  0  0  0  0  0  0  0  0
   -0.2238   -0.5779   -0.8776 C   0  0  0  0  0  0  0  0  0  0  0  0
   -0.0390    0.6524   -0.2375 C   0  0  0  0  0  0  0  0  0  0  0  0
   -1.1344    1.3258    0.3157 C   0  0  0  0  0  0  0  0  0  0  0  0
   -2.4056    0.7637    0.2241 C   0  0  0  0  0  0  0  0  0  0  0  0
   -2.5998   -0.4652   -0.4135 C   0  0  0  0  0  0  0  0  0  0  0  0
   -1.6373   -2.0865   -1.4595 H   0  0  0  0  0  0  0  0  0  0  0  0
    0.6292   -1.0997   -1.3068 H   0  0  0  0  0  0  0  0  0  0  0  0
   -0.9692    2.2794    0.8058 H   0  0  0  0  0  0  0  0  0  0  0  0
   -3.2520    1.2912    0.6546 H   0  0  0  0  0  0  0  0  0  0  0  0
    7.2744   -0.3367   -2.4638 N   0  0  0  0  0  0  0  0  0  0  0  0
    6.2275   -0.2525   -2.1194 N   0  0  0  0  0  0  0  0  0  0  0  0
   -3.5933   -0.8976   -0.4812 H   0  0  0  0  0  0  0  0  0  0  0  0
    1.1872    1.2462   -0.1212 O   0  0  0  0  0  0  0  0  0  0  0  0
    1.8509    0.6862   -0.5439 H   0  0  0  0  0  0  0  0  0  0  0  0
  1  2  2  0  0  0  0
  1  6  1  0  0  0  0
  2  3  1  0  0  0  0
  3 14  1  0  0  0  0
  3  4  2  0  0  0  0
  4  9  1  0  0  0  0
  5  4  1  0  0  0  0
  5 10  1  0  0  0  0
  6  5  2  0  0  0  0
  7  1  1  0  0  0  0
  8  2  1  0  0  0  0
 11 12  3  0  0  0  0
 13  6  1  0  0  0  0
 15 14  1  0  0  0  0
M  END
