Coordinates from ORCA-job Ph-N2-OH-B3LYPG-6-31G_dp-MTMO-d009-169-n800
 OpenBabel09051908283D

 15 15  0  0  0  0  0  0  0  0999 V2000
   -1.2414   -1.3935   -1.1155 C   0  0  0  0  0  0  0  0  0  0  0  0
    0.0988   -1.0852   -1.1428 C   0  0  0  0  0  0  0  0  0  0  0  0
    0.6504    0.2715   -0.7219 C   0  0  0  0  0  0  0  0  0  0  0  0
   -0.5091    1.1889   -0.3496 C   0  0  0  0  0  0  0  0  0  0  0  0
   -1.8283    0.8251   -0.4883 C   0  0  0  0  0  0  0  0  0  0  0  0
   -2.2451   -0.4637   -0.8327 C   0  0  0  0  0  0  0  0  0  0  0  0
   -1.5068   -2.4206   -1.3609 H   0  0  0  0  0  0  0  0  0  0  0  0
    0.8767   -1.8307   -1.2760 H   0  0  0  0  0  0  0  0  0  0  0  0
   -0.1936    2.2108   -0.1639 H   0  0  0  0  0  0  0  0  0  0  0  0
   -2.5673    1.5980   -0.2824 H   0  0  0  0  0  0  0  0  0  0  0  0
    1.5217    0.4953   -0.6963 N   0  0  0  0  0  0  0  0  0  0  0  0
    2.7166    0.7963   -0.7410 N   0  0  0  0  0  0  0  0  0  0  0  0
   -3.2940   -0.7298   -0.8753 H   0  0  0  0  0  0  0  0  0  0  0  0
    3.2000    0.8577    0.6006 O   0  0  0  0  0  0  0  0  0  0  0  0
    4.1331    1.0784    0.4596 H   0  0  0  0  0  0  0  0  0  0  0  0
  1  6  1  0  0  0  0
  2  1  2  0  0  0  0
  2  3  1  0  0  0  0
  3 11  1  0  0  0  0
  3  4  2  0  0  0  0
  4  9  1  0  0  0  0
  5  4  1  0  0  0  0
  5 10  1  0  0  0  0
  6  5  2  0  0  0  0
  7  1  1  0  0  0  0
  8  2  1  0  0  0  0
 12 11  1  0  0  0  0
 12 14  1  0  0  0  0
 13  6  1  0  0  0  0
 15 14  1  0  0  0  0
M  RAD  2  11   2  12   2
M  END
