Coordinates from ORCA-job Ph-N2-OH-B3LYPG-6-31G_dp-MTMO-d009-169-n800
 OpenBabel09051908283D

 15 14  0  0  0  0  0  0  0  0999 V2000
   -1.6907   -1.1073   -0.9054 C   0  0  0  0  0  0  0  0  0  0  0  0
   -0.4293   -0.5237   -0.7749 C   0  0  0  0  0  0  0  0  0  0  0  0
   -0.2972    0.7078   -0.1242 C   0  0  0  0  0  0  0  0  0  0  0  0
   -1.4270    1.3513    0.3940 C   0  0  0  0  0  0  0  0  0  0  0  0
   -2.6800    0.7582    0.2568 C   0  0  0  0  0  0  0  0  0  0  0  0
   -2.8217   -0.4721   -0.3919 C   0  0  0  0  0  0  0  0  0  0  0  0
   -1.7840   -2.0643   -1.4104 H   0  0  0  0  0  0  0  0  0  0  0  0
    0.4506   -1.0221   -1.1768 H   0  0  0  0  0  0  0  0  0  0  0  0
   -1.3025    2.3064    0.8930 H   0  0  0  0  0  0  0  0  0  0  0  0
   -3.5534    1.2625    0.6601 H   0  0  0  0  0  0  0  0  0  0  0  0
    8.8406   -0.5384   -2.9685 N   0  0  0  0  0  0  0  0  0  0  0  0
    7.7988   -0.4544   -2.6088 N   0  0  0  0  0  0  0  0  0  0  0  0
   -3.8012   -0.9283   -0.4954 H   0  0  0  0  0  0  0  0  0  0  0  0
    0.9093    1.3314    0.0358 O   0  0  0  0  0  0  0  0  0  0  0  0
    1.5996    0.7914   -0.3700 H   0  0  0  0  0  0  0  0  0  0  0  0
  1  2  2  0  0  0  0
  1  6  1  0  0  0  0
  2  3  1  0  0  0  0
  3 14  1  0  0  0  0
  3  4  2  0  0  0  0
  4  9  1  0  0  0  0
  5  4  1  0  0  0  0
  5 10  1  0  0  0  0
  6  5  2  0  0  0  0
  7  1  1  0  0  0  0
  8  2  1  0  0  0  0
 11 12  3  0  0  0  0
 13  6  1  0  0  0  0
 15 14  1  0  0  0  0
M  END
