Coordinates from ORCA-job Ph-N2-OH-B3LYPG-6-31G_dp-MTMO-d009-169-n800
 OpenBabel09051908283D

 15 14  0  0  0  0  0  0  0  0999 V2000
   -1.6249   -1.1144   -0.9252 C   0  0  0  0  0  0  0  0  0  0  0  0
   -0.3587   -0.5382   -0.8083 C   0  0  0  0  0  0  0  0  0  0  0  0
   -0.2126    0.6930   -0.1599 C   0  0  0  0  0  0  0  0  0  0  0  0
   -1.3332    1.3434    0.3695 C   0  0  0  0  0  0  0  0  0  0  0  0
   -2.5910    0.7576    0.2459 C   0  0  0  0  0  0  0  0  0  0  0  0
   -2.7467   -0.4723   -0.4004 C   0  0  0  0  0  0  0  0  0  0  0  0
   -1.7291   -2.0712   -1.4286 H   0  0  0  0  0  0  0  0  0  0  0  0
    0.5140   -1.0420   -1.2190 H   0  0  0  0  0  0  0  0  0  0  0  0
   -1.1979    2.2981    0.8665 H   0  0  0  0  0  0  0  0  0  0  0  0
   -3.4572    1.2673    0.6579 H   0  0  0  0  0  0  0  0  0  0  0  0
    8.3203   -0.4799   -2.8051 N   0  0  0  0  0  0  0  0  0  0  0  0
    7.2775   -0.3946   -2.4489 N   0  0  0  0  0  0  0  0  0  0  0  0
   -3.7299   -0.9228   -0.4933 H   0  0  0  0  0  0  0  0  0  0  0  0
    0.9990    1.3095   -0.0129 O   0  0  0  0  0  0  0  0  0  0  0  0
    1.6822    0.7649   -0.4247 H   0  0  0  0  0  0  0  0  0  0  0  0
  1  2  2  0  0  0  0
  1  6  1  0  0  0  0
  2  3  1  0  0  0  0
  3 14  1  0  0  0  0
  3  4  2  0  0  0  0
  4  9  1  0  0  0  0
  5  4  1  0  0  0  0
  5 10  1  0  0  0  0
  6  5  2  0  0  0  0
  7  1  1  0  0  0  0
  8  2  1  0  0  0  0
 11 12  3  0  0  0  0
 13  6  1  0  0  0  0
 15 14  1  0  0  0  0
M  END
