Coordinates from ORCA-job Ph-N2-OH-B3LYPG-6-31G_dp-MTMO-d009-169-n800
 OpenBabel09051908283D

 15 14  0  0  0  0  0  0  0  0999 V2000
   -1.7742   -1.0995   -0.8805 C   0  0  0  0  0  0  0  0  0  0  0  0
   -0.5167   -0.5105   -0.7365 C   0  0  0  0  0  0  0  0  0  0  0  0
   -0.3967    0.7216   -0.0845 C   0  0  0  0  0  0  0  0  0  0  0  0
   -1.5348    1.3602    0.4215 C   0  0  0  0  0  0  0  0  0  0  0  0
   -2.7837    0.7619    0.2709 C   0  0  0  0  0  0  0  0  0  0  0  0
   -2.9132   -0.4691   -0.3793 C   0  0  0  0  0  0  0  0  0  0  0  0
   -1.8580   -2.0568   -1.3865 H   0  0  0  0  0  0  0  0  0  0  0  0
    0.3696   -1.0051   -1.1290 H   0  0  0  0  0  0  0  0  0  0  0  0
   -1.4197    2.3159    0.9217 H   0  0  0  0  0  0  0  0  0  0  0  0
   -3.6635    1.2624    0.6648 H   0  0  0  0  0  0  0  0  0  0  0  0
    9.4632   -0.5995   -3.1575 N   0  0  0  0  0  0  0  0  0  0  0  0
    8.4219   -0.5172   -2.7961 N   0  0  0  0  0  0  0  0  0  0  0  0
   -3.8897   -0.9293   -0.4933 H   0  0  0  0  0  0  0  0  0  0  0  0
    0.8052    1.3502    0.0883 O   0  0  0  0  0  0  0  0  0  0  0  0
    1.5020    0.8132   -0.3104 H   0  0  0  0  0  0  0  0  0  0  0  0
  1  2  2  0  0  0  0
  1  6  1  0  0  0  0
  2  3  1  0  0  0  0
  3 14  1  0  0  0  0
  3  4  2  0  0  0  0
  4  9  1  0  0  0  0
  5  4  1  0  0  0  0
  5 10  1  0  0  0  0
  6  5  2  0  0  0  0
  7  1  1  0  0  0  0
  8  2  1  0  0  0  0
 11 12  3  0  0  0  0
 13  6  1  0  0  0  0
 15 14  1  0  0  0  0
M  END
