Coordinates from ORCA-job Ph-N2-OH-B3LYPG-6-31G_dp-MTMO-d009-169-n800
 OpenBabel09051908283D

 15 14  0  0  0  0  0  0  0  0999 V2000
   -2.0824   -1.0769   -0.7902 C   0  0  0  0  0  0  0  0  0  0  0  0
   -0.8285   -0.4884   -0.6162 C   0  0  0  0  0  0  0  0  0  0  0  0
   -0.7243    0.7468    0.0326 C   0  0  0  0  0  0  0  0  0  0  0  0
   -1.8745    1.3892    0.5054 C   0  0  0  0  0  0  0  0  0  0  0  0
   -3.1197    0.7912    0.3251 C   0  0  0  0  0  0  0  0  0  0  0  0
   -3.2335   -0.4428   -0.3221 C   0  0  0  0  0  0  0  0  0  0  0  0
   -2.1541   -2.0366   -1.2935 H   0  0  0  0  0  0  0  0  0  0  0  0
    0.0672   -0.9859   -0.9829 H   0  0  0  0  0  0  0  0  0  0  0  0
   -1.7714    2.3472    1.0038 H   0  0  0  0  0  0  0  0  0  0  0  0
   -4.0089    1.2946    0.6936 H   0  0  0  0  0  0  0  0  0  0  0  0
   11.5690   -0.7624   -3.7661 N   0  0  0  0  0  0  0  0  0  0  0  0
   10.5268   -0.6855   -3.4063 N   0  0  0  0  0  0  0  0  0  0  0  0
   -4.2071   -0.9024   -0.4595 H   0  0  0  0  0  0  0  0  0  0  0  0
    0.4735    1.3750    0.2336 O   0  0  0  0  0  0  0  0  0  0  0  0
    1.1797    0.8352   -0.1439 H   0  0  0  0  0  0  0  0  0  0  0  0
  1  2  2  0  0  0  0
  1  6  1  0  0  0  0
  2  3  1  0  0  0  0
  3 14  1  0  0  0  0
  3  4  2  0  0  0  0
  4  9  1  0  0  0  0
  5  4  1  0  0  0  0
  5 10  1  0  0  0  0
  6  5  2  0  0  0  0
  7  1  1  0  0  0  0
  8  2  1  0  0  0  0
 11 12  3  0  0  0  0
 13  6  1  0  0  0  0
 15 14  1  0  0  0  0
M  END
