Coordinates from ORCA-job Ph-N2-OH-B3LYPG-6-31G_dp-MTMO-d009-169-n800
 OpenBabel09051908283D

 15 14  0  0  0  0  0  0  0  0999 V2000
   -2.0779   -1.0773   -0.7914 C   0  0  0  0  0  0  0  0  0  0  0  0
   -0.8237   -0.4891   -0.6179 C   0  0  0  0  0  0  0  0  0  0  0  0
   -0.7190    0.7461    0.0308 C   0  0  0  0  0  0  0  0  0  0  0  0
   -1.8691    1.3886    0.5039 C   0  0  0  0  0  0  0  0  0  0  0  0
   -3.1144    0.7911    0.3240 C   0  0  0  0  0  0  0  0  0  0  0  0
   -3.2287   -0.4430   -0.3231 C   0  0  0  0  0  0  0  0  0  0  0  0
   -2.1497   -2.0370   -1.2947 H   0  0  0  0  0  0  0  0  0  0  0  0
    0.0715   -0.9870   -0.9850 H   0  0  0  0  0  0  0  0  0  0  0  0
   -1.7655    2.3467    1.0021 H   0  0  0  0  0  0  0  0  0  0  0  0
   -4.0034    1.2947    0.6928 H   0  0  0  0  0  0  0  0  0  0  0  0
   11.5361   -0.7594   -3.7567 N   0  0  0  0  0  0  0  0  0  0  0  0
   10.4938   -0.6827   -3.3968 N   0  0  0  0  0  0  0  0  0  0  0  0
   -4.2024   -0.9025   -0.4602 H   0  0  0  0  0  0  0  0  0  0  0  0
    0.4788    1.3743    0.2317 O   0  0  0  0  0  0  0  0  0  0  0  0
    1.1853    0.8349   -0.1461 H   0  0  0  0  0  0  0  0  0  0  0  0
  1  2  2  0  0  0  0
  1  6  1  0  0  0  0
  2  3  1  0  0  0  0
  3 14  1  0  0  0  0
  3  4  2  0  0  0  0
  4  9  1  0  0  0  0
  5  4  1  0  0  0  0
  5 10  1  0  0  0  0
  6  5  2  0  0  0  0
  7  1  1  0  0  0  0
  8  2  1  0  0  0  0
 11 12  3  0  0  0  0
 13  6  1  0  0  0  0
 15 14  1  0  0  0  0
M  END
