Coordinates from ORCA-job Ph-N2-OH-B3LYPG-6-31G_dp-MTMO-d009-169-n800
 OpenBabel09051908283D

 15 14  0  0  0  0  0  0  0  0999 V2000
   -1.8178   -1.0958   -0.8677 C   0  0  0  0  0  0  0  0  0  0  0  0
   -0.5617   -0.5053   -0.7179 C   0  0  0  0  0  0  0  0  0  0  0  0
   -0.4462    0.7271   -0.0657 C   0  0  0  0  0  0  0  0  0  0  0  0
   -1.5874    1.3646    0.4347 C   0  0  0  0  0  0  0  0  0  0  0  0
   -2.8349    0.7647    0.2784 C   0  0  0  0  0  0  0  0  0  0  0  0
   -2.9599   -0.4665   -0.3719 C   0  0  0  0  0  0  0  0  0  0  0  0
   -1.8981   -2.0534   -1.3738 H   0  0  0  0  0  0  0  0  0  0  0  0
    0.3270   -0.9990   -1.1061 H   0  0  0  0  0  0  0  0  0  0  0  0
   -1.4757    2.3206    0.9352 H   0  0  0  0  0  0  0  0  0  0  0  0
   -3.7171    1.2644    0.6681 H   0  0  0  0  0  0  0  0  0  0  0  0
    9.7762   -0.6273   -3.2503 N   0  0  0  0  0  0  0  0  0  0  0  0
    8.7349   -0.5458   -2.8887 N   0  0  0  0  0  0  0  0  0  0  0  0
   -3.9353   -0.9279   -0.4905 H   0  0  0  0  0  0  0  0  0  0  0  0
    0.7542    1.3571    0.1125 O   0  0  0  0  0  0  0  0  0  0  0  0
    1.4534    0.8209   -0.2829 H   0  0  0  0  0  0  0  0  0  0  0  0
  1  2  2  0  0  0  0
  1  6  1  0  0  0  0
  2  3  1  0  0  0  0
  3 14  1  0  0  0  0
  3  4  2  0  0  0  0
  4  9  1  0  0  0  0
  5  4  1  0  0  0  0
  5 10  1  0  0  0  0
  6  5  2  0  0  0  0
  7  1  1  0  0  0  0
  8  2  1  0  0  0  0
 11 12  3  0  0  0  0
 13  6  1  0  0  0  0
 15 14  1  0  0  0  0
M  END
