Coordinates from ORCA-job Ph-N2-OH-B3LYPG-6-31G_dp-MTMO-d009-169-n800
 OpenBabel09051908283D

 15 14  0  0  0  0  0  0  0  0999 V2000
   -1.3104   -1.1480   -1.0174 C   0  0  0  0  0  0  0  0  0  0  0  0
   -0.0112   -0.6389   -0.9757 C   0  0  0  0  0  0  0  0  0  0  0  0
    0.2351    0.5872   -0.3477 C   0  0  0  0  0  0  0  0  0  0  0  0
   -0.8200    1.2990    0.2355 C   0  0  0  0  0  0  0  0  0  0  0  0
   -2.1116    0.7799    0.1866 C   0  0  0  0  0  0  0  0  0  0  0  0
   -2.3668   -0.4445   -0.4382 C   0  0  0  0  0  0  0  0  0  0  0  0
   -1.4922   -2.1012   -1.5054 H   0  0  0  0  0  0  0  0  0  0  0  0
    0.8098   -1.1910   -1.4284 H   0  0  0  0  0  0  0  0  0  0  0  0
   -0.6074    2.2484    0.7154 H   0  0  0  0  0  0  0  0  0  0  0  0
   -2.9257    1.3375    0.6407 H   0  0  0  0  0  0  0  0  0  0  0  0
    5.6176   -0.1429   -1.9598 N   0  0  0  0  0  0  0  0  0  0  0  0
    4.5642   -0.0427   -1.6409 N   0  0  0  0  0  0  0  0  0  0  0  0
   -3.3757   -0.8438   -0.4723 H   0  0  0  0  0  0  0  0  0  0  0  0
    1.4831    1.1397   -0.2721 O   0  0  0  0  0  0  0  0  0  0  0  0
    2.1228    0.5597   -0.7067 H   0  0  0  0  0  0  0  0  0  0  0  0
  1  2  2  0  0  0  0
  1  6  1  0  0  0  0
  2  3  1  0  0  0  0
  3 14  1  0  0  0  0
  3  4  2  0  0  0  0
  4  9  1  0  0  0  0
  5  4  1  0  0  0  0
  5 10  1  0  0  0  0
  6  5  2  0  0  0  0
  7  1  1  0  0  0  0
  8  2  1  0  0  0  0
 11 12  3  0  0  0  0
 13  6  1  0  0  0  0
 15 14  1  0  0  0  0
M  END
