Coordinates from ORCA-job Ph-N2-OH-B3LYPG-6-31G_dp-MTMO-d009-169-n800
 OpenBabel09051908283D

 15 15  0  0  0  0  0  0  0  0999 V2000
   -1.2459   -1.3968   -1.1141 C   0  0  0  0  0  0  0  0  0  0  0  0
    0.0962   -1.0866   -1.1329 C   0  0  0  0  0  0  0  0  0  0  0  0
    0.6274    0.2616   -0.7260 C   0  0  0  0  0  0  0  0  0  0  0  0
   -0.5053    1.1859   -0.3653 C   0  0  0  0  0  0  0  0  0  0  0  0
   -1.8293    0.8266   -0.4910 C   0  0  0  0  0  0  0  0  0  0  0  0
   -2.2458   -0.4630   -0.8322 C   0  0  0  0  0  0  0  0  0  0  0  0
   -1.5148   -2.4219   -1.3628 H   0  0  0  0  0  0  0  0  0  0  0  0
    0.8682   -1.8330   -1.2921 H   0  0  0  0  0  0  0  0  0  0  0  0
   -0.1933    2.2042   -0.1560 H   0  0  0  0  0  0  0  0  0  0  0  0
   -2.5677    1.5980   -0.2800 H   0  0  0  0  0  0  0  0  0  0  0  0
    1.5379    0.4941   -0.6998 N   0  0  0  0  0  0  0  0  0  0  0  0
    2.7252    0.7917   -0.7362 N   0  0  0  0  0  0  0  0  0  0  0  0
   -3.2955   -0.7275   -0.8731 H   0  0  0  0  0  0  0  0  0  0  0  0
    3.2110    0.8717    0.6100 O   0  0  0  0  0  0  0  0  0  0  0  0
    4.1437    1.0935    0.4648 H   0  0  0  0  0  0  0  0  0  0  0  0
  1  6  1  0  0  0  0
  2  1  2  0  0  0  0
  2  3  1  0  0  0  0
  3 11  1  0  0  0  0
  3  4  2  0  0  0  0
  4  9  1  0  0  0  0
  5  4  1  0  0  0  0
  5 10  1  0  0  0  0
  6  5  2  0  0  0  0
  7  1  1  0  0  0  0
  8  2  1  0  0  0  0
 12 11  1  0  0  0  0
 12 14  1  0  0  0  0
 13  6  1  0  0  0  0
 15 14  1  0  0  0  0
M  RAD  2  11   2  12   2
M  END
