Coordinates from ORCA-job Ph-N2-OH-B3LYPG-6-31G_dp-MTMO-d009-169-n800
 OpenBabel09051908283D

 15 14  0  0  0  0  0  0  0  0999 V2000
   -2.1257   -1.0741   -0.7775 C   0  0  0  0  0  0  0  0  0  0  0  0
   -0.8716   -0.4871   -0.6003 C   0  0  0  0  0  0  0  0  0  0  0  0
   -0.7677    0.7487    0.0473 C   0  0  0  0  0  0  0  0  0  0  0  0
   -1.9185    1.3931    0.5160 C   0  0  0  0  0  0  0  0  0  0  0  0
   -3.1639    0.7966    0.3326 C   0  0  0  0  0  0  0  0  0  0  0  0
   -3.2774   -0.4380   -0.3135 C   0  0  0  0  0  0  0  0  0  0  0  0
   -2.1971   -2.0343   -1.2799 H   0  0  0  0  0  0  0  0  0  0  0  0
    0.0245   -0.9862   -0.9639 H   0  0  0  0  0  0  0  0  0  0  0  0
   -1.8156    2.3515    1.0136 H   0  0  0  0  0  0  0  0  0  0  0  0
   -4.0536    1.3015    0.6979 H   0  0  0  0  0  0  0  0  0  0  0  0
   11.8524   -0.7815   -3.8464 N   0  0  0  0  0  0  0  0  0  0  0  0
   10.8099   -0.7051   -3.4870 N   0  0  0  0  0  0  0  0  0  0  0  0
   -4.2512   -0.8966   -0.4534 H   0  0  0  0  0  0  0  0  0  0  0  0
    0.4303    1.3756    0.2513 O   0  0  0  0  0  0  0  0  0  0  0  0
    1.1370    0.8344   -0.1234 H   0  0  0  0  0  0  0  0  0  0  0  0
  1  2  2  0  0  0  0
  1  6  1  0  0  0  0
  2  3  1  0  0  0  0
  3 14  1  0  0  0  0
  3  4  2  0  0  0  0
  4  9  1  0  0  0  0
  5  4  1  0  0  0  0
  5 10  1  0  0  0  0
  6  5  2  0  0  0  0
  7  1  1  0  0  0  0
  8  2  1  0  0  0  0
 11 12  3  0  0  0  0
 13  6  1  0  0  0  0
 15 14  1  0  0  0  0
M  END
