Coordinates from ORCA-job Ph-N2-OH-B3LYPG-6-31G_dp-MTMO-d009-169-n800
 OpenBabel09051908283D

 15 14  0  0  0  0  0  0  0  0999 V2000
   -1.3061   -1.4299   -0.9459 C   0  0  0  0  0  0  0  0  0  0  0  0
    0.0466   -1.1153   -1.1619 C   0  0  0  0  0  0  0  0  0  0  0  0
    0.3827    0.2065   -1.0078 C   0  0  0  0  0  0  0  0  0  0  0  0
   -0.4544    1.2444   -0.6816 C   0  0  0  0  0  0  0  0  0  0  0  0
   -1.8004    0.8996   -0.4730 C   0  0  0  0  0  0  0  0  0  0  0  0
   -2.2176   -0.4279   -0.6044 C   0  0  0  0  0  0  0  0  0  0  0  0
   -1.6371   -2.4598   -1.0514 H   0  0  0  0  0  0  0  0  0  0  0  0
    0.7709   -1.8749   -1.4336 H   0  0  0  0  0  0  0  0  0  0  0  0
   -0.1072    2.2666   -0.5828 H   0  0  0  0  0  0  0  0  0  0  0  0
   -2.5141    1.6752   -0.2075 H   0  0  0  0  0  0  0  0  0  0  0  0
    2.6331    0.7711   -1.6290 N   0  0  0  0  0  0  0  0  0  0  0  0
    3.2933    0.8773   -0.6523 N   0  0  0  0  0  0  0  0  0  0  0  0
   -3.2602   -0.6828   -0.4398 H   0  0  0  0  0  0  0  0  0  0  0  0
    2.6311    0.6558    0.6220 O   0  0  0  0  0  0  0  0  0  0  0  0
    3.3513    0.7926    1.2623 H   0  0  0  0  0  0  0  0  0  0  0  0
  1  6  2  0  0  0  0
  2  3  2  0  0  0  0
  2  1  1  0  0  0  0
  3  4  1  0  0  0  0
  4  9  1  0  0  0  0
  4  5  2  0  0  0  0
  5 10  1  0  0  0  0
  6  5  1  0  0  0  0
  6 13  1  0  0  0  0
  7  1  1  0  0  0  0
  8  2  1  0  0  0  0
 11 12  2  0  0  0  0
 12 14  1  0  0  0  0
 14 15  1  0  0  0  0
M  RAD  2   3   2  11   2
M  END
