Coordinates from ORCA-job Ph-N2-OH-B3LYPG-6-31G_dp-MTMO-d009-169-n800
 OpenBabel09051908283D

 15 14  0  0  0  0  0  0  0  0999 V2000
   -1.8936   -1.0898   -0.8455 C   0  0  0  0  0  0  0  0  0  0  0  0
   -0.6390   -0.4982   -0.6875 C   0  0  0  0  0  0  0  0  0  0  0  0
   -0.5292    0.7349   -0.0355 C   0  0  0  0  0  0  0  0  0  0  0  0
   -1.6743    1.3719    0.4565 C   0  0  0  0  0  0  0  0  0  0  0  0
   -2.9202    0.7708    0.2920 C   0  0  0  0  0  0  0  0  0  0  0  0
   -3.0397   -0.4611   -0.3582 C   0  0  0  0  0  0  0  0  0  0  0  0
   -1.9696   -2.0479   -1.3514 H   0  0  0  0  0  0  0  0  0  0  0  0
    0.2527   -0.9914   -1.0691 H   0  0  0  0  0  0  0  0  0  0  0  0
   -1.5669    2.3283    0.9569 H   0  0  0  0  0  0  0  0  0  0  0  0
   -3.8055    1.2700    0.6752 H   0  0  0  0  0  0  0  0  0  0  0  0
   10.3055   -0.6712   -3.4045 N   0  0  0  0  0  0  0  0  0  0  0  0
    9.2640   -0.5906   -3.0433 N   0  0  0  0  0  0  0  0  0  0  0  0
   -4.0138   -0.9233   -0.4832 H   0  0  0  0  0  0  0  0  0  0  0  0
    0.6695    1.3660    0.1506 O   0  0  0  0  0  0  0  0  0  0  0  0
    1.3718    0.8301   -0.2395 H   0  0  0  0  0  0  0  0  0  0  0  0
  1  2  2  0  0  0  0
  1  6  1  0  0  0  0
  2  3  1  0  0  0  0
  3 14  1  0  0  0  0
  3  4  2  0  0  0  0
  4  9  1  0  0  0  0
  5  4  1  0  0  0  0
  5 10  1  0  0  0  0
  6  5  2  0  0  0  0
  7  1  1  0  0  0  0
  8  2  1  0  0  0  0
 11 12  3  0  0  0  0
 13  6  1  0  0  0  0
 15 14  1  0  0  0  0
M  END
