Coordinates from ORCA-job Ph-N2-OH-B3LYPG-6-31G_dp-MTMO-d009-169-n800
 OpenBabel09051908283D

 15 14  0  0  0  0  0  0  0  0999 V2000
   -1.2848   -1.4260   -1.0083 C   0  0  0  0  0  0  0  0  0  0  0  0
    0.0693   -1.1503   -1.2406 C   0  0  0  0  0  0  0  0  0  0  0  0
    0.4915    0.1455   -1.0287 C   0  0  0  0  0  0  0  0  0  0  0  0
   -0.3221    1.1915   -0.6404 C   0  0  0  0  0  0  0  0  0  0  0  0
   -1.6728    0.8951   -0.4202 C   0  0  0  0  0  0  0  0  0  0  0  0
   -2.1490   -0.4071   -0.6008 C   0  0  0  0  0  0  0  0  0  0  0  0
   -1.6605   -2.4347   -1.1554 H   0  0  0  0  0  0  0  0  0  0  0  0
    0.7576   -1.9195   -1.5731 H   0  0  0  0  0  0  0  0  0  0  0  0
    0.0686    2.1923   -0.4981 H   0  0  0  0  0  0  0  0  0  0  0  0
   -2.3497    1.6846   -0.1058 H   0  0  0  0  0  0  0  0  0  0  0  0
    2.3109    0.4925   -1.5393 N   0  0  0  0  0  0  0  0  0  0  0  0
    3.0491    0.7970   -0.6339 N   0  0  0  0  0  0  0  0  0  0  0  0
   -3.1979   -0.6268   -0.4257 H   0  0  0  0  0  0  0  0  0  0  0  0
    2.4707    0.8561    0.6677 O   0  0  0  0  0  0  0  0  0  0  0  0
    3.2309    1.1084    1.2163 H   0  0  0  0  0  0  0  0  0  0  0  0
  1  6  2  0  0  0  0
  2  3  2  0  0  0  0
  2  1  1  0  0  0  0
  3  4  1  0  0  0  0
  4  9  1  0  0  0  0
  4  5  2  0  0  0  0
  5 10  1  0  0  0  0
  6 13  1  0  0  0  0
  6  5  1  0  0  0  0
  7  1  1  0  0  0  0
  8  2  1  0  0  0  0
 11 12  2  0  0  0  0
 12 14  1  0  0  0  0
 14 15  1  0  0  0  0
M  RAD  2   3   2  11   2
M  END
