Coordinates from ORCA-job Ph-N2-OH-B3LYPG-6-31G_dp-MTMO-d009-169-n800
 OpenBabel09051908283D

 15 14  0  0  0  0  0  0  0  0999 V2000
   -1.6491   -1.1117   -0.9179 C   0  0  0  0  0  0  0  0  0  0  0  0
   -0.3848   -0.5324   -0.7957 C   0  0  0  0  0  0  0  0  0  0  0  0
   -0.2444    0.6989   -0.1463 C   0  0  0  0  0  0  0  0  0  0  0  0
   -1.3687    1.3464    0.3789 C   0  0  0  0  0  0  0  0  0  0  0  0
   -2.6246    0.7575    0.2499 C   0  0  0  0  0  0  0  0  0  0  0  0
   -2.7746   -0.4725   -0.3974 C   0  0  0  0  0  0  0  0  0  0  0  0
   -1.7489   -2.0685   -1.4220 H   0  0  0  0  0  0  0  0  0  0  0  0
    0.4908   -1.0338   -1.2030 H   0  0  0  0  0  0  0  0  0  0  0  0
   -1.2378    2.3013    0.8767 H   0  0  0  0  0  0  0  0  0  0  0  0
   -3.4937    1.2650    0.6586 H   0  0  0  0  0  0  0  0  0  0  0  0
    8.5149   -0.5027   -2.8668 N   0  0  0  0  0  0  0  0  0  0  0  0
    7.4726   -0.4178   -2.5091 N   0  0  0  0  0  0  0  0  0  0  0  0
   -3.7563   -0.9254   -0.4945 H   0  0  0  0  0  0  0  0  0  0  0  0
    0.9651    1.3184    0.0058 O   0  0  0  0  0  0  0  0  0  0  0  0
    1.6511    0.7758   -0.4037 H   0  0  0  0  0  0  0  0  0  0  0  0
  1  2  2  0  0  0  0
  1  6  1  0  0  0  0
  2  3  1  0  0  0  0
  3 14  1  0  0  0  0
  3  4  2  0  0  0  0
  4  9  1  0  0  0  0
  5  4  1  0  0  0  0
  5 10  1  0  0  0  0
  6  5  2  0  0  0  0
  7  1  1  0  0  0  0
  8  2  1  0  0  0  0
 11 12  3  0  0  0  0
 13  6  1  0  0  0  0
 15 14  1  0  0  0  0
M  END
