Coordinates from ORCA-job Ph-N2-OH-B3LYPG-6-31G_dp-MTMO-d009-169-n800
 OpenBabel09051908283D

 15 14  0  0  0  0  0  0  0  0999 V2000
   -2.1028   -1.0756   -0.7842 C   0  0  0  0  0  0  0  0  0  0  0  0
   -0.8487   -0.4879   -0.6086 C   0  0  0  0  0  0  0  0  0  0  0  0
   -0.7447    0.7476    0.0396 C   0  0  0  0  0  0  0  0  0  0  0  0
   -1.8952    1.3910    0.5103 C   0  0  0  0  0  0  0  0  0  0  0  0
   -3.1405    0.7938    0.3286 C   0  0  0  0  0  0  0  0  0  0  0  0
   -3.2542   -0.4405   -0.3181 C   0  0  0  0  0  0  0  0  0  0  0  0
   -2.1744   -2.0356   -1.2871 H   0  0  0  0  0  0  0  0  0  0  0  0
    0.0471   -0.9862   -0.9738 H   0  0  0  0  0  0  0  0  0  0  0  0
   -1.7922    2.3493    1.0083 H   0  0  0  0  0  0  0  0  0  0  0  0
   -4.0299    1.2980    0.6954 H   0  0  0  0  0  0  0  0  0  0  0  0
   11.7024   -0.7713   -3.8040 N   0  0  0  0  0  0  0  0  0  0  0  0
   10.6600   -0.6947   -3.4443 N   0  0  0  0  0  0  0  0  0  0  0  0
   -4.2279   -0.8996   -0.4567 H   0  0  0  0  0  0  0  0  0  0  0  0
    0.4532    1.3752    0.2420 O   0  0  0  0  0  0  0  0  0  0  0  0
    1.1597    0.8347   -0.1341 H   0  0  0  0  0  0  0  0  0  0  0  0
  1  2  2  0  0  0  0
  1  6  1  0  0  0  0
  2  3  1  0  0  0  0
  3 14  1  0  0  0  0
  3  4  2  0  0  0  0
  4  9  1  0  0  0  0
  5  4  1  0  0  0  0
  5 10  1  0  0  0  0
  6  5  2  0  0  0  0
  7  1  1  0  0  0  0
  8  2  1  0  0  0  0
 11 12  3  0  0  0  0
 13  6  1  0  0  0  0
 15 14  1  0  0  0  0
M  END
