Coordinates from ORCA-job Ph-N2-OH-B3LYPG-6-31G_dp-MTMO-d009-169-n800
 OpenBabel09051908283D

 15 14  0  0  0  0  0  0  0  0999 V2000
   -0.9866   -1.2325   -0.9141 C   0  0  0  0  0  0  0  0  0  0  0  0
    0.2820   -0.8197   -0.5022 C   0  0  0  0  0  0  0  0  0  0  0  0
    0.4571    0.4640    0.0276 C   0  0  0  0  0  0  0  0  0  0  0  0
   -0.6392    1.3268    0.1473 C   0  0  0  0  0  0  0  0  0  0  0  0
   -1.8997    0.9014   -0.2652 C   0  0  0  0  0  0  0  0  0  0  0  0
   -2.0832   -0.3777   -0.7991 C   0  0  0  0  0  0  0  0  0  0  0  0
   -1.1129   -2.2299   -1.3254 H   0  0  0  0  0  0  0  0  0  0  0  0
    1.1331   -1.4911   -0.5907 H   0  0  0  0  0  0  0  0  0  0  0  0
   -0.4818    2.3170    0.5618 H   0  0  0  0  0  0  0  0  0  0  0  0
   -2.7459    1.5761   -0.1694 H   0  0  0  0  0  0  0  0  0  0  0  0
    3.4771    0.4062   -2.8966 N   0  0  0  0  0  0  0  0  0  0  0  0
    3.4593    0.0593   -1.8479 N   0  0  0  0  0  0  0  0  0  0  0  0
   -3.0675   -0.7021   -1.1211 H   0  0  0  0  0  0  0  0  0  0  0  0
    1.6706    0.9306    0.4490 O   0  0  0  0  0  0  0  0  0  0  0  0
    2.3495    0.2701    0.2595 H   0  0  0  0  0  0  0  0  0  0  0  0
  1  6  2  0  0  0  0
  1  2  1  0  0  0  0
  2  3  2  0  0  0  0
  3  4  1  0  0  0  0
  3 14  1  0  0  0  0
  4  9  1  0  0  0  0
  5 10  1  0  0  0  0
  5  4  2  0  0  0  0
  6  5  1  0  0  0  0
  7  1  1  0  0  0  0
  8  2  1  0  0  0  0
 11 12  3  0  0  0  0
 13  6  1  0  0  0  0
 15 14  1  0  0  0  0
M  END
