Coordinates from ORCA-job Ph-N2-OH-B3LYPG-6-31G_dp-MTMO-d009-169-n800
 OpenBabel09051908283D

 15 14  0  0  0  0  0  0  0  0999 V2000
   -2.2246   -1.0675   -0.7490 C   0  0  0  0  0  0  0  0  0  0  0  0
   -0.9702   -0.4827   -0.5658 C   0  0  0  0  0  0  0  0  0  0  0  0
   -0.8677    0.7542    0.0802 C   0  0  0  0  0  0  0  0  0  0  0  0
   -2.0198    1.4017    0.5411 C   0  0  0  0  0  0  0  0  0  0  0  0
   -3.2653    0.8073    0.3518 C   0  0  0  0  0  0  0  0  0  0  0  0
   -3.3776   -0.4282   -0.2927 C   0  0  0  0  0  0  0  0  0  0  0  0
   -2.2950   -2.0285   -1.2501 H   0  0  0  0  0  0  0  0  0  0  0  0
   -0.0731   -0.9842   -0.9232 H   0  0  0  0  0  0  0  0  0  0  0  0
   -1.9178    2.3608    1.0376 H   0  0  0  0  0  0  0  0  0  0  0  0
   -4.1560    1.3146    0.7111 H   0  0  0  0  0  0  0  0  0  0  0  0
   12.5023   -0.8280   -4.0292 N   0  0  0  0  0  0  0  0  0  0  0  0
   11.4595   -0.7508   -3.6711 N   0  0  0  0  0  0  0  0  0  0  0  0
   -4.3515   -0.8851   -0.4374 H   0  0  0  0  0  0  0  0  0  0  0  0
    0.3304    1.3790    0.2898 O   0  0  0  0  0  0  0  0  0  0  0  0
    1.0382    0.8357   -0.0796 H   0  0  0  0  0  0  0  0  0  0  0  0
  1  2  2  0  0  0  0
  1  6  1  0  0  0  0
  2  3  1  0  0  0  0
  3 14  1  0  0  0  0
  3  4  2  0  0  0  0
  4  9  1  0  0  0  0
  5  4  1  0  0  0  0
  5 10  1  0  0  0  0
  6  5  2  0  0  0  0
  7  1  1  0  0  0  0
  8  2  1  0  0  0  0
 11 12  3  0  0  0  0
 13  6  1  0  0  0  0
 15 14  1  0  0  0  0
M  END
