Coordinates from ORCA-job Ph-N2-OH-B3LYPG-6-31G_dp-MTMO-d009-169-n800
 OpenBabel09051908283D

 15 14  0  0  0  0  0  0  0  0999 V2000
   -2.2098   -1.0686   -0.7532 C   0  0  0  0  0  0  0  0  0  0  0  0
   -0.9553   -0.4838   -0.5709 C   0  0  0  0  0  0  0  0  0  0  0  0
   -0.8521    0.7529    0.0751 C   0  0  0  0  0  0  0  0  0  0  0  0
   -2.0040    1.4003    0.5370 C   0  0  0  0  0  0  0  0  0  0  0  0
   -3.2497    0.8060    0.3487 C   0  0  0  0  0  0  0  0  0  0  0  0
   -3.3625   -0.4295   -0.2960 C   0  0  0  0  0  0  0  0  0  0  0  0
   -2.2805   -2.0295   -1.2544 H   0  0  0  0  0  0  0  0  0  0  0  0
   -0.0586   -0.9854   -0.9293 H   0  0  0  0  0  0  0  0  0  0  0  0
   -1.9016    2.3594    1.0335 H   0  0  0  0  0  0  0  0  0  0  0  0
   -4.1400    1.3134    0.7088 H   0  0  0  0  0  0  0  0  0  0  0  0
   12.4026   -0.8202   -4.0012 N   0  0  0  0  0  0  0  0  0  0  0  0
   11.3599   -0.7434   -3.6428 N   0  0  0  0  0  0  0  0  0  0  0  0
   -4.3365   -0.8864   -0.4399 H   0  0  0  0  0  0  0  0  0  0  0  0
    0.3460    1.3780    0.2841 O   0  0  0  0  0  0  0  0  0  0  0  0
    1.0538    0.8352   -0.0861 H   0  0  0  0  0  0  0  0  0  0  0  0
  1  2  2  0  0  0  0
  1  6  1  0  0  0  0
  2  3  1  0  0  0  0
  3 14  1  0  0  0  0
  3  4  2  0  0  0  0
  4  9  1  0  0  0  0
  5  4  1  0  0  0  0
  5 10  1  0  0  0  0
  6  5  2  0  0  0  0
  7  1  1  0  0  0  0
  8  2  1  0  0  0  0
 11 12  3  0  0  0  0
 13  6  1  0  0  0  0
 15 14  1  0  0  0  0
M  END
