Coordinates from ORCA-job Ph-N2-OH-B3LYPG-6-31G_dp-MTMO-d009-169-n800
 OpenBabel09051908283D

 15 14  0  0  0  0  0  0  0  0999 V2000
   -2.3294   -1.0598   -0.7195 C   0  0  0  0  0  0  0  0  0  0  0  0
   -1.0758   -0.4751   -0.5310 C   0  0  0  0  0  0  0  0  0  0  0  0
   -0.9759    0.7622    0.1145 C   0  0  0  0  0  0  0  0  0  0  0  0
   -2.1300    1.4104    0.5696 C   0  0  0  0  0  0  0  0  0  0  0  0
   -3.3748    0.8161    0.3750 C   0  0  0  0  0  0  0  0  0  0  0  0
   -3.4844   -0.4199   -0.2691 C   0  0  0  0  0  0  0  0  0  0  0  0
   -2.3978   -2.0212   -1.2201 H   0  0  0  0  0  0  0  0  0  0  0  0
   -0.1772   -0.9771   -0.8839 H   0  0  0  0  0  0  0  0  0  0  0  0
   -2.0301    2.3699    1.0657 H   0  0  0  0  0  0  0  0  0  0  0  0
   -4.2670    1.3239    0.7298 H   0  0  0  0  0  0  0  0  0  0  0  0
   13.2016   -0.8821   -4.2244 N   0  0  0  0  0  0  0  0  0  0  0  0
   12.1584   -0.8022   -3.8679 N   0  0  0  0  0  0  0  0  0  0  0  0
   -4.4577   -0.8767   -0.4178 H   0  0  0  0  0  0  0  0  0  0  0  0
    0.2213    1.3870    0.3291 O   0  0  0  0  0  0  0  0  0  0  0  0
    0.9306    0.8431   -0.0365 H   0  0  0  0  0  0  0  0  0  0  0  0
  1  2  2  0  0  0  0
  1  6  1  0  0  0  0
  2  3  1  0  0  0  0
  3 14  1  0  0  0  0
  3  4  2  0  0  0  0
  4  9  1  0  0  0  0
  5  4  1  0  0  0  0
  5 10  1  0  0  0  0
  6  5  2  0  0  0  0
  7  1  1  0  0  0  0
  8  2  1  0  0  0  0
 11 12  3  0  0  0  0
 13  6  1  0  0  0  0
 15 14  1  0  0  0  0
M  END
