Coordinates from ORCA-job Ph-N2-OH-B3LYPG-6-31G_dp-MTMO-d009-169-n800
 OpenBabel09051908283D

 15 14  0  0  0  0  0  0  0  0999 V2000
   -2.5035   -1.0476   -0.6700 C   0  0  0  0  0  0  0  0  0  0  0  0
   -1.2504   -0.4644   -0.4736 C   0  0  0  0  0  0  0  0  0  0  0  0
   -1.1533    0.7741    0.1700 C   0  0  0  0  0  0  0  0  0  0  0  0
   -2.3099    1.4251    0.6147 C   0  0  0  0  0  0  0  0  0  0  0  0
   -3.5541    0.8325    0.4121 C   0  0  0  0  0  0  0  0  0  0  0  0
   -3.6608   -0.4050   -0.2297 C   0  0  0  0  0  0  0  0  0  0  0  0
   -2.5696   -2.0099   -1.1693 H   0  0  0  0  0  0  0  0  0  0  0  0
   -0.3503   -0.9683   -0.8199 H   0  0  0  0  0  0  0  0  0  0  0  0
   -2.2121    2.3855    1.1096 H   0  0  0  0  0  0  0  0  0  0  0  0
   -4.4481    1.3425    0.7591 H   0  0  0  0  0  0  0  0  0  0  0  0
   14.3514   -0.9676   -4.5455 N   0  0  0  0  0  0  0  0  0  0  0  0
   13.3078   -0.8853   -4.1909 N   0  0  0  0  0  0  0  0  0  0  0  0
   -4.6337   -0.8606   -0.3847 H   0  0  0  0  0  0  0  0  0  0  0  0
    0.0431    1.3975    0.3929 O   0  0  0  0  0  0  0  0  0  0  0  0
    0.7553    0.8499    0.0386 H   0  0  0  0  0  0  0  0  0  0  0  0
  1  2  2  0  0  0  0
  1  6  1  0  0  0  0
  2  3  1  0  0  0  0
  3 14  1  0  0  0  0
  3  4  2  0  0  0  0
  4  9  1  0  0  0  0
  5  4  1  0  0  0  0
  5 10  1  0  0  0  0
  6  5  2  0  0  0  0
  7  1  1  0  0  0  0
  8  2  1  0  0  0  0
 11 12  3  0  0  0  0
 13  6  1  0  0  0  0
 15 14  1  0  0  0  0
M  END
