Coordinates from ORCA-job Ph-N2-OH-B3LYPG-6-31G_dp-MTMO-d009-169-n800
 OpenBabel09051908283D

 15 14  0  0  0  0  0  0  0  0999 V2000
   -2.4943   -1.0481   -0.6731 C   0  0  0  0  0  0  0  0  0  0  0  0
   -1.2410   -0.4649   -0.4783 C   0  0  0  0  0  0  0  0  0  0  0  0
   -1.1430    0.7733    0.1657 C   0  0  0  0  0  0  0  0  0  0  0  0
   -2.2987    1.4239    0.6132 C   0  0  0  0  0  0  0  0  0  0  0  0
   -3.5432    0.8311    0.4124 C   0  0  0  0  0  0  0  0  0  0  0  0
   -3.6509   -0.4058   -0.2303 C   0  0  0  0  0  0  0  0  0  0  0  0
   -2.5612   -2.0102   -1.1727 H   0  0  0  0  0  0  0  0  0  0  0  0
   -0.3411   -0.9688   -0.8253 H   0  0  0  0  0  0  0  0  0  0  0  0
   -2.2003    2.3840    1.1084 H   0  0  0  0  0  0  0  0  0  0  0  0
   -4.4367    1.3407    0.7613 H   0  0  0  0  0  0  0  0  0  0  0  0
   14.2858   -0.9625   -4.5249 N   0  0  0  0  0  0  0  0  0  0  0  0
   13.2420   -0.8804   -4.1706 N   0  0  0  0  0  0  0  0  0  0  0  0
   -4.6240   -0.8614   -0.3840 H   0  0  0  0  0  0  0  0  0  0  0  0
    0.0539    1.3966    0.3862 O   0  0  0  0  0  0  0  0  0  0  0  0
    0.7645    0.8511    0.0256 H   0  0  0  0  0  0  0  0  0  0  0  0
  1  2  2  0  0  0  0
  1  6  1  0  0  0  0
  2  3  1  0  0  0  0
  3 14  1  0  0  0  0
  3  4  2  0  0  0  0
  4  9  1  0  0  0  0
  5  4  1  0  0  0  0
  5 10  1  0  0  0  0
  6  5  2  0  0  0  0
  7  1  1  0  0  0  0
  8  2  1  0  0  0  0
 11 12  3  0  0  0  0
 13  6  1  0  0  0  0
 15 14  1  0  0  0  0
M  END
