Coordinates from ORCA-job Ph-N2-OH-B3LYPG-6-31G_dp-MTMO-d009-169-n800
 OpenBabel09051908283D

 15 14  0  0  0  0  0  0  0  0999 V2000
   -1.8601   -1.0924   -0.8553 C   0  0  0  0  0  0  0  0  0  0  0  0
   -0.6050   -0.5011   -0.7007 C   0  0  0  0  0  0  0  0  0  0  0  0
   -0.4929    0.7317   -0.0485 C   0  0  0  0  0  0  0  0  0  0  0  0
   -1.6365    1.3687    0.4470 C   0  0  0  0  0  0  0  0  0  0  0  0
   -2.8830    0.7680    0.2859 C   0  0  0  0  0  0  0  0  0  0  0  0
   -3.0046   -0.4636   -0.3644 C   0  0  0  0  0  0  0  0  0  0  0  0
   -1.9378   -2.0502   -1.3613 H   0  0  0  0  0  0  0  0  0  0  0  0
    0.2856   -0.9944   -1.0850 H   0  0  0  0  0  0  0  0  0  0  0  0
   -1.5275    2.3249    0.9476 H   0  0  0  0  0  0  0  0  0  0  0  0
   -3.7671    1.2672    0.6719 H   0  0  0  0  0  0  0  0  0  0  0  0
   10.0737   -0.6524   -3.3373 N   0  0  0  0  0  0  0  0  0  0  0  0
    9.0323   -0.5714   -2.9759 N   0  0  0  0  0  0  0  0  0  0  0  0
   -3.9792   -0.9256   -0.4867 H   0  0  0  0  0  0  0  0  0  0  0  0
    0.7064    1.3625    0.1343 O   0  0  0  0  0  0  0  0  0  0  0  0
    1.4075    0.8266   -0.2580 H   0  0  0  0  0  0  0  0  0  0  0  0
  1  2  2  0  0  0  0
  1  6  1  0  0  0  0
  2  3  1  0  0  0  0
  3 14  1  0  0  0  0
  3  4  2  0  0  0  0
  4  9  1  0  0  0  0
  5  4  1  0  0  0  0
  5 10  1  0  0  0  0
  6  5  2  0  0  0  0
  7  1  1  0  0  0  0
  8  2  1  0  0  0  0
 11 12  3  0  0  0  0
 13  6  1  0  0  0  0
 15 14  1  0  0  0  0
M  END
