Coordinates from ORCA-job Ph-N2-OH-B3LYPG-6-31G_dp-MTMO-d009-169-n800
 OpenBabel09051908283D

 15 14  0  0  0  0  0  0  0  0999 V2000
   -2.0723   -1.0775   -0.7931 C   0  0  0  0  0  0  0  0  0  0  0  0
   -0.8184   -0.4889   -0.6198 C   0  0  0  0  0  0  0  0  0  0  0  0
   -0.7141    0.7463    0.0291 C   0  0  0  0  0  0  0  0  0  0  0  0
   -1.8641    1.3883    0.5028 C   0  0  0  0  0  0  0  0  0  0  0  0
   -3.1092    0.7901    0.3233 C   0  0  0  0  0  0  0  0  0  0  0  0
   -3.2232   -0.4438   -0.3241 C   0  0  0  0  0  0  0  0  0  0  0  0
   -2.1441   -2.0372   -1.2966 H   0  0  0  0  0  0  0  0  0  0  0  0
    0.0771   -0.9860   -0.9873 H   0  0  0  0  0  0  0  0  0  0  0  0
   -1.7609    2.3462    1.0013 H   0  0  0  0  0  0  0  0  0  0  0  0
   -3.9983    1.2932    0.6924 H   0  0  0  0  0  0  0  0  0  0  0  0
   11.5024   -0.7578   -3.7472 N   0  0  0  0  0  0  0  0  0  0  0  0
   10.4602   -0.6807   -3.3873 N   0  0  0  0  0  0  0  0  0  0  0  0
   -4.1968   -0.9037   -0.4610 H   0  0  0  0  0  0  0  0  0  0  0  0
    0.4837    1.3747    0.2295 O   0  0  0  0  0  0  0  0  0  0  0  0
    1.1899    0.8352   -0.1486 H   0  0  0  0  0  0  0  0  0  0  0  0
  1  2  2  0  0  0  0
  1  6  1  0  0  0  0
  2  3  1  0  0  0  0
  3 14  1  0  0  0  0
  3  4  2  0  0  0  0
  4  9  1  0  0  0  0
  5  4  1  0  0  0  0
  5 10  1  0  0  0  0
  6  5  2  0  0  0  0
  7  1  1  0  0  0  0
  8  2  1  0  0  0  0
 11 12  3  0  0  0  0
 13  6  1  0  0  0  0
 15 14  1  0  0  0  0
M  END
