Coordinates from ORCA-job Ph-N2-OH-B3LYPG-6-31G_dp-MTMO-d009-169-n800
 OpenBabel09051908283D

 15 14  0  0  0  0  0  0  0  0999 V2000
   -1.9081   -1.0887   -0.8413 C   0  0  0  0  0  0  0  0  0  0  0  0
   -0.6537   -0.4970   -0.6819 C   0  0  0  0  0  0  0  0  0  0  0  0
   -0.5447    0.7362   -0.0300 C   0  0  0  0  0  0  0  0  0  0  0  0
   -1.6904    1.3732    0.4605 C   0  0  0  0  0  0  0  0  0  0  0  0
   -2.9361    0.7720    0.2946 C   0  0  0  0  0  0  0  0  0  0  0  0
   -3.0547   -0.4599   -0.3555 C   0  0  0  0  0  0  0  0  0  0  0  0
   -1.9835   -2.0469   -1.3471 H   0  0  0  0  0  0  0  0  0  0  0  0
    0.2385   -0.9903   -1.0623 H   0  0  0  0  0  0  0  0  0  0  0  0
   -1.5837    2.3298    0.9609 H   0  0  0  0  0  0  0  0  0  0  0  0
   -3.8219    1.2713    0.6767 H   0  0  0  0  0  0  0  0  0  0  0  0
   10.4050   -0.6791   -3.4331 N   0  0  0  0  0  0  0  0  0  0  0  0
    9.3634   -0.5986   -3.0721 N   0  0  0  0  0  0  0  0  0  0  0  0
   -4.0287   -0.9222   -0.4816 H   0  0  0  0  0  0  0  0  0  0  0  0
    0.6537    1.3674    0.1574 O   0  0  0  0  0  0  0  0  0  0  0  0
    1.3566    0.8314   -0.2317 H   0  0  0  0  0  0  0  0  0  0  0  0
  1  2  2  0  0  0  0
  1  6  1  0  0  0  0
  2  3  1  0  0  0  0
  3 14  1  0  0  0  0
  3  4  2  0  0  0  0
  4  9  1  0  0  0  0
  5  4  1  0  0  0  0
  5 10  1  0  0  0  0
  6  5  2  0  0  0  0
  7  1  1  0  0  0  0
  8  2  1  0  0  0  0
 11 12  3  0  0  0  0
 13  6  1  0  0  0  0
 15 14  1  0  0  0  0
M  END
