Coordinates from ORCA-job Ph-N2-OH-B3LYPG-6-31G_dp-MTMO-d009-169-n800
 OpenBabel09051908283D

 15 14  0  0  0  0  0  0  0  0999 V2000
   -1.0558   -1.1653   -0.9902 C   0  0  0  0  0  0  0  0  0  0  0  0
    0.2208   -0.6711   -0.7161 C   0  0  0  0  0  0  0  0  0  0  0  0
    0.3661    0.5800   -0.1046 C   0  0  0  0  0  0  0  0  0  0  0  0
   -0.7689    1.3281    0.2323 C   0  0  0  0  0  0  0  0  0  0  0  0
   -2.0366    0.8226   -0.0454 C   0  0  0  0  0  0  0  0  0  0  0  0
   -2.1904   -0.4247   -0.6580 C   0  0  0  0  0  0  0  0  0  0  0  0
   -1.1585   -2.1372   -1.4643 H   0  0  0  0  0  0  0  0  0  0  0  0
    1.1011   -1.2547   -0.9743 H   0  0  0  0  0  0  0  0  0  0  0  0
   -0.6346    2.2953    0.7050 H   0  0  0  0  0  0  0  0  0  0  0  0
   -2.9120    1.4092    0.2189 H   0  0  0  0  0  0  0  0  0  0  0  0
    4.3937   -0.1669   -2.6542 N   0  0  0  0  0  0  0  0  0  0  0  0
    3.8011   -0.0607   -1.7283 N   0  0  0  0  0  0  0  0  0  0  0  0
   -3.1811   -0.8124   -0.8733 H   0  0  0  0  0  0  0  0  0  0  0  0
    1.5839    1.1209    0.1926 O   0  0  0  0  0  0  0  0  0  0  0  0
    2.2830    0.5355   -0.1265 H   0  0  0  0  0  0  0  0  0  0  0  0
  1  2  2  0  0  0  0
  1  6  1  0  0  0  0
  2  3  1  0  0  0  0
  3 14  1  0  0  0  0
  3  4  2  0  0  0  0
  4  9  1  0  0  0  0
  5 10  1  0  0  0  0
  5  4  1  0  0  0  0
  6  5  2  0  0  0  0
  7  1  1  0  0  0  0
  8  2  1  0  0  0  0
 11 12  3  0  0  0  0
 13  6  1  0  0  0  0
 15 14  1  0  0  0  0
M  END
