Coordinates from ORCA-job Ph-N2-OH-B3LYPG-6-31G_dp-MTMO-d009-169-n800
 OpenBabel09051908283D

 15 14  0  0  0  0  0  0  0  0999 V2000
   -2.4538   -1.0511   -0.6844 C   0  0  0  0  0  0  0  0  0  0  0  0
   -1.2003   -0.4676   -0.4910 C   0  0  0  0  0  0  0  0  0  0  0  0
   -1.1018    0.7704    0.1533 C   0  0  0  0  0  0  0  0  0  0  0  0
   -2.2571    1.4206    0.6023 C   0  0  0  0  0  0  0  0  0  0  0  0
   -3.5018    0.8276    0.4029 C   0  0  0  0  0  0  0  0  0  0  0  0
   -3.6100   -0.4091   -0.2401 C   0  0  0  0  0  0  0  0  0  0  0  0
   -2.5211   -2.0130   -1.1842 H   0  0  0  0  0  0  0  0  0  0  0  0
   -0.3007   -0.9712   -0.8392 H   0  0  0  0  0  0  0  0  0  0  0  0
   -2.1583    2.3806    1.0977 H   0  0  0  0  0  0  0  0  0  0  0  0
   -4.3950    1.3369    0.7530 H   0  0  0  0  0  0  0  0  0  0  0  0
   14.0189   -0.9425   -4.4511 N   0  0  0  0  0  0  0  0  0  0  0  0
   12.9752   -0.8610   -4.0963 N   0  0  0  0  0  0  0  0  0  0  0  0
   -4.5832   -0.8649   -0.3926 H   0  0  0  0  0  0  0  0  0  0  0  0
    0.0952    1.3940    0.3725 O   0  0  0  0  0  0  0  0  0  0  0  0
    0.8055    0.8487    0.0108 H   0  0  0  0  0  0  0  0  0  0  0  0
  1  2  2  0  0  0  0
  1  6  1  0  0  0  0
  2  3  1  0  0  0  0
  3 14  1  0  0  0  0
  3  4  2  0  0  0  0
  4  9  1  0  0  0  0
  5  4  1  0  0  0  0
  5 10  1  0  0  0  0
  6  5  2  0  0  0  0
  7  1  1  0  0  0  0
  8  2  1  0  0  0  0
 11 12  3  0  0  0  0
 13  6  1  0  0  0  0
 15 14  1  0  0  0  0
M  END
