Coordinates from ORCA-job Ph-N2-OH-B3LYPG-6-31G_dp-MTMO-d009-169-n800
 OpenBabel09051908283D

 15 14  0  0  0  0  0  0  0  0999 V2000
   -0.9575   -1.3351   -0.7931 C   0  0  0  0  0  0  0  0  0  0  0  0
    0.2959   -1.0497   -0.2490 C   0  0  0  0  0  0  0  0  0  0  0  0
    0.6122    0.2636    0.1139 C   0  0  0  0  0  0  0  0  0  0  0  0
   -0.3274    1.2857   -0.0625 C   0  0  0  0  0  0  0  0  0  0  0  0
   -1.5743    0.9875   -0.6067 C   0  0  0  0  0  0  0  0  0  0  0  0
   -1.8983   -0.3214   -0.9758 C   0  0  0  0  0  0  0  0  0  0  0  0
   -1.1944   -2.3570   -1.0755 H   0  0  0  0  0  0  0  0  0  0  0  0
    1.0269   -1.8437   -0.1072 H   0  0  0  0  0  0  0  0  0  0  0  0
   -0.0634    2.2960    0.2322 H   0  0  0  0  0  0  0  0  0  0  0  0
   -2.2993    1.7851   -0.7430 H   0  0  0  0  0  0  0  0  0  0  0  0
    1.9165    0.8364   -2.5293 N   0  0  0  0  0  0  0  0  0  0  0  0
    2.9585    0.9715   -2.1845 N   0  0  0  0  0  0  0  0  0  0  0  0
   -2.8714   -0.5470   -1.4000 H   0  0  0  0  0  0  0  0  0  0  0  0
    1.8189    0.6083    0.6569 O   0  0  0  0  0  0  0  0  0  0  0  0
    2.3689   -0.1818    0.7371 H   0  0  0  0  0  0  0  0  0  0  0  0
  1  2  1  0  0  0  0
  2  8  1  0  0  0  0
  2  3  2  0  0  0  0
  3 14  1  0  0  0  0
  4  3  1  0  0  0  0
  4  9  1  0  0  0  0
  5  4  2  0  0  0  0
  6  1  2  0  0  0  0
  6  5  1  0  0  0  0
  7  1  1  0  0  0  0
 10  5  1  0  0  0  0
 11 12  3  0  0  0  0
 13  6  1  0  0  0  0
 14 15  1  0  0  0  0
M  END
