Coordinates from ORCA-job Ph-N2-OH-B3LYPG-6-31G_dp-MTMO-d009-169-n800
 OpenBabel09051908283D

 15 15  0  0  0  0  0  0  0  0999 V2000
   -1.3053   -1.4255   -1.0763 C   0  0  0  0  0  0  0  0  0  0  0  0
    0.0565   -1.1935   -1.2873 C   0  0  0  0  0  0  0  0  0  0  0  0
    0.5641    0.0656   -1.0022 C   0  0  0  0  0  0  0  0  0  0  0  0
   -0.2302    1.1176   -0.5624 C   0  0  0  0  0  0  0  0  0  0  0  0
   -1.5930    0.8747   -0.3740 C   0  0  0  0  0  0  0  0  0  0  0  0
   -2.1283   -0.3925   -0.6225 C   0  0  0  0  0  0  0  0  0  0  0  0
   -1.7226   -2.4074   -1.2796 H   0  0  0  0  0  0  0  0  0  0  0  0
    0.7130   -1.9702   -1.6645 H   0  0  0  0  0  0  0  0  0  0  0  0
    0.1995    2.0903   -0.3588 H   0  0  0  0  0  0  0  0  0  0  0  0
   -2.2361    1.6784   -0.0272 H   0  0  0  0  0  0  0  0  0  0  0  0
    2.1591    0.2676   -1.4192 N   0  0  0  0  0  0  0  0  0  0  0  0
    2.9427    0.7467   -0.6175 N   0  0  0  0  0  0  0  0  0  0  0  0
   -3.1879   -0.5725   -0.4663 H   0  0  0  0  0  0  0  0  0  0  0  0
    2.3977    1.0933    0.6546 O   0  0  0  0  0  0  0  0  0  0  0  0
    3.1825    1.4257    1.1167 H   0  0  0  0  0  0  0  0  0  0  0  0
  1  6  1  0  0  0  0
  2  1  2  0  0  0  0
  2  3  1  0  0  0  0
  3  4  2  0  0  0  0
  4  5  1  0  0  0  0
  4  9  1  0  0  0  0
  5 10  1  0  0  0  0
  6 13  1  0  0  0  0
  6  5  2  0  0  0  0
  7  1  1  0  0  0  0
  8  2  1  0  0  0  0
 11  3  1  0  0  0  0
 11 12  2  0  0  0  0
 12 14  1  0  0  0  0
 14 15  1  0  0  0  0
M  END
