Coordinates from ORCA-job Ph-N2-OH-B3LYPG-6-31G_dp-MTMO-d009-169-n800
 OpenBabel09051908283D

 15 14  0  0  0  0  0  0  0  0999 V2000
   -2.1105   -1.0751   -0.7819 C   0  0  0  0  0  0  0  0  0  0  0  0
   -0.8563   -0.4877   -0.6059 C   0  0  0  0  0  0  0  0  0  0  0  0
   -0.7524    0.7480    0.0422 C   0  0  0  0  0  0  0  0  0  0  0  0
   -1.9029    1.3917    0.5122 C   0  0  0  0  0  0  0  0  0  0  0  0
   -3.1483    0.7948    0.3299 C   0  0  0  0  0  0  0  0  0  0  0  0
   -3.2619   -0.4396   -0.3166 C   0  0  0  0  0  0  0  0  0  0  0  0
   -2.1820   -2.0352   -1.2847 H   0  0  0  0  0  0  0  0  0  0  0  0
    0.0395   -0.9862   -0.9705 H   0  0  0  0  0  0  0  0  0  0  0  0
   -1.8000    2.3500    1.0101 H   0  0  0  0  0  0  0  0  0  0  0  0
   -4.0378    1.2991    0.6962 H   0  0  0  0  0  0  0  0  0  0  0  0
   11.7524   -0.7747   -3.8181 N   0  0  0  0  0  0  0  0  0  0  0  0
   10.7100   -0.6982   -3.4586 N   0  0  0  0  0  0  0  0  0  0  0  0
   -4.2357   -0.8986   -0.4556 H   0  0  0  0  0  0  0  0  0  0  0  0
    0.4455    1.3753    0.2451 O   0  0  0  0  0  0  0  0  0  0  0  0
    1.1521    0.8346   -0.1305 H   0  0  0  0  0  0  0  0  0  0  0  0
  1  2  2  0  0  0  0
  1  6  1  0  0  0  0
  2  3  1  0  0  0  0
  3 14  1  0  0  0  0
  3  4  2  0  0  0  0
  4  9  1  0  0  0  0
  5  4  1  0  0  0  0
  5 10  1  0  0  0  0
  6  5  2  0  0  0  0
  7  1  1  0  0  0  0
  8  2  1  0  0  0  0
 11 12  3  0  0  0  0
 13  6  1  0  0  0  0
 15 14  1  0  0  0  0
M  END
