Coordinates from ORCA-job Ph-N2-OH-B3LYPG-6-31G_dp-MTMO-d009-169-n800
 OpenBabel09051908283D

 15 14  0  0  0  0  0  0  0  0999 V2000
   -2.2844   -1.0631   -0.7322 C   0  0  0  0  0  0  0  0  0  0  0  0
   -1.0305   -0.4782   -0.5459 C   0  0  0  0  0  0  0  0  0  0  0  0
   -0.9296    0.7589    0.0998 C   0  0  0  0  0  0  0  0  0  0  0  0
   -2.0828    1.4067    0.5574 C   0  0  0  0  0  0  0  0  0  0  0  0
   -3.3279    0.8122    0.3651 C   0  0  0  0  0  0  0  0  0  0  0  0
   -3.4385   -0.4236   -0.2792 C   0  0  0  0  0  0  0  0  0  0  0  0
   -2.3536   -2.0243   -1.2331 H   0  0  0  0  0  0  0  0  0  0  0  0
   -0.1325   -0.9799   -0.9008 H   0  0  0  0  0  0  0  0  0  0  0  0
   -1.9822    2.3660    1.0538 H   0  0  0  0  0  0  0  0  0  0  0  0
   -4.2195    1.3197    0.7219 H   0  0  0  0  0  0  0  0  0  0  0  0
   12.9019   -0.8591   -4.1407 N   0  0  0  0  0  0  0  0  0  0  0  0
   11.8588   -0.7803   -3.7836 N   0  0  0  0  0  0  0  0  0  0  0  0
   -4.4121   -0.8805   -0.4262 H   0  0  0  0  0  0  0  0  0  0  0  0
    0.2680    1.3838    0.3123 O   0  0  0  0  0  0  0  0  0  0  0  0
    0.9767    0.8402   -0.0550 H   0  0  0  0  0  0  0  0  0  0  0  0
  1  2  2  0  0  0  0
  1  6  1  0  0  0  0
  2  3  1  0  0  0  0
  3 14  1  0  0  0  0
  3  4  2  0  0  0  0
  4  9  1  0  0  0  0
  5  4  1  0  0  0  0
  5 10  1  0  0  0  0
  6  5  2  0  0  0  0
  7  1  1  0  0  0  0
  8  2  1  0  0  0  0
 11 12  3  0  0  0  0
 13  6  1  0  0  0  0
 15 14  1  0  0  0  0
M  END
