Coordinates from ORCA-job Ph-N2-OH-B3LYPG-6-31G_dp-MTMO-d009-169-n800
 OpenBabel09051908283D

 15 14  0  0  0  0  0  0  0  0999 V2000
   -1.6676   -1.1097   -0.9123 C   0  0  0  0  0  0  0  0  0  0  0  0
   -0.4047   -0.5283   -0.7863 C   0  0  0  0  0  0  0  0  0  0  0  0
   -0.2682    0.7031   -0.1362 C   0  0  0  0  0  0  0  0  0  0  0  0
   -1.3951    1.3486    0.3857 C   0  0  0  0  0  0  0  0  0  0  0  0
   -2.6496    0.7577    0.2529 C   0  0  0  0  0  0  0  0  0  0  0  0
   -2.7957   -0.4724   -0.3950 C   0  0  0  0  0  0  0  0  0  0  0  0
   -1.7644   -2.0666   -1.4169 H   0  0  0  0  0  0  0  0  0  0  0  0
    0.4729   -1.0283   -1.1911 H   0  0  0  0  0  0  0  0  0  0  0  0
   -1.2672    2.3036    0.8841 H   0  0  0  0  0  0  0  0  0  0  0  0
   -3.5207    1.2636    0.6592 H   0  0  0  0  0  0  0  0  0  0  0  0
    8.6613   -0.5191   -2.9127 N   0  0  0  0  0  0  0  0  0  0  0  0
    7.6192   -0.4346   -2.5540 N   0  0  0  0  0  0  0  0  0  0  0  0
   -3.7764   -0.9269   -0.4950 H   0  0  0  0  0  0  0  0  0  0  0  0
    0.9399    1.3245    0.0195 O   0  0  0  0  0  0  0  0  0  0  0  0
    1.6279    0.7832   -0.3884 H   0  0  0  0  0  0  0  0  0  0  0  0
  1  2  2  0  0  0  0
  1  6  1  0  0  0  0
  2  3  1  0  0  0  0
  3 14  1  0  0  0  0
  3  4  2  0  0  0  0
  4  9  1  0  0  0  0
  5  4  1  0  0  0  0
  5 10  1  0  0  0  0
  6  5  2  0  0  0  0
  7  1  1  0  0  0  0
  8  2  1  0  0  0  0
 11 12  3  0  0  0  0
 13  6  1  0  0  0  0
 15 14  1  0  0  0  0
M  END
