Coordinates from ORCA-job Ph-N2-OH-B3LYPG-6-31G_dp-MTMO-d009-169-n800
 OpenBabel09051908283D

 15 14  0  0  0  0  0  0  0  0999 V2000
   -1.7651   -1.1003   -0.8832 C   0  0  0  0  0  0  0  0  0  0  0  0
   -0.5073   -0.5117   -0.7405 C   0  0  0  0  0  0  0  0  0  0  0  0
   -0.3863    0.7203   -0.0886 C   0  0  0  0  0  0  0  0  0  0  0  0
   -1.5236    1.3593    0.4187 C   0  0  0  0  0  0  0  0  0  0  0  0
   -2.7729    0.7613    0.2693 C   0  0  0  0  0  0  0  0  0  0  0  0
   -2.9035   -0.4695   -0.3807 C   0  0  0  0  0  0  0  0  0  0  0  0
   -1.8498   -2.0576   -1.3891 H   0  0  0  0  0  0  0  0  0  0  0  0
    0.3784   -1.0066   -1.1339 H   0  0  0  0  0  0  0  0  0  0  0  0
   -1.4077    2.3150    0.9188 H   0  0  0  0  0  0  0  0  0  0  0  0
   -3.6521    1.2622    0.6642 H   0  0  0  0  0  0  0  0  0  0  0  0
    9.3974   -0.5934   -3.1379 N   0  0  0  0  0  0  0  0  0  0  0  0
    8.3561   -0.5110   -2.7765 N   0  0  0  0  0  0  0  0  0  0  0  0
   -3.8802   -0.9294   -0.4938 H   0  0  0  0  0  0  0  0  0  0  0  0
    0.8161    1.3485    0.0830 O   0  0  0  0  0  0  0  0  0  0  0  0
    1.5123    0.8114   -0.3164 H   0  0  0  0  0  0  0  0  0  0  0  0
  1  2  2  0  0  0  0
  1  6  1  0  0  0  0
  2  3  1  0  0  0  0
  3 14  1  0  0  0  0
  3  4  2  0  0  0  0
  4  9  1  0  0  0  0
  5  4  1  0  0  0  0
  5 10  1  0  0  0  0
  6  5  2  0  0  0  0
  7  1  1  0  0  0  0
  8  2  1  0  0  0  0
 11 12  3  0  0  0  0
 13  6  1  0  0  0  0
 15 14  1  0  0  0  0
M  END
