Coordinates from ORCA-job Ph-N2-OH-B3LYPG-6-31G_dp-MTMO-d009-169-n800
 OpenBabel09051908283D

 15 14  0  0  0  0  0  0  0  0999 V2000
   -1.5121   -1.1291   -0.9596 C   0  0  0  0  0  0  0  0  0  0  0  0
   -0.2339   -0.5745   -0.8724 C   0  0  0  0  0  0  0  0  0  0  0  0
   -0.0524    0.6559   -0.2315 C   0  0  0  0  0  0  0  0  0  0  0  0
   -1.1499    1.3272    0.3200 C   0  0  0  0  0  0  0  0  0  0  0  0
   -2.4200    0.7629    0.2259 C   0  0  0  0  0  0  0  0  0  0  0  0
   -2.6110   -0.4661   -0.4125 C   0  0  0  0  0  0  0  0  0  0  0  0
   -1.6438   -2.0853   -1.4573 H   0  0  0  0  0  0  0  0  0  0  0  0
    0.6207   -1.0946   -1.3003 H   0  0  0  0  0  0  0  0  0  0  0  0
   -0.9873    2.2809    0.8107 H   0  0  0  0  0  0  0  0  0  0  0  0
   -3.2680    1.2888    0.6551 H   0  0  0  0  0  0  0  0  0  0  0  0
    7.3547   -0.3487   -2.4900 N   0  0  0  0  0  0  0  0  0  0  0  0
    6.3081   -0.2640   -2.1449 N   0  0  0  0  0  0  0  0  0  0  0  0
   -3.6036   -0.9001   -0.4821 H   0  0  0  0  0  0  0  0  0  0  0  0
    1.1725    1.2518   -0.1128 O   0  0  0  0  0  0  0  0  0  0  0  0
    1.8379    0.6931   -0.5348 H   0  0  0  0  0  0  0  0  0  0  0  0
  1  2  2  0  0  0  0
  1  6  1  0  0  0  0
  2  3  1  0  0  0  0
  3 14  1  0  0  0  0
  3  4  2  0  0  0  0
  4  9  1  0  0  0  0
  5  4  1  0  0  0  0
  5 10  1  0  0  0  0
  6  5  2  0  0  0  0
  7  1  1  0  0  0  0
  8  2  1  0  0  0  0
 11 12  3  0  0  0  0
 13  6  1  0  0  0  0
 15 14  1  0  0  0  0
M  END
