Coordinates from ORCA-job Ph-N2-OH-B3LYPG-6-31G_dp-MTMO-d009-169-n800
 OpenBabel09051908283D

 15 14  0  0  0  0  0  0  0  0999 V2000
   -1.3050   -1.4279   -0.9114 C   0  0  0  0  0  0  0  0  0  0  0  0
    0.0490   -1.0961   -1.0987 C   0  0  0  0  0  0  0  0  0  0  0  0
    0.3497    0.2343   -0.9668 C   0  0  0  0  0  0  0  0  0  0  0  0
   -0.5039    1.2672   -0.6807 C   0  0  0  0  0  0  0  0  0  0  0  0
   -1.8502    0.9024   -0.4997 C   0  0  0  0  0  0  0  0  0  0  0  0
   -2.2411   -0.4343   -0.6148 C   0  0  0  0  0  0  0  0  0  0  0  0
   -1.6153   -2.4658   -1.0021 H   0  0  0  0  0  0  0  0  0  0  0  0
    0.7935   -1.8491   -1.3312 H   0  0  0  0  0  0  0  0  0  0  0  0
   -0.1761    2.2971   -0.5954 H   0  0  0  0  0  0  0  0  0  0  0  0
   -2.5830    1.6716   -0.2691 H   0  0  0  0  0  0  0  0  0  0  0  0
    2.7593    0.9197   -1.6706 N   0  0  0  0  0  0  0  0  0  0  0  0
    3.3897    0.9178   -0.6798 N   0  0  0  0  0  0  0  0  0  0  0  0
   -3.2832   -0.7037   -0.4716 H   0  0  0  0  0  0  0  0  0  0  0  0
    2.6681    0.5512    0.5610 O   0  0  0  0  0  0  0  0  0  0  0  0
    3.3604    0.6141    1.2444 H   0  0  0  0  0  0  0  0  0  0  0  0
  1  6  2  0  0  0  0
  2  3  2  0  0  0  0
  2  1  1  0  0  0  0
  3  4  1  0  0  0  0
  4  9  1  0  0  0  0
  4  5  2  0  0  0  0
  5 10  1  0  0  0  0
  6  5  1  0  0  0  0
  6 13  1  0  0  0  0
  7  1  1  0  0  0  0
  8  2  1  0  0  0  0
 11 12  2  0  0  0  0
 12 14  1  0  0  0  0
 14 15  1  0  0  0  0
M  RAD  2   3   2  11   2
M  END
