Coordinates from ORCA-job Ph-N2-OH-B3LYPG-6-31G_dp-MTMO-d009-169-n800
 OpenBabel09051908283D

 15 14  0  0  0  0  0  0  0  0999 V2000
   -1.1622   -1.1342   -1.0388 C   0  0  0  0  0  0  0  0  0  0  0  0
    0.1178   -0.5871   -0.9327 C   0  0  0  0  0  0  0  0  0  0  0  0
    0.2981    0.6418   -0.2869 C   0  0  0  0  0  0  0  0  0  0  0  0
   -0.8052    1.3167    0.2501 C   0  0  0  0  0  0  0  0  0  0  0  0
   -2.0769    0.7598    0.1372 C   0  0  0  0  0  0  0  0  0  0  0  0
   -2.2657   -0.4670   -0.5064 C   0  0  0  0  0  0  0  0  0  0  0  0
   -1.2919   -2.0890   -1.5401 H   0  0  0  0  0  0  0  0  0  0  0  0
    0.9749   -1.1116   -1.3489 H   0  0  0  0  0  0  0  0  0  0  0  0
   -0.6444    2.2687    0.7449 H   0  0  0  0  0  0  0  0  0  0  0  0
   -2.9279    1.2896    0.5556 H   0  0  0  0  0  0  0  0  0  0  0  0
    5.0493   -0.3720   -2.0997 N   0  0  0  0  0  0  0  0  0  0  0  0
    4.0869   -0.1298   -1.6148 N   0  0  0  0  0  0  0  0  0  0  0  0
   -3.2594   -0.8956   -0.5910 H   0  0  0  0  0  0  0  0  0  0  0  0
    1.5221    1.2306   -0.1492 O   0  0  0  0  0  0  0  0  0  0  0  0
    2.1964    0.6773   -0.5657 H   0  0  0  0  0  0  0  0  0  0  0  0
  1  2  2  0  0  0  0
  1  6  1  0  0  0  0
  2  3  1  0  0  0  0
  3 14  1  0  0  0  0
  3  4  2  0  0  0  0
  4  9  1  0  0  0  0
  5  4  1  0  0  0  0
  5 10  1  0  0  0  0
  6  5  2  0  0  0  0
  7  1  1  0  0  0  0
  8  2  1  0  0  0  0
 11 12  3  0  0  0  0
 13  6  1  0  0  0  0
 15 14  1  0  0  0  0
M  END
