Coordinates from ORCA-job Ph-N2-OH-B3LYPG-6-31G_dp-MTMO-d009-169-n800
 OpenBabel09051908283D

 15 14  0  0  0  0  0  0  0  0999 V2000
   -0.9931   -1.2281   -0.9182 C   0  0  0  0  0  0  0  0  0  0  0  0
    0.2768   -0.8099   -0.5161 C   0  0  0  0  0  0  0  0  0  0  0  0
    0.4492    0.4719    0.0193 C   0  0  0  0  0  0  0  0  0  0  0  0
   -0.6511    1.3272    0.1543 C   0  0  0  0  0  0  0  0  0  0  0  0
   -1.9129    0.8964   -0.2486 C   0  0  0  0  0  0  0  0  0  0  0  0
   -2.0937   -0.3807   -0.7880 C   0  0  0  0  0  0  0  0  0  0  0  0
   -1.1173   -2.2239   -1.3339 H   0  0  0  0  0  0  0  0  0  0  0  0
    1.1310   -1.4755   -0.6165 H   0  0  0  0  0  0  0  0  0  0  0  0
   -0.4958    2.3161    0.5728 H   0  0  0  0  0  0  0  0  0  0  0  0
   -2.7622    1.5654   -0.1410 H   0  0  0  0  0  0  0  0  0  0  0  0
    3.5622    0.3696   -2.8931 N   0  0  0  0  0  0  0  0  0  0  0  0
    3.4892    0.0475   -1.8389 N   0  0  0  0  0  0  0  0  0  0  0  0
   -3.0791   -0.7093   -1.1025 H   0  0  0  0  0  0  0  0  0  0  0  0
    1.6638    0.9434    0.4317 O   0  0  0  0  0  0  0  0  0  0  0  0
    2.3449    0.2883    0.2319 H   0  0  0  0  0  0  0  0  0  0  0  0
  1  6  2  0  0  0  0
  1  2  1  0  0  0  0
  2  3  2  0  0  0  0
  3  4  1  0  0  0  0
  3 14  1  0  0  0  0
  4  9  1  0  0  0  0
  5 10  1  0  0  0  0
  5  4  2  0  0  0  0
  6  5  1  0  0  0  0
  7  1  1  0  0  0  0
  8  2  1  0  0  0  0
 11 12  3  0  0  0  0
 13  6  1  0  0  0  0
 15 14  1  0  0  0  0
M  END
