Coordinates from ORCA-job Ph-N2-OH-B3LYPG-6-31G_dp-MTMO-d009-169-n800
 OpenBabel09051908283D

 15 14  0  0  0  0  0  0  0  0999 V2000
   -1.5085   -1.1296   -0.9606 C   0  0  0  0  0  0  0  0  0  0  0  0
   -0.2299   -0.5759   -0.8745 C   0  0  0  0  0  0  0  0  0  0  0  0
   -0.0471    0.6545   -0.2339 C   0  0  0  0  0  0  0  0  0  0  0  0
   -1.1437    1.3266    0.3183 C   0  0  0  0  0  0  0  0  0  0  0  0
   -2.4143    0.7632    0.2252 C   0  0  0  0  0  0  0  0  0  0  0  0
   -2.6065   -0.4657   -0.4129 C   0  0  0  0  0  0  0  0  0  0  0  0
   -1.6412   -2.0858   -1.4582 H   0  0  0  0  0  0  0  0  0  0  0  0
    0.6241   -1.0966   -1.3029 H   0  0  0  0  0  0  0  0  0  0  0  0
   -0.9800    2.2803    0.8088 H   0  0  0  0  0  0  0  0  0  0  0  0
   -3.2616    1.2898    0.6549 H   0  0  0  0  0  0  0  0  0  0  0  0
    7.3226   -0.3439   -2.4795 N   0  0  0  0  0  0  0  0  0  0  0  0
    6.2758   -0.2594   -2.1347 N   0  0  0  0  0  0  0  0  0  0  0  0
   -3.5994   -0.8991   -0.4817 H   0  0  0  0  0  0  0  0  0  0  0  0
    1.1784    1.2496   -0.1162 O   0  0  0  0  0  0  0  0  0  0  0  0
    1.8431    0.6904   -0.5385 H   0  0  0  0  0  0  0  0  0  0  0  0
  1  2  2  0  0  0  0
  1  6  1  0  0  0  0
  2  3  1  0  0  0  0
  3 14  1  0  0  0  0
  3  4  2  0  0  0  0
  4  9  1  0  0  0  0
  5  4  1  0  0  0  0
  5 10  1  0  0  0  0
  6  5  2  0  0  0  0
  7  1  1  0  0  0  0
  8  2  1  0  0  0  0
 11 12  3  0  0  0  0
 13  6  1  0  0  0  0
 15 14  1  0  0  0  0
M  END
