Coordinates from ORCA-job Ph-N2-OH-B3LYPG-6-31G_dp-MTMO-d009-169-n800
 OpenBabel09051908283D

 15 14  0  0  0  0  0  0  0  0999 V2000
   -1.7947   -1.0977   -0.8745 C   0  0  0  0  0  0  0  0  0  0  0  0
   -0.5379   -0.5080   -0.7277 C   0  0  0  0  0  0  0  0  0  0  0  0
   -0.4202    0.7243   -0.0755 C   0  0  0  0  0  0  0  0  0  0  0  0
   -1.5598    1.3623    0.4278 C   0  0  0  0  0  0  0  0  0  0  0  0
   -2.8080    0.7631    0.2744 C   0  0  0  0  0  0  0  0  0  0  0  0
   -2.9353   -0.4679   -0.3759 C   0  0  0  0  0  0  0  0  0  0  0  0
   -1.8768   -2.0552   -1.3805 H   0  0  0  0  0  0  0  0  0  0  0  0
    0.3496   -1.0021   -1.1180 H   0  0  0  0  0  0  0  0  0  0  0  0
   -1.4464    2.3181    0.9282 H   0  0  0  0  0  0  0  0  0  0  0  0
   -3.6890    1.2632    0.6663 H   0  0  0  0  0  0  0  0  0  0  0  0
    9.6114   -0.6129   -3.2016 N   0  0  0  0  0  0  0  0  0  0  0  0
    8.5701   -0.5309   -2.8401 N   0  0  0  0  0  0  0  0  0  0  0  0
   -3.9112   -0.9287   -0.4921 H   0  0  0  0  0  0  0  0  0  0  0  0
    0.7810    1.3536    0.0999 O   0  0  0  0  0  0  0  0  0  0  0  0
    1.4790    0.8171   -0.2972 H   0  0  0  0  0  0  0  0  0  0  0  0
  1  2  2  0  0  0  0
  1  6  1  0  0  0  0
  2  3  1  0  0  0  0
  3 14  1  0  0  0  0
  3  4  2  0  0  0  0
  4  9  1  0  0  0  0
  5  4  1  0  0  0  0
  5 10  1  0  0  0  0
  6  5  2  0  0  0  0
  7  1  1  0  0  0  0
  8  2  1  0  0  0  0
 11 12  3  0  0  0  0
 13  6  1  0  0  0  0
 15 14  1  0  0  0  0
M  END
