Coordinates from ORCA-job Ph-N2-OH-B3LYPG-6-31G_dp-MTMO-d009-169-n800
 OpenBabel09051908283D

 15 14  0  0  0  0  0  0  0  0999 V2000
   -2.0267   -1.0804   -0.8066 C   0  0  0  0  0  0  0  0  0  0  0  0
   -0.7730   -0.4902   -0.6369 C   0  0  0  0  0  0  0  0  0  0  0  0
   -0.6681    0.7443    0.0131 C   0  0  0  0  0  0  0  0  0  0  0  0
   -1.8173    1.3841    0.4917 C   0  0  0  0  0  0  0  0  0  0  0  0
   -3.0623    0.7844    0.3157 C   0  0  0  0  0  0  0  0  0  0  0  0
   -3.1768   -0.4489   -0.3328 C   0  0  0  0  0  0  0  0  0  0  0  0
   -2.0989   -2.0396   -1.3110 H   0  0  0  0  0  0  0  0  0  0  0  0
    0.1219   -0.9857   -1.0081 H   0  0  0  0  0  0  0  0  0  0  0  0
   -1.7137    2.3416    0.9909 H   0  0  0  0  0  0  0  0  0  0  0  0
   -3.9508    1.2858    0.6885 H   0  0  0  0  0  0  0  0  0  0  0  0
   11.2026   -0.7378   -3.6616 N   0  0  0  0  0  0  0  0  0  0  0  0
   10.1605   -0.6595   -3.3016 N   0  0  0  0  0  0  0  0  0  0  0  0
   -4.1503   -0.9099   -0.4668 H   0  0  0  0  0  0  0  0  0  0  0  0
    0.5295    1.3741    0.2101 O   0  0  0  0  0  0  0  0  0  0  0  0
    1.2351    0.8362   -0.1712 H   0  0  0  0  0  0  0  0  0  0  0  0
  1  2  2  0  0  0  0
  1  6  1  0  0  0  0
  2  3  1  0  0  0  0
  3 14  1  0  0  0  0
  3  4  2  0  0  0  0
  4  9  1  0  0  0  0
  5  4  1  0  0  0  0
  5 10  1  0  0  0  0
  6  5  2  0  0  0  0
  7  1  1  0  0  0  0
  8  2  1  0  0  0  0
 11 12  3  0  0  0  0
 13  6  1  0  0  0  0
 15 14  1  0  0  0  0
M  END
