Coordinates from ORCA-job Ph-N2-OH-B3LYPG-6-31G_dp-MTMO-d009-169-n800
 OpenBabel09051908283D

 15 14  0  0  0  0  0  0  0  0999 V2000
   -2.0952   -1.0761   -0.7864 C   0  0  0  0  0  0  0  0  0  0  0  0
   -0.8412   -0.4881   -0.6114 C   0  0  0  0  0  0  0  0  0  0  0  0
   -0.7371    0.7473    0.0370 C   0  0  0  0  0  0  0  0  0  0  0  0
   -1.8874    1.3904    0.5085 C   0  0  0  0  0  0  0  0  0  0  0  0
   -3.1327    0.7929    0.3272 C   0  0  0  0  0  0  0  0  0  0  0  0
   -3.2464   -0.4413   -0.3196 C   0  0  0  0  0  0  0  0  0  0  0  0
   -2.1668   -2.0360   -1.2894 H   0  0  0  0  0  0  0  0  0  0  0  0
    0.0546   -0.9862   -0.9771 H   0  0  0  0  0  0  0  0  0  0  0  0
   -1.7843    2.3485    1.0066 H   0  0  0  0  0  0  0  0  0  0  0  0
   -4.0220    1.2968    0.6947 H   0  0  0  0  0  0  0  0  0  0  0  0
   11.6524   -0.7679   -3.7898 N   0  0  0  0  0  0  0  0  0  0  0  0
   10.6101   -0.6912   -3.4301 N   0  0  0  0  0  0  0  0  0  0  0  0
   -4.2201   -0.9006   -0.4578 H   0  0  0  0  0  0  0  0  0  0  0  0
    0.4608    1.3751    0.2389 O   0  0  0  0  0  0  0  0  0  0  0  0
    1.1672    0.8348   -0.1377 H   0  0  0  0  0  0  0  0  0  0  0  0
  1  2  2  0  0  0  0
  1  6  1  0  0  0  0
  2  3  1  0  0  0  0
  3 14  1  0  0  0  0
  3  4  2  0  0  0  0
  4  9  1  0  0  0  0
  5  4  1  0  0  0  0
  5 10  1  0  0  0  0
  6  5  2  0  0  0  0
  7  1  1  0  0  0  0
  8  2  1  0  0  0  0
 11 12  3  0  0  0  0
 13  6  1  0  0  0  0
 15 14  1  0  0  0  0
M  END
