Coordinates from ORCA-job Ph-N2-OH-B3LYPG-6-31G_dp-MTMO-d009-169-n800
 OpenBabel09051908283D

 15 14  0  0  0  0  0  0  0  0999 V2000
   -2.4566   -1.0509   -0.6836 C   0  0  0  0  0  0  0  0  0  0  0  0
   -1.2030   -0.4677   -0.4902 C   0  0  0  0  0  0  0  0  0  0  0  0
   -1.1043    0.7704    0.1540 C   0  0  0  0  0  0  0  0  0  0  0  0
   -2.2596    1.4207    0.6029 C   0  0  0  0  0  0  0  0  0  0  0  0
   -3.5043    0.8280    0.4034 C   0  0  0  0  0  0  0  0  0  0  0  0
   -3.6127   -0.4088   -0.2394 C   0  0  0  0  0  0  0  0  0  0  0  0
   -2.5239   -2.0128   -1.1833 H   0  0  0  0  0  0  0  0  0  0  0  0
   -0.3036   -0.9715   -0.8383 H   0  0  0  0  0  0  0  0  0  0  0  0
   -2.1607    2.3808    1.0982 H   0  0  0  0  0  0  0  0  0  0  0  0
   -4.3974    1.3375    0.7535 H   0  0  0  0  0  0  0  0  0  0  0  0
   14.0357   -0.9435   -4.4557 N   0  0  0  0  0  0  0  0  0  0  0  0
   12.9921   -0.8620   -4.1010 N   0  0  0  0  0  0  0  0  0  0  0  0
   -4.5859   -0.8644   -0.3921 H   0  0  0  0  0  0  0  0  0  0  0  0
    0.0927    1.3939    0.3734 O   0  0  0  0  0  0  0  0  0  0  0  0
    0.8032    0.8487    0.0118 H   0  0  0  0  0  0  0  0  0  0  0  0
  1  2  2  0  0  0  0
  1  6  1  0  0  0  0
  2  3  1  0  0  0  0
  3 14  1  0  0  0  0
  3  4  2  0  0  0  0
  4  9  1  0  0  0  0
  5  4  1  0  0  0  0
  5 10  1  0  0  0  0
  6  5  2  0  0  0  0
  7  1  1  0  0  0  0
  8  2  1  0  0  0  0
 11 12  3  0  0  0  0
 13  6  1  0  0  0  0
 15 14  1  0  0  0  0
M  END
