Coordinates from ORCA-job Ph-N2-OH-B3LYPG-6-31G_dp-MTMO-d009-169-n800
 OpenBabel09051908283D

 15 14  0  0  0  0  0  0  0  0999 V2000
   -0.9494   -1.3324   -0.7991 C   0  0  0  0  0  0  0  0  0  0  0  0
    0.3029   -1.0478   -0.2521 C   0  0  0  0  0  0  0  0  0  0  0  0
    0.6195    0.2656    0.1102 C   0  0  0  0  0  0  0  0  0  0  0  0
   -0.3199    1.2878   -0.0658 C   0  0  0  0  0  0  0  0  0  0  0  0
   -1.5657    0.9904   -0.6129 C   0  0  0  0  0  0  0  0  0  0  0  0
   -1.8892   -0.3182   -0.9837 C   0  0  0  0  0  0  0  0  0  0  0  0
   -1.1864   -2.3542   -1.0818 H   0  0  0  0  0  0  0  0  0  0  0  0
    1.0332   -1.8421   -0.1088 H   0  0  0  0  0  0  0  0  0  0  0  0
   -0.0562    2.2977    0.2302 H   0  0  0  0  0  0  0  0  0  0  0  0
   -2.2904    1.7881   -0.7498 H   0  0  0  0  0  0  0  0  0  0  0  0
    1.8610    0.8129   -2.4783 N   0  0  0  0  0  0  0  0  0  0  0  0
    2.9151    0.9656   -2.1803 N   0  0  0  0  0  0  0  0  0  0  0  0
   -2.8614   -0.5432   -1.4101 H   0  0  0  0  0  0  0  0  0  0  0  0
    1.8246    0.6093    0.6572 O   0  0  0  0  0  0  0  0  0  0  0  0
    2.3741   -0.1811    0.7386 H   0  0  0  0  0  0  0  0  0  0  0  0
  1  2  1  0  0  0  0
  2  8  1  0  0  0  0
  2  3  2  0  0  0  0
  3 14  1  0  0  0  0
  4  3  1  0  0  0  0
  4  9  1  0  0  0  0
  5  4  2  0  0  0  0
  6  1  2  0  0  0  0
  6  5  1  0  0  0  0
  7  1  1  0  0  0  0
 10  5  1  0  0  0  0
 11 12  3  0  0  0  0
 13  6  1  0  0  0  0
 14 15  1  0  0  0  0
M  END
