Coordinates from ORCA-job Ph-N2-OH-B3LYPG-6-31G_dp-MTMO-d009-169-n800
 OpenBabel09051908283D

 15 14  0  0  0  0  0  0  0  0999 V2000
   -1.7384   -1.1027   -0.8911 C   0  0  0  0  0  0  0  0  0  0  0  0
   -0.4794   -0.5156   -0.7525 C   0  0  0  0  0  0  0  0  0  0  0  0
   -0.3549    0.7163   -0.1009 C   0  0  0  0  0  0  0  0  0  0  0  0
   -1.4899    1.3565    0.4101 C   0  0  0  0  0  0  0  0  0  0  0  0
   -2.7403    0.7600    0.2648 C   0  0  0  0  0  0  0  0  0  0  0  0
   -2.8744   -0.4707   -0.3849 C   0  0  0  0  0  0  0  0  0  0  0  0
   -1.8258   -2.0599   -1.3969 H   0  0  0  0  0  0  0  0  0  0  0  0
    0.4044   -1.0114   -1.1488 H   0  0  0  0  0  0  0  0  0  0  0  0
   -1.3712    2.3120    0.9099 H   0  0  0  0  0  0  0  0  0  0  0  0
   -3.6177    1.2618    0.6625 H   0  0  0  0  0  0  0  0  0  0  0  0
    9.2004   -0.5748   -3.0785 N   0  0  0  0  0  0  0  0  0  0  0  0
    8.1590   -0.4918   -2.7176 N   0  0  0  0  0  0  0  0  0  0  0  0
   -3.8520   -0.9295   -0.4948 H   0  0  0  0  0  0  0  0  0  0  0  0
    0.8487    1.3431    0.0669 O   0  0  0  0  0  0  0  0  0  0  0  0
    1.5430    0.8052   -0.3348 H   0  0  0  0  0  0  0  0  0  0  0  0
  1  2  2  0  0  0  0
  1  6  1  0  0  0  0
  2  3  1  0  0  0  0
  3 14  1  0  0  0  0
  3  4  2  0  0  0  0
  4  9  1  0  0  0  0
  5  4  1  0  0  0  0
  5 10  1  0  0  0  0
  6  5  2  0  0  0  0
  7  1  1  0  0  0  0
  8  2  1  0  0  0  0
 11 12  3  0  0  0  0
 13  6  1  0  0  0  0
 15 14  1  0  0  0  0
M  END
