Coordinates from ORCA-job Ph-N2-OH-B3LYPG-6-31G_dp-MTMO-d009-169-n800
 OpenBabel09051908283D

 15 14  0  0  0  0  0  0  0  0999 V2000
   -0.9614   -1.2699   -0.8742 C   0  0  0  0  0  0  0  0  0  0  0  0
    0.3013   -0.8945   -0.4116 C   0  0  0  0  0  0  0  0  0  0  0  0
    0.5077    0.4040    0.0678 C   0  0  0  0  0  0  0  0  0  0  0  0
   -0.5503    1.3204    0.0852 C   0  0  0  0  0  0  0  0  0  0  0  0
   -1.8055    0.9323   -0.3776 C   0  0  0  0  0  0  0  0  0  0  0  0
   -2.0205   -0.3619   -0.8607 C   0  0  0  0  0  0  0  0  0  0  0  0
   -1.1123   -2.2792   -1.2463 H   0  0  0  0  0  0  0  0  0  0  0  0
    1.1240   -1.6063   -0.4214 H   0  0  0  0  0  0  0  0  0  0  0  0
   -0.3690    2.3214    0.4625 H   0  0  0  0  0  0  0  0  0  0  0  0
   -2.6226    1.6483   -0.3617 H   0  0  0  0  0  0  0  0  0  0  0  0
    2.9549    0.6908   -2.8561 N   0  0  0  0  0  0  0  0  0  0  0  0
    3.2769    0.1824   -1.9295 N   0  0  0  0  0  0  0  0  0  0  0  0
   -3.0004   -0.6571   -1.2221 H   0  0  0  0  0  0  0  0  0  0  0  0
    1.7179    0.8352    0.5357 O   0  0  0  0  0  0  0  0  0  0  0  0
    2.3712    0.1325    0.4236 H   0  0  0  0  0  0  0  0  0  0  0  0
  1  6  2  0  0  0  0
  1  2  1  0  0  0  0
  2  3  2  0  0  0  0
  3  4  1  0  0  0  0
  3 14  1  0  0  0  0
  4  9  1  0  0  0  0
  5 10  1  0  0  0  0
  5  4  2  0  0  0  0
  6  5  1  0  0  0  0
  7  1  1  0  0  0  0
  8  2  1  0  0  0  0
 11 12  3  0  0  0  0
 13  6  1  0  0  0  0
 15 14  1  0  0  0  0
M  END
