Coordinates from ORCA-job Ph-N2-OH-B3LYPG-6-31G_dp-MTMO-d009-169-n800
 OpenBabel09051908283D

 15 14  0  0  0  0  0  0  0  0999 V2000
   -2.4842   -1.0489   -0.6759 C   0  0  0  0  0  0  0  0  0  0  0  0
   -1.2308   -0.4656   -0.4815 C   0  0  0  0  0  0  0  0  0  0  0  0
   -1.1327    0.7726    0.1626 C   0  0  0  0  0  0  0  0  0  0  0  0
   -2.2883    1.4230    0.6104 C   0  0  0  0  0  0  0  0  0  0  0  0
   -3.5328    0.8302    0.4100 C   0  0  0  0  0  0  0  0  0  0  0  0
   -3.6407   -0.4067   -0.2328 C   0  0  0  0  0  0  0  0  0  0  0  0
   -2.5512   -2.0109   -1.1756 H   0  0  0  0  0  0  0  0  0  0  0  0
   -0.3310   -0.9694   -0.8288 H   0  0  0  0  0  0  0  0  0  0  0  0
   -2.1898    2.3831    1.1057 H   0  0  0  0  0  0  0  0  0  0  0  0
   -4.4263    1.3397    0.7592 H   0  0  0  0  0  0  0  0  0  0  0  0
   14.2190   -0.9575   -4.5064 N   0  0  0  0  0  0  0  0  0  0  0  0
   13.1753   -0.8756   -4.1520 N   0  0  0  0  0  0  0  0  0  0  0  0
   -4.6138   -0.8622   -0.3862 H   0  0  0  0  0  0  0  0  0  0  0  0
    0.0642    1.3960    0.3828 O   0  0  0  0  0  0  0  0  0  0  0  0
    0.7748    0.8505    0.0219 H   0  0  0  0  0  0  0  0  0  0  0  0
  1  2  2  0  0  0  0
  1  6  1  0  0  0  0
  2  3  1  0  0  0  0
  3 14  1  0  0  0  0
  3  4  2  0  0  0  0
  4  9  1  0  0  0  0
  5  4  1  0  0  0  0
  5 10  1  0  0  0  0
  6  5  2  0  0  0  0
  7  1  1  0  0  0  0
  8  2  1  0  0  0  0
 11 12  3  0  0  0  0
 13  6  1  0  0  0  0
 15 14  1  0  0  0  0
M  END
