Coordinates from ORCA-job Ph-N2-OH-B3LYPG-6-31G_dp-MTMO-d009-169-n800
 OpenBabel09051908283D

 15 14  0  0  0  0  0  0  0  0999 V2000
   -1.2753   -1.4239   -0.9719 C   0  0  0  0  0  0  0  0  0  0  0  0
    0.0746   -1.1236   -1.2069 C   0  0  0  0  0  0  0  0  0  0  0  0
    0.4529    0.1887   -1.0319 C   0  0  0  0  0  0  0  0  0  0  0  0
   -0.3783    1.2278   -0.6753 C   0  0  0  0  0  0  0  0  0  0  0  0
   -1.7233    0.9030   -0.4491 C   0  0  0  0  0  0  0  0  0  0  0  0
   -2.1655   -0.4152   -0.5954 C   0  0  0  0  0  0  0  0  0  0  0  0
   -1.6256   -2.4456   -1.0910 H   0  0  0  0  0  0  0  0  0  0  0  0
    0.7823   -1.8868   -1.5109 H   0  0  0  0  0  0  0  0  0  0  0  0
   -0.0133    2.2424   -0.5640 H   0  0  0  0  0  0  0  0  0  0  0  0
   -2.4206    1.6839   -0.1582 H   0  0  0  0  0  0  0  0  0  0  0  0
    2.3928    0.6233   -1.5772 N   0  0  0  0  0  0  0  0  0  0  0  0
    3.1149    0.8227   -0.6395 N   0  0  0  0  0  0  0  0  0  0  0  0
   -3.2091   -0.6563   -0.4172 H   0  0  0  0  0  0  0  0  0  0  0  0
    2.5260    0.7324    0.6598 O   0  0  0  0  0  0  0  0  0  0  0  0
    3.2794    0.9255    1.2422 H   0  0  0  0  0  0  0  0  0  0  0  0
  1  6  2  0  0  0  0
  2  3  2  0  0  0  0
  2  1  1  0  0  0  0
  3  4  1  0  0  0  0
  4  9  1  0  0  0  0
  4  5  2  0  0  0  0
  5 10  1  0  0  0  0
  6  5  1  0  0  0  0
  6 13  1  0  0  0  0
  7  1  1  0  0  0  0
  8  2  1  0  0  0  0
 11 12  2  0  0  0  0
 12 14  1  0  0  0  0
 14 15  1  0  0  0  0
M  RAD  2   3   2  11   2
M  END
