Coordinates from ORCA-job Ph-N2-OH-B3LYPG-6-31G_dp-MTMO-d009-169-n800
 OpenBabel09051908283D

 15 14  0  0  0  0  0  0  0  0999 V2000
   -1.6349   -1.1133   -0.9222 C   0  0  0  0  0  0  0  0  0  0  0  0
   -0.3696   -0.5357   -0.8031 C   0  0  0  0  0  0  0  0  0  0  0  0
   -0.2258    0.6955   -0.1542 C   0  0  0  0  0  0  0  0  0  0  0  0
   -1.3481    1.3446    0.3734 C   0  0  0  0  0  0  0  0  0  0  0  0
   -2.6050    0.7575    0.2475 C   0  0  0  0  0  0  0  0  0  0  0  0
   -2.7583   -0.4724   -0.3992 C   0  0  0  0  0  0  0  0  0  0  0  0
   -1.7372   -2.0700   -1.4259 H   0  0  0  0  0  0  0  0  0  0  0  0
    0.5044   -1.0385   -1.2123 H   0  0  0  0  0  0  0  0  0  0  0  0
   -1.2146    2.2994    0.8708 H   0  0  0  0  0  0  0  0  0  0  0  0
   -3.4724    1.2663    0.6582 H   0  0  0  0  0  0  0  0  0  0  0  0
    8.4013   -0.4895   -2.8308 N   0  0  0  0  0  0  0  0  0  0  0  0
    7.3587   -0.4044   -2.4740 N   0  0  0  0  0  0  0  0  0  0  0  0
   -3.7409   -0.9240   -0.4938 H   0  0  0  0  0  0  0  0  0  0  0  0
    0.9849    1.3133   -0.0050 O   0  0  0  0  0  0  0  0  0  0  0  0
    1.6692    0.7696   -0.4159 H   0  0  0  0  0  0  0  0  0  0  0  0
  1  2  2  0  0  0  0
  1  6  1  0  0  0  0
  2  3  1  0  0  0  0
  3 14  1  0  0  0  0
  3  4  2  0  0  0  0
  4  9  1  0  0  0  0
  5  4  1  0  0  0  0
  5 10  1  0  0  0  0
  6  5  2  0  0  0  0
  7  1  1  0  0  0  0
  8  2  1  0  0  0  0
 11 12  3  0  0  0  0
 13  6  1  0  0  0  0
 15 14  1  0  0  0  0
M  END
