Coordinates from ORCA-job Ph-N2-OH-B3LYPG-6-31G_dp-MTMO-d009-169-n800
 OpenBabel09051908283D

 15 14  0  0  0  0  0  0  0  0999 V2000
   -2.0398   -1.0797   -0.8027 C   0  0  0  0  0  0  0  0  0  0  0  0
   -0.7858   -0.4902   -0.6320 C   0  0  0  0  0  0  0  0  0  0  0  0
   -0.6807    0.7444    0.0175 C   0  0  0  0  0  0  0  0  0  0  0  0
   -1.8301    1.3851    0.4945 C   0  0  0  0  0  0  0  0  0  0  0  0
   -3.0753    0.7863    0.3177 C   0  0  0  0  0  0  0  0  0  0  0  0
   -3.1900   -0.4472   -0.3304 C   0  0  0  0  0  0  0  0  0  0  0  0
   -2.1120   -2.0390   -1.3067 H   0  0  0  0  0  0  0  0  0  0  0  0
    0.1089   -0.9867   -1.0022 H   0  0  0  0  0  0  0  0  0  0  0  0
   -1.7263    2.3428    0.9935 H   0  0  0  0  0  0  0  0  0  0  0  0
   -3.9638    1.2886    0.6894 H   0  0  0  0  0  0  0  0  0  0  0  0
   11.2862   -0.7427   -3.6854 N   0  0  0  0  0  0  0  0  0  0  0  0
   10.2441   -0.6650   -3.3254 N   0  0  0  0  0  0  0  0  0  0  0  0
   -4.1636   -0.9077   -0.4652 H   0  0  0  0  0  0  0  0  0  0  0  0
    0.5170    1.3738    0.2156 O   0  0  0  0  0  0  0  0  0  0  0  0
    1.2230    0.8357   -0.1647 H   0  0  0  0  0  0  0  0  0  0  0  0
  1  2  2  0  0  0  0
  1  6  1  0  0  0  0
  2  3  1  0  0  0  0
  3 14  1  0  0  0  0
  3  4  2  0  0  0  0
  4  9  1  0  0  0  0
  5  4  1  0  0  0  0
  5 10  1  0  0  0  0
  6  5  2  0  0  0  0
  7  1  1  0  0  0  0
  8  2  1  0  0  0  0
 11 12  3  0  0  0  0
 13  6  1  0  0  0  0
 15 14  1  0  0  0  0
M  END
