Coordinates from ORCA-job Ph-N2-OH-B3LYPG-6-31G_dp-MTMO-d009-169-n800
 OpenBabel09051908283D

 15 14  0  0  0  0  0  0  0  0999 V2000
   -2.5490   -1.0447   -0.6560 C   0  0  0  0  0  0  0  0  0  0  0  0
   -1.2966   -0.4629   -0.4517 C   0  0  0  0  0  0  0  0  0  0  0  0
   -1.2022    0.7766    0.1904 C   0  0  0  0  0  0  0  0  0  0  0  0
   -2.3608    1.4301    0.6259 C   0  0  0  0  0  0  0  0  0  0  0  0
   -3.6044    0.8388    0.4156 C   0  0  0  0  0  0  0  0  0  0  0  0
   -3.7084   -0.3996   -0.2248 C   0  0  0  0  0  0  0  0  0  0  0  0
   -2.6131   -2.0077   -1.1540 H   0  0  0  0  0  0  0  0  0  0  0  0
   -0.3946   -0.9686   -0.7906 H   0  0  0  0  0  0  0  0  0  0  0  0
   -2.2652    2.3912    1.1199 H   0  0  0  0  0  0  0  0  0  0  0  0
   -4.5002    1.3506    0.7556 H   0  0  0  0  0  0  0  0  0  0  0  0
   14.6647   -0.9914   -4.6396 N   0  0  0  0  0  0  0  0  0  0  0  0
   13.6217   -0.9071   -4.2836 N   0  0  0  0  0  0  0  0  0  0  0  0
   -4.6809   -0.8540   -0.3858 H   0  0  0  0  0  0  0  0  0  0  0  0
   -0.0064    1.3985    0.4202 O   0  0  0  0  0  0  0  0  0  0  0  0
    0.7071    0.8486    0.0720 H   0  0  0  0  0  0  0  0  0  0  0  0
  1  2  2  0  0  0  0
  1  6  1  0  0  0  0
  2  3  1  0  0  0  0
  3 14  1  0  0  0  0
  3  4  2  0  0  0  0
  4  9  1  0  0  0  0
  5  4  1  0  0  0  0
  5 10  1  0  0  0  0
  6  5  2  0  0  0  0
  7  1  1  0  0  0  0
  8  2  1  0  0  0  0
 11 12  3  0  0  0  0
 13  6  1  0  0  0  0
 15 14  1  0  0  0  0
M  END
