Coordinates from ORCA-job Ph-N2-OH-B3LYPG-6-31G_dp-MTMO-d009-169-n800
 OpenBabel09051908283D

 15 14  0  0  0  0  0  0  0  0999 V2000
   -1.7674   -1.1001   -0.8825 C   0  0  0  0  0  0  0  0  0  0  0  0
   -0.5096   -0.5114   -0.7395 C   0  0  0  0  0  0  0  0  0  0  0  0
   -0.3889    0.7206   -0.0875 C   0  0  0  0  0  0  0  0  0  0  0  0
   -1.5264    1.3596    0.4194 C   0  0  0  0  0  0  0  0  0  0  0  0
   -2.7756    0.7615    0.2697 C   0  0  0  0  0  0  0  0  0  0  0  0
   -2.9059   -0.4694   -0.3804 C   0  0  0  0  0  0  0  0  0  0  0  0
   -1.8519   -2.0574   -1.3885 H   0  0  0  0  0  0  0  0  0  0  0  0
    0.3762   -1.0062   -1.1326 H   0  0  0  0  0  0  0  0  0  0  0  0
   -1.4107    2.3152    0.9195 H   0  0  0  0  0  0  0  0  0  0  0  0
   -3.6550    1.2622    0.6644 H   0  0  0  0  0  0  0  0  0  0  0  0
    9.4139   -0.5949   -3.1428 N   0  0  0  0  0  0  0  0  0  0  0  0
    8.3726   -0.5125   -2.7814 N   0  0  0  0  0  0  0  0  0  0  0  0
   -3.8825   -0.9294   -0.4936 H   0  0  0  0  0  0  0  0  0  0  0  0
    0.8134    1.3489    0.0844 O   0  0  0  0  0  0  0  0  0  0  0  0
    1.5097    0.8119   -0.3149 H   0  0  0  0  0  0  0  0  0  0  0  0
  1  2  2  0  0  0  0
  1  6  1  0  0  0  0
  2  3  1  0  0  0  0
  3 14  1  0  0  0  0
  3  4  2  0  0  0  0
  4  9  1  0  0  0  0
  5  4  1  0  0  0  0
  5 10  1  0  0  0  0
  6  5  2  0  0  0  0
  7  1  1  0  0  0  0
  8  2  1  0  0  0  0
 11 12  3  0  0  0  0
 13  6  1  0  0  0  0
 15 14  1  0  0  0  0
M  END
