Coordinates from ORCA-job Ph-N2-OH-B3LYPG-6-31G_dp-MTMO-d009-169-n800
 OpenBabel09051908283D

 15 14  0  0  0  0  0  0  0  0999 V2000
   -2.3044   -1.0617   -0.7265 C   0  0  0  0  0  0  0  0  0  0  0  0
   -1.0506   -0.4768   -0.5392 C   0  0  0  0  0  0  0  0  0  0  0  0
   -0.9502    0.7604    0.1064 C   0  0  0  0  0  0  0  0  0  0  0  0
   -2.1038    1.4083    0.5628 C   0  0  0  0  0  0  0  0  0  0  0  0
   -3.3488    0.8139    0.3694 C   0  0  0  0  0  0  0  0  0  0  0  0
   -3.4589   -0.4220   -0.2747 C   0  0  0  0  0  0  0  0  0  0  0  0
   -2.3732   -2.0229   -1.2273 H   0  0  0  0  0  0  0  0  0  0  0  0
   -0.1523   -0.9786   -0.8932 H   0  0  0  0  0  0  0  0  0  0  0  0
   -2.0035    2.3677    1.0591 H   0  0  0  0  0  0  0  0  0  0  0  0
   -4.2407    1.3215    0.7253 H   0  0  0  0  0  0  0  0  0  0  0  0
   13.0351   -0.8694   -4.1779 N   0  0  0  0  0  0  0  0  0  0  0  0
   11.9919   -0.7901   -3.8211 N   0  0  0  0  0  0  0  0  0  0  0  0
   -4.4323   -0.8788   -0.4225 H   0  0  0  0  0  0  0  0  0  0  0  0
    0.2472    1.3852    0.3198 O   0  0  0  0  0  0  0  0  0  0  0  0
    0.9562    0.8415   -0.0467 H   0  0  0  0  0  0  0  0  0  0  0  0
  1  2  2  0  0  0  0
  1  6  1  0  0  0  0
  2  3  1  0  0  0  0
  3 14  1  0  0  0  0
  3  4  2  0  0  0  0
  4  9  1  0  0  0  0
  5  4  1  0  0  0  0
  5 10  1  0  0  0  0
  6  5  2  0  0  0  0
  7  1  1  0  0  0  0
  8  2  1  0  0  0  0
 11 12  3  0  0  0  0
 13  6  1  0  0  0  0
 15 14  1  0  0  0  0
M  END
