Coordinates from ORCA-job Ph-N2-OH-B3LYPG-6-31G_dp-MTMO-d009-169-n800
 OpenBabel09051908283D

 15 14  0  0  0  0  0  0  0  0999 V2000
   -2.1613   -1.0718   -0.7672 C   0  0  0  0  0  0  0  0  0  0  0  0
   -0.9070   -0.4856   -0.5878 C   0  0  0  0  0  0  0  0  0  0  0  0
   -0.8036    0.7506    0.0592 C   0  0  0  0  0  0  0  0  0  0  0  0
   -1.9548    1.3962    0.5250 C   0  0  0  0  0  0  0  0  0  0  0  0
   -3.2003    0.8005    0.3394 C   0  0  0  0  0  0  0  0  0  0  0  0
   -3.3134   -0.4344   -0.3061 C   0  0  0  0  0  0  0  0  0  0  0  0
   -2.2324   -2.0323   -1.2691 H   0  0  0  0  0  0  0  0  0  0  0  0
   -0.0105   -0.9856   -0.9490 H   0  0  0  0  0  0  0  0  0  0  0  0
   -1.8522    2.3549    1.0221 H   0  0  0  0  0  0  0  0  0  0  0  0
   -4.0903    1.3064    0.7024 H   0  0  0  0  0  0  0  0  0  0  0  0
   12.0857   -0.7980   -3.9121 N   0  0  0  0  0  0  0  0  0  0  0  0
   11.0431   -0.7215   -3.5531 N   0  0  0  0  0  0  0  0  0  0  0  0
   -4.2873   -0.8923   -0.4477 H   0  0  0  0  0  0  0  0  0  0  0  0
    0.3945    1.3766    0.2652 O   0  0  0  0  0  0  0  0  0  0  0  0
    1.1016    0.8346   -0.1075 H   0  0  0  0  0  0  0  0  0  0  0  0
  1  2  2  0  0  0  0
  1  6  1  0  0  0  0
  2  3  1  0  0  0  0
  3 14  1  0  0  0  0
  3  4  2  0  0  0  0
  4  9  1  0  0  0  0
  5  4  1  0  0  0  0
  5 10  1  0  0  0  0
  6  5  2  0  0  0  0
  7  1  1  0  0  0  0
  8  2  1  0  0  0  0
 11 12  3  0  0  0  0
 13  6  1  0  0  0  0
 15 14  1  0  0  0  0
M  END
