Coordinates from ORCA-job Ph-N2-OH-B3LYPG-6-31G_dp-MTMO-d009-169-n800
 OpenBabel09051908283D

 15 14  0  0  0  0  0  0  0  0999 V2000
   -0.9888   -1.2310   -0.9155 C   0  0  0  0  0  0  0  0  0  0  0  0
    0.2802   -0.8164   -0.5069 C   0  0  0  0  0  0  0  0  0  0  0  0
    0.4545    0.4666    0.0248 C   0  0  0  0  0  0  0  0  0  0  0  0
   -0.6431    1.3269    0.1496 C   0  0  0  0  0  0  0  0  0  0  0  0
   -1.9041    0.8997   -0.2596 C   0  0  0  0  0  0  0  0  0  0  0  0
   -2.0867   -0.3787   -0.7953 C   0  0  0  0  0  0  0  0  0  0  0  0
   -1.1144   -2.2279   -1.3282 H   0  0  0  0  0  0  0  0  0  0  0  0
    1.1324   -1.4859   -0.5993 H   0  0  0  0  0  0  0  0  0  0  0  0
   -0.4865    2.3167    0.5654 H   0  0  0  0  0  0  0  0  0  0  0  0
   -2.7514    1.5725   -0.1599 H   0  0  0  0  0  0  0  0  0  0  0  0
    3.5058    0.3944   -2.8954 N   0  0  0  0  0  0  0  0  0  0  0  0
    3.4690    0.0551   -1.8448 N   0  0  0  0  0  0  0  0  0  0  0  0
   -3.0715   -0.7045   -1.1148 H   0  0  0  0  0  0  0  0  0  0  0  0
    1.6684    0.9349    0.4432 O   0  0  0  0  0  0  0  0  0  0  0  0
    2.3480    0.2761    0.2503 H   0  0  0  0  0  0  0  0  0  0  0  0
  1  6  2  0  0  0  0
  1  2  1  0  0  0  0
  2  3  2  0  0  0  0
  3  4  1  0  0  0  0
  3 14  1  0  0  0  0
  4  9  1  0  0  0  0
  5 10  1  0  0  0  0
  5  4  2  0  0  0  0
  6  5  1  0  0  0  0
  7  1  1  0  0  0  0
  8  2  1  0  0  0  0
 11 12  3  0  0  0  0
 13  6  1  0  0  0  0
 15 14  1  0  0  0  0
M  END
