Coordinates from ORCA-job Ph-N2-OH-B3LYPG-6-31G_dp-MTMO-d009-169-n800
 OpenBabel09051908283D

 15 14  0  0  0  0  0  0  0  0999 V2000
   -1.5614   -1.1223   -0.9446 C   0  0  0  0  0  0  0  0  0  0  0  0
   -0.2890   -0.5567   -0.8436 C   0  0  0  0  0  0  0  0  0  0  0  0
   -0.1247    0.6740   -0.1988 C   0  0  0  0  0  0  0  0  0  0  0  0
   -1.2335    1.3347    0.3429 C   0  0  0  0  0  0  0  0  0  0  0  0
   -2.4976    0.7595    0.2351 C   0  0  0  0  0  0  0  0  0  0  0  0
   -2.6714   -0.4699   -0.4075 C   0  0  0  0  0  0  0  0  0  0  0  0
   -1.6796   -2.0788   -1.4453 H   0  0  0  0  0  0  0  0  0  0  0  0
    0.5744   -1.0685   -1.2639 H   0  0  0  0  0  0  0  0  0  0  0  0
   -1.0841    2.2889    0.8369 H   0  0  0  0  0  0  0  0  0  0  0  0
   -3.3544    1.2772    0.6566 H   0  0  0  0  0  0  0  0  0  0  0  0
    7.7879   -0.4113   -2.6326 N   0  0  0  0  0  0  0  0  0  0  0  0
    6.7431   -0.3256   -2.2822 N   0  0  0  0  0  0  0  0  0  0  0  0
   -3.6594   -0.9123   -0.4878 H   0  0  0  0  0  0  0  0  0  0  0  0
    1.0937    1.2805   -0.0670 O   0  0  0  0  0  0  0  0  0  0  0  0
    1.7677    0.7290   -0.4847 H   0  0  0  0  0  0  0  0  0  0  0  0
  1  2  2  0  0  0  0
  1  6  1  0  0  0  0
  2  3  1  0  0  0  0
  3 14  1  0  0  0  0
  3  4  2  0  0  0  0
  4  9  1  0  0  0  0
  5  4  1  0  0  0  0
  5 10  1  0  0  0  0
  6  5  2  0  0  0  0
  7  1  1  0  0  0  0
  8  2  1  0  0  0  0
 11 12  3  0  0  0  0
 13  6  1  0  0  0  0
 15 14  1  0  0  0  0
M  END
