Coordinates from ORCA-job Ph-N2-OH-B3LYPG-6-31G_dp-MTMO-d009-169-n800
 OpenBabel09051908283D

 15 14  0  0  0  0  0  0  0  0999 V2000
   -1.6532   -1.1113   -0.9167 C   0  0  0  0  0  0  0  0  0  0  0  0
   -0.3892   -0.5314   -0.7936 C   0  0  0  0  0  0  0  0  0  0  0  0
   -0.2497    0.6999   -0.1440 C   0  0  0  0  0  0  0  0  0  0  0  0
   -1.3746    1.3469    0.3804 C   0  0  0  0  0  0  0  0  0  0  0  0
   -2.6301    0.7576    0.2506 C   0  0  0  0  0  0  0  0  0  0  0  0
   -2.7793   -0.4725   -0.3969 C   0  0  0  0  0  0  0  0  0  0  0  0
   -1.7523   -2.0681   -1.4209 H   0  0  0  0  0  0  0  0  0  0  0  0
    0.4869   -1.0326   -1.2004 H   0  0  0  0  0  0  0  0  0  0  0  0
   -1.2444    2.3018    0.8784 H   0  0  0  0  0  0  0  0  0  0  0  0
   -3.4997    1.2646    0.6587 H   0  0  0  0  0  0  0  0  0  0  0  0
    8.5474   -0.5064   -2.8770 N   0  0  0  0  0  0  0  0  0  0  0  0
    7.5051   -0.4216   -2.5191 N   0  0  0  0  0  0  0  0  0  0  0  0
   -3.7607   -0.9258   -0.4946 H   0  0  0  0  0  0  0  0  0  0  0  0
    0.9595    1.3198    0.0089 O   0  0  0  0  0  0  0  0  0  0  0  0
    1.6460    0.7775   -0.4003 H   0  0  0  0  0  0  0  0  0  0  0  0
  1  2  2  0  0  0  0
  1  6  1  0  0  0  0
  2  3  1  0  0  0  0
  3 14  1  0  0  0  0
  3  4  2  0  0  0  0
  4  9  1  0  0  0  0
  5  4  1  0  0  0  0
  5 10  1  0  0  0  0
  6  5  2  0  0  0  0
  7  1  1  0  0  0  0
  8  2  1  0  0  0  0
 11 12  3  0  0  0  0
 13  6  1  0  0  0  0
 15 14  1  0  0  0  0
M  END
