Coordinates from ORCA-job Ph-N2-OH-B3LYPG-6-31G_dp-MTMO-d009-169-n800
 OpenBabel09051908283D

 15 14  0  0  0  0  0  0  0  0999 V2000
   -1.2900   -1.4265   -0.9520 C   0  0  0  0  0  0  0  0  0  0  0  0
    0.0604   -1.1142   -1.1781 C   0  0  0  0  0  0  0  0  0  0  0  0
    0.4086    0.2057   -1.0209 C   0  0  0  0  0  0  0  0  0  0  0  0
   -0.4288    1.2429   -0.6859 C   0  0  0  0  0  0  0  0  0  0  0  0
   -1.7732    0.9024   -0.4674 C   0  0  0  0  0  0  0  0  0  0  0  0
   -2.1961   -0.4233   -0.5993 C   0  0  0  0  0  0  0  0  0  0  0  0
   -1.6255   -2.4547   -1.0586 H   0  0  0  0  0  0  0  0  0  0  0  0
    0.7803   -1.8744   -1.4601 H   0  0  0  0  0  0  0  0  0  0  0  0
   -0.0780    2.2637   -0.5870 H   0  0  0  0  0  0  0  0  0  0  0  0
   -2.4828    1.6789   -0.1939 H   0  0  0  0  0  0  0  0  0  0  0  0
    2.5307    0.7240   -1.6072 N   0  0  0  0  0  0  0  0  0  0  0  0
    3.2187    0.8558   -0.6451 N   0  0  0  0  0  0  0  0  0  0  0  0
   -3.2381   -0.6756   -0.4272 H   0  0  0  0  0  0  0  0  0  0  0  0
    2.5942    0.6704    0.6401 O   0  0  0  0  0  0  0  0  0  0  0  0
    3.3311    0.8233    1.2561 H   0  0  0  0  0  0  0  0  0  0  0  0
  1  6  2  0  0  0  0
  2  3  2  0  0  0  0
  2  1  1  0  0  0  0
  3  4  1  0  0  0  0
  4  9  1  0  0  0  0
  4  5  2  0  0  0  0
  5 10  1  0  0  0  0
  6  5  1  0  0  0  0
  6 13  1  0  0  0  0
  7  1  1  0  0  0  0
  8  2  1  0  0  0  0
 11 12  2  0  0  0  0
 12 14  1  0  0  0  0
 14 15  1  0  0  0  0
M  RAD  2   3   2  11   2
M  END
