Coordinates from ORCA-job Ph-N2-OH-B3LYPG-6-31G_dp-MTMO-d009-169-n800
 OpenBabel09051908283D

 15 14  0  0  0  0  0  0  0  0999 V2000
   -1.4931   -1.1424   -0.9772 C   0  0  0  0  0  0  0  0  0  0  0  0
   -0.1951   -0.6295   -0.9455 C   0  0  0  0  0  0  0  0  0  0  0  0
    0.0526    0.5961   -0.3178 C   0  0  0  0  0  0  0  0  0  0  0  0
   -0.9991    1.3044    0.2753 C   0  0  0  0  0  0  0  0  0  0  0  0
   -2.2896    0.7816    0.2364 C   0  0  0  0  0  0  0  0  0  0  0  0
   -2.5464   -0.4426   -0.3881 C   0  0  0  0  0  0  0  0  0  0  0  0
   -1.6762   -2.0953   -1.4651 H   0  0  0  0  0  0  0  0  0  0  0  0
    0.6236   -1.1789   -1.4059 H   0  0  0  0  0  0  0  0  0  0  0  0
   -0.7852    2.2536    0.7549 H   0  0  0  0  0  0  0  0  0  0  0  0
   -3.1015    1.3361    0.6981 H   0  0  0  0  0  0  0  0  0  0  0  0
    6.8069   -0.1554   -2.1845 N   0  0  0  0  0  0  0  0  0  0  0  0
    5.7382   -0.1054   -1.9072 N   0  0  0  0  0  0  0  0  0  0  0  0
   -3.5544   -0.8448   -0.4143 H   0  0  0  0  0  0  0  0  0  0  0  0
    1.3002    1.1521   -0.2519 O   0  0  0  0  0  0  0  0  0  0  0  0
    1.9309    0.5689   -0.6936 H   0  0  0  0  0  0  0  0  0  0  0  0
  1  2  2  0  0  0  0
  1  6  1  0  0  0  0
  2  3  1  0  0  0  0
  3 14  1  0  0  0  0
  3  4  2  0  0  0  0
  4  9  1  0  0  0  0
  5  4  1  0  0  0  0
  5 10  1  0  0  0  0
  6  5  2  0  0  0  0
  7  1  1  0  0  0  0
  8  2  1  0  0  0  0
 11 12  3  0  0  0  0
 13  6  1  0  0  0  0
 15 14  1  0  0  0  0
M  END
