Coordinates from ORCA-job Ph-N2-OH-B3LYPG-6-31G_dp-MTMO-d009-169-n800
 OpenBabel09051908283D

 15 14  0  0  0  0  0  0  0  0999 V2000
   -0.9739   -1.2411   -0.9062 C   0  0  0  0  0  0  0  0  0  0  0  0
    0.2918   -0.8389   -0.4755 C   0  0  0  0  0  0  0  0  0  0  0  0
    0.4727    0.4485    0.0432 C   0  0  0  0  0  0  0  0  0  0  0  0
   -0.6149    1.3257    0.1331 C   0  0  0  0  0  0  0  0  0  0  0  0
   -1.8727    0.9107   -0.2978 C   0  0  0  0  0  0  0  0  0  0  0  0
   -2.0619   -0.3720   -0.8209 C   0  0  0  0  0  0  0  0  0  0  0  0
   -1.1047   -2.2414   -1.3089 H   0  0  0  0  0  0  0  0  0  0  0  0
    1.1363   -1.5212   -0.5408 H   0  0  0  0  0  0  0  0  0  0  0  0
   -0.4532    2.3185    0.5397 H   0  0  0  0  0  0  0  0  0  0  0  0
   -2.7123    1.5965   -0.2252 H   0  0  0  0  0  0  0  0  0  0  0  0
    3.3066    0.4746   -2.8974 N   0  0  0  0  0  0  0  0  0  0  0  0
    3.4001    0.0868   -1.8672 N   0  0  0  0  0  0  0  0  0  0  0  0
   -3.0441   -0.6882   -1.1574 H   0  0  0  0  0  0  0  0  0  0  0  0
    1.6840    0.9054    0.4819 O   0  0  0  0  0  0  0  0  0  0  0  0
    2.3580    0.2345    0.3129 H   0  0  0  0  0  0  0  0  0  0  0  0
  1  6  2  0  0  0  0
  1  2  1  0  0  0  0
  2  3  2  0  0  0  0
  3  4  1  0  0  0  0
  3 14  1  0  0  0  0
  4  9  1  0  0  0  0
  5 10  1  0  0  0  0
  5  4  2  0  0  0  0
  6  5  1  0  0  0  0
  7  1  1  0  0  0  0
  8  2  1  0  0  0  0
 11 12  3  0  0  0  0
 13  6  1  0  0  0  0
 15 14  1  0  0  0  0
M  END
