Coordinates from ORCA-job Ph-N2-OH-B3LYPG-6-31G_dp-MTMO-d009-169-n800
 OpenBabel09051908283D

 15 15  0  0  0  0  0  0  0  0999 V2000
   -1.3723   -1.3716   -1.3167 C   0  0  0  0  0  0  0  0  0  0  0  0
    0.0119   -1.2755   -1.2950 C   0  0  0  0  0  0  0  0  0  0  0  0
    0.6811   -0.1511   -0.7396 C   0  0  0  0  0  0  0  0  0  0  0  0
   -0.1319    0.8881   -0.2008 C   0  0  0  0  0  0  0  0  0  0  0  0
   -1.5192    0.7810   -0.2291 C   0  0  0  0  0  0  0  0  0  0  0  0
   -2.1461   -0.3386   -0.7812 C   0  0  0  0  0  0  0  0  0  0  0  0
   -1.8485   -2.2468   -1.7487 H   0  0  0  0  0  0  0  0  0  0  0  0
    0.6341   -2.0645   -1.7051 H   0  0  0  0  0  0  0  0  0  0  0  0
    0.3318    1.7620    0.2289 H   0  0  0  0  0  0  0  0  0  0  0  0
   -2.1192    1.5855    0.1867 H   0  0  0  0  0  0  0  0  0  0  0  0
    1.9584   -0.2191   -0.7980 N   0  0  0  0  0  0  0  0  0  0  0  0
    2.8663    0.5294   -0.4271 N   0  0  0  0  0  0  0  0  0  0  0  0
   -3.2306   -0.4049   -0.7941 H   0  0  0  0  0  0  0  0  0  0  0  0
    2.4217    1.7562    0.2162 O   0  0  0  0  0  0  0  0  0  0  0  0
    3.2745    2.1681    0.4172 H   0  0  0  0  0  0  0  0  0  0  0  0
  1  2  2  0  0  0  0
  1  6  1  0  0  0  0
  2  3  1  0  0  0  0
  3  4  2  0  0  0  0
  4  9  1  0  0  0  0
  5  4  1  0  0  0  0
  5 10  1  0  0  0  0
  6  5  2  0  0  0  0
  7  1  1  0  0  0  0
  8  2  1  0  0  0  0
 11  3  1  0  0  0  0
 11 12  1  0  0  0  0
 12 14  1  0  0  0  0
 13  6  1  0  0  0  0
 14 15  1  0  0  0  0
M  RAD  2  11   2  12   2
M  END
