Coordinates from ORCA-job Ph-N2-OH-B3LYPG-6-31G_dp-MTMO-d009-169-n800
 OpenBabel09051908283D

 15 14  0  0  0  0  0  0  0  0999 V2000
   -1.1165   -1.1370   -1.0300 C   0  0  0  0  0  0  0  0  0  0  0  0
    0.1609   -0.5979   -0.8660 C   0  0  0  0  0  0  0  0  0  0  0  0
    0.3183    0.6356   -0.2228 C   0  0  0  0  0  0  0  0  0  0  0  0
   -0.8051    1.3224    0.2540 C   0  0  0  0  0  0  0  0  0  0  0  0
   -2.0737    0.7733    0.0841 C   0  0  0  0  0  0  0  0  0  0  0  0
   -2.2398   -0.4577   -0.5577 C   0  0  0  0  0  0  0  0  0  0  0  0
   -1.2284   -2.0953   -1.5289 H   0  0  0  0  0  0  0  0  0  0  0  0
    1.0330   -1.1325   -1.2351 H   0  0  0  0  0  0  0  0  0  0  0  0
   -0.6618    2.2776    0.7481 H   0  0  0  0  0  0  0  0  0  0  0  0
   -2.9402    1.3124    0.4563 H   0  0  0  0  0  0  0  0  0  0  0  0
    4.8512   -0.3813   -2.2913 N   0  0  0  0  0  0  0  0  0  0  0  0
    3.9799   -0.1194   -1.6652 N   0  0  0  0  0  0  0  0  0  0  0  0
   -3.2312   -0.8801   -0.6875 H   0  0  0  0  0  0  0  0  0  0  0  0
    1.5380    1.2174   -0.0290 O   0  0  0  0  0  0  0  0  0  0  0  0
    2.2271    0.6610   -0.4155 H   0  0  0  0  0  0  0  0  0  0  0  0
  1  2  2  0  0  0  0
  1  6  1  0  0  0  0
  2  3  1  0  0  0  0
  3 14  1  0  0  0  0
  3  4  2  0  0  0  0
  4  9  1  0  0  0  0
  5  4  1  0  0  0  0
  5 10  1  0  0  0  0
  6  5  2  0  0  0  0
  7  1  1  0  0  0  0
  8  2  1  0  0  0  0
 11 12  3  0  0  0  0
 13  6  1  0  0  0  0
 15 14  1  0  0  0  0
M  END
