Coordinates from ORCA-job Ph-N2-OH-B3LYPG-6-31G_dp-MTMO-d009-169-n800
 OpenBabel09051908283D

 15 14  0  0  0  0  0  0  0  0999 V2000
   -2.0931   -1.0763   -0.7870 C   0  0  0  0  0  0  0  0  0  0  0  0
   -0.8389   -0.4886   -0.6123 C   0  0  0  0  0  0  0  0  0  0  0  0
   -0.7343    0.7468    0.0360 C   0  0  0  0  0  0  0  0  0  0  0  0
   -1.8846    1.3900    0.5076 C   0  0  0  0  0  0  0  0  0  0  0  0
   -3.1300    0.7929    0.3267 C   0  0  0  0  0  0  0  0  0  0  0  0
   -3.2442   -0.4413   -0.3201 C   0  0  0  0  0  0  0  0  0  0  0  0
   -2.1649   -2.0362   -1.2899 H   0  0  0  0  0  0  0  0  0  0  0  0
    0.0565   -0.9871   -0.9782 H   0  0  0  0  0  0  0  0  0  0  0  0
   -1.7812    2.3482    1.0056 H   0  0  0  0  0  0  0  0  0  0  0  0
   -4.0192    1.2971    0.6943 H   0  0  0  0  0  0  0  0  0  0  0  0
   11.6361   -0.7662   -3.7851 N   0  0  0  0  0  0  0  0  0  0  0  0
   10.5938   -0.6897   -3.4253 N   0  0  0  0  0  0  0  0  0  0  0  0
   -4.2180   -0.9005   -0.4581 H   0  0  0  0  0  0  0  0  0  0  0  0
    0.4636    1.3745    0.2379 O   0  0  0  0  0  0  0  0  0  0  0  0
    1.1702    0.8347   -0.1388 H   0  0  0  0  0  0  0  0  0  0  0  0
  1  2  2  0  0  0  0
  1  6  1  0  0  0  0
  2  3  1  0  0  0  0
  3 14  1  0  0  0  0
  3  4  2  0  0  0  0
  4  9  1  0  0  0  0
  5  4  1  0  0  0  0
  5 10  1  0  0  0  0
  6  5  2  0  0  0  0
  7  1  1  0  0  0  0
  8  2  1  0  0  0  0
 11 12  3  0  0  0  0
 13  6  1  0  0  0  0
 15 14  1  0  0  0  0
M  END
