Coordinates from ORCA-job Ph-N2-OH-B3LYPG-6-31G_dp-MTMO-d009-169-n800
 OpenBabel09051908283D

 15 14  0  0  0  0  0  0  0  0999 V2000
   -1.5632   -1.1221   -0.9440 C   0  0  0  0  0  0  0  0  0  0  0  0
   -0.2911   -0.5561   -0.8426 C   0  0  0  0  0  0  0  0  0  0  0  0
   -0.1274    0.6747   -0.1976 C   0  0  0  0  0  0  0  0  0  0  0  0
   -1.2365    1.3350    0.3437 C   0  0  0  0  0  0  0  0  0  0  0  0
   -2.5004    0.7594    0.2354 C   0  0  0  0  0  0  0  0  0  0  0  0
   -2.6736   -0.4700   -0.4073 C   0  0  0  0  0  0  0  0  0  0  0  0
   -1.6810   -2.0785   -1.4448 H   0  0  0  0  0  0  0  0  0  0  0  0
    0.5727   -1.0676   -1.2625 H   0  0  0  0  0  0  0  0  0  0  0  0
   -1.0876    2.2892    0.8378 H   0  0  0  0  0  0  0  0  0  0  0  0
   -3.3576    1.2768    0.6567 H   0  0  0  0  0  0  0  0  0  0  0  0
    7.8040   -0.4135   -2.6379 N   0  0  0  0  0  0  0  0  0  0  0  0
    6.7593   -0.3278   -2.2873 N   0  0  0  0  0  0  0  0  0  0  0  0
   -3.6615   -0.9127   -0.4880 H   0  0  0  0  0  0  0  0  0  0  0  0
    1.0908    1.2814   -0.0653 O   0  0  0  0  0  0  0  0  0  0  0  0
    1.7651    0.7302   -0.4829 H   0  0  0  0  0  0  0  0  0  0  0  0
  1  2  2  0  0  0  0
  1  6  1  0  0  0  0
  2  3  1  0  0  0  0
  3 14  1  0  0  0  0
  3  4  2  0  0  0  0
  4  9  1  0  0  0  0
  5  4  1  0  0  0  0
  5 10  1  0  0  0  0
  6  5  2  0  0  0  0
  7  1  1  0  0  0  0
  8  2  1  0  0  0  0
 11 12  3  0  0  0  0
 13  6  1  0  0  0  0
 15 14  1  0  0  0  0
M  END
