Coordinates from ORCA-job Ph-N2-OH-B3LYPG-6-31G_dp-MTMO-d009-169-n800
 OpenBabel09051908283D

 15 14  0  0  0  0  0  0  0  0999 V2000
   -2.5686   -1.0434   -0.6501 C   0  0  0  0  0  0  0  0  0  0  0  0
   -1.3162   -0.4623   -0.4431 C   0  0  0  0  0  0  0  0  0  0  0  0
   -1.2228    0.7776    0.1984 C   0  0  0  0  0  0  0  0  0  0  0  0
   -2.3820    1.4321    0.6308 C   0  0  0  0  0  0  0  0  0  0  0  0
   -3.6255    0.8413    0.4178 C   0  0  0  0  0  0  0  0  0  0  0  0
   -3.7286   -0.3974   -0.2221 C   0  0  0  0  0  0  0  0  0  0  0  0
   -2.6320   -2.0067   -1.1476 H   0  0  0  0  0  0  0  0  0  0  0  0
   -0.4137   -0.9686   -0.7794 H   0  0  0  0  0  0  0  0  0  0  0  0
   -2.2871    2.3934    1.1244 H   0  0  0  0  0  0  0  0  0  0  0  0
   -4.5218    1.3539    0.7553 H   0  0  0  0  0  0  0  0  0  0  0  0
   14.7971   -1.0012   -4.6784 N   0  0  0  0  0  0  0  0  0  0  0  0
   13.7541   -0.9165   -4.3224 N   0  0  0  0  0  0  0  0  0  0  0  0
   -4.7009   -0.8513   -0.3853 H   0  0  0  0  0  0  0  0  0  0  0  0
   -0.0271    1.3990    0.4308 O   0  0  0  0  0  0  0  0  0  0  0  0
    0.6869    0.8486    0.0845 H   0  0  0  0  0  0  0  0  0  0  0  0
  1  2  2  0  0  0  0
  1  6  1  0  0  0  0
  2  3  1  0  0  0  0
  3 14  1  0  0  0  0
  3  4  2  0  0  0  0
  4  9  1  0  0  0  0
  5  4  1  0  0  0  0
  5 10  1  0  0  0  0
  6  5  2  0  0  0  0
  7  1  1  0  0  0  0
  8  2  1  0  0  0  0
 11 12  3  0  0  0  0
 13  6  1  0  0  0  0
 15 14  1  0  0  0  0
M  END
