Coordinates from ORCA-job Ph-N2-OH-B3LYPG-6-31G_dp-MTMO-d009-169-n800
 OpenBabel09051908283D

 15 14  0  0  0  0  0  0  0  0999 V2000
   -1.0112   -1.2053   -0.9439 C   0  0  0  0  0  0  0  0  0  0  0  0
    0.2616   -0.7619   -0.5801 C   0  0  0  0  0  0  0  0  0  0  0  0
    0.4203    0.5095   -0.0161 C   0  0  0  0  0  0  0  0  0  0  0  0
   -0.6974    1.3286    0.1858 C   0  0  0  0  0  0  0  0  0  0  0  0
   -1.9619    0.8730   -0.1795 C   0  0  0  0  0  0  0  0  0  0  0  0
   -2.1288   -0.3938   -0.7470 C   0  0  0  0  0  0  0  0  0  0  0  0
   -1.1245   -2.1929   -1.3817 H   0  0  0  0  0  0  0  0  0  0  0  0
    1.1288   -1.4003   -0.7323 H   0  0  0  0  0  0  0  0  0  0  0  0
   -0.5528    2.3100    0.6251 H   0  0  0  0  0  0  0  0  0  0  0  0
   -2.8243    1.5143   -0.0198 H   0  0  0  0  0  0  0  0  0  0  0  0
    3.8488    0.1737   -2.8558 N   0  0  0  0  0  0  0  0  0  0  0  0
    3.6065    0.0075   -1.7911 N   0  0  0  0  0  0  0  0  0  0  0  0
   -3.1166   -0.7420   -1.0318 H   0  0  0  0  0  0  0  0  0  0  0  0
    1.6363    1.0043    0.3616 O   0  0  0  0  0  0  0  0  0  0  0  0
    2.3270    0.3738    0.1201 H   0  0  0  0  0  0  0  0  0  0  0  0
  1  6  2  0  0  0  0
  1  2  1  0  0  0  0
  2  3  2  0  0  0  0
  3  4  1  0  0  0  0
  3 14  1  0  0  0  0
  4  9  1  0  0  0  0
  5 10  1  0  0  0  0
  5  4  2  0  0  0  0
  6  5  1  0  0  0  0
  7  1  1  0  0  0  0
  8  2  1  0  0  0  0
 11 12  3  0  0  0  0
 13  6  1  0  0  0  0
 15 14  1  0  0  0  0
M  END
