Coordinates from ORCA-job Ph-N2-OH-B3LYPG-6-31G_dp-MTMO-d009-169-n800
 OpenBabel09051908283D

 15 14  0  0  0  0  0  0  0  0999 V2000
   -1.4488   -1.1369   -0.9777 C   0  0  0  0  0  0  0  0  0  0  0  0
   -0.1642   -0.5953   -0.9037 C   0  0  0  0  0  0  0  0  0  0  0  0
    0.0357    0.6346   -0.2674 C   0  0  0  0  0  0  0  0  0  0  0  0
   -1.0497    1.3184    0.2925 C   0  0  0  0  0  0  0  0  0  0  0  0
   -2.3264    0.7670    0.2115 C   0  0  0  0  0  0  0  0  0  0  0  0
   -2.5357   -0.4615   -0.4222 C   0  0  0  0  0  0  0  0  0  0  0  0
   -1.5948   -2.0929   -1.4720 H   0  0  0  0  0  0  0  0  0  0  0  0
    0.6812   -1.1252   -1.3379 H   0  0  0  0  0  0  0  0  0  0  0  0
   -0.8728    2.2715    0.7794 H   0  0  0  0  0  0  0  0  0  0  0  0
   -3.1649    1.3025    0.6473 H   0  0  0  0  0  0  0  0  0  0  0  0
    6.8196   -0.2743   -2.3275 N   0  0  0  0  0  0  0  0  0  0  0  0
    5.7739   -0.1945   -1.9784 N   0  0  0  0  0  0  0  0  0  0  0  0
   -3.5333   -0.8856   -0.4815 H   0  0  0  0  0  0  0  0  0  0  0  0
    1.2677    1.2183   -0.1614 O   0  0  0  0  0  0  0  0  0  0  0  0
    1.9243    0.6522   -0.5875 H   0  0  0  0  0  0  0  0  0  0  0  0
  1  2  2  0  0  0  0
  1  6  1  0  0  0  0
  2  3  1  0  0  0  0
  3 14  1  0  0  0  0
  3  4  2  0  0  0  0
  4  9  1  0  0  0  0
  5  4  1  0  0  0  0
  5 10  1  0  0  0  0
  6  5  2  0  0  0  0
  7  1  1  0  0  0  0
  8  2  1  0  0  0  0
 11 12  3  0  0  0  0
 13  6  1  0  0  0  0
 15 14  1  0  0  0  0
M  END
