Coordinates from ORCA-job Ph-N2-OH-B3LYPG-6-31G_dp-MTMO-d009-169-n800
 OpenBabel09051908283D

 15 14  0  0  0  0  0  0  0  0999 V2000
   -1.4185   -1.1482   -0.9953 C   0  0  0  0  0  0  0  0  0  0  0  0
   -0.1153   -0.6485   -0.9687 C   0  0  0  0  0  0  0  0  0  0  0  0
    0.1466    0.5762   -0.3449 C   0  0  0  0  0  0  0  0  0  0  0  0
   -0.8964    1.2967    0.2491 C   0  0  0  0  0  0  0  0  0  0  0  0
   -2.1922    0.7869    0.2153 C   0  0  0  0  0  0  0  0  0  0  0  0
   -2.4632   -0.4363   -0.4052 C   0  0  0  0  0  0  0  0  0  0  0  0
   -1.6128   -2.1006   -1.4801 H   0  0  0  0  0  0  0  0  0  0  0  0
    0.6965   -1.2072   -1.4299 H   0  0  0  0  0  0  0  0  0  0  0  0
   -0.6714    2.2450    0.7255 H   0  0  0  0  0  0  0  0  0  0  0  0
   -2.9971    1.3509    0.6778 H   0  0  0  0  0  0  0  0  0  0  0  0
    6.2257   -0.1000   -2.0388 N   0  0  0  0  0  0  0  0  0  0  0  0
    5.1590   -0.0387   -1.7557 N   0  0  0  0  0  0  0  0  0  0  0  0
   -3.4752   -0.8284   -0.4274 H   0  0  0  0  0  0  0  0  0  0  0  0
    1.3998    1.1198   -0.2838 O   0  0  0  0  0  0  0  0  0  0  0  0
    2.0263    0.5307   -0.7244 H   0  0  0  0  0  0  0  0  0  0  0  0
  1  2  2  0  0  0  0
  1  6  1  0  0  0  0
  2  3  1  0  0  0  0
  3 14  1  0  0  0  0
  3  4  2  0  0  0  0
  4  9  1  0  0  0  0
  5  4  1  0  0  0  0
  5 10  1  0  0  0  0
  6  5  2  0  0  0  0
  7  1  1  0  0  0  0
  8  2  1  0  0  0  0
 11 12  3  0  0  0  0
 13  6  1  0  0  0  0
 15 14  1  0  0  0  0
M  END
