Coordinates from ORCA-job Ph-N2-OH-B3LYPG-6-31G_dp-MTMO-d009-169-n800
 OpenBabel09051908283D

 15 14  0  0  0  0  0  0  0  0999 V2000
   -1.1486   -1.1398   -1.0276 C   0  0  0  0  0  0  0  0  0  0  0  0
    0.1335   -0.6054   -0.8868 C   0  0  0  0  0  0  0  0  0  0  0  0
    0.3069    0.6276   -0.2469 C   0  0  0  0  0  0  0  0  0  0  0  0
   -0.8050    1.3190    0.2497 C   0  0  0  0  0  0  0  0  0  0  0  0
   -2.0785    0.7745    0.1026 C   0  0  0  0  0  0  0  0  0  0  0  0
   -2.2606   -0.4561   -0.5355 C   0  0  0  0  0  0  0  0  0  0  0  0
   -1.2731   -2.0978   -1.5242 H   0  0  0  0  0  0  0  0  0  0  0  0
    0.9971   -1.1428   -1.2716 H   0  0  0  0  0  0  0  0  0  0  0  0
   -0.6493    2.2737    0.7409 H   0  0  0  0  0  0  0  0  0  0  0  0
   -2.9363    1.3170    0.4900 H   0  0  0  0  0  0  0  0  0  0  0  0
    4.9838   -0.3326   -2.2179 N   0  0  0  0  0  0  0  0  0  0  0  0
    4.0520   -0.1109   -1.6679 N   0  0  0  0  0  0  0  0  0  0  0  0
   -3.2559   -0.8749   -0.6472 H   0  0  0  0  0  0  0  0  0  0  0  0
    1.5323    1.2046   -0.0759 O   0  0  0  0  0  0  0  0  0  0  0  0
    2.2136    0.6424   -0.4681 H   0  0  0  0  0  0  0  0  0  0  0  0
  1  2  2  0  0  0  0
  1  6  1  0  0  0  0
  2  3  1  0  0  0  0
  3 14  1  0  0  0  0
  3  4  2  0  0  0  0
  4  9  1  0  0  0  0
  5  4  1  0  0  0  0
  5 10  1  0  0  0  0
  6  5  2  0  0  0  0
  7  1  1  0  0  0  0
  8  2  1  0  0  0  0
 11 12  3  0  0  0  0
 13  6  1  0  0  0  0
 15 14  1  0  0  0  0
M  END
