Coordinates from ORCA-job Ph-N2-OH-B3LYPG-6-31G_dp-MTMO-d009-169-n800
 OpenBabel09051908283D

 15 14  0  0  0  0  0  0  0  0999 V2000
   -1.4502   -1.1424   -0.9864 C   0  0  0  0  0  0  0  0  0  0  0  0
   -0.1547   -0.6234   -0.9507 C   0  0  0  0  0  0  0  0  0  0  0  0
    0.0853    0.6026   -0.3210 C   0  0  0  0  0  0  0  0  0  0  0  0
   -0.9713    1.3052    0.2703 C   0  0  0  0  0  0  0  0  0  0  0  0
   -2.2591    0.7763    0.2274 C   0  0  0  0  0  0  0  0  0  0  0  0
   -2.5084   -0.4484   -0.3993 C   0  0  0  0  0  0  0  0  0  0  0  0
   -1.6274   -2.0956   -1.4759 H   0  0  0  0  0  0  0  0  0  0  0  0
    0.6679   -1.1682   -1.4096 H   0  0  0  0  0  0  0  0  0  0  0  0
   -0.7632    2.2550    0.7515 H   0  0  0  0  0  0  0  0  0  0  0  0
   -3.0749    1.3263    0.6876 H   0  0  0  0  0  0  0  0  0  0  0  0
    6.5764   -0.1746   -2.1459 N   0  0  0  0  0  0  0  0  0  0  0  0
    5.5100   -0.1106   -1.8622 N   0  0  0  0  0  0  0  0  0  0  0  0
   -3.5144   -0.8554   -0.4287 H   0  0  0  0  0  0  0  0  0  0  0  0
    1.3298    1.1648   -0.2510 O   0  0  0  0  0  0  0  0  0  0  0  0
    1.9658    0.5868   -0.6924 H   0  0  0  0  0  0  0  0  0  0  0  0
  1  2  2  0  0  0  0
  1  6  1  0  0  0  0
  2  3  1  0  0  0  0
  3 14  1  0  0  0  0
  3  4  2  0  0  0  0
  4  9  1  0  0  0  0
  5  4  1  0  0  0  0
  5 10  1  0  0  0  0
  6  5  2  0  0  0  0
  7  1  1  0  0  0  0
  8  2  1  0  0  0  0
 11 12  3  0  0  0  0
 13  6  1  0  0  0  0
 15 14  1  0  0  0  0
M  END
