Coordinates from ORCA-job Ph-N2-OH-B3LYPG-6-31G_dp-MTMO-d009-169-n800
 OpenBabel09051908283D

 15 14  0  0  0  0  0  0  0  0999 V2000
   -2.1466   -1.0728   -0.7714 C   0  0  0  0  0  0  0  0  0  0  0  0
   -0.8921   -0.4868   -0.5930 C   0  0  0  0  0  0  0  0  0  0  0  0
   -0.7880    0.7493    0.0541 C   0  0  0  0  0  0  0  0  0  0  0  0
   -1.9390    1.3948    0.5208 C   0  0  0  0  0  0  0  0  0  0  0  0
   -3.1846    0.7993    0.3363 C   0  0  0  0  0  0  0  0  0  0  0  0
   -3.2983   -0.4356   -0.3093 C   0  0  0  0  0  0  0  0  0  0  0  0
   -2.2180   -2.0333   -1.2734 H   0  0  0  0  0  0  0  0  0  0  0  0
    0.0038   -0.9871   -0.9551 H   0  0  0  0  0  0  0  0  0  0  0  0
   -1.8359    2.3534    1.0180 H   0  0  0  0  0  0  0  0  0  0  0  0
   -4.0743    1.3053    0.7001 H   0  0  0  0  0  0  0  0  0  0  0  0
   11.9861   -0.7901   -3.8841 N   0  0  0  0  0  0  0  0  0  0  0  0
   10.9436   -0.7140   -3.5249 N   0  0  0  0  0  0  0  0  0  0  0  0
   -4.2723   -0.8935   -0.4502 H   0  0  0  0  0  0  0  0  0  0  0  0
    0.4101    1.3755    0.2594 O   0  0  0  0  0  0  0  0  0  0  0  0
    1.1173    0.8340   -0.1140 H   0  0  0  0  0  0  0  0  0  0  0  0
  1  2  2  0  0  0  0
  1  6  1  0  0  0  0
  2  3  1  0  0  0  0
  3 14  1  0  0  0  0
  3  4  2  0  0  0  0
  4  9  1  0  0  0  0
  5  4  1  0  0  0  0
  5 10  1  0  0  0  0
  6  5  2  0  0  0  0
  7  1  1  0  0  0  0
  8  2  1  0  0  0  0
 11 12  3  0  0  0  0
 13  6  1  0  0  0  0
 15 14  1  0  0  0  0
M  END
