Coordinates from ORCA-job Ph-N2-OH-B3LYPG-6-31G_dp-MTMO-d009-169-n800
 OpenBabel09051908283D

 15 14  0  0  0  0  0  0  0  0999 V2000
   -1.5212   -1.1278   -0.9568 C   0  0  0  0  0  0  0  0  0  0  0  0
   -0.2441   -0.5711   -0.8672 C   0  0  0  0  0  0  0  0  0  0  0  0
   -0.0658    0.6594   -0.2254 C   0  0  0  0  0  0  0  0  0  0  0  0
   -1.1654    1.3286    0.3243 C   0  0  0  0  0  0  0  0  0  0  0  0
   -2.4344    0.7622    0.2277 C   0  0  0  0  0  0  0  0  0  0  0  0
   -2.6221   -0.4669   -0.4116 C   0  0  0  0  0  0  0  0  0  0  0  0
   -1.6503   -2.0841   -1.4552 H   0  0  0  0  0  0  0  0  0  0  0  0
    0.6123   -1.0896   -1.2937 H   0  0  0  0  0  0  0  0  0  0  0  0
   -1.0053    2.2824    0.8157 H   0  0  0  0  0  0  0  0  0  0  0  0
   -3.2841    1.2865    0.6555 H   0  0  0  0  0  0  0  0  0  0  0  0
    7.4348   -0.3606   -2.5163 N   0  0  0  0  0  0  0  0  0  0  0  0
    6.3886   -0.2756   -2.1703 N   0  0  0  0  0  0  0  0  0  0  0  0
   -3.6138   -0.9025   -0.4831 H   0  0  0  0  0  0  0  0  0  0  0  0
    1.1579    1.2574   -0.1044 O   0  0  0  0  0  0  0  0  0  0  0  0
    1.8249    0.7001   -0.5257 H   0  0  0  0  0  0  0  0  0  0  0  0
  1  2  2  0  0  0  0
  1  6  1  0  0  0  0
  2  3  1  0  0  0  0
  3 14  1  0  0  0  0
  3  4  2  0  0  0  0
  4  9  1  0  0  0  0
  5  4  1  0  0  0  0
  5 10  1  0  0  0  0
  6  5  2  0  0  0  0
  7  1  1  0  0  0  0
  8  2  1  0  0  0  0
 11 12  3  0  0  0  0
 13  6  1  0  0  0  0
 15 14  1  0  0  0  0
M  END
