Coordinates from ORCA-job Ph-N2-OH-B3LYPG-6-31G_dp-MTMO-d009-169-n800
 OpenBabel09051908283D

 15 14  0  0  0  0  0  0  0  0999 V2000
   -0.9331   -1.3270   -0.8112 C   0  0  0  0  0  0  0  0  0  0  0  0
    0.3167   -1.0436   -0.2583 C   0  0  0  0  0  0  0  0  0  0  0  0
    0.6344    0.2703    0.1008 C   0  0  0  0  0  0  0  0  0  0  0  0
   -0.3060    1.2920   -0.0716 C   0  0  0  0  0  0  0  0  0  0  0  0
   -1.5494    0.9961   -0.6244 C   0  0  0  0  0  0  0  0  0  0  0  0
   -1.8711   -0.3117   -0.9997 C   0  0  0  0  0  0  0  0  0  0  0  0
   -1.1700   -2.3485   -1.0947 H   0  0  0  0  0  0  0  0  0  0  0  0
    1.0463   -1.8382   -0.1127 H   0  0  0  0  0  0  0  0  0  0  0  0
   -0.0431    2.3013    0.2276 H   0  0  0  0  0  0  0  0  0  0  0  0
   -2.2740    1.7938   -0.7615 H   0  0  0  0  0  0  0  0  0  0  0  0
    1.7543    0.7680   -2.3748 N   0  0  0  0  0  0  0  0  0  0  0  0
    2.8265    0.9466   -2.1689 N   0  0  0  0  0  0  0  0  0  0  0  0
   -2.8415   -0.5357   -1.4310 H   0  0  0  0  0  0  0  0  0  0  0  0
    1.8362    0.6126    0.6557 O   0  0  0  0  0  0  0  0  0  0  0  0
    2.3855   -0.1777    0.7384 H   0  0  0  0  0  0  0  0  0  0  0  0
  1  2  1  0  0  0  0
  2  8  1  0  0  0  0
  2  3  2  0  0  0  0
  3 14  1  0  0  0  0
  4  3  1  0  0  0  0
  4  9  1  0  0  0  0
  5  4  2  0  0  0  0
  6  1  2  0  0  0  0
  6  5  1  0  0  0  0
  7  1  1  0  0  0  0
 10  5  1  0  0  0  0
 11 12  3  0  0  0  0
 13  6  1  0  0  0  0
 14 15  1  0  0  0  0
M  END
