Coordinates from ORCA-job Ph-N2-OH-B3LYPG-6-31G_dp-MTMO-d009-169-n800
 OpenBabel09051908283D

 15 14  0  0  0  0  0  0  0  0999 V2000
   -1.6150   -1.1156   -0.9282 C   0  0  0  0  0  0  0  0  0  0  0  0
   -0.3480   -0.5407   -0.8137 C   0  0  0  0  0  0  0  0  0  0  0  0
   -0.1993    0.6903   -0.1657 C   0  0  0  0  0  0  0  0  0  0  0  0
   -1.3183    1.3421    0.3656 C   0  0  0  0  0  0  0  0  0  0  0  0
   -2.5770    0.7577    0.2442 C   0  0  0  0  0  0  0  0  0  0  0  0
   -2.7352   -0.4721   -0.4016 C   0  0  0  0  0  0  0  0  0  0  0  0
   -1.7211   -2.0723   -1.4313 H   0  0  0  0  0  0  0  0  0  0  0  0
    0.5235   -1.0456   -1.2258 H   0  0  0  0  0  0  0  0  0  0  0  0
   -1.1810    2.2967    0.8622 H   0  0  0  0  0  0  0  0  0  0  0  0
   -3.4418    1.2685    0.6577 H   0  0  0  0  0  0  0  0  0  0  0  0
    8.2394   -0.4701   -2.7792 N   0  0  0  0  0  0  0  0  0  0  0  0
    7.1963   -0.3846   -2.4237 N   0  0  0  0  0  0  0  0  0  0  0  0
   -3.7190   -0.9216   -0.4926 H   0  0  0  0  0  0  0  0  0  0  0  0
    1.0133    1.3056   -0.0209 O   0  0  0  0  0  0  0  0  0  0  0  0
    1.6951    0.7601   -0.4336 H   0  0  0  0  0  0  0  0  0  0  0  0
  1  2  2  0  0  0  0
  1  6  1  0  0  0  0
  2  3  1  0  0  0  0
  3 14  1  0  0  0  0
  3  4  2  0  0  0  0
  4  9  1  0  0  0  0
  5  4  1  0  0  0  0
  5 10  1  0  0  0  0
  6  5  2  0  0  0  0
  7  1  1  0  0  0  0
  8  2  1  0  0  0  0
 11 12  3  0  0  0  0
 13  6  1  0  0  0  0
 15 14  1  0  0  0  0
M  END
