Coordinates from ORCA-job Ph-N2-OH-B3LYPG-6-31G_dp-MTMO-d009-169-n800
 OpenBabel09051908283D

 15 14  0  0  0  0  0  0  0  0999 V2000
   -1.0984   -1.1483   -1.0137 C   0  0  0  0  0  0  0  0  0  0  0  0
    0.1808   -0.6271   -0.8109 C   0  0  0  0  0  0  0  0  0  0  0  0
    0.3349    0.6134   -0.1803 C   0  0  0  0  0  0  0  0  0  0  0  0
   -0.7938    1.3245    0.2457 C   0  0  0  0  0  0  0  0  0  0  0  0
   -2.0642    0.7928    0.0379 C   0  0  0  0  0  0  0  0  0  0  0  0
   -2.2269   -0.4447   -0.5922 C   0  0  0  0  0  0  0  0  0  0  0  0
   -1.2078   -2.1120   -1.5027 H   0  0  0  0  0  0  0  0  0  0  0  0
    1.0567   -1.1811   -1.1398 H   0  0  0  0  0  0  0  0  0  0  0  0
   -0.6529    2.2845    0.7312 H   0  0  0  0  0  0  0  0  0  0  0  0
   -2.9347    1.3507    0.3711 H   0  0  0  0  0  0  0  0  0  0  0  0
    4.7116   -0.2967   -2.4314 N   0  0  0  0  0  0  0  0  0  0  0  0
    3.9222   -0.0940   -1.6863 N   0  0  0  0  0  0  0  0  0  0  0  0
   -3.2197   -0.8533   -0.7521 H   0  0  0  0  0  0  0  0  0  0  0  0
    1.5559    1.1786    0.0503 O   0  0  0  0  0  0  0  0  0  0  0  0
    2.2481    0.6109   -0.3132 H   0  0  0  0  0  0  0  0  0  0  0  0
  1  2  2  0  0  0  0
  1  6  1  0  0  0  0
  2  3  1  0  0  0  0
  3 14  1  0  0  0  0
  3  4  2  0  0  0  0
  4  9  1  0  0  0  0
  5  4  1  0  0  0  0
  5 10  1  0  0  0  0
  6  5  2  0  0  0  0
  7  1  1  0  0  0  0
  8  2  1  0  0  0  0
 11 12  3  0  0  0  0
 13  6  1  0  0  0  0
 15 14  1  0  0  0  0
M  END
