Coordinates from ORCA-job Ph-N2-OH-B3LYPG-6-31G_dp-MTMO-d009-169-n800
 OpenBabel09051908283D

 15 14  0  0  0  0  0  0  0  0999 V2000
   -1.3061   -1.1478   -1.0182 C   0  0  0  0  0  0  0  0  0  0  0  0
   -0.0073   -0.6377   -0.9756 C   0  0  0  0  0  0  0  0  0  0  0  0
    0.2377    0.5885   -0.3472 C   0  0  0  0  0  0  0  0  0  0  0  0
   -0.8184    1.2994    0.2354 C   0  0  0  0  0  0  0  0  0  0  0  0
   -2.1096    0.7793    0.1857 C   0  0  0  0  0  0  0  0  0  0  0  0
   -2.3635   -0.4452   -0.4396 C   0  0  0  0  0  0  0  0  0  0  0  0
   -1.4869   -2.1010   -1.5065 H   0  0  0  0  0  0  0  0  0  0  0  0
    0.8143   -1.1890   -1.4278 H   0  0  0  0  0  0  0  0  0  0  0  0
   -0.6068    2.2489    0.7157 H   0  0  0  0  0  0  0  0  0  0  0  0
   -2.9244    1.3362    0.6394 H   0  0  0  0  0  0  0  0  0  0  0  0
    5.5983   -0.1476   -1.9591 N   0  0  0  0  0  0  0  0  0  0  0  0
    4.5458   -0.0447   -1.6382 N   0  0  0  0  0  0  0  0  0  0  0  0
   -3.3720   -0.8453   -0.4744 H   0  0  0  0  0  0  0  0  0  0  0  0
    1.4851    1.1420   -0.2708 O   0  0  0  0  0  0  0  0  0  0  0  0
    2.1256    0.5627   -0.7053 H   0  0  0  0  0  0  0  0  0  0  0  0
  1  2  2  0  0  0  0
  1  6  1  0  0  0  0
  2  3  1  0  0  0  0
  3 14  1  0  0  0  0
  3  4  2  0  0  0  0
  4  9  1  0  0  0  0
  5  4  1  0  0  0  0
  5 10  1  0  0  0  0
  6  5  2  0  0  0  0
  7  1  1  0  0  0  0
  8  2  1  0  0  0  0
 11 12  3  0  0  0  0
 13  6  1  0  0  0  0
 15 14  1  0  0  0  0
M  END
