Coordinates from ORCA-job Ph-N2-OH-B3LYPG-6-31G_dp-MTMO-d009-169-n800
 OpenBabel09051908283D

 15 14  0  0  0  0  0  0  0  0999 V2000
   -2.1791   -1.0706   -0.7620 C   0  0  0  0  0  0  0  0  0  0  0  0
   -0.9248   -0.4849   -0.5816 C   0  0  0  0  0  0  0  0  0  0  0  0
   -0.8214    0.7515    0.0651 C   0  0  0  0  0  0  0  0  0  0  0  0
   -1.9730    1.3977    0.5294 C   0  0  0  0  0  0  0  0  0  0  0  0
   -3.2185    0.8025    0.3428 C   0  0  0  0  0  0  0  0  0  0  0  0
   -3.3315   -0.4326   -0.3024 C   0  0  0  0  0  0  0  0  0  0  0  0
   -2.2501   -2.0312   -1.2637 H   0  0  0  0  0  0  0  0  0  0  0  0
   -0.0283   -0.9856   -0.9418 H   0  0  0  0  0  0  0  0  0  0  0  0
   -1.8705    2.3565    1.0263 H   0  0  0  0  0  0  0  0  0  0  0  0
   -4.1087    1.3089    0.7048 H   0  0  0  0  0  0  0  0  0  0  0  0
   12.2025   -0.8063   -3.9449 N   0  0  0  0  0  0  0  0  0  0  0  0
   11.1599   -0.7296   -3.5862 N   0  0  0  0  0  0  0  0  0  0  0  0
   -4.3054   -0.8902   -0.4448 H   0  0  0  0  0  0  0  0  0  0  0  0
    0.3766    1.3773    0.2722 O   0  0  0  0  0  0  0  0  0  0  0  0
    1.0840    0.8350   -0.0996 H   0  0  0  0  0  0  0  0  0  0  0  0
  1  2  2  0  0  0  0
  1  6  1  0  0  0  0
  2  3  1  0  0  0  0
  3 14  1  0  0  0  0
  3  4  2  0  0  0  0
  4  9  1  0  0  0  0
  5  4  1  0  0  0  0
  5 10  1  0  0  0  0
  6  5  2  0  0  0  0
  7  1  1  0  0  0  0
  8  2  1  0  0  0  0
 11 12  3  0  0  0  0
 13  6  1  0  0  0  0
 15 14  1  0  0  0  0
M  END
