Coordinates from ORCA-job Ph-N2-OH-B3LYPG-6-31G_dp-MTMO-d009-169-n800
 OpenBabel09051908283D

 15 14  0  0  0  0  0  0  0  0999 V2000
   -1.5356   -1.1258   -0.9524 C   0  0  0  0  0  0  0  0  0  0  0  0
   -0.2603   -0.5657   -0.8586 C   0  0  0  0  0  0  0  0  0  0  0  0
   -0.0873    0.6649   -0.2157 C   0  0  0  0  0  0  0  0  0  0  0  0
   -1.1903    1.3309    0.3311 C   0  0  0  0  0  0  0  0  0  0  0  0
   -2.4575    0.7611    0.2304 C   0  0  0  0  0  0  0  0  0  0  0  0
   -2.6400   -0.4681   -0.4101 C   0  0  0  0  0  0  0  0  0  0  0  0
   -1.6607   -2.0821   -1.4517 H   0  0  0  0  0  0  0  0  0  0  0  0
    0.5987   -1.0816   -1.2829 H   0  0  0  0  0  0  0  0  0  0  0  0
   -1.0342    2.2848    0.8235 H   0  0  0  0  0  0  0  0  0  0  0  0
   -3.3098    1.2829    0.6560 H   0  0  0  0  0  0  0  0  0  0  0  0
    7.5631   -0.3795   -2.5587 N   0  0  0  0  0  0  0  0  0  0  0  0
    6.5174   -0.2941   -2.2111 N   0  0  0  0  0  0  0  0  0  0  0  0
   -3.6303   -0.9063   -0.4849 H   0  0  0  0  0  0  0  0  0  0  0  0
    1.1345    1.2661   -0.0907 O   0  0  0  0  0  0  0  0  0  0  0  0
    1.8040    0.7110   -0.5108 H   0  0  0  0  0  0  0  0  0  0  0  0
  1  2  2  0  0  0  0
  1  6  1  0  0  0  0
  2  3  1  0  0  0  0
  3 14  1  0  0  0  0
  3  4  2  0  0  0  0
  4  9  1  0  0  0  0
  5  4  1  0  0  0  0
  5 10  1  0  0  0  0
  6  5  2  0  0  0  0
  7  1  1  0  0  0  0
  8  2  1  0  0  0  0
 11 12  3  0  0  0  0
 13  6  1  0  0  0  0
 15 14  1  0  0  0  0
M  END
