Coordinates from ORCA-job Ph-N2-OH-B3LYPG-6-31G_dp-MTMO-d009-169-n800
 OpenBabel09051908283D

 15 15  0  0  0  0  0  0  0  0999 V2000
   -1.3279   -1.4231   -1.1243 C   0  0  0  0  0  0  0  0  0  0  0  0
    0.0401   -1.2178   -1.3043 C   0  0  0  0  0  0  0  0  0  0  0  0
    0.5945    0.0141   -0.9641 C   0  0  0  0  0  0  0  0  0  0  0  0
   -0.1933    1.0668   -0.4967 C   0  0  0  0  0  0  0  0  0  0  0  0
   -1.5649    0.8561   -0.3462 C   0  0  0  0  0  0  0  0  0  0  0  0
   -2.1318   -0.3851   -0.6476 C   0  0  0  0  0  0  0  0  0  0  0  0
   -1.7665   -2.3854   -1.3710 H   0  0  0  0  0  0  0  0  0  0  0  0
    0.6824   -1.9963   -1.7023 H   0  0  0  0  0  0  0  0  0  0  0  0
    0.2530    2.0207   -0.2501 H   0  0  0  0  0  0  0  0  0  0  0  0
   -2.1917    1.6662    0.0155 H   0  0  0  0  0  0  0  0  0  0  0  0
    2.1107    0.1348   -1.3144 N   0  0  0  0  0  0  0  0  0  0  0  0
    2.9187    0.7073   -0.5971 N   0  0  0  0  0  0  0  0  0  0  0  0
   -3.1987   -0.5404   -0.5163 H   0  0  0  0  0  0  0  0  0  0  0  0
    2.3926    1.2592    0.6137 O   0  0  0  0  0  0  0  0  0  0  0  0
    3.1947    1.6215    1.0187 H   0  0  0  0  0  0  0  0  0  0  0  0
  1  6  1  0  0  0  0
  2  1  2  0  0  0  0
  2  3  1  0  0  0  0
  3  4  2  0  0  0  0
  4  5  1  0  0  0  0
  4  9  1  0  0  0  0
  5 10  1  0  0  0  0
  6 13  1  0  0  0  0
  6  5  2  0  0  0  0
  7  1  1  0  0  0  0
  8  2  1  0  0  0  0
 11  3  1  0  0  0  0
 11 12  2  0  0  0  0
 12 14  1  0  0  0  0
 14 15  1  0  0  0  0
M  END
