Coordinates from ORCA-job Ph-N2-OH-B3LYPG-6-31G_dp-MTMO-d009-169-n800
 OpenBabel09051908283D

 15 14  0  0  0  0  0  0  0  0999 V2000
   -2.4639   -1.0503   -0.6816 C   0  0  0  0  0  0  0  0  0  0  0  0
   -1.2105   -0.4670   -0.4878 C   0  0  0  0  0  0  0  0  0  0  0  0
   -1.1121    0.7711    0.1564 C   0  0  0  0  0  0  0  0  0  0  0  0
   -2.2675    1.4214    0.6050 C   0  0  0  0  0  0  0  0  0  0  0  0
   -3.5121    0.8285    0.4052 C   0  0  0  0  0  0  0  0  0  0  0  0
   -3.6202   -0.4083   -0.2376 C   0  0  0  0  0  0  0  0  0  0  0  0
   -2.5311   -2.0123   -1.1813 H   0  0  0  0  0  0  0  0  0  0  0  0
   -0.3108   -0.9706   -0.8357 H   0  0  0  0  0  0  0  0  0  0  0  0
   -2.1688    2.3815    1.1004 H   0  0  0  0  0  0  0  0  0  0  0  0
   -4.4054    1.3379    0.7551 H   0  0  0  0  0  0  0  0  0  0  0  0
   14.0856   -0.9475   -4.4695 N   0  0  0  0  0  0  0  0  0  0  0  0
   13.0419   -0.8659   -4.1149 N   0  0  0  0  0  0  0  0  0  0  0  0
   -4.5934   -0.8640   -0.3905 H   0  0  0  0  0  0  0  0  0  0  0  0
    0.0849    1.3946    0.3759 O   0  0  0  0  0  0  0  0  0  0  0  0
    0.7953    0.8492    0.0145 H   0  0  0  0  0  0  0  0  0  0  0  0
  1  2  2  0  0  0  0
  1  6  1  0  0  0  0
  2  3  1  0  0  0  0
  3 14  1  0  0  0  0
  3  4  2  0  0  0  0
  4  9  1  0  0  0  0
  5  4  1  0  0  0  0
  5 10  1  0  0  0  0
  6  5  2  0  0  0  0
  7  1  1  0  0  0  0
  8  2  1  0  0  0  0
 11 12  3  0  0  0  0
 13  6  1  0  0  0  0
 15 14  1  0  0  0  0
M  END
