Coordinates from ORCA-job Ph-N2-OH-B3LYPG-6-31G_dp-MTMO-d009-169-n800
 OpenBabel09051908283D

 15 14  0  0  0  0  0  0  0  0999 V2000
   -2.0322   -1.0801   -0.8049 C   0  0  0  0  0  0  0  0  0  0  0  0
   -0.7782   -0.4905   -0.6349 C   0  0  0  0  0  0  0  0  0  0  0  0
   -0.6730    0.7441    0.0148 C   0  0  0  0  0  0  0  0  0  0  0  0
   -1.8223    1.3844    0.4927 C   0  0  0  0  0  0  0  0  0  0  0  0
   -3.0675    0.7854    0.3164 C   0  0  0  0  0  0  0  0  0  0  0  0
   -3.1823   -0.4481   -0.3318 C   0  0  0  0  0  0  0  0  0  0  0  0
   -2.1045   -2.0394   -1.3091 H   0  0  0  0  0  0  0  0  0  0  0  0
    0.1164   -0.9867   -1.0057 H   0  0  0  0  0  0  0  0  0  0  0  0
   -1.7184    2.3420    0.9917 H   0  0  0  0  0  0  0  0  0  0  0  0
   -3.9558    1.2873    0.6888 H   0  0  0  0  0  0  0  0  0  0  0  0
   11.2362   -0.7394   -3.6711 N   0  0  0  0  0  0  0  0  0  0  0  0
   10.1942   -0.6615   -3.3111 N   0  0  0  0  0  0  0  0  0  0  0  0
   -4.1558   -0.9088   -0.4661 H   0  0  0  0  0  0  0  0  0  0  0  0
    0.5246    1.3737    0.2124 O   0  0  0  0  0  0  0  0  0  0  0  0
    1.2305    0.8358   -0.1685 H   0  0  0  0  0  0  0  0  0  0  0  0
  1  2  2  0  0  0  0
  1  6  1  0  0  0  0
  2  3  1  0  0  0  0
  3 14  1  0  0  0  0
  3  4  2  0  0  0  0
  4  9  1  0  0  0  0
  5  4  1  0  0  0  0
  5 10  1  0  0  0  0
  6  5  2  0  0  0  0
  7  1  1  0  0  0  0
  8  2  1  0  0  0  0
 11 12  3  0  0  0  0
 13  6  1  0  0  0  0
 15 14  1  0  0  0  0
M  END
