Coordinates from ORCA-job Ph-N2-OH-B3LYPG-6-31G_dp-MTMO-d009-169-n800
 OpenBabel09051908283D

 15 14  0  0  0  0  0  0  0  0999 V2000
   -1.0098   -1.2087   -0.9395 C   0  0  0  0  0  0  0  0  0  0  0  0
    0.2629   -0.7688   -0.5707 C   0  0  0  0  0  0  0  0  0  0  0  0
    0.4235    0.5042   -0.0110 C   0  0  0  0  0  0  0  0  0  0  0  0
   -0.6919    1.3286    0.1815 C   0  0  0  0  0  0  0  0  0  0  0  0
   -1.9562    0.8765   -0.1887 C   0  0  0  0  0  0  0  0  0  0  0  0
   -2.1252   -0.3920   -0.7519 C   0  0  0  0  0  0  0  0  0  0  0  0
   -1.1246   -2.1977   -1.3739 H   0  0  0  0  0  0  0  0  0  0  0  0
    1.1285   -1.4110   -0.7157 H   0  0  0  0  0  0  0  0  0  0  0  0
   -0.5458    2.3112    0.6175 H   0  0  0  0  0  0  0  0  0  0  0  0
   -2.8169    1.5218   -0.0364 H   0  0  0  0  0  0  0  0  0  0  0  0
    3.8183    0.2064   -2.8640 N   0  0  0  0  0  0  0  0  0  0  0  0
    3.5933    0.0088   -1.8007 N   0  0  0  0  0  0  0  0  0  0  0  0
   -3.1127   -0.7375   -1.0406 H   0  0  0  0  0  0  0  0  0  0  0  0
    1.6396    0.9958    0.3710 O   0  0  0  0  0  0  0  0  0  0  0  0
    2.3287    0.3608    0.1367 H   0  0  0  0  0  0  0  0  0  0  0  0
  1  6  2  0  0  0  0
  1  2  1  0  0  0  0
  2  3  2  0  0  0  0
  3  4  1  0  0  0  0
  3 14  1  0  0  0  0
  4  9  1  0  0  0  0
  5 10  1  0  0  0  0
  5  4  2  0  0  0  0
  6  5  1  0  0  0  0
  7  1  1  0  0  0  0
  8  2  1  0  0  0  0
 11 12  3  0  0  0  0
 13  6  1  0  0  0  0
 15 14  1  0  0  0  0
M  END
