Coordinates from ORCA-job Ph-N2-OH-B3LYPG-6-31G_dp-MTMO-d009-169-n800
 OpenBabel09051908283D

 15 14  0  0  0  0  0  0  0  0999 V2000
   -1.6471   -1.1119   -0.9185 C   0  0  0  0  0  0  0  0  0  0  0  0
   -0.3826   -0.5328   -0.7967 C   0  0  0  0  0  0  0  0  0  0  0  0
   -0.2417    0.6984   -0.1474 C   0  0  0  0  0  0  0  0  0  0  0  0
   -1.3658    1.3461    0.3781 C   0  0  0  0  0  0  0  0  0  0  0  0
   -2.6218    0.7575    0.2495 C   0  0  0  0  0  0  0  0  0  0  0  0
   -2.7723   -0.4725   -0.3977 C   0  0  0  0  0  0  0  0  0  0  0  0
   -1.7472   -2.0687   -1.4226 H   0  0  0  0  0  0  0  0  0  0  0  0
    0.4927   -1.0345   -1.2043 H   0  0  0  0  0  0  0  0  0  0  0  0
   -1.2345    2.3010    0.8759 H   0  0  0  0  0  0  0  0  0  0  0  0
   -3.4906    1.2651    0.6585 H   0  0  0  0  0  0  0  0  0  0  0  0
    8.4987   -0.5008   -2.8617 N   0  0  0  0  0  0  0  0  0  0  0  0
    7.4563   -0.4159   -2.5041 N   0  0  0  0  0  0  0  0  0  0  0  0
   -3.7541   -0.9252   -0.4944 H   0  0  0  0  0  0  0  0  0  0  0  0
    0.9679    1.3177    0.0043 O   0  0  0  0  0  0  0  0  0  0  0  0
    1.6537    0.7749   -0.4055 H   0  0  0  0  0  0  0  0  0  0  0  0
  1  2  2  0  0  0  0
  1  6  1  0  0  0  0
  2  3  1  0  0  0  0
  3 14  1  0  0  0  0
  3  4  2  0  0  0  0
  4  9  1  0  0  0  0
  5  4  1  0  0  0  0
  5 10  1  0  0  0  0
  6  5  2  0  0  0  0
  7  1  1  0  0  0  0
  8  2  1  0  0  0  0
 11 12  3  0  0  0  0
 13  6  1  0  0  0  0
 15 14  1  0  0  0  0
M  END
