Coordinates from ORCA-job Ph-N2-OH-B3LYPG-6-31G_dp-MTMO-d009-169-n800
 OpenBabel09051908283D

 15 14  0  0  0  0  0  0  0  0999 V2000
   -2.0019   -1.0821   -0.8139 C   0  0  0  0  0  0  0  0  0  0  0  0
   -0.7481   -0.4913   -0.6466 C   0  0  0  0  0  0  0  0  0  0  0  0
   -0.6424    0.7427    0.0040 C   0  0  0  0  0  0  0  0  0  0  0  0
   -1.7911    1.3816    0.4852 C   0  0  0  0  0  0  0  0  0  0  0  0
   -3.0361    0.7815    0.3116 C   0  0  0  0  0  0  0  0  0  0  0  0
   -3.1514   -0.4515   -0.3374 C   0  0  0  0  0  0  0  0  0  0  0  0
   -2.0745   -2.0410   -1.3187 H   0  0  0  0  0  0  0  0  0  0  0  0
    0.1461   -0.9864   -1.0200 H   0  0  0  0  0  0  0  0  0  0  0  0
   -1.6868    2.3389    0.9849 H   0  0  0  0  0  0  0  0  0  0  0  0
   -3.9240    1.2823    0.6866 H   0  0  0  0  0  0  0  0  0  0  0  0
   11.0365   -0.7263   -3.6137 N   0  0  0  0  0  0  0  0  0  0  0  0
    9.9945   -0.6470   -3.2538 N   0  0  0  0  0  0  0  0  0  0  0  0
   -4.1248   -0.9130   -0.4697 H   0  0  0  0  0  0  0  0  0  0  0  0
    0.5552    1.3733    0.1991 O   0  0  0  0  0  0  0  0  0  0  0  0
    1.2606    0.8365   -0.1841 H   0  0  0  0  0  0  0  0  0  0  0  0
  1  2  2  0  0  0  0
  1  6  1  0  0  0  0
  2  3  1  0  0  0  0
  3 14  1  0  0  0  0
  3  4  2  0  0  0  0
  4  9  1  0  0  0  0
  5  4  1  0  0  0  0
  5 10  1  0  0  0  0
  6  5  2  0  0  0  0
  7  1  1  0  0  0  0
  8  2  1  0  0  0  0
 11 12  3  0  0  0  0
 13  6  1  0  0  0  0
 15 14  1  0  0  0  0
M  END
