Coordinates from ORCA-job Ph-N2-OH-B3LYPG-6-31G_dp-MTMO-d009-169-n800
 OpenBabel09051908283D

 15 14  0  0  0  0  0  0  0  0999 V2000
   -1.6369   -1.1131   -0.9216 C   0  0  0  0  0  0  0  0  0  0  0  0
   -0.3717   -0.5352   -0.8020 C   0  0  0  0  0  0  0  0  0  0  0  0
   -0.2285    0.6960   -0.1531 C   0  0  0  0  0  0  0  0  0  0  0  0
   -1.3510    1.3449    0.3742 C   0  0  0  0  0  0  0  0  0  0  0  0
   -2.6078    0.7575    0.2479 C   0  0  0  0  0  0  0  0  0  0  0  0
   -2.7606   -0.4724   -0.3990 C   0  0  0  0  0  0  0  0  0  0  0  0
   -1.7389   -2.0698   -1.4253 H   0  0  0  0  0  0  0  0  0  0  0  0
    0.5025   -1.0378   -1.2110 H   0  0  0  0  0  0  0  0  0  0  0  0
   -1.2179    2.2997    0.8717 H   0  0  0  0  0  0  0  0  0  0  0  0
   -3.4755    1.2661    0.6583 H   0  0  0  0  0  0  0  0  0  0  0  0
    8.4176   -0.4914   -2.8360 N   0  0  0  0  0  0  0  0  0  0  0  0
    7.3750   -0.4064   -2.4790 N   0  0  0  0  0  0  0  0  0  0  0  0
   -3.7430   -0.9242   -0.4939 H   0  0  0  0  0  0  0  0  0  0  0  0
    0.9821    1.3141   -0.0035 O   0  0  0  0  0  0  0  0  0  0  0  0
    1.6666    0.7705   -0.4142 H   0  0  0  0  0  0  0  0  0  0  0  0
  1  2  2  0  0  0  0
  1  6  1  0  0  0  0
  2  3  1  0  0  0  0
  3 14  1  0  0  0  0
  3  4  2  0  0  0  0
  4  9  1  0  0  0  0
  5  4  1  0  0  0  0
  5 10  1  0  0  0  0
  6  5  2  0  0  0  0
  7  1  1  0  0  0  0
  8  2  1  0  0  0  0
 11 12  3  0  0  0  0
 13  6  1  0  0  0  0
 15 14  1  0  0  0  0
M  END
