Coordinates from ORCA-job Ph-N2-OH-B3LYPG-6-31G_dp-MTMO-d009-169-n800
 OpenBabel09051908283D

 15 15  0  0  0  0  0  0  0  0999 V2000
   -1.2437   -1.3952   -1.1151 C   0  0  0  0  0  0  0  0  0  0  0  0
    0.0975   -1.0860   -1.1367 C   0  0  0  0  0  0  0  0  0  0  0  0
    0.6386    0.2662   -0.7224 C   0  0  0  0  0  0  0  0  0  0  0  0
   -0.5075    1.1871   -0.3564 C   0  0  0  0  0  0  0  0  0  0  0  0
   -1.8291    0.8259   -0.4900 C   0  0  0  0  0  0  0  0  0  0  0  0
   -2.2456   -0.4631   -0.8336 C   0  0  0  0  0  0  0  0  0  0  0  0
   -1.5111   -2.4211   -1.3626 H   0  0  0  0  0  0  0  0  0  0  0  0
    0.8723   -1.8322   -1.2827 H   0  0  0  0  0  0  0  0  0  0  0  0
   -0.1941    2.2071   -0.1577 H   0  0  0  0  0  0  0  0  0  0  0  0
   -2.5680    1.5980   -0.2821 H   0  0  0  0  0  0  0  0  0  0  0  0
    1.5295    0.4942   -0.6956 N   0  0  0  0  0  0  0  0  0  0  0  0
    2.7207    0.7926   -0.7385 N   0  0  0  0  0  0  0  0  0  0  0  0
   -3.2949   -0.7282   -0.8765 H   0  0  0  0  0  0  0  0  0  0  0  0
    3.2074    0.8658    0.6041 O   0  0  0  0  0  0  0  0  0  0  0  0
    4.1400    1.0872    0.4593 H   0  0  0  0  0  0  0  0  0  0  0  0
  1  6  1  0  0  0  0
  2  1  2  0  0  0  0
  2  3  1  0  0  0  0
  3 11  1  0  0  0  0
  3  4  2  0  0  0  0
  4  9  1  0  0  0  0
  5  4  1  0  0  0  0
  5 10  1  0  0  0  0
  6  5  2  0  0  0  0
  7  1  1  0  0  0  0
  8  2  1  0  0  0  0
 12 11  1  0  0  0  0
 12 14  1  0  0  0  0
 13  6  1  0  0  0  0
 15 14  1  0  0  0  0
M  RAD  2  11   2  12   2
M  END
