Coordinates from ORCA-job Ph-N2-OH-B3LYPG-6-31G_dp-MTMO-d009-169-n800
 OpenBabel09051908283D

 15 14  0  0  0  0  0  0  0  0999 V2000
   -2.2521   -1.0655   -0.7412 C   0  0  0  0  0  0  0  0  0  0  0  0
   -0.9979   -0.4807   -0.5566 C   0  0  0  0  0  0  0  0  0  0  0  0
   -0.8959    0.7562    0.0892 C   0  0  0  0  0  0  0  0  0  0  0  0
   -2.0487    1.4039    0.5485 C   0  0  0  0  0  0  0  0  0  0  0  0
   -3.2940    0.8097    0.3578 C   0  0  0  0  0  0  0  0  0  0  0  0
   -3.4056   -0.4261   -0.2866 C   0  0  0  0  0  0  0  0  0  0  0  0
   -2.3219   -2.0266   -1.2422 H   0  0  0  0  0  0  0  0  0  0  0  0
   -0.1005   -0.9825   -0.9129 H   0  0  0  0  0  0  0  0  0  0  0  0
   -1.9472    2.3631    1.0449 H   0  0  0  0  0  0  0  0  0  0  0  0
   -4.1851    1.3172    0.7160 H   0  0  0  0  0  0  0  0  0  0  0  0
   12.6855   -0.8421   -4.0804 N   0  0  0  0  0  0  0  0  0  0  0  0
   11.6427   -0.7642   -3.7227 N   0  0  0  0  0  0  0  0  0  0  0  0
   -4.3794   -0.8829   -0.4323 H   0  0  0  0  0  0  0  0  0  0  0  0
    0.3018    1.3811    0.3002 O   0  0  0  0  0  0  0  0  0  0  0  0
    1.0102    0.8378   -0.0682 H   0  0  0  0  0  0  0  0  0  0  0  0
  1  2  2  0  0  0  0
  1  6  1  0  0  0  0
  2  3  1  0  0  0  0
  3 14  1  0  0  0  0
  3  4  2  0  0  0  0
  4  9  1  0  0  0  0
  5  4  1  0  0  0  0
  5 10  1  0  0  0  0
  6  5  2  0  0  0  0
  7  1  1  0  0  0  0
  8  2  1  0  0  0  0
 11 12  3  0  0  0  0
 13  6  1  0  0  0  0
 15 14  1  0  0  0  0
M  END
