Coordinates from ORCA-job Ph-N2-OH-B3LYPG-6-31G_dp-MTMO-d009-169-n800
 OpenBabel09051908283D

 15 14  0  0  0  0  0  0  0  0999 V2000
   -1.8888   -1.0902   -0.8469 C   0  0  0  0  0  0  0  0  0  0  0  0
   -0.6341   -0.4986   -0.6893 C   0  0  0  0  0  0  0  0  0  0  0  0
   -0.5240    0.7344   -0.0373 C   0  0  0  0  0  0  0  0  0  0  0  0
   -1.6689    1.3714    0.4551 C   0  0  0  0  0  0  0  0  0  0  0  0
   -2.9149    0.7704    0.2911 C   0  0  0  0  0  0  0  0  0  0  0  0
   -3.0346   -0.4615   -0.3591 C   0  0  0  0  0  0  0  0  0  0  0  0
   -1.9650   -2.0482   -1.3528 H   0  0  0  0  0  0  0  0  0  0  0  0
    0.2575   -0.9918   -1.0713 H   0  0  0  0  0  0  0  0  0  0  0  0
   -1.5613    2.3278    0.9556 H   0  0  0  0  0  0  0  0  0  0  0  0
   -3.8000    1.2696    0.6747 H   0  0  0  0  0  0  0  0  0  0  0  0
   10.2724   -0.6685   -3.3949 N   0  0  0  0  0  0  0  0  0  0  0  0
    9.2308   -0.5879   -3.0337 N   0  0  0  0  0  0  0  0  0  0  0  0
   -4.0088   -0.9237   -0.4838 H   0  0  0  0  0  0  0  0  0  0  0  0
    0.6747    1.3656    0.1483 O   0  0  0  0  0  0  0  0  0  0  0  0
    1.3769    0.8296   -0.2421 H   0  0  0  0  0  0  0  0  0  0  0  0
  1  2  2  0  0  0  0
  1  6  1  0  0  0  0
  2  3  1  0  0  0  0
  3 14  1  0  0  0  0
  3  4  2  0  0  0  0
  4  9  1  0  0  0  0
  5  4  1  0  0  0  0
  5 10  1  0  0  0  0
  6  5  2  0  0  0  0
  7  1  1  0  0  0  0
  8  2  1  0  0  0  0
 11 12  3  0  0  0  0
 13  6  1  0  0  0  0
 15 14  1  0  0  0  0
M  END
