Coordinates from ORCA-job Ph-N2-OH-B3LYPG-6-31G_dp-MTMO-d009-169-n800
 OpenBabel09051908283D

 15 14  0  0  0  0  0  0  0  0999 V2000
   -2.4414   -1.0520   -0.6879 C   0  0  0  0  0  0  0  0  0  0  0  0
   -1.1878   -0.4687   -0.4950 C   0  0  0  0  0  0  0  0  0  0  0  0
   -1.0888    0.7693    0.1493 C   0  0  0  0  0  0  0  0  0  0  0  0
   -2.2440    1.4195    0.5988 C   0  0  0  0  0  0  0  0  0  0  0  0
   -3.4888    0.8267    0.3999 C   0  0  0  0  0  0  0  0  0  0  0  0
   -3.5974   -0.4100   -0.2431 C   0  0  0  0  0  0  0  0  0  0  0  0
   -2.5089   -2.0139   -1.1876 H   0  0  0  0  0  0  0  0  0  0  0  0
   -0.2885   -0.9724   -0.8436 H   0  0  0  0  0  0  0  0  0  0  0  0
   -2.1449    2.3795    1.0942 H   0  0  0  0  0  0  0  0  0  0  0  0
   -4.3818    1.3361    0.7504 H   0  0  0  0  0  0  0  0  0  0  0  0
   13.9357   -0.9360   -4.4280 N   0  0  0  0  0  0  0  0  0  0  0  0
   12.8921   -0.8548   -4.0731 N   0  0  0  0  0  0  0  0  0  0  0  0
   -4.5706   -0.8657   -0.3953 H   0  0  0  0  0  0  0  0  0  0  0  0
    0.1082    1.3929    0.3682 O   0  0  0  0  0  0  0  0  0  0  0  0
    0.8186    0.8478    0.0062 H   0  0  0  0  0  0  0  0  0  0  0  0
  1  2  2  0  0  0  0
  1  6  1  0  0  0  0
  2  3  1  0  0  0  0
  3 14  1  0  0  0  0
  3  4  2  0  0  0  0
  4  9  1  0  0  0  0
  5  4  1  0  0  0  0
  5 10  1  0  0  0  0
  6  5  2  0  0  0  0
  7  1  1  0  0  0  0
  8  2  1  0  0  0  0
 11 12  3  0  0  0  0
 13  6  1  0  0  0  0
 15 14  1  0  0  0  0
M  END
