Coordinates from ORCA-job Ph-N2-OH-B3LYPG-6-31G_dp-MTMO-d009-169-n800
 OpenBabel09051908283D

 15 14  0  0  0  0  0  0  0  0999 V2000
   -1.8577   -1.0926   -0.8560 C   0  0  0  0  0  0  0  0  0  0  0  0
   -0.6025   -0.5013   -0.7016 C   0  0  0  0  0  0  0  0  0  0  0  0
   -0.4904    0.7314   -0.0495 C   0  0  0  0  0  0  0  0  0  0  0  0
   -1.6338    1.3685    0.4464 C   0  0  0  0  0  0  0  0  0  0  0  0
   -2.8803    0.7678    0.2855 C   0  0  0  0  0  0  0  0  0  0  0  0
   -3.0021   -0.4638   -0.3649 C   0  0  0  0  0  0  0  0  0  0  0  0
   -1.9356   -2.0504   -1.3620 H   0  0  0  0  0  0  0  0  0  0  0  0
    0.2879   -0.9946   -1.0862 H   0  0  0  0  0  0  0  0  0  0  0  0
   -1.5246    2.3247    0.9469 H   0  0  0  0  0  0  0  0  0  0  0  0
   -3.7643    1.2670    0.6716 H   0  0  0  0  0  0  0  0  0  0  0  0
   10.0571   -0.6510   -3.3325 N   0  0  0  0  0  0  0  0  0  0  0  0
    9.0157   -0.5700   -2.9711 N   0  0  0  0  0  0  0  0  0  0  0  0
   -3.9767   -0.9257   -0.4870 H   0  0  0  0  0  0  0  0  0  0  0  0
    0.7090    1.3622    0.1331 O   0  0  0  0  0  0  0  0  0  0  0  0
    1.4100    0.8263   -0.2594 H   0  0  0  0  0  0  0  0  0  0  0  0
  1  2  2  0  0  0  0
  1  6  1  0  0  0  0
  2  3  1  0  0  0  0
  3 14  1  0  0  0  0
  3  4  2  0  0  0  0
  4  9  1  0  0  0  0
  5  4  1  0  0  0  0
  5 10  1  0  0  0  0
  6  5  2  0  0  0  0
  7  1  1  0  0  0  0
  8  2  1  0  0  0  0
 11 12  3  0  0  0  0
 13  6  1  0  0  0  0
 15 14  1  0  0  0  0
M  END
