Coordinates from ORCA-job Ph-N2-OH-B3LYPG-6-31G_dp-MTMO-d009-169-n800
 OpenBabel09051908283D

 15 14  0  0  0  0  0  0  0  0999 V2000
   -0.9987   -1.3517   -0.7599 C   0  0  0  0  0  0  0  0  0  0  0  0
    0.2638   -1.0573   -0.2420 C   0  0  0  0  0  0  0  0  0  0  0  0
    0.5805    0.2596    0.1083 C   0  0  0  0  0  0  0  0  0  0  0  0
   -0.3655    1.2771   -0.0612 C   0  0  0  0  0  0  0  0  0  0  0  0
   -1.6216    0.9696   -0.5789 C   0  0  0  0  0  0  0  0  0  0  0  0
   -1.9472   -0.3433   -0.9315 C   0  0  0  0  0  0  0  0  0  0  0  0
   -1.2363   -2.3765   -1.0308 H   0  0  0  0  0  0  0  0  0  0  0  0
    1.0006   -1.8472   -0.1080 H   0  0  0  0  0  0  0  0  0  0  0  0
   -0.0998    2.2909    0.2194 H   0  0  0  0  0  0  0  0  0  0  0  0
   -2.3517    1.7636   -0.7088 H   0  0  0  0  0  0  0  0  0  0  0  0
    2.2174    1.0882   -2.7103 N   0  0  0  0  0  0  0  0  0  0  0  0
    3.1417    0.8576   -2.1497 N   0  0  0  0  0  0  0  0  0  0  0  0
   -2.9273   -0.5760   -1.3355 H   0  0  0  0  0  0  0  0  0  0  0  0
    1.7974    0.6139    0.6222 O   0  0  0  0  0  0  0  0  0  0  0  0
    2.3587   -0.1702    0.6803 H   0  0  0  0  0  0  0  0  0  0  0  0
  1  2  1  0  0  0  0
  2  8  1  0  0  0  0
  2  3  2  0  0  0  0
  3 14  1  0  0  0  0
  4  3  1  0  0  0  0
  4  9  1  0  0  0  0
  5  4  2  0  0  0  0
  6  1  2  0  0  0  0
  6  5  1  0  0  0  0
  7  1  1  0  0  0  0
 10  5  1  0  0  0  0
 11 12  3  0  0  0  0
 13  6  1  0  0  0  0
 14 15  1  0  0  0  0
M  END
