Coordinates from ORCA-job Ph-N2-OH-B3LYPG-6-31G_dp-MTMO-d009-169-n800
 OpenBabel09051908283D

 15 14  0  0  0  0  0  0  0  0999 V2000
   -2.3900   -1.0555   -0.7024 C   0  0  0  0  0  0  0  0  0  0  0  0
   -1.1366   -0.4713   -0.5113 C   0  0  0  0  0  0  0  0  0  0  0  0
   -1.0377    0.7664    0.1337 C   0  0  0  0  0  0  0  0  0  0  0  0
   -2.1925    1.4154    0.5857 C   0  0  0  0  0  0  0  0  0  0  0  0
   -3.4371    0.8216    0.3885 C   0  0  0  0  0  0  0  0  0  0  0  0
   -3.5457   -0.4148   -0.2551 C   0  0  0  0  0  0  0  0  0  0  0  0
   -2.4577   -2.0171   -1.2027 H   0  0  0  0  0  0  0  0  0  0  0  0
   -0.2374   -0.9739   -0.8618 H   0  0  0  0  0  0  0  0  0  0  0  0
   -2.0933    2.3751    1.0815 H   0  0  0  0  0  0  0  0  0  0  0  0
   -4.3299    1.3300    0.7410 H   0  0  0  0  0  0  0  0  0  0  0  0
   13.6017   -0.9120   -4.3356 N   0  0  0  0  0  0  0  0  0  0  0  0
   12.5583   -0.8312   -3.9800 N   0  0  0  0  0  0  0  0  0  0  0  0
   -4.5189   -0.8712   -0.4058 H   0  0  0  0  0  0  0  0  0  0  0  0
    0.1594    1.3907    0.3507 O   0  0  0  0  0  0  0  0  0  0  0  0
    0.8693    0.8462   -0.0129 H   0  0  0  0  0  0  0  0  0  0  0  0
  1  2  2  0  0  0  0
  1  6  1  0  0  0  0
  2  3  1  0  0  0  0
  3 14  1  0  0  0  0
  3  4  2  0  0  0  0
  4  9  1  0  0  0  0
  5  4  1  0  0  0  0
  5 10  1  0  0  0  0
  6  5  2  0  0  0  0
  7  1  1  0  0  0  0
  8  2  1  0  0  0  0
 11 12  3  0  0  0  0
 13  6  1  0  0  0  0
 15 14  1  0  0  0  0
M  END
