Coordinates from ORCA-job Ph-N2-OH-B3LYPG-6-31G_dp-MTMO-d009-169-n800
 OpenBabel09051908283D

 15 14  0  0  0  0  0  0  0  0999 V2000
   -2.5612   -1.0439   -0.6523 C   0  0  0  0  0  0  0  0  0  0  0  0
   -1.3089   -0.4625   -0.4463 C   0  0  0  0  0  0  0  0  0  0  0  0
   -1.2150    0.7772    0.1954 C   0  0  0  0  0  0  0  0  0  0  0  0
   -2.3741    1.4313    0.6290 C   0  0  0  0  0  0  0  0  0  0  0  0
   -3.6176    0.8404    0.4169 C   0  0  0  0  0  0  0  0  0  0  0  0
   -3.7211   -0.3982   -0.2232 C   0  0  0  0  0  0  0  0  0  0  0  0
   -2.6249   -2.0071   -1.1500 H   0  0  0  0  0  0  0  0  0  0  0  0
   -0.4065   -0.9686   -0.7836 H   0  0  0  0  0  0  0  0  0  0  0  0
   -2.2789    2.3926    1.1227 H   0  0  0  0  0  0  0  0  0  0  0  0
   -4.5137    1.3527    0.7553 H   0  0  0  0  0  0  0  0  0  0  0  0
   14.7474   -0.9975   -4.6639 N   0  0  0  0  0  0  0  0  0  0  0  0
   13.7044   -0.9130   -4.3079 N   0  0  0  0  0  0  0  0  0  0  0  0
   -4.6934   -0.8523   -0.3855 H   0  0  0  0  0  0  0  0  0  0  0  0
   -0.0193    1.3988    0.4269 O   0  0  0  0  0  0  0  0  0  0  0  0
    0.6945    0.8485    0.0799 H   0  0  0  0  0  0  0  0  0  0  0  0
  1  2  2  0  0  0  0
  1  6  1  0  0  0  0
  2  3  1  0  0  0  0
  3 14  1  0  0  0  0
  3  4  2  0  0  0  0
  4  9  1  0  0  0  0
  5  4  1  0  0  0  0
  5 10  1  0  0  0  0
  6  5  2  0  0  0  0
  7  1  1  0  0  0  0
  8  2  1  0  0  0  0
 11 12  3  0  0  0  0
 13  6  1  0  0  0  0
 15 14  1  0  0  0  0
M  END
