Coordinates from ORCA-job Ph-N2-OH-B3LYPG-6-31G_dp-MTMO-d009-169-n800
 OpenBabel09051908283D

 15 14  0  0  0  0  0  0  0  0999 V2000
   -0.9941   -1.3500   -0.7632 C   0  0  0  0  0  0  0  0  0  0  0  0
    0.2677   -1.0559   -0.2435 C   0  0  0  0  0  0  0  0  0  0  0  0
    0.5838    0.2608    0.1080 C   0  0  0  0  0  0  0  0  0  0  0  0
   -0.3619    1.2783   -0.0622 C   0  0  0  0  0  0  0  0  0  0  0  0
   -1.6172    0.9712   -0.5818 C   0  0  0  0  0  0  0  0  0  0  0  0
   -1.9424   -0.3416   -0.9355 C   0  0  0  0  0  0  0  0  0  0  0  0
   -1.2314   -2.3747   -1.0352 H   0  0  0  0  0  0  0  0  0  0  0  0
    1.0044   -1.8458   -0.1092 H   0  0  0  0  0  0  0  0  0  0  0  0
   -0.0964    2.2920    0.2192 H   0  0  0  0  0  0  0  0  0  0  0  0
   -2.3472    1.7652   -0.7123 H   0  0  0  0  0  0  0  0  0  0  0  0
    2.1842    1.0748   -2.6882 N   0  0  0  0  0  0  0  0  0  0  0  0
    3.1237    0.8533   -2.1496 N   0  0  0  0  0  0  0  0  0  0  0  0
   -2.9220   -0.5741   -1.3409 H   0  0  0  0  0  0  0  0  0  0  0  0
    1.7999    0.6146    0.6241 O   0  0  0  0  0  0  0  0  0  0  0  0
    2.3606   -0.1697    0.6839 H   0  0  0  0  0  0  0  0  0  0  0  0
  1  2  1  0  0  0  0
  2  8  1  0  0  0  0
  2  3  2  0  0  0  0
  3 14  1  0  0  0  0
  4  3  1  0  0  0  0
  4  9  1  0  0  0  0
  5  4  2  0  0  0  0
  6  1  2  0  0  0  0
  6  5  1  0  0  0  0
  7  1  1  0  0  0  0
 10  5  1  0  0  0  0
 11 12  3  0  0  0  0
 13  6  1  0  0  0  0
 14 15  1  0  0  0  0
M  END
