Coordinates from ORCA-job Ph-N2-OH-B3LYPG-6-31G_dp-MTMO-d009-169-n800
 OpenBabel09051908283D

 15 14  0  0  0  0  0  0  0  0999 V2000
   -2.1084   -1.0753   -0.7825 C   0  0  0  0  0  0  0  0  0  0  0  0
   -0.8541   -0.4881   -0.6067 C   0  0  0  0  0  0  0  0  0  0  0  0
   -0.7496    0.7475    0.0412 C   0  0  0  0  0  0  0  0  0  0  0  0
   -1.9001    1.3914    0.5114 C   0  0  0  0  0  0  0  0  0  0  0  0
   -3.1456    0.7948    0.3294 C   0  0  0  0  0  0  0  0  0  0  0  0
   -3.2597   -0.4397   -0.3170 C   0  0  0  0  0  0  0  0  0  0  0  0
   -2.1800   -2.0354   -1.2852 H   0  0  0  0  0  0  0  0  0  0  0  0
    0.0415   -0.9871   -0.9715 H   0  0  0  0  0  0  0  0  0  0  0  0
   -1.7968    2.3497    1.0092 H   0  0  0  0  0  0  0  0  0  0  0  0
   -4.0349    1.2995    0.6959 H   0  0  0  0  0  0  0  0  0  0  0  0
   11.7361   -0.7730   -3.8134 N   0  0  0  0  0  0  0  0  0  0  0  0
   10.6937   -0.6966   -3.4538 N   0  0  0  0  0  0  0  0  0  0  0  0
   -4.2335   -0.8984   -0.4559 H   0  0  0  0  0  0  0  0  0  0  0  0
    0.4483    1.3748    0.2442 O   0  0  0  0  0  0  0  0  0  0  0  0
    1.1551    0.8344   -0.1316 H   0  0  0  0  0  0  0  0  0  0  0  0
  1  2  2  0  0  0  0
  1  6  1  0  0  0  0
  2  3  1  0  0  0  0
  3 14  1  0  0  0  0
  3  4  2  0  0  0  0
  4  9  1  0  0  0  0
  5  4  1  0  0  0  0
  5 10  1  0  0  0  0
  6  5  2  0  0  0  0
  7  1  1  0  0  0  0
  8  2  1  0  0  0  0
 11 12  3  0  0  0  0
 13  6  1  0  0  0  0
 15 14  1  0  0  0  0
M  END
