Coordinates from ORCA-job Ph-N2-OH-B3LYPG-6-31G_dp-MTMO-d009-169-n800
 OpenBabel09051908283D

 15 14  0  0  0  0  0  0  0  0999 V2000
   -2.3144   -1.0609   -0.7237 C   0  0  0  0  0  0  0  0  0  0  0  0
   -1.0607   -0.4761   -0.5359 C   0  0  0  0  0  0  0  0  0  0  0  0
   -0.9605    0.7611    0.1096 C   0  0  0  0  0  0  0  0  0  0  0  0
   -2.1143    1.4092    0.5655 C   0  0  0  0  0  0  0  0  0  0  0  0
   -3.3592    0.8148    0.3716 C   0  0  0  0  0  0  0  0  0  0  0  0
   -3.4691   -0.4212   -0.2725 C   0  0  0  0  0  0  0  0  0  0  0  0
   -2.3830   -2.0222   -1.2245 H   0  0  0  0  0  0  0  0  0  0  0  0
   -0.1622   -0.9780   -0.8895 H   0  0  0  0  0  0  0  0  0  0  0  0
   -2.0142    2.3686    1.0617 H   0  0  0  0  0  0  0  0  0  0  0  0
   -4.2512    1.3225    0.7271 H   0  0  0  0  0  0  0  0  0  0  0  0
   13.1017   -0.8745   -4.1965 N   0  0  0  0  0  0  0  0  0  0  0  0
   12.0585   -0.7949   -3.8398 N   0  0  0  0  0  0  0  0  0  0  0  0
   -4.4425   -0.8780   -0.4207 H   0  0  0  0  0  0  0  0  0  0  0  0
    0.2368    1.3859    0.3235 O   0  0  0  0  0  0  0  0  0  0  0  0
    0.9460    0.8421   -0.0426 H   0  0  0  0  0  0  0  0  0  0  0  0
  1  2  2  0  0  0  0
  1  6  1  0  0  0  0
  2  3  1  0  0  0  0
  3 14  1  0  0  0  0
  3  4  2  0  0  0  0
  4  9  1  0  0  0  0
  5  4  1  0  0  0  0
  5 10  1  0  0  0  0
  6  5  2  0  0  0  0
  7  1  1  0  0  0  0
  8  2  1  0  0  0  0
 11 12  3  0  0  0  0
 13  6  1  0  0  0  0
 15 14  1  0  0  0  0
M  END
