Coordinates from ORCA-job Ph-N2-OH-B3LYPG-6-31G_dp-MTMO-d009-169-n800
 OpenBabel09051908283D

 15 14  0  0  0  0  0  0  0  0999 V2000
   -1.6573   -1.1108   -0.9154 C   0  0  0  0  0  0  0  0  0  0  0  0
   -0.3936   -0.5305   -0.7915 C   0  0  0  0  0  0  0  0  0  0  0  0
   -0.2549    0.7008   -0.1418 C   0  0  0  0  0  0  0  0  0  0  0  0
   -1.3805    1.3474    0.3819 C   0  0  0  0  0  0  0  0  0  0  0  0
   -2.6357    0.7576    0.2512 C   0  0  0  0  0  0  0  0  0  0  0  0
   -2.7840   -0.4725   -0.3964 C   0  0  0  0  0  0  0  0  0  0  0  0
   -1.7557   -2.0677   -1.4197 H   0  0  0  0  0  0  0  0  0  0  0  0
    0.4829   -1.0313   -1.1977 H   0  0  0  0  0  0  0  0  0  0  0  0
   -1.2509    2.3023    0.8800 H   0  0  0  0  0  0  0  0  0  0  0  0
   -3.5057    1.2643    0.6589 H   0  0  0  0  0  0  0  0  0  0  0  0
    8.5799   -0.5101   -2.8873 N   0  0  0  0  0  0  0  0  0  0  0  0
    7.5377   -0.4254   -2.5291 N   0  0  0  0  0  0  0  0  0  0  0  0
   -3.7652   -0.9261   -0.4947 H   0  0  0  0  0  0  0  0  0  0  0  0
    0.9539    1.3212    0.0120 O   0  0  0  0  0  0  0  0  0  0  0  0
    1.6408    0.7792   -0.3969 H   0  0  0  0  0  0  0  0  0  0  0  0
  1  2  2  0  0  0  0
  1  6  1  0  0  0  0
  2  3  1  0  0  0  0
  3 14  1  0  0  0  0
  3  4  2  0  0  0  0
  4  9  1  0  0  0  0
  5  4  1  0  0  0  0
  5 10  1  0  0  0  0
  6  5  2  0  0  0  0
  7  1  1  0  0  0  0
  8  2  1  0  0  0  0
 11 12  3  0  0  0  0
 13  6  1  0  0  0  0
 15 14  1  0  0  0  0
M  END
