Coordinates from ORCA-job Ph-N2-OH-B3LYPG-6-31G_dp-MTMO-d009-169-n800
 OpenBabel09051908283D

 15 14  0  0  0  0  0  0  0  0999 V2000
   -1.3719   -1.1489   -1.0051 C   0  0  0  0  0  0  0  0  0  0  0  0
   -0.0694   -0.6476   -0.9733 C   0  0  0  0  0  0  0  0  0  0  0  0
    0.1886    0.5775   -0.3486 C   0  0  0  0  0  0  0  0  0  0  0  0
   -0.8577    1.2966    0.2412 C   0  0  0  0  0  0  0  0  0  0  0  0
   -2.1528    0.7853    0.2023 C   0  0  0  0  0  0  0  0  0  0  0  0
   -2.4198   -0.4383   -0.4192 C   0  0  0  0  0  0  0  0  0  0  0  0
   -1.5631   -2.1015   -1.4907 H   0  0  0  0  0  0  0  0  0  0  0  0
    0.7449   -1.2052   -1.4313 H   0  0  0  0  0  0  0  0  0  0  0  0
   -0.6359    2.2453    0.7185 H   0  0  0  0  0  0  0  0  0  0  0  0
   -2.9602    1.3483    0.6617 H   0  0  0  0  0  0  0  0  0  0  0  0
    5.9452   -0.1073   -1.9950 N   0  0  0  0  0  0  0  0  0  0  0  0
    4.8829   -0.0328   -1.6988 N   0  0  0  0  0  0  0  0  0  0  0  0
   -3.4313   -0.8317   -0.4454 H   0  0  0  0  0  0  0  0  0  0  0  0
    1.4407    1.1227   -0.2825 O   0  0  0  0  0  0  0  0  0  0  0  0
    2.0716    0.5360   -0.7203 H   0  0  0  0  0  0  0  0  0  0  0  0
  1  2  2  0  0  0  0
  1  6  1  0  0  0  0
  2  3  1  0  0  0  0
  3 14  1  0  0  0  0
  3  4  2  0  0  0  0
  4  9  1  0  0  0  0
  5  4  1  0  0  0  0
  5 10  1  0  0  0  0
  6  5  2  0  0  0  0
  7  1  1  0  0  0  0
  8  2  1  0  0  0  0
 11 12  3  0  0  0  0
 13  6  1  0  0  0  0
 15 14  1  0  0  0  0
M  END
