Coordinates from ORCA-job Ph-N2-OH-B3LYPG-6-31G_dp-MTMO-d009-169-n800
 OpenBabel09051908283D

 15 14  0  0  0  0  0  0  0  0999 V2000
   -1.4075   -1.1485   -0.9977 C   0  0  0  0  0  0  0  0  0  0  0  0
   -0.1043   -0.6488   -0.9701 C   0  0  0  0  0  0  0  0  0  0  0  0
    0.1572    0.5760   -0.3462 C   0  0  0  0  0  0  0  0  0  0  0  0
   -0.8863    1.2965    0.2469 C   0  0  0  0  0  0  0  0  0  0  0  0
   -2.1821    0.7868    0.2122 C   0  0  0  0  0  0  0  0  0  0  0  0
   -2.4526   -0.4366   -0.4084 C   0  0  0  0  0  0  0  0  0  0  0  0
   -1.6014   -2.1009   -1.4826 H   0  0  0  0  0  0  0  0  0  0  0  0
    0.7079   -1.2075   -1.4306 H   0  0  0  0  0  0  0  0  0  0  0  0
   -0.6617    2.2449    0.7234 H   0  0  0  0  0  0  0  0  0  0  0  0
   -2.9874    1.3508    0.6740 H   0  0  0  0  0  0  0  0  0  0  0  0
    6.1563   -0.1000   -2.0268 N   0  0  0  0  0  0  0  0  0  0  0  0
    5.0905   -0.0362   -1.7410 N   0  0  0  0  0  0  0  0  0  0  0  0
   -3.4646   -0.8286   -0.4314 H   0  0  0  0  0  0  0  0  0  0  0  0
    1.4102    1.1197   -0.2841 O   0  0  0  0  0  0  0  0  0  0  0  0
    2.0375    0.5309   -0.7241 H   0  0  0  0  0  0  0  0  0  0  0  0
  1  2  2  0  0  0  0
  1  6  1  0  0  0  0
  2  3  1  0  0  0  0
  3 14  1  0  0  0  0
  3  4  2  0  0  0  0
  4  9  1  0  0  0  0
  5  4  1  0  0  0  0
  5 10  1  0  0  0  0
  6  5  2  0  0  0  0
  7  1  1  0  0  0  0
  8  2  1  0  0  0  0
 11 12  3  0  0  0  0
 13  6  1  0  0  0  0
 15 14  1  0  0  0  0
M  END
