Coordinates from ORCA-job Ph-N2-OH-B3LYPG-6-31G_dp-MTMO-d009-169-n800
 OpenBabel09051908283D

 15 14  0  0  0  0  0  0  0  0999 V2000
   -1.8506   -1.0932   -0.8580 C   0  0  0  0  0  0  0  0  0  0  0  0
   -0.5953   -0.5020   -0.7045 C   0  0  0  0  0  0  0  0  0  0  0  0
   -0.4826    0.7307   -0.0523 C   0  0  0  0  0  0  0  0  0  0  0  0
   -1.6256    1.3678    0.4443 C   0  0  0  0  0  0  0  0  0  0  0  0
   -2.8723    0.7672    0.2842 C   0  0  0  0  0  0  0  0  0  0  0  0
   -2.9947   -0.4643   -0.3661 C   0  0  0  0  0  0  0  0  0  0  0  0
   -1.9289   -2.0509   -1.3641 H   0  0  0  0  0  0  0  0  0  0  0  0
    0.2949   -0.9953   -1.0897 H   0  0  0  0  0  0  0  0  0  0  0  0
   -1.5161    2.3240    0.9449 H   0  0  0  0  0  0  0  0  0  0  0  0
   -3.7560    1.2665    0.6710 H   0  0  0  0  0  0  0  0  0  0  0  0
   10.0075   -0.6469   -3.3181 N   0  0  0  0  0  0  0  0  0  0  0  0
    8.9661   -0.5658   -2.9566 N   0  0  0  0  0  0  0  0  0  0  0  0
   -3.9694   -0.9262   -0.4876 H   0  0  0  0  0  0  0  0  0  0  0  0
    0.7170    1.3614    0.1296 O   0  0  0  0  0  0  0  0  0  0  0  0
    1.4177    0.8254   -0.2634 H   0  0  0  0  0  0  0  0  0  0  0  0
  1  2  2  0  0  0  0
  1  6  1  0  0  0  0
  2  3  1  0  0  0  0
  3 14  1  0  0  0  0
  3  4  2  0  0  0  0
  4  9  1  0  0  0  0
  5  4  1  0  0  0  0
  5 10  1  0  0  0  0
  6  5  2  0  0  0  0
  7  1  1  0  0  0  0
  8  2  1  0  0  0  0
 11 12  3  0  0  0  0
 13  6  1  0  0  0  0
 15 14  1  0  0  0  0
M  END
