Coordinates from ORCA-job Ph-N2-OH-B3LYPG-6-31G_dp-MTMO-d009-169-n800
 OpenBabel09051908283D

 15 14  0  0  0  0  0  0  0  0999 V2000
   -1.2540   -1.1439   -1.0281 C   0  0  0  0  0  0  0  0  0  0  0  0
    0.0383   -0.6187   -0.9747 C   0  0  0  0  0  0  0  0  0  0  0  0
    0.2648    0.6084   -0.3409 C   0  0  0  0  0  0  0  0  0  0  0  0
   -0.8039    1.3047    0.2365 C   0  0  0  0  0  0  0  0  0  0  0  0
   -2.0885    0.7696    0.1761 C   0  0  0  0  0  0  0  0  0  0  0  0
   -2.3237   -0.4557   -0.4548 C   0  0  0  0  0  0  0  0  0  0  0  0
   -1.4200   -2.0976   -1.5206 H   0  0  0  0  0  0  0  0  0  0  0  0
    0.8696   -1.1589   -1.4228 H   0  0  0  0  0  0  0  0  0  0  0  0
   -0.6071    2.2551    0.7212 H   0  0  0  0  0  0  0  0  0  0  0  0
   -2.9130    1.3155    0.6258 H   0  0  0  0  0  0  0  0  0  0  0  0
    5.3779   -0.2215   -1.9550 N   0  0  0  0  0  0  0  0  0  0  0  0
    4.3393   -0.0737   -1.6082 N   0  0  0  0  0  0  0  0  0  0  0  0
   -3.3272   -0.8674   -0.4981 H   0  0  0  0  0  0  0  0  0  0  0  0
    1.5047    1.1759   -0.2543 O   0  0  0  0  0  0  0  0  0  0  0  0
    2.1545    0.6066   -0.6884 H   0  0  0  0  0  0  0  0  0  0  0  0
  1  2  2  0  0  0  0
  1  6  1  0  0  0  0
  2  3  1  0  0  0  0
  3 14  1  0  0  0  0
  3  4  2  0  0  0  0
  4  9  1  0  0  0  0
  5  4  1  0  0  0  0
  5 10  1  0  0  0  0
  6  5  2  0  0  0  0
  7  1  1  0  0  0  0
  8  2  1  0  0  0  0
 11 12  3  0  0  0  0
 13  6  1  0  0  0  0
 15 14  1  0  0  0  0
M  END
