Coordinates from ORCA-job Ph-N2-OH-B3LYPG-6-31G_dp-MTMO-d009-169-n800
 OpenBabel09051908283D

 15 15  0  0  0  0  0  0  0  0999 V2000
   -1.3768   -1.3714   -1.3160 C   0  0  0  0  0  0  0  0  0  0  0  0
    0.0086   -1.2739   -1.2942 C   0  0  0  0  0  0  0  0  0  0  0  0
    0.6631   -0.1491   -0.7391 C   0  0  0  0  0  0  0  0  0  0  0  0
   -0.1380    0.8899   -0.2008 C   0  0  0  0  0  0  0  0  0  0  0  0
   -1.5265    0.7813   -0.2292 C   0  0  0  0  0  0  0  0  0  0  0  0
   -2.1515   -0.3392   -0.7810 C   0  0  0  0  0  0  0  0  0  0  0  0
   -1.8519   -2.2473   -1.7477 H   0  0  0  0  0  0  0  0  0  0  0  0
    0.6330   -2.0612   -1.7035 H   0  0  0  0  0  0  0  0  0  0  0  0
    0.3271    1.7631    0.2280 H   0  0  0  0  0  0  0  0  0  0  0  0
   -2.1271    1.5854    0.1863 H   0  0  0  0  0  0  0  0  0  0  0  0
    1.9996   -0.2293   -0.8057 N   0  0  0  0  0  0  0  0  0  0  0  0
    2.8876    0.5338   -0.4259 N   0  0  0  0  0  0  0  0  0  0  0  0
   -3.2359   -0.4068   -0.7941 H   0  0  0  0  0  0  0  0  0  0  0  0
    2.4273    1.7504    0.2145 O   0  0  0  0  0  0  0  0  0  0  0  0
    3.2733    2.1727    0.4221 H   0  0  0  0  0  0  0  0  0  0  0  0
  1  2  2  0  0  0  0
  1  6  1  0  0  0  0
  2  3  1  0  0  0  0
  3  4  2  0  0  0  0
  4  9  1  0  0  0  0
  5  4  1  0  0  0  0
  5 10  1  0  0  0  0
  6  5  2  0  0  0  0
  7  1  1  0  0  0  0
  8  2  1  0  0  0  0
 11  3  1  0  0  0  0
 11 12  2  0  0  0  0
 12 14  1  0  0  0  0
 13  6  1  0  0  0  0
 14 15  1  0  0  0  0
M  END
