Coordinates from ORCA-job Ph-N2-OH-B3LYPG-6-31G_dp-MTMO-d009-169-n800
 OpenBabel09051908283D

 15 14  0  0  0  0  0  0  0  0999 V2000
   -0.9694   -1.2436   -0.9039 C   0  0  0  0  0  0  0  0  0  0  0  0
    0.2951   -0.8448   -0.4666 C   0  0  0  0  0  0  0  0  0  0  0  0
    0.4778    0.4435    0.0489 C   0  0  0  0  0  0  0  0  0  0  0  0
   -0.6069    1.3251    0.1289 C   0  0  0  0  0  0  0  0  0  0  0  0
   -1.8636    0.9137   -0.3085 C   0  0  0  0  0  0  0  0  0  0  0  0
   -2.0545   -0.3700   -0.8285 C   0  0  0  0  0  0  0  0  0  0  0  0
   -1.1016   -2.2447   -1.3042 H   0  0  0  0  0  0  0  0  0  0  0  0
    1.1375   -1.5306   -0.5240 H   0  0  0  0  0  0  0  0  0  0  0  0
   -0.4441    2.3187    0.5332 H   0  0  0  0  0  0  0  0  0  0  0  0
   -2.7009    1.6030   -0.2435 H   0  0  0  0  0  0  0  0  0  0  0  0
    3.2483    0.4947   -2.8965 N   0  0  0  0  0  0  0  0  0  0  0  0
    3.3807    0.0959   -1.8748 N   0  0  0  0  0  0  0  0  0  0  0  0
   -3.0357   -0.6836   -1.1703 H   0  0  0  0  0  0  0  0  0  0  0  0
    1.6882    0.8974    0.4936 O   0  0  0  0  0  0  0  0  0  0  0  0
    2.3607    0.2237    0.3296 H   0  0  0  0  0  0  0  0  0  0  0  0
  1  6  2  0  0  0  0
  1  2  1  0  0  0  0
  2  3  2  0  0  0  0
  3  4  1  0  0  0  0
  3 14  1  0  0  0  0
  4  9  1  0  0  0  0
  5 10  1  0  0  0  0
  5  4  2  0  0  0  0
  6  5  1  0  0  0  0
  7  1  1  0  0  0  0
  8  2  1  0  0  0  0
 11 12  3  0  0  0  0
 13  6  1  0  0  0  0
 15 14  1  0  0  0  0
M  END
