Coordinates from ORCA-job Ph-N2-OH-B3LYPG-6-31G_dp-MTMO-d009-169-n800
 OpenBabel09051908283D

 15 14  0  0  0  0  0  0  0  0999 V2000
   -1.2971   -1.1472   -1.0199 C   0  0  0  0  0  0  0  0  0  0  0  0
    0.0007   -0.6348   -0.9753 C   0  0  0  0  0  0  0  0  0  0  0  0
    0.2427    0.5915   -0.3461 C   0  0  0  0  0  0  0  0  0  0  0  0
   -0.8155    1.3002    0.2355 C   0  0  0  0  0  0  0  0  0  0  0  0
   -2.1057    0.7778    0.1838 C   0  0  0  0  0  0  0  0  0  0  0  0
   -2.3565   -0.4468   -0.4423 C   0  0  0  0  0  0  0  0  0  0  0  0
   -1.4756   -2.1005   -1.5088 H   0  0  0  0  0  0  0  0  0  0  0  0
    0.8239   -1.1845   -1.4267 H   0  0  0  0  0  0  0  0  0  0  0  0
   -0.6063    2.2499    0.7164 H   0  0  0  0  0  0  0  0  0  0  0  0
   -2.9221    1.3330    0.6367 H   0  0  0  0  0  0  0  0  0  0  0  0
    5.5591   -0.1588   -1.9581 N   0  0  0  0  0  0  0  0  0  0  0  0
    4.5085   -0.0495   -1.6331 N   0  0  0  0  0  0  0  0  0  0  0  0
   -3.3643   -0.8487   -0.4787 H   0  0  0  0  0  0  0  0  0  0  0  0
    1.4889    1.1472   -0.2678 O   0  0  0  0  0  0  0  0  0  0  0  0
    2.1311    0.5696   -0.7022 H   0  0  0  0  0  0  0  0  0  0  0  0
  1  2  2  0  0  0  0
  1  6  1  0  0  0  0
  2  3  1  0  0  0  0
  3 14  1  0  0  0  0
  3  4  2  0  0  0  0
  4  9  1  0  0  0  0
  5  4  1  0  0  0  0
  5 10  1  0  0  0  0
  6  5  2  0  0  0  0
  7  1  1  0  0  0  0
  8  2  1  0  0  0  0
 11 12  3  0  0  0  0
 13  6  1  0  0  0  0
 15 14  1  0  0  0  0
M  END
