Coordinates from ORCA-job Ph-N2-OH-B3LYPG-6-31G_dp-MTMO-d009-169-n800
 OpenBabel09051908283D

 15 14  0  0  0  0  0  0  0  0999 V2000
   -1.9372   -1.0866   -0.8328 C   0  0  0  0  0  0  0  0  0  0  0  0
   -0.6832   -0.4948   -0.6708 C   0  0  0  0  0  0  0  0  0  0  0  0
   -0.5757    0.7386   -0.0191 C   0  0  0  0  0  0  0  0  0  0  0  0
   -1.7225    1.3759    0.4685 C   0  0  0  0  0  0  0  0  0  0  0  0
   -2.9678    0.7747    0.3000 C   0  0  0  0  0  0  0  0  0  0  0  0
   -3.0850   -0.4576   -0.3499 C   0  0  0  0  0  0  0  0  0  0  0  0
   -2.0115   -2.0449   -1.3384 H   0  0  0  0  0  0  0  0  0  0  0  0
    0.2098   -0.9883   -1.0490 H   0  0  0  0  0  0  0  0  0  0  0  0
   -1.6168    2.3326    0.9688 H   0  0  0  0  0  0  0  0  0  0  0  0
   -3.8544    1.2741    0.6799 H   0  0  0  0  0  0  0  0  0  0  0  0
   10.6041   -0.6947   -3.4903 N   0  0  0  0  0  0  0  0  0  0  0  0
    9.5623   -0.6145   -3.1296 N   0  0  0  0  0  0  0  0  0  0  0  0
   -4.0587   -0.9198   -0.4780 H   0  0  0  0  0  0  0  0  0  0  0  0
    0.6223    1.3699    0.1707 O   0  0  0  0  0  0  0  0  0  0  0  0
    1.3260    0.8336   -0.2166 H   0  0  0  0  0  0  0  0  0  0  0  0
  1  2  2  0  0  0  0
  1  6  1  0  0  0  0
  2  3  1  0  0  0  0
  3 14  1  0  0  0  0
  3  4  2  0  0  0  0
  4  9  1  0  0  0  0
  5  4  1  0  0  0  0
  5 10  1  0  0  0  0
  6  5  2  0  0  0  0
  7  1  1  0  0  0  0
  8  2  1  0  0  0  0
 11 12  3  0  0  0  0
 13  6  1  0  0  0  0
 15 14  1  0  0  0  0
M  END
