Coordinates from ORCA-job Ph-N2-OH-B3LYPG-6-31G_dp-MTMO-d009-169-n800
 OpenBabel09051908283D

 15 14  0  0  0  0  0  0  0  0999 V2000
   -1.5651   -1.1218   -0.9434 C   0  0  0  0  0  0  0  0  0  0  0  0
   -0.2932   -0.5555   -0.8415 C   0  0  0  0  0  0  0  0  0  0  0  0
   -0.1301    0.6753   -0.1964 C   0  0  0  0  0  0  0  0  0  0  0  0
   -1.2396    1.3353    0.3445 C   0  0  0  0  0  0  0  0  0  0  0  0
   -2.5033    0.7593    0.2357 C   0  0  0  0  0  0  0  0  0  0  0  0
   -2.6759   -0.4701   -0.4071 C   0  0  0  0  0  0  0  0  0  0  0  0
   -1.6824   -2.0783   -1.4443 H   0  0  0  0  0  0  0  0  0  0  0  0
    0.5709   -1.0667   -1.2611 H   0  0  0  0  0  0  0  0  0  0  0  0
   -1.0912    2.2895    0.8387 H   0  0  0  0  0  0  0  0  0  0  0  0
   -3.3607    1.2765    0.6567 H   0  0  0  0  0  0  0  0  0  0  0  0
    7.8201   -0.4157   -2.6432 N   0  0  0  0  0  0  0  0  0  0  0  0
    6.7754   -0.3300   -2.2923 N   0  0  0  0  0  0  0  0  0  0  0  0
   -3.6636   -0.9131   -0.4882 H   0  0  0  0  0  0  0  0  0  0  0  0
    1.0879    1.2824   -0.0636 O   0  0  0  0  0  0  0  0  0  0  0  0
    1.7625    0.7314   -0.4810 H   0  0  0  0  0  0  0  0  0  0  0  0
  1  2  2  0  0  0  0
  1  6  1  0  0  0  0
  2  3  1  0  0  0  0
  3 14  1  0  0  0  0
  3  4  2  0  0  0  0
  4  9  1  0  0  0  0
  5  4  1  0  0  0  0
  5 10  1  0  0  0  0
  6  5  2  0  0  0  0
  7  1  1  0  0  0  0
  8  2  1  0  0  0  0
 11 12  3  0  0  0  0
 13  6  1  0  0  0  0
 15 14  1  0  0  0  0
M  END
