Coordinates from ORCA-job Ph-N2-OH-B3LYPG-6-31G_dp-MTMO-d009-169-n800
 OpenBabel09051908283D

 15 15  0  0  0  0  0  0  0  0999 V2000
   -1.3708   -1.3719   -1.3167 C   0  0  0  0  0  0  0  0  0  0  0  0
    0.0129   -1.2761   -1.2953 C   0  0  0  0  0  0  0  0  0  0  0  0
    0.6872   -0.1514   -0.7401 C   0  0  0  0  0  0  0  0  0  0  0  0
   -0.1301    0.8879   -0.2012 C   0  0  0  0  0  0  0  0  0  0  0  0
   -1.5170    0.7811   -0.2293 C   0  0  0  0  0  0  0  0  0  0  0  0
   -2.1444   -0.3385   -0.7811 C   0  0  0  0  0  0  0  0  0  0  0  0
   -1.8474   -2.2470   -1.7484 H   0  0  0  0  0  0  0  0  0  0  0  0
    0.6344   -2.0656   -1.7057 H   0  0  0  0  0  0  0  0  0  0  0  0
    0.3330    1.7622    0.2286 H   0  0  0  0  0  0  0  0  0  0  0  0
   -2.1170    1.5856    0.1865 H   0  0  0  0  0  0  0  0  0  0  0  0
    1.9448   -0.2150   -0.7960 N   0  0  0  0  0  0  0  0  0  0  0  0
    2.8595    0.5282   -0.4282 N   0  0  0  0  0  0  0  0  0  0  0  0
   -3.2289   -0.4046   -0.7938 H   0  0  0  0  0  0  0  0  0  0  0  0
    2.4202    1.7582    0.2166 O   0  0  0  0  0  0  0  0  0  0  0  0
    3.2752    2.1654    0.4175 H   0  0  0  0  0  0  0  0  0  0  0  0
  1  2  2  0  0  0  0
  1  6  1  0  0  0  0
  2  3  1  0  0  0  0
  3  4  2  0  0  0  0
  4  9  1  0  0  0  0
  5  4  1  0  0  0  0
  5 10  1  0  0  0  0
  6  5  2  0  0  0  0
  7  1  1  0  0  0  0
  8  2  1  0  0  0  0
 11  3  1  0  0  0  0
 11 12  1  0  0  0  0
 12 14  1  0  0  0  0
 13  6  1  0  0  0  0
 14 15  1  0  0  0  0
M  RAD  2  11   2  12   2
M  END
