Coordinates from ORCA-job Ph-N2-OH-B3LYPG-6-31G_dp-MTMO-d009-169-n800
 OpenBabel09051908283D

 15 14  0  0  0  0  0  0  0  0999 V2000
   -1.2950   -1.4276   -0.9507 C   0  0  0  0  0  0  0  0  0  0  0  0
    0.0561   -1.1149   -1.1741 C   0  0  0  0  0  0  0  0  0  0  0  0
    0.4010    0.2055   -1.0175 C   0  0  0  0  0  0  0  0  0  0  0  0
   -0.4360    1.2430   -0.6845 C   0  0  0  0  0  0  0  0  0  0  0  0
   -1.7809    0.9015   -0.4687 C   0  0  0  0  0  0  0  0  0  0  0  0
   -2.2024   -0.4247   -0.6008 C   0  0  0  0  0  0  0  0  0  0  0  0
   -1.6295   -2.4562   -1.0573 H   0  0  0  0  0  0  0  0  0  0  0  0
    0.7770   -1.8749   -1.4535 H   0  0  0  0  0  0  0  0  0  0  0  0
   -0.0860    2.2641   -0.5855 H   0  0  0  0  0  0  0  0  0  0  0  0
   -2.4914    1.6777   -0.1972 H   0  0  0  0  0  0  0  0  0  0  0  0
    2.5602    0.7360   -1.6131 N   0  0  0  0  0  0  0  0  0  0  0  0
    3.2402    0.8617   -0.6467 N   0  0  0  0  0  0  0  0  0  0  0  0
   -3.2447   -0.6775   -0.4308 H   0  0  0  0  0  0  0  0  0  0  0  0
    2.6055    0.6678    0.6356 O   0  0  0  0  0  0  0  0  0  0  0  0
    3.3379    0.8169    1.2582 H   0  0  0  0  0  0  0  0  0  0  0  0
  1  6  2  0  0  0  0
  2  3  2  0  0  0  0
  2  1  1  0  0  0  0
  3  4  1  0  0  0  0
  4  9  1  0  0  0  0
  4  5  2  0  0  0  0
  5 10  1  0  0  0  0
  6  5  1  0  0  0  0
  6 13  1  0  0  0  0
  7  1  1  0  0  0  0
  8  2  1  0  0  0  0
 11 12  2  0  0  0  0
 12 14  1  0  0  0  0
 14 15  1  0  0  0  0
M  RAD  2   3   2  11   2
M  END
