Coordinates from ORCA-job Ph-N2-OH-B3LYPG-6-31G_dp-MTMO-d009-169-n800
 OpenBabel09051908283D

 15 14  0  0  0  0  0  0  0  0999 V2000
   -2.5151   -1.0468   -0.6664 C   0  0  0  0  0  0  0  0  0  0  0  0
   -1.2623   -0.4638   -0.4677 C   0  0  0  0  0  0  0  0  0  0  0  0
   -1.1663    0.7750    0.1756 C   0  0  0  0  0  0  0  0  0  0  0  0
   -2.3235    1.4265    0.6178 C   0  0  0  0  0  0  0  0  0  0  0  0
   -3.5675    0.8340    0.4128 C   0  0  0  0  0  0  0  0  0  0  0  0
   -3.6731   -0.4037   -0.2287 C   0  0  0  0  0  0  0  0  0  0  0  0
   -2.5804   -2.0093   -1.1654 H   0  0  0  0  0  0  0  0  0  0  0  0
   -0.3614   -0.9678   -0.8118 H   0  0  0  0  0  0  0  0  0  0  0  0
   -2.2267    2.3871    1.1125 H   0  0  0  0  0  0  0  0  0  0  0  0
   -4.4621    1.3443    0.7578 H   0  0  0  0  0  0  0  0  0  0  0  0
   14.4335   -0.9743   -4.5707 N   0  0  0  0  0  0  0  0  0  0  0  0
   13.3901   -0.8912   -4.2153 N   0  0  0  0  0  0  0  0  0  0  0  0
   -4.6458   -0.8591   -0.3855 H   0  0  0  0  0  0  0  0  0  0  0  0
    0.0299    1.3981    0.4004 O   0  0  0  0  0  0  0  0  0  0  0  0
    0.7424    0.8494    0.0482 H   0  0  0  0  0  0  0  0  0  0  0  0
  1  2  2  0  0  0  0
  1  6  1  0  0  0  0
  2  3  1  0  0  0  0
  3 14  1  0  0  0  0
  3  4  2  0  0  0  0
  4  9  1  0  0  0  0
  5  4  1  0  0  0  0
  5 10  1  0  0  0  0
  6  5  2  0  0  0  0
  7  1  1  0  0  0  0
  8  2  1  0  0  0  0
 11 12  3  0  0  0  0
 13  6  1  0  0  0  0
 15 14  1  0  0  0  0
M  END
