Coordinates from ORCA-job Ph-N2-OH-B3LYPG-6-31G_dp-MTMO-d009-169-n800
 OpenBabel09051908283D

 15 14  0  0  0  0  0  0  0  0999 V2000
   -2.5199   -1.0465   -0.6649 C   0  0  0  0  0  0  0  0  0  0  0  0
   -1.2672   -0.4637   -0.4653 C   0  0  0  0  0  0  0  0  0  0  0  0
   -1.1714    0.7752    0.1778 C   0  0  0  0  0  0  0  0  0  0  0  0
   -2.3289    1.4270    0.6189 C   0  0  0  0  0  0  0  0  0  0  0  0
   -3.5728    0.8347    0.4131 C   0  0  0  0  0  0  0  0  0  0  0  0
   -3.6782   -0.4031   -0.2283 C   0  0  0  0  0  0  0  0  0  0  0  0
   -2.5851   -2.0091   -1.1637 H   0  0  0  0  0  0  0  0  0  0  0  0
   -0.3661   -0.9679   -0.8086 H   0  0  0  0  0  0  0  0  0  0  0  0
   -2.2322    2.3877    1.1135 H   0  0  0  0  0  0  0  0  0  0  0  0
   -4.4676    1.3452    0.7573 H   0  0  0  0  0  0  0  0  0  0  0  0
   14.4665   -0.9768   -4.5806 N   0  0  0  0  0  0  0  0  0  0  0  0
   13.4232   -0.8934   -4.2251 N   0  0  0  0  0  0  0  0  0  0  0  0
   -4.6508   -0.8583   -0.3857 H   0  0  0  0  0  0  0  0  0  0  0  0
    0.0247    1.3981    0.4033 O   0  0  0  0  0  0  0  0  0  0  0  0
    0.7374    0.8492    0.0518 H   0  0  0  0  0  0  0  0  0  0  0  0
  1  2  2  0  0  0  0
  1  6  1  0  0  0  0
  2  3  1  0  0  0  0
  3 14  1  0  0  0  0
  3  4  2  0  0  0  0
  4  9  1  0  0  0  0
  5  4  1  0  0  0  0
  5 10  1  0  0  0  0
  6  5  2  0  0  0  0
  7  1  1  0  0  0  0
  8  2  1  0  0  0  0
 11 12  3  0  0  0  0
 13  6  1  0  0  0  0
 15 14  1  0  0  0  0
M  END
