Coordinates from ORCA-job Ph-N2-OH-B3LYPG-6-31G_dp-MTMO-d009-169-n800
 OpenBabel09051908283D

 15 14  0  0  0  0  0  0  0  0999 V2000
   -1.2780   -1.4247   -0.9789 C   0  0  0  0  0  0  0  0  0  0  0  0
    0.0727   -1.1290   -1.2135 C   0  0  0  0  0  0  0  0  0  0  0  0
    0.4587    0.1803   -1.0314 C   0  0  0  0  0  0  0  0  0  0  0  0
   -0.3686    1.2210   -0.6687 C   0  0  0  0  0  0  0  0  0  0  0  0
   -1.7147    0.9014   -0.4435 C   0  0  0  0  0  0  0  0  0  0  0  0
   -2.1633   -0.4139   -0.5964 C   0  0  0  0  0  0  0  0  0  0  0  0
   -1.6332   -2.4440   -1.1034 H   0  0  0  0  0  0  0  0  0  0  0  0
    0.7767   -1.8935   -1.5230 H   0  0  0  0  0  0  0  0  0  0  0  0
    0.0013    2.2331   -0.5515 H   0  0  0  0  0  0  0  0  0  0  0  0
   -2.4081    1.6840   -0.1479 H   0  0  0  0  0  0  0  0  0  0  0  0
    2.3822    0.5988   -1.5721 N   0  0  0  0  0  0  0  0  0  0  0  0
    3.1057    0.8182   -0.6386 N   0  0  0  0  0  0  0  0  0  0  0  0
   -3.2079   -0.6510   -0.4186 H   0  0  0  0  0  0  0  0  0  0  0  0
    2.5172    0.7562    0.6618 O   0  0  0  0  0  0  0  0  0  0  0  0
    3.2709    0.9612    1.2393 H   0  0  0  0  0  0  0  0  0  0  0  0
  1  6  2  0  0  0  0
  2  3  2  0  0  0  0
  2  1  1  0  0  0  0
  3  4  1  0  0  0  0
  4  9  1  0  0  0  0
  4  5  2  0  0  0  0
  5 10  1  0  0  0  0
  6  5  1  0  0  0  0
  6 13  1  0  0  0  0
  7  1  1  0  0  0  0
  8  2  1  0  0  0  0
 11 12  2  0  0  0  0
 12 14  1  0  0  0  0
 14 15  1  0  0  0  0
M  RAD  2   3   2  11   2
M  END
