Coordinates from ORCA-job Ph-N2-OH-B3LYPG-6-31G_dp-MTMO-d009-169-n800
 OpenBabel09051908283D

 15 14  0  0  0  0  0  0  0  0999 V2000
   -1.6430   -1.1124   -0.9197 C   0  0  0  0  0  0  0  0  0  0  0  0
   -0.3783   -0.5338   -0.7988 C   0  0  0  0  0  0  0  0  0  0  0  0
   -0.2364    0.6975   -0.1497 C   0  0  0  0  0  0  0  0  0  0  0  0
   -1.3599    1.3456    0.3765 C   0  0  0  0  0  0  0  0  0  0  0  0
   -2.6162    0.7575    0.2489 C   0  0  0  0  0  0  0  0  0  0  0  0
   -2.7676   -0.4725   -0.3982 C   0  0  0  0  0  0  0  0  0  0  0  0
   -1.7438   -2.0692   -1.4237 H   0  0  0  0  0  0  0  0  0  0  0  0
    0.4966   -1.0358   -1.2070 H   0  0  0  0  0  0  0  0  0  0  0  0
   -1.2279    2.3005    0.8742 H   0  0  0  0  0  0  0  0  0  0  0  0
   -3.4846    1.2655    0.6584 H   0  0  0  0  0  0  0  0  0  0  0  0
    8.4662   -0.4971   -2.8514 N   0  0  0  0  0  0  0  0  0  0  0  0
    7.4238   -0.4121   -2.4941 N   0  0  0  0  0  0  0  0  0  0  0  0
   -3.7497   -0.9248   -0.4942 H   0  0  0  0  0  0  0  0  0  0  0  0
    0.9736    1.3163    0.0012 O   0  0  0  0  0  0  0  0  0  0  0  0
    1.6589    0.7732   -0.4089 H   0  0  0  0  0  0  0  0  0  0  0  0
  1  2  2  0  0  0  0
  1  6  1  0  0  0  0
  2  3  1  0  0  0  0
  3 14  1  0  0  0  0
  3  4  2  0  0  0  0
  4  9  1  0  0  0  0
  5  4  1  0  0  0  0
  5 10  1  0  0  0  0
  6  5  2  0  0  0  0
  7  1  1  0  0  0  0
  8  2  1  0  0  0  0
 11 12  3  0  0  0  0
 13  6  1  0  0  0  0
 15 14  1  0  0  0  0
M  END
