Coordinates from ORCA-job Ph-N2-OH-B3LYPG-6-31G_dp-MTMO-d009-169-n800
 OpenBabel09051908283D

 15 14  0  0  0  0  0  0  0  0999 V2000
   -1.7340   -1.1031   -0.8925 C   0  0  0  0  0  0  0  0  0  0  0  0
   -0.4748   -0.5163   -0.7545 C   0  0  0  0  0  0  0  0  0  0  0  0
   -0.3497    0.7155   -0.1029 C   0  0  0  0  0  0  0  0  0  0  0  0
   -1.4842    1.3560    0.4086 C   0  0  0  0  0  0  0  0  0  0  0  0
   -2.7348    0.7597    0.2640 C   0  0  0  0  0  0  0  0  0  0  0  0
   -2.8696   -0.4709   -0.3856 C   0  0  0  0  0  0  0  0  0  0  0  0
   -1.8219   -2.0603   -1.3981 H   0  0  0  0  0  0  0  0  0  0  0  0
    0.4087   -1.0123   -1.1513 H   0  0  0  0  0  0  0  0  0  0  0  0
   -1.3651    2.3115    0.9084 H   0  0  0  0  0  0  0  0  0  0  0  0
   -3.6119    1.2618    0.6623 H   0  0  0  0  0  0  0  0  0  0  0  0
    9.1677   -0.5716   -3.0686 N   0  0  0  0  0  0  0  0  0  0  0  0
    8.1262   -0.4885   -2.7077 N   0  0  0  0  0  0  0  0  0  0  0  0
   -3.8473   -0.9295   -0.4949 H   0  0  0  0  0  0  0  0  0  0  0  0
    0.8542    1.3421    0.0641 O   0  0  0  0  0  0  0  0  0  0  0  0
    1.5482    0.8041   -0.3379 H   0  0  0  0  0  0  0  0  0  0  0  0
  1  2  2  0  0  0  0
  1  6  1  0  0  0  0
  2  3  1  0  0  0  0
  3 14  1  0  0  0  0
  3  4  2  0  0  0  0
  4  9  1  0  0  0  0
  5  4  1  0  0  0  0
  5 10  1  0  0  0  0
  6  5  2  0  0  0  0
  7  1  1  0  0  0  0
  8  2  1  0  0  0  0
 11 12  3  0  0  0  0
 13  6  1  0  0  0  0
 15 14  1  0  0  0  0
M  END
