Coordinates from ORCA-job Ph-N2-OH-B3LYPG-6-31G_dp-MTMO-d009-169-n800
 OpenBabel09051908283D

 15 14  0  0  0  0  0  0  0  0999 V2000
   -1.8720   -1.0915   -0.8518 C   0  0  0  0  0  0  0  0  0  0  0  0
   -0.6171   -0.5000   -0.6959 C   0  0  0  0  0  0  0  0  0  0  0  0
   -0.5059    0.7329   -0.0438 C   0  0  0  0  0  0  0  0  0  0  0  0
   -1.6500    1.3698    0.4504 C   0  0  0  0  0  0  0  0  0  0  0  0
   -2.8963    0.7689    0.2881 C   0  0  0  0  0  0  0  0  0  0  0  0
   -3.0171   -0.4628   -0.3623 C   0  0  0  0  0  0  0  0  0  0  0  0
   -1.9491   -2.0494   -1.3578 H   0  0  0  0  0  0  0  0  0  0  0  0
    0.2739   -0.9932   -1.0793 H   0  0  0  0  0  0  0  0  0  0  0  0
   -1.5416    2.3261    0.9509 H   0  0  0  0  0  0  0  0  0  0  0  0
   -3.7808    1.2682    0.6730 H   0  0  0  0  0  0  0  0  0  0  0  0
   10.1564   -0.6592   -3.3614 N   0  0  0  0  0  0  0  0  0  0  0  0
    9.1150   -0.5784   -3.0000 N   0  0  0  0  0  0  0  0  0  0  0  0
   -3.9915   -0.9248   -0.4855 H   0  0  0  0  0  0  0  0  0  0  0  0
    0.6932    1.3638    0.1402 O   0  0  0  0  0  0  0  0  0  0  0  0
    1.3948    0.8279   -0.2513 H   0  0  0  0  0  0  0  0  0  0  0  0
  1  2  2  0  0  0  0
  1  6  1  0  0  0  0
  2  3  1  0  0  0  0
  3 14  1  0  0  0  0
  3  4  2  0  0  0  0
  4  9  1  0  0  0  0
  5  4  1  0  0  0  0
  5 10  1  0  0  0  0
  6  5  2  0  0  0  0
  7  1  1  0  0  0  0
  8  2  1  0  0  0  0
 11 12  3  0  0  0  0
 13  6  1  0  0  0  0
 15 14  1  0  0  0  0
M  END
