Coordinates from ORCA-job Ph-N2-OH-B3LYPG-6-31G_dp-MTMO-d009-169-n800
 OpenBabel09051908283D

 15 14  0  0  0  0  0  0  0  0999 V2000
   -2.0672   -1.0778   -0.7947 C   0  0  0  0  0  0  0  0  0  0  0  0
   -0.8133   -0.4889   -0.6218 C   0  0  0  0  0  0  0  0  0  0  0  0
   -0.7090    0.7461    0.0273 C   0  0  0  0  0  0  0  0  0  0  0  0
   -1.8589    1.3878    0.5017 C   0  0  0  0  0  0  0  0  0  0  0  0
   -3.1040    0.7894    0.3225 C   0  0  0  0  0  0  0  0  0  0  0  0
   -3.2180   -0.4444   -0.3250 C   0  0  0  0  0  0  0  0  0  0  0  0
   -2.1390   -2.0374   -1.2983 H   0  0  0  0  0  0  0  0  0  0  0  0
    0.0822   -0.9858   -0.9897 H   0  0  0  0  0  0  0  0  0  0  0  0
   -1.7557    2.3457    1.0003 H   0  0  0  0  0  0  0  0  0  0  0  0
   -3.9931    1.2922    0.6921 H   0  0  0  0  0  0  0  0  0  0  0  0
   11.4691   -0.7557   -3.7376 N   0  0  0  0  0  0  0  0  0  0  0  0
   10.4268   -0.6785   -3.3777 N   0  0  0  0  0  0  0  0  0  0  0  0
   -4.1916   -0.9045   -0.4616 H   0  0  0  0  0  0  0  0  0  0  0  0
    0.4887    1.3748    0.2273 O   0  0  0  0  0  0  0  0  0  0  0  0
    1.1948    0.8355   -0.1512 H   0  0  0  0  0  0  0  0  0  0  0  0
  1  2  2  0  0  0  0
  1  6  1  0  0  0  0
  2  3  1  0  0  0  0
  3 14  1  0  0  0  0
  3  4  2  0  0  0  0
  4  9  1  0  0  0  0
  5  4  1  0  0  0  0
  5 10  1  0  0  0  0
  6  5  2  0  0  0  0
  7  1  1  0  0  0  0
  8  2  1  0  0  0  0
 11 12  3  0  0  0  0
 13  6  1  0  0  0  0
 15 14  1  0  0  0  0
M  END
