Coordinates from ORCA-job Ph-N2-OH-B3LYPG-6-31G_dp-MTMO-d009-169-n800
 OpenBabel09051908283D

 15 14  0  0  0  0  0  0  0  0999 V2000
   -2.0626   -1.0782   -0.7959 C   0  0  0  0  0  0  0  0  0  0  0  0
   -0.8085   -0.4896   -0.6235 C   0  0  0  0  0  0  0  0  0  0  0  0
   -0.7037    0.7454    0.0255 C   0  0  0  0  0  0  0  0  0  0  0  0
   -1.8535    1.3872    0.5001 C   0  0  0  0  0  0  0  0  0  0  0  0
   -3.0988    0.7892    0.3215 C   0  0  0  0  0  0  0  0  0  0  0  0
   -3.2132   -0.4447   -0.3260 C   0  0  0  0  0  0  0  0  0  0  0  0
   -2.1346   -2.0378   -1.2995 H   0  0  0  0  0  0  0  0  0  0  0  0
    0.0865   -0.9869   -0.9918 H   0  0  0  0  0  0  0  0  0  0  0  0
   -1.7499    2.3451    0.9987 H   0  0  0  0  0  0  0  0  0  0  0  0
   -3.9875    1.2923    0.6914 H   0  0  0  0  0  0  0  0  0  0  0  0
   11.4361   -0.7527   -3.7282 N   0  0  0  0  0  0  0  0  0  0  0  0
   10.3939   -0.6756   -3.3683 N   0  0  0  0  0  0  0  0  0  0  0  0
   -4.1869   -0.9046   -0.4623 H   0  0  0  0  0  0  0  0  0  0  0  0
    0.4941    1.3741    0.2253 O   0  0  0  0  0  0  0  0  0  0  0  0
    1.2004    0.8352   -0.1534 H   0  0  0  0  0  0  0  0  0  0  0  0
  1  2  2  0  0  0  0
  1  6  1  0  0  0  0
  2  3  1  0  0  0  0
  3 14  1  0  0  0  0
  3  4  2  0  0  0  0
  4  9  1  0  0  0  0
  5  4  1  0  0  0  0
  5 10  1  0  0  0  0
  6  5  2  0  0  0  0
  7  1  1  0  0  0  0
  8  2  1  0  0  0  0
 11 12  3  0  0  0  0
 13  6  1  0  0  0  0
 15 14  1  0  0  0  0
M  END
