Coordinates from ORCA-job Ph-N2-OH-B3LYPG-6-31G_dp-MTMO-d009-169-n800
 OpenBabel09051908283D

 15 14  0  0  0  0  0  0  0  0999 V2000
   -2.4994   -1.0478   -0.6717 C   0  0  0  0  0  0  0  0  0  0  0  0
   -1.2461   -0.4646   -0.4768 C   0  0  0  0  0  0  0  0  0  0  0  0
   -1.1481    0.7736    0.1673 C   0  0  0  0  0  0  0  0  0  0  0  0
   -2.3039    1.4243    0.6145 C   0  0  0  0  0  0  0  0  0  0  0  0
   -3.5484    0.8315    0.4136 C   0  0  0  0  0  0  0  0  0  0  0  0
   -3.6560   -0.4054   -0.2291 C   0  0  0  0  0  0  0  0  0  0  0  0
   -2.5663   -2.0098   -1.1712 H   0  0  0  0  0  0  0  0  0  0  0  0
   -0.3461   -0.9685   -0.8236 H   0  0  0  0  0  0  0  0  0  0  0  0
   -2.2055    2.3844    1.1097 H   0  0  0  0  0  0  0  0  0  0  0  0
   -4.4419    1.3411    0.7624 H   0  0  0  0  0  0  0  0  0  0  0  0
   14.3191   -0.9650   -4.5341 N   0  0  0  0  0  0  0  0  0  0  0  0
   13.2753   -0.8829   -4.1799 N   0  0  0  0  0  0  0  0  0  0  0  0
   -4.6291   -0.8610   -0.3829 H   0  0  0  0  0  0  0  0  0  0  0  0
    0.0487    1.3970    0.3879 O   0  0  0  0  0  0  0  0  0  0  0  0
    0.7594    0.8514    0.0274 H   0  0  0  0  0  0  0  0  0  0  0  0
  1  2  2  0  0  0  0
  1  6  1  0  0  0  0
  2  3  1  0  0  0  0
  3 14  1  0  0  0  0
  3  4  2  0  0  0  0
  4  9  1  0  0  0  0
  5  4  1  0  0  0  0
  5 10  1  0  0  0  0
  6  5  2  0  0  0  0
  7  1  1  0  0  0  0
  8  2  1  0  0  0  0
 11 12  3  0  0  0  0
 13  6  1  0  0  0  0
 15 14  1  0  0  0  0
M  END
