Coordinates from ORCA-job Ph-N2-OH-B3LYPG-6-31G_dp-MTMO-d009-169-n800
 OpenBabel09051908283D

 15 14  0  0  0  0  0  0  0  0999 V2000
   -1.2775   -1.1457   -1.0235 C   0  0  0  0  0  0  0  0  0  0  0  0
    0.0178   -0.6273   -0.9746 C   0  0  0  0  0  0  0  0  0  0  0  0
    0.2525    0.5994   -0.3432 C   0  0  0  0  0  0  0  0  0  0  0  0
   -0.8107    1.3024    0.2362 C   0  0  0  0  0  0  0  0  0  0  0  0
   -2.0983    0.7741    0.1801 C   0  0  0  0  0  0  0  0  0  0  0  0
   -2.3417   -0.4509   -0.4483 C   0  0  0  0  0  0  0  0  0  0  0  0
   -1.4500   -2.0992   -1.5142 H   0  0  0  0  0  0  0  0  0  0  0  0
    0.8450   -1.1726   -1.4242 H   0  0  0  0  0  0  0  0  0  0  0  0
   -0.6073    2.2524    0.7189 H   0  0  0  0  0  0  0  0  0  0  0  0
   -2.9186    1.3250    0.6313 H   0  0  0  0  0  0  0  0  0  0  0  0
    5.4781   -0.1878   -1.9580 N   0  0  0  0  0  0  0  0  0  0  0  0
    4.4326   -0.0617   -1.6233 N   0  0  0  0  0  0  0  0  0  0  0  0
   -3.3476   -0.8574   -0.4881 H   0  0  0  0  0  0  0  0  0  0  0  0
    1.4958    1.1606   -0.2608 O   0  0  0  0  0  0  0  0  0  0  0  0
    2.1418    0.5870   -0.6949 H   0  0  0  0  0  0  0  0  0  0  0  0
  1  2  2  0  0  0  0
  1  6  1  0  0  0  0
  2  3  1  0  0  0  0
  3 14  1  0  0  0  0
  3  4  2  0  0  0  0
  4  9  1  0  0  0  0
  5  4  1  0  0  0  0
  5 10  1  0  0  0  0
  6  5  2  0  0  0  0
  7  1  1  0  0  0  0
  8  2  1  0  0  0  0
 11 12  3  0  0  0  0
 13  6  1  0  0  0  0
 15 14  1  0  0  0  0
M  END
