Coordinates from ORCA-job Ph-N2-OH-B3LYPG-6-31G_dp-MTMO-d009-169-n800
 OpenBabel09051908283D

 15 14  0  0  0  0  0  0  0  0999 V2000
   -1.0045   -1.3503   -0.7603 C   0  0  0  0  0  0  0  0  0  0  0  0
    0.2619   -1.0428   -0.2601 C   0  0  0  0  0  0  0  0  0  0  0  0
    0.5666    0.2756    0.0948 C   0  0  0  0  0  0  0  0  0  0  0  0
   -0.3950    1.2817   -0.0531 C   0  0  0  0  0  0  0  0  0  0  0  0
   -1.6550    0.9613   -0.5532 C   0  0  0  0  0  0  0  0  0  0  0  0
   -1.9690   -0.3534   -0.9099 C   0  0  0  0  0  0  0  0  0  0  0  0
   -1.2329   -2.3763   -1.0348 H   0  0  0  0  0  0  0  0  0  0  0  0
    1.0112   -1.8236   -0.1435 H   0  0  0  0  0  0  0  0  0  0  0  0
   -0.1376    2.2972    0.2295 H   0  0  0  0  0  0  0  0  0  0  0  0
   -2.3973    1.7465   -0.6664 H   0  0  0  0  0  0  0  0  0  0  0  0
    2.3926    1.1746   -2.7319 N   0  0  0  0  0  0  0  0  0  0  0  0
    3.1734    0.6941   -2.1146 N   0  0  0  0  0  0  0  0  0  0  0  0
   -2.9521   -0.5964   -1.3002 H   0  0  0  0  0  0  0  0  0  0  0  0
    1.7867    0.6424    0.5921 O   0  0  0  0  0  0  0  0  0  0  0  0
    2.3628   -0.1323    0.6251 H   0  0  0  0  0  0  0  0  0  0  0  0
  1  2  1  0  0  0  0
  2  8  1  0  0  0  0
  2  3  2  0  0  0  0
  3 14  1  0  0  0  0
  4  3  1  0  0  0  0
  4  9  1  0  0  0  0
  5  4  2  0  0  0  0
  6  1  2  0  0  0  0
  6  5  1  0  0  0  0
  7  1  1  0  0  0  0
 10  5  1  0  0  0  0
 11 12  3  0  0  0  0
 13  6  1  0  0  0  0
 14 15  1  0  0  0  0
M  END
