Coordinates from ORCA-job Ph-N2-OH-B3LYPG-6-31G_dp-MTMO-d009-169-n800
 OpenBabel09051908283D

 15 14  0  0  0  0  0  0  0  0999 V2000
   -1.5484   -1.1240   -0.9485 C   0  0  0  0  0  0  0  0  0  0  0  0
   -0.2746   -0.5611   -0.8511 C   0  0  0  0  0  0  0  0  0  0  0  0
   -0.1060    0.6695   -0.2072 C   0  0  0  0  0  0  0  0  0  0  0  0
   -1.2119    1.3328    0.3370 C   0  0  0  0  0  0  0  0  0  0  0  0
   -2.4775    0.7603    0.2327 C   0  0  0  0  0  0  0  0  0  0  0  0
   -2.6556   -0.4691   -0.4088 C   0  0  0  0  0  0  0  0  0  0  0  0
   -1.6700   -2.0804   -1.4485 H   0  0  0  0  0  0  0  0  0  0  0  0
    0.5867   -1.0749   -1.2734 H   0  0  0  0  0  0  0  0  0  0  0  0
   -1.0593    2.2869    0.8302 H   0  0  0  0  0  0  0  0  0  0  0  0
   -3.3322    1.2799    0.6563 H   0  0  0  0  0  0  0  0  0  0  0  0
    7.6754   -0.3956   -2.5957 N   0  0  0  0  0  0  0  0  0  0  0  0
    6.6302   -0.3100   -2.2467 N   0  0  0  0  0  0  0  0  0  0  0  0
   -3.6448   -0.9094   -0.4864 H   0  0  0  0  0  0  0  0  0  0  0  0
    1.1141    1.2734   -0.0788 O   0  0  0  0  0  0  0  0  0  0  0  0
    1.7859    0.7202   -0.4977 H   0  0  0  0  0  0  0  0  0  0  0  0
  1  2  2  0  0  0  0
  1  6  1  0  0  0  0
  2  3  1  0  0  0  0
  3 14  1  0  0  0  0
  3  4  2  0  0  0  0
  4  9  1  0  0  0  0
  5  4  1  0  0  0  0
  5 10  1  0  0  0  0
  6  5  2  0  0  0  0
  7  1  1  0  0  0  0
  8  2  1  0  0  0  0
 11 12  3  0  0  0  0
 13  6  1  0  0  0  0
 15 14  1  0  0  0  0
M  END
