Coordinates from ORCA-job Ph-N2-OH-B3LYPG-6-31G_dp-MTMO-d009-169-n800
 OpenBabel09051908283D

 15 14  0  0  0  0  0  0  0  0999 V2000
   -1.2147   -1.1436   -1.0264 C   0  0  0  0  0  0  0  0  0  0  0  0
    0.0757   -0.6189   -0.9338 C   0  0  0  0  0  0  0  0  0  0  0  0
    0.2825    0.6109   -0.2983 C   0  0  0  0  0  0  0  0  0  0  0  0
   -0.8039    1.3099    0.2419 C   0  0  0  0  0  0  0  0  0  0  0  0
   -2.0862    0.7752    0.1425 C   0  0  0  0  0  0  0  0  0  0  0  0
   -2.3018   -0.4526   -0.4906 C   0  0  0  0  0  0  0  0  0  0  0  0
   -1.3654   -2.0993   -1.5200 H   0  0  0  0  0  0  0  0  0  0  0  0
    0.9203   -1.1613   -1.3529 H   0  0  0  0  0  0  0  0  0  0  0  0
   -0.6222    2.2623    0.7287 H   0  0  0  0  0  0  0  0  0  0  0  0
   -2.9244    1.3232    0.5634 H   0  0  0  0  0  0  0  0  0  0  0  0
    5.2292   -0.2517   -2.0725 N   0  0  0  0  0  0  0  0  0  0  0  0
    4.2258   -0.0777   -1.6442 N   0  0  0  0  0  0  0  0  0  0  0  0
   -3.3037   -0.8639   -0.5646 H   0  0  0  0  0  0  0  0  0  0  0  0
    1.5186    1.1783   -0.1742 O   0  0  0  0  0  0  0  0  0  0  0  0
    2.1818    0.6076   -0.5853 H   0  0  0  0  0  0  0  0  0  0  0  0
  1  2  2  0  0  0  0
  1  6  1  0  0  0  0
  2  3  1  0  0  0  0
  3 14  1  0  0  0  0
  3  4  2  0  0  0  0
  4  9  1  0  0  0  0
  5  4  1  0  0  0  0
  5 10  1  0  0  0  0
  6  5  2  0  0  0  0
  7  1  1  0  0  0  0
  8  2  1  0  0  0  0
 11 12  3  0  0  0  0
 13  6  1  0  0  0  0
 15 14  1  0  0  0  0
M  END
