Coordinates from ORCA-job Ph-N2-OH-B3LYPG-6-31G_dp-MTMO-d009-169-n800
 OpenBabel09051908283D

 15 14  0  0  0  0  0  0  0  0999 V2000
   -2.0291   -1.0803   -0.8059 C   0  0  0  0  0  0  0  0  0  0  0  0
   -0.7755   -0.4900   -0.6361 C   0  0  0  0  0  0  0  0  0  0  0  0
   -0.6707    0.7445    0.0140 C   0  0  0  0  0  0  0  0  0  0  0  0
   -1.8200    1.3843    0.4923 C   0  0  0  0  0  0  0  0  0  0  0  0
   -3.0649    0.7846    0.3162 C   0  0  0  0  0  0  0  0  0  0  0  0
   -3.1794   -0.4487   -0.3323 C   0  0  0  0  0  0  0  0  0  0  0  0
   -2.1013   -2.0394   -1.3102 H   0  0  0  0  0  0  0  0  0  0  0  0
    0.1195   -0.9855   -1.0071 H   0  0  0  0  0  0  0  0  0  0  0  0
   -1.7164    2.3418    0.9916 H   0  0  0  0  0  0  0  0  0  0  0  0
   -3.9535    1.2860    0.6889 H   0  0  0  0  0  0  0  0  0  0  0  0
   11.2192   -0.7391   -3.6663 N   0  0  0  0  0  0  0  0  0  0  0  0
   10.1771   -0.6607   -3.3063 N   0  0  0  0  0  0  0  0  0  0  0  0
   -4.1528   -0.9097   -0.4664 H   0  0  0  0  0  0  0  0  0  0  0  0
    0.5269    1.3743    0.2111 O   0  0  0  0  0  0  0  0  0  0  0  0
    1.2325    0.8363   -0.1701 H   0  0  0  0  0  0  0  0  0  0  0  0
  1  2  2  0  0  0  0
  1  6  1  0  0  0  0
  2  3  1  0  0  0  0
  3 14  1  0  0  0  0
  3  4  2  0  0  0  0
  4  9  1  0  0  0  0
  5  4  1  0  0  0  0
  5 10  1  0  0  0  0
  6  5  2  0  0  0  0
  7  1  1  0  0  0  0
  8  2  1  0  0  0  0
 11 12  3  0  0  0  0
 13  6  1  0  0  0  0
 15 14  1  0  0  0  0
M  END
