Coordinates from ORCA-job Ph-N2-OH-B3LYPG-6-31G_dp-MTMO-d009-169-n800
 OpenBabel09051908283D

 15 14  0  0  0  0  0  0  0  0999 V2000
   -1.8271   -1.0950   -0.8649 C   0  0  0  0  0  0  0  0  0  0  0  0
   -0.5712   -0.5043   -0.7141 C   0  0  0  0  0  0  0  0  0  0  0  0
   -0.4566    0.7282   -0.0619 C   0  0  0  0  0  0  0  0  0  0  0  0
   -1.5984    1.3655    0.4375 C   0  0  0  0  0  0  0  0  0  0  0  0
   -2.8456    0.7654    0.2801 C   0  0  0  0  0  0  0  0  0  0  0  0
   -2.9698   -0.4659   -0.3703 C   0  0  0  0  0  0  0  0  0  0  0  0
   -1.9068   -2.0527   -1.3710 H   0  0  0  0  0  0  0  0  0  0  0  0
    0.3179   -0.9979   -1.1014 H   0  0  0  0  0  0  0  0  0  0  0  0
   -1.4873    2.3215    0.9380 H   0  0  0  0  0  0  0  0  0  0  0  0
   -3.7283    1.2649    0.6689 H   0  0  0  0  0  0  0  0  0  0  0  0
    9.8423   -0.6330   -3.2697 N   0  0  0  0  0  0  0  0  0  0  0  0
    8.8010   -0.5516   -2.9082 N   0  0  0  0  0  0  0  0  0  0  0  0
   -3.9450   -0.9274   -0.4897 H   0  0  0  0  0  0  0  0  0  0  0  0
    0.7435    1.3584    0.1174 O   0  0  0  0  0  0  0  0  0  0  0  0
    1.4432    0.8223   -0.2772 H   0  0  0  0  0  0  0  0  0  0  0  0
  1  2  2  0  0  0  0
  1  6  1  0  0  0  0
  2  3  1  0  0  0  0
  3 14  1  0  0  0  0
  3  4  2  0  0  0  0
  4  9  1  0  0  0  0
  5  4  1  0  0  0  0
  5 10  1  0  0  0  0
  6  5  2  0  0  0  0
  7  1  1  0  0  0  0
  8  2  1  0  0  0  0
 11 12  3  0  0  0  0
 13  6  1  0  0  0  0
 15 14  1  0  0  0  0
M  END
