Coordinates from ORCA-job Ph-N2-OH-B3LYPG-6-31G_dp-MTMO-d009-169-n800
 OpenBabel09051908283D

 15 14  0  0  0  0  0  0  0  0999 V2000
   -2.1282   -1.0739   -0.7768 C   0  0  0  0  0  0  0  0  0  0  0  0
   -0.8741   -0.4869   -0.5995 C   0  0  0  0  0  0  0  0  0  0  0  0
   -0.7703    0.7489    0.0482 C   0  0  0  0  0  0  0  0  0  0  0  0
   -1.9211    1.3933    0.5167 C   0  0  0  0  0  0  0  0  0  0  0  0
   -3.1665    0.7968    0.3332 C   0  0  0  0  0  0  0  0  0  0  0  0
   -3.2799   -0.4378   -0.3129 C   0  0  0  0  0  0  0  0  0  0  0  0
   -2.1996   -2.0341   -1.2793 H   0  0  0  0  0  0  0  0  0  0  0  0
    0.0221   -0.9859   -0.9629 H   0  0  0  0  0  0  0  0  0  0  0  0
   -1.8183    2.3517    1.0143 H   0  0  0  0  0  0  0  0  0  0  0  0
   -4.0562    1.3016    0.6984 H   0  0  0  0  0  0  0  0  0  0  0  0
   11.8690   -0.7828   -3.8511 N   0  0  0  0  0  0  0  0  0  0  0  0
   10.8266   -0.7064   -3.4917 N   0  0  0  0  0  0  0  0  0  0  0  0
   -4.2537   -0.8964   -0.4529 H   0  0  0  0  0  0  0  0  0  0  0  0
    0.4277    1.3758    0.2522 O   0  0  0  0  0  0  0  0  0  0  0  0
    1.1344    0.8346   -0.1224 H   0  0  0  0  0  0  0  0  0  0  0  0
  1  2  2  0  0  0  0
  1  6  1  0  0  0  0
  2  3  1  0  0  0  0
  3 14  1  0  0  0  0
  3  4  2  0  0  0  0
  4  9  1  0  0  0  0
  5  4  1  0  0  0  0
  5 10  1  0  0  0  0
  6  5  2  0  0  0  0
  7  1  1  0  0  0  0
  8  2  1  0  0  0  0
 11 12  3  0  0  0  0
 13  6  1  0  0  0  0
 15 14  1  0  0  0  0
M  END
