Coordinates from ORCA-job Ph-N2-OH-B3LYPG-6-31G_dp-MTMO-d009-169-n800
 OpenBabel09051908283D

 15 14  0  0  0  0  0  0  0  0999 V2000
   -2.4386   -1.0521   -0.6887 C   0  0  0  0  0  0  0  0  0  0  0  0
   -1.1851   -0.4687   -0.4958 C   0  0  0  0  0  0  0  0  0  0  0  0
   -1.0864    0.7693    0.1486 C   0  0  0  0  0  0  0  0  0  0  0  0
   -2.2415    1.4194    0.5982 C   0  0  0  0  0  0  0  0  0  0  0  0
   -3.4862    0.8263    0.3993 C   0  0  0  0  0  0  0  0  0  0  0  0
   -3.5946   -0.4104   -0.2437 C   0  0  0  0  0  0  0  0  0  0  0  0
   -2.5061   -2.0140   -1.1885 H   0  0  0  0  0  0  0  0  0  0  0  0
   -0.2856   -0.9721   -0.8445 H   0  0  0  0  0  0  0  0  0  0  0  0
   -2.1425    2.3793    1.0937 H   0  0  0  0  0  0  0  0  0  0  0  0
   -4.3793    1.3355    0.7500 H   0  0  0  0  0  0  0  0  0  0  0  0
   13.9188   -0.9350   -4.4234 N   0  0  0  0  0  0  0  0  0  0  0  0
   12.8752   -0.8537   -4.0684 N   0  0  0  0  0  0  0  0  0  0  0  0
   -4.5679   -0.8662   -0.3958 H   0  0  0  0  0  0  0  0  0  0  0  0
    0.1107    1.3929    0.3672 O   0  0  0  0  0  0  0  0  0  0  0  0
    0.8209    0.8477    0.0052 H   0  0  0  0  0  0  0  0  0  0  0  0
  1  2  2  0  0  0  0
  1  6  1  0  0  0  0
  2  3  1  0  0  0  0
  3 14  1  0  0  0  0
  3  4  2  0  0  0  0
  4  9  1  0  0  0  0
  5  4  1  0  0  0  0
  5 10  1  0  0  0  0
  6  5  2  0  0  0  0
  7  1  1  0  0  0  0
  8  2  1  0  0  0  0
 11 12  3  0  0  0  0
 13  6  1  0  0  0  0
 15 14  1  0  0  0  0
M  END
