Coordinates from ORCA-job Ph-N2-OH-B3LYPG-6-31G_dp-MTMO-d009-169-n800
 OpenBabel09051908283D

 15 14  0  0  0  0  0  0  0  0999 V2000
   -2.4892   -1.0485   -0.6745 C   0  0  0  0  0  0  0  0  0  0  0  0
   -1.2359   -0.4653   -0.4799 C   0  0  0  0  0  0  0  0  0  0  0  0
   -1.1378    0.7729    0.1642 C   0  0  0  0  0  0  0  0  0  0  0  0
   -2.2935    1.4234    0.6118 C   0  0  0  0  0  0  0  0  0  0  0  0
   -3.5380    0.8306    0.4112 C   0  0  0  0  0  0  0  0  0  0  0  0
   -3.6458   -0.4062   -0.2316 C   0  0  0  0  0  0  0  0  0  0  0  0
   -2.5562   -2.0105   -1.1741 H   0  0  0  0  0  0  0  0  0  0  0  0
   -0.3360   -0.9691   -0.8270 H   0  0  0  0  0  0  0  0  0  0  0  0
   -2.1950    2.3836    1.1071 H   0  0  0  0  0  0  0  0  0  0  0  0
   -4.4315    1.3402    0.7603 H   0  0  0  0  0  0  0  0  0  0  0  0
   14.2524   -0.9600   -4.5156 N   0  0  0  0  0  0  0  0  0  0  0  0
   13.2086   -0.8780   -4.1613 N   0  0  0  0  0  0  0  0  0  0  0  0
   -4.6189   -0.8618   -0.3851 H   0  0  0  0  0  0  0  0  0  0  0  0
    0.0591    1.3963    0.3845 O   0  0  0  0  0  0  0  0  0  0  0  0
    0.7697    0.8508    0.0237 H   0  0  0  0  0  0  0  0  0  0  0  0
  1  2  2  0  0  0  0
  1  6  1  0  0  0  0
  2  3  1  0  0  0  0
  3 14  1  0  0  0  0
  3  4  2  0  0  0  0
  4  9  1  0  0  0  0
  5  4  1  0  0  0  0
  5 10  1  0  0  0  0
  6  5  2  0  0  0  0
  7  1  1  0  0  0  0
  8  2  1  0  0  0  0
 11 12  3  0  0  0  0
 13  6  1  0  0  0  0
 15 14  1  0  0  0  0
M  END
