Coordinates from ORCA-job Ph-N2-OH-B3LYPG-6-31G_dp-MTMO-d009-169-n800
 OpenBabel09051908283D

 15 14  0  0  0  0  0  0  0  0999 V2000
   -1.2810   -1.4254   -0.9861 C   0  0  0  0  0  0  0  0  0  0  0  0
    0.0708   -1.1346   -1.2198 C   0  0  0  0  0  0  0  0  0  0  0  0
    0.4648    0.1716   -1.0305 C   0  0  0  0  0  0  0  0  0  0  0  0
   -0.3588    1.2139   -0.6618 C   0  0  0  0  0  0  0  0  0  0  0  0
   -1.7061    0.8997   -0.4378 C   0  0  0  0  0  0  0  0  0  0  0  0
   -2.1612   -0.4125   -0.5976 C   0  0  0  0  0  0  0  0  0  0  0  0
   -1.6411   -2.4422   -1.1161 H   0  0  0  0  0  0  0  0  0  0  0  0
    0.7711   -1.9004   -1.5346 H   0  0  0  0  0  0  0  0  0  0  0  0
    0.0162    2.2233   -0.5384 H   0  0  0  0  0  0  0  0  0  0  0  0
   -2.3956    1.6840   -0.1377 H   0  0  0  0  0  0  0  0  0  0  0  0
    2.3717    0.5746   -1.5665 N   0  0  0  0  0  0  0  0  0  0  0  0
    3.0965    0.8144   -0.6377 N   0  0  0  0  0  0  0  0  0  0  0  0
   -3.2069   -0.6455   -0.4206 H   0  0  0  0  0  0  0  0  0  0  0  0
    2.5086    0.7803    0.6632 O   0  0  0  0  0  0  0  0  0  0  0  0
    3.2628    0.9972    1.2356 H   0  0  0  0  0  0  0  0  0  0  0  0
  1  6  2  0  0  0  0
  2  3  2  0  0  0  0
  2  1  1  0  0  0  0
  3  4  1  0  0  0  0
  4  9  1  0  0  0  0
  4  5  2  0  0  0  0
  5 10  1  0  0  0  0
  6  5  1  0  0  0  0
  6 13  1  0  0  0  0
  7  1  1  0  0  0  0
  8  2  1  0  0  0  0
 11 12  2  0  0  0  0
 12 14  1  0  0  0  0
 14 15  1  0  0  0  0
M  RAD  2   3   2  11   2
M  END
