Coordinates from ORCA-job Ph-N2-OH-B3LYPG-6-31G_dp-MTMO-d009-169-n800
 OpenBabel09051908283D

 15 14  0  0  0  0  0  0  0  0999 V2000
   -1.3055   -1.4281   -0.9101 C   0  0  0  0  0  0  0  0  0  0  0  0
    0.0494   -1.0967   -1.0922 C   0  0  0  0  0  0  0  0  0  0  0  0
    0.3489    0.2336   -0.9592 C   0  0  0  0  0  0  0  0  0  0  0  0
   -0.5046    1.2670   -0.6755 C   0  0  0  0  0  0  0  0  0  0  0  0
   -1.8518    0.9023   -0.4998 C   0  0  0  0  0  0  0  0  0  0  0  0
   -2.2425   -0.4343   -0.6169 C   0  0  0  0  0  0  0  0  0  0  0  0
   -1.6156   -2.4659   -1.0022 H   0  0  0  0  0  0  0  0  0  0  0  0
    0.7947   -1.8498   -1.3217 H   0  0  0  0  0  0  0  0  0  0  0  0
   -0.1766    2.2967   -0.5885 H   0  0  0  0  0  0  0  0  0  0  0  0
   -2.5851    1.6717   -0.2717 H   0  0  0  0  0  0  0  0  0  0  0  0
    2.7731    0.9272   -1.6789 N   0  0  0  0  0  0  0  0  0  0  0  0
    3.3981    0.9215   -0.6861 N   0  0  0  0  0  0  0  0  0  0  0  0
   -3.2851   -0.7035   -0.4777 H   0  0  0  0  0  0  0  0  0  0  0  0
    2.6642    0.5489    0.5517 O   0  0  0  0  0  0  0  0  0  0  0  0
    3.3501    0.6079    1.2422 H   0  0  0  0  0  0  0  0  0  0  0  0
  1  6  2  0  0  0  0
  2  3  2  0  0  0  0
  2  1  1  0  0  0  0
  3  4  1  0  0  0  0
  4  9  1  0  0  0  0
  4  5  2  0  0  0  0
  5 10  1  0  0  0  0
  6  5  1  0  0  0  0
  6 13  1  0  0  0  0
  7  1  1  0  0  0  0
  8  2  1  0  0  0  0
 11 12  2  0  0  0  0
 12 14  1  0  0  0  0
 14 15  1  0  0  0  0
M  RAD  2   3   2  11   2
M  END
