Coordinates from ORCA-job Ph-N2-OH-B3LYPG-6-31G_dp-MTMO-d009-169-n800
 OpenBabel09051908283D

 15 14  0  0  0  0  0  0  0  0999 V2000
   -2.0596   -1.0783   -0.7969 C   0  0  0  0  0  0  0  0  0  0  0  0
   -0.8057   -0.4891   -0.6246 C   0  0  0  0  0  0  0  0  0  0  0  0
   -0.7013    0.7458    0.0247 C   0  0  0  0  0  0  0  0  0  0  0  0
   -1.8511    1.3871    0.4998 C   0  0  0  0  0  0  0  0  0  0  0  0
   -3.0962    0.7884    0.3212 C   0  0  0  0  0  0  0  0  0  0  0  0
   -3.2103   -0.4453   -0.3265 C   0  0  0  0  0  0  0  0  0  0  0  0
   -2.1314   -2.0378   -1.3007 H   0  0  0  0  0  0  0  0  0  0  0  0
    0.0897   -0.9857   -0.9931 H   0  0  0  0  0  0  0  0  0  0  0  0
   -1.7479    2.3449    0.9985 H   0  0  0  0  0  0  0  0  0  0  0  0
   -3.9852    1.2909    0.6914 H   0  0  0  0  0  0  0  0  0  0  0  0
   11.4191   -0.7524   -3.7234 N   0  0  0  0  0  0  0  0  0  0  0  0
   10.3769   -0.6750   -3.3635 N   0  0  0  0  0  0  0  0  0  0  0  0
   -4.1838   -0.9055   -0.4626 H   0  0  0  0  0  0  0  0  0  0  0  0
    0.4964    1.3747    0.2241 O   0  0  0  0  0  0  0  0  0  0  0  0
    1.2024    0.8357   -0.1550 H   0  0  0  0  0  0  0  0  0  0  0  0
  1  2  2  0  0  0  0
  1  6  1  0  0  0  0
  2  3  1  0  0  0  0
  3 14  1  0  0  0  0
  3  4  2  0  0  0  0
  4  9  1  0  0  0  0
  5  4  1  0  0  0  0
  5 10  1  0  0  0  0
  6  5  2  0  0  0  0
  7  1  1  0  0  0  0
  8  2  1  0  0  0  0
 11 12  3  0  0  0  0
 13  6  1  0  0  0  0
 15 14  1  0  0  0  0
M  END
