Coordinates from ORCA-job Ph-N2-OH-B3LYPG-6-31G_dp-MTMO-d009-169-n800
 OpenBabel09051908283D

 15 14  0  0  0  0  0  0  0  0999 V2000
   -2.3070   -1.0615   -0.7258 C   0  0  0  0  0  0  0  0  0  0  0  0
   -1.0533   -0.4768   -0.5384 C   0  0  0  0  0  0  0  0  0  0  0  0
   -0.9527    0.7604    0.1071 C   0  0  0  0  0  0  0  0  0  0  0  0
   -2.1064    1.4085    0.5634 C   0  0  0  0  0  0  0  0  0  0  0  0
   -3.3514    0.8143    0.3700 C   0  0  0  0  0  0  0  0  0  0  0  0
   -3.4616   -0.4217   -0.2742 C   0  0  0  0  0  0  0  0  0  0  0  0
   -2.3758   -2.0227   -1.2265 H   0  0  0  0  0  0  0  0  0  0  0  0
   -0.1550   -0.9789   -0.8923 H   0  0  0  0  0  0  0  0  0  0  0  0
   -2.0060    2.3679    1.0596 H   0  0  0  0  0  0  0  0  0  0  0  0
   -4.2432    1.3220    0.7258 H   0  0  0  0  0  0  0  0  0  0  0  0
   13.0518   -0.8705   -4.1826 N   0  0  0  0  0  0  0  0  0  0  0  0
   12.0088   -0.7911   -3.8258 N   0  0  0  0  0  0  0  0  0  0  0  0
   -4.4350   -0.8785   -0.4220 H   0  0  0  0  0  0  0  0  0  0  0  0
    0.2447    1.3853    0.3208 O   0  0  0  0  0  0  0  0  0  0  0  0
    0.9539    0.8417   -0.0456 H   0  0  0  0  0  0  0  0  0  0  0  0
  1  2  2  0  0  0  0
  1  6  1  0  0  0  0
  2  3  1  0  0  0  0
  3 14  1  0  0  0  0
  3  4  2  0  0  0  0
  4  9  1  0  0  0  0
  5  4  1  0  0  0  0
  5 10  1  0  0  0  0
  6  5  2  0  0  0  0
  7  1  1  0  0  0  0
  8  2  1  0  0  0  0
 11 12  3  0  0  0  0
 13  6  1  0  0  0  0
 15 14  1  0  0  0  0
M  END
