Coordinates from ORCA-job Ph-N2-OH-B3LYPG-6-31G_dp-MTMO-d009-169-n800
 OpenBabel09051908283D

 15 14  0  0  0  0  0  0  0  0999 V2000
   -1.3296   -1.1487   -1.0137 C   0  0  0  0  0  0  0  0  0  0  0  0
   -0.0289   -0.6431   -0.9757 C   0  0  0  0  0  0  0  0  0  0  0  0
    0.2223    0.5826   -0.3491 C   0  0  0  0  0  0  0  0  0  0  0  0
   -0.8292    1.2978    0.2364 C   0  0  0  0  0  0  0  0  0  0  0  0
   -2.1223    0.7822    0.1912 C   0  0  0  0  0  0  0  0  0  0  0  0
   -2.3825   -0.4419   -0.4322 C   0  0  0  0  0  0  0  0  0  0  0  0
   -1.5153   -2.1016   -1.5006 H   0  0  0  0  0  0  0  0  0  0  0  0
    0.7894   -1.1977   -1.4302 H   0  0  0  0  0  0  0  0  0  0  0  0
   -0.6127    2.2469    0.7151 H   0  0  0  0  0  0  0  0  0  0  0  0
   -2.9338    1.3423    0.6471 H   0  0  0  0  0  0  0  0  0  0  0  0
    5.7113   -0.1264   -1.9665 N   0  0  0  0  0  0  0  0  0  0  0  0
    4.6546   -0.0363   -1.6556 N   0  0  0  0  0  0  0  0  0  0  0  0
   -3.3926   -0.8385   -0.4634 H   0  0  0  0  0  0  0  0  0  0  0  0
    1.4721    1.1319   -0.2770 O   0  0  0  0  0  0  0  0  0  0  0  0
    2.1087    0.5490   -0.7123 H   0  0  0  0  0  0  0  0  0  0  0  0
  1  2  2  0  0  0  0
  1  6  1  0  0  0  0
  2  3  1  0  0  0  0
  3 14  1  0  0  0  0
  3  4  2  0  0  0  0
  4  9  1  0  0  0  0
  5  4  1  0  0  0  0
  5 10  1  0  0  0  0
  6  5  2  0  0  0  0
  7  1  1  0  0  0  0
  8  2  1  0  0  0  0
 11 12  3  0  0  0  0
 13  6  1  0  0  0  0
 15 14  1  0  0  0  0
M  END
