Coordinates from ORCA-job Ph-N2-OH-B3LYPG-6-31G_dp-MTMO-d009-169-n800
 OpenBabel09051908283D

 15 14  0  0  0  0  0  0  0  0999 V2000
   -1.6594   -1.1106   -0.9148 C   0  0  0  0  0  0  0  0  0  0  0  0
   -0.3958   -0.5301   -0.7904 C   0  0  0  0  0  0  0  0  0  0  0  0
   -0.2576    0.7013   -0.1407 C   0  0  0  0  0  0  0  0  0  0  0  0
   -1.3834    1.3476    0.3827 C   0  0  0  0  0  0  0  0  0  0  0  0
   -2.6385    0.7576    0.2516 C   0  0  0  0  0  0  0  0  0  0  0  0
   -2.7863   -0.4725   -0.3961 C   0  0  0  0  0  0  0  0  0  0  0  0
   -1.7574   -2.0674   -1.4192 H   0  0  0  0  0  0  0  0  0  0  0  0
    0.4809   -1.0307   -1.1964 H   0  0  0  0  0  0  0  0  0  0  0  0
   -1.2542    2.3026    0.8808 H   0  0  0  0  0  0  0  0  0  0  0  0
   -3.5087    1.2642    0.6589 H   0  0  0  0  0  0  0  0  0  0  0  0
    8.5962   -0.5119   -2.8924 N   0  0  0  0  0  0  0  0  0  0  0  0
    7.5540   -0.4272   -2.5341 N   0  0  0  0  0  0  0  0  0  0  0  0
   -3.7674   -0.9263   -0.4948 H   0  0  0  0  0  0  0  0  0  0  0  0
    0.9511    1.3219    0.0135 O   0  0  0  0  0  0  0  0  0  0  0  0
    1.6382    0.7800   -0.3952 H   0  0  0  0  0  0  0  0  0  0  0  0
  1  2  2  0  0  0  0
  1  6  1  0  0  0  0
  2  3  1  0  0  0  0
  3 14  1  0  0  0  0
  3  4  2  0  0  0  0
  4  9  1  0  0  0  0
  5  4  1  0  0  0  0
  5 10  1  0  0  0  0
  6  5  2  0  0  0  0
  7  1  1  0  0  0  0
  8  2  1  0  0  0  0
 11 12  3  0  0  0  0
 13  6  1  0  0  0  0
 15 14  1  0  0  0  0
M  END
