Coordinates from ORCA-job Ph-N2-OH-B3LYPG-6-31G_dp-MTMO-d009-169-n800
 OpenBabel09051908283D

 15 14  0  0  0  0  0  0  0  0999 V2000
   -2.4616   -1.0505   -0.6822 C   0  0  0  0  0  0  0  0  0  0  0  0
   -1.2081   -0.4673   -0.4886 C   0  0  0  0  0  0  0  0  0  0  0  0
   -1.1094    0.7707    0.1556 C   0  0  0  0  0  0  0  0  0  0  0  0
   -2.2648    1.4211    0.6042 C   0  0  0  0  0  0  0  0  0  0  0  0
   -3.5095    0.8284    0.4046 C   0  0  0  0  0  0  0  0  0  0  0  0
   -3.6178   -0.4084   -0.2382 C   0  0  0  0  0  0  0  0  0  0  0  0
   -2.5289   -2.0125   -1.1819 H   0  0  0  0  0  0  0  0  0  0  0  0
   -0.3086   -0.9712   -0.8365 H   0  0  0  0  0  0  0  0  0  0  0  0
   -2.1659    2.3812    1.0995 H   0  0  0  0  0  0  0  0  0  0  0  0
   -4.4027    1.3380    0.7545 H   0  0  0  0  0  0  0  0  0  0  0  0
   14.0691   -0.9460   -4.4649 N   0  0  0  0  0  0  0  0  0  0  0  0
   13.0255   -0.8645   -4.1103 N   0  0  0  0  0  0  0  0  0  0  0  0
   -4.5910   -0.8640   -0.3910 H   0  0  0  0  0  0  0  0  0  0  0  0
    0.0876    1.3942    0.3751 O   0  0  0  0  0  0  0  0  0  0  0  0
    0.7981    0.8490    0.0137 H   0  0  0  0  0  0  0  0  0  0  0  0
  1  2  2  0  0  0  0
  1  6  1  0  0  0  0
  2  3  1  0  0  0  0
  3 14  1  0  0  0  0
  3  4  2  0  0  0  0
  4  9  1  0  0  0  0
  5  4  1  0  0  0  0
  5 10  1  0  0  0  0
  6  5  2  0  0  0  0
  7  1  1  0  0  0  0
  8  2  1  0  0  0  0
 11 12  3  0  0  0  0
 13  6  1  0  0  0  0
 15 14  1  0  0  0  0
M  END
