Coordinates from ORCA-job Ph-N2-OH-B3LYPG-6-31G_dp-MTMO-d009-169-n800
 OpenBabel09051908283D

 15 14  0  0  0  0  0  0  0  0999 V2000
   -1.3522   -1.1488   -1.0091 C   0  0  0  0  0  0  0  0  0  0  0  0
   -0.0506   -0.6454   -0.9745 C   0  0  0  0  0  0  0  0  0  0  0  0
    0.2041    0.5800   -0.3489 C   0  0  0  0  0  0  0  0  0  0  0  0
   -0.8447    1.2972    0.2390 C   0  0  0  0  0  0  0  0  0  0  0  0
   -2.1388    0.7837    0.1973 C   0  0  0  0  0  0  0  0  0  0  0  0
   -2.4025   -0.4401   -0.4251 C   0  0  0  0  0  0  0  0  0  0  0  0
   -1.5408   -2.1016   -1.4953 H   0  0  0  0  0  0  0  0  0  0  0  0
    0.7656   -1.2014   -1.4310 H   0  0  0  0  0  0  0  0  0  0  0  0
   -0.6253    2.2461    0.7170 H   0  0  0  0  0  0  0  0  0  0  0  0
   -2.9481    1.3453    0.6551 H   0  0  0  0  0  0  0  0  0  0  0  0
    5.8372   -0.1169   -1.9817 N   0  0  0  0  0  0  0  0  0  0  0  0
    4.7774   -0.0345   -1.6789 N   0  0  0  0  0  0  0  0  0  0  0  0
   -3.4133   -0.8351   -0.4536 H   0  0  0  0  0  0  0  0  0  0  0  0
    1.4551    1.1274   -0.2801 O   0  0  0  0  0  0  0  0  0  0  0  0
    2.0887    0.5425   -0.7167 H   0  0  0  0  0  0  0  0  0  0  0  0
  1  2  2  0  0  0  0
  1  6  1  0  0  0  0
  2  3  1  0  0  0  0
  3 14  1  0  0  0  0
  3  4  2  0  0  0  0
  4  9  1  0  0  0  0
  5  4  1  0  0  0  0
  5 10  1  0  0  0  0
  6  5  2  0  0  0  0
  7  1  1  0  0  0  0
  8  2  1  0  0  0  0
 11 12  3  0  0  0  0
 13  6  1  0  0  0  0
 15 14  1  0  0  0  0
M  END
