Coordinates from ORCA-job Ph-N2-OH-B3LYPG-6-31G_dp-MTMO-d009-169-n800
 OpenBabel09051908283D

 15 14  0  0  0  0  0  0  0  0999 V2000
   -1.2695   -1.4219   -0.9535 C   0  0  0  0  0  0  0  0  0  0  0  0
    0.0782   -1.1093   -1.1879 C   0  0  0  0  0  0  0  0  0  0  0  0
    0.4359    0.2101   -1.0309 C   0  0  0  0  0  0  0  0  0  0  0  0
   -0.4056    1.2451   -0.6913 C   0  0  0  0  0  0  0  0  0  0  0  0
   -1.7479    0.9066   -0.4645 C   0  0  0  0  0  0  0  0  0  0  0  0
   -2.1731   -0.4188   -0.5942 C   0  0  0  0  0  0  0  0  0  0  0  0
   -1.6068   -2.4495   -1.0588 H   0  0  0  0  0  0  0  0  0  0  0  0
    0.7960   -1.8690   -1.4766 H   0  0  0  0  0  0  0  0  0  0  0  0
   -0.0536    2.2658   -0.5946 H   0  0  0  0  0  0  0  0  0  0  0  0
   -2.4555    1.6831   -0.1869 H   0  0  0  0  0  0  0  0  0  0  0  0
    2.4258    0.6896   -1.5886 N   0  0  0  0  0  0  0  0  0  0  0  0
    3.1438    0.8354   -0.6418 N   0  0  0  0  0  0  0  0  0  0  0  0
   -3.2143   -0.6702   -0.4160 H   0  0  0  0  0  0  0  0  0  0  0  0
    2.5531    0.6704    0.6525 O   0  0  0  0  0  0  0  0  0  0  0  0
    3.3053    0.8312    1.2466 H   0  0  0  0  0  0  0  0  0  0  0  0
  1  6  2  0  0  0  0
  2  3  2  0  0  0  0
  2  1  1  0  0  0  0
  3  4  1  0  0  0  0
  4  9  1  0  0  0  0
  4  5  2  0  0  0  0
  5 10  1  0  0  0  0
  6  5  1  0  0  0  0
  6 13  1  0  0  0  0
  7  1  1  0  0  0  0
  8  2  1  0  0  0  0
 11 12  2  0  0  0  0
 12 14  1  0  0  0  0
 14 15  1  0  0  0  0
M  RAD  2   3   2  11   2
M  END
