Coordinates from ORCA-job Ph-N2-OH-B3LYPG-6-31G_dp-MTMO-d009-169-n800
 OpenBabel09051908283D

 15 14  0  0  0  0  0  0  0  0999 V2000
   -2.0095   -1.0816   -0.8117 C   0  0  0  0  0  0  0  0  0  0  0  0
   -0.7556   -0.4911   -0.6436 C   0  0  0  0  0  0  0  0  0  0  0  0
   -0.6500    0.7431    0.0067 C   0  0  0  0  0  0  0  0  0  0  0  0
   -1.7989    1.3823    0.4871 C   0  0  0  0  0  0  0  0  0  0  0  0
   -3.0439    0.7825    0.3128 C   0  0  0  0  0  0  0  0  0  0  0  0
   -3.1591   -0.4506   -0.3360 C   0  0  0  0  0  0  0  0  0  0  0  0
   -2.0820   -2.0406   -1.3163 H   0  0  0  0  0  0  0  0  0  0  0  0
    0.1387   -0.9865   -1.0164 H   0  0  0  0  0  0  0  0  0  0  0  0
   -1.6947    2.3397    0.9866 H   0  0  0  0  0  0  0  0  0  0  0  0
   -3.9320    1.2836    0.6871 H   0  0  0  0  0  0  0  0  0  0  0  0
   11.0864   -0.7296   -3.6281 N   0  0  0  0  0  0  0  0  0  0  0  0
   10.0444   -0.6506   -3.2681 N   0  0  0  0  0  0  0  0  0  0  0  0
   -4.1326   -0.9119   -0.4688 H   0  0  0  0  0  0  0  0  0  0  0  0
    0.5475    1.3734    0.2024 O   0  0  0  0  0  0  0  0  0  0  0  0
    1.2531    0.8363   -0.1802 H   0  0  0  0  0  0  0  0  0  0  0  0
  1  2  2  0  0  0  0
  1  6  1  0  0  0  0
  2  3  1  0  0  0  0
  3 14  1  0  0  0  0
  3  4  2  0  0  0  0
  4  9  1  0  0  0  0
  5  4  1  0  0  0  0
  5 10  1  0  0  0  0
  6  5  2  0  0  0  0
  7  1  1  0  0  0  0
  8  2  1  0  0  0  0
 11 12  3  0  0  0  0
 13  6  1  0  0  0  0
 15 14  1  0  0  0  0
M  END
