Coordinates from ORCA-job Ph-N2-OH-B3LYPG-6-31G_dp-MTMO-d009-169-n800
 OpenBabel09051908283D

 15 14  0  0  0  0  0  0  0  0999 V2000
   -1.9470   -1.0859   -0.8300 C   0  0  0  0  0  0  0  0  0  0  0  0
   -0.6931   -0.4941   -0.6671 C   0  0  0  0  0  0  0  0  0  0  0  0
   -0.5860    0.7394   -0.0156 C   0  0  0  0  0  0  0  0  0  0  0  0
   -1.7331    1.3768    0.4712 C   0  0  0  0  0  0  0  0  0  0  0  0
   -2.9783    0.7756    0.3018 C   0  0  0  0  0  0  0  0  0  0  0  0
   -3.0951   -0.4567   -0.3480 C   0  0  0  0  0  0  0  0  0  0  0  0
   -2.0210   -2.0443   -1.3355 H   0  0  0  0  0  0  0  0  0  0  0  0
    0.2002   -0.9877   -1.0446 H   0  0  0  0  0  0  0  0  0  0  0  0
   -1.6278    2.3336    0.9714 H   0  0  0  0  0  0  0  0  0  0  0  0
   -3.8652    1.2751    0.6810 H   0  0  0  0  0  0  0  0  0  0  0  0
   10.6705   -0.6998   -3.5092 N   0  0  0  0  0  0  0  0  0  0  0  0
    9.6287   -0.6196   -3.1487 N   0  0  0  0  0  0  0  0  0  0  0  0
   -4.0687   -0.9190   -0.4767 H   0  0  0  0  0  0  0  0  0  0  0  0
    0.6119    1.3707    0.1751 O   0  0  0  0  0  0  0  0  0  0  0  0
    1.3159    0.8343   -0.2116 H   0  0  0  0  0  0  0  0  0  0  0  0
  1  2  2  0  0  0  0
  1  6  1  0  0  0  0
  2  3  1  0  0  0  0
  3 14  1  0  0  0  0
  3  4  2  0  0  0  0
  4  9  1  0  0  0  0
  5  4  1  0  0  0  0
  5 10  1  0  0  0  0
  6  5  2  0  0  0  0
  7  1  1  0  0  0  0
  8  2  1  0  0  0  0
 11 12  3  0  0  0  0
 13  6  1  0  0  0  0
 15 14  1  0  0  0  0
M  END
