Coordinates from ORCA-job Ph-N2-OH-B3LYPG-6-31G_dp-MTMO-d009-169-n800
 OpenBabel09051908283D

 15 14  0  0  0  0  0  0  0  0999 V2000
   -0.9768   -1.3164   -0.8131 C   0  0  0  0  0  0  0  0  0  0  0  0
    0.2861   -0.9822   -0.3209 C   0  0  0  0  0  0  0  0  0  0  0  0
    0.5459    0.3295    0.0905 C   0  0  0  0  0  0  0  0  0  0  0  0
   -0.4573    1.3019    0.0076 C   0  0  0  0  0  0  0  0  0  0  0  0
   -1.7133    0.9550   -0.4849 C   0  0  0  0  0  0  0  0  0  0  0  0
   -1.9823   -0.3531   -0.8984 C   0  0  0  0  0  0  0  0  0  0  0  0
   -1.1698   -2.3368   -1.1320 H   0  0  0  0  0  0  0  0  0  0  0  0
    1.0671   -1.7372   -0.2543 H   0  0  0  0  0  0  0  0  0  0  0  0
   -0.2346    2.3126    0.3333 H   0  0  0  0  0  0  0  0  0  0  0  0
   -2.4881    1.7141   -0.5472 H   0  0  0  0  0  0  0  0  0  0  0  0
    2.5513    0.9502   -2.7887 N   0  0  0  0  0  0  0  0  0  0  0  0
    3.2168    0.4824   -2.0406 N   0  0  0  0  0  0  0  0  0  0  0  0
   -2.9625   -0.6167   -1.2828 H   0  0  0  0  0  0  0  0  0  0  0  0
    1.7595    0.7217    0.5841 O   0  0  0  0  0  0  0  0  0  0  0  0
    2.3699   -0.0266    0.5610 H   0  0  0  0  0  0  0  0  0  0  0  0
  1  2  1  0  0  0  0
  2  8  1  0  0  0  0
  2  3  2  0  0  0  0
  3 14  1  0  0  0  0
  4  3  1  0  0  0  0
  4  9  1  0  0  0  0
  5  4  2  0  0  0  0
  6  1  2  0  0  0  0
  6  5  1  0  0  0  0
  7  1  1  0  0  0  0
 10  5  1  0  0  0  0
 11 12  3  0  0  0  0
 13  6  1  0  0  0  0
 15 14  1  0  0  0  0
M  END
