Coordinates from ORCA-job Ph-N2-OH-B3LYPG-6-31G_dp-MTMO-d009-169-n800
 OpenBabel09051908283D

 15 15  0  0  0  0  0  0  0  0999 V2000
   -1.3073   -1.4253   -1.0820 C   0  0  0  0  0  0  0  0  0  0  0  0
    0.0551   -1.1966   -1.2901 C   0  0  0  0  0  0  0  0  0  0  0  0
    0.5698    0.0592   -0.9987 C   0  0  0  0  0  0  0  0  0  0  0  0
   -0.2240    1.1112   -0.5551 C   0  0  0  0  0  0  0  0  0  0  0  0
   -1.5878    0.8726   -0.3706 C   0  0  0  0  0  0  0  0  0  0  0  0
   -2.1276   -0.3914   -0.6251 C   0  0  0  0  0  0  0  0  0  0  0  0
   -1.7275   -2.4048   -1.2902 H   0  0  0  0  0  0  0  0  0  0  0  0
    0.7093   -1.9738   -1.6705 H   0  0  0  0  0  0  0  0  0  0  0  0
    0.2080    2.0816   -0.3464 H   0  0  0  0  0  0  0  0  0  0  0  0
   -2.2286    1.6774   -0.0219 H   0  0  0  0  0  0  0  0  0  0  0  0
    2.1477    0.2506   -1.4064 N   0  0  0  0  0  0  0  0  0  0  0  0
    2.9358    0.7423   -0.6157 N   0  0  0  0  0  0  0  0  0  0  0  0
   -3.1881   -0.5682   -0.4713 H   0  0  0  0  0  0  0  0  0  0  0  0
    2.3946    1.1136    0.6517 O   0  0  0  0  0  0  0  0  0  0  0  0
    3.1822    1.4501    1.1058 H   0  0  0  0  0  0  0  0  0  0  0  0
  1  6  1  0  0  0  0
  2  1  2  0  0  0  0
  2  3  1  0  0  0  0
  3  4  2  0  0  0  0
  4  5  1  0  0  0  0
  4  9  1  0  0  0  0
  5 10  1  0  0  0  0
  6 13  1  0  0  0  0
  6  5  2  0  0  0  0
  7  1  1  0  0  0  0
  8  2  1  0  0  0  0
 11  3  1  0  0  0  0
 11 12  2  0  0  0  0
 12 14  1  0  0  0  0
 14 15  1  0  0  0  0
M  END
