Coordinates from ORCA-job Ph-N2-OH-B3LYPG-6-31G_dp-MTMO-d009-169-n800
 OpenBabel09051908283D

 15 14  0  0  0  0  0  0  0  0999 V2000
   -2.4920   -1.0483   -0.6737 C   0  0  0  0  0  0  0  0  0  0  0  0
   -1.2386   -0.4653   -0.4791 C   0  0  0  0  0  0  0  0  0  0  0  0
   -1.1403    0.7729    0.1649 C   0  0  0  0  0  0  0  0  0  0  0  0
   -2.2960    1.4236    0.6124 C   0  0  0  0  0  0  0  0  0  0  0  0
   -3.5406    0.8310    0.4117 C   0  0  0  0  0  0  0  0  0  0  0  0
   -3.6485   -0.4059   -0.2309 C   0  0  0  0  0  0  0  0  0  0  0  0
   -2.5590   -2.0104   -1.1732 H   0  0  0  0  0  0  0  0  0  0  0  0
   -0.3389   -0.9694   -0.8261 H   0  0  0  0  0  0  0  0  0  0  0  0
   -2.1974    2.3837    1.1075 H   0  0  0  0  0  0  0  0  0  0  0  0
   -4.4340    1.3408    0.7607 H   0  0  0  0  0  0  0  0  0  0  0  0
   14.2693   -0.9610   -4.5203 N   0  0  0  0  0  0  0  0  0  0  0  0
   13.2255   -0.8791   -4.1660 N   0  0  0  0  0  0  0  0  0  0  0  0
   -4.6217   -0.8614   -0.3845 H   0  0  0  0  0  0  0  0  0  0  0  0
    0.0566    1.3963    0.3853 O   0  0  0  0  0  0  0  0  0  0  0  0
    0.7674    0.8508    0.0247 H   0  0  0  0  0  0  0  0  0  0  0  0
  1  2  2  0  0  0  0
  1  6  1  0  0  0  0
  2  3  1  0  0  0  0
  3 14  1  0  0  0  0
  3  4  2  0  0  0  0
  4  9  1  0  0  0  0
  5  4  1  0  0  0  0
  5 10  1  0  0  0  0
  6  5  2  0  0  0  0
  7  1  1  0  0  0  0
  8  2  1  0  0  0  0
 11 12  3  0  0  0  0
 13  6  1  0  0  0  0
 15 14  1  0  0  0  0
M  END
