Coordinates from ORCA-job Ph-N2-OH-B3LYPG-6-31G_dp-MTMO-d009-169-n800
 OpenBabel09051908283D

 15 14  0  0  0  0  0  0  0  0999 V2000
   -2.4032   -1.0547   -0.6986 C   0  0  0  0  0  0  0  0  0  0  0  0
   -1.1496   -0.4709   -0.5071 C   0  0  0  0  0  0  0  0  0  0  0  0
   -1.0503    0.7668    0.1376 C   0  0  0  0  0  0  0  0  0  0  0  0
   -2.2052    1.4164    0.5888 C   0  0  0  0  0  0  0  0  0  0  0  0
   -3.4500    0.8232    0.3912 C   0  0  0  0  0  0  0  0  0  0  0  0
   -3.5589   -0.4134   -0.2521 C   0  0  0  0  0  0  0  0  0  0  0  0
   -2.4709   -2.0164   -1.1987 H   0  0  0  0  0  0  0  0  0  0  0  0
   -0.2505   -0.9742   -0.8570 H   0  0  0  0  0  0  0  0  0  0  0  0
   -2.1058    2.3762    1.0844 H   0  0  0  0  0  0  0  0  0  0  0  0
   -4.3427    1.3321    0.7431 H   0  0  0  0  0  0  0  0  0  0  0  0
   13.6854   -0.9176   -4.3587 N   0  0  0  0  0  0  0  0  0  0  0  0
   12.6420   -0.8368   -4.0033 N   0  0  0  0  0  0  0  0  0  0  0  0
   -4.5321   -0.8694   -0.4032 H   0  0  0  0  0  0  0  0  0  0  0  0
    0.1468    1.3908    0.3551 O   0  0  0  0  0  0  0  0  0  0  0  0
    0.8569    0.8462   -0.0080 H   0  0  0  0  0  0  0  0  0  0  0  0
  1  2  2  0  0  0  0
  1  6  1  0  0  0  0
  2  3  1  0  0  0  0
  3 14  1  0  0  0  0
  3  4  2  0  0  0  0
  4  9  1  0  0  0  0
  5  4  1  0  0  0  0
  5 10  1  0  0  0  0
  6  5  2  0  0  0  0
  7  1  1  0  0  0  0
  8  2  1  0  0  0  0
 11 12  3  0  0  0  0
 13  6  1  0  0  0  0
 15 14  1  0  0  0  0
M  END
