Coordinates from ORCA-job Ph-N2-OH-B3LYPG-6-31G_dp-MTMO-d009-169-n800
 OpenBabel09051908283D

 15 14  0  0  0  0  0  0  0  0999 V2000
   -1.3550   -1.1487   -1.0085 C   0  0  0  0  0  0  0  0  0  0  0  0
   -0.0534   -0.6453   -0.9742 C   0  0  0  0  0  0  0  0  0  0  0  0
    0.2014    0.5801   -0.3486 C   0  0  0  0  0  0  0  0  0  0  0  0
   -0.8472    1.2973    0.2395 C   0  0  0  0  0  0  0  0  0  0  0  0
   -2.1413    0.7838    0.1981 C   0  0  0  0  0  0  0  0  0  0  0  0
   -2.4052   -0.4401   -0.4243 C   0  0  0  0  0  0  0  0  0  0  0  0
   -1.5437   -2.1015   -1.4947 H   0  0  0  0  0  0  0  0  0  0  0  0
    0.7627   -1.2014   -1.4309 H   0  0  0  0  0  0  0  0  0  0  0  0
   -0.6277    2.2461    0.7175 H   0  0  0  0  0  0  0  0  0  0  0  0
   -2.9505    1.3453    0.6561 H   0  0  0  0  0  0  0  0  0  0  0  0
    5.8547   -0.1169   -1.9845 N   0  0  0  0  0  0  0  0  0  0  0  0
    4.7946   -0.0350   -1.6825 N   0  0  0  0  0  0  0  0  0  0  0  0
   -3.4159   -0.8350   -0.4525 H   0  0  0  0  0  0  0  0  0  0  0  0
    1.4525    1.1274   -0.2801 O   0  0  0  0  0  0  0  0  0  0  0  0
    2.0859    0.5424   -0.7169 H   0  0  0  0  0  0  0  0  0  0  0  0
  1  2  2  0  0  0  0
  1  6  1  0  0  0  0
  2  3  1  0  0  0  0
  3 14  1  0  0  0  0
  3  4  2  0  0  0  0
  4  9  1  0  0  0  0
  5  4  1  0  0  0  0
  5 10  1  0  0  0  0
  6  5  2  0  0  0  0
  7  1  1  0  0  0  0
  8  2  1  0  0  0  0
 11 12  3  0  0  0  0
 13  6  1  0  0  0  0
 15 14  1  0  0  0  0
M  END
