Coordinates from ORCA-job Ph-N2-OH-B3LYPG-6-31G_dp-MTMO-d009-169-n800
 OpenBabel09051908283D

 15 14  0  0  0  0  0  0  0  0999 V2000
   -1.0053   -1.3538   -0.7558 C   0  0  0  0  0  0  0  0  0  0  0  0
    0.2607   -1.0568   -0.2483 C   0  0  0  0  0  0  0  0  0  0  0  0
    0.5779    0.2609    0.0985 C   0  0  0  0  0  0  0  0  0  0  0  0
   -0.3702    1.2771   -0.0663 C   0  0  0  0  0  0  0  0  0  0  0  0
   -1.6298    0.9672   -0.5741 C   0  0  0  0  0  0  0  0  0  0  0  0
   -1.9565   -0.3468   -0.9217 C   0  0  0  0  0  0  0  0  0  0  0  0
   -1.2435   -2.3792   -1.0239 H   0  0  0  0  0  0  0  0  0  0  0  0
    1.0003   -1.8451   -0.1202 H   0  0  0  0  0  0  0  0  0  0  0  0
   -0.1033    2.2918    0.2102 H   0  0  0  0  0  0  0  0  0  0  0  0
   -2.3617    1.7600   -0.7001 H   0  0  0  0  0  0  0  0  0  0  0  0
    2.2626    1.1054   -2.7112 N   0  0  0  0  0  0  0  0  0  0  0  0
    3.1630    0.8488   -2.1237 N   0  0  0  0  0  0  0  0  0  0  0  0
   -2.9393   -0.5815   -1.3177 H   0  0  0  0  0  0  0  0  0  0  0  0
    1.7983    0.6174    0.6025 O   0  0  0  0  0  0  0  0  0  0  0  0
    2.3585   -0.1670    0.6652 H   0  0  0  0  0  0  0  0  0  0  0  0
  1  2  1  0  0  0  0
  2  8  1  0  0  0  0
  2  3  2  0  0  0  0
  3 14  1  0  0  0  0
  4  3  1  0  0  0  0
  4  9  1  0  0  0  0
  5  4  2  0  0  0  0
  6  1  2  0  0  0  0
  6  5  1  0  0  0  0
  7  1  1  0  0  0  0
 10  5  1  0  0  0  0
 11 12  3  0  0  0  0
 13  6  1  0  0  0  0
 14 15  1  0  0  0  0
M  END
