Coordinates from ORCA-job Ph-N2-OH-B3LYPG-6-31G_dp-MTMO-d009-169-n800
 OpenBabel09051908283D

 15 14  0  0  0  0  0  0  0  0999 V2000
   -1.9790   -1.0835   -0.8207 C   0  0  0  0  0  0  0  0  0  0  0  0
   -0.7254   -0.4920   -0.6552 C   0  0  0  0  0  0  0  0  0  0  0  0
   -0.6195    0.7419   -0.0041 C   0  0  0  0  0  0  0  0  0  0  0  0
   -1.7676    1.3797    0.4798 C   0  0  0  0  0  0  0  0  0  0  0  0
   -3.0125    0.7786    0.3079 C   0  0  0  0  0  0  0  0  0  0  0  0
   -3.1281   -0.4540   -0.3416 C   0  0  0  0  0  0  0  0  0  0  0  0
   -2.0520   -2.0422   -1.3259 H   0  0  0  0  0  0  0  0  0  0  0  0
    0.1687   -0.9858   -1.0305 H   0  0  0  0  0  0  0  0  0  0  0  0
   -1.6633    2.3367    0.9798 H   0  0  0  0  0  0  0  0  0  0  0  0
   -3.9002    1.2785    0.6848 H   0  0  0  0  0  0  0  0  0  0  0  0
   10.8865   -0.7163   -3.5708 N   0  0  0  0  0  0  0  0  0  0  0  0
    9.8445   -0.6363   -3.2107 N   0  0  0  0  0  0  0  0  0  0  0  0
   -4.1014   -0.9161   -0.4724 H   0  0  0  0  0  0  0  0  0  0  0  0
    0.5781    1.3730    0.1890 O   0  0  0  0  0  0  0  0  0  0  0  0
    1.2828    0.8363   -0.1958 H   0  0  0  0  0  0  0  0  0  0  0  0
  1  2  2  0  0  0  0
  1  6  1  0  0  0  0
  2  3  1  0  0  0  0
  3 14  1  0  0  0  0
  3  4  2  0  0  0  0
  4  9  1  0  0  0  0
  5  4  1  0  0  0  0
  5 10  1  0  0  0  0
  6  5  2  0  0  0  0
  7  1  1  0  0  0  0
  8  2  1  0  0  0  0
 11 12  3  0  0  0  0
 13  6  1  0  0  0  0
 15 14  1  0  0  0  0
M  END
