Coordinates from ORCA-job Ph-N2-OH-B3LYPG-6-31G_dp-MTMO-d009-169-n800
 OpenBabel09051908283D

 15 14  0  0  0  0  0  0  0  0999 V2000
   -1.2964   -1.4256   -0.9147 C   0  0  0  0  0  0  0  0  0  0  0  0
    0.0541   -1.0920   -1.1181 C   0  0  0  0  0  0  0  0  0  0  0  0
    0.3597    0.2388   -0.9898 C   0  0  0  0  0  0  0  0  0  0  0  0
   -0.4961    1.2697   -0.6972 C   0  0  0  0  0  0  0  0  0  0  0  0
   -1.8393    0.9044   -0.4999 C   0  0  0  0  0  0  0  0  0  0  0  0
   -2.2304   -0.4329   -0.6084 C   0  0  0  0  0  0  0  0  0  0  0  0
   -1.6070   -2.4638   -1.0006 H   0  0  0  0  0  0  0  0  0  0  0  0
    0.7963   -1.8447   -1.3592 H   0  0  0  0  0  0  0  0  0  0  0  0
   -0.1690    2.3002   -0.6179 H   0  0  0  0  0  0  0  0  0  0  0  0
   -2.5705    1.6728   -0.2622 H   0  0  0  0  0  0  0  0  0  0  0  0
    2.6856    0.8910   -1.6417 N   0  0  0  0  0  0  0  0  0  0  0  0
    3.3419    0.9018   -0.6621 N   0  0  0  0  0  0  0  0  0  0  0  0
   -3.2705   -0.7032   -0.4530 H   0  0  0  0  0  0  0  0  0  0  0  0
    2.6688    0.5531    0.5911 O   0  0  0  0  0  0  0  0  0  0  0  0
    3.3847    0.6287    1.2472 H   0  0  0  0  0  0  0  0  0  0  0  0
  1  6  2  0  0  0  0
  2  3  2  0  0  0  0
  2  1  1  0  0  0  0
  3  4  1  0  0  0  0
  4  9  1  0  0  0  0
  4  5  2  0  0  0  0
  5 10  1  0  0  0  0
  6  5  1  0  0  0  0
  6 13  1  0  0  0  0
  7  1  1  0  0  0  0
  8  2  1  0  0  0  0
 11 12  2  0  0  0  0
 12 14  1  0  0  0  0
 14 15  1  0  0  0  0
M  RAD  2   3   2  11   2
M  END
