Coordinates from ORCA-job Ph-N2-OH-B3LYPG-6-31G_dp-MTMO-d009-169-n800
 OpenBabel09051908283D

 15 14  0  0  0  0  0  0  0  0999 V2000
   -0.9605   -1.2660   -0.8790 C   0  0  0  0  0  0  0  0  0  0  0  0
    0.3020   -0.8877   -0.4184 C   0  0  0  0  0  0  0  0  0  0  0  0
    0.5048    0.4093    0.0663 C   0  0  0  0  0  0  0  0  0  0  0  0
   -0.5571    1.3213    0.0911 C   0  0  0  0  0  0  0  0  0  0  0  0
   -1.8121    0.9303   -0.3695 C   0  0  0  0  0  0  0  0  0  0  0  0
   -2.0233   -0.3625   -0.8581 C   0  0  0  0  0  0  0  0  0  0  0  0
   -1.1085   -2.2742   -1.2552 H   0  0  0  0  0  0  0  0  0  0  0  0
    1.1275   -1.5962   -0.4338 H   0  0  0  0  0  0  0  0  0  0  0  0
   -0.3787    2.3212    0.4725 H   0  0  0  0  0  0  0  0  0  0  0  0
   -2.6320    1.6429   -0.3476 H   0  0  0  0  0  0  0  0  0  0  0  0
    2.9828    0.6650   -2.8609 N   0  0  0  0  0  0  0  0  0  0  0  0
    3.2844    0.1669   -1.9220 N   0  0  0  0  0  0  0  0  0  0  0  0
   -3.0030   -0.6601   -1.2179 H   0  0  0  0  0  0  0  0  0  0  0  0
    1.7146    0.8435    0.5327 O   0  0  0  0  0  0  0  0  0  0  0  0
    2.3708    0.1448    0.4133 H   0  0  0  0  0  0  0  0  0  0  0  0
  1  6  2  0  0  0  0
  1  2  1  0  0  0  0
  2  3  2  0  0  0  0
  3  4  1  0  0  0  0
  3 14  1  0  0  0  0
  4  9  1  0  0  0  0
  5 10  1  0  0  0  0
  5  4  2  0  0  0  0
  6  5  1  0  0  0  0
  7  1  1  0  0  0  0
  8  2  1  0  0  0  0
 11 12  3  0  0  0  0
 13  6  1  0  0  0  0
 15 14  1  0  0  0  0
M  END
