Coordinates from ORCA-job Ph-N2-OH-B3LYPG-6-31G_dp-MTMO-d009-169-n800
 OpenBabel09051908283D

 15 14  0  0  0  0  0  0  0  0999 V2000
   -2.5588   -1.0441   -0.6530 C   0  0  0  0  0  0  0  0  0  0  0  0
   -1.3064   -0.4626   -0.4474 C   0  0  0  0  0  0  0  0  0  0  0  0
   -1.2125    0.7771    0.1944 C   0  0  0  0  0  0  0  0  0  0  0  0
   -2.3714    1.4311    0.6283 C   0  0  0  0  0  0  0  0  0  0  0  0
   -3.6150    0.8401    0.4167 C   0  0  0  0  0  0  0  0  0  0  0  0
   -3.7185   -0.3985   -0.2235 C   0  0  0  0  0  0  0  0  0  0  0  0
   -2.6225   -2.0072   -1.1508 H   0  0  0  0  0  0  0  0  0  0  0  0
   -0.4041   -0.9686   -0.7850 H   0  0  0  0  0  0  0  0  0  0  0  0
   -2.2762    2.3923    1.1221 H   0  0  0  0  0  0  0  0  0  0  0  0
   -4.5110    1.3523    0.7553 H   0  0  0  0  0  0  0  0  0  0  0  0
   14.7309   -0.9963   -4.6590 N   0  0  0  0  0  0  0  0  0  0  0  0
   13.6879   -0.9118   -4.3030 N   0  0  0  0  0  0  0  0  0  0  0  0
   -4.6909   -0.8526   -0.3856 H   0  0  0  0  0  0  0  0  0  0  0  0
   -0.0167    1.3987    0.4256 O   0  0  0  0  0  0  0  0  0  0  0  0
    0.6970    0.8485    0.0784 H   0  0  0  0  0  0  0  0  0  0  0  0
  1  2  2  0  0  0  0
  1  6  1  0  0  0  0
  2  3  1  0  0  0  0
  3 14  1  0  0  0  0
  3  4  2  0  0  0  0
  4  9  1  0  0  0  0
  5  4  1  0  0  0  0
  5 10  1  0  0  0  0
  6  5  2  0  0  0  0
  7  1  1  0  0  0  0
  8  2  1  0  0  0  0
 11 12  3  0  0  0  0
 13  6  1  0  0  0  0
 15 14  1  0  0  0  0
M  END
