Coordinates from ORCA-job Ph-N2-OH-B3LYPG-6-31G_dp-MTMO-d009-169-n800
 OpenBabel09051908283D

 15 14  0  0  0  0  0  0  0  0999 V2000
   -1.7230   -1.1042   -0.8957 C   0  0  0  0  0  0  0  0  0  0  0  0
   -0.4633   -0.5180   -0.7595 C   0  0  0  0  0  0  0  0  0  0  0  0
   -0.3366    0.7137   -0.1082 C   0  0  0  0  0  0  0  0  0  0  0  0
   -1.4700    1.3549    0.4050 C   0  0  0  0  0  0  0  0  0  0  0  0
   -2.7212    0.7593    0.2622 C   0  0  0  0  0  0  0  0  0  0  0  0
   -2.8575   -0.4713   -0.3872 C   0  0  0  0  0  0  0  0  0  0  0  0
   -1.8122   -2.0613   -1.4013 H   0  0  0  0  0  0  0  0  0  0  0  0
    0.4194   -1.0146   -1.1576 H   0  0  0  0  0  0  0  0  0  0  0  0
   -1.3496    2.3102    0.9046 H   0  0  0  0  0  0  0  0  0  0  0  0
   -3.5974    1.2618    0.6617 H   0  0  0  0  0  0  0  0  0  0  0  0
    9.0857   -0.5635   -3.0437 N   0  0  0  0  0  0  0  0  0  0  0  0
    8.0443   -0.4802   -2.6831 N   0  0  0  0  0  0  0  0  0  0  0  0
   -3.8357   -0.9293   -0.4952 H   0  0  0  0  0  0  0  0  0  0  0  0
    0.8679    1.3396    0.0572 O   0  0  0  0  0  0  0  0  0  0  0  0
    1.5610    0.8012   -0.3458 H   0  0  0  0  0  0  0  0  0  0  0  0
  1  2  2  0  0  0  0
  1  6  1  0  0  0  0
  2  3  1  0  0  0  0
  3 14  1  0  0  0  0
  3  4  2  0  0  0  0
  4  9  1  0  0  0  0
  5  4  1  0  0  0  0
  5 10  1  0  0  0  0
  6  5  2  0  0  0  0
  7  1  1  0  0  0  0
  8  2  1  0  0  0  0
 11 12  3  0  0  0  0
 13  6  1  0  0  0  0
 15 14  1  0  0  0  0
M  END
