Coordinates from ORCA-job Ph-N2-OH-B3LYPG-6-31G_dp-MTMO-d009-169-n800
 OpenBabel09051908283D

 15 14  0  0  0  0  0  0  0  0999 V2000
   -2.2970   -1.0622   -0.7286 C   0  0  0  0  0  0  0  0  0  0  0  0
   -1.0432   -0.4775   -0.5417 C   0  0  0  0  0  0  0  0  0  0  0  0
   -0.9423    0.7597    0.1039 C   0  0  0  0  0  0  0  0  0  0  0  0
   -2.0959    1.4076    0.5607 C   0  0  0  0  0  0  0  0  0  0  0  0
   -3.3409    0.8134    0.3678 C   0  0  0  0  0  0  0  0  0  0  0  0
   -3.4514   -0.4225   -0.2764 C   0  0  0  0  0  0  0  0  0  0  0  0
   -2.3660   -2.0234   -1.2294 H   0  0  0  0  0  0  0  0  0  0  0  0
   -0.1451   -0.9795   -0.8960 H   0  0  0  0  0  0  0  0  0  0  0  0
   -1.9954    2.3670    1.0569 H   0  0  0  0  0  0  0  0  0  0  0  0
   -4.2327    1.3211    0.7240 H   0  0  0  0  0  0  0  0  0  0  0  0
   12.9852   -0.8654   -4.1640 N   0  0  0  0  0  0  0  0  0  0  0  0
   11.9422   -0.7863   -3.8071 N   0  0  0  0  0  0  0  0  0  0  0  0
   -4.4249   -0.8793   -0.4239 H   0  0  0  0  0  0  0  0  0  0  0  0
    0.2551    1.3845    0.3170 O   0  0  0  0  0  0  0  0  0  0  0  0
    0.9641    0.8410   -0.0497 H   0  0  0  0  0  0  0  0  0  0  0  0
  1  2  2  0  0  0  0
  1  6  1  0  0  0  0
  2  3  1  0  0  0  0
  3 14  1  0  0  0  0
  3  4  2  0  0  0  0
  4  9  1  0  0  0  0
  5  4  1  0  0  0  0
  5 10  1  0  0  0  0
  6  5  2  0  0  0  0
  7  1  1  0  0  0  0
  8  2  1  0  0  0  0
 11 12  3  0  0  0  0
 13  6  1  0  0  0  0
 15 14  1  0  0  0  0
M  END
