Coordinates from ORCA-job Ph-N2-OH-B3LYPG-6-31G_dp-MTMO-d009-169-n800
 OpenBabel09051908283D

 15 14  0  0  0  0  0  0  0  0999 V2000
   -1.7078   -1.1056   -0.9002 C   0  0  0  0  0  0  0  0  0  0  0  0
   -0.4474   -0.5206   -0.7667 C   0  0  0  0  0  0  0  0  0  0  0  0
   -0.3182    0.7111   -0.1156 C   0  0  0  0  0  0  0  0  0  0  0  0
   -1.4500    1.3532    0.3999 C   0  0  0  0  0  0  0  0  0  0  0  0
   -2.7020    0.7587    0.2596 C   0  0  0  0  0  0  0  0  0  0  0  0
   -2.8408   -0.4717   -0.3895 C   0  0  0  0  0  0  0  0  0  0  0  0
   -1.7989   -2.0627   -1.4056 H   0  0  0  0  0  0  0  0  0  0  0  0
    0.4341   -1.0179   -1.1665 H   0  0  0  0  0  0  0  0  0  0  0  0
   -1.3278    2.3085    0.8992 H   0  0  0  0  0  0  0  0  0  0  0  0
   -3.5769    1.2620    0.6609 H   0  0  0  0  0  0  0  0  0  0  0  0
    8.9712   -0.5520   -3.0087 N   0  0  0  0  0  0  0  0  0  0  0  0
    7.9296   -0.4683   -2.6485 N   0  0  0  0  0  0  0  0  0  0  0  0
   -3.8195   -0.9289   -0.4954 H   0  0  0  0  0  0  0  0  0  0  0  0
    0.8871    1.3359    0.0473 O   0  0  0  0  0  0  0  0  0  0  0  0
    1.5790    0.7968   -0.3570 H   0  0  0  0  0  0  0  0  0  0  0  0
  1  2  2  0  0  0  0
  1  6  1  0  0  0  0
  2  3  1  0  0  0  0
  3 14  1  0  0  0  0
  3  4  2  0  0  0  0
  4  9  1  0  0  0  0
  5  4  1  0  0  0  0
  5 10  1  0  0  0  0
  6  5  2  0  0  0  0
  7  1  1  0  0  0  0
  8  2  1  0  0  0  0
 11 12  3  0  0  0  0
 13  6  1  0  0  0  0
 15 14  1  0  0  0  0
M  END
