Coordinates from ORCA-job Ph-N2-OH-B3LYPG-6-31G_dp-MTMO-d009-169-n800
 OpenBabel09051908283D

 15 14  0  0  0  0  0  0  0  0999 V2000
   -1.4976   -1.1311   -0.9639 C   0  0  0  0  0  0  0  0  0  0  0  0
   -0.2177   -0.5800   -0.8807 C   0  0  0  0  0  0  0  0  0  0  0  0
   -0.0310    0.6503   -0.2410 C   0  0  0  0  0  0  0  0  0  0  0  0
   -1.1251    1.3249    0.3131 C   0  0  0  0  0  0  0  0  0  0  0  0
   -2.3970    0.7641    0.2230 C   0  0  0  0  0  0  0  0  0  0  0  0
   -2.5931   -0.4648   -0.4142 C   0  0  0  0  0  0  0  0  0  0  0  0
   -1.6333   -2.0872   -1.4607 H   0  0  0  0  0  0  0  0  0  0  0  0
    0.6344   -1.1027   -1.3107 H   0  0  0  0  0  0  0  0  0  0  0  0
   -0.9584    2.2785    0.8028 H   0  0  0  0  0  0  0  0  0  0  0  0
   -3.2423    1.2926    0.6542 H   0  0  0  0  0  0  0  0  0  0  0  0
    7.2262   -0.3295   -2.4483 N   0  0  0  0  0  0  0  0  0  0  0  0
    6.1792   -0.2456   -2.1042 N   0  0  0  0  0  0  0  0  0  0  0  0
   -3.5871   -0.8961   -0.4807 H   0  0  0  0  0  0  0  0  0  0  0  0
    1.1959    1.2429   -0.1261 O   0  0  0  0  0  0  0  0  0  0  0  0
    1.8588    0.6820   -0.5492 H   0  0  0  0  0  0  0  0  0  0  0  0
  1  2  2  0  0  0  0
  1  6  1  0  0  0  0
  2  3  1  0  0  0  0
  3 14  1  0  0  0  0
  3  4  2  0  0  0  0
  4  9  1  0  0  0  0
  5  4  1  0  0  0  0
  5 10  1  0  0  0  0
  6  5  2  0  0  0  0
  7  1  1  0  0  0  0
  8  2  1  0  0  0  0
 11 12  3  0  0  0  0
 13  6  1  0  0  0  0
 15 14  1  0  0  0  0
M  END
