Coordinates from ORCA-job Ph-N2-OH-B3LYPG-6-31G_dp-MTMO-d009-169-n800
 OpenBabel09051908283D

 15 14  0  0  0  0  0  0  0  0999 V2000
   -1.9446   -1.0860   -0.8307 C   0  0  0  0  0  0  0  0  0  0  0  0
   -0.6907   -0.4943   -0.6680 C   0  0  0  0  0  0  0  0  0  0  0  0
   -0.5834    0.7392   -0.0165 C   0  0  0  0  0  0  0  0  0  0  0  0
   -1.7305    1.3766    0.4705 C   0  0  0  0  0  0  0  0  0  0  0  0
   -2.9757    0.7754    0.3014 C   0  0  0  0  0  0  0  0  0  0  0  0
   -3.0926   -0.4569   -0.3485 C   0  0  0  0  0  0  0  0  0  0  0  0
   -2.0186   -2.0444   -1.3362 H   0  0  0  0  0  0  0  0  0  0  0  0
    0.2026   -0.9878   -1.0457 H   0  0  0  0  0  0  0  0  0  0  0  0
   -1.6251    2.3333    0.9707 H   0  0  0  0  0  0  0  0  0  0  0  0
   -3.8625    1.2749    0.6807 H   0  0  0  0  0  0  0  0  0  0  0  0
   10.6539   -0.6985   -3.5045 N   0  0  0  0  0  0  0  0  0  0  0  0
    9.6121   -0.6183   -3.1440 N   0  0  0  0  0  0  0  0  0  0  0  0
   -4.0662   -0.9192   -0.4770 H   0  0  0  0  0  0  0  0  0  0  0  0
    0.6145    1.3705    0.1740 O   0  0  0  0  0  0  0  0  0  0  0  0
    1.3184    0.8342   -0.2128 H   0  0  0  0  0  0  0  0  0  0  0  0
  1  2  2  0  0  0  0
  1  6  1  0  0  0  0
  2  3  1  0  0  0  0
  3 14  1  0  0  0  0
  3  4  2  0  0  0  0
  4  9  1  0  0  0  0
  5  4  1  0  0  0  0
  5 10  1  0  0  0  0
  6  5  2  0  0  0  0
  7  1  1  0  0  0  0
  8  2  1  0  0  0  0
 11 12  3  0  0  0  0
 13  6  1  0  0  0  0
 15 14  1  0  0  0  0
M  END
