Coordinates from ORCA-job Ph-N2-OH-B3LYPG-6-31G_dp-MTMO-d009-169-n800
 OpenBabel09051908283D

 15 14  0  0  0  0  0  0  0  0999 V2000
   -1.3399   -1.1489   -1.0116 C   0  0  0  0  0  0  0  0  0  0  0  0
   -0.0387   -0.6446   -0.9754 C   0  0  0  0  0  0  0  0  0  0  0  0
    0.2146    0.5809   -0.3494 C   0  0  0  0  0  0  0  0  0  0  0  0
   -0.8354    1.2974    0.2373 C   0  0  0  0  0  0  0  0  0  0  0  0
   -2.1292    0.7831    0.1939 C   0  0  0  0  0  0  0  0  0  0  0  0
   -2.3914   -0.4409   -0.4289 C   0  0  0  0  0  0  0  0  0  0  0  0
   -1.5273   -2.1017   -1.4982 H   0  0  0  0  0  0  0  0  0  0  0  0
    0.7785   -1.2002   -1.4309 H   0  0  0  0  0  0  0  0  0  0  0  0
   -0.6173    2.2463    0.7156 H   0  0  0  0  0  0  0  0  0  0  0  0
   -2.9394    1.3441    0.6507 H   0  0  0  0  0  0  0  0  0  0  0  0
    5.7661   -0.1202   -1.9720 N   0  0  0  0  0  0  0  0  0  0  0  0
    4.7078   -0.0343   -1.6652 N   0  0  0  0  0  0  0  0  0  0  0  0
   -3.4019   -0.8364   -0.4587 H   0  0  0  0  0  0  0  0  0  0  0  0
    1.4651    1.1289   -0.2789 O   0  0  0  0  0  0  0  0  0  0  0  0
    2.1002    0.5449   -0.7148 H   0  0  0  0  0  0  0  0  0  0  0  0
  1  2  2  0  0  0  0
  1  6  1  0  0  0  0
  2  3  1  0  0  0  0
  3 14  1  0  0  0  0
  3  4  2  0  0  0  0
  4  9  1  0  0  0  0
  5  4  1  0  0  0  0
  5 10  1  0  0  0  0
  6  5  2  0  0  0  0
  7  1  1  0  0  0  0
  8  2  1  0  0  0  0
 11 12  3  0  0  0  0
 13  6  1  0  0  0  0
 15 14  1  0  0  0  0
M  END
