Coordinates from ORCA-job Ph-N2-OH-B3LYPG-6-31G_dp-MTMO-d009-169-n800
 OpenBabel09051908283D

 15 14  0  0  0  0  0  0  0  0999 V2000
   -2.3371   -1.0593   -0.7173 C   0  0  0  0  0  0  0  0  0  0  0  0
   -1.0835   -0.4747   -0.5284 C   0  0  0  0  0  0  0  0  0  0  0  0
   -0.9836    0.7626    0.1169 C   0  0  0  0  0  0  0  0  0  0  0  0
   -2.1378    1.4110    0.5715 C   0  0  0  0  0  0  0  0  0  0  0  0
   -3.3826    0.8169    0.3766 C   0  0  0  0  0  0  0  0  0  0  0  0
   -3.4922   -0.4192   -0.2673 C   0  0  0  0  0  0  0  0  0  0  0  0
   -2.4054   -2.0207   -1.2179 H   0  0  0  0  0  0  0  0  0  0  0  0
   -0.1849   -0.9770   -0.8810 H   0  0  0  0  0  0  0  0  0  0  0  0
   -2.0379    2.3705    1.0676 H   0  0  0  0  0  0  0  0  0  0  0  0
   -4.2748    1.3249    0.7311 H   0  0  0  0  0  0  0  0  0  0  0  0
   13.2517   -0.8857   -4.2383 N   0  0  0  0  0  0  0  0  0  0  0  0
   12.2085   -0.8058   -3.8820 N   0  0  0  0  0  0  0  0  0  0  0  0
   -4.4655   -0.8759   -0.4163 H   0  0  0  0  0  0  0  0  0  0  0  0
    0.2136    1.3874    0.3319 O   0  0  0  0  0  0  0  0  0  0  0  0
    0.9232    0.8435   -0.0334 H   0  0  0  0  0  0  0  0  0  0  0  0
  1  2  2  0  0  0  0
  1  6  1  0  0  0  0
  2  3  1  0  0  0  0
  3 14  1  0  0  0  0
  3  4  2  0  0  0  0
  4  9  1  0  0  0  0
  5  4  1  0  0  0  0
  5 10  1  0  0  0  0
  6  5  2  0  0  0  0
  7  1  1  0  0  0  0
  8  2  1  0  0  0  0
 11 12  3  0  0  0  0
 13  6  1  0  0  0  0
 15 14  1  0  0  0  0
M  END
