Coordinates from ORCA-job Ph-N2-OH-B3LYPG-6-31G_dp-MTMO-d009-169-n800
 OpenBabel09051908283D

 15 14  0  0  0  0  0  0  0  0999 V2000
   -1.1755   -1.1365   -1.0353 C   0  0  0  0  0  0  0  0  0  0  0  0
    0.1071   -0.5951   -0.9317 C   0  0  0  0  0  0  0  0  0  0  0  0
    0.2936    0.6342   -0.2885 C   0  0  0  0  0  0  0  0  0  0  0  0
   -0.8058    1.3153    0.2483 C   0  0  0  0  0  0  0  0  0  0  0  0
   -2.0801    0.7640    0.1380 C   0  0  0  0  0  0  0  0  0  0  0  0
   -2.2753   -0.4632   -0.5030 C   0  0  0  0  0  0  0  0  0  0  0  0
   -1.3101   -2.0917   -1.5347 H   0  0  0  0  0  0  0  0  0  0  0  0
    0.9614   -1.1242   -1.3479 H   0  0  0  0  0  0  0  0  0  0  0  0
   -0.6401    2.2674    0.7412 H   0  0  0  0  0  0  0  0  0  0  0  0
   -2.9283    1.2984    0.5563 H   0  0  0  0  0  0  0  0  0  0  0  0
    5.0980   -0.3420   -2.0969 N   0  0  0  0  0  0  0  0  0  0  0  0
    4.1247   -0.1175   -1.6252 N   0  0  0  0  0  0  0  0  0  0  0  0
   -3.2711   -0.8874   -0.5856 H   0  0  0  0  0  0  0  0  0  0  0  0
    1.5208    1.2174   -0.1534 O   0  0  0  0  0  0  0  0  0  0  0  0
    2.1926    0.6595   -0.5680 H   0  0  0  0  0  0  0  0  0  0  0  0
  1  2  2  0  0  0  0
  1  6  1  0  0  0  0
  2  3  1  0  0  0  0
  3 14  1  0  0  0  0
  3  4  2  0  0  0  0
  4  9  1  0  0  0  0
  5  4  1  0  0  0  0
  5 10  1  0  0  0  0
  6  5  2  0  0  0  0
  7  1  1  0  0  0  0
  8  2  1  0  0  0  0
 11 12  3  0  0  0  0
 13  6  1  0  0  0  0
 15 14  1  0  0  0  0
M  END
