Coordinates from ORCA-job Ph-N2-OH-B3LYPG-6-31G_dp-MTMO-d009-169-n800
 OpenBabel09051908283D

 15 14  0  0  0  0  0  0  0  0999 V2000
   -2.1410   -1.0731   -0.7730 C   0  0  0  0  0  0  0  0  0  0  0  0
   -0.8868   -0.4866   -0.5949 C   0  0  0  0  0  0  0  0  0  0  0  0
   -0.7831    0.7494    0.0525 C   0  0  0  0  0  0  0  0  0  0  0  0
   -1.9340    1.3945    0.5198 C   0  0  0  0  0  0  0  0  0  0  0  0
   -3.1795    0.7984    0.3354 C   0  0  0  0  0  0  0  0  0  0  0  0
   -3.2929   -0.4364   -0.3104 C   0  0  0  0  0  0  0  0  0  0  0  0
   -2.2123   -2.0335   -1.2752 H   0  0  0  0  0  0  0  0  0  0  0  0
    0.0094   -0.9862   -0.9573 H   0  0  0  0  0  0  0  0  0  0  0  0
   -1.8312    2.3530    1.0172 H   0  0  0  0  0  0  0  0  0  0  0  0
   -4.0693    1.3038    0.6997 H   0  0  0  0  0  0  0  0  0  0  0  0
   11.9524   -0.7884   -3.8747 N   0  0  0  0  0  0  0  0  0  0  0  0
   10.9099   -0.7121   -3.5154 N   0  0  0  0  0  0  0  0  0  0  0  0
   -4.2667   -0.8946   -0.4511 H   0  0  0  0  0  0  0  0  0  0  0  0
    0.4150    1.3759    0.2574 O   0  0  0  0  0  0  0  0  0  0  0  0
    1.1219    0.8343   -0.1164 H   0  0  0  0  0  0  0  0  0  0  0  0
  1  2  2  0  0  0  0
  1  6  1  0  0  0  0
  2  3  1  0  0  0  0
  3 14  1  0  0  0  0
  3  4  2  0  0  0  0
  4  9  1  0  0  0  0
  5  4  1  0  0  0  0
  5 10  1  0  0  0  0
  6  5  2  0  0  0  0
  7  1  1  0  0  0  0
  8  2  1  0  0  0  0
 11 12  3  0  0  0  0
 13  6  1  0  0  0  0
 15 14  1  0  0  0  0
M  END
