Coordinates from ORCA-job Ph-N2-OH-B3LYPG-6-31G_dp-MTMO-d009-169-n800
 OpenBabel09051908283D

 15 14  0  0  0  0  0  0  0  0999 V2000
   -2.1940   -1.0695   -0.7578 C   0  0  0  0  0  0  0  0  0  0  0  0
   -0.9398   -0.4840   -0.5764 C   0  0  0  0  0  0  0  0  0  0  0  0
   -0.8369    0.7525    0.0702 C   0  0  0  0  0  0  0  0  0  0  0  0
   -1.9887    1.3991    0.5334 C   0  0  0  0  0  0  0  0  0  0  0  0
   -3.2341    0.8039    0.3459 C   0  0  0  0  0  0  0  0  0  0  0  0
   -3.3467   -0.4313   -0.2992 C   0  0  0  0  0  0  0  0  0  0  0  0
   -2.2647   -2.0303   -1.2593 H   0  0  0  0  0  0  0  0  0  0  0  0
   -0.0430   -0.9846   -0.9357 H   0  0  0  0  0  0  0  0  0  0  0  0
   -1.8865    2.3580    1.0303 H   0  0  0  0  0  0  0  0  0  0  0  0
   -4.1246    1.3104    0.7070 H   0  0  0  0  0  0  0  0  0  0  0  0
   12.3023   -0.8138   -3.9730 N   0  0  0  0  0  0  0  0  0  0  0  0
   11.2596   -0.7369   -3.6145 N   0  0  0  0  0  0  0  0  0  0  0  0
   -4.3205   -0.8887   -0.4424 H   0  0  0  0  0  0  0  0  0  0  0  0
    0.3611    1.3781    0.2781 O   0  0  0  0  0  0  0  0  0  0  0  0
    1.0686    0.8355   -0.0930 H   0  0  0  0  0  0  0  0  0  0  0  0
  1  2  2  0  0  0  0
  1  6  1  0  0  0  0
  2  3  1  0  0  0  0
  3 14  1  0  0  0  0
  3  4  2  0  0  0  0
  4  9  1  0  0  0  0
  5  4  1  0  0  0  0
  5 10  1  0  0  0  0
  6  5  2  0  0  0  0
  7  1  1  0  0  0  0
  8  2  1  0  0  0  0
 11 12  3  0  0  0  0
 13  6  1  0  0  0  0
 15 14  1  0  0  0  0
M  END
