Coordinates from ORCA-job Ph-N2-OH-B3LYPG-6-31G_dp-MTMO-d009-169-n800
 OpenBabel09051908283D

 15 14  0  0  0  0  0  0  0  0999 V2000
   -2.2298   -1.0672   -0.7475 C   0  0  0  0  0  0  0  0  0  0  0  0
   -0.9754   -0.4825   -0.5641 C   0  0  0  0  0  0  0  0  0  0  0  0
   -0.8727    0.7544    0.0818 C   0  0  0  0  0  0  0  0  0  0  0  0
   -2.0250    1.4020    0.5424 C   0  0  0  0  0  0  0  0  0  0  0  0
   -3.2705    0.8079    0.3528 C   0  0  0  0  0  0  0  0  0  0  0  0
   -3.3828   -0.4278   -0.2916 C   0  0  0  0  0  0  0  0  0  0  0  0
   -2.3002   -2.0282   -1.2485 H   0  0  0  0  0  0  0  0  0  0  0  0
   -0.0784   -0.9843   -0.9213 H   0  0  0  0  0  0  0  0  0  0  0  0
   -1.9230    2.3612    1.0388 H   0  0  0  0  0  0  0  0  0  0  0  0
   -4.1612    1.3154    0.7119 H   0  0  0  0  0  0  0  0  0  0  0  0
   12.5358   -0.8303   -4.0385 N   0  0  0  0  0  0  0  0  0  0  0  0
   11.4930   -0.7531   -3.6805 N   0  0  0  0  0  0  0  0  0  0  0  0
   -4.3567   -0.8845   -0.4364 H   0  0  0  0  0  0  0  0  0  0  0  0
    0.3253    1.3792    0.2917 O   0  0  0  0  0  0  0  0  0  0  0  0
    1.0333    0.8360   -0.0775 H   0  0  0  0  0  0  0  0  0  0  0  0
  1  2  2  0  0  0  0
  1  6  1  0  0  0  0
  2  3  1  0  0  0  0
  3 14  1  0  0  0  0
  3  4  2  0  0  0  0
  4  9  1  0  0  0  0
  5  4  1  0  0  0  0
  5 10  1  0  0  0  0
  6  5  2  0  0  0  0
  7  1  1  0  0  0  0
  8  2  1  0  0  0  0
 11 12  3  0  0  0  0
 13  6  1  0  0  0  0
 15 14  1  0  0  0  0
M  END
