Coordinates from ORCA-job Ph-N2-OH-B3LYPG-6-31G_dp-MTMO-d009-169-n800
 OpenBabel09051908283D

 15 14  0  0  0  0  0  0  0  0999 V2000
   -2.3020   -1.0618   -0.7272 C   0  0  0  0  0  0  0  0  0  0  0  0
   -1.0482   -0.4771   -0.5400 C   0  0  0  0  0  0  0  0  0  0  0  0
   -0.9475    0.7600    0.1055 C   0  0  0  0  0  0  0  0  0  0  0  0
   -2.1012    1.4080    0.5620 C   0  0  0  0  0  0  0  0  0  0  0  0
   -3.3461    0.8138    0.3689 C   0  0  0  0  0  0  0  0  0  0  0  0
   -3.4565   -0.4221   -0.2753 C   0  0  0  0  0  0  0  0  0  0  0  0
   -2.3709   -2.0231   -1.2279 H   0  0  0  0  0  0  0  0  0  0  0  0
   -0.1501   -0.9792   -0.8941 H   0  0  0  0  0  0  0  0  0  0  0  0
   -2.0007    2.3675    1.0583 H   0  0  0  0  0  0  0  0  0  0  0  0
   -4.2380    1.3216    0.7249 H   0  0  0  0  0  0  0  0  0  0  0  0
   13.0185   -0.8679   -4.1733 N   0  0  0  0  0  0  0  0  0  0  0  0
   11.9755   -0.7887   -3.8164 N   0  0  0  0  0  0  0  0  0  0  0  0
   -4.4299   -0.8789   -0.4230 H   0  0  0  0  0  0  0  0  0  0  0  0
    0.2499    1.3849    0.3189 O   0  0  0  0  0  0  0  0  0  0  0  0
    0.9590    0.8413   -0.0477 H   0  0  0  0  0  0  0  0  0  0  0  0
  1  2  2  0  0  0  0
  1  6  1  0  0  0  0
  2  3  1  0  0  0  0
  3 14  1  0  0  0  0
  3  4  2  0  0  0  0
  4  9  1  0  0  0  0
  5  4  1  0  0  0  0
  5 10  1  0  0  0  0
  6  5  2  0  0  0  0
  7  1  1  0  0  0  0
  8  2  1  0  0  0  0
 11 12  3  0  0  0  0
 13  6  1  0  0  0  0
 15 14  1  0  0  0  0
M  END
