Coordinates from ORCA-job Ph-N2-OH-B3LYPG-6-31G_dp-MTMO-d009-169-n800
 OpenBabel09051908283D

 15 14  0  0  0  0  0  0  0  0999 V2000
   -0.9801   -1.2368   -0.9101 C   0  0  0  0  0  0  0  0  0  0  0  0
    0.2870   -0.8294   -0.4884 C   0  0  0  0  0  0  0  0  0  0  0  0
    0.4649    0.4561    0.0359 C   0  0  0  0  0  0  0  0  0  0  0  0
   -0.6270    1.3262    0.1404 C   0  0  0  0  0  0  0  0  0  0  0  0
   -1.8862    0.9062   -0.2817 C   0  0  0  0  0  0  0  0  0  0  0  0
   -2.0724   -0.3747   -0.8103 C   0  0  0  0  0  0  0  0  0  0  0  0
   -1.1085   -2.2357   -1.3171 H   0  0  0  0  0  0  0  0  0  0  0  0
    1.1348   -1.5064   -0.5650 H   0  0  0  0  0  0  0  0  0  0  0  0
   -0.4676    2.3177    0.5510 H   0  0  0  0  0  0  0  0  0  0  0  0
   -2.7291    1.5866   -0.1979 H   0  0  0  0  0  0  0  0  0  0  0  0
    3.3906    0.4406   -2.8989 N   0  0  0  0  0  0  0  0  0  0  0  0
    3.4299    0.0731   -1.8579 N   0  0  0  0  0  0  0  0  0  0  0  0
   -3.0556   -0.6949   -1.1400 H   0  0  0  0  0  0  0  0  0  0  0  0
    1.6773    0.9178    0.4663 O   0  0  0  0  0  0  0  0  0  0  0  0
    2.3538    0.2520    0.2872 H   0  0  0  0  0  0  0  0  0  0  0  0
  1  6  2  0  0  0  0
  1  2  1  0  0  0  0
  2  3  2  0  0  0  0
  3  4  1  0  0  0  0
  3 14  1  0  0  0  0
  4  9  1  0  0  0  0
  5 10  1  0  0  0  0
  5  4  2  0  0  0  0
  6  5  1  0  0  0  0
  7  1  1  0  0  0  0
  8  2  1  0  0  0  0
 11 12  3  0  0  0  0
 13  6  1  0  0  0  0
 15 14  1  0  0  0  0
M  END
