Coordinates from ORCA-job Ph-N2-OH-B3LYPG-6-31G_dp-MTMO-d009-169-n800
 OpenBabel09051908283D

 15 14  0  0  0  0  0  0  0  0999 V2000
   -1.4753   -1.1340   -0.9704 C   0  0  0  0  0  0  0  0  0  0  0  0
   -0.1928   -0.5879   -0.8926 C   0  0  0  0  0  0  0  0  0  0  0  0
    0.0011    0.6421   -0.2547 C   0  0  0  0  0  0  0  0  0  0  0  0
   -1.0882    1.3216    0.3029 C   0  0  0  0  0  0  0  0  0  0  0  0
   -2.3627    0.7658    0.2181 C   0  0  0  0  0  0  0  0  0  0  0  0
   -2.5661   -0.4629   -0.4172 C   0  0  0  0  0  0  0  0  0  0  0  0
   -1.6167   -2.0901   -1.4659 H   0  0  0  0  0  0  0  0  0  0  0  0
    0.6555   -1.1144   -1.3253 H   0  0  0  0  0  0  0  0  0  0  0  0
   -0.9159    2.2749    0.7912 H   0  0  0  0  0  0  0  0  0  0  0  0
   -3.2043    1.2980    0.6521 H   0  0  0  0  0  0  0  0  0  0  0  0
    7.0326   -0.3015   -2.3874 N   0  0  0  0  0  0  0  0  0  0  0  0
    5.9855   -0.2190   -2.0434 N   0  0  0  0  0  0  0  0  0  0  0  0
   -3.5619   -0.8904   -0.4795 H   0  0  0  0  0  0  0  0  0  0  0  0
    1.2308    1.2300   -0.1450 O   0  0  0  0  0  0  0  0  0  0  0  0
    1.8901    0.6661   -0.5695 H   0  0  0  0  0  0  0  0  0  0  0  0
  1  2  2  0  0  0  0
  1  6  1  0  0  0  0
  2  3  1  0  0  0  0
  3 14  1  0  0  0  0
  3  4  2  0  0  0  0
  4  9  1  0  0  0  0
  5  4  1  0  0  0  0
  5 10  1  0  0  0  0
  6  5  2  0  0  0  0
  7  1  1  0  0  0  0
  8  2  1  0  0  0  0
 11 12  3  0  0  0  0
 13  6  1  0  0  0  0
 15 14  1  0  0  0  0
M  END
