Coordinates from ORCA-job Ph-N2-OH-B3LYPG-6-31G_dp-MTMO-d009-169-n800
 OpenBabel09051908283D

 15 14  0  0  0  0  0  0  0  0999 V2000
   -1.7924   -1.0979   -0.8752 C   0  0  0  0  0  0  0  0  0  0  0  0
   -0.5355   -0.5083   -0.7286 C   0  0  0  0  0  0  0  0  0  0  0  0
   -0.4176    0.7240   -0.0765 C   0  0  0  0  0  0  0  0  0  0  0  0
   -1.5570    1.3621    0.4271 C   0  0  0  0  0  0  0  0  0  0  0  0
   -2.8053    0.7630    0.2740 C   0  0  0  0  0  0  0  0  0  0  0  0
   -2.9328   -0.4681   -0.3763 C   0  0  0  0  0  0  0  0  0  0  0  0
   -1.8747   -2.0554   -1.3812 H   0  0  0  0  0  0  0  0  0  0  0  0
    0.3518   -1.0024   -1.1193 H   0  0  0  0  0  0  0  0  0  0  0  0
   -1.4435    2.3179    0.9275 H   0  0  0  0  0  0  0  0  0  0  0  0
   -3.6862    1.2631    0.6661 H   0  0  0  0  0  0  0  0  0  0  0  0
    9.5949   -0.6114   -3.1967 N   0  0  0  0  0  0  0  0  0  0  0  0
    8.5536   -0.5294   -2.8352 N   0  0  0  0  0  0  0  0  0  0  0  0
   -3.9088   -0.9288   -0.4922 H   0  0  0  0  0  0  0  0  0  0  0  0
    0.7837    1.3533    0.0987 O   0  0  0  0  0  0  0  0  0  0  0  0
    1.4815    0.8167   -0.2986 H   0  0  0  0  0  0  0  0  0  0  0  0
  1  2  2  0  0  0  0
  1  6  1  0  0  0  0
  2  3  1  0  0  0  0
  3 14  1  0  0  0  0
  3  4  2  0  0  0  0
  4  9  1  0  0  0  0
  5  4  1  0  0  0  0
  5 10  1  0  0  0  0
  6  5  2  0  0  0  0
  7  1  1  0  0  0  0
  8  2  1  0  0  0  0
 11 12  3  0  0  0  0
 13  6  1  0  0  0  0
 15 14  1  0  0  0  0
M  END
