Coordinates from ORCA-job Ph-N2-OH-B3LYPG-6-31G_dp-MTMO-d009-169-n800
 OpenBabel09051908283D

 15 14  0  0  0  0  0  0  0  0999 V2000
   -2.4791   -1.0492   -0.6774 C   0  0  0  0  0  0  0  0  0  0  0  0
   -1.2257   -0.4660   -0.4831 C   0  0  0  0  0  0  0  0  0  0  0  0
   -1.1276    0.7722    0.1611 C   0  0  0  0  0  0  0  0  0  0  0  0
   -2.2831    1.4226    0.6091 C   0  0  0  0  0  0  0  0  0  0  0  0
   -3.5277    0.8298    0.4088 C   0  0  0  0  0  0  0  0  0  0  0  0
   -3.6355   -0.4071   -0.2340 C   0  0  0  0  0  0  0  0  0  0  0  0
   -2.5462   -2.0112   -1.1770 H   0  0  0  0  0  0  0  0  0  0  0  0
   -0.3259   -0.9697   -0.8305 H   0  0  0  0  0  0  0  0  0  0  0  0
   -2.1845    2.3827    1.1044 H   0  0  0  0  0  0  0  0  0  0  0  0
   -4.4211    1.3393    0.7582 H   0  0  0  0  0  0  0  0  0  0  0  0
   14.1857   -0.9550   -4.4972 N   0  0  0  0  0  0  0  0  0  0  0  0
   13.1420   -0.8732   -4.1428 N   0  0  0  0  0  0  0  0  0  0  0  0
   -4.6087   -0.8627   -0.3872 H   0  0  0  0  0  0  0  0  0  0  0  0
    0.0694    1.3956    0.3810 O   0  0  0  0  0  0  0  0  0  0  0  0
    0.7799    0.8501    0.0201 H   0  0  0  0  0  0  0  0  0  0  0  0
  1  2  2  0  0  0  0
  1  6  1  0  0  0  0
  2  3  1  0  0  0  0
  3 14  1  0  0  0  0
  3  4  2  0  0  0  0
  4  9  1  0  0  0  0
  5  4  1  0  0  0  0
  5 10  1  0  0  0  0
  6  5  2  0  0  0  0
  7  1  1  0  0  0  0
  8  2  1  0  0  0  0
 11 12  3  0  0  0  0
 13  6  1  0  0  0  0
 15 14  1  0  0  0  0
M  END
