Coordinates from ORCA-job Ph-N2-OH-B3LYPG-6-31G_dp-MTMO-d009-169-n800
 OpenBabel09051908283D

 15 14  0  0  0  0  0  0  0  0999 V2000
   -1.8294   -1.0949   -0.8643 C   0  0  0  0  0  0  0  0  0  0  0  0
   -0.5736   -0.5041   -0.7131 C   0  0  0  0  0  0  0  0  0  0  0  0
   -0.4592    0.7284   -0.0609 C   0  0  0  0  0  0  0  0  0  0  0  0
   -1.6011    1.3658    0.4382 C   0  0  0  0  0  0  0  0  0  0  0  0
   -2.8483    0.7656    0.2805 C   0  0  0  0  0  0  0  0  0  0  0  0
   -2.9723   -0.4658   -0.3699 C   0  0  0  0  0  0  0  0  0  0  0  0
   -1.9090   -2.0525   -1.3703 H   0  0  0  0  0  0  0  0  0  0  0  0
    0.3156   -0.9976   -1.1002 H   0  0  0  0  0  0  0  0  0  0  0  0
   -1.4902    2.3218    0.9387 H   0  0  0  0  0  0  0  0  0  0  0  0
   -3.7310    1.2651    0.6691 H   0  0  0  0  0  0  0  0  0  0  0  0
    9.8588   -0.6344   -3.2746 N   0  0  0  0  0  0  0  0  0  0  0  0
    8.8175   -0.5530   -2.9130 N   0  0  0  0  0  0  0  0  0  0  0  0
   -3.9474   -0.9273   -0.4895 H   0  0  0  0  0  0  0  0  0  0  0  0
    0.7409    1.3587    0.1187 O   0  0  0  0  0  0  0  0  0  0  0  0
    1.4407    0.8226   -0.2758 H   0  0  0  0  0  0  0  0  0  0  0  0
  1  2  2  0  0  0  0
  1  6  1  0  0  0  0
  2  3  1  0  0  0  0
  3 14  1  0  0  0  0
  3  4  2  0  0  0  0
  4  9  1  0  0  0  0
  5  4  1  0  0  0  0
  5 10  1  0  0  0  0
  6  5  2  0  0  0  0
  7  1  1  0  0  0  0
  8  2  1  0  0  0  0
 11 12  3  0  0  0  0
 13  6  1  0  0  0  0
 15 14  1  0  0  0  0
M  END
