Coordinates from ORCA-job Ph-N2-OH-B3LYPG-6-31G_dp-MTMO-d009-169-n800
 OpenBabel09051908283D

 15 14  0  0  0  0  0  0  0  0999 V2000
   -2.0855   -1.0768   -0.7892 C   0  0  0  0  0  0  0  0  0  0  0  0
   -0.8313   -0.4889   -0.6150 C   0  0  0  0  0  0  0  0  0  0  0  0
   -0.7266    0.7464    0.0334 C   0  0  0  0  0  0  0  0  0  0  0  0
   -1.8768    1.3893    0.5057 C   0  0  0  0  0  0  0  0  0  0  0  0
   -3.1222    0.7920    0.3254 C   0  0  0  0  0  0  0  0  0  0  0  0
   -3.2364   -0.4422   -0.3216 C   0  0  0  0  0  0  0  0  0  0  0  0
   -2.1573   -2.0366   -1.2923 H   0  0  0  0  0  0  0  0  0  0  0  0
    0.0640   -0.9870   -0.9816 H   0  0  0  0  0  0  0  0  0  0  0  0
   -1.7734    2.3474    1.0039 H   0  0  0  0  0  0  0  0  0  0  0  0
   -4.0113    1.2959    0.6935 H   0  0  0  0  0  0  0  0  0  0  0  0
   11.5861   -0.7628   -3.7709 N   0  0  0  0  0  0  0  0  0  0  0  0
   10.5438   -0.6862   -3.4111 N   0  0  0  0  0  0  0  0  0  0  0  0
   -4.2102   -0.9015   -0.4592 H   0  0  0  0  0  0  0  0  0  0  0  0
    0.4712    1.3744    0.2348 O   0  0  0  0  0  0  0  0  0  0  0  0
    1.1777    0.8348   -0.1424 H   0  0  0  0  0  0  0  0  0  0  0  0
  1  2  2  0  0  0  0
  1  6  1  0  0  0  0
  2  3  1  0  0  0  0
  3 14  1  0  0  0  0
  3  4  2  0  0  0  0
  4  9  1  0  0  0  0
  5  4  1  0  0  0  0
  5 10  1  0  0  0  0
  6  5  2  0  0  0  0
  7  1  1  0  0  0  0
  8  2  1  0  0  0  0
 11 12  3  0  0  0  0
 13  6  1  0  0  0  0
 15 14  1  0  0  0  0
M  END
