Coordinates from ORCA-job Ph-N2-OH-B3LYPG-6-31G_dp-MTMO-d009-169-n800
 OpenBabel09051908283D

 15 14  0  0  0  0  0  0  0  0999 V2000
   -2.2544   -1.0653   -0.7406 C   0  0  0  0  0  0  0  0  0  0  0  0
   -1.0003   -0.4804   -0.5558 C   0  0  0  0  0  0  0  0  0  0  0  0
   -0.8986    0.7565    0.0901 C   0  0  0  0  0  0  0  0  0  0  0  0
   -2.0514    1.4042    0.5493 C   0  0  0  0  0  0  0  0  0  0  0  0
   -3.2966    0.8097    0.3584 C   0  0  0  0  0  0  0  0  0  0  0  0
   -3.4080   -0.4259   -0.2860 C   0  0  0  0  0  0  0  0  0  0  0  0
   -2.3242   -2.0264   -1.2416 H   0  0  0  0  0  0  0  0  0  0  0  0
   -0.1027   -0.9820   -0.9119 H   0  0  0  0  0  0  0  0  0  0  0  0
   -1.9501    2.3634    1.0457 H   0  0  0  0  0  0  0  0  0  0  0  0
   -4.1878    1.3171    0.7164 H   0  0  0  0  0  0  0  0  0  0  0  0
   12.7020   -0.8436   -4.0850 N   0  0  0  0  0  0  0  0  0  0  0  0
   11.6591   -0.7656   -3.7274 N   0  0  0  0  0  0  0  0  0  0  0  0
   -4.3817   -0.8828   -0.4319 H   0  0  0  0  0  0  0  0  0  0  0  0
    0.2992    1.3814    0.3011 O   0  0  0  0  0  0  0  0  0  0  0  0
    1.0074    0.8380   -0.0672 H   0  0  0  0  0  0  0  0  0  0  0  0
  1  2  2  0  0  0  0
  1  6  1  0  0  0  0
  2  3  1  0  0  0  0
  3 14  1  0  0  0  0
  3  4  2  0  0  0  0
  4  9  1  0  0  0  0
  5  4  1  0  0  0  0
  5 10  1  0  0  0  0
  6  5  2  0  0  0  0
  7  1  1  0  0  0  0
  8  2  1  0  0  0  0
 11 12  3  0  0  0  0
 13  6  1  0  0  0  0
 15 14  1  0  0  0  0
M  END
