Coordinates from ORCA-job Ph-N2-OH-B3LYPG-6-31G_dp-MTMO-d009-169-n800
 OpenBabel09051908283D

 15 14  0  0  0  0  0  0  0  0999 V2000
   -1.4391   -1.1475   -0.9908 C   0  0  0  0  0  0  0  0  0  0  0  0
   -0.1362   -0.6469   -0.9653 C   0  0  0  0  0  0  0  0  0  0  0  0
    0.1253    0.5778   -0.3415 C   0  0  0  0  0  0  0  0  0  0  0  0
   -0.9175    1.2975    0.2539 C   0  0  0  0  0  0  0  0  0  0  0  0
   -2.2130    0.7868    0.2212 C   0  0  0  0  0  0  0  0  0  0  0  0
   -2.4836   -0.4365   -0.3994 C   0  0  0  0  0  0  0  0  0  0  0  0
   -1.6332   -2.0998   -1.4757 H   0  0  0  0  0  0  0  0  0  0  0  0
    0.6756   -1.2049   -1.4275 H   0  0  0  0  0  0  0  0  0  0  0  0
   -0.6927    2.2458    0.7304 H   0  0  0  0  0  0  0  0  0  0  0  0
   -3.0179    1.3500    0.6847 H   0  0  0  0  0  0  0  0  0  0  0  0
    6.3627   -0.1038   -2.0653 N   0  0  0  0  0  0  0  0  0  0  0  0
    5.2947   -0.0467   -1.7863 N   0  0  0  0  0  0  0  0  0  0  0  0
   -3.4954   -0.8293   -0.4207 H   0  0  0  0  0  0  0  0  0  0  0  0
    1.3781    1.1224   -0.2813 O   0  0  0  0  0  0  0  0  0  0  0  0
    2.0042    0.5336   -0.7227 H   0  0  0  0  0  0  0  0  0  0  0  0
  1  2  2  0  0  0  0
  1  6  1  0  0  0  0
  2  3  1  0  0  0  0
  3 14  1  0  0  0  0
  3  4  2  0  0  0  0
  4  9  1  0  0  0  0
  5  4  1  0  0  0  0
  5 10  1  0  0  0  0
  6  5  2  0  0  0  0
  7  1  1  0  0  0  0
  8  2  1  0  0  0  0
 11 12  3  0  0  0  0
 13  6  1  0  0  0  0
 15 14  1  0  0  0  0
M  END
