Coordinates from ORCA-job Ph-N2-OH-B3LYPG-6-31G_dp-MTMO-d009-169-n800
 OpenBabel09051908283D

 15 14  0  0  0  0  0  0  0  0999 V2000
   -1.2758   -1.4234   -0.9533 C   0  0  0  0  0  0  0  0  0  0  0  0
    0.0726   -1.1112   -1.1859 C   0  0  0  0  0  0  0  0  0  0  0  0
    0.4282    0.2081   -1.0289 C   0  0  0  0  0  0  0  0  0  0  0  0
   -0.4118    1.2439   -0.6900 C   0  0  0  0  0  0  0  0  0  0  0  0
   -1.7547    0.9053   -0.4651 C   0  0  0  0  0  0  0  0  0  0  0  0
   -2.1797   -0.4200   -0.5954 C   0  0  0  0  0  0  0  0  0  0  0  0
   -1.6129   -2.4511   -1.0591 H   0  0  0  0  0  0  0  0  0  0  0  0
    0.7907   -1.8712   -1.4732 H   0  0  0  0  0  0  0  0  0  0  0  0
   -0.0597    2.2645   -0.5928 H   0  0  0  0  0  0  0  0  0  0  0  0
   -2.4625    1.6820   -0.1882 H   0  0  0  0  0  0  0  0  0  0  0  0
    2.4562    0.6991   -1.5935 N   0  0  0  0  0  0  0  0  0  0  0  0
    3.1648    0.8420   -0.6418 N   0  0  0  0  0  0  0  0  0  0  0  0
   -3.2211   -0.6715   -0.4184 H   0  0  0  0  0  0  0  0  0  0  0  0
    2.5649    0.6713    0.6494 O   0  0  0  0  0  0  0  0  0  0  0  0
    3.3126    0.8306    1.2499 H   0  0  0  0  0  0  0  0  0  0  0  0
  1  6  2  0  0  0  0
  2  3  2  0  0  0  0
  2  1  1  0  0  0  0
  3  4  1  0  0  0  0
  4  9  1  0  0  0  0
  4  5  2  0  0  0  0
  5 10  1  0  0  0  0
  6  5  1  0  0  0  0
  6 13  1  0  0  0  0
  7  1  1  0  0  0  0
  8  2  1  0  0  0  0
 11 12  2  0  0  0  0
 12 14  1  0  0  0  0
 14 15  1  0  0  0  0
M  RAD  2   3   2  11   2
M  END
