Coordinates from ORCA-job Ph-N2-OH-B3LYPG-6-31G_dp-MTMO-d009-169-n800
 OpenBabel09051908283D

 15 14  0  0  0  0  0  0  0  0999 V2000
   -1.4828   -1.1330   -0.9683 C   0  0  0  0  0  0  0  0  0  0  0  0
   -0.2012   -0.5853   -0.8887 C   0  0  0  0  0  0  0  0  0  0  0  0
   -0.0096    0.6448   -0.2502 C   0  0  0  0  0  0  0  0  0  0  0  0
   -1.1004    1.3227    0.3063 C   0  0  0  0  0  0  0  0  0  0  0  0
   -2.3741    0.7652    0.2198 C   0  0  0  0  0  0  0  0  0  0  0  0
   -2.5751   -0.4635   -0.4161 C   0  0  0  0  0  0  0  0  0  0  0  0
   -1.6224   -2.0891   -1.4642 H   0  0  0  0  0  0  0  0  0  0  0  0
    0.6483   -1.1105   -1.3206 H   0  0  0  0  0  0  0  0  0  0  0  0
   -0.9300    2.2761    0.7950 H   0  0  0  0  0  0  0  0  0  0  0  0
   -3.2169    1.2962    0.6530 H   0  0  0  0  0  0  0  0  0  0  0  0
    7.0973   -0.3107   -2.4074 N   0  0  0  0  0  0  0  0  0  0  0  0
    6.0501   -0.2277   -2.0636 N   0  0  0  0  0  0  0  0  0  0  0  0
   -3.5704   -0.8923   -0.4797 H   0  0  0  0  0  0  0  0  0  0  0  0
    1.2192    1.2342   -0.1389 O   0  0  0  0  0  0  0  0  0  0  0  0
    1.8796    0.6713   -0.5630 H   0  0  0  0  0  0  0  0  0  0  0  0
  1  2  2  0  0  0  0
  1  6  1  0  0  0  0
  2  3  1  0  0  0  0
  3 14  1  0  0  0  0
  3  4  2  0  0  0  0
  4  9  1  0  0  0  0
  5  4  1  0  0  0  0
  5 10  1  0  0  0  0
  6  5  2  0  0  0  0
  7  1  1  0  0  0  0
  8  2  1  0  0  0  0
 11 12  3  0  0  0  0
 13  6  1  0  0  0  0
 15 14  1  0  0  0  0
M  END
