Coordinates from ORCA-job Ph-N2-OH-B3LYPG-6-31G_dp-MTMO-d009-169-n800
 OpenBabel09051908283D

 15 14  0  0  0  0  0  0  0  0999 V2000
   -2.0039   -1.0819   -0.8133 C   0  0  0  0  0  0  0  0  0  0  0  0
   -0.7503   -0.4909   -0.6457 C   0  0  0  0  0  0  0  0  0  0  0  0
   -0.6451    0.7433    0.0050 C   0  0  0  0  0  0  0  0  0  0  0  0
   -1.7939    1.3820    0.4861 C   0  0  0  0  0  0  0  0  0  0  0  0
   -3.0388    0.7815    0.3121 C   0  0  0  0  0  0  0  0  0  0  0  0
   -3.1537   -0.4514   -0.3370 C   0  0  0  0  0  0  0  0  0  0  0  0
   -2.0764   -2.0407   -1.3182 H   0  0  0  0  0  0  0  0  0  0  0  0
    0.1442   -0.9855   -1.0189 H   0  0  0  0  0  0  0  0  0  0  0  0
   -1.6900    2.3392    0.9858 H   0  0  0  0  0  0  0  0  0  0  0  0
   -3.9269    1.2821    0.6869 H   0  0  0  0  0  0  0  0  0  0  0  0
   11.0528   -0.7280   -3.6185 N   0  0  0  0  0  0  0  0  0  0  0  0
   10.0107   -0.6486   -3.2585 N   0  0  0  0  0  0  0  0  0  0  0  0
   -4.1270   -0.9131   -0.4694 H   0  0  0  0  0  0  0  0  0  0  0  0
    0.5524    1.3738    0.2001 O   0  0  0  0  0  0  0  0  0  0  0  0
    1.2577    0.8366   -0.1829 H   0  0  0  0  0  0  0  0  0  0  0  0
  1  2  2  0  0  0  0
  1  6  1  0  0  0  0
  2  3  1  0  0  0  0
  3 14  1  0  0  0  0
  3  4  2  0  0  0  0
  4  9  1  0  0  0  0
  5  4  1  0  0  0  0
  5 10  1  0  0  0  0
  6  5  2  0  0  0  0
  7  1  1  0  0  0  0
  8  2  1  0  0  0  0
 11 12  3  0  0  0  0
 13  6  1  0  0  0  0
 15 14  1  0  0  0  0
M  END
