Coordinates from ORCA-job Ph-N2-OH-B3LYPG-6-31G_dp-MTMO-d009-169-n800
 OpenBabel09051908283D

 15 14  0  0  0  0  0  0  0  0999 V2000
   -1.3872   -1.1488   -1.0020 C   0  0  0  0  0  0  0  0  0  0  0  0
   -0.0843   -0.6484   -0.9722 C   0  0  0  0  0  0  0  0  0  0  0  0
    0.1755    0.5765   -0.3479 C   0  0  0  0  0  0  0  0  0  0  0  0
   -0.8694    1.2965    0.2434 C   0  0  0  0  0  0  0  0  0  0  0  0
   -2.1648    0.7861    0.2065 C   0  0  0  0  0  0  0  0  0  0  0  0
   -2.4336   -0.4374   -0.4145 C   0  0  0  0  0  0  0  0  0  0  0  0
   -1.5798   -2.1013   -1.4871 H   0  0  0  0  0  0  0  0  0  0  0  0
    0.7290   -1.2067   -1.4314 H   0  0  0  0  0  0  0  0  0  0  0  0
   -0.6461    2.2450    0.7203 H   0  0  0  0  0  0  0  0  0  0  0  0
   -2.9712    1.3497    0.6670 H   0  0  0  0  0  0  0  0  0  0  0  0
    6.0337   -0.1029   -2.0075 N   0  0  0  0  0  0  0  0  0  0  0  0
    4.9698   -0.0335   -1.7160 N   0  0  0  0  0  0  0  0  0  0  0  0
   -3.4454   -0.8300   -0.4391 H   0  0  0  0  0  0  0  0  0  0  0  0
    1.4282    1.1208   -0.2837 O   0  0  0  0  0  0  0  0  0  0  0  0
    2.0573    0.5330   -0.7225 H   0  0  0  0  0  0  0  0  0  0  0  0
  1  2  2  0  0  0  0
  1  6  1  0  0  0  0
  2  3  1  0  0  0  0
  3 14  1  0  0  0  0
  3  4  2  0  0  0  0
  4  9  1  0  0  0  0
  5  4  1  0  0  0  0
  5 10  1  0  0  0  0
  6  5  2  0  0  0  0
  7  1  1  0  0  0  0
  8  2  1  0  0  0  0
 11 12  3  0  0  0  0
 13  6  1  0  0  0  0
 15 14  1  0  0  0  0
M  END
