Coordinates from ORCA-job Ph-N2-OH-B3LYPG-6-31G_dp-MTMO-d009-169-n800
 OpenBabel09051908283D

 15 14  0  0  0  0  0  0  0  0999 V2000
   -1.4714   -1.1345   -0.9715 C   0  0  0  0  0  0  0  0  0  0  0  0
   -0.1886   -0.5891   -0.8945 C   0  0  0  0  0  0  0  0  0  0  0  0
    0.0065    0.6409   -0.2569 C   0  0  0  0  0  0  0  0  0  0  0  0
   -1.0822    1.3211    0.3012 C   0  0  0  0  0  0  0  0  0  0  0  0
   -2.3570    0.7660    0.2172 C   0  0  0  0  0  0  0  0  0  0  0  0
   -2.5615   -0.4626   -0.4178 C   0  0  0  0  0  0  0  0  0  0  0  0
   -1.6136   -2.0905   -1.4668 H   0  0  0  0  0  0  0  0  0  0  0  0
    0.6592   -1.1162   -1.3275 H   0  0  0  0  0  0  0  0  0  0  0  0
   -0.9090    2.2743    0.7893 H   0  0  0  0  0  0  0  0  0  0  0  0
   -3.1980    1.2988    0.6516 H   0  0  0  0  0  0  0  0  0  0  0  0
    7.0001   -0.2970   -2.3776 N   0  0  0  0  0  0  0  0  0  0  0  0
    5.9531   -0.2149   -2.0333 N   0  0  0  0  0  0  0  0  0  0  0  0
   -3.5576   -0.8896   -0.4795 H   0  0  0  0  0  0  0  0  0  0  0  0
    1.2365    1.2280   -0.1479 O   0  0  0  0  0  0  0  0  0  0  0  0
    1.8954    0.6636   -0.5726 H   0  0  0  0  0  0  0  0  0  0  0  0
  1  2  2  0  0  0  0
  1  6  1  0  0  0  0
  2  3  1  0  0  0  0
  3 14  1  0  0  0  0
  3  4  2  0  0  0  0
  4  9  1  0  0  0  0
  5  4  1  0  0  0  0
  5 10  1  0  0  0  0
  6  5  2  0  0  0  0
  7  1  1  0  0  0  0
  8  2  1  0  0  0  0
 11 12  3  0  0  0  0
 13  6  1  0  0  0  0
 15 14  1  0  0  0  0
M  END
