Coordinates from ORCA-job Ph-N2-OH-B3LYPG-6-31G_dp-MTMO-d009-169-n800
 OpenBabel09051908283D

 15 14  0  0  0  0  0  0  0  0999 V2000
   -0.9996   -1.2232   -0.9231 C   0  0  0  0  0  0  0  0  0  0  0  0
    0.2715   -0.7991   -0.5311 C   0  0  0  0  0  0  0  0  0  0  0  0
    0.4411    0.4804    0.0105 C   0  0  0  0  0  0  0  0  0  0  0  0
   -0.6635    1.3276    0.1619 C   0  0  0  0  0  0  0  0  0  0  0  0
   -1.9264    0.8910   -0.2311 C   0  0  0  0  0  0  0  0  0  0  0  0
   -2.1043   -0.3839   -0.7765 C   0  0  0  0  0  0  0  0  0  0  0  0
   -1.1215   -2.2173   -1.3435 H   0  0  0  0  0  0  0  0  0  0  0  0
    1.1289   -1.4586   -0.6442 H   0  0  0  0  0  0  0  0  0  0  0  0
   -0.5104    2.3149    0.5847 H   0  0  0  0  0  0  0  0  0  0  0  0
   -2.7789    1.5538   -0.1108 H   0  0  0  0  0  0  0  0  0  0  0  0
    3.6472    0.3281   -2.8872 N   0  0  0  0  0  0  0  0  0  0  0  0
    3.5218    0.0365   -1.8291 N   0  0  0  0  0  0  0  0  0  0  0  0
   -3.0907   -0.7171   -1.0832 H   0  0  0  0  0  0  0  0  0  0  0  0
    1.6566    0.9573    0.4135 O   0  0  0  0  0  0  0  0  0  0  0  0
    2.3400    0.3081    0.2027 H   0  0  0  0  0  0  0  0  0  0  0  0
  1  6  2  0  0  0  0
  1  2  1  0  0  0  0
  2  3  2  0  0  0  0
  3  4  1  0  0  0  0
  3 14  1  0  0  0  0
  4  9  1  0  0  0  0
  5 10  1  0  0  0  0
  5  4  2  0  0  0  0
  6  5  1  0  0  0  0
  7  1  1  0  0  0  0
  8  2  1  0  0  0  0
 11 12  3  0  0  0  0
 13  6  1  0  0  0  0
 15 14  1  0  0  0  0
M  END
