Coordinates from ORCA-job Ph-N2-OH-B3LYPG-6-31G_dp-MTMO-d009-169-n800
 OpenBabel09051908283D

 15 14  0  0  0  0  0  0  0  0999 V2000
   -1.0392   -1.1838   -0.9676 C   0  0  0  0  0  0  0  0  0  0  0  0
    0.2372   -0.7131   -0.6540 C   0  0  0  0  0  0  0  0  0  0  0  0
    0.3883    0.5476   -0.0642 C   0  0  0  0  0  0  0  0  0  0  0  0
   -0.7406    1.3287    0.2123 C   0  0  0  0  0  0  0  0  0  0  0  0
   -2.0084    0.8464   -0.1040 C   0  0  0  0  0  0  0  0  0  0  0  0
   -2.1679   -0.4102   -0.6958 C   0  0  0  0  0  0  0  0  0  0  0  0
   -1.1465   -2.1632   -1.4249 H   0  0  0  0  0  0  0  0  0  0  0  0
    1.1129   -1.3223   -0.8647 H   0  0  0  0  0  0  0  0  0  0  0  0
   -0.6019    2.3028    0.6696 H   0  0  0  0  0  0  0  0  0  0  0  0
   -2.8792    1.4585    0.1135 H   0  0  0  0  0  0  0  0  0  0  0  0
    4.1778   -0.0079   -2.7620 N   0  0  0  0  0  0  0  0  0  0  0  0
    3.7282   -0.0338   -1.7535 N   0  0  0  0  0  0  0  0  0  0  0  0
   -3.1584   -0.7796   -0.9419 H   0  0  0  0  0  0  0  0  0  0  0  0
    1.6067    1.0671    0.2684 O   0  0  0  0  0  0  0  0  0  0  0  0
    2.3028    0.4614   -0.0176 H   0  0  0  0  0  0  0  0  0  0  0  0
  1  6  2  0  0  0  0
  1  2  1  0  0  0  0
  2  3  2  0  0  0  0
  3  4  1  0  0  0  0
  3 14  1  0  0  0  0
  4  9  1  0  0  0  0
  5 10  1  0  0  0  0
  5  4  2  0  0  0  0
  6  5  1  0  0  0  0
  7  1  1  0  0  0  0
  8  2  1  0  0  0  0
 11 12  3  0  0  0  0
 13  6  1  0  0  0  0
 15 14  1  0  0  0  0
M  END
