Coordinates from ORCA-job Ph-N2-OH-B3LYPG-6-31G_dp-MTMO-d009-169-n800
 OpenBabel09051908283D

 15 14  0  0  0  0  0  0  0  0999 V2000
   -1.8412   -1.0939   -0.8608 C   0  0  0  0  0  0  0  0  0  0  0  0
   -0.5856   -0.5029   -0.7083 C   0  0  0  0  0  0  0  0  0  0  0  0
   -0.4722    0.7297   -0.0561 C   0  0  0  0  0  0  0  0  0  0  0  0
   -1.6147    1.3669    0.4416 C   0  0  0  0  0  0  0  0  0  0  0  0
   -2.8616    0.7665    0.2825 C   0  0  0  0  0  0  0  0  0  0  0  0
   -2.9847   -0.4650   -0.3678 C   0  0  0  0  0  0  0  0  0  0  0  0
   -1.9200   -2.0516   -1.3669 H   0  0  0  0  0  0  0  0  0  0  0  0
    0.3041   -0.9963   -1.0943 H   0  0  0  0  0  0  0  0  0  0  0  0
   -1.5046    2.3230    0.9421 H   0  0  0  0  0  0  0  0  0  0  0  0
   -3.7449    1.2658    0.6701 H   0  0  0  0  0  0  0  0  0  0  0  0
    9.9414   -0.6414   -3.2988 N   0  0  0  0  0  0  0  0  0  0  0  0
    8.9000   -0.5602   -2.9372 N   0  0  0  0  0  0  0  0  0  0  0  0
   -3.9596   -0.9267   -0.4885 H   0  0  0  0  0  0  0  0  0  0  0  0
    0.7276    1.3603    0.1248 O   0  0  0  0  0  0  0  0  0  0  0  0
    1.4279    0.8242   -0.2689 H   0  0  0  0  0  0  0  0  0  0  0  0
  1  2  2  0  0  0  0
  1  6  1  0  0  0  0
  2  3  1  0  0  0  0
  3 14  1  0  0  0  0
  3  4  2  0  0  0  0
  4  9  1  0  0  0  0
  5  4  1  0  0  0  0
  5 10  1  0  0  0  0
  6  5  2  0  0  0  0
  7  1  1  0  0  0  0
  8  2  1  0  0  0  0
 11 12  3  0  0  0  0
 13  6  1  0  0  0  0
 15 14  1  0  0  0  0
M  END
