Coordinates from ORCA-job Ph-N2-OH-B3LYPG-6-31G_dp-MTMO-d009-169-n800
 OpenBabel09051908283D

 15 14  0  0  0  0  0  0  0  0999 V2000
   -1.8016   -1.0972   -0.8724 C   0  0  0  0  0  0  0  0  0  0  0  0
   -0.5450   -0.5072   -0.7247 C   0  0  0  0  0  0  0  0  0  0  0  0
   -0.4280    0.7251   -0.0726 C   0  0  0  0  0  0  0  0  0  0  0  0
   -1.5681    1.3630    0.4299 C   0  0  0  0  0  0  0  0  0  0  0  0
   -2.8161    0.7636    0.2756 C   0  0  0  0  0  0  0  0  0  0  0  0
   -2.9427   -0.4675   -0.3747 C   0  0  0  0  0  0  0  0  0  0  0  0
   -1.8831   -2.0546   -1.3785 H   0  0  0  0  0  0  0  0  0  0  0  0
    0.3428   -1.0011   -1.1144 H   0  0  0  0  0  0  0  0  0  0  0  0
   -1.4552    2.3189    0.9303 H   0  0  0  0  0  0  0  0  0  0  0  0
   -3.6975    1.2635    0.6668 H   0  0  0  0  0  0  0  0  0  0  0  0
    9.6608   -0.6172   -3.2163 N   0  0  0  0  0  0  0  0  0  0  0  0
    8.6195   -0.5354   -2.8547 N   0  0  0  0  0  0  0  0  0  0  0  0
   -3.9184   -0.9285   -0.4916 H   0  0  0  0  0  0  0  0  0  0  0  0
    0.7729    1.3547    0.1037 O   0  0  0  0  0  0  0  0  0  0  0  0
    1.4713    0.8183   -0.2929 H   0  0  0  0  0  0  0  0  0  0  0  0
  1  2  2  0  0  0  0
  1  6  1  0  0  0  0
  2  3  1  0  0  0  0
  3 14  1  0  0  0  0
  3  4  2  0  0  0  0
  4  9  1  0  0  0  0
  5  4  1  0  0  0  0
  5 10  1  0  0  0  0
  6  5  2  0  0  0  0
  7  1  1  0  0  0  0
  8  2  1  0  0  0  0
 11 12  3  0  0  0  0
 13  6  1  0  0  0  0
 15 14  1  0  0  0  0
M  END
