Coordinates from ORCA-job Ph-N2-OH-B3LYPG-6-31G_dp-MTMO-d009-169-n800
 OpenBabel09051908283D

 15 14  0  0  0  0  0  0  0  0999 V2000
   -2.1694   -1.0713   -0.7648 C   0  0  0  0  0  0  0  0  0  0  0  0
   -0.9148   -0.4858   -0.5850 C   0  0  0  0  0  0  0  0  0  0  0  0
   -0.8111    0.7505    0.0617 C   0  0  0  0  0  0  0  0  0  0  0  0
   -1.9624    1.3968    0.5266 C   0  0  0  0  0  0  0  0  0  0  0  0
   -3.2080    0.8018    0.3407 C   0  0  0  0  0  0  0  0  0  0  0  0
   -3.3214   -0.4334   -0.3045 C   0  0  0  0  0  0  0  0  0  0  0  0
   -2.2405   -2.0319   -1.2665 H   0  0  0  0  0  0  0  0  0  0  0  0
   -0.0186   -0.9866   -0.9457 H   0  0  0  0  0  0  0  0  0  0  0  0
   -1.8595    2.3556    1.0236 H   0  0  0  0  0  0  0  0  0  0  0  0
   -4.0980    1.3083    0.7031 H   0  0  0  0  0  0  0  0  0  0  0  0
   12.1360   -0.8009   -3.9263 N   0  0  0  0  0  0  0  0  0  0  0  0
   11.0935   -0.7245   -3.5674 N   0  0  0  0  0  0  0  0  0  0  0  0
   -4.2954   -0.8909   -0.4466 H   0  0  0  0  0  0  0  0  0  0  0  0
    0.3871    1.3763    0.2684 O   0  0  0  0  0  0  0  0  0  0  0  0
    1.0944    0.8343   -0.1038 H   0  0  0  0  0  0  0  0  0  0  0  0
  1  2  2  0  0  0  0
  1  6  1  0  0  0  0
  2  3  1  0  0  0  0
  3 14  1  0  0  0  0
  3  4  2  0  0  0  0
  4  9  1  0  0  0  0
  5  4  1  0  0  0  0
  5 10  1  0  0  0  0
  6  5  2  0  0  0  0
  7  1  1  0  0  0  0
  8  2  1  0  0  0  0
 11 12  3  0  0  0  0
 13  6  1  0  0  0  0
 15 14  1  0  0  0  0
M  END
