Coordinates from ORCA-job Ph-N2-OH-B3LYPG-6-31G_dp-MTMO-d009-169-n800
 OpenBabel09051908283D

 15 14  0  0  0  0  0  0  0  0999 V2000
   -1.3129   -1.4313   -0.9404 C   0  0  0  0  0  0  0  0  0  0  0  0
    0.0409   -1.1147   -1.1489 C   0  0  0  0  0  0  0  0  0  0  0  0
    0.3693    0.2084   -0.9975 C   0  0  0  0  0  0  0  0  0  0  0  0
   -0.4687    1.2466   -0.6783 C   0  0  0  0  0  0  0  0  0  0  0  0
   -1.8156    0.8986   -0.4771 C   0  0  0  0  0  0  0  0  0  0  0  0
   -2.2287   -0.4302   -0.6075 C   0  0  0  0  0  0  0  0  0  0  0  0
   -1.6407   -2.4624   -1.0447 H   0  0  0  0  0  0  0  0  0  0  0  0
    0.7688   -1.8736   -1.4128 H   0  0  0  0  0  0  0  0  0  0  0  0
   -0.1243    2.2697   -0.5801 H   0  0  0  0  0  0  0  0  0  0  0  0
   -2.5325    1.6735   -0.2180 H   0  0  0  0  0  0  0  0  0  0  0  0
    2.6903    0.8042   -1.6440 N   0  0  0  0  0  0  0  0  0  0  0  0
    3.3346    0.8908   -0.6592 N   0  0  0  0  0  0  0  0  0  0  0  0
   -3.2716   -0.6871   -0.4485 H   0  0  0  0  0  0  0  0  0  0  0  0
    2.6473    0.6410    0.6070 O   0  0  0  0  0  0  0  0  0  0  0  0
    3.3557    0.7649    1.2635 H   0  0  0  0  0  0  0  0  0  0  0  0
  1  6  2  0  0  0  0
  2  3  2  0  0  0  0
  2  1  1  0  0  0  0
  3  4  1  0  0  0  0
  4  9  1  0  0  0  0
  4  5  2  0  0  0  0
  5 10  1  0  0  0  0
  6  5  1  0  0  0  0
  6 13  1  0  0  0  0
  7  1  1  0  0  0  0
  8  2  1  0  0  0  0
 11 12  2  0  0  0  0
 12 14  1  0  0  0  0
 14 15  1  0  0  0  0
M  RAD  2   3   2  11   2
M  END
