Coordinates from ORCA-job Ph-N2-OH-B3LYPG-6-31G_dp-MTMO-d009-169-n800
 OpenBabel09051908283D

 15 14  0  0  0  0  0  0  0  0999 V2000
   -2.5223   -1.0464   -0.6642 C   0  0  0  0  0  0  0  0  0  0  0  0
   -1.2696   -0.4636   -0.4642 C   0  0  0  0  0  0  0  0  0  0  0  0
   -1.1740    0.7753    0.1789 C   0  0  0  0  0  0  0  0  0  0  0  0
   -2.3315    1.4273    0.6195 C   0  0  0  0  0  0  0  0  0  0  0  0
   -3.5754    0.8351    0.4133 C   0  0  0  0  0  0  0  0  0  0  0  0
   -3.6807   -0.4028   -0.2280 C   0  0  0  0  0  0  0  0  0  0  0  0
   -2.5874   -2.0090   -1.1629 H   0  0  0  0  0  0  0  0  0  0  0  0
   -0.3684   -0.9680   -0.8071 H   0  0  0  0  0  0  0  0  0  0  0  0
   -2.2349    2.3880    1.1140 H   0  0  0  0  0  0  0  0  0  0  0  0
   -4.4703    1.3457    0.7571 H   0  0  0  0  0  0  0  0  0  0  0  0
   14.4830   -0.9780   -4.5856 N   0  0  0  0  0  0  0  0  0  0  0  0
   13.4398   -0.8945   -4.2299 N   0  0  0  0  0  0  0  0  0  0  0  0
   -4.6533   -0.8580   -0.3857 H   0  0  0  0  0  0  0  0  0  0  0  0
    0.0221    1.3981    0.4048 O   0  0  0  0  0  0  0  0  0  0  0  0
    0.7348    0.8492    0.0536 H   0  0  0  0  0  0  0  0  0  0  0  0
  1  2  2  0  0  0  0
  1  6  1  0  0  0  0
  2  3  1  0  0  0  0
  3 14  1  0  0  0  0
  3  4  2  0  0  0  0
  4  9  1  0  0  0  0
  5  4  1  0  0  0  0
  5 10  1  0  0  0  0
  6  5  2  0  0  0  0
  7  1  1  0  0  0  0
  8  2  1  0  0  0  0
 11 12  3  0  0  0  0
 13  6  1  0  0  0  0
 15 14  1  0  0  0  0
M  END
