Coordinates from ORCA-job Ph-N2-OH-B3LYPG-6-31G_dp-MTMO-d009-169-n800
 OpenBabel09051908283D

 15 14  0  0  0  0  0  0  0  0999 V2000
   -1.4103   -1.1485   -0.9971 C   0  0  0  0  0  0  0  0  0  0  0  0
   -0.1071   -0.6488   -0.9697 C   0  0  0  0  0  0  0  0  0  0  0  0
    0.1545    0.5760   -0.3460 C   0  0  0  0  0  0  0  0  0  0  0  0
   -0.8888    1.2966    0.2474 C   0  0  0  0  0  0  0  0  0  0  0  0
   -2.1846    0.7868    0.2129 C   0  0  0  0  0  0  0  0  0  0  0  0
   -2.4553   -0.4365   -0.4076 C   0  0  0  0  0  0  0  0  0  0  0  0
   -1.6043   -2.1008   -1.4819 H   0  0  0  0  0  0  0  0  0  0  0  0
    0.7050   -1.2075   -1.4305 H   0  0  0  0  0  0  0  0  0  0  0  0
   -0.6641    2.2449    0.7239 H   0  0  0  0  0  0  0  0  0  0  0  0
   -2.9898    1.3509    0.6750 H   0  0  0  0  0  0  0  0  0  0  0  0
    6.1738   -0.0998   -2.0297 N   0  0  0  0  0  0  0  0  0  0  0  0
    5.1077   -0.0367   -1.7446 N   0  0  0  0  0  0  0  0  0  0  0  0
   -3.4673   -0.8285   -0.4303 H   0  0  0  0  0  0  0  0  0  0  0  0
    1.4076    1.1196   -0.2841 O   0  0  0  0  0  0  0  0  0  0  0  0
    2.0347    0.5307   -0.7243 H   0  0  0  0  0  0  0  0  0  0  0  0
  1  2  2  0  0  0  0
  1  6  1  0  0  0  0
  2  3  1  0  0  0  0
  3 14  1  0  0  0  0
  3  4  2  0  0  0  0
  4  9  1  0  0  0  0
  5  4  1  0  0  0  0
  5 10  1  0  0  0  0
  6  5  2  0  0  0  0
  7  1  1  0  0  0  0
  8  2  1  0  0  0  0
 11 12  3  0  0  0  0
 13  6  1  0  0  0  0
 15 14  1  0  0  0  0
M  END
