Coordinates from ORCA-job Ph-N2-OH-B3LYPG-6-31G_dp-MTMO-d009-169-n800
 OpenBabel09051908283D

 15 14  0  0  0  0  0  0  0  0999 V2000
   -2.3827   -1.0561   -0.7044 C   0  0  0  0  0  0  0  0  0  0  0  0
   -1.1291   -0.4719   -0.5137 C   0  0  0  0  0  0  0  0  0  0  0  0
   -1.0298    0.7657    0.1313 C   0  0  0  0  0  0  0  0  0  0  0  0
   -2.1846    1.4147    0.5835 C   0  0  0  0  0  0  0  0  0  0  0  0
   -3.4293    0.8211    0.3867 C   0  0  0  0  0  0  0  0  0  0  0  0
   -3.5382   -0.4153   -0.2568 C   0  0  0  0  0  0  0  0  0  0  0  0
   -2.4504   -2.0177   -1.2047 H   0  0  0  0  0  0  0  0  0  0  0  0
   -0.2301   -0.9747   -0.8645 H   0  0  0  0  0  0  0  0  0  0  0  0
   -2.0852    2.3744    1.0794 H   0  0  0  0  0  0  0  0  0  0  0  0
   -4.3220    1.3296    0.7395 H   0  0  0  0  0  0  0  0  0  0  0  0
   13.5519   -0.9081   -4.3217 N   0  0  0  0  0  0  0  0  0  0  0  0
   12.5085   -0.8274   -3.9660 N   0  0  0  0  0  0  0  0  0  0  0  0
   -4.5115   -0.8717   -0.4073 H   0  0  0  0  0  0  0  0  0  0  0  0
    0.1672    1.3901    0.3481 O   0  0  0  0  0  0  0  0  0  0  0  0
    0.8772    0.8458   -0.0157 H   0  0  0  0  0  0  0  0  0  0  0  0
  1  2  2  0  0  0  0
  1  6  1  0  0  0  0
  2  3  1  0  0  0  0
  3 14  1  0  0  0  0
  3  4  2  0  0  0  0
  4  9  1  0  0  0  0
  5  4  1  0  0  0  0
  5 10  1  0  0  0  0
  6  5  2  0  0  0  0
  7  1  1  0  0  0  0
  8  2  1  0  0  0  0
 11 12  3  0  0  0  0
 13  6  1  0  0  0  0
 15 14  1  0  0  0  0
M  END
