Coordinates from ORCA-job Ph-N2-OH-B3LYPG-6-31G_dp-MTMO-d009-169-n800
 OpenBabel09051908283D

 15 14  0  0  0  0  0  0  0  0999 V2000
   -1.8318   -1.0947   -0.8636 C   0  0  0  0  0  0  0  0  0  0  0  0
   -0.5760   -0.5039   -0.7121 C   0  0  0  0  0  0  0  0  0  0  0  0
   -0.4618    0.7287   -0.0599 C   0  0  0  0  0  0  0  0  0  0  0  0
   -1.6038    1.3660    0.4389 C   0  0  0  0  0  0  0  0  0  0  0  0
   -2.8509    0.7657    0.2809 C   0  0  0  0  0  0  0  0  0  0  0  0
   -2.9748   -0.4656   -0.3695 C   0  0  0  0  0  0  0  0  0  0  0  0
   -1.9112   -2.0523   -1.3696 H   0  0  0  0  0  0  0  0  0  0  0  0
    0.3133   -0.9973   -1.0990 H   0  0  0  0  0  0  0  0  0  0  0  0
   -1.4931    2.3220    0.9394 H   0  0  0  0  0  0  0  0  0  0  0  0
   -3.7338    1.2652    0.6693 H   0  0  0  0  0  0  0  0  0  0  0  0
    9.8753   -0.6358   -3.2794 N   0  0  0  0  0  0  0  0  0  0  0  0
    8.8340   -0.5545   -2.9179 N   0  0  0  0  0  0  0  0  0  0  0  0
   -3.9498   -0.9272   -0.4893 H   0  0  0  0  0  0  0  0  0  0  0  0
    0.7382    1.3590    0.1199 O   0  0  0  0  0  0  0  0  0  0  0  0
    1.4381    0.8230   -0.2744 H   0  0  0  0  0  0  0  0  0  0  0  0
  1  2  2  0  0  0  0
  1  6  1  0  0  0  0
  2  3  1  0  0  0  0
  3 14  1  0  0  0  0
  3  4  2  0  0  0  0
  4  9  1  0  0  0  0
  5  4  1  0  0  0  0
  5 10  1  0  0  0  0
  6  5  2  0  0  0  0
  7  1  1  0  0  0  0
  8  2  1  0  0  0  0
 11 12  3  0  0  0  0
 13  6  1  0  0  0  0
 15 14  1  0  0  0  0
M  END
