Coordinates from ORCA-job Ph-N2-OH-B3LYPG-6-31G_dp-MTMO-d009-169-n800
 OpenBabel09051908283D

 15 14  0  0  0  0  0  0  0  0999 V2000
   -2.2044   -1.0689   -0.7548 C   0  0  0  0  0  0  0  0  0  0  0  0
   -0.9501   -0.4837   -0.5728 C   0  0  0  0  0  0  0  0  0  0  0  0
   -0.8471    0.7529    0.0735 C   0  0  0  0  0  0  0  0  0  0  0  0
   -1.9990    1.3999    0.5359 C   0  0  0  0  0  0  0  0  0  0  0  0
   -3.2445    0.8052    0.3478 C   0  0  0  0  0  0  0  0  0  0  0  0
   -3.3572   -0.4302   -0.2970 C   0  0  0  0  0  0  0  0  0  0  0  0
   -2.2751   -2.0297   -1.2561 H   0  0  0  0  0  0  0  0  0  0  0  0
   -0.0533   -0.9849   -0.9315 H   0  0  0  0  0  0  0  0  0  0  0  0
   -1.8968    2.3589    1.0325 H   0  0  0  0  0  0  0  0  0  0  0  0
   -4.1350    1.3122    0.7083 H   0  0  0  0  0  0  0  0  0  0  0  0
   12.3691   -0.8183   -3.9918 N   0  0  0  0  0  0  0  0  0  0  0  0
   11.3264   -0.7413   -3.6334 N   0  0  0  0  0  0  0  0  0  0  0  0
   -4.3310   -0.8873   -0.4407 H   0  0  0  0  0  0  0  0  0  0  0  0
    0.3509    1.3782    0.2820 O   0  0  0  0  0  0  0  0  0  0  0  0
    1.0587    0.8355   -0.0884 H   0  0  0  0  0  0  0  0  0  0  0  0
  1  2  2  0  0  0  0
  1  6  1  0  0  0  0
  2  3  1  0  0  0  0
  3 14  1  0  0  0  0
  3  4  2  0  0  0  0
  4  9  1  0  0  0  0
  5  4  1  0  0  0  0
  5 10  1  0  0  0  0
  6  5  2  0  0  0  0
  7  1  1  0  0  0  0
  8  2  1  0  0  0  0
 11 12  3  0  0  0  0
 13  6  1  0  0  0  0
 15 14  1  0  0  0  0
M  END
