Coordinates from ORCA-job Ph-N2-OH-B3LYPG-6-31G_dp-MTMO-d009-169-n800
 OpenBabel09051908283D

 15 14  0  0  0  0  0  0  0  0999 V2000
   -2.3522   -1.0582   -0.7130 C   0  0  0  0  0  0  0  0  0  0  0  0
   -1.0987   -0.4737   -0.5235 C   0  0  0  0  0  0  0  0  0  0  0  0
   -0.9990    0.7637    0.1217 C   0  0  0  0  0  0  0  0  0  0  0  0
   -2.1535    1.4122    0.5755 C   0  0  0  0  0  0  0  0  0  0  0  0
   -3.3982    0.8182    0.3800 C   0  0  0  0  0  0  0  0  0  0  0  0
   -3.5075   -0.4180   -0.2639 C   0  0  0  0  0  0  0  0  0  0  0  0
   -2.4203   -2.0196   -1.2135 H   0  0  0  0  0  0  0  0  0  0  0  0
   -0.1999   -0.9761   -0.8755 H   0  0  0  0  0  0  0  0  0  0  0  0
   -2.0538    2.3718    1.0716 H   0  0  0  0  0  0  0  0  0  0  0  0
   -4.2906    1.3263    0.7339 H   0  0  0  0  0  0  0  0  0  0  0  0
   13.3517   -0.8933   -4.2662 N   0  0  0  0  0  0  0  0  0  0  0  0
   12.3085   -0.8130   -3.9100 N   0  0  0  0  0  0  0  0  0  0  0  0
   -4.4807   -0.8746   -0.4134 H   0  0  0  0  0  0  0  0  0  0  0  0
    0.1981    1.3884    0.3374 O   0  0  0  0  0  0  0  0  0  0  0  0
    0.9078    0.8444   -0.0275 H   0  0  0  0  0  0  0  0  0  0  0  0
  1  2  2  0  0  0  0
  1  6  1  0  0  0  0
  2  3  1  0  0  0  0
  3 14  1  0  0  0  0
  3  4  2  0  0  0  0
  4  9  1  0  0  0  0
  5  4  1  0  0  0  0
  5 10  1  0  0  0  0
  6  5  2  0  0  0  0
  7  1  1  0  0  0  0
  8  2  1  0  0  0  0
 11 12  3  0  0  0  0
 13  6  1  0  0  0  0
 15 14  1  0  0  0  0
M  END
