Coordinates from ORCA-job Ph-N2-OH-B3LYPG-6-31G_dp-MTMO-d009-169-n800
 OpenBabel09051908283D

 15 14  0  0  0  0  0  0  0  0999 V2000
   -1.7057   -1.1058   -0.9009 C   0  0  0  0  0  0  0  0  0  0  0  0
   -0.4451   -0.5210   -0.7677 C   0  0  0  0  0  0  0  0  0  0  0  0
   -0.3156    0.7107   -0.1167 C   0  0  0  0  0  0  0  0  0  0  0  0
   -1.4472    1.3530    0.3992 C   0  0  0  0  0  0  0  0  0  0  0  0
   -2.6992    0.7586    0.2593 C   0  0  0  0  0  0  0  0  0  0  0  0
   -2.8384   -0.4718   -0.3898 C   0  0  0  0  0  0  0  0  0  0  0  0
   -1.7970   -2.0629   -1.4062 H   0  0  0  0  0  0  0  0  0  0  0  0
    0.4362   -1.0184   -1.1678 H   0  0  0  0  0  0  0  0  0  0  0  0
   -1.3246    2.3082    0.8984 H   0  0  0  0  0  0  0  0  0  0  0  0
   -3.5740    1.2621    0.6608 H   0  0  0  0  0  0  0  0  0  0  0  0
    8.9549   -0.5503   -3.0037 N   0  0  0  0  0  0  0  0  0  0  0  0
    7.9133   -0.4666   -2.6435 N   0  0  0  0  0  0  0  0  0  0  0  0
   -3.8172   -0.9289   -0.4954 H   0  0  0  0  0  0  0  0  0  0  0  0
    0.8899    1.3354    0.0459 O   0  0  0  0  0  0  0  0  0  0  0  0
    1.5816    0.7962   -0.3586 H   0  0  0  0  0  0  0  0  0  0  0  0
  1  2  2  0  0  0  0
  1  6  1  0  0  0  0
  2  3  1  0  0  0  0
  3 14  1  0  0  0  0
  3  4  2  0  0  0  0
  4  9  1  0  0  0  0
  5  4  1  0  0  0  0
  5 10  1  0  0  0  0
  6  5  2  0  0  0  0
  7  1  1  0  0  0  0
  8  2  1  0  0  0  0
 11 12  3  0  0  0  0
 13  6  1  0  0  0  0
 15 14  1  0  0  0  0
M  END
