Coordinates from ORCA-job Ph-N2-OH-B3LYPG-6-31G_dp-MTMO-d009-169-n800
 OpenBabel09051908283D

 15 14  0  0  0  0  0  0  0  0999 V2000
   -1.2996   -1.4285   -0.9491 C   0  0  0  0  0  0  0  0  0  0  0  0
    0.0521   -1.1152   -1.1694 C   0  0  0  0  0  0  0  0  0  0  0  0
    0.3934    0.2057   -1.0135 C   0  0  0  0  0  0  0  0  0  0  0  0
   -0.4434    1.2435   -0.6832 C   0  0  0  0  0  0  0  0  0  0  0  0
   -1.7887    0.9007   -0.4703 C   0  0  0  0  0  0  0  0  0  0  0  0
   -2.2087   -0.4260   -0.6024 C   0  0  0  0  0  0  0  0  0  0  0  0
   -1.6328   -2.4576   -1.0554 H   0  0  0  0  0  0  0  0  0  0  0  0
    0.7744   -1.8751   -1.4458 H   0  0  0  0  0  0  0  0  0  0  0  0
   -0.0944    2.2650   -0.5840 H   0  0  0  0  0  0  0  0  0  0  0  0
   -2.5005    1.6767   -0.2010 H   0  0  0  0  0  0  0  0  0  0  0  0
    2.5893    0.7491   -1.6193 N   0  0  0  0  0  0  0  0  0  0  0  0
    3.2616    0.8676   -0.6490 N   0  0  0  0  0  0  0  0  0  0  0  0
   -3.2510   -0.6796   -0.4346 H   0  0  0  0  0  0  0  0  0  0  0  0
    2.6163    0.6637    0.6305 O   0  0  0  0  0  0  0  0  0  0  0  0
    3.3439    0.8084    1.2600 H   0  0  0  0  0  0  0  0  0  0  0  0
  1  6  2  0  0  0  0
  2  3  2  0  0  0  0
  2  1  1  0  0  0  0
  3  4  1  0  0  0  0
  4  9  1  0  0  0  0
  4  5  2  0  0  0  0
  5 10  1  0  0  0  0
  6  5  1  0  0  0  0
  6 13  1  0  0  0  0
  7  1  1  0  0  0  0
  8  2  1  0  0  0  0
 11 12  2  0  0  0  0
 12 14  1  0  0  0  0
 14 15  1  0  0  0  0
M  RAD  2   3   2  11   2
M  END
