Coordinates from ORCA-job Ph-N2-OH-B3LYPG-6-31G_dp-MTMO-d009-169-n800
 OpenBabel09051908283D

 15 15  0  0  0  0  0  0  0  0999 V2000
   -1.2486   -1.3990   -1.1131 C   0  0  0  0  0  0  0  0  0  0  0  0
    0.0945   -1.0880   -1.1325 C   0  0  0  0  0  0  0  0  0  0  0  0
    0.6177    0.2561   -0.7332 C   0  0  0  0  0  0  0  0  0  0  0  0
   -0.5014    1.1842   -0.3750 C   0  0  0  0  0  0  0  0  0  0  0  0
   -1.8281    0.8273   -0.4906 C   0  0  0  0  0  0  0  0  0  0  0  0
   -2.2454   -0.4627   -0.8285 C   0  0  0  0  0  0  0  0  0  0  0  0
   -1.5204   -2.4230   -1.3619 H   0  0  0  0  0  0  0  0  0  0  0  0
    0.8629   -1.8350   -1.3051 H   0  0  0  0  0  0  0  0  0  0  0  0
   -0.1898    2.2008   -0.1574 H   0  0  0  0  0  0  0  0  0  0  0  0
   -2.5655    1.5983   -0.2756 H   0  0  0  0  0  0  0  0  0  0  0  0
    1.5478    0.4928   -0.7097 N   0  0  0  0  0  0  0  0  0  0  0  0
    2.7311    0.7915   -0.7344 N   0  0  0  0  0  0  0  0  0  0  0  0
   -3.2957   -0.7263   -0.8653 H   0  0  0  0  0  0  0  0  0  0  0  0
    3.2096    0.8796    0.6185 O   0  0  0  0  0  0  0  0  0  0  0  0
    4.1429    1.1020    0.4772 H   0  0  0  0  0  0  0  0  0  0  0  0
  1  6  1  0  0  0  0
  2  1  2  0  0  0  0
  2  3  1  0  0  0  0
  3 11  1  0  0  0  0
  3  4  2  0  0  0  0
  4  9  1  0  0  0  0
  5  4  1  0  0  0  0
  5 10  1  0  0  0  0
  6  5  2  0  0  0  0
  7  1  1  0  0  0  0
  8  2  1  0  0  0  0
 12 11  1  0  0  0  0
 12 14  1  0  0  0  0
 13  6  1  0  0  0  0
 15 14  1  0  0  0  0
M  RAD  2  11   2  12   2
M  END
