Coordinates from ORCA-job Ph-N2-OH-B3LYPG-6-31G_dp-MTMO-d009-169-n800
 OpenBabel09051908283D

 15 14  0  0  0  0  0  0  0  0999 V2000
   -1.0140   -1.2042   -0.9447 C   0  0  0  0  0  0  0  0  0  0  0  0
    0.2594   -0.7590   -0.5847 C   0  0  0  0  0  0  0  0  0  0  0  0
    0.4177    0.5119   -0.0194 C   0  0  0  0  0  0  0  0  0  0  0  0
   -0.7007    1.3288    0.1872 C   0  0  0  0  0  0  0  0  0  0  0  0
   -1.9656    0.8715   -0.1744 C   0  0  0  0  0  0  0  0  0  0  0  0
   -2.1323   -0.3949   -0.7429 C   0  0  0  0  0  0  0  0  0  0  0  0
   -1.1270   -2.1915   -1.3833 H   0  0  0  0  0  0  0  0  0  0  0  0
    1.1272   -1.3956   -0.7407 H   0  0  0  0  0  0  0  0  0  0  0  0
   -0.5564    2.3099    0.6273 H   0  0  0  0  0  0  0  0  0  0  0  0
   -2.8286    1.5110   -0.0110 H   0  0  0  0  0  0  0  0  0  0  0  0
    3.8783    0.1676   -2.8508 N   0  0  0  0  0  0  0  0  0  0  0  0
    3.6153    0.0007   -1.7910 N   0  0  0  0  0  0  0  0  0  0  0  0
   -3.1204   -0.7445   -1.0248 H   0  0  0  0  0  0  0  0  0  0  0  0
    1.6342    1.0084    0.3547 O   0  0  0  0  0  0  0  0  0  0  0  0
    2.3248    0.3783    0.1119 H   0  0  0  0  0  0  0  0  0  0  0  0
  1  6  2  0  0  0  0
  1  2  1  0  0  0  0
  2  3  2  0  0  0  0
  3  4  1  0  0  0  0
  3 14  1  0  0  0  0
  4  9  1  0  0  0  0
  5 10  1  0  0  0  0
  5  4  2  0  0  0  0
  6  5  1  0  0  0  0
  7  1  1  0  0  0  0
  8  2  1  0  0  0  0
 11 12  3  0  0  0  0
 13  6  1  0  0  0  0
 15 14  1  0  0  0  0
M  END
