Coordinates from ORCA-job Ph-N2-OH-B3LYPG-6-31G_dp-MTMO-d009-169-n800
 OpenBabel09051908283D

 15 14  0  0  0  0  0  0  0  0999 V2000
   -2.0977   -1.0759   -0.7857 C   0  0  0  0  0  0  0  0  0  0  0  0
   -0.8437   -0.4879   -0.6106 C   0  0  0  0  0  0  0  0  0  0  0  0
   -0.7396    0.7475    0.0378 C   0  0  0  0  0  0  0  0  0  0  0  0
   -1.8900    1.3906    0.5092 C   0  0  0  0  0  0  0  0  0  0  0  0
   -3.1353    0.7931    0.3278 C   0  0  0  0  0  0  0  0  0  0  0  0
   -3.2490   -0.4411   -0.3191 C   0  0  0  0  0  0  0  0  0  0  0  0
   -2.1692   -2.0358   -1.2887 H   0  0  0  0  0  0  0  0  0  0  0  0
    0.0522   -0.9859   -0.9761 H   0  0  0  0  0  0  0  0  0  0  0  0
   -1.7871    2.3487    1.0073 H   0  0  0  0  0  0  0  0  0  0  0  0
   -4.0247    1.2970    0.6951 H   0  0  0  0  0  0  0  0  0  0  0  0
   11.6690   -0.7692   -3.7944 N   0  0  0  0  0  0  0  0  0  0  0  0
   10.6267   -0.6925   -3.4348 N   0  0  0  0  0  0  0  0  0  0  0  0
   -4.2226   -0.9004   -0.4574 H   0  0  0  0  0  0  0  0  0  0  0  0
    0.4582    1.3753    0.2398 O   0  0  0  0  0  0  0  0  0  0  0  0
    1.1646    0.8350   -0.1366 H   0  0  0  0  0  0  0  0  0  0  0  0
  1  2  2  0  0  0  0
  1  6  1  0  0  0  0
  2  3  1  0  0  0  0
  3 14  1  0  0  0  0
  3  4  2  0  0  0  0
  4  9  1  0  0  0  0
  5  4  1  0  0  0  0
  5 10  1  0  0  0  0
  6  5  2  0  0  0  0
  7  1  1  0  0  0  0
  8  2  1  0  0  0  0
 11 12  3  0  0  0  0
 13  6  1  0  0  0  0
 15 14  1  0  0  0  0
M  END
