Coordinates from ORCA-job Ph-N2-OH-B3LYPG-6-31G_dp-MTMO-d009-169-n800
 OpenBabel09051908283D

 15 14  0  0  0  0  0  0  0  0999 V2000
   -2.0495   -1.0790   -0.7999 C   0  0  0  0  0  0  0  0  0  0  0  0
   -0.7957   -0.4896   -0.6283 C   0  0  0  0  0  0  0  0  0  0  0  0
   -0.6911    0.7453    0.0212 C   0  0  0  0  0  0  0  0  0  0  0  0
   -1.8407    1.3862    0.4972 C   0  0  0  0  0  0  0  0  0  0  0  0
   -3.0858    0.7873    0.3194 C   0  0  0  0  0  0  0  0  0  0  0  0
   -3.2000   -0.4463   -0.3285 C   0  0  0  0  0  0  0  0  0  0  0  0
   -2.1214   -2.0384   -1.3038 H   0  0  0  0  0  0  0  0  0  0  0  0
    0.0995   -0.9859   -0.9976 H   0  0  0  0  0  0  0  0  0  0  0  0
   -1.7373    2.3439    0.9961 H   0  0  0  0  0  0  0  0  0  0  0  0
   -3.9746    1.2895    0.6904 H   0  0  0  0  0  0  0  0  0  0  0  0
   11.3525   -0.7477   -3.7045 N   0  0  0  0  0  0  0  0  0  0  0  0
   10.3103   -0.6702   -3.3445 N   0  0  0  0  0  0  0  0  0  0  0  0
   -4.1735   -0.9068   -0.4640 H   0  0  0  0  0  0  0  0  0  0  0  0
    0.5066    1.3744    0.2199 O   0  0  0  0  0  0  0  0  0  0  0  0
    1.2125    0.8357   -0.1598 H   0  0  0  0  0  0  0  0  0  0  0  0
  1  2  2  0  0  0  0
  1  6  1  0  0  0  0
  2  3  1  0  0  0  0
  3 14  1  0  0  0  0
  3  4  2  0  0  0  0
  4  9  1  0  0  0  0
  5  4  1  0  0  0  0
  5 10  1  0  0  0  0
  6  5  2  0  0  0  0
  7  1  1  0  0  0  0
  8  2  1  0  0  0  0
 11 12  3  0  0  0  0
 13  6  1  0  0  0  0
 15 14  1  0  0  0  0
M  END
