Coordinates from ORCA-job Ph-N2-OH-B3LYPG-6-31G_dp-MTMO-d009-169-n800
 OpenBabel09051908283D

 15 14  0  0  0  0  0  0  0  0999 V2000
   -2.0571   -1.0785   -0.7976 C   0  0  0  0  0  0  0  0  0  0  0  0
   -0.8032   -0.4893   -0.6255 C   0  0  0  0  0  0  0  0  0  0  0  0
   -0.6988    0.7456    0.0238 C   0  0  0  0  0  0  0  0  0  0  0  0
   -1.8485    1.3869    0.4991 C   0  0  0  0  0  0  0  0  0  0  0  0
   -3.0936    0.7882    0.3207 C   0  0  0  0  0  0  0  0  0  0  0  0
   -3.2078   -0.4455   -0.3270 C   0  0  0  0  0  0  0  0  0  0  0  0
   -2.1290   -2.0380   -1.3014 H   0  0  0  0  0  0  0  0  0  0  0  0
    0.0921   -0.9860   -0.9941 H   0  0  0  0  0  0  0  0  0  0  0  0
   -1.7452    2.3447    0.9978 H   0  0  0  0  0  0  0  0  0  0  0  0
   -3.9825    1.2907    0.6910 H   0  0  0  0  0  0  0  0  0  0  0  0
   11.4024   -0.7511   -3.7187 N   0  0  0  0  0  0  0  0  0  0  0  0
   10.3603   -0.6737   -3.3588 N   0  0  0  0  0  0  0  0  0  0  0  0
   -4.1813   -0.9057   -0.4630 H   0  0  0  0  0  0  0  0  0  0  0  0
    0.4990    1.3745    0.2231 O   0  0  0  0  0  0  0  0  0  0  0  0
    1.2050    0.8355   -0.1560 H   0  0  0  0  0  0  0  0  0  0  0  0
  1  2  2  0  0  0  0
  1  6  1  0  0  0  0
  2  3  1  0  0  0  0
  3 14  1  0  0  0  0
  3  4  2  0  0  0  0
  4  9  1  0  0  0  0
  5  4  1  0  0  0  0
  5 10  1  0  0  0  0
  6  5  2  0  0  0  0
  7  1  1  0  0  0  0
  8  2  1  0  0  0  0
 11 12  3  0  0  0  0
 13  6  1  0  0  0  0
 15 14  1  0  0  0  0
M  END
