Coordinates from ORCA-job Ph-N2-OH-B3LYPG-6-31G_dp-MTMO-d009-169-n800
 OpenBabel09051908283D

 15 14  0  0  0  0  0  0  0  0999 V2000
   -1.9568   -1.0851   -0.8271 C   0  0  0  0  0  0  0  0  0  0  0  0
   -0.7030   -0.4935   -0.6634 C   0  0  0  0  0  0  0  0  0  0  0  0
   -0.5963    0.7402   -0.0120 C   0  0  0  0  0  0  0  0  0  0  0  0
   -1.7438    1.3777    0.4738 C   0  0  0  0  0  0  0  0  0  0  0  0
   -2.9888    0.7765    0.3037 C   0  0  0  0  0  0  0  0  0  0  0  0
   -3.1052   -0.4559   -0.3460 C   0  0  0  0  0  0  0  0  0  0  0  0
   -2.0305   -2.0436   -1.3325 H   0  0  0  0  0  0  0  0  0  0  0  0
    0.1906   -0.9871   -1.0402 H   0  0  0  0  0  0  0  0  0  0  0  0
   -1.6388    2.3345    0.9740 H   0  0  0  0  0  0  0  0  0  0  0  0
   -3.8760    1.2761    0.6821 H   0  0  0  0  0  0  0  0  0  0  0  0
   10.7369   -0.7049   -3.5282 N   0  0  0  0  0  0  0  0  0  0  0  0
    9.6951   -0.6248   -3.1678 N   0  0  0  0  0  0  0  0  0  0  0  0
   -4.0788   -0.9181   -0.4754 H   0  0  0  0  0  0  0  0  0  0  0  0
    0.6015    1.3714    0.1794 O   0  0  0  0  0  0  0  0  0  0  0  0
    1.3057    0.8350   -0.2067 H   0  0  0  0  0  0  0  0  0  0  0  0
  1  2  2  0  0  0  0
  1  6  1  0  0  0  0
  2  3  1  0  0  0  0
  3 14  1  0  0  0  0
  3  4  2  0  0  0  0
  4  9  1  0  0  0  0
  5  4  1  0  0  0  0
  5 10  1  0  0  0  0
  6  5  2  0  0  0  0
  7  1  1  0  0  0  0
  8  2  1  0  0  0  0
 11 12  3  0  0  0  0
 13  6  1  0  0  0  0
 15 14  1  0  0  0  0
M  END
