Coordinates from ORCA-job Ph-N2-OH-B3LYPG-6-31G_dp-MTMO-d009-169-n800
 OpenBabel09051908283D

 15 14  0  0  0  0  0  0  0  0999 V2000
   -1.2337   -1.1413   -1.0316 C   0  0  0  0  0  0  0  0  0  0  0  0
    0.0551   -0.6081   -0.9730 C   0  0  0  0  0  0  0  0  0  0  0  0
    0.2718    0.6194   -0.3364 C   0  0  0  0  0  0  0  0  0  0  0  0
   -0.8034    1.3077    0.2388 C   0  0  0  0  0  0  0  0  0  0  0  0
   -2.0843    0.7646    0.1731 C   0  0  0  0  0  0  0  0  0  0  0  0
   -2.3097   -0.4610   -0.4607 C   0  0  0  0  0  0  0  0  0  0  0  0
   -1.3921   -2.0952   -1.5263 H   0  0  0  0  0  0  0  0  0  0  0  0
    0.8913   -1.1422   -1.4192 H   0  0  0  0  0  0  0  0  0  0  0  0
   -0.6144    2.2585    0.7257 H   0  0  0  0  0  0  0  0  0  0  0  0
   -2.9137    1.3045    0.6211 H   0  0  0  0  0  0  0  0  0  0  0  0
    5.3098   -0.2599   -1.9598 N   0  0  0  0  0  0  0  0  0  0  0  0
    4.2760   -0.0954   -1.6064 N   0  0  0  0  0  0  0  0  0  0  0  0
   -3.3104   -0.8791   -0.5081 H   0  0  0  0  0  0  0  0  0  0  0  0
    1.5073    1.1946   -0.2445 O   0  0  0  0  0  0  0  0  0  0  0  0
    2.1620    0.6313   -0.6790 H   0  0  0  0  0  0  0  0  0  0  0  0
  1  2  2  0  0  0  0
  1  6  1  0  0  0  0
  2  3  1  0  0  0  0
  3 14  1  0  0  0  0
  3  4  2  0  0  0  0
  4  9  1  0  0  0  0
  5  4  1  0  0  0  0
  5 10  1  0  0  0  0
  6  5  2  0  0  0  0
  7  1  1  0  0  0  0
  8  2  1  0  0  0  0
 11 12  3  0  0  0  0
 13  6  1  0  0  0  0
 15 14  1  0  0  0  0
M  END
