Coordinates from ORCA-job Ph-N2-OH-B3LYPG-6-31G_dp-MTMO-d009-169-n800
 OpenBabel09051908283D

 15 14  0  0  0  0  0  0  0  0999 V2000
   -2.5759   -1.0429   -0.6479 C   0  0  0  0  0  0  0  0  0  0  0  0
   -1.3236   -0.4620   -0.4400 C   0  0  0  0  0  0  0  0  0  0  0  0
   -1.2305    0.7780    0.2014 C   0  0  0  0  0  0  0  0  0  0  0  0
   -2.3900    1.4328    0.6326 C   0  0  0  0  0  0  0  0  0  0  0  0
   -3.6334    0.8422    0.4187 C   0  0  0  0  0  0  0  0  0  0  0  0
   -3.7362   -0.3966   -0.2211 C   0  0  0  0  0  0  0  0  0  0  0  0
   -2.6390   -2.0063   -1.1453 H   0  0  0  0  0  0  0  0  0  0  0  0
   -0.4209   -0.9686   -0.7754 H   0  0  0  0  0  0  0  0  0  0  0  0
   -2.2953    2.3942    1.1261 H   0  0  0  0  0  0  0  0  0  0  0  0
   -4.5298    1.3550    0.7553 H   0  0  0  0  0  0  0  0  0  0  0  0
   14.8468   -1.0048   -4.6929 N   0  0  0  0  0  0  0  0  0  0  0  0
   13.8038   -0.9201   -4.3370 N   0  0  0  0  0  0  0  0  0  0  0  0
   -4.7084   -0.8504   -0.3849 H   0  0  0  0  0  0  0  0  0  0  0  0
   -0.0349    1.3992    0.4346 O   0  0  0  0  0  0  0  0  0  0  0  0
    0.6793    0.8486    0.0890 H   0  0  0  0  0  0  0  0  0  0  0  0
  1  2  2  0  0  0  0
  1  6  1  0  0  0  0
  2  3  1  0  0  0  0
  3 14  1  0  0  0  0
  3  4  2  0  0  0  0
  4  9  1  0  0  0  0
  5  4  1  0  0  0  0
  5 10  1  0  0  0  0
  6  5  2  0  0  0  0
  7  1  1  0  0  0  0
  8  2  1  0  0  0  0
 11 12  3  0  0  0  0
 13  6  1  0  0  0  0
 15 14  1  0  0  0  0
M  END
