Coordinates from ORCA-job Ph-N2-OH-B3LYPG-6-31G_dp-MTMO-d009-169-n800
 OpenBabel09051908283D

 15 14  0  0  0  0  0  0  0  0999 V2000
   -1.2925   -1.4271   -0.9514 C   0  0  0  0  0  0  0  0  0  0  0  0
    0.0582   -1.1146   -1.1761 C   0  0  0  0  0  0  0  0  0  0  0  0
    0.4048    0.2056   -1.0192 C   0  0  0  0  0  0  0  0  0  0  0  0
   -0.4324    1.2429   -0.6852 C   0  0  0  0  0  0  0  0  0  0  0  0
   -1.7770    0.9019   -0.4680 C   0  0  0  0  0  0  0  0  0  0  0  0
   -2.1993   -0.4240   -0.6000 C   0  0  0  0  0  0  0  0  0  0  0  0
   -1.6275   -2.4555   -1.0580 H   0  0  0  0  0  0  0  0  0  0  0  0
    0.7786   -1.8747   -1.4569 H   0  0  0  0  0  0  0  0  0  0  0  0
   -0.0820    2.2639   -0.5862 H   0  0  0  0  0  0  0  0  0  0  0  0
   -2.4871    1.6783   -0.1955 H   0  0  0  0  0  0  0  0  0  0  0  0
    2.5454    0.7298   -1.6101 N   0  0  0  0  0  0  0  0  0  0  0  0
    3.2295    0.8587   -0.6459 N   0  0  0  0  0  0  0  0  0  0  0  0
   -3.2414   -0.6765   -0.4290 H   0  0  0  0  0  0  0  0  0  0  0  0
    2.5999    0.6692    0.6379 O   0  0  0  0  0  0  0  0  0  0  0  0
    3.3345    0.8202    1.2572 H   0  0  0  0  0  0  0  0  0  0  0  0
  1  6  2  0  0  0  0
  2  3  2  0  0  0  0
  2  1  1  0  0  0  0
  3  4  1  0  0  0  0
  4  9  1  0  0  0  0
  4  5  2  0  0  0  0
  5 10  1  0  0  0  0
  6  5  1  0  0  0  0
  6 13  1  0  0  0  0
  7  1  1  0  0  0  0
  8  2  1  0  0  0  0
 11 12  2  0  0  0  0
 12 14  1  0  0  0  0
 14 15  1  0  0  0  0
M  RAD  2   3   2  11   2
M  END
