Coordinates from ORCA-job Ph-N2-OH-B3LYPG-6-31G_dp-MTMO-d009-169-n800
 OpenBabel09051908283D

 15 14  0  0  0  0  0  0  0  0999 V2000
   -1.9989   -1.0822   -0.8149 C   0  0  0  0  0  0  0  0  0  0  0  0
   -0.7453   -0.4909   -0.6478 C   0  0  0  0  0  0  0  0  0  0  0  0
   -0.6400    0.7431    0.0031 C   0  0  0  0  0  0  0  0  0  0  0  0
   -1.7887    1.3815    0.4849 C   0  0  0  0  0  0  0  0  0  0  0  0
   -3.0335    0.7808    0.3114 C   0  0  0  0  0  0  0  0  0  0  0  0
   -3.1485   -0.4521   -0.3378 C   0  0  0  0  0  0  0  0  0  0  0  0
   -2.0714   -2.0410   -1.3199 H   0  0  0  0  0  0  0  0  0  0  0  0
    0.1492   -0.9852   -1.0215 H   0  0  0  0  0  0  0  0  0  0  0  0
   -1.6848    2.3387    0.9847 H   0  0  0  0  0  0  0  0  0  0  0  0
   -3.9216    1.2810    0.6868 H   0  0  0  0  0  0  0  0  0  0  0  0
   11.0195   -0.7260   -3.6088 N   0  0  0  0  0  0  0  0  0  0  0  0
    9.9775   -0.6462   -3.2489 N   0  0  0  0  0  0  0  0  0  0  0  0
   -4.1218   -0.9139   -0.4699 H   0  0  0  0  0  0  0  0  0  0  0  0
    0.5575    1.3740    0.1977 O   0  0  0  0  0  0  0  0  0  0  0  0
    1.2626    0.8369   -0.1857 H   0  0  0  0  0  0  0  0  0  0  0  0
  1  2  2  0  0  0  0
  1  6  1  0  0  0  0
  2  3  1  0  0  0  0
  3 14  1  0  0  0  0
  3  4  2  0  0  0  0
  4  9  1  0  0  0  0
  5  4  1  0  0  0  0
  5 10  1  0  0  0  0
  6  5  2  0  0  0  0
  7  1  1  0  0  0  0
  8  2  1  0  0  0  0
 11 12  3  0  0  0  0
 13  6  1  0  0  0  0
 15 14  1  0  0  0  0
M  END
