Coordinates from ORCA-job Ph-N2-OH-B3LYPG-6-31G_dp-MTMO-d009-169-n800
 OpenBabel09051908283D

 15 14  0  0  0  0  0  0  0  0999 V2000
   -2.2719   -1.0640   -0.7357 C   0  0  0  0  0  0  0  0  0  0  0  0
   -1.0179   -0.4791   -0.5501 C   0  0  0  0  0  0  0  0  0  0  0  0
   -0.9167    0.7579    0.0957 C   0  0  0  0  0  0  0  0  0  0  0  0
   -2.0697    1.4056    0.5541 C   0  0  0  0  0  0  0  0  0  0  0  0
   -3.3149    0.8112    0.3623 C   0  0  0  0  0  0  0  0  0  0  0  0
   -3.4258   -0.4246   -0.2820 C   0  0  0  0  0  0  0  0  0  0  0  0
   -2.3413   -2.0251   -1.2366 H   0  0  0  0  0  0  0  0  0  0  0  0
   -0.1201   -0.9807   -0.9055 H   0  0  0  0  0  0  0  0  0  0  0  0
   -1.9688    2.3649    1.0504 H   0  0  0  0  0  0  0  0  0  0  0  0
   -4.2063    1.3186    0.7196 H   0  0  0  0  0  0  0  0  0  0  0  0
   12.8186   -0.8527   -4.1175 N   0  0  0  0  0  0  0  0  0  0  0  0
   11.7756   -0.7742   -3.7602 N   0  0  0  0  0  0  0  0  0  0  0  0
   -4.3994   -0.8815   -0.4285 H   0  0  0  0  0  0  0  0  0  0  0  0
    0.2810    1.3828    0.3076 O   0  0  0  0  0  0  0  0  0  0  0  0
    0.9895    0.8393   -0.0602 H   0  0  0  0  0  0  0  0  0  0  0  0
  1  2  2  0  0  0  0
  1  6  1  0  0  0  0
  2  3  1  0  0  0  0
  3 14  1  0  0  0  0
  3  4  2  0  0  0  0
  4  9  1  0  0  0  0
  5  4  1  0  0  0  0
  5 10  1  0  0  0  0
  6  5  2  0  0  0  0
  7  1  1  0  0  0  0
  8  2  1  0  0  0  0
 11 12  3  0  0  0  0
 13  6  1  0  0  0  0
 15 14  1  0  0  0  0
M  END
