Coordinates from ORCA-job Ph-N2-OH-B3LYPG-6-31G_dp-MTMO-d009-169-n800
 OpenBabel09051908283D

 15 14  0  0  0  0  0  0  0  0999 V2000
   -1.0418   -1.1812   -0.9709 C   0  0  0  0  0  0  0  0  0  0  0  0
    0.2348   -0.7073   -0.6630 C   0  0  0  0  0  0  0  0  0  0  0  0
    0.3851    0.5521   -0.0701 C   0  0  0  0  0  0  0  0  0  0  0  0
   -0.7448    1.3286    0.2152 C   0  0  0  0  0  0  0  0  0  0  0  0
   -2.0127    0.8431   -0.0954 C   0  0  0  0  0  0  0  0  0  0  0  0
   -2.1714   -0.4122   -0.6903 C   0  0  0  0  0  0  0  0  0  0  0  0
   -1.1484   -2.1596   -1.4306 H   0  0  0  0  0  0  0  0  0  0  0  0
    1.1113   -1.3129   -0.8806 H   0  0  0  0  0  0  0  0  0  0  0  0
   -0.6067    2.3017    0.6746 H   0  0  0  0  0  0  0  0  0  0  0  0
   -2.8843    1.4516    0.1289 H   0  0  0  0  0  0  0  0  0  0  0  0
    4.2092   -0.0315   -2.7479 N   0  0  0  0  0  0  0  0  0  0  0  0
    3.7400   -0.0362   -1.7481 N   0  0  0  0  0  0  0  0  0  0  0  0
   -3.1621   -0.7842   -0.9318 H   0  0  0  0  0  0  0  0  0  0  0  0
    1.6035    1.0745    0.2573 O   0  0  0  0  0  0  0  0  0  0  0  0
    2.3001    0.4719   -0.0337 H   0  0  0  0  0  0  0  0  0  0  0  0
  1  6  2  0  0  0  0
  1  2  1  0  0  0  0
  2  3  2  0  0  0  0
  3  4  1  0  0  0  0
  3 14  1  0  0  0  0
  4  9  1  0  0  0  0
  5 10  1  0  0  0  0
  5  4  2  0  0  0  0
  6  5  1  0  0  0  0
  7  1  1  0  0  0  0
  8  2  1  0  0  0  0
 11 12  3  0  0  0  0
 13  6  1  0  0  0  0
 15 14  1  0  0  0  0
M  END
