Coordinates from ORCA-job Ph-N2-OH-B3LYPG-6-31G_dp-MTMO-d009-169-n800
 OpenBabel09051908283D

 15 15  0  0  0  0  0  0  0  0999 V2000
   -1.2963   -1.4269   -1.0429 C   0  0  0  0  0  0  0  0  0  0  0  0
    0.0621   -1.1742   -1.2662 C   0  0  0  0  0  0  0  0  0  0  0  0
    0.5256    0.1040   -1.0175 C   0  0  0  0  0  0  0  0  0  0  0  0
   -0.2742    1.1548   -0.6024 C   0  0  0  0  0  0  0  0  0  0  0  0
   -1.6312    0.8854   -0.3953 C   0  0  0  0  0  0  0  0  0  0  0  0
   -2.1382   -0.3997   -0.6103 C   0  0  0  0  0  0  0  0  0  0  0  0
   -1.6946   -2.4222   -1.2181 H   0  0  0  0  0  0  0  0  0  0  0  0
    0.7336   -1.9477   -1.6224 H   0  0  0  0  0  0  0  0  0  0  0  0
    0.1386    2.1411   -0.4288 H   0  0  0  0  0  0  0  0  0  0  0  0
   -2.2903    1.6822   -0.0625 H   0  0  0  0  0  0  0  0  0  0  0  0
    2.2425    0.3762   -1.4889 N   0  0  0  0  0  0  0  0  0  0  0  0
    2.9976    0.7738   -0.6269 N   0  0  0  0  0  0  0  0  0  0  0  0
   -3.1925   -0.5991   -0.4431 H   0  0  0  0  0  0  0  0  0  0  0  0
    2.4298    0.9767    0.6641 O   0  0  0  0  0  0  0  0  0  0  0  0
    3.1992    1.2740    1.1749 H   0  0  0  0  0  0  0  0  0  0  0  0
  1  6  1  0  0  0  0
  2  1  2  0  0  0  0
  2  3  1  0  0  0  0
  3  4  2  0  0  0  0
  4  9  1  0  0  0  0
  4  5  1  0  0  0  0
  5 10  1  0  0  0  0
  6 13  1  0  0  0  0
  6  5  2  0  0  0  0
  7  1  1  0  0  0  0
  8  2  1  0  0  0  0
 11  3  1  0  0  0  0
 11 12  2  0  0  0  0
 12 14  1  0  0  0  0
 14 15  1  0  0  0  0
M  END
