Coordinates from ORCA-job Ph-N2-OH-B3LYPG-6-31G_dp-MTMO-d009-169-n800
 OpenBabel09051908283D

 15 14  0  0  0  0  0  0  0  0999 V2000
   -0.9717   -1.2424   -0.9049 C   0  0  0  0  0  0  0  0  0  0  0  0
    0.2935   -0.8419   -0.4711 C   0  0  0  0  0  0  0  0  0  0  0  0
    0.4752    0.4460    0.0459 C   0  0  0  0  0  0  0  0  0  0  0  0
   -0.6108    1.3255    0.1309 C   0  0  0  0  0  0  0  0  0  0  0  0
   -1.8681    0.9122   -0.3032 C   0  0  0  0  0  0  0  0  0  0  0  0
   -2.0582   -0.3710   -0.8246 C   0  0  0  0  0  0  0  0  0  0  0  0
   -1.1032   -2.2432   -1.3064 H   0  0  0  0  0  0  0  0  0  0  0  0
    1.1368   -1.5260   -0.5326 H   0  0  0  0  0  0  0  0  0  0  0  0
   -0.4485    2.3187    0.5363 H   0  0  0  0  0  0  0  0  0  0  0  0
   -2.7066    1.5998   -0.2345 H   0  0  0  0  0  0  0  0  0  0  0  0
    3.2776    0.4854   -2.8970 N   0  0  0  0  0  0  0  0  0  0  0  0
    3.3905    0.0912   -1.8712 N   0  0  0  0  0  0  0  0  0  0  0  0
   -3.0400   -0.6859   -1.1636 H   0  0  0  0  0  0  0  0  0  0  0  0
    1.6861    0.9013    0.4875 O   0  0  0  0  0  0  0  0  0  0  0  0
    2.3593    0.2288    0.3220 H   0  0  0  0  0  0  0  0  0  0  0  0
  1  6  2  0  0  0  0
  1  2  1  0  0  0  0
  2  3  2  0  0  0  0
  3  4  1  0  0  0  0
  3 14  1  0  0  0  0
  4  9  1  0  0  0  0
  5 10  1  0  0  0  0
  5  4  2  0  0  0  0
  6  5  1  0  0  0  0
  7  1  1  0  0  0  0
  8  2  1  0  0  0  0
 11 12  3  0  0  0  0
 13  6  1  0  0  0  0
 15 14  1  0  0  0  0
M  END
