Coordinates from ORCA-job Ph-N2-OH-B3LYPG-6-31G_dp-MTMO-d009-169-n800
 OpenBabel09051908283D

 15 14  0  0  0  0  0  0  0  0999 V2000
   -2.2194   -1.0678   -0.7505 C   0  0  0  0  0  0  0  0  0  0  0  0
   -0.9651   -0.4827   -0.5676 C   0  0  0  0  0  0  0  0  0  0  0  0
   -0.8626    0.7540    0.0785 C   0  0  0  0  0  0  0  0  0  0  0  0
   -2.0147    1.4012    0.5399 C   0  0  0  0  0  0  0  0  0  0  0  0
   -3.2601    0.8066    0.3509 C   0  0  0  0  0  0  0  0  0  0  0  0
   -3.3724   -0.4289   -0.2938 C   0  0  0  0  0  0  0  0  0  0  0  0
   -2.2898   -2.0287   -1.2517 H   0  0  0  0  0  0  0  0  0  0  0  0
   -0.0680   -0.9840   -0.9254 H   0  0  0  0  0  0  0  0  0  0  0  0
   -1.9128    2.3603    1.0365 H   0  0  0  0  0  0  0  0  0  0  0  0
   -4.1509    1.3137    0.7105 H   0  0  0  0  0  0  0  0  0  0  0  0
   12.4689   -0.8258   -4.0198 N   0  0  0  0  0  0  0  0  0  0  0  0
   11.4261   -0.7486   -3.6616 N   0  0  0  0  0  0  0  0  0  0  0  0
   -4.3462   -0.8859   -0.4382 H   0  0  0  0  0  0  0  0  0  0  0  0
    0.3354    1.3791    0.2878 O   0  0  0  0  0  0  0  0  0  0  0  0
    1.0432    0.8359   -0.0819 H   0  0  0  0  0  0  0  0  0  0  0  0
  1  2  2  0  0  0  0
  1  6  1  0  0  0  0
  2  3  1  0  0  0  0
  3 14  1  0  0  0  0
  3  4  2  0  0  0  0
  4  9  1  0  0  0  0
  5  4  1  0  0  0  0
  5 10  1  0  0  0  0
  6  5  2  0  0  0  0
  7  1  1  0  0  0  0
  8  2  1  0  0  0  0
 11 12  3  0  0  0  0
 13  6  1  0  0  0  0
 15 14  1  0  0  0  0
M  END
