Coordinates from ORCA-job Ph-N2-OH-B3LYPG-6-31G_dp-MTMO-d009-169-n800
 OpenBabel09051908283D

 15 14  0  0  0  0  0  0  0  0999 V2000
   -1.7100   -1.1054   -0.8996 C   0  0  0  0  0  0  0  0  0  0  0  0
   -0.4496   -0.5202   -0.7656 C   0  0  0  0  0  0  0  0  0  0  0  0
   -0.3208    0.7114   -0.1145 C   0  0  0  0  0  0  0  0  0  0  0  0
   -1.4529    1.3534    0.4006 C   0  0  0  0  0  0  0  0  0  0  0  0
   -2.7047    0.7588    0.2600 C   0  0  0  0  0  0  0  0  0  0  0  0
   -2.8431   -0.4717   -0.3892 C   0  0  0  0  0  0  0  0  0  0  0  0
   -1.8007   -2.0625   -1.4050 H   0  0  0  0  0  0  0  0  0  0  0  0
    0.4320   -1.0174   -1.1652 H   0  0  0  0  0  0  0  0  0  0  0  0
   -1.3309    2.3087    0.9000 H   0  0  0  0  0  0  0  0  0  0  0  0
   -3.5799    1.2620    0.6610 H   0  0  0  0  0  0  0  0  0  0  0  0
    8.9876   -0.5536   -3.0137 N   0  0  0  0  0  0  0  0  0  0  0  0
    7.9460   -0.4700   -2.6534 N   0  0  0  0  0  0  0  0  0  0  0  0
   -3.8218   -0.9290   -0.4953 H   0  0  0  0  0  0  0  0  0  0  0  0
    0.8844    1.3365    0.0487 O   0  0  0  0  0  0  0  0  0  0  0  0
    1.5764    0.7974   -0.3553 H   0  0  0  0  0  0  0  0  0  0  0  0
  1  2  2  0  0  0  0
  1  6  1  0  0  0  0
  2  3  1  0  0  0  0
  3 14  1  0  0  0  0
  3  4  2  0  0  0  0
  4  9  1  0  0  0  0
  5  4  1  0  0  0  0
  5 10  1  0  0  0  0
  6  5  2  0  0  0  0
  7  1  1  0  0  0  0
  8  2  1  0  0  0  0
 11 12  3  0  0  0  0
 13  6  1  0  0  0  0
 15 14  1  0  0  0  0
M  END
