Coordinates from ORCA-job Ph-N2-OH-B3LYPG-6-31G_dp-MTMO-d009-169-n800
 OpenBabel09051908283D

 15 14  0  0  0  0  0  0  0  0999 V2000
   -1.1370   -1.1364   -1.0316 C   0  0  0  0  0  0  0  0  0  0  0  0
    0.1420   -0.5957   -0.8878 C   0  0  0  0  0  0  0  0  0  0  0  0
    0.3083    0.6363   -0.2442 C   0  0  0  0  0  0  0  0  0  0  0  0
   -0.8077    1.3205    0.2531 C   0  0  0  0  0  0  0  0  0  0  0  0
   -2.0783    0.7697    0.1031 C   0  0  0  0  0  0  0  0  0  0  0  0
   -2.2532   -0.4600   -0.5388 C   0  0  0  0  0  0  0  0  0  0  0  0
   -1.2559   -2.0937   -1.5309 H   0  0  0  0  0  0  0  0  0  0  0  0
    1.0088   -1.1276   -1.2730 H   0  0  0  0  0  0  0  0  0  0  0  0
   -0.6575    2.2746    0.7470 H   0  0  0  0  0  0  0  0  0  0  0  0
   -2.9392    1.3066    0.4910 H   0  0  0  0  0  0  0  0  0  0  0  0
    4.9470   -0.3732   -2.2286 N   0  0  0  0  0  0  0  0  0  0  0  0
    4.0352   -0.1216   -1.6582 N   0  0  0  0  0  0  0  0  0  0  0  0
   -3.2461   -0.8836   -0.6528 H   0  0  0  0  0  0  0  0  0  0  0  0
    1.5304    1.2194   -0.0700 O   0  0  0  0  0  0  0  0  0  0  0  0
    2.2151    0.6630   -0.4647 H   0  0  0  0  0  0  0  0  0  0  0  0
  1  2  2  0  0  0  0
  1  6  1  0  0  0  0
  2  3  1  0  0  0  0
  3 14  1  0  0  0  0
  3  4  2  0  0  0  0
  4  9  1  0  0  0  0
  5  4  1  0  0  0  0
  5 10  1  0  0  0  0
  6  5  2  0  0  0  0
  7  1  1  0  0  0  0
  8  2  1  0  0  0  0
 11 12  3  0  0  0  0
 13  6  1  0  0  0  0
 15 14  1  0  0  0  0
M  END
