Coordinates from ORCA-job Ph-N2-OH-B3LYPG-6-31G_dp-MTMO-d009-169-n800
 OpenBabel09051908283D

 15 14  0  0  0  0  0  0  0  0999 V2000
   -1.0927   -1.1532   -1.0059 C   0  0  0  0  0  0  0  0  0  0  0  0
    0.1869   -0.6399   -0.7865 C   0  0  0  0  0  0  0  0  0  0  0  0
    0.3401    0.6035   -0.1615 C   0  0  0  0  0  0  0  0  0  0  0  0
   -0.7898    1.3255    0.2425 C   0  0  0  0  0  0  0  0  0  0  0  0
   -2.0607    0.8015    0.0182 C   0  0  0  0  0  0  0  0  0  0  0  0
   -2.2224   -0.4388   -0.6065 C   0  0  0  0  0  0  0  0  0  0  0  0
   -1.2014   -2.1193   -1.4905 H   0  0  0  0  0  0  0  0  0  0  0  0
    1.0638   -1.2023   -1.0980 H   0  0  0  0  0  0  0  0  0  0  0  0
   -0.6495    2.2875    0.7240 H   0  0  0  0  0  0  0  0  0  0  0  0
   -2.9322    1.3678    0.3342 H   0  0  0  0  0  0  0  0  0  0  0  0
    4.6636   -0.2542   -2.4902 N   0  0  0  0  0  0  0  0  0  0  0  0
    3.9047   -0.0886   -1.7051 N   0  0  0  0  0  0  0  0  0  0  0  0
   -3.2156   -0.8413   -0.7794 H   0  0  0  0  0  0  0  0  0  0  0  0
    1.5614    1.1616    0.0846 O   0  0  0  0  0  0  0  0  0  0  0  0
    2.2556    0.5886   -0.2666 H   0  0  0  0  0  0  0  0  0  0  0  0
  1  2  2  0  0  0  0
  1  6  1  0  0  0  0
  2  3  1  0  0  0  0
  3 14  1  0  0  0  0
  3  4  2  0  0  0  0
  4  9  1  0  0  0  0
  5  4  1  0  0  0  0
  5 10  1  0  0  0  0
  6  5  2  0  0  0  0
  7  1  1  0  0  0  0
  8  2  1  0  0  0  0
 11 12  3  0  0  0  0
 13  6  1  0  0  0  0
 15 14  1  0  0  0  0
M  END
