Coordinates from ORCA-job Ph-N2-OH-B3LYPG-6-31G_dp-MTMO-d009-169-n800
 OpenBabel09051908283D

 15 14  0  0  0  0  0  0  0  0999 V2000
   -1.1799   -1.1370   -1.0341 C   0  0  0  0  0  0  0  0  0  0  0  0
    0.1033   -0.5969   -0.9309 C   0  0  0  0  0  0  0  0  0  0  0  0
    0.2912    0.6324   -0.2884 C   0  0  0  0  0  0  0  0  0  0  0  0
   -0.8074    1.3150    0.2483 C   0  0  0  0  0  0  0  0  0  0  0  0
   -2.0823    0.7651    0.1384 C   0  0  0  0  0  0  0  0  0  0  0  0
   -2.2789   -0.4622   -0.5019 C   0  0  0  0  0  0  0  0  0  0  0  0
   -1.3157   -2.0923   -1.5330 H   0  0  0  0  0  0  0  0  0  0  0  0
    0.9570   -1.1271   -1.3470 H   0  0  0  0  0  0  0  0  0  0  0  0
   -0.6406    2.2673    0.7407 H   0  0  0  0  0  0  0  0  0  0  0  0
   -2.9298    1.3007    0.5566 H   0  0  0  0  0  0  0  0  0  0  0  0
    5.1182   -0.3349   -2.0991 N   0  0  0  0  0  0  0  0  0  0  0  0
    4.1422   -0.1160   -1.6304 N   0  0  0  0  0  0  0  0  0  0  0  0
   -3.2751   -0.8854   -0.5842 H   0  0  0  0  0  0  0  0  0  0  0  0
    1.5192    1.2144   -0.1538 O   0  0  0  0  0  0  0  0  0  0  0  0
    2.1905    0.6554   -0.5677 H   0  0  0  0  0  0  0  0  0  0  0  0
  1  2  2  0  0  0  0
  1  6  1  0  0  0  0
  2  3  1  0  0  0  0
  3 14  1  0  0  0  0
  3  4  2  0  0  0  0
  4  9  1  0  0  0  0
  5  4  1  0  0  0  0
  5 10  1  0  0  0  0
  6  5  2  0  0  0  0
  7  1  1  0  0  0  0
  8  2  1  0  0  0  0
 11 12  3  0  0  0  0
 13  6  1  0  0  0  0
 15 14  1  0  0  0  0
M  END
