Coordinates from ORCA-job Ph-N2-OH-B3LYPG-6-31G_dp-MTMO-d009-169-n800
 OpenBabel09051908283D

 15 14  0  0  0  0  0  0  0  0999 V2000
   -1.9864   -1.0830   -0.8186 C   0  0  0  0  0  0  0  0  0  0  0  0
   -0.7328   -0.4915   -0.6525 C   0  0  0  0  0  0  0  0  0  0  0  0
   -0.6272    0.7424   -0.0014 C   0  0  0  0  0  0  0  0  0  0  0  0
   -1.7756    1.3803    0.4817 C   0  0  0  0  0  0  0  0  0  0  0  0
   -3.0204    0.7794    0.3093 C   0  0  0  0  0  0  0  0  0  0  0  0
   -3.1357   -0.4533   -0.3401 C   0  0  0  0  0  0  0  0  0  0  0  0
   -2.0592   -2.0417   -1.3237 H   0  0  0  0  0  0  0  0  0  0  0  0
    0.1614   -0.9854   -1.0273 H   0  0  0  0  0  0  0  0  0  0  0  0
   -1.6714    2.3374    0.9817 H   0  0  0  0  0  0  0  0  0  0  0  0
   -3.9082    1.2793    0.6857 H   0  0  0  0  0  0  0  0  0  0  0  0
   10.9364   -0.7201   -3.5849 N   0  0  0  0  0  0  0  0  0  0  0  0
    9.8944   -0.6401   -3.2250 N   0  0  0  0  0  0  0  0  0  0  0  0
   -4.1090   -0.9154   -0.4714 H   0  0  0  0  0  0  0  0  0  0  0  0
    0.5703    1.3735    0.1922 O   0  0  0  0  0  0  0  0  0  0  0  0
    1.2752    0.8367   -0.1922 H   0  0  0  0  0  0  0  0  0  0  0  0
  1  2  2  0  0  0  0
  1  6  1  0  0  0  0
  2  3  1  0  0  0  0
  3 14  1  0  0  0  0
  3  4  2  0  0  0  0
  4  9  1  0  0  0  0
  5  4  1  0  0  0  0
  5 10  1  0  0  0  0
  6  5  2  0  0  0  0
  7  1  1  0  0  0  0
  8  2  1  0  0  0  0
 11 12  3  0  0  0  0
 13  6  1  0  0  0  0
 15 14  1  0  0  0  0
M  END
