Coordinates from ORCA-job Ph-N2-OH-B3LYPG-6-31G_dp-MTMO-d009-169-n800
 OpenBabel09051908283D

 15 14  0  0  0  0  0  0  0  0999 V2000
   -1.9815   -1.0834   -0.8200 C   0  0  0  0  0  0  0  0  0  0  0  0
   -0.7278   -0.4918   -0.6543 C   0  0  0  0  0  0  0  0  0  0  0  0
   -0.6220    0.7420   -0.0032 C   0  0  0  0  0  0  0  0  0  0  0  0
   -1.7703    1.3799    0.4804 C   0  0  0  0  0  0  0  0  0  0  0  0
   -3.0151    0.7789    0.3084 C   0  0  0  0  0  0  0  0  0  0  0  0
   -3.1306   -0.4538   -0.3411 C   0  0  0  0  0  0  0  0  0  0  0  0
   -2.0544   -2.0420   -1.3252 H   0  0  0  0  0  0  0  0  0  0  0  0
    0.1663   -0.9857   -1.0294 H   0  0  0  0  0  0  0  0  0  0  0  0
   -1.6660    2.3369    0.9804 H   0  0  0  0  0  0  0  0  0  0  0  0
   -3.9029    1.2787    0.6851 H   0  0  0  0  0  0  0  0  0  0  0  0
   10.9031   -0.7176   -3.5755 N   0  0  0  0  0  0  0  0  0  0  0  0
    9.8612   -0.6376   -3.2155 N   0  0  0  0  0  0  0  0  0  0  0  0
   -4.1040   -0.9159   -0.4721 H   0  0  0  0  0  0  0  0  0  0  0  0
    0.5755    1.3731    0.1901 O   0  0  0  0  0  0  0  0  0  0  0  0
    1.2803    0.8365   -0.1946 H   0  0  0  0  0  0  0  0  0  0  0  0
  1  2  2  0  0  0  0
  1  6  1  0  0  0  0
  2  3  1  0  0  0  0
  3 14  1  0  0  0  0
  3  4  2  0  0  0  0
  4  9  1  0  0  0  0
  5  4  1  0  0  0  0
  5 10  1  0  0  0  0
  6  5  2  0  0  0  0
  7  1  1  0  0  0  0
  8  2  1  0  0  0  0
 11 12  3  0  0  0  0
 13  6  1  0  0  0  0
 15 14  1  0  0  0  0
M  END
