Coordinates from ORCA-job Ph-N2-OH-B3LYPG-6-31G_dp-MTMO-d009-169-n800
 OpenBabel09051908283D

 15 15  0  0  0  0  0  0  0  0999 V2000
   -1.3589   -1.3790   -1.3131 C   0  0  0  0  0  0  0  0  0  0  0  0
    0.0198   -1.2813   -1.3024 C   0  0  0  0  0  0  0  0  0  0  0  0
    0.7476   -0.1471   -0.7508 C   0  0  0  0  0  0  0  0  0  0  0  0
   -0.1235    0.8961   -0.2088 C   0  0  0  0  0  0  0  0  0  0  0  0
   -1.5049    0.7838   -0.2336 C   0  0  0  0  0  0  0  0  0  0  0  0
   -2.1318   -0.3423   -0.7772 C   0  0  0  0  0  0  0  0  0  0  0  0
   -1.8403   -2.2558   -1.7373 H   0  0  0  0  0  0  0  0  0  0  0  0
    0.6371   -2.0754   -1.7153 H   0  0  0  0  0  0  0  0  0  0  0  0
    0.3333    1.7786    0.2162 H   0  0  0  0  0  0  0  0  0  0  0  0
   -2.1100    1.5868    0.1790 H   0  0  0  0  0  0  0  0  0  0  0  0
    1.8271   -0.1653   -0.7850 N   0  0  0  0  0  0  0  0  0  0  0  0
    2.8133    0.5159   -0.4432 N   0  0  0  0  0  0  0  0  0  0  0  0
   -3.2163   -0.4110   -0.7839 H   0  0  0  0  0  0  0  0  0  0  0  0
    2.4231    1.7612    0.2384 O   0  0  0  0  0  0  0  0  0  0  0  0
    3.2961    2.1332    0.4306 H   0  0  0  0  0  0  0  0  0  0  0  0
  1  2  2  0  0  0  0
  1  6  1  0  0  0  0
  2  3  1  0  0  0  0
  3  4  2  0  0  0  0
  4  9  1  0  0  0  0
  5  4  1  0  0  0  0
  5 10  1  0  0  0  0
  6  5  2  0  0  0  0
  7  1  1  0  0  0  0
  8  2  1  0  0  0  0
 11  3  1  0  0  0  0
 11 12  1  0  0  0  0
 12 14  1  0  0  0  0
 13  6  1  0  0  0  0
 14 15  1  0  0  0  0
M  RAD  2  11   2  12   2
M  END
