Coordinates from ORCA-job Ph-N2-OH-B3LYPG-6-31G_dp-MTMO-d009-169-n800
 OpenBabel09051908283D

 15 14  0  0  0  0  0  0  0  0999 V2000
   -2.0140   -1.0812   -0.8104 C   0  0  0  0  0  0  0  0  0  0  0  0
   -0.7604   -0.4905   -0.6419 C   0  0  0  0  0  0  0  0  0  0  0  0
   -0.6553    0.7438    0.0086 C   0  0  0  0  0  0  0  0  0  0  0  0
   -1.8043    1.3829    0.4886 C   0  0  0  0  0  0  0  0  0  0  0  0
   -3.0492    0.7827    0.3138 C   0  0  0  0  0  0  0  0  0  0  0  0
   -3.1639   -0.4504   -0.3351 C   0  0  0  0  0  0  0  0  0  0  0  0
   -2.0863   -2.0402   -1.3150 H   0  0  0  0  0  0  0  0  0  0  0  0
    0.1344   -0.9854   -1.0142 H   0  0  0  0  0  0  0  0  0  0  0  0
   -1.7006    2.3402    0.9882 H   0  0  0  0  0  0  0  0  0  0  0  0
   -3.9376    1.2835    0.6878 H   0  0  0  0  0  0  0  0  0  0  0  0
   11.1193   -0.7325   -3.6376 N   0  0  0  0  0  0  0  0  0  0  0  0
   10.0773   -0.6535   -3.2776 N   0  0  0  0  0  0  0  0  0  0  0  0
   -4.1373   -0.9118   -0.4682 H   0  0  0  0  0  0  0  0  0  0  0  0
    0.5422    1.3741    0.2045 O   0  0  0  0  0  0  0  0  0  0  0  0
    1.2476    0.8366   -0.1778 H   0  0  0  0  0  0  0  0  0  0  0  0
  1  2  2  0  0  0  0
  1  6  1  0  0  0  0
  2  3  1  0  0  0  0
  3 14  1  0  0  0  0
  3  4  2  0  0  0  0
  4  9  1  0  0  0  0
  5  4  1  0  0  0  0
  5 10  1  0  0  0  0
  6  5  2  0  0  0  0
  7  1  1  0  0  0  0
  8  2  1  0  0  0  0
 11 12  3  0  0  0  0
 13  6  1  0  0  0  0
 15 14  1  0  0  0  0
M  END
