Coordinates from ORCA-job Ph-N2-OH-B3LYPG-6-31G_dp-MTMO-d009-169-n800
 OpenBabel09051908283D

 15 14  0  0  0  0  0  0  0  0999 V2000
   -1.0072   -1.2099   -0.9386 C   0  0  0  0  0  0  0  0  0  0  0  0
    0.2650   -0.7720   -0.5661 C   0  0  0  0  0  0  0  0  0  0  0  0
    0.4261    0.5016   -0.0077 C   0  0  0  0  0  0  0  0  0  0  0  0
   -0.6884    1.3284    0.1799 C   0  0  0  0  0  0  0  0  0  0  0  0
   -1.9523    0.8781   -0.1940 C   0  0  0  0  0  0  0  0  0  0  0  0
   -2.1217   -0.3909   -0.7560 C   0  0  0  0  0  0  0  0  0  0  0  0
   -1.1224   -2.1993   -1.3720 H   0  0  0  0  0  0  0  0  0  0  0  0
    1.1298   -1.4162   -0.7071 H   0  0  0  0  0  0  0  0  0  0  0  0
   -0.5419    2.3114    0.6150 H   0  0  0  0  0  0  0  0  0  0  0  0
   -2.8123    1.5252   -0.0455 H   0  0  0  0  0  0  0  0  0  0  0  0
    3.7890    0.2134   -2.8684 N   0  0  0  0  0  0  0  0  0  0  0  0
    3.5842    0.0159   -1.8010 N   0  0  0  0  0  0  0  0  0  0  0  0
   -3.1089   -0.7349   -1.0476 H   0  0  0  0  0  0  0  0  0  0  0  0
    1.6418    0.9915    0.3778 O   0  0  0  0  0  0  0  0  0  0  0  0
    2.3310    0.3562    0.1447 H   0  0  0  0  0  0  0  0  0  0  0  0
  1  6  2  0  0  0  0
  1  2  1  0  0  0  0
  2  3  2  0  0  0  0
  3  4  1  0  0  0  0
  3 14  1  0  0  0  0
  4  9  1  0  0  0  0
  5 10  1  0  0  0  0
  5  4  2  0  0  0  0
  6  5  1  0  0  0  0
  7  1  1  0  0  0  0
  8  2  1  0  0  0  0
 11 12  3  0  0  0  0
 13  6  1  0  0  0  0
 15 14  1  0  0  0  0
M  END
