Coordinates from ORCA-job Ph-N2-OH-B3LYPG-6-31G_dp-MTMO-d009-169-n800
 OpenBabel09051908283D

 15 14  0  0  0  0  0  0  0  0999 V2000
   -1.4845   -1.1426   -0.9791 C   0  0  0  0  0  0  0  0  0  0  0  0
   -0.1867   -0.6292   -0.9472 C   0  0  0  0  0  0  0  0  0  0  0  0
    0.0603    0.5964   -0.3193 C   0  0  0  0  0  0  0  0  0  0  0  0
   -0.9918    1.3043    0.2737 C   0  0  0  0  0  0  0  0  0  0  0  0
   -2.2820    0.7809    0.2346 C   0  0  0  0  0  0  0  0  0  0  0  0
   -2.5382   -0.4433   -0.3902 C   0  0  0  0  0  0  0  0  0  0  0  0
   -1.6672   -2.0955   -1.4672 H   0  0  0  0  0  0  0  0  0  0  0  0
    0.6323   -1.1782   -1.4076 H   0  0  0  0  0  0  0  0  0  0  0  0
   -0.7783    2.2536    0.7534 H   0  0  0  0  0  0  0  0  0  0  0  0
   -3.0943    1.3351    0.6962 H   0  0  0  0  0  0  0  0  0  0  0  0
    6.7550   -0.1565   -2.1741 N   0  0  0  0  0  0  0  0  0  0  0  0
    5.6867   -0.1042   -1.8955 N   0  0  0  0  0  0  0  0  0  0  0  0
   -3.5461   -0.8459   -0.4165 H   0  0  0  0  0  0  0  0  0  0  0  0
    1.3074    1.1530   -0.2530 O   0  0  0  0  0  0  0  0  0  0  0  0
    1.9391    0.5707   -0.6946 H   0  0  0  0  0  0  0  0  0  0  0  0
  1  2  2  0  0  0  0
  1  6  1  0  0  0  0
  2  3  1  0  0  0  0
  3 14  1  0  0  0  0
  3  4  2  0  0  0  0
  4  9  1  0  0  0  0
  5  4  1  0  0  0  0
  5 10  1  0  0  0  0
  6  5  2  0  0  0  0
  7  1  1  0  0  0  0
  8  2  1  0  0  0  0
 11 12  3  0  0  0  0
 13  6  1  0  0  0  0
 15 14  1  0  0  0  0
M  END
