Coordinates from ORCA-job Ph-N2-OH-B3LYPG-6-31G_dp-MTMO-d009-169-n800
 OpenBabel09051908283D

 15 15  0  0  0  0  0  0  0  0999 V2000
   -1.2883   -1.4263   -1.0229 C   0  0  0  0  0  0  0  0  0  0  0  0
    0.0674   -1.1604   -1.2526 C   0  0  0  0  0  0  0  0  0  0  0  0
    0.5080    0.1282   -1.0255 C   0  0  0  0  0  0  0  0  0  0  0  0
   -0.2998    1.1762   -0.6252 C   0  0  0  0  0  0  0  0  0  0  0  0
   -1.6530    0.8914   -0.4093 C   0  0  0  0  0  0  0  0  0  0  0  0
   -2.1426   -0.4037   -0.6040 C   0  0  0  0  0  0  0  0  0  0  0  0
   -1.6739   -2.4294   -1.1816 H   0  0  0  0  0  0  0  0  0  0  0  0
    0.7483   -1.9315   -1.5958 H   0  0  0  0  0  0  0  0  0  0  0  0
    0.1006    2.1711   -0.4700 H   0  0  0  0  0  0  0  0  0  0  0  0
   -2.3220    1.6842   -0.0865 H   0  0  0  0  0  0  0  0  0  0  0  0
    2.2752    0.4411   -1.5186 N   0  0  0  0  0  0  0  0  0  0  0  0
    3.0221    0.7863   -0.6311 N   0  0  0  0  0  0  0  0  0  0  0  0
   -3.1938   -0.6147   -0.4313 H   0  0  0  0  0  0  0  0  0  0  0  0
    2.4495    0.9067    0.6680 O   0  0  0  0  0  0  0  0  0  0  0  0
    3.2141    1.1792    1.2001 H   0  0  0  0  0  0  0  0  0  0  0  0
  1  6  2  0  0  0  0
  2  3  2  0  0  0  0
  2  1  1  0  0  0  0
  3  4  1  0  0  0  0
  4  9  1  0  0  0  0
  4  5  2  0  0  0  0
  5 10  1  0  0  0  0
  6 13  1  0  0  0  0
  6  5  1  0  0  0  0
  7  1  1  0  0  0  0
  8  2  1  0  0  0  0
 11  3  1  0  0  0  0
 11 12  2  0  0  0  0
 12 14  1  0  0  0  0
 14 15  1  0  0  0  0
M  END
