Coordinates from ORCA-job Ph-N2-OH-B3LYPG-6-31G_dp-MTMO-d009-169-n800
 OpenBabel09051908283D

 15 14  0  0  0  0  0  0  0  0999 V2000
   -1.9716   -1.0841   -0.8228 C   0  0  0  0  0  0  0  0  0  0  0  0
   -0.7179   -0.4925   -0.6580 C   0  0  0  0  0  0  0  0  0  0  0  0
   -0.6117    0.7413   -0.0067 C   0  0  0  0  0  0  0  0  0  0  0  0
   -1.7597    1.3790    0.4778 C   0  0  0  0  0  0  0  0  0  0  0  0
   -3.0046    0.7779    0.3065 C   0  0  0  0  0  0  0  0  0  0  0  0
   -3.1205   -0.4546   -0.3431 C   0  0  0  0  0  0  0  0  0  0  0  0
   -2.0448   -2.0426   -1.3281 H   0  0  0  0  0  0  0  0  0  0  0  0
    0.1760   -0.9862   -1.0337 H   0  0  0  0  0  0  0  0  0  0  0  0
   -1.6551    2.3360    0.9778 H   0  0  0  0  0  0  0  0  0  0  0  0
   -3.8921    1.2777    0.6839 H   0  0  0  0  0  0  0  0  0  0  0  0
   10.8366   -0.7125   -3.5566 N   0  0  0  0  0  0  0  0  0  0  0  0
    9.7947   -0.6325   -3.1964 N   0  0  0  0  0  0  0  0  0  0  0  0
   -4.0939   -0.9168   -0.4734 H   0  0  0  0  0  0  0  0  0  0  0  0
    0.5859    1.3725    0.1858 O   0  0  0  0  0  0  0  0  0  0  0  0
    1.2905    0.8359   -0.1994 H   0  0  0  0  0  0  0  0  0  0  0  0
  1  2  2  0  0  0  0
  1  6  1  0  0  0  0
  2  3  1  0  0  0  0
  3 14  1  0  0  0  0
  3  4  2  0  0  0  0
  4  9  1  0  0  0  0
  5  4  1  0  0  0  0
  5 10  1  0  0  0  0
  6  5  2  0  0  0  0
  7  1  1  0  0  0  0
  8  2  1  0  0  0  0
 11 12  3  0  0  0  0
 13  6  1  0  0  0  0
 15 14  1  0  0  0  0
M  END
