Coordinates from ORCA-job Ph-N2-OH-B3LYPG-6-31G_dp-MTMO-d009-169-n800
 OpenBabel09051908283D

 15 14  0  0  0  0  0  0  0  0999 V2000
   -1.5067   -1.1298   -0.9612 C   0  0  0  0  0  0  0  0  0  0  0  0
   -0.2278   -0.5765   -0.8756 C   0  0  0  0  0  0  0  0  0  0  0  0
   -0.0444    0.6538   -0.2351 C   0  0  0  0  0  0  0  0  0  0  0  0
   -1.1406    1.3263    0.3174 C   0  0  0  0  0  0  0  0  0  0  0  0
   -2.4114    0.7634    0.2248 C   0  0  0  0  0  0  0  0  0  0  0  0
   -2.6043   -0.4656   -0.4131 C   0  0  0  0  0  0  0  0  0  0  0  0
   -1.6399   -2.0860   -1.4586 H   0  0  0  0  0  0  0  0  0  0  0  0
    0.6258   -1.0976   -1.3042 H   0  0  0  0  0  0  0  0  0  0  0  0
   -0.9764    2.2800    0.8078 H   0  0  0  0  0  0  0  0  0  0  0  0
   -3.2584    1.2903    0.6548 H   0  0  0  0  0  0  0  0  0  0  0  0
    7.3065   -0.3415   -2.4743 N   0  0  0  0  0  0  0  0  0  0  0  0
    6.2597   -0.2571   -2.1296 N   0  0  0  0  0  0  0  0  0  0  0  0
   -3.5974   -0.8986   -0.4815 H   0  0  0  0  0  0  0  0  0  0  0  0
    1.1813    1.2485   -0.1179 O   0  0  0  0  0  0  0  0  0  0  0  0
    1.8457    0.6890   -0.5403 H   0  0  0  0  0  0  0  0  0  0  0  0
  1  2  2  0  0  0  0
  1  6  1  0  0  0  0
  2  3  1  0  0  0  0
  3 14  1  0  0  0  0
  3  4  2  0  0  0  0
  4  9  1  0  0  0  0
  5  4  1  0  0  0  0
  5 10  1  0  0  0  0
  6  5  2  0  0  0  0
  7  1  1  0  0  0  0
  8  2  1  0  0  0  0
 11 12  3  0  0  0  0
 13  6  1  0  0  0  0
 15 14  1  0  0  0  0
M  END
