Coordinates from ORCA-job Ph-N2-OH-B3LYPG-6-31G_dp-MTMO-d009-169-n800
 OpenBabel09051908283D

 15 14  0  0  0  0  0  0  0  0999 V2000
   -2.3194   -1.0606   -0.7223 C   0  0  0  0  0  0  0  0  0  0  0  0
   -1.0657   -0.4758   -0.5343 C   0  0  0  0  0  0  0  0  0  0  0  0
   -0.9656    0.7615    0.1113 C   0  0  0  0  0  0  0  0  0  0  0  0
   -2.1196    1.4096    0.5669 C   0  0  0  0  0  0  0  0  0  0  0  0
   -3.3644    0.8152    0.3727 C   0  0  0  0  0  0  0  0  0  0  0  0
   -3.4742   -0.4208   -0.2713 C   0  0  0  0  0  0  0  0  0  0  0  0
   -2.3879   -2.0219   -1.2230 H   0  0  0  0  0  0  0  0  0  0  0  0
   -0.1672   -0.9777   -0.8876 H   0  0  0  0  0  0  0  0  0  0  0  0
   -2.0195    2.3690    1.0631 H   0  0  0  0  0  0  0  0  0  0  0  0
   -4.2565    1.3229    0.7280 H   0  0  0  0  0  0  0  0  0  0  0  0
   13.1350   -0.8770   -4.2058 N   0  0  0  0  0  0  0  0  0  0  0  0
   12.0918   -0.7974   -3.8492 N   0  0  0  0  0  0  0  0  0  0  0  0
   -4.4475   -0.8775   -0.4197 H   0  0  0  0  0  0  0  0  0  0  0  0
    0.2317    1.3863    0.3254 O   0  0  0  0  0  0  0  0  0  0  0  0
    0.9409    0.8425   -0.0406 H   0  0  0  0  0  0  0  0  0  0  0  0
  1  2  2  0  0  0  0
  1  6  1  0  0  0  0
  2  3  1  0  0  0  0
  3 14  1  0  0  0  0
  3  4  2  0  0  0  0
  4  9  1  0  0  0  0
  5  4  1  0  0  0  0
  5 10  1  0  0  0  0
  6  5  2  0  0  0  0
  7  1  1  0  0  0  0
  8  2  1  0  0  0  0
 11 12  3  0  0  0  0
 13  6  1  0  0  0  0
 15 14  1  0  0  0  0
M  END
