Coordinates from ORCA-job Ph-N2-OH-B3LYPG-6-31G_dp-MTMO-d009-169-n800
 OpenBabel09051908283D

 15 14  0  0  0  0  0  0  0  0999 V2000
   -1.7165   -1.1048   -0.8977 C   0  0  0  0  0  0  0  0  0  0  0  0
   -0.4565   -0.5191   -0.7626 C   0  0  0  0  0  0  0  0  0  0  0  0
   -0.3287    0.7126   -0.1113 C   0  0  0  0  0  0  0  0  0  0  0  0
   -1.4615    1.3542    0.4028 C   0  0  0  0  0  0  0  0  0  0  0  0
   -2.7130    0.7590    0.2611 C   0  0  0  0  0  0  0  0  0  0  0  0
   -2.8503   -0.4715   -0.3882 C   0  0  0  0  0  0  0  0  0  0  0  0
   -1.8064   -2.0619   -1.4031 H   0  0  0  0  0  0  0  0  0  0  0  0
    0.4257   -1.0160   -1.1614 H   0  0  0  0  0  0  0  0  0  0  0  0
   -1.3403    2.3095    0.9023 H   0  0  0  0  0  0  0  0  0  0  0  0
   -3.5886    1.2619    0.6613 H   0  0  0  0  0  0  0  0  0  0  0  0
    9.0366   -0.5586   -3.0287 N   0  0  0  0  0  0  0  0  0  0  0  0
    7.9951   -0.4751   -2.6683 N   0  0  0  0  0  0  0  0  0  0  0  0
   -3.8287   -0.9292   -0.4953 H   0  0  0  0  0  0  0  0  0  0  0  0
    0.8761    1.3381    0.0530 O   0  0  0  0  0  0  0  0  0  0  0  0
    1.5687    0.7993   -0.3505 H   0  0  0  0  0  0  0  0  0  0  0  0
  1  2  2  0  0  0  0
  1  6  1  0  0  0  0
  2  3  1  0  0  0  0
  3 14  1  0  0  0  0
  3  4  2  0  0  0  0
  4  9  1  0  0  0  0
  5  4  1  0  0  0  0
  5 10  1  0  0  0  0
  6  5  2  0  0  0  0
  7  1  1  0  0  0  0
  8  2  1  0  0  0  0
 11 12  3  0  0  0  0
 13  6  1  0  0  0  0
 15 14  1  0  0  0  0
M  END
