Coordinates from ORCA-job Ph-N2-OH-B3LYPG-6-31G_dp-MTMO-d009-169-n800
 OpenBabel09051908283D

 15 14  0  0  0  0  0  0  0  0999 V2000
   -2.5710   -1.0433   -0.6493 C   0  0  0  0  0  0  0  0  0  0  0  0
   -1.3187   -0.4622   -0.4421 C   0  0  0  0  0  0  0  0  0  0  0  0
   -1.2253    0.7777    0.1994 C   0  0  0  0  0  0  0  0  0  0  0  0
   -2.3847    1.4323    0.6314 C   0  0  0  0  0  0  0  0  0  0  0  0
   -3.6281    0.8416    0.4181 C   0  0  0  0  0  0  0  0  0  0  0  0
   -3.7312   -0.3971   -0.2218 C   0  0  0  0  0  0  0  0  0  0  0  0
   -2.6343   -2.0066   -1.1468 H   0  0  0  0  0  0  0  0  0  0  0  0
   -0.4161   -0.9686   -0.7781 H   0  0  0  0  0  0  0  0  0  0  0  0
   -2.2898    2.3937    1.1249 H   0  0  0  0  0  0  0  0  0  0  0  0
   -4.5244    1.3543    0.7553 H   0  0  0  0  0  0  0  0  0  0  0  0
   14.8137   -1.0024   -4.6832 N   0  0  0  0  0  0  0  0  0  0  0  0
   13.7707   -0.9177   -4.3273 N   0  0  0  0  0  0  0  0  0  0  0  0
   -4.7034   -0.8510   -0.3852 H   0  0  0  0  0  0  0  0  0  0  0  0
   -0.0297    1.3991    0.4321 O   0  0  0  0  0  0  0  0  0  0  0  0
    0.6843    0.8486    0.0860 H   0  0  0  0  0  0  0  0  0  0  0  0
  1  2  2  0  0  0  0
  1  6  1  0  0  0  0
  2  3  1  0  0  0  0
  3 14  1  0  0  0  0
  3  4  2  0  0  0  0
  4  9  1  0  0  0  0
  5  4  1  0  0  0  0
  5 10  1  0  0  0  0
  6  5  2  0  0  0  0
  7  1  1  0  0  0  0
  8  2  1  0  0  0  0
 11 12  3  0  0  0  0
 13  6  1  0  0  0  0
 15 14  1  0  0  0  0
M  END
