Coordinates from ORCA-job Ph-N2-OH-B3LYPG-6-31G_dp-MTMO-d009-169-n800
 OpenBabel09051908283D

 15 14  0  0  0  0  0  0  0  0999 V2000
   -2.5442   -1.0450   -0.6575 C   0  0  0  0  0  0  0  0  0  0  0  0
   -1.2916   -0.4631   -0.4539 C   0  0  0  0  0  0  0  0  0  0  0  0
   -1.1971    0.7763    0.1883 C   0  0  0  0  0  0  0  0  0  0  0  0
   -2.3555    1.4296    0.6247 C   0  0  0  0  0  0  0  0  0  0  0  0
   -3.5992    0.8381    0.4151 C   0  0  0  0  0  0  0  0  0  0  0  0
   -3.7034   -0.4001   -0.2255 C   0  0  0  0  0  0  0  0  0  0  0  0
   -2.6084   -2.0080   -1.1556 H   0  0  0  0  0  0  0  0  0  0  0  0
   -0.3898   -0.9685   -0.7935 H   0  0  0  0  0  0  0  0  0  0  0  0
   -2.2597    2.3906    1.1188 H   0  0  0  0  0  0  0  0  0  0  0  0
   -4.4948    1.3498    0.7557 H   0  0  0  0  0  0  0  0  0  0  0  0
   14.6316   -0.9890   -4.6298 N   0  0  0  0  0  0  0  0  0  0  0  0
   13.5886   -0.9048   -4.2738 N   0  0  0  0  0  0  0  0  0  0  0  0
   -4.6759   -0.8547   -0.3859 H   0  0  0  0  0  0  0  0  0  0  0  0
   -0.0012    1.3984    0.4175 O   0  0  0  0  0  0  0  0  0  0  0  0
    0.7122    0.8487    0.0688 H   0  0  0  0  0  0  0  0  0  0  0  0
  1  2  2  0  0  0  0
  1  6  1  0  0  0  0
  2  3  1  0  0  0  0
  3 14  1  0  0  0  0
  3  4  2  0  0  0  0
  4  9  1  0  0  0  0
  5  4  1  0  0  0  0
  5 10  1  0  0  0  0
  6  5  2  0  0  0  0
  7  1  1  0  0  0  0
  8  2  1  0  0  0  0
 11 12  3  0  0  0  0
 13  6  1  0  0  0  0
 15 14  1  0  0  0  0
M  END
