Coordinates from ORCA-job Ph-N2-OH-B3LYPG-6-31G_dp-MTMO-d009-169-n800
 OpenBabel09051908283D

 15 14  0  0  0  0  0  0  0  0999 V2000
   -0.9589   -1.2846   -0.8565 C   0  0  0  0  0  0  0  0  0  0  0  0
    0.3021   -0.9236   -0.3783 C   0  0  0  0  0  0  0  0  0  0  0  0
    0.5241    0.3796    0.0801 C   0  0  0  0  0  0  0  0  0  0  0  0
   -0.5163    1.3159    0.0601 C   0  0  0  0  0  0  0  0  0  0  0  0
   -1.7700    0.9423   -0.4182 C   0  0  0  0  0  0  0  0  0  0  0  0
   -2.0007   -0.3570   -0.8800 C   0  0  0  0  0  0  0  0  0  0  0  0
   -1.1221   -2.2980   -1.2121 H   0  0  0  0  0  0  0  0  0  0  0  0
    1.1111   -1.6510   -0.3594 H   0  0  0  0  0  0  0  0  0  0  0  0
   -0.3229    2.3204    0.4217 H   0  0  0  0  0  0  0  0  0  0  0  0
   -2.5734    1.6736   -0.4315 H   0  0  0  0  0  0  0  0  0  0  0  0
    2.7794    0.7878   -2.8290 N   0  0  0  0  0  0  0  0  0  0  0  0
    3.2301    0.2579   -1.9706 N   0  0  0  0  0  0  0  0  0  0  0  0
   -2.9793   -0.6412   -1.2535 H   0  0  0  0  0  0  0  0  0  0  0  0
    1.7338    0.7971    0.5620 O   0  0  0  0  0  0  0  0  0  0  0  0
    2.3748    0.0793    0.4787 H   0  0  0  0  0  0  0  0  0  0  0  0
  1  2  1  0  0  0  0
  2  8  1  0  0  0  0
  2  3  2  0  0  0  0
  3 14  1  0  0  0  0
  4  3  1  0  0  0  0
  4  9  1  0  0  0  0
  5  4  2  0  0  0  0
  6  1  2  0  0  0  0
  6  5  1  0  0  0  0
  7  1  1  0  0  0  0
 10  5  1  0  0  0  0
 11 12  3  0  0  0  0
 13  6  1  0  0  0  0
 15 14  1  0  0  0  0
M  END
