Coordinates from ORCA-job Ph-N2-OH-B3LYPG-6-31G_dp-MTMO-d009-169-n800
 OpenBabel09051908283D

 15 14  0  0  0  0  0  0  0  0999 V2000
   -2.1640   -1.0716   -0.7664 C   0  0  0  0  0  0  0  0  0  0  0  0
   -0.9097   -0.4857   -0.5869 C   0  0  0  0  0  0  0  0  0  0  0  0
   -0.8060    0.7505    0.0600 C   0  0  0  0  0  0  0  0  0  0  0  0
   -1.9573    1.3963    0.5255 C   0  0  0  0  0  0  0  0  0  0  0  0
   -3.2029    0.8010    0.3398 C   0  0  0  0  0  0  0  0  0  0  0  0
   -3.3161   -0.4341   -0.3056 C   0  0  0  0  0  0  0  0  0  0  0  0
   -2.2351   -2.0321   -1.2682 H   0  0  0  0  0  0  0  0  0  0  0  0
   -0.0133   -0.9860   -0.9480 H   0  0  0  0  0  0  0  0  0  0  0  0
   -1.8547    2.3551    1.0226 H   0  0  0  0  0  0  0  0  0  0  0  0
   -4.0929    1.3070    0.7027 H   0  0  0  0  0  0  0  0  0  0  0  0
   12.1026   -0.7990   -3.9168 N   0  0  0  0  0  0  0  0  0  0  0  0
   11.0600   -0.7225   -3.5579 N   0  0  0  0  0  0  0  0  0  0  0  0
   -4.2900   -0.8918   -0.4473 H   0  0  0  0  0  0  0  0  0  0  0  0
    0.3920    1.3766    0.2663 O   0  0  0  0  0  0  0  0  0  0  0  0
    1.0993    0.8346   -0.1062 H   0  0  0  0  0  0  0  0  0  0  0  0
  1  2  2  0  0  0  0
  1  6  1  0  0  0  0
  2  3  1  0  0  0  0
  3 14  1  0  0  0  0
  3  4  2  0  0  0  0
  4  9  1  0  0  0  0
  5  4  1  0  0  0  0
  5 10  1  0  0  0  0
  6  5  2  0  0  0  0
  7  1  1  0  0  0  0
  8  2  1  0  0  0  0
 11 12  3  0  0  0  0
 13  6  1  0  0  0  0
 15 14  1  0  0  0  0
M  END
