Coordinates from ORCA-job Ph-N2-OH-B3LYPG-6-31G_dp-MTMO-d009-169-n800
 OpenBabel09051908283D

 15 14  0  0  0  0  0  0  0  0999 V2000
   -1.9178   -1.0880   -0.8385 C   0  0  0  0  0  0  0  0  0  0  0  0
   -0.6635   -0.4963   -0.6781 C   0  0  0  0  0  0  0  0  0  0  0  0
   -0.5550    0.7370   -0.0264 C   0  0  0  0  0  0  0  0  0  0  0  0
   -1.7011    1.3741    0.4632 C   0  0  0  0  0  0  0  0  0  0  0  0
   -2.9466    0.7729    0.2964 C   0  0  0  0  0  0  0  0  0  0  0  0
   -3.0648   -0.4592   -0.3537 C   0  0  0  0  0  0  0  0  0  0  0  0
   -1.9928   -2.0462   -1.3442 H   0  0  0  0  0  0  0  0  0  0  0  0
    0.2290   -0.9896   -1.0578 H   0  0  0  0  0  0  0  0  0  0  0  0
   -1.5948    2.3307    0.9635 H   0  0  0  0  0  0  0  0  0  0  0  0
   -3.8327    1.2722    0.6777 H   0  0  0  0  0  0  0  0  0  0  0  0
   10.4713   -0.6843   -3.4522 N   0  0  0  0  0  0  0  0  0  0  0  0
    9.4297   -0.6040   -3.0913 N   0  0  0  0  0  0  0  0  0  0  0  0
   -4.0387   -0.9214   -0.4804 H   0  0  0  0  0  0  0  0  0  0  0  0
    0.6433    1.3683    0.1619 O   0  0  0  0  0  0  0  0  0  0  0  0
    1.3464    0.8322   -0.2266 H   0  0  0  0  0  0  0  0  0  0  0  0
  1  2  2  0  0  0  0
  1  6  1  0  0  0  0
  2  3  1  0  0  0  0
  3 14  1  0  0  0  0
  3  4  2  0  0  0  0
  4  9  1  0  0  0  0
  5  4  1  0  0  0  0
  5 10  1  0  0  0  0
  6  5  2  0  0  0  0
  7  1  1  0  0  0  0
  8  2  1  0  0  0  0
 11 12  3  0  0  0  0
 13  6  1  0  0  0  0
 15 14  1  0  0  0  0
M  END
