Coordinates from ORCA-job Ph-N2-OH-B3LYPG-6-31G_dp-MTMO-d009-169-n800
 OpenBabel09051908283D

 15 14  0  0  0  0  0  0  0  0999 V2000
   -2.0064   -1.0817   -0.8126 C   0  0  0  0  0  0  0  0  0  0  0  0
   -0.7528   -0.4907   -0.6448 C   0  0  0  0  0  0  0  0  0  0  0  0
   -0.6477    0.7435    0.0058 C   0  0  0  0  0  0  0  0  0  0  0  0
   -1.7965    1.3822    0.4868 C   0  0  0  0  0  0  0  0  0  0  0  0
   -3.0414    0.7817    0.3126 C   0  0  0  0  0  0  0  0  0  0  0  0
   -3.1562   -0.4512   -0.3364 C   0  0  0  0  0  0  0  0  0  0  0  0
   -2.0788   -2.0406   -1.3175 H   0  0  0  0  0  0  0  0  0  0  0  0
    0.1418   -0.9853   -1.0178 H   0  0  0  0  0  0  0  0  0  0  0  0
   -1.6927    2.3395    0.9864 H   0  0  0  0  0  0  0  0  0  0  0  0
   -3.9296    1.2823    0.6872 H   0  0  0  0  0  0  0  0  0  0  0  0
   11.0694   -0.7293   -3.6232 N   0  0  0  0  0  0  0  0  0  0  0  0
   10.0274   -0.6499   -3.2633 N   0  0  0  0  0  0  0  0  0  0  0  0
   -4.1295   -0.9129   -0.4691 H   0  0  0  0  0  0  0  0  0  0  0  0
    0.5498    1.3740    0.2011 O   0  0  0  0  0  0  0  0  0  0  0  0
    1.2551    0.8367   -0.1818 H   0  0  0  0  0  0  0  0  0  0  0  0
  1  2  2  0  0  0  0
  1  6  1  0  0  0  0
  2  3  1  0  0  0  0
  3 14  1  0  0  0  0
  3  4  2  0  0  0  0
  4  9  1  0  0  0  0
  5  4  1  0  0  0  0
  5 10  1  0  0  0  0
  6  5  2  0  0  0  0
  7  1  1  0  0  0  0
  8  2  1  0  0  0  0
 11 12  3  0  0  0  0
 13  6  1  0  0  0  0
 15 14  1  0  0  0  0
M  END
