Coordinates from ORCA-job Ph-N2-OH-B3LYPG-6-31G_dp-MTMO-d009-169-n800
 OpenBabel09051908283D

 15 14  0  0  0  0  0  0  0  0999 V2000
   -0.9279   -1.3253   -0.8152 C   0  0  0  0  0  0  0  0  0  0  0  0
    0.3215   -1.0421   -0.2614 C   0  0  0  0  0  0  0  0  0  0  0  0
    0.6402    0.2723    0.0949 C   0  0  0  0  0  0  0  0  0  0  0  0
   -0.3012    1.2936   -0.0748 C   0  0  0  0  0  0  0  0  0  0  0  0
   -1.5442    0.9979   -0.6284 C   0  0  0  0  0  0  0  0  0  0  0  0
   -1.8654   -0.3098   -1.0048 C   0  0  0  0  0  0  0  0  0  0  0  0
   -1.1652   -2.3469   -1.0982 H   0  0  0  0  0  0  0  0  0  0  0  0
    1.0509   -1.8367   -0.1153 H   0  0  0  0  0  0  0  0  0  0  0  0
   -0.0382    2.3026    0.2250 H   0  0  0  0  0  0  0  0  0  0  0  0
   -2.2691    1.7954   -0.7649 H   0  0  0  0  0  0  0  0  0  0  0  0
    1.7191    0.7546   -2.3352 N   0  0  0  0  0  0  0  0  0  0  0  0
    2.7962    0.9383   -2.1602 N   0  0  0  0  0  0  0  0  0  0  0  0
   -2.8355   -0.5336   -1.4368 H   0  0  0  0  0  0  0  0  0  0  0  0
    1.8408    0.6143    0.6523 O   0  0  0  0  0  0  0  0  0  0  0  0
    2.3898   -0.1761    0.7365 H   0  0  0  0  0  0  0  0  0  0  0  0
  1  2  1  0  0  0  0
  2  8  1  0  0  0  0
  2  3  2  0  0  0  0
  3 14  1  0  0  0  0
  4  3  1  0  0  0  0
  4  9  1  0  0  0  0
  5  4  2  0  0  0  0
  6  1  2  0  0  0  0
  6  5  1  0  0  0  0
  7  1  1  0  0  0  0
 10  5  1  0  0  0  0
 11 12  3  0  0  0  0
 13  6  1  0  0  0  0
 14 15  1  0  0  0  0
M  END
