Coordinates from ORCA-job Ph-N2-OH-B3LYPG-6-31G_dp-MTMO-d009-169-n800
 OpenBabel09051908283D

 15 14  0  0  0  0  0  0  0  0999 V2000
   -2.5369   -1.0455   -0.6597 C   0  0  0  0  0  0  0  0  0  0  0  0
   -1.2843   -0.4633   -0.4573 C   0  0  0  0  0  0  0  0  0  0  0  0
   -1.1894    0.7760    0.1852 C   0  0  0  0  0  0  0  0  0  0  0  0
   -2.3475    1.4288    0.6230 C   0  0  0  0  0  0  0  0  0  0  0  0
   -3.5913    0.8371    0.4145 C   0  0  0  0  0  0  0  0  0  0  0  0
   -3.6958   -0.4010   -0.2263 C   0  0  0  0  0  0  0  0  0  0  0  0
   -2.6014   -2.0083   -1.1580 H   0  0  0  0  0  0  0  0  0  0  0  0
   -0.3827   -0.9684   -0.7979 H   0  0  0  0  0  0  0  0  0  0  0  0
   -2.2515    2.3898    1.1172 H   0  0  0  0  0  0  0  0  0  0  0  0
   -4.4866    1.3485    0.7561 H   0  0  0  0  0  0  0  0  0  0  0  0
   14.5821   -0.9853   -4.6151 N   0  0  0  0  0  0  0  0  0  0  0  0
   13.5390   -0.9014   -4.2592 N   0  0  0  0  0  0  0  0  0  0  0  0
   -4.6683   -0.8557   -0.3859 H   0  0  0  0  0  0  0  0  0  0  0  0
    0.0066    1.3983    0.4133 O   0  0  0  0  0  0  0  0  0  0  0  0
    0.7197    0.8488    0.0638 H   0  0  0  0  0  0  0  0  0  0  0  0
  1  2  2  0  0  0  0
  1  6  1  0  0  0  0
  2  3  1  0  0  0  0
  3 14  1  0  0  0  0
  3  4  2  0  0  0  0
  4  9  1  0  0  0  0
  5  4  1  0  0  0  0
  5 10  1  0  0  0  0
  6  5  2  0  0  0  0
  7  1  1  0  0  0  0
  8  2  1  0  0  0  0
 11 12  3  0  0  0  0
 13  6  1  0  0  0  0
 15 14  1  0  0  0  0
M  END
