Coordinates from ORCA-job Ph-N2-OH-B3LYPG-6-31G_dp-MTMO-d009-169-n800
 OpenBabel09051908283D

 15 14  0  0  0  0  0  0  0  0999 V2000
   -1.6013   -1.1172   -0.9324 C   0  0  0  0  0  0  0  0  0  0  0  0
   -0.3330   -0.5445   -0.8211 C   0  0  0  0  0  0  0  0  0  0  0  0
   -0.1807    0.6865   -0.1738 C   0  0  0  0  0  0  0  0  0  0  0  0
   -1.2973    1.3403    0.3600 C   0  0  0  0  0  0  0  0  0  0  0  0
   -2.5572    0.7580    0.2419 C   0  0  0  0  0  0  0  0  0  0  0  0
   -2.7191   -0.4717   -0.4032 C   0  0  0  0  0  0  0  0  0  0  0  0
   -1.7102   -2.0739   -1.4349 H   0  0  0  0  0  0  0  0  0  0  0  0
    0.5366   -1.0509   -1.2352 H   0  0  0  0  0  0  0  0  0  0  0  0
   -1.1572    2.2948    0.8560 H   0  0  0  0  0  0  0  0  0  0  0  0
   -3.4202    1.2703    0.6574 H   0  0  0  0  0  0  0  0  0  0  0  0
    8.1262   -0.4560   -2.7428 N   0  0  0  0  0  0  0  0  0  0  0  0
    7.0828   -0.3704   -2.3885 N   0  0  0  0  0  0  0  0  0  0  0  0
   -3.7039   -0.9196   -0.4916 H   0  0  0  0  0  0  0  0  0  0  0  0
    1.0332    1.2998   -0.0321 O   0  0  0  0  0  0  0  0  0  0  0  0
    1.7132    0.7529   -0.4462 H   0  0  0  0  0  0  0  0  0  0  0  0
  1  2  2  0  0  0  0
  1  6  1  0  0  0  0
  2  3  1  0  0  0  0
  3 14  1  0  0  0  0
  3  4  2  0  0  0  0
  4  9  1  0  0  0  0
  5  4  1  0  0  0  0
  5 10  1  0  0  0  0
  6  5  2  0  0  0  0
  7  1  1  0  0  0  0
  8  2  1  0  0  0  0
 11 12  3  0  0  0  0
 13  6  1  0  0  0  0
 15 14  1  0  0  0  0
M  END
