Coordinates from ORCA-job Ph-N2-OH-B3LYPG-6-31G_dp-MTMO-d009-169-n800
 OpenBabel09051908283D

 15 14  0  0  0  0  0  0  0  0999 V2000
   -2.2225   -1.0677   -0.7495 C   0  0  0  0  0  0  0  0  0  0  0  0
   -0.9680   -0.4832   -0.5665 C   0  0  0  0  0  0  0  0  0  0  0  0
   -0.8649    0.7536    0.0793 C   0  0  0  0  0  0  0  0  0  0  0  0
   -2.0170    1.4014    0.5402 C   0  0  0  0  0  0  0  0  0  0  0  0
   -3.2626    0.8074    0.3512 C   0  0  0  0  0  0  0  0  0  0  0  0
   -3.3753   -0.4282   -0.2932 C   0  0  0  0  0  0  0  0  0  0  0  0
   -2.2931   -2.0287   -1.2505 H   0  0  0  0  0  0  0  0  0  0  0  0
   -0.0712   -0.9852   -0.9242 H   0  0  0  0  0  0  0  0  0  0  0  0
   -1.9147    2.3605    1.0366 H   0  0  0  0  0  0  0  0  0  0  0  0
   -4.1531    1.3150    0.7105 H   0  0  0  0  0  0  0  0  0  0  0  0
   12.4860   -0.8262   -4.0246 N   0  0  0  0  0  0  0  0  0  0  0  0
   11.4432   -0.7492   -3.6664 N   0  0  0  0  0  0  0  0  0  0  0  0
   -4.3493   -0.8849   -0.4377 H   0  0  0  0  0  0  0  0  0  0  0  0
    0.3332    1.3784    0.2889 O   0  0  0  0  0  0  0  0  0  0  0  0
    1.0412    0.8354   -0.0806 H   0  0  0  0  0  0  0  0  0  0  0  0
  1  2  2  0  0  0  0
  1  6  1  0  0  0  0
  2  3  1  0  0  0  0
  3 14  1  0  0  0  0
  3  4  2  0  0  0  0
  4  9  1  0  0  0  0
  5  4  1  0  0  0  0
  5 10  1  0  0  0  0
  6  5  2  0  0  0  0
  7  1  1  0  0  0  0
  8  2  1  0  0  0  0
 11 12  3  0  0  0  0
 13  6  1  0  0  0  0
 15 14  1  0  0  0  0
M  END
