Coordinates from ORCA-job Ph-N2-OH-B3LYPG-6-31G_dp-MTMO-d009-169-n800
 OpenBabel09051908283D

 15 14  0  0  0  0  0  0  0  0999 V2000
   -2.4971   -1.0479   -0.6723 C   0  0  0  0  0  0  0  0  0  0  0  0
   -1.2437   -0.4649   -0.4775 C   0  0  0  0  0  0  0  0  0  0  0  0
   -1.1454    0.7733    0.1664 C   0  0  0  0  0  0  0  0  0  0  0  0
   -2.3012    1.4240    0.6137 C   0  0  0  0  0  0  0  0  0  0  0  0
   -3.5458    0.8315    0.4129 C   0  0  0  0  0  0  0  0  0  0  0  0
   -3.6536   -0.4055   -0.2297 C   0  0  0  0  0  0  0  0  0  0  0  0
   -2.5640   -2.0100   -1.1718 H   0  0  0  0  0  0  0  0  0  0  0  0
   -0.3439   -0.9691   -0.8244 H   0  0  0  0  0  0  0  0  0  0  0  0
   -2.2026    2.3841    1.1089 H   0  0  0  0  0  0  0  0  0  0  0  0
   -4.4392    1.3413    0.7618 H   0  0  0  0  0  0  0  0  0  0  0  0
   14.3026   -0.9635   -4.5295 N   0  0  0  0  0  0  0  0  0  0  0  0
   13.2589   -0.8815   -4.1753 N   0  0  0  0  0  0  0  0  0  0  0  0
   -4.6268   -0.8610   -0.3834 H   0  0  0  0  0  0  0  0  0  0  0  0
    0.0514    1.3966    0.3870 O   0  0  0  0  0  0  0  0  0  0  0  0
    0.7622    0.8511    0.0266 H   0  0  0  0  0  0  0  0  0  0  0  0
  1  2  2  0  0  0  0
  1  6  1  0  0  0  0
  2  3  1  0  0  0  0
  3 14  1  0  0  0  0
  3  4  2  0  0  0  0
  4  9  1  0  0  0  0
  5  4  1  0  0  0  0
  5 10  1  0  0  0  0
  6  5  2  0  0  0  0
  7  1  1  0  0  0  0
  8  2  1  0  0  0  0
 11 12  3  0  0  0  0
 13  6  1  0  0  0  0
 15 14  1  0  0  0  0
M  END
