Coordinates from ORCA-job Ph-N2-OH-B3LYPG-6-31G_dp-MTMO-d009-169-n800
 OpenBabel09051908283D

 15 14  0  0  0  0  0  0  0  0999 V2000
   -0.9515   -1.3332   -0.7975 C   0  0  0  0  0  0  0  0  0  0  0  0
    0.3011   -1.0483   -0.2513 C   0  0  0  0  0  0  0  0  0  0  0  0
    0.6177    0.2650    0.1110 C   0  0  0  0  0  0  0  0  0  0  0  0
   -0.3217    1.2872   -0.0652 C   0  0  0  0  0  0  0  0  0  0  0  0
   -1.5678    0.9897   -0.6114 C   0  0  0  0  0  0  0  0  0  0  0  0
   -1.8915   -0.3190   -0.9816 C   0  0  0  0  0  0  0  0  0  0  0  0
   -1.1885   -2.3549   -1.0800 H   0  0  0  0  0  0  0  0  0  0  0  0
    1.0316   -1.8426   -0.1084 H   0  0  0  0  0  0  0  0  0  0  0  0
   -0.0579    2.2973    0.2305 H   0  0  0  0  0  0  0  0  0  0  0  0
   -2.2926    1.7874   -0.7482 H   0  0  0  0  0  0  0  0  0  0  0  0
    1.8750    0.8190   -2.4911 N   0  0  0  0  0  0  0  0  0  0  0  0
    2.9261    0.9676   -2.1810 N   0  0  0  0  0  0  0  0  0  0  0  0
   -2.8641   -0.5442   -1.4074 H   0  0  0  0  0  0  0  0  0  0  0  0
    1.8233    0.6089    0.6570 O   0  0  0  0  0  0  0  0  0  0  0  0
    2.3728   -0.1814    0.7381 H   0  0  0  0  0  0  0  0  0  0  0  0
  1  2  1  0  0  0  0
  2  8  1  0  0  0  0
  2  3  2  0  0  0  0
  3 14  1  0  0  0  0
  4  3  1  0  0  0  0
  4  9  1  0  0  0  0
  5  4  2  0  0  0  0
  6  1  2  0  0  0  0
  6  5  1  0  0  0  0
  7  1  1  0  0  0  0
 10  5  1  0  0  0  0
 11 12  3  0  0  0  0
 13  6  1  0  0  0  0
 14 15  1  0  0  0  0
M  END
