Coordinates from ORCA-job Ph-N2-OH-B3LYPG-6-31G_dp-MTMO-d009-169-n800
 OpenBabel09051908283D

 15 14  0  0  0  0  0  0  0  0999 V2000
   -2.5637   -1.0437   -0.6515 C   0  0  0  0  0  0  0  0  0  0  0  0
   -1.3113   -0.4624   -0.4453 C   0  0  0  0  0  0  0  0  0  0  0  0
   -1.2176    0.7773    0.1964 C   0  0  0  0  0  0  0  0  0  0  0  0
   -2.3767    1.4316    0.6296 C   0  0  0  0  0  0  0  0  0  0  0  0
   -3.6202    0.8407    0.4172 C   0  0  0  0  0  0  0  0  0  0  0  0
   -3.7236   -0.3979   -0.2228 C   0  0  0  0  0  0  0  0  0  0  0  0
   -2.6272   -2.0070   -1.1492 H   0  0  0  0  0  0  0  0  0  0  0  0
   -0.4089   -0.9686   -0.7822 H   0  0  0  0  0  0  0  0  0  0  0  0
   -2.2816    2.3929    1.1232 H   0  0  0  0  0  0  0  0  0  0  0  0
   -4.5164    1.3531    0.7553 H   0  0  0  0  0  0  0  0  0  0  0  0
   14.7640   -0.9987   -4.6687 N   0  0  0  0  0  0  0  0  0  0  0  0
   13.7210   -0.9142   -4.3127 N   0  0  0  0  0  0  0  0  0  0  0  0
   -4.6959   -0.8520   -0.3855 H   0  0  0  0  0  0  0  0  0  0  0  0
   -0.0219    1.3989    0.4282 O   0  0  0  0  0  0  0  0  0  0  0  0
    0.6920    0.8485    0.0815 H   0  0  0  0  0  0  0  0  0  0  0  0
  1  2  2  0  0  0  0
  1  6  1  0  0  0  0
  2  3  1  0  0  0  0
  3 14  1  0  0  0  0
  3  4  2  0  0  0  0
  4  9  1  0  0  0  0
  5  4  1  0  0  0  0
  5 10  1  0  0  0  0
  6  5  2  0  0  0  0
  7  1  1  0  0  0  0
  8  2  1  0  0  0  0
 11 12  3  0  0  0  0
 13  6  1  0  0  0  0
 15 14  1  0  0  0  0
M  END
