Coordinates from ORCA-job Ph-N2-OH-B3LYPG-6-31G_dp-MTMO-d009-169-n800
 OpenBabel09051908283D

 15 14  0  0  0  0  0  0  0  0999 V2000
   -1.0337   -1.1883   -0.9622 C   0  0  0  0  0  0  0  0  0  0  0  0
    0.2421   -0.7235   -0.6376 C   0  0  0  0  0  0  0  0  0  0  0  0
    0.3944    0.5396   -0.0534 C   0  0  0  0  0  0  0  0  0  0  0  0
   -0.7326    1.3289    0.2071 C   0  0  0  0  0  0  0  0  0  0  0  0
   -1.9998    0.8523   -0.1198 C   0  0  0  0  0  0  0  0  0  0  0  0
   -2.1606   -0.4066   -0.7065 C   0  0  0  0  0  0  0  0  0  0  0  0
   -1.1420   -2.1696   -1.4153 H   0  0  0  0  0  0  0  0  0  0  0  0
    1.1164   -1.3388   -0.8358 H   0  0  0  0  0  0  0  0  0  0  0  0
   -0.5929    2.3046    0.6605 H   0  0  0  0  0  0  0  0  0  0  0  0
   -2.8693    1.4706    0.0852 H   0  0  0  0  0  0  0  0  0  0  0  0
    4.1150    0.0325   -2.7871 N   0  0  0  0  0  0  0  0  0  0  0  0
    3.7052   -0.0281   -1.7632 N   0  0  0  0  0  0  0  0  0  0  0  0
   -3.1506   -0.7715   -0.9609 H   0  0  0  0  0  0  0  0  0  0  0  0
    1.6125    1.0539    0.2889 O   0  0  0  0  0  0  0  0  0  0  0  0
    2.3077    0.4424    0.0134 H   0  0  0  0  0  0  0  0  0  0  0  0
  1  6  2  0  0  0  0
  1  2  1  0  0  0  0
  2  3  2  0  0  0  0
  3  4  1  0  0  0  0
  3 14  1  0  0  0  0
  4  9  1  0  0  0  0
  5 10  1  0  0  0  0
  5  4  2  0  0  0  0
  6  5  1  0  0  0  0
  7  1  1  0  0  0  0
  8  2  1  0  0  0  0
 11 12  3  0  0  0  0
 13  6  1  0  0  0  0
 15 14  1  0  0  0  0
M  END
