Coordinates from ORCA-job Ph-N2-OH-B3LYPG-6-31G_dp-MTMO-d009-169-n800
 OpenBabel09051908283D

 15 14  0  0  0  0  0  0  0  0999 V2000
   -1.1193   -1.1370   -1.0290 C   0  0  0  0  0  0  0  0  0  0  0  0
    0.1581   -0.5981   -0.8650 C   0  0  0  0  0  0  0  0  0  0  0  0
    0.3158    0.6355   -0.2220 C   0  0  0  0  0  0  0  0  0  0  0  0
   -0.8075    1.3227    0.2546 C   0  0  0  0  0  0  0  0  0  0  0  0
   -2.0762    0.7737    0.0846 C   0  0  0  0  0  0  0  0  0  0  0  0
   -2.2424   -0.4574   -0.5569 C   0  0  0  0  0  0  0  0  0  0  0  0
   -1.2314   -2.0954   -1.5277 H   0  0  0  0  0  0  0  0  0  0  0  0
    1.0303   -1.1327   -1.2339 H   0  0  0  0  0  0  0  0  0  0  0  0
   -0.6639    2.2779    0.7485 H   0  0  0  0  0  0  0  0  0  0  0  0
   -2.9426    1.3131    0.4567 H   0  0  0  0  0  0  0  0  0  0  0  0
    4.8695   -0.3791   -2.2952 N   0  0  0  0  0  0  0  0  0  0  0  0
    3.9945   -0.1221   -1.6722 N   0  0  0  0  0  0  0  0  0  0  0  0
   -3.2340   -0.8796   -0.6866 H   0  0  0  0  0  0  0  0  0  0  0  0
    1.5359    1.2170   -0.0283 O   0  0  0  0  0  0  0  0  0  0  0  0
    2.2250    0.6599   -0.4140 H   0  0  0  0  0  0  0  0  0  0  0  0
  1  2  2  0  0  0  0
  1  6  1  0  0  0  0
  2  3  1  0  0  0  0
  3 14  1  0  0  0  0
  3  4  2  0  0  0  0
  4  9  1  0  0  0  0
  5  4  1  0  0  0  0
  5 10  1  0  0  0  0
  6  5  2  0  0  0  0
  7  1  1  0  0  0  0
  8  2  1  0  0  0  0
 11 12  3  0  0  0  0
 13  6  1  0  0  0  0
 15 14  1  0  0  0  0
M  END
