Coordinates from ORCA-job Ph-N2-OH-B3LYPG-6-31G_dp-MTMO-d009-169-n800
 OpenBabel09051908283D

 15 14  0  0  0  0  0  0  0  0999 V2000
   -1.5576   -1.1228   -0.9457 C   0  0  0  0  0  0  0  0  0  0  0  0
   -0.2849   -0.5579   -0.8458 C   0  0  0  0  0  0  0  0  0  0  0  0
   -0.1194    0.6728   -0.2012 C   0  0  0  0  0  0  0  0  0  0  0  0
   -1.2273    1.3342    0.3412 C   0  0  0  0  0  0  0  0  0  0  0  0
   -2.4919    0.7597    0.2344 C   0  0  0  0  0  0  0  0  0  0  0  0
   -2.6669   -0.4697   -0.4078 C   0  0  0  0  0  0  0  0  0  0  0  0
   -1.6769   -2.0792   -1.4462 H   0  0  0  0  0  0  0  0  0  0  0  0
    0.5779   -1.0703   -1.2666 H   0  0  0  0  0  0  0  0  0  0  0  0
   -1.0770    2.2883    0.8350 H   0  0  0  0  0  0  0  0  0  0  0  0
   -3.3481    1.2779    0.6565 H   0  0  0  0  0  0  0  0  0  0  0  0
    7.7557   -0.4069   -2.6221 N   0  0  0  0  0  0  0  0  0  0  0  0
    6.7108   -0.3212   -2.2721 N   0  0  0  0  0  0  0  0  0  0  0  0
   -3.6552   -0.9115   -0.4874 H   0  0  0  0  0  0  0  0  0  0  0  0
    1.0995    1.2785   -0.0703 O   0  0  0  0  0  0  0  0  0  0  0  0
    1.7729    0.7265   -0.4884 H   0  0  0  0  0  0  0  0  0  0  0  0
  1  2  2  0  0  0  0
  1  6  1  0  0  0  0
  2  3  1  0  0  0  0
  3 14  1  0  0  0  0
  3  4  2  0  0  0  0
  4  9  1  0  0  0  0
  5  4  1  0  0  0  0
  5 10  1  0  0  0  0
  6  5  2  0  0  0  0
  7  1  1  0  0  0  0
  8  2  1  0  0  0  0
 11 12  3  0  0  0  0
 13  6  1  0  0  0  0
 15 14  1  0  0  0  0
M  END
