Coordinates from ORCA-job Ph-N2-OH-B3LYPG-6-31G_dp-MTMO-d009-169-n800
 OpenBabel09051908283D

 15 14  0  0  0  0  0  0  0  0999 V2000
   -2.2469   -1.0659   -0.7427 C   0  0  0  0  0  0  0  0  0  0  0  0
   -0.9928   -0.4810   -0.5583 C   0  0  0  0  0  0  0  0  0  0  0  0
   -0.8909    0.7559    0.0876 C   0  0  0  0  0  0  0  0  0  0  0  0
   -2.0435    1.4036    0.5472 C   0  0  0  0  0  0  0  0  0  0  0  0
   -3.2888    0.8091    0.3567 C   0  0  0  0  0  0  0  0  0  0  0  0
   -3.4004   -0.4265   -0.2877 C   0  0  0  0  0  0  0  0  0  0  0  0
   -2.3169   -2.0269   -1.2437 H   0  0  0  0  0  0  0  0  0  0  0  0
   -0.0953   -0.9825   -0.9147 H   0  0  0  0  0  0  0  0  0  0  0  0
   -1.9420    2.3628    1.0437 H   0  0  0  0  0  0  0  0  0  0  0  0
   -4.1799    1.3165    0.7150 H   0  0  0  0  0  0  0  0  0  0  0  0
   12.6521   -0.8397   -4.0711 N   0  0  0  0  0  0  0  0  0  0  0  0
   11.6092   -0.7619   -3.7133 N   0  0  0  0  0  0  0  0  0  0  0  0
   -4.3742   -0.8834   -0.4333 H   0  0  0  0  0  0  0  0  0  0  0  0
    0.3070    1.3808    0.2983 O   0  0  0  0  0  0  0  0  0  0  0  0
    1.0151    0.8374   -0.0703 H   0  0  0  0  0  0  0  0  0  0  0  0
  1  2  2  0  0  0  0
  1  6  1  0  0  0  0
  2  3  1  0  0  0  0
  3 14  1  0  0  0  0
  3  4  2  0  0  0  0
  4  9  1  0  0  0  0
  5  4  1  0  0  0  0
  5 10  1  0  0  0  0
  6  5  2  0  0  0  0
  7  1  1  0  0  0  0
  8  2  1  0  0  0  0
 11 12  3  0  0  0  0
 13  6  1  0  0  0  0
 15 14  1  0  0  0  0
M  END
