Coordinates from ORCA-job Ph-N2-OH-B3LYPG-6-31G_dp-MTMO-d009-169-n800
 OpenBabel09051908283D

 15 14  0  0  0  0  0  0  0  0999 V2000
   -1.0363   -1.1854   -0.9661 C   0  0  0  0  0  0  0  0  0  0  0  0
    0.2398   -0.7169   -0.6479 C   0  0  0  0  0  0  0  0  0  0  0  0
    0.3911    0.5446   -0.0599 C   0  0  0  0  0  0  0  0  0  0  0  0
   -0.7373    1.3287    0.2105 C   0  0  0  0  0  0  0  0  0  0  0  0
   -2.0047    0.8485   -0.1102 C   0  0  0  0  0  0  0  0  0  0  0  0
   -2.1644   -0.4088   -0.7005 C   0  0  0  0  0  0  0  0  0  0  0  0
   -1.1437   -2.1654   -1.4221 H   0  0  0  0  0  0  0  0  0  0  0  0
    1.1150   -1.3284   -0.8537 H   0  0  0  0  0  0  0  0  0  0  0  0
   -0.5983    2.3033    0.6665 H   0  0  0  0  0  0  0  0  0  0  0  0
   -2.8751    1.4629    0.1025 H   0  0  0  0  0  0  0  0  0  0  0  0
    4.1477    0.0039   -2.7719 N   0  0  0  0  0  0  0  0  0  0  0  0
    3.7183   -0.0292   -1.7549 N   0  0  0  0  0  0  0  0  0  0  0  0
   -3.1547   -0.7765   -0.9500 H   0  0  0  0  0  0  0  0  0  0  0  0
    1.6092    1.0622    0.2768 O   0  0  0  0  0  0  0  0  0  0  0  0
    2.3051    0.4548   -0.0058 H   0  0  0  0  0  0  0  0  0  0  0  0
  1  6  2  0  0  0  0
  1  2  1  0  0  0  0
  2  3  2  0  0  0  0
  3  4  1  0  0  0  0
  3 14  1  0  0  0  0
  4  9  1  0  0  0  0
  5 10  1  0  0  0  0
  5  4  2  0  0  0  0
  6  5  1  0  0  0  0
  7  1  1  0  0  0  0
  8  2  1  0  0  0  0
 11 12  3  0  0  0  0
 13  6  1  0  0  0  0
 15 14  1  0  0  0  0
M  END
