Coordinates from ORCA-job Ph-N2-OH-B3LYPG-6-31G_dp-MTMO-d009-169-n800
 OpenBabel09051908283D

 15 14  0  0  0  0  0  0  0  0999 V2000
   -2.4234   -1.0532   -0.6929 C   0  0  0  0  0  0  0  0  0  0  0  0
   -1.1699   -0.4697   -0.5006 C   0  0  0  0  0  0  0  0  0  0  0  0
   -1.0710    0.7683    0.1439 C   0  0  0  0  0  0  0  0  0  0  0  0
   -2.2259    1.4181    0.5942 C   0  0  0  0  0  0  0  0  0  0  0  0
   -3.4706    0.8250    0.3958 C   0  0  0  0  0  0  0  0  0  0  0  0
   -3.5793   -0.4116   -0.2473 C   0  0  0  0  0  0  0  0  0  0  0  0
   -2.4911   -2.0150   -1.1928 H   0  0  0  0  0  0  0  0  0  0  0  0
   -0.2705   -0.9730   -0.8498 H   0  0  0  0  0  0  0  0  0  0  0  0
   -2.1268    2.3781    1.0897 H   0  0  0  0  0  0  0  0  0  0  0  0
   -4.3636    1.3341    0.7470 H   0  0  0  0  0  0  0  0  0  0  0  0
   13.8188   -0.9275   -4.3957 N   0  0  0  0  0  0  0  0  0  0  0  0
   12.7752   -0.8465   -4.0405 N   0  0  0  0  0  0  0  0  0  0  0  0
   -4.5525   -0.8675   -0.3990 H   0  0  0  0  0  0  0  0  0  0  0  0
    0.1262    1.3920    0.3620 O   0  0  0  0  0  0  0  0  0  0  0  0
    0.8362    0.8469   -0.0005 H   0  0  0  0  0  0  0  0  0  0  0  0
  1  2  2  0  0  0  0
  1  6  1  0  0  0  0
  2  3  1  0  0  0  0
  3 14  1  0  0  0  0
  3  4  2  0  0  0  0
  4  9  1  0  0  0  0
  5  4  1  0  0  0  0
  5 10  1  0  0  0  0
  6  5  2  0  0  0  0
  7  1  1  0  0  0  0
  8  2  1  0  0  0  0
 11 12  3  0  0  0  0
 13  6  1  0  0  0  0
 15 14  1  0  0  0  0
M  END
