Coordinates from ORCA-job Ph-N2-OH-B3LYPG-6-31G_dp-MTMO-d009-169-n800
 OpenBabel09051908283D

 15 14  0  0  0  0  0  0  0  0999 V2000
   -1.5158   -1.1285   -0.9585 C   0  0  0  0  0  0  0  0  0  0  0  0
   -0.2380   -0.5731   -0.8703 C   0  0  0  0  0  0  0  0  0  0  0  0
   -0.0578    0.6573   -0.2291 C   0  0  0  0  0  0  0  0  0  0  0  0
   -1.1561    1.3278    0.3217 C   0  0  0  0  0  0  0  0  0  0  0  0
   -2.4258    0.7626    0.2266 C   0  0  0  0  0  0  0  0  0  0  0  0
   -2.6155   -0.4664   -0.4121 C   0  0  0  0  0  0  0  0  0  0  0  0
   -1.6464   -2.0848   -1.4565 H   0  0  0  0  0  0  0  0  0  0  0  0
    0.6173   -1.0926   -1.2977 H   0  0  0  0  0  0  0  0  0  0  0  0
   -0.9945    2.2815    0.8127 H   0  0  0  0  0  0  0  0  0  0  0  0
   -3.2745    1.2879    0.6553 H   0  0  0  0  0  0  0  0  0  0  0  0
    7.3867   -0.3535   -2.5005 N   0  0  0  0  0  0  0  0  0  0  0  0
    6.3403   -0.2687   -2.1550 N   0  0  0  0  0  0  0  0  0  0  0  0
   -3.6077   -0.9010   -0.4825 H   0  0  0  0  0  0  0  0  0  0  0  0
    1.1667    1.2540   -0.1095 O   0  0  0  0  0  0  0  0  0  0  0  0
    1.8327    0.6959   -0.5312 H   0  0  0  0  0  0  0  0  0  0  0  0
  1  2  2  0  0  0  0
  1  6  1  0  0  0  0
  2  3  1  0  0  0  0
  3 14  1  0  0  0  0
  3  4  2  0  0  0  0
  4  9  1  0  0  0  0
  5  4  1  0  0  0  0
  5 10  1  0  0  0  0
  6  5  2  0  0  0  0
  7  1  1  0  0  0  0
  8  2  1  0  0  0  0
 11 12  3  0  0  0  0
 13  6  1  0  0  0  0
 15 14  1  0  0  0  0
M  END
