Coordinates from ORCA-job Ph-N2-OH-B3LYPG-6-31G_dp-MTMO-d009-169-n800
 OpenBabel09051908283D

 15 14  0  0  0  0  0  0  0  0999 V2000
   -2.3776   -1.0564   -0.7059 C   0  0  0  0  0  0  0  0  0  0  0  0
   -1.1241   -0.4722   -0.5153 C   0  0  0  0  0  0  0  0  0  0  0  0
   -1.0247    0.7654    0.1297 C   0  0  0  0  0  0  0  0  0  0  0  0
   -2.1794    1.4143    0.5822 C   0  0  0  0  0  0  0  0  0  0  0  0
   -3.4241    0.8206    0.3856 C   0  0  0  0  0  0  0  0  0  0  0  0
   -3.5331   -0.4158   -0.2580 C   0  0  0  0  0  0  0  0  0  0  0  0
   -2.4454   -2.0180   -1.2062 H   0  0  0  0  0  0  0  0  0  0  0  0
   -0.2251   -0.9750   -0.8663 H   0  0  0  0  0  0  0  0  0  0  0  0
   -2.0800    2.3740    1.0781 H   0  0  0  0  0  0  0  0  0  0  0  0
   -4.3167    1.3290    0.7385 H   0  0  0  0  0  0  0  0  0  0  0  0
   13.5185   -0.9056   -4.3125 N   0  0  0  0  0  0  0  0  0  0  0  0
   12.4752   -0.8250   -3.9567 N   0  0  0  0  0  0  0  0  0  0  0  0
   -4.5063   -0.8721   -0.4084 H   0  0  0  0  0  0  0  0  0  0  0  0
    0.1724    1.3898    0.3463 O   0  0  0  0  0  0  0  0  0  0  0  0
    0.8823    0.8456   -0.0177 H   0  0  0  0  0  0  0  0  0  0  0  0
  1  2  2  0  0  0  0
  1  6  1  0  0  0  0
  2  3  1  0  0  0  0
  3 14  1  0  0  0  0
  3  4  2  0  0  0  0
  4  9  1  0  0  0  0
  5  4  1  0  0  0  0
  5 10  1  0  0  0  0
  6  5  2  0  0  0  0
  7  1  1  0  0  0  0
  8  2  1  0  0  0  0
 11 12  3  0  0  0  0
 13  6  1  0  0  0  0
 15 14  1  0  0  0  0
M  END
