Coordinates from ORCA-job Ph-N2-OH-B3LYPG-6-31G_dp-MTMO-d009-169-n800
 OpenBabel09051908283D

 15 14  0  0  0  0  0  0  0  0999 V2000
   -1.6802   -1.1084   -0.9085 C   0  0  0  0  0  0  0  0  0  0  0  0
   -0.4181   -0.5258   -0.7800 C   0  0  0  0  0  0  0  0  0  0  0  0
   -0.2840    0.7057   -0.1296 C   0  0  0  0  0  0  0  0  0  0  0  0
   -1.4125    1.3501    0.3903 C   0  0  0  0  0  0  0  0  0  0  0  0
   -2.6662    0.7579    0.2550 C   0  0  0  0  0  0  0  0  0  0  0  0
   -2.8099   -0.4723   -0.3934 C   0  0  0  0  0  0  0  0  0  0  0  0
   -1.7750   -2.0653   -1.4134 H   0  0  0  0  0  0  0  0  0  0  0  0
    0.4608   -1.0248   -1.1833 H   0  0  0  0  0  0  0  0  0  0  0  0
   -1.2865    2.3052    0.8890 H   0  0  0  0  0  0  0  0  0  0  0  0
   -3.5386    1.2630    0.6597 H   0  0  0  0  0  0  0  0  0  0  0  0
    8.7590   -0.5297   -2.9432 N   0  0  0  0  0  0  0  0  0  0  0  0
    7.7171   -0.4455   -2.5839 N   0  0  0  0  0  0  0  0  0  0  0  0
   -3.7899   -0.9277   -0.4953 H   0  0  0  0  0  0  0  0  0  0  0  0
    0.9231    1.3283    0.0285 O   0  0  0  0  0  0  0  0  0  0  0  0
    1.6125    0.7878   -0.3783 H   0  0  0  0  0  0  0  0  0  0  0  0
  1  2  2  0  0  0  0
  1  6  1  0  0  0  0
  2  3  1  0  0  0  0
  3 14  1  0  0  0  0
  3  4  2  0  0  0  0
  4  9  1  0  0  0  0
  5  4  1  0  0  0  0
  5 10  1  0  0  0  0
  6  5  2  0  0  0  0
  7  1  1  0  0  0  0
  8  2  1  0  0  0  0
 11 12  3  0  0  0  0
 13  6  1  0  0  0  0
 15 14  1  0  0  0  0
M  END
