Coordinates from ORCA-job Ph-N2-OH-B3LYPG-6-31G_dp-MTMO-d009-169-n800
 OpenBabel09051908283D

 15 14  0  0  0  0  0  0  0  0999 V2000
   -1.3260   -1.1486   -1.0144 C   0  0  0  0  0  0  0  0  0  0  0  0
   -0.0255   -0.6425   -0.9757 C   0  0  0  0  0  0  0  0  0  0  0  0
    0.2249    0.5833   -0.3489 C   0  0  0  0  0  0  0  0  0  0  0  0
   -0.8272    1.2980    0.2361 C   0  0  0  0  0  0  0  0  0  0  0  0
   -2.1201    0.7818    0.1903 C   0  0  0  0  0  0  0  0  0  0  0  0
   -2.3795   -0.4423   -0.4333 C   0  0  0  0  0  0  0  0  0  0  0  0
   -1.5111   -2.1016   -1.5015 H   0  0  0  0  0  0  0  0  0  0  0  0
    0.7933   -1.1967   -1.4299 H   0  0  0  0  0  0  0  0  0  0  0  0
   -0.6113    2.2471    0.7151 H   0  0  0  0  0  0  0  0  0  0  0  0
   -2.9320    1.3416    0.6459 H   0  0  0  0  0  0  0  0  0  0  0  0
    5.6929   -0.1289   -1.9648 N   0  0  0  0  0  0  0  0  0  0  0  0
    4.6367   -0.0372   -1.6525 N   0  0  0  0  0  0  0  0  0  0  0  0
   -3.3894   -0.8394   -0.4650 H   0  0  0  0  0  0  0  0  0  0  0  0
    1.4744    1.1331   -0.2762 O   0  0  0  0  0  0  0  0  0  0  0  0
    2.1115    0.5507   -0.7114 H   0  0  0  0  0  0  0  0  0  0  0  0
  1  2  2  0  0  0  0
  1  6  1  0  0  0  0
  2  3  1  0  0  0  0
  3 14  1  0  0  0  0
  3  4  2  0  0  0  0
  4  9  1  0  0  0  0
  5  4  1  0  0  0  0
  5 10  1  0  0  0  0
  6  5  2  0  0  0  0
  7  1  1  0  0  0  0
  8  2  1  0  0  0  0
 11 12  3  0  0  0  0
 13  6  1  0  0  0  0
 15 14  1  0  0  0  0
M  END
