Coordinates from ORCA-job Ph-N2-OH-B3LYPG-6-31G_dp-MTMO-d009-169-n800
 OpenBabel09051908283D

 15 14  0  0  0  0  0  0  0  0999 V2000
   -1.0025   -1.3496   -0.7616 C   0  0  0  0  0  0  0  0  0  0  0  0
    0.2638   -1.0421   -0.2609 C   0  0  0  0  0  0  0  0  0  0  0  0
    0.5682    0.2762    0.0944 C   0  0  0  0  0  0  0  0  0  0  0  0
   -0.3932    1.2824   -0.0540 C   0  0  0  0  0  0  0  0  0  0  0  0
   -1.6530    0.9620   -0.5547 C   0  0  0  0  0  0  0  0  0  0  0  0
   -1.9668   -0.3527   -0.9115 C   0  0  0  0  0  0  0  0  0  0  0  0
   -1.2307   -2.3755   -1.0365 H   0  0  0  0  0  0  0  0  0  0  0  0
    1.0133   -1.8227   -0.1444 H   0  0  0  0  0  0  0  0  0  0  0  0
   -0.1359    2.2978    0.2289 H   0  0  0  0  0  0  0  0  0  0  0  0
   -2.3953    1.7471   -0.6681 H   0  0  0  0  0  0  0  0  0  0  0  0
    2.3760    1.1698   -2.7211 N   0  0  0  0  0  0  0  0  0  0  0  0
    3.1661    0.6911   -2.1145 N   0  0  0  0  0  0  0  0  0  0  0  0
   -2.9498   -0.5956   -1.3022 H   0  0  0  0  0  0  0  0  0  0  0  0
    1.7881    0.6427    0.5924 O   0  0  0  0  0  0  0  0  0  0  0  0
    2.3635   -0.1325    0.6275 H   0  0  0  0  0  0  0  0  0  0  0  0
  1  2  1  0  0  0  0
  2  8  1  0  0  0  0
  2  3  2  0  0  0  0
  3 14  1  0  0  0  0
  4  3  1  0  0  0  0
  4  9  1  0  0  0  0
  5  4  2  0  0  0  0
  6  1  2  0  0  0  0
  6  5  1  0  0  0  0
  7  1  1  0  0  0  0
 10  5  1  0  0  0  0
 11 12  3  0  0  0  0
 13  6  1  0  0  0  0
 14 15  1  0  0  0  0
M  END
