Coordinates from ORCA-job Ph-N2-OH-B3LYPG-6-31G_dp-MTMO-d009-169-n800
 OpenBabel09051908283D

 15 14  0  0  0  0  0  0  0  0999 V2000
   -1.9944   -1.0825   -0.8162 C   0  0  0  0  0  0  0  0  0  0  0  0
   -0.7406   -0.4916   -0.6495 C   0  0  0  0  0  0  0  0  0  0  0  0
   -0.6347    0.7424    0.0012 C   0  0  0  0  0  0  0  0  0  0  0  0
   -1.7832    1.3809    0.4834 C   0  0  0  0  0  0  0  0  0  0  0  0
   -3.0282    0.7806    0.3104 C   0  0  0  0  0  0  0  0  0  0  0  0
   -3.1437   -0.4523   -0.3387 C   0  0  0  0  0  0  0  0  0  0  0  0
   -2.0671   -2.0413   -1.3211 H   0  0  0  0  0  0  0  0  0  0  0  0
    0.1535   -0.9863   -1.0237 H   0  0  0  0  0  0  0  0  0  0  0  0
   -1.6789    2.3381    0.9831 H   0  0  0  0  0  0  0  0  0  0  0  0
   -3.9160    1.2811    0.6861 H   0  0  0  0  0  0  0  0  0  0  0  0
   10.9866   -0.7230   -3.5993 N   0  0  0  0  0  0  0  0  0  0  0  0
    9.9446   -0.6433   -3.2394 N   0  0  0  0  0  0  0  0  0  0  0  0
   -4.1171   -0.9141   -0.4705 H   0  0  0  0  0  0  0  0  0  0  0  0
    0.5628    1.3732    0.1956 O   0  0  0  0  0  0  0  0  0  0  0  0
    1.2681    0.8366   -0.1881 H   0  0  0  0  0  0  0  0  0  0  0  0
  1  2  2  0  0  0  0
  1  6  1  0  0  0  0
  2  3  1  0  0  0  0
  3 14  1  0  0  0  0
  3  4  2  0  0  0  0
  4  9  1  0  0  0  0
  5  4  1  0  0  0  0
  5 10  1  0  0  0  0
  6  5  2  0  0  0  0
  7  1  1  0  0  0  0
  8  2  1  0  0  0  0
 11 12  3  0  0  0  0
 13  6  1  0  0  0  0
 15 14  1  0  0  0  0
M  END
