Coordinates from ORCA-job Ph-N2-OH-B3LYPG-6-31G_dp-MTMO-d009-169-n800
 OpenBabel09051908283D

 15 14  0  0  0  0  0  0  0  0999 V2000
   -1.6511   -1.1115   -0.9173 C   0  0  0  0  0  0  0  0  0  0  0  0
   -0.3870   -0.5319   -0.7946 C   0  0  0  0  0  0  0  0  0  0  0  0
   -0.2470    0.6994   -0.1451 C   0  0  0  0  0  0  0  0  0  0  0  0
   -1.3717    1.3466    0.3796 C   0  0  0  0  0  0  0  0  0  0  0  0
   -2.6273    0.7576    0.2502 C   0  0  0  0  0  0  0  0  0  0  0  0
   -2.7769   -0.4725   -0.3972 C   0  0  0  0  0  0  0  0  0  0  0  0
   -1.7506   -2.0683   -1.4214 H   0  0  0  0  0  0  0  0  0  0  0  0
    0.4888   -1.0332   -1.2017 H   0  0  0  0  0  0  0  0  0  0  0  0
   -1.2411    2.3015    0.8775 H   0  0  0  0  0  0  0  0  0  0  0  0
   -3.4967    1.2648    0.6587 H   0  0  0  0  0  0  0  0  0  0  0  0
    8.5312   -0.5045   -2.8719 N   0  0  0  0  0  0  0  0  0  0  0  0
    7.4889   -0.4197   -2.5141 N   0  0  0  0  0  0  0  0  0  0  0  0
   -3.7585   -0.9256   -0.4945 H   0  0  0  0  0  0  0  0  0  0  0  0
    0.9623    1.3191    0.0074 O   0  0  0  0  0  0  0  0  0  0  0  0
    1.6486    0.7766   -0.4020 H   0  0  0  0  0  0  0  0  0  0  0  0
  1  2  2  0  0  0  0
  1  6  1  0  0  0  0
  2  3  1  0  0  0  0
  3 14  1  0  0  0  0
  3  4  2  0  0  0  0
  4  9  1  0  0  0  0
  5  4  1  0  0  0  0
  5 10  1  0  0  0  0
  6  5  2  0  0  0  0
  7  1  1  0  0  0  0
  8  2  1  0  0  0  0
 11 12  3  0  0  0  0
 13  6  1  0  0  0  0
 15 14  1  0  0  0  0
M  END
