Coordinates from ORCA-job Ph-N2-OH-B3LYPG-6-31G_dp-MTMO-d009-169-n800
 OpenBabel09051908283D

 15 14  0  0  0  0  0  0  0  0999 V2000
   -2.4262   -1.0531   -0.6921 C   0  0  0  0  0  0  0  0  0  0  0  0
   -1.1726   -0.4697   -0.4998 C   0  0  0  0  0  0  0  0  0  0  0  0
   -1.0734    0.7682    0.1446 C   0  0  0  0  0  0  0  0  0  0  0  0
   -2.2284    1.4183    0.5947 C   0  0  0  0  0  0  0  0  0  0  0  0
   -3.4732    0.8254    0.3964 C   0  0  0  0  0  0  0  0  0  0  0  0
   -3.5820   -0.4113   -0.2467 C   0  0  0  0  0  0  0  0  0  0  0  0
   -2.4938   -2.0149   -1.1920 H   0  0  0  0  0  0  0  0  0  0  0  0
   -0.2734   -0.9733   -0.8489 H   0  0  0  0  0  0  0  0  0  0  0  0
   -2.1292    2.3782    1.0902 H   0  0  0  0  0  0  0  0  0  0  0  0
   -4.3661    1.3347    0.7474 H   0  0  0  0  0  0  0  0  0  0  0  0
   13.8356   -0.9285   -4.4003 N   0  0  0  0  0  0  0  0  0  0  0  0
   12.7921   -0.8475   -4.0452 N   0  0  0  0  0  0  0  0  0  0  0  0
   -4.5553   -0.8670   -0.3984 H   0  0  0  0  0  0  0  0  0  0  0  0
    0.1237    1.3919    0.3629 O   0  0  0  0  0  0  0  0  0  0  0  0
    0.8339    0.8470    0.0006 H   0  0  0  0  0  0  0  0  0  0  0  0
  1  2  2  0  0  0  0
  1  6  1  0  0  0  0
  2  3  1  0  0  0  0
  3 14  1  0  0  0  0
  3  4  2  0  0  0  0
  4  9  1  0  0  0  0
  5  4  1  0  0  0  0
  5 10  1  0  0  0  0
  6  5  2  0  0  0  0
  7  1  1  0  0  0  0
  8  2  1  0  0  0  0
 11 12  3  0  0  0  0
 13  6  1  0  0  0  0
 15 14  1  0  0  0  0
M  END
