Coordinates from ORCA-job Ph-N2-OH-B3LYPG-6-31G_dp-MTMO-d009-169-n800
 OpenBabel09051908283D

 15 14  0  0  0  0  0  0  0  0999 V2000
   -1.5878   -1.1189   -0.9365 C   0  0  0  0  0  0  0  0  0  0  0  0
   -0.3182   -0.5484   -0.8286 C   0  0  0  0  0  0  0  0  0  0  0  0
   -0.1621    0.6825   -0.1821 C   0  0  0  0  0  0  0  0  0  0  0  0
   -1.2761    1.3385    0.3544 C   0  0  0  0  0  0  0  0  0  0  0  0
   -2.5374    0.7584    0.2396 C   0  0  0  0  0  0  0  0  0  0  0  0
   -2.7031   -0.4713   -0.4046 C   0  0  0  0  0  0  0  0  0  0  0  0
   -1.6997   -2.0755   -1.4385 H   0  0  0  0  0  0  0  0  0  0  0  0
    0.5494   -1.0565   -1.2448 H   0  0  0  0  0  0  0  0  0  0  0  0
   -1.1331    2.2929    0.8498 H   0  0  0  0  0  0  0  0  0  0  0  0
   -3.3984    1.2724    0.6571 H   0  0  0  0  0  0  0  0  0  0  0  0
    8.0133   -0.4415   -2.7062 N   0  0  0  0  0  0  0  0  0  0  0  0
    6.9694   -0.3558   -2.3531 N   0  0  0  0  0  0  0  0  0  0  0  0
   -3.6889   -0.9174   -0.4905 H   0  0  0  0  0  0  0  0  0  0  0  0
    1.0533    1.2936   -0.0436 O   0  0  0  0  0  0  0  0  0  0  0  0
    1.7313    0.7453   -0.4589 H   0  0  0  0  0  0  0  0  0  0  0  0
  1  2  2  0  0  0  0
  1  6  1  0  0  0  0
  2  3  1  0  0  0  0
  3 14  1  0  0  0  0
  3  4  2  0  0  0  0
  4  9  1  0  0  0  0
  5  4  1  0  0  0  0
  5 10  1  0  0  0  0
  6  5  2  0  0  0  0
  7  1  1  0  0  0  0
  8  2  1  0  0  0  0
 11 12  3  0  0  0  0
 13  6  1  0  0  0  0
 15 14  1  0  0  0  0
M  END
