Coordinates from ORCA-job Ph-N2-OH-B3LYPG-6-31G_dp-MTMO-d009-169-n800
 OpenBabel09051908283D

 15 14  0  0  0  0  0  0  0  0999 V2000
   -2.5564   -1.0442   -0.6537 C   0  0  0  0  0  0  0  0  0  0  0  0
   -1.3039   -0.4627   -0.4485 C   0  0  0  0  0  0  0  0  0  0  0  0
   -1.2099    0.7770    0.1934 C   0  0  0  0  0  0  0  0  0  0  0  0
   -2.3688    1.4308    0.6277 C   0  0  0  0  0  0  0  0  0  0  0  0
   -3.6123    0.8398    0.4164 C   0  0  0  0  0  0  0  0  0  0  0  0
   -3.7160   -0.3987   -0.2239 C   0  0  0  0  0  0  0  0  0  0  0  0
   -2.6202   -2.0074   -1.1516 H   0  0  0  0  0  0  0  0  0  0  0  0
   -0.4017   -0.9686   -0.7864 H   0  0  0  0  0  0  0  0  0  0  0  0
   -2.2734    2.3920    1.1216 H   0  0  0  0  0  0  0  0  0  0  0  0
   -4.5083    1.3519    0.7554 H   0  0  0  0  0  0  0  0  0  0  0  0
   14.7143   -0.9951   -4.6542 N   0  0  0  0  0  0  0  0  0  0  0  0
   13.6713   -0.9106   -4.2982 N   0  0  0  0  0  0  0  0  0  0  0  0
   -4.6884   -0.8530   -0.3857 H   0  0  0  0  0  0  0  0  0  0  0  0
   -0.0141    1.3987    0.4242 O   0  0  0  0  0  0  0  0  0  0  0  0
    0.6995    0.8485    0.0768 H   0  0  0  0  0  0  0  0  0  0  0  0
  1  2  2  0  0  0  0
  1  6  1  0  0  0  0
  2  3  1  0  0  0  0
  3 14  1  0  0  0  0
  3  4  2  0  0  0  0
  4  9  1  0  0  0  0
  5  4  1  0  0  0  0
  5 10  1  0  0  0  0
  6  5  2  0  0  0  0
  7  1  1  0  0  0  0
  8  2  1  0  0  0  0
 11 12  3  0  0  0  0
 13  6  1  0  0  0  0
 15 14  1  0  0  0  0
M  END
