Coordinates from ORCA-job Ph-N2-OH-B3LYPG-6-31G_dp-MTMO-d009-169-n800
 OpenBabel09051908283D

 15 14  0  0  0  0  0  0  0  0999 V2000
   -2.5175   -1.0467   -0.6657 C   0  0  0  0  0  0  0  0  0  0  0  0
   -1.2647   -0.4637   -0.4665 C   0  0  0  0  0  0  0  0  0  0  0  0
   -1.1688    0.7751    0.1767 C   0  0  0  0  0  0  0  0  0  0  0  0
   -2.3262    1.4268    0.6183 C   0  0  0  0  0  0  0  0  0  0  0  0
   -3.5701    0.8343    0.4130 C   0  0  0  0  0  0  0  0  0  0  0  0
   -3.6756   -0.4034   -0.2285 C   0  0  0  0  0  0  0  0  0  0  0  0
   -2.5827   -2.0092   -1.1645 H   0  0  0  0  0  0  0  0  0  0  0  0
   -0.3637   -0.9679   -0.8102 H   0  0  0  0  0  0  0  0  0  0  0  0
   -2.2294    2.3874    1.1130 H   0  0  0  0  0  0  0  0  0  0  0  0
   -4.4649    1.3448    0.7575 H   0  0  0  0  0  0  0  0  0  0  0  0
   14.4500   -0.9755   -4.5756 N   0  0  0  0  0  0  0  0  0  0  0  0
   13.4067   -0.8923   -4.2202 N   0  0  0  0  0  0  0  0  0  0  0  0
   -4.6483   -0.8587   -0.3856 H   0  0  0  0  0  0  0  0  0  0  0  0
    0.0273    1.3981    0.4019 O   0  0  0  0  0  0  0  0  0  0  0  0
    0.7399    0.8493    0.0500 H   0  0  0  0  0  0  0  0  0  0  0  0
  1  2  2  0  0  0  0
  1  6  1  0  0  0  0
  2  3  1  0  0  0  0
  3 14  1  0  0  0  0
  3  4  2  0  0  0  0
  4  9  1  0  0  0  0
  5  4  1  0  0  0  0
  5 10  1  0  0  0  0
  6  5  2  0  0  0  0
  7  1  1  0  0  0  0
  8  2  1  0  0  0  0
 11 12  3  0  0  0  0
 13  6  1  0  0  0  0
 15 14  1  0  0  0  0
M  END
