Coordinates from ORCA-job Ph-N2-OH-B3LYPG-6-31G_dp-MTMO-d009-169-n800
 OpenBabel09051908283D

 15 14  0  0  0  0  0  0  0  0999 V2000
   -2.2619   -1.0648   -0.7385 C   0  0  0  0  0  0  0  0  0  0  0  0
   -1.0079   -0.4799   -0.5533 C   0  0  0  0  0  0  0  0  0  0  0  0
   -0.9064    0.7571    0.0925 C   0  0  0  0  0  0  0  0  0  0  0  0
   -2.0592    1.4048    0.5513 C   0  0  0  0  0  0  0  0  0  0  0  0
   -3.3044    0.8104    0.3600 C   0  0  0  0  0  0  0  0  0  0  0  0
   -3.4157   -0.4254   -0.2843 C   0  0  0  0  0  0  0  0  0  0  0  0
   -2.3315   -2.0259   -1.2395 H   0  0  0  0  0  0  0  0  0  0  0  0
   -0.1102   -0.9815   -0.9091 H   0  0  0  0  0  0  0  0  0  0  0  0
   -1.9581    2.3641    1.0477 H   0  0  0  0  0  0  0  0  0  0  0  0
   -4.1958    1.3178    0.7177 H   0  0  0  0  0  0  0  0  0  0  0  0
   12.7520   -0.8475   -4.0990 N   0  0  0  0  0  0  0  0  0  0  0  0
   11.7090   -0.7692   -3.7415 N   0  0  0  0  0  0  0  0  0  0  0  0
   -4.3893   -0.8822   -0.4305 H   0  0  0  0  0  0  0  0  0  0  0  0
    0.2914    1.3820    0.3039 O   0  0  0  0  0  0  0  0  0  0  0  0
    0.9997    0.8385   -0.0641 H   0  0  0  0  0  0  0  0  0  0  0  0
  1  2  2  0  0  0  0
  1  6  1  0  0  0  0
  2  3  1  0  0  0  0
  3 14  1  0  0  0  0
  3  4  2  0  0  0  0
  4  9  1  0  0  0  0
  5  4  1  0  0  0  0
  5 10  1  0  0  0  0
  6  5  2  0  0  0  0
  7  1  1  0  0  0  0
  8  2  1  0  0  0  0
 11 12  3  0  0  0  0
 13  6  1  0  0  0  0
 15 14  1  0  0  0  0
M  END
