Coordinates from ORCA-job Ph-N2-OH-B3LYPG-6-31G_dp-MTMO-d009-169-n800
 OpenBabel09051908283D

 15 14  0  0  0  0  0  0  0  0999 V2000
   -1.0019   -1.2215   -0.9248 C   0  0  0  0  0  0  0  0  0  0  0  0
    0.2697   -0.7955   -0.5364 C   0  0  0  0  0  0  0  0  0  0  0  0
    0.4383    0.4834    0.0073 C   0  0  0  0  0  0  0  0  0  0  0  0
   -0.6676    1.3277    0.1643 C   0  0  0  0  0  0  0  0  0  0  0  0
   -1.9309    0.8892   -0.2251 C   0  0  0  0  0  0  0  0  0  0  0  0
   -2.1080   -0.3851   -0.7725 C   0  0  0  0  0  0  0  0  0  0  0  0
   -1.1230   -2.2151   -1.3468 H   0  0  0  0  0  0  0  0  0  0  0  0
    1.1281   -1.4528   -0.6539 H   0  0  0  0  0  0  0  0  0  0  0  0
   -0.5152    2.3145    0.5887 H   0  0  0  0  0  0  0  0  0  0  0  0
   -2.7845    1.5497   -0.1004 H   0  0  0  0  0  0  0  0  0  0  0  0
    3.6759    0.3139   -2.8844 N   0  0  0  0  0  0  0  0  0  0  0  0
    3.5331    0.0328   -1.8257 N   0  0  0  0  0  0  0  0  0  0  0  0
   -3.0947   -0.7198   -1.0764 H   0  0  0  0  0  0  0  0  0  0  0  0
    1.6542    0.9621    0.4070 O   0  0  0  0  0  0  0  0  0  0  0  0
    2.3383    0.3149    0.1925 H   0  0  0  0  0  0  0  0  0  0  0  0
  1  6  2  0  0  0  0
  1  2  1  0  0  0  0
  2  3  2  0  0  0  0
  3  4  1  0  0  0  0
  3 14  1  0  0  0  0
  4  9  1  0  0  0  0
  5 10  1  0  0  0  0
  5  4  2  0  0  0  0
  6  5  1  0  0  0  0
  7  1  1  0  0  0  0
  8  2  1  0  0  0  0
 11 12  3  0  0  0  0
 13  6  1  0  0  0  0
 15 14  1  0  0  0  0
M  END
