Coordinates from ORCA-job Ph-N2-OH-B3LYPG-6-31G_dp-MTMO-d009-169-n800
 OpenBabel09051908283D

 15 14  0  0  0  0  0  0  0  0999 V2000
   -1.3463   -1.1489   -1.0103 C   0  0  0  0  0  0  0  0  0  0  0  0
   -0.0448   -0.6452   -0.9750 C   0  0  0  0  0  0  0  0  0  0  0  0
    0.2093    0.5803   -0.3493 C   0  0  0  0  0  0  0  0  0  0  0  0
   -0.8399    1.2972    0.2381 C   0  0  0  0  0  0  0  0  0  0  0  0
   -2.1339    0.7835    0.1956 C   0  0  0  0  0  0  0  0  0  0  0  0
   -2.3970   -0.4404   -0.4270 C   0  0  0  0  0  0  0  0  0  0  0  0
   -1.5344   -2.1017   -1.4967 H   0  0  0  0  0  0  0  0  0  0  0  0
    0.7718   -1.2011   -1.4310 H   0  0  0  0  0  0  0  0  0  0  0  0
   -0.6210    2.2461    0.7162 H   0  0  0  0  0  0  0  0  0  0  0  0
   -2.9436    1.3449    0.6530 H   0  0  0  0  0  0  0  0  0  0  0  0
    5.8019   -0.1179   -1.9765 N   0  0  0  0  0  0  0  0  0  0  0  0
    4.7428   -0.0340   -1.6719 N   0  0  0  0  0  0  0  0  0  0  0  0
   -3.4077   -0.8356   -0.4560 H   0  0  0  0  0  0  0  0  0  0  0  0
    1.4602    1.1278   -0.2797 O   0  0  0  0  0  0  0  0  0  0  0  0
    2.0945    0.5433   -0.7159 H   0  0  0  0  0  0  0  0  0  0  0  0
  1  2  2  0  0  0  0
  1  6  1  0  0  0  0
  2  3  1  0  0  0  0
  3 14  1  0  0  0  0
  3  4  2  0  0  0  0
  4  9  1  0  0  0  0
  5  4  1  0  0  0  0
  5 10  1  0  0  0  0
  6  5  2  0  0  0  0
  7  1  1  0  0  0  0
  8  2  1  0  0  0  0
 11 12  3  0  0  0  0
 13  6  1  0  0  0  0
 15 14  1  0  0  0  0
M  END
