Coordinates from ORCA-job Ph-N2-OH-B3LYPG-6-31G_dp-MTMO-d009-169-n800
 OpenBabel09051908283D

 15 14  0  0  0  0  0  0  0  0999 V2000
   -1.2724   -1.1452   -1.0245 C   0  0  0  0  0  0  0  0  0  0  0  0
    0.0222   -0.6253   -0.9744 C   0  0  0  0  0  0  0  0  0  0  0  0
    0.2549    0.6016   -0.3425 C   0  0  0  0  0  0  0  0  0  0  0  0
   -0.8096    1.3029    0.2364 C   0  0  0  0  0  0  0  0  0  0  0  0
   -2.0965    0.7731    0.1793 C   0  0  0  0  0  0  0  0  0  0  0  0
   -2.3380   -0.4520   -0.4497 C   0  0  0  0  0  0  0  0  0  0  0  0
   -1.4434   -2.0988   -1.5156 H   0  0  0  0  0  0  0  0  0  0  0  0
    0.8504   -1.1693   -1.4237 H   0  0  0  0  0  0  0  0  0  0  0  0
   -0.6078    2.2531    0.7195 H   0  0  0  0  0  0  0  0  0  0  0  0
   -2.9178    1.3228    0.6301 H   0  0  0  0  0  0  0  0  0  0  0  0
    5.4576   -0.1957   -1.9581 N   0  0  0  0  0  0  0  0  0  0  0  0
    4.4135   -0.0649   -1.6207 N   0  0  0  0  0  0  0  0  0  0  0  0
   -3.3433   -0.8597   -0.4904 H   0  0  0  0  0  0  0  0  0  0  0  0
    1.4974    1.1642   -0.2591 O   0  0  0  0  0  0  0  0  0  0  0  0
    2.1444    0.5917   -0.6932 H   0  0  0  0  0  0  0  0  0  0  0  0
  1  2  2  0  0  0  0
  1  6  1  0  0  0  0
  2  3  1  0  0  0  0
  3 14  1  0  0  0  0
  3  4  2  0  0  0  0
  4  9  1  0  0  0  0
  5  4  1  0  0  0  0
  5 10  1  0  0  0  0
  6  5  2  0  0  0  0
  7  1  1  0  0  0  0
  8  2  1  0  0  0  0
 11 12  3  0  0  0  0
 13  6  1  0  0  0  0
 15 14  1  0  0  0  0
M  END
