Coordinates from ORCA-job Ph-N2-OH-B3LYPG-6-31G_dp-MTMO-d009-169-n800
 OpenBabel09051908283D

 15 14  0  0  0  0  0  0  0  0999 V2000
   -1.0675   -1.1602   -0.9965 C   0  0  0  0  0  0  0  0  0  0  0  0
    0.2100   -0.6585   -0.7408 C   0  0  0  0  0  0  0  0  0  0  0  0
    0.3568    0.5896   -0.1235 C   0  0  0  0  0  0  0  0  0  0  0  0
   -0.7776    1.3273    0.2372 C   0  0  0  0  0  0  0  0  0  0  0  0
   -2.0463    0.8146   -0.0225 C   0  0  0  0  0  0  0  0  0  0  0  0
   -2.2015   -0.4299   -0.6404 C   0  0  0  0  0  0  0  0  0  0  0  0
   -1.1712   -2.1298   -1.4750 H   0  0  0  0  0  0  0  0  0  0  0  0
    1.0901   -1.2338   -1.0178 H   0  0  0  0  0  0  0  0  0  0  0  0
   -0.6423    2.2925    0.7138 H   0  0  0  0  0  0  0  0  0  0  0  0
   -2.9212    1.3931    0.2602 H   0  0  0  0  0  0  0  0  0  0  0  0
    4.4920   -0.2056   -2.5994 N   0  0  0  0  0  0  0  0  0  0  0  0
    3.8343   -0.0726   -1.7223 N   0  0  0  0  0  0  0  0  0  0  0  0
   -3.1929   -0.8234   -0.8415 H   0  0  0  0  0  0  0  0  0  0  0  0
    1.5755    1.1372    0.1569 O   0  0  0  0  0  0  0  0  0  0  0  0
    2.2738    0.5579   -0.1750 H   0  0  0  0  0  0  0  0  0  0  0  0
  1  2  2  0  0  0  0
  1  6  1  0  0  0  0
  2  3  1  0  0  0  0
  3 14  1  0  0  0  0
  3  4  2  0  0  0  0
  4  9  1  0  0  0  0
  5  4  1  0  0  0  0
  5 10  1  0  0  0  0
  6  5  2  0  0  0  0
  7  1  1  0  0  0  0
  8  2  1  0  0  0  0
 11 12  3  0  0  0  0
 13  6  1  0  0  0  0
 15 14  1  0  0  0  0
M  END
