Coordinates from ORCA-job Ph-N2-OH-B3LYPG-6-31G_dp-MTMO-d009-169-n800
 OpenBabel09051908283D

 15 14  0  0  0  0  0  0  0  0999 V2000
   -1.5955   -1.1180   -0.9342 C   0  0  0  0  0  0  0  0  0  0  0  0
   -0.3267   -0.5461   -0.8243 C   0  0  0  0  0  0  0  0  0  0  0  0
   -0.1727    0.6848   -0.1774 C   0  0  0  0  0  0  0  0  0  0  0  0
   -1.2882    1.3395    0.3576 C   0  0  0  0  0  0  0  0  0  0  0  0
   -2.5487    0.7581    0.2409 C   0  0  0  0  0  0  0  0  0  0  0  0
   -2.7122   -0.4716   -0.4038 C   0  0  0  0  0  0  0  0  0  0  0  0
   -1.7057   -2.0746   -1.4365 H   0  0  0  0  0  0  0  0  0  0  0  0
    0.5421   -1.0533   -1.2393 H   0  0  0  0  0  0  0  0  0  0  0  0
   -1.1469    2.2940    0.8534 H   0  0  0  0  0  0  0  0  0  0  0  0
   -3.4109    1.2712    0.6573 H   0  0  0  0  0  0  0  0  0  0  0  0
    8.0778   -0.4498   -2.7271 N   0  0  0  0  0  0  0  0  0  0  0  0
    7.0342   -0.3642   -2.3733 N   0  0  0  0  0  0  0  0  0  0  0  0
   -3.6975   -0.9187   -0.4912 H   0  0  0  0  0  0  0  0  0  0  0  0
    1.0418    1.2972   -0.0370 O   0  0  0  0  0  0  0  0  0  0  0  0
    1.7210    0.7497   -0.4516 H   0  0  0  0  0  0  0  0  0  0  0  0
  1  2  2  0  0  0  0
  1  6  1  0  0  0  0
  2  3  1  0  0  0  0
  3 14  1  0  0  0  0
  3  4  2  0  0  0  0
  4  9  1  0  0  0  0
  5  4  1  0  0  0  0
  5 10  1  0  0  0  0
  6  5  2  0  0  0  0
  7  1  1  0  0  0  0
  8  2  1  0  0  0  0
 11 12  3  0  0  0  0
 13  6  1  0  0  0  0
 15 14  1  0  0  0  0
M  END
