Coordinates from ORCA-job Ph-N2-OH-B3LYPG-6-31G_dp-MTMO-d009-169-n800
 OpenBabel09051908283D

 15 14  0  0  0  0  0  0  0  0999 V2000
   -1.6389   -1.1129   -0.9210 C   0  0  0  0  0  0  0  0  0  0  0  0
   -0.3739   -0.5347   -0.8009 C   0  0  0  0  0  0  0  0  0  0  0  0
   -0.2311    0.6965   -0.1519 C   0  0  0  0  0  0  0  0  0  0  0  0
   -1.3540    1.3451    0.3750 C   0  0  0  0  0  0  0  0  0  0  0  0
   -2.6106    0.7575    0.2482 C   0  0  0  0  0  0  0  0  0  0  0  0
   -2.7629   -0.4725   -0.3987 C   0  0  0  0  0  0  0  0  0  0  0  0
   -1.7405   -2.0696   -1.4248 H   0  0  0  0  0  0  0  0  0  0  0  0
    0.5005   -1.0371   -1.2097 H   0  0  0  0  0  0  0  0  0  0  0  0
   -1.2213    2.3000    0.8725 H   0  0  0  0  0  0  0  0  0  0  0  0
   -3.4785    1.2659    0.6583 H   0  0  0  0  0  0  0  0  0  0  0  0
    8.4338   -0.4933   -2.8411 N   0  0  0  0  0  0  0  0  0  0  0  0
    7.3912   -0.4083   -2.4840 N   0  0  0  0  0  0  0  0  0  0  0  0
   -3.7453   -0.9244   -0.4940 H   0  0  0  0  0  0  0  0  0  0  0  0
    0.9792    1.3148   -0.0019 O   0  0  0  0  0  0  0  0  0  0  0  0
    1.6641    0.7714   -0.4124 H   0  0  0  0  0  0  0  0  0  0  0  0
  1  2  2  0  0  0  0
  1  6  1  0  0  0  0
  2  3  1  0  0  0  0
  3 14  1  0  0  0  0
  3  4  2  0  0  0  0
  4  9  1  0  0  0  0
  5  4  1  0  0  0  0
  5 10  1  0  0  0  0
  6  5  2  0  0  0  0
  7  1  1  0  0  0  0
  8  2  1  0  0  0  0
 11 12  3  0  0  0  0
 13  6  1  0  0  0  0
 15 14  1  0  0  0  0
M  END
