Coordinates from ORCA-job Ph-N2-OH-B3LYPG-6-31G_dp-MTMO-d009-169-n800
 OpenBabel09051908283D

 15 14  0  0  0  0  0  0  0  0999 V2000
   -1.5429   -1.1248   -0.9502 C   0  0  0  0  0  0  0  0  0  0  0  0
   -0.2684   -0.5630   -0.8544 C   0  0  0  0  0  0  0  0  0  0  0  0
   -0.0980    0.6676   -0.2109 C   0  0  0  0  0  0  0  0  0  0  0  0
   -1.2027    1.3320    0.3345 C   0  0  0  0  0  0  0  0  0  0  0  0
   -2.4689    0.7606    0.2317 C   0  0  0  0  0  0  0  0  0  0  0  0
   -2.6489   -0.4687   -0.4094 C   0  0  0  0  0  0  0  0  0  0  0  0
   -1.6660   -2.0812   -1.4499 H   0  0  0  0  0  0  0  0  0  0  0  0
    0.5919   -1.0778   -1.2775 H   0  0  0  0  0  0  0  0  0  0  0  0
   -1.0486    2.2860    0.8274 H   0  0  0  0  0  0  0  0  0  0  0  0
   -3.3226    1.2812    0.6562 H   0  0  0  0  0  0  0  0  0  0  0  0
    7.6273   -0.3888   -2.5798 N   0  0  0  0  0  0  0  0  0  0  0  0
    6.5818   -0.3032   -2.2314 N   0  0  0  0  0  0  0  0  0  0  0  0
   -3.6385   -0.9081   -0.4858 H   0  0  0  0  0  0  0  0  0  0  0  0
    1.1228    1.2703   -0.0839 O   0  0  0  0  0  0  0  0  0  0  0  0
    1.7936    0.7163   -0.5033 H   0  0  0  0  0  0  0  0  0  0  0  0
  1  2  2  0  0  0  0
  1  6  1  0  0  0  0
  2  3  1  0  0  0  0
  3 14  1  0  0  0  0
  3  4  2  0  0  0  0
  4  9  1  0  0  0  0
  5  4  1  0  0  0  0
  5 10  1  0  0  0  0
  6  5  2  0  0  0  0
  7  1  1  0  0  0  0
  8  2  1  0  0  0  0
 11 12  3  0  0  0  0
 13  6  1  0  0  0  0
 15 14  1  0  0  0  0
M  END
