Coordinates from ORCA-job Ph-N2-OH-B3LYPG-6-31G_dp-MTMO-d009-169-n800
 OpenBabel09051908283D

 15 14  0  0  0  0  0  0  0  0999 V2000
   -2.1237   -1.0743   -0.7780 C   0  0  0  0  0  0  0  0  0  0  0  0
   -0.8693   -0.4876   -0.6012 C   0  0  0  0  0  0  0  0  0  0  0  0
   -0.7650    0.7482    0.0464 C   0  0  0  0  0  0  0  0  0  0  0  0
   -1.9157    1.3928    0.5151 C   0  0  0  0  0  0  0  0  0  0  0  0
   -3.1612    0.7966    0.3321 C   0  0  0  0  0  0  0  0  0  0  0  0
   -3.2751   -0.4380   -0.3140 C   0  0  0  0  0  0  0  0  0  0  0  0
   -2.1952   -2.0345   -1.2804 H   0  0  0  0  0  0  0  0  0  0  0  0
    0.0264   -0.9871   -0.9649 H   0  0  0  0  0  0  0  0  0  0  0  0
   -1.8125    2.3512    1.0127 H   0  0  0  0  0  0  0  0  0  0  0  0
   -4.0507    1.3018    0.6975 H   0  0  0  0  0  0  0  0  0  0  0  0
   11.8361   -0.7798   -3.8417 N   0  0  0  0  0  0  0  0  0  0  0  0
   10.7937   -0.7036   -3.4823 N   0  0  0  0  0  0  0  0  0  0  0  0
   -4.2490   -0.8964   -0.4537 H   0  0  0  0  0  0  0  0  0  0  0  0
    0.4330    1.3750    0.2503 O   0  0  0  0  0  0  0  0  0  0  0  0
    1.1400    0.8342   -0.1245 H   0  0  0  0  0  0  0  0  0  0  0  0
  1  2  2  0  0  0  0
  1  6  1  0  0  0  0
  2  3  1  0  0  0  0
  3 14  1  0  0  0  0
  3  4  2  0  0  0  0
  4  9  1  0  0  0  0
  5  4  1  0  0  0  0
  5 10  1  0  0  0  0
  6  5  2  0  0  0  0
  7  1  1  0  0  0  0
  8  2  1  0  0  0  0
 11 12  3  0  0  0  0
 13  6  1  0  0  0  0
 15 14  1  0  0  0  0
M  END
