Coordinates from ORCA-job Ph-N2-OH-B3LYPG-6-31G_dp-MTMO-d009-169-n800
 OpenBabel09051908283D

 15 14  0  0  0  0  0  0  0  0999 V2000
   -1.0886   -1.1543   -1.0048 C   0  0  0  0  0  0  0  0  0  0  0  0
    0.1908   -0.6429   -0.7796 C   0  0  0  0  0  0  0  0  0  0  0  0
    0.3432    0.6012   -0.1557 C   0  0  0  0  0  0  0  0  0  0  0  0
   -0.7876    1.3255    0.2418 C   0  0  0  0  0  0  0  0  0  0  0  0
   -2.0582    0.8034    0.0121 C   0  0  0  0  0  0  0  0  0  0  0  0
   -2.2191   -0.4375   -0.6118 C   0  0  0  0  0  0  0  0  0  0  0  0
   -1.1966   -2.1208   -1.4886 H   0  0  0  0  0  0  0  0  0  0  0  0
    1.0683   -1.2074   -1.0858 H   0  0  0  0  0  0  0  0  0  0  0  0
   -0.6479    2.2880    0.7225 H   0  0  0  0  0  0  0  0  0  0  0  0
   -2.9303    1.3715    0.3231 H   0  0  0  0  0  0  0  0  0  0  0  0
    4.6323   -0.2502   -2.5074 N   0  0  0  0  0  0  0  0  0  0  0  0
    3.8950   -0.0813   -1.7027 N   0  0  0  0  0  0  0  0  0  0  0  0
   -3.2120   -0.8384   -0.7891 H   0  0  0  0  0  0  0  0  0  0  0  0
    1.5644    1.1572    0.0959 O   0  0  0  0  0  0  0  0  0  0  0  0
    2.2581    0.5843   -0.2564 H   0  0  0  0  0  0  0  0  0  0  0  0
  1  2  2  0  0  0  0
  1  6  1  0  0  0  0
  2  3  1  0  0  0  0
  3 14  1  0  0  0  0
  3  4  2  0  0  0  0
  4  9  1  0  0  0  0
  5  4  1  0  0  0  0
  5 10  1  0  0  0  0
  6  5  2  0  0  0  0
  7  1  1  0  0  0  0
  8  2  1  0  0  0  0
 11 12  3  0  0  0  0
 13  6  1  0  0  0  0
 15 14  1  0  0  0  0
M  END
