Coordinates from ORCA-job Ph-N2-OH-B3LYPG-6-31G_dp-MTMO-d009-169-n800
 OpenBabel09051908283D

 15 14  0  0  0  0  0  0  0  0999 V2000
   -2.4870   -1.0487   -0.6751 C   0  0  0  0  0  0  0  0  0  0  0  0
   -1.2335   -0.4656   -0.4807 C   0  0  0  0  0  0  0  0  0  0  0  0
   -1.1351    0.7725    0.1633 C   0  0  0  0  0  0  0  0  0  0  0  0
   -2.2908    1.4232    0.6110 C   0  0  0  0  0  0  0  0  0  0  0  0
   -3.5354    0.8306    0.4105 C   0  0  0  0  0  0  0  0  0  0  0  0
   -3.6434   -0.4063   -0.2322 C   0  0  0  0  0  0  0  0  0  0  0  0
   -2.5540   -2.0107   -1.1747 H   0  0  0  0  0  0  0  0  0  0  0  0
   -0.3338   -0.9697   -0.8279 H   0  0  0  0  0  0  0  0  0  0  0  0
   -2.1922    2.3833    1.1062 H   0  0  0  0  0  0  0  0  0  0  0  0
   -4.4288    1.3403    0.7597 H   0  0  0  0  0  0  0  0  0  0  0  0
   14.2359   -0.9585   -4.5111 N   0  0  0  0  0  0  0  0  0  0  0  0
   13.1922   -0.8766   -4.1567 N   0  0  0  0  0  0  0  0  0  0  0  0
   -4.6166   -0.8618   -0.3856 H   0  0  0  0  0  0  0  0  0  0  0  0
    0.0618    1.3959    0.3836 O   0  0  0  0  0  0  0  0  0  0  0  0
    0.7725    0.8505    0.0229 H   0  0  0  0  0  0  0  0  0  0  0  0
  1  2  2  0  0  0  0
  1  6  1  0  0  0  0
  2  3  1  0  0  0  0
  3 14  1  0  0  0  0
  3  4  2  0  0  0  0
  4  9  1  0  0  0  0
  5  4  1  0  0  0  0
  5 10  1  0  0  0  0
  6  5  2  0  0  0  0
  7  1  1  0  0  0  0
  8  2  1  0  0  0  0
 11 12  3  0  0  0  0
 13  6  1  0  0  0  0
 15 14  1  0  0  0  0
M  END
