Coordinates from ORCA-job Ph-N2-OH-B3LYPG-6-31G_dp-MTMO-d009-169-n800
 OpenBabel09051908283D

 15 14  0  0  0  0  0  0  0  0999 V2000
   -2.0799   -1.0771   -0.7909 C   0  0  0  0  0  0  0  0  0  0  0  0
   -0.8260   -0.4886   -0.6170 C   0  0  0  0  0  0  0  0  0  0  0  0
   -0.7217    0.7466    0.0317 C   0  0  0  0  0  0  0  0  0  0  0  0
   -1.8719    1.3890    0.5047 C   0  0  0  0  0  0  0  0  0  0  0  0
   -3.1171    0.7910    0.3246 C   0  0  0  0  0  0  0  0  0  0  0  0
   -3.2310   -0.4430   -0.3226 C   0  0  0  0  0  0  0  0  0  0  0  0
   -2.1517   -2.0368   -1.2942 H   0  0  0  0  0  0  0  0  0  0  0  0
    0.0696   -0.9861   -0.9839 H   0  0  0  0  0  0  0  0  0  0  0  0
   -1.7687    2.3470    1.0031 H   0  0  0  0  0  0  0  0  0  0  0  0
   -4.0062    1.2944    0.6931 H   0  0  0  0  0  0  0  0  0  0  0  0
   11.5524   -0.7611   -3.7614 N   0  0  0  0  0  0  0  0  0  0  0  0
   10.5101   -0.6842   -3.4016 N   0  0  0  0  0  0  0  0  0  0  0  0
   -4.2046   -0.9026   -0.4599 H   0  0  0  0  0  0  0  0  0  0  0  0
    0.4761    1.3748    0.2327 O   0  0  0  0  0  0  0  0  0  0  0  0
    1.1823    0.8351   -0.1449 H   0  0  0  0  0  0  0  0  0  0  0  0
  1  2  2  0  0  0  0
  1  6  1  0  0  0  0
  2  3  1  0  0  0  0
  3 14  1  0  0  0  0
  3  4  2  0  0  0  0
  4  9  1  0  0  0  0
  5  4  1  0  0  0  0
  5 10  1  0  0  0  0
  6  5  2  0  0  0  0
  7  1  1  0  0  0  0
  8  2  1  0  0  0  0
 11 12  3  0  0  0  0
 13  6  1  0  0  0  0
 15 14  1  0  0  0  0
M  END
