Coordinates from ORCA-job Ph-N2-OH-B3LYPG-6-31G_dp-MTMO-d009-169-n800
 OpenBabel09051908283D

 15 14  0  0  0  0  0  0  0  0999 V2000
   -1.4492   -1.1471   -0.9886 C   0  0  0  0  0  0  0  0  0  0  0  0
   -0.1465   -0.6458   -0.9635 C   0  0  0  0  0  0  0  0  0  0  0  0
    0.1147    0.5789   -0.3395 C   0  0  0  0  0  0  0  0  0  0  0  0
   -0.9282    1.2979    0.2563 C   0  0  0  0  0  0  0  0  0  0  0  0
   -2.2235    0.7866    0.2240 C   0  0  0  0  0  0  0  0  0  0  0  0
   -2.4938   -0.4366   -0.3967 C   0  0  0  0  0  0  0  0  0  0  0  0
   -1.6430   -2.0994   -1.4736 H   0  0  0  0  0  0  0  0  0  0  0  0
    0.6654   -1.2034   -1.4261 H   0  0  0  0  0  0  0  0  0  0  0  0
   -0.7037    2.2463    0.7329 H   0  0  0  0  0  0  0  0  0  0  0  0
   -3.0285    1.3494    0.6879 H   0  0  0  0  0  0  0  0  0  0  0  0
    6.4309   -0.1062   -2.0791 N   0  0  0  0  0  0  0  0  0  0  0  0
    5.3623   -0.0514   -1.8020 N   0  0  0  0  0  0  0  0  0  0  0  0
   -3.5054   -0.8299   -0.4177 H   0  0  0  0  0  0  0  0  0  0  0  0
    1.3672    1.1240   -0.2797 O   0  0  0  0  0  0  0  0  0  0  0  0
    1.9931    0.5352   -0.7214 H   0  0  0  0  0  0  0  0  0  0  0  0
  1  2  2  0  0  0  0
  1  6  1  0  0  0  0
  2  3  1  0  0  0  0
  3 14  1  0  0  0  0
  3  4  2  0  0  0  0
  4  9  1  0  0  0  0
  5  4  1  0  0  0  0
  5 10  1  0  0  0  0
  6  5  2  0  0  0  0
  7  1  1  0  0  0  0
  8  2  1  0  0  0  0
 11 12  3  0  0  0  0
 13  6  1  0  0  0  0
 15 14  1  0  0  0  0
M  END
