Coordinates from ORCA-job Ph-N2-OH-B3LYPG-6-31G_dp-MTMO-d009-169-n800
 OpenBabel09051908283D

 15 14  0  0  0  0  0  0  0  0999 V2000
   -0.9312   -1.3264   -0.8126 C   0  0  0  0  0  0  0  0  0  0  0  0
    0.3183   -1.0431   -0.2592 C   0  0  0  0  0  0  0  0  0  0  0  0
    0.6363    0.2709    0.0991 C   0  0  0  0  0  0  0  0  0  0  0  0
   -0.3044    1.2926   -0.0725 C   0  0  0  0  0  0  0  0  0  0  0  0
   -1.5476    0.9967   -0.6257 C   0  0  0  0  0  0  0  0  0  0  0  0
   -1.8691   -0.3110   -1.0015 C   0  0  0  0  0  0  0  0  0  0  0  0
   -1.1683   -2.3479   -1.0960 H   0  0  0  0  0  0  0  0  0  0  0  0
    1.0478   -1.8377   -0.1135 H   0  0  0  0  0  0  0  0  0  0  0  0
   -0.0415    2.3017    0.2269 H   0  0  0  0  0  0  0  0  0  0  0  0
   -2.2723    1.7944   -0.7628 H   0  0  0  0  0  0  0  0  0  0  0  0
    1.7421    0.7632   -2.3617 N   0  0  0  0  0  0  0  0  0  0  0  0
    2.8161    0.9439   -2.1664 N   0  0  0  0  0  0  0  0  0  0  0  0
   -2.8393   -0.5350   -1.4331 H   0  0  0  0  0  0  0  0  0  0  0  0
    1.8377    0.6132    0.6549 O   0  0  0  0  0  0  0  0  0  0  0  0
    2.3870   -0.1772    0.7378 H   0  0  0  0  0  0  0  0  0  0  0  0
  1  2  1  0  0  0  0
  2  8  1  0  0  0  0
  2  3  2  0  0  0  0
  3 14  1  0  0  0  0
  4  3  1  0  0  0  0
  4  9  1  0  0  0  0
  5  4  2  0  0  0  0
  6  1  2  0  0  0  0
  6  5  1  0  0  0  0
  7  1  1  0  0  0  0
 10  5  1  0  0  0  0
 11 12  3  0  0  0  0
 13  6  1  0  0  0  0
 14 15  1  0  0  0  0
M  END
