Coordinates from ORCA-job Ph-N2-OH-B3LYPG-6-31G_dp-MTMO-d009-169-n800
 OpenBabel09051908283D

 15 14  0  0  0  0  0  0  0  0999 V2000
   -2.3748   -1.0566   -0.7067 C   0  0  0  0  0  0  0  0  0  0  0  0
   -1.1214   -0.4722   -0.5162 C   0  0  0  0  0  0  0  0  0  0  0  0
   -1.0222    0.7654    0.1289 C   0  0  0  0  0  0  0  0  0  0  0  0
   -2.1769    1.4141    0.5817 C   0  0  0  0  0  0  0  0  0  0  0  0
   -3.4215    0.8202    0.3851 C   0  0  0  0  0  0  0  0  0  0  0  0
   -3.5304   -0.4161   -0.2586 C   0  0  0  0  0  0  0  0  0  0  0  0
   -2.4426   -2.0181   -1.2071 H   0  0  0  0  0  0  0  0  0  0  0  0
   -0.2223   -0.9746   -0.8673 H   0  0  0  0  0  0  0  0  0  0  0  0
   -2.0776    2.3738    1.0776 H   0  0  0  0  0  0  0  0  0  0  0  0
   -4.3143    1.3284    0.7381 H   0  0  0  0  0  0  0  0  0  0  0  0
   13.5016   -0.9046   -4.3078 N   0  0  0  0  0  0  0  0  0  0  0  0
   12.4583   -0.8240   -3.9520 N   0  0  0  0  0  0  0  0  0  0  0  0
   -4.5036   -0.8726   -0.4089 H   0  0  0  0  0  0  0  0  0  0  0  0
    0.1748    1.3899    0.3454 O   0  0  0  0  0  0  0  0  0  0  0  0
    0.8846    0.8456   -0.0187 H   0  0  0  0  0  0  0  0  0  0  0  0
  1  2  2  0  0  0  0
  1  6  1  0  0  0  0
  2  3  1  0  0  0  0
  3 14  1  0  0  0  0
  3  4  2  0  0  0  0
  4  9  1  0  0  0  0
  5  4  1  0  0  0  0
  5 10  1  0  0  0  0
  6  5  2  0  0  0  0
  7  1  1  0  0  0  0
  8  2  1  0  0  0  0
 11 12  3  0  0  0  0
 13  6  1  0  0  0  0
 15 14  1  0  0  0  0
M  END
