Coordinates from ORCA-job Ph-N2-OH-B3LYPG-6-31G_dp-MTMO-d009-169-n800
 OpenBabel09051908283D

 15 14  0  0  0  0  0  0  0  0999 V2000
   -1.6289   -1.1140   -0.9240 C   0  0  0  0  0  0  0  0  0  0  0  0
   -0.3630   -0.5372   -0.8062 C   0  0  0  0  0  0  0  0  0  0  0  0
   -0.2179    0.6940   -0.1576 C   0  0  0  0  0  0  0  0  0  0  0  0
   -1.3392    1.3439    0.3711 C   0  0  0  0  0  0  0  0  0  0  0  0
   -2.5966    0.7576    0.2465 C   0  0  0  0  0  0  0  0  0  0  0  0
   -2.7513   -0.4724   -0.3999 C   0  0  0  0  0  0  0  0  0  0  0  0
   -1.7323   -2.0707   -1.4275 H   0  0  0  0  0  0  0  0  0  0  0  0
    0.5102   -1.0406   -1.2164 H   0  0  0  0  0  0  0  0  0  0  0  0
   -1.2046    2.2986    0.8683 H   0  0  0  0  0  0  0  0  0  0  0  0
   -3.4633    1.2669    0.6580 H   0  0  0  0  0  0  0  0  0  0  0  0
    8.3527   -0.4838   -2.8154 N   0  0  0  0  0  0  0  0  0  0  0  0
    7.3099   -0.3986   -2.4589 N   0  0  0  0  0  0  0  0  0  0  0  0
   -3.7343   -0.9233   -0.4935 H   0  0  0  0  0  0  0  0  0  0  0  0
    0.9934    1.3111   -0.0097 O   0  0  0  0  0  0  0  0  0  0  0  0
    1.6770    0.7668   -0.4212 H   0  0  0  0  0  0  0  0  0  0  0  0
  1  2  2  0  0  0  0
  1  6  1  0  0  0  0
  2  3  1  0  0  0  0
  3 14  1  0  0  0  0
  3  4  2  0  0  0  0
  4  9  1  0  0  0  0
  5  4  1  0  0  0  0
  5 10  1  0  0  0  0
  6  5  2  0  0  0  0
  7  1  1  0  0  0  0
  8  2  1  0  0  0  0
 11 12  3  0  0  0  0
 13  6  1  0  0  0  0
 15 14  1  0  0  0  0
M  END
