Coordinates from ORCA-job Ph-N2-OH-B3LYPG-6-31G_dp-MTMO-d009-169-n800
 OpenBabel09051908283D

 15 14  0  0  0  0  0  0  0  0999 V2000
   -0.9654   -1.2824   -0.8579 C   0  0  0  0  0  0  0  0  0  0  0  0
    0.2974   -0.9171   -0.3879 C   0  0  0  0  0  0  0  0  0  0  0  0
    0.5167    0.3854    0.0741 C   0  0  0  0  0  0  0  0  0  0  0  0
   -0.5284    1.3166    0.0660 C   0  0  0  0  0  0  0  0  0  0  0  0
   -1.7839    0.9388   -0.4043 C   0  0  0  0  0  0  0  0  0  0  0  0
   -2.0118   -0.3597   -0.8697 C   0  0  0  0  0  0  0  0  0  0  0  0
   -1.1264   -2.2950   -1.2164 H   0  0  0  0  0  0  0  0  0  0  0  0
    1.1104   -1.6403   -0.3781 H   0  0  0  0  0  0  0  0  0  0  0  0
   -0.3373    2.3207    0.4301 H   0  0  0  0  0  0  0  0  0  0  0  0
   -2.5910    1.6661   -0.4084 H   0  0  0  0  0  0  0  0  0  0  0  0
    2.8625    0.7717   -2.8436 N   0  0  0  0  0  0  0  0  0  0  0  0
    3.2614    0.2420   -1.9598 N   0  0  0  0  0  0  0  0  0  0  0  0
   -2.9918   -0.6471   -1.2370 H   0  0  0  0  0  0  0  0  0  0  0  0
    1.7283    0.8072    0.5474 O   0  0  0  0  0  0  0  0  0  0  0  0
    2.3711    0.0916    0.4589 H   0  0  0  0  0  0  0  0  0  0  0  0
  1  2  1  0  0  0  0
  2  8  1  0  0  0  0
  2  3  2  0  0  0  0
  3 14  1  0  0  0  0
  4  3  1  0  0  0  0
  4  9  1  0  0  0  0
  5  4  2  0  0  0  0
  6  1  2  0  0  0  0
  6  5  1  0  0  0  0
  7  1  1  0  0  0  0
 10  5  1  0  0  0  0
 11 12  3  0  0  0  0
 13  6  1  0  0  0  0
 15 14  1  0  0  0  0
M  END
