Coordinates from ORCA-job Ph-N2-OH-B3LYPG-6-31G_dp-MTMO-d009-169-n800
 OpenBabel09051908283D

 15 15  0  0  0  0  0  0  0  0999 V2000
   -1.3107   -1.4250   -1.0897 C   0  0  0  0  0  0  0  0  0  0  0  0
    0.0526   -1.2007   -1.2935 C   0  0  0  0  0  0  0  0  0  0  0  0
    0.5758    0.0506   -0.9933 C   0  0  0  0  0  0  0  0  0  0  0  0
   -0.2170    1.1027   -0.5449 C   0  0  0  0  0  0  0  0  0  0  0  0
   -1.5823    0.8697   -0.3661 C   0  0  0  0  0  0  0  0  0  0  0  0
   -2.1276   -0.3902   -0.6288 C   0  0  0  0  0  0  0  0  0  0  0  0
   -1.7346   -2.4014   -1.3048 H   0  0  0  0  0  0  0  0  0  0  0  0
    0.7041   -1.9783   -1.6775 H   0  0  0  0  0  0  0  0  0  0  0  0
    0.2180    2.0702   -0.3292 H   0  0  0  0  0  0  0  0  0  0  0  0
   -2.2200    1.6757   -0.0148 H   0  0  0  0  0  0  0  0  0  0  0  0
    2.1374    0.2284   -1.3899 N   0  0  0  0  0  0  0  0  0  0  0  0
    2.9300    0.7363   -0.6129 N   0  0  0  0  0  0  0  0  0  0  0  0
   -3.1893   -0.5629   -0.4787 H   0  0  0  0  0  0  0  0  0  0  0  0
    2.3925    1.1405    0.6467 O   0  0  0  0  0  0  0  0  0  0  0  0
    3.1831    1.4828    1.0909 H   0  0  0  0  0  0  0  0  0  0  0  0
  1  6  1  0  0  0  0
  2  1  2  0  0  0  0
  2  3  1  0  0  0  0
  3  4  2  0  0  0  0
  4  5  1  0  0  0  0
  4  9  1  0  0  0  0
  5 10  1  0  0  0  0
  6 13  1  0  0  0  0
  6  5  2  0  0  0  0
  7  1  1  0  0  0  0
  8  2  1  0  0  0  0
 11  3  1  0  0  0  0
 11 12  2  0  0  0  0
 12 14  1  0  0  0  0
 14 15  1  0  0  0  0
M  END
