Coordinates from ORCA-job Ph-N2-OH-B3LYPG-6-31G_dp-MTMO-d009-169-n800
 OpenBabel09051908283D

 15 14  0  0  0  0  0  0  0  0999 V2000
   -1.0309   -1.1894   -0.9615 C   0  0  0  0  0  0  0  0  0  0  0  0
    0.2446   -0.7262   -0.6335 C   0  0  0  0  0  0  0  0  0  0  0  0
    0.3971    0.5374   -0.0503 C   0  0  0  0  0  0  0  0  0  0  0  0
   -0.7295    1.3288    0.2058 C   0  0  0  0  0  0  0  0  0  0  0  0
   -1.9965    0.8537   -0.1245 C   0  0  0  0  0  0  0  0  0  0  0  0
   -2.1573   -0.4056   -0.7103 C   0  0  0  0  0  0  0  0  0  0  0  0
   -1.1393   -2.1710   -1.4139 H   0  0  0  0  0  0  0  0  0  0  0  0
    1.1185   -1.3434   -0.8280 H   0  0  0  0  0  0  0  0  0  0  0  0
   -0.5897    2.3048    0.6584 H   0  0  0  0  0  0  0  0  0  0  0  0
   -2.8655    1.4737    0.0770 H   0  0  0  0  0  0  0  0  0  0  0  0
    4.0872    0.0383   -2.7927 N   0  0  0  0  0  0  0  0  0  0  0  0
    3.6956   -0.0219   -1.7618 N   0  0  0  0  0  0  0  0  0  0  0  0
   -3.1471   -0.7692   -0.9675 H   0  0  0  0  0  0  0  0  0  0  0  0
    1.6148    1.0502    0.2953 O   0  0  0  0  0  0  0  0  0  0  0  0
    2.3100    0.4383    0.0209 H   0  0  0  0  0  0  0  0  0  0  0  0
  1  6  2  0  0  0  0
  1  2  1  0  0  0  0
  2  3  2  0  0  0  0
  3  4  1  0  0  0  0
  3 14  1  0  0  0  0
  4  9  1  0  0  0  0
  5 10  1  0  0  0  0
  5  4  2  0  0  0  0
  6  5  1  0  0  0  0
  7  1  1  0  0  0  0
  8  2  1  0  0  0  0
 11 12  3  0  0  0  0
 13  6  1  0  0  0  0
 15 14  1  0  0  0  0
M  END
