Coordinates from ORCA-job Ph-N2-OH-B3LYPG-6-31G_dp-MTMO-d009-169-n800
 OpenBabel09051908283D

 15 14  0  0  0  0  0  0  0  0999 V2000
   -1.3432   -1.1489   -1.0110 C   0  0  0  0  0  0  0  0  0  0  0  0
   -0.0418   -0.6450   -0.9752 C   0  0  0  0  0  0  0  0  0  0  0  0
    0.2120    0.5805   -0.3493 C   0  0  0  0  0  0  0  0  0  0  0  0
   -0.8376    1.2973    0.2376 C   0  0  0  0  0  0  0  0  0  0  0  0
   -2.1315    0.7833    0.1947 C   0  0  0  0  0  0  0  0  0  0  0  0
   -2.3942   -0.4406   -0.4279 C   0  0  0  0  0  0  0  0  0  0  0  0
   -1.5309   -2.1017   -1.4974 H   0  0  0  0  0  0  0  0  0  0  0  0
    0.7751   -1.2007   -1.4310 H   0  0  0  0  0  0  0  0  0  0  0  0
   -0.6191    2.2462    0.7159 H   0  0  0  0  0  0  0  0  0  0  0  0
   -2.9415    1.3446    0.6518 H   0  0  0  0  0  0  0  0  0  0  0  0
    5.7841   -0.1189   -1.9742 N   0  0  0  0  0  0  0  0  0  0  0  0
    4.7254   -0.0341   -1.6685 N   0  0  0  0  0  0  0  0  0  0  0  0
   -3.4048   -0.8360   -0.4573 H   0  0  0  0  0  0  0  0  0  0  0  0
    1.4626    1.1283   -0.2794 O   0  0  0  0  0  0  0  0  0  0  0  0
    2.0973    0.5440   -0.7154 H   0  0  0  0  0  0  0  0  0  0  0  0
  1  2  2  0  0  0  0
  1  6  1  0  0  0  0
  2  3  1  0  0  0  0
  3 14  1  0  0  0  0
  3  4  2  0  0  0  0
  4  9  1  0  0  0  0
  5  4  1  0  0  0  0
  5 10  1  0  0  0  0
  6  5  2  0  0  0  0
  7  1  1  0  0  0  0
  8  2  1  0  0  0  0
 11 12  3  0  0  0  0
 13  6  1  0  0  0  0
 15 14  1  0  0  0  0
M  END
