Coordinates from ORCA-job Ph-N2-OH-B3LYPG-6-31G_dp-MTMO-d009-169-n800
 OpenBabel09051908283D

 15 14  0  0  0  0  0  0  0  0999 V2000
   -2.0170   -1.0811   -0.8094 C   0  0  0  0  0  0  0  0  0  0  0  0
   -0.7631   -0.4909   -0.6407 C   0  0  0  0  0  0  0  0  0  0  0  0
   -0.6577    0.7434    0.0094 C   0  0  0  0  0  0  0  0  0  0  0  0
   -1.8067    1.3830    0.4890 C   0  0  0  0  0  0  0  0  0  0  0  0
   -3.0518    0.7835    0.3140 C   0  0  0  0  0  0  0  0  0  0  0  0
   -3.1668   -0.4498   -0.3346 C   0  0  0  0  0  0  0  0  0  0  0  0
   -2.0895   -2.0402   -1.3139 H   0  0  0  0  0  0  0  0  0  0  0  0
    0.1313   -0.9866   -1.0128 H   0  0  0  0  0  0  0  0  0  0  0  0
   -1.7026    2.3405    0.9883 H   0  0  0  0  0  0  0  0  0  0  0  0
   -3.9399    1.2849    0.6876 H   0  0  0  0  0  0  0  0  0  0  0  0
   11.1363   -0.7328   -3.6425 N   0  0  0  0  0  0  0  0  0  0  0  0
   10.0943   -0.6543   -3.2825 N   0  0  0  0  0  0  0  0  0  0  0  0
   -4.1403   -0.9109   -0.4680 H   0  0  0  0  0  0  0  0  0  0  0  0
    0.5399    1.3735    0.2058 O   0  0  0  0  0  0  0  0  0  0  0  0
    1.2456    0.8361   -0.1762 H   0  0  0  0  0  0  0  0  0  0  0  0
  1  2  2  0  0  0  0
  1  6  1  0  0  0  0
  2  3  1  0  0  0  0
  3 14  1  0  0  0  0
  3  4  2  0  0  0  0
  4  9  1  0  0  0  0
  5  4  1  0  0  0  0
  5 10  1  0  0  0  0
  6  5  2  0  0  0  0
  7  1  1  0  0  0  0
  8  2  1  0  0  0  0
 11 12  3  0  0  0  0
 13  6  1  0  0  0  0
 15 14  1  0  0  0  0
M  END
