Coordinates from ORCA-job Ph-N2-OH-B3LYPG-6-31G_dp-MTMO-d009-169-n800
 OpenBabel09051908283D

 15 14  0  0  0  0  0  0  0  0999 V2000
   -2.4588   -1.0507   -0.6830 C   0  0  0  0  0  0  0  0  0  0  0  0
   -1.2054   -0.4673   -0.4894 C   0  0  0  0  0  0  0  0  0  0  0  0
   -1.1070    0.7708    0.1548 C   0  0  0  0  0  0  0  0  0  0  0  0
   -2.2623    1.4210    0.6037 C   0  0  0  0  0  0  0  0  0  0  0  0
   -3.5069    0.8280    0.4040 C   0  0  0  0  0  0  0  0  0  0  0  0
   -3.6151   -0.4087   -0.2389 C   0  0  0  0  0  0  0  0  0  0  0  0
   -2.5261   -2.0126   -1.1827 H   0  0  0  0  0  0  0  0  0  0  0  0
   -0.3058   -0.9709   -0.8375 H   0  0  0  0  0  0  0  0  0  0  0  0
   -2.1636    2.3810    1.0990 H   0  0  0  0  0  0  0  0  0  0  0  0
   -4.4002    1.3374    0.7541 H   0  0  0  0  0  0  0  0  0  0  0  0
   14.0522   -0.9450   -4.4603 N   0  0  0  0  0  0  0  0  0  0  0  0
   13.0086   -0.8634   -4.1056 N   0  0  0  0  0  0  0  0  0  0  0  0
   -4.5883   -0.8644   -0.3916 H   0  0  0  0  0  0  0  0  0  0  0  0
    0.0900    1.3943    0.3742 O   0  0  0  0  0  0  0  0  0  0  0  0
    0.8004    0.8489    0.0127 H   0  0  0  0  0  0  0  0  0  0  0  0
  1  2  2  0  0  0  0
  1  6  1  0  0  0  0
  2  3  1  0  0  0  0
  3 14  1  0  0  0  0
  3  4  2  0  0  0  0
  4  9  1  0  0  0  0
  5  4  1  0  0  0  0
  5 10  1  0  0  0  0
  6  5  2  0  0  0  0
  7  1  1  0  0  0  0
  8  2  1  0  0  0  0
 11 12  3  0  0  0  0
 13  6  1  0  0  0  0
 15 14  1  0  0  0  0
M  END
