Coordinates from ORCA-job Ph-N2-OH-B3LYPG-6-31G_dp-MTMO-d009-169-n800
 OpenBabel09051908283D

 15 15  0  0  0  0  0  0  0  0999 V2000
   -1.3753   -1.3714   -1.3163 C   0  0  0  0  0  0  0  0  0  0  0  0
    0.0097   -1.2744   -1.2944 C   0  0  0  0  0  0  0  0  0  0  0  0
    0.6690   -0.1499   -0.7392 C   0  0  0  0  0  0  0  0  0  0  0  0
   -0.1358    0.8892   -0.2007 C   0  0  0  0  0  0  0  0  0  0  0  0
   -1.5240    0.7812   -0.2292 C   0  0  0  0  0  0  0  0  0  0  0  0
   -2.1497   -0.3389   -0.7812 C   0  0  0  0  0  0  0  0  0  0  0  0
   -1.8508   -2.2470   -1.7482 H   0  0  0  0  0  0  0  0  0  0  0  0
    0.6334   -2.0623   -1.7040 H   0  0  0  0  0  0  0  0  0  0  0  0
    0.3288    1.7625    0.2285 H   0  0  0  0  0  0  0  0  0  0  0  0
   -2.1243    1.5854    0.1865 H   0  0  0  0  0  0  0  0  0  0  0  0
    1.9858   -0.2261   -0.8030 N   0  0  0  0  0  0  0  0  0  0  0  0
    2.8803    0.5323   -0.4262 N   0  0  0  0  0  0  0  0  0  0  0  0
   -3.2341   -0.4060   -0.7942 H   0  0  0  0  0  0  0  0  0  0  0  0
    2.4252    1.7525    0.2148 O   0  0  0  0  0  0  0  0  0  0  0  0
    3.2735    2.1713    0.4202 H   0  0  0  0  0  0  0  0  0  0  0  0
  1  2  2  0  0  0  0
  1  6  1  0  0  0  0
  2  3  1  0  0  0  0
  3  4  2  0  0  0  0
  4  9  1  0  0  0  0
  5  4  1  0  0  0  0
  5 10  1  0  0  0  0
  6  5  2  0  0  0  0
  7  1  1  0  0  0  0
  8  2  1  0  0  0  0
 11  3  1  0  0  0  0
 11 12  2  0  0  0  0
 12 14  1  0  0  0  0
 13  6  1  0  0  0  0
 14 15  1  0  0  0  0
M  END
