Coordinates from ORCA-job Ph-N2-OH-B3LYPG-6-31G_dp-MTMO-d009-169-n800
 OpenBabel09051908283D

 15 14  0  0  0  0  0  0  0  0999 V2000
   -2.3244   -1.0602   -0.7209 C   0  0  0  0  0  0  0  0  0  0  0  0
   -1.0708   -0.4755   -0.5326 C   0  0  0  0  0  0  0  0  0  0  0  0
   -0.9708    0.7618    0.1129 C   0  0  0  0  0  0  0  0  0  0  0  0
   -2.1248    1.4100    0.5682 C   0  0  0  0  0  0  0  0  0  0  0  0
   -3.3696    0.8157    0.3739 C   0  0  0  0  0  0  0  0  0  0  0  0
   -3.4793   -0.4203   -0.2702 C   0  0  0  0  0  0  0  0  0  0  0  0
   -2.3928   -2.0215   -1.2216 H   0  0  0  0  0  0  0  0  0  0  0  0
   -0.1722   -0.9774   -0.8857 H   0  0  0  0  0  0  0  0  0  0  0  0
   -2.0248    2.3695    1.0644 H   0  0  0  0  0  0  0  0  0  0  0  0
   -4.2618    1.3234    0.7289 H   0  0  0  0  0  0  0  0  0  0  0  0
   13.1683   -0.8795   -4.2151 N   0  0  0  0  0  0  0  0  0  0  0  0
   12.1251   -0.7998   -3.8586 N   0  0  0  0  0  0  0  0  0  0  0  0
   -4.4526   -0.8771   -0.4188 H   0  0  0  0  0  0  0  0  0  0  0  0
    0.2265    1.3866    0.3272 O   0  0  0  0  0  0  0  0  0  0  0  0
    0.9358    0.8428   -0.0386 H   0  0  0  0  0  0  0  0  0  0  0  0
  1  2  2  0  0  0  0
  1  6  1  0  0  0  0
  2  3  1  0  0  0  0
  3 14  1  0  0  0  0
  3  4  2  0  0  0  0
  4  9  1  0  0  0  0
  5  4  1  0  0  0  0
  5 10  1  0  0  0  0
  6  5  2  0  0  0  0
  7  1  1  0  0  0  0
  8  2  1  0  0  0  0
 11 12  3  0  0  0  0
 13  6  1  0  0  0  0
 15 14  1  0  0  0  0
M  END
