Coordinates from ORCA-job Ph-N2-OH-B3LYPG-6-31G_dp-MTMO-d009-169-n800
 OpenBabel09051908283D

 15 14  0  0  0  0  0  0  0  0999 V2000
   -1.5248   -1.1273   -0.9557 C   0  0  0  0  0  0  0  0  0  0  0  0
   -0.2481   -0.5697   -0.8650 C   0  0  0  0  0  0  0  0  0  0  0  0
   -0.0712    0.6608   -0.2230 C   0  0  0  0  0  0  0  0  0  0  0  0
   -1.1717    1.3292    0.3260 C   0  0  0  0  0  0  0  0  0  0  0  0
   -2.4402    0.7619    0.2284 C   0  0  0  0  0  0  0  0  0  0  0  0
   -2.6266   -0.4672   -0.4112 C   0  0  0  0  0  0  0  0  0  0  0  0
   -1.6529   -2.0836   -1.4543 H   0  0  0  0  0  0  0  0  0  0  0  0
    0.6089   -1.0876   -1.2910 H   0  0  0  0  0  0  0  0  0  0  0  0
   -1.0126    2.2830    0.8176 H   0  0  0  0  0  0  0  0  0  0  0  0
   -3.2905    1.2856    0.6557 H   0  0  0  0  0  0  0  0  0  0  0  0
    7.4669   -0.3654   -2.5269 N   0  0  0  0  0  0  0  0  0  0  0  0
    6.4208   -0.2802   -2.1805 N   0  0  0  0  0  0  0  0  0  0  0  0
   -3.6179   -0.9035   -0.4836 H   0  0  0  0  0  0  0  0  0  0  0  0
    1.1520    1.2596   -0.1010 O   0  0  0  0  0  0  0  0  0  0  0  0
    1.8197    0.7028   -0.5220 H   0  0  0  0  0  0  0  0  0  0  0  0
  1  2  2  0  0  0  0
  1  6  1  0  0  0  0
  2  3  1  0  0  0  0
  3 14  1  0  0  0  0
  3  4  2  0  0  0  0
  4  9  1  0  0  0  0
  5  4  1  0  0  0  0
  5 10  1  0  0  0  0
  6  5  2  0  0  0  0
  7  1  1  0  0  0  0
  8  2  1  0  0  0  0
 11 12  3  0  0  0  0
 13  6  1  0  0  0  0
 15 14  1  0  0  0  0
M  END
