Coordinates from ORCA-job Ph-N2-OH-B3LYPG-6-31G_dp-MTMO-d009-169-n800
 OpenBabel09051908283D

 15 14  0  0  0  0  0  0  0  0999 V2000
   -2.5393   -1.0453   -0.6589 C   0  0  0  0  0  0  0  0  0  0  0  0
   -1.2867   -0.4632   -0.4562 C   0  0  0  0  0  0  0  0  0  0  0  0
   -1.1919    0.7761    0.1862 C   0  0  0  0  0  0  0  0  0  0  0  0
   -2.3502    1.4291    0.6236 C   0  0  0  0  0  0  0  0  0  0  0  0
   -3.5939    0.8375    0.4147 C   0  0  0  0  0  0  0  0  0  0  0  0
   -3.6983   -0.4007   -0.2261 C   0  0  0  0  0  0  0  0  0  0  0  0
   -2.6037   -2.0082   -1.1572 H   0  0  0  0  0  0  0  0  0  0  0  0
   -0.3850   -0.9684   -0.7965 H   0  0  0  0  0  0  0  0  0  0  0  0
   -2.2542    2.3900    1.1177 H   0  0  0  0  0  0  0  0  0  0  0  0
   -4.4893    1.3489    0.7560 H   0  0  0  0  0  0  0  0  0  0  0  0
   14.5986   -0.9865   -4.6200 N   0  0  0  0  0  0  0  0  0  0  0  0
   13.5555   -0.9025   -4.2641 N   0  0  0  0  0  0  0  0  0  0  0  0
   -4.6708   -0.8554   -0.3859 H   0  0  0  0  0  0  0  0  0  0  0  0
    0.0040    1.3983    0.4147 O   0  0  0  0  0  0  0  0  0  0  0  0
    0.7172    0.8487    0.0655 H   0  0  0  0  0  0  0  0  0  0  0  0
  1  2  2  0  0  0  0
  1  6  1  0  0  0  0
  2  3  1  0  0  0  0
  3 14  1  0  0  0  0
  3  4  2  0  0  0  0
  4  9  1  0  0  0  0
  5  4  1  0  0  0  0
  5 10  1  0  0  0  0
  6  5  2  0  0  0  0
  7  1  1  0  0  0  0
  8  2  1  0  0  0  0
 11 12  3  0  0  0  0
 13  6  1  0  0  0  0
 15 14  1  0  0  0  0
M  END
