Coordinates from ORCA-job Ph-N2-OH-B3LYPG-6-31G_dp-MTMO-d009-169-n800
 OpenBabel09051908283D

 15 15  0  0  0  0  0  0  0  0999 V2000
   -1.2528   -1.4030   -1.1100 C   0  0  0  0  0  0  0  0  0  0  0  0
    0.0914   -1.0939   -1.1483 C   0  0  0  0  0  0  0  0  0  0  0  0
    0.6148    0.2448   -0.7622 C   0  0  0  0  0  0  0  0  0  0  0  0
   -0.4846    1.1797   -0.3938 C   0  0  0  0  0  0  0  0  0  0  0  0
   -1.8159    0.8286   -0.4836 C   0  0  0  0  0  0  0  0  0  0  0  0
   -2.2406   -0.4615   -0.8113 C   0  0  0  0  0  0  0  0  0  0  0  0
   -1.5334   -2.4255   -1.3542 H   0  0  0  0  0  0  0  0  0  0  0  0
    0.8517   -1.8437   -1.3427 H   0  0  0  0  0  0  0  0  0  0  0  0
   -0.1681    2.1946   -0.1752 H   0  0  0  0  0  0  0  0  0  0  0  0
   -2.5483    1.6009   -0.2572 H   0  0  0  0  0  0  0  0  0  0  0  0
    1.5652    0.4840   -0.7533 N   0  0  0  0  0  0  0  0  0  0  0  0
    2.7412    0.7964   -0.7340 N   0  0  0  0  0  0  0  0  0  0  0  0
   -3.2923   -0.7218   -0.8312 H   0  0  0  0  0  0  0  0  0  0  0  0
    3.1736    0.8958    0.6410 O   0  0  0  0  0  0  0  0  0  0  0  0
    4.1099    1.1231    0.5295 H   0  0  0  0  0  0  0  0  0  0  0  0
  1  6  1  0  0  0  0
  2  1  2  0  0  0  0
  2  3  1  0  0  0  0
  3 11  1  0  0  0  0
  3  4  2  0  0  0  0
  4  9  1  0  0  0  0
  5  4  1  0  0  0  0
  5 10  1  0  0  0  0
  6  5  2  0  0  0  0
  7  1  1  0  0  0  0
  8  2  1  0  0  0  0
 11 12  1  0  0  0  0
 12 14  1  0  0  0  0
 13  6  1  0  0  0  0
 15 14  1  0  0  0  0
M  RAD  2  11   2  12   2
M  END
