Coordinates from ORCA-job Ph-N2-OH-B3LYPG-6-31G_dp-MTMO-d009-169-n800
 OpenBabel09051908283D

 15 14  0  0  0  0  0  0  0  0999 V2000
   -1.6209   -1.1149   -0.9264 C   0  0  0  0  0  0  0  0  0  0  0  0
   -0.3544   -0.5392   -0.8105 C   0  0  0  0  0  0  0  0  0  0  0  0
   -0.2073    0.6919   -0.1622 C   0  0  0  0  0  0  0  0  0  0  0  0
   -1.3272    1.3429    0.3680 C   0  0  0  0  0  0  0  0  0  0  0  0
   -2.5854    0.7576    0.2452 C   0  0  0  0  0  0  0  0  0  0  0  0
   -2.7421   -0.4722   -0.4009 C   0  0  0  0  0  0  0  0  0  0  0  0
   -1.7259   -2.0716   -1.4297 H   0  0  0  0  0  0  0  0  0  0  0  0
    0.5178   -1.0434   -1.2217 H   0  0  0  0  0  0  0  0  0  0  0  0
   -1.1912    2.2976    0.8648 H   0  0  0  0  0  0  0  0  0  0  0  0
   -3.4511    1.2678    0.6578 H   0  0  0  0  0  0  0  0  0  0  0  0
    8.2879   -0.4760   -2.7947 N   0  0  0  0  0  0  0  0  0  0  0  0
    7.2450   -0.3906   -2.4388 N   0  0  0  0  0  0  0  0  0  0  0  0
   -3.7255   -0.9223   -0.4930 H   0  0  0  0  0  0  0  0  0  0  0  0
    1.0047    1.3079   -0.0161 O   0  0  0  0  0  0  0  0  0  0  0  0
    1.6873    0.7630   -0.4283 H   0  0  0  0  0  0  0  0  0  0  0  0
  1  2  2  0  0  0  0
  1  6  1  0  0  0  0
  2  3  1  0  0  0  0
  3 14  1  0  0  0  0
  3  4  2  0  0  0  0
  4  9  1  0  0  0  0
  5  4  1  0  0  0  0
  5 10  1  0  0  0  0
  6  5  2  0  0  0  0
  7  1  1  0  0  0  0
  8  2  1  0  0  0  0
 11 12  3  0  0  0  0
 13  6  1  0  0  0  0
 15 14  1  0  0  0  0
M  END
