Coordinates from ORCA-job Ph-N2-OH-B3LYPG-6-31G_dp-MTMO-d009-169-n800
 OpenBabel09051908283D

 15 14  0  0  0  0  0  0  0  0999 V2000
   -1.4634   -1.1354   -0.9738 C   0  0  0  0  0  0  0  0  0  0  0  0
   -0.1799   -0.5915   -0.8981 C   0  0  0  0  0  0  0  0  0  0  0  0
    0.0171    0.6385   -0.2610 C   0  0  0  0  0  0  0  0  0  0  0  0
   -1.0702    1.3201    0.2980 C   0  0  0  0  0  0  0  0  0  0  0  0
   -2.3458    0.7664    0.2153 C   0  0  0  0  0  0  0  0  0  0  0  0
   -2.5522   -0.4622   -0.4192 C   0  0  0  0  0  0  0  0  0  0  0  0
   -1.6072   -2.0914   -1.4686 H   0  0  0  0  0  0  0  0  0  0  0  0
    0.6669   -1.1196   -1.3317 H   0  0  0  0  0  0  0  0  0  0  0  0
   -0.8955    2.2733    0.7856 H   0  0  0  0  0  0  0  0  0  0  0  0
   -3.1858    1.3002    0.6504 H   0  0  0  0  0  0  0  0  0  0  0  0
    6.9349   -0.2884   -2.3587 N   0  0  0  0  0  0  0  0  0  0  0  0
    5.8881   -0.2070   -2.0133 N   0  0  0  0  0  0  0  0  0  0  0  0
   -3.5489   -0.8880   -0.4798 H   0  0  0  0  0  0  0  0  0  0  0  0
    1.2480    1.2243   -0.1533 O   0  0  0  0  0  0  0  0  0  0  0  0
    1.9059    0.6591   -0.5784 H   0  0  0  0  0  0  0  0  0  0  0  0
  1  2  2  0  0  0  0
  1  6  1  0  0  0  0
  2  3  1  0  0  0  0
  3 14  1  0  0  0  0
  3  4  2  0  0  0  0
  4  9  1  0  0  0  0
  5  4  1  0  0  0  0
  5 10  1  0  0  0  0
  6  5  2  0  0  0  0
  7  1  1  0  0  0  0
  8  2  1  0  0  0  0
 11 12  3  0  0  0  0
 13  6  1  0  0  0  0
 15 14  1  0  0  0  0
M  END
