Coordinates from ORCA-job Ph-N2-OH-B3LYPG-6-31G_dp-MTMO-d009-169-n800
 OpenBabel09051908283D

 15 14  0  0  0  0  0  0  0  0999 V2000
   -1.4509   -1.1367   -0.9771 C   0  0  0  0  0  0  0  0  0  0  0  0
   -0.1665   -0.5948   -0.9030 C   0  0  0  0  0  0  0  0  0  0  0  0
    0.0331    0.6352   -0.2666 C   0  0  0  0  0  0  0  0  0  0  0  0
   -1.0526    1.3186    0.2932 C   0  0  0  0  0  0  0  0  0  0  0  0
   -2.3291    0.7669    0.2121 C   0  0  0  0  0  0  0  0  0  0  0  0
   -2.5381   -0.4616   -0.4217 C   0  0  0  0  0  0  0  0  0  0  0  0
   -1.5967   -2.0927   -1.4715 H   0  0  0  0  0  0  0  0  0  0  0  0
    0.6790   -1.1244   -1.3372 H   0  0  0  0  0  0  0  0  0  0  0  0
   -0.8760    2.2717    0.7803 H   0  0  0  0  0  0  0  0  0  0  0  0
   -3.1679    1.3022    0.6479 H   0  0  0  0  0  0  0  0  0  0  0  0
    6.8362   -0.2762   -2.3317 N   0  0  0  0  0  0  0  0  0  0  0  0
    5.7903   -0.1962   -1.9834 N   0  0  0  0  0  0  0  0  0  0  0  0
   -3.5355   -0.8859   -0.4811 H   0  0  0  0  0  0  0  0  0  0  0  0
    1.2649    1.2191   -0.1604 O   0  0  0  0  0  0  0  0  0  0  0  0
    1.9217    0.6531   -0.5863 H   0  0  0  0  0  0  0  0  0  0  0  0
  1  2  2  0  0  0  0
  1  6  1  0  0  0  0
  2  3  1  0  0  0  0
  3 14  1  0  0  0  0
  3  4  2  0  0  0  0
  4  9  1  0  0  0  0
  5  4  1  0  0  0  0
  5 10  1  0  0  0  0
  6  5  2  0  0  0  0
  7  1  1  0  0  0  0
  8  2  1  0  0  0  0
 11 12  3  0  0  0  0
 13  6  1  0  0  0  0
 15 14  1  0  0  0  0
M  END
