Coordinates from ORCA-job Ph-N2-OH-B3LYPG-6-31G_dp-MTMO-d009-169-n800
 OpenBabel09051908283D

 15 14  0  0  0  0  0  0  0  0999 V2000
   -0.9868   -1.3458   -0.7710 C   0  0  0  0  0  0  0  0  0  0  0  0
    0.2730   -1.0575   -0.2431 C   0  0  0  0  0  0  0  0  0  0  0  0
    0.5924    0.2573    0.1119 C   0  0  0  0  0  0  0  0  0  0  0  0
   -0.3483    1.2788   -0.0619 C   0  0  0  0  0  0  0  0  0  0  0  0
   -1.6015    0.9777   -0.5900 C   0  0  0  0  0  0  0  0  0  0  0  0
   -1.9299   -0.3333   -0.9478 C   0  0  0  0  0  0  0  0  0  0  0  0
   -1.2265   -2.3691   -1.0459 H   0  0  0  0  0  0  0  0  0  0  0  0
    1.0055   -1.8508   -0.1056 H   0  0  0  0  0  0  0  0  0  0  0  0
   -0.0808    2.2908    0.2236 H   0  0  0  0  0  0  0  0  0  0  0  0
   -2.3276    1.7747   -0.7232 H   0  0  0  0  0  0  0  0  0  0  0  0
    2.0987    0.9273   -2.6574 N   0  0  0  0  0  0  0  0  0  0  0  0
    3.0871    0.9882   -2.1660 N   0  0  0  0  0  0  0  0  0  0  0  0
   -2.9078   -0.5612   -1.3594 H   0  0  0  0  0  0  0  0  0  0  0  0
    1.8062    0.6052    0.6373 O   0  0  0  0  0  0  0  0  0  0  0  0
    2.3584   -0.1839    0.7120 H   0  0  0  0  0  0  0  0  0  0  0  0
  1  2  1  0  0  0  0
  2  8  1  0  0  0  0
  2  3  2  0  0  0  0
  3 14  1  0  0  0  0
  4  3  1  0  0  0  0
  4  9  1  0  0  0  0
  5  4  2  0  0  0  0
  6  1  2  0  0  0  0
  6  5  1  0  0  0  0
  7  1  1  0  0  0  0
 10  5  1  0  0  0  0
 11 12  3  0  0  0  0
 13  6  1  0  0  0  0
 14 15  1  0  0  0  0
M  END
