Coordinates from ORCA-job Ph-N2-OH-B3LYPG-6-31G_dp-MTMO-d009-169-n800
 OpenBabel09051908283D

 15 14  0  0  0  0  0  0  0  0999 V2000
   -1.8085   -1.0966   -0.8704 C   0  0  0  0  0  0  0  0  0  0  0  0
   -0.5521   -0.5064   -0.7218 C   0  0  0  0  0  0  0  0  0  0  0  0
   -0.4358    0.7260   -0.0696 C   0  0  0  0  0  0  0  0  0  0  0  0
   -1.5764    1.3637    0.4320 C   0  0  0  0  0  0  0  0  0  0  0  0
   -2.8241    0.7641    0.2768 C   0  0  0  0  0  0  0  0  0  0  0  0
   -2.9500   -0.4671   -0.3735 C   0  0  0  0  0  0  0  0  0  0  0  0
   -1.8895   -2.0541   -1.3765 H   0  0  0  0  0  0  0  0  0  0  0  0
    0.3361   -1.0002   -1.1109 H   0  0  0  0  0  0  0  0  0  0  0  0
   -1.4640    2.3196    0.9324 H   0  0  0  0  0  0  0  0  0  0  0  0
   -3.7059    1.2639    0.6674 H   0  0  0  0  0  0  0  0  0  0  0  0
    9.7103   -0.6216   -3.2309 N   0  0  0  0  0  0  0  0  0  0  0  0
    8.6690   -0.5399   -2.8693 N   0  0  0  0  0  0  0  0  0  0  0  0
   -3.9256   -0.9282   -0.4911 H   0  0  0  0  0  0  0  0  0  0  0  0
    0.7649    1.3558    0.1075 O   0  0  0  0  0  0  0  0  0  0  0  0
    1.4636    0.8195   -0.2885 H   0  0  0  0  0  0  0  0  0  0  0  0
  1  2  2  0  0  0  0
  1  6  1  0  0  0  0
  2  3  1  0  0  0  0
  3 14  1  0  0  0  0
  3  4  2  0  0  0  0
  4  9  1  0  0  0  0
  5  4  1  0  0  0  0
  5 10  1  0  0  0  0
  6  5  2  0  0  0  0
  7  1  1  0  0  0  0
  8  2  1  0  0  0  0
 11 12  3  0  0  0  0
 13  6  1  0  0  0  0
 15 14  1  0  0  0  0
M  END
