Coordinates from ORCA-job Ph-N2-OH-B3LYPG-6-31G_dp-MTMO-d009-169-n800
 OpenBabel09051908283D

 15 14  0  0  0  0  0  0  0  0999 V2000
   -1.4870   -1.1425   -0.9785 C   0  0  0  0  0  0  0  0  0  0  0  0
   -0.1893   -0.6290   -0.9465 C   0  0  0  0  0  0  0  0  0  0  0  0
    0.0577    0.5966   -0.3186 C   0  0  0  0  0  0  0  0  0  0  0  0
   -0.9945    1.3044    0.2743 C   0  0  0  0  0  0  0  0  0  0  0  0
   -2.2847    0.7810    0.2351 C   0  0  0  0  0  0  0  0  0  0  0  0
   -2.5408   -0.4433   -0.3896 C   0  0  0  0  0  0  0  0  0  0  0  0
   -1.6696   -2.0954   -1.4666 H   0  0  0  0  0  0  0  0  0  0  0  0
    0.6298   -1.1779   -1.4068 H   0  0  0  0  0  0  0  0  0  0  0  0
   -0.7811    2.2537    0.7541 H   0  0  0  0  0  0  0  0  0  0  0  0
   -3.0970    1.3351    0.6967 H   0  0  0  0  0  0  0  0  0  0  0  0
    6.7720   -0.1570   -2.1780 N   0  0  0  0  0  0  0  0  0  0  0  0
    5.7036   -0.1052   -1.8997 N   0  0  0  0  0  0  0  0  0  0  0  0
   -3.5486   -0.8459   -0.4161 H   0  0  0  0  0  0  0  0  0  0  0  0
    1.3050    1.1532   -0.2523 O   0  0  0  0  0  0  0  0  0  0  0  0
    1.9363    0.5705   -0.6940 H   0  0  0  0  0  0  0  0  0  0  0  0
  1  2  2  0  0  0  0
  1  6  1  0  0  0  0
  2  3  1  0  0  0  0
  3 14  1  0  0  0  0
  3  4  2  0  0  0  0
  4  9  1  0  0  0  0
  5  4  1  0  0  0  0
  5 10  1  0  0  0  0
  6  5  2  0  0  0  0
  7  1  1  0  0  0  0
  8  2  1  0  0  0  0
 11 12  3  0  0  0  0
 13  6  1  0  0  0  0
 15 14  1  0  0  0  0
M  END
