Coordinates from ORCA-job Ph-N2-OH-B3LYPG-6-31G_dp-MTMO-d009-169-n800
 OpenBabel09051908283D

 15 14  0  0  0  0  0  0  0  0999 V2000
   -1.5802   -1.1199   -0.9388 C   0  0  0  0  0  0  0  0  0  0  0  0
   -0.3098   -0.5507   -0.8329 C   0  0  0  0  0  0  0  0  0  0  0  0
   -0.1514    0.6802   -0.1868 C   0  0  0  0  0  0  0  0  0  0  0  0
   -1.2640    1.3374    0.3511 C   0  0  0  0  0  0  0  0  0  0  0  0
   -2.5261    0.7587    0.2383 C   0  0  0  0  0  0  0  0  0  0  0  0
   -2.6940   -0.4709   -0.4055 C   0  0  0  0  0  0  0  0  0  0  0  0
   -1.6939   -2.0764   -1.4405 H   0  0  0  0  0  0  0  0  0  0  0  0
    0.5566   -1.0598   -1.2502 H   0  0  0  0  0  0  0  0  0  0  0  0
   -1.1192    2.2918    0.8461 H   0  0  0  0  0  0  0  0  0  0  0  0
   -3.3859    1.2737    0.6570 H   0  0  0  0  0  0  0  0  0  0  0  0
    7.9488   -0.4330   -2.6852 N   0  0  0  0  0  0  0  0  0  0  0  0
    6.9047   -0.3473   -2.3329 N   0  0  0  0  0  0  0  0  0  0  0  0
   -3.6805   -0.9160   -0.4898 H   0  0  0  0  0  0  0  0  0  0  0  0
    1.0648    1.2900   -0.0502 O   0  0  0  0  0  0  0  0  0  0  0  0
    1.7417    0.7408   -0.4663 H   0  0  0  0  0  0  0  0  0  0  0  0
  1  2  2  0  0  0  0
  1  6  1  0  0  0  0
  2  3  1  0  0  0  0
  3 14  1  0  0  0  0
  3  4  2  0  0  0  0
  4  9  1  0  0  0  0
  5  4  1  0  0  0  0
  5 10  1  0  0  0  0
  6  5  2  0  0  0  0
  7  1  1  0  0  0  0
  8  2  1  0  0  0  0
 11 12  3  0  0  0  0
 13  6  1  0  0  0  0
 15 14  1  0  0  0  0
M  END
