Coordinates from ORCA-job Ph-N2-OH-B3LYPG-6-31G_dp-MTMO-d009-169-n800
 OpenBabel09051908283D

 15 14  0  0  0  0  0  0  0  0999 V2000
   -2.0702   -1.0777   -0.7937 C   0  0  0  0  0  0  0  0  0  0  0  0
   -0.8161   -0.4893   -0.6207 C   0  0  0  0  0  0  0  0  0  0  0  0
   -0.7113    0.7458    0.0281 C   0  0  0  0  0  0  0  0  0  0  0  0
   -1.8613    1.3879    0.5020 C   0  0  0  0  0  0  0  0  0  0  0  0
   -3.1066    0.7901    0.3227 C   0  0  0  0  0  0  0  0  0  0  0  0
   -3.2210   -0.4438   -0.3245 C   0  0  0  0  0  0  0  0  0  0  0  0
   -2.1422   -2.0374   -1.2971 H   0  0  0  0  0  0  0  0  0  0  0  0
    0.0790   -0.9870   -0.9884 H   0  0  0  0  0  0  0  0  0  0  0  0
   -1.7577    2.3459    1.0004 H   0  0  0  0  0  0  0  0  0  0  0  0
   -3.9955    1.2935    0.6921 H   0  0  0  0  0  0  0  0  0  0  0  0
   11.4861   -0.7561   -3.7424 N   0  0  0  0  0  0  0  0  0  0  0  0
   10.4439   -0.6792   -3.3826 N   0  0  0  0  0  0  0  0  0  0  0  0
   -4.1947   -0.9036   -0.4612 H   0  0  0  0  0  0  0  0  0  0  0  0
    0.4865    1.3742    0.2285 O   0  0  0  0  0  0  0  0  0  0  0  0
    1.1928    0.8351   -0.1497 H   0  0  0  0  0  0  0  0  0  0  0  0
  1  2  2  0  0  0  0
  1  6  1  0  0  0  0
  2  3  1  0  0  0  0
  3 14  1  0  0  0  0
  3  4  2  0  0  0  0
  4  9  1  0  0  0  0
  5  4  1  0  0  0  0
  5 10  1  0  0  0  0
  6  5  2  0  0  0  0
  7  1  1  0  0  0  0
  8  2  1  0  0  0  0
 11 12  3  0  0  0  0
 13  6  1  0  0  0  0
 15 14  1  0  0  0  0
M  END
