Coordinates from ORCA-job Ph-N2-OH-B3LYPG-6-31G_dp-MTMO-d009-169-n800
 OpenBabel09051908283D

 15 14  0  0  0  0  0  0  0  0999 V2000
   -0.9637   -1.3371   -0.7885 C   0  0  0  0  0  0  0  0  0  0  0  0
    0.2906   -1.0512   -0.2466 C   0  0  0  0  0  0  0  0  0  0  0  0
    0.6067    0.2622    0.1164 C   0  0  0  0  0  0  0  0  0  0  0  0
   -0.3331    1.2841   -0.0599 C   0  0  0  0  0  0  0  0  0  0  0  0
   -1.5808    0.9854   -0.6021 C   0  0  0  0  0  0  0  0  0  0  0  0
   -1.9051   -0.3238   -0.9700 C   0  0  0  0  0  0  0  0  0  0  0  0
   -1.2006   -2.3591   -1.0704 H   0  0  0  0  0  0  0  0  0  0  0  0
    1.0219   -1.8450   -0.1057 H   0  0  0  0  0  0  0  0  0  0  0  0
   -0.0689    2.2946    0.2337 H   0  0  0  0  0  0  0  0  0  0  0  0
   -2.3060    1.7828   -0.7380 H   0  0  0  0  0  0  0  0  0  0  0  0
    1.9591    0.8546   -2.5670 N   0  0  0  0  0  0  0  0  0  0  0  0
    2.9906    0.9759   -2.1877 N   0  0  0  0  0  0  0  0  0  0  0  0
   -2.8788   -0.5499   -1.3925 H   0  0  0  0  0  0  0  0  0  0  0  0
    1.8147    0.6075    0.6564 O   0  0  0  0  0  0  0  0  0  0  0  0
    2.3652   -0.1824    0.7354 H   0  0  0  0  0  0  0  0  0  0  0  0
  1  2  1  0  0  0  0
  2  8  1  0  0  0  0
  2  3  2  0  0  0  0
  3 14  1  0  0  0  0
  4  3  1  0  0  0  0
  4  9  1  0  0  0  0
  5  4  2  0  0  0  0
  6  1  2  0  0  0  0
  6  5  1  0  0  0  0
  7  1  1  0  0  0  0
 10  5  1  0  0  0  0
 11 12  3  0  0  0  0
 13  6  1  0  0  0  0
 14 15  1  0  0  0  0
M  END
