Coordinates from ORCA-job Ph-N2-OH-B3LYPG-6-31G_dp-MTMO-d009-169-n800
 OpenBabel09051908283D

 15 14  0  0  0  0  0  0  0  0999 V2000
   -1.9056   -1.0889   -0.8420 C   0  0  0  0  0  0  0  0  0  0  0  0
   -0.6513   -0.4972   -0.6828 C   0  0  0  0  0  0  0  0  0  0  0  0
   -0.5421    0.7360   -0.0309 C   0  0  0  0  0  0  0  0  0  0  0  0
   -1.6877    1.3730    0.4598 C   0  0  0  0  0  0  0  0  0  0  0  0
   -2.9334    0.7718    0.2942 C   0  0  0  0  0  0  0  0  0  0  0  0
   -3.0522   -0.4601   -0.3560 C   0  0  0  0  0  0  0  0  0  0  0  0
   -1.9812   -2.0471   -1.3478 H   0  0  0  0  0  0  0  0  0  0  0  0
    0.2409   -0.9905   -1.0634 H   0  0  0  0  0  0  0  0  0  0  0  0
   -1.5809    2.3295    0.9603 H   0  0  0  0  0  0  0  0  0  0  0  0
   -3.8191    1.2711    0.6764 H   0  0  0  0  0  0  0  0  0  0  0  0
   10.3884   -0.6778   -3.4284 N   0  0  0  0  0  0  0  0  0  0  0  0
    9.3468   -0.5973   -3.0673 N   0  0  0  0  0  0  0  0  0  0  0  0
   -4.0262   -0.9224   -0.4818 H   0  0  0  0  0  0  0  0  0  0  0  0
    0.6564    1.3672    0.1562 O   0  0  0  0  0  0  0  0  0  0  0  0
    1.3591    0.8312   -0.2330 H   0  0  0  0  0  0  0  0  0  0  0  0
  1  2  2  0  0  0  0
  1  6  1  0  0  0  0
  2  3  1  0  0  0  0
  3 14  1  0  0  0  0
  3  4  2  0  0  0  0
  4  9  1  0  0  0  0
  5  4  1  0  0  0  0
  5 10  1  0  0  0  0
  6  5  2  0  0  0  0
  7  1  1  0  0  0  0
  8  2  1  0  0  0  0
 11 12  3  0  0  0  0
 13  6  1  0  0  0  0
 15 14  1  0  0  0  0
M  END
