Coordinates from ORCA-job Ph-N2-OH-B3LYPG-6-31G_dp-MTMO-d009-169-n800
 OpenBabel09051908283D

 15 14  0  0  0  0  0  0  0  0999 V2000
   -1.5502   -1.1238   -0.9480 C   0  0  0  0  0  0  0  0  0  0  0  0
   -0.2766   -0.5605   -0.8501 C   0  0  0  0  0  0  0  0  0  0  0  0
   -0.1087    0.6702   -0.2060 C   0  0  0  0  0  0  0  0  0  0  0  0
   -1.2150    1.3331    0.3379 C   0  0  0  0  0  0  0  0  0  0  0  0
   -2.4804    0.7601    0.2331 C   0  0  0  0  0  0  0  0  0  0  0  0
   -2.6579   -0.4692   -0.4086 C   0  0  0  0  0  0  0  0  0  0  0  0
   -1.6714   -2.0802   -1.4481 H   0  0  0  0  0  0  0  0  0  0  0  0
    0.5849   -1.0740   -1.2720 H   0  0  0  0  0  0  0  0  0  0  0  0
   -1.0628    2.2872    0.8312 H   0  0  0  0  0  0  0  0  0  0  0  0
   -3.3354    1.2795    0.6564 H   0  0  0  0  0  0  0  0  0  0  0  0
    7.6915   -0.3979   -2.6010 N   0  0  0  0  0  0  0  0  0  0  0  0
    6.6463   -0.3122   -2.2517 N   0  0  0  0  0  0  0  0  0  0  0  0
   -3.6469   -0.9099   -0.4866 H   0  0  0  0  0  0  0  0  0  0  0  0
    1.1112    1.2745   -0.0771 O   0  0  0  0  0  0  0  0  0  0  0  0
    1.7833    0.7215   -0.4959 H   0  0  0  0  0  0  0  0  0  0  0  0
  1  2  2  0  0  0  0
  1  6  1  0  0  0  0
  2  3  1  0  0  0  0
  3 14  1  0  0  0  0
  3  4  2  0  0  0  0
  4  9  1  0  0  0  0
  5  4  1  0  0  0  0
  5 10  1  0  0  0  0
  6  5  2  0  0  0  0
  7  1  1  0  0  0  0
  8  2  1  0  0  0  0
 11 12  3  0  0  0  0
 13  6  1  0  0  0  0
 15 14  1  0  0  0  0
M  END
