Coordinates from ORCA-job Ph-N2-OH-B3LYPG-6-31G_dp-MTMO-d009-169-n800
 OpenBabel09051908283D

 15 14  0  0  0  0  0  0  0  0999 V2000
   -1.5783   -1.1201   -0.9394 C   0  0  0  0  0  0  0  0  0  0  0  0
   -0.3077   -0.5513   -0.8340 C   0  0  0  0  0  0  0  0  0  0  0  0
   -0.1487    0.6796   -0.1880 C   0  0  0  0  0  0  0  0  0  0  0  0
   -1.2609    1.3371    0.3503 C   0  0  0  0  0  0  0  0  0  0  0  0
   -2.5232    0.7587    0.2380 C   0  0  0  0  0  0  0  0  0  0  0  0
   -2.6917   -0.4708   -0.4057 C   0  0  0  0  0  0  0  0  0  0  0  0
   -1.6924   -2.0766   -1.4409 H   0  0  0  0  0  0  0  0  0  0  0  0
    0.5584   -1.0607   -1.2516 H   0  0  0  0  0  0  0  0  0  0  0  0
   -1.1157    2.2915    0.8452 H   0  0  0  0  0  0  0  0  0  0  0  0
   -3.3828    1.2740    0.6570 H   0  0  0  0  0  0  0  0  0  0  0  0
    7.9327   -0.4309   -2.6800 N   0  0  0  0  0  0  0  0  0  0  0  0
    6.8886   -0.3451   -2.3278 N   0  0  0  0  0  0  0  0  0  0  0  0
   -3.6783   -0.9157   -0.4896 H   0  0  0  0  0  0  0  0  0  0  0  0
    1.0677    1.2890   -0.0519 O   0  0  0  0  0  0  0  0  0  0  0  0
    1.7443    0.7396   -0.4681 H   0  0  0  0  0  0  0  0  0  0  0  0
  1  2  2  0  0  0  0
  1  6  1  0  0  0  0
  2  3  1  0  0  0  0
  3 14  1  0  0  0  0
  3  4  2  0  0  0  0
  4  9  1  0  0  0  0
  5  4  1  0  0  0  0
  5 10  1  0  0  0  0
  6  5  2  0  0  0  0
  7  1  1  0  0  0  0
  8  2  1  0  0  0  0
 11 12  3  0  0  0  0
 13  6  1  0  0  0  0
 15 14  1  0  0  0  0
M  END
