Coordinates from ORCA-job Ph-N2-OH-B3LYPG-6-31G_dp-MTMO-d009-169-n800
 OpenBabel09051908283D

 15 14  0  0  0  0  0  0  0  0999 V2000
   -0.9410   -1.3296   -0.8053 C   0  0  0  0  0  0  0  0  0  0  0  0
    0.3100   -1.0456   -0.2551 C   0  0  0  0  0  0  0  0  0  0  0  0
    0.6269    0.2679    0.1062 C   0  0  0  0  0  0  0  0  0  0  0  0
   -0.3128    1.2899   -0.0685 C   0  0  0  0  0  0  0  0  0  0  0  0
   -1.5573    0.9933   -0.6187 C   0  0  0  0  0  0  0  0  0  0  0  0
   -1.8799   -0.3149   -0.9919 C   0  0  0  0  0  0  0  0  0  0  0  0
   -1.1778   -2.3512   -1.0887 H   0  0  0  0  0  0  0  0  0  0  0  0
    1.0398   -1.8401   -0.1106 H   0  0  0  0  0  0  0  0  0  0  0  0
   -0.0496    2.2995    0.2293 H   0  0  0  0  0  0  0  0  0  0  0  0
   -2.2819    1.7911   -0.7559 H   0  0  0  0  0  0  0  0  0  0  0  0
    1.8063    0.7894   -2.4269 N   0  0  0  0  0  0  0  0  0  0  0  0
    2.8706    0.9567   -2.1763 N   0  0  0  0  0  0  0  0  0  0  0  0
   -2.8511   -0.5393   -1.4209 H   0  0  0  0  0  0  0  0  0  0  0  0
    1.8303    0.6108    0.6573 O   0  0  0  0  0  0  0  0  0  0  0  0
    2.3796   -0.1796    0.7395 H   0  0  0  0  0  0  0  0  0  0  0  0
  1  2  1  0  0  0  0
  2  8  1  0  0  0  0
  2  3  2  0  0  0  0
  3 14  1  0  0  0  0
  4  3  1  0  0  0  0
  4  9  1  0  0  0  0
  5  4  2  0  0  0  0
  6  1  2  0  0  0  0
  6  5  1  0  0  0  0
  7  1  1  0  0  0  0
 10  5  1  0  0  0  0
 11 12  3  0  0  0  0
 13  6  1  0  0  0  0
 14 15  1  0  0  0  0
M  END
