Coordinates from ORCA-job Ph-N2-OH-B3LYPG-6-31G_dp-MTMO-d009-169-n800
 OpenBabel09051908283D

 15 14  0  0  0  0  0  0  0  0999 V2000
   -2.0876   -1.0766   -0.7886 C   0  0  0  0  0  0  0  0  0  0  0  0
   -0.8336   -0.4884   -0.6142 C   0  0  0  0  0  0  0  0  0  0  0  0
   -0.7294    0.7470    0.0344 C   0  0  0  0  0  0  0  0  0  0  0  0
   -1.8796    1.3897    0.5066 C   0  0  0  0  0  0  0  0  0  0  0  0
   -3.1249    0.7920    0.3259 C   0  0  0  0  0  0  0  0  0  0  0  0
   -3.2387   -0.4421   -0.3211 C   0  0  0  0  0  0  0  0  0  0  0  0
   -2.1592   -2.0364   -1.2918 H   0  0  0  0  0  0  0  0  0  0  0  0
    0.0621   -0.9861   -0.9805 H   0  0  0  0  0  0  0  0  0  0  0  0
   -1.7765    2.3478    1.0048 H   0  0  0  0  0  0  0  0  0  0  0  0
   -4.0141    1.2956    0.6939 H   0  0  0  0  0  0  0  0  0  0  0  0
   11.6024   -0.7645   -3.7756 N   0  0  0  0  0  0  0  0  0  0  0  0
   10.5601   -0.6877   -3.4158 N   0  0  0  0  0  0  0  0  0  0  0  0
   -4.2124   -0.9016   -0.4589 H   0  0  0  0  0  0  0  0  0  0  0  0
    0.4684    1.3749    0.2358 O   0  0  0  0  0  0  0  0  0  0  0  0
    1.1748    0.8350   -0.1413 H   0  0  0  0  0  0  0  0  0  0  0  0
  1  2  2  0  0  0  0
  1  6  1  0  0  0  0
  2  3  1  0  0  0  0
  3 14  1  0  0  0  0
  3  4  2  0  0  0  0
  4  9  1  0  0  0  0
  5  4  1  0  0  0  0
  5 10  1  0  0  0  0
  6  5  2  0  0  0  0
  7  1  1  0  0  0  0
  8  2  1  0  0  0  0
 11 12  3  0  0  0  0
 13  6  1  0  0  0  0
 15 14  1  0  0  0  0
M  END
