Coordinates from ORCA-job Ph-N2-OH-B3LYPG-6-31G_dp-MTMO-d009-169-n800
 OpenBabel09051908283D

 15 14  0  0  0  0  0  0  0  0999 V2000
   -2.0474   -1.0792   -0.8004 C   0  0  0  0  0  0  0  0  0  0  0  0
   -0.7934   -0.4900   -0.6292 C   0  0  0  0  0  0  0  0  0  0  0  0
   -0.6883    0.7447    0.0202 C   0  0  0  0  0  0  0  0  0  0  0  0
   -1.8379    1.3858    0.4964 C   0  0  0  0  0  0  0  0  0  0  0  0
   -3.0831    0.7873    0.3189 C   0  0  0  0  0  0  0  0  0  0  0  0
   -3.1978   -0.4464   -0.3289 C   0  0  0  0  0  0  0  0  0  0  0  0
   -2.1195   -2.0386   -1.3043 H   0  0  0  0  0  0  0  0  0  0  0  0
    0.1015   -0.9868   -0.9987 H   0  0  0  0  0  0  0  0  0  0  0  0
   -1.7342    2.3436    0.9952 H   0  0  0  0  0  0  0  0  0  0  0  0
   -3.9717    1.2898    0.6900 H   0  0  0  0  0  0  0  0  0  0  0  0
   11.3362   -0.7460   -3.6997 N   0  0  0  0  0  0  0  0  0  0  0  0
   10.2940   -0.6686   -3.3397 N   0  0  0  0  0  0  0  0  0  0  0  0
   -4.1714   -0.9067   -0.4642 H   0  0  0  0  0  0  0  0  0  0  0  0
    0.5094    1.3739    0.2189 O   0  0  0  0  0  0  0  0  0  0  0  0
    1.2154    0.8355   -0.1609 H   0  0  0  0  0  0  0  0  0  0  0  0
  1  2  2  0  0  0  0
  1  6  1  0  0  0  0
  2  3  1  0  0  0  0
  3 14  1  0  0  0  0
  3  4  2  0  0  0  0
  4  9  1  0  0  0  0
  5  4  1  0  0  0  0
  5 10  1  0  0  0  0
  6  5  2  0  0  0  0
  7  1  1  0  0  0  0
  8  2  1  0  0  0  0
 11 12  3  0  0  0  0
 13  6  1  0  0  0  0
 15 14  1  0  0  0  0
M  END
