Coordinates from ORCA-job Ph-N2-OH-B3LYPG-6-31G_dp-MTMO-d009-169-n800
 OpenBabel09051908283D

 15 14  0  0  0  0  0  0  0  0999 V2000
   -2.2821   -1.0633   -0.7328 C   0  0  0  0  0  0  0  0  0  0  0  0
   -1.0281   -0.4785   -0.5467 C   0  0  0  0  0  0  0  0  0  0  0  0
   -0.9269    0.7585    0.0989 C   0  0  0  0  0  0  0  0  0  0  0  0
   -2.0802    1.4064    0.5567 C   0  0  0  0  0  0  0  0  0  0  0  0
   -3.3253    0.8121    0.3645 C   0  0  0  0  0  0  0  0  0  0  0  0
   -3.4361   -0.4237   -0.2798 C   0  0  0  0  0  0  0  0  0  0  0  0
   -2.3513   -2.0245   -1.2337 H   0  0  0  0  0  0  0  0  0  0  0  0
   -0.1303   -0.9805   -0.9017 H   0  0  0  0  0  0  0  0  0  0  0  0
   -1.9793    2.3657    1.0530 H   0  0  0  0  0  0  0  0  0  0  0  0
   -4.2168    1.3197    0.7214 H   0  0  0  0  0  0  0  0  0  0  0  0
   12.8854   -0.8577   -4.1361 N   0  0  0  0  0  0  0  0  0  0  0  0
   11.8424   -0.7789   -3.7789 N   0  0  0  0  0  0  0  0  0  0  0  0
   -4.4097   -0.8805   -0.4266 H   0  0  0  0  0  0  0  0  0  0  0  0
    0.2707    1.3834    0.3114 O   0  0  0  0  0  0  0  0  0  0  0  0
    0.9795    0.8400   -0.0560 H   0  0  0  0  0  0  0  0  0  0  0  0
  1  2  2  0  0  0  0
  1  6  1  0  0  0  0
  2  3  1  0  0  0  0
  3 14  1  0  0  0  0
  3  4  2  0  0  0  0
  4  9  1  0  0  0  0
  5  4  1  0  0  0  0
  5 10  1  0  0  0  0
  6  5  2  0  0  0  0
  7  1  1  0  0  0  0
  8  2  1  0  0  0  0
 11 12  3  0  0  0  0
 13  6  1  0  0  0  0
 15 14  1  0  0  0  0
M  END
