Coordinates from ORCA-job Ph-N2-OH-B3LYPG-6-31G_dp-MTMO-d009-169-n800
 OpenBabel09051908283D

 15 14  0  0  0  0  0  0  0  0999 V2000
   -1.4733   -1.1342   -0.9710 C   0  0  0  0  0  0  0  0  0  0  0  0
   -0.1907   -0.5885   -0.8936 C   0  0  0  0  0  0  0  0  0  0  0  0
    0.0038    0.6415   -0.2558 C   0  0  0  0  0  0  0  0  0  0  0  0
   -1.0852    1.3214    0.3021 C   0  0  0  0  0  0  0  0  0  0  0  0
   -2.3598    0.7659    0.2177 C   0  0  0  0  0  0  0  0  0  0  0  0
   -2.5638   -0.4628   -0.4175 C   0  0  0  0  0  0  0  0  0  0  0  0
   -1.6152   -2.0903   -1.4664 H   0  0  0  0  0  0  0  0  0  0  0  0
    0.6573   -1.1153   -1.3264 H   0  0  0  0  0  0  0  0  0  0  0  0
   -0.9125    2.2746    0.7902 H   0  0  0  0  0  0  0  0  0  0  0  0
   -3.2011    1.2984    0.6519 H   0  0  0  0  0  0  0  0  0  0  0  0
    7.0164   -0.2992   -2.3825 N   0  0  0  0  0  0  0  0  0  0  0  0
    5.9693   -0.2169   -2.0383 N   0  0  0  0  0  0  0  0  0  0  0  0
   -3.5598   -0.8900   -0.4795 H   0  0  0  0  0  0  0  0  0  0  0  0
    1.2337    1.2290   -0.1464 O   0  0  0  0  0  0  0  0  0  0  0  0
    1.8927    0.6648   -0.5711 H   0  0  0  0  0  0  0  0  0  0  0  0
  1  2  2  0  0  0  0
  1  6  1  0  0  0  0
  2  3  1  0  0  0  0
  3 14  1  0  0  0  0
  3  4  2  0  0  0  0
  4  9  1  0  0  0  0
  5  4  1  0  0  0  0
  5 10  1  0  0  0  0
  6  5  2  0  0  0  0
  7  1  1  0  0  0  0
  8  2  1  0  0  0  0
 11 12  3  0  0  0  0
 13  6  1  0  0  0  0
 15 14  1  0  0  0  0
M  END
