Coordinates from ORCA-job Ph-N2-OH-B3LYPG-6-31G_dp-MTMO-d009-169-n800
 OpenBabel09051908283D

 15 14  0  0  0  0  0  0  0  0999 V2000
   -1.8553   -1.0928   -0.8567 C   0  0  0  0  0  0  0  0  0  0  0  0
   -0.6001   -0.5015   -0.7026 C   0  0  0  0  0  0  0  0  0  0  0  0
   -0.4878    0.7312   -0.0504 C   0  0  0  0  0  0  0  0  0  0  0  0
   -1.6311    1.3682    0.4457 C   0  0  0  0  0  0  0  0  0  0  0  0
   -2.8776    0.7676    0.2851 C   0  0  0  0  0  0  0  0  0  0  0  0
   -2.9996   -0.4640   -0.3653 C   0  0  0  0  0  0  0  0  0  0  0  0
   -1.9333   -2.0506   -1.3627 H   0  0  0  0  0  0  0  0  0  0  0  0
    0.2902   -0.9948   -1.0873 H   0  0  0  0  0  0  0  0  0  0  0  0
   -1.5218    2.3245    0.9462 H   0  0  0  0  0  0  0  0  0  0  0  0
   -3.7616    1.2669    0.6714 H   0  0  0  0  0  0  0  0  0  0  0  0
   10.0406   -0.6497   -3.3277 N   0  0  0  0  0  0  0  0  0  0  0  0
    8.9992   -0.5686   -2.9663 N   0  0  0  0  0  0  0  0  0  0  0  0
   -3.9743   -0.9259   -0.4872 H   0  0  0  0  0  0  0  0  0  0  0  0
    0.7117    1.3620    0.1319 O   0  0  0  0  0  0  0  0  0  0  0  0
    1.4126    0.8260   -0.2607 H   0  0  0  0  0  0  0  0  0  0  0  0
  1  2  2  0  0  0  0
  1  6  1  0  0  0  0
  2  3  1  0  0  0  0
  3 14  1  0  0  0  0
  3  4  2  0  0  0  0
  4  9  1  0  0  0  0
  5  4  1  0  0  0  0
  5 10  1  0  0  0  0
  6  5  2  0  0  0  0
  7  1  1  0  0  0  0
  8  2  1  0  0  0  0
 11 12  3  0  0  0  0
 13  6  1  0  0  0  0
 15 14  1  0  0  0  0
M  END
