Coordinates from ORCA-job Ph-N2-OH-B3LYPG-6-31G_dp-MTMO-d009-169-n800
 OpenBabel09051908283D

 15 14  0  0  0  0  0  0  0  0999 V2000
   -1.6614   -1.1104   -0.9142 C   0  0  0  0  0  0  0  0  0  0  0  0
   -0.3980   -0.5296   -0.7894 C   0  0  0  0  0  0  0  0  0  0  0  0
   -0.2602    0.7017   -0.1396 C   0  0  0  0  0  0  0  0  0  0  0  0
   -1.3863    1.3479    0.3835 C   0  0  0  0  0  0  0  0  0  0  0  0
   -2.6412    0.7576    0.2519 C   0  0  0  0  0  0  0  0  0  0  0  0
   -2.7887   -0.4725   -0.3959 C   0  0  0  0  0  0  0  0  0  0  0  0
   -1.7591   -2.0672   -1.4186 H   0  0  0  0  0  0  0  0  0  0  0  0
    0.4789   -1.0301   -1.1951 H   0  0  0  0  0  0  0  0  0  0  0  0
   -1.2574    2.3028    0.8817 H   0  0  0  0  0  0  0  0  0  0  0  0
   -3.5117    1.2640    0.6590 H   0  0  0  0  0  0  0  0  0  0  0  0
    8.6125   -0.5137   -2.8975 N   0  0  0  0  0  0  0  0  0  0  0  0
    7.5703   -0.4291   -2.5391 N   0  0  0  0  0  0  0  0  0  0  0  0
   -3.7697   -0.9264   -0.4949 H   0  0  0  0  0  0  0  0  0  0  0  0
    0.9483    1.3225    0.0150 O   0  0  0  0  0  0  0  0  0  0  0  0
    1.6357    0.7808   -0.3934 H   0  0  0  0  0  0  0  0  0  0  0  0
  1  2  2  0  0  0  0
  1  6  1  0  0  0  0
  2  3  1  0  0  0  0
  3 14  1  0  0  0  0
  3  4  2  0  0  0  0
  4  9  1  0  0  0  0
  5  4  1  0  0  0  0
  5 10  1  0  0  0  0
  6  5  2  0  0  0  0
  7  1  1  0  0  0  0
  8  2  1  0  0  0  0
 11 12  3  0  0  0  0
 13  6  1  0  0  0  0
 15 14  1  0  0  0  0
M  END
