Coordinates from ORCA-job Ph-N2-OH-B3LYPG-6-31G_dp-MTMO-d009-169-n800
 OpenBabel09051908283D

 15 14  0  0  0  0  0  0  0  0999 V2000
   -1.7014   -1.1063   -0.9022 C   0  0  0  0  0  0  0  0  0  0  0  0
   -0.4405   -0.5217   -0.7697 C   0  0  0  0  0  0  0  0  0  0  0  0
   -0.3103    0.7099   -0.1188 C   0  0  0  0  0  0  0  0  0  0  0  0
   -1.4414    1.3525    0.3977 C   0  0  0  0  0  0  0  0  0  0  0  0
   -2.6937    0.7585    0.2586 C   0  0  0  0  0  0  0  0  0  0  0  0
   -2.8336   -0.4719   -0.3904 C   0  0  0  0  0  0  0  0  0  0  0  0
   -1.7932   -2.0633   -1.4074 H   0  0  0  0  0  0  0  0  0  0  0  0
    0.4403   -1.0194   -1.1703 H   0  0  0  0  0  0  0  0  0  0  0  0
   -1.3183    2.3077    0.8969 H   0  0  0  0  0  0  0  0  0  0  0  0
   -3.5681    1.2622    0.6606 H   0  0  0  0  0  0  0  0  0  0  0  0
    8.9222   -0.5469   -2.9936 N   0  0  0  0  0  0  0  0  0  0  0  0
    7.8805   -0.4632   -2.6336 N   0  0  0  0  0  0  0  0  0  0  0  0
   -3.8126   -0.9287   -0.4954 H   0  0  0  0  0  0  0  0  0  0  0  0
    0.8954    1.3342    0.0430 O   0  0  0  0  0  0  0  0  0  0  0  0
    1.5867    0.7948   -0.3618 H   0  0  0  0  0  0  0  0  0  0  0  0
  1  2  2  0  0  0  0
  1  6  1  0  0  0  0
  2  3  1  0  0  0  0
  3 14  1  0  0  0  0
  3  4  2  0  0  0  0
  4  9  1  0  0  0  0
  5  4  1  0  0  0  0
  5 10  1  0  0  0  0
  6  5  2  0  0  0  0
  7  1  1  0  0  0  0
  8  2  1  0  0  0  0
 11 12  3  0  0  0  0
 13  6  1  0  0  0  0
 15 14  1  0  0  0  0
M  END
