Coordinates from ORCA-job Ph-N2-OH-B3LYPG-6-31G_dp-MTMO-d009-169-n800
 OpenBabel09051908283D

 15 14  0  0  0  0  0  0  0  0999 V2000
   -2.3878   -1.0557   -0.7030 C   0  0  0  0  0  0  0  0  0  0  0  0
   -1.1342   -0.4716   -0.5121 C   0  0  0  0  0  0  0  0  0  0  0  0
   -1.0350    0.7660    0.1328 C   0  0  0  0  0  0  0  0  0  0  0  0
   -2.1898    1.4151    0.5849 C   0  0  0  0  0  0  0  0  0  0  0  0
   -3.4345    0.8215    0.3879 C   0  0  0  0  0  0  0  0  0  0  0  0
   -3.5434   -0.4149   -0.2556 C   0  0  0  0  0  0  0  0  0  0  0  0
   -2.4555   -2.0173   -1.2032 H   0  0  0  0  0  0  0  0  0  0  0  0
   -0.2352   -0.9745   -0.8627 H   0  0  0  0  0  0  0  0  0  0  0  0
   -2.0904    2.3749    1.0807 H   0  0  0  0  0  0  0  0  0  0  0  0
   -4.3272    1.3301    0.7404 H   0  0  0  0  0  0  0  0  0  0  0  0
   13.5852   -0.9106   -4.3310 N   0  0  0  0  0  0  0  0  0  0  0  0
   12.5418   -0.8298   -3.9753 N   0  0  0  0  0  0  0  0  0  0  0  0
   -4.5166   -0.8712   -0.4063 H   0  0  0  0  0  0  0  0  0  0  0  0
    0.1621    1.3903    0.3498 O   0  0  0  0  0  0  0  0  0  0  0  0
    0.8721    0.8460   -0.0138 H   0  0  0  0  0  0  0  0  0  0  0  0
  1  2  2  0  0  0  0
  1  6  1  0  0  0  0
  2  3  1  0  0  0  0
  3 14  1  0  0  0  0
  3  4  2  0  0  0  0
  4  9  1  0  0  0  0
  5  4  1  0  0  0  0
  5 10  1  0  0  0  0
  6  5  2  0  0  0  0
  7  1  1  0  0  0  0
  8  2  1  0  0  0  0
 11 12  3  0  0  0  0
 13  6  1  0  0  0  0
 15 14  1  0  0  0  0
M  END
