Coordinates from ORCA-job Ph-N2-OH-B3LYPG-6-31G_dp-MTMO-d009-169-n800
 OpenBabel09051908283D

 15 14  0  0  0  0  0  0  0  0999 V2000
   -0.9715   -1.3159   -0.8152 C   0  0  0  0  0  0  0  0  0  0  0  0
    0.2899   -0.9830   -0.3183 C   0  0  0  0  0  0  0  0  0  0  0  0
    0.5501    0.3285    0.0935 C   0  0  0  0  0  0  0  0  0  0  0  0
   -0.4515    1.3022    0.0063 C   0  0  0  0  0  0  0  0  0  0  0  0
   -1.7060    0.9567   -0.4909 C   0  0  0  0  0  0  0  0  0  0  0  0
   -1.9753   -0.3512   -0.9048 C   0  0  0  0  0  0  0  0  0  0  0  0
   -1.1646   -2.3362   -1.1341 H   0  0  0  0  0  0  0  0  0  0  0  0
    1.0697   -1.7390   -0.2480 H   0  0  0  0  0  0  0  0  0  0  0  0
   -0.2285    2.3128    0.3324 H   0  0  0  0  0  0  0  0  0  0  0  0
   -2.4795    1.7169   -0.5565 H   0  0  0  0  0  0  0  0  0  0  0  0
    2.5035    0.9459   -2.7730 N   0  0  0  0  0  0  0  0  0  0  0  0
    3.1947    0.4843   -2.0447 N   0  0  0  0  0  0  0  0  0  0  0  0
   -2.9544   -0.6133   -1.2928 H   0  0  0  0  0  0  0  0  0  0  0  0
    1.7625    0.7191    0.5913 O   0  0  0  0  0  0  0  0  0  0  0  0
    2.3726   -0.0295    0.5682 H   0  0  0  0  0  0  0  0  0  0  0  0
  1  2  1  0  0  0  0
  2  8  1  0  0  0  0
  2  3  2  0  0  0  0
  3 14  1  0  0  0  0
  4  3  1  0  0  0  0
  4  9  1  0  0  0  0
  5  4  2  0  0  0  0
  6  1  2  0  0  0  0
  6  5  1  0  0  0  0
  7  1  1  0  0  0  0
 10  5  1  0  0  0  0
 11 12  3  0  0  0  0
 13  6  1  0  0  0  0
 15 14  1  0  0  0  0
M  END
