Coordinates from ORCA-job Ph-N2-OH-B3LYPG-6-31G_dp-MTMO-d009-169-n800
 OpenBabel09051908283D

 15 15  0  0  0  0  0  0  0  0999 V2000
   -1.3578   -1.3804   -1.3126 C   0  0  0  0  0  0  0  0  0  0  0  0
    0.0203   -1.2821   -1.3036 C   0  0  0  0  0  0  0  0  0  0  0  0
    0.7550   -0.1456   -0.7522 C   0  0  0  0  0  0  0  0  0  0  0  0
   -0.1243    0.8983   -0.2095 C   0  0  0  0  0  0  0  0  0  0  0  0
   -1.5050    0.7844   -0.2343 C   0  0  0  0  0  0  0  0  0  0  0  0
   -2.1308   -0.3433   -0.7768 C   0  0  0  0  0  0  0  0  0  0  0  0
   -1.8400   -2.2575   -1.7355 H   0  0  0  0  0  0  0  0  0  0  0  0
    0.6372   -2.0767   -1.7166 H   0  0  0  0  0  0  0  0  0  0  0  0
    0.3316    1.7821    0.2147 H   0  0  0  0  0  0  0  0  0  0  0  0
   -2.1116    1.5866    0.1776 H   0  0  0  0  0  0  0  0  0  0  0  0
    1.8147   -0.1580   -0.7834 N   0  0  0  0  0  0  0  0  0  0  0  0
    2.8104    0.5144   -0.4459 N   0  0  0  0  0  0  0  0  0  0  0  0
   -3.2153   -0.4129   -0.7827 H   0  0  0  0  0  0  0  0  0  0  0  0
    2.4261    1.7606    0.2413 O   0  0  0  0  0  0  0  0  0  0  0  0
    3.3011    2.1284    0.4329 H   0  0  0  0  0  0  0  0  0  0  0  0
  1  2  2  0  0  0  0
  1  6  1  0  0  0  0
  2  3  1  0  0  0  0
  3  4  2  0  0  0  0
  4  9  1  0  0  0  0
  5  4  1  0  0  0  0
  5 10  1  0  0  0  0
  6  5  2  0  0  0  0
  7  1  1  0  0  0  0
  8  2  1  0  0  0  0
 11  3  1  0  0  0  0
 11 12  1  0  0  0  0
 12 14  1  0  0  0  0
 13  6  1  0  0  0  0
 14 15  1  0  0  0  0
M  RAD  2  11   2  12   2
M  END
