Coordinates from ORCA-job Ph-N2-OH-B3LYPG-6-31G_dp-MTMO-d009-169-n800
 OpenBabel09051908283D

 15 14  0  0  0  0  0  0  0  0999 V2000
   -1.6929   -1.1071   -0.9047 C   0  0  0  0  0  0  0  0  0  0  0  0
   -0.4315   -0.5233   -0.7738 C   0  0  0  0  0  0  0  0  0  0  0  0
   -0.2998    0.7082   -0.1231 C   0  0  0  0  0  0  0  0  0  0  0  0
   -1.4299    1.3515    0.3947 C   0  0  0  0  0  0  0  0  0  0  0  0
   -2.6827    0.7583    0.2571 C   0  0  0  0  0  0  0  0  0  0  0  0
   -2.8241   -0.4721   -0.3916 C   0  0  0  0  0  0  0  0  0  0  0  0
   -1.7859   -2.0641   -1.4098 H   0  0  0  0  0  0  0  0  0  0  0  0
    0.4486   -1.0215   -1.1755 H   0  0  0  0  0  0  0  0  0  0  0  0
   -1.3057    2.3067    0.8937 H   0  0  0  0  0  0  0  0  0  0  0  0
   -3.5563    1.2624    0.6602 H   0  0  0  0  0  0  0  0  0  0  0  0
    8.8569   -0.5401   -2.9735 N   0  0  0  0  0  0  0  0  0  0  0  0
    7.8151   -0.4562   -2.6138 N   0  0  0  0  0  0  0  0  0  0  0  0
   -3.8035   -0.9284   -0.4954 H   0  0  0  0  0  0  0  0  0  0  0  0
    0.9065    1.3319    0.0372 O   0  0  0  0  0  0  0  0  0  0  0  0
    1.5970    0.7921   -0.3683 H   0  0  0  0  0  0  0  0  0  0  0  0
  1  2  2  0  0  0  0
  1  6  1  0  0  0  0
  2  3  1  0  0  0  0
  3 14  1  0  0  0  0
  3  4  2  0  0  0  0
  4  9  1  0  0  0  0
  5  4  1  0  0  0  0
  5 10  1  0  0  0  0
  6  5  2  0  0  0  0
  7  1  1  0  0  0  0
  8  2  1  0  0  0  0
 11 12  3  0  0  0  0
 13  6  1  0  0  0  0
 15 14  1  0  0  0  0
M  END
