Coordinates from ORCA-job Ph-N2-OH-B3LYPG-6-31G_dp-MTMO-d009-169-n800
 OpenBabel09051908283D

 15 14  0  0  0  0  0  0  0  0999 V2000
   -2.2569   -1.0651   -0.7399 C   0  0  0  0  0  0  0  0  0  0  0  0
   -1.0029   -0.4802   -0.5550 C   0  0  0  0  0  0  0  0  0  0  0  0
   -0.9012    0.7567    0.0909 C   0  0  0  0  0  0  0  0  0  0  0  0
   -2.0540    1.4044    0.5500 C   0  0  0  0  0  0  0  0  0  0  0  0
   -3.2992    0.8099    0.3590 C   0  0  0  0  0  0  0  0  0  0  0  0
   -3.4106   -0.4258   -0.2854 C   0  0  0  0  0  0  0  0  0  0  0  0
   -2.3266   -2.0262   -1.2409 H   0  0  0  0  0  0  0  0  0  0  0  0
   -0.1052   -0.9817   -0.9110 H   0  0  0  0  0  0  0  0  0  0  0  0
   -1.9528    2.3636    1.0464 H   0  0  0  0  0  0  0  0  0  0  0  0
   -4.1905    1.3173    0.7169 H   0  0  0  0  0  0  0  0  0  0  0  0
   12.7187   -0.8449   -4.0896 N   0  0  0  0  0  0  0  0  0  0  0  0
   11.6758   -0.7668   -3.7321 N   0  0  0  0  0  0  0  0  0  0  0  0
   -4.3842   -0.8827   -0.4314 H   0  0  0  0  0  0  0  0  0  0  0  0
    0.2966    1.3817    0.3020 O   0  0  0  0  0  0  0  0  0  0  0  0
    1.0048    0.8382   -0.0663 H   0  0  0  0  0  0  0  0  0  0  0  0
  1  2  2  0  0  0  0
  1  6  1  0  0  0  0
  2  3  1  0  0  0  0
  3 14  1  0  0  0  0
  3  4  2  0  0  0  0
  4  9  1  0  0  0  0
  5  4  1  0  0  0  0
  5 10  1  0  0  0  0
  6  5  2  0  0  0  0
  7  1  1  0  0  0  0
  8  2  1  0  0  0  0
 11 12  3  0  0  0  0
 13  6  1  0  0  0  0
 15 14  1  0  0  0  0
M  END
