Coordinates from ORCA-job Ph-N2-OH-B3LYPG-6-31G_dp-MTMO-d009-169-n800
 OpenBabel09051908283D

 15 14  0  0  0  0  0  0  0  0999 V2000
   -2.1160   -1.0748   -0.7803 C   0  0  0  0  0  0  0  0  0  0  0  0
   -0.8617   -0.4879   -0.6039 C   0  0  0  0  0  0  0  0  0  0  0  0
   -0.7573    0.7478    0.0438 C   0  0  0  0  0  0  0  0  0  0  0  0
   -1.9079    1.3921    0.5133 C   0  0  0  0  0  0  0  0  0  0  0  0
   -3.1534    0.7957    0.3307 C   0  0  0  0  0  0  0  0  0  0  0  0
   -3.2674   -0.4389   -0.3155 C   0  0  0  0  0  0  0  0  0  0  0  0
   -2.1876   -2.0350   -1.2828 H   0  0  0  0  0  0  0  0  0  0  0  0
    0.0340   -0.9871   -0.9682 H   0  0  0  0  0  0  0  0  0  0  0  0
   -1.8047    2.3505    1.0109 H   0  0  0  0  0  0  0  0  0  0  0  0
   -4.0428    1.3006    0.6967 H   0  0  0  0  0  0  0  0  0  0  0  0
   11.7861   -0.7764   -3.8276 N   0  0  0  0  0  0  0  0  0  0  0  0
   10.7437   -0.7001   -3.4680 N   0  0  0  0  0  0  0  0  0  0  0  0
   -4.2413   -0.8974   -0.4548 H   0  0  0  0  0  0  0  0  0  0  0  0
    0.4407    1.3749    0.2472 O   0  0  0  0  0  0  0  0  0  0  0  0
    1.1475    0.8343   -0.1280 H   0  0  0  0  0  0  0  0  0  0  0  0
  1  2  2  0  0  0  0
  1  6  1  0  0  0  0
  2  3  1  0  0  0  0
  3 14  1  0  0  0  0
  3  4  2  0  0  0  0
  4  9  1  0  0  0  0
  5  4  1  0  0  0  0
  5 10  1  0  0  0  0
  6  5  2  0  0  0  0
  7  1  1  0  0  0  0
  8  2  1  0  0  0  0
 11 12  3  0  0  0  0
 13  6  1  0  0  0  0
 15 14  1  0  0  0  0
M  END
