Coordinates from ORCA-job Ph-N2-OH-B3LYPG-6-31G_dp-MTMO-d009-169-n800
 OpenBabel09051908283D

 15 14  0  0  0  0  0  0  0  0999 V2000
   -1.8960   -1.0897   -0.8448 C   0  0  0  0  0  0  0  0  0  0  0  0
   -0.6415   -0.4980   -0.6865 C   0  0  0  0  0  0  0  0  0  0  0  0
   -0.5318    0.7351   -0.0346 C   0  0  0  0  0  0  0  0  0  0  0  0
   -1.6770    1.3721    0.4572 C   0  0  0  0  0  0  0  0  0  0  0  0
   -2.9228    0.7710    0.2924 C   0  0  0  0  0  0  0  0  0  0  0  0
   -3.0422   -0.4609   -0.3578 C   0  0  0  0  0  0  0  0  0  0  0  0
   -1.9719   -2.0477   -1.3506 H   0  0  0  0  0  0  0  0  0  0  0  0
    0.2504   -0.9912   -1.0679 H   0  0  0  0  0  0  0  0  0  0  0  0
   -1.5697    2.3286    0.9576 H   0  0  0  0  0  0  0  0  0  0  0  0
   -3.8082    1.2702    0.6754 H   0  0  0  0  0  0  0  0  0  0  0  0
   10.3221   -0.6725   -3.4093 N   0  0  0  0  0  0  0  0  0  0  0  0
    9.2805   -0.5920   -3.0481 N   0  0  0  0  0  0  0  0  0  0  0  0
   -4.0163   -0.9231   -0.4830 H   0  0  0  0  0  0  0  0  0  0  0  0
    0.6669    1.3663    0.1517 O   0  0  0  0  0  0  0  0  0  0  0  0
    1.3693    0.8303   -0.2382 H   0  0  0  0  0  0  0  0  0  0  0  0
  1  2  2  0  0  0  0
  1  6  1  0  0  0  0
  2  3  1  0  0  0  0
  3 14  1  0  0  0  0
  3  4  2  0  0  0  0
  4  9  1  0  0  0  0
  5  4  1  0  0  0  0
  5 10  1  0  0  0  0
  6  5  2  0  0  0  0
  7  1  1  0  0  0  0
  8  2  1  0  0  0  0
 11 12  3  0  0  0  0
 13  6  1  0  0  0  0
 15 14  1  0  0  0  0
M  END
