Coordinates from ORCA-job Ph-N2-OH-B3LYPG-6-31G_dp-MTMO-d009-169-n800
 OpenBabel09051908283D

 15 14  0  0  0  0  0  0  0  0999 V2000
   -1.0115   -1.3562   -0.7509 C   0  0  0  0  0  0  0  0  0  0  0  0
    0.2547   -1.0594   -0.2438 C   0  0  0  0  0  0  0  0  0  0  0  0
    0.5730    0.2586    0.1008 C   0  0  0  0  0  0  0  0  0  0  0  0
   -0.3752    1.2748   -0.0638 C   0  0  0  0  0  0  0  0  0  0  0  0
   -1.6351    0.9651   -0.5708 C   0  0  0  0  0  0  0  0  0  0  0  0
   -1.9624   -0.3491   -0.9175 C   0  0  0  0  0  0  0  0  0  0  0  0
   -1.2505   -2.3818   -1.0175 H   0  0  0  0  0  0  0  0  0  0  0  0
    0.9933   -1.8482   -0.1138 H   0  0  0  0  0  0  0  0  0  0  0  0
   -0.1080    2.2897    0.2119 H   0  0  0  0  0  0  0  0  0  0  0  0
   -2.3669    1.7580   -0.6969 H   0  0  0  0  0  0  0  0  0  0  0  0
    2.3086    1.1283   -2.7429 N   0  0  0  0  0  0  0  0  0  0  0  0
    3.1865    0.8547   -2.1295 N   0  0  0  0  0  0  0  0  0  0  0  0
   -2.9454   -0.5836   -1.3131 H   0  0  0  0  0  0  0  0  0  0  0  0
    1.7937    0.6152    0.6038 O   0  0  0  0  0  0  0  0  0  0  0  0
    2.3570   -0.1676    0.6575 H   0  0  0  0  0  0  0  0  0  0  0  0
  1  2  1  0  0  0  0
  2  8  1  0  0  0  0
  2  3  2  0  0  0  0
  3 14  1  0  0  0  0
  4  3  1  0  0  0  0
  4  9  1  0  0  0  0
  5  4  2  0  0  0  0
  6  1  2  0  0  0  0
  6  5  1  0  0  0  0
  7  1  1  0  0  0  0
 10  5  1  0  0  0  0
 11 12  3  0  0  0  0
 13  6  1  0  0  0  0
 14 15  1  0  0  0  0
M  END
