Coordinates from ORCA-job Ph-N2-OH-B3LYPG-6-31G_dp-MTMO-d009-169-n800
 OpenBabel09051908283D

 15 14  0  0  0  0  0  0  0  0999 V2000
   -1.4405   -1.1472   -0.9904 C   0  0  0  0  0  0  0  0  0  0  0  0
   -0.1380   -0.6454   -0.9645 C   0  0  0  0  0  0  0  0  0  0  0  0
    0.1226    0.5793   -0.3403 C   0  0  0  0  0  0  0  0  0  0  0  0
   -0.9210    1.2979    0.2548 C   0  0  0  0  0  0  0  0  0  0  0  0
   -2.2161    0.7862    0.2218 C   0  0  0  0  0  0  0  0  0  0  0  0
   -2.4857   -0.4371   -0.3991 C   0  0  0  0  0  0  0  0  0  0  0  0
   -1.6336   -2.0995   -1.4756 H   0  0  0  0  0  0  0  0  0  0  0  0
    0.6743   -1.2028   -1.4266 H   0  0  0  0  0  0  0  0  0  0  0  0
   -0.6972    2.2463    0.7316 H   0  0  0  0  0  0  0  0  0  0  0  0
   -3.0215    1.3487    0.6852 H   0  0  0  0  0  0  0  0  0  0  0  0
    6.3786   -0.1076   -2.0701 N   0  0  0  0  0  0  0  0  0  0  0  0
    5.3107   -0.0501   -1.7912 N   0  0  0  0  0  0  0  0  0  0  0  0
   -3.4972   -0.8307   -0.4207 H   0  0  0  0  0  0  0  0  0  0  0  0
    1.3752    1.1247   -0.2799 O   0  0  0  0  0  0  0  0  0  0  0  0
    2.0010    0.5358   -0.7215 H   0  0  0  0  0  0  0  0  0  0  0  0
  1  2  2  0  0  0  0
  1  6  1  0  0  0  0
  2  3  1  0  0  0  0
  3 14  1  0  0  0  0
  3  4  2  0  0  0  0
  4  9  1  0  0  0  0
  5  4  1  0  0  0  0
  5 10  1  0  0  0  0
  6  5  2  0  0  0  0
  7  1  1  0  0  0  0
  8  2  1  0  0  0  0
 11 12  3  0  0  0  0
 13  6  1  0  0  0  0
 15 14  1  0  0  0  0
M  END
