Coordinates from ORCA-job Ph-N2-OH-B3LYPG-6-31G_dp-MTMO-d009-169-n800
 OpenBabel09051908283D

 15 14  0  0  0  0  0  0  0  0999 V2000
   -2.3221   -1.0604   -0.7215 C   0  0  0  0  0  0  0  0  0  0  0  0
   -1.0684   -0.4757   -0.5334 C   0  0  0  0  0  0  0  0  0  0  0  0
   -0.9681    0.7615    0.1120 C   0  0  0  0  0  0  0  0  0  0  0  0
   -2.1221    1.4097    0.5674 C   0  0  0  0  0  0  0  0  0  0  0  0
   -3.3670    0.8156    0.3733 C   0  0  0  0  0  0  0  0  0  0  0  0
   -3.4769   -0.4205   -0.2708 C   0  0  0  0  0  0  0  0  0  0  0  0
   -2.3906   -2.0217   -1.2222 H   0  0  0  0  0  0  0  0  0  0  0  0
   -0.1700   -0.9779   -0.8866 H   0  0  0  0  0  0  0  0  0  0  0  0
   -2.0220    2.3692    1.0636 H   0  0  0  0  0  0  0  0  0  0  0  0
   -4.2590    1.3234    0.7284 H   0  0  0  0  0  0  0  0  0  0  0  0
   13.1518   -0.8781   -4.2105 N   0  0  0  0  0  0  0  0  0  0  0  0
   12.1086   -0.7984   -3.8539 N   0  0  0  0  0  0  0  0  0  0  0  0
   -4.4502   -0.8772   -0.4192 H   0  0  0  0  0  0  0  0  0  0  0  0
    0.2292    1.3863    0.3264 O   0  0  0  0  0  0  0  0  0  0  0  0
    0.9385    0.8426   -0.0395 H   0  0  0  0  0  0  0  0  0  0  0  0
  1  2  2  0  0  0  0
  1  6  1  0  0  0  0
  2  3  1  0  0  0  0
  3 14  1  0  0  0  0
  3  4  2  0  0  0  0
  4  9  1  0  0  0  0
  5  4  1  0  0  0  0
  5 10  1  0  0  0  0
  6  5  2  0  0  0  0
  7  1  1  0  0  0  0
  8  2  1  0  0  0  0
 11 12  3  0  0  0  0
 13  6  1  0  0  0  0
 15 14  1  0  0  0  0
M  END
