Coordinates from ORCA-job Ph-N2-OH-B3LYPG-6-31G_dp-MTMO-d009-169-n800
 OpenBabel09051908283D

 15 14  0  0  0  0  0  0  0  0999 V2000
   -2.1008   -1.0758   -0.7847 C   0  0  0  0  0  0  0  0  0  0  0  0
   -0.8465   -0.4884   -0.6095 C   0  0  0  0  0  0  0  0  0  0  0  0
   -0.7420    0.7471    0.0386 C   0  0  0  0  0  0  0  0  0  0  0  0
   -1.8924    1.3907    0.5095 C   0  0  0  0  0  0  0  0  0  0  0  0
   -3.1378    0.7939    0.3280 C   0  0  0  0  0  0  0  0  0  0  0  0
   -3.2519   -0.4405   -0.3186 C   0  0  0  0  0  0  0  0  0  0  0  0
   -2.1725   -2.0358   -1.2876 H   0  0  0  0  0  0  0  0  0  0  0  0
    0.0490   -0.9871   -0.9748 H   0  0  0  0  0  0  0  0  0  0  0  0
   -1.7890    2.3490    1.0074 H   0  0  0  0  0  0  0  0  0  0  0  0
   -4.0270    1.2983    0.6951 H   0  0  0  0  0  0  0  0  0  0  0  0
   11.6861   -0.7696   -3.7992 N   0  0  0  0  0  0  0  0  0  0  0  0
   10.6437   -0.6931   -3.4396 N   0  0  0  0  0  0  0  0  0  0  0  0
   -4.2257   -0.8995   -0.4570 H   0  0  0  0  0  0  0  0  0  0  0  0
    0.4559    1.3746    0.2411 O   0  0  0  0  0  0  0  0  0  0  0  0
    1.1626    0.8345   -0.1352 H   0  0  0  0  0  0  0  0  0  0  0  0
  1  2  2  0  0  0  0
  1  6  1  0  0  0  0
  2  3  1  0  0  0  0
  3 14  1  0  0  0  0
  3  4  2  0  0  0  0
  4  9  1  0  0  0  0
  5  4  1  0  0  0  0
  5 10  1  0  0  0  0
  6  5  2  0  0  0  0
  7  1  1  0  0  0  0
  8  2  1  0  0  0  0
 11 12  3  0  0  0  0
 13  6  1  0  0  0  0
 15 14  1  0  0  0  0
M  END
