Coordinates from ORCA-job Ph-N2-OH-B3LYPG-6-31G_dp-MTMO-d009-169-n800
 OpenBabel09051908283D

 15 14  0  0  0  0  0  0  0  0999 V2000
   -0.9556   -1.3345   -0.7946 C   0  0  0  0  0  0  0  0  0  0  0  0
    0.2976   -1.0493   -0.2498 C   0  0  0  0  0  0  0  0  0  0  0  0
    0.6140    0.2640    0.1130 C   0  0  0  0  0  0  0  0  0  0  0  0
   -0.3254    1.2862   -0.0634 C   0  0  0  0  0  0  0  0  0  0  0  0
   -1.5721    0.9882   -0.6083 C   0  0  0  0  0  0  0  0  0  0  0  0
   -1.8960   -0.3206   -0.9777 C   0  0  0  0  0  0  0  0  0  0  0  0
   -1.1925   -2.3563   -1.0770 H   0  0  0  0  0  0  0  0  0  0  0  0
    1.0284   -1.8434   -0.1076 H   0  0  0  0  0  0  0  0  0  0  0  0
   -0.0615    2.2964    0.2315 H   0  0  0  0  0  0  0  0  0  0  0  0
   -2.2970    1.7858   -0.7448 H   0  0  0  0  0  0  0  0  0  0  0  0
    1.9026    0.8306   -2.5165 N   0  0  0  0  0  0  0  0  0  0  0  0
    2.9476    0.9705   -2.1831 N   0  0  0  0  0  0  0  0  0  0  0  0
   -2.8690   -0.5460   -1.4024 H   0  0  0  0  0  0  0  0  0  0  0  0
    1.8204    0.6085    0.6569 O   0  0  0  0  0  0  0  0  0  0  0  0
    2.3703   -0.1817    0.7374 H   0  0  0  0  0  0  0  0  0  0  0  0
  1  2  1  0  0  0  0
  2  8  1  0  0  0  0
  2  3  2  0  0  0  0
  3 14  1  0  0  0  0
  4  3  1  0  0  0  0
  4  9  1  0  0  0  0
  5  4  2  0  0  0  0
  6  1  2  0  0  0  0
  6  5  1  0  0  0  0
  7  1  1  0  0  0  0
 10  5  1  0  0  0  0
 11 12  3  0  0  0  0
 13  6  1  0  0  0  0
 14 15  1  0  0  0  0
M  END
