Coordinates from ORCA-job Ph-N2-OH-B3LYPG-6-31G_dp-MTMO-d009-169-n800
 OpenBabel09051908283D

 15 14  0  0  0  0  0  0  0  0999 V2000
   -1.3493   -1.1489   -1.0097 C   0  0  0  0  0  0  0  0  0  0  0  0
   -0.0478   -0.6453   -0.9748 C   0  0  0  0  0  0  0  0  0  0  0  0
    0.2067    0.5801   -0.3491 C   0  0  0  0  0  0  0  0  0  0  0  0
   -0.8422    1.2972    0.2385 C   0  0  0  0  0  0  0  0  0  0  0  0
   -2.1363    0.7836    0.1964 C   0  0  0  0  0  0  0  0  0  0  0  0
   -2.3998   -0.4402   -0.4260 C   0  0  0  0  0  0  0  0  0  0  0  0
   -1.5377   -2.1016   -1.4960 H   0  0  0  0  0  0  0  0  0  0  0  0
    0.7686   -1.2013   -1.4311 H   0  0  0  0  0  0  0  0  0  0  0  0
   -0.6231    2.2461    0.7166 H   0  0  0  0  0  0  0  0  0  0  0  0
   -2.9458    1.3451    0.6540 H   0  0  0  0  0  0  0  0  0  0  0  0
    5.8196   -0.1172   -1.9790 N   0  0  0  0  0  0  0  0  0  0  0  0
    4.7602   -0.0341   -1.6753 N   0  0  0  0  0  0  0  0  0  0  0  0
   -3.4105   -0.8353   -0.4547 H   0  0  0  0  0  0  0  0  0  0  0  0
    1.4576    1.1275   -0.2800 O   0  0  0  0  0  0  0  0  0  0  0  0
    2.0916    0.5428   -0.7163 H   0  0  0  0  0  0  0  0  0  0  0  0
  1  2  2  0  0  0  0
  1  6  1  0  0  0  0
  2  3  1  0  0  0  0
  3 14  1  0  0  0  0
  3  4  2  0  0  0  0
  4  9  1  0  0  0  0
  5  4  1  0  0  0  0
  5 10  1  0  0  0  0
  6  5  2  0  0  0  0
  7  1  1  0  0  0  0
  8  2  1  0  0  0  0
 11 12  3  0  0  0  0
 13  6  1  0  0  0  0
 15 14  1  0  0  0  0
M  END
