Coordinates from ORCA-job Ph-N2-OH-B3LYPG-6-31G_dp-MTMO-d009-169-n800
 OpenBabel09051908283D

 15 14  0  0  0  0  0  0  0  0999 V2000
   -1.9913   -1.0827   -0.8171 C   0  0  0  0  0  0  0  0  0  0  0  0
   -0.7378   -0.4912   -0.6507 C   0  0  0  0  0  0  0  0  0  0  0  0
   -0.6323    0.7428    0.0003 C   0  0  0  0  0  0  0  0  0  0  0  0
   -1.7808    1.3808    0.4830 C   0  0  0  0  0  0  0  0  0  0  0  0
   -3.0256    0.7798    0.3103 C   0  0  0  0  0  0  0  0  0  0  0  0
   -3.1408   -0.4529   -0.3391 C   0  0  0  0  0  0  0  0  0  0  0  0
   -2.0640   -2.0414   -1.3223 H   0  0  0  0  0  0  0  0  0  0  0  0
    0.1566   -0.9852   -1.0251 H   0  0  0  0  0  0  0  0  0  0  0  0
   -1.6768    2.3379    0.9830 H   0  0  0  0  0  0  0  0  0  0  0  0
   -3.9136    1.2798    0.6863 H   0  0  0  0  0  0  0  0  0  0  0  0
   10.9696   -0.7226   -3.5944 N   0  0  0  0  0  0  0  0  0  0  0  0
    9.9276   -0.6426   -3.2345 N   0  0  0  0  0  0  0  0  0  0  0  0
   -4.1141   -0.9149   -0.4706 H   0  0  0  0  0  0  0  0  0  0  0  0
    0.5651    1.3738    0.1943 O   0  0  0  0  0  0  0  0  0  0  0  0
    1.2701    0.8370   -0.1898 H   0  0  0  0  0  0  0  0  0  0  0  0
  1  2  2  0  0  0  0
  1  6  1  0  0  0  0
  2  3  1  0  0  0  0
  3 14  1  0  0  0  0
  3  4  2  0  0  0  0
  4  9  1  0  0  0  0
  5  4  1  0  0  0  0
  5 10  1  0  0  0  0
  6  5  2  0  0  0  0
  7  1  1  0  0  0  0
  8  2  1  0  0  0  0
 11 12  3  0  0  0  0
 13  6  1  0  0  0  0
 15 14  1  0  0  0  0
M  END
