Coordinates from ORCA-job Ph-N2-OH-B3LYPG-6-31G_dp-MTMO-d009-169-n800
 OpenBabel09051908283D

 15 14  0  0  0  0  0  0  0  0999 V2000
   -1.7517   -1.1015   -0.8872 C   0  0  0  0  0  0  0  0  0  0  0  0
   -0.4933   -0.5136   -0.7464 C   0  0  0  0  0  0  0  0  0  0  0  0
   -0.3706    0.7183   -0.0947 C   0  0  0  0  0  0  0  0  0  0  0  0
   -1.5068    1.3579    0.4144 C   0  0  0  0  0  0  0  0  0  0  0  0
   -2.7566    0.7606    0.2670 C   0  0  0  0  0  0  0  0  0  0  0  0
   -2.8889   -0.4701   -0.3829 C   0  0  0  0  0  0  0  0  0  0  0  0
   -1.8377   -2.0587   -1.3930 H   0  0  0  0  0  0  0  0  0  0  0  0
    0.3915   -1.0089   -1.1413 H   0  0  0  0  0  0  0  0  0  0  0  0
   -1.3895    2.3135    0.9144 H   0  0  0  0  0  0  0  0  0  0  0  0
   -3.6349    1.2619    0.6633 H   0  0  0  0  0  0  0  0  0  0  0  0
    9.2989   -0.5842   -3.1083 N   0  0  0  0  0  0  0  0  0  0  0  0
    8.2575   -0.5015   -2.7471 N   0  0  0  0  0  0  0  0  0  0  0  0
   -3.8660   -0.9295   -0.4943 H   0  0  0  0  0  0  0  0  0  0  0  0
    0.8324    1.3459    0.0750 O   0  0  0  0  0  0  0  0  0  0  0  0
    1.5276    0.8084   -0.3255 H   0  0  0  0  0  0  0  0  0  0  0  0
  1  2  2  0  0  0  0
  1  6  1  0  0  0  0
  2  3  1  0  0  0  0
  3 14  1  0  0  0  0
  3  4  2  0  0  0  0
  4  9  1  0  0  0  0
  5  4  1  0  0  0  0
  5 10  1  0  0  0  0
  6  5  2  0  0  0  0
  7  1  1  0  0  0  0
  8  2  1  0  0  0  0
 11 12  3  0  0  0  0
 13  6  1  0  0  0  0
 15 14  1  0  0  0  0
M  END
