Coordinates from ORCA-job Ph-N2-OH-B3LYPG-6-31G_dp-MTMO-d009-169-n800
 OpenBabel09051908283D

 15 15  0  0  0  0  0  0  0  0999 V2000
   -1.3613   -1.3766   -1.3144 C   0  0  0  0  0  0  0  0  0  0  0  0
    0.0187   -1.2800   -1.3000 C   0  0  0  0  0  0  0  0  0  0  0  0
    0.7333   -0.1495   -0.7475 C   0  0  0  0  0  0  0  0  0  0  0  0
   -0.1230    0.8924   -0.2066 C   0  0  0  0  0  0  0  0  0  0  0  0
   -1.5059    0.7827   -0.2322 C   0  0  0  0  0  0  0  0  0  0  0  0
   -2.1341   -0.3407   -0.7785 C   0  0  0  0  0  0  0  0  0  0  0  0
   -1.8413   -2.2526   -1.7413 H   0  0  0  0  0  0  0  0  0  0  0  0
    0.6366   -2.0730   -1.7125 H   0  0  0  0  0  0  0  0  0  0  0  0
    0.3354    1.7723    0.2203 H   0  0  0  0  0  0  0  0  0  0  0  0
   -2.1086    1.5866    0.1818 H   0  0  0  0  0  0  0  0  0  0  0  0
    1.8525   -0.1791   -0.7869 N   0  0  0  0  0  0  0  0  0  0  0  0
    2.8207    0.5186   -0.4383 N   0  0  0  0  0  0  0  0  0  0  0  0
   -3.2187   -0.4079   -0.7870 H   0  0  0  0  0  0  0  0  0  0  0  0
    2.4191    1.7624    0.2318 O   0  0  0  0  0  0  0  0  0  0  0  0
    3.2884    2.1427    0.4248 H   0  0  0  0  0  0  0  0  0  0  0  0
  1  2  2  0  0  0  0
  1  6  1  0  0  0  0
  2  3  1  0  0  0  0
  3  4  2  0  0  0  0
  4  9  1  0  0  0  0
  5  4  1  0  0  0  0
  5 10  1  0  0  0  0
  6  5  2  0  0  0  0
  7  1  1  0  0  0  0
  8  2  1  0  0  0  0
 11  3  1  0  0  0  0
 11 12  1  0  0  0  0
 12 14  1  0  0  0  0
 13  6  1  0  0  0  0
 14 15  1  0  0  0  0
M  RAD  2  11   2  12   2
M  END
