Coordinates from ORCA-job Ph-N2-OH-B3LYPG-6-31G_dp-MTMO-d009-169-n800
 OpenBabel09051908283D

 15 14  0  0  0  0  0  0  0  0999 V2000
   -2.3624   -1.0575   -0.7102 C   0  0  0  0  0  0  0  0  0  0  0  0
   -1.1088   -0.4731   -0.5202 C   0  0  0  0  0  0  0  0  0  0  0  0
   -1.0093    0.7644    0.1249 C   0  0  0  0  0  0  0  0  0  0  0  0
   -2.1639    1.4130    0.5782 C   0  0  0  0  0  0  0  0  0  0  0  0
   -3.4086    0.8192    0.3822 C   0  0  0  0  0  0  0  0  0  0  0  0
   -3.5177   -0.4171   -0.2615 C   0  0  0  0  0  0  0  0  0  0  0  0
   -2.4303   -2.0190   -1.2106 H   0  0  0  0  0  0  0  0  0  0  0  0
   -0.2100   -0.9757   -0.8718 H   0  0  0  0  0  0  0  0  0  0  0  0
   -2.0643    2.3727    1.0742 H   0  0  0  0  0  0  0  0  0  0  0  0
   -4.3011    1.3274    0.7357 H   0  0  0  0  0  0  0  0  0  0  0  0
   13.4184   -0.8983   -4.2847 N   0  0  0  0  0  0  0  0  0  0  0  0
   12.3751   -0.8178   -3.9287 N   0  0  0  0  0  0  0  0  0  0  0  0
   -4.4910   -0.8736   -0.4114 H   0  0  0  0  0  0  0  0  0  0  0  0
    0.1878    1.3890    0.3410 O   0  0  0  0  0  0  0  0  0  0  0  0
    0.8976    0.8450   -0.0235 H   0  0  0  0  0  0  0  0  0  0  0  0
  1  2  2  0  0  0  0
  1  6  1  0  0  0  0
  2  3  1  0  0  0  0
  3 14  1  0  0  0  0
  3  4  2  0  0  0  0
  4  9  1  0  0  0  0
  5  4  1  0  0  0  0
  5 10  1  0  0  0  0
  6  5  2  0  0  0  0
  7  1  1  0  0  0  0
  8  2  1  0  0  0  0
 11 12  3  0  0  0  0
 13  6  1  0  0  0  0
 15 14  1  0  0  0  0
M  END
