Coordinates from ORCA-job Ph-N2-OH-B3LYPG-6-31G_dp-MTMO-d009-169-n800
 OpenBabel09051908283D

 15 14  0  0  0  0  0  0  0  0999 V2000
   -1.5821   -1.1196   -0.9383 C   0  0  0  0  0  0  0  0  0  0  0  0
   -0.3119   -0.5501   -0.8318 C   0  0  0  0  0  0  0  0  0  0  0  0
   -0.1541    0.6808   -0.1856 C   0  0  0  0  0  0  0  0  0  0  0  0
   -1.2670    1.3377    0.3519 C   0  0  0  0  0  0  0  0  0  0  0  0
   -2.5289    0.7586    0.2387 C   0  0  0  0  0  0  0  0  0  0  0  0
   -2.6963   -0.4710   -0.4053 C   0  0  0  0  0  0  0  0  0  0  0  0
   -1.6953   -2.0762   -1.4400 H   0  0  0  0  0  0  0  0  0  0  0  0
    0.5548   -1.0590   -1.2489 H   0  0  0  0  0  0  0  0  0  0  0  0
   -1.1227    2.2920    0.8470 H   0  0  0  0  0  0  0  0  0  0  0  0
   -3.3891    1.2733    0.6570 H   0  0  0  0  0  0  0  0  0  0  0  0
    7.9649   -0.4351   -2.6905 N   0  0  0  0  0  0  0  0  0  0  0  0
    6.9209   -0.3494   -2.3379 N   0  0  0  0  0  0  0  0  0  0  0  0
   -3.6826   -0.9164   -0.4899 H   0  0  0  0  0  0  0  0  0  0  0  0
    1.0620    1.2909   -0.0486 O   0  0  0  0  0  0  0  0  0  0  0  0
    1.7391    0.7419   -0.4644 H   0  0  0  0  0  0  0  0  0  0  0  0
  1  2  2  0  0  0  0
  1  6  1  0  0  0  0
  2  3  1  0  0  0  0
  3 14  1  0  0  0  0
  3  4  2  0  0  0  0
  4  9  1  0  0  0  0
  5  4  1  0  0  0  0
  5 10  1  0  0  0  0
  6  5  2  0  0  0  0
  7  1  1  0  0  0  0
  8  2  1  0  0  0  0
 11 12  3  0  0  0  0
 13  6  1  0  0  0  0
 15 14  1  0  0  0  0
M  END
