Coordinates from ORCA-job Ph-N2-OH-B3LYPG-6-31G_dp-MTMO-d009-169-n800
 OpenBabel09051908283D

 15 14  0  0  0  0  0  0  0  0999 V2000
   -1.0065   -1.3506   -0.7596 C   0  0  0  0  0  0  0  0  0  0  0  0
    0.2604   -1.0424   -0.2609 C   0  0  0  0  0  0  0  0  0  0  0  0
    0.5645    0.2761    0.0944 C   0  0  0  0  0  0  0  0  0  0  0  0
   -0.3979    1.2815   -0.0518 C   0  0  0  0  0  0  0  0  0  0  0  0
   -1.6584    0.9604   -0.5504 C   0  0  0  0  0  0  0  0  0  0  0  0
   -1.9718   -0.3543   -0.9075 C   0  0  0  0  0  0  0  0  0  0  0  0
   -1.2344   -2.3765   -1.0346 H   0  0  0  0  0  0  0  0  0  0  0  0
    1.0103   -1.8228   -0.1458 H   0  0  0  0  0  0  0  0  0  0  0  0
   -0.1410    2.2971    0.2311 H   0  0  0  0  0  0  0  0  0  0  0  0
   -2.4015    1.7451   -0.6621 H   0  0  0  0  0  0  0  0  0  0  0  0
    2.4132    1.1755   -2.7422 N   0  0  0  0  0  0  0  0  0  0  0  0
    3.1830    0.6936   -2.1124 N   0  0  0  0  0  0  0  0  0  0  0  0
   -2.9553   -0.5976   -1.2966 H   0  0  0  0  0  0  0  0  0  0  0  0
    1.7852    0.6438    0.5899 O   0  0  0  0  0  0  0  0  0  0  0  0
    2.3620   -0.1305    0.6221 H   0  0  0  0  0  0  0  0  0  0  0  0
  1  2  1  0  0  0  0
  2  8  1  0  0  0  0
  2  3  2  0  0  0  0
  3 14  1  0  0  0  0
  4  3  1  0  0  0  0
  4  9  1  0  0  0  0
  5  4  2  0  0  0  0
  6  1  2  0  0  0  0
  6  5  1  0  0  0  0
  7  1  1  0  0  0  0
 10  5  1  0  0  0  0
 11 12  3  0  0  0  0
 13  6  1  0  0  0  0
 14 15  1  0  0  0  0
M  END
