Coordinates from ORCA-job Ph-N2-OH-B3LYPG-6-31G_dp-MTMO-d009-169-n800
 OpenBabel09051908283D

 15 14  0  0  0  0  0  0  0  0999 V2000
   -1.4455   -1.1470   -0.9893 C   0  0  0  0  0  0  0  0  0  0  0  0
   -0.1431   -0.6449   -0.9635 C   0  0  0  0  0  0  0  0  0  0  0  0
    0.1173    0.5798   -0.3393 C   0  0  0  0  0  0  0  0  0  0  0  0
   -0.9264    1.2981    0.2561 C   0  0  0  0  0  0  0  0  0  0  0  0
   -2.2213    0.7861    0.2232 C   0  0  0  0  0  0  0  0  0  0  0  0
   -2.4908   -0.4372   -0.3978 C   0  0  0  0  0  0  0  0  0  0  0  0
   -1.6385   -2.0993   -1.4745 H   0  0  0  0  0  0  0  0  0  0  0  0
    0.6692   -1.2021   -1.4259 H   0  0  0  0  0  0  0  0  0  0  0  0
   -0.7026    2.2465    0.7329 H   0  0  0  0  0  0  0  0  0  0  0  0
   -3.0268    1.3485    0.6868 H   0  0  0  0  0  0  0  0  0  0  0  0
    6.4128   -0.1087   -2.0770 N   0  0  0  0  0  0  0  0  0  0  0  0
    5.3445   -0.0524   -1.7990 N   0  0  0  0  0  0  0  0  0  0  0  0
   -3.5022   -0.8310   -0.4192 H   0  0  0  0  0  0  0  0  0  0  0  0
    1.3697    1.1254   -0.2791 O   0  0  0  0  0  0  0  0  0  0  0  0
    1.9955    0.5366   -0.7209 H   0  0  0  0  0  0  0  0  0  0  0  0
  1  2  2  0  0  0  0
  1  6  1  0  0  0  0
  2  3  1  0  0  0  0
  3 14  1  0  0  0  0
  3  4  2  0  0  0  0
  4  9  1  0  0  0  0
  5  4  1  0  0  0  0
  5 10  1  0  0  0  0
  6  5  2  0  0  0  0
  7  1  1  0  0  0  0
  8  2  1  0  0  0  0
 11 12  3  0  0  0  0
 13  6  1  0  0  0  0
 15 14  1  0  0  0  0
M  END
