Coordinates from ORCA-job Ph-N2-OH-B3LYPG-6-31G_dp-MTMO-d009-169-n800
 OpenBabel09051908283D

 15 14  0  0  0  0  0  0  0  0999 V2000
   -1.4592   -1.1467   -0.9863 C   0  0  0  0  0  0  0  0  0  0  0  0
   -0.1567   -0.6449   -0.9614 C   0  0  0  0  0  0  0  0  0  0  0  0
    0.1041    0.5798   -0.3373 C   0  0  0  0  0  0  0  0  0  0  0  0
   -0.9389    1.2984    0.2588 C   0  0  0  0  0  0  0  0  0  0  0  0
   -2.2340    0.7865    0.2268 C   0  0  0  0  0  0  0  0  0  0  0  0
   -2.5040   -0.4367   -0.3941 C   0  0  0  0  0  0  0  0  0  0  0  0
   -1.6527   -2.0990   -1.4714 H   0  0  0  0  0  0  0  0  0  0  0  0
    0.6553   -1.2021   -1.4243 H   0  0  0  0  0  0  0  0  0  0  0  0
   -0.7147    2.2467    0.7355 H   0  0  0  0  0  0  0  0  0  0  0  0
   -3.0391    1.3489    0.6909 H   0  0  0  0  0  0  0  0  0  0  0  0
    6.4990   -0.1082   -2.0932 N   0  0  0  0  0  0  0  0  0  0  0  0
    5.4298   -0.0560   -1.8179 N   0  0  0  0  0  0  0  0  0  0  0  0
   -3.5154   -0.8304   -0.4149 H   0  0  0  0  0  0  0  0  0  0  0  0
    1.3564    1.1254   -0.2778 O   0  0  0  0  0  0  0  0  0  0  0  0
    1.9821    0.5368   -0.7198 H   0  0  0  0  0  0  0  0  0  0  0  0
  1  2  2  0  0  0  0
  1  6  1  0  0  0  0
  2  3  1  0  0  0  0
  3 14  1  0  0  0  0
  3  4  2  0  0  0  0
  4  9  1  0  0  0  0
  5  4  1  0  0  0  0
  5 10  1  0  0  0  0
  6  5  2  0  0  0  0
  7  1  1  0  0  0  0
  8  2  1  0  0  0  0
 11 12  3  0  0  0  0
 13  6  1  0  0  0  0
 15 14  1  0  0  0  0
M  END
