Coordinates from ORCA-job Ph-N2-OH-B3LYPG-6-31G_dp-MTMO-d009-169-n800
 OpenBabel09051908283D

 15 14  0  0  0  0  0  0  0  0999 V2000
   -1.4810   -1.1333   -0.9688 C   0  0  0  0  0  0  0  0  0  0  0  0
   -0.1991   -0.5859   -0.8897 C   0  0  0  0  0  0  0  0  0  0  0  0
   -0.0069    0.6441   -0.2514 C   0  0  0  0  0  0  0  0  0  0  0  0
   -1.0974    1.3224    0.3054 C   0  0  0  0  0  0  0  0  0  0  0  0
   -2.3712    0.7654    0.2194 C   0  0  0  0  0  0  0  0  0  0  0  0
   -2.5729   -0.4633   -0.4163 C   0  0  0  0  0  0  0  0  0  0  0  0
   -1.6210   -2.0894   -1.4646 H   0  0  0  0  0  0  0  0  0  0  0  0
    0.6501   -1.1115   -1.3218 H   0  0  0  0  0  0  0  0  0  0  0  0
   -0.9264    2.2758    0.7940 H   0  0  0  0  0  0  0  0  0  0  0  0
   -3.2137    1.2967    0.6528 H   0  0  0  0  0  0  0  0  0  0  0  0
    7.0811   -0.3084   -2.4023 N   0  0  0  0  0  0  0  0  0  0  0  0
    6.0340   -0.2255   -2.0585 N   0  0  0  0  0  0  0  0  0  0  0  0
   -3.5683   -0.8918   -0.4796 H   0  0  0  0  0  0  0  0  0  0  0  0
    1.2221    1.2332   -0.1404 O   0  0  0  0  0  0  0  0  0  0  0  0
    1.8823    0.6699   -0.5646 H   0  0  0  0  0  0  0  0  0  0  0  0
  1  2  2  0  0  0  0
  1  6  1  0  0  0  0
  2  3  1  0  0  0  0
  3 14  1  0  0  0  0
  3  4  2  0  0  0  0
  4  9  1  0  0  0  0
  5  4  1  0  0  0  0
  5 10  1  0  0  0  0
  6  5  2  0  0  0  0
  7  1  1  0  0  0  0
  8  2  1  0  0  0  0
 11 12  3  0  0  0  0
 13  6  1  0  0  0  0
 15 14  1  0  0  0  0
M  END
