Coordinates from ORCA-job Ph-N2-OH-B3LYPG-6-31G_dp-MTMO-d009-169-n800
 OpenBabel09051908283D

 15 14  0  0  0  0  0  0  0  0999 V2000
   -0.9963   -1.3508   -0.7616 C   0  0  0  0  0  0  0  0  0  0  0  0
    0.2657   -1.0566   -0.2427 C   0  0  0  0  0  0  0  0  0  0  0  0
    0.5822    0.2602    0.1083 C   0  0  0  0  0  0  0  0  0  0  0  0
   -0.3637    1.2777   -0.0616 C   0  0  0  0  0  0  0  0  0  0  0  0
   -1.6194    0.9704   -0.5804 C   0  0  0  0  0  0  0  0  0  0  0  0
   -1.9448   -0.3424   -0.9336 C   0  0  0  0  0  0  0  0  0  0  0  0
   -1.2338   -2.3755   -1.0331 H   0  0  0  0  0  0  0  0  0  0  0  0
    1.0025   -1.8465   -0.1085 H   0  0  0  0  0  0  0  0  0  0  0  0
   -0.0981    2.2915    0.2194 H   0  0  0  0  0  0  0  0  0  0  0  0
   -2.3494    1.7644   -0.7106 H   0  0  0  0  0  0  0  0  0  0  0  0
    2.2005    1.0814   -2.6994 N   0  0  0  0  0  0  0  0  0  0  0  0
    3.1326    0.8555   -2.1499 N   0  0  0  0  0  0  0  0  0  0  0  0
   -2.9245   -0.5750   -1.3383 H   0  0  0  0  0  0  0  0  0  0  0  0
    1.7986    0.6142    0.6233 O   0  0  0  0  0  0  0  0  0  0  0  0
    2.3597   -0.1700    0.6822 H   0  0  0  0  0  0  0  0  0  0  0  0
  1  2  1  0  0  0  0
  2  8  1  0  0  0  0
  2  3  2  0  0  0  0
  3 14  1  0  0  0  0
  4  3  1  0  0  0  0
  4  9  1  0  0  0  0
  5  4  2  0  0  0  0
  6  1  2  0  0  0  0
  6  5  1  0  0  0  0
  7  1  1  0  0  0  0
 10  5  1  0  0  0  0
 11 12  3  0  0  0  0
 13  6  1  0  0  0  0
 14 15  1  0  0  0  0
M  END
