Coordinates from ORCA-job Ph-N2-OH-B3LYPG-6-31G_dp-MTMO-d009-169-n800
 OpenBabel09051908283D

 15 14  0  0  0  0  0  0  0  0999 V2000
   -1.2432   -1.1420   -1.0298 C   0  0  0  0  0  0  0  0  0  0  0  0
    0.0468   -0.6115   -0.9730 C   0  0  0  0  0  0  0  0  0  0  0  0
    0.2668    0.6159   -0.3373 C   0  0  0  0  0  0  0  0  0  0  0  0
   -0.8061    1.3069    0.2386 C   0  0  0  0  0  0  0  0  0  0  0  0
   -2.0883    0.7665    0.1747 C   0  0  0  0  0  0  0  0  0  0  0  0
   -2.3170   -0.4591   -0.4581 C   0  0  0  0  0  0  0  0  0  0  0  0
   -1.4041   -2.0959   -1.5237 H   0  0  0  0  0  0  0  0  0  0  0  0
    0.8813   -1.1477   -1.4198 H   0  0  0  0  0  0  0  0  0  0  0  0
   -0.6144    2.2576    0.7248 H   0  0  0  0  0  0  0  0  0  0  0  0
   -2.9161    1.3083    0.6233 H   0  0  0  0  0  0  0  0  0  0  0  0
    5.3498   -0.2466   -1.9624 N   0  0  0  0  0  0  0  0  0  0  0  0
    4.3141   -0.0898   -1.6109 N   0  0  0  0  0  0  0  0  0  0  0  0
   -3.3187   -0.8749   -0.5041 H   0  0  0  0  0  0  0  0  0  0  0  0
    1.5040    1.1884   -0.2474 O   0  0  0  0  0  0  0  0  0  0  0  0
    2.1569    0.6225   -0.6813 H   0  0  0  0  0  0  0  0  0  0  0  0
  1  2  2  0  0  0  0
  1  6  1  0  0  0  0
  2  3  1  0  0  0  0
  3 14  1  0  0  0  0
  3  4  2  0  0  0  0
  4  9  1  0  0  0  0
  5  4  1  0  0  0  0
  5 10  1  0  0  0  0
  6  5  2  0  0  0  0
  7  1  1  0  0  0  0
  8  2  1  0  0  0  0
 11 12  3  0  0  0  0
 13  6  1  0  0  0  0
 15 14  1  0  0  0  0
M  END
