Coordinates from ORCA-job Ph-N2-OH-B3LYPG-6-31G_dp-MTMO-d009-169-n800
 OpenBabel09051908283D

 15 14  0  0  0  0  0  0  0  0999 V2000
   -0.9909   -1.2296   -0.9168 C   0  0  0  0  0  0  0  0  0  0  0  0
    0.2785   -0.8132   -0.5114 C   0  0  0  0  0  0  0  0  0  0  0  0
    0.4519    0.4692    0.0221 C   0  0  0  0  0  0  0  0  0  0  0  0
   -0.6471    1.3271    0.1519 C   0  0  0  0  0  0  0  0  0  0  0  0
   -1.9085    0.8981   -0.2542 C   0  0  0  0  0  0  0  0  0  0  0  0
   -2.0902   -0.3797   -0.7917 C   0  0  0  0  0  0  0  0  0  0  0  0
   -1.1158   -2.2260   -1.3309 H   0  0  0  0  0  0  0  0  0  0  0  0
    1.1317   -1.4808   -0.6077 H   0  0  0  0  0  0  0  0  0  0  0  0
   -0.4911    2.3164    0.5691 H   0  0  0  0  0  0  0  0  0  0  0  0
   -2.7568    1.5690   -0.1506 H   0  0  0  0  0  0  0  0  0  0  0  0
    3.5340    0.3824   -2.8944 N   0  0  0  0  0  0  0  0  0  0  0  0
    3.4790    0.0512   -1.8420 N   0  0  0  0  0  0  0  0  0  0  0  0
   -3.0753   -0.7069   -1.1087 H   0  0  0  0  0  0  0  0  0  0  0  0
    1.6661    0.9391    0.4375 O   0  0  0  0  0  0  0  0  0  0  0  0
    2.3464    0.2821    0.2413 H   0  0  0  0  0  0  0  0  0  0  0  0
  1  6  2  0  0  0  0
  1  2  1  0  0  0  0
  2  3  2  0  0  0  0
  3  4  1  0  0  0  0
  3 14  1  0  0  0  0
  4  9  1  0  0  0  0
  5 10  1  0  0  0  0
  5  4  2  0  0  0  0
  6  5  1  0  0  0  0
  7  1  1  0  0  0  0
  8  2  1  0  0  0  0
 11 12  3  0  0  0  0
 13  6  1  0  0  0  0
 15 14  1  0  0  0  0
M  END
