Coordinates from ORCA-job Ph-N2-OH-B3LYPG-6-31G_dp-MTMO-d009-169-n800
 OpenBabel09051908283D

 15 14  0  0  0  0  0  0  0  0999 V2000
   -1.8840   -1.0906   -0.8483 C   0  0  0  0  0  0  0  0  0  0  0  0
   -0.6293   -0.4990   -0.6912 C   0  0  0  0  0  0  0  0  0  0  0  0
   -0.5188    0.7340   -0.0392 C   0  0  0  0  0  0  0  0  0  0  0  0
   -1.6635    1.3710    0.4538 C   0  0  0  0  0  0  0  0  0  0  0  0
   -2.9096    0.7699    0.2902 C   0  0  0  0  0  0  0  0  0  0  0  0
   -3.0296   -0.4618   -0.3600 C   0  0  0  0  0  0  0  0  0  0  0  0
   -1.9605   -2.0486   -1.3542 H   0  0  0  0  0  0  0  0  0  0  0  0
    0.2622   -0.9922   -1.0736 H   0  0  0  0  0  0  0  0  0  0  0  0
   -1.5557    2.3273    0.9543 H   0  0  0  0  0  0  0  0  0  0  0  0
   -3.7946    1.2691    0.6742 H   0  0  0  0  0  0  0  0  0  0  0  0
   10.2392   -0.6659   -3.3853 N   0  0  0  0  0  0  0  0  0  0  0  0
    9.1977   -0.5852   -3.0241 N   0  0  0  0  0  0  0  0  0  0  0  0
   -4.0039   -0.9240   -0.4843 H   0  0  0  0  0  0  0  0  0  0  0  0
    0.6800    1.3651    0.1460 O   0  0  0  0  0  0  0  0  0  0  0  0
    1.3820    0.8291   -0.2447 H   0  0  0  0  0  0  0  0  0  0  0  0
  1  2  2  0  0  0  0
  1  6  1  0  0  0  0
  2  3  1  0  0  0  0
  3 14  1  0  0  0  0
  3  4  2  0  0  0  0
  4  9  1  0  0  0  0
  5  4  1  0  0  0  0
  5 10  1  0  0  0  0
  6  5  2  0  0  0  0
  7  1  1  0  0  0  0
  8  2  1  0  0  0  0
 11 12  3  0  0  0  0
 13  6  1  0  0  0  0
 15 14  1  0  0  0  0
M  END
