Coordinates from ORCA-job Ph-N2-OH-B3LYPG-6-31G_dp-MTMO-d009-169-n800
 OpenBabel09051908283D

 15 14  0  0  0  0  0  0  0  0999 V2000
   -1.5558   -1.1230   -0.9463 C   0  0  0  0  0  0  0  0  0  0  0  0
   -0.2828   -0.5586   -0.8468 C   0  0  0  0  0  0  0  0  0  0  0  0
   -0.1167    0.6721   -0.2024 C   0  0  0  0  0  0  0  0  0  0  0  0
   -1.2242    1.3339    0.3404 C   0  0  0  0  0  0  0  0  0  0  0  0
   -2.4890    0.7598    0.2341 C   0  0  0  0  0  0  0  0  0  0  0  0
   -2.6646   -0.4696   -0.4080 C   0  0  0  0  0  0  0  0  0  0  0  0
   -1.6755   -2.0795   -1.4467 H   0  0  0  0  0  0  0  0  0  0  0  0
    0.5797   -1.0712   -1.2679 H   0  0  0  0  0  0  0  0  0  0  0  0
   -1.0735    2.2880    0.8340 H   0  0  0  0  0  0  0  0  0  0  0  0
   -3.3449    1.2783    0.6565 H   0  0  0  0  0  0  0  0  0  0  0  0
    7.7397   -0.4047   -2.6168 N   0  0  0  0  0  0  0  0  0  0  0  0
    6.6947   -0.3189   -2.2670 N   0  0  0  0  0  0  0  0  0  0  0  0
   -3.6531   -0.9111   -0.4872 H   0  0  0  0  0  0  0  0  0  0  0  0
    1.1024    1.2775   -0.0720 O   0  0  0  0  0  0  0  0  0  0  0  0
    1.7755    0.7253   -0.4903 H   0  0  0  0  0  0  0  0  0  0  0  0
  1  2  2  0  0  0  0
  1  6  1  0  0  0  0
  2  3  1  0  0  0  0
  3 14  1  0  0  0  0
  3  4  2  0  0  0  0
  4  9  1  0  0  0  0
  5  4  1  0  0  0  0
  5 10  1  0  0  0  0
  6  5  2  0  0  0  0
  7  1  1  0  0  0  0
  8  2  1  0  0  0  0
 11 12  3  0  0  0  0
 13  6  1  0  0  0  0
 15 14  1  0  0  0  0
M  END
