Coordinates from ORCA-job Ph-N2-OH-B3LYPG-6-31G_dp-MTMO-d009-169-n800
 OpenBabel09051908283D

 15 14  0  0  0  0  0  0  0  0999 V2000
   -1.4263   -1.1480   -0.9936 C   0  0  0  0  0  0  0  0  0  0  0  0
   -0.1232   -0.6479   -0.9674 C   0  0  0  0  0  0  0  0  0  0  0  0
    0.1387    0.5769   -0.3436 C   0  0  0  0  0  0  0  0  0  0  0  0
   -0.9043    1.2970    0.2509 C   0  0  0  0  0  0  0  0  0  0  0  0
   -2.2000    0.7869    0.2175 C   0  0  0  0  0  0  0  0  0  0  0  0
   -2.4708   -0.4364   -0.4030 C   0  0  0  0  0  0  0  0  0  0  0  0
   -1.6204   -2.1003   -1.4785 H   0  0  0  0  0  0  0  0  0  0  0  0
    0.6886   -1.2063   -1.4290 H   0  0  0  0  0  0  0  0  0  0  0  0
   -0.6794    2.2453    0.7273 H   0  0  0  0  0  0  0  0  0  0  0  0
   -3.0049    1.3506    0.6804 H   0  0  0  0  0  0  0  0  0  0  0  0
    6.2771   -0.1014   -2.0486 N   0  0  0  0  0  0  0  0  0  0  0  0
    5.2099   -0.0416   -1.7672 N   0  0  0  0  0  0  0  0  0  0  0  0
   -3.4828   -0.8287   -0.4249 H   0  0  0  0  0  0  0  0  0  0  0  0
    1.3917    1.1208   -0.2829 O   0  0  0  0  0  0  0  0  0  0  0  0
    2.0179    0.5316   -0.7239 H   0  0  0  0  0  0  0  0  0  0  0  0
  1  2  2  0  0  0  0
  1  6  1  0  0  0  0
  2  3  1  0  0  0  0
  3 14  1  0  0  0  0
  3  4  2  0  0  0  0
  4  9  1  0  0  0  0
  5  4  1  0  0  0  0
  5 10  1  0  0  0  0
  6  5  2  0  0  0  0
  7  1  1  0  0  0  0
  8  2  1  0  0  0  0
 11 12  3  0  0  0  0
 13  6  1  0  0  0  0
 15 14  1  0  0  0  0
M  END
