Coordinates from ORCA-job Ph-N2-OH-B3LYPG-6-31G_dp-MTMO-d009-169-n800
 OpenBabel09051908283D

 15 14  0  0  0  0  0  0  0  0999 V2000
   -1.7787   -1.0991   -0.8792 C   0  0  0  0  0  0  0  0  0  0  0  0
   -0.5214   -0.5100   -0.7345 C   0  0  0  0  0  0  0  0  0  0  0  0
   -0.4020    0.7222   -0.0825 C   0  0  0  0  0  0  0  0  0  0  0  0
   -1.5404    1.3607    0.4229 C   0  0  0  0  0  0  0  0  0  0  0  0
   -2.7891    0.7621    0.2716 C   0  0  0  0  0  0  0  0  0  0  0  0
   -2.9181   -0.4688   -0.3785 C   0  0  0  0  0  0  0  0  0  0  0  0
   -1.8621   -2.0565   -1.3852 H   0  0  0  0  0  0  0  0  0  0  0  0
    0.3652   -1.0044   -1.1265 H   0  0  0  0  0  0  0  0  0  0  0  0
   -1.4257    2.3164    0.9231 H   0  0  0  0  0  0  0  0  0  0  0  0
   -3.6692    1.2626    0.6651 H   0  0  0  0  0  0  0  0  0  0  0  0
    9.4961   -0.6025   -3.1674 N   0  0  0  0  0  0  0  0  0  0  0  0
    8.4548   -0.5203   -2.8059 N   0  0  0  0  0  0  0  0  0  0  0  0
   -3.8944   -0.9292   -0.4931 H   0  0  0  0  0  0  0  0  0  0  0  0
    0.7998    1.3510    0.0909 O   0  0  0  0  0  0  0  0  0  0  0  0
    1.4969    0.8141   -0.3075 H   0  0  0  0  0  0  0  0  0  0  0  0
  1  2  2  0  0  0  0
  1  6  1  0  0  0  0
  2  3  1  0  0  0  0
  3 14  1  0  0  0  0
  3  4  2  0  0  0  0
  4  9  1  0  0  0  0
  5  4  1  0  0  0  0
  5 10  1  0  0  0  0
  6  5  2  0  0  0  0
  7  1  1  0  0  0  0
  8  2  1  0  0  0  0
 11 12  3  0  0  0  0
 13  6  1  0  0  0  0
 15 14  1  0  0  0  0
M  END
