Coordinates from ORCA-job Ph-N2-OH-B3LYPG-6-31G_dp-MTMO-d009-169-n800
 OpenBabel09051908283D

 15 15  0  0  0  0  0  0  0  0999 V2000
   -1.3109   -1.4244   -1.1718 C   0  0  0  0  0  0  0  0  0  0  0  0
    0.0424   -1.2202   -1.3580 C   0  0  0  0  0  0  0  0  0  0  0  0
    0.7476    0.0073   -0.9387 C   0  0  0  0  0  0  0  0  0  0  0  0
   -0.1813    1.0261   -0.3965 C   0  0  0  0  0  0  0  0  0  0  0  0
   -1.5469    0.8320   -0.3319 C   0  0  0  0  0  0  0  0  0  0  0  0
   -2.1243   -0.3962   -0.6810 C   0  0  0  0  0  0  0  0  0  0  0  0
   -1.7513   -2.3793   -1.4470 H   0  0  0  0  0  0  0  0  0  0  0  0
    0.6793   -2.0144   -1.7409 H   0  0  0  0  0  0  0  0  0  0  0  0
    0.2470    1.9878   -0.1354 H   0  0  0  0  0  0  0  0  0  0  0  0
   -2.1800    1.6394    0.0277 H   0  0  0  0  0  0  0  0  0  0  0  0
    1.7393    0.0985   -1.0310 N   0  0  0  0  0  0  0  0  0  0  0  0
    2.7762    0.6659   -0.6314 N   0  0  0  0  0  0  0  0  0  0  0  0
   -3.1951   -0.5459   -0.5792 H   0  0  0  0  0  0  0  0  0  0  0  0
    2.4875    1.4297    0.5844 O   0  0  0  0  0  0  0  0  0  0  0  0
    3.3823    1.6922    0.8444 H   0  0  0  0  0  0  0  0  0  0  0  0
  1  6  1  0  0  0  0
  2  1  2  0  0  0  0
  2  3  1  0  0  0  0
  3  4  2  0  0  0  0
  4  5  1  0  0  0  0
  4  9  1  0  0  0  0
  5 10  1  0  0  0  0
  6 13  1  0  0  0  0
  6  5  2  0  0  0  0
  7  1  1  0  0  0  0
  8  2  1  0  0  0  0
 11  3  1  0  0  0  0
 11 12  1  0  0  0  0
 12 14  1  0  0  0  0
 14 15  1  0  0  0  0
M  RAD  2  11   2  12   2
M  END
