Coordinates from ORCA-job Ph-N2-OH-B3LYPG-6-31G_dp-MTMO-d009-169-n800
 OpenBabel09051908283D

 15 14  0  0  0  0  0  0  0  0999 V2000
   -2.0748   -1.0774   -0.7924 C   0  0  0  0  0  0  0  0  0  0  0  0
   -0.8209   -0.4887   -0.6190 C   0  0  0  0  0  0  0  0  0  0  0  0
   -0.7167    0.7465    0.0299 C   0  0  0  0  0  0  0  0  0  0  0  0
   -1.8667    1.3885    0.5035 C   0  0  0  0  0  0  0  0  0  0  0  0
   -3.1119    0.7903    0.3238 C   0  0  0  0  0  0  0  0  0  0  0  0
   -3.2258   -0.4436   -0.3235 C   0  0  0  0  0  0  0  0  0  0  0  0
   -2.1465   -2.0370   -1.2959 H   0  0  0  0  0  0  0  0  0  0  0  0
    0.0747   -0.9858   -0.9863 H   0  0  0  0  0  0  0  0  0  0  0  0
   -1.7636    2.3465    1.0020 H   0  0  0  0  0  0  0  0  0  0  0  0
   -4.0010    1.2934    0.6929 H   0  0  0  0  0  0  0  0  0  0  0  0
   11.5190   -0.7591   -3.7518 N   0  0  0  0  0  0  0  0  0  0  0  0
   10.4768   -0.6820   -3.3920 N   0  0  0  0  0  0  0  0  0  0  0  0
   -4.1993   -0.9035   -0.4605 H   0  0  0  0  0  0  0  0  0  0  0  0
    0.4811    1.3749    0.2304 O   0  0  0  0  0  0  0  0  0  0  0  0
    1.1873    0.8354   -0.1476 H   0  0  0  0  0  0  0  0  0  0  0  0
  1  2  2  0  0  0  0
  1  6  1  0  0  0  0
  2  3  1  0  0  0  0
  3 14  1  0  0  0  0
  3  4  2  0  0  0  0
  4  9  1  0  0  0  0
  5  4  1  0  0  0  0
  5 10  1  0  0  0  0
  6  5  2  0  0  0  0
  7  1  1  0  0  0  0
  8  2  1  0  0  0  0
 11 12  3  0  0  0  0
 13  6  1  0  0  0  0
 15 14  1  0  0  0  0
M  END
