Coordinates from ORCA-job Ph-N2-OH-B3LYPG-6-31G_dp-MTMO-d009-169-n800
 OpenBabel09051908283D

 15 14  0  0  0  0  0  0  0  0999 V2000
   -0.9860   -1.3471   -0.7693 C   0  0  0  0  0  0  0  0  0  0  0  0
    0.2752   -1.0529   -0.2483 C   0  0  0  0  0  0  0  0  0  0  0  0
    0.5905    0.2635    0.1047 C   0  0  0  0  0  0  0  0  0  0  0  0
   -0.3551    1.2810   -0.0658 C   0  0  0  0  0  0  0  0  0  0  0  0
   -1.6099    0.9739   -0.5871 C   0  0  0  0  0  0  0  0  0  0  0  0
   -1.9345   -0.3387   -0.9418 C   0  0  0  0  0  0  0  0  0  0  0  0
   -1.2227   -2.3716   -1.0422 H   0  0  0  0  0  0  0  0  0  0  0  0
    1.0122   -1.8426   -0.1143 H   0  0  0  0  0  0  0  0  0  0  0  0
   -0.0901    2.2945    0.2167 H   0  0  0  0  0  0  0  0  0  0  0  0
   -2.3398    1.7679   -0.7177 H   0  0  0  0  0  0  0  0  0  0  0  0
    2.1253    1.0505   -2.6416 N   0  0  0  0  0  0  0  0  0  0  0  0
    3.0905    0.8430   -2.1443 N   0  0  0  0  0  0  0  0  0  0  0  0
   -2.9136   -0.5712   -1.3482 H   0  0  0  0  0  0  0  0  0  0  0  0
    1.8055    0.6167    0.6238 O   0  0  0  0  0  0  0  0  0  0  0  0
    2.3643   -0.1686    0.6887 H   0  0  0  0  0  0  0  0  0  0  0  0
  1  2  1  0  0  0  0
  2  8  1  0  0  0  0
  2  3  2  0  0  0  0
  3 14  1  0  0  0  0
  4  3  1  0  0  0  0
  4  9  1  0  0  0  0
  5  4  2  0  0  0  0
  6  1  2  0  0  0  0
  6  5  1  0  0  0  0
  7  1  1  0  0  0  0
 10  5  1  0  0  0  0
 11 12  3  0  0  0  0
 13  6  1  0  0  0  0
 14 15  1  0  0  0  0
M  END
