22
Coordinates from ORCA-job p-NO2-Ph-N2-OOCCH3-B3LYPG-aug-cc-pVDZ-scan-d09-49-n400
  C   14.32575538778227      8.46478224558906     -2.75573329855387
  C   13.39761309369983      7.53619042864335     -2.29093278371170
  C   13.66946930634354      6.16952039908836     -2.40424769233675
  C   14.86469410480688      5.70948654053833     -2.96804098293906
  C   15.79388671667699      6.63702463248257     -3.43491016556501
  C   15.51241348611481      8.00032352227396     -3.32545809448799
  H   14.14367606177504      9.53367280080063     -2.68165093756927
  H   12.46480971102237      7.85832736370874     -1.83154120898559
  H   15.06652509112338      4.64522827388134     -3.04518183249764
  H   16.73268114851658      6.31597402349652     -3.87873241924366
  N   16.49848436239373      8.97671364901682     -3.81882560372737
  O   16.22666418365047     10.17061653366861     -3.70845043855900
  O   17.53718040298013      8.54268769091477     -4.31244509468934
  N   16.00501709559197      6.37134291381015      1.89859831585054
  N   15.90114249646452      5.29355183515612      2.11556469594839
  C   12.31911772702551      4.17130170246497     -2.48514359974958
  O   12.69219177440331      3.86018556218642     -3.58669129024322
  O   12.73573815624360      5.31512991629415     -1.83004646084245
  C   11.34585013098130      3.41747954443825     -1.62216385871065
  H   11.82162574793593      3.15244583974433     -0.66859994593132
  H   10.48102584729156      4.05387484941391     -1.39241624608182
  H   11.02163796717607      2.51543973238883     -2.14765105737386
