22
Coordinates from ORCA-job p-NO2-Ph-N2-OOCCH3-B3LYPG-aug-cc-pVDZ-scan-d09-49-n400
  C   14.84367008435794      8.44781400960175     -2.90652463214017
  C   13.98103798373963      7.96433740451033     -1.91126801074600
  C   14.44246644759770      6.87917058827401     -1.20610726288194
  C   15.64207515774417      6.22282826341880     -1.33998632026373
  C   16.49258219914638      6.71901275356146     -2.33941534579582
  C   16.07520286107126      7.81574918468308     -3.09832391568960
  H   14.57018642769785      9.30086599987219     -3.52344576843134
  H   13.01382169335812      8.42489801453491     -1.72353997806230
  H   15.92444757275444      5.37319454763422     -0.72252628025875
  H   17.46376115625707      6.26709315342238     -2.52826442466667
  N   16.97780891938170      8.33185292935986     -4.14938869126611
  O   16.59445172857713      9.29595989826756     -4.80562778899125
  O   18.05533850834510      7.76408318149022     -4.30328071794990
  N   13.16857139876335      6.23198553714429      0.52334345486013
  N   12.38159484404934      5.40125880946896      0.28753747519607
  C   11.47791375079298      3.93991286617140     -1.51070851078982
  O   10.71243856094961      3.46627837225281     -0.70870154260892
  O   12.39804746803444      4.91276808735013     -1.24105600095930
  C   11.56754746578645      3.55549150724987     -2.97460174842282
  H   11.35606625986711      4.42781214351593     -3.60698494770575
  H   12.57991343920019      3.20496421256312     -3.21405962860835
  H   10.83825607252814      2.76396853565281     -3.17176941381772
