22
Coordinates from ORCA-job p-NO2-Ph-N2-OOCCH3-B3LYPG-aug-cc-pVDZ-scan-d09-49-n400
  C   15.01175494952773      8.72527143333414     -2.67521690159479
  C   14.06633520412746      8.30196614296621     -1.74357134639179
  C   14.14420177694621      7.00647910091977     -1.21699670145534
  C   15.19308092780125      6.14453125814846     -1.56909571792576
  C   16.15489531314877      6.57507404538869     -2.47857320103732
  C   16.04379815019928      7.85466716056777     -3.02754516298109
  H   14.96773200977484      9.71772015673336     -3.11617877591847
  H   13.26560681787376      8.96611907275313     -1.42268170432958
  H   15.25557514522969      5.15166576576591     -1.12977995070050
  H   16.98228028409789      5.93377718573349     -2.77145461712497
  N   17.05637511935717      8.30362251278707     -4.00232311967753
  O   16.93678506811800      9.43333259991500     -4.46952809384987
  O   17.95798824806081      7.52019544529441     -4.28967940869250
  N   13.20382520014024      6.66207089780403     -0.19436497926529
  N   12.44170009624644      5.71588670567015     -0.20254139763686
  C   11.72618595979704      3.80688387347198     -1.45912182143666
  O   11.21898328396093      3.35654813686089     -0.46796882829732
  O   12.50040924607964      4.95702590841442     -1.48746882063817
  C   11.62565711342526      3.24237725785495     -2.85403314626528
  H   11.09145260383684      3.95025169391296     -3.50238235896841
  H   12.62652328318085      3.09397068151409     -3.28014794153220
  H   11.08605419906990      2.29186296418918     -2.81404600428037
