Coordinates from ORCA-job Ph-N2-HSO4-B3LYPG-6-31G_dp-MTMO-d009-169-n800
 OpenBabel09051908053D

 19 18  0  0  0  0  0  0  0  0999 V2000
   -1.2055    0.9766    0.4741 C   0  0  0  0  0  0  0  0  0  0  0  0
    0.0617    0.4128    0.3199 C   0  0  0  0  0  0  0  0  0  0  0  0
    0.6396   -0.2389    1.4052 C   0  0  0  0  0  0  0  0  0  0  0  0
   -0.0038   -0.3412    2.6352 C   0  0  0  0  0  0  0  0  0  0  0  0
   -1.2688    0.2299    2.7758 C   0  0  0  0  0  0  0  0  0  0  0  0
   -1.8702    0.8863    1.6990 C   0  0  0  0  0  0  0  0  0  0  0  0
   -1.6716    1.4846   -0.3646 H   0  0  0  0  0  0  0  0  0  0  0  0
    0.5974    0.4676   -0.6214 H   0  0  0  0  0  0  0  0  0  0  0  0
   12.5232    1.6585   -6.7855 N   0  0  0  0  0  0  0  0  0  0  0  0
   13.5706    1.7326   -7.1305 N   0  0  0  0  0  0  0  0  0  0  0  0
   -2.8561    1.3251    1.8140 H   0  0  0  0  0  0  0  0  0  0  0  0
   -1.7848    0.1589    3.7284 H   0  0  0  0  0  0  0  0  0  0  0  0
    0.4835   -0.8536    3.4565 H   0  0  0  0  0  0  0  0  0  0  0  0
    3.2482   -0.1271    1.7088 S   0  0  0  0  0  0  0  0  0  0  0  0
    4.2917   -1.1144    1.5226 O   0  0  0  0  0  0  0  0  0  0  0  0
    1.8802   -0.8849    1.2181 O   0  0  0  0  0  0  0  0  0  0  0  0
    3.0122    0.5763    2.9485 O   0  0  0  0  0  0  0  0  0  0  0  0
    3.4132    1.0208    0.5641 O   0  0  0  0  0  0  0  0  0  0  0  0
    3.9010    0.6217   -0.1766 H   0  0  0  0  0  0  0  0  0  0  0  0
  1  6  1  0  0  0  0
  2  1  2  0  0  0  0
  2  3  1  0  0  0  0
  3  4  2  0  0  0  0
  4  5  1  0  0  0  0
  4 13  1  0  0  0  0
  5 12  1  0  0  0  0
  6 11  1  0  0  0  0
  6  5  2  0  0  0  0
  7  1  1  0  0  0  0
  8  2  1  0  0  0  0
 10  9  3  0  0  0  0
 14 17  2  0  0  0  0
 15 14  2  0  0  0  0
 16  3  1  0  0  0  0
 16 14  1  0  0  0  0
 18 14  1  0  0  0  0
 19 18  1  0  0  0  0
M  END
