Coordinates from ORCA-job Ph-N2-HSO4-B3LYPG-6-31G_dp-MTMO-d009-169-n800
 OpenBabel09051908053D

 19 18  0  0  0  0  0  0  0  0999 V2000
   -0.9327    1.0054    0.2979 C   0  0  0  0  0  0  0  0  0  0  0  0
    0.3392    0.4578    0.1245 C   0  0  0  0  0  0  0  0  0  0  0  0
    0.9355   -0.1992    1.1966 C   0  0  0  0  0  0  0  0  0  0  0  0
    0.3061   -0.3226    2.4318 C   0  0  0  0  0  0  0  0  0  0  0  0
   -0.9637    0.2323    2.5916 C   0  0  0  0  0  0  0  0  0  0  0  0
   -1.5836    0.8937    1.5285 C   0  0  0  0  0  0  0  0  0  0  0  0
   -1.4131    1.5173   -0.5302 H   0  0  0  0  0  0  0  0  0  0  0  0
    0.8646    0.5293   -0.8213 H   0  0  0  0  0  0  0  0  0  0  0  0
   10.0527    1.3485   -5.0377 N   0  0  0  0  0  0  0  0  0  0  0  0
   11.0952    1.3797   -5.4037 N   0  0  0  0  0  0  0  0  0  0  0  0
   -2.5732    1.3199    1.6585 H   0  0  0  0  0  0  0  0  0  0  0  0
   -1.4692    0.1447    3.5485 H   0  0  0  0  0  0  0  0  0  0  0  0
    0.8077   -0.8384    3.2423 H   0  0  0  0  0  0  0  0  0  0  0  0
    3.5460   -0.0586    1.4714 S   0  0  0  0  0  0  0  0  0  0  0  0
    4.5986   -1.0326    1.2677 O   0  0  0  0  0  0  0  0  0  0  0  0
    2.1815   -0.8288    0.9900 O   0  0  0  0  0  0  0  0  0  0  0  0
    3.3149    0.6339    2.7182 O   0  0  0  0  0  0  0  0  0  0  0  0
    3.6859    1.0989    0.3331 O   0  0  0  0  0  0  0  0  0  0  0  0
    4.1692    0.7104   -0.4161 H   0  0  0  0  0  0  0  0  0  0  0  0
  1  6  1  0  0  0  0
  2  1  2  0  0  0  0
  2  3  1  0  0  0  0
  3  4  2  0  0  0  0
  4  5  1  0  0  0  0
  4 13  1  0  0  0  0
  5 12  1  0  0  0  0
  6 11  1  0  0  0  0
  6  5  2  0  0  0  0
  7  1  1  0  0  0  0
  8  2  1  0  0  0  0
 10  9  3  0  0  0  0
 14 17  2  0  0  0  0
 15 14  2  0  0  0  0
 16  3  1  0  0  0  0
 16 14  1  0  0  0  0
 18 14  1  0  0  0  0
 19 18  1  0  0  0  0
M  END
