Coordinates from ORCA-job Ph-N2-HSO4-B3LYPG-6-31G_dp-MTMO-d009-169-n800
 OpenBabel09051908053D

 19 18  0  0  0  0  0  0  0  0999 V2000
   -0.3329    1.0283   -0.0810 C   0  0  0  0  0  0  0  0  0  0  0  0
    0.9996    0.6410   -0.2276 C   0  0  0  0  0  0  0  0  0  0  0  0
    1.6195   -0.0381    0.8174 C   0  0  0  0  0  0  0  0  0  0  0  0
    0.9512   -0.3386    2.0012 C   0  0  0  0  0  0  0  0  0  0  0  0
   -0.3791    0.0591    2.1361 C   0  0  0  0  0  0  0  0  0  0  0  0
   -1.0218    0.7398    1.0991 C   0  0  0  0  0  0  0  0  0  0  0  0
   -0.8304    1.5552   -0.8897 H   0  0  0  0  0  0  0  0  0  0  0  0
    1.5553    0.8518   -1.1346 H   0  0  0  0  0  0  0  0  0  0  0  0
    5.2162    0.4334   -2.1787 N   0  0  0  0  0  0  0  0  0  0  0  0
    5.5884   -0.2226   -2.9849 N   0  0  0  0  0  0  0  0  0  0  0  0
   -2.0576    1.0447    1.2106 H   0  0  0  0  0  0  0  0  0  0  0  0
   -0.9137   -0.1668    3.0538 H   0  0  0  0  0  0  0  0  0  0  0  0
    1.4709   -0.8646    2.7934 H   0  0  0  0  0  0  0  0  0  0  0  0
    4.1765    0.3319    1.3127 S   0  0  0  0  0  0  0  0  0  0  0  0
    5.3460   -0.4619    0.9931 O   0  0  0  0  0  0  0  0  0  0  0  0
    2.9370   -0.4992    0.6235 O   0  0  0  0  0  0  0  0  0  0  0  0
    3.8254    0.7387    2.6540 O   0  0  0  0  0  0  0  0  0  0  0  0
    4.1892    1.6849    0.4211 O   0  0  0  0  0  0  0  0  0  0  0  0
    4.6219    1.4743   -0.4279 H   0  0  0  0  0  0  0  0  0  0  0  0
  1  6  1  0  0  0  0
  2  1  2  0  0  0  0
  2  3  1  0  0  0  0
  3  4  2  0  0  0  0
  4  5  1  0  0  0  0
  4 13  1  0  0  0  0
  5 12  1  0  0  0  0
  6 11  1  0  0  0  0
  6  5  2  0  0  0  0
  7  1  1  0  0  0  0
  8  2  1  0  0  0  0
 10  9  3  0  0  0  0
 14 17  2  0  0  0  0
 15 14  2  0  0  0  0
 16  3  1  0  0  0  0
 16 14  1  0  0  0  0
 18 14  1  0  0  0  0
 19 18  1  0  0  0  0
M  END
