Coordinates from ORCA-job Ph-N2-HSO4-B3LYPG-6-31G_dp-MTMO-d009-169-n800
 OpenBabel09051908053D

 19 17  0  0  0  0  0  0  0  0999 V2000
   -0.9405    0.7306   -0.4774 C   0  0  0  0  0  0  0  0  0  0  0  0
    0.3350    0.5636   -1.0727 C   0  0  0  0  0  0  0  0  0  0  0  0
    1.2086    0.3532   -0.0479 C   0  0  0  0  0  0  0  0  0  0  0  0
    1.1942    0.2716    1.2114 C   0  0  0  0  0  0  0  0  0  0  0  0
   -0.0748    0.4360    1.8104 C   0  0  0  0  0  0  0  0  0  0  0  0
   -1.1332    0.6680    0.9142 C   0  0  0  0  0  0  0  0  0  0  0  0
   -1.7884    0.9114   -1.1328 H   0  0  0  0  0  0  0  0  0  0  0  0
    0.5282    0.6016   -2.1358 H   0  0  0  0  0  0  0  0  0  0  0  0
    3.2821   -0.4180   -2.5542 N   0  0  0  0  0  0  0  0  0  0  0  0
    4.2101   -0.9380   -2.8527 N   0  0  0  0  0  0  0  0  0  0  0  0
   -2.1365    0.8048    1.3086 H   0  0  0  0  0  0  0  0  0  0  0  0
   -0.2401    0.3887    2.8825 H   0  0  0  0  0  0  0  0  0  0  0  0
    2.8214   -0.0456    2.0660 H   0  0  0  0  0  0  0  0  0  0  0  0
    4.9198    0.2424    1.6435 S   0  0  0  0  0  0  0  0  0  0  0  0
    6.1047   -0.3256    2.2544 O   0  0  0  0  0  0  0  0  0  0  0  0
    4.5846    0.0686    0.2436 O   0  0  0  0  0  0  0  0  0  0  0  0
    3.6829   -0.2014    2.5584 O   0  0  0  0  0  0  0  0  0  0  0  0
    4.9569    1.8580    1.8743 O   0  0  0  0  0  0  0  0  0  0  0  0
    5.4469    2.0214    2.6977 H   0  0  0  0  0  0  0  0  0  0  0  0
  1  6  1  0  0  0  0
  2  1  2  0  0  0  0
  2  3  1  0  0  0  0
  3  4  2  0  0  0  0
  4  5  1  0  0  0  0
  5 12  1  0  0  0  0
  6 11  1  0  0  0  0
  6  5  2  0  0  0  0
  7  1  1  0  0  0  0
  8  2  1  0  0  0  0
 10  9  3  0  0  0  0
 13 17  1  0  0  0  0
 14 18  1  0  0  0  0
 14 15  2  0  0  0  0
 14 17  1  0  0  0  0
 16 14  2  0  0  0  0
 18 19  1  0  0  0  0
M  RAD  2   3   2   4   2
M  END
