Coordinates from ORCA-job Ph-N2-HSO4-B3LYPG-6-31G_dp-MTMO-d009-169-n800
 OpenBabel09051908053D

 19 18  0  0  0  0  0  0  0  0999 V2000
   -0.7848    0.5898   -0.7721 C   0  0  0  0  0  0  0  0  0  0  0  0
    0.5329    0.3995   -1.1812 C   0  0  0  0  0  0  0  0  0  0  0  0
    1.4803    0.2248   -0.1726 C   0  0  0  0  0  0  0  0  0  0  0  0
    1.2221    0.2195    1.1930 C   0  0  0  0  0  0  0  0  0  0  0  0
   -0.1132    0.3952    1.5586 C   0  0  0  0  0  0  0  0  0  0  0  0
   -1.1026    0.5861    0.5904 C   0  0  0  0  0  0  0  0  0  0  0  0
   -1.5582    0.7392   -1.5179 H   0  0  0  0  0  0  0  0  0  0  0  0
    0.8144    0.3926   -2.2278 H   0  0  0  0  0  0  0  0  0  0  0  0
    2.8800   -0.0303   -0.6501 N   0  0  0  0  0  0  0  0  0  0  0  0
    3.6513   -0.4641   -1.3332 N   0  0  0  0  0  0  0  0  0  0  0  0
   -2.1326    0.7364    0.8984 H   0  0  0  0  0  0  0  0  0  0  0  0
   -0.3729    0.3919    2.6119 H   0  0  0  0  0  0  0  0  0  0  0  0
    2.0213    0.0793    1.9163 H   0  0  0  0  0  0  0  0  0  0  0  0
    4.7331    0.3570    1.6673 S   0  0  0  0  0  0  0  0  0  0  0  0
    5.5144   -0.4987    0.7518 O   0  0  0  0  0  0  0  0  0  0  0  0
    3.8397    1.3048    0.8929 O   0  0  0  0  0  0  0  0  0  0  0  0
    4.0138   -0.3031    2.7658 O   0  0  0  0  0  0  0  0  0  0  0  0
    5.8149    1.3396    2.4256 O   0  0  0  0  0  0  0  0  0  0  0  0
    6.5079    1.5320    1.7742 H   0  0  0  0  0  0  0  0  0  0  0  0
  1  6  1  0  0  0  0
  2  1  2  0  0  0  0
  2  3  1  0  0  0  0
  3  4  2  0  0  0  0
  4  5  1  0  0  0  0
  4 13  1  0  0  0  0
  5 12  1  0  0  0  0
  6 11  1  0  0  0  0
  6  5  2  0  0  0  0
  7  1  1  0  0  0  0
  8  2  1  0  0  0  0
  9  3  1  0  0  0  0
 10  9  2  0  0  0  0
 14 18  1  0  0  0  0
 14 17  1  0  0  0  0
 15 14  2  0  0  0  0
 16 14  2  0  0  0  0
 19 18  1  0  0  0  0
M  RAD  2  10   2  17   2
M  END
