Coordinates from ORCA-job Ph-N2-HSO4-B3LYPG-6-31G_dp-MTMO-d009-169-n800
 OpenBabel09051908053D

 19 18  0  0  0  0  0  0  0  0999 V2000
   -0.6836    1.0243    0.1590 C   0  0  0  0  0  0  0  0  0  0  0  0
    0.5827    0.4922   -0.0876 C   0  0  0  0  0  0  0  0  0  0  0  0
    1.2495   -0.1524    0.9500 C   0  0  0  0  0  0  0  0  0  0  0  0
    0.6964   -0.2781    2.2207 C   0  0  0  0  0  0  0  0  0  0  0  0
   -0.5693    0.2604    2.4532 C   0  0  0  0  0  0  0  0  0  0  0  0
   -1.2593    0.9091    1.4262 C   0  0  0  0  0  0  0  0  0  0  0  0
   -1.2188    1.5269   -0.6407 H   0  0  0  0  0  0  0  0  0  0  0  0
    1.0515    0.5674   -1.0624 H   0  0  0  0  0  0  0  0  0  0  0  0
    7.3346    0.9591   -2.7499 N   0  0  0  0  0  0  0  0  0  0  0  0
    8.3504    1.0472   -3.1758 N   0  0  0  0  0  0  0  0  0  0  0  0
   -2.2452    1.3228    1.6132 H   0  0  0  0  0  0  0  0  0  0  0  0
   -1.0161    0.1703    3.4386 H   0  0  0  0  0  0  0  0  0  0  0  0
    1.2521   -0.7843    3.0014 H   0  0  0  0  0  0  0  0  0  0  0  0
    3.8725    0.0395    1.0242 S   0  0  0  0  0  0  0  0  0  0  0  0
    4.9216   -0.9458    0.8566 O   0  0  0  0  0  0  0  0  0  0  0  0
    2.4897   -0.7683    0.6751 O   0  0  0  0  0  0  0  0  0  0  0  0
    3.6926    0.8331    2.2184 O   0  0  0  0  0  0  0  0  0  0  0  0
    3.9602    1.0919   -0.2170 O   0  0  0  0  0  0  0  0  0  0  0  0
    4.5000    0.6761   -0.9118 H   0  0  0  0  0  0  0  0  0  0  0  0
  1  6  1  0  0  0  0
  2  1  2  0  0  0  0
  2  3  1  0  0  0  0
  3  4  2  0  0  0  0
  4  5  1  0  0  0  0
  4 13  1  0  0  0  0
  5 12  1  0  0  0  0
  6 11  1  0  0  0  0
  6  5  2  0  0  0  0
  7  1  1  0  0  0  0
  8  2  1  0  0  0  0
 10  9  3  0  0  0  0
 14 17  2  0  0  0  0
 15 14  2  0  0  0  0
 16  3  1  0  0  0  0
 16 14  1  0  0  0  0
 18 14  1  0  0  0  0
 19 18  1  0  0  0  0
M  END
