Coordinates from ORCA-job Ph-N2-HSO4-B3LYPG-6-31G_dp-MTMO-d009-169-n800
 OpenBabel09051908053D

 19 18  0  0  0  0  0  0  0  0999 V2000
   -1.2038    0.9768    0.4730 C   0  0  0  0  0  0  0  0  0  0  0  0
    0.0634    0.4130    0.3187 C   0  0  0  0  0  0  0  0  0  0  0  0
    0.6413   -0.2387    1.4040 C   0  0  0  0  0  0  0  0  0  0  0  0
   -0.0020   -0.3411    2.6340 C   0  0  0  0  0  0  0  0  0  0  0  0
   -1.2670    0.2300    2.7746 C   0  0  0  0  0  0  0  0  0  0  0  0
   -1.8685    0.8864    1.6979 C   0  0  0  0  0  0  0  0  0  0  0  0
   -1.6700    1.4848   -0.3656 H   0  0  0  0  0  0  0  0  0  0  0  0
    0.5991    0.4679   -0.6225 H   0  0  0  0  0  0  0  0  0  0  0  0
   12.5085    1.6567   -6.7754 N   0  0  0  0  0  0  0  0  0  0  0  0
   13.5559    1.7307   -7.1205 N   0  0  0  0  0  0  0  0  0  0  0  0
   -2.8544    1.3251    1.8129 H   0  0  0  0  0  0  0  0  0  0  0  0
   -1.7830    0.1589    3.7273 H   0  0  0  0  0  0  0  0  0  0  0  0
    0.4853   -0.8534    3.4553 H   0  0  0  0  0  0  0  0  0  0  0  0
    3.2500   -0.1268    1.7075 S   0  0  0  0  0  0  0  0  0  0  0  0
    4.2935   -1.1140    1.5213 O   0  0  0  0  0  0  0  0  0  0  0  0
    1.8820   -0.8847    1.2168 O   0  0  0  0  0  0  0  0  0  0  0  0
    3.0139    0.5766    2.9472 O   0  0  0  0  0  0  0  0  0  0  0  0
    3.4149    1.0212    0.5628 O   0  0  0  0  0  0  0  0  0  0  0  0
    3.9026    0.6221   -0.1779 H   0  0  0  0  0  0  0  0  0  0  0  0
  1  6  1  0  0  0  0
  2  1  2  0  0  0  0
  2  3  1  0  0  0  0
  3  4  2  0  0  0  0
  4  5  1  0  0  0  0
  4 13  1  0  0  0  0
  5 12  1  0  0  0  0
  6 11  1  0  0  0  0
  6  5  2  0  0  0  0
  7  1  1  0  0  0  0
  8  2  1  0  0  0  0
 10  9  3  0  0  0  0
 14 17  2  0  0  0  0
 15 14  2  0  0  0  0
 16  3  1  0  0  0  0
 16 14  1  0  0  0  0
 18 14  1  0  0  0  0
 19 18  1  0  0  0  0
M  END
