Coordinates from ORCA-job Ph-N2-HSO4-B3LYPG-6-31G_dp-MTMO-d009-169-n800
 OpenBabel09051908053D

 19 17  0  0  0  0  0  0  0  0999 V2000
   -1.0118    0.7544   -0.5081 C   0  0  0  0  0  0  0  0  0  0  0  0
    0.0869    0.4098   -1.3253 C   0  0  0  0  0  0  0  0  0  0  0  0
    1.1384    0.1424   -0.5002 C   0  0  0  0  0  0  0  0  0  0  0  0
    1.4162    0.1184    0.7437 C   0  0  0  0  0  0  0  0  0  0  0  0
    0.2970    0.4658    1.5471 C   0  0  0  0  0  0  0  0  0  0  0  0
   -0.9033    0.7795    0.8929 C   0  0  0  0  0  0  0  0  0  0  0  0
   -1.9540    1.0032   -0.9885 H   0  0  0  0  0  0  0  0  0  0  0  0
    0.0601    0.3738   -2.4063 H   0  0  0  0  0  0  0  0  0  0  0  0
    2.8109   -0.4816   -1.8889 N   0  0  0  0  0  0  0  0  0  0  0  0
    3.7864   -0.9826   -2.0278 N   0  0  0  0  0  0  0  0  0  0  0  0
   -1.7742    1.0515    1.4826 H   0  0  0  0  0  0  0  0  0  0  0  0
    0.3634    0.4937    2.6317 H   0  0  0  0  0  0  0  0  0  0  0  0
    2.9217   -0.2239    1.5706 H   0  0  0  0  0  0  0  0  0  0  0  0
    5.0024    0.4086    1.6574 S   0  0  0  0  0  0  0  0  0  0  0  0
    6.1746   -0.2007    2.2570 O   0  0  0  0  0  0  0  0  0  0  0  0
    4.8958    0.6873    0.2375 O   0  0  0  0  0  0  0  0  0  0  0  0
    3.7424   -0.4394    2.1408 O   0  0  0  0  0  0  0  0  0  0  0  0
    4.7600    1.8487    2.3935 O   0  0  0  0  0  0  0  0  0  0  0  0
    5.1485    1.7825    3.2816 H   0  0  0  0  0  0  0  0  0  0  0  0
  1  6  1  0  0  0  0
  2  1  2  0  0  0  0
  2  3  1  0  0  0  0
  3  4  2  0  0  0  0
  4  5  1  0  0  0  0
  5 12  1  0  0  0  0
  6 11  1  0  0  0  0
  6  5  2  0  0  0  0
  7  1  1  0  0  0  0
  8  2  1  0  0  0  0
 10  9  3  0  0  0  0
 13 17  1  0  0  0  0
 14 17  1  0  0  0  0
 14 15  2  0  0  0  0
 14 18  1  0  0  0  0
 16 14  2  0  0  0  0
 18 19  1  0  0  0  0
M  RAD  2   3   2   4   2
M  END
