Coordinates from ORCA-job Ph-N2-HSO4-B3LYPG-6-31G_dp-MTMO-d009-169-n800
 OpenBabel09051908053D

 19 18  0  0  0  0  0  0  0  0999 V2000
   -0.6783    1.0302    0.1709 C   0  0  0  0  0  0  0  0  0  0  0  0
    0.5888    0.5153   -0.1066 C   0  0  0  0  0  0  0  0  0  0  0  0
    1.2818   -0.1348    0.9101 C   0  0  0  0  0  0  0  0  0  0  0  0
    0.7547   -0.2830    2.1891 C   0  0  0  0  0  0  0  0  0  0  0  0
   -0.5125    0.2378    2.4523 C   0  0  0  0  0  0  0  0  0  0  0  0
   -1.2288    0.8921    1.4470 C   0  0  0  0  0  0  0  0  0  0  0  0
   -1.2340    1.5372   -0.6119 H   0  0  0  0  0  0  0  0  0  0  0  0
    1.0391    0.6085   -1.0885 H   0  0  0  0  0  0  0  0  0  0  0  0
    7.0132    0.8610   -2.3882 N   0  0  0  0  0  0  0  0  0  0  0  0
    8.0405    0.9344   -2.7877 N   0  0  0  0  0  0  0  0  0  0  0  0
   -2.2154    1.2923    1.6580 H   0  0  0  0  0  0  0  0  0  0  0  0
   -0.9395    0.1299    3.4446 H   0  0  0  0  0  0  0  0  0  0  0  0
    1.3307   -0.7931    2.9525 H   0  0  0  0  0  0  0  0  0  0  0  0
    3.9065    0.0932    0.9063 S   0  0  0  0  0  0  0  0  0  0  0  0
    4.9613   -0.8935    0.7851 O   0  0  0  0  0  0  0  0  0  0  0  0
    2.5240   -0.7338    0.6050 O   0  0  0  0  0  0  0  0  0  0  0  0
    3.7266    0.9415    2.0629 O   0  0  0  0  0  0  0  0  0  0  0  0
    3.9877    1.0771   -0.3899 O   0  0  0  0  0  0  0  0  0  0  0  0
    4.6152    0.6791   -1.0196 H   0  0  0  0  0  0  0  0  0  0  0  0
  1  6  1  0  0  0  0
  2  1  2  0  0  0  0
  2  3  1  0  0  0  0
  3  4  2  0  0  0  0
  4  5  1  0  0  0  0
  4 13  1  0  0  0  0
  5 12  1  0  0  0  0
  6 11  1  0  0  0  0
  6  5  2  0  0  0  0
  7  1  1  0  0  0  0
  8  2  1  0  0  0  0
 10  9  3  0  0  0  0
 14 17  2  0  0  0  0
 15 14  2  0  0  0  0
 16 14  1  0  0  0  0
 16  3  1  0  0  0  0
 18 14  1  0  0  0  0
 19 18  1  0  0  0  0
M  END
