Coordinates from ORCA-job Ph-N2-HSO4-B3LYPG-6-31G_dp-MTMO-d009-169-n800
 OpenBabel09051908053D

 19 18  0  0  0  0  0  0  0  0999 V2000
   -0.9559    1.0031    0.3127 C   0  0  0  0  0  0  0  0  0  0  0  0
    0.3155    0.4539    0.1417 C   0  0  0  0  0  0  0  0  0  0  0  0
    0.9096   -0.2028    1.2153 C   0  0  0  0  0  0  0  0  0  0  0  0
    0.2782   -0.3243    2.4497 C   0  0  0  0  0  0  0  0  0  0  0  0
   -0.9912    0.2323    2.6071 C   0  0  0  0  0  0  0  0  0  0  0  0
   -1.6087    0.8934    1.5425 C   0  0  0  0  0  0  0  0  0  0  0  0
   -1.4346    1.5148   -0.5165 H   0  0  0  0  0  0  0  0  0  0  0  0
    0.8423    0.5238   -0.8035 H   0  0  0  0  0  0  0  0  0  0  0  0
   10.2691    1.3768   -5.1941 N   0  0  0  0  0  0  0  0  0  0  0  0
   11.3124    1.4112   -5.5574 N   0  0  0  0  0  0  0  0  0  0  0  0
   -2.5980    1.3209    1.6706 H   0  0  0  0  0  0  0  0  0  0  0  0
   -1.4981    0.1462    3.5634 H   0  0  0  0  0  0  0  0  0  0  0  0
    0.7781   -0.8399    3.2614 H   0  0  0  0  0  0  0  0  0  0  0  0
    3.5198   -0.0651    1.4939 S   0  0  0  0  0  0  0  0  0  0  0  0
    4.5715   -1.0405    1.2922 O   0  0  0  0  0  0  0  0  0  0  0  0
    2.1551   -0.8341    1.0110 O   0  0  0  0  0  0  0  0  0  0  0  0
    3.2877    0.6284    2.7399 O   0  0  0  0  0  0  0  0  0  0  0  0
    3.6626    1.0915    0.3549 O   0  0  0  0  0  0  0  0  0  0  0  0
    4.1465    0.7019   -0.3933 H   0  0  0  0  0  0  0  0  0  0  0  0
  1  6  1  0  0  0  0
  2  1  2  0  0  0  0
  2  3  1  0  0  0  0
  3  4  2  0  0  0  0
  4  5  1  0  0  0  0
  4 13  1  0  0  0  0
  5 12  1  0  0  0  0
  6 11  1  0  0  0  0
  6  5  2  0  0  0  0
  7  1  1  0  0  0  0
  8  2  1  0  0  0  0
 10  9  3  0  0  0  0
 14 17  2  0  0  0  0
 15 14  2  0  0  0  0
 16  3  1  0  0  0  0
 16 14  1  0  0  0  0
 18 14  1  0  0  0  0
 19 18  1  0  0  0  0
M  END
