Coordinates from ORCA-job Ph-N2-HSO4-B3LYPG-6-31G_dp-MTMO-d009-169-n800
 OpenBabel09051908053D

 19 18  0  0  0  0  0  0  0  0999 V2000
   -1.3685    0.9587    0.5832 C   0  0  0  0  0  0  0  0  0  0  0  0
   -0.1025    0.3913    0.4320 C   0  0  0  0  0  0  0  0  0  0  0  0
    0.4723   -0.2592    1.5197 C   0  0  0  0  0  0  0  0  0  0  0  0
   -0.1730   -0.3569    2.7491 C   0  0  0  0  0  0  0  0  0  0  0  0
   -1.4366    0.2178    2.8866 C   0  0  0  0  0  0  0  0  0  0  0  0
   -2.0350    0.8730    1.8075 C   0  0  0  0  0  0  0  0  0  0  0  0
   -1.8322    1.4659   -0.2572 H   0  0  0  0  0  0  0  0  0  0  0  0
    0.4345    0.4425   -0.5086 H   0  0  0  0  0  0  0  0  0  0  0  0
   13.9346    1.8282   -7.7530 N   0  0  0  0  0  0  0  0  0  0  0  0
   14.9825    1.9060   -8.0956 N   0  0  0  0  0  0  0  0  0  0  0  0
   -3.0200    1.3146    1.9201 H   0  0  0  0  0  0  0  0  0  0  0  0
   -1.9541    0.1503    3.8388 H   0  0  0  0  0  0  0  0  0  0  0  0
    0.3119   -0.8685    3.5723 H   0  0  0  0  0  0  0  0  0  0  0  0
    3.0807   -0.1539    1.8274 S   0  0  0  0  0  0  0  0  0  0  0  0
    4.1220   -1.1441    1.6439 O   0  0  0  0  0  0  0  0  0  0  0  0
    1.7115   -0.9088    1.3356 O   0  0  0  0  0  0  0  0  0  0  0  0
    2.8447    0.5517    3.0659 O   0  0  0  0  0  0  0  0  0  0  0  0
    3.2503    0.9922    0.6815 O   0  0  0  0  0  0  0  0  0  0  0  0
    3.7385    0.5908   -0.0577 H   0  0  0  0  0  0  0  0  0  0  0  0
  1  6  1  0  0  0  0
  2  1  2  0  0  0  0
  2  3  1  0  0  0  0
  3  4  2  0  0  0  0
  4  5  1  0  0  0  0
  4 13  1  0  0  0  0
  5 12  1  0  0  0  0
  6 11  1  0  0  0  0
  6  5  2  0  0  0  0
  7  1  1  0  0  0  0
  8  2  1  0  0  0  0
 10  9  3  0  0  0  0
 14 17  2  0  0  0  0
 15 14  2  0  0  0  0
 16  3  1  0  0  0  0
 16 14  1  0  0  0  0
 18 14  1  0  0  0  0
 19 18  1  0  0  0  0
M  END
