Coordinates from ORCA-job Ph-N2-HSO4-B3LYPG-6-31G_dp-MTMO-d009-169-n800
 OpenBabel09051908053D

 19 18  0  0  0  0  0  0  0  0999 V2000
   -0.7249    1.0186    0.1694 C   0  0  0  0  0  0  0  0  0  0  0  0
    0.5444    0.4783   -0.0418 C   0  0  0  0  0  0  0  0  0  0  0  0
    1.1794   -0.1681    1.0143 C   0  0  0  0  0  0  0  0  0  0  0  0
    0.5912   -0.2877    2.2700 C   0  0  0  0  0  0  0  0  0  0  0  0
   -0.6765    0.2597    2.4674 C   0  0  0  0  0  0  0  0  0  0  0  0
   -1.3349    0.9103    1.4210 C   0  0  0  0  0  0  0  0  0  0  0  0
   -1.2354    1.5223   -0.6457 H   0  0  0  0  0  0  0  0  0  0  0  0
    1.0385    0.5476   -1.0045 H   0  0  0  0  0  0  0  0  0  0  0  0
    7.9827    1.0792   -3.4072 N   0  0  0  0  0  0  0  0  0  0  0  0
    9.0046    1.1347   -3.8243 N   0  0  0  0  0  0  0  0  0  0  0  0
   -2.3227    1.3306    1.5805 H   0  0  0  0  0  0  0  0  0  0  0  0
   -1.1501    0.1748    3.4408 H   0  0  0  0  0  0  0  0  0  0  0  0
    1.1223   -0.7954    3.0667 H   0  0  0  0  0  0  0  0  0  0  0  0
    3.7972   -0.0054    1.1949 S   0  0  0  0  0  0  0  0  0  0  0  0
    4.8476   -0.9805    0.9847 O   0  0  0  0  0  0  0  0  0  0  0  0
    2.4222   -0.7913    0.7719 O   0  0  0  0  0  0  0  0  0  0  0  0
    3.5989    0.7158    2.4310 O   0  0  0  0  0  0  0  0  0  0  0  0
    3.9011    1.1244    0.0254 O   0  0  0  0  0  0  0  0  0  0  0  0
    4.3760    0.7235   -0.7229 H   0  0  0  0  0  0  0  0  0  0  0  0
  1  6  1  0  0  0  0
  2  1  2  0  0  0  0
  2  3  1  0  0  0  0
  3  4  2  0  0  0  0
  4  5  1  0  0  0  0
  4 13  1  0  0  0  0
  5 12  1  0  0  0  0
  6 11  1  0  0  0  0
  6  5  2  0  0  0  0
  7  1  1  0  0  0  0
  8  2  1  0  0  0  0
 10  9  3  0  0  0  0
 14 17  2  0  0  0  0
 15 14  2  0  0  0  0
 16  3  1  0  0  0  0
 16 14  1  0  0  0  0
 18 14  1  0  0  0  0
 19 18  1  0  0  0  0
M  END
