Coordinates from ORCA-job Ph-N2-HSO4-B3LYPG-6-31G_dp-MTMO-d009-169-n800
 OpenBabel09051908053D

 19 18  0  0  0  0  0  0  0  0999 V2000
   -1.1988    0.9774    0.4696 C   0  0  0  0  0  0  0  0  0  0  0  0
    0.0685    0.4137    0.3152 C   0  0  0  0  0  0  0  0  0  0  0  0
    0.6465   -0.2380    1.4004 C   0  0  0  0  0  0  0  0  0  0  0  0
    0.0033   -0.3407    2.6304 C   0  0  0  0  0  0  0  0  0  0  0  0
   -1.2617    0.2302    2.7712 C   0  0  0  0  0  0  0  0  0  0  0  0
   -1.8633    0.8867    1.6947 C   0  0  0  0  0  0  0  0  0  0  0  0
   -1.6651    1.4854   -0.3688 H   0  0  0  0  0  0  0  0  0  0  0  0
    0.6041    0.4688   -0.6260 H   0  0  0  0  0  0  0  0  0  0  0  0
   12.4646    1.6513   -6.7450 N   0  0  0  0  0  0  0  0  0  0  0  0
   13.5120    1.7251   -7.0902 N   0  0  0  0  0  0  0  0  0  0  0  0
   -2.8494    1.3253    1.8098 H   0  0  0  0  0  0  0  0  0  0  0  0
   -1.7777    0.1589    3.7239 H   0  0  0  0  0  0  0  0  0  0  0  0
    0.4908   -0.8531    3.4516 H   0  0  0  0  0  0  0  0  0  0  0  0
    3.2552   -0.1258    1.7036 S   0  0  0  0  0  0  0  0  0  0  0  0
    4.2988   -1.1129    1.5173 O   0  0  0  0  0  0  0  0  0  0  0  0
    1.8873   -0.8838    1.2130 O   0  0  0  0  0  0  0  0  0  0  0  0
    3.0192    0.5775    2.9434 O   0  0  0  0  0  0  0  0  0  0  0  0
    3.4199    1.0223    0.5591 O   0  0  0  0  0  0  0  0  0  0  0  0
    3.9076    0.6233   -0.1817 H   0  0  0  0  0  0  0  0  0  0  0  0
  1  6  1  0  0  0  0
  2  1  2  0  0  0  0
  2  3  1  0  0  0  0
  3  4  2  0  0  0  0
  4  5  1  0  0  0  0
  4 13  1  0  0  0  0
  5 12  1  0  0  0  0
  6 11  1  0  0  0  0
  6  5  2  0  0  0  0
  7  1  1  0  0  0  0
  8  2  1  0  0  0  0
 10  9  3  0  0  0  0
 14 17  2  0  0  0  0
 15 14  2  0  0  0  0
 16  3  1  0  0  0  0
 16 14  1  0  0  0  0
 18 14  1  0  0  0  0
 19 18  1  0  0  0  0
M  END
