Coordinates from ORCA-job Ph-N2-HSO4-B3LYPG-6-31G_dp-MTMO-d009-169-n800
 OpenBabel09051908053D

 19 18  0  0  0  0  0  0  0  0999 V2000
   -0.4460    1.0001   -0.0172 C   0  0  0  0  0  0  0  0  0  0  0  0
    0.8683    0.5692   -0.2011 C   0  0  0  0  0  0  0  0  0  0  0  0
    1.5147   -0.0769    0.8487 C   0  0  0  0  0  0  0  0  0  0  0  0
    0.8917   -0.3018    2.0731 C   0  0  0  0  0  0  0  0  0  0  0  0
   -0.4208    0.1389    2.2445 C   0  0  0  0  0  0  0  0  0  0  0  0
   -1.0901    0.7870    1.2035 C   0  0  0  0  0  0  0  0  0  0  0  0
   -0.9644    1.5016   -0.8288 H   0  0  0  0  0  0  0  0  0  0  0  0
    1.3907    0.7217   -1.1391 H   0  0  0  0  0  0  0  0  0  0  0  0
    5.7317    0.5880   -2.2334 N   0  0  0  0  0  0  0  0  0  0  0  0
    6.3496    0.1048   -3.0102 N   0  0  0  0  0  0  0  0  0  0  0  0
   -2.1122    1.1246    1.3434 H   0  0  0  0  0  0  0  0  0  0  0  0
   -0.9207   -0.0280    3.1938 H   0  0  0  0  0  0  0  0  0  0  0  0
    1.4315   -0.8040    2.8672 H   0  0  0  0  0  0  0  0  0  0  0  0
    4.1009    0.2513    1.1935 S   0  0  0  0  0  0  0  0  0  0  0  0
    5.2371   -0.5926    0.8795 O   0  0  0  0  0  0  0  0  0  0  0  0
    2.8099   -0.5857    0.6212 O   0  0  0  0  0  0  0  0  0  0  0  0
    3.8175    0.7538    2.5187 O   0  0  0  0  0  0  0  0  0  0  0  0
    4.1182    1.5378    0.2076 O   0  0  0  0  0  0  0  0  0  0  0  0
    4.6541    1.3018   -0.5735 H   0  0  0  0  0  0  0  0  0  0  0  0
  1  6  1  0  0  0  0
  2  1  2  0  0  0  0
  2  3  1  0  0  0  0
  3  4  2  0  0  0  0
  4  5  1  0  0  0  0
  4 13  1  0  0  0  0
  5 12  1  0  0  0  0
  6 11  1  0  0  0  0
  6  5  2  0  0  0  0
  7  1  1  0  0  0  0
  8  2  1  0  0  0  0
 10  9  3  0  0  0  0
 14 17  2  0  0  0  0
 15 14  2  0  0  0  0
 16  3  1  0  0  0  0
 16 14  1  0  0  0  0
 18 14  1  0  0  0  0
 19 18  1  0  0  0  0
M  END
