Coordinates from ORCA-job Ph-N2-HSO4-B3LYPG-6-31G_dp-MTMO-d009-169-n800
 OpenBabel09051908053D

 19 18  0  0  0  0  0  0  0  0999 V2000
   -0.0459    1.3687    0.0996 C   0  0  0  0  0  0  0  0  0  0  0  0
    1.3303    1.1349    0.0941 C   0  0  0  0  0  0  0  0  0  0  0  0
    1.8345    0.1095    0.8907 C   0  0  0  0  0  0  0  0  0  0  0  0
    1.0059   -0.6837    1.6791 C   0  0  0  0  0  0  0  0  0  0  0  0
   -0.3687   -0.4451    1.6653 C   0  0  0  0  0  0  0  0  0  0  0  0
   -0.8958    0.5815    0.8789 C   0  0  0  0  0  0  0  0  0  0  0  0
   -0.4525    2.1695   -0.5109 H   0  0  0  0  0  0  0  0  0  0  0  0
    1.9998    1.7417   -0.5037 H   0  0  0  0  0  0  0  0  0  0  0  0
    4.1755   -0.3870   -1.9621 N   0  0  0  0  0  0  0  0  0  0  0  0
    3.7794   -1.2639   -2.5041 N   0  0  0  0  0  0  0  0  0  0  0  0
   -1.9654    0.7692    0.8750 H   0  0  0  0  0  0  0  0  0  0  0  0
   -1.0247   -1.0594    2.2745 H   0  0  0  0  0  0  0  0  0  0  0  0
    1.4426   -1.4716    2.2833 H   0  0  0  0  0  0  0  0  0  0  0  0
    4.3240    0.8352    1.4337 S   0  0  0  0  0  0  0  0  0  0  0  0
    5.5247    0.0371    1.5593 O   0  0  0  0  0  0  0  0  0  0  0  0
    3.2019   -0.2296    0.8729 O   0  0  0  0  0  0  0  0  0  0  0  0
    3.7755    1.6458    2.4951 O   0  0  0  0  0  0  0  0  0  0  0  0
    4.4750    1.8284    0.1543 O   0  0  0  0  0  0  0  0  0  0  0  0
    4.8456    1.3104   -0.5835 H   0  0  0  0  0  0  0  0  0  0  0  0
  1  6  1  0  0  0  0
  2  1  2  0  0  0  0
  2  3  1  0  0  0  0
  3  4  2  0  0  0  0
  4 13  1  0  0  0  0
  5  4  1  0  0  0  0
  5 12  1  0  0  0  0
  6  5  2  0  0  0  0
  7  1  1  0  0  0  0
  8  2  1  0  0  0  0
 10  9  3  0  0  0  0
 11  6  1  0  0  0  0
 14 15  2  0  0  0  0
 14 17  2  0  0  0  0
 16  3  1  0  0  0  0
 16 14  1  0  0  0  0
 18 14  1  0  0  0  0
 19 18  1  0  0  0  0
M  END
