Coordinates from ORCA-job Ph-N2-HSO4-B3LYPG-6-31G_dp-MTMO-d009-169-n800
 OpenBabel09051908053D

 19 19  0  0  1  0  0  0  0  0999 V2000
   -0.5308   -0.1072   -0.2763 C   0  0  0  0  0  0  0  0  0  0  0  0
    0.3651    0.2591   -1.2129 C   0  0  0  0  0  0  0  0  0  0  0  0
    1.6575    0.8867   -0.8428 C   0  0  0  0  0  0  0  0  0  0  0  0
    2.0558    0.8448    0.6474 C   0  0  1  0  0  0  0  0  0  0  0  0
    0.9228    0.5711    1.5724 C   0  0  0  0  0  0  0  0  0  0  0  0
   -0.2607    0.1022    1.1350 C   0  0  0  0  0  0  0  0  0  0  0  0
   -1.4739   -0.5521   -0.5758 H   0  0  0  0  0  0  0  0  0  0  0  0
    0.1846    0.1332   -2.2764 H   0  0  0  0  0  0  0  0  0  0  0  0
    2.2942    1.3008   -1.5238 N   0  0  0  0  0  0  0  0  0  0  0  0
    3.0223    1.7749   -2.3000 N   0  0  0  0  0  0  0  0  0  0  0  0
   -1.0472   -0.1211    1.8502 H   0  0  0  0  0  0  0  0  0  0  0  0
    1.1201    0.7218    2.6286 H   0  0  0  0  0  0  0  0  0  0  0  0
    2.6047    1.7573    0.8944 H   0  0  0  0  0  0  0  0  0  0  0  0
    4.4425   -0.0059    1.5173 S   0  0  0  0  0  0  0  0  0  0  0  0
    5.2586   -1.1814    1.3155 O   0  0  0  0  0  0  0  0  0  0  0  0
    4.9427    1.3343    1.2385 O   0  0  0  0  0  0  0  0  0  0  0  0
    3.0537   -0.2811    0.7621 O   0  0  0  0  0  0  0  0  0  0  0  0
    3.8629    0.0143    3.0543 O   0  0  0  0  0  0  0  0  0  0  0  0
    4.4866    0.5399    3.5839 H   0  0  0  0  0  0  0  0  0  0  0  0
  1  6  1  0  0  0  0
  2  3  2  0  0  0  0
  2  1  1  0  0  0  0
  3  4  1  0  0  0  0
  4 17  1  0  0  0  0
  4 13  1  1  0  0  0
  4  5  1  0  0  0  0
  5 12  1  0  0  0  0
  6  5  2  0  0  0  0
  6 11  1  0  0  0  0
  7  1  1  0  0  0  0
  8  2  1  0  0  0  0
  9  3  1  0  0  0  0
 10  9  1  0  0  0  0
 14 18  1  0  0  0  0
 15 14  2  0  0  0  0
 16 14  2  0  0  0  0
 17 14  1  0  0  0  0
 18 19  1  0  0  0  0
M  RAD  3   1   2   9   2  10   3
M  END
