Coordinates from ORCA-job Ph-N2-HSO4-B3LYPG-6-31G_dp-MTMO-d009-169-n800
 OpenBabel09051908053D

 19 17  0  0  0  0  0  0  0  0999 V2000
   -1.0163    0.7689   -0.4840 C   0  0  0  0  0  0  0  0  0  0  0  0
    0.1607    0.5083   -1.2281 C   0  0  0  0  0  0  0  0  0  0  0  0
    1.1413    0.2471   -0.3188 C   0  0  0  0  0  0  0  0  0  0  0  0
    1.2860    0.1791    0.9341 C   0  0  0  0  0  0  0  0  0  0  0  0
    0.1113    0.4371    1.6791 C   0  0  0  0  0  0  0  0  0  0  0  0
   -1.0350    0.7329    0.9214 C   0  0  0  0  0  0  0  0  0  0  0  0
   -1.9256    1.0011   -1.0321 H   0  0  0  0  0  0  0  0  0  0  0  0
    0.2201    0.5234   -2.3079 H   0  0  0  0  0  0  0  0  0  0  0  0
    3.1228   -0.5348   -2.2309 N   0  0  0  0  0  0  0  0  0  0  0  0
    4.0480   -1.0806   -2.4889 N   0  0  0  0  0  0  0  0  0  0  0  0
   -1.9683    0.9421    1.4371 H   0  0  0  0  0  0  0  0  0  0  0  0
    0.0817    0.4138    2.7645 H   0  0  0  0  0  0  0  0  0  0  0  0
    2.8945   -0.1601    1.7764 H   0  0  0  0  0  0  0  0  0  0  0  0
    4.9936    0.3519    1.6613 S   0  0  0  0  0  0  0  0  0  0  0  0
    6.1571   -0.2440    2.2879 O   0  0  0  0  0  0  0  0  0  0  0  0
    4.8146    0.4317    0.2253 O   0  0  0  0  0  0  0  0  0  0  0  0
    3.7147   -0.3420    2.3295 O   0  0  0  0  0  0  0  0  0  0  0  0
    4.8693    1.8902    2.1954 O   0  0  0  0  0  0  0  0  0  0  0  0
    5.2913    1.9254    3.0702 H   0  0  0  0  0  0  0  0  0  0  0  0
  1  6  1  0  0  0  0
  2  1  2  0  0  0  0
  2  3  1  0  0  0  0
  3  4  2  0  0  0  0
  4  5  1  0  0  0  0
  5 12  1  0  0  0  0
  6 11  1  0  0  0  0
  6  5  2  0  0  0  0
  7  1  1  0  0  0  0
  8  2  1  0  0  0  0
 10  9  3  0  0  0  0
 13 17  1  0  0  0  0
 14 18  1  0  0  0  0
 14 15  2  0  0  0  0
 14 17  1  0  0  0  0
 16 14  2  0  0  0  0
 18 19  1  0  0  0  0
M  RAD  2   3   2   4   2
M  END
