Coordinates from ORCA-job Ph-N2-HSO4-B3LYPG-6-31G_dp-MTMO-d009-169-n800
 OpenBabel09051908053D

 19 19  0  0  1  0  0  0  0  0999 V2000
   -0.5487   -0.1174   -0.2768 C   0  0  0  0  0  0  0  0  0  0  0  0
    0.3546    0.2741   -1.2048 C   0  0  0  0  0  0  0  0  0  0  0  0
    1.6130    0.8733   -0.7866 C   0  0  0  0  0  0  0  0  0  0  0  0
    2.0337    0.8441    0.6588 C   0  0  1  0  0  0  0  0  0  0  0  0
    0.9029    0.5590    1.5792 C   0  0  0  0  0  0  0  0  0  0  0  0
   -0.2762    0.0770    1.1325 C   0  0  0  0  0  0  0  0  0  0  0  0
   -1.4908   -0.5576   -0.5841 H   0  0  0  0  0  0  0  0  0  0  0  0
    0.1712    0.1716   -2.2699 H   0  0  0  0  0  0  0  0  0  0  0  0
    2.3664    1.3529   -1.5887 N   0  0  0  0  0  0  0  0  0  0  0  0
    3.0884    1.8132   -2.3510 N   0  0  0  0  0  0  0  0  0  0  0  0
   -1.0593   -0.1607    1.8472 H   0  0  0  0  0  0  0  0  0  0  0  0
    1.0928    0.7045    2.6370 H   0  0  0  0  0  0  0  0  0  0  0  0
    2.6035    1.7362    0.9262 H   0  0  0  0  0  0  0  0  0  0  0  0
    4.4391   -0.0218    1.5164 S   0  0  0  0  0  0  0  0  0  0  0  0
    5.2540   -1.2077    1.3662 O   0  0  0  0  0  0  0  0  0  0  0  0
    4.9533    1.3000    1.1726 O   0  0  0  0  0  0  0  0  0  0  0  0
    3.0481   -0.3127    0.7924 O   0  0  0  0  0  0  0  0  0  0  0  0
    3.8800    0.0766    3.0600 O   0  0  0  0  0  0  0  0  0  0  0  0
    4.5357    0.5868    3.5651 H   0  0  0  0  0  0  0  0  0  0  0  0
  1  6  1  0  0  0  0
  2  3  2  0  0  0  0
  2  1  1  0  0  0  0
  3  4  1  0  0  0  0
  4 17  1  0  0  0  0
  4 13  1  1  0  0  0
  4  5  1  0  0  0  0
  5 12  1  0  0  0  0
  6  5  2  0  0  0  0
  6 11  1  0  0  0  0
  7  1  1  0  0  0  0
  8  2  1  0  0  0  0
  9  3  1  0  0  0  0
 10  9  1  0  0  0  0
 14 18  1  0  0  0  0
 15 14  2  0  0  0  0
 16 14  2  0  0  0  0
 17 14  1  0  0  0  0
 18 19  1  0  0  0  0
M  RAD  3   1   2   9   2  10   3
M  END
