Coordinates from ORCA-job Ph-N2-HSO4-B3LYPG-6-31G_dp-MTMO-d009-169-n800
 OpenBabel09051908053D

 19 18  0  0  0  0  0  0  0  0999 V2000
   -0.7931    0.5746   -0.7694 C   0  0  0  0  0  0  0  0  0  0  0  0
    0.5281    0.4036   -1.1802 C   0  0  0  0  0  0  0  0  0  0  0  0
    1.4707    0.2480   -0.1690 C   0  0  0  0  0  0  0  0  0  0  0  0
    1.2225    0.2424    1.1944 C   0  0  0  0  0  0  0  0  0  0  0  0
   -0.1162    0.3993    1.5608 C   0  0  0  0  0  0  0  0  0  0  0  0
   -1.1096    0.5710    0.5932 C   0  0  0  0  0  0  0  0  0  0  0  0
   -1.5692    0.7092   -1.5154 H   0  0  0  0  0  0  0  0  0  0  0  0
    0.8095    0.3969   -2.2267 H   0  0  0  0  0  0  0  0  0  0  0  0
    2.9112    0.0091   -0.6607 N   0  0  0  0  0  0  0  0  0  0  0  0
    3.6421   -0.4277   -1.3856 N   0  0  0  0  0  0  0  0  0  0  0  0
   -2.1415    0.7059    0.9019 H   0  0  0  0  0  0  0  0  0  0  0  0
   -0.3744    0.3950    2.6145 H   0  0  0  0  0  0  0  0  0  0  0  0
    2.0242    0.1155    1.9176 H   0  0  0  0  0  0  0  0  0  0  0  0
    4.7382    0.3424    1.6750 S   0  0  0  0  0  0  0  0  0  0  0  0
    5.5240   -0.5425    0.7962 O   0  0  0  0  0  0  0  0  0  0  0  0
    3.8665    1.2864    0.8622 O   0  0  0  0  0  0  0  0  0  0  0  0
    3.9902   -0.2760    2.7777 O   0  0  0  0  0  0  0  0  0  0  0  0
    5.8129    1.3404    2.4223 O   0  0  0  0  0  0  0  0  0  0  0  0
    6.5256    1.4978    1.7828 H   0  0  0  0  0  0  0  0  0  0  0  0
  1  6  1  0  0  0  0
  2  1  2  0  0  0  0
  2  3  1  0  0  0  0
  3  4  2  0  0  0  0
  4  5  1  0  0  0  0
  4 13  1  0  0  0  0
  5 12  1  0  0  0  0
  6 11  1  0  0  0  0
  6  5  2  0  0  0  0
  7  1  1  0  0  0  0
  8  2  1  0  0  0  0
  9  3  1  0  0  0  0
 10  9  2  0  0  0  0
 14 18  1  0  0  0  0
 14 17  1  0  0  0  0
 15 14  2  0  0  0  0
 16 14  2  0  0  0  0
 19 18  1  0  0  0  0
M  RAD  2  10   2  17   2
M  END
