Coordinates from ORCA-job Ph-N2-HSO4-B3LYPG-6-31G_dp-MTMO-d009-169-n800
 OpenBabel09051908053D

 19 19  0  0  1  0  0  0  0  0999 V2000
   -0.5367   -0.1133   -0.2759 C   0  0  0  0  0  0  0  0  0  0  0  0
    0.3615    0.2648   -1.2093 C   0  0  0  0  0  0  0  0  0  0  0  0
    1.6376    0.8811   -0.8181 C   0  0  0  0  0  0  0  0  0  0  0  0
    2.0477    0.8453    0.6498 C   0  0  1  0  0  0  0  0  0  0  0  0
    0.9162    0.5678    1.5744 C   0  0  0  0  0  0  0  0  0  0  0  0
   -0.2651    0.0914    1.1343 C   0  0  0  0  0  0  0  0  0  0  0  0
   -1.4789   -0.5577   -0.5779 H   0  0  0  0  0  0  0  0  0  0  0  0
    0.1785    0.1479   -2.2731 H   0  0  0  0  0  0  0  0  0  0  0  0
    2.3234    1.3270   -1.5539 N   0  0  0  0  0  0  0  0  0  0  0  0
    3.0452    1.7968   -2.3244 N   0  0  0  0  0  0  0  0  0  0  0  0
   -1.0495   -0.1379    1.8500 H   0  0  0  0  0  0  0  0  0  0  0  0
    1.1110    0.7176    2.6309 H   0  0  0  0  0  0  0  0  0  0  0  0
    2.6064    1.7485    0.9064 H   0  0  0  0  0  0  0  0  0  0  0  0
    4.4400   -0.0145    1.5181 S   0  0  0  0  0  0  0  0  0  0  0  0
    5.2538   -1.1961    1.3401 O   0  0  0  0  0  0  0  0  0  0  0  0
    4.9492    1.3174    1.2122 O   0  0  0  0  0  0  0  0  0  0  0  0
    3.0515   -0.2944    0.7733 O   0  0  0  0  0  0  0  0  0  0  0  0
    3.8662    0.0406    3.0573 O   0  0  0  0  0  0  0  0  0  0  0  0
    4.5037    0.5590    3.5773 H   0  0  0  0  0  0  0  0  0  0  0  0
  1  6  1  0  0  0  0
  2  3  2  0  0  0  0
  2  1  1  0  0  0  0
  3  4  1  0  0  0  0
  4 17  1  0  0  0  0
  4 13  1  1  0  0  0
  4  5  1  0  0  0  0
  5 12  1  0  0  0  0
  6  5  2  0  0  0  0
  6 11  1  0  0  0  0
  7  1  1  0  0  0  0
  8  2  1  0  0  0  0
  9  3  1  0  0  0  0
 10  9  1  0  0  0  0
 14 18  1  0  0  0  0
 15 14  2  0  0  0  0
 16 14  2  0  0  0  0
 17 14  1  0  0  0  0
 18 19  1  0  0  0  0
M  RAD  3   1   2   9   2  10   3
M  END
