Coordinates from ORCA-job Ph-N2-HSO4-B3LYPG-6-31G_dp-MTMO-d009-169-n800
 OpenBabel09051908053D

 19 18  0  0  0  0  0  0  0  0999 V2000
   -1.2022    0.9770    0.4719 C   0  0  0  0  0  0  0  0  0  0  0  0
    0.0651    0.4133    0.3175 C   0  0  0  0  0  0  0  0  0  0  0  0
    0.6431   -0.2385    1.4028 C   0  0  0  0  0  0  0  0  0  0  0  0
   -0.0003   -0.3410    2.6328 C   0  0  0  0  0  0  0  0  0  0  0  0
   -1.2652    0.2301    2.7735 C   0  0  0  0  0  0  0  0  0  0  0  0
   -1.8667    0.8865    1.6969 C   0  0  0  0  0  0  0  0  0  0  0  0
   -1.6683    1.4850   -0.3667 H   0  0  0  0  0  0  0  0  0  0  0  0
    0.6007    0.4682   -0.6237 H   0  0  0  0  0  0  0  0  0  0  0  0
   12.4939    1.6549   -6.7652 N   0  0  0  0  0  0  0  0  0  0  0  0
   13.5413    1.7288   -7.1104 N   0  0  0  0  0  0  0  0  0  0  0  0
   -2.8528    1.3252    1.8119 H   0  0  0  0  0  0  0  0  0  0  0  0
   -1.7813    0.1589    3.7262 H   0  0  0  0  0  0  0  0  0  0  0  0
    0.4871   -0.8533    3.4541 H   0  0  0  0  0  0  0  0  0  0  0  0
    3.2517   -0.1265    1.7062 S   0  0  0  0  0  0  0  0  0  0  0  0
    4.2953   -1.1137    1.5199 O   0  0  0  0  0  0  0  0  0  0  0  0
    1.8837   -0.8844    1.2155 O   0  0  0  0  0  0  0  0  0  0  0  0
    3.0157    0.5769    2.9459 O   0  0  0  0  0  0  0  0  0  0  0  0
    3.4166    1.0215    0.5616 O   0  0  0  0  0  0  0  0  0  0  0  0
    3.9043    0.6225   -0.1792 H   0  0  0  0  0  0  0  0  0  0  0  0
  1  6  1  0  0  0  0
  2  1  2  0  0  0  0
  2  3  1  0  0  0  0
  3  4  2  0  0  0  0
  4  5  1  0  0  0  0
  4 13  1  0  0  0  0
  5 12  1  0  0  0  0
  6 11  1  0  0  0  0
  6  5  2  0  0  0  0
  7  1  1  0  0  0  0
  8  2  1  0  0  0  0
 10  9  3  0  0  0  0
 14 17  2  0  0  0  0
 15 14  2  0  0  0  0
 16  3  1  0  0  0  0
 16 14  1  0  0  0  0
 18 14  1  0  0  0  0
 19 18  1  0  0  0  0
M  END
