Coordinates from ORCA-job Ph-N2-HSO4-B3LYPG-6-31G_dp-MTMO-d009-169-n800
 OpenBabel09051908053D

 19 17  0  0  0  0  0  0  0  0999 V2000
   -1.0262    0.7645   -0.4923 C   0  0  0  0  0  0  0  0  0  0  0  0
    0.1019    0.4516   -1.2883 C   0  0  0  0  0  0  0  0  0  0  0  0
    1.1244    0.1876   -0.4276 C   0  0  0  0  0  0  0  0  0  0  0  0
    1.3449    0.1484    0.8183 C   0  0  0  0  0  0  0  0  0  0  0  0
    0.2125    0.4601    1.6103 C   0  0  0  0  0  0  0  0  0  0  0  0
   -0.9673    0.7668    0.9120 C   0  0  0  0  0  0  0  0  0  0  0  0
   -1.9574    1.0074   -0.9972 H   0  0  0  0  0  0  0  0  0  0  0  0
    0.1047    0.4359   -2.3698 H   0  0  0  0  0  0  0  0  0  0  0  0
    2.9848   -0.5242   -2.0706 N   0  0  0  0  0  0  0  0  0  0  0  0
    3.9303   -1.0671   -2.2498 N   0  0  0  0  0  0  0  0  0  0  0  0
   -1.8642    1.0152    1.4729 H   0  0  0  0  0  0  0  0  0  0  0  0
    0.2425    0.4682    2.6962 H   0  0  0  0  0  0  0  0  0  0  0  0
    2.9249   -0.2026    1.6497 H   0  0  0  0  0  0  0  0  0  0  0  0
    5.0094    0.3933    1.6609 S   0  0  0  0  0  0  0  0  0  0  0  0
    6.1754   -0.2140    2.2726 O   0  0  0  0  0  0  0  0  0  0  0  0
    4.8793    0.6034    0.2325 O   0  0  0  0  0  0  0  0  0  0  0  0
    3.7389   -0.4086    2.2103 O   0  0  0  0  0  0  0  0  0  0  0  0
    4.8039    1.8687    2.3321 O   0  0  0  0  0  0  0  0  0  0  0  0
    5.1988    1.8367    3.2194 H   0  0  0  0  0  0  0  0  0  0  0  0
  1  6  1  0  0  0  0
  2  1  2  0  0  0  0
  2  3  1  0  0  0  0
  3  4  2  0  0  0  0
  4  5  1  0  0  0  0
  5 12  1  0  0  0  0
  6 11  1  0  0  0  0
  6  5  2  0  0  0  0
  7  1  1  0  0  0  0
  8  2  1  0  0  0  0
 10  9  3  0  0  0  0
 13 17  1  0  0  0  0
 14 17  1  0  0  0  0
 14 15  2  0  0  0  0
 14 18  1  0  0  0  0
 16 14  2  0  0  0  0
 18 19  1  0  0  0  0
M  RAD  2   3   2   4   2
M  END
