Coordinates from ORCA-job Ph-N2-HSO4-B3LYPG-6-31G_dp-MTMO-d009-169-n800
 OpenBabel09051908053D

 19 18  0  0  0  0  0  0  0  0999 V2000
   -0.8128    0.5503   -0.7632 C   0  0  0  0  0  0  0  0  0  0  0  0
    0.5100    0.4020   -1.1858 C   0  0  0  0  0  0  0  0  0  0  0  0
    1.4449    0.2757   -0.1717 C   0  0  0  0  0  0  0  0  0  0  0  0
    1.2271    0.2741    1.1897 C   0  0  0  0  0  0  0  0  0  0  0  0
   -0.1147    0.4101    1.5633 C   0  0  0  0  0  0  0  0  0  0  0  0
   -1.1182    0.5531    0.6016 C   0  0  0  0  0  0  0  0  0  0  0  0
   -1.5968    0.6624   -1.5048 H   0  0  0  0  0  0  0  0  0  0  0  0
    0.7864    0.3910   -2.2331 H   0  0  0  0  0  0  0  0  0  0  0  0
    2.9621    0.0540   -0.6971 N   0  0  0  0  0  0  0  0  0  0  0  0
    3.6553   -0.3726   -1.4624 N   0  0  0  0  0  0  0  0  0  0  0  0
   -2.1501    0.6696    0.9172 H   0  0  0  0  0  0  0  0  0  0  0  0
   -0.3641    0.4096    2.6192 H   0  0  0  0  0  0  0  0  0  0  0  0
    2.0377    0.1653    1.9071 H   0  0  0  0  0  0  0  0  0  0  0  0
    4.7414    0.3289    1.6875 S   0  0  0  0  0  0  0  0  0  0  0  0
    5.5292   -0.5959    0.8565 O   0  0  0  0  0  0  0  0  0  0  0  0
    3.9136    1.2762    0.8284 O   0  0  0  0  0  0  0  0  0  0  0  0
    3.9468   -0.2389    2.7853 O   0  0  0  0  0  0  0  0  0  0  0  0
    5.8147    1.3260    2.4377 O   0  0  0  0  0  0  0  0  0  0  0  0
    6.5493    1.4504    1.8159 H   0  0  0  0  0  0  0  0  0  0  0  0
  1  6  1  0  0  0  0
  2  1  2  0  0  0  0
  2  3  1  0  0  0  0
  3  4  2  0  0  0  0
  4  5  1  0  0  0  0
  4 13  1  0  0  0  0
  5 12  1  0  0  0  0
  6 11  1  0  0  0  0
  6  5  2  0  0  0  0
  7  1  1  0  0  0  0
  8  2  1  0  0  0  0
  9  3  1  0  0  0  0
 10  9  2  0  0  0  0
 14 18  1  0  0  0  0
 14 17  1  0  0  0  0
 15 14  2  0  0  0  0
 16 14  2  0  0  0  0
 19 18  1  0  0  0  0
M  RAD  2  10   2  17   2
M  END
