Coordinates from ORCA-job Ph-N2-HSO4-B3LYPG-6-31G_dp-MTMO-d009-169-n800
 OpenBabel09051908053D

 19 18  0  0  0  0  0  0  0  0999 V2000
   -0.2029    1.0443   -0.1582 C   0  0  0  0  0  0  0  0  0  0  0  0
    1.1446    0.6948   -0.2557 C   0  0  0  0  0  0  0  0  0  0  0  0
    1.7329   -0.0090    0.7914 C   0  0  0  0  0  0  0  0  0  0  0  0
    1.0170   -0.3707    1.9297 C   0  0  0  0  0  0  0  0  0  0  0  0
   -0.3280   -0.0107    2.0160 C   0  0  0  0  0  0  0  0  0  0  0  0
   -0.9387    0.6944    0.9760 C   0  0  0  0  0  0  0  0  0  0  0  0
   -0.6751    1.5902   -0.9694 H   0  0  0  0  0  0  0  0  0  0  0  0
    1.7343    0.9538   -1.1279 H   0  0  0  0  0  0  0  0  0  0  0  0
    4.6485    0.3166   -2.0784 N   0  0  0  0  0  0  0  0  0  0  0  0
    4.6536   -0.4366   -2.8857 N   0  0  0  0  0  0  0  0  0  0  0  0
   -1.9859    0.9709    1.0494 H   0  0  0  0  0  0  0  0  0  0  0  0
   -0.8988   -0.2848    2.8980 H   0  0  0  0  0  0  0  0  0  0  0  0
    1.5121   -0.9148    2.7255 H   0  0  0  0  0  0  0  0  0  0  0  0
    4.2545    0.4010    1.4278 S   0  0  0  0  0  0  0  0  0  0  0  0
    5.4546   -0.3554    1.1354 O   0  0  0  0  0  0  0  0  0  0  0  0
    3.0689   -0.4314    0.6469 O   0  0  0  0  0  0  0  0  0  0  0  0
    3.8320    0.7516    2.7641 O   0  0  0  0  0  0  0  0  0  0  0  0
    4.2707    1.7880    0.5885 O   0  0  0  0  0  0  0  0  0  0  0  0
    4.6672    1.5993   -0.2819 H   0  0  0  0  0  0  0  0  0  0  0  0
  1  6  1  0  0  0  0
  2  1  2  0  0  0  0
  2  3  1  0  0  0  0
  3  4  2  0  0  0  0
  4  5  1  0  0  0  0
  4 13  1  0  0  0  0
  5 12  1  0  0  0  0
  6 11  1  0  0  0  0
  6  5  2  0  0  0  0
  7  1  1  0  0  0  0
  8  2  1  0  0  0  0
 10  9  3  0  0  0  0
 14 17  2  0  0  0  0
 15 14  2  0  0  0  0
 16  3  1  0  0  0  0
 16 14  1  0  0  0  0
 18 14  1  0  0  0  0
 19 18  1  0  0  0  0
M  END
