Coordinates from ORCA-job Ph-N2-HSO4-B3LYPG-6-31G_dp-MTMO-d009-169-n800
 OpenBabel09051908053D

 19 18  0  0  0  0  0  0  0  0999 V2000
   -1.3840    0.9570    0.5937 C   0  0  0  0  0  0  0  0  0  0  0  0
   -0.1180    0.3895    0.4426 C   0  0  0  0  0  0  0  0  0  0  0  0
    0.4566   -0.2610    1.5304 C   0  0  0  0  0  0  0  0  0  0  0  0
   -0.1887   -0.3586    2.7597 C   0  0  0  0  0  0  0  0  0  0  0  0
   -1.4523    0.2162    2.8972 C   0  0  0  0  0  0  0  0  0  0  0  0
   -2.0505    0.8715    1.8180 C   0  0  0  0  0  0  0  0  0  0  0  0
   -1.8476    1.4642   -0.2468 H   0  0  0  0  0  0  0  0  0  0  0  0
    0.4190    0.4405   -0.4980 H   0  0  0  0  0  0  0  0  0  0  0  0
   14.0673    1.8437   -7.8433 N   0  0  0  0  0  0  0  0  0  0  0  0
   15.1152    1.9218   -8.1860 N   0  0  0  0  0  0  0  0  0  0  0  0
   -3.0355    1.3132    1.9305 H   0  0  0  0  0  0  0  0  0  0  0  0
   -1.9698    0.1489    3.8493 H   0  0  0  0  0  0  0  0  0  0  0  0
    0.2961   -0.8702    3.5830 H   0  0  0  0  0  0  0  0  0  0  0  0
    3.0651   -0.1561    1.8382 S   0  0  0  0  0  0  0  0  0  0  0  0
    4.1062   -1.1464    1.6548 O   0  0  0  0  0  0  0  0  0  0  0  0
    1.6958   -0.9108    1.3464 O   0  0  0  0  0  0  0  0  0  0  0  0
    2.8291    0.5496    3.0766 O   0  0  0  0  0  0  0  0  0  0  0  0
    3.2349    0.9899    0.6922 O   0  0  0  0  0  0  0  0  0  0  0  0
    3.7231    0.5886   -0.0469 H   0  0  0  0  0  0  0  0  0  0  0  0
  1  6  1  0  0  0  0
  2  1  2  0  0  0  0
  2  3  1  0  0  0  0
  3  4  2  0  0  0  0
  4  5  1  0  0  0  0
  4 13  1  0  0  0  0
  5 12  1  0  0  0  0
  6 11  1  0  0  0  0
  6  5  2  0  0  0  0
  7  1  1  0  0  0  0
  8  2  1  0  0  0  0
 10  9  3  0  0  0  0
 14 17  2  0  0  0  0
 15 14  2  0  0  0  0
 16  3  1  0  0  0  0
 16 14  1  0  0  0  0
 18 14  1  0  0  0  0
 19 18  1  0  0  0  0
M  END
