Coordinates from ORCA-job Ph-N2-HSO4-B3LYPG-6-31G_dp-MTMO-d009-169-n800
 OpenBabel09051908053D

 19 18  0  0  0  0  0  0  0  0999 V2000
   -1.2340    0.9735    0.4929 C   0  0  0  0  0  0  0  0  0  0  0  0
    0.0329    0.4087    0.3396 C   0  0  0  0  0  0  0  0  0  0  0  0
    0.6099   -0.2426    1.4256 C   0  0  0  0  0  0  0  0  0  0  0  0
   -0.0340   -0.3437    2.6554 C   0  0  0  0  0  0  0  0  0  0  0  0
   -1.2986    0.2284    2.7951 C   0  0  0  0  0  0  0  0  0  0  0  0
   -1.8992    0.8844    1.7177 C   0  0  0  0  0  0  0  0  0  0  0  0
   -1.6994    1.4812   -0.3462 H   0  0  0  0  0  0  0  0  0  0  0  0
    0.5690    0.4625   -0.6014 H   0  0  0  0  0  0  0  0  0  0  0  0
   12.7725    1.6892   -6.9575 N   0  0  0  0  0  0  0  0  0  0  0  0
   13.8201    1.7642   -7.3018 N   0  0  0  0  0  0  0  0  0  0  0  0
   -2.8849    1.3239    1.8320 H   0  0  0  0  0  0  0  0  0  0  0  0
   -1.8151    0.1583    3.7476 H   0  0  0  0  0  0  0  0  0  0  0  0
    0.4526   -0.8558    3.4773 H   0  0  0  0  0  0  0  0  0  0  0  0
    3.2185   -0.1325    1.7304 S   0  0  0  0  0  0  0  0  0  0  0  0
    4.2614   -1.1205    1.5450 O   0  0  0  0  0  0  0  0  0  0  0  0
    1.8502   -0.8896    1.2394 O   0  0  0  0  0  0  0  0  0  0  0  0
    2.9824    0.5715    2.9697 O   0  0  0  0  0  0  0  0  0  0  0  0
    3.3847    1.0149    0.5854 O   0  0  0  0  0  0  0  0  0  0  0  0
    3.8727    0.6152   -0.1549 H   0  0  0  0  0  0  0  0  0  0  0  0
  1  6  1  0  0  0  0
  2  1  2  0  0  0  0
  2  3  1  0  0  0  0
  3  4  2  0  0  0  0
  4  5  1  0  0  0  0
  4 13  1  0  0  0  0
  5 12  1  0  0  0  0
  6 11  1  0  0  0  0
  6  5  2  0  0  0  0
  7  1  1  0  0  0  0
  8  2  1  0  0  0  0
 10  9  3  0  0  0  0
 14 17  2  0  0  0  0
 15 14  2  0  0  0  0
 16  3  1  0  0  0  0
 16 14  1  0  0  0  0
 18 14  1  0  0  0  0
 19 18  1  0  0  0  0
M  END
