Coordinates from ORCA-job Ph-N2-HSO4-B3LYPG-6-31G_dp-MTMO-d009-169-n800
 OpenBabel09051908053D

 19 18  0  0  0  0  0  0  0  0999 V2000
   -0.5379    0.9989    0.0445 C   0  0  0  0  0  0  0  0  0  0  0  0
    0.7616    0.5470   -0.1886 C   0  0  0  0  0  0  0  0  0  0  0  0
    1.4439   -0.0906    0.8435 C   0  0  0  0  0  0  0  0  0  0  0  0
    0.8721   -0.2865    2.0973 C   0  0  0  0  0  0  0  0  0  0  0  0
   -0.4260    0.1748    2.3174 C   0  0  0  0  0  0  0  0  0  0  0  0
   -1.1313    0.8146    1.2951 C   0  0  0  0  0  0  0  0  0  0  0  0
   -1.0844    1.4939   -0.7524 H   0  0  0  0  0  0  0  0  0  0  0  0
    1.2449    0.6769   -1.1505 H   0  0  0  0  0  0  0  0  0  0  0  0
    6.0862    0.6430   -2.1753 N   0  0  0  0  0  0  0  0  0  0  0  0
    6.9162    0.2543   -2.7907 N   0  0  0  0  0  0  0  0  0  0  0  0
   -2.1421    1.1678    1.4731 H   0  0  0  0  0  0  0  0  0  0  0  0
   -0.8865    0.0304    3.2900 H   0  0  0  0  0  0  0  0  0  0  0  0
    1.4389   -0.7832    2.8757 H   0  0  0  0  0  0  0  0  0  0  0  0
    4.0486    0.2098    1.0583 S   0  0  0  0  0  0  0  0  0  0  0  0
    5.1582   -0.6658    0.7356 O   0  0  0  0  0  0  0  0  0  0  0  0
    2.7215   -0.6220    0.5690 O   0  0  0  0  0  0  0  0  0  0  0  0
    3.8236    0.7677    2.3728 O   0  0  0  0  0  0  0  0  0  0  0  0
    4.0545    1.4576    0.0225 O   0  0  0  0  0  0  0  0  0  0  0  0
    4.5999    1.2029   -0.7458 H   0  0  0  0  0  0  0  0  0  0  0  0
  1  6  1  0  0  0  0
  2  1  2  0  0  0  0
  2  3  1  0  0  0  0
  3  4  2  0  0  0  0
  4  5  1  0  0  0  0
  4 13  1  0  0  0  0
  5 12  1  0  0  0  0
  6 11  1  0  0  0  0
  6  5  2  0  0  0  0
  7  1  1  0  0  0  0
  8  2  1  0  0  0  0
 10  9  3  0  0  0  0
 14 17  2  0  0  0  0
 15 14  2  0  0  0  0
 16  3  1  0  0  0  0
 16 14  1  0  0  0  0
 18 14  1  0  0  0  0
 19 18  1  0  0  0  0
M  END
