Coordinates from ORCA-job Ph-N2-HSO4-B3LYPG-6-31G_dp-MTMO-d009-169-n800
 OpenBabel09051908053D

 19 18  0  0  0  0  0  0  0  0999 V2000
   -0.8406    1.0137    0.2394 C   0  0  0  0  0  0  0  0  0  0  0  0
    0.4322    0.4715    0.0559 C   0  0  0  0  0  0  0  0  0  0  0  0
    1.0386   -0.1853    1.1224 C   0  0  0  0  0  0  0  0  0  0  0  0
    0.4184   -0.3139    2.3617 C   0  0  0  0  0  0  0  0  0  0  0  0
   -0.8525    0.2356    2.5315 C   0  0  0  0  0  0  0  0  0  0  0  0
   -1.4824    0.8967    1.4742 C   0  0  0  0  0  0  0  0  0  0  0  0
   -1.3289    1.5255   -0.5842 H   0  0  0  0  0  0  0  0  0  0  0  0
    0.9506    0.5472   -0.8934 H   0  0  0  0  0  0  0  0  0  0  0  0
    9.1902    1.2296   -4.4073 N   0  0  0  0  0  0  0  0  0  0  0  0
   10.2284    1.2665   -4.7847 N   0  0  0  0  0  0  0  0  0  0  0  0
   -2.4728    1.3187    1.6121 H   0  0  0  0  0  0  0  0  0  0  0  0
   -1.3509    0.1440    3.4918 H   0  0  0  0  0  0  0  0  0  0  0  0
    0.9277   -0.8294    3.1675 H   0  0  0  0  0  0  0  0  0  0  0  0
    3.6505   -0.0343    1.3782 S   0  0  0  0  0  0  0  0  0  0  0  0
    4.7053   -1.0043    1.1671 O   0  0  0  0  0  0  0  0  0  0  0  0
    2.2856   -0.8095    0.9057 O   0  0  0  0  0  0  0  0  0  0  0  0
    3.4251    0.6567    2.6269 O   0  0  0  0  0  0  0  0  0  0  0  0
    3.7785    1.1243    0.2396 O   0  0  0  0  0  0  0  0  0  0  0  0
    4.2588    0.7382   -0.5128 H   0  0  0  0  0  0  0  0  0  0  0  0
  1  6  1  0  0  0  0
  2  1  2  0  0  0  0
  2  3  1  0  0  0  0
  3  4  2  0  0  0  0
  4  5  1  0  0  0  0
  4 13  1  0  0  0  0
  5 12  1  0  0  0  0
  6 11  1  0  0  0  0
  6  5  2  0  0  0  0
  7  1  1  0  0  0  0
  8  2  1  0  0  0  0
 10  9  3  0  0  0  0
 14 17  2  0  0  0  0
 15 14  2  0  0  0  0
 16  3  1  0  0  0  0
 16 14  1  0  0  0  0
 18 14  1  0  0  0  0
 19 18  1  0  0  0  0
M  END
