Coordinates from ORCA-job Ph-N2-HSO4-B3LYPG-6-31G_dp-MTMO-d009-169-n800
 OpenBabel09051908053D

 19 18  0  0  0  0  0  0  0  0999 V2000
   -0.9825    1.0004    0.3297 C   0  0  0  0  0  0  0  0  0  0  0  0
    0.2885    0.4492    0.1612 C   0  0  0  0  0  0  0  0  0  0  0  0
    0.8800   -0.2069    1.2364 C   0  0  0  0  0  0  0  0  0  0  0  0
    0.2467   -0.3260    2.4701 C   0  0  0  0  0  0  0  0  0  0  0  0
   -1.0221    0.2326    2.6249 C   0  0  0  0  0  0  0  0  0  0  0  0
   -1.6372    0.8932    1.5586 C   0  0  0  0  0  0  0  0  0  0  0  0
   -1.4592    1.5118   -0.5009 H   0  0  0  0  0  0  0  0  0  0  0  0
    0.8167    0.5172   -0.7834 H   0  0  0  0  0  0  0  0  0  0  0  0
   10.5147    1.4082   -5.3708 N   0  0  0  0  0  0  0  0  0  0  0  0
   11.5588    1.4483   -5.7310 N   0  0  0  0  0  0  0  0  0  0  0  0
   -2.6261    1.3222    1.6847 H   0  0  0  0  0  0  0  0  0  0  0  0
   -1.5306    0.1484    3.5806 H   0  0  0  0  0  0  0  0  0  0  0  0
    0.7446   -0.8413    3.2831 H   0  0  0  0  0  0  0  0  0  0  0  0
    3.4900   -0.0727    1.5189 S   0  0  0  0  0  0  0  0  0  0  0  0
    4.5407   -1.0497    1.3197 O   0  0  0  0  0  0  0  0  0  0  0  0
    2.1250   -0.8402    1.0347 O   0  0  0  0  0  0  0  0  0  0  0  0
    3.2571    0.6222    2.7640 O   0  0  0  0  0  0  0  0  0  0  0  0
    3.6360    1.0827    0.3792 O   0  0  0  0  0  0  0  0  0  0  0  0
    4.1206    0.6918   -0.3680 H   0  0  0  0  0  0  0  0  0  0  0  0
  1  6  1  0  0  0  0
  2  1  2  0  0  0  0
  2  3  1  0  0  0  0
  3  4  2  0  0  0  0
  4  5  1  0  0  0  0
  4 13  1  0  0  0  0
  5 12  1  0  0  0  0
  6 11  1  0  0  0  0
  6  5  2  0  0  0  0
  7  1  1  0  0  0  0
  8  2  1  0  0  0  0
 10  9  3  0  0  0  0
 14 17  2  0  0  0  0
 15 14  2  0  0  0  0
 16  3  1  0  0  0  0
 16 14  1  0  0  0  0
 18 14  1  0  0  0  0
 19 18  1  0  0  0  0
M  END
