Coordinates from ORCA-job Ph-N2-HSO4-B3LYPG-6-31G_dp-MTMO-d009-169-n800
 OpenBabel09051908053D

 19 18  0  0  0  0  0  0  0  0999 V2000
   -1.2627    0.9703    0.5120 C   0  0  0  0  0  0  0  0  0  0  0  0
    0.0040    0.4048    0.3594 C   0  0  0  0  0  0  0  0  0  0  0  0
    0.5803   -0.2463    1.4460 C   0  0  0  0  0  0  0  0  0  0  0  0
   -0.0641   -0.3463    2.6757 C   0  0  0  0  0  0  0  0  0  0  0  0
   -1.3284    0.2266    2.8146 C   0  0  0  0  0  0  0  0  0  0  0  0
   -1.9283    0.8823    1.7367 C   0  0  0  0  0  0  0  0  0  0  0  0
   -1.7276    1.4778   -0.3275 H   0  0  0  0  0  0  0  0  0  0  0  0
    0.5404    0.4577   -0.5815 H   0  0  0  0  0  0  0  0  0  0  0  0
   13.0221    1.7195   -7.1291 N   0  0  0  0  0  0  0  0  0  0  0  0
   14.0698    1.7954   -7.4728 N   0  0  0  0  0  0  0  0  0  0  0  0
   -2.9138    1.3224    1.8504 H   0  0  0  0  0  0  0  0  0  0  0  0
   -1.8452    0.1574    3.7670 H   0  0  0  0  0  0  0  0  0  0  0  0
    0.4220   -0.8582    3.4980 H   0  0  0  0  0  0  0  0  0  0  0  0
    3.1888   -0.1376    1.7517 S   0  0  0  0  0  0  0  0  0  0  0  0
    4.2313   -1.1262    1.5669 O   0  0  0  0  0  0  0  0  0  0  0  0
    1.8203   -0.8940    1.2604 O   0  0  0  0  0  0  0  0  0  0  0  0
    2.9527    0.5670    2.9908 O   0  0  0  0  0  0  0  0  0  0  0  0
    3.3561    1.0094    0.6064 O   0  0  0  0  0  0  0  0  0  0  0  0
    3.8441    0.6092   -0.1335 H   0  0  0  0  0  0  0  0  0  0  0  0
  1  6  1  0  0  0  0
  2  1  2  0  0  0  0
  2  3  1  0  0  0  0
  3  4  2  0  0  0  0
  4  5  1  0  0  0  0
  4 13  1  0  0  0  0
  5 12  1  0  0  0  0
  6 11  1  0  0  0  0
  6  5  2  0  0  0  0
  7  1  1  0  0  0  0
  8  2  1  0  0  0  0
 10  9  3  0  0  0  0
 14 17  2  0  0  0  0
 15 14  2  0  0  0  0
 16  3  1  0  0  0  0
 16 14  1  0  0  0  0
 18 14  1  0  0  0  0
 19 18  1  0  0  0  0
M  END
