Coordinates from ORCA-job Ph-N2-HSO4-B3LYPG-6-31G_dp-MTMO-d009-169-n800
 OpenBabel09051908053D

 19 18  0  0  0  0  0  0  0  0999 V2000
   -0.7846    1.0176    0.2043 C   0  0  0  0  0  0  0  0  0  0  0  0
    0.4881    0.4783    0.0115 C   0  0  0  0  0  0  0  0  0  0  0  0
    1.1041   -0.1766    1.0737 C   0  0  0  0  0  0  0  0  0  0  0  0
    0.4935   -0.3059    2.3178 C   0  0  0  0  0  0  0  0  0  0  0  0
   -0.7773    0.2407    2.4969 C   0  0  0  0  0  0  0  0  0  0  0  0
   -1.4167    0.8998    1.4440 C   0  0  0  0  0  0  0  0  0  0  0  0
   -1.2803    1.5278   -0.6158 H   0  0  0  0  0  0  0  0  0  0  0  0
    0.9992    0.5547   -0.9417 H   0  0  0  0  0  0  0  0  0  0  0  0
    8.6390    1.1557   -3.9805 N   0  0  0  0  0  0  0  0  0  0  0  0
    9.6716    1.1952   -4.3726 N   0  0  0  0  0  0  0  0  0  0  0  0
   -2.4070    1.3195    1.5892 H   0  0  0  0  0  0  0  0  0  0  0  0
   -1.2682    0.1484    3.4609 H   0  0  0  0  0  0  0  0  0  0  0  0
    1.0102   -0.8199    3.1199 H   0  0  0  0  0  0  0  0  0  0  0  0
    3.7176   -0.0189    1.3086 S   0  0  0  0  0  0  0  0  0  0  0  0
    4.7727   -0.9877    1.0934 O   0  0  0  0  0  0  0  0  0  0  0  0
    2.3508   -0.7980    0.8480 O   0  0  0  0  0  0  0  0  0  0  0  0
    3.4995    0.6756    2.5566 O   0  0  0  0  0  0  0  0  0  0  0  0
    3.8360    1.1361    0.1654 O   0  0  0  0  0  0  0  0  0  0  0  0
    4.3135    0.7491   -0.5883 H   0  0  0  0  0  0  0  0  0  0  0  0
  1  6  1  0  0  0  0
  2  1  2  0  0  0  0
  2  3  1  0  0  0  0
  3  4  2  0  0  0  0
  4  5  1  0  0  0  0
  4 13  1  0  0  0  0
  5 12  1  0  0  0  0
  6 11  1  0  0  0  0
  6  5  2  0  0  0  0
  7  1  1  0  0  0  0
  8  2  1  0  0  0  0
 10  9  3  0  0  0  0
 14 17  2  0  0  0  0
 15 14  2  0  0  0  0
 16  3  1  0  0  0  0
 16 14  1  0  0  0  0
 18 14  1  0  0  0  0
 19 18  1  0  0  0  0
M  END
