Coordinates from ORCA-job Ph-N2-HSO4-B3LYPG-6-31G_dp-MTMO-d009-169-n800
 OpenBabel09051908053D

 19 18  0  0  0  0  0  0  0  0999 V2000
   -0.6248    1.0222    0.1300 C   0  0  0  0  0  0  0  0  0  0  0  0
    0.6587    0.5483   -0.1451 C   0  0  0  0  0  0  0  0  0  0  0  0
    1.3596   -0.1056    0.8638 C   0  0  0  0  0  0  0  0  0  0  0  0
    0.8235   -0.2965    2.1337 C   0  0  0  0  0  0  0  0  0  0  0  0
   -0.4597    0.1845    2.3950 C   0  0  0  0  0  0  0  0  0  0  0  0
   -1.1838    0.8414    1.3970 C   0  0  0  0  0  0  0  0  0  0  0  0
   -1.1863    1.5312   -0.6474 H   0  0  0  0  0  0  0  0  0  0  0  0
    1.1159    0.6756   -1.1200 H   0  0  0  0  0  0  0  0  0  0  0  0
    6.5207    0.7073   -2.1795 N   0  0  0  0  0  0  0  0  0  0  0  0
    7.5070    0.5266   -2.6417 N   0  0  0  0  0  0  0  0  0  0  0  0
   -2.1827    1.2106    1.6067 H   0  0  0  0  0  0  0  0  0  0  0  0
   -0.8931    0.0433    3.3804 H   0  0  0  0  0  0  0  0  0  0  0  0
    1.4056   -0.8071    2.8919 H   0  0  0  0  0  0  0  0  0  0  0  0
    3.9753    0.1846    0.9251 S   0  0  0  0  0  0  0  0  0  0  0  0
    5.0606   -0.7562    0.7271 O   0  0  0  0  0  0  0  0  0  0  0  0
    2.6201   -0.6617    0.5561 O   0  0  0  0  0  0  0  0  0  0  0  0
    3.7695    0.9260    2.1492 O   0  0  0  0  0  0  0  0  0  0  0  0
    4.0207    1.2710   -0.2825 O   0  0  0  0  0  0  0  0  0  0  0  0
    4.6549    0.9457   -0.9485 H   0  0  0  0  0  0  0  0  0  0  0  0
  1  6  1  0  0  0  0
  2  1  2  0  0  0  0
  2  3  1  0  0  0  0
  3  4  2  0  0  0  0
  4  5  1  0  0  0  0
  4 13  1  0  0  0  0
  5 12  1  0  0  0  0
  6 11  1  0  0  0  0
  6  5  2  0  0  0  0
  7  1  1  0  0  0  0
  8  2  1  0  0  0  0
 10  9  3  0  0  0  0
 14 17  2  0  0  0  0
 15 14  2  0  0  0  0
 16  3  1  0  0  0  0
 16 14  1  0  0  0  0
 18 14  1  0  0  0  0
 19 18  1  0  0  0  0
M  END
