Coordinates from ORCA-job Ph-N2-HSO4-B3LYPG-6-31G_dp-MTMO-d009-169-n800
 OpenBabel09051908053D

 19 18  0  0  0  0  0  0  0  0999 V2000
   -1.0409    0.9944    0.3669 C   0  0  0  0  0  0  0  0  0  0  0  0
    0.2289    0.4390    0.2035 C   0  0  0  0  0  0  0  0  0  0  0  0
    0.8156   -0.2158    1.2822 C   0  0  0  0  0  0  0  0  0  0  0  0
    0.1786   -0.3294    2.5145 C   0  0  0  0  0  0  0  0  0  0  0  0
   -1.0891    0.2333    2.6643 C   0  0  0  0  0  0  0  0  0  0  0  0
   -1.6993    0.8926    1.5944 C   0  0  0  0  0  0  0  0  0  0  0  0
   -1.5138    1.5047   -0.4664 H   0  0  0  0  0  0  0  0  0  0  0  0
    0.7599    0.5027   -0.7398 H   0  0  0  0  0  0  0  0  0  0  0  0
   11.0506    1.4746   -5.7536 N   0  0  0  0  0  0  0  0  0  0  0  0
   12.0960    1.5301   -6.1080 N   0  0  0  0  0  0  0  0  0  0  0  0
   -2.6873    1.3249    1.7166 H   0  0  0  0  0  0  0  0  0  0  0  0
   -1.6003    0.1534    3.6188 H   0  0  0  0  0  0  0  0  0  0  0  0
    0.6727   -0.8438    3.3304 H   0  0  0  0  0  0  0  0  0  0  0  0
    3.4251   -0.0890    1.5723 S   0  0  0  0  0  0  0  0  0  0  0  0
    4.4735   -1.0695    1.3778 O   0  0  0  0  0  0  0  0  0  0  0  0
    2.0592   -0.8534    1.0857 O   0  0  0  0  0  0  0  0  0  0  0  0
    3.1909    0.6090    2.8154 O   0  0  0  0  0  0  0  0  0  0  0  0
    3.5778    1.0637    0.4307 O   0  0  0  0  0  0  0  0  0  0  0  0
    4.0635    0.6699   -0.3142 H   0  0  0  0  0  0  0  0  0  0  0  0
  1  6  1  0  0  0  0
  2  1  2  0  0  0  0
  2  3  1  0  0  0  0
  3  4  2  0  0  0  0
  4  5  1  0  0  0  0
  4 13  1  0  0  0  0
  5 12  1  0  0  0  0
  6 11  1  0  0  0  0
  6  5  2  0  0  0  0
  7  1  1  0  0  0  0
  8  2  1  0  0  0  0
 10  9  3  0  0  0  0
 14 17  2  0  0  0  0
 15 14  2  0  0  0  0
 16  3  1  0  0  0  0
 16 14  1  0  0  0  0
 18 14  1  0  0  0  0
 19 18  1  0  0  0  0
M  END
