Coordinates from ORCA-job Ph-N2-HSO4-B3LYPG-6-31G_dp-MTMO-d009-169-n800
 OpenBabel09051908053D

 19 18  0  0  0  0  0  0  0  0999 V2000
   -1.3892    0.9565    0.5972 C   0  0  0  0  0  0  0  0  0  0  0  0
   -0.1232    0.3889    0.4461 C   0  0  0  0  0  0  0  0  0  0  0  0
    0.4514   -0.2617    1.5339 C   0  0  0  0  0  0  0  0  0  0  0  0
   -0.1940   -0.3592    2.7633 C   0  0  0  0  0  0  0  0  0  0  0  0
   -1.4575    0.2157    2.9007 C   0  0  0  0  0  0  0  0  0  0  0  0
   -2.0557    0.8710    1.8215 C   0  0  0  0  0  0  0  0  0  0  0  0
   -1.8528    1.4636   -0.2433 H   0  0  0  0  0  0  0  0  0  0  0  0
    0.4139    0.4398   -0.4945 H   0  0  0  0  0  0  0  0  0  0  0  0
   14.1115    1.8488   -7.8735 N   0  0  0  0  0  0  0  0  0  0  0  0
   15.1594    1.9270   -8.2161 N   0  0  0  0  0  0  0  0  0  0  0  0
   -3.0407    1.3127    1.9340 H   0  0  0  0  0  0  0  0  0  0  0  0
   -1.9751    0.1485    3.8528 H   0  0  0  0  0  0  0  0  0  0  0  0
    0.2908   -0.8708    3.5866 H   0  0  0  0  0  0  0  0  0  0  0  0
    3.0598   -0.1568    1.8417 S   0  0  0  0  0  0  0  0  0  0  0  0
    4.1009   -1.1471    1.6584 O   0  0  0  0  0  0  0  0  0  0  0  0
    1.6905   -0.9115    1.3499 O   0  0  0  0  0  0  0  0  0  0  0  0
    2.8239    0.5489    3.0802 O   0  0  0  0  0  0  0  0  0  0  0  0
    3.2297    0.9892    0.6958 O   0  0  0  0  0  0  0  0  0  0  0  0
    3.7179    0.5878   -0.0433 H   0  0  0  0  0  0  0  0  0  0  0  0
  1  6  1  0  0  0  0
  2  1  2  0  0  0  0
  2  3  1  0  0  0  0
  3  4  2  0  0  0  0
  4  5  1  0  0  0  0
  4 13  1  0  0  0  0
  5 12  1  0  0  0  0
  6 11  1  0  0  0  0
  6  5  2  0  0  0  0
  7  1  1  0  0  0  0
  8  2  1  0  0  0  0
 10  9  3  0  0  0  0
 14 17  2  0  0  0  0
 15 14  2  0  0  0  0
 16  3  1  0  0  0  0
 16 14  1  0  0  0  0
 18 14  1  0  0  0  0
 19 18  1  0  0  0  0
M  END
