Coordinates from ORCA-job Ph-N2-HSO4-B3LYPG-6-31G_dp-MTMO-d009-169-n800
 OpenBabel09051908053D

 19 18  0  0  0  0  0  0  0  0999 V2000
   -1.1922    0.9781    0.4653 C   0  0  0  0  0  0  0  0  0  0  0  0
    0.0752    0.4147    0.3106 C   0  0  0  0  0  0  0  0  0  0  0  0
    0.6535   -0.2371    1.3956 C   0  0  0  0  0  0  0  0  0  0  0  0
    0.0104   -0.3401    2.6257 C   0  0  0  0  0  0  0  0  0  0  0  0
   -1.2547    0.2305    2.7667 C   0  0  0  0  0  0  0  0  0  0  0  0
   -1.8565    0.8871    1.6903 C   0  0  0  0  0  0  0  0  0  0  0  0
   -1.6586    1.4862   -0.3731 H   0  0  0  0  0  0  0  0  0  0  0  0
    0.6107    0.4700   -0.6307 H   0  0  0  0  0  0  0  0  0  0  0  0
   12.4060    1.6440   -6.7044 N   0  0  0  0  0  0  0  0  0  0  0  0
   13.4533    1.7175   -7.0499 N   0  0  0  0  0  0  0  0  0  0  0  0
   -2.8426    1.3255    1.8056 H   0  0  0  0  0  0  0  0  0  0  0  0
   -1.7705    0.1590    3.7194 H   0  0  0  0  0  0  0  0  0  0  0  0
    0.4981   -0.8526    3.4467 H   0  0  0  0  0  0  0  0  0  0  0  0
    3.2622   -0.1245    1.6985 S   0  0  0  0  0  0  0  0  0  0  0  0
    4.3060   -1.1114    1.5119 O   0  0  0  0  0  0  0  0  0  0  0  0
    1.8943   -0.8827    1.2079 O   0  0  0  0  0  0  0  0  0  0  0  0
    3.0262    0.5786    2.9383 O   0  0  0  0  0  0  0  0  0  0  0  0
    3.4266    1.0237    0.5540 O   0  0  0  0  0  0  0  0  0  0  0  0
    3.9142    0.6249   -0.1869 H   0  0  0  0  0  0  0  0  0  0  0  0
  1  6  1  0  0  0  0
  2  1  2  0  0  0  0
  2  3  1  0  0  0  0
  3  4  2  0  0  0  0
  4  5  1  0  0  0  0
  4 13  1  0  0  0  0
  5 12  1  0  0  0  0
  6 11  1  0  0  0  0
  6  5  2  0  0  0  0
  7  1  1  0  0  0  0
  8  2  1  0  0  0  0
 10  9  3  0  0  0  0
 14 17  2  0  0  0  0
 15 14  2  0  0  0  0
 16  3  1  0  0  0  0
 16 14  1  0  0  0  0
 18 14  1  0  0  0  0
 19 18  1  0  0  0  0
M  END
