Coordinates from ORCA-job Ph-N2-HSO4-B3LYPG-6-31G_dp-MTMO-d009-169-n800
 OpenBabel09051908053D

 19 18  0  0  0  0  0  0  0  0999 V2000
   -0.8011    1.0167    0.2145 C   0  0  0  0  0  0  0  0  0  0  0  0
    0.4718    0.4768    0.0252 C   0  0  0  0  0  0  0  0  0  0  0  0
    1.0843   -0.1792    1.0887 C   0  0  0  0  0  0  0  0  0  0  0  0
    0.4699   -0.3089    2.3309 C   0  0  0  0  0  0  0  0  0  0  0  0
   -0.8011    0.2384    2.5066 C   0  0  0  0  0  0  0  0  0  0  0  0
   -1.4370    0.8985    1.4522 C   0  0  0  0  0  0  0  0  0  0  0  0
   -1.2940    1.5278   -0.6067 H   0  0  0  0  0  0  0  0  0  0  0  0
    0.9858    0.5535   -0.9265 H   0  0  0  0  0  0  0  0  0  0  0  0
    8.8068    1.1762   -4.1156 N   0  0  0  0  0  0  0  0  0  0  0  0
    9.8416    1.2174   -4.5018 N   0  0  0  0  0  0  0  0  0  0  0  0
   -2.4275    1.3187    1.5948 H   0  0  0  0  0  0  0  0  0  0  0  0
   -1.2949    0.1457    3.4691 H   0  0  0  0  0  0  0  0  0  0  0  0
    0.9839   -0.8237    3.1342 H   0  0  0  0  0  0  0  0  0  0  0  0
    3.6971   -0.0234    1.3320 S   0  0  0  0  0  0  0  0  0  0  0  0
    4.7524   -0.9922    1.1177 O   0  0  0  0  0  0  0  0  0  0  0  0
    2.3313   -0.8012    0.8663 O   0  0  0  0  0  0  0  0  0  0  0  0
    3.4760    0.6688    2.5807 O   0  0  0  0  0  0  0  0  0  0  0  0
    3.8188    1.1338    0.1914 O   0  0  0  0  0  0  0  0  0  0  0  0
    4.2975    0.7478   -0.5622 H   0  0  0  0  0  0  0  0  0  0  0  0
  1  6  1  0  0  0  0
  2  1  2  0  0  0  0
  2  3  1  0  0  0  0
  3  4  2  0  0  0  0
  4  5  1  0  0  0  0
  4 13  1  0  0  0  0
  5 12  1  0  0  0  0
  6 11  1  0  0  0  0
  6  5  2  0  0  0  0
  7  1  1  0  0  0  0
  8  2  1  0  0  0  0
 10  9  3  0  0  0  0
 14 17  2  0  0  0  0
 15 14  2  0  0  0  0
 16  3  1  0  0  0  0
 16 14  1  0  0  0  0
 18 14  1  0  0  0  0
 19 18  1  0  0  0  0
M  END
