Coordinates from ORCA-job Ph-N2-HSO4-B3LYPG-6-31G_dp-MTMO-d009-169-n800
 OpenBabel09051908053D

 19 18  0  0  0  0  0  0  0  0999 V2000
   -0.8819    1.0101    0.2656 C   0  0  0  0  0  0  0  0  0  0  0  0
    0.3907    0.4657    0.0868 C   0  0  0  0  0  0  0  0  0  0  0  0
    0.9924   -0.1915    1.1557 C   0  0  0  0  0  0  0  0  0  0  0  0
    0.3677   -0.3182    2.3930 C   0  0  0  0  0  0  0  0  0  0  0  0
   -0.9028    0.2335    2.5582 C   0  0  0  0  0  0  0  0  0  0  0  0
   -1.5280    0.8950    1.4983 C   0  0  0  0  0  0  0  0  0  0  0  0
   -1.3665    1.5221   -0.5600 H   0  0  0  0  0  0  0  0  0  0  0  0
    0.9124    0.5399   -0.8609 H   0  0  0  0  0  0  0  0  0  0  0  0
    9.5778    1.2842   -4.6920 N   0  0  0  0  0  0  0  0  0  0  0  0
   10.6181    1.3147   -5.0641 N   0  0  0  0  0  0  0  0  0  0  0  0
   -2.5182    1.3187    1.6325 H   0  0  0  0  0  0  0  0  0  0  0  0
   -1.4046    0.1432    3.5168 H   0  0  0  0  0  0  0  0  0  0  0  0
    0.8735   -0.8341    3.2009 H   0  0  0  0  0  0  0  0  0  0  0  0
    3.6036   -0.0448    1.4208 S   0  0  0  0  0  0  0  0  0  0  0  0
    4.6576   -1.0163    1.2128 O   0  0  0  0  0  0  0  0  0  0  0  0
    2.2391   -0.8178    0.9436 O   0  0  0  0  0  0  0  0  0  0  0  0
    3.3753    0.6463    2.6689 O   0  0  0  0  0  0  0  0  0  0  0  0
    3.7369    1.1138    0.2828 O   0  0  0  0  0  0  0  0  0  0  0  0
    4.2186    0.7270   -0.4683 H   0  0  0  0  0  0  0  0  0  0  0  0
  1  6  1  0  0  0  0
  2  1  2  0  0  0  0
  2  3  1  0  0  0  0
  3  4  2  0  0  0  0
  4  5  1  0  0  0  0
  4 13  1  0  0  0  0
  5 12  1  0  0  0  0
  6 11  1  0  0  0  0
  6  5  2  0  0  0  0
  7  1  1  0  0  0  0
  8  2  1  0  0  0  0
 10  9  3  0  0  0  0
 14 17  2  0  0  0  0
 15 14  2  0  0  0  0
 16  3  1  0  0  0  0
 16 14  1  0  0  0  0
 18 14  1  0  0  0  0
 19 18  1  0  0  0  0
M  END
