Coordinates from ORCA-job Ph-N2-HSO4-B3LYPG-6-31G_dp-MTMO-d009-169-n800
 OpenBabel09051908053D

 19 18  0  0  0  0  0  0  0  0999 V2000
   -0.6443    1.0257    0.1493 C   0  0  0  0  0  0  0  0  0  0  0  0
    0.6331    0.5411   -0.1355 C   0  0  0  0  0  0  0  0  0  0  0  0
    1.3382   -0.1129    0.8703 C   0  0  0  0  0  0  0  0  0  0  0  0
    0.8128   -0.2939    2.1459 C   0  0  0  0  0  0  0  0  0  0  0  0
   -0.4646    0.1972    2.4167 C   0  0  0  0  0  0  0  0  0  0  0  0
   -1.1930    0.8546    1.4222 C   0  0  0  0  0  0  0  0  0  0  0  0
   -1.2093    1.5352   -0.6252 H   0  0  0  0  0  0  0  0  0  0  0  0
    1.0824    0.6606   -1.1150 H   0  0  0  0  0  0  0  0  0  0  0  0
    6.6321    0.7337   -2.1768 N   0  0  0  0  0  0  0  0  0  0  0  0
    7.6534    0.6351   -2.5849 N   0  0  0  0  0  0  0  0  0  0  0  0
   -2.1873    1.2319    1.6392 H   0  0  0  0  0  0  0  0  0  0  0  0
   -0.8900    0.0637    3.4066 H   0  0  0  0  0  0  0  0  0  0  0  0
    1.3984   -0.8053    2.9011 H   0  0  0  0  0  0  0  0  0  0  0  0
    3.9565    0.1665    0.8873 S   0  0  0  0  0  0  0  0  0  0  0  0
    5.0341   -0.7884    0.7171 O   0  0  0  0  0  0  0  0  0  0  0  0
    2.5924   -0.6802    0.5554 O   0  0  0  0  0  0  0  0  0  0  0  0
    3.7625    0.9531    2.0849 O   0  0  0  0  0  0  0  0  0  0  0  0
    4.0049    1.2084   -0.3603 O   0  0  0  0  0  0  0  0  0  0  0  0
    4.6494    0.8651   -1.0066 H   0  0  0  0  0  0  0  0  0  0  0  0
  1  6  1  0  0  0  0
  2  1  2  0  0  0  0
  2  3  1  0  0  0  0
  3  4  2  0  0  0  0
  4  5  1  0  0  0  0
  4 13  1  0  0  0  0
  5 12  1  0  0  0  0
  6 11  1  0  0  0  0
  6  5  2  0  0  0  0
  7  1  1  0  0  0  0
  8  2  1  0  0  0  0
 10  9  3  0  0  0  0
 14 17  2  0  0  0  0
 15 14  2  0  0  0  0
 16  3  1  0  0  0  0
 16 14  1  0  0  0  0
 18 14  1  0  0  0  0
 19 18  1  0  0  0  0
M  END
