Coordinates from ORCA-job Ph-N2-HSO4-B3LYPG-6-31G_dp-MTMO-d009-169-n800
 OpenBabel09051908053D

 19 18  0  0  0  0  0  0  0  0999 V2000
   -0.9653    1.0022    0.3187 C   0  0  0  0  0  0  0  0  0  0  0  0
    0.3060    0.4522    0.1486 C   0  0  0  0  0  0  0  0  0  0  0  0
    0.8992   -0.2043    1.2227 C   0  0  0  0  0  0  0  0  0  0  0  0
    0.2671   -0.3249    2.4569 C   0  0  0  0  0  0  0  0  0  0  0  0
   -1.0021    0.2324    2.6134 C   0  0  0  0  0  0  0  0  0  0  0  0
   -1.6188    0.8933    1.5481 C   0  0  0  0  0  0  0  0  0  0  0  0
   -1.4433    1.5138   -0.5110 H   0  0  0  0  0  0  0  0  0  0  0  0
    0.8333    0.5215   -0.7964 H   0  0  0  0  0  0  0  0  0  0  0  0
   10.3557    1.3880   -5.2565 N   0  0  0  0  0  0  0  0  0  0  0  0
   11.3993    1.4242   -5.6187 N   0  0  0  0  0  0  0  0  0  0  0  0
   -2.6080    1.3213    1.6756 H   0  0  0  0  0  0  0  0  0  0  0  0
   -1.5096    0.1470    3.5694 H   0  0  0  0  0  0  0  0  0  0  0  0
    0.7662   -0.8404    3.2690 H   0  0  0  0  0  0  0  0  0  0  0  0
    3.5093   -0.0678    1.5027 S   0  0  0  0  0  0  0  0  0  0  0  0
    4.5607   -1.0437    1.3020 O   0  0  0  0  0  0  0  0  0  0  0  0
    2.1445   -0.8362    1.0193 O   0  0  0  0  0  0  0  0  0  0  0  0
    3.2769    0.6262    2.7484 O   0  0  0  0  0  0  0  0  0  0  0  0
    3.6532    1.0884    0.3636 O   0  0  0  0  0  0  0  0  0  0  0  0
    4.1374    0.6983   -0.3843 H   0  0  0  0  0  0  0  0  0  0  0  0
  1  6  1  0  0  0  0
  2  1  2  0  0  0  0
  2  3  1  0  0  0  0
  3  4  2  0  0  0  0
  4  5  1  0  0  0  0
  4 13  1  0  0  0  0
  5 12  1  0  0  0  0
  6 11  1  0  0  0  0
  6  5  2  0  0  0  0
  7  1  1  0  0  0  0
  8  2  1  0  0  0  0
 10  9  3  0  0  0  0
 14 17  2  0  0  0  0
 15 14  2  0  0  0  0
 16  3  1  0  0  0  0
 16 14  1  0  0  0  0
 18 14  1  0  0  0  0
 19 18  1  0  0  0  0
M  END
