Coordinates from ORCA-job Ph-N2-HSO4-B3LYPG-6-31G_dp-MTMO-d009-169-n800
 OpenBabel09051908053D

 19 18  0  0  0  0  0  0  0  0999 V2000
   -1.1197    0.9860    0.4178 C   0  0  0  0  0  0  0  0  0  0  0  0
    0.1487    0.4259    0.2598 C   0  0  0  0  0  0  0  0  0  0  0  0
    0.7302   -0.2273    1.3423 C   0  0  0  0  0  0  0  0  0  0  0  0
    0.0894   -0.3346    2.5731 C   0  0  0  0  0  0  0  0  0  0  0  0
   -1.1768    0.2328    2.7176 C   0  0  0  0  0  0  0  0  0  0  0  0
   -1.7818    0.8905    1.6437 C   0  0  0  0  0  0  0  0  0  0  0  0
   -1.5886    1.4951   -0.4186 H   0  0  0  0  0  0  0  0  0  0  0  0
    0.6825    0.4846   -0.6823 H   0  0  0  0  0  0  0  0  0  0  0  0
   11.7632    1.5636   -6.2566 N   0  0  0  0  0  0  0  0  0  0  0  0
   12.8097    1.6321   -6.6054 N   0  0  0  0  0  0  0  0  0  0  0  0
   -2.7687    1.3265    1.7617 H   0  0  0  0  0  0  0  0  0  0  0  0
   -1.6910    0.1578    3.6709 H   0  0  0  0  0  0  0  0  0  0  0  0
    0.5795   -0.8479    3.3922 H   0  0  0  0  0  0  0  0  0  0  0  0
    3.3392   -0.1088    1.6403 S   0  0  0  0  0  0  0  0  0  0  0  0
    4.3849   -1.0931    1.4507 O   0  0  0  0  0  0  0  0  0  0  0  0
    1.9722   -0.8695    1.1512 O   0  0  0  0  0  0  0  0  0  0  0  0
    3.1037    0.5922    2.8814 O   0  0  0  0  0  0  0  0  0  0  0  0
    3.4990    1.0412    0.4970 O   0  0  0  0  0  0  0  0  0  0  0  0
    3.9860    0.6443   -0.2454 H   0  0  0  0  0  0  0  0  0  0  0  0
  1  6  1  0  0  0  0
  2  1  2  0  0  0  0
  2  3  1  0  0  0  0
  3  4  2  0  0  0  0
  4  5  1  0  0  0  0
  4 13  1  0  0  0  0
  5 12  1  0  0  0  0
  6 11  1  0  0  0  0
  6  5  2  0  0  0  0
  7  1  1  0  0  0  0
  8  2  1  0  0  0  0
 10  9  3  0  0  0  0
 14 17  2  0  0  0  0
 15 14  2  0  0  0  0
 16  3  1  0  0  0  0
 16 14  1  0  0  0  0
 18 14  1  0  0  0  0
 19 18  1  0  0  0  0
M  END
