Coordinates from ORCA-job Ph-N2-HSO4-B3LYPG-6-31G_dp-MTMO-d009-169-n800
 OpenBabel09051908053D

 19 18  0  0  0  0  0  0  0  0999 V2000
   -1.1756    0.9799    0.4543 C   0  0  0  0  0  0  0  0  0  0  0  0
    0.0921    0.4172    0.2990 C   0  0  0  0  0  0  0  0  0  0  0  0
    0.6710   -0.2349    1.3835 C   0  0  0  0  0  0  0  0  0  0  0  0
    0.0283   -0.3388    2.6137 C   0  0  0  0  0  0  0  0  0  0  0  0
   -1.2370    0.2312    2.7554 C   0  0  0  0  0  0  0  0  0  0  0  0
   -1.8395    0.8880    1.6796 C   0  0  0  0  0  0  0  0  0  0  0  0
   -1.6425    1.4883   -0.3836 H   0  0  0  0  0  0  0  0  0  0  0  0
    0.6272    0.4732   -0.6424 H   0  0  0  0  0  0  0  0  0  0  0  0
   12.2597    1.6258   -6.6029 N   0  0  0  0  0  0  0  0  0  0  0  0
   13.3068    1.6985   -6.9490 N   0  0  0  0  0  0  0  0  0  0  0  0
   -2.8258    1.3259    1.7954 H   0  0  0  0  0  0  0  0  0  0  0  0
   -1.7526    0.1590    3.7083 H   0  0  0  0  0  0  0  0  0  0  0  0
    0.5164   -0.8514    3.4344 H   0  0  0  0  0  0  0  0  0  0  0  0
    3.2797   -0.1211    1.6855 S   0  0  0  0  0  0  0  0  0  0  0  0
    4.3239   -1.1075    1.4983 O   0  0  0  0  0  0  0  0  0  0  0  0
    1.9120   -0.8798    1.1952 O   0  0  0  0  0  0  0  0  0  0  0  0
    3.0438    0.5816    2.9256 O   0  0  0  0  0  0  0  0  0  0  0  0
    3.4432    1.0275    0.5412 O   0  0  0  0  0  0  0  0  0  0  0  0
    3.9307    0.6290   -0.2000 H   0  0  0  0  0  0  0  0  0  0  0  0
  1  6  1  0  0  0  0
  2  1  2  0  0  0  0
  2  3  1  0  0  0  0
  3  4  2  0  0  0  0
  4  5  1  0  0  0  0
  4 13  1  0  0  0  0
  5 12  1  0  0  0  0
  6 11  1  0  0  0  0
  6  5  2  0  0  0  0
  7  1  1  0  0  0  0
  8  2  1  0  0  0  0
 10  9  3  0  0  0  0
 14 17  2  0  0  0  0
 15 14  2  0  0  0  0
 16  3  1  0  0  0  0
 16 14  1  0  0  0  0
 18 14  1  0  0  0  0
 19 18  1  0  0  0  0
M  END
