Coordinates from ORCA-job Ph-N2-HSO4-B3LYPG-6-31G_dp-MTMO-d009-169-n800
 OpenBabel09051908053D

 19 18  0  0  0  0  0  0  0  0999 V2000
   -1.0361    0.9949    0.3639 C   0  0  0  0  0  0  0  0  0  0  0  0
    0.2338    0.4398    0.2001 C   0  0  0  0  0  0  0  0  0  0  0  0
    0.8208   -0.2151    1.2785 C   0  0  0  0  0  0  0  0  0  0  0  0
    0.1841   -0.3291    2.5109 C   0  0  0  0  0  0  0  0  0  0  0  0
   -1.0836    0.2333    2.6611 C   0  0  0  0  0  0  0  0  0  0  0  0
   -1.6942    0.8927    1.5914 C   0  0  0  0  0  0  0  0  0  0  0  0
   -1.5093    1.5053   -0.4693 H   0  0  0  0  0  0  0  0  0  0  0  0
    0.7646    0.5038   -0.7433 H   0  0  0  0  0  0  0  0  0  0  0  0
   11.0071    1.4693   -5.7226 N   0  0  0  0  0  0  0  0  0  0  0  0
   12.0524    1.5236   -6.0775 N   0  0  0  0  0  0  0  0  0  0  0  0
   -2.6823    1.3247    1.7139 H   0  0  0  0  0  0  0  0  0  0  0  0
   -1.5947    0.1531    3.6157 H   0  0  0  0  0  0  0  0  0  0  0  0
    0.6785   -0.8436    3.3266 H   0  0  0  0  0  0  0  0  0  0  0  0
    3.4304   -0.0877    1.5680 S   0  0  0  0  0  0  0  0  0  0  0  0
    4.4789   -1.0679    1.3732 O   0  0  0  0  0  0  0  0  0  0  0  0
    2.0645   -0.8523    1.0816 O   0  0  0  0  0  0  0  0  0  0  0  0
    3.1962    0.6100    2.8112 O   0  0  0  0  0  0  0  0  0  0  0  0
    3.5825    1.0652    0.4266 O   0  0  0  0  0  0  0  0  0  0  0  0
    4.0682    0.6716   -0.3185 H   0  0  0  0  0  0  0  0  0  0  0  0
  1  6  1  0  0  0  0
  2  1  2  0  0  0  0
  2  3  1  0  0  0  0
  3  4  2  0  0  0  0
  4  5  1  0  0  0  0
  4 13  1  0  0  0  0
  5 12  1  0  0  0  0
  6 11  1  0  0  0  0
  6  5  2  0  0  0  0
  7  1  1  0  0  0  0
  8  2  1  0  0  0  0
 10  9  3  0  0  0  0
 14 17  2  0  0  0  0
 15 14  2  0  0  0  0
 16  3  1  0  0  0  0
 16 14  1  0  0  0  0
 18 14  1  0  0  0  0
 19 18  1  0  0  0  0
M  END
