Coordinates from ORCA-job Ph-N2-HSO4-B3LYPG-6-31G_dp-MTMO-d009-169-n800
 OpenBabel09051908053D

 19 18  0  0  0  0  0  0  0  0999 V2000
   -1.0456    0.9939    0.3700 C   0  0  0  0  0  0  0  0  0  0  0  0
    0.2241    0.4381    0.2069 C   0  0  0  0  0  0  0  0  0  0  0  0
    0.8104   -0.2165    1.2859 C   0  0  0  0  0  0  0  0  0  0  0  0
    0.1731   -0.3297    2.5181 C   0  0  0  0  0  0  0  0  0  0  0  0
   -1.0945    0.2333    2.6675 C   0  0  0  0  0  0  0  0  0  0  0  0
   -1.7043    0.8926    1.5973 C   0  0  0  0  0  0  0  0  0  0  0  0
   -1.5183    1.5042   -0.4636 H   0  0  0  0  0  0  0  0  0  0  0  0
    0.7553    0.5015   -0.7363 H   0  0  0  0  0  0  0  0  0  0  0  0
   11.0941    1.4800   -5.7845 N   0  0  0  0  0  0  0  0  0  0  0  0
   12.1396    1.5366   -6.1385 N   0  0  0  0  0  0  0  0  0  0  0  0
   -2.6922    1.3251    1.7192 H   0  0  0  0  0  0  0  0  0  0  0  0
   -1.6059    0.1538    3.6220 H   0  0  0  0  0  0  0  0  0  0  0  0
    0.6669   -0.8441    3.3342 H   0  0  0  0  0  0  0  0  0  0  0  0
    3.4198   -0.0903    1.5765 S   0  0  0  0  0  0  0  0  0  0  0  0
    4.4680   -1.0710    1.3824 O   0  0  0  0  0  0  0  0  0  0  0  0
    2.0538   -0.8544    1.0897 O   0  0  0  0  0  0  0  0  0  0  0  0
    3.1855    0.6079    2.8195 O   0  0  0  0  0  0  0  0  0  0  0  0
    3.5730    1.0622    0.4348 O   0  0  0  0  0  0  0  0  0  0  0  0
    4.0588    0.6682   -0.3099 H   0  0  0  0  0  0  0  0  0  0  0  0
  1  6  1  0  0  0  0
  2  1  2  0  0  0  0
  2  3  1  0  0  0  0
  3  4  2  0  0  0  0
  4  5  1  0  0  0  0
  4 13  1  0  0  0  0
  5 12  1  0  0  0  0
  6 11  1  0  0  0  0
  6  5  2  0  0  0  0
  7  1  1  0  0  0  0
  8  2  1  0  0  0  0
 10  9  3  0  0  0  0
 14 17  2  0  0  0  0
 15 14  2  0  0  0  0
 16  3  1  0  0  0  0
 16 14  1  0  0  0  0
 18 14  1  0  0  0  0
 19 18  1  0  0  0  0
M  END
