Coordinates from ORCA-job Ph-N2-HSO4-B3LYPG-6-31G_dp-MTMO-d009-169-n800
 OpenBabel09051908053D

 19 17  0  0  0  0  0  0  0  0999 V2000
   -1.0259    0.7642   -0.4929 C   0  0  0  0  0  0  0  0  0  0  0  0
    0.0993    0.4474   -1.2910 C   0  0  0  0  0  0  0  0  0  0  0  0
    1.1240    0.1835   -0.4332 C   0  0  0  0  0  0  0  0  0  0  0  0
    1.3498    0.1465    0.8121 C   0  0  0  0  0  0  0  0  0  0  0  0
    0.2194    0.4622    1.6060 C   0  0  0  0  0  0  0  0  0  0  0  0
   -0.9623    0.7695    0.9114 C   0  0  0  0  0  0  0  0  0  0  0  0
   -1.9580    1.0077   -0.9958 H   0  0  0  0  0  0  0  0  0  0  0  0
    0.0994    0.4291   -2.3725 H   0  0  0  0  0  0  0  0  0  0  0  0
    2.9748   -0.5227   -2.0581 N   0  0  0  0  0  0  0  0  0  0  0  0
    3.9226   -1.0628   -2.2333 N   0  0  0  0  0  0  0  0  0  0  0  0
   -1.8565    1.0207    1.4751 H   0  0  0  0  0  0  0  0  0  0  0  0
    0.2532    0.4727    2.6918 H   0  0  0  0  0  0  0  0  0  0  0  0
    2.9262   -0.2063    1.6413 H   0  0  0  0  0  0  0  0  0  0  0  0
    5.0094    0.3952    1.6599 S   0  0  0  0  0  0  0  0  0  0  0  0
    6.1765   -0.2106    2.2710 O   0  0  0  0  0  0  0  0  0  0  0  0
    4.8821    0.6133    0.2324 O   0  0  0  0  0  0  0  0  0  0  0  0
    3.7409   -0.4149    2.2012 O   0  0  0  0  0  0  0  0  0  0  0  0
    4.7965    1.8661    2.3391 O   0  0  0  0  0  0  0  0  0  0  0  0
    5.1901    1.8306    3.2269 H   0  0  0  0  0  0  0  0  0  0  0  0
  1  6  1  0  0  0  0
  2  1  2  0  0  0  0
  2  3  1  0  0  0  0
  3  4  2  0  0  0  0
  4  5  1  0  0  0  0
  5 12  1  0  0  0  0
  6 11  1  0  0  0  0
  6  5  2  0  0  0  0
  7  1  1  0  0  0  0
  8  2  1  0  0  0  0
 10  9  3  0  0  0  0
 13 17  1  0  0  0  0
 14 17  1  0  0  0  0
 14 15  2  0  0  0  0
 14 18  1  0  0  0  0
 16 14  2  0  0  0  0
 18 19  1  0  0  0  0
M  RAD  2   3   2   4   2
M  END
