Coordinates from ORCA-job Ph-N2-HSO4-B3LYPG-6-31G_dp-MTMO-d009-169-n800
 OpenBabel09051908053D

 19 18  0  0  0  0  0  0  0  0999 V2000
   -0.5248   -0.1851   -0.6509 C   0  0  0  0  0  0  0  0  0  0  0  0
    0.7307    0.1839   -1.1091 C   0  0  0  0  0  0  0  0  0  0  0  0
    1.5916    0.8337   -0.2035 C   0  0  0  0  0  0  0  0  0  0  0  0
    1.2472    1.1230    1.1206 C   0  0  0  0  0  0  0  0  0  0  0  0
   -0.0252    0.7450    1.5423 C   0  0  0  0  0  0  0  0  0  0  0  0
   -0.9010    0.0961    0.6700 C   0  0  0  0  0  0  0  0  0  0  0  0
   -1.2093   -0.6944   -1.3207 H   0  0  0  0  0  0  0  0  0  0  0  0
    1.0532   -0.0257   -2.1223 H   0  0  0  0  0  0  0  0  0  0  0  0
    2.8312    1.2116   -0.7349 N   0  0  0  0  0  0  0  0  0  0  0  0
    3.6050    1.4359   -1.5081 N   0  0  0  0  0  0  0  0  0  0  0  0
   -1.8844   -0.2023    1.0189 H   0  0  0  0  0  0  0  0  0  0  0  0
   -0.3205    0.9468    2.5656 H   0  0  0  0  0  0  0  0  0  0  0  0
    1.9776    1.5974    1.7640 H   0  0  0  0  0  0  0  0  0  0  0  0
    4.3686    0.1716    1.6890 S   0  0  0  0  0  0  0  0  0  0  0  0
    4.4692   -0.7357    0.5215 O   0  0  0  0  0  0  0  0  0  0  0  0
    4.0486    1.5846    1.2508 O   0  0  0  0  0  0  0  0  0  0  0  0
    3.5300   -0.2694    2.8088 O   0  0  0  0  0  0  0  0  0  0  0  0
    5.9031    0.2682    2.2937 O   0  0  0  0  0  0  0  0  0  0  0  0
    6.4708   -0.0939    1.5958 H   0  0  0  0  0  0  0  0  0  0  0  0
  1  6  1  0  0  0  0
  2  1  2  0  0  0  0
  2  3  1  0  0  0  0
  3  4  2  0  0  0  0
  4  5  1  0  0  0  0
  4 13  1  0  0  0  0
  5 12  1  0  0  0  0
  6 11  1  0  0  0  0
  6  5  2  0  0  0  0
  7  1  1  0  0  0  0
  8  2  1  0  0  0  0
  9  3  1  0  0  0  0
 10  9  1  0  0  0  0
 14 18  1  0  0  0  0
 14 17  1  0  0  0  0
 15 14  2  0  0  0  0
 16 14  2  0  0  0  0
 19 18  1  0  0  0  0
M  RAD  3   9   2  10   3  17   2
M  END
