Coordinates from ORCA-job Ph-N2-HSO4-B3LYPG-6-31G_dp-MTMO-d009-169-n800
 OpenBabel09051908053D

 19 18  0  0  0  0  0  0  0  0999 V2000
   -0.1791    1.0431   -0.1752 C   0  0  0  0  0  0  0  0  0  0  0  0
    1.1700    0.6976   -0.2647 C   0  0  0  0  0  0  0  0  0  0  0  0
    1.7535   -0.0068    0.7847 C   0  0  0  0  0  0  0  0  0  0  0  0
    1.0307   -0.3727    1.9174 C   0  0  0  0  0  0  0  0  0  0  0  0
   -0.3158   -0.0166    1.9958 C   0  0  0  0  0  0  0  0  0  0  0  0
   -0.9216    0.6890    0.9533 C   0  0  0  0  0  0  0  0  0  0  0  0
   -0.6475    1.5893   -0.9885 H   0  0  0  0  0  0  0  0  0  0  0  0
    1.7636    0.9603   -1.1329 H   0  0  0  0  0  0  0  0  0  0  0  0
    4.5360    0.3065   -2.0492 N   0  0  0  0  0  0  0  0  0  0  0  0
    4.4949   -0.4572   -2.8457 N   0  0  0  0  0  0  0  0  0  0  0  0
   -1.9700    0.9627    1.0203 H   0  0  0  0  0  0  0  0  0  0  0  0
   -0.8914   -0.2941    2.8736 H   0  0  0  0  0  0  0  0  0  0  0  0
    1.5221   -0.9171    2.7153 H   0  0  0  0  0  0  0  0  0  0  0  0
    4.2690    0.4066    1.4443 S   0  0  0  0  0  0  0  0  0  0  0  0
    5.4743   -0.3402    1.1495 O   0  0  0  0  0  0  0  0  0  0  0  0
    3.0915   -0.4254    0.6501 O   0  0  0  0  0  0  0  0  0  0  0  0
    3.8393    0.7419    2.7822 O   0  0  0  0  0  0  0  0  0  0  0  0
    4.2790    1.8023    0.6193 O   0  0  0  0  0  0  0  0  0  0  0  0
    4.6631    1.6221   -0.2582 H   0  0  0  0  0  0  0  0  0  0  0  0
  1  6  1  0  0  0  0
  2  1  2  0  0  0  0
  2  3  1  0  0  0  0
  3  4  2  0  0  0  0
  4  5  1  0  0  0  0
  4 13  1  0  0  0  0
  5 12  1  0  0  0  0
  6 11  1  0  0  0  0
  6  5  2  0  0  0  0
  7  1  1  0  0  0  0
  8  2  1  0  0  0  0
 10  9  3  0  0  0  0
 14 17  2  0  0  0  0
 15 14  2  0  0  0  0
 16  3  1  0  0  0  0
 16 14  1  0  0  0  0
 18 14  1  0  0  0  0
 19 18  1  0  0  0  0
M  END
