Coordinates from ORCA-job Ph-N2-HSO4-B3LYPG-6-31G_dp-MTMO-d009-169-n800
 OpenBabel09051908053D

 19 18  0  0  0  0  0  0  0  0999 V2000
   -0.7928    1.0171    0.2094 C   0  0  0  0  0  0  0  0  0  0  0  0
    0.4800    0.4776    0.0183 C   0  0  0  0  0  0  0  0  0  0  0  0
    1.0942   -0.1779    1.0812 C   0  0  0  0  0  0  0  0  0  0  0  0
    0.4817   -0.3075    2.3243 C   0  0  0  0  0  0  0  0  0  0  0  0
   -0.7892    0.2394    2.5017 C   0  0  0  0  0  0  0  0  0  0  0  0
   -1.4269    0.8991    1.4481 C   0  0  0  0  0  0  0  0  0  0  0  0
   -1.2871    1.5278   -0.6113 H   0  0  0  0  0  0  0  0  0  0  0  0
    0.9926    0.5542   -0.9341 H   0  0  0  0  0  0  0  0  0  0  0  0
    8.7228    1.1659   -4.0483 N   0  0  0  0  0  0  0  0  0  0  0  0
    9.7565    1.2059   -4.4373 N   0  0  0  0  0  0  0  0  0  0  0  0
   -2.4173    1.3190    1.5919 H   0  0  0  0  0  0  0  0  0  0  0  0
   -1.2816    0.1468    3.4649 H   0  0  0  0  0  0  0  0  0  0  0  0
    0.9970   -0.8219    3.1270 H   0  0  0  0  0  0  0  0  0  0  0  0
    3.7074   -0.0211    1.3204 S   0  0  0  0  0  0  0  0  0  0  0  0
    4.7626   -0.9898    1.1056 O   0  0  0  0  0  0  0  0  0  0  0  0
    2.3411   -0.7995    0.8572 O   0  0  0  0  0  0  0  0  0  0  0  0
    3.4877    0.6722    2.5689 O   0  0  0  0  0  0  0  0  0  0  0  0
    3.8274    1.1352    0.1787 O   0  0  0  0  0  0  0  0  0  0  0  0
    4.3055    0.7488   -0.5750 H   0  0  0  0  0  0  0  0  0  0  0  0
  1  6  1  0  0  0  0
  2  1  2  0  0  0  0
  2  3  1  0  0  0  0
  3  4  2  0  0  0  0
  4  5  1  0  0  0  0
  4 13  1  0  0  0  0
  5 12  1  0  0  0  0
  6 11  1  0  0  0  0
  6  5  2  0  0  0  0
  7  1  1  0  0  0  0
  8  2  1  0  0  0  0
 10  9  3  0  0  0  0
 14 17  2  0  0  0  0
 15 14  2  0  0  0  0
 16  3  1  0  0  0  0
 16 14  1  0  0  0  0
 18 14  1  0  0  0  0
 19 18  1  0  0  0  0
M  END
