Coordinates from ORCA-job Ph-N2-HSO4-B3LYPG-6-31G_dp-MTMO-d009-169-n800
 OpenBabel09051908053D

 19 18  0  0  0  0  0  0  0  0999 V2000
   -0.2677    1.0391   -0.1187 C   0  0  0  0  0  0  0  0  0  0  0  0
    1.0733    0.6728   -0.2405 C   0  0  0  0  0  0  0  0  0  0  0  0
    1.6769   -0.0210    0.8044 C   0  0  0  0  0  0  0  0  0  0  0  0
    0.9836   -0.3567    1.9642 C   0  0  0  0  0  0  0  0  0  0  0  0
   -0.3551    0.0201    2.0747 C   0  0  0  0  0  0  0  0  0  0  0  0
   -0.9814    0.7154    1.0373 C   0  0  0  0  0  0  0  0  0  0  0  0
   -0.7522    1.5774   -0.9278 H   0  0  0  0  0  0  0  0  0  0  0  0
    1.6475    0.9110   -1.1290 H   0  0  0  0  0  0  0  0  0  0  0  0
    4.9353    0.3634   -2.1338 N   0  0  0  0  0  0  0  0  0  0  0  0
    5.1155   -0.3486   -2.9581 N   0  0  0  0  0  0  0  0  0  0  0  0
   -2.0236    1.0045    1.1297 H   0  0  0  0  0  0  0  0  0  0  0  0
   -0.9089   -0.2332    2.9736 H   0  0  0  0  0  0  0  0  0  0  0  0
    1.4906   -0.8933    2.7575 H   0  0  0  0  0  0  0  0  0  0  0  0
    4.2159    0.3708    1.3750 S   0  0  0  0  0  0  0  0  0  0  0  0
    5.4019   -0.4035    1.0700 O   0  0  0  0  0  0  0  0  0  0  0  0
    3.0050   -0.4599    0.6342 O   0  0  0  0  0  0  0  0  0  0  0  0
    3.8255    0.7467    2.7143 O   0  0  0  0  0  0  0  0  0  0  0  0
    4.2326    1.7428    0.5123 O   0  0  0  0  0  0  0  0  0  0  0  0
    4.6470    1.5433   -0.3478 H   0  0  0  0  0  0  0  0  0  0  0  0
  1  6  1  0  0  0  0
  2  1  2  0  0  0  0
  2  3  1  0  0  0  0
  3  4  2  0  0  0  0
  4  5  1  0  0  0  0
  4 13  1  0  0  0  0
  5 12  1  0  0  0  0
  6 11  1  0  0  0  0
  6  5  2  0  0  0  0
  7  1  1  0  0  0  0
  8  2  1  0  0  0  0
 10  9  3  0  0  0  0
 14 17  2  0  0  0  0
 15 14  2  0  0  0  0
 16  3  1  0  0  0  0
 16 14  1  0  0  0  0
 18 14  1  0  0  0  0
 19 18  1  0  0  0  0
M  END
