Coordinates from ORCA-job Ph-N2-HSO4-B3LYPG-6-31G_dp-MTMO-d009-169-n800
 OpenBabel09051908053D

 19 18  0  0  0  0  0  0  0  0999 V2000
   -0.1872    1.0428   -0.1700 C   0  0  0  0  0  0  0  0  0  0  0  0
    1.1614    0.6961   -0.2621 C   0  0  0  0  0  0  0  0  0  0  0  0
    1.7467   -0.0075    0.7869 C   0  0  0  0  0  0  0  0  0  0  0  0
    1.0263   -0.3715    1.9217 C   0  0  0  0  0  0  0  0  0  0  0  0
   -0.3197   -0.0140    2.0027 C   0  0  0  0  0  0  0  0  0  0  0  0
   -0.9273    0.6908    0.9607 C   0  0  0  0  0  0  0  0  0  0  0  0
   -0.6569    1.5885   -0.9829 H   0  0  0  0  0  0  0  0  0  0  0  0
    1.7537    0.9569   -1.1319 H   0  0  0  0  0  0  0  0  0  0  0  0
    4.5734    0.3108   -2.0591 N   0  0  0  0  0  0  0  0  0  0  0  0
    4.5467   -0.4491   -2.8599 N   0  0  0  0  0  0  0  0  0  0  0  0
   -1.9753    0.9654    1.0298 H   0  0  0  0  0  0  0  0  0  0  0  0
   -0.8937   -0.2899    2.8821 H   0  0  0  0  0  0  0  0  0  0  0  0
    1.5190   -0.9153    2.7192 H   0  0  0  0  0  0  0  0  0  0  0  0
    4.2643    0.4042    1.4391 S   0  0  0  0  0  0  0  0  0  0  0  0
    5.4678   -0.3458    1.1447 O   0  0  0  0  0  0  0  0  0  0  0  0
    3.0840   -0.4274    0.6488 O   0  0  0  0  0  0  0  0  0  0  0  0
    3.8370    0.7439    2.7767 O   0  0  0  0  0  0  0  0  0  0  0  0
    4.2765    1.7975    0.6101 O   0  0  0  0  0  0  0  0  0  0  0  0
    4.6649    1.6149   -0.2651 H   0  0  0  0  0  0  0  0  0  0  0  0
  1  6  1  0  0  0  0
  2  1  2  0  0  0  0
  2  3  1  0  0  0  0
  3  4  2  0  0  0  0
  4  5  1  0  0  0  0
  4 13  1  0  0  0  0
  5 12  1  0  0  0  0
  6 11  1  0  0  0  0
  6  5  2  0  0  0  0
  7  1  1  0  0  0  0
  8  2  1  0  0  0  0
 10  9  3  0  0  0  0
 14 17  2  0  0  0  0
 15 14  2  0  0  0  0
 16  3  1  0  0  0  0
 16 14  1  0  0  0  0
 18 14  1  0  0  0  0
 19 18  1  0  0  0  0
M  END
