Coordinates from ORCA-job Ph-N2-HSO4-B3LYPG-6-31G_dp-MTMO-d009-169-n800
 OpenBabel09051908053D

 19 18  0  0  0  0  0  0  0  0999 V2000
   -0.7316    1.0186    0.1729 C   0  0  0  0  0  0  0  0  0  0  0  0
    0.5383    0.4788   -0.0354 C   0  0  0  0  0  0  0  0  0  0  0  0
    1.1705   -0.1690    1.0216 C   0  0  0  0  0  0  0  0  0  0  0  0
    0.5787   -0.2905    2.2755 C   0  0  0  0  0  0  0  0  0  0  0  0
   -0.6896    0.2566    2.4700 C   0  0  0  0  0  0  0  0  0  0  0  0
   -1.3451    0.9085    1.4226 C   0  0  0  0  0  0  0  0  0  0  0  0
   -1.2398    1.5233   -0.6429 H   0  0  0  0  0  0  0  0  0  0  0  0
    1.0352    0.5494   -0.9966 H   0  0  0  0  0  0  0  0  0  0  0  0
    8.0630    1.0884   -3.4826 N   0  0  0  0  0  0  0  0  0  0  0  0
    9.0864    1.1391   -3.8970 N   0  0  0  0  0  0  0  0  0  0  0  0
   -2.3334    1.3285    1.5799 H   0  0  0  0  0  0  0  0  0  0  0  0
   -1.1660    0.1702    3.4419 H   0  0  0  0  0  0  0  0  0  0  0  0
    1.1076   -0.7992    3.0730 H   0  0  0  0  0  0  0  0  0  0  0  0
    3.7876   -0.0069    1.2117 S   0  0  0  0  0  0  0  0  0  0  0  0
    4.8390   -0.9805    0.9994 O   0  0  0  0  0  0  0  0  0  0  0  0
    2.4141   -0.7916    0.7817 O   0  0  0  0  0  0  0  0  0  0  0  0
    3.5860    0.7085    2.4507 O   0  0  0  0  0  0  0  0  0  0  0  0
    3.8934    1.1285    0.0478 O   0  0  0  0  0  0  0  0  0  0  0  0
    4.3674    0.7305   -0.7025 H   0  0  0  0  0  0  0  0  0  0  0  0
  1  6  1  0  0  0  0
  2  1  2  0  0  0  0
  2  3  1  0  0  0  0
  3  4  2  0  0  0  0
  4  5  1  0  0  0  0
  4 13  1  0  0  0  0
  5 12  1  0  0  0  0
  6 11  1  0  0  0  0
  6  5  2  0  0  0  0
  7  1  1  0  0  0  0
  8  2  1  0  0  0  0
 10  9  3  0  0  0  0
 14 17  2  0  0  0  0
 15 14  2  0  0  0  0
 16  3  1  0  0  0  0
 16 14  1  0  0  0  0
 18 14  1  0  0  0  0
 19 18  1  0  0  0  0
M  END
