Coordinates from ORCA-job Ph-N2-HSO4-B3LYPG-6-31G_dp-MTMO-d009-169-n800
 OpenBabel09051908053D

 19 18  0  0  0  0  0  0  0  0999 V2000
   -0.5672    1.0029    0.0686 C   0  0  0  0  0  0  0  0  0  0  0  0
    0.7289    0.5507   -0.1814 C   0  0  0  0  0  0  0  0  0  0  0  0
    1.4228   -0.0903    0.8408 C   0  0  0  0  0  0  0  0  0  0  0  0
    0.8661   -0.2892    2.1008 C   0  0  0  0  0  0  0  0  0  0  0  0
   -0.4290    0.1721    2.3377 C   0  0  0  0  0  0  0  0  0  0  0  0
   -1.1459    0.8154    1.3257 C   0  0  0  0  0  0  0  0  0  0  0  0
   -1.1229    1.5007   -0.7202 H   0  0  0  0  0  0  0  0  0  0  0  0
    1.2011    0.6832   -1.1484 H   0  0  0  0  0  0  0  0  0  0  0  0
    6.2007    0.6393   -2.1542 N   0  0  0  0  0  0  0  0  0  0  0  0
    7.0735    0.2617   -2.7150 N   0  0  0  0  0  0  0  0  0  0  0  0
   -2.1543    1.1687    1.5167 H   0  0  0  0  0  0  0  0  0  0  0  0
   -0.8779    0.0253    3.3153 H   0  0  0  0  0  0  0  0  0  0  0  0
    1.4419   -0.7887    2.8710 H   0  0  0  0  0  0  0  0  0  0  0  0
    4.0308    0.2129    1.0125 S   0  0  0  0  0  0  0  0  0  0  0  0
    5.1361   -0.6715    0.6992 O   0  0  0  0  0  0  0  0  0  0  0  0
    2.6970   -0.6226    0.5502 O   0  0  0  0  0  0  0  0  0  0  0  0
    3.8168    0.7969    2.3177 O   0  0  0  0  0  0  0  0  0  0  0  0
    4.0342    1.4393   -0.0496 O   0  0  0  0  0  0  0  0  0  0  0  0
    4.6091    1.1847   -0.7960 H   0  0  0  0  0  0  0  0  0  0  0  0
  1  6  1  0  0  0  0
  2  1  2  0  0  0  0
  2  3  1  0  0  0  0
  3  4  2  0  0  0  0
  4  5  1  0  0  0  0
  4 13  1  0  0  0  0
  5 12  1  0  0  0  0
  6 11  1  0  0  0  0
  6  5  2  0  0  0  0
  7  1  1  0  0  0  0
  8  2  1  0  0  0  0
 10  9  3  0  0  0  0
 14 17  2  0  0  0  0
 15 14  2  0  0  0  0
 16  3  1  0  0  0  0
 16 14  1  0  0  0  0
 18 14  1  0  0  0  0
 19 18  1  0  0  0  0
M  END
