Coordinates from ORCA-job Ph-N2-HSO4-B3LYPG-6-31G_dp-MTMO-d009-169-n800
 OpenBabel09051908053D

 19 18  0  0  0  0  0  0  0  0999 V2000
   -0.9358    1.0051    0.2999 C   0  0  0  0  0  0  0  0  0  0  0  0
    0.3361    0.4573    0.1268 C   0  0  0  0  0  0  0  0  0  0  0  0
    0.9321   -0.1997    1.1991 C   0  0  0  0  0  0  0  0  0  0  0  0
    0.3024   -0.3229    2.4342 C   0  0  0  0  0  0  0  0  0  0  0  0
   -0.9674    0.2323    2.5936 C   0  0  0  0  0  0  0  0  0  0  0  0
   -1.5869    0.8936    1.5303 C   0  0  0  0  0  0  0  0  0  0  0  0
   -1.4159    1.5170   -0.5283 H   0  0  0  0  0  0  0  0  0  0  0  0
    0.8616    0.5286   -0.8190 H   0  0  0  0  0  0  0  0  0  0  0  0
   10.0815    1.3523   -5.0586 N   0  0  0  0  0  0  0  0  0  0  0  0
   11.1241    1.3838   -5.4242 N   0  0  0  0  0  0  0  0  0  0  0  0
   -2.5765    1.3200    1.6601 H   0  0  0  0  0  0  0  0  0  0  0  0
   -1.4731    0.1449    3.5505 H   0  0  0  0  0  0  0  0  0  0  0  0
    0.8037   -0.8387    3.2448 H   0  0  0  0  0  0  0  0  0  0  0  0
    3.5425   -0.0594    1.4744 S   0  0  0  0  0  0  0  0  0  0  0  0
    4.5950   -1.0336    1.2710 O   0  0  0  0  0  0  0  0  0  0  0  0
    2.1780   -0.8295    0.9928 O   0  0  0  0  0  0  0  0  0  0  0  0
    3.3113    0.6332    2.7211 O   0  0  0  0  0  0  0  0  0  0  0  0
    3.6828    1.0979    0.3360 O   0  0  0  0  0  0  0  0  0  0  0  0
    4.1662    0.7092   -0.4131 H   0  0  0  0  0  0  0  0  0  0  0  0
  1  6  1  0  0  0  0
  2  1  2  0  0  0  0
  2  3  1  0  0  0  0
  3  4  2  0  0  0  0
  4  5  1  0  0  0  0
  4 13  1  0  0  0  0
  5 12  1  0  0  0  0
  6 11  1  0  0  0  0
  6  5  2  0  0  0  0
  7  1  1  0  0  0  0
  8  2  1  0  0  0  0
 10  9  3  0  0  0  0
 14 17  2  0  0  0  0
 15 14  2  0  0  0  0
 16  3  1  0  0  0  0
 16 14  1  0  0  0  0
 18 14  1  0  0  0  0
 19 18  1  0  0  0  0
M  END
