Coordinates from ORCA-job Ph-N2-HSO4-B3LYPG-6-31G_dp-MTMO-d009-169-n800
 OpenBabel09051908053D

 19 17  0  0  0  0  0  0  0  0999 V2000
   -1.0238    0.7614   -0.4963 C   0  0  0  0  0  0  0  0  0  0  0  0
    0.0917    0.4334   -1.3022 C   0  0  0  0  0  0  0  0  0  0  0  0
    1.1246    0.1697   -0.4543 C   0  0  0  0  0  0  0  0  0  0  0  0
    1.3678    0.1389    0.7896 C   0  0  0  0  0  0  0  0  0  0  0  0
    0.2433    0.4667    1.5889 C   0  0  0  0  0  0  0  0  0  0  0  0
   -0.9447    0.7755    0.9071 C   0  0  0  0  0  0  0  0  0  0  0  0
   -1.9596    1.0063   -0.9914 H   0  0  0  0  0  0  0  0  0  0  0  0
    0.0816    0.4076   -2.3835 H   0  0  0  0  0  0  0  0  0  0  0  0
    2.9306   -0.5137   -2.0137 N   0  0  0  0  0  0  0  0  0  0  0  0
    3.8871   -1.0424   -2.1770 N   0  0  0  0  0  0  0  0  0  0  0  0
   -1.8310    1.0351    1.4794 H   0  0  0  0  0  0  0  0  0  0  0  0
    0.2888    0.4846    2.6743 H   0  0  0  0  0  0  0  0  0  0  0  0
    2.9291   -0.2140    1.6171 H   0  0  0  0  0  0  0  0  0  0  0  0
    5.0096    0.4009    1.6599 S   0  0  0  0  0  0  0  0  0  0  0  0
    6.1780   -0.2054    2.2684 O   0  0  0  0  0  0  0  0  0  0  0  0
    4.8907    0.6419    0.2351 O   0  0  0  0  0  0  0  0  0  0  0  0
    3.7445   -0.4269    2.1784 O   0  0  0  0  0  0  0  0  0  0  0  0
    4.7819    1.8594    2.3614 O   0  0  0  0  0  0  0  0  0  0  0  0
    5.1716    1.8125    3.2503 H   0  0  0  0  0  0  0  0  0  0  0  0
  1  6  1  0  0  0  0
  2  1  2  0  0  0  0
  2  3  1  0  0  0  0
  3  4  2  0  0  0  0
  4  5  1  0  0  0  0
  5 12  1  0  0  0  0
  6 11  1  0  0  0  0
  6  5  2  0  0  0  0
  7  1  1  0  0  0  0
  8  2  1  0  0  0  0
 10  9  3  0  0  0  0
 13 17  1  0  0  0  0
 14 17  1  0  0  0  0
 14 15  2  0  0  0  0
 14 18  1  0  0  0  0
 16 14  2  0  0  0  0
 18 19  1  0  0  0  0
M  RAD  2   3   2   4   2
M  END
