Coordinates from ORCA-job Ph-N2-HSO4-B3LYPG-6-31G_dp-MTMO-d009-169-n800
 OpenBabel09051908053D

 19 18  0  0  0  0  0  0  0  0999 V2000
   -0.9311    1.0055    0.2969 C   0  0  0  0  0  0  0  0  0  0  0  0
    0.3408    0.4580    0.1234 C   0  0  0  0  0  0  0  0  0  0  0  0
    0.9373   -0.1990    1.1954 C   0  0  0  0  0  0  0  0  0  0  0  0
    0.3080   -0.3225    2.4306 C   0  0  0  0  0  0  0  0  0  0  0  0
   -0.9619    0.2323    2.5905 C   0  0  0  0  0  0  0  0  0  0  0  0
   -1.5819    0.8937    1.5275 C   0  0  0  0  0  0  0  0  0  0  0  0
   -1.4117    1.5175   -0.5311 H   0  0  0  0  0  0  0  0  0  0  0  0
    0.8660    0.5296   -0.8225 H   0  0  0  0  0  0  0  0  0  0  0  0
   10.0383    1.3466   -5.0273 N   0  0  0  0  0  0  0  0  0  0  0  0
   11.0807    1.3776   -5.3935 N   0  0  0  0  0  0  0  0  0  0  0  0
   -2.5715    1.3198    1.6577 H   0  0  0  0  0  0  0  0  0  0  0  0
   -1.4673    0.1446    3.5475 H   0  0  0  0  0  0  0  0  0  0  0  0
    0.8097   -0.8383    3.2410 H   0  0  0  0  0  0  0  0  0  0  0  0
    3.5477   -0.0581    1.4699 S   0  0  0  0  0  0  0  0  0  0  0  0
    4.6004   -1.0321    1.2661 O   0  0  0  0  0  0  0  0  0  0  0  0
    2.1833   -0.8285    0.9886 O   0  0  0  0  0  0  0  0  0  0  0  0
    3.3167    0.6343    2.7167 O   0  0  0  0  0  0  0  0  0  0  0  0
    3.6875    1.0994    0.3316 O   0  0  0  0  0  0  0  0  0  0  0  0
    4.1707    0.7109   -0.4177 H   0  0  0  0  0  0  0  0  0  0  0  0
  1  6  1  0  0  0  0
  2  1  2  0  0  0  0
  2  3  1  0  0  0  0
  3  4  2  0  0  0  0
  4  5  1  0  0  0  0
  4 13  1  0  0  0  0
  5 12  1  0  0  0  0
  6 11  1  0  0  0  0
  6  5  2  0  0  0  0
  7  1  1  0  0  0  0
  8  2  1  0  0  0  0
 10  9  3  0  0  0  0
 14 17  2  0  0  0  0
 15 14  2  0  0  0  0
 16  3  1  0  0  0  0
 16 14  1  0  0  0  0
 18 14  1  0  0  0  0
 19 18  1  0  0  0  0
M  END
