Coordinates from ORCA-job Ph-N2-HSO4-B3LYPG-6-31G_dp-MTMO-d009-169-n800
 OpenBabel09051908053D

 19 18  0  0  0  0  0  0  0  0999 V2000
   -0.6797    1.0278    0.1652 C   0  0  0  0  0  0  0  0  0  0  0  0
    0.5870    0.5042   -0.0975 C   0  0  0  0  0  0  0  0  0  0  0  0
    1.2670   -0.1436    0.9294 C   0  0  0  0  0  0  0  0  0  0  0  0
    0.7272   -0.2809    2.2044 C   0  0  0  0  0  0  0  0  0  0  0  0
   -0.5392    0.2487    2.4528 C   0  0  0  0  0  0  0  0  0  0  0  0
   -1.2427    0.9007    1.4369 C   0  0  0  0  0  0  0  0  0  0  0  0
   -1.2253    1.5331   -0.6258 H   0  0  0  0  0  0  0  0  0  0  0  0
    1.0463    0.5889   -1.0760 H   0  0  0  0  0  0  0  0  0  0  0  0
    7.1625    0.9073   -2.5535 N   0  0  0  0  0  0  0  0  0  0  0  0
    8.1830    0.9915   -2.9685 N   0  0  0  0  0  0  0  0  0  0  0  0
   -2.2289    1.3077    1.6364 H   0  0  0  0  0  0  0  0  0  0  0  0
   -0.9760    0.1495    3.4418 H   0  0  0  0  0  0  0  0  0  0  0  0
    1.2933   -0.7894    2.9762 H   0  0  0  0  0  0  0  0  0  0  0  0
    3.8910    0.0677    0.9611 S   0  0  0  0  0  0  0  0  0  0  0  0
    4.9431   -0.9187    0.8177 O   0  0  0  0  0  0  0  0  0  0  0  0
    2.5083   -0.7512    0.6392 O   0  0  0  0  0  0  0  0  0  0  0  0
    3.7121    0.8917    2.1349 O   0  0  0  0  0  0  0  0  0  0  0  0
    3.9741    1.0833   -0.3108 O   0  0  0  0  0  0  0  0  0  0  0  0
    4.5587    0.6731   -0.9723 H   0  0  0  0  0  0  0  0  0  0  0  0
  1  6  1  0  0  0  0
  2  1  2  0  0  0  0
  2  3  1  0  0  0  0
  3  4  2  0  0  0  0
  4  5  1  0  0  0  0
  4 13  1  0  0  0  0
  5 12  1  0  0  0  0
  6 11  1  0  0  0  0
  6  5  2  0  0  0  0
  7  1  1  0  0  0  0
  8  2  1  0  0  0  0
 10  9  3  0  0  0  0
 14 17  2  0  0  0  0
 15 14  2  0  0  0  0
 16  3  1  0  0  0  0
 16 14  1  0  0  0  0
 18 14  1  0  0  0  0
 19 18  1  0  0  0  0
M  END
