Coordinates from ORCA-job Ph-N2-HSO4-B3LYPG-6-31G_dp-MTMO-d009-169-n800
 OpenBabel09051908053D

 19 18  0  0  0  0  0  0  0  0999 V2000
   -0.6788    1.0299    0.1705 C   0  0  0  0  0  0  0  0  0  0  0  0
    0.5880    0.5131   -0.1049 C   0  0  0  0  0  0  0  0  0  0  0  0
    1.2790   -0.1366    0.9135 C   0  0  0  0  0  0  0  0  0  0  0  0
    0.7501   -0.2823    2.1921 C   0  0  0  0  0  0  0  0  0  0  0  0
   -0.5166    0.2404    2.4531 C   0  0  0  0  0  0  0  0  0  0  0  0
   -1.2310    0.8942    1.4461 C   0  0  0  0  0  0  0  0  0  0  0  0
   -1.2329    1.5367   -0.6137 H   0  0  0  0  0  0  0  0  0  0  0  0
    1.0394    0.6044   -1.0864 H   0  0  0  0  0  0  0  0  0  0  0  0
    7.0389    0.8701   -2.4130 N   0  0  0  0  0  0  0  0  0  0  0  0
    8.0655    0.9490   -2.8136 N   0  0  0  0  0  0  0  0  0  0  0  0
   -2.2173    1.2960    1.6554 H   0  0  0  0  0  0  0  0  0  0  0  0
   -0.9450    0.1344    3.4451 H   0  0  0  0  0  0  0  0  0  0  0  0
    1.3246   -0.7922    2.9568 H   0  0  0  0  0  0  0  0  0  0  0  0
    3.9036    0.0882    0.9136 S   0  0  0  0  0  0  0  0  0  0  0  0
    4.9576   -0.8992    0.7903 O   0  0  0  0  0  0  0  0  0  0  0  0
    2.5207   -0.7376    0.6107 O   0  0  0  0  0  0  0  0  0  0  0  0
    3.7245    0.9348    2.0714 O   0  0  0  0  0  0  0  0  0  0  0  0
    3.9855    1.0749   -0.3806 O   0  0  0  0  0  0  0  0  0  0  0  0
    4.6059    0.6732   -1.0147 H   0  0  0  0  0  0  0  0  0  0  0  0
  1  6  1  0  0  0  0
  2  1  2  0  0  0  0
  2  3  1  0  0  0  0
  3  4  2  0  0  0  0
  4  5  1  0  0  0  0
  4 13  1  0  0  0  0
  5 12  1  0  0  0  0
  6 11  1  0  0  0  0
  6  5  2  0  0  0  0
  7  1  1  0  0  0  0
  8  2  1  0  0  0  0
 10  9  3  0  0  0  0
 14 17  2  0  0  0  0
 15 14  2  0  0  0  0
 16  3  1  0  0  0  0
 16 14  1  0  0  0  0
 18 14  1  0  0  0  0
 19 18  1  0  0  0  0
M  END
