Coordinates from ORCA-job Ph-N2-HSO4-B3LYPG-6-31G_dp-MTMO-d009-169-n800
 OpenBabel09051908053D

 19 18  0  0  0  0  0  0  0  0999 V2000
   -0.2860    1.0314   -0.1098 C   0  0  0  0  0  0  0  0  0  0  0  0
    1.0519    0.6562   -0.2367 C   0  0  0  0  0  0  0  0  0  0  0  0
    1.6588   -0.0293    0.8118 C   0  0  0  0  0  0  0  0  0  0  0  0
    0.9719   -0.3480    1.9802 C   0  0  0  0  0  0  0  0  0  0  0  0
   -0.3638    0.0377    2.0956 C   0  0  0  0  0  0  0  0  0  0  0  0
   -0.9934    0.7247    1.0547 C   0  0  0  0  0  0  0  0  0  0  0  0
   -0.7732    1.5632   -0.9215 H   0  0  0  0  0  0  0  0  0  0  0  0
    1.6217    0.8810   -1.1316 H   0  0  0  0  0  0  0  0  0  0  0  0
    5.0206    0.3952   -2.1562 N   0  0  0  0  0  0  0  0  0  0  0  0
    5.2631   -0.2899   -2.9873 N   0  0  0  0  0  0  0  0  0  0  0  0
   -2.0333    1.0206    1.1510 H   0  0  0  0  0  0  0  0  0  0  0  0
   -0.9127   -0.2024    3.0011 H   0  0  0  0  0  0  0  0  0  0  0  0
    1.4816   -0.8785    2.7759 H   0  0  0  0  0  0  0  0  0  0  0  0
    4.2036    0.3546    1.3598 S   0  0  0  0  0  0  0  0  0  0  0  0
    5.3845   -0.4255    1.0496 O   0  0  0  0  0  0  0  0  0  0  0  0
    2.9833   -0.4774    0.6368 O   0  0  0  0  0  0  0  0  0  0  0  0
    3.8265    0.7408    2.7000 O   0  0  0  0  0  0  0  0  0  0  0  0
    4.2180    1.7202    0.4871 O   0  0  0  0  0  0  0  0  0  0  0  0
    4.6387    1.5169   -0.3692 H   0  0  0  0  0  0  0  0  0  0  0  0
  1  6  1  0  0  0  0
  2  1  2  0  0  0  0
  2  3  1  0  0  0  0
  3  4  2  0  0  0  0
  4  5  1  0  0  0  0
  4 13  1  0  0  0  0
  5 12  1  0  0  0  0
  6 11  1  0  0  0  0
  6  5  2  0  0  0  0
  7  1  1  0  0  0  0
  8  2  1  0  0  0  0
 10  9  3  0  0  0  0
 14 17  2  0  0  0  0
 15 14  2  0  0  0  0
 16  3  1  0  0  0  0
 16 14  1  0  0  0  0
 18 14  1  0  0  0  0
 19 18  1  0  0  0  0
M  END
