Coordinates from ORCA-job Ph-N2-HSO4-B3LYPG-6-31G_dp-MTMO-d009-169-n800
 OpenBabel09051908053D

 19 17  0  0  0  0  0  0  0  0999 V2000
   -1.0179    0.7581   -0.5026 C   0  0  0  0  0  0  0  0  0  0  0  0
    0.0870    0.4196   -1.3166 C   0  0  0  0  0  0  0  0  0  0  0  0
    1.1303    0.1529   -0.4819 C   0  0  0  0  0  0  0  0  0  0  0  0
    1.3938    0.1259    0.7612 C   0  0  0  0  0  0  0  0  0  0  0  0
    0.2743    0.4656    1.5652 C   0  0  0  0  0  0  0  0  0  0  0  0
   -0.9209    0.7784    0.8995 C   0  0  0  0  0  0  0  0  0  0  0  0
   -1.9577    1.0062   -0.9883 H   0  0  0  0  0  0  0  0  0  0  0  0
    0.0664    0.3879   -2.3977 H   0  0  0  0  0  0  0  0  0  0  0  0
    2.8639   -0.4967   -1.9484 N   0  0  0  0  0  0  0  0  0  0  0  0
    3.8313   -1.0106   -2.0949 N   0  0  0  0  0  0  0  0  0  0  0  0
   -1.7980    1.0460    1.4822 H   0  0  0  0  0  0  0  0  0  0  0  0
    0.3327    0.4891    2.6501 H   0  0  0  0  0  0  0  0  0  0  0  0
    2.9270   -0.2205    1.5916 H   0  0  0  0  0  0  0  0  0  0  0  0
    5.0064    0.4062    1.6601 S   0  0  0  0  0  0  0  0  0  0  0  0
    6.1765   -0.2021    2.2642 O   0  0  0  0  0  0  0  0  0  0  0  0
    4.8946    0.6682    0.2380 O   0  0  0  0  0  0  0  0  0  0  0  0
    3.7437   -0.4335    2.1588 O   0  0  0  0  0  0  0  0  0  0  0  0
    4.7698    1.8542    2.3812 O   0  0  0  0  0  0  0  0  0  0  0  0
    5.1584    1.7964    3.2699 H   0  0  0  0  0  0  0  0  0  0  0  0
  1  6  1  0  0  0  0
  2  1  2  0  0  0  0
  2  3  1  0  0  0  0
  3  4  2  0  0  0  0
  4  5  1  0  0  0  0
  5 12  1  0  0  0  0
  6 11  1  0  0  0  0
  6  5  2  0  0  0  0
  7  1  1  0  0  0  0
  8  2  1  0  0  0  0
 10  9  3  0  0  0  0
 13 17  1  0  0  0  0
 14 17  1  0  0  0  0
 14 15  2  0  0  0  0
 14 18  1  0  0  0  0
 16 14  2  0  0  0  0
 18 19  1  0  0  0  0
M  RAD  2   3   2   4   2
M  END
