Coordinates from ORCA-job Ph-N2-HSO4-B3LYPG-6-31G_dp-MTMO-d009-169-n800
 OpenBabel09051908053D

 19 18  0  0  0  0  0  0  0  0999 V2000
   -0.3369    1.0280   -0.0783 C   0  0  0  0  0  0  0  0  0  0  0  0
    0.9951    0.6395   -0.2264 C   0  0  0  0  0  0  0  0  0  0  0  0
    1.6159   -0.0392    0.8184 C   0  0  0  0  0  0  0  0  0  0  0  0
    0.9490   -0.3380    2.0034 C   0  0  0  0  0  0  0  0  0  0  0  0
   -0.3809    0.0609    2.1397 C   0  0  0  0  0  0  0  0  0  0  0  0
   -1.0244    0.7411    1.1029 C   0  0  0  0  0  0  0  0  0  0  0  0
   -0.8350    1.5545   -0.8869 H   0  0  0  0  0  0  0  0  0  0  0  0
    1.5499    0.8490   -1.1343 H   0  0  0  0  0  0  0  0  0  0  0  0
    5.2351    0.4371   -2.1812 N   0  0  0  0  0  0  0  0  0  0  0  0
    5.6152   -0.2147   -2.9871 N   0  0  0  0  0  0  0  0  0  0  0  0
   -2.0598    1.0469    1.2155 H   0  0  0  0  0  0  0  0  0  0  0  0
   -0.9144   -0.1637    3.0583 H   0  0  0  0  0  0  0  0  0  0  0  0
    1.4692   -0.8636    2.7954 H   0  0  0  0  0  0  0  0  0  0  0  0
    4.1738    0.3301    1.3087 S   0  0  0  0  0  0  0  0  0  0  0  0
    5.3424   -0.4652    0.9894 O   0  0  0  0  0  0  0  0  0  0  0  0
    2.9327   -0.5017    0.6233 O   0  0  0  0  0  0  0  0  0  0  0  0
    3.8248    0.7402    2.6496 O   0  0  0  0  0  0  0  0  0  0  0  0
    4.1867    1.6809    0.4138 O   0  0  0  0  0  0  0  0  0  0  0  0
    4.6233    1.4694   -0.4329 H   0  0  0  0  0  0  0  0  0  0  0  0
  1  6  1  0  0  0  0
  2  1  2  0  0  0  0
  2  3  1  0  0  0  0
  3  4  2  0  0  0  0
  4  5  1  0  0  0  0
  4 13  1  0  0  0  0
  5 12  1  0  0  0  0
  6 11  1  0  0  0  0
  6  5  2  0  0  0  0
  7  1  1  0  0  0  0
  8  2  1  0  0  0  0
 10  9  3  0  0  0  0
 14 17  2  0  0  0  0
 15 14  2  0  0  0  0
 16  3  1  0  0  0  0
 16 14  1  0  0  0  0
 18 14  1  0  0  0  0
 19 18  1  0  0  0  0
M  END
