Coordinates from ORCA-job Ph-N2-HSO4-B3LYPG-6-31G_dp-MTMO-d009-169-n800
 OpenBabel09051908053D

 19 18  0  0  0  0  0  0  0  0999 V2000
   -1.1491    0.9828    0.4370 C   0  0  0  0  0  0  0  0  0  0  0  0
    0.1188    0.4212    0.2805 C   0  0  0  0  0  0  0  0  0  0  0  0
    0.6989   -0.2313    1.3642 C   0  0  0  0  0  0  0  0  0  0  0  0
    0.0569   -0.3368    2.5946 C   0  0  0  0  0  0  0  0  0  0  0  0
   -1.2087    0.2321    2.7375 C   0  0  0  0  0  0  0  0  0  0  0  0
   -1.8123    0.8893    1.6625 C   0  0  0  0  0  0  0  0  0  0  0  0
   -1.6169    1.4915   -0.4003 H   0  0  0  0  0  0  0  0  0  0  0  0
    0.6534    0.4785   -0.6612 H   0  0  0  0  0  0  0  0  0  0  0  0
   12.0258    1.5966   -6.4402 N   0  0  0  0  0  0  0  0  0  0  0  0
   13.0727    1.6676   -6.7874 N   0  0  0  0  0  0  0  0  0  0  0  0
   -2.7989    1.3263    1.7793 H   0  0  0  0  0  0  0  0  0  0  0  0
   -1.7237    0.1586    3.6906 H   0  0  0  0  0  0  0  0  0  0  0  0
    0.5460   -0.8497    3.4146 H   0  0  0  0  0  0  0  0  0  0  0  0
    3.3077   -0.1155    1.6644 S   0  0  0  0  0  0  0  0  0  0  0  0
    4.3526   -1.1010    1.4762 O   0  0  0  0  0  0  0  0  0  0  0  0
    1.9403   -0.8751    1.1746 O   0  0  0  0  0  0  0  0  0  0  0  0
    3.0720    0.5865    2.9050 O   0  0  0  0  0  0  0  0  0  0  0  0
    3.4696    1.0337    0.5206 O   0  0  0  0  0  0  0  0  0  0  0  0
    3.9568    0.6360   -0.2211 H   0  0  0  0  0  0  0  0  0  0  0  0
  1  6  1  0  0  0  0
  2  1  2  0  0  0  0
  2  3  1  0  0  0  0
  3  4  2  0  0  0  0
  4  5  1  0  0  0  0
  4 13  1  0  0  0  0
  5 12  1  0  0  0  0
  6 11  1  0  0  0  0
  6  5  2  0  0  0  0
  7  1  1  0  0  0  0
  8  2  1  0  0  0  0
 10  9  3  0  0  0  0
 14 17  2  0  0  0  0
 15 14  2  0  0  0  0
 16  3  1  0  0  0  0
 16 14  1  0  0  0  0
 18 14  1  0  0  0  0
 19 18  1  0  0  0  0
M  END
