Coordinates from ORCA-job Ph-N2-HSO4-B3LYPG-6-31G_dp-MTMO-d009-169-n800
 OpenBabel09051908053D

 19 18  0  0  0  0  0  0  0  0999 V2000
   -0.8094    1.0162    0.2197 C   0  0  0  0  0  0  0  0  0  0  0  0
    0.4635    0.4758    0.0320 C   0  0  0  0  0  0  0  0  0  0  0  0
    1.0742   -0.1805    1.0963 C   0  0  0  0  0  0  0  0  0  0  0  0
    0.4582   -0.3102    2.3376 C   0  0  0  0  0  0  0  0  0  0  0  0
   -0.8128    0.2376    2.5116 C   0  0  0  0  0  0  0  0  0  0  0  0
   -1.4470    0.8981    1.4565 C   0  0  0  0  0  0  0  0  0  0  0  0
   -1.3010    1.5276   -0.6022 H   0  0  0  0  0  0  0  0  0  0  0  0
    0.9788    0.5524   -0.9190 H   0  0  0  0  0  0  0  0  0  0  0  0
    8.8910    1.1867   -4.1825 N   0  0  0  0  0  0  0  0  0  0  0  0
    9.9267    1.2295   -4.5658 N   0  0  0  0  0  0  0  0  0  0  0  0
   -2.4375    1.3187    1.5978 H   0  0  0  0  0  0  0  0  0  0  0  0
   -1.3080    0.1450    3.4735 H   0  0  0  0  0  0  0  0  0  0  0  0
    0.9708   -0.8253    3.1416 H   0  0  0  0  0  0  0  0  0  0  0  0
    3.6868   -0.0259    1.3433 S   0  0  0  0  0  0  0  0  0  0  0  0
    4.7421   -0.9949    1.1298 O   0  0  0  0  0  0  0  0  0  0  0  0
    2.3214   -0.8030    0.8755 O   0  0  0  0  0  0  0  0  0  0  0  0
    3.4644    0.6657    2.5922 O   0  0  0  0  0  0  0  0  0  0  0  0
    3.8102    1.1319    0.2035 O   0  0  0  0  0  0  0  0  0  0  0  0
    4.2895    0.7461   -0.5498 H   0  0  0  0  0  0  0  0  0  0  0  0
  1  6  1  0  0  0  0
  2  1  2  0  0  0  0
  2  3  1  0  0  0  0
  3  4  2  0  0  0  0
  4  5  1  0  0  0  0
  4 13  1  0  0  0  0
  5 12  1  0  0  0  0
  6 11  1  0  0  0  0
  6  5  2  0  0  0  0
  7  1  1  0  0  0  0
  8  2  1  0  0  0  0
 10  9  3  0  0  0  0
 14 17  2  0  0  0  0
 15 14  2  0  0  0  0
 16  3  1  0  0  0  0
 16 14  1  0  0  0  0
 18 14  1  0  0  0  0
 19 18  1  0  0  0  0
M  END
