Coordinates from ORCA-job Ph-N2-HSO4-B3LYPG-6-31G_dp-MTMO-d009-169-n800
 OpenBabel09051908053D

 19 17  0  0  0  0  0  0  0  0999 V2000
   -1.0246    0.7677   -0.4900 C   0  0  0  0  0  0  0  0  0  0  0  0
    0.1217    0.4775   -1.2691 C   0  0  0  0  0  0  0  0  0  0  0  0
    1.1294    0.2118   -0.3918 C   0  0  0  0  0  0  0  0  0  0  0  0
    1.3227    0.1577    0.8568 C   0  0  0  0  0  0  0  0  0  0  0  0
    0.1747    0.4460    1.6339 C   0  0  0  0  0  0  0  0  0  0  0  0
   -0.9937    0.7506    0.9153 C   0  0  0  0  0  0  0  0  0  0  0  0
   -1.9484    1.0079   -1.0096 H   0  0  0  0  0  0  0  0  0  0  0  0
    0.1448    0.4772   -2.3505 H   0  0  0  0  0  0  0  0  0  0  0  0
    3.0355   -0.5278   -2.1279 N   0  0  0  0  0  0  0  0  0  0  0  0
    3.9704   -1.0798   -2.3323 N   0  0  0  0  0  0  0  0  0  0  0  0
   -1.9042    0.9817    1.4614 H   0  0  0  0  0  0  0  0  0  0  0  0
    0.1834    0.4385    2.7201 H   0  0  0  0  0  0  0  0  0  0  0  0
    2.9135   -0.1841    1.6966 H   0  0  0  0  0  0  0  0  0  0  0  0
    5.0052    0.3783    1.6631 S   0  0  0  0  0  0  0  0  0  0  0  0
    6.1673   -0.2283    2.2826 O   0  0  0  0  0  0  0  0  0  0  0  0
    4.8583    0.5361    0.2297 O   0  0  0  0  0  0  0  0  0  0  0  0
    3.7268   -0.3769    2.2600 O   0  0  0  0  0  0  0  0  0  0  0  0
    4.8371    1.8816    2.2798 O   0  0  0  0  0  0  0  0  0  0  0  0
    5.2418    1.8757    3.1633 H   0  0  0  0  0  0  0  0  0  0  0  0
  1  6  1  0  0  0  0
  2  1  2  0  0  0  0
  2  3  1  0  0  0  0
  3  4  2  0  0  0  0
  4  5  1  0  0  0  0
  5 12  1  0  0  0  0
  6 11  1  0  0  0  0
  6  5  2  0  0  0  0
  7  1  1  0  0  0  0
  8  2  1  0  0  0  0
 10  9  3  0  0  0  0
 13 17  1  0  0  0  0
 14 17  1  0  0  0  0
 14 18  1  0  0  0  0
 14 15  2  0  0  0  0
 16 14  2  0  0  0  0
 18 19  1  0  0  0  0
M  RAD  2   3   2   4   2
M  END
