Coordinates from ORCA-job Ph-N2-HSO4-B3LYPG-6-31G_dp-MTMO-d009-169-n800
 OpenBabel09051908053D

 19 17  0  0  0  0  0  0  0  0999 V2000
   -0.9398    0.7288   -0.4797 C   0  0  0  0  0  0  0  0  0  0  0  0
    0.3353    0.5623   -1.0762 C   0  0  0  0  0  0  0  0  0  0  0  0
    1.2097    0.3514   -0.0522 C   0  0  0  0  0  0  0  0  0  0  0  0
    1.1957    0.2702    1.2072 C   0  0  0  0  0  0  0  0  0  0  0  0
   -0.0727    0.4340    1.8074 C   0  0  0  0  0  0  0  0  0  0  0  0
   -1.1319    0.6660    0.9118 C   0  0  0  0  0  0  0  0  0  0  0  0
   -1.7883    0.9094   -1.1344 H   0  0  0  0  0  0  0  0  0  0  0  0
    0.5274    0.6004   -2.1394 H   0  0  0  0  0  0  0  0  0  0  0  0
    3.2692   -0.4135   -2.5454 N   0  0  0  0  0  0  0  0  0  0  0  0
    4.1979   -0.9320   -2.8442 N   0  0  0  0  0  0  0  0  0  0  0  0
   -2.1349    0.8025    1.3068 H   0  0  0  0  0  0  0  0  0  0  0  0
   -0.2370    0.3868    2.8796 H   0  0  0  0  0  0  0  0  0  0  0  0
    2.8211   -0.0420    2.0660 H   0  0  0  0  0  0  0  0  0  0  0  0
    4.9201    0.2431    1.6458 S   0  0  0  0  0  0  0  0  0  0  0  0
    6.1028   -0.3300    2.2562 O   0  0  0  0  0  0  0  0  0  0  0  0
    4.5828    0.0699    0.2464 O   0  0  0  0  0  0  0  0  0  0  0  0
    3.6814   -0.1942    2.5616 O   0  0  0  0  0  0  0  0  0  0  0  0
    4.9652    1.8585    1.8759 O   0  0  0  0  0  0  0  0  0  0  0  0
    5.4577    2.0198    2.6982 H   0  0  0  0  0  0  0  0  0  0  0  0
  1  6  1  0  0  0  0
  2  1  2  0  0  0  0
  2  3  1  0  0  0  0
  3  4  2  0  0  0  0
  4  5  1  0  0  0  0
  5 12  1  0  0  0  0
  6 11  1  0  0  0  0
  6  5  2  0  0  0  0
  7  1  1  0  0  0  0
  8  2  1  0  0  0  0
 10  9  3  0  0  0  0
 13 17  1  0  0  0  0
 14 18  1  0  0  0  0
 14 15  2  0  0  0  0
 14 17  1  0  0  0  0
 16 14  2  0  0  0  0
 18 19  1  0  0  0  0
M  RAD  2   3   2   4   2
M  END
