Coordinates from ORCA-job Ph-N2-HSO4-B3LYPG-6-31G_dp-MTMO-d009-169-n800
 OpenBabel09051908053D

 19 18  0  0  0  0  0  0  0  0999 V2000
   -0.7032    1.0194    0.1595 C   0  0  0  0  0  0  0  0  0  0  0  0
    0.5639    0.4786   -0.0632 C   0  0  0  0  0  0  0  0  0  0  0  0
    1.2100   -0.1641    0.9885 C   0  0  0  0  0  0  0  0  0  0  0  0
    0.6350   -0.2796    2.2506 C   0  0  0  0  0  0  0  0  0  0  0  0
   -0.6308    0.2681    2.4594 C   0  0  0  0  0  0  0  0  0  0  0  0
   -1.3002    0.9150    1.4177 C   0  0  0  0  0  0  0  0  0  0  0  0
   -1.2223    1.5203   -0.6518 H   0  0  0  0  0  0  0  0  0  0  0  0
    1.0482    0.5451   -1.0311 H   0  0  0  0  0  0  0  0  0  0  0  0
    7.7043    1.0411   -3.1387 N   0  0  0  0  0  0  0  0  0  0  0  0
    8.7214    1.1158   -3.5645 N   0  0  0  0  0  0  0  0  0  0  0  0
   -2.2864    1.3355    1.5861 H   0  0  0  0  0  0  0  0  0  0  0  0
   -1.0942    0.1862    3.4379 H   0  0  0  0  0  0  0  0  0  0  0  0
    1.1746   -0.7846    3.0433 H   0  0  0  0  0  0  0  0  0  0  0  0
    3.8302    0.0034    1.1320 S   0  0  0  0  0  0  0  0  0  0  0  0
    4.8779   -0.9771    0.9327 O   0  0  0  0  0  0  0  0  0  0  0  0
    2.4504   -0.7881    0.7359 O   0  0  0  0  0  0  0  0  0  0  0  0
    3.6421    0.7487    2.3554 O   0  0  0  0  0  0  0  0  0  0  0  0
    3.9276    1.1090   -0.0610 O   0  0  0  0  0  0  0  0  0  0  0  0
    4.4133    0.6986   -0.7971 H   0  0  0  0  0  0  0  0  0  0  0  0
  1  6  1  0  0  0  0
  2  1  2  0  0  0  0
  2  3  1  0  0  0  0
  3  4  2  0  0  0  0
  4  5  1  0  0  0  0
  4 13  1  0  0  0  0
  5 12  1  0  0  0  0
  6 11  1  0  0  0  0
  6  5  2  0  0  0  0
  7  1  1  0  0  0  0
  8  2  1  0  0  0  0
 10  9  3  0  0  0  0
 14 17  2  0  0  0  0
 15 14  2  0  0  0  0
 16  3  1  0  0  0  0
 16 14  1  0  0  0  0
 18 14  1  0  0  0  0
 19 18  1  0  0  0  0
M  END
