Coordinates from ORCA-job Ph-N2-HSO4-B3LYPG-6-31G_dp-MTMO-d009-169-n800
 OpenBabel09051908053D

 19 18  0  0  0  0  0  0  0  0999 V2000
   -0.8727    1.0109    0.2597 C   0  0  0  0  0  0  0  0  0  0  0  0
    0.3999    0.4671    0.0799 C   0  0  0  0  0  0  0  0  0  0  0  0
    1.0027   -0.1901    1.1483 C   0  0  0  0  0  0  0  0  0  0  0  0
    0.3790   -0.3173    2.3860 C   0  0  0  0  0  0  0  0  0  0  0  0
   -0.8916    0.2339    2.5522 C   0  0  0  0  0  0  0  0  0  0  0  0
   -1.5179    0.8953    1.4929 C   0  0  0  0  0  0  0  0  0  0  0  0
   -1.3581    1.5229   -0.5654 H   0  0  0  0  0  0  0  0  0  0  0  0
    0.9210    0.5416   -0.8681 H   0  0  0  0  0  0  0  0  0  0  0  0
    9.4916    1.2723   -4.6288 N   0  0  0  0  0  0  0  0  0  0  0  0
   10.5314    1.3036   -5.0021 N   0  0  0  0  0  0  0  0  0  0  0  0
   -2.5081    1.3186    1.6280 H   0  0  0  0  0  0  0  0  0  0  0  0
   -1.3927    0.1433    3.5112 H   0  0  0  0  0  0  0  0  0  0  0  0
    0.8855   -0.8331    3.1934 H   0  0  0  0  0  0  0  0  0  0  0  0
    3.6140   -0.0424    1.4114 S   0  0  0  0  0  0  0  0  0  0  0  0
    4.6683   -1.0136    1.2027 O   0  0  0  0  0  0  0  0  0  0  0  0
    2.2495   -0.8159    0.9352 O   0  0  0  0  0  0  0  0  0  0  0  0
    3.3863    0.6485    2.6597 O   0  0  0  0  0  0  0  0  0  0  0  0
    3.7462    1.1162    0.2734 O   0  0  0  0  0  0  0  0  0  0  0  0
    4.2275    0.7296   -0.4781 H   0  0  0  0  0  0  0  0  0  0  0  0
  1  6  1  0  0  0  0
  2  1  2  0  0  0  0
  2  3  1  0  0  0  0
  3  4  2  0  0  0  0
  4  5  1  0  0  0  0
  4 13  1  0  0  0  0
  5 12  1  0  0  0  0
  6 11  1  0  0  0  0
  6  5  2  0  0  0  0
  7  1  1  0  0  0  0
  8  2  1  0  0  0  0
 10  9  3  0  0  0  0
 14 17  2  0  0  0  0
 15 14  2  0  0  0  0
 16  3  1  0  0  0  0
 16 14  1  0  0  0  0
 18 14  1  0  0  0  0
 19 18  1  0  0  0  0
M  END
