Coordinates from ORCA-job Ph-N2-HSO4-B3LYPG-6-31G_dp-MTMO-d009-169-n800
 OpenBabel09051908053D

 19 18  0  0  0  0  0  0  0  0999 V2000
   -1.3222    0.9638    0.5520 C   0  0  0  0  0  0  0  0  0  0  0  0
   -0.0560    0.3970    0.4004 C   0  0  0  0  0  0  0  0  0  0  0  0
    0.5193   -0.2536    1.4877 C   0  0  0  0  0  0  0  0  0  0  0  0
   -0.1257   -0.3521    2.7172 C   0  0  0  0  0  0  0  0  0  0  0  0
   -1.3896    0.2220    2.8551 C   0  0  0  0  0  0  0  0  0  0  0  0
   -1.9884    0.8774    1.7764 C   0  0  0  0  0  0  0  0  0  0  0  0
   -1.7863    1.4710   -0.2882 H   0  0  0  0  0  0  0  0  0  0  0  0
    0.4808    0.4487   -0.5404 H   0  0  0  0  0  0  0  0  0  0  0  0
   13.5368    1.7812   -7.4816 N   0  0  0  0  0  0  0  0  0  0  0  0
   14.5847    1.8583   -7.8246 N   0  0  0  0  0  0  0  0  0  0  0  0
   -2.9736    1.3184    1.8893 H   0  0  0  0  0  0  0  0  0  0  0  0
   -1.9068    0.1540    3.8074 H   0  0  0  0  0  0  0  0  0  0  0  0
    0.3596   -0.8637    3.5401 H   0  0  0  0  0  0  0  0  0  0  0  0
    3.1278   -0.1472    1.7948 S   0  0  0  0  0  0  0  0  0  0  0  0
    4.1694   -1.1368    1.6109 O   0  0  0  0  0  0  0  0  0  0  0  0
    1.7588   -0.9026    1.3032 O   0  0  0  0  0  0  0  0  0  0  0  0
    2.8917    0.5581    3.0334 O   0  0  0  0  0  0  0  0  0  0  0  0
    3.2966    0.9992    0.6490 O   0  0  0  0  0  0  0  0  0  0  0  0
    3.7848    0.5983   -0.0904 H   0  0  0  0  0  0  0  0  0  0  0  0
  1  6  1  0  0  0  0
  2  1  2  0  0  0  0
  2  3  1  0  0  0  0
  3  4  2  0  0  0  0
  4  5  1  0  0  0  0
  4 13  1  0  0  0  0
  5 12  1  0  0  0  0
  6 11  1  0  0  0  0
  6  5  2  0  0  0  0
  7  1  1  0  0  0  0
  8  2  1  0  0  0  0
 10  9  3  0  0  0  0
 14 17  2  0  0  0  0
 15 14  2  0  0  0  0
 16  3  1  0  0  0  0
 16 14  1  0  0  0  0
 18 14  1  0  0  0  0
 19 18  1  0  0  0  0
M  END
