Coordinates from ORCA-job Ph-N2-HSO4-B3LYPG-6-31G_dp-MTMO-d009-169-n800
 OpenBabel09051908053D

 19 19  0  0  1  0  0  0  0  0999 V2000
   -0.5338   -0.0874   -0.2809 C   0  0  0  0  0  0  0  0  0  0  0  0
    0.3627    0.2629   -1.2184 C   0  0  0  0  0  0  0  0  0  0  0  0
    1.6856    0.8882   -0.8736 C   0  0  0  0  0  0  0  0  0  0  0  0
    2.0603    0.8346    0.6550 C   0  0  1  0  0  0  0  0  0  0  0  0
    0.9243    0.5563    1.5747 C   0  0  0  0  0  0  0  0  0  0  0  0
   -0.2644    0.1093    1.1341 C   0  0  0  0  0  0  0  0  0  0  0  0
   -1.4826   -0.5202   -0.5817 H   0  0  0  0  0  0  0  0  0  0  0  0
    0.1851    0.1373   -2.2827 H   0  0  0  0  0  0  0  0  0  0  0  0
    2.2711    1.2530   -1.4824 N   0  0  0  0  0  0  0  0  0  0  0  0
    3.0236    1.7218   -2.2623 N   0  0  0  0  0  0  0  0  0  0  0  0
   -1.0547   -0.1108    1.8458 H   0  0  0  0  0  0  0  0  0  0  0  0
    1.1243    0.6938    2.6327 H   0  0  0  0  0  0  0  0  0  0  0  0
    2.5914    1.7615    0.8908 H   0  0  0  0  0  0  0  0  0  0  0  0
    4.4512    0.0111    1.5126 S   0  0  0  0  0  0  0  0  0  0  0  0
    5.2726   -1.1549    1.2857 O   0  0  0  0  0  0  0  0  0  0  0  0
    4.9330    1.3608    1.2530 O   0  0  0  0  0  0  0  0  0  0  0  0
    3.0571   -0.2690    0.7570 O   0  0  0  0  0  0  0  0  0  0  0  0
    3.8749   -0.0006    3.0500 O   0  0  0  0  0  0  0  0  0  0  0  0
    4.4802    0.5438    3.5822 H   0  0  0  0  0  0  0  0  0  0  0  0
  1  6  2  0  0  0  0
  2  3  2  0  0  0  0
  2  1  1  0  0  0  0
  3  4  1  0  0  0  0
  4 17  1  0  0  0  0
  4 13  1  1  0  0  0
  4  5  1  0  0  0  0
  5 12  1  0  0  0  0
  6  5  1  0  0  0  0
  6 11  1  0  0  0  0
  7  1  1  0  0  0  0
  8  2  1  0  0  0  0
  9  3  1  0  0  0  0
 10  9  1  0  0  0  0
 14 18  1  0  0  0  0
 15 14  2  0  0  0  0
 16 14  2  0  0  0  0
 17 14  1  0  0  0  0
 18 19  1  0  0  0  0
M  RAD  3   5   2   9   2  10   3
M  END
