Coordinates from ORCA-job Ph-N2-HSO4-B3LYPG-6-31G_dp-MTMO-d009-169-n800
 OpenBabel09051908053D

 19 18  0  0  0  0  0  0  0  0999 V2000
   -0.6873    1.0230    0.1579 C   0  0  0  0  0  0  0  0  0  0  0  0
    0.5792    0.4881   -0.0821 C   0  0  0  0  0  0  0  0  0  0  0  0
    1.2403   -0.1556    0.9596 C   0  0  0  0  0  0  0  0  0  0  0  0
    0.6814   -0.2779    2.2281 C   0  0  0  0  0  0  0  0  0  0  0  0
   -0.5842    0.2634    2.4540 C   0  0  0  0  0  0  0  0  0  0  0  0
   -1.2687    0.9114    1.4228 C   0  0  0  0  0  0  0  0  0  0  0  0
   -1.2181    1.5249   -0.6451 H   0  0  0  0  0  0  0  0  0  0  0  0
    1.0521    0.5605   -1.0551 H   0  0  0  0  0  0  0  0  0  0  0  0
    7.4225    0.9805   -2.8462 N   0  0  0  0  0  0  0  0  0  0  0  0
    8.4377    1.0674   -3.2740 N   0  0  0  0  0  0  0  0  0  0  0  0
   -2.2546    1.3272    1.6047 H   0  0  0  0  0  0  0  0  0  0  0  0
   -1.0355    0.1761    3.4377 H   0  0  0  0  0  0  0  0  0  0  0  0
    1.2327   -0.7835    3.0123 H   0  0  0  0  0  0  0  0  0  0  0  0
    3.8627    0.0291    1.0528 S   0  0  0  0  0  0  0  0  0  0  0  0
    4.9110   -0.9554    0.8761 O   0  0  0  0  0  0  0  0  0  0  0  0
    2.4805   -0.7741    0.6909 O   0  0  0  0  0  0  0  0  0  0  0  0
    3.6811    0.8096    2.2552 O   0  0  0  0  0  0  0  0  0  0  0  0
    3.9533    1.0965   -0.1752 O   0  0  0  0  0  0  0  0  0  0  0  0
    4.4756    0.6803   -0.8828 H   0  0  0  0  0  0  0  0  0  0  0  0
  1  6  1  0  0  0  0
  2  1  2  0  0  0  0
  2  3  1  0  0  0  0
  3  4  2  0  0  0  0
  4  5  1  0  0  0  0
  4 13  1  0  0  0  0
  5 12  1  0  0  0  0
  6 11  1  0  0  0  0
  6  5  2  0  0  0  0
  7  1  1  0  0  0  0
  8  2  1  0  0  0  0
 10  9  3  0  0  0  0
 14 17  2  0  0  0  0
 15 14  2  0  0  0  0
 16  3  1  0  0  0  0
 16 14  1  0  0  0  0
 18 14  1  0  0  0  0
 19 18  1  0  0  0  0
M  END
