Coordinates from ORCA-job Ph-N2-HSO4-B3LYPG-6-31G_dp-MTMO-d009-169-n800
 OpenBabel09051908053D

 19 17  0  0  0  0  0  0  0  0999 V2000
   -1.0205    0.7699   -0.4828 C   0  0  0  0  0  0  0  0  0  0  0  0
    0.1493    0.5014   -1.2352 C   0  0  0  0  0  0  0  0  0  0  0  0
    1.1365    0.2398   -0.3332 C   0  0  0  0  0  0  0  0  0  0  0  0
    1.2909    0.1766    0.9188 C   0  0  0  0  0  0  0  0  0  0  0  0
    0.1234    0.4421    1.6723 C   0  0  0  0  0  0  0  0  0  0  0  0
   -1.0279    0.7395    0.9228 C   0  0  0  0  0  0  0  0  0  0  0  0
   -1.9332    1.0038   -1.0244 H   0  0  0  0  0  0  0  0  0  0  0  0
    0.2001    0.5122   -2.3156 H   0  0  0  0  0  0  0  0  0  0  0  0
    3.1175   -0.5380   -2.2174 N   0  0  0  0  0  0  0  0  0  0  0  0
    4.0437   -1.0871   -2.4649 N   0  0  0  0  0  0  0  0  0  0  0  0
   -1.9560    0.9545    1.4454 H   0  0  0  0  0  0  0  0  0  0  0  0
    0.1027    0.4234    2.7580 H   0  0  0  0  0  0  0  0  0  0  0  0
    2.9005   -0.1685    1.7562 H   0  0  0  0  0  0  0  0  0  0  0  0
    4.9976    0.3577    1.6607 S   0  0  0  0  0  0  0  0  0  0  0  0
    6.1610   -0.2369    2.2888 O   0  0  0  0  0  0  0  0  0  0  0  0
    4.8302    0.4560    0.2244 O   0  0  0  0  0  0  0  0  0  0  0  0
    3.7195   -0.3563    2.3092 O   0  0  0  0  0  0  0  0  0  0  0  0
    4.8555    1.8874    2.2151 O   0  0  0  0  0  0  0  0  0  0  0  0
    5.2707    1.9141    3.0933 H   0  0  0  0  0  0  0  0  0  0  0  0
  1  6  1  0  0  0  0
  2  1  2  0  0  0  0
  2  3  1  0  0  0  0
  3  4  2  0  0  0  0
  4  5  1  0  0  0  0
  5 12  1  0  0  0  0
  6 11  1  0  0  0  0
  6  5  2  0  0  0  0
  7  1  1  0  0  0  0
  8  2  1  0  0  0  0
 10  9  3  0  0  0  0
 13 17  1  0  0  0  0
 14 18  1  0  0  0  0
 14 15  2  0  0  0  0
 14 17  1  0  0  0  0
 16 14  2  0  0  0  0
 18 19  1  0  0  0  0
M  RAD  2   3   2   4   2
M  END
