Coordinates from ORCA-job Ph-N2-HSO4-B3LYPG-6-31G_dp-MTMO-d009-169-n800
 OpenBabel09051908053D

 19 18  0  0  0  0  0  0  0  0999 V2000
   -1.0905    0.9891    0.3989 C   0  0  0  0  0  0  0  0  0  0  0  0
    0.1784    0.4306    0.2391 C   0  0  0  0  0  0  0  0  0  0  0  0
    0.7616   -0.2231    1.3203 C   0  0  0  0  0  0  0  0  0  0  0  0
    0.1220   -0.3326    2.5516 C   0  0  0  0  0  0  0  0  0  0  0  0
   -1.1447    0.2332    2.6978 C   0  0  0  0  0  0  0  0  0  0  0  0
   -1.7514    0.8915    1.6253 C   0  0  0  0  0  0  0  0  0  0  0  0
   -1.5608    1.4987   -0.4365 H   0  0  0  0  0  0  0  0  0  0  0  0
    0.7113    0.4911   -0.7034 H   0  0  0  0  0  0  0  0  0  0  0  0
   11.5010    1.5307   -6.0724 N   0  0  0  0  0  0  0  0  0  0  0  0
   12.5472    1.5957   -6.4229 N   0  0  0  0  0  0  0  0  0  0  0  0
   -2.7387    1.3262    1.7446 H   0  0  0  0  0  0  0  0  0  0  0  0
   -1.6579    0.1566    3.6516 H   0  0  0  0  0  0  0  0  0  0  0  0
    0.6135   -0.8463    3.3696 H   0  0  0  0  0  0  0  0  0  0  0  0
    3.3708   -0.1019    1.6157 S   0  0  0  0  0  0  0  0  0  0  0  0
    4.4174   -1.0849    1.4245 O   0  0  0  0  0  0  0  0  0  0  0  0
    2.0041   -0.8638    1.1274 O   0  0  0  0  0  0  0  0  0  0  0  0
    3.1357    0.5982    2.8575 O   0  0  0  0  0  0  0  0  0  0  0  0
    3.5282    1.0491    0.4730 O   0  0  0  0  0  0  0  0  0  0  0  0
    4.0147    0.6532   -0.2703 H   0  0  0  0  0  0  0  0  0  0  0  0
  1  6  1  0  0  0  0
  2  1  2  0  0  0  0
  2  3  1  0  0  0  0
  3  4  2  0  0  0  0
  4  5  1  0  0  0  0
  4 13  1  0  0  0  0
  5 12  1  0  0  0  0
  6 11  1  0  0  0  0
  6  5  2  0  0  0  0
  7  1  1  0  0  0  0
  8  2  1  0  0  0  0
 10  9  3  0  0  0  0
 14 17  2  0  0  0  0
 15 14  2  0  0  0  0
 16  3  1  0  0  0  0
 16 14  1  0  0  0  0
 18 14  1  0  0  0  0
 19 18  1  0  0  0  0
M  END
