Coordinates from ORCA-job Ph-N2-HSO4-B3LYPG-6-31G_dp-MTMO-d009-169-n800
 OpenBabel09051908053D

 19 18  0  0  0  0  0  0  0  0999 V2000
   -0.3703    1.0177   -0.0601 C   0  0  0  0  0  0  0  0  0  0  0  0
    0.9562    0.6148   -0.2180 C   0  0  0  0  0  0  0  0  0  0  0  0
    1.5836   -0.0524    0.8302 C   0  0  0  0  0  0  0  0  0  0  0  0
    0.9290   -0.3257    2.0280 C   0  0  0  0  0  0  0  0  0  0  0  0
   -0.3955    0.0874    2.1740 C   0  0  0  0  0  0  0  0  0  0  0  0
   -1.0457    0.7563    1.1340 C   0  0  0  0  0  0  0  0  0  0  0  0
   -0.8737    1.5355   -0.8710 H   0  0  0  0  0  0  0  0  0  0  0  0
    1.5020    0.8046   -1.1356 H   0  0  0  0  0  0  0  0  0  0  0  0
    5.3974    0.4914   -2.2060 N   0  0  0  0  0  0  0  0  0  0  0  0
    5.8501   -0.1112   -3.0126 N   0  0  0  0  0  0  0  0  0  0  0  0
   -2.0770    1.0729    1.2540 H   0  0  0  0  0  0  0  0  0  0  0  0
   -0.9197   -0.1173    3.1025 H   0  0  0  0  0  0  0  0  0  0  0  0
    1.4543   -0.8431    2.8221 H   0  0  0  0  0  0  0  0  0  0  0  0
    4.1510    0.3040    1.2762 S   0  0  0  0  0  0  0  0  0  0  0  0
    5.3094   -0.5063    0.9565 O   0  0  0  0  0  0  0  0  0  0  0  0
    2.8936   -0.5306    0.6263 O   0  0  0  0  0  0  0  0  0  0  0  0
    3.8230    0.7422    2.6135 O   0  0  0  0  0  0  0  0  0  0  0  0
    4.1649    1.6361    0.3538 O   0  0  0  0  0  0  0  0  0  0  0  0
    4.6290    1.4152   -0.4760 H   0  0  0  0  0  0  0  0  0  0  0  0
  1  6  1  0  0  0  0
  2  1  2  0  0  0  0
  2  3  1  0  0  0  0
  3  4  2  0  0  0  0
  4  5  1  0  0  0  0
  4 13  1  0  0  0  0
  5 12  1  0  0  0  0
  6 11  1  0  0  0  0
  6  5  2  0  0  0  0
  7  1  1  0  0  0  0
  8  2  1  0  0  0  0
 10  9  3  0  0  0  0
 14 17  2  0  0  0  0
 15 14  2  0  0  0  0
 16  3  1  0  0  0  0
 16 14  1  0  0  0  0
 18 14  1  0  0  0  0
 19 18  1  0  0  0  0
M  END
