Coordinates from ORCA-job Ph-N2-HSO4-B3LYPG-6-31G_dp-MTMO-d009-169-n800
 OpenBabel09051908053D

 19 18  0  0  0  0  0  0  0  0999 V2000
   -1.3530    0.9604    0.5728 C   0  0  0  0  0  0  0  0  0  0  0  0
   -0.0870    0.3932    0.4215 C   0  0  0  0  0  0  0  0  0  0  0  0
    0.4880   -0.2574    1.5090 C   0  0  0  0  0  0  0  0  0  0  0  0
   -0.1572   -0.3553    2.7385 C   0  0  0  0  0  0  0  0  0  0  0  0
   -1.4210    0.2192    2.8761 C   0  0  0  0  0  0  0  0  0  0  0  0
   -2.0195    0.8745    1.7971 C   0  0  0  0  0  0  0  0  0  0  0  0
   -1.8169    1.4676   -0.2676 H   0  0  0  0  0  0  0  0  0  0  0  0
    0.4500    0.4445   -0.5192 H   0  0  0  0  0  0  0  0  0  0  0  0
   13.8019    1.8126   -7.6626 N   0  0  0  0  0  0  0  0  0  0  0  0
   14.8499    1.8902   -8.0053 N   0  0  0  0  0  0  0  0  0  0  0  0
   -3.0045    1.3159    1.9098 H   0  0  0  0  0  0  0  0  0  0  0  0
   -1.9384    0.1517    3.8283 H   0  0  0  0  0  0  0  0  0  0  0  0
    0.3278   -0.8669    3.5616 H   0  0  0  0  0  0  0  0  0  0  0  0
    3.0964   -0.1517    1.8165 S   0  0  0  0  0  0  0  0  0  0  0  0
    4.1378   -1.1418    1.6330 O   0  0  0  0  0  0  0  0  0  0  0  0
    1.7272   -0.9068    1.3248 O   0  0  0  0  0  0  0  0  0  0  0  0
    2.8604    0.5538    3.0551 O   0  0  0  0  0  0  0  0  0  0  0  0
    3.2658    0.9944    0.6707 O   0  0  0  0  0  0  0  0  0  0  0  0
    3.7540    0.5932   -0.0686 H   0  0  0  0  0  0  0  0  0  0  0  0
  1  6  1  0  0  0  0
  2  1  2  0  0  0  0
  2  3  1  0  0  0  0
  3  4  2  0  0  0  0
  4  5  1  0  0  0  0
  4 13  1  0  0  0  0
  5 12  1  0  0  0  0
  6 11  1  0  0  0  0
  6  5  2  0  0  0  0
  7  1  1  0  0  0  0
  8  2  1  0  0  0  0
 10  9  3  0  0  0  0
 14 17  2  0  0  0  0
 15 14  2  0  0  0  0
 16  3  1  0  0  0  0
 16 14  1  0  0  0  0
 18 14  1  0  0  0  0
 19 18  1  0  0  0  0
M  END
