Coordinates from ORCA-job Ph-N2-HSO4-B3LYPG-6-31G_dp-MTMO-d009-169-n800
 OpenBabel09051908053D

 19 18  0  0  0  0  0  0  0  0999 V2000
   -0.8122    1.0160    0.2214 C   0  0  0  0  0  0  0  0  0  0  0  0
    0.4607    0.4755    0.0342 C   0  0  0  0  0  0  0  0  0  0  0  0
    1.0709   -0.1810    1.0988 C   0  0  0  0  0  0  0  0  0  0  0  0
    0.4543   -0.3106    2.3398 C   0  0  0  0  0  0  0  0  0  0  0  0
   -0.8167    0.2374    2.5134 C   0  0  0  0  0  0  0  0  0  0  0  0
   -1.4504    0.8980    1.4580 C   0  0  0  0  0  0  0  0  0  0  0  0
   -1.3034    1.5275   -0.6007 H   0  0  0  0  0  0  0  0  0  0  0  0
    0.9764    0.5520   -0.9165 H   0  0  0  0  0  0  0  0  0  0  0  0
    8.9191    1.1902   -4.2047 N   0  0  0  0  0  0  0  0  0  0  0  0
    9.9551    1.2337   -4.5871 N   0  0  0  0  0  0  0  0  0  0  0  0
   -2.4409    1.3188    1.5988 H   0  0  0  0  0  0  0  0  0  0  0  0
   -1.3123    0.1449    3.4750 H   0  0  0  0  0  0  0  0  0  0  0  0
    0.9665   -0.8258    3.1441 H   0  0  0  0  0  0  0  0  0  0  0  0
    3.6833   -0.0268    1.3471 S   0  0  0  0  0  0  0  0  0  0  0  0
    4.7386   -0.9959    1.1338 O   0  0  0  0  0  0  0  0  0  0  0  0
    2.3180   -0.8036    0.8785 O   0  0  0  0  0  0  0  0  0  0  0  0
    3.4605    0.6647    2.5959 O   0  0  0  0  0  0  0  0  0  0  0  0
    3.8074    1.1311    0.2074 O   0  0  0  0  0  0  0  0  0  0  0  0
    4.2868    0.7454   -0.5457 H   0  0  0  0  0  0  0  0  0  0  0  0
  1  6  1  0  0  0  0
  2  1  2  0  0  0  0
  2  3  1  0  0  0  0
  3  4  2  0  0  0  0
  4  5  1  0  0  0  0
  4 13  1  0  0  0  0
  5 12  1  0  0  0  0
  6 11  1  0  0  0  0
  6  5  2  0  0  0  0
  7  1  1  0  0  0  0
  8  2  1  0  0  0  0
 10  9  3  0  0  0  0
 14 17  2  0  0  0  0
 15 14  2  0  0  0  0
 16  3  1  0  0  0  0
 16 14  1  0  0  0  0
 18 14  1  0  0  0  0
 19 18  1  0  0  0  0
M  END
