Coordinates from ORCA-job Ph-N2-HSO4-B3LYPG-6-31G_dp-MTMO-d009-169-n800
 OpenBabel09051908053D

 19 18  0  0  0  0  0  0  0  0999 V2000
   -0.7018    1.0196    0.1593 C   0  0  0  0  0  0  0  0  0  0  0  0
    0.5651    0.4791   -0.0650 C   0  0  0  0  0  0  0  0  0  0  0  0
    1.2126   -0.1635    0.9859 C   0  0  0  0  0  0  0  0  0  0  0  0
    0.6393   -0.2792    2.2487 C   0  0  0  0  0  0  0  0  0  0  0  0
   -0.6264    0.2682    2.4591 C   0  0  0  0  0  0  0  0  0  0  0  0
   -1.2972    0.9150    1.4182 C   0  0  0  0  0  0  0  0  0  0  0  0
   -1.2220    1.5204   -0.6514 H   0  0  0  0  0  0  0  0  0  0  0  0
    1.0483    0.5458   -1.0334 H   0  0  0  0  0  0  0  0  0  0  0  0
    7.6788    1.0363   -3.1115 N   0  0  0  0  0  0  0  0  0  0  0  0
    8.6958    1.1129   -3.5373 N   0  0  0  0  0  0  0  0  0  0  0  0
   -2.2834    1.3353    1.5879 H   0  0  0  0  0  0  0  0  0  0  0  0
   -1.0885    0.1862    3.4382 H   0  0  0  0  0  0  0  0  0  0  0  0
    1.1800   -0.7840    3.0407 H   0  0  0  0  0  0  0  0  0  0  0  0
    3.8331    0.0052    1.1245 S   0  0  0  0  0  0  0  0  0  0  0  0
    4.8807   -0.9758    0.9273 O   0  0  0  0  0  0  0  0  0  0  0  0
    2.4530   -0.7872    0.7318 O   0  0  0  0  0  0  0  0  0  0  0  0
    3.6460    0.7540    2.3460 O   0  0  0  0  0  0  0  0  0  0  0  0
    3.9300    1.1073   -0.0719 O   0  0  0  0  0  0  0  0  0  0  0  0
    4.4183    0.6958   -0.8057 H   0  0  0  0  0  0  0  0  0  0  0  0
  1  6  1  0  0  0  0
  2  1  2  0  0  0  0
  2  3  1  0  0  0  0
  3  4  2  0  0  0  0
  4  5  1  0  0  0  0
  4 13  1  0  0  0  0
  5 12  1  0  0  0  0
  6 11  1  0  0  0  0
  6  5  2  0  0  0  0
  7  1  1  0  0  0  0
  8  2  1  0  0  0  0
 10  9  3  0  0  0  0
 14 17  2  0  0  0  0
 15 14  2  0  0  0  0
 16  3  1  0  0  0  0
 16 14  1  0  0  0  0
 18 14  1  0  0  0  0
 19 18  1  0  0  0  0
M  END
