Coordinates from ORCA-job Ph-N2-HSO4-B3LYPG-6-31G_dp-MTMO-d009-169-n800
 OpenBabel09051908053D

 19 17  0  0  0  0  0  0  0  0999 V2000
   -1.0265    0.7656   -0.4913 C   0  0  0  0  0  0  0  0  0  0  0  0
    0.1041    0.4550   -1.2846 C   0  0  0  0  0  0  0  0  0  0  0  0
    1.1244    0.1909   -0.4215 C   0  0  0  0  0  0  0  0  0  0  0  0
    1.3410    0.1502    0.8247 C   0  0  0  0  0  0  0  0  0  0  0  0
    0.2066    0.4594    1.6148 C   0  0  0  0  0  0  0  0  0  0  0  0
   -0.9715    0.7658    0.9135 C   0  0  0  0  0  0  0  0  0  0  0  0
   -1.9564    1.0082   -0.9986 H   0  0  0  0  0  0  0  0  0  0  0  0
    0.1101    0.4408   -2.3661 H   0  0  0  0  0  0  0  0  0  0  0  0
    2.9967   -0.5264   -2.0802 N   0  0  0  0  0  0  0  0  0  0  0  0
    3.9406   -1.0709   -2.2628 N   0  0  0  0  0  0  0  0  0  0  0  0
   -1.8700    1.0124    1.4724 H   0  0  0  0  0  0  0  0  0  0  0  0
    0.2339    0.4657    2.7007 H   0  0  0  0  0  0  0  0  0  0  0  0
    2.9239   -0.2018    1.6547 H   0  0  0  0  0  0  0  0  0  0  0  0
    5.0088    0.3914    1.6600 S   0  0  0  0  0  0  0  0  0  0  0  0
    6.1751   -0.2139    2.2731 O   0  0  0  0  0  0  0  0  0  0  0  0
    4.8770    0.5955    0.2309 O   0  0  0  0  0  0  0  0  0  0  0  0
    3.7385   -0.4077    2.2142 O   0  0  0  0  0  0  0  0  0  0  0  0
    4.8048    1.8697    2.3252 O   0  0  0  0  0  0  0  0  0  0  0  0
    5.2005    1.8412    3.2123 H   0  0  0  0  0  0  0  0  0  0  0  0
  1  6  1  0  0  0  0
  2  1  2  0  0  0  0
  2  3  1  0  0  0  0
  3  4  2  0  0  0  0
  4  5  1  0  0  0  0
  5 12  1  0  0  0  0
  6 11  1  0  0  0  0
  6  5  2  0  0  0  0
  7  1  1  0  0  0  0
  8  2  1  0  0  0  0
 10  9  3  0  0  0  0
 13 17  1  0  0  0  0
 14 17  1  0  0  0  0
 14 15  2  0  0  0  0
 14 18  1  0  0  0  0
 16 14  2  0  0  0  0
 18 19  1  0  0  0  0
M  RAD  2   3   2   4   2
M  END
