Coordinates from ORCA-job Ph-N2-HSO4-B3LYPG-6-31G_dp-MTMO-d009-169-n800
 OpenBabel09051908053D

 19 18  0  0  0  0  0  0  0  0999 V2000
   -0.7570    1.0184    0.1876 C   0  0  0  0  0  0  0  0  0  0  0  0
    0.5147    0.4795   -0.0122 C   0  0  0  0  0  0  0  0  0  0  0  0
    1.1380   -0.1725    1.0475 C   0  0  0  0  0  0  0  0  0  0  0  0
    0.5356   -0.2993    2.2958 C   0  0  0  0  0  0  0  0  0  0  0  0
   -0.7344    0.2470    2.4818 C   0  0  0  0  0  0  0  0  0  0  0  0
   -1.3810    0.9032    1.4316 C   0  0  0  0  0  0  0  0  0  0  0  0
   -1.2583    1.5264   -0.6305 H   0  0  0  0  0  0  0  0  0  0  0  0
    1.0196    0.5541   -0.9689 H   0  0  0  0  0  0  0  0  0  0  0  0
    8.3486    1.1210   -3.7372 N   0  0  0  0  0  0  0  0  0  0  0  0
    9.3768    1.1620   -4.1405 N   0  0  0  0  0  0  0  0  0  0  0  0
   -2.3707    1.3225    1.5822 H   0  0  0  0  0  0  0  0  0  0  0  0
   -1.2190    0.1566    3.4493 H   0  0  0  0  0  0  0  0  0  0  0  0
    1.0578   -0.8111    3.0957 H   0  0  0  0  0  0  0  0  0  0  0  0
    3.7531   -0.0121    1.2637 S   0  0  0  0  0  0  0  0  0  0  0  0
    4.8070   -0.9821    1.0480 O   0  0  0  0  0  0  0  0  0  0  0  0
    2.3837   -0.7938    0.8154 O   0  0  0  0  0  0  0  0  0  0  0  0
    3.5420    0.6894    2.5090 O   0  0  0  0  0  0  0  0  0  0  0  0
    3.8651    1.1364    0.1133 O   0  0  0  0  0  0  0  0  0  0  0  0
    4.3402    0.7457   -0.6401 H   0  0  0  0  0  0  0  0  0  0  0  0
  1  6  1  0  0  0  0
  2  1  2  0  0  0  0
  2  3  1  0  0  0  0
  3  4  2  0  0  0  0
  4  5  1  0  0  0  0
  4 13  1  0  0  0  0
  5 12  1  0  0  0  0
  6 11  1  0  0  0  0
  6  5  2  0  0  0  0
  7  1  1  0  0  0  0
  8  2  1  0  0  0  0
 10  9  3  0  0  0  0
 14 17  2  0  0  0  0
 15 14  2  0  0  0  0
 16  3  1  0  0  0  0
 16 14  1  0  0  0  0
 18 14  1  0  0  0  0
 19 18  1  0  0  0  0
M  END
