Coordinates from ORCA-job Ph-N2-HSO4-B3LYPG-6-31G_dp-MTMO-d009-169-n800
 OpenBabel09051908053D

 19 18  0  0  0  0  0  0  0  0999 V2000
   -0.2739    1.0331   -0.1172 C   0  0  0  0  0  0  0  0  0  0  0  0
    1.0656    0.6619   -0.2398 C   0  0  0  0  0  0  0  0  0  0  0  0
    1.6699   -0.0258    0.8087 C   0  0  0  0  0  0  0  0  0  0  0  0
    0.9788   -0.3507    1.9729 C   0  0  0  0  0  0  0  0  0  0  0  0
   -0.3584    0.0310    2.0841 C   0  0  0  0  0  0  0  0  0  0  0  0
   -0.9854    0.7203    1.0431 C   0  0  0  0  0  0  0  0  0  0  0  0
   -0.7591    1.5667   -0.9290 H   0  0  0  0  0  0  0  0  0  0  0  0
    1.6382    0.8916   -1.1316 H   0  0  0  0  0  0  0  0  0  0  0  0
    4.9646    0.3839   -2.1460 N   0  0  0  0  0  0  0  0  0  0  0  0
    5.1767   -0.3116   -2.9768 N   0  0  0  0  0  0  0  0  0  0  0  0
   -2.0266    1.0132    1.1361 H   0  0  0  0  0  0  0  0  0  0  0  0
   -0.9106   -0.2139    2.9863 H   0  0  0  0  0  0  0  0  0  0  0  0
    1.4864   -0.8829    2.7687 H   0  0  0  0  0  0  0  0  0  0  0  0
    4.2116    0.3611    1.3713 S   0  0  0  0  0  0  0  0  0  0  0  0
    5.3951   -0.4159    1.0638 O   0  0  0  0  0  0  0  0  0  0  0  0
    2.9963   -0.4699    0.6379 O   0  0  0  0  0  0  0  0  0  0  0  0
    3.8272    0.7411    2.7112 O   0  0  0  0  0  0  0  0  0  0  0  0
    4.2275    1.7307    0.5046 O   0  0  0  0  0  0  0  0  0  0  0  0
    4.6380    1.5275   -0.3567 H   0  0  0  0  0  0  0  0  0  0  0  0
  1  6  1  0  0  0  0
  2  1  2  0  0  0  0
  2  3  1  0  0  0  0
  3  4  2  0  0  0  0
  4  5  1  0  0  0  0
  4 13  1  0  0  0  0
  5 12  1  0  0  0  0
  6 11  1  0  0  0  0
  6  5  2  0  0  0  0
  7  1  1  0  0  0  0
  8  2  1  0  0  0  0
 10  9  3  0  0  0  0
 14 17  2  0  0  0  0
 15 14  2  0  0  0  0
 16  3  1  0  0  0  0
 16 14  1  0  0  0  0
 18 14  1  0  0  0  0
 19 18  1  0  0  0  0
M  END
