Coordinates from ORCA-job Ph-N2-HSO4-B3LYPG-6-31G_dp-MTMO-d009-169-n800
 OpenBabel09051908053D

 19 18  0  0  0  0  0  0  0  0999 V2000
   -0.8635    1.0117    0.2539 C   0  0  0  0  0  0  0  0  0  0  0  0
    0.4091    0.4684    0.0731 C   0  0  0  0  0  0  0  0  0  0  0  0
    1.0130   -0.1887    1.1409 C   0  0  0  0  0  0  0  0  0  0  0  0
    0.3902   -0.3164    2.3790 C   0  0  0  0  0  0  0  0  0  0  0  0
   -0.8805    0.2343    2.5463 C   0  0  0  0  0  0  0  0  0  0  0  0
   -1.5078    0.8957    1.4876 C   0  0  0  0  0  0  0  0  0  0  0  0
   -1.3498    1.5237   -0.5707 H   0  0  0  0  0  0  0  0  0  0  0  0
    0.9295    0.5433   -0.8753 H   0  0  0  0  0  0  0  0  0  0  0  0
    9.4055    1.2602   -4.5656 N   0  0  0  0  0  0  0  0  0  0  0  0
   10.4449    1.2927   -4.9400 N   0  0  0  0  0  0  0  0  0  0  0  0
   -2.4981    1.3185    1.6234 H   0  0  0  0  0  0  0  0  0  0  0  0
   -1.3808    0.1433    3.5056 H   0  0  0  0  0  0  0  0  0  0  0  0
    0.8976   -0.8321    3.1860 H   0  0  0  0  0  0  0  0  0  0  0  0
    3.6244   -0.0400    1.4020 S   0  0  0  0  0  0  0  0  0  0  0  0
    4.6789   -1.0108    1.1925 O   0  0  0  0  0  0  0  0  0  0  0  0
    2.2598   -0.8140    0.9267 O   0  0  0  0  0  0  0  0  0  0  0  0
    3.3974    0.6509    2.6504 O   0  0  0  0  0  0  0  0  0  0  0  0
    3.7554    1.1186    0.2638 O   0  0  0  0  0  0  0  0  0  0  0  0
    4.2364    0.7322   -0.4880 H   0  0  0  0  0  0  0  0  0  0  0  0
  1  6  1  0  0  0  0
  2  1  2  0  0  0  0
  2  3  1  0  0  0  0
  3  4  2  0  0  0  0
  4  5  1  0  0  0  0
  4 13  1  0  0  0  0
  5 12  1  0  0  0  0
  6 11  1  0  0  0  0
  6  5  2  0  0  0  0
  7  1  1  0  0  0  0
  8  2  1  0  0  0  0
 10  9  3  0  0  0  0
 14 17  2  0  0  0  0
 15 14  2  0  0  0  0
 16  3  1  0  0  0  0
 16 14  1  0  0  0  0
 18 14  1  0  0  0  0
 19 18  1  0  0  0  0
M  END
