Coordinates from ORCA-job Ph-N2-HSO4-B3LYPG-6-31G_dp-MTMO-d009-169-n800
 OpenBabel09051908053D

 19 18  0  0  0  0  0  0  0  0999 V2000
   -1.2273    0.9742    0.4885 C   0  0  0  0  0  0  0  0  0  0  0  0
    0.0397    0.4097    0.3350 C   0  0  0  0  0  0  0  0  0  0  0  0
    0.6169   -0.2417    1.4208 C   0  0  0  0  0  0  0  0  0  0  0  0
   -0.0269   -0.3431    2.6507 C   0  0  0  0  0  0  0  0  0  0  0  0
   -1.2916    0.2288    2.7906 C   0  0  0  0  0  0  0  0  0  0  0  0
   -1.8923    0.8848    1.7133 C   0  0  0  0  0  0  0  0  0  0  0  0
   -1.6929    1.4820   -0.3506 H   0  0  0  0  0  0  0  0  0  0  0  0
    0.5757    0.4637   -0.6061 H   0  0  0  0  0  0  0  0  0  0  0  0
   12.7138    1.6820   -6.9170 N   0  0  0  0  0  0  0  0  0  0  0  0
   13.7613    1.7568   -7.2615 N   0  0  0  0  0  0  0  0  0  0  0  0
   -2.8781    1.3242    1.8277 H   0  0  0  0  0  0  0  0  0  0  0  0
   -1.8080    0.1585    3.7431 H   0  0  0  0  0  0  0  0  0  0  0  0
    0.4599   -0.8552    3.4725 H   0  0  0  0  0  0  0  0  0  0  0  0
    3.2255   -0.1313    1.7253 S   0  0  0  0  0  0  0  0  0  0  0  0
    4.2685   -1.1191    1.5398 O   0  0  0  0  0  0  0  0  0  0  0  0
    1.8573   -0.8885    1.2344 O   0  0  0  0  0  0  0  0  0  0  0  0
    2.9894    0.5726    2.9648 O   0  0  0  0  0  0  0  0  0  0  0  0
    3.3915    1.0163    0.5804 O   0  0  0  0  0  0  0  0  0  0  0  0
    3.8794    0.6167   -0.1600 H   0  0  0  0  0  0  0  0  0  0  0  0
  1  6  1  0  0  0  0
  2  1  2  0  0  0  0
  2  3  1  0  0  0  0
  3  4  2  0  0  0  0
  4  5  1  0  0  0  0
  4 13  1  0  0  0  0
  5 12  1  0  0  0  0
  6 11  1  0  0  0  0
  6  5  2  0  0  0  0
  7  1  1  0  0  0  0
  8  2  1  0  0  0  0
 10  9  3  0  0  0  0
 14 17  2  0  0  0  0
 15 14  2  0  0  0  0
 16  3  1  0  0  0  0
 16 14  1  0  0  0  0
 18 14  1  0  0  0  0
 19 18  1  0  0  0  0
M  END
