Coordinates from ORCA-job Ph-N2-HSO4-B3LYPG-6-31G_dp-MTMO-d009-169-n800
 OpenBabel09051908053D

 19 18  0  0  0  0  0  0  0  0999 V2000
   -0.8036    0.5573   -0.7671 C   0  0  0  0  0  0  0  0  0  0  0  0
    0.5195    0.4027   -1.1827 C   0  0  0  0  0  0  0  0  0  0  0  0
    1.4585    0.2684   -0.1694 C   0  0  0  0  0  0  0  0  0  0  0  0
    1.2243    0.2657    1.1928 C   0  0  0  0  0  0  0  0  0  0  0  0
   -0.1168    0.4069    1.5618 C   0  0  0  0  0  0  0  0  0  0  0  0
   -1.1154    0.5580    0.5963 C   0  0  0  0  0  0  0  0  0  0  0  0
   -1.5837    0.6756   -1.5117 H   0  0  0  0  0  0  0  0  0  0  0  0
    0.7991    0.3930   -2.2294 H   0  0  0  0  0  0  0  0  0  0  0  0
    2.9385    0.0432   -0.6773 N   0  0  0  0  0  0  0  0  0  0  0  0
    3.6446   -0.3853   -1.4308 N   0  0  0  0  0  0  0  0  0  0  0  0
   -2.1482    0.6795    0.9075 H   0  0  0  0  0  0  0  0  0  0  0  0
   -0.3712    0.4049    2.6165 H   0  0  0  0  0  0  0  0  0  0  0  0
    2.0302    0.1519    1.9138 H   0  0  0  0  0  0  0  0  0  0  0  0
    4.7410    0.3308    1.6846 S   0  0  0  0  0  0  0  0  0  0  0  0
    5.5235   -0.5789    0.8310 O   0  0  0  0  0  0  0  0  0  0  0  0
    3.8918    1.2773    0.8465 O   0  0  0  0  0  0  0  0  0  0  0  0
    3.9697   -0.2551    2.7887 O   0  0  0  0  0  0  0  0  0  0  0  0
    5.8184    1.3295    2.4266 O   0  0  0  0  0  0  0  0  0  0  0  0
    6.5415    1.4661    1.7939 H   0  0  0  0  0  0  0  0  0  0  0  0
  1  6  1  0  0  0  0
  2  1  2  0  0  0  0
  2  3  1  0  0  0  0
  3  4  2  0  0  0  0
  4  5  1  0  0  0  0
  4 13  1  0  0  0  0
  5 12  1  0  0  0  0
  6 11  1  0  0  0  0
  6  5  2  0  0  0  0
  7  1  1  0  0  0  0
  8  2  1  0  0  0  0
  9  3  1  0  0  0  0
 10  9  2  0  0  0  0
 14 18  1  0  0  0  0
 14 17  1  0  0  0  0
 15 14  2  0  0  0  0
 16 14  2  0  0  0  0
 19 18  1  0  0  0  0
M  RAD  2  10   2  17   2
M  END
