Coordinates from ORCA-job Ph-N2-HSO4-B3LYPG-6-31G_dp-MTMO-d009-169-n800
 OpenBabel09051908053D

 19 18  0  0  0  0  0  0  0  0999 V2000
   -1.3410    0.9617    0.5647 C   0  0  0  0  0  0  0  0  0  0  0  0
   -0.0749    0.3947    0.4132 C   0  0  0  0  0  0  0  0  0  0  0  0
    0.5001   -0.2559    1.5007 C   0  0  0  0  0  0  0  0  0  0  0  0
   -0.1450   -0.3540    2.7302 C   0  0  0  0  0  0  0  0  0  0  0  0
   -1.4088    0.2203    2.8679 C   0  0  0  0  0  0  0  0  0  0  0  0
   -2.0074    0.8756    1.7890 C   0  0  0  0  0  0  0  0  0  0  0  0
   -1.8050    1.4689   -0.2757 H   0  0  0  0  0  0  0  0  0  0  0  0
    0.4620    0.4461   -0.5275 H   0  0  0  0  0  0  0  0  0  0  0  0
   13.6988    1.8004   -7.5922 N   0  0  0  0  0  0  0  0  0  0  0  0
   14.7467    1.8778   -7.9350 N   0  0  0  0  0  0  0  0  0  0  0  0
   -2.9925    1.3169    1.9018 H   0  0  0  0  0  0  0  0  0  0  0  0
   -1.9261    0.1526    3.8201 H   0  0  0  0  0  0  0  0  0  0  0  0
    0.3402   -0.8656    3.5533 H   0  0  0  0  0  0  0  0  0  0  0  0
    3.1086   -0.1500    1.8081 S   0  0  0  0  0  0  0  0  0  0  0  0
    4.1501   -1.1399    1.6244 O   0  0  0  0  0  0  0  0  0  0  0  0
    1.7395   -0.9052    1.3164 O   0  0  0  0  0  0  0  0  0  0  0  0
    2.8726    0.5554    3.0467 O   0  0  0  0  0  0  0  0  0  0  0  0
    3.2778    0.9962    0.6623 O   0  0  0  0  0  0  0  0  0  0  0  0
    3.7660    0.5951   -0.0770 H   0  0  0  0  0  0  0  0  0  0  0  0
  1  6  1  0  0  0  0
  2  1  2  0  0  0  0
  2  3  1  0  0  0  0
  3  4  2  0  0  0  0
  4  5  1  0  0  0  0
  4 13  1  0  0  0  0
  5 12  1  0  0  0  0
  6 11  1  0  0  0  0
  6  5  2  0  0  0  0
  7  1  1  0  0  0  0
  8  2  1  0  0  0  0
 10  9  3  0  0  0  0
 14 17  2  0  0  0  0
 15 14  2  0  0  0  0
 16  3  1  0  0  0  0
 16 14  1  0  0  0  0
 18 14  1  0  0  0  0
 19 18  1  0  0  0  0
M  END
