Coordinates from ORCA-job Ph-N2-HSO4-B3LYPG-6-31G_dp-MTMO-d009-169-n800
 OpenBabel09051908053D

 19 18  0  0  0  0  0  0  0  0999 V2000
   -0.9110    1.0074    0.2841 C   0  0  0  0  0  0  0  0  0  0  0  0
    0.3611    0.4613    0.1085 C   0  0  0  0  0  0  0  0  0  0  0  0
    0.9597   -0.1959    1.1793 C   0  0  0  0  0  0  0  0  0  0  0  0
    0.3322   -0.3209    2.4153 C   0  0  0  0  0  0  0  0  0  0  0  0
   -0.9380    0.2326    2.5773 C   0  0  0  0  0  0  0  0  0  0  0  0
   -1.5600    0.8941    1.5156 C   0  0  0  0  0  0  0  0  0  0  0  0
   -1.3932    1.5195   -0.5428 H   0  0  0  0  0  0  0  0  0  0  0  0
    0.8851    0.5340   -0.8381 H   0  0  0  0  0  0  0  0  0  0  0  0
    9.8510    1.3215   -4.8914 N   0  0  0  0  0  0  0  0  0  0  0  0
   10.8926    1.3513   -5.2599 N   0  0  0  0  0  0  0  0  0  0  0  0
   -2.5499    1.3192    1.6473 H   0  0  0  0  0  0  0  0  0  0  0  0
   -1.4420    0.1438    3.5349 H   0  0  0  0  0  0  0  0  0  0  0  0
    0.8355   -0.8368    3.2246 H   0  0  0  0  0  0  0  0  0  0  0  0
    3.5704   -0.0526    1.4502 S   0  0  0  0  0  0  0  0  0  0  0  0
    4.6237   -1.0255    1.2446 O   0  0  0  0  0  0  0  0  0  0  0  0
    2.2060   -0.8240    0.9703 O   0  0  0  0  0  0  0  0  0  0  0  0
    3.3404    0.6391    2.6976 O   0  0  0  0  0  0  0  0  0  0  0  0
    3.7076    1.1055    0.3121 O   0  0  0  0  0  0  0  0  0  0  0  0
    4.1902    0.7178   -0.4379 H   0  0  0  0  0  0  0  0  0  0  0  0
  1  6  1  0  0  0  0
  2  1  2  0  0  0  0
  2  3  1  0  0  0  0
  3  4  2  0  0  0  0
  4  5  1  0  0  0  0
  4 13  1  0  0  0  0
  5 12  1  0  0  0  0
  6 11  1  0  0  0  0
  6  5  2  0  0  0  0
  7  1  1  0  0  0  0
  8  2  1  0  0  0  0
 10  9  3  0  0  0  0
 14 17  2  0  0  0  0
 15 14  2  0  0  0  0
 16  3  1  0  0  0  0
 16 14  1  0  0  0  0
 18 14  1  0  0  0  0
 19 18  1  0  0  0  0
M  END
