Coordinates from ORCA-job Ph-N2-HSO4-B3LYPG-6-31G_dp-MTMO-d009-169-n800
 OpenBabel09051908053D

 19 18  0  0  0  0  0  0  0  0999 V2000
   -1.3000    0.9662    0.5370 C   0  0  0  0  0  0  0  0  0  0  0  0
   -0.0336    0.3998    0.3851 C   0  0  0  0  0  0  0  0  0  0  0  0
    0.5420   -0.2509    1.4722 C   0  0  0  0  0  0  0  0  0  0  0  0
   -0.1028   -0.3499    2.7018 C   0  0  0  0  0  0  0  0  0  0  0  0
   -1.3669    0.2238    2.8400 C   0  0  0  0  0  0  0  0  0  0  0  0
   -1.9661    0.8793    1.7615 C   0  0  0  0  0  0  0  0  0  0  0  0
   -1.7644    1.4735   -0.3030 H   0  0  0  0  0  0  0  0  0  0  0  0
    0.5030    0.4519   -0.5557 H   0  0  0  0  0  0  0  0  0  0  0  0
   13.3455    1.7584   -7.3508 N   0  0  0  0  0  0  0  0  0  0  0  0
   14.3934    1.8351   -7.6940 N   0  0  0  0  0  0  0  0  0  0  0  0
   -2.9514    1.3201    1.8747 H   0  0  0  0  0  0  0  0  0  0  0  0
   -1.8840    0.1555    3.7923 H   0  0  0  0  0  0  0  0  0  0  0  0
    0.3827   -0.8616    3.5245 H   0  0  0  0  0  0  0  0  0  0  0  0
    3.1504   -0.1437    1.7789 S   0  0  0  0  0  0  0  0  0  0  0  0
    4.1923   -1.1331    1.5948 O   0  0  0  0  0  0  0  0  0  0  0  0
    1.7816   -0.8995    1.2874 O   0  0  0  0  0  0  0  0  0  0  0  0
    2.9144    0.5613    3.0177 O   0  0  0  0  0  0  0  0  0  0  0  0
    3.3188    1.0028    0.6333 O   0  0  0  0  0  0  0  0  0  0  0  0
    3.8069    0.6021   -0.1063 H   0  0  0  0  0  0  0  0  0  0  0  0
  1  6  1  0  0  0  0
  2  1  2  0  0  0  0
  2  3  1  0  0  0  0
  3  4  2  0  0  0  0
  4  5  1  0  0  0  0
  4 13  1  0  0  0  0
  5 12  1  0  0  0  0
  6 11  1  0  0  0  0
  6  5  2  0  0  0  0
  7  1  1  0  0  0  0
  8  2  1  0  0  0  0
 10  9  3  0  0  0  0
 14 17  2  0  0  0  0
 15 14  2  0  0  0  0
 16  3  1  0  0  0  0
 16 14  1  0  0  0  0
 18 14  1  0  0  0  0
 19 18  1  0  0  0  0
M  END
