Coordinates from ORCA-job Ph-N2-HSO4-B3LYPG-6-31G_dp-MTMO-d009-169-n800
 OpenBabel09051908053D

 19 17  0  0  0  0  0  0  0  0999 V2000
   -1.0252    0.7685   -0.4883 C   0  0  0  0  0  0  0  0  0  0  0  0
    0.1224    0.4788   -1.2656 C   0  0  0  0  0  0  0  0  0  0  0  0
    1.1287    0.2138   -0.3865 C   0  0  0  0  0  0  0  0  0  0  0  0
    1.3194    0.1601    0.8622 C   0  0  0  0  0  0  0  0  0  0  0  0
    0.1705    0.4477    1.6381 C   0  0  0  0  0  0  0  0  0  0  0  0
   -0.9967    0.7516    0.9172 C   0  0  0  0  0  0  0  0  0  0  0  0
   -1.9483    1.0082   -1.0095 H   0  0  0  0  0  0  0  0  0  0  0  0
    0.1474    0.4783   -2.3469 H   0  0  0  0  0  0  0  0  0  0  0  0
    3.0474   -0.5309   -2.1376 N   0  0  0  0  0  0  0  0  0  0  0  0
    3.9816   -1.0829   -2.3456 N   0  0  0  0  0  0  0  0  0  0  0  0
   -1.9082    0.9824    1.4618 H   0  0  0  0  0  0  0  0  0  0  0  0
    0.1775    0.4403    2.7242 H   0  0  0  0  0  0  0  0  0  0  0  0
    2.9137   -0.1852    1.6988 H   0  0  0  0  0  0  0  0  0  0  0  0
    5.0053    0.3769    1.6620 S   0  0  0  0  0  0  0  0  0  0  0  0
    6.1680   -0.2263    2.2837 O   0  0  0  0  0  0  0  0  0  0  0  0
    4.8593    0.5318    0.2283 O   0  0  0  0  0  0  0  0  0  0  0  0
    3.7281   -0.3800    2.2596 O   0  0  0  0  0  0  0  0  0  0  0  0
    4.8335    1.8809    2.2759 O   0  0  0  0  0  0  0  0  0  0  0  0
    5.2373    1.8775    3.1598 H   0  0  0  0  0  0  0  0  0  0  0  0
  1  6  1  0  0  0  0
  2  1  2  0  0  0  0
  2  3  1  0  0  0  0
  3  4  2  0  0  0  0
  4  5  1  0  0  0  0
  5 12  1  0  0  0  0
  6 11  1  0  0  0  0
  6  5  2  0  0  0  0
  7  1  1  0  0  0  0
  8  2  1  0  0  0  0
 10  9  3  0  0  0  0
 13 17  1  0  0  0  0
 14 17  1  0  0  0  0
 14 18  1  0  0  0  0
 14 15  2  0  0  0  0
 16 14  2  0  0  0  0
 18 19  1  0  0  0  0
M  RAD  2   3   2   4   2
M  END
