Coordinates from ORCA-job Ph-N2-HSO4-B3LYPG-6-31G_dp-MTMO-d009-169-n800
 OpenBabel09051908053D

 19 18  0  0  0  0  0  0  0  0999 V2000
   -0.6322    1.0184    0.1334 C   0  0  0  0  0  0  0  0  0  0  0  0
    0.6516    0.5510   -0.1509 C   0  0  0  0  0  0  0  0  0  0  0  0
    1.3625   -0.1007    0.8525 C   0  0  0  0  0  0  0  0  0  0  0  0
    0.8359   -0.2958    2.1256 C   0  0  0  0  0  0  0  0  0  0  0  0
   -0.4477    0.1789    2.3962 C   0  0  0  0  0  0  0  0  0  0  0  0
   -1.1818    0.8335    1.4040 C   0  0  0  0  0  0  0  0  0  0  0  0
   -1.2015    1.5254   -0.6396 H   0  0  0  0  0  0  0  0  0  0  0  0
    1.1016    0.6816   -1.1287 H   0  0  0  0  0  0  0  0  0  0  0  0
    6.5145    0.6790   -2.1352 N   0  0  0  0  0  0  0  0  0  0  0  0
    7.5067    0.4525   -2.5634 N   0  0  0  0  0  0  0  0  0  0  0  0
   -2.1809    1.1979    1.6209 H   0  0  0  0  0  0  0  0  0  0  0  0
   -0.8737    0.0345    3.3844 H   0  0  0  0  0  0  0  0  0  0  0  0
    1.4254   -0.8045    2.8794 H   0  0  0  0  0  0  0  0  0  0  0  0
    3.9772    0.1988    0.9040 S   0  0  0  0  0  0  0  0  0  0  0  0
    5.0663   -0.7313    0.6784 O   0  0  0  0  0  0  0  0  0  0  0  0
    2.6237   -0.6497    0.5345 O   0  0  0  0  0  0  0  0  0  0  0  0
    3.7803    0.9173    2.1432 O   0  0  0  0  0  0  0  0  0  0  0  0
    4.0017    1.3063   -0.2847 O   0  0  0  0  0  0  0  0  0  0  0  0
    4.6320    0.9980   -0.9624 H   0  0  0  0  0  0  0  0  0  0  0  0
  1  6  1  0  0  0  0
  2  1  2  0  0  0  0
  2  3  1  0  0  0  0
  3  4  2  0  0  0  0
  4  5  1  0  0  0  0
  4 13  1  0  0  0  0
  5 12  1  0  0  0  0
  6 11  1  0  0  0  0
  6  5  2  0  0  0  0
  7  1  1  0  0  0  0
  8  2  1  0  0  0  0
 10  9  3  0  0  0  0
 14 17  2  0  0  0  0
 15 14  2  0  0  0  0
 16  3  1  0  0  0  0
 16 14  1  0  0  0  0
 18 14  1  0  0  0  0
 19 18  1  0  0  0  0
M  END
