Coordinates from ORCA-job Ph-N2-HSO4-B3LYPG-6-31G_dp-MTMO-d009-169-n800
 OpenBabel09051908053D

 19 18  0  0  0  0  0  0  0  0999 V2000
   -1.1772    0.9797    0.4554 C   0  0  0  0  0  0  0  0  0  0  0  0
    0.0904    0.4169    0.3002 C   0  0  0  0  0  0  0  0  0  0  0  0
    0.6692   -0.2352    1.3847 C   0  0  0  0  0  0  0  0  0  0  0  0
    0.0265   -0.3389    2.6149 C   0  0  0  0  0  0  0  0  0  0  0  0
   -1.2388    0.2311    2.7565 C   0  0  0  0  0  0  0  0  0  0  0  0
   -1.8412    0.8879    1.6806 C   0  0  0  0  0  0  0  0  0  0  0  0
   -1.6441    1.4881   -0.3826 H   0  0  0  0  0  0  0  0  0  0  0  0
    0.6256    0.4729   -0.6413 H   0  0  0  0  0  0  0  0  0  0  0  0
   12.2743    1.6276   -6.6131 N   0  0  0  0  0  0  0  0  0  0  0  0
   13.3215    1.7004   -6.9591 N   0  0  0  0  0  0  0  0  0  0  0  0
   -2.8275    1.3259    1.7964 H   0  0  0  0  0  0  0  0  0  0  0  0
   -1.7544    0.1590    3.7094 H   0  0  0  0  0  0  0  0  0  0  0  0
    0.5146   -0.8516    3.4356 H   0  0  0  0  0  0  0  0  0  0  0  0
    3.2780   -0.1215    1.6868 S   0  0  0  0  0  0  0  0  0  0  0  0
    4.3221   -1.1079    1.4997 O   0  0  0  0  0  0  0  0  0  0  0  0
    1.9102   -0.8801    1.1965 O   0  0  0  0  0  0  0  0  0  0  0  0
    3.0420    0.5813    2.9269 O   0  0  0  0  0  0  0  0  0  0  0  0
    3.4415    1.0271    0.5425 O   0  0  0  0  0  0  0  0  0  0  0  0
    3.9291    0.6286   -0.1986 H   0  0  0  0  0  0  0  0  0  0  0  0
  1  6  1  0  0  0  0
  2  1  2  0  0  0  0
  2  3  1  0  0  0  0
  3  4  2  0  0  0  0
  4  5  1  0  0  0  0
  4 13  1  0  0  0  0
  5 12  1  0  0  0  0
  6 11  1  0  0  0  0
  6  5  2  0  0  0  0
  7  1  1  0  0  0  0
  8  2  1  0  0  0  0
 10  9  3  0  0  0  0
 14 17  2  0  0  0  0
 15 14  2  0  0  0  0
 16  3  1  0  0  0  0
 16 14  1  0  0  0  0
 18 14  1  0  0  0  0
 19 18  1  0  0  0  0
M  END
