Coordinates from ORCA-job Ph-N2-HSO4-B3LYPG-6-31G_dp-MTMO-d009-169-n800
 OpenBabel09051908053D

 19 18  0  0  0  0  0  0  0  0999 V2000
   -1.0937    0.9888    0.4010 C   0  0  0  0  0  0  0  0  0  0  0  0
    0.1751    0.4301    0.2414 C   0  0  0  0  0  0  0  0  0  0  0  0
    0.7581   -0.2236    1.3228 C   0  0  0  0  0  0  0  0  0  0  0  0
    0.1183   -0.3328    2.5540 C   0  0  0  0  0  0  0  0  0  0  0  0
   -1.1483    0.2332    2.7000 C   0  0  0  0  0  0  0  0  0  0  0  0
   -1.7548    0.8914    1.6273 C   0  0  0  0  0  0  0  0  0  0  0  0
   -1.5638    1.4983   -0.4345 H   0  0  0  0  0  0  0  0  0  0  0  0
    0.7081    0.4903   -0.7010 H   0  0  0  0  0  0  0  0  0  0  0  0
   11.5301    1.5343   -6.0929 N   0  0  0  0  0  0  0  0  0  0  0  0
   12.5763    1.5998   -6.4432 N   0  0  0  0  0  0  0  0  0  0  0  0
   -2.7420    1.3263    1.7465 H   0  0  0  0  0  0  0  0  0  0  0  0
   -1.6616    0.1567    3.6537 H   0  0  0  0  0  0  0  0  0  0  0  0
    0.6097   -0.8465    3.3721 H   0  0  0  0  0  0  0  0  0  0  0  0
    3.3673   -0.1026    1.6185 S   0  0  0  0  0  0  0  0  0  0  0  0
    4.4138   -1.0858    1.4275 O   0  0  0  0  0  0  0  0  0  0  0  0
    2.0006   -0.8644    1.1301 O   0  0  0  0  0  0  0  0  0  0  0  0
    3.1321    0.5975    2.8602 O   0  0  0  0  0  0  0  0  0  0  0  0
    3.5249    1.0482    0.4757 O   0  0  0  0  0  0  0  0  0  0  0  0
    4.0115    0.6522   -0.2675 H   0  0  0  0  0  0  0  0  0  0  0  0
  1  6  1  0  0  0  0
  2  1  2  0  0  0  0
  2  3  1  0  0  0  0
  3  4  2  0  0  0  0
  4  5  1  0  0  0  0
  4 13  1  0  0  0  0
  5 12  1  0  0  0  0
  6 11  1  0  0  0  0
  6  5  2  0  0  0  0
  7  1  1  0  0  0  0
  8  2  1  0  0  0  0
 10  9  3  0  0  0  0
 14 17  2  0  0  0  0
 15 14  2  0  0  0  0
 16  3  1  0  0  0  0
 16 14  1  0  0  0  0
 18 14  1  0  0  0  0
 19 18  1  0  0  0  0
M  END
