Coordinates from ORCA-job Ph-N2-HSO4-B3LYPG-6-31G_dp-MTMO-d009-169-n800
 OpenBabel09051908053D

 19 18  0  0  0  0  0  0  0  0999 V2000
   -1.3445    0.9614    0.5670 C   0  0  0  0  0  0  0  0  0  0  0  0
   -0.0783    0.3942    0.4156 C   0  0  0  0  0  0  0  0  0  0  0  0
    0.4967   -0.2563    1.5031 C   0  0  0  0  0  0  0  0  0  0  0  0
   -0.1485   -0.3544    2.7325 C   0  0  0  0  0  0  0  0  0  0  0  0
   -1.4122    0.2200    2.8703 C   0  0  0  0  0  0  0  0  0  0  0  0
   -2.0108    0.8753    1.7913 C   0  0  0  0  0  0  0  0  0  0  0  0
   -1.8084    1.4685   -0.2734 H   0  0  0  0  0  0  0  0  0  0  0  0
    0.4586    0.4456   -0.5251 H   0  0  0  0  0  0  0  0  0  0  0  0
   13.7283    1.8039   -7.6123 N   0  0  0  0  0  0  0  0  0  0  0  0
   14.7762    1.8814   -7.9551 N   0  0  0  0  0  0  0  0  0  0  0  0
   -2.9959    1.3166    1.9041 H   0  0  0  0  0  0  0  0  0  0  0  0
   -1.9296    0.1524    3.8225 H   0  0  0  0  0  0  0  0  0  0  0  0
    0.3366   -0.8660    3.5556 H   0  0  0  0  0  0  0  0  0  0  0  0
    3.1051   -0.1505    1.8105 S   0  0  0  0  0  0  0  0  0  0  0  0
    4.1466   -1.1404    1.6269 O   0  0  0  0  0  0  0  0  0  0  0  0
    1.7360   -0.9056    1.3188 O   0  0  0  0  0  0  0  0  0  0  0  0
    2.8691    0.5549    3.0491 O   0  0  0  0  0  0  0  0  0  0  0  0
    3.2744    0.9957    0.6647 O   0  0  0  0  0  0  0  0  0  0  0  0
    3.7626    0.5946   -0.0746 H   0  0  0  0  0  0  0  0  0  0  0  0
  1  6  1  0  0  0  0
  2  1  2  0  0  0  0
  2  3  1  0  0  0  0
  3  4  2  0  0  0  0
  4  5  1  0  0  0  0
  4 13  1  0  0  0  0
  5 12  1  0  0  0  0
  6 11  1  0  0  0  0
  6  5  2  0  0  0  0
  7  1  1  0  0  0  0
  8  2  1  0  0  0  0
 10  9  3  0  0  0  0
 14 17  2  0  0  0  0
 15 14  2  0  0  0  0
 16  3  1  0  0  0  0
 16 14  1  0  0  0  0
 18 14  1  0  0  0  0
 19 18  1  0  0  0  0
M  END
