Coordinates from ORCA-job Ph-N2-HSO4-B3LYPG-6-31G_dp-MTMO-d009-169-n800
 OpenBabel09051908053D

 19 18  0  0  0  0  0  0  0  0999 V2000
   -0.6292    1.0225    0.1336 C   0  0  0  0  0  0  0  0  0  0  0  0
    0.6534    0.5476   -0.1439 C   0  0  0  0  0  0  0  0  0  0  0  0
    1.3558   -0.1062    0.8641 C   0  0  0  0  0  0  0  0  0  0  0  0
    0.8222   -0.2960    2.1351 C   0  0  0  0  0  0  0  0  0  0  0  0
   -0.4601    0.1859    2.3988 C   0  0  0  0  0  0  0  0  0  0  0  0
   -1.1859    0.8427    1.4019 C   0  0  0  0  0  0  0  0  0  0  0  0
   -1.1920    1.5314   -0.6429 H   0  0  0  0  0  0  0  0  0  0  0  0
    1.1087    0.6740   -1.1197 H   0  0  0  0  0  0  0  0  0  0  0  0
    6.5412    0.7105   -2.1767 N   0  0  0  0  0  0  0  0  0  0  0  0
    7.5324    0.5378   -2.6315 N   0  0  0  0  0  0  0  0  0  0  0  0
   -2.1841    1.2127    1.6134 H   0  0  0  0  0  0  0  0  0  0  0  0
   -0.8917    0.0455    3.3851 H   0  0  0  0  0  0  0  0  0  0  0  0
    1.4055   -0.8066    2.8925 H   0  0  0  0  0  0  0  0  0  0  0  0
    3.9720    0.1828    0.9179 S   0  0  0  0  0  0  0  0  0  0  0  0
    5.0563   -0.7600    0.7238 O   0  0  0  0  0  0  0  0  0  0  0  0
    2.6154   -0.6634    0.5542 O   0  0  0  0  0  0  0  0  0  0  0  0
    3.7680    0.9307    2.1384 O   0  0  0  0  0  0  0  0  0  0  0  0
    4.0178    1.2629   -0.2957 O   0  0  0  0  0  0  0  0  0  0  0  0
    4.6560    0.9366   -0.9572 H   0  0  0  0  0  0  0  0  0  0  0  0
  1  6  1  0  0  0  0
  2  1  2  0  0  0  0
  2  3  1  0  0  0  0
  3  4  2  0  0  0  0
  4  5  1  0  0  0  0
  4 13  1  0  0  0  0
  5 12  1  0  0  0  0
  6 11  1  0  0  0  0
  6  5  2  0  0  0  0
  7  1  1  0  0  0  0
  8  2  1  0  0  0  0
 10  9  3  0  0  0  0
 14 17  2  0  0  0  0
 15 14  2  0  0  0  0
 16  3  1  0  0  0  0
 16 14  1  0  0  0  0
 18 14  1  0  0  0  0
 19 18  1  0  0  0  0
M  END
