Coordinates from ORCA-job Ph-N2-HSO4-B3LYPG-6-31G_dp-MTMO-d009-169-n800
 OpenBabel09051908053D

 19 18  0  0  0  0  0  0  0  0999 V2000
   -1.1972    0.9775    0.4685 C   0  0  0  0  0  0  0  0  0  0  0  0
    0.0702    0.4140    0.3141 C   0  0  0  0  0  0  0  0  0  0  0  0
    0.6483   -0.2378    1.3992 C   0  0  0  0  0  0  0  0  0  0  0  0
    0.0051   -0.3406    2.6292 C   0  0  0  0  0  0  0  0  0  0  0  0
   -1.2600    0.2303    2.7701 C   0  0  0  0  0  0  0  0  0  0  0  0
   -1.8616    0.8868    1.6936 C   0  0  0  0  0  0  0  0  0  0  0  0
   -1.6635    1.4856   -0.3699 H   0  0  0  0  0  0  0  0  0  0  0  0
    0.6057    0.4691   -0.6272 H   0  0  0  0  0  0  0  0  0  0  0  0
   12.4500    1.6495   -6.7348 N   0  0  0  0  0  0  0  0  0  0  0  0
   13.4973    1.7232   -7.0802 N   0  0  0  0  0  0  0  0  0  0  0  0
   -2.8477    1.3253    1.8087 H   0  0  0  0  0  0  0  0  0  0  0  0
   -1.7759    0.1590    3.7228 H   0  0  0  0  0  0  0  0  0  0  0  0
    0.4926   -0.8530    3.4504 H   0  0  0  0  0  0  0  0  0  0  0  0
    3.2570   -0.1255    1.7023 S   0  0  0  0  0  0  0  0  0  0  0  0
    4.3006   -1.1125    1.5159 O   0  0  0  0  0  0  0  0  0  0  0  0
    1.8890   -0.8835    1.2117 O   0  0  0  0  0  0  0  0  0  0  0  0
    3.0210    0.5778    2.9421 O   0  0  0  0  0  0  0  0  0  0  0  0
    3.4216    1.0226    0.5578 O   0  0  0  0  0  0  0  0  0  0  0  0
    3.9093    0.6237   -0.1830 H   0  0  0  0  0  0  0  0  0  0  0  0
  1  6  1  0  0  0  0
  2  1  2  0  0  0  0
  2  3  1  0  0  0  0
  3  4  2  0  0  0  0
  4  5  1  0  0  0  0
  4 13  1  0  0  0  0
  5 12  1  0  0  0  0
  6 11  1  0  0  0  0
  6  5  2  0  0  0  0
  7  1  1  0  0  0  0
  8  2  1  0  0  0  0
 10  9  3  0  0  0  0
 14 17  2  0  0  0  0
 15 14  2  0  0  0  0
 16  3  1  0  0  0  0
 16 14  1  0  0  0  0
 18 14  1  0  0  0  0
 19 18  1  0  0  0  0
M  END
