Coordinates from ORCA-job Ph-N2-HSO4-B3LYPG-6-31G_dp-MTMO-d009-169-n800
 OpenBabel09051908053D

 19 18  0  0  0  0  0  0  0  0999 V2000
   -1.2256    0.9744    0.4874 C   0  0  0  0  0  0  0  0  0  0  0  0
    0.0414    0.4099    0.3338 C   0  0  0  0  0  0  0  0  0  0  0  0
    0.6186   -0.2415    1.4196 C   0  0  0  0  0  0  0  0  0  0  0  0
   -0.0251   -0.3429    2.6495 C   0  0  0  0  0  0  0  0  0  0  0  0
   -1.2899    0.2289    2.7894 C   0  0  0  0  0  0  0  0  0  0  0  0
   -1.8906    0.8850    1.7122 C   0  0  0  0  0  0  0  0  0  0  0  0
   -1.6912    1.4822   -0.3516 H   0  0  0  0  0  0  0  0  0  0  0  0
    0.5774    0.4640   -0.6073 H   0  0  0  0  0  0  0  0  0  0  0  0
   12.6991    1.6802   -6.9069 N   0  0  0  0  0  0  0  0  0  0  0  0
   13.7467    1.7550   -7.2514 N   0  0  0  0  0  0  0  0  0  0  0  0
   -2.8764    1.3243    1.8266 H   0  0  0  0  0  0  0  0  0  0  0  0
   -1.8062    0.1586    3.7419 H   0  0  0  0  0  0  0  0  0  0  0  0
    0.4617   -0.8551    3.4712 H   0  0  0  0  0  0  0  0  0  0  0  0
    3.2272   -0.1309    1.7241 S   0  0  0  0  0  0  0  0  0  0  0  0
    4.2703   -1.1188    1.5385 O   0  0  0  0  0  0  0  0  0  0  0  0
    1.8590   -0.8882    1.2331 O   0  0  0  0  0  0  0  0  0  0  0  0
    2.9912    0.5729    2.9635 O   0  0  0  0  0  0  0  0  0  0  0  0
    3.3931    1.0166    0.5792 O   0  0  0  0  0  0  0  0  0  0  0  0
    3.8810    0.6171   -0.1612 H   0  0  0  0  0  0  0  0  0  0  0  0
  1  6  1  0  0  0  0
  2  1  2  0  0  0  0
  2  3  1  0  0  0  0
  3  4  2  0  0  0  0
  4  5  1  0  0  0  0
  4 13  1  0  0  0  0
  5 12  1  0  0  0  0
  6 11  1  0  0  0  0
  6  5  2  0  0  0  0
  7  1  1  0  0  0  0
  8  2  1  0  0  0  0
 10  9  3  0  0  0  0
 14 17  2  0  0  0  0
 15 14  2  0  0  0  0
 16  3  1  0  0  0  0
 16 14  1  0  0  0  0
 18 14  1  0  0  0  0
 19 18  1  0  0  0  0
M  END
