Coordinates from ORCA-job Ph-N2-HSO4-B3LYPG-6-31G_dp-MTMO-d009-169-n800
 OpenBabel09051908053D

 19 17  0  0  0  0  0  0  0  0999 V2000
   -0.8763    0.5895   -0.7109 C   0  0  0  0  0  0  0  0  0  0  0  0
    0.4215    0.3996   -1.2186 C   0  0  0  0  0  0  0  0  0  0  0  0
    1.3298    0.2366   -0.2136 C   0  0  0  0  0  0  0  0  0  0  0  0
    1.2731    0.2213    1.1371 C   0  0  0  0  0  0  0  0  0  0  0  0
   -0.0557    0.4081    1.5746 C   0  0  0  0  0  0  0  0  0  0  0  0
   -1.1033    0.5922    0.6686 C   0  0  0  0  0  0  0  0  0  0  0  0
   -1.6915    0.7342   -1.4125 H   0  0  0  0  0  0  0  0  0  0  0  0
    0.6544    0.3895   -2.2747 H   0  0  0  0  0  0  0  0  0  0  0  0
    3.0859   -0.0829   -0.9244 N   0  0  0  0  0  0  0  0  0  0  0  0
    3.8084   -0.5418   -1.6294 N   0  0  0  0  0  0  0  0  0  0  0  0
   -2.1110    0.7426    1.0415 H   0  0  0  0  0  0  0  0  0  0  0  0
   -0.2395    0.4118    2.6446 H   0  0  0  0  0  0  0  0  0  0  0  0
    2.1345    0.0790    1.8104 H   0  0  0  0  0  0  0  0  0  0  0  0
    4.7272    0.3858    1.6612 S   0  0  0  0  0  0  0  0  0  0  0  0
    5.6558   -0.5371    0.9891 O   0  0  0  0  0  0  0  0  0  0  0  0
    4.0224    1.3060    0.7016 O   0  0  0  0  0  0  0  0  0  0  0  0
    3.7817   -0.2135    2.6331 O   0  0  0  0  0  0  0  0  0  0  0  0
    5.6559    1.3777    2.5993 O   0  0  0  0  0  0  0  0  0  0  0  0
    6.4884    1.4927    2.1146 H   0  0  0  0  0  0  0  0  0  0  0  0
  1  6  1  0  0  0  0
  2  1  2  0  0  0  0
  2  3  1  0  0  0  0
  3  4  2  0  0  0  0
  4  5  1  0  0  0  0
  4 13  1  0  0  0  0
  5 12  1  0  0  0  0
  6 11  1  0  0  0  0
  6  5  2  0  0  0  0
  7  1  1  0  0  0  0
  8  2  1  0  0  0  0
 10  9  3  0  0  0  0
 14 18  1  0  0  0  0
 14 17  1  0  0  0  0
 15 14  2  0  0  0  0
 16 14  2  0  0  0  0
 19 18  1  0  0  0  0
M  RAD  2   3   2  17   2
M  END
