Coordinates from ORCA-job Ph-N2-HSO4-B3LYPG-6-31G_dp-MTMO-d009-169-n800
 OpenBabel09051908053D

 19 18  0  0  0  0  0  0  0  0999 V2000
   -0.8422    1.0135    0.2403 C   0  0  0  0  0  0  0  0  0  0  0  0
    0.4306    0.4713    0.0571 C   0  0  0  0  0  0  0  0  0  0  0  0
    1.0369   -0.1856    1.1236 C   0  0  0  0  0  0  0  0  0  0  0  0
    0.4165   -0.3140    2.3629 C   0  0  0  0  0  0  0  0  0  0  0  0
   -0.8544    0.2355    2.5325 C   0  0  0  0  0  0  0  0  0  0  0  0
   -1.4841    0.8967    1.4751 C   0  0  0  0  0  0  0  0  0  0  0  0
   -1.3303    1.5253   -0.5833 H   0  0  0  0  0  0  0  0  0  0  0  0
    0.9492    0.5469   -0.8922 H   0  0  0  0  0  0  0  0  0  0  0  0
    9.2046    1.2317   -4.4179 N   0  0  0  0  0  0  0  0  0  0  0  0
   10.2428    1.2682   -4.7951 N   0  0  0  0  0  0  0  0  0  0  0  0
   -2.4745    1.3187    1.6128 H   0  0  0  0  0  0  0  0  0  0  0  0
   -1.3529    0.1439    3.4927 H   0  0  0  0  0  0  0  0  0  0  0  0
    0.9257   -0.8296    3.1687 H   0  0  0  0  0  0  0  0  0  0  0  0
    3.6487   -0.0347    1.3798 S   0  0  0  0  0  0  0  0  0  0  0  0
    4.7036   -1.0047    1.1688 O   0  0  0  0  0  0  0  0  0  0  0  0
    2.2839   -0.8098    0.9071 O   0  0  0  0  0  0  0  0  0  0  0  0
    3.4233    0.6563    2.6285 O   0  0  0  0  0  0  0  0  0  0  0  0
    3.7769    1.1239    0.2412 O   0  0  0  0  0  0  0  0  0  0  0  0
    4.2573    0.7378   -0.5112 H   0  0  0  0  0  0  0  0  0  0  0  0
  1  6  1  0  0  0  0
  2  1  2  0  0  0  0
  2  3  1  0  0  0  0
  3  4  2  0  0  0  0
  4  5  1  0  0  0  0
  4 13  1  0  0  0  0
  5 12  1  0  0  0  0
  6 11  1  0  0  0  0
  6  5  2  0  0  0  0
  7  1  1  0  0  0  0
  8  2  1  0  0  0  0
 10  9  3  0  0  0  0
 14 17  2  0  0  0  0
 15 14  2  0  0  0  0
 16  3  1  0  0  0  0
 16 14  1  0  0  0  0
 18 14  1  0  0  0  0
 19 18  1  0  0  0  0
M  END
