Coordinates from ORCA-job Ph-N2-HSO4-B3LYPG-6-31G_dp-MTMO-d009-169-n800
 OpenBabel09051908053D

 19 18  0  0  0  0  0  0  0  0999 V2000
   -0.7545    1.0185    0.1861 C   0  0  0  0  0  0  0  0  0  0  0  0
    0.5170    0.4795   -0.0144 C   0  0  0  0  0  0  0  0  0  0  0  0
    1.1411   -0.1721    1.0451 C   0  0  0  0  0  0  0  0  0  0  0  0
    0.5397   -0.2985    2.2938 C   0  0  0  0  0  0  0  0  0  0  0  0
   -0.7302    0.2478    2.4806 C   0  0  0  0  0  0  0  0  0  0  0  0
   -1.3776    0.9036    1.4306 C   0  0  0  0  0  0  0  0  0  0  0  0
   -1.2565    1.5262   -0.6317 H   0  0  0  0  0  0  0  0  0  0  0  0
    1.0212    0.5538   -0.9715 H   0  0  0  0  0  0  0  0  0  0  0  0
    8.3213    1.1178   -3.7133 N   0  0  0  0  0  0  0  0  0  0  0  0
    9.3490    1.1594   -4.1176 N   0  0  0  0  0  0  0  0  0  0  0  0
   -2.3672    1.3230    1.5819 H   0  0  0  0  0  0  0  0  0  0  0  0
   -1.2140    0.1577    3.4484 H   0  0  0  0  0  0  0  0  0  0  0  0
    1.0625   -0.8100    3.0935 H   0  0  0  0  0  0  0  0  0  0  0  0
    3.7564   -0.0115    1.2589 S   0  0  0  0  0  0  0  0  0  0  0  0
    4.8101   -0.9818    1.0434 O   0  0  0  0  0  0  0  0  0  0  0  0
    2.3866   -0.7935    0.8122 O   0  0  0  0  0  0  0  0  0  0  0  0
    3.5462    0.6911    2.5038 O   0  0  0  0  0  0  0  0  0  0  0  0
    3.8678    1.1360    0.1075 O   0  0  0  0  0  0  0  0  0  0  0  0
    4.3427    0.7448   -0.6458 H   0  0  0  0  0  0  0  0  0  0  0  0
  1  6  1  0  0  0  0
  2  1  2  0  0  0  0
  2  3  1  0  0  0  0
  3  4  2  0  0  0  0
  4  5  1  0  0  0  0
  4 13  1  0  0  0  0
  5 12  1  0  0  0  0
  6 11  1  0  0  0  0
  6  5  2  0  0  0  0
  7  1  1  0  0  0  0
  8  2  1  0  0  0  0
 10  9  3  0  0  0  0
 14 17  2  0  0  0  0
 15 14  2  0  0  0  0
 16  3  1  0  0  0  0
 16 14  1  0  0  0  0
 18 14  1  0  0  0  0
 19 18  1  0  0  0  0
M  END
