Coordinates from ORCA-job Ph-N2-HSO4-B3LYPG-6-31G_dp-MTMO-d009-169-n800
 OpenBabel09051908053D

 19 18  0  0  0  0  0  0  0  0999 V2000
   -1.0953    0.9886    0.4020 C   0  0  0  0  0  0  0  0  0  0  0  0
    0.1735    0.4298    0.2425 C   0  0  0  0  0  0  0  0  0  0  0  0
    0.7564   -0.2238    1.3240 C   0  0  0  0  0  0  0  0  0  0  0  0
    0.1165   -0.3329    2.5552 C   0  0  0  0  0  0  0  0  0  0  0  0
   -1.1500    0.2332    2.7011 C   0  0  0  0  0  0  0  0  0  0  0  0
   -1.7565    0.8914    1.6283 C   0  0  0  0  0  0  0  0  0  0  0  0
   -1.5654    1.4981   -0.4335 H   0  0  0  0  0  0  0  0  0  0  0  0
    0.7065    0.4900   -0.6999 H   0  0  0  0  0  0  0  0  0  0  0  0
   11.5447    1.5362   -6.1031 N   0  0  0  0  0  0  0  0  0  0  0  0
   12.5909    1.6018   -6.4534 N   0  0  0  0  0  0  0  0  0  0  0  0
   -2.7437    1.3263    1.7474 H   0  0  0  0  0  0  0  0  0  0  0  0
   -1.6634    0.1568    3.6548 H   0  0  0  0  0  0  0  0  0  0  0  0
    0.6078   -0.8466    3.3734 H   0  0  0  0  0  0  0  0  0  0  0  0
    3.3655   -0.1030    1.6199 S   0  0  0  0  0  0  0  0  0  0  0  0
    4.4119   -1.0863    1.4290 O   0  0  0  0  0  0  0  0  0  0  0  0
    1.9988   -0.8648    1.1314 O   0  0  0  0  0  0  0  0  0  0  0  0
    3.1303    0.5972    2.8615 O   0  0  0  0  0  0  0  0  0  0  0  0
    3.5233    1.0477    0.4770 O   0  0  0  0  0  0  0  0  0  0  0  0
    4.0099    0.6517   -0.2661 H   0  0  0  0  0  0  0  0  0  0  0  0
  1  6  1  0  0  0  0
  2  1  2  0  0  0  0
  2  3  1  0  0  0  0
  3  4  2  0  0  0  0
  4  5  1  0  0  0  0
  4 13  1  0  0  0  0
  5 12  1  0  0  0  0
  6 11  1  0  0  0  0
  6  5  2  0  0  0  0
  7  1  1  0  0  0  0
  8  2  1  0  0  0  0
 10  9  3  0  0  0  0
 14 17  2  0  0  0  0
 15 14  2  0  0  0  0
 16  3  1  0  0  0  0
 16 14  1  0  0  0  0
 18 14  1  0  0  0  0
 19 18  1  0  0  0  0
M  END
