Coordinates from ORCA-job Ph-N2-HSO4-B3LYPG-6-31G_dp-MTMO-d009-169-n800
 OpenBabel09051908053D

 19 18  0  0  0  0  0  0  0  0999 V2000
   -0.6884    1.0226    0.1578 C   0  0  0  0  0  0  0  0  0  0  0  0
    0.5781    0.4870   -0.0805 C   0  0  0  0  0  0  0  0  0  0  0  0
    1.2376   -0.1566    0.9623 C   0  0  0  0  0  0  0  0  0  0  0  0
    0.6771   -0.2779    2.2302 C   0  0  0  0  0  0  0  0  0  0  0  0
   -0.5885    0.2643    2.4544 C   0  0  0  0  0  0  0  0  0  0  0  0
   -1.2713    0.9120    1.4220 C   0  0  0  0  0  0  0  0  0  0  0  0
   -1.2180    1.5243   -0.6462 H   0  0  0  0  0  0  0  0  0  0  0  0
    1.0521    0.5585   -1.0530 H   0  0  0  0  0  0  0  0  0  0  0  0
    7.4478    0.9867   -2.8732 N   0  0  0  0  0  0  0  0  0  0  0  0
    8.4630    1.0730   -3.3012 N   0  0  0  0  0  0  0  0  0  0  0  0
   -2.2572    1.3285    1.6025 H   0  0  0  0  0  0  0  0  0  0  0  0
   -1.0409    0.1778    3.4376 H   0  0  0  0  0  0  0  0  0  0  0  0
    1.2272   -0.7834    3.0154 H   0  0  0  0  0  0  0  0  0  0  0  0
    3.8598    0.0262    1.0605 S   0  0  0  0  0  0  0  0  0  0  0  0
    4.9080   -0.9580    0.8814 O   0  0  0  0  0  0  0  0  0  0  0  0
    2.4778   -0.7758    0.6953 O   0  0  0  0  0  0  0  0  0  0  0  0
    3.6778    0.8033    2.2651 O   0  0  0  0  0  0  0  0  0  0  0  0
    3.9510    1.0975   -0.1640 O   0  0  0  0  0  0  0  0  0  0  0  0
    4.4688    0.6814   -0.8749 H   0  0  0  0  0  0  0  0  0  0  0  0
  1  6  1  0  0  0  0
  2  1  2  0  0  0  0
  2  3  1  0  0  0  0
  3  4  2  0  0  0  0
  4  5  1  0  0  0  0
  4 13  1  0  0  0  0
  5 12  1  0  0  0  0
  6 11  1  0  0  0  0
  6  5  2  0  0  0  0
  7  1  1  0  0  0  0
  8  2  1  0  0  0  0
 10  9  3  0  0  0  0
 14 17  2  0  0  0  0
 15 14  2  0  0  0  0
 16  3  1  0  0  0  0
 16 14  1  0  0  0  0
 18 14  1  0  0  0  0
 19 18  1  0  0  0  0
M  END
