Coordinates from ORCA-job Ph-N2-HSO4-B3LYPG-6-31G_dp-MTMO-d009-169-n800
 OpenBabel09051908053D

 19 18  0  0  0  0  0  0  0  0999 V2000
   -1.2239    0.9746    0.4862 C   0  0  0  0  0  0  0  0  0  0  0  0
    0.0431    0.4101    0.3326 C   0  0  0  0  0  0  0  0  0  0  0  0
    0.6204   -0.2413    1.4184 C   0  0  0  0  0  0  0  0  0  0  0  0
   -0.0234   -0.3428    2.6483 C   0  0  0  0  0  0  0  0  0  0  0  0
   -1.2881    0.2290    2.7883 C   0  0  0  0  0  0  0  0  0  0  0  0
   -1.8889    0.8851    1.7111 C   0  0  0  0  0  0  0  0  0  0  0  0
   -1.6896    1.4824   -0.3527 H   0  0  0  0  0  0  0  0  0  0  0  0
    0.5791    0.4643   -0.6085 H   0  0  0  0  0  0  0  0  0  0  0  0
   12.6844    1.6784   -6.8968 N   0  0  0  0  0  0  0  0  0  0  0  0
   13.7320    1.7531   -7.2414 N   0  0  0  0  0  0  0  0  0  0  0  0
   -2.8748    1.3244    1.8256 H   0  0  0  0  0  0  0  0  0  0  0  0
   -1.8044    0.1586    3.7408 H   0  0  0  0  0  0  0  0  0  0  0  0
    0.4635   -0.8550    3.4700 H   0  0  0  0  0  0  0  0  0  0  0  0
    3.2290   -0.1306    1.7228 S   0  0  0  0  0  0  0  0  0  0  0  0
    4.2721   -1.1184    1.5371 O   0  0  0  0  0  0  0  0  0  0  0  0
    1.8608   -0.8880    1.2319 O   0  0  0  0  0  0  0  0  0  0  0  0
    2.9929    0.5732    2.9623 O   0  0  0  0  0  0  0  0  0  0  0  0
    3.3948    1.0170    0.5779 O   0  0  0  0  0  0  0  0  0  0  0  0
    3.8827    0.6175   -0.1625 H   0  0  0  0  0  0  0  0  0  0  0  0
  1  6  1  0  0  0  0
  2  1  2  0  0  0  0
  2  3  1  0  0  0  0
  3  4  2  0  0  0  0
  4  5  1  0  0  0  0
  4 13  1  0  0  0  0
  5 12  1  0  0  0  0
  6 11  1  0  0  0  0
  6  5  2  0  0  0  0
  7  1  1  0  0  0  0
  8  2  1  0  0  0  0
 10  9  3  0  0  0  0
 14 17  2  0  0  0  0
 15 14  2  0  0  0  0
 16  3  1  0  0  0  0
 16 14  1  0  0  0  0
 18 14  1  0  0  0  0
 19 18  1  0  0  0  0
M  END
