Coordinates from ORCA-job Ph-N2-HSO4-B3LYPG-6-31G_dp-MTMO-d009-169-n800
 OpenBabel09051908053D

 19 18  0  0  0  0  0  0  0  0999 V2000
   -0.8038    1.0165    0.2162 C   0  0  0  0  0  0  0  0  0  0  0  0
    0.4690    0.4765    0.0274 C   0  0  0  0  0  0  0  0  0  0  0  0
    1.0809   -0.1796    1.0913 C   0  0  0  0  0  0  0  0  0  0  0  0
    0.4660   -0.3094    2.3331 C   0  0  0  0  0  0  0  0  0  0  0  0
   -0.8050    0.2381    2.5082 C   0  0  0  0  0  0  0  0  0  0  0  0
   -1.4403    0.8984    1.4537 C   0  0  0  0  0  0  0  0  0  0  0  0
   -1.2963    1.5277   -0.6052 H   0  0  0  0  0  0  0  0  0  0  0  0
    0.9835    0.5532   -0.9240 H   0  0  0  0  0  0  0  0  0  0  0  0
    8.8348    1.1796   -4.1380 N   0  0  0  0  0  0  0  0  0  0  0  0
    9.8700    1.2214   -4.5231 N   0  0  0  0  0  0  0  0  0  0  0  0
   -2.4308    1.3187    1.5958 H   0  0  0  0  0  0  0  0  0  0  0  0
   -1.2993    0.1454    3.4705 H   0  0  0  0  0  0  0  0  0  0  0  0
    0.9795   -0.8243    3.1367 H   0  0  0  0  0  0  0  0  0  0  0  0
    3.6937   -0.0243    1.3358 S   0  0  0  0  0  0  0  0  0  0  0  0
    4.7490   -0.9931    1.1218 O   0  0  0  0  0  0  0  0  0  0  0  0
    2.3280   -0.8018    0.8693 O   0  0  0  0  0  0  0  0  0  0  0  0
    3.4721    0.6678    2.5846 O   0  0  0  0  0  0  0  0  0  0  0  0
    3.8159    1.1332    0.1954 O   0  0  0  0  0  0  0  0  0  0  0  0
    4.2948    0.7473   -0.5580 H   0  0  0  0  0  0  0  0  0  0  0  0
  1  6  1  0  0  0  0
  2  1  2  0  0  0  0
  2  3  1  0  0  0  0
  3  4  2  0  0  0  0
  4  5  1  0  0  0  0
  4 13  1  0  0  0  0
  5 12  1  0  0  0  0
  6 11  1  0  0  0  0
  6  5  2  0  0  0  0
  7  1  1  0  0  0  0
  8  2  1  0  0  0  0
 10  9  3  0  0  0  0
 14 17  2  0  0  0  0
 15 14  2  0  0  0  0
 16  3  1  0  0  0  0
 16 14  1  0  0  0  0
 18 14  1  0  0  0  0
 19 18  1  0  0  0  0
M  END
