Coordinates from ORCA-job Ph-N2-HSO4-B3LYPG-6-31G_dp-MTMO-d009-169-n800
 OpenBabel09051908053D

 19 18  0  0  0  0  0  0  0  0999 V2000
   -0.9684    1.0018    0.3207 C   0  0  0  0  0  0  0  0  0  0  0  0
    0.3028    0.4517    0.1509 C   0  0  0  0  0  0  0  0  0  0  0  0
    0.8957   -0.2047    1.2252 C   0  0  0  0  0  0  0  0  0  0  0  0
    0.2634   -0.3251    2.4593 C   0  0  0  0  0  0  0  0  0  0  0  0
   -1.0058    0.2324    2.6155 C   0  0  0  0  0  0  0  0  0  0  0  0
   -1.6221    0.8933    1.5500 C   0  0  0  0  0  0  0  0  0  0  0  0
   -1.4462    1.5134   -0.5092 H   0  0  0  0  0  0  0  0  0  0  0  0
    0.8303    0.5208   -0.7940 H   0  0  0  0  0  0  0  0  0  0  0  0
   10.3846    1.3917   -5.2773 N   0  0  0  0  0  0  0  0  0  0  0  0
   11.4283    1.4285   -5.6391 N   0  0  0  0  0  0  0  0  0  0  0  0
   -2.6113    1.3215    1.6772 H   0  0  0  0  0  0  0  0  0  0  0  0
   -1.5134    0.1472    3.5715 H   0  0  0  0  0  0  0  0  0  0  0  0
    0.7623   -0.8406    3.2716 H   0  0  0  0  0  0  0  0  0  0  0  0
    3.5058   -0.0687    1.5057 S   0  0  0  0  0  0  0  0  0  0  0  0
    4.5570   -1.0448    1.3052 O   0  0  0  0  0  0  0  0  0  0  0  0
    2.1409   -0.8369    1.0221 O   0  0  0  0  0  0  0  0  0  0  0  0
    3.2733    0.6255    2.7513 O   0  0  0  0  0  0  0  0  0  0  0  0
    3.6501    1.0874    0.3664 O   0  0  0  0  0  0  0  0  0  0  0  0
    4.1343    0.6971   -0.3813 H   0  0  0  0  0  0  0  0  0  0  0  0
  1  6  1  0  0  0  0
  2  1  2  0  0  0  0
  2  3  1  0  0  0  0
  3  4  2  0  0  0  0
  4  5  1  0  0  0  0
  4 13  1  0  0  0  0
  5 12  1  0  0  0  0
  6 11  1  0  0  0  0
  6  5  2  0  0  0  0
  7  1  1  0  0  0  0
  8  2  1  0  0  0  0
 10  9  3  0  0  0  0
 14 17  2  0  0  0  0
 15 14  2  0  0  0  0
 16  3  1  0  0  0  0
 16 14  1  0  0  0  0
 18 14  1  0  0  0  0
 19 18  1  0  0  0  0
M  END
