Coordinates from ORCA-job Ph-N2-HSO4-B3LYPG-6-31G_dp-MTMO-d009-169-n800
 OpenBabel09051908053D

 19 18  0  0  0  0  0  0  0  0999 V2000
   -0.7143    1.0189    0.1642 C   0  0  0  0  0  0  0  0  0  0  0  0
    0.5539    0.4781   -0.0522 C   0  0  0  0  0  0  0  0  0  0  0  0
    1.1941   -0.1663    1.0021 C   0  0  0  0  0  0  0  0  0  0  0  0
    0.6121   -0.2836    2.2608 C   0  0  0  0  0  0  0  0  0  0  0  0
   -0.6547    0.2642    2.4634 C   0  0  0  0  0  0  0  0  0  0  0  0
   -1.3182    0.9128    1.4189 C   0  0  0  0  0  0  0  0  0  0  0  0
   -1.2287    1.5211   -0.6493 H   0  0  0  0  0  0  0  0  0  0  0  0
    1.0435    0.5458   -1.0174 H   0  0  0  0  0  0  0  0  0  0  0  0
    7.8496    1.0619   -3.2802 N   0  0  0  0  0  0  0  0  0  0  0  0
    8.8691    1.1266   -3.7019 N   0  0  0  0  0  0  0  0  0  0  0  0
   -2.3052    1.3334    1.5826 H   0  0  0  0  0  0  0  0  0  0  0  0
   -1.1235    0.1811    3.4392 H   0  0  0  0  0  0  0  0  0  0  0  0
    1.1471   -0.7898    3.0558 H   0  0  0  0  0  0  0  0  0  0  0  0
    3.8131   -0.0019    1.1658 S   0  0  0  0  0  0  0  0  0  0  0  0
    4.8620   -0.9796    0.9603 O   0  0  0  0  0  0  0  0  0  0  0  0
    2.4357   -0.7901    0.7550 O   0  0  0  0  0  0  0  0  0  0  0  0
    3.6197    0.7302    2.3963 O   0  0  0  0  0  0  0  0  0  0  0  0
    3.9141    1.1172   -0.0142 O   0  0  0  0  0  0  0  0  0  0  0  0
    4.3924    0.7115   -0.7577 H   0  0  0  0  0  0  0  0  0  0  0  0
  1  6  1  0  0  0  0
  2  1  2  0  0  0  0
  2  3  1  0  0  0  0
  3  4  2  0  0  0  0
  4  5  1  0  0  0  0
  4 13  1  0  0  0  0
  5 12  1  0  0  0  0
  6 11  1  0  0  0  0
  6  5  2  0  0  0  0
  7  1  1  0  0  0  0
  8  2  1  0  0  0  0
 10  9  3  0  0  0  0
 14 17  2  0  0  0  0
 15 14  2  0  0  0  0
 16  3  1  0  0  0  0
 16 14  1  0  0  0  0
 18 14  1  0  0  0  0
 19 18  1  0  0  0  0
M  END
