Coordinates from ORCA-job Ph-N2-HSO4-B3LYPG-6-31G_dp-MTMO-d009-169-n800
 OpenBabel09051908053D

 19 18  0  0  0  0  0  0  0  0999 V2000
   -0.6643    1.0282    0.1627 C   0  0  0  0  0  0  0  0  0  0  0  0
    0.6073    0.5305   -0.1254 C   0  0  0  0  0  0  0  0  0  0  0  0
    1.3126   -0.1211    0.8819 C   0  0  0  0  0  0  0  0  0  0  0  0
    0.7933   -0.2871    2.1619 C   0  0  0  0  0  0  0  0  0  0  0  0
   -0.4784    0.2168    2.4358 C   0  0  0  0  0  0  0  0  0  0  0  0
   -1.2071    0.8721    1.4401 C   0  0  0  0  0  0  0  0  0  0  0  0
   -1.2295    1.5360   -0.6127 H   0  0  0  0  0  0  0  0  0  0  0  0
    1.0520    0.6380   -1.1084 H   0  0  0  0  0  0  0  0  0  0  0  0
    6.7748    0.7843   -2.2209 N   0  0  0  0  0  0  0  0  0  0  0  0
    7.8035    0.7792   -2.6226 N   0  0  0  0  0  0  0  0  0  0  0  0
   -2.1970    1.2592    1.6596 H   0  0  0  0  0  0  0  0  0  0  0  0
   -0.8993    0.0950    3.4292 H   0  0  0  0  0  0  0  0  0  0  0  0
    1.3788   -0.7975    2.9179 H   0  0  0  0  0  0  0  0  0  0  0  0
    3.9354    0.1338    0.8753 S   0  0  0  0  0  0  0  0  0  0  0  0
    5.0004   -0.8406    0.7404 O   0  0  0  0  0  0  0  0  0  0  0  0
    2.5601   -0.7022    0.5642 O   0  0  0  0  0  0  0  0  0  0  0  0
    3.7480    0.9616    2.0458 O   0  0  0  0  0  0  0  0  0  0  0  0
    4.0053    1.1336   -0.4071 O   0  0  0  0  0  0  0  0  0  0  0  0
    4.6657    0.7716   -1.0262 H   0  0  0  0  0  0  0  0  0  0  0  0
  1  6  1  0  0  0  0
  2  1  2  0  0  0  0
  2  3  1  0  0  0  0
  3  4  2  0  0  0  0
  4  5  1  0  0  0  0
  4 13  1  0  0  0  0
  5 12  1  0  0  0  0
  6 11  1  0  0  0  0
  6  5  2  0  0  0  0
  7  1  1  0  0  0  0
  8  2  1  0  0  0  0
 10  9  3  0  0  0  0
 14 17  2  0  0  0  0
 15 14  2  0  0  0  0
 16 14  1  0  0  0  0
 16  3  1  0  0  0  0
 18 14  1  0  0  0  0
 19 18  1  0  0  0  0
M  END
