Coordinates from ORCA-job Ph-N2-HSO4-B3LYPG-6-31G_dp-MTMO-d009-169-n800
 OpenBabel09051908053D

 19 18  0  0  0  0  0  0  0  0999 V2000
   -0.3595    1.0220   -0.0655 C   0  0  0  0  0  0  0  0  0  0  0  0
    0.9690    0.6243   -0.2206 C   0  0  0  0  0  0  0  0  0  0  0  0
    1.5943   -0.0476    0.8259 C   0  0  0  0  0  0  0  0  0  0  0  0
    0.9355   -0.3307    2.0193 C   0  0  0  0  0  0  0  0  0  0  0  0
   -0.3908    0.0772    2.1624 C   0  0  0  0  0  0  0  0  0  0  0  0
   -1.0389    0.7508    1.1241 C   0  0  0  0  0  0  0  0  0  0  0  0
   -0.8612    1.5433   -0.8751 H   0  0  0  0  0  0  0  0  0  0  0  0
    1.5177    0.8217   -1.1348 H   0  0  0  0  0  0  0  0  0  0  0  0
    5.3446    0.4704   -2.1974 N   0  0  0  0  0  0  0  0  0  0  0  0
    5.7731   -0.1505   -3.0034 N   0  0  0  0  0  0  0  0  0  0  0  0
   -2.0717    1.0635    1.2420 H   0  0  0  0  0  0  0  0  0  0  0  0
   -0.9181   -0.1351    3.0875 H   0  0  0  0  0  0  0  0  0  0  0  0
    1.4593   -0.8514    2.8122 H   0  0  0  0  0  0  0  0  0  0  0  0
    4.1584    0.3139    1.2864 S   0  0  0  0  0  0  0  0  0  0  0  0
    5.3205   -0.4909    0.9668 O   0  0  0  0  0  0  0  0  0  0  0  0
    2.9067   -0.5201    0.6246 O   0  0  0  0  0  0  0  0  0  0  0  0
    3.8232    0.7425    2.6251 O   0  0  0  0  0  0  0  0  0  0  0  0
    4.1716    1.6525    0.3734 O   0  0  0  0  0  0  0  0  0  0  0  0
    4.6281    1.4355   -0.4615 H   0  0  0  0  0  0  0  0  0  0  0  0
  1  6  1  0  0  0  0
  2  1  2  0  0  0  0
  2  3  1  0  0  0  0
  3  4  2  0  0  0  0
  4  5  1  0  0  0  0
  4 13  1  0  0  0  0
  5 12  1  0  0  0  0
  6 11  1  0  0  0  0
  6  5  2  0  0  0  0
  7  1  1  0  0  0  0
  8  2  1  0  0  0  0
 10  9  3  0  0  0  0
 14 17  2  0  0  0  0
 15 14  2  0  0  0  0
 16  3  1  0  0  0  0
 16 14  1  0  0  0  0
 18 14  1  0  0  0  0
 19 18  1  0  0  0  0
M  END
