Coordinates from ORCA-job Ph-N2-HSO4-B3LYPG-6-31G_dp-MTMO-d009-169-n800
 OpenBabel09051908053D

 19 18  0  0  0  0  0  0  0  0999 V2000
   -0.8150    1.0158    0.2231 C   0  0  0  0  0  0  0  0  0  0  0  0
    0.4579    0.4751    0.0365 C   0  0  0  0  0  0  0  0  0  0  0  0
    1.0675   -0.1815    1.1014 C   0  0  0  0  0  0  0  0  0  0  0  0
    0.4504   -0.3110    2.3421 C   0  0  0  0  0  0  0  0  0  0  0  0
   -0.8206    0.2372    2.5151 C   0  0  0  0  0  0  0  0  0  0  0  0
   -1.4537    0.8980    1.4594 C   0  0  0  0  0  0  0  0  0  0  0  0
   -1.3057    1.5274   -0.5991 H   0  0  0  0  0  0  0  0  0  0  0  0
    0.9740    0.5515   -0.9140 H   0  0  0  0  0  0  0  0  0  0  0  0
    8.9471    1.1938   -4.2268 N   0  0  0  0  0  0  0  0  0  0  0  0
    9.9835    1.2380   -4.6084 N   0  0  0  0  0  0  0  0  0  0  0  0
   -2.4442    1.3188    1.5998 H   0  0  0  0  0  0  0  0  0  0  0  0
   -1.3167    0.1447    3.4765 H   0  0  0  0  0  0  0  0  0  0  0  0
    0.9622   -0.8262    3.1465 H   0  0  0  0  0  0  0  0  0  0  0  0
    3.6799   -0.0277    1.3508 S   0  0  0  0  0  0  0  0  0  0  0  0
    4.7351   -0.9969    1.1378 O   0  0  0  0  0  0  0  0  0  0  0  0
    2.3147   -0.8043    0.8816 O   0  0  0  0  0  0  0  0  0  0  0  0
    3.4566    0.6636    2.5996 O   0  0  0  0  0  0  0  0  0  0  0  0
    3.8045    1.1304    0.2113 O   0  0  0  0  0  0  0  0  0  0  0  0
    4.2842    0.7447   -0.5417 H   0  0  0  0  0  0  0  0  0  0  0  0
  1  6  1  0  0  0  0
  2  1  2  0  0  0  0
  2  3  1  0  0  0  0
  3  4  2  0  0  0  0
  4  5  1  0  0  0  0
  4 13  1  0  0  0  0
  5 12  1  0  0  0  0
  6 11  1  0  0  0  0
  6  5  2  0  0  0  0
  7  1  1  0  0  0  0
  8  2  1  0  0  0  0
 10  9  3  0  0  0  0
 14 17  2  0  0  0  0
 15 14  2  0  0  0  0
 16  3  1  0  0  0  0
 16 14  1  0  0  0  0
 18 14  1  0  0  0  0
 19 18  1  0  0  0  0
M  END
