Coordinates from ORCA-job Ph-N2-HSO4-B3LYPG-6-31G_dp-MTMO-d009-169-n800
 OpenBabel09051908053D

 19 18  0  0  0  0  0  0  0  0999 V2000
   -1.2222    0.9748    0.4851 C   0  0  0  0  0  0  0  0  0  0  0  0
    0.0448    0.4104    0.3315 C   0  0  0  0  0  0  0  0  0  0  0  0
    0.6221   -0.2411    1.4172 C   0  0  0  0  0  0  0  0  0  0  0  0
   -0.0216   -0.3427    2.6471 C   0  0  0  0  0  0  0  0  0  0  0  0
   -1.2863    0.2291    2.7871 C   0  0  0  0  0  0  0  0  0  0  0  0
   -1.8872    0.8852    1.7100 C   0  0  0  0  0  0  0  0  0  0  0  0
   -1.6879    1.4826   -0.3538 H   0  0  0  0  0  0  0  0  0  0  0  0
    0.5807    0.4645   -0.6096 H   0  0  0  0  0  0  0  0  0  0  0  0
   12.6698    1.6766   -6.8867 N   0  0  0  0  0  0  0  0  0  0  0  0
   13.7173    1.7512   -7.2313 N   0  0  0  0  0  0  0  0  0  0  0  0
   -2.8731    1.3244    1.8245 H   0  0  0  0  0  0  0  0  0  0  0  0
   -1.8027    0.1586    3.7397 H   0  0  0  0  0  0  0  0  0  0  0  0
    0.4653   -0.8548    3.4688 H   0  0  0  0  0  0  0  0  0  0  0  0
    3.2307   -0.1303    1.7215 S   0  0  0  0  0  0  0  0  0  0  0  0
    4.2739   -1.1181    1.5358 O   0  0  0  0  0  0  0  0  0  0  0  0
    1.8625   -0.8877    1.2306 O   0  0  0  0  0  0  0  0  0  0  0  0
    2.9947    0.5735    2.9610 O   0  0  0  0  0  0  0  0  0  0  0  0
    3.3965    1.0173    0.5767 O   0  0  0  0  0  0  0  0  0  0  0  0
    3.8844    0.6178   -0.1638 H   0  0  0  0  0  0  0  0  0  0  0  0
  1  6  1  0  0  0  0
  2  1  2  0  0  0  0
  2  3  1  0  0  0  0
  3  4  2  0  0  0  0
  4  5  1  0  0  0  0
  4 13  1  0  0  0  0
  5 12  1  0  0  0  0
  6 11  1  0  0  0  0
  6  5  2  0  0  0  0
  7  1  1  0  0  0  0
  8  2  1  0  0  0  0
 10  9  3  0  0  0  0
 14 17  2  0  0  0  0
 15 14  2  0  0  0  0
 16  3  1  0  0  0  0
 16 14  1  0  0  0  0
 18 14  1  0  0  0  0
 19 18  1  0  0  0  0
M  END
