Coordinates from ORCA-job Ph-N2-HSO4-B3LYPG-6-31G_dp-MTMO-d009-169-n800
 OpenBabel09051908053D

 19 18  0  0  0  0  0  0  0  0999 V2000
   -0.5614    1.0020    0.0637 C   0  0  0  0  0  0  0  0  0  0  0  0
    0.7355    0.5498   -0.1829 C   0  0  0  0  0  0  0  0  0  0  0  0
    1.4270   -0.0904    0.8414 C   0  0  0  0  0  0  0  0  0  0  0  0
    0.8673   -0.2886    2.1002 C   0  0  0  0  0  0  0  0  0  0  0  0
   -0.4285    0.1728    2.3336 C   0  0  0  0  0  0  0  0  0  0  0  0
   -1.1431    0.8152    1.3195 C   0  0  0  0  0  0  0  0  0  0  0  0
   -1.1152    1.4991   -0.7268 H   0  0  0  0  0  0  0  0  0  0  0  0
    1.2099    0.6818   -1.1489 H   0  0  0  0  0  0  0  0  0  0  0  0
    6.1777    0.6401   -2.1587 N   0  0  0  0  0  0  0  0  0  0  0  0
    7.0419    0.2599   -2.7309 N   0  0  0  0  0  0  0  0  0  0  0  0
   -2.1520    1.1685    1.5078 H   0  0  0  0  0  0  0  0  0  0  0  0
   -0.8797    0.0265    3.3103 H   0  0  0  0  0  0  0  0  0  0  0  0
    1.4413   -0.7874    2.8720 H   0  0  0  0  0  0  0  0  0  0  0  0
    4.0344    0.2122    1.0219 S   0  0  0  0  0  0  0  0  0  0  0  0
    5.1405   -0.6704    0.7064 O   0  0  0  0  0  0  0  0  0  0  0  0
    2.7019   -0.6224    0.5540 O   0  0  0  0  0  0  0  0  0  0  0  0
    3.8183    0.7906    2.3291 O   0  0  0  0  0  0  0  0  0  0  0  0
    4.0383    1.4433   -0.0346 O   0  0  0  0  0  0  0  0  0  0  0  0
    4.6074    1.1889   -0.7855 H   0  0  0  0  0  0  0  0  0  0  0  0
  1  6  1  0  0  0  0
  2  1  2  0  0  0  0
  2  3  1  0  0  0  0
  3  4  2  0  0  0  0
  4  5  1  0  0  0  0
  4 13  1  0  0  0  0
  5 12  1  0  0  0  0
  6 11  1  0  0  0  0
  6  5  2  0  0  0  0
  7  1  1  0  0  0  0
  8  2  1  0  0  0  0
 10  9  3  0  0  0  0
 14 17  2  0  0  0  0
 15 14  2  0  0  0  0
 16  3  1  0  0  0  0
 16 14  1  0  0  0  0
 18 14  1  0  0  0  0
 19 18  1  0  0  0  0
M  END
