Coordinates from ORCA-job Ph-N2-HSO4-B3LYPG-6-31G_dp-MTMO-d009-169-n800
 OpenBabel09051908053D

 19 18  0  0  0  0  0  0  0  0999 V2000
   -0.6182    1.0150    0.1192 C   0  0  0  0  0  0  0  0  0  0  0  0
    0.6679    0.5487   -0.1567 C   0  0  0  0  0  0  0  0  0  0  0  0
    1.3740   -0.1002    0.8520 C   0  0  0  0  0  0  0  0  0  0  0  0
    0.8401   -0.2934    2.1225 C   0  0  0  0  0  0  0  0  0  0  0  0
   -0.4455    0.1805    2.3848 C   0  0  0  0  0  0  0  0  0  0  0  0
   -1.1747    0.8321    1.3870 C   0  0  0  0  0  0  0  0  0  0  0  0
   -1.1836    1.5197   -0.6582 H   0  0  0  0  0  0  0  0  0  0  0  0
    1.1232    0.6777   -1.1322 H   0  0  0  0  0  0  0  0  0  0  0  0
    6.4500    0.6768   -2.1461 N   0  0  0  0  0  0  0  0  0  0  0  0
    7.4239    0.4324   -2.6053 N   0  0  0  0  0  0  0  0  0  0  0  0
   -2.1755    1.1958    1.5975 H   0  0  0  0  0  0  0  0  0  0  0  0
   -0.8770    0.0376    3.3708 H   0  0  0  0  0  0  0  0  0  0  0  0
    1.4259   -0.7998    2.8808 H   0  0  0  0  0  0  0  0  0  0  0  0
    3.9878    0.1974    0.9294 S   0  0  0  0  0  0  0  0  0  0  0  0
    5.0789   -0.7264    0.6879 O   0  0  0  0  0  0  0  0  0  0  0  0
    2.6373   -0.6480    0.5413 O   0  0  0  0  0  0  0  0  0  0  0  0
    3.7872    0.8915    2.1818 O   0  0  0  0  0  0  0  0  0  0  0  0
    4.0116    1.3284   -0.2361 O   0  0  0  0  0  0  0  0  0  0  0  0
    4.6283    1.0256   -0.9289 H   0  0  0  0  0  0  0  0  0  0  0  0
  1  6  1  0  0  0  0
  2  1  2  0  0  0  0
  2  3  1  0  0  0  0
  3  4  2  0  0  0  0
  4  5  1  0  0  0  0
  4 13  1  0  0  0  0
  5 12  1  0  0  0  0
  6 11  1  0  0  0  0
  6  5  2  0  0  0  0
  7  1  1  0  0  0  0
  8  2  1  0  0  0  0
 10  9  3  0  0  0  0
 14 17  2  0  0  0  0
 15 14  2  0  0  0  0
 16  3  1  0  0  0  0
 16 14  1  0  0  0  0
 18 14  1  0  0  0  0
 19 18  1  0  0  0  0
M  END
