Coordinates from ORCA-job Ph-N2-HSO4-B3LYPG-6-31G_dp-MTMO-d009-169-n800
 OpenBabel09051908053D

 19 18  0  0  0  0  0  0  0  0999 V2000
   -0.6707    1.0289    0.1682 C   0  0  0  0  0  0  0  0  0  0  0  0
    0.6001    0.5301   -0.1212 C   0  0  0  0  0  0  0  0  0  0  0  0
    1.3058   -0.1220    0.8855 C   0  0  0  0  0  0  0  0  0  0  0  0
    0.7876   -0.2875    2.1661 C   0  0  0  0  0  0  0  0  0  0  0  0
   -0.4834    0.2175    2.4412 C   0  0  0  0  0  0  0  0  0  0  0  0
   -1.2125    0.8734    1.4460 C   0  0  0  0  0  0  0  0  0  0  0  0
   -1.2362    1.5372   -0.6068 H   0  0  0  0  0  0  0  0  0  0  0  0
    1.0440    0.6370   -1.1046 H   0  0  0  0  0  0  0  0  0  0  0  0
    6.8243    0.7928   -2.2382 N   0  0  0  0  0  0  0  0  0  0  0  0
    7.8558    0.7954   -2.6329 N   0  0  0  0  0  0  0  0  0  0  0  0
   -2.2019    1.2614    1.6665 H   0  0  0  0  0  0  0  0  0  0  0  0
   -0.9035    0.0961    3.4349 H   0  0  0  0  0  0  0  0  0  0  0  0
    1.3733   -0.7984    2.9215 H   0  0  0  0  0  0  0  0  0  0  0  0
    3.9288    0.1318    0.8715 S   0  0  0  0  0  0  0  0  0  0  0  0
    4.9929   -0.8445    0.7435 O   0  0  0  0  0  0  0  0  0  0  0  0
    2.5525   -0.7046    0.5670 O   0  0  0  0  0  0  0  0  0  0  0  0
    3.7427    0.9688    2.0356 O   0  0  0  0  0  0  0  0  0  0  0  0
    3.9996    1.1218   -0.4191 O   0  0  0  0  0  0  0  0  0  0  0  0
    4.6625    0.7564   -1.0332 H   0  0  0  0  0  0  0  0  0  0  0  0
  1  6  1  0  0  0  0
  2  1  2  0  0  0  0
  2  3  1  0  0  0  0
  3  4  2  0  0  0  0
  4  5  1  0  0  0  0
  4 13  1  0  0  0  0
  5 12  1  0  0  0  0
  6 11  1  0  0  0  0
  6  5  2  0  0  0  0
  7  1  1  0  0  0  0
  8  2  1  0  0  0  0
 10  9  3  0  0  0  0
 14 17  2  0  0  0  0
 15 14  2  0  0  0  0
 16 14  1  0  0  0  0
 16  3  1  0  0  0  0
 18 14  1  0  0  0  0
 19 18  1  0  0  0  0
M  END
