Coordinates from ORCA-job Ph-N2-HSO4-B3LYPG-6-31G_dp-MTMO-d009-169-n800
 OpenBabel09051908053D

 19 18  0  0  0  0  0  0  0  0999 V2000
   -1.2915    0.9672    0.5313 C   0  0  0  0  0  0  0  0  0  0  0  0
   -0.0251    0.4009    0.3793 C   0  0  0  0  0  0  0  0  0  0  0  0
    0.5507   -0.2499    1.4663 C   0  0  0  0  0  0  0  0  0  0  0  0
   -0.0941   -0.3490    2.6958 C   0  0  0  0  0  0  0  0  0  0  0  0
   -1.3582    0.2245    2.8343 C   0  0  0  0  0  0  0  0  0  0  0  0
   -1.9575    0.8800    1.7559 C   0  0  0  0  0  0  0  0  0  0  0  0
   -1.7560    1.4745   -0.3086 H   0  0  0  0  0  0  0  0  0  0  0  0
    0.5115    0.4532   -0.5615 H   0  0  0  0  0  0  0  0  0  0  0  0
   13.2720    1.7496   -7.3005 N   0  0  0  0  0  0  0  0  0  0  0  0
   14.3198    1.8261   -7.6437 N   0  0  0  0  0  0  0  0  0  0  0  0
   -2.9428    1.3206    1.8691 H   0  0  0  0  0  0  0  0  0  0  0  0
   -1.8752    0.1560    3.7865 H   0  0  0  0  0  0  0  0  0  0  0  0
    0.3916   -0.8608    3.5185 H   0  0  0  0  0  0  0  0  0  0  0  0
    3.1592   -0.1424    1.7727 S   0  0  0  0  0  0  0  0  0  0  0  0
    4.2012   -1.1316    1.5885 O   0  0  0  0  0  0  0  0  0  0  0  0
    1.7904   -0.8983    1.2813 O   0  0  0  0  0  0  0  0  0  0  0  0
    2.9231    0.5626    3.0116 O   0  0  0  0  0  0  0  0  0  0  0  0
    3.3273    1.0043    0.6272 O   0  0  0  0  0  0  0  0  0  0  0  0
    3.8154    0.6037   -0.1124 H   0  0  0  0  0  0  0  0  0  0  0  0
  1  6  1  0  0  0  0
  2  1  2  0  0  0  0
  2  3  1  0  0  0  0
  3  4  2  0  0  0  0
  4  5  1  0  0  0  0
  4 13  1  0  0  0  0
  5 12  1  0  0  0  0
  6 11  1  0  0  0  0
  6  5  2  0  0  0  0
  7  1  1  0  0  0  0
  8  2  1  0  0  0  0
 10  9  3  0  0  0  0
 14 17  2  0  0  0  0
 15 14  2  0  0  0  0
 16  3  1  0  0  0  0
 16 14  1  0  0  0  0
 18 14  1  0  0  0  0
 19 18  1  0  0  0  0
M  END
