Coordinates from ORCA-job Ph-N2-HSO4-B3LYPG-6-31G_dp-MTMO-d009-169-n800
 OpenBabel09051908053D

 19 17  0  0  0  0  0  0  0  0999 V2000
   -1.0156    0.7568   -0.5047 C   0  0  0  0  0  0  0  0  0  0  0  0
    0.0865    0.4153   -1.3205 C   0  0  0  0  0  0  0  0  0  0  0  0
    1.1331    0.1482   -0.4896 C   0  0  0  0  0  0  0  0  0  0  0  0
    1.4026    0.1227    0.7536 C   0  0  0  0  0  0  0  0  0  0  0  0
    0.2839    0.4660    1.5578 C   0  0  0  0  0  0  0  0  0  0  0  0
   -0.9135    0.7794    0.8969 C   0  0  0  0  0  0  0  0  0  0  0  0
   -1.9564    1.0053   -0.9880 H   0  0  0  0  0  0  0  0  0  0  0  0
    0.0631    0.3816   -2.4014 H   0  0  0  0  0  0  0  0  0  0  0  0
    2.8425   -0.4915   -1.9247 N   0  0  0  0  0  0  0  0  0  0  0  0
    3.8132   -1.0002   -2.0681 N   0  0  0  0  0  0  0  0  0  0  0  0
   -1.7880    1.0491    1.4826 H   0  0  0  0  0  0  0  0  0  0  0  0
    0.3459    0.4914    2.6426 H   0  0  0  0  0  0  0  0  0  0  0  0
    2.9257   -0.2224    1.5825 H   0  0  0  0  0  0  0  0  0  0  0  0
    5.0051    0.4078    1.6591 S   0  0  0  0  0  0  0  0  0  0  0  0
    6.1761   -0.2008    2.2612 O   0  0  0  0  0  0  0  0  0  0  0  0
    4.8954    0.6775    0.2381 O   0  0  0  0  0  0  0  0  0  0  0  0
    3.7438   -0.4366    2.1507 O   0  0  0  0  0  0  0  0  0  0  0  0
    4.7650    1.8518    2.3874 O   0  0  0  0  0  0  0  0  0  0  0  0
    5.1533    1.7901    3.2760 H   0  0  0  0  0  0  0  0  0  0  0  0
  1  6  1  0  0  0  0
  2  1  2  0  0  0  0
  2  3  1  0  0  0  0
  3  4  2  0  0  0  0
  4  5  1  0  0  0  0
  5 12  1  0  0  0  0
  6 11  1  0  0  0  0
  6  5  2  0  0  0  0
  7  1  1  0  0  0  0
  8  2  1  0  0  0  0
 10  9  3  0  0  0  0
 13 17  1  0  0  0  0
 14 17  1  0  0  0  0
 14 15  2  0  0  0  0
 14 18  1  0  0  0  0
 16 14  2  0  0  0  0
 18 19  1  0  0  0  0
M  RAD  2   3   2   4   2
M  END
