Coordinates from ORCA-job Ph-N2-HSO4-B3LYPG-6-31G_dp-MTMO-d009-169-n800
 OpenBabel09051908053D

 19 18  0  0  0  0  0  0  0  0999 V2000
   -0.6994    1.0199    0.1588 C   0  0  0  0  0  0  0  0  0  0  0  0
    0.5674    0.4800   -0.0677 C   0  0  0  0  0  0  0  0  0  0  0  0
    1.2168   -0.1625    0.9821 C   0  0  0  0  0  0  0  0  0  0  0  0
    0.6456   -0.2786    2.2458 C   0  0  0  0  0  0  0  0  0  0  0  0
   -0.6199    0.2683    2.4583 C   0  0  0  0  0  0  0  0  0  0  0  0
   -1.2927    0.9150    1.4186 C   0  0  0  0  0  0  0  0  0  0  0  0
   -1.2211    1.5207   -0.6510 H   0  0  0  0  0  0  0  0  0  0  0  0
    1.0490    0.5469   -1.0369 H   0  0  0  0  0  0  0  0  0  0  0  0
    7.6401    1.0291   -3.0718 N   0  0  0  0  0  0  0  0  0  0  0  0
    8.6567    1.1081   -3.4980 N   0  0  0  0  0  0  0  0  0  0  0  0
   -2.2787    1.3349    1.5900 H   0  0  0  0  0  0  0  0  0  0  0  0
   -1.0805    0.1860    3.4382 H   0  0  0  0  0  0  0  0  0  0  0  0
    1.1878   -0.7833    3.0369 H   0  0  0  0  0  0  0  0  0  0  0  0
    3.8376    0.0079    1.1141 S   0  0  0  0  0  0  0  0  0  0  0  0
    4.8850   -0.9739    0.9195 O   0  0  0  0  0  0  0  0  0  0  0  0
    2.4569   -0.7859    0.7260 O   0  0  0  0  0  0  0  0  0  0  0  0
    3.6517    0.7613    2.3328 O   0  0  0  0  0  0  0  0  0  0  0  0
    3.9335    1.1051   -0.0869 O   0  0  0  0  0  0  0  0  0  0  0  0
    4.4258    0.6923   -0.8175 H   0  0  0  0  0  0  0  0  0  0  0  0
  1  6  1  0  0  0  0
  2  1  2  0  0  0  0
  2  3  1  0  0  0  0
  3  4  2  0  0  0  0
  4  5  1  0  0  0  0
  4 13  1  0  0  0  0
  5 12  1  0  0  0  0
  6 11  1  0  0  0  0
  6  5  2  0  0  0  0
  7  1  1  0  0  0  0
  8  2  1  0  0  0  0
 10  9  3  0  0  0  0
 14 17  2  0  0  0  0
 15 14  2  0  0  0  0
 16  3  1  0  0  0  0
 16 14  1  0  0  0  0
 18 14  1  0  0  0  0
 19 18  1  0  0  0  0
M  END
