Coordinates from ORCA-job Ph-N2-HSO4-B3LYPG-6-31G_dp-MTMO-d009-169-n800
 OpenBabel09051908053D

 19 18  0  0  0  0  0  0  0  0999 V2000
   -0.9187    1.0067    0.2891 C   0  0  0  0  0  0  0  0  0  0  0  0
    0.3533    0.4601    0.1143 C   0  0  0  0  0  0  0  0  0  0  0  0
    0.9511   -0.1971    1.1855 C   0  0  0  0  0  0  0  0  0  0  0  0
    0.3229   -0.3215    2.4212 C   0  0  0  0  0  0  0  0  0  0  0  0
   -0.9472    0.2325    2.5824 C   0  0  0  0  0  0  0  0  0  0  0  0
   -1.5684    0.8939    1.5201 C   0  0  0  0  0  0  0  0  0  0  0  0
   -1.4003    1.5187   -0.5383 H   0  0  0  0  0  0  0  0  0  0  0  0
    0.8778    0.5324   -0.8321 H   0  0  0  0  0  0  0  0  0  0  0  0
    9.9230    1.3312   -4.9437 N   0  0  0  0  0  0  0  0  0  0  0  0
   10.9649    1.3613   -5.3113 N   0  0  0  0  0  0  0  0  0  0  0  0
   -2.5582    1.3194    1.6513 H   0  0  0  0  0  0  0  0  0  0  0  0
   -1.4517    0.1441    3.5397 H   0  0  0  0  0  0  0  0  0  0  0  0
    0.8256   -0.8374    3.2309 H   0  0  0  0  0  0  0  0  0  0  0  0
    3.5617   -0.0547    1.4578 S   0  0  0  0  0  0  0  0  0  0  0  0
    4.6148   -1.0280    1.2529 O   0  0  0  0  0  0  0  0  0  0  0  0
    2.1973   -0.8257    0.9773 O   0  0  0  0  0  0  0  0  0  0  0  0
    3.3313    0.6372    2.7050 O   0  0  0  0  0  0  0  0  0  0  0  0
    3.6999    1.1032    0.3197 O   0  0  0  0  0  0  0  0  0  0  0  0
    4.1827    0.7152   -0.4301 H   0  0  0  0  0  0  0  0  0  0  0  0
  1  6  1  0  0  0  0
  2  1  2  0  0  0  0
  2  3  1  0  0  0  0
  3  4  2  0  0  0  0
  4  5  1  0  0  0  0
  4 13  1  0  0  0  0
  5 12  1  0  0  0  0
  6 11  1  0  0  0  0
  6  5  2  0  0  0  0
  7  1  1  0  0  0  0
  8  2  1  0  0  0  0
 10  9  3  0  0  0  0
 14 17  2  0  0  0  0
 15 14  2  0  0  0  0
 16  3  1  0  0  0  0
 16 14  1  0  0  0  0
 18 14  1  0  0  0  0
 19 18  1  0  0  0  0
M  END
