Coordinates from ORCA-job Ph-N2-HSO4-B3LYPG-6-31G_dp-MTMO-d009-169-n800
 OpenBabel09051908053D

 19 18  0  0  0  0  0  0  0  0999 V2000
   -0.8803    1.0102    0.2646 C   0  0  0  0  0  0  0  0  0  0  0  0
    0.3922    0.4660    0.0857 C   0  0  0  0  0  0  0  0  0  0  0  0
    0.9941   -0.1912    1.1545 C   0  0  0  0  0  0  0  0  0  0  0  0
    0.3696   -0.3181    2.3918 C   0  0  0  0  0  0  0  0  0  0  0  0
   -0.9009    0.2335    2.5572 C   0  0  0  0  0  0  0  0  0  0  0  0
   -1.5263    0.8950    1.4974 C   0  0  0  0  0  0  0  0  0  0  0  0
   -1.3651    1.5223   -0.5609 H   0  0  0  0  0  0  0  0  0  0  0  0
    0.9139    0.5402   -0.8621 H   0  0  0  0  0  0  0  0  0  0  0  0
    9.5634    1.2822   -4.6815 N   0  0  0  0  0  0  0  0  0  0  0  0
   10.6036    1.3128   -5.0538 N   0  0  0  0  0  0  0  0  0  0  0  0
   -2.5165    1.3186    1.6318 H   0  0  0  0  0  0  0  0  0  0  0  0
   -1.4026    0.1432    3.5158 H   0  0  0  0  0  0  0  0  0  0  0  0
    0.8755   -0.8339    3.1996 H   0  0  0  0  0  0  0  0  0  0  0  0
    3.6053   -0.0444    1.4193 S   0  0  0  0  0  0  0  0  0  0  0  0
    4.6594   -1.0159    1.2111 O   0  0  0  0  0  0  0  0  0  0  0  0
    2.2408   -0.8175    0.9422 O   0  0  0  0  0  0  0  0  0  0  0  0
    3.3771    0.6466    2.6674 O   0  0  0  0  0  0  0  0  0  0  0  0
    3.7385    1.1142    0.2813 O   0  0  0  0  0  0  0  0  0  0  0  0
    4.2201    0.7274   -0.4699 H   0  0  0  0  0  0  0  0  0  0  0  0
  1  6  1  0  0  0  0
  2  1  2  0  0  0  0
  2  3  1  0  0  0  0
  3  4  2  0  0  0  0
  4  5  1  0  0  0  0
  4 13  1  0  0  0  0
  5 12  1  0  0  0  0
  6 11  1  0  0  0  0
  6  5  2  0  0  0  0
  7  1  1  0  0  0  0
  8  2  1  0  0  0  0
 10  9  3  0  0  0  0
 14 17  2  0  0  0  0
 15 14  2  0  0  0  0
 16  3  1  0  0  0  0
 16 14  1  0  0  0  0
 18 14  1  0  0  0  0
 19 18  1  0  0  0  0
M  END
