Coordinates from ORCA-job Ph-N2-HSO4-B3LYPG-6-31G_dp-MTMO-d009-169-n800
 OpenBabel09051908053D

 19 18  0  0  0  0  0  0  0  0999 V2000
   -1.3103    0.9651    0.5439 C   0  0  0  0  0  0  0  0  0  0  0  0
   -0.0439    0.3985    0.3922 C   0  0  0  0  0  0  0  0  0  0  0  0
    0.5315   -0.2522    1.4794 C   0  0  0  0  0  0  0  0  0  0  0  0
   -0.1134   -0.3509    2.7089 C   0  0  0  0  0  0  0  0  0  0  0  0
   -1.3774    0.2230    2.8470 C   0  0  0  0  0  0  0  0  0  0  0  0
   -1.9764    0.8784    1.7684 C   0  0  0  0  0  0  0  0  0  0  0  0
   -1.7745    1.4724   -0.2962 H   0  0  0  0  0  0  0  0  0  0  0  0
    0.4928    0.4504   -0.5486 H   0  0  0  0  0  0  0  0  0  0  0  0
   13.4338    1.7690   -7.4112 N   0  0  0  0  0  0  0  0  0  0  0  0
   14.4817    1.8459   -7.7543 N   0  0  0  0  0  0  0  0  0  0  0  0
   -2.9616    1.3193    1.8814 H   0  0  0  0  0  0  0  0  0  0  0  0
   -1.8946    0.1548    3.7992 H   0  0  0  0  0  0  0  0  0  0  0  0
    0.3720   -0.8625    3.5317 H   0  0  0  0  0  0  0  0  0  0  0  0
    3.1400   -0.1453    1.7862 S   0  0  0  0  0  0  0  0  0  0  0  0
    4.1818   -1.1348    1.6022 O   0  0  0  0  0  0  0  0  0  0  0  0
    1.7711   -0.9010    1.2947 O   0  0  0  0  0  0  0  0  0  0  0  0
    2.9039    0.5598    3.0249 O   0  0  0  0  0  0  0  0  0  0  0  0
    3.3085    1.0011    0.6406 O   0  0  0  0  0  0  0  0  0  0  0  0
    3.7967    0.6003   -0.0989 H   0  0  0  0  0  0  0  0  0  0  0  0
  1  6  1  0  0  0  0
  2  1  2  0  0  0  0
  2  3  1  0  0  0  0
  3  4  2  0  0  0  0
  4  5  1  0  0  0  0
  4 13  1  0  0  0  0
  5 12  1  0  0  0  0
  6 11  1  0  0  0  0
  6  5  2  0  0  0  0
  7  1  1  0  0  0  0
  8  2  1  0  0  0  0
 10  9  3  0  0  0  0
 14 17  2  0  0  0  0
 15 14  2  0  0  0  0
 16  3  1  0  0  0  0
 16 14  1  0  0  0  0
 18 14  1  0  0  0  0
 19 18  1  0  0  0  0
M  END
