Coordinates from ORCA-job Ph-N2-HSO4-B3LYPG-6-31G_dp-MTMO-d009-169-n800
 OpenBabel09051908053D

 19 18  0  0  0  0  0  0  0  0999 V2000
   -0.9018    1.0083    0.2783 C   0  0  0  0  0  0  0  0  0  0  0  0
    0.3705    0.4627    0.1017 C   0  0  0  0  0  0  0  0  0  0  0  0
    0.9701   -0.1945    1.1718 C   0  0  0  0  0  0  0  0  0  0  0  0
    0.3434   -0.3201    2.4082 C   0  0  0  0  0  0  0  0  0  0  0  0
   -0.9269    0.2328    2.5712 C   0  0  0  0  0  0  0  0  0  0  0  0
   -1.5499    0.8944    1.5101 C   0  0  0  0  0  0  0  0  0  0  0  0
   -1.3847    1.5204   -0.5483 H   0  0  0  0  0  0  0  0  0  0  0  0
    0.8938    0.5360   -0.8452 H   0  0  0  0  0  0  0  0  0  0  0  0
    9.7647    1.3098   -4.8285 N   0  0  0  0  0  0  0  0  0  0  0  0
   10.8059    1.3395   -5.1982 N   0  0  0  0  0  0  0  0  0  0  0  0
   -2.5399    1.3190    1.6426 H   0  0  0  0  0  0  0  0  0  0  0  0
   -1.4302    0.1435    3.5291 H   0  0  0  0  0  0  0  0  0  0  0  0
    0.8475   -0.8360    3.2171 H   0  0  0  0  0  0  0  0  0  0  0  0
    3.5809   -0.0501    1.4410 S   0  0  0  0  0  0  0  0  0  0  0  0
    4.6345   -1.0225    1.2346 O   0  0  0  0  0  0  0  0  0  0  0  0
    2.2165   -0.8220    0.9619 O   0  0  0  0  0  0  0  0  0  0  0  0
    3.3514    0.6413    2.6886 O   0  0  0  0  0  0  0  0  0  0  0  0
    3.7169    1.1082    0.3030 O   0  0  0  0  0  0  0  0  0  0  0  0
    4.1992    0.7208   -0.4474 H   0  0  0  0  0  0  0  0  0  0  0  0
  1  6  1  0  0  0  0
  2  1  2  0  0  0  0
  2  3  1  0  0  0  0
  3  4  2  0  0  0  0
  4  5  1  0  0  0  0
  4 13  1  0  0  0  0
  5 12  1  0  0  0  0
  6 11  1  0  0  0  0
  6  5  2  0  0  0  0
  7  1  1  0  0  0  0
  8  2  1  0  0  0  0
 10  9  3  0  0  0  0
 14 17  2  0  0  0  0
 15 14  2  0  0  0  0
 16  3  1  0  0  0  0
 16 14  1  0  0  0  0
 18 14  1  0  0  0  0
 19 18  1  0  0  0  0
M  END
