Coordinates from ORCA-job Ph-N2-HSO4-B3LYPG-6-31G_dp-MTMO-d009-169-n800
 OpenBabel09051908053D

 19 18  0  0  0  0  0  0  0  0999 V2000
   -1.0045    0.9982    0.3437 C   0  0  0  0  0  0  0  0  0  0  0  0
    0.2660    0.4453    0.1772 C   0  0  0  0  0  0  0  0  0  0  0  0
    0.8557   -0.2103    1.2538 C   0  0  0  0  0  0  0  0  0  0  0  0
    0.2209   -0.3273    2.4869 C   0  0  0  0  0  0  0  0  0  0  0  0
   -1.0475    0.2329    2.6397 C   0  0  0  0  0  0  0  0  0  0  0  0
   -1.6607    0.8930    1.5720 C   0  0  0  0  0  0  0  0  0  0  0  0
   -1.4797    1.5092   -0.4880 H   0  0  0  0  0  0  0  0  0  0  0  0
    0.7954    0.5117   -0.7669 H   0  0  0  0  0  0  0  0  0  0  0  0
   10.7172    1.4334   -5.5159 N   0  0  0  0  0  0  0  0  0  0  0  0
   11.7619    1.4794   -5.8738 N   0  0  0  0  0  0  0  0  0  0  0  0
   -2.6492    1.3233    1.6966 H   0  0  0  0  0  0  0  0  0  0  0  0
   -1.5571    0.1504    3.5950 H   0  0  0  0  0  0  0  0  0  0  0  0
    0.7173   -0.8422    3.3011 H   0  0  0  0  0  0  0  0  0  0  0  0
    3.4654   -0.0789    1.5393 S   0  0  0  0  0  0  0  0  0  0  0  0
    4.5153   -1.0573    1.3419 O   0  0  0  0  0  0  0  0  0  0  0  0
    2.1001   -0.8452    1.0541 O   0  0  0  0  0  0  0  0  0  0  0  0
    3.2320    0.6172    2.7836 O   0  0  0  0  0  0  0  0  0  0  0  0
    3.6141    1.0754    0.3988 O   0  0  0  0  0  0  0  0  0  0  0  0
    4.0991    0.6833   -0.3474 H   0  0  0  0  0  0  0  0  0  0  0  0
  1  6  1  0  0  0  0
  2  1  2  0  0  0  0
  2  3  1  0  0  0  0
  3  4  2  0  0  0  0
  4  5  1  0  0  0  0
  4 13  1  0  0  0  0
  5 12  1  0  0  0  0
  6 11  1  0  0  0  0
  6  5  2  0  0  0  0
  7  1  1  0  0  0  0
  8  2  1  0  0  0  0
 10  9  3  0  0  0  0
 14 17  2  0  0  0  0
 15 14  2  0  0  0  0
 16  3  1  0  0  0  0
 16 14  1  0  0  0  0
 18 14  1  0  0  0  0
 19 18  1  0  0  0  0
M  END
