Coordinates from ORCA-job Ph-N2-HSO4-B3LYPG-6-31G_dp-MTMO-d009-169-n800
 OpenBabel09051908053D

 19 18  0  0  0  0  0  0  0  0999 V2000
   -0.7164    1.0188    0.1652 C   0  0  0  0  0  0  0  0  0  0  0  0
    0.5520    0.4782   -0.0502 C   0  0  0  0  0  0  0  0  0  0  0  0
    1.1911   -0.1667    1.0045 C   0  0  0  0  0  0  0  0  0  0  0  0
    0.6079   -0.2844    2.2626 C   0  0  0  0  0  0  0  0  0  0  0  0
   -0.6591    0.2633    2.4642 C   0  0  0  0  0  0  0  0  0  0  0  0
   -1.3215    0.9123    1.4193 C   0  0  0  0  0  0  0  0  0  0  0  0
   -1.2300    1.5213   -0.6486 H   0  0  0  0  0  0  0  0  0  0  0  0
    1.0425    0.5461   -1.0148 H   0  0  0  0  0  0  0  0  0  0  0  0
    7.8762    1.0654   -3.3056 N   0  0  0  0  0  0  0  0  0  0  0  0
    8.8962    1.1282   -3.7264 N   0  0  0  0  0  0  0  0  0  0  0  0
   -2.3087    1.3329    1.5821 H   0  0  0  0  0  0  0  0  0  0  0  0
   -1.1289    0.1798    3.4395 H   0  0  0  0  0  0  0  0  0  0  0  0
    1.1421   -0.7909    3.0580 H   0  0  0  0  0  0  0  0  0  0  0  0
    3.8099   -0.0026    1.1717 S   0  0  0  0  0  0  0  0  0  0  0  0
    4.8591   -0.9798    0.9652 O   0  0  0  0  0  0  0  0  0  0  0  0
    2.4330   -0.7904    0.7584 O   0  0  0  0  0  0  0  0  0  0  0  0
    3.6155    0.7273    2.4033 O   0  0  0  0  0  0  0  0  0  0  0  0
    3.9115    1.1187   -0.0063 O   0  0  0  0  0  0  0  0  0  0  0  0
    4.3890    0.7139   -0.7508 H   0  0  0  0  0  0  0  0  0  0  0  0
  1  6  1  0  0  0  0
  2  1  2  0  0  0  0
  2  3  1  0  0  0  0
  3  4  2  0  0  0  0
  4  5  1  0  0  0  0
  4 13  1  0  0  0  0
  5 12  1  0  0  0  0
  6 11  1  0  0  0  0
  6  5  2  0  0  0  0
  7  1  1  0  0  0  0
  8  2  1  0  0  0  0
 10  9  3  0  0  0  0
 14 17  2  0  0  0  0
 15 14  2  0  0  0  0
 16  3  1  0  0  0  0
 16 14  1  0  0  0  0
 18 14  1  0  0  0  0
 19 18  1  0  0  0  0
M  END
