Coordinates from ORCA-job Ph-N2-HSO4-B3LYPG-6-31G_dp-MTMO-d009-169-n800
 OpenBabel09051908053D

 19 17  0  0  0  0  0  0  0  0999 V2000
   -0.9707    0.7777   -0.4756 C   0  0  0  0  0  0  0  0  0  0  0  0
    0.2595    0.5600   -1.1445 C   0  0  0  0  0  0  0  0  0  0  0  0
    1.1806    0.2951   -0.1756 C   0  0  0  0  0  0  0  0  0  0  0  0
    1.2364    0.1990    1.0816 C   0  0  0  0  0  0  0  0  0  0  0  0
    0.0115    0.4132    1.7537 C   0  0  0  0  0  0  0  0  0  0  0  0
   -1.0853    0.7055    0.9240 C   0  0  0  0  0  0  0  0  0  0  0  0
   -1.8456    1.0047   -1.0790 H   0  0  0  0  0  0  0  0  0  0  0  0
    0.3919    0.6031   -2.2169 H   0  0  0  0  0  0  0  0  0  0  0  0
    3.2199   -0.5394   -2.3885 N   0  0  0  0  0  0  0  0  0  0  0  0
    4.1296   -1.0691   -2.7237 N   0  0  0  0  0  0  0  0  0  0  0  0
   -2.0564    0.8832    1.3781 H   0  0  0  0  0  0  0  0  0  0  0  0
   -0.0928    0.3608    2.8333 H   0  0  0  0  0  0  0  0  0  0  0  0
    2.8612   -0.1336    1.9246 H   0  0  0  0  0  0  0  0  0  0  0  0
    4.9574    0.3112    1.6463 S   0  0  0  0  0  0  0  0  0  0  0  0
    6.1437   -0.2440    2.2669 O   0  0  0  0  0  0  0  0  0  0  0  0
    4.7050    0.2579    0.2200 O   0  0  0  0  0  0  0  0  0  0  0  0
    3.7068   -0.2940    2.4427 O   0  0  0  0  0  0  0  0  0  0  0  0
    4.8795    1.8951    2.0349 O   0  0  0  0  0  0  0  0  0  0  0  0
    5.3295    2.0048    2.8893 H   0  0  0  0  0  0  0  0  0  0  0  0
  1  6  1  0  0  0  0
  2  1  2  0  0  0  0
  2  3  1  0  0  0  0
  3  4  2  0  0  0  0
  4  5  1  0  0  0  0
  5 12  1  0  0  0  0
  6 11  1  0  0  0  0
  6  5  2  0  0  0  0
  7  1  1  0  0  0  0
  8  2  1  0  0  0  0
 10  9  3  0  0  0  0
 13 17  1  0  0  0  0
 14 18  1  0  0  0  0
 14 15  2  0  0  0  0
 14 17  1  0  0  0  0
 16 14  2  0  0  0  0
 18 19  1  0  0  0  0
M  RAD  2   3   2   4   2
M  END
