Coordinates from ORCA-job Ph-N2-HSO4-B3LYPG-6-31G_dp-MTMO-d009-169-n800
 OpenBabel09051908053D

 19 18  0  0  0  0  0  0  0  0999 V2000
   -1.3376    0.9621    0.5623 C   0  0  0  0  0  0  0  0  0  0  0  0
   -0.0714    0.3951    0.4109 C   0  0  0  0  0  0  0  0  0  0  0  0
    0.5036   -0.2555    1.4984 C   0  0  0  0  0  0  0  0  0  0  0  0
   -0.1415   -0.3537    2.7278 C   0  0  0  0  0  0  0  0  0  0  0  0
   -1.4053    0.2207    2.8656 C   0  0  0  0  0  0  0  0  0  0  0  0
   -2.0039    0.8760    1.7867 C   0  0  0  0  0  0  0  0  0  0  0  0
   -1.8016    1.4693   -0.2780 H   0  0  0  0  0  0  0  0  0  0  0  0
    0.4654    0.4466   -0.5298 H   0  0  0  0  0  0  0  0  0  0  0  0
   13.6694    1.7969   -7.5721 N   0  0  0  0  0  0  0  0  0  0  0  0
   14.7173    1.8743   -7.9149 N   0  0  0  0  0  0  0  0  0  0  0  0
   -2.9891    1.3172    1.8995 H   0  0  0  0  0  0  0  0  0  0  0  0
   -1.9226    0.1529    3.8178 H   0  0  0  0  0  0  0  0  0  0  0  0
    0.3437   -0.8653    3.5509 H   0  0  0  0  0  0  0  0  0  0  0  0
    3.1121   -0.1495    1.8057 S   0  0  0  0  0  0  0  0  0  0  0  0
    4.1536   -1.1393    1.6220 O   0  0  0  0  0  0  0  0  0  0  0  0
    1.7430   -0.9047    1.3140 O   0  0  0  0  0  0  0  0  0  0  0  0
    2.8760    0.5559    3.0443 O   0  0  0  0  0  0  0  0  0  0  0  0
    3.2812    0.9968    0.6599 O   0  0  0  0  0  0  0  0  0  0  0  0
    3.7694    0.5957   -0.0795 H   0  0  0  0  0  0  0  0  0  0  0  0
  1  6  1  0  0  0  0
  2  1  2  0  0  0  0
  2  3  1  0  0  0  0
  3  4  2  0  0  0  0
  4  5  1  0  0  0  0
  4 13  1  0  0  0  0
  5 12  1  0  0  0  0
  6 11  1  0  0  0  0
  6  5  2  0  0  0  0
  7  1  1  0  0  0  0
  8  2  1  0  0  0  0
 10  9  3  0  0  0  0
 14 17  2  0  0  0  0
 15 14  2  0  0  0  0
 16  3  1  0  0  0  0
 16 14  1  0  0  0  0
 18 14  1  0  0  0  0
 19 18  1  0  0  0  0
M  END
