Coordinates from ORCA-job Ph-N2-HSO4-B3LYPG-6-31G_dp-MTMO-d009-169-n800
 OpenBabel09051908053D

 19 18  0  0  0  0  0  0  0  0999 V2000
   -0.7292    1.0186    0.1716 C   0  0  0  0  0  0  0  0  0  0  0  0
    0.5405    0.4786   -0.0376 C   0  0  0  0  0  0  0  0  0  0  0  0
    1.1735   -0.1687    1.0192 C   0  0  0  0  0  0  0  0  0  0  0  0
    0.5829   -0.2896    2.2736 C   0  0  0  0  0  0  0  0  0  0  0  0
   -0.6853    0.2576    2.4690 C   0  0  0  0  0  0  0  0  0  0  0  0
   -1.3416    0.9091    1.4219 C   0  0  0  0  0  0  0  0  0  0  0  0
   -1.2381    1.5230   -0.6440 H   0  0  0  0  0  0  0  0  0  0  0  0
    1.0365    0.5488   -0.9993 H   0  0  0  0  0  0  0  0  0  0  0  0
    8.0360    1.0855   -3.4579 N   0  0  0  0  0  0  0  0  0  0  0  0
    9.0589    1.1376   -3.8733 N   0  0  0  0  0  0  0  0  0  0  0  0
   -2.3298    1.3292    1.5799 H   0  0  0  0  0  0  0  0  0  0  0  0
   -1.1608    0.1718    3.4414 H   0  0  0  0  0  0  0  0  0  0  0  0
    1.1124   -0.7979    3.0709 H   0  0  0  0  0  0  0  0  0  0  0  0
    3.7909   -0.0065    1.2064 S   0  0  0  0  0  0  0  0  0  0  0  0
    4.8419   -0.9806    0.9946 O   0  0  0  0  0  0  0  0  0  0  0  0
    2.4168   -0.7915    0.7785 O   0  0  0  0  0  0  0  0  0  0  0  0
    3.5903    0.7106    2.4446 O   0  0  0  0  0  0  0  0  0  0  0  0
    3.8960    1.1273    0.0409 O   0  0  0  0  0  0  0  0  0  0  0  0
    4.3701    0.7284   -0.7089 H   0  0  0  0  0  0  0  0  0  0  0  0
  1  6  1  0  0  0  0
  2  1  2  0  0  0  0
  2  3  1  0  0  0  0
  3  4  2  0  0  0  0
  4  5  1  0  0  0  0
  4 13  1  0  0  0  0
  5 12  1  0  0  0  0
  6 11  1  0  0  0  0
  6  5  2  0  0  0  0
  7  1  1  0  0  0  0
  8  2  1  0  0  0  0
 10  9  3  0  0  0  0
 14 17  2  0  0  0  0
 15 14  2  0  0  0  0
 16  3  1  0  0  0  0
 16 14  1  0  0  0  0
 18 14  1  0  0  0  0
 19 18  1  0  0  0  0
M  END
