Coordinates from ORCA-job Ph-N2-HSO4-B3LYPG-6-31G_dp-MTMO-d009-169-n800
 OpenBabel09051908053D

 19 18  0  0  0  0  0  0  0  0999 V2000
   -1.1246    0.9855    0.4210 C   0  0  0  0  0  0  0  0  0  0  0  0
    0.1438    0.4251    0.2632 C   0  0  0  0  0  0  0  0  0  0  0  0
    0.7250   -0.2279    1.3459 C   0  0  0  0  0  0  0  0  0  0  0  0
    0.0840   -0.3350    2.5767 C   0  0  0  0  0  0  0  0  0  0  0  0
   -1.1821    0.2327    2.7209 C   0  0  0  0  0  0  0  0  0  0  0  0
   -1.7869    0.8903    1.6468 C   0  0  0  0  0  0  0  0  0  0  0  0
   -1.5933    1.4945   -0.4156 H   0  0  0  0  0  0  0  0  0  0  0  0
    0.6777    0.4836   -0.6788 H   0  0  0  0  0  0  0  0  0  0  0  0
   11.8069    1.5691   -6.2873 N   0  0  0  0  0  0  0  0  0  0  0  0
   12.8535    1.6381   -6.6357 N   0  0  0  0  0  0  0  0  0  0  0  0
   -2.7738    1.3265    1.7646 H   0  0  0  0  0  0  0  0  0  0  0  0
   -1.6964    0.1580    3.6742 H   0  0  0  0  0  0  0  0  0  0  0  0
    0.5739   -0.8482    3.3959 H   0  0  0  0  0  0  0  0  0  0  0  0
    3.3340   -0.1100    1.6444 S   0  0  0  0  0  0  0  0  0  0  0  0
    4.3795   -1.0945    1.4550 O   0  0  0  0  0  0  0  0  0  0  0  0
    1.9669   -0.8705    1.1551 O   0  0  0  0  0  0  0  0  0  0  0  0
    3.0984    0.5913    2.8854 O   0  0  0  0  0  0  0  0  0  0  0  0
    3.4941    1.0399    0.5010 O   0  0  0  0  0  0  0  0  0  0  0  0
    3.9811    0.6429   -0.2414 H   0  0  0  0  0  0  0  0  0  0  0  0
  1  6  1  0  0  0  0
  2  1  2  0  0  0  0
  2  3  1  0  0  0  0
  3  4  2  0  0  0  0
  4  5  1  0  0  0  0
  4 13  1  0  0  0  0
  5 12  1  0  0  0  0
  6 11  1  0  0  0  0
  6  5  2  0  0  0  0
  7  1  1  0  0  0  0
  8  2  1  0  0  0  0
 10  9  3  0  0  0  0
 14 17  2  0  0  0  0
 15 14  2  0  0  0  0
 16  3  1  0  0  0  0
 16 14  1  0  0  0  0
 18 14  1  0  0  0  0
 19 18  1  0  0  0  0
M  END
