Coordinates from ORCA-job Ph-N2-HSO4-B3LYPG-6-31G_dp-MTMO-d009-169-n800
 OpenBabel09051908053D

 19 18  0  0  0  0  0  0  0  0999 V2000
   -0.8323    0.5422   -0.7538 C   0  0  0  0  0  0  0  0  0  0  0  0
    0.4883    0.3987   -1.1937 C   0  0  0  0  0  0  0  0  0  0  0  0
    1.4153    0.2824   -0.1793 C   0  0  0  0  0  0  0  0  0  0  0  0
    1.2339    0.2835    1.1807 C   0  0  0  0  0  0  0  0  0  0  0  0
   -0.1077    0.4167    1.5660 C   0  0  0  0  0  0  0  0  0  0  0  0
   -1.1218    0.5500    0.6141 C   0  0  0  0  0  0  0  0  0  0  0  0
   -1.6243    0.6466   -1.4880 H   0  0  0  0  0  0  0  0  0  0  0  0
    0.7568    0.3843   -2.2424 H   0  0  0  0  0  0  0  0  0  0  0  0
    3.0048    0.0598   -0.7427 N   0  0  0  0  0  0  0  0  0  0  0  0
    3.6826   -0.3676   -1.5186 N   0  0  0  0  0  0  0  0  0  0  0  0
   -2.1507    0.6628    0.9405 H   0  0  0  0  0  0  0  0  0  0  0  0
   -0.3445    0.4201    2.6250 H   0  0  0  0  0  0  0  0  0  0  0  0
    2.0557    0.1794    1.8883 H   0  0  0  0  0  0  0  0  0  0  0  0
    4.7425    0.3298    1.6900 S   0  0  0  0  0  0  0  0  0  0  0  0
    5.5480   -0.6132    0.8990 O   0  0  0  0  0  0  0  0  0  0  0  0
    3.9545    1.2781    0.7969 O   0  0  0  0  0  0  0  0  0  0  0  0
    3.9042   -0.2181    2.7670 O   0  0  0  0  0  0  0  0  0  0  0  0
    5.8002    1.3218    2.4701 O   0  0  0  0  0  0  0  0  0  0  0  0
    6.5563    1.4341    1.8724 H   0  0  0  0  0  0  0  0  0  0  0  0
  1  6  1  0  0  0  0
  2  1  2  0  0  0  0
  2  3  1  0  0  0  0
  3  4  2  0  0  0  0
  4  5  1  0  0  0  0
  4 13  1  0  0  0  0
  5 12  1  0  0  0  0
  6 11  1  0  0  0  0
  6  5  2  0  0  0  0
  7  1  1  0  0  0  0
  8  2  1  0  0  0  0
  9  3  1  0  0  0  0
 10  9  2  0  0  0  0
 14 18  1  0  0  0  0
 14 17  1  0  0  0  0
 15 14  2  0  0  0  0
 16 14  2  0  0  0  0
 19 18  1  0  0  0  0
M  RAD  2  10   2  17   2
M  END
