Coordinates from ORCA-job Ph-N2-HSO4-B3LYPG-6-31G_dp-MTMO-d009-169-n800
 OpenBabel09051908053D

 19 18  0  0  0  0  0  0  0  0999 V2000
   -0.2640    1.0398   -0.1210 C   0  0  0  0  0  0  0  0  0  0  0  0
    1.0775    0.6750   -0.2417 C   0  0  0  0  0  0  0  0  0  0  0  0
    1.6805   -0.0197    0.8030 C   0  0  0  0  0  0  0  0  0  0  0  0
    0.9860   -0.3576    1.9615 C   0  0  0  0  0  0  0  0  0  0  0  0
   -0.3532    0.0177    2.0708 C   0  0  0  0  0  0  0  0  0  0  0  0
   -0.9788    0.7139    1.0336 C   0  0  0  0  0  0  0  0  0  0  0  0
   -0.7480    1.5787   -0.9300 H   0  0  0  0  0  0  0  0  0  0  0  0
    1.6525    0.9149   -1.1292 H   0  0  0  0  0  0  0  0  0  0  0  0
    4.9178    0.3592   -2.1293 N   0  0  0  0  0  0  0  0  0  0  0  0
    5.0860   -0.3570   -2.9526 N   0  0  0  0  0  0  0  0  0  0  0  0
   -2.0214    1.0019    1.1251 H   0  0  0  0  0  0  0  0  0  0  0  0
   -0.9078   -0.2374    2.9686 H   0  0  0  0  0  0  0  0  0  0  0  0
    1.4926   -0.8949    2.7546 H   0  0  0  0  0  0  0  0  0  0  0  0
    4.2185    0.3731    1.3782 S   0  0  0  0  0  0  0  0  0  0  0  0
    5.4053   -0.4001    1.0739 O   0  0  0  0  0  0  0  0  0  0  0  0
    3.0092   -0.4571    0.6340 O   0  0  0  0  0  0  0  0  0  0  0  0
    3.8257    0.7466    2.7175 O   0  0  0  0  0  0  0  0  0  0  0  0
    4.2355    1.7466    0.5178 O   0  0  0  0  0  0  0  0  0  0  0  0
    4.6478    1.5479   -0.3434 H   0  0  0  0  0  0  0  0  0  0  0  0
  1  6  1  0  0  0  0
  2  1  2  0  0  0  0
  2  3  1  0  0  0  0
  3  4  2  0  0  0  0
  4  5  1  0  0  0  0
  4 13  1  0  0  0  0
  5 12  1  0  0  0  0
  6 11  1  0  0  0  0
  6  5  2  0  0  0  0
  7  1  1  0  0  0  0
  8  2  1  0  0  0  0
 10  9  3  0  0  0  0
 14 17  2  0  0  0  0
 15 14  2  0  0  0  0
 16  3  1  0  0  0  0
 16 14  1  0  0  0  0
 18 14  1  0  0  0  0
 19 18  1  0  0  0  0
M  END
