Coordinates from ORCA-job Ph-N2-HSO4-B3LYPG-6-31G_dp-MTMO-d009-169-n800
 OpenBabel09051908053D

 19 18  0  0  0  0  0  0  0  0999 V2000
   -1.0664    0.9917    0.3833 C   0  0  0  0  0  0  0  0  0  0  0  0
    0.2029    0.4346    0.2218 C   0  0  0  0  0  0  0  0  0  0  0  0
    0.7877   -0.2196    1.3019 C   0  0  0  0  0  0  0  0  0  0  0  0
    0.1493   -0.3310    2.5337 C   0  0  0  0  0  0  0  0  0  0  0  0
   -1.1178    0.2334    2.6815 C   0  0  0  0  0  0  0  0  0  0  0  0
   -1.7262    0.8922    1.6102 C   0  0  0  0  0  0  0  0  0  0  0  0
   -1.5379    1.5016   -0.4511 H   0  0  0  0  0  0  0  0  0  0  0  0
    0.7350    0.4966   -0.7210 H   0  0  0  0  0  0  0  0  0  0  0  0
   11.2829    1.5035   -5.9184 N   0  0  0  0  0  0  0  0  0  0  0  0
   12.3287    1.5644   -6.2707 N   0  0  0  0  0  0  0  0  0  0  0  0
   -2.7138    1.3257    1.7309 H   0  0  0  0  0  0  0  0  0  0  0  0
   -1.6302    0.1552    3.6356 H   0  0  0  0  0  0  0  0  0  0  0  0
    0.6420   -0.8451    3.3507 H   0  0  0  0  0  0  0  0  0  0  0  0
    3.3970   -0.0958    1.5948 S   0  0  0  0  0  0  0  0  0  0  0  0
    4.4445   -1.0776    1.4022 O   0  0  0  0  0  0  0  0  0  0  0  0
    2.0307   -0.8588    1.1073 O   0  0  0  0  0  0  0  0  0  0  0  0
    3.1623    0.6034    2.8372 O   0  0  0  0  0  0  0  0  0  0  0  0
    3.5523    1.0560    0.4526 O   0  0  0  0  0  0  0  0  0  0  0  0
    4.0384    0.6610   -0.2914 H   0  0  0  0  0  0  0  0  0  0  0  0
  1  6  1  0  0  0  0
  2  1  2  0  0  0  0
  2  3  1  0  0  0  0
  3  4  2  0  0  0  0
  4  5  1  0  0  0  0
  4 13  1  0  0  0  0
  5 12  1  0  0  0  0
  6 11  1  0  0  0  0
  6  5  2  0  0  0  0
  7  1  1  0  0  0  0
  8  2  1  0  0  0  0
 10  9  3  0  0  0  0
 14 17  2  0  0  0  0
 15 14  2  0  0  0  0
 16  3  1  0  0  0  0
 16 14  1  0  0  0  0
 18 14  1  0  0  0  0
 19 18  1  0  0  0  0
M  END
