Coordinates from ORCA-job Ph-N2-HSO4-B3LYPG-6-31G_dp-MTMO-d009-169-n800
 OpenBabel09051908053D

 19 18  0  0  0  0  0  0  0  0999 V2000
   -1.2949    0.9668    0.5336 C   0  0  0  0  0  0  0  0  0  0  0  0
   -0.0285    0.4005    0.3816 C   0  0  0  0  0  0  0  0  0  0  0  0
    0.5472   -0.2503    1.4687 C   0  0  0  0  0  0  0  0  0  0  0  0
   -0.0976   -0.3494    2.6982 C   0  0  0  0  0  0  0  0  0  0  0  0
   -1.3616    0.2242    2.8366 C   0  0  0  0  0  0  0  0  0  0  0  0
   -1.9609    0.8797    1.7581 C   0  0  0  0  0  0  0  0  0  0  0  0
   -1.7593    1.4741   -0.3063 H   0  0  0  0  0  0  0  0  0  0  0  0
    0.5081    0.4527   -0.5592 H   0  0  0  0  0  0  0  0  0  0  0  0
   13.3014    1.7532   -7.3206 N   0  0  0  0  0  0  0  0  0  0  0  0
   14.3492    1.8297   -7.6638 N   0  0  0  0  0  0  0  0  0  0  0  0
   -2.9462    1.3204    1.8713 H   0  0  0  0  0  0  0  0  0  0  0  0
   -1.8787    0.1558    3.7888 H   0  0  0  0  0  0  0  0  0  0  0  0
    0.3881   -0.8611    3.5209 H   0  0  0  0  0  0  0  0  0  0  0  0
    3.1557   -0.1429    1.7752 S   0  0  0  0  0  0  0  0  0  0  0  0
    4.1976   -1.1322    1.5910 O   0  0  0  0  0  0  0  0  0  0  0  0
    1.7869   -0.8988    1.2837 O   0  0  0  0  0  0  0  0  0  0  0  0
    2.9196    0.5621    3.0140 O   0  0  0  0  0  0  0  0  0  0  0  0
    3.3239    1.0037    0.6297 O   0  0  0  0  0  0  0  0  0  0  0  0
    3.8120    0.6031   -0.1100 H   0  0  0  0  0  0  0  0  0  0  0  0
  1  6  1  0  0  0  0
  2  1  2  0  0  0  0
  2  3  1  0  0  0  0
  3  4  2  0  0  0  0
  4  5  1  0  0  0  0
  4 13  1  0  0  0  0
  5 12  1  0  0  0  0
  6 11  1  0  0  0  0
  6  5  2  0  0  0  0
  7  1  1  0  0  0  0
  8  2  1  0  0  0  0
 10  9  3  0  0  0  0
 14 17  2  0  0  0  0
 15 14  2  0  0  0  0
 16  3  1  0  0  0  0
 16 14  1  0  0  0  0
 18 14  1  0  0  0  0
 19 18  1  0  0  0  0
M  END
