Coordinates from ORCA-job Ph-N2-HSO4-B3LYPG-6-31G_dp-MTMO-d009-169-n800
 OpenBabel09051908053D

 19 17  0  0  0  0  0  0  0  0999 V2000
   -1.0245    0.7616   -0.4955 C   0  0  0  0  0  0  0  0  0  0  0  0
    0.0934    0.4368   -1.3001 C   0  0  0  0  0  0  0  0  0  0  0  0
    1.1245    0.1734   -0.4497 C   0  0  0  0  0  0  0  0  0  0  0  0
    1.3628    0.1413    0.7946 C   0  0  0  0  0  0  0  0  0  0  0  0
    0.2375    0.4657    1.5932 C   0  0  0  0  0  0  0  0  0  0  0  0
   -0.9491    0.7737    0.9080 C   0  0  0  0  0  0  0  0  0  0  0  0
   -1.9597    1.0059   -0.9921 H   0  0  0  0  0  0  0  0  0  0  0  0
    0.0853    0.4130   -2.3815 H   0  0  0  0  0  0  0  0  0  0  0  0
    2.9412   -0.5160   -2.0259 N   0  0  0  0  0  0  0  0  0  0  0  0
    3.8952   -1.0482   -2.1920 N   0  0  0  0  0  0  0  0  0  0  0  0
   -1.8377    1.0310    1.4779 H   0  0  0  0  0  0  0  0  0  0  0  0
    0.2800    0.4818    2.6787 H   0  0  0  0  0  0  0  0  0  0  0  0
    2.9285   -0.2114    1.6238 H   0  0  0  0  0  0  0  0  0  0  0  0
    5.0099    0.3998    1.6605 S   0  0  0  0  0  0  0  0  0  0  0  0
    6.1776   -0.2076    2.2692 O   0  0  0  0  0  0  0  0  0  0  0  0
    4.8889    0.6353    0.2351 O   0  0  0  0  0  0  0  0  0  0  0  0
    3.7432   -0.4227    2.1851 O   0  0  0  0  0  0  0  0  0  0  0  0
    4.7870    1.8613    2.3568 O   0  0  0  0  0  0  0  0  0  0  0  0
    5.1779    1.8168    3.2454 H   0  0  0  0  0  0  0  0  0  0  0  0
  1  6  1  0  0  0  0
  2  1  2  0  0  0  0
  2  3  1  0  0  0  0
  3  4  2  0  0  0  0
  4  5  1  0  0  0  0
  5 12  1  0  0  0  0
  6 11  1  0  0  0  0
  6  5  2  0  0  0  0
  7  1  1  0  0  0  0
  8  2  1  0  0  0  0
 10  9  3  0  0  0  0
 13 17  1  0  0  0  0
 14 17  1  0  0  0  0
 14 15  2  0  0  0  0
 14 18  1  0  0  0  0
 16 14  2  0  0  0  0
 18 19  1  0  0  0  0
M  RAD  2   3   2   4   2
M  END
