Coordinates from ORCA-job Ph-N2-HSO4-B3LYPG-6-31G_dp-MTMO-d009-169-n800
 OpenBabel09051908053D

 19 18  0  0  0  0  0  0  0  0999 V2000
   -0.6593    1.0256    0.1598 C   0  0  0  0  0  0  0  0  0  0  0  0
    0.6155    0.5379   -0.1314 C   0  0  0  0  0  0  0  0  0  0  0  0
    1.3255   -0.1146    0.8721 C   0  0  0  0  0  0  0  0  0  0  0  0
    0.8074   -0.2912    2.1512 C   0  0  0  0  0  0  0  0  0  0  0  0
   -0.4675    0.2029    2.4283 C   0  0  0  0  0  0  0  0  0  0  0  0
   -1.2007    0.8589    1.4363 C   0  0  0  0  0  0  0  0  0  0  0  0
   -1.2280    1.5340   -0.6128 H   0  0  0  0  0  0  0  0  0  0  0  0
    1.0592    0.6539   -1.1138 H   0  0  0  0  0  0  0  0  0  0  0  0
    6.7066    0.7486   -2.1807 N   0  0  0  0  0  0  0  0  0  0  0  0
    7.7376    0.6726   -2.5690 N   0  0  0  0  0  0  0  0  0  0  0  0
   -2.1930    1.2385    1.6583 H   0  0  0  0  0  0  0  0  0  0  0  0
   -0.8873    0.0727    3.4211 H   0  0  0  0  0  0  0  0  0  0  0  0
    1.3965   -0.8018    2.9043 H   0  0  0  0  0  0  0  0  0  0  0  0
    3.9454    0.1589    0.8695 S   0  0  0  0  0  0  0  0  0  0  0  0
    5.0190   -0.8026    0.7115 O   0  0  0  0  0  0  0  0  0  0  0  0
    2.5768   -0.6853    0.5509 O   0  0  0  0  0  0  0  0  0  0  0  0
    3.7566    0.9631    2.0563 O   0  0  0  0  0  0  0  0  0  0  0  0
    3.9970    1.1823   -0.3941 O   0  0  0  0  0  0  0  0  0  0  0  0
    4.6542    0.8371   -1.0262 H   0  0  0  0  0  0  0  0  0  0  0  0
  1  6  1  0  0  0  0
  2  1  2  0  0  0  0
  2  3  1  0  0  0  0
  3  4  2  0  0  0  0
  4  5  1  0  0  0  0
  4 13  1  0  0  0  0
  5 12  1  0  0  0  0
  6 11  1  0  0  0  0
  6  5  2  0  0  0  0
  7  1  1  0  0  0  0
  8  2  1  0  0  0  0
 10  9  3  0  0  0  0
 14 17  2  0  0  0  0
 15 14  2  0  0  0  0
 16 14  1  0  0  0  0
 16  3  1  0  0  0  0
 18 14  1  0  0  0  0
 19 18  1  0  0  0  0
M  END
