Coordinates from ORCA-job Ph-N2-HSO4-B3LYPG-6-31G_dp-MTMO-d009-169-n800
 OpenBabel09051908053D

 19 18  0  0  0  0  0  0  0  0999 V2000
   -1.1872    0.9786    0.4620 C   0  0  0  0  0  0  0  0  0  0  0  0
    0.0803    0.4155    0.3071 C   0  0  0  0  0  0  0  0  0  0  0  0
    0.6588   -0.2365    1.3920 C   0  0  0  0  0  0  0  0  0  0  0  0
    0.0158   -0.3397    2.6221 C   0  0  0  0  0  0  0  0  0  0  0  0
   -1.2494    0.2307    2.7633 C   0  0  0  0  0  0  0  0  0  0  0  0
   -1.8514    0.8873    1.6871 C   0  0  0  0  0  0  0  0  0  0  0  0
   -1.6538    1.4868   -0.3763 H   0  0  0  0  0  0  0  0  0  0  0  0
    0.6156    0.4710   -0.6342 H   0  0  0  0  0  0  0  0  0  0  0  0
   12.3621    1.6386   -6.6740 N   0  0  0  0  0  0  0  0  0  0  0  0
   13.4094    1.7118   -7.0196 N   0  0  0  0  0  0  0  0  0  0  0  0
   -2.8376    1.3256    1.8025 H   0  0  0  0  0  0  0  0  0  0  0  0
   -1.7651    0.1590    3.7161 H   0  0  0  0  0  0  0  0  0  0  0  0
    0.5036   -0.8522    3.4430 H   0  0  0  0  0  0  0  0  0  0  0  0
    3.2675   -0.1235    1.6946 S   0  0  0  0  0  0  0  0  0  0  0  0
    4.3114   -1.1102    1.5078 O   0  0  0  0  0  0  0  0  0  0  0  0
    1.8996   -0.8818    1.2041 O   0  0  0  0  0  0  0  0  0  0  0  0
    3.0315    0.5795    2.9345 O   0  0  0  0  0  0  0  0  0  0  0  0
    3.4315    1.0248    0.5502 O   0  0  0  0  0  0  0  0  0  0  0  0
    3.9192    0.6261   -0.1908 H   0  0  0  0  0  0  0  0  0  0  0  0
  1  6  1  0  0  0  0
  2  1  2  0  0  0  0
  2  3  1  0  0  0  0
  3  4  2  0  0  0  0
  4  5  1  0  0  0  0
  4 13  1  0  0  0  0
  5 12  1  0  0  0  0
  6 11  1  0  0  0  0
  6  5  2  0  0  0  0
  7  1  1  0  0  0  0
  8  2  1  0  0  0  0
 10  9  3  0  0  0  0
 14 17  2  0  0  0  0
 15 14  2  0  0  0  0
 16  3  1  0  0  0  0
 16 14  1  0  0  0  0
 18 14  1  0  0  0  0
 19 18  1  0  0  0  0
M  END
