Coordinates from ORCA-job Ph-N2-HSO4-B3LYPG-6-31G_dp-MTMO-d009-169-n800
 OpenBabel09051908053D

 19 18  0  0  0  0  0  0  0  0999 V2000
   -1.2492    0.9718    0.5030 C   0  0  0  0  0  0  0  0  0  0  0  0
    0.0176    0.4066    0.3501 C   0  0  0  0  0  0  0  0  0  0  0  0
    0.5942   -0.2445    1.4364 C   0  0  0  0  0  0  0  0  0  0  0  0
   -0.0499   -0.3450    2.6661 C   0  0  0  0  0  0  0  0  0  0  0  0
   -1.3144    0.2275    2.8054 C   0  0  0  0  0  0  0  0  0  0  0  0
   -1.9146    0.8833    1.7277 C   0  0  0  0  0  0  0  0  0  0  0  0
   -1.7143    1.4794   -0.3364 H   0  0  0  0  0  0  0  0  0  0  0  0
    0.5539    0.4599   -0.5909 H   0  0  0  0  0  0  0  0  0  0  0  0
   12.9046    1.7053   -7.0484 N   0  0  0  0  0  0  0  0  0  0  0  0
   13.9522    1.7808   -7.3924 N   0  0  0  0  0  0  0  0  0  0  0  0
   -2.9002    1.3232    1.8417 H   0  0  0  0  0  0  0  0  0  0  0  0
   -1.8311    0.1579    3.7579 H   0  0  0  0  0  0  0  0  0  0  0  0
    0.4364   -0.8570    3.4883 H   0  0  0  0  0  0  0  0  0  0  0  0
    3.2028   -0.1352    1.7417 S   0  0  0  0  0  0  0  0  0  0  0  0
    4.2454   -1.1236    1.5567 O   0  0  0  0  0  0  0  0  0  0  0  0
    1.8343   -0.8920    1.2505 O   0  0  0  0  0  0  0  0  0  0  0  0
    2.9667    0.5691    2.9809 O   0  0  0  0  0  0  0  0  0  0  0  0
    3.3696    1.0120    0.5965 O   0  0  0  0  0  0  0  0  0  0  0  0
    3.8576    0.6120   -0.1435 H   0  0  0  0  0  0  0  0  0  0  0  0
  1  6  1  0  0  0  0
  2  1  2  0  0  0  0
  2  3  1  0  0  0  0
  3  4  2  0  0  0  0
  4  5  1  0  0  0  0
  4 13  1  0  0  0  0
  5 12  1  0  0  0  0
  6 11  1  0  0  0  0
  6  5  2  0  0  0  0
  7  1  1  0  0  0  0
  8  2  1  0  0  0  0
 10  9  3  0  0  0  0
 14 17  2  0  0  0  0
 15 14  2  0  0  0  0
 16  3  1  0  0  0  0
 16 14  1  0  0  0  0
 18 14  1  0  0  0  0
 19 18  1  0  0  0  0
M  END
