Coordinates from ORCA-job Ph-N2-HSO4-B3LYPG-6-31G_dp-MTMO-d009-169-n800
 OpenBabel09051908053D

 19 18  0  0  0  0  0  0  0  0999 V2000
   -1.1344    0.9844    0.4274 C   0  0  0  0  0  0  0  0  0  0  0  0
    0.1338    0.4235    0.2701 C   0  0  0  0  0  0  0  0  0  0  0  0
    0.7145   -0.2293    1.3532 C   0  0  0  0  0  0  0  0  0  0  0  0
    0.0731   -0.3357    2.5839 C   0  0  0  0  0  0  0  0  0  0  0  0
   -1.1928    0.2325    2.7275 C   0  0  0  0  0  0  0  0  0  0  0  0
   -1.7971    0.8899    1.6531 C   0  0  0  0  0  0  0  0  0  0  0  0
   -1.6027    1.4933   -0.4095 H   0  0  0  0  0  0  0  0  0  0  0  0
    0.6680    0.4815   -0.6717 H   0  0  0  0  0  0  0  0  0  0  0  0
   11.8944    1.5801   -6.3485 N   0  0  0  0  0  0  0  0  0  0  0  0
   12.9412    1.6500   -6.6964 N   0  0  0  0  0  0  0  0  0  0  0  0
   -2.7838    1.3265    1.7704 H   0  0  0  0  0  0  0  0  0  0  0  0
   -1.7074    0.1583    3.6807 H   0  0  0  0  0  0  0  0  0  0  0  0
    0.5627   -0.8488    3.4034 H   0  0  0  0  0  0  0  0  0  0  0  0
    3.3235   -0.1122    1.6524 S   0  0  0  0  0  0  0  0  0  0  0  0
    4.3687   -1.0971    1.4636 O   0  0  0  0  0  0  0  0  0  0  0  0
    1.9563   -0.8723    1.1630 O   0  0  0  0  0  0  0  0  0  0  0  0
    3.0878    0.5893    2.8933 O   0  0  0  0  0  0  0  0  0  0  0  0
    3.4843    1.0374    0.5089 O   0  0  0  0  0  0  0  0  0  0  0  0
    3.9714    0.6401   -0.2332 H   0  0  0  0  0  0  0  0  0  0  0  0
  1  6  1  0  0  0  0
  2  1  2  0  0  0  0
  2  3  1  0  0  0  0
  3  4  2  0  0  0  0
  4  5  1  0  0  0  0
  4 13  1  0  0  0  0
  5 12  1  0  0  0  0
  6 11  1  0  0  0  0
  6  5  2  0  0  0  0
  7  1  1  0  0  0  0
  8  2  1  0  0  0  0
 10  9  3  0  0  0  0
 14 17  2  0  0  0  0
 15 14  2  0  0  0  0
 16  3  1  0  0  0  0
 16 14  1  0  0  0  0
 18 14  1  0  0  0  0
 19 18  1  0  0  0  0
M  END
