Coordinates from ORCA-job Ph-N2-HSO4-B3LYPG-6-31G_dp-MTMO-d009-169-n800
 OpenBabel09051908053D

 19 18  0  0  0  0  0  0  0  0999 V2000
   -0.9575    1.0029    0.3137 C   0  0  0  0  0  0  0  0  0  0  0  0
    0.3139    0.4536    0.1429 C   0  0  0  0  0  0  0  0  0  0  0  0
    0.9078   -0.2031    1.2165 C   0  0  0  0  0  0  0  0  0  0  0  0
    0.2764   -0.3244    2.4509 C   0  0  0  0  0  0  0  0  0  0  0  0
   -0.9930    0.2323    2.6081 C   0  0  0  0  0  0  0  0  0  0  0  0
   -1.6104    0.8934    1.5434 C   0  0  0  0  0  0  0  0  0  0  0  0
   -1.4360    1.5146   -0.5156 H   0  0  0  0  0  0  0  0  0  0  0  0
    0.8408    0.5234   -0.8023 H   0  0  0  0  0  0  0  0  0  0  0  0
   10.2835    1.3787   -5.2045 N   0  0  0  0  0  0  0  0  0  0  0  0
   11.3269    1.4134   -5.5676 N   0  0  0  0  0  0  0  0  0  0  0  0
   -2.5997    1.3209    1.6715 H   0  0  0  0  0  0  0  0  0  0  0  0
   -1.5000    0.1463    3.5644 H   0  0  0  0  0  0  0  0  0  0  0  0
    0.7761   -0.8400    3.2627 H   0  0  0  0  0  0  0  0  0  0  0  0
    3.5180   -0.0656    1.4953 S   0  0  0  0  0  0  0  0  0  0  0  0
    4.5697   -1.0410    1.2939 O   0  0  0  0  0  0  0  0  0  0  0  0
    2.1533   -0.8344    1.0123 O   0  0  0  0  0  0  0  0  0  0  0  0
    3.2859    0.6280    2.7413 O   0  0  0  0  0  0  0  0  0  0  0  0
    3.6610    1.0910    0.3564 O   0  0  0  0  0  0  0  0  0  0  0  0
    4.1450    0.7013   -0.3918 H   0  0  0  0  0  0  0  0  0  0  0  0
  1  6  1  0  0  0  0
  2  1  2  0  0  0  0
  2  3  1  0  0  0  0
  3  4  2  0  0  0  0
  4  5  1  0  0  0  0
  4 13  1  0  0  0  0
  5 12  1  0  0  0  0
  6 11  1  0  0  0  0
  6  5  2  0  0  0  0
  7  1  1  0  0  0  0
  8  2  1  0  0  0  0
 10  9  3  0  0  0  0
 14 17  2  0  0  0  0
 15 14  2  0  0  0  0
 16  3  1  0  0  0  0
 16 14  1  0  0  0  0
 18 14  1  0  0  0  0
 19 18  1  0  0  0  0
M  END
