Coordinates from ORCA-job Ph-N2-HSO4-B3LYPG-6-31G_dp-MTMO-d009-169-n800
 OpenBabel09051908053D

 19 18  0  0  0  0  0  0  0  0999 V2000
   -0.8084    0.5524   -0.7652 C   0  0  0  0  0  0  0  0  0  0  0  0
    0.5147    0.4022   -1.1842 C   0  0  0  0  0  0  0  0  0  0  0  0
    1.4519    0.2733   -0.1705 C   0  0  0  0  0  0  0  0  0  0  0  0
    1.2258    0.2716    1.1912 C   0  0  0  0  0  0  0  0  0  0  0  0
   -0.1158    0.4089    1.5625 C   0  0  0  0  0  0  0  0  0  0  0  0
   -1.1170    0.5544    0.5989 C   0  0  0  0  0  0  0  0  0  0  0  0
   -1.5906    0.6664   -1.5083 H   0  0  0  0  0  0  0  0  0  0  0  0
    0.7926    0.3917   -2.2312 H   0  0  0  0  0  0  0  0  0  0  0  0
    2.9508    0.0513   -0.6873 N   0  0  0  0  0  0  0  0  0  0  0  0
    3.6487   -0.3749   -1.4490 N   0  0  0  0  0  0  0  0  0  0  0  0
   -2.1495    0.6725    0.9124 H   0  0  0  0  0  0  0  0  0  0  0  0
   -0.3677    0.4079    2.6179 H   0  0  0  0  0  0  0  0  0  0  0  0
    2.0340    0.1613    1.9106 H   0  0  0  0  0  0  0  0  0  0  0  0
    4.7412    0.3291    1.6866 S   0  0  0  0  0  0  0  0  0  0  0  0
    5.5256   -0.5899    0.8456 O   0  0  0  0  0  0  0  0  0  0  0  0
    3.9041    1.2764    0.8366 O   0  0  0  0  0  0  0  0  0  0  0  0
    3.9570   -0.2454    2.7880 O   0  0  0  0  0  0  0  0  0  0  0  0
    5.8173    1.3269    2.4318 O   0  0  0  0  0  0  0  0  0  0  0  0
    6.5469    1.4552    1.8049 H   0  0  0  0  0  0  0  0  0  0  0  0
  1  6  1  0  0  0  0
  2  1  2  0  0  0  0
  2  3  1  0  0  0  0
  3  4  2  0  0  0  0
  4  5  1  0  0  0  0
  4 13  1  0  0  0  0
  5 12  1  0  0  0  0
  6 11  1  0  0  0  0
  6  5  2  0  0  0  0
  7  1  1  0  0  0  0
  8  2  1  0  0  0  0
  9  3  1  0  0  0  0
 10  9  2  0  0  0  0
 14 18  1  0  0  0  0
 14 17  1  0  0  0  0
 15 14  2  0  0  0  0
 16 14  2  0  0  0  0
 19 18  1  0  0  0  0
M  RAD  2  10   2  17   2
M  END
