Coordinates from ORCA-job Ph-N2-HSO4-B3LYPG-6-31G_dp-MTMO-d009-169-n800
 OpenBabel09051908053D

 19 18  0  0  0  0  0  0  0  0999 V2000
   -0.2821    1.0320   -0.1122 C   0  0  0  0  0  0  0  0  0  0  0  0
    1.0564    0.6582   -0.2378 C   0  0  0  0  0  0  0  0  0  0  0  0
    1.6625   -0.0281    0.8107 C   0  0  0  0  0  0  0  0  0  0  0  0
    0.9742   -0.3490    1.9777 C   0  0  0  0  0  0  0  0  0  0  0  0
   -0.3620    0.0354    2.0918 C   0  0  0  0  0  0  0  0  0  0  0  0
   -0.9908    0.7233    1.0509 C   0  0  0  0  0  0  0  0  0  0  0  0
   -0.7686    1.5645   -0.9239 H   0  0  0  0  0  0  0  0  0  0  0  0
    1.6271    0.8847   -1.1316 H   0  0  0  0  0  0  0  0  0  0  0  0
    5.0021    0.3911   -2.1527 N   0  0  0  0  0  0  0  0  0  0  0  0
    5.2343   -0.2977   -2.9836 N   0  0  0  0  0  0  0  0  0  0  0  0
   -2.0311    1.0181    1.1462 H   0  0  0  0  0  0  0  0  0  0  0  0
   -0.9120   -0.2064    2.9961 H   0  0  0  0  0  0  0  0  0  0  0  0
    1.4832   -0.8801    2.7734 H   0  0  0  0  0  0  0  0  0  0  0  0
    4.2063    0.3568    1.3635 S   0  0  0  0  0  0  0  0  0  0  0  0
    5.3881   -0.4221    1.0540 O   0  0  0  0  0  0  0  0  0  0  0  0
    2.9876   -0.4748    0.6370 O   0  0  0  0  0  0  0  0  0  0  0  0
    3.8267    0.7408    2.7037 O   0  0  0  0  0  0  0  0  0  0  0  0
    4.2209    1.7239    0.4931 O   0  0  0  0  0  0  0  0  0  0  0  0
    4.6387    1.5210   -0.3648 H   0  0  0  0  0  0  0  0  0  0  0  0
  1  6  1  0  0  0  0
  2  1  2  0  0  0  0
  2  3  1  0  0  0  0
  3  4  2  0  0  0  0
  4  5  1  0  0  0  0
  4 13  1  0  0  0  0
  5 12  1  0  0  0  0
  6 11  1  0  0  0  0
  6  5  2  0  0  0  0
  7  1  1  0  0  0  0
  8  2  1  0  0  0  0
 10  9  3  0  0  0  0
 14 17  2  0  0  0  0
 15 14  2  0  0  0  0
 16  3  1  0  0  0  0
 16 14  1  0  0  0  0
 18 14  1  0  0  0  0
 19 18  1  0  0  0  0
M  END
