Coordinates from ORCA-job Ph-N2-HSO4-B3LYPG-6-31G_dp-MTMO-d009-169-n800
 OpenBabel09051908053D

 19 17  0  0  0  0  0  0  0  0999 V2000
   -1.0015    0.7720   -0.4781 C   0  0  0  0  0  0  0  0  0  0  0  0
    0.1987    0.5268   -1.1900 C   0  0  0  0  0  0  0  0  0  0  0  0
    1.1543    0.2664   -0.2537 C   0  0  0  0  0  0  0  0  0  0  0  0
    1.2590    0.1906    1.0019 C   0  0  0  0  0  0  0  0  0  0  0  0
    0.0633    0.4325    1.7165 C   0  0  0  0  0  0  0  0  0  0  0  0
   -1.0618    0.7251    0.9260 C   0  0  0  0  0  0  0  0  0  0  0  0
   -1.8963    1.0009   -1.0508 H   0  0  0  0  0  0  0  0  0  0  0  0
    0.2895    0.5507   -2.2674 H   0  0  0  0  0  0  0  0  0  0  0  0
    3.1850   -0.5409   -2.3130 N   0  0  0  0  0  0  0  0  0  0  0  0
    4.1037   -1.0772   -2.6110 N   0  0  0  0  0  0  0  0  0  0  0  0
   -2.0119    0.9232    1.4149 H   0  0  0  0  0  0  0  0  0  0  0  0
    0.0014    0.4003    2.8002 H   0  0  0  0  0  0  0  0  0  0  0  0
    2.8809   -0.1500    1.8387 H   0  0  0  0  0  0  0  0  0  0  0  0
    4.9802    0.3337    1.6543 S   0  0  0  0  0  0  0  0  0  0  0  0
    6.1529   -0.2442    2.2806 O   0  0  0  0  0  0  0  0  0  0  0  0
    4.7731    0.3587    0.2201 O   0  0  0  0  0  0  0  0  0  0  0  0
    3.7120   -0.3277    2.3748 O   0  0  0  0  0  0  0  0  0  0  0  0
    4.8729    1.8920    2.1302 O   0  0  0  0  0  0  0  0  0  0  0  0
    5.3064    1.9584    2.9975 H   0  0  0  0  0  0  0  0  0  0  0  0
  1  6  1  0  0  0  0
  2  1  2  0  0  0  0
  2  3  1  0  0  0  0
  3  4  2  0  0  0  0
  4  5  1  0  0  0  0
  5 12  1  0  0  0  0
  6 11  1  0  0  0  0
  6  5  2  0  0  0  0
  7  1  1  0  0  0  0
  8  2  1  0  0  0  0
 10  9  3  0  0  0  0
 13 17  1  0  0  0  0
 14 18  1  0  0  0  0
 14 15  2  0  0  0  0
 14 17  1  0  0  0  0
 16 14  2  0  0  0  0
 18 19  1  0  0  0  0
M  RAD  2   3   2   4   2
M  END
