Coordinates from ORCA-job Ph-N2-HSO4-B3LYPG-6-31G_dp-MTMO-d009-169-n800
 OpenBabel09051908053D

 19 18  0  0  0  0  0  0  0  0999 V2000
   -0.8498    1.0129    0.2452 C   0  0  0  0  0  0  0  0  0  0  0  0
    0.4230    0.4703    0.0628 C   0  0  0  0  0  0  0  0  0  0  0  0
    1.0284   -0.1867    1.1298 C   0  0  0  0  0  0  0  0  0  0  0  0
    0.4071   -0.3149    2.3686 C   0  0  0  0  0  0  0  0  0  0  0  0
   -0.8637    0.2351    2.5374 C   0  0  0  0  0  0  0  0  0  0  0  0
   -1.4925    0.8963    1.4795 C   0  0  0  0  0  0  0  0  0  0  0  0
   -1.3372    1.5247   -0.5789 H   0  0  0  0  0  0  0  0  0  0  0  0
    0.9422    0.5456   -0.8862 H   0  0  0  0  0  0  0  0  0  0  0  0
    9.2762    1.2420   -4.4707 N   0  0  0  0  0  0  0  0  0  0  0  0
   10.3149    1.2769   -4.8469 N   0  0  0  0  0  0  0  0  0  0  0  0
   -2.4829    1.3187    1.6166 H   0  0  0  0  0  0  0  0  0  0  0  0
   -1.3629    0.1438    3.4973 H   0  0  0  0  0  0  0  0  0  0  0  0
    0.9156   -0.8305    3.1749 H   0  0  0  0  0  0  0  0  0  0  0  0
    3.6401   -0.0366    1.3878 S   0  0  0  0  0  0  0  0  0  0  0  0
    4.6948   -1.0069    1.1773 O   0  0  0  0  0  0  0  0  0  0  0  0
    2.2753   -0.8113    0.9142 O   0  0  0  0  0  0  0  0  0  0  0  0
    3.4140    0.6543    2.6364 O   0  0  0  0  0  0  0  0  0  0  0  0
    3.7692    1.1220    0.2494 O   0  0  0  0  0  0  0  0  0  0  0  0
    4.2498    0.7358   -0.5028 H   0  0  0  0  0  0  0  0  0  0  0  0
  1  6  1  0  0  0  0
  2  1  2  0  0  0  0
  2  3  1  0  0  0  0
  3  4  2  0  0  0  0
  4  5  1  0  0  0  0
  4 13  1  0  0  0  0
  5 12  1  0  0  0  0
  6 11  1  0  0  0  0
  6  5  2  0  0  0  0
  7  1  1  0  0  0  0
  8  2  1  0  0  0  0
 10  9  3  0  0  0  0
 14 17  2  0  0  0  0
 15 14  2  0  0  0  0
 16  3  1  0  0  0  0
 16 14  1  0  0  0  0
 18 14  1  0  0  0  0
 19 18  1  0  0  0  0
M  END
