Coordinates from ORCA-job Ph-N2-HSO4-B3LYPG-6-31G_dp-MTMO-d009-169-n800
 OpenBabel09051908053D

 19 18  0  0  0  0  0  0  0  0999 V2000
   -0.8052    1.0165    0.2171 C   0  0  0  0  0  0  0  0  0  0  0  0
    0.4676    0.4763    0.0286 C   0  0  0  0  0  0  0  0  0  0  0  0
    1.0793   -0.1798    1.0925 C   0  0  0  0  0  0  0  0  0  0  0  0
    0.4641   -0.3096    2.3342 C   0  0  0  0  0  0  0  0  0  0  0  0
   -0.8070    0.2379    2.5091 C   0  0  0  0  0  0  0  0  0  0  0  0
   -1.4420    0.8983    1.4544 C   0  0  0  0  0  0  0  0  0  0  0  0
   -1.2975    1.5277   -0.6045 H   0  0  0  0  0  0  0  0  0  0  0  0
    0.9823    0.5530   -0.9228 H   0  0  0  0  0  0  0  0  0  0  0  0
    8.8489    1.1814   -4.1491 N   0  0  0  0  0  0  0  0  0  0  0  0
    9.8842    1.2234   -4.5338 N   0  0  0  0  0  0  0  0  0  0  0  0
   -2.4325    1.3187    1.5963 H   0  0  0  0  0  0  0  0  0  0  0  0
   -1.3015    0.1453    3.4713 H   0  0  0  0  0  0  0  0  0  0  0  0
    0.9774   -0.8245    3.1379 H   0  0  0  0  0  0  0  0  0  0  0  0
    3.6919   -0.0247    1.3377 S   0  0  0  0  0  0  0  0  0  0  0  0
    4.7473   -0.9935    1.1238 O   0  0  0  0  0  0  0  0  0  0  0  0
    2.3264   -0.8021    0.8709 O   0  0  0  0  0  0  0  0  0  0  0  0
    3.4702    0.6673    2.5865 O   0  0  0  0  0  0  0  0  0  0  0  0
    3.8145    1.1329    0.1975 O   0  0  0  0  0  0  0  0  0  0  0  0
    4.2935    0.7470   -0.5559 H   0  0  0  0  0  0  0  0  0  0  0  0
  1  6  1  0  0  0  0
  2  1  2  0  0  0  0
  2  3  1  0  0  0  0
  3  4  2  0  0  0  0
  4  5  1  0  0  0  0
  4 13  1  0  0  0  0
  5 12  1  0  0  0  0
  6 11  1  0  0  0  0
  6  5  2  0  0  0  0
  7  1  1  0  0  0  0
  8  2  1  0  0  0  0
 10  9  3  0  0  0  0
 14 17  2  0  0  0  0
 15 14  2  0  0  0  0
 16  3  1  0  0  0  0
 16 14  1  0  0  0  0
 18 14  1  0  0  0  0
 19 18  1  0  0  0  0
M  END
