Coordinates from ORCA-job Ph-N2-HSO4-B3LYPG-6-31G_dp-MTMO-d009-169-n800
 OpenBabel09051908053D

 19 18  0  0  0  0  0  0  0  0999 V2000
   -0.3832    1.0171   -0.0514 C   0  0  0  0  0  0  0  0  0  0  0  0
    0.9417    0.6109   -0.2143 C   0  0  0  0  0  0  0  0  0  0  0  0
    1.5723   -0.0551    0.8328 C   0  0  0  0  0  0  0  0  0  0  0  0
    0.9225   -0.3241    2.0342 C   0  0  0  0  0  0  0  0  0  0  0  0
   -0.4004    0.0922    2.1851 C   0  0  0  0  0  0  0  0  0  0  0  0
   -1.0538    0.7599    1.1463 C   0  0  0  0  0  0  0  0  0  0  0  0
   -0.8891    1.5339   -0.8613 H   0  0  0  0  0  0  0  0  0  0  0  0
    1.4840    0.7974   -1.1347 H   0  0  0  0  0  0  0  0  0  0  0  0
    5.4552    0.5014   -2.2111 N   0  0  0  0  0  0  0  0  0  0  0  0
    5.9339   -0.0889   -3.0118 N   0  0  0  0  0  0  0  0  0  0  0  0
   -2.0839    1.0790    1.2702 H   0  0  0  0  0  0  0  0  0  0  0  0
   -0.9209   -0.1091    3.1164 H   0  0  0  0  0  0  0  0  0  0  0  0
    1.4504   -0.8406    2.8272 H   0  0  0  0  0  0  0  0  0  0  0  0
    4.1426    0.2988    1.2620 S   0  0  0  0  0  0  0  0  0  0  0  0
    5.2980   -0.5163    0.9435 O   0  0  0  0  0  0  0  0  0  0  0  0
    2.8803   -0.5371    0.6242 O   0  0  0  0  0  0  0  0  0  0  0  0
    3.8210    0.7475    2.5975 O   0  0  0  0  0  0  0  0  0  0  0  0
    4.1570    1.6238    0.3293 O   0  0  0  0  0  0  0  0  0  0  0  0
    4.6345    1.4009   -0.4924 H   0  0  0  0  0  0  0  0  0  0  0  0
  1  6  1  0  0  0  0
  2  1  2  0  0  0  0
  2  3  1  0  0  0  0
  3  4  2  0  0  0  0
  4  5  1  0  0  0  0
  4 13  1  0  0  0  0
  5 12  1  0  0  0  0
  6 11  1  0  0  0  0
  6  5  2  0  0  0  0
  7  1  1  0  0  0  0
  8  2  1  0  0  0  0
 10  9  3  0  0  0  0
 14 17  2  0  0  0  0
 15 14  2  0  0  0  0
 16  3  1  0  0  0  0
 16 14  1  0  0  0  0
 18 14  1  0  0  0  0
 19 18  1  0  0  0  0
M  END
