Coordinates from ORCA-job Ph-N2-HSO4-B3LYPG-6-31G_dp-MTMO-d009-169-n800
 OpenBabel09051908053D

 19 18  0  0  0  0  0  0  0  0999 V2000
   -0.5217    1.0053    0.0368 C   0  0  0  0  0  0  0  0  0  0  0  0
    0.7834    0.5668   -0.1900 C   0  0  0  0  0  0  0  0  0  0  0  0
    1.4607   -0.0804    0.8395 C   0  0  0  0  0  0  0  0  0  0  0  0
    0.8781   -0.2989    2.0846 C   0  0  0  0  0  0  0  0  0  0  0  0
   -0.4257    0.1490    2.2986 C   0  0  0  0  0  0  0  0  0  0  0  0
   -1.1259    0.7982    1.2788 C   0  0  0  0  0  0  0  0  0  0  0  0
   -1.0643    1.5076   -0.7582 H   0  0  0  0  0  0  0  0  0  0  0  0
    1.2752    0.7145   -1.1450 H   0  0  0  0  0  0  0  0  0  0  0  0
    6.0136    0.5987   -2.1809 N   0  0  0  0  0  0  0  0  0  0  0  0
    6.7847    0.1453   -2.8279 N   0  0  0  0  0  0  0  0  0  0  0  0
   -2.1411    1.1412    1.4519 H   0  0  0  0  0  0  0  0  0  0  0  0
   -0.8945   -0.0131    3.2644 H   0  0  0  0  0  0  0  0  0  0  0  0
    1.4414   -0.8024    2.8614 H   0  0  0  0  0  0  0  0  0  0  0  0
    4.0602    0.2391    1.0825 S   0  0  0  0  0  0  0  0  0  0  0  0
    5.1805   -0.6230    0.7606 O   0  0  0  0  0  0  0  0  0  0  0  0
    2.7451   -0.5977    0.5704 O   0  0  0  0  0  0  0  0  0  0  0  0
    3.8176    0.7786    2.4015 O   0  0  0  0  0  0  0  0  0  0  0  0
    4.0647    1.4988    0.0614 O   0  0  0  0  0  0  0  0  0  0  0  0
    4.6298    1.2636   -0.6989 H   0  0  0  0  0  0  0  0  0  0  0  0
  1  6  1  0  0  0  0
  2  1  2  0  0  0  0
  2  3  1  0  0  0  0
  3  4  2  0  0  0  0
  4  5  1  0  0  0  0
  4 13  1  0  0  0  0
  5 12  1  0  0  0  0
  6 11  1  0  0  0  0
  6  5  2  0  0  0  0
  7  1  1  0  0  0  0
  8  2  1  0  0  0  0
 10  9  3  0  0  0  0
 14 17  2  0  0  0  0
 15 14  2  0  0  0  0
 16  3  1  0  0  0  0
 16 14  1  0  0  0  0
 18 14  1  0  0  0  0
 19 18  1  0  0  0  0
M  END
