Coordinates from ORCA-job Ph-N2-HSO4-B3LYPG-6-31G_dp-MTMO-d009-169-n800
 OpenBabel09051908053D

 19 18  0  0  0  0  0  0  0  0999 V2000
   -0.3249    1.0278   -0.0872 C   0  0  0  0  0  0  0  0  0  0  0  0
    1.0085    0.6424   -0.2307 C   0  0  0  0  0  0  0  0  0  0  0  0
    1.6268   -0.0366    0.8154 C   0  0  0  0  0  0  0  0  0  0  0  0
    0.9560   -0.3388    1.9973 C   0  0  0  0  0  0  0  0  0  0  0  0
   -0.3752    0.0571    2.1292 C   0  0  0  0  0  0  0  0  0  0  0  0
   -1.0162    0.7377    1.0910 C   0  0  0  0  0  0  0  0  0  0  0  0
   -0.8210    1.5546   -0.8968 H   0  0  0  0  0  0  0  0  0  0  0  0
    1.5662    0.8544   -1.1362 H   0  0  0  0  0  0  0  0  0  0  0  0
    5.1774    0.4291   -2.1739 N   0  0  0  0  0  0  0  0  0  0  0  0
    5.5341   -0.2341   -2.9812 N   0  0  0  0  0  0  0  0  0  0  0  0
   -2.0527    1.0413    1.2002 H   0  0  0  0  0  0  0  0  0  0  0  0
   -0.9118   -0.1700    3.0454 H   0  0  0  0  0  0  0  0  0  0  0  0
    1.4742   -0.8646    2.7905 H   0  0  0  0  0  0  0  0  0  0  0  0
    4.1820    0.3340    1.3210 S   0  0  0  0  0  0  0  0  0  0  0  0
    5.3532   -0.4565    0.9999 O   0  0  0  0  0  0  0  0  0  0  0  0
    2.9454   -0.4955    0.6241 O   0  0  0  0  0  0  0  0  0  0  0  0
    3.8275    0.7334    2.6636 O   0  0  0  0  0  0  0  0  0  0  0  0
    4.1940    1.6918    0.4368 O   0  0  0  0  0  0  0  0  0  0  0  0
    4.6182    1.4838   -0.4169 H   0  0  0  0  0  0  0  0  0  0  0  0
  1  6  1  0  0  0  0
  2  1  2  0  0  0  0
  2  3  1  0  0  0  0
  3  4  2  0  0  0  0
  4  5  1  0  0  0  0
  4 13  1  0  0  0  0
  5 12  1  0  0  0  0
  6 11  1  0  0  0  0
  6  5  2  0  0  0  0
  7  1  1  0  0  0  0
  8  2  1  0  0  0  0
 10  9  3  0  0  0  0
 14 17  2  0  0  0  0
 15 14  2  0  0  0  0
 16  3  1  0  0  0  0
 16 14  1  0  0  0  0
 18 14  1  0  0  0  0
 19 18  1  0  0  0  0
M  END
