Coordinates from ORCA-job Ph-N2-HSO4-B3LYPG-6-31G_dp-MTMO-d009-169-n800
 OpenBabel09051908053D

 19 18  0  0  0  0  0  0  0  0999 V2000
   -0.6796    1.0283    0.1664 C   0  0  0  0  0  0  0  0  0  0  0  0
    0.5870    0.5059   -0.0988 C   0  0  0  0  0  0  0  0  0  0  0  0
    1.2693   -0.1423    0.9263 C   0  0  0  0  0  0  0  0  0  0  0  0
    0.7318   -0.2811    2.2021 C   0  0  0  0  0  0  0  0  0  0  0  0
   -0.5346    0.2473    2.4531 C   0  0  0  0  0  0  0  0  0  0  0  0
   -1.2403    0.8996    1.4390 C   0  0  0  0  0  0  0  0  0  0  0  0
   -1.2270    1.5338   -0.6232 H   0  0  0  0  0  0  0  0  0  0  0  0
    1.0447    0.5917   -1.0780 H   0  0  0  0  0  0  0  0  0  0  0  0
    7.1383    0.9002   -2.5242 N   0  0  0  0  0  0  0  0  0  0  0  0
    8.1600    0.9842   -2.9362 N   0  0  0  0  0  0  0  0  0  0  0  0
   -2.2265    1.3057    1.6405 H   0  0  0  0  0  0  0  0  0  0  0  0
   -0.9696    0.1468    3.4428 H   0  0  0  0  0  0  0  0  0  0  0  0
    1.2996   -0.7899    2.9725 H   0  0  0  0  0  0  0  0  0  0  0  0
    3.8934    0.0716    0.9508 S   0  0  0  0  0  0  0  0  0  0  0  0
    4.9458   -0.9151    0.8117 O   0  0  0  0  0  0  0  0  0  0  0  0
    2.5106   -0.7487    0.6335 O   0  0  0  0  0  0  0  0  0  0  0  0
    3.7148    0.9008    2.1211 O   0  0  0  0  0  0  0  0  0  0  0  0
    3.9760    1.0808   -0.3261 O   0  0  0  0  0  0  0  0  0  0  0  0
    4.5682    0.6719   -0.9818 H   0  0  0  0  0  0  0  0  0  0  0  0
  1  6  1  0  0  0  0
  2  1  2  0  0  0  0
  2  3  1  0  0  0  0
  3  4  2  0  0  0  0
  4  5  1  0  0  0  0
  4 13  1  0  0  0  0
  5 12  1  0  0  0  0
  6 11  1  0  0  0  0
  6  5  2  0  0  0  0
  7  1  1  0  0  0  0
  8  2  1  0  0  0  0
 10  9  3  0  0  0  0
 14 17  2  0  0  0  0
 15 14  2  0  0  0  0
 16  3  1  0  0  0  0
 16 14  1  0  0  0  0
 18 14  1  0  0  0  0
 19 18  1  0  0  0  0
M  END
