Coordinates from ORCA-job Ph-N2-HSO4-B3LYPG-6-31G_dp-MTMO-d009-169-n800
 OpenBabel09051908053D

 19 18  0  0  0  0  0  0  0  0999 V2000
   -1.3154    0.9645    0.5474 C   0  0  0  0  0  0  0  0  0  0  0  0
   -0.0491    0.3979    0.3957 C   0  0  0  0  0  0  0  0  0  0  0  0
    0.5263   -0.2528    1.4829 C   0  0  0  0  0  0  0  0  0  0  0  0
   -0.1187   -0.3514    2.7124 C   0  0  0  0  0  0  0  0  0  0  0  0
   -1.3826    0.2226    2.8505 C   0  0  0  0  0  0  0  0  0  0  0  0
   -1.9815    0.8780    1.7718 C   0  0  0  0  0  0  0  0  0  0  0  0
   -1.7796    1.4718   -0.2928 H   0  0  0  0  0  0  0  0  0  0  0  0
    0.4877    0.4497   -0.5451 H   0  0  0  0  0  0  0  0  0  0  0  0
   13.4779    1.7742   -7.4414 N   0  0  0  0  0  0  0  0  0  0  0  0
   14.5258    1.8512   -7.7844 N   0  0  0  0  0  0  0  0  0  0  0  0
   -2.9668    1.3189    1.8848 H   0  0  0  0  0  0  0  0  0  0  0  0
   -1.8998    0.1545    3.8027 H   0  0  0  0  0  0  0  0  0  0  0  0
    0.3667   -0.8630    3.5353 H   0  0  0  0  0  0  0  0  0  0  0  0
    3.1347   -0.1461    1.7899 S   0  0  0  0  0  0  0  0  0  0  0  0
    4.1765   -1.1357    1.6060 O   0  0  0  0  0  0  0  0  0  0  0  0
    1.7658   -0.9017    1.2983 O   0  0  0  0  0  0  0  0  0  0  0  0
    2.8987    0.5591    3.0286 O   0  0  0  0  0  0  0  0  0  0  0  0
    3.3034    1.0003    0.6442 O   0  0  0  0  0  0  0  0  0  0  0  0
    3.7916    0.5994   -0.0953 H   0  0  0  0  0  0  0  0  0  0  0  0
  1  6  1  0  0  0  0
  2  1  2  0  0  0  0
  2  3  1  0  0  0  0
  3  4  2  0  0  0  0
  4  5  1  0  0  0  0
  4 13  1  0  0  0  0
  5 12  1  0  0  0  0
  6 11  1  0  0  0  0
  6  5  2  0  0  0  0
  7  1  1  0  0  0  0
  8  2  1  0  0  0  0
 10  9  3  0  0  0  0
 14 17  2  0  0  0  0
 15 14  2  0  0  0  0
 16  3  1  0  0  0  0
 16 14  1  0  0  0  0
 18 14  1  0  0  0  0
 19 18  1  0  0  0  0
M  END
