Coordinates from ORCA-job Ph-N2-HSO4-B3LYPG-6-31G_dp-MTMO-d009-169-n800
 OpenBabel09051908053D

 19 18  0  0  0  0  0  0  0  0999 V2000
   -1.1459    0.9832    0.4349 C   0  0  0  0  0  0  0  0  0  0  0  0
    0.1222    0.4217    0.2782 C   0  0  0  0  0  0  0  0  0  0  0  0
    0.7023   -0.2309    1.3617 C   0  0  0  0  0  0  0  0  0  0  0  0
    0.0605   -0.3365    2.5923 C   0  0  0  0  0  0  0  0  0  0  0  0
   -1.2052    0.2322    2.7353 C   0  0  0  0  0  0  0  0  0  0  0  0
   -1.8089    0.8894    1.6604 C   0  0  0  0  0  0  0  0  0  0  0  0
   -1.6138    1.4919   -0.4023 H   0  0  0  0  0  0  0  0  0  0  0  0
    0.6567    0.4791   -0.6635 H   0  0  0  0  0  0  0  0  0  0  0  0
   11.9966    1.5929   -6.4199 N   0  0  0  0  0  0  0  0  0  0  0  0
   13.0435    1.6637   -6.7672 N   0  0  0  0  0  0  0  0  0  0  0  0
   -2.7955    1.3264    1.7773 H   0  0  0  0  0  0  0  0  0  0  0  0
   -1.7201    0.1586    3.6884 H   0  0  0  0  0  0  0  0  0  0  0  0
    0.5497   -0.8495    3.4121 H   0  0  0  0  0  0  0  0  0  0  0  0
    3.3112   -0.1148    1.6618 S   0  0  0  0  0  0  0  0  0  0  0  0
    4.3561   -1.1001    1.4734 O   0  0  0  0  0  0  0  0  0  0  0  0
    1.9439   -0.8745    1.1721 O   0  0  0  0  0  0  0  0  0  0  0  0
    3.0755    0.5871    2.9024 O   0  0  0  0  0  0  0  0  0  0  0  0
    3.4728    1.0345    0.5180 O   0  0  0  0  0  0  0  0  0  0  0  0
    3.9601    0.6369   -0.2238 H   0  0  0  0  0  0  0  0  0  0  0  0
  1  6  1  0  0  0  0
  2  1  2  0  0  0  0
  2  3  1  0  0  0  0
  3  4  2  0  0  0  0
  4  5  1  0  0  0  0
  4 13  1  0  0  0  0
  5 12  1  0  0  0  0
  6 11  1  0  0  0  0
  6  5  2  0  0  0  0
  7  1  1  0  0  0  0
  8  2  1  0  0  0  0
 10  9  3  0  0  0  0
 14 17  2  0  0  0  0
 15 14  2  0  0  0  0
 16  3  1  0  0  0  0
 16 14  1  0  0  0  0
 18 14  1  0  0  0  0
 19 18  1  0  0  0  0
M  END
