Coordinates from ORCA-job Ph-N2-HSO4-B3LYPG-6-31G_dp-MTMO-d009-169-n800
 OpenBabel09051908053D

 19 18  0  0  0  0  0  0  0  0999 V2000
   -0.9966    0.9990    0.3387 C   0  0  0  0  0  0  0  0  0  0  0  0
    0.2741    0.4467    0.1715 C   0  0  0  0  0  0  0  0  0  0  0  0
    0.8644   -0.2091    1.2476 C   0  0  0  0  0  0  0  0  0  0  0  0
    0.2301   -0.3268    2.4809 C   0  0  0  0  0  0  0  0  0  0  0  0
   -1.0385    0.2328    2.6344 C   0  0  0  0  0  0  0  0  0  0  0  0
   -1.6523    0.8931    1.5672 C   0  0  0  0  0  0  0  0  0  0  0  0
   -1.4724    1.5101   -0.4926 H   0  0  0  0  0  0  0  0  0  0  0  0
    0.8030    0.5137   -0.7728 H   0  0  0  0  0  0  0  0  0  0  0  0
   10.6449    1.4244   -5.4641 N   0  0  0  0  0  0  0  0  0  0  0  0
   11.6894    1.4682   -5.8228 N   0  0  0  0  0  0  0  0  0  0  0  0
   -2.6410    1.3229    1.6923 H   0  0  0  0  0  0  0  0  0  0  0  0
   -1.5476    0.1497    3.5898 H   0  0  0  0  0  0  0  0  0  0  0  0
    0.7270   -0.8419    3.2947 H   0  0  0  0  0  0  0  0  0  0  0  0
    3.4742   -0.0767    1.5320 S   0  0  0  0  0  0  0  0  0  0  0  0
    4.5244   -1.0546    1.3340 O   0  0  0  0  0  0  0  0  0  0  0  0
    2.1090   -0.8434    1.0472 O   0  0  0  0  0  0  0  0  0  0  0  0
    3.2410    0.6190    2.7766 O   0  0  0  0  0  0  0  0  0  0  0  0
    3.6219    1.0780    0.3918 O   0  0  0  0  0  0  0  0  0  0  0  0
    4.1068    0.6863   -0.3547 H   0  0  0  0  0  0  0  0  0  0  0  0
  1  6  1  0  0  0  0
  2  1  2  0  0  0  0
  2  3  1  0  0  0  0
  3  4  2  0  0  0  0
  4  5  1  0  0  0  0
  4 13  1  0  0  0  0
  5 12  1  0  0  0  0
  6 11  1  0  0  0  0
  6  5  2  0  0  0  0
  7  1  1  0  0  0  0
  8  2  1  0  0  0  0
 10  9  3  0  0  0  0
 14 17  2  0  0  0  0
 15 14  2  0  0  0  0
 16  3  1  0  0  0  0
 16 14  1  0  0  0  0
 18 14  1  0  0  0  0
 19 18  1  0  0  0  0
M  END
