Coordinates from ORCA-job Ph-N2-HSO4-B3LYPG-6-31G_dp-MTMO-d009-169-n800
 OpenBabel09051908053D

 19 18  0  0  0  0  0  0  0  0999 V2000
   -0.2313    1.0360   -0.1466 C   0  0  0  0  0  0  0  0  0  0  0  0
    1.1132    0.6783   -0.2546 C   0  0  0  0  0  0  0  0  0  0  0  0
    1.7098   -0.0147    0.7950 C   0  0  0  0  0  0  0  0  0  0  0  0
    1.0054   -0.3577    1.9461 C   0  0  0  0  0  0  0  0  0  0  0  0
   -0.3366    0.0108    2.0429 C   0  0  0  0  0  0  0  0  0  0  0  0
   -0.9557    0.7052    1.0005 C   0  0  0  0  0  0  0  0  0  0  0  0
   -0.7101    1.5734   -0.9597 H   0  0  0  0  0  0  0  0  0  0  0  0
    1.6949    0.9220   -1.1367 H   0  0  0  0  0  0  0  0  0  0  0  0
    4.7670    0.3472   -2.0975 N   0  0  0  0  0  0  0  0  0  0  0  0
    4.8513   -0.3868   -2.9181 N   0  0  0  0  0  0  0  0  0  0  0  0
   -2.0006    0.9879    1.0823 H   0  0  0  0  0  0  0  0  0  0  0  0
   -0.8986   -0.2485    2.9349 H   0  0  0  0  0  0  0  0  0  0  0  0
    1.5067   -0.8938    2.7434 H   0  0  0  0  0  0  0  0  0  0  0  0
    4.2402    0.3804    1.4070 S   0  0  0  0  0  0  0  0  0  0  0  0
    5.4333   -0.3817    1.1006 O   0  0  0  0  0  0  0  0  0  0  0  0
    3.0421   -0.4449    0.6380 O   0  0  0  0  0  0  0  0  0  0  0  0
    3.8348    0.7303    2.7489 O   0  0  0  0  0  0  0  0  0  0  0  0
    4.2543    1.7684    0.5700 O   0  0  0  0  0  0  0  0  0  0  0  0
    4.6417    1.5797   -0.3048 H   0  0  0  0  0  0  0  0  0  0  0  0
  1  6  1  0  0  0  0
  2  1  2  0  0  0  0
  2  3  1  0  0  0  0
  3  4  2  0  0  0  0
  4  5  1  0  0  0  0
  4 13  1  0  0  0  0
  5 12  1  0  0  0  0
  6 11  1  0  0  0  0
  6  5  2  0  0  0  0
  7  1  1  0  0  0  0
  8  2  1  0  0  0  0
 10  9  3  0  0  0  0
 14 17  2  0  0  0  0
 15 14  2  0  0  0  0
 16  3  1  0  0  0  0
 16 14  1  0  0  0  0
 18 14  1  0  0  0  0
 19 18  1  0  0  0  0
M  END
