Coordinates from ORCA-job Ph-N2-HSO4-B3LYPG-6-31G_dp-MTMO-d009-169-n800
 OpenBabel09051908053D

 19 18  0  0  0  0  0  0  0  0999 V2000
   -1.3513    0.9606    0.5716 C   0  0  0  0  0  0  0  0  0  0  0  0
   -0.0852    0.3934    0.4203 C   0  0  0  0  0  0  0  0  0  0  0  0
    0.4897   -0.2571    1.5079 C   0  0  0  0  0  0  0  0  0  0  0  0
   -0.1555   -0.3551    2.7373 C   0  0  0  0  0  0  0  0  0  0  0  0
   -1.4192    0.2194    2.8749 C   0  0  0  0  0  0  0  0  0  0  0  0
   -2.0177    0.8747    1.7960 C   0  0  0  0  0  0  0  0  0  0  0  0
   -1.8152    1.4678   -0.2688 H   0  0  0  0  0  0  0  0  0  0  0  0
    0.4517    0.4447   -0.5204 H   0  0  0  0  0  0  0  0  0  0  0  0
   13.7872    1.8108   -7.6525 N   0  0  0  0  0  0  0  0  0  0  0  0
   14.8351    1.8884   -7.9953 N   0  0  0  0  0  0  0  0  0  0  0  0
   -3.0028    1.3161    1.9086 H   0  0  0  0  0  0  0  0  0  0  0  0
   -1.9366    0.1518    3.8271 H   0  0  0  0  0  0  0  0  0  0  0  0
    0.3296   -0.8667    3.5604 H   0  0  0  0  0  0  0  0  0  0  0  0
    3.0981   -0.1515    1.8153 S   0  0  0  0  0  0  0  0  0  0  0  0
    4.1395   -1.1415    1.6318 O   0  0  0  0  0  0  0  0  0  0  0  0
    1.7290   -0.9066    1.3236 O   0  0  0  0  0  0  0  0  0  0  0  0
    2.8621    0.5540    3.0539 O   0  0  0  0  0  0  0  0  0  0  0  0
    3.2675    0.9947    0.6695 O   0  0  0  0  0  0  0  0  0  0  0  0
    3.7557    0.5935   -0.0698 H   0  0  0  0  0  0  0  0  0  0  0  0
  1  6  1  0  0  0  0
  2  1  2  0  0  0  0
  2  3  1  0  0  0  0
  3  4  2  0  0  0  0
  4  5  1  0  0  0  0
  4 13  1  0  0  0  0
  5 12  1  0  0  0  0
  6 11  1  0  0  0  0
  6  5  2  0  0  0  0
  7  1  1  0  0  0  0
  8  2  1  0  0  0  0
 10  9  3  0  0  0  0
 14 17  2  0  0  0  0
 15 14  2  0  0  0  0
 16  3  1  0  0  0  0
 16 14  1  0  0  0  0
 18 14  1  0  0  0  0
 19 18  1  0  0  0  0
M  END
