Coordinates from ORCA-job Ph-N2-HSO4-B3LYPG-6-31G_dp-MTMO-d009-169-n800
 OpenBabel09051908053D

 19 18  0  0  0  0  0  0  0  0999 V2000
   -0.8437    1.0134    0.2413 C   0  0  0  0  0  0  0  0  0  0  0  0
    0.4291    0.4711    0.0582 C   0  0  0  0  0  0  0  0  0  0  0  0
    1.0352   -0.1858    1.1249 C   0  0  0  0  0  0  0  0  0  0  0  0
    0.4146   -0.3142    2.3640 C   0  0  0  0  0  0  0  0  0  0  0  0
   -0.8562    0.2354    2.5335 C   0  0  0  0  0  0  0  0  0  0  0  0
   -1.4858    0.8966    1.4760 C   0  0  0  0  0  0  0  0  0  0  0  0
   -1.3317    1.5252   -0.5824 H   0  0  0  0  0  0  0  0  0  0  0  0
    0.9478    0.5466   -0.8910 H   0  0  0  0  0  0  0  0  0  0  0  0
    9.2189    1.2337   -4.4284 N   0  0  0  0  0  0  0  0  0  0  0  0
   10.2572    1.2699   -4.8055 N   0  0  0  0  0  0  0  0  0  0  0  0
   -2.4762    1.3187    1.6136 H   0  0  0  0  0  0  0  0  0  0  0  0
   -1.3549    0.1439    3.4936 H   0  0  0  0  0  0  0  0  0  0  0  0
    0.9237   -0.8298    3.1700 H   0  0  0  0  0  0  0  0  0  0  0  0
    3.6470   -0.0351    1.3814 S   0  0  0  0  0  0  0  0  0  0  0  0
    4.7018   -1.0051    1.1705 O   0  0  0  0  0  0  0  0  0  0  0  0
    2.2822   -0.8101    0.9085 O   0  0  0  0  0  0  0  0  0  0  0  0
    3.4214    0.6559    2.6301 O   0  0  0  0  0  0  0  0  0  0  0  0
    3.7754    1.1235    0.2429 O   0  0  0  0  0  0  0  0  0  0  0  0
    4.2558    0.7374   -0.5095 H   0  0  0  0  0  0  0  0  0  0  0  0
  1  6  1  0  0  0  0
  2  1  2  0  0  0  0
  2  3  1  0  0  0  0
  3  4  2  0  0  0  0
  4  5  1  0  0  0  0
  4 13  1  0  0  0  0
  5 12  1  0  0  0  0
  6 11  1  0  0  0  0
  6  5  2  0  0  0  0
  7  1  1  0  0  0  0
  8  2  1  0  0  0  0
 10  9  3  0  0  0  0
 14 17  2  0  0  0  0
 15 14  2  0  0  0  0
 16  3  1  0  0  0  0
 16 14  1  0  0  0  0
 18 14  1  0  0  0  0
 19 18  1  0  0  0  0
M  END
