Coordinates from ORCA-job Ph-N2-HSO4-B3LYPG-6-31G_dp-MTMO-d009-169-n800
 OpenBabel09051908053D

 19 18  0  0  0  0  0  0  0  0999 V2000
   -1.2576    0.9709    0.5087 C   0  0  0  0  0  0  0  0  0  0  0  0
    0.0091    0.4055    0.3559 C   0  0  0  0  0  0  0  0  0  0  0  0
    0.5855   -0.2456    1.4424 C   0  0  0  0  0  0  0  0  0  0  0  0
   -0.0588   -0.3458    2.6721 C   0  0  0  0  0  0  0  0  0  0  0  0
   -1.3232    0.2269    2.8112 C   0  0  0  0  0  0  0  0  0  0  0  0
   -1.9231    0.8827    1.7333 C   0  0  0  0  0  0  0  0  0  0  0  0
   -1.7226    1.4784   -0.3309 H   0  0  0  0  0  0  0  0  0  0  0  0
    0.5454    0.4585   -0.5850 H   0  0  0  0  0  0  0  0  0  0  0  0
   12.9780    1.7142   -7.0988 N   0  0  0  0  0  0  0  0  0  0  0  0
   14.0257    1.7899   -7.4427 N   0  0  0  0  0  0  0  0  0  0  0  0
   -2.9087    1.3227    1.8471 H   0  0  0  0  0  0  0  0  0  0  0  0
   -1.8399    0.1576    3.7636 H   0  0  0  0  0  0  0  0  0  0  0  0
    0.4274   -0.8577    3.4943 H   0  0  0  0  0  0  0  0  0  0  0  0
    3.1941   -0.1367    1.7480 S   0  0  0  0  0  0  0  0  0  0  0  0
    4.2366   -1.1253    1.5631 O   0  0  0  0  0  0  0  0  0  0  0  0
    1.8255   -0.8932    1.2567 O   0  0  0  0  0  0  0  0  0  0  0  0
    2.9580    0.5678    2.9871 O   0  0  0  0  0  0  0  0  0  0  0  0
    3.3612    1.0104    0.6027 O   0  0  0  0  0  0  0  0  0  0  0  0
    3.8492    0.6103   -0.1373 H   0  0  0  0  0  0  0  0  0  0  0  0
  1  6  1  0  0  0  0
  2  1  2  0  0  0  0
  2  3  1  0  0  0  0
  3  4  2  0  0  0  0
  4  5  1  0  0  0  0
  4 13  1  0  0  0  0
  5 12  1  0  0  0  0
  6 11  1  0  0  0  0
  6  5  2  0  0  0  0
  7  1  1  0  0  0  0
  8  2  1  0  0  0  0
 10  9  3  0  0  0  0
 14 17  2  0  0  0  0
 15 14  2  0  0  0  0
 16  3  1  0  0  0  0
 16 14  1  0  0  0  0
 18 14  1  0  0  0  0
 19 18  1  0  0  0  0
M  END
