Coordinates from ORCA-job Ph-N2-HSO4-B3LYPG-6-31G_dp-MTMO-d009-169-n800
 OpenBabel09051908053D

 19 18  0  0  0  0  0  0  0  0999 V2000
   -0.7533    1.0185    0.1854 C   0  0  0  0  0  0  0  0  0  0  0  0
    0.5182    0.4795   -0.0155 C   0  0  0  0  0  0  0  0  0  0  0  0
    1.1427   -0.1720    1.0438 C   0  0  0  0  0  0  0  0  0  0  0  0
    0.5417   -0.2981    2.2928 C   0  0  0  0  0  0  0  0  0  0  0  0
   -0.7280    0.2482    2.4800 C   0  0  0  0  0  0  0  0  0  0  0  0
   -1.3759    0.9038    1.4302 C   0  0  0  0  0  0  0  0  0  0  0  0
   -1.2556    1.5260   -0.6323 H   0  0  0  0  0  0  0  0  0  0  0  0
    1.0220    0.5536   -0.9728 H   0  0  0  0  0  0  0  0  0  0  0  0
    8.3077    1.1162   -3.7012 N   0  0  0  0  0  0  0  0  0  0  0  0
    9.3352    1.1581   -4.1061 N   0  0  0  0  0  0  0  0  0  0  0  0
   -2.3654    1.3232    1.5818 H   0  0  0  0  0  0  0  0  0  0  0  0
   -1.2115    0.1583    3.4481 H   0  0  0  0  0  0  0  0  0  0  0  0
    1.0648   -0.8095    3.0924 H   0  0  0  0  0  0  0  0  0  0  0  0
    3.7580   -0.0113    1.2565 S   0  0  0  0  0  0  0  0  0  0  0  0
    4.8117   -0.9817    1.0410 O   0  0  0  0  0  0  0  0  0  0  0  0
    2.3881   -0.7933    0.8105 O   0  0  0  0  0  0  0  0  0  0  0  0
    3.5483    0.6919    2.5011 O   0  0  0  0  0  0  0  0  0  0  0  0
    3.8691    1.1357    0.1045 O   0  0  0  0  0  0  0  0  0  0  0  0
    4.3440    0.7442   -0.6487 H   0  0  0  0  0  0  0  0  0  0  0  0
  1  6  1  0  0  0  0
  2  1  2  0  0  0  0
  2  3  1  0  0  0  0
  3  4  2  0  0  0  0
  4  5  1  0  0  0  0
  4 13  1  0  0  0  0
  5 12  1  0  0  0  0
  6 11  1  0  0  0  0
  6  5  2  0  0  0  0
  7  1  1  0  0  0  0
  8  2  1  0  0  0  0
 10  9  3  0  0  0  0
 14 17  2  0  0  0  0
 15 14  2  0  0  0  0
 16  3  1  0  0  0  0
 16 14  1  0  0  0  0
 18 14  1  0  0  0  0
 19 18  1  0  0  0  0
M  END
