Coordinates from ORCA-job Ph-N2-HSO4-B3LYPG-6-31G_dp-MTMO-d009-169-n800
 OpenBabel09051908053D

 19 18  0  0  0  0  0  0  0  0999 V2000
   -0.6624    1.0258    0.1623 C   0  0  0  0  0  0  0  0  0  0  0  0
    0.6118    0.5372   -0.1300 C   0  0  0  0  0  0  0  0  0  0  0  0
    1.3224   -0.1152    0.8730 C   0  0  0  0  0  0  0  0  0  0  0  0
    0.8057   -0.2908    2.1528 C   0  0  0  0  0  0  0  0  0  0  0  0
   -0.4686    0.2042    2.4311 C   0  0  0  0  0  0  0  0  0  0  0  0
   -1.2025    0.8602    1.4396 C   0  0  0  0  0  0  0  0  0  0  0  0
   -1.2316    1.5341   -0.6099 H   0  0  0  0  0  0  0  0  0  0  0  0
    1.0545    0.6523   -1.1130 H   0  0  0  0  0  0  0  0  0  0  0  0
    6.7247    0.7529   -2.1820 N   0  0  0  0  0  0  0  0  0  0  0  0
    7.7579    0.6837   -2.5658 N   0  0  0  0  0  0  0  0  0  0  0  0
   -2.1943    1.2405    1.6624 H   0  0  0  0  0  0  0  0  0  0  0  0
   -0.8873    0.0749    3.4244 H   0  0  0  0  0  0  0  0  0  0  0  0
    1.3953   -0.8014    2.9055 H   0  0  0  0  0  0  0  0  0  0  0  0
    3.9427    0.1569    0.8654 S   0  0  0  0  0  0  0  0  0  0  0  0
    5.0155   -0.8061    0.7108 O   0  0  0  0  0  0  0  0  0  0  0  0
    2.5730   -0.6870    0.5508 O   0  0  0  0  0  0  0  0  0  0  0  0
    3.7555    0.9660    2.0490 O   0  0  0  0  0  0  0  0  0  0  0  0
    3.9948    1.1748   -0.4029 O   0  0  0  0  0  0  0  0  0  0  0  0
    4.6546    0.8282   -1.0317 H   0  0  0  0  0  0  0  0  0  0  0  0
  1  6  1  0  0  0  0
  2  1  2  0  0  0  0
  2  3  1  0  0  0  0
  3  4  2  0  0  0  0
  4  5  1  0  0  0  0
  4 13  1  0  0  0  0
  5 12  1  0  0  0  0
  6 11  1  0  0  0  0
  6  5  2  0  0  0  0
  7  1  1  0  0  0  0
  8  2  1  0  0  0  0
 10  9  3  0  0  0  0
 14 17  2  0  0  0  0
 15 14  2  0  0  0  0
 16 14  1  0  0  0  0
 16  3  1  0  0  0  0
 18 14  1  0  0  0  0
 19 18  1  0  0  0  0
M  END
