Coordinates from ORCA-job Ph-N2-HSO4-B3LYPG-6-31G_dp-MTMO-d009-169-n800
 OpenBabel09051908053D

 19 18  0  0  0  0  0  0  0  0999 V2000
   -0.7040    1.0193    0.1596 C   0  0  0  0  0  0  0  0  0  0  0  0
    0.5632    0.4784   -0.0623 C   0  0  0  0  0  0  0  0  0  0  0  0
    1.2086   -0.1644    0.9898 C   0  0  0  0  0  0  0  0  0  0  0  0
    0.6329   -0.2799    2.2515 C   0  0  0  0  0  0  0  0  0  0  0  0
   -0.6330    0.2679    2.4595 C   0  0  0  0  0  0  0  0  0  0  0  0
   -1.3017    0.9149    1.4174 C   0  0  0  0  0  0  0  0  0  0  0  0
   -1.2225    1.5202   -0.6520 H   0  0  0  0  0  0  0  0  0  0  0  0
    1.0482    0.5448   -1.0299 H   0  0  0  0  0  0  0  0  0  0  0  0
    7.7170    1.0434   -3.1523 N   0  0  0  0  0  0  0  0  0  0  0  0
    8.7342    1.1171   -3.5781 N   0  0  0  0  0  0  0  0  0  0  0  0
   -2.2880    1.3356    1.5853 H   0  0  0  0  0  0  0  0  0  0  0  0
   -1.0970    0.1862    3.4378 H   0  0  0  0  0  0  0  0  0  0  0  0
    1.1719   -0.7849    3.0446 H   0  0  0  0  0  0  0  0  0  0  0  0
    3.8287    0.0026    1.1357 S   0  0  0  0  0  0  0  0  0  0  0  0
    4.8765   -0.9776    0.9354 O   0  0  0  0  0  0  0  0  0  0  0  0
    2.4492   -0.7885    0.7378 O   0  0  0  0  0  0  0  0  0  0  0  0
    3.6402    0.7461    2.3601 O   0  0  0  0  0  0  0  0  0  0  0  0
    3.9264    1.1100   -0.0556 O   0  0  0  0  0  0  0  0  0  0  0  0
    4.4109    0.7001   -0.7928 H   0  0  0  0  0  0  0  0  0  0  0  0
  1  6  1  0  0  0  0
  2  1  2  0  0  0  0
  2  3  1  0  0  0  0
  3  4  2  0  0  0  0
  4  5  1  0  0  0  0
  4 13  1  0  0  0  0
  5 12  1  0  0  0  0
  6 11  1  0  0  0  0
  6  5  2  0  0  0  0
  7  1  1  0  0  0  0
  8  2  1  0  0  0  0
 10  9  3  0  0  0  0
 14 17  2  0  0  0  0
 15 14  2  0  0  0  0
 16  3  1  0  0  0  0
 16 14  1  0  0  0  0
 18 14  1  0  0  0  0
 19 18  1  0  0  0  0
M  END
