Coordinates from ORCA-job Ph-N2-HSO4-B3LYPG-6-31G_dp-MTMO-d009-169-n800
 OpenBabel09051908053D

 19 18  0  0  0  0  0  0  0  0999 V2000
   -0.6770    1.0305    0.1715 C   0  0  0  0  0  0  0  0  0  0  0  0
    0.5908    0.5195   -0.1101 C   0  0  0  0  0  0  0  0  0  0  0  0
    1.2877   -0.1314    0.9034 C   0  0  0  0  0  0  0  0  0  0  0  0
    0.7639   -0.2841    2.1832 C   0  0  0  0  0  0  0  0  0  0  0  0
   -0.5040    0.2328    2.4505 C   0  0  0  0  0  0  0  0  0  0  0  0
   -1.2243    0.8877    1.4484 C   0  0  0  0  0  0  0  0  0  0  0  0
   -1.2357    1.5381   -0.6088 H   0  0  0  0  0  0  0  0  0  0  0  0
    1.0387    0.6163   -1.0928 H   0  0  0  0  0  0  0  0  0  0  0  0
    6.9612    0.8427   -2.3396 N   0  0  0  0  0  0  0  0  0  0  0  0
    7.9903    0.9043   -2.7362 N   0  0  0  0  0  0  0  0  0  0  0  0
   -2.2114    1.2850    1.6628 H   0  0  0  0  0  0  0  0  0  0  0  0
   -0.9285    0.1213    3.4435 H   0  0  0  0  0  0  0  0  0  0  0  0
    1.3429   -0.7948    2.9440 H   0  0  0  0  0  0  0  0  0  0  0  0
    3.9123    0.1032    0.8924 S   0  0  0  0  0  0  0  0  0  0  0  0
    4.9689   -0.8820    0.7741 O   0  0  0  0  0  0  0  0  0  0  0  0
    2.5308   -0.7265    0.5938 O   0  0  0  0  0  0  0  0  0  0  0  0
    3.7311    0.9538    2.0472 O   0  0  0  0  0  0  0  0  0  0  0  0
    3.9918    1.0826   -0.4070 O   0  0  0  0  0  0  0  0  0  0  0  0
    4.6323    0.6925   -1.0287 H   0  0  0  0  0  0  0  0  0  0  0  0
  1  6  1  0  0  0  0
  2  1  2  0  0  0  0
  2  3  1  0  0  0  0
  3  4  2  0  0  0  0
  4  5  1  0  0  0  0
  4 13  1  0  0  0  0
  5 12  1  0  0  0  0
  6 11  1  0  0  0  0
  6  5  2  0  0  0  0
  7  1  1  0  0  0  0
  8  2  1  0  0  0  0
 10  9  3  0  0  0  0
 14 17  2  0  0  0  0
 15 14  2  0  0  0  0
 16 14  1  0  0  0  0
 16  3  1  0  0  0  0
 18 14  1  0  0  0  0
 19 18  1  0  0  0  0
M  END
