Coordinates from ORCA-job Ph-N2-HSO4-B3LYPG-6-31G_dp-MTMO-d009-169-n800
 OpenBabel09051908053D

 19 18  0  0  0  0  0  0  0  0999 V2000
   -0.7058    1.0191    0.1602 C   0  0  0  0  0  0  0  0  0  0  0  0
    0.5616    0.4781   -0.0605 C   0  0  0  0  0  0  0  0  0  0  0  0
    1.2058   -0.1649    0.9922 C   0  0  0  0  0  0  0  0  0  0  0  0
    0.6287   -0.2804    2.2534 C   0  0  0  0  0  0  0  0  0  0  0  0
   -0.6373    0.2675    2.4601 C   0  0  0  0  0  0  0  0  0  0  0  0
   -1.3048    0.9147    1.4173 C   0  0  0  0  0  0  0  0  0  0  0  0
   -1.2234    1.5202   -0.6520 H   0  0  0  0  0  0  0  0  0  0  0  0
    1.0475    0.5446   -1.0275 H   0  0  0  0  0  0  0  0  0  0  0  0
    7.7430    1.0476   -3.1786 N   0  0  0  0  0  0  0  0  0  0  0  0
    8.7606    1.1195   -3.6039 N   0  0  0  0  0  0  0  0  0  0  0  0
   -2.2913    1.3354    1.5842 H   0  0  0  0  0  0  0  0  0  0  0  0
   -1.1024    0.1857    3.4378 H   0  0  0  0  0  0  0  0  0  0  0  0
    1.1668   -0.7856    3.0470 H   0  0  0  0  0  0  0  0  0  0  0  0
    3.8257    0.0012    1.1424 S   0  0  0  0  0  0  0  0  0  0  0  0
    4.8736   -0.9785    0.9406 O   0  0  0  0  0  0  0  0  0  0  0  0
    2.4465   -0.7890    0.7415 O   0  0  0  0  0  0  0  0  0  0  0  0
    3.6362    0.7419    2.3684 O   0  0  0  0  0  0  0  0  0  0  0  0
    3.9241    1.1116   -0.0461 O   0  0  0  0  0  0  0  0  0  0  0  0
    4.4067    0.7027   -0.7851 H   0  0  0  0  0  0  0  0  0  0  0  0
  1  6  1  0  0  0  0
  2  1  2  0  0  0  0
  2  3  1  0  0  0  0
  3  4  2  0  0  0  0
  4  5  1  0  0  0  0
  4 13  1  0  0  0  0
  5 12  1  0  0  0  0
  6 11  1  0  0  0  0
  6  5  2  0  0  0  0
  7  1  1  0  0  0  0
  8  2  1  0  0  0  0
 10  9  3  0  0  0  0
 14 17  2  0  0  0  0
 15 14  2  0  0  0  0
 16  3  1  0  0  0  0
 16 14  1  0  0  0  0
 18 14  1  0  0  0  0
 19 18  1  0  0  0  0
M  END
