Coordinates from ORCA-job Ph-N2-HSO4-B3LYPG-6-31G_dp-MTMO-d009-169-n800
 OpenBabel09051908053D

 19 18  0  0  0  0  0  0  0  0999 V2000
   -0.6650    1.0263    0.1647 C   0  0  0  0  0  0  0  0  0  0  0  0
    0.6086    0.5368   -0.1285 C   0  0  0  0  0  0  0  0  0  0  0  0
    1.3196   -0.1157    0.8741 C   0  0  0  0  0  0  0  0  0  0  0  0
    0.8039   -0.2907    2.1544 C   0  0  0  0  0  0  0  0  0  0  0  0
   -0.4700    0.2051    2.4335 C   0  0  0  0  0  0  0  0  0  0  0  0
   -1.2043    0.8612    1.4424 C   0  0  0  0  0  0  0  0  0  0  0  0
   -1.2346    1.5348   -0.6071 H   0  0  0  0  0  0  0  0  0  0  0  0
    1.0506    0.6515   -1.1119 H   0  0  0  0  0  0  0  0  0  0  0  0
    6.7423    0.7564   -2.1849 N   0  0  0  0  0  0  0  0  0  0  0  0
    7.7772    0.6938   -2.5652 N   0  0  0  0  0  0  0  0  0  0  0  0
   -2.1957    1.2422    1.6660 H   0  0  0  0  0  0  0  0  0  0  0  0
   -0.8880    0.0762    3.4271 H   0  0  0  0  0  0  0  0  0  0  0  0
    1.3936   -0.8015    2.9067 H   0  0  0  0  0  0  0  0  0  0  0  0
    3.9401    0.1554    0.8622 S   0  0  0  0  0  0  0  0  0  0  0  0
    5.0122   -0.8090    0.7114 O   0  0  0  0  0  0  0  0  0  0  0  0
    2.5697   -0.6884    0.5512 O   0  0  0  0  0  0  0  0  0  0  0  0
    3.7538    0.9696    2.0425 O   0  0  0  0  0  0  0  0  0  0  0  0
    3.9931    1.1680   -0.4105 O   0  0  0  0  0  0  0  0  0  0  0  0
    4.6545    0.8195   -1.0364 H   0  0  0  0  0  0  0  0  0  0  0  0
  1  6  1  0  0  0  0
  2  1  2  0  0  0  0
  2  3  1  0  0  0  0
  3  4  2  0  0  0  0
  4  5  1  0  0  0  0
  4 13  1  0  0  0  0
  5 12  1  0  0  0  0
  6 11  1  0  0  0  0
  6  5  2  0  0  0  0
  7  1  1  0  0  0  0
  8  2  1  0  0  0  0
 10  9  3  0  0  0  0
 14 17  2  0  0  0  0
 15 14  2  0  0  0  0
 16 14  1  0  0  0  0
 16  3  1  0  0  0  0
 18 14  1  0  0  0  0
 19 18  1  0  0  0  0
M  END
