Coordinates from ORCA-job Ph-N2-HSO4-B3LYPG-6-31G_dp-MTMO-d009-169-n800
 OpenBabel09051908053D

 19 18  0  0  0  0  0  0  0  0999 V2000
   -1.2932    0.9670    0.5325 C   0  0  0  0  0  0  0  0  0  0  0  0
   -0.0268    0.4007    0.3804 C   0  0  0  0  0  0  0  0  0  0  0  0
    0.5489   -0.2501    1.4675 C   0  0  0  0  0  0  0  0  0  0  0  0
   -0.0958   -0.3492    2.6970 C   0  0  0  0  0  0  0  0  0  0  0  0
   -1.3599    0.2244    2.8354 C   0  0  0  0  0  0  0  0  0  0  0  0
   -1.9592    0.8799    1.7570 C   0  0  0  0  0  0  0  0  0  0  0  0
   -1.7577    1.4743   -0.3075 H   0  0  0  0  0  0  0  0  0  0  0  0
    0.5098    0.4529   -0.5604 H   0  0  0  0  0  0  0  0  0  0  0  0
   13.2867    1.7514   -7.3105 N   0  0  0  0  0  0  0  0  0  0  0  0
   14.3345    1.8279   -7.6538 N   0  0  0  0  0  0  0  0  0  0  0  0
   -2.9445    1.3205    1.8702 H   0  0  0  0  0  0  0  0  0  0  0  0
   -1.8770    0.1559    3.7877 H   0  0  0  0  0  0  0  0  0  0  0  0
    0.3898   -0.8609    3.5197 H   0  0  0  0  0  0  0  0  0  0  0  0
    3.1574   -0.1426    1.7740 S   0  0  0  0  0  0  0  0  0  0  0  0
    4.1994   -1.1319    1.5897 O   0  0  0  0  0  0  0  0  0  0  0  0
    1.7886   -0.8985    1.2825 O   0  0  0  0  0  0  0  0  0  0  0  0
    2.9213    0.5623    3.0128 O   0  0  0  0  0  0  0  0  0  0  0  0
    3.3256    1.0040    0.6284 O   0  0  0  0  0  0  0  0  0  0  0  0
    3.8137    0.6034   -0.1112 H   0  0  0  0  0  0  0  0  0  0  0  0
  1  6  1  0  0  0  0
  2  1  2  0  0  0  0
  2  3  1  0  0  0  0
  3  4  2  0  0  0  0
  4  5  1  0  0  0  0
  4 13  1  0  0  0  0
  5 12  1  0  0  0  0
  6 11  1  0  0  0  0
  6  5  2  0  0  0  0
  7  1  1  0  0  0  0
  8  2  1  0  0  0  0
 10  9  3  0  0  0  0
 14 17  2  0  0  0  0
 15 14  2  0  0  0  0
 16  3  1  0  0  0  0
 16 14  1  0  0  0  0
 18 14  1  0  0  0  0
 19 18  1  0  0  0  0
M  END
