Coordinates from ORCA-job Ph-N2-HSO4-B3LYPG-6-31G_dp-MTMO-d009-169-n800
 OpenBabel09051908053D

 19 18  0  0  0  0  0  0  0  0999 V2000
   -1.3616    0.9595    0.5786 C   0  0  0  0  0  0  0  0  0  0  0  0
   -0.0956    0.3921    0.4273 C   0  0  0  0  0  0  0  0  0  0  0  0
    0.4793   -0.2584    1.5150 C   0  0  0  0  0  0  0  0  0  0  0  0
   -0.1660   -0.3562    2.7444 C   0  0  0  0  0  0  0  0  0  0  0  0
   -1.4297    0.2184    2.8820 C   0  0  0  0  0  0  0  0  0  0  0  0
   -2.0281    0.8737    1.8029 C   0  0  0  0  0  0  0  0  0  0  0  0
   -1.8254    1.4666   -0.2619 H   0  0  0  0  0  0  0  0  0  0  0  0
    0.4414    0.4434   -0.5133 H   0  0  0  0  0  0  0  0  0  0  0  0
   13.8756    1.8212   -7.7128 N   0  0  0  0  0  0  0  0  0  0  0  0
   14.9236    1.8990   -8.0555 N   0  0  0  0  0  0  0  0  0  0  0  0
   -3.0131    1.3152    1.9155 H   0  0  0  0  0  0  0  0  0  0  0  0
   -1.9471    0.1509    3.8341 H   0  0  0  0  0  0  0  0  0  0  0  0
    0.3190   -0.8678    3.5676 H   0  0  0  0  0  0  0  0  0  0  0  0
    3.0877   -0.1529    1.8226 S   0  0  0  0  0  0  0  0  0  0  0  0
    4.1290   -1.1431    1.6391 O   0  0  0  0  0  0  0  0  0  0  0  0
    1.7185   -0.9079    1.3308 O   0  0  0  0  0  0  0  0  0  0  0  0
    2.8517    0.5526    3.0611 O   0  0  0  0  0  0  0  0  0  0  0  0
    3.2572    0.9932    0.6767 O   0  0  0  0  0  0  0  0  0  0  0  0
    3.7454    0.5919   -0.0625 H   0  0  0  0  0  0  0  0  0  0  0  0
  1  6  1  0  0  0  0
  2  1  2  0  0  0  0
  2  3  1  0  0  0  0
  3  4  2  0  0  0  0
  4  5  1  0  0  0  0
  4 13  1  0  0  0  0
  5 12  1  0  0  0  0
  6 11  1  0  0  0  0
  6  5  2  0  0  0  0
  7  1  1  0  0  0  0
  8  2  1  0  0  0  0
 10  9  3  0  0  0  0
 14 17  2  0  0  0  0
 15 14  2  0  0  0  0
 16  3  1  0  0  0  0
 16 14  1  0  0  0  0
 18 14  1  0  0  0  0
 19 18  1  0  0  0  0
M  END
