Coordinates from ORCA-job Ph-N2-HSO4-B3LYPG-6-31G_dp-MTMO-d009-169-n800
 OpenBabel09051908053D

 19 18  0  0  0  0  0  0  0  0999 V2000
   -1.2678    0.9698    0.5154 C   0  0  0  0  0  0  0  0  0  0  0  0
   -0.0011    0.4041    0.3629 C   0  0  0  0  0  0  0  0  0  0  0  0
    0.5751   -0.2469    1.4496 C   0  0  0  0  0  0  0  0  0  0  0  0
   -0.0694   -0.3467    2.6792 C   0  0  0  0  0  0  0  0  0  0  0  0
   -1.3337    0.2262    2.8181 C   0  0  0  0  0  0  0  0  0  0  0  0
   -1.9334    0.8819    1.7400 C   0  0  0  0  0  0  0  0  0  0  0  0
   -1.7326    1.4772   -0.3242 H   0  0  0  0  0  0  0  0  0  0  0  0
    0.5353    0.4569   -0.5780 H   0  0  0  0  0  0  0  0  0  0  0  0
   13.0661    1.7249   -7.1594 N   0  0  0  0  0  0  0  0  0  0  0  0
   14.1139    1.8008   -7.5030 N   0  0  0  0  0  0  0  0  0  0  0  0
   -2.9189    1.3221    1.8536 H   0  0  0  0  0  0  0  0  0  0  0  0
   -1.8505    0.1572    3.7704 H   0  0  0  0  0  0  0  0  0  0  0  0
    0.4166   -0.8586    3.5016 H   0  0  0  0  0  0  0  0  0  0  0  0
    3.1836   -0.1384    1.7554 S   0  0  0  0  0  0  0  0  0  0  0  0
    4.2259   -1.1272    1.5708 O   0  0  0  0  0  0  0  0  0  0  0  0
    1.8150   -0.8948    1.2641 O   0  0  0  0  0  0  0  0  0  0  0  0
    2.9475    0.5662    2.9944 O   0  0  0  0  0  0  0  0  0  0  0  0
    3.3510    1.0085    0.6101 O   0  0  0  0  0  0  0  0  0  0  0  0
    3.8391    0.6082   -0.1298 H   0  0  0  0  0  0  0  0  0  0  0  0
  1  6  1  0  0  0  0
  2  1  2  0  0  0  0
  2  3  1  0  0  0  0
  3  4  2  0  0  0  0
  4  5  1  0  0  0  0
  4 13  1  0  0  0  0
  5 12  1  0  0  0  0
  6 11  1  0  0  0  0
  6  5  2  0  0  0  0
  7  1  1  0  0  0  0
  8  2  1  0  0  0  0
 10  9  3  0  0  0  0
 14 17  2  0  0  0  0
 15 14  2  0  0  0  0
 16  3  1  0  0  0  0
 16 14  1  0  0  0  0
 18 14  1  0  0  0  0
 19 18  1  0  0  0  0
M  END
