Coordinates from ORCA-job Ph-N2-HSO4-B3LYPG-6-31G_dp-MTMO-d009-169-n800
 OpenBabel09051908053D

 19 18  0  0  0  0  0  0  0  0999 V2000
   -1.3256    0.9634    0.5543 C   0  0  0  0  0  0  0  0  0  0  0  0
   -0.0594    0.3966    0.4027 C   0  0  0  0  0  0  0  0  0  0  0  0
    0.5158   -0.2540    1.4901 C   0  0  0  0  0  0  0  0  0  0  0  0
   -0.1292   -0.3524    2.7195 C   0  0  0  0  0  0  0  0  0  0  0  0
   -1.3931    0.2217    2.8575 C   0  0  0  0  0  0  0  0  0  0  0  0
   -1.9919    0.8770    1.7787 C   0  0  0  0  0  0  0  0  0  0  0  0
   -1.7897    1.4706   -0.2860 H   0  0  0  0  0  0  0  0  0  0  0  0
    0.4774    0.4482   -0.5380 H   0  0  0  0  0  0  0  0  0  0  0  0
   13.5663    1.7847   -7.5017 N   0  0  0  0  0  0  0  0  0  0  0  0
   14.6142    1.8619   -7.8447 N   0  0  0  0  0  0  0  0  0  0  0  0
   -2.9771    1.3182    1.8916 H   0  0  0  0  0  0  0  0  0  0  0  0
   -1.9103    0.1538    3.8097 H   0  0  0  0  0  0  0  0  0  0  0  0
    0.3561   -0.8640    3.5425 H   0  0  0  0  0  0  0  0  0  0  0  0
    3.1243   -0.1477    1.7972 S   0  0  0  0  0  0  0  0  0  0  0  0
    4.1659   -1.1374    1.6134 O   0  0  0  0  0  0  0  0  0  0  0  0
    1.7553   -0.9031    1.3056 O   0  0  0  0  0  0  0  0  0  0  0  0
    2.8882    0.5576    3.0358 O   0  0  0  0  0  0  0  0  0  0  0  0
    3.2932    0.9987    0.6515 O   0  0  0  0  0  0  0  0  0  0  0  0
    3.7814    0.5977   -0.0880 H   0  0  0  0  0  0  0  0  0  0  0  0
  1  6  1  0  0  0  0
  2  1  2  0  0  0  0
  2  3  1  0  0  0  0
  3  4  2  0  0  0  0
  4  5  1  0  0  0  0
  4 13  1  0  0  0  0
  5 12  1  0  0  0  0
  6 11  1  0  0  0  0
  6  5  2  0  0  0  0
  7  1  1  0  0  0  0
  8  2  1  0  0  0  0
 10  9  3  0  0  0  0
 14 17  2  0  0  0  0
 15 14  2  0  0  0  0
 16  3  1  0  0  0  0
 16 14  1  0  0  0  0
 18 14  1  0  0  0  0
 19 18  1  0  0  0  0
M  END
