Coordinates from ORCA-job Ph-N2-HSO4-B3LYPG-6-31G_dp-MTMO-d009-169-n800
 OpenBabel09051908053D

 19 18  0  0  0  0  0  0  0  0999 V2000
   -0.7375    1.0186    0.1762 C   0  0  0  0  0  0  0  0  0  0  0  0
    0.5329    0.4792   -0.0299 C   0  0  0  0  0  0  0  0  0  0  0  0
    1.1629   -0.1697    1.0278 C   0  0  0  0  0  0  0  0  0  0  0  0
    0.5684   -0.2928    2.2801 C   0  0  0  0  0  0  0  0  0  0  0  0
   -0.7004    0.2539    2.4726 C   0  0  0  0  0  0  0  0  0  0  0  0
   -1.3537    0.9070    1.4245 C   0  0  0  0  0  0  0  0  0  0  0  0
   -1.2440    1.5242   -0.6401 H   0  0  0  0  0  0  0  0  0  0  0  0
    1.0319    0.5510   -0.9900 H   0  0  0  0  0  0  0  0  0  0  0  0
    8.1307    1.0959   -3.5442 N   0  0  0  0  0  0  0  0  0  0  0  0
    9.1552    1.1434   -3.9560 N   0  0  0  0  0  0  0  0  0  0  0  0
   -2.3424    1.3267    1.5801 H   0  0  0  0  0  0  0  0  0  0  0  0
   -1.1789    0.1664    3.4433 H   0  0  0  0  0  0  0  0  0  0  0  0
    1.0956   -0.8023    3.0782 H   0  0  0  0  0  0  0  0  0  0  0  0
    3.7795   -0.0079    1.2247 S   0  0  0  0  0  0  0  0  0  0  0  0
    4.8316   -0.9804    1.0112 O   0  0  0  0  0  0  0  0  0  0  0  0
    2.4070   -0.7918    0.7897 O   0  0  0  0  0  0  0  0  0  0  0  0
    3.5754    0.7036    2.4655 O   0  0  0  0  0  0  0  0  0  0  0  0
    3.8867    1.1313    0.0646 O   0  0  0  0  0  0  0  0  0  0  0  0
    4.3608    0.7353   -0.6868 H   0  0  0  0  0  0  0  0  0  0  0  0
  1  6  1  0  0  0  0
  2  1  2  0  0  0  0
  2  3  1  0  0  0  0
  3  4  2  0  0  0  0
  4  5  1  0  0  0  0
  4 13  1  0  0  0  0
  5 12  1  0  0  0  0
  6 11  1  0  0  0  0
  6  5  2  0  0  0  0
  7  1  1  0  0  0  0
  8  2  1  0  0  0  0
 10  9  3  0  0  0  0
 14 17  2  0  0  0  0
 15 14  2  0  0  0  0
 16  3  1  0  0  0  0
 16 14  1  0  0  0  0
 18 14  1  0  0  0  0
 19 18  1  0  0  0  0
M  END
