Coordinates from ORCA-job Ph-N2-HSO4-B3LYPG-6-31G_dp-MTMO-d009-169-n800
 OpenBabel09051908053D

 19 17  0  0  0  0  0  0  0  0999 V2000
   -1.0167    0.7576   -0.5036 C   0  0  0  0  0  0  0  0  0  0  0  0
    0.0867    0.4174   -1.3186 C   0  0  0  0  0  0  0  0  0  0  0  0
    1.1316    0.1505   -0.4858 C   0  0  0  0  0  0  0  0  0  0  0  0
    1.3982    0.1242    0.7573 C   0  0  0  0  0  0  0  0  0  0  0  0
    0.2792    0.4659    1.5615 C   0  0  0  0  0  0  0  0  0  0  0  0
   -0.9171    0.7791    0.8982 C   0  0  0  0  0  0  0  0  0  0  0  0
   -1.9570    1.0059   -0.9881 H   0  0  0  0  0  0  0  0  0  0  0  0
    0.0646    0.3846   -2.3996 H   0  0  0  0  0  0  0  0  0  0  0  0
    2.8532   -0.4945   -1.9365 N   0  0  0  0  0  0  0  0  0  0  0  0
    3.8222   -1.0059   -2.0812 N   0  0  0  0  0  0  0  0  0  0  0  0
   -1.7928    1.0478    1.4824 H   0  0  0  0  0  0  0  0  0  0  0  0
    0.3395    0.4904    2.6463 H   0  0  0  0  0  0  0  0  0  0  0  0
    2.9265   -0.2217    1.5868 H   0  0  0  0  0  0  0  0  0  0  0  0
    5.0057    0.4073    1.6595 S   0  0  0  0  0  0  0  0  0  0  0  0
    6.1764   -0.2012    2.2623 O   0  0  0  0  0  0  0  0  0  0  0  0
    4.8949    0.6737    0.2380 O   0  0  0  0  0  0  0  0  0  0  0  0
    3.7440   -0.4353    2.1543 O   0  0  0  0  0  0  0  0  0  0  0  0
    4.7671    1.8528    2.3849 O   0  0  0  0  0  0  0  0  0  0  0  0
    5.1556    1.7928    3.2735 H   0  0  0  0  0  0  0  0  0  0  0  0
  1  6  1  0  0  0  0
  2  1  2  0  0  0  0
  2  3  1  0  0  0  0
  3  4  2  0  0  0  0
  4  5  1  0  0  0  0
  5 12  1  0  0  0  0
  6 11  1  0  0  0  0
  6  5  2  0  0  0  0
  7  1  1  0  0  0  0
  8  2  1  0  0  0  0
 10  9  3  0  0  0  0
 13 17  1  0  0  0  0
 14 17  1  0  0  0  0
 14 15  2  0  0  0  0
 14 18  1  0  0  0  0
 16 14  2  0  0  0  0
 18 19  1  0  0  0  0
M  RAD  2   3   2   4   2
M  END
