Coordinates from ORCA-job Ph-N2-HSO4-B3LYPG-6-31G_dp-MTMO-d009-169-n800
 OpenBabel09051908053D

 19 18  0  0  0  0  0  0  0  0999 V2000
   -0.6853    1.0236    0.1580 C   0  0  0  0  0  0  0  0  0  0  0  0
    0.5811    0.4898   -0.0845 C   0  0  0  0  0  0  0  0  0  0  0  0
    1.2444   -0.1543    0.9555 C   0  0  0  0  0  0  0  0  0  0  0  0
    0.6877   -0.2780    2.2249 C   0  0  0  0  0  0  0  0  0  0  0  0
   -0.5780    0.2622    2.4533 C   0  0  0  0  0  0  0  0  0  0  0  0
   -1.2646    0.9105    1.4237 C   0  0  0  0  0  0  0  0  0  0  0  0
   -1.2178    1.5258   -0.6437 H   0  0  0  0  0  0  0  0  0  0  0  0
    1.0525    0.5634   -1.0582 H   0  0  0  0  0  0  0  0  0  0  0  0
    7.3842    0.9715   -2.8062 N   0  0  0  0  0  0  0  0  0  0  0  0
    8.3994    1.0587   -3.2338 N   0  0  0  0  0  0  0  0  0  0  0  0
   -2.2505    1.3254    1.6076 H   0  0  0  0  0  0  0  0  0  0  0  0
   -1.0275    0.1737    3.4377 H   0  0  0  0  0  0  0  0  0  0  0  0
    1.2407   -0.7839    3.0077 H   0  0  0  0  0  0  0  0  0  0  0  0
    3.8670    0.0333    1.0416 S   0  0  0  0  0  0  0  0  0  0  0  0
    4.9157   -0.9514    0.8683 O   0  0  0  0  0  0  0  0  0  0  0  0
    2.4847   -0.7717    0.6845 O   0  0  0  0  0  0  0  0  0  0  0  0
    3.6861    0.8188    2.2409 O   0  0  0  0  0  0  0  0  0  0  0  0
    3.9565    1.0951   -0.1915 O   0  0  0  0  0  0  0  0  0  0  0  0
    4.4855    0.6790   -0.8943 H   0  0  0  0  0  0  0  0  0  0  0  0
  1  6  1  0  0  0  0
  2  1  2  0  0  0  0
  2  3  1  0  0  0  0
  3  4  2  0  0  0  0
  4  5  1  0  0  0  0
  4 13  1  0  0  0  0
  5 12  1  0  0  0  0
  6 11  1  0  0  0  0
  6  5  2  0  0  0  0
  7  1  1  0  0  0  0
  8  2  1  0  0  0  0
 10  9  3  0  0  0  0
 14 17  2  0  0  0  0
 15 14  2  0  0  0  0
 16  3  1  0  0  0  0
 16 14  1  0  0  0  0
 18 14  1  0  0  0  0
 19 18  1  0  0  0  0
M  END
