Coordinates from ORCA-job Ph-N2-HSO4-B3LYPG-6-31G_dp-MTMO-d009-169-n800
 OpenBabel09051908053D

 19 18  0  0  0  0  0  0  0  0999 V2000
   -0.1319    1.0876   -0.1650 C   0  0  0  0  0  0  0  0  0  0  0  0
    1.2230    0.7610   -0.2385 C   0  0  0  0  0  0  0  0  0  0  0  0
    1.7881    0.0076    0.7869 C   0  0  0  0  0  0  0  0  0  0  0  0
    1.0403   -0.4230    1.8800 C   0  0  0  0  0  0  0  0  0  0  0  0
   -0.3121   -0.0872    1.9423 C   0  0  0  0  0  0  0  0  0  0  0  0
   -0.8992    0.6664    0.9229 C   0  0  0  0  0  0  0  0  0  0  0  0
   -0.5855    1.6721   -0.9600 H   0  0  0  0  0  0  0  0  0  0  0  0
    1.8331    1.0783   -1.0760 H   0  0  0  0  0  0  0  0  0  0  0  0
    4.3985    0.1750   -2.0020 N   0  0  0  0  0  0  0  0  0  0  0  0
    4.1917   -0.5683   -2.7921 N   0  0  0  0  0  0  0  0  0  0  0  0
   -1.9520    0.9258    0.9767 H   0  0  0  0  0  0  0  0  0  0  0  0
   -0.9063   -0.4162    2.7893 H   0  0  0  0  0  0  0  0  0  0  0  0
    1.5184   -1.0037    2.6606 H   0  0  0  0  0  0  0  0  0  0  0  0
    4.2874    0.4739    1.4684 S   0  0  0  0  0  0  0  0  0  0  0  0
    5.5026   -0.2780    1.2352 O   0  0  0  0  0  0  0  0  0  0  0  0
    3.1329   -0.3943    0.6776 O   0  0  0  0  0  0  0  0  0  0  0  0
    3.8204    0.8619    2.7791 O   0  0  0  0  0  0  0  0  0  0  0  0
    4.3134    1.8360    0.5869 O   0  0  0  0  0  0  0  0  0  0  0  0
    4.6989    1.6165   -0.2809 H   0  0  0  0  0  0  0  0  0  0  0  0
  1  6  1  0  0  0  0
  2  1  2  0  0  0  0
  2  3  1  0  0  0  0
  3  4  2  0  0  0  0
  4  5  1  0  0  0  0
  4 13  1  0  0  0  0
  5 12  1  0  0  0  0
  6 11  1  0  0  0  0
  6  5  2  0  0  0  0
  7  1  1  0  0  0  0
  8  2  1  0  0  0  0
 10  9  3  0  0  0  0
 14 17  2  0  0  0  0
 15 14  2  0  0  0  0
 16  3  1  0  0  0  0
 16 14  1  0  0  0  0
 18 14  1  0  0  0  0
 19 18  1  0  0  0  0
M  END
