Coordinates from ORCA-job Ph-N2-HSO4-B3LYPG-6-31G_dp-MTMO-d009-169-n800
 OpenBabel09051908053D

 19 18  0  0  0  0  0  0  0  0999 V2000
   -0.7997    1.0168    0.2136 C   0  0  0  0  0  0  0  0  0  0  0  0
    0.4732    0.4769    0.0240 C   0  0  0  0  0  0  0  0  0  0  0  0
    1.0859   -0.1789    1.0875 C   0  0  0  0  0  0  0  0  0  0  0  0
    0.4719   -0.3087    2.3298 C   0  0  0  0  0  0  0  0  0  0  0  0
   -0.7991    0.2385    2.5057 C   0  0  0  0  0  0  0  0  0  0  0  0
   -1.4353    0.8986    1.4515 C   0  0  0  0  0  0  0  0  0  0  0  0
   -1.2928    1.5278   -0.6075 H   0  0  0  0  0  0  0  0  0  0  0  0
    0.9869    0.5536   -0.9278 H   0  0  0  0  0  0  0  0  0  0  0  0
    8.7928    1.1744   -4.1045 N   0  0  0  0  0  0  0  0  0  0  0  0
    9.8274    1.2154   -4.4911 N   0  0  0  0  0  0  0  0  0  0  0  0
   -2.4258    1.3188    1.5943 H   0  0  0  0  0  0  0  0  0  0  0  0
   -1.2927    0.1459    3.4684 H   0  0  0  0  0  0  0  0  0  0  0  0
    0.9861   -0.8234    3.1330 H   0  0  0  0  0  0  0  0  0  0  0  0
    3.6988   -0.0230    1.3301 S   0  0  0  0  0  0  0  0  0  0  0  0
    4.7541   -0.9918    1.1157 O   0  0  0  0  0  0  0  0  0  0  0  0
    2.3330   -0.8009    0.8648 O   0  0  0  0  0  0  0  0  0  0  0  0
    3.4779    0.6694    2.5788 O   0  0  0  0  0  0  0  0  0  0  0  0
    3.8202    1.1340    0.1893 O   0  0  0  0  0  0  0  0  0  0  0  0
    4.2988    0.7480   -0.5643 H   0  0  0  0  0  0  0  0  0  0  0  0
  1  6  1  0  0  0  0
  2  1  2  0  0  0  0
  2  3  1  0  0  0  0
  3  4  2  0  0  0  0
  4  5  1  0  0  0  0
  4 13  1  0  0  0  0
  5 12  1  0  0  0  0
  6 11  1  0  0  0  0
  6  5  2  0  0  0  0
  7  1  1  0  0  0  0
  8  2  1  0  0  0  0
 10  9  3  0  0  0  0
 14 17  2  0  0  0  0
 15 14  2  0  0  0  0
 16  3  1  0  0  0  0
 16 14  1  0  0  0  0
 18 14  1  0  0  0  0
 19 18  1  0  0  0  0
M  END
