Coordinates from ORCA-job Ph-N2-HSO4-B3LYPG-6-31G_dp-MTMO-d009-169-n800
 OpenBabel09051908053D

 19 18  0  0  0  0  0  0  0  0999 V2000
   -0.5929    1.0092    0.0945 C   0  0  0  0  0  0  0  0  0  0  0  0
    0.6963    0.5429   -0.1664 C   0  0  0  0  0  0  0  0  0  0  0  0
    1.3933   -0.1008    0.8520 C   0  0  0  0  0  0  0  0  0  0  0  0
    0.8471   -0.2886    2.1181 C   0  0  0  0  0  0  0  0  0  0  0  0
   -0.4413    0.1859    2.3656 C   0  0  0  0  0  0  0  0  0  0  0  0
   -1.1614    0.8321    1.3578 C   0  0  0  0  0  0  0  0  0  0  0  0
   -1.1511    1.5095   -0.6908 H   0  0  0  0  0  0  0  0  0  0  0  0
    1.1606    0.6674   -1.1382 H   0  0  0  0  0  0  0  0  0  0  0  0
    6.3392    0.6795   -2.1658 N   0  0  0  0  0  0  0  0  0  0  0  0
    7.2825    0.4123   -2.6735 N   0  0  0  0  0  0  0  0  0  0  0  0
   -2.1645    1.1959    1.5569 H   0  0  0  0  0  0  0  0  0  0  0  0
   -0.8822    0.0474    3.3481 H   0  0  0  0  0  0  0  0  0  0  0  0
    1.4256   -0.7908    2.8846 H   0  0  0  0  0  0  0  0  0  0  0  0
    4.0056    0.1910    0.9724 S   0  0  0  0  0  0  0  0  0  0  0  0
    5.0994   -0.7223    0.7055 O   0  0  0  0  0  0  0  0  0  0  0  0
    2.6596   -0.6481    0.5545 O   0  0  0  0  0  0  0  0  0  0  0  0
    3.7996    0.8458    2.2448 O   0  0  0  0  0  0  0  0  0  0  0  0
    4.0277    1.3588   -0.1553 O   0  0  0  0  0  0  0  0  0  0  0  0
    4.6187    1.0641   -0.8735 H   0  0  0  0  0  0  0  0  0  0  0  0
  1  6  1  0  0  0  0
  2  1  2  0  0  0  0
  2  3  1  0  0  0  0
  3  4  2  0  0  0  0
  4  5  1  0  0  0  0
  4 13  1  0  0  0  0
  5 12  1  0  0  0  0
  6 11  1  0  0  0  0
  6  5  2  0  0  0  0
  7  1  1  0  0  0  0
  8  2  1  0  0  0  0
 10  9  3  0  0  0  0
 14 17  2  0  0  0  0
 15 14  2  0  0  0  0
 16  3  1  0  0  0  0
 16 14  1  0  0  0  0
 18 14  1  0  0  0  0
 19 18  1  0  0  0  0
M  END
