Coordinates from ORCA-job Ph-N2-HSO4-B3LYPG-6-31G_dp-MTMO-d009-169-n800
 OpenBabel09051908053D

 19 18  0  0  0  0  0  0  0  0999 V2000
   -0.9544    1.0032    0.3117 C   0  0  0  0  0  0  0  0  0  0  0  0
    0.3171    0.4541    0.1406 C   0  0  0  0  0  0  0  0  0  0  0  0
    0.9113   -0.2026    1.2140 C   0  0  0  0  0  0  0  0  0  0  0  0
    0.2801   -0.3242    2.4485 C   0  0  0  0  0  0  0  0  0  0  0  0
   -0.9894    0.2323    2.6061 C   0  0  0  0  0  0  0  0  0  0  0  0
   -1.6071    0.8934    1.5415 C   0  0  0  0  0  0  0  0  0  0  0  0
   -1.4332    1.5150   -0.5174 H   0  0  0  0  0  0  0  0  0  0  0  0
    0.8438    0.5242   -0.8047 H   0  0  0  0  0  0  0  0  0  0  0  0
   10.2546    1.3750   -5.1837 N   0  0  0  0  0  0  0  0  0  0  0  0
   11.2979    1.4091   -5.5471 N   0  0  0  0  0  0  0  0  0  0  0  0
   -2.5964    1.3208    1.6698 H   0  0  0  0  0  0  0  0  0  0  0  0
   -1.4962    0.1461    3.5624 H   0  0  0  0  0  0  0  0  0  0  0  0
    0.7800   -0.8398    3.2601 H   0  0  0  0  0  0  0  0  0  0  0  0
    3.5215   -0.0647    1.4924 S   0  0  0  0  0  0  0  0  0  0  0  0
    4.5733   -1.0400    1.2906 O   0  0  0  0  0  0  0  0  0  0  0  0
    2.1568   -0.8337    1.0096 O   0  0  0  0  0  0  0  0  0  0  0  0
    3.2896    0.6288    2.7385 O   0  0  0  0  0  0  0  0  0  0  0  0
    3.6641    1.0920    0.3535 O   0  0  0  0  0  0  0  0  0  0  0  0
    4.1480    0.7024   -0.3948 H   0  0  0  0  0  0  0  0  0  0  0  0
  1  6  1  0  0  0  0
  2  1  2  0  0  0  0
  2  3  1  0  0  0  0
  3  4  2  0  0  0  0
  4  5  1  0  0  0  0
  4 13  1  0  0  0  0
  5 12  1  0  0  0  0
  6 11  1  0  0  0  0
  6  5  2  0  0  0  0
  7  1  1  0  0  0  0
  8  2  1  0  0  0  0
 10  9  3  0  0  0  0
 14 17  2  0  0  0  0
 15 14  2  0  0  0  0
 16  3  1  0  0  0  0
 16 14  1  0  0  0  0
 18 14  1  0  0  0  0
 19 18  1  0  0  0  0
M  END
