Coordinates from ORCA-job Ph-N2-HSO4-B3LYPG-6-31G_dp-MTMO-d009-169-n800
 OpenBabel09051908053D

 19 18  0  0  0  0  0  0  0  0999 V2000
   -1.3479    0.9610    0.5693 C   0  0  0  0  0  0  0  0  0  0  0  0
   -0.0818    0.3938    0.4179 C   0  0  0  0  0  0  0  0  0  0  0  0
    0.4932   -0.2567    1.5055 C   0  0  0  0  0  0  0  0  0  0  0  0
   -0.1520   -0.3547    2.7349 C   0  0  0  0  0  0  0  0  0  0  0  0
   -1.4157    0.2197    2.8726 C   0  0  0  0  0  0  0  0  0  0  0  0
   -2.0143    0.8750    1.7936 C   0  0  0  0  0  0  0  0  0  0  0  0
   -1.8118    1.4681   -0.2711 H   0  0  0  0  0  0  0  0  0  0  0  0
    0.4551    0.4452   -0.5228 H   0  0  0  0  0  0  0  0  0  0  0  0
   13.7577    1.8074   -7.6324 N   0  0  0  0  0  0  0  0  0  0  0  0
   14.8057    1.8849   -7.9752 N   0  0  0  0  0  0  0  0  0  0  0  0
   -2.9994    1.3164    1.9063 H   0  0  0  0  0  0  0  0  0  0  0  0
   -1.9331    0.1521    3.8248 H   0  0  0  0  0  0  0  0  0  0  0  0
    0.3331   -0.8663    3.5580 H   0  0  0  0  0  0  0  0  0  0  0  0
    3.1016   -0.1510    1.8129 S   0  0  0  0  0  0  0  0  0  0  0  0
    4.1430   -1.1410    1.6293 O   0  0  0  0  0  0  0  0  0  0  0  0
    1.7325   -0.9061    1.3212 O   0  0  0  0  0  0  0  0  0  0  0  0
    2.8656    0.5545    3.0515 O   0  0  0  0  0  0  0  0  0  0  0  0
    3.2709    0.9952    0.6671 O   0  0  0  0  0  0  0  0  0  0  0  0
    3.7591    0.5940   -0.0722 H   0  0  0  0  0  0  0  0  0  0  0  0
  1  6  1  0  0  0  0
  2  1  2  0  0  0  0
  2  3  1  0  0  0  0
  3  4  2  0  0  0  0
  4  5  1  0  0  0  0
  4 13  1  0  0  0  0
  5 12  1  0  0  0  0
  6 11  1  0  0  0  0
  6  5  2  0  0  0  0
  7  1  1  0  0  0  0
  8  2  1  0  0  0  0
 10  9  3  0  0  0  0
 14 17  2  0  0  0  0
 15 14  2  0  0  0  0
 16  3  1  0  0  0  0
 16 14  1  0  0  0  0
 18 14  1  0  0  0  0
 19 18  1  0  0  0  0
M  END
