Coordinates from ORCA-job Ph-N2-HSO4-B3LYPG-6-31G_dp-MTMO-d009-169-n800
 OpenBabel09051908053D

 19 17  0  0  0  0  0  0  0  0999 V2000
   -1.0097    0.7710   -0.4800 C   0  0  0  0  0  0  0  0  0  0  0  0
    0.1790    0.5169   -1.2077 C   0  0  0  0  0  0  0  0  0  0  0  0
    1.1469    0.2563   -0.2844 C   0  0  0  0  0  0  0  0  0  0  0  0
    1.2708    0.1854    0.9700 C   0  0  0  0  0  0  0  0  0  0  0  0
    0.0857    0.4364    1.6998 C   0  0  0  0  0  0  0  0  0  0  0  0
   -1.0497    0.7306    0.9250 C   0  0  0  0  0  0  0  0  0  0  0  0
   -1.9116    1.0017   -1.0408 H   0  0  0  0  0  0  0  0  0  0  0  0
    0.2544    0.5357   -2.2864 H   0  0  0  0  0  0  0  0  0  0  0  0
    3.1603   -0.5400   -2.2771 N   0  0  0  0  0  0  0  0  0  0  0  0
    4.0818   -1.0812   -2.5570 N   0  0  0  0  0  0  0  0  0  0  0  0
   -1.9915    0.9352    1.4269 H   0  0  0  0  0  0  0  0  0  0  0  0
    0.0397    0.4094    2.7845 H   0  0  0  0  0  0  0  0  0  0  0  0
    2.8885   -0.1570    1.8067 H   0  0  0  0  0  0  0  0  0  0  0  0
    4.9876    0.3428    1.6572 S   0  0  0  0  0  0  0  0  0  0  0  0
    6.1560   -0.2422    2.2848 O   0  0  0  0  0  0  0  0  0  0  0  0
    4.7963    0.3959    0.2216 O   0  0  0  0  0  0  0  0  0  0  0  0
    3.7146   -0.3383    2.3500 O   0  0  0  0  0  0  0  0  0  0  0  0
    4.8681    1.8908    2.1633 O   0  0  0  0  0  0  0  0  0  0  0  0
    5.2945    1.9419    3.0351 H   0  0  0  0  0  0  0  0  0  0  0  0
  1  6  1  0  0  0  0
  2  1  2  0  0  0  0
  2  3  1  0  0  0  0
  3  4  2  0  0  0  0
  4  5  1  0  0  0  0
  5 12  1  0  0  0  0
  6 11  1  0  0  0  0
  6  5  2  0  0  0  0
  7  1  1  0  0  0  0
  8  2  1  0  0  0  0
 10  9  3  0  0  0  0
 13 17  1  0  0  0  0
 14 18  1  0  0  0  0
 14 15  2  0  0  0  0
 14 17  1  0  0  0  0
 16 14  2  0  0  0  0
 18 19  1  0  0  0  0
M  RAD  2   3   2   4   2
M  END
