Coordinates from ORCA-job Ph-N2-HSO4-B3LYPG-6-31G_dp-MTMO-d009-169-n800
 OpenBabel09051908053D

 19 18  0  0  0  0  0  0  0  0999 V2000
   -0.5319    1.0066    0.0450 C   0  0  0  0  0  0  0  0  0  0  0  0
    0.7721    0.5675   -0.1870 C   0  0  0  0  0  0  0  0  0  0  0  0
    1.4527   -0.0808    0.8396 C   0  0  0  0  0  0  0  0  0  0  0  0
    0.8748   -0.2998    2.0867 C   0  0  0  0  0  0  0  0  0  0  0  0
   -0.4280    0.1487    2.3058 C   0  0  0  0  0  0  0  0  0  0  0  0
   -1.1317    0.7990    1.2890 C   0  0  0  0  0  0  0  0  0  0  0  0
   -1.0772    1.5098   -0.7476 H   0  0  0  0  0  0  0  0  0  0  0  0
    1.2605    0.7157   -1.1436 H   0  0  0  0  0  0  0  0  0  0  0  0
    6.0560    0.6004   -2.1772 N   0  0  0  0  0  0  0  0  0  0  0  0
    6.8399    0.1508   -2.8114 N   0  0  0  0  0  0  0  0  0  0  0  0
   -2.1460    1.1424    1.4661 H   0  0  0  0  0  0  0  0  0  0  0  0
   -0.8933   -0.0138    3.2732 H   0  0  0  0  0  0  0  0  0  0  0  0
    1.4406   -0.8042    2.8610 H   0  0  0  0  0  0  0  0  0  0  0  0
    4.0536    0.2391    1.0681 S   0  0  0  0  0  0  0  0  0  0  0  0
    5.1724   -0.6267    0.7503 O   0  0  0  0  0  0  0  0  0  0  0  0
    2.7359   -0.5990    0.5655 O   0  0  0  0  0  0  0  0  0  0  0  0
    3.8144    0.7884    2.3838 O   0  0  0  0  0  0  0  0  0  0  0  0
    4.0584    1.4907    0.0368 O   0  0  0  0  0  0  0  0  0  0  0  0
    4.6384    1.2565   -0.7125 H   0  0  0  0  0  0  0  0  0  0  0  0
  1  6  1  0  0  0  0
  2  1  2  0  0  0  0
  2  3  1  0  0  0  0
  3  4  2  0  0  0  0
  4  5  1  0  0  0  0
  4 13  1  0  0  0  0
  5 12  1  0  0  0  0
  6 11  1  0  0  0  0
  6  5  2  0  0  0  0
  7  1  1  0  0  0  0
  8  2  1  0  0  0  0
 10  9  3  0  0  0  0
 14 17  2  0  0  0  0
 15 14  2  0  0  0  0
 16  3  1  0  0  0  0
 16 14  1  0  0  0  0
 18 14  1  0  0  0  0
 19 18  1  0  0  0  0
M  END
