Coordinates from ORCA-job Ph-N2-HSO4-B3LYPG-6-31G_dp-MTMO-d009-169-n800
 OpenBabel09051908053D

 19 18  0  0  0  0  0  0  0  0999 V2000
   -0.4958    1.0022    0.0165 C   0  0  0  0  0  0  0  0  0  0  0  0
    0.8121    0.5656   -0.1972 C   0  0  0  0  0  0  0  0  0  0  0  0
    1.4809   -0.0791    0.8394 C   0  0  0  0  0  0  0  0  0  0  0  0
    0.8867   -0.2970    2.0792 C   0  0  0  0  0  0  0  0  0  0  0  0
   -0.4197    0.1493    2.2802 C   0  0  0  0  0  0  0  0  0  0  0  0
   -1.1114    0.7960    1.2530 C   0  0  0  0  0  0  0  0  0  0  0  0
   -1.0317    1.5025   -0.7844 H   0  0  0  0  0  0  0  0  0  0  0  0
    1.3123    0.7125   -1.1480 H   0  0  0  0  0  0  0  0  0  0  0  0
    5.9073    0.5950   -2.1894 N   0  0  0  0  0  0  0  0  0  0  0  0
    6.6432    0.1321   -2.8698 N   0  0  0  0  0  0  0  0  0  0  0  0
   -2.1286    1.1378    1.4160 H   0  0  0  0  0  0  0  0  0  0  0  0
   -0.8974   -0.0122    3.2418 H   0  0  0  0  0  0  0  0  0  0  0  0
    1.4433   -0.7985    2.8619 H   0  0  0  0  0  0  0  0  0  0  0  0
    4.0766    0.2397    1.1187 S   0  0  0  0  0  0  0  0  0  0  0  0
    5.2010   -0.6140    0.7890 O   0  0  0  0  0  0  0  0  0  0  0  0
    2.7684   -0.5941    0.5826 O   0  0  0  0  0  0  0  0  0  0  0  0
    3.8245    0.7562    2.4449 O   0  0  0  0  0  0  0  0  0  0  0  0
    4.0812    1.5177    0.1216 O   0  0  0  0  0  0  0  0  0  0  0  0
    4.6088    1.2797   -0.6644 H   0  0  0  0  0  0  0  0  0  0  0  0
  1  6  1  0  0  0  0
  2  1  2  0  0  0  0
  2  3  1  0  0  0  0
  3  4  2  0  0  0  0
  4  5  1  0  0  0  0
  4 13  1  0  0  0  0
  5 12  1  0  0  0  0
  6 11  1  0  0  0  0
  6  5  2  0  0  0  0
  7  1  1  0  0  0  0
  8  2  1  0  0  0  0
 10  9  3  0  0  0  0
 14 17  2  0  0  0  0
 15 14  2  0  0  0  0
 16  3  1  0  0  0  0
 16 14  1  0  0  0  0
 18 14  1  0  0  0  0
 19 18  1  0  0  0  0
M  END
