Coordinates from ORCA-job Ph-N2-HSO4-B3LYPG-6-31G_dp-MTMO-d009-169-n800
 OpenBabel09051908053D

 19 18  0  0  0  0  0  0  0  0999 V2000
   -0.6797    1.0289    0.1683 C   0  0  0  0  0  0  0  0  0  0  0  0
    0.5869    0.5083   -0.1010 C   0  0  0  0  0  0  0  0  0  0  0  0
    1.2726   -0.1403    0.9215 C   0  0  0  0  0  0  0  0  0  0  0  0
    0.7388   -0.2814    2.1986 C   0  0  0  0  0  0  0  0  0  0  0  0
   -0.5277    0.2452    2.4536 C   0  0  0  0  0  0  0  0  0  0  0  0
   -1.2368    0.8979    1.4422 C   0  0  0  0  0  0  0  0  0  0  0  0
   -1.2297    1.5348   -0.6192 H   0  0  0  0  0  0  0  0  0  0  0  0
    1.0420    0.5959   -1.0812 H   0  0  0  0  0  0  0  0  0  0  0  0
    7.1019    0.8896   -2.4803 N   0  0  0  0  0  0  0  0  0  0  0  0
    8.1256    0.9733   -2.8873 N   0  0  0  0  0  0  0  0  0  0  0  0
   -2.2229    1.3026    1.6469 H   0  0  0  0  0  0  0  0  0  0  0  0
   -0.9599    0.1429    3.4443 H   0  0  0  0  0  0  0  0  0  0  0  0
    1.3092   -0.7905    2.9668 H   0  0  0  0  0  0  0  0  0  0  0  0
    3.8971    0.0775    0.9354 S   0  0  0  0  0  0  0  0  0  0  0  0
    4.9499   -0.9098    0.8028 O   0  0  0  0  0  0  0  0  0  0  0  0
    2.5139   -0.7450    0.6248 O   0  0  0  0  0  0  0  0  0  0  0  0
    3.7187    0.9143    2.1003 O   0  0  0  0  0  0  0  0  0  0  0  0
    3.9791    1.0769   -0.3491 O   0  0  0  0  0  0  0  0  0  0  0  0
    4.5826    0.6703   -0.9960 H   0  0  0  0  0  0  0  0  0  0  0  0
  1  6  1  0  0  0  0
  2  1  2  0  0  0  0
  2  3  1  0  0  0  0
  3  4  2  0  0  0  0
  4  5  1  0  0  0  0
  4 13  1  0  0  0  0
  5 12  1  0  0  0  0
  6 11  1  0  0  0  0
  6  5  2  0  0  0  0
  7  1  1  0  0  0  0
  8  2  1  0  0  0  0
 10  9  3  0  0  0  0
 14 17  2  0  0  0  0
 15 14  2  0  0  0  0
 16  3  1  0  0  0  0
 16 14  1  0  0  0  0
 18 14  1  0  0  0  0
 19 18  1  0  0  0  0
M  END
