Coordinates from ORCA-job Ph-N2-HSO4-B3LYPG-6-31G_dp-MTMO-d009-169-n800
 OpenBabel09051908053D

 19 18  0  0  0  0  0  0  0  0999 V2000
   -0.8194    1.0155    0.2259 C   0  0  0  0  0  0  0  0  0  0  0  0
    0.4535    0.4745    0.0400 C   0  0  0  0  0  0  0  0  0  0  0  0
    1.0625   -0.1821    1.1051 C   0  0  0  0  0  0  0  0  0  0  0  0
    0.4447   -0.3115    2.3455 C   0  0  0  0  0  0  0  0  0  0  0  0
   -0.8263    0.2369    2.5179 C   0  0  0  0  0  0  0  0  0  0  0  0
   -1.4588    0.8977    1.4619 C   0  0  0  0  0  0  0  0  0  0  0  0
   -1.3096    1.5271   -0.5966 H   0  0  0  0  0  0  0  0  0  0  0  0
    0.9701    0.5508   -0.9103 H   0  0  0  0  0  0  0  0  0  0  0  0
    8.9898    1.1998   -4.2591 N   0  0  0  0  0  0  0  0  0  0  0  0
   10.0265    1.2433   -4.6397 N   0  0  0  0  0  0  0  0  0  0  0  0
   -2.4493    1.3188    1.6018 H   0  0  0  0  0  0  0  0  0  0  0  0
   -1.3229    0.1445    3.4790 H   0  0  0  0  0  0  0  0  0  0  0  0
    0.9559   -0.8269    3.1502 H   0  0  0  0  0  0  0  0  0  0  0  0
    3.6747   -0.0289    1.3559 S   0  0  0  0  0  0  0  0  0  0  0  0
    4.7299   -0.9982    1.1432 O   0  0  0  0  0  0  0  0  0  0  0  0
    2.3096   -0.8052    0.8860 O   0  0  0  0  0  0  0  0  0  0  0  0
    3.4510    0.6624    2.6047 O   0  0  0  0  0  0  0  0  0  0  0  0
    3.8000    1.1293    0.2166 O   0  0  0  0  0  0  0  0  0  0  0  0
    4.2798    0.7435   -0.5363 H   0  0  0  0  0  0  0  0  0  0  0  0
  1  6  1  0  0  0  0
  2  1  2  0  0  0  0
  2  3  1  0  0  0  0
  3  4  2  0  0  0  0
  4  5  1  0  0  0  0
  4 13  1  0  0  0  0
  5 12  1  0  0  0  0
  6 11  1  0  0  0  0
  6  5  2  0  0  0  0
  7  1  1  0  0  0  0
  8  2  1  0  0  0  0
 10  9  3  0  0  0  0
 14 17  2  0  0  0  0
 15 14  2  0  0  0  0
 16  3  1  0  0  0  0
 16 14  1  0  0  0  0
 18 14  1  0  0  0  0
 19 18  1  0  0  0  0
M  END
