Coordinates from ORCA-job Ph-N2-HSO4-B3LYPG-6-31G_dp-MTMO-d009-169-n800
 OpenBabel09051908053D

 19 18  0  0  0  0  0  0  0  0999 V2000
   -1.2357    0.9733    0.4941 C   0  0  0  0  0  0  0  0  0  0  0  0
    0.0312    0.4085    0.3408 C   0  0  0  0  0  0  0  0  0  0  0  0
    0.6082   -0.2428    1.4268 C   0  0  0  0  0  0  0  0  0  0  0  0
   -0.0358   -0.3438    2.6566 C   0  0  0  0  0  0  0  0  0  0  0  0
   -1.3004    0.2283    2.7963 C   0  0  0  0  0  0  0  0  0  0  0  0
   -1.9009    0.8843    1.7188 C   0  0  0  0  0  0  0  0  0  0  0  0
   -1.7011    1.4810   -0.3451 H   0  0  0  0  0  0  0  0  0  0  0  0
    0.5673    0.4622   -0.6003 H   0  0  0  0  0  0  0  0  0  0  0  0
   12.7871    1.6909   -6.9676 N   0  0  0  0  0  0  0  0  0  0  0  0
   13.8347    1.7661   -7.3118 N   0  0  0  0  0  0  0  0  0  0  0  0
   -2.8866    1.3238    1.8330 H   0  0  0  0  0  0  0  0  0  0  0  0
   -1.8169    0.1583    3.7488 H   0  0  0  0  0  0  0  0  0  0  0  0
    0.4508   -0.8559    3.4785 H   0  0  0  0  0  0  0  0  0  0  0  0
    3.2168   -0.1328    1.7317 S   0  0  0  0  0  0  0  0  0  0  0  0
    4.2597   -1.1209    1.5463 O   0  0  0  0  0  0  0  0  0  0  0  0
    1.8484   -0.8898    1.2406 O   0  0  0  0  0  0  0  0  0  0  0  0
    2.9807    0.5713    2.9710 O   0  0  0  0  0  0  0  0  0  0  0  0
    3.3831    1.0146    0.5866 O   0  0  0  0  0  0  0  0  0  0  0  0
    3.8710    0.6149   -0.1536 H   0  0  0  0  0  0  0  0  0  0  0  0
  1  6  1  0  0  0  0
  2  1  2  0  0  0  0
  2  3  1  0  0  0  0
  3  4  2  0  0  0  0
  4  5  1  0  0  0  0
  4 13  1  0  0  0  0
  5 12  1  0  0  0  0
  6 11  1  0  0  0  0
  6  5  2  0  0  0  0
  7  1  1  0  0  0  0
  8  2  1  0  0  0  0
 10  9  3  0  0  0  0
 14 17  2  0  0  0  0
 15 14  2  0  0  0  0
 16  3  1  0  0  0  0
 16 14  1  0  0  0  0
 18 14  1  0  0  0  0
 19 18  1  0  0  0  0
M  END
