Coordinates from ORCA-job Ph-N2-HSO4-B3LYPG-6-31G_dp-MTMO-d009-169-n800
 OpenBabel09051908053D

 19 18  0  0  0  0  0  0  0  0999 V2000
   -0.3478    1.0243   -0.0726 C   0  0  0  0  0  0  0  0  0  0  0  0
    0.9825    0.6311   -0.2237 C   0  0  0  0  0  0  0  0  0  0  0  0
    1.6053   -0.0436    0.8225 C   0  0  0  0  0  0  0  0  0  0  0  0
    0.9422   -0.3337    2.0117 C   0  0  0  0  0  0  0  0  0  0  0  0
   -0.3859    0.0698    2.1510 C   0  0  0  0  0  0  0  0  0  0  0  0
   -1.0315    0.7461    1.1129 C   0  0  0  0  0  0  0  0  0  0  0  0
   -0.8475    1.5478   -0.8821 H   0  0  0  0  0  0  0  0  0  0  0  0
    1.5344    0.8340   -1.1348 H   0  0  0  0  0  0  0  0  0  0  0  0
    5.2891    0.4559   -2.1901 N   0  0  0  0  0  0  0  0  0  0  0  0
    5.6912   -0.1793   -2.9985 N   0  0  0  0  0  0  0  0  0  0  0  0
   -2.0656    1.0555    1.2278 H   0  0  0  0  0  0  0  0  0  0  0  0
   -0.9165   -0.1481    3.0729 H   0  0  0  0  0  0  0  0  0  0  0  0
    1.4640   -0.8565    2.8046 H   0  0  0  0  0  0  0  0  0  0  0  0
    4.1664    0.3215    1.2989 S   0  0  0  0  0  0  0  0  0  0  0  0
    5.3317   -0.4791    0.9801 O   0  0  0  0  0  0  0  0  0  0  0  0
    2.9200   -0.5112    0.6249 O   0  0  0  0  0  0  0  0  0  0  0  0
    3.8243    0.7409    2.6387 O   0  0  0  0  0  0  0  0  0  0  0  0
    4.1803    1.6661    0.3944 O   0  0  0  0  0  0  0  0  0  0  0  0
    4.6249    1.4497   -0.4471 H   0  0  0  0  0  0  0  0  0  0  0  0
  1  6  1  0  0  0  0
  2  1  2  0  0  0  0
  2  3  1  0  0  0  0
  3  4  2  0  0  0  0
  4  5  1  0  0  0  0
  4 13  1  0  0  0  0
  5 12  1  0  0  0  0
  6 11  1  0  0  0  0
  6  5  2  0  0  0  0
  7  1  1  0  0  0  0
  8  2  1  0  0  0  0
 10  9  3  0  0  0  0
 14 17  2  0  0  0  0
 15 14  2  0  0  0  0
 16  3  1  0  0  0  0
 16 14  1  0  0  0  0
 18 14  1  0  0  0  0
 19 18  1  0  0  0  0
M  END
