Coordinates from ORCA-job Ph-N2-HSO4-B3LYPG-6-31G_dp-MTMO-d009-169-n800
 OpenBabel09051908053D

 19 18  0  0  0  0  0  0  0  0999 V2000
   -0.9296    1.0057    0.2959 C   0  0  0  0  0  0  0  0  0  0  0  0
    0.3424    0.4583    0.1223 C   0  0  0  0  0  0  0  0  0  0  0  0
    0.9390   -0.1987    1.1941 C   0  0  0  0  0  0  0  0  0  0  0  0
    0.3098   -0.3224    2.4295 C   0  0  0  0  0  0  0  0  0  0  0  0
   -0.9600    0.2323    2.5895 C   0  0  0  0  0  0  0  0  0  0  0  0
   -1.5802    0.8937    1.5266 C   0  0  0  0  0  0  0  0  0  0  0  0
   -1.4102    1.5176   -0.5320 H   0  0  0  0  0  0  0  0  0  0  0  0
    0.8675    0.5300   -0.8237 H   0  0  0  0  0  0  0  0  0  0  0  0
   10.0239    1.3447   -5.0169 N   0  0  0  0  0  0  0  0  0  0  0  0
   11.0662    1.3755   -5.3832 N   0  0  0  0  0  0  0  0  0  0  0  0
   -2.5699    1.3198    1.6569 H   0  0  0  0  0  0  0  0  0  0  0  0
   -1.4653    0.1446    3.5465 H   0  0  0  0  0  0  0  0  0  0  0  0
    0.8117   -0.8382    3.2398 H   0  0  0  0  0  0  0  0  0  0  0  0
    3.5495   -0.0577    1.4684 S   0  0  0  0  0  0  0  0  0  0  0  0
    4.6022   -1.0316    1.2644 O   0  0  0  0  0  0  0  0  0  0  0  0
    2.1850   -0.8281    0.9872 O   0  0  0  0  0  0  0  0  0  0  0  0
    3.3186    0.6346    2.7153 O   0  0  0  0  0  0  0  0  0  0  0  0
    3.6890    1.0999    0.3301 O   0  0  0  0  0  0  0  0  0  0  0  0
    4.1722    0.7114   -0.4192 H   0  0  0  0  0  0  0  0  0  0  0  0
  1  6  1  0  0  0  0
  2  1  2  0  0  0  0
  2  3  1  0  0  0  0
  3  4  2  0  0  0  0
  4  5  1  0  0  0  0
  4 13  1  0  0  0  0
  5 12  1  0  0  0  0
  6 11  1  0  0  0  0
  6  5  2  0  0  0  0
  7  1  1  0  0  0  0
  8  2  1  0  0  0  0
 10  9  3  0  0  0  0
 14 17  2  0  0  0  0
 15 14  2  0  0  0  0
 16  3  1  0  0  0  0
 16 14  1  0  0  0  0
 18 14  1  0  0  0  0
 19 18  1  0  0  0  0
M  END
