Coordinates from ORCA-job Ph-N2-HSO4-B3LYPG-6-31G_dp-MTMO-d009-169-n800
 OpenBabel09051908053D

 19 18  0  0  0  0  0  0  0  0999 V2000
   -0.7942    1.0171    0.2102 C   0  0  0  0  0  0  0  0  0  0  0  0
    0.4786    0.4775    0.0195 C   0  0  0  0  0  0  0  0  0  0  0  0
    1.0926   -0.1781    1.0825 C   0  0  0  0  0  0  0  0  0  0  0  0
    0.4798   -0.3077    2.3254 C   0  0  0  0  0  0  0  0  0  0  0  0
   -0.7912    0.2392    2.5025 C   0  0  0  0  0  0  0  0  0  0  0  0
   -1.4285    0.8990    1.4488 C   0  0  0  0  0  0  0  0  0  0  0  0
   -1.2882    1.5278   -0.6105 H   0  0  0  0  0  0  0  0  0  0  0  0
    0.9915    0.5541   -0.9328 H   0  0  0  0  0  0  0  0  0  0  0  0
    8.7368    1.1676   -4.0596 N   0  0  0  0  0  0  0  0  0  0  0  0
    9.7707    1.2078   -4.4481 N   0  0  0  0  0  0  0  0  0  0  0  0
   -2.4190    1.3189    1.5924 H   0  0  0  0  0  0  0  0  0  0  0  0
   -1.2838    0.1466    3.4656 H   0  0  0  0  0  0  0  0  0  0  0  0
    0.9948   -0.8222    3.1282 H   0  0  0  0  0  0  0  0  0  0  0  0
    3.7057   -0.0215    1.3224 S   0  0  0  0  0  0  0  0  0  0  0  0
    4.7610   -0.9902    1.1076 O   0  0  0  0  0  0  0  0  0  0  0  0
    2.3395   -0.7998    0.8587 O   0  0  0  0  0  0  0  0  0  0  0  0
    3.4858    0.6716    2.5709 O   0  0  0  0  0  0  0  0  0  0  0  0
    3.8260    1.1350    0.1808 O   0  0  0  0  0  0  0  0  0  0  0  0
    4.3041    0.7487   -0.5728 H   0  0  0  0  0  0  0  0  0  0  0  0
  1  6  1  0  0  0  0
  2  1  2  0  0  0  0
  2  3  1  0  0  0  0
  3  4  2  0  0  0  0
  4  5  1  0  0  0  0
  4 13  1  0  0  0  0
  5 12  1  0  0  0  0
  6 11  1  0  0  0  0
  6  5  2  0  0  0  0
  7  1  1  0  0  0  0
  8  2  1  0  0  0  0
 10  9  3  0  0  0  0
 14 17  2  0  0  0  0
 15 14  2  0  0  0  0
 16  3  1  0  0  0  0
 16 14  1  0  0  0  0
 18 14  1  0  0  0  0
 19 18  1  0  0  0  0
M  END
