Coordinates from ORCA-job Ph-N2-HSO4-B3LYPG-6-31G_dp-MTMO-d009-169-n800
 OpenBabel09051908053D

 19 17  0  0  0  0  0  0  0  0999 V2000
   -1.0246    0.7681   -0.4861 C   0  0  0  0  0  0  0  0  0  0  0  0
    0.1322    0.4883   -1.2541 C   0  0  0  0  0  0  0  0  0  0  0  0
    1.1314    0.2254   -0.3658 C   0  0  0  0  0  0  0  0  0  0  0  0
    1.3063    0.1681    0.8845 C   0  0  0  0  0  0  0  0  0  0  0  0
    0.1504    0.4453    1.6522 C   0  0  0  0  0  0  0  0  0  0  0  0
   -1.0108    0.7456    0.9194 C   0  0  0  0  0  0  0  0  0  0  0  0
   -1.9441    1.0048   -1.0150 H   0  0  0  0  0  0  0  0  0  0  0  0
    0.1668    0.4929   -2.3352 H   0  0  0  0  0  0  0  0  0  0  0  0
    3.0778   -0.5330   -2.1733 N   0  0  0  0  0  0  0  0  0  0  0  0
    4.0079   -1.0854   -2.3977 N   0  0  0  0  0  0  0  0  0  0  0  0
   -1.9296    0.9691    1.4546 H   0  0  0  0  0  0  0  0  0  0  0  0
    0.1459    0.4331    2.7382 H   0  0  0  0  0  0  0  0  0  0  0  0
    2.9084   -0.1761    1.7238 H   0  0  0  0  0  0  0  0  0  0  0  0
    5.0032    0.3688    1.6630 S   0  0  0  0  0  0  0  0  0  0  0  0
    6.1645   -0.2338    2.2878 O   0  0  0  0  0  0  0  0  0  0  0  0
    4.8486    0.4993    0.2279 O   0  0  0  0  0  0  0  0  0  0  0  0
    3.7234   -0.3667    2.2829 O   0  0  0  0  0  0  0  0  0  0  0  0
    4.8478    1.8844    2.2514 O   0  0  0  0  0  0  0  0  0  0  0  0
    5.2563    1.8931    3.1331 H   0  0  0  0  0  0  0  0  0  0  0  0
  1  6  1  0  0  0  0
  2  1  2  0  0  0  0
  2  3  1  0  0  0  0
  3  4  2  0  0  0  0
  4  5  1  0  0  0  0
  5 12  1  0  0  0  0
  6 11  1  0  0  0  0
  6  5  2  0  0  0  0
  7  1  1  0  0  0  0
  8  2  1  0  0  0  0
 10  9  3  0  0  0  0
 13 17  1  0  0  0  0
 14 18  1  0  0  0  0
 14 17  1  0  0  0  0
 14 15  2  0  0  0  0
 16 14  2  0  0  0  0
 18 19  1  0  0  0  0
M  RAD  2   3   2   4   2
M  END
