Coordinates from ORCA-job Ph-N2-HSO4-B3LYPG-6-31G_dp-MTMO-d009-169-n800
 OpenBabel09051908053D

 19 18  0  0  0  0  0  0  0  0999 V2000
   -1.1426    0.9835    0.4327 C   0  0  0  0  0  0  0  0  0  0  0  0
    0.1255    0.4223    0.2759 C   0  0  0  0  0  0  0  0  0  0  0  0
    0.7058   -0.2304    1.3593 C   0  0  0  0  0  0  0  0  0  0  0  0
    0.0641   -0.3363    2.5899 C   0  0  0  0  0  0  0  0  0  0  0  0
   -1.2017    0.2323    2.7331 C   0  0  0  0  0  0  0  0  0  0  0  0
   -1.8056    0.8896    1.6583 C   0  0  0  0  0  0  0  0  0  0  0  0
   -1.6106    1.4923   -0.4044 H   0  0  0  0  0  0  0  0  0  0  0  0
    0.6599    0.4798   -0.6659 H   0  0  0  0  0  0  0  0  0  0  0  0
   11.9674    1.5893   -6.3995 N   0  0  0  0  0  0  0  0  0  0  0  0
   13.0142    1.6598   -6.7470 N   0  0  0  0  0  0  0  0  0  0  0  0
   -2.7922    1.3264    1.7753 H   0  0  0  0  0  0  0  0  0  0  0  0
   -1.7164    0.1585    3.6862 H   0  0  0  0  0  0  0  0  0  0  0  0
    0.5534   -0.8493    3.4096 H   0  0  0  0  0  0  0  0  0  0  0  0
    3.3147   -0.1140    1.6591 S   0  0  0  0  0  0  0  0  0  0  0  0
    4.3597   -1.0993    1.4706 O   0  0  0  0  0  0  0  0  0  0  0  0
    1.9474   -0.8739    1.1695 O   0  0  0  0  0  0  0  0  0  0  0  0
    3.0790    0.5878    2.8998 O   0  0  0  0  0  0  0  0  0  0  0  0
    3.4761    1.0353    0.5154 O   0  0  0  0  0  0  0  0  0  0  0  0
    3.9633    0.6378   -0.2265 H   0  0  0  0  0  0  0  0  0  0  0  0
  1  6  1  0  0  0  0
  2  1  2  0  0  0  0
  2  3  1  0  0  0  0
  3  4  2  0  0  0  0
  4  5  1  0  0  0  0
  4 13  1  0  0  0  0
  5 12  1  0  0  0  0
  6 11  1  0  0  0  0
  6  5  2  0  0  0  0
  7  1  1  0  0  0  0
  8  2  1  0  0  0  0
 10  9  3  0  0  0  0
 14 17  2  0  0  0  0
 15 14  2  0  0  0  0
 16  3  1  0  0  0  0
 16 14  1  0  0  0  0
 18 14  1  0  0  0  0
 19 18  1  0  0  0  0
M  END
