Coordinates from ORCA-job Ph-N2-HSO4-B3LYPG-6-31G_dp-MTMO-d009-169-n800
 OpenBabel09051908053D

 19 18  0  0  0  0  0  0  0  0999 V2000
   -0.7304    1.0186    0.1722 C   0  0  0  0  0  0  0  0  0  0  0  0
    0.5394    0.4787   -0.0365 C   0  0  0  0  0  0  0  0  0  0  0  0
    1.1720   -0.1689    1.0204 C   0  0  0  0  0  0  0  0  0  0  0  0
    0.5808   -0.2901    2.2745 C   0  0  0  0  0  0  0  0  0  0  0  0
   -0.6875    0.2571    2.4695 C   0  0  0  0  0  0  0  0  0  0  0  0
   -1.3434    0.9088    1.4222 C   0  0  0  0  0  0  0  0  0  0  0  0
   -1.2389    1.5231   -0.6435 H   0  0  0  0  0  0  0  0  0  0  0  0
    1.0359    0.5491   -0.9980 H   0  0  0  0  0  0  0  0  0  0  0  0
    8.0495    1.0869   -3.4703 N   0  0  0  0  0  0  0  0  0  0  0  0
    9.0726    1.1383   -3.8852 N   0  0  0  0  0  0  0  0  0  0  0  0
   -2.3316    1.3289    1.5799 H   0  0  0  0  0  0  0  0  0  0  0  0
   -1.1634    0.1710    3.4416 H   0  0  0  0  0  0  0  0  0  0  0  0
    1.1100   -0.7985    3.0719 H   0  0  0  0  0  0  0  0  0  0  0  0
    3.7892   -0.0067    1.2091 S   0  0  0  0  0  0  0  0  0  0  0  0
    4.8404   -0.9805    0.9970 O   0  0  0  0  0  0  0  0  0  0  0  0
    2.4154   -0.7915    0.7801 O   0  0  0  0  0  0  0  0  0  0  0  0
    3.5882    0.7095    2.4477 O   0  0  0  0  0  0  0  0  0  0  0  0
    3.8947    1.1279    0.0444 O   0  0  0  0  0  0  0  0  0  0  0  0
    4.3687    0.7295   -0.7057 H   0  0  0  0  0  0  0  0  0  0  0  0
  1  6  1  0  0  0  0
  2  1  2  0  0  0  0
  2  3  1  0  0  0  0
  3  4  2  0  0  0  0
  4  5  1  0  0  0  0
  4 13  1  0  0  0  0
  5 12  1  0  0  0  0
  6 11  1  0  0  0  0
  6  5  2  0  0  0  0
  7  1  1  0  0  0  0
  8  2  1  0  0  0  0
 10  9  3  0  0  0  0
 14 17  2  0  0  0  0
 15 14  2  0  0  0  0
 16  3  1  0  0  0  0
 16 14  1  0  0  0  0
 18 14  1  0  0  0  0
 19 18  1  0  0  0  0
M  END
