Coordinates from ORCA-job Ph-N2-HSO4-B3LYPG-6-31G_dp-MTMO-d009-169-n800
 OpenBabel09051908053D

 19 19  0  0  1  0  0  0  0  0999 V2000
   -0.5543   -0.1189   -0.2778 C   0  0  0  0  0  0  0  0  0  0  0  0
    0.3519    0.2777   -1.2030 C   0  0  0  0  0  0  0  0  0  0  0  0
    1.6029    0.8707   -0.7732 C   0  0  0  0  0  0  0  0  0  0  0  0
    2.0260    0.8442    0.6643 C   0  0  1  0  0  0  0  0  0  0  0  0
    0.8951    0.5558    1.5817 C   0  0  0  0  0  0  0  0  0  0  0  0
   -0.2828    0.0714    1.1312 C   0  0  0  0  0  0  0  0  0  0  0  0
   -1.4961   -0.5575   -0.5881 H   0  0  0  0  0  0  0  0  0  0  0  0
    0.1701    0.1807   -2.2687 H   0  0  0  0  0  0  0  0  0  0  0  0
    2.3853    1.3621   -1.6009 N   0  0  0  0  0  0  0  0  0  0  0  0
    3.1093    1.8177   -2.3593 N   0  0  0  0  0  0  0  0  0  0  0  0
   -1.0660   -0.1695    1.8448 H   0  0  0  0  0  0  0  0  0  0  0  0
    1.0820    0.6996    2.6402 H   0  0  0  0  0  0  0  0  0  0  0  0
    2.6010    1.7312    0.9360 H   0  0  0  0  0  0  0  0  0  0  0  0
    4.4391   -0.0242    1.5143 S   0  0  0  0  0  0  0  0  0  0  0  0
    5.2558   -1.2106    1.3748 O   0  0  0  0  0  0  0  0  0  0  0  0
    4.9532    1.2936    1.1531 O   0  0  0  0  0  0  0  0  0  0  0  0
    3.0457   -0.3209    0.8025 O   0  0  0  0  0  0  0  0  0  0  0  0
    3.8890    0.0924    3.0605 O   0  0  0  0  0  0  0  0  0  0  0  0
    4.5545    0.5961    3.5592 H   0  0  0  0  0  0  0  0  0  0  0  0
  1  6  1  0  0  0  0
  2  3  2  0  0  0  0
  2  1  1  0  0  0  0
  3  4  1  0  0  0  0
  4 17  1  0  0  0  0
  4 13  1  1  0  0  0
  4  5  1  0  0  0  0
  5 12  1  0  0  0  0
  6  5  2  0  0  0  0
  6 11  1  0  0  0  0
  7  1  1  0  0  0  0
  8  2  1  0  0  0  0
  9  3  1  0  0  0  0
 10  9  1  0  0  0  0
 14 18  1  0  0  0  0
 15 14  2  0  0  0  0
 16 14  2  0  0  0  0
 17 14  1  0  0  0  0
 18 19  1  0  0  0  0
M  RAD  3   1   2   9   2  10   3
M  END
