Coordinates from ORCA-job Ph-N2-HSO4-B3LYPG-6-31G_dp-MTMO-d009-169-n800
 OpenBabel09051908053D

 19 18  0  0  0  0  0  0  0  0999 V2000
   -1.0329    0.9952    0.3619 C   0  0  0  0  0  0  0  0  0  0  0  0
    0.2370    0.4403    0.1978 C   0  0  0  0  0  0  0  0  0  0  0  0
    0.8243   -0.2146    1.2761 C   0  0  0  0  0  0  0  0  0  0  0  0
    0.1877   -0.3290    2.5085 C   0  0  0  0  0  0  0  0  0  0  0  0
   -1.0800    0.2332    2.6589 C   0  0  0  0  0  0  0  0  0  0  0  0
   -1.6909    0.8927    1.5895 C   0  0  0  0  0  0  0  0  0  0  0  0
   -1.5063    1.5057   -0.4711 H   0  0  0  0  0  0  0  0  0  0  0  0
    0.7677    0.5046   -0.7457 H   0  0  0  0  0  0  0  0  0  0  0  0
   10.9781    1.4657   -5.7020 N   0  0  0  0  0  0  0  0  0  0  0  0
   12.0234    1.5192   -6.0571 N   0  0  0  0  0  0  0  0  0  0  0  0
   -2.6790    1.3246    1.7122 H   0  0  0  0  0  0  0  0  0  0  0  0
   -1.5910    0.1528    3.6136 H   0  0  0  0  0  0  0  0  0  0  0  0
    0.6824   -0.8435    3.3241 H   0  0  0  0  0  0  0  0  0  0  0  0
    3.4339   -0.0869    1.5651 S   0  0  0  0  0  0  0  0  0  0  0  0
    4.4826   -1.0669    1.3701 O   0  0  0  0  0  0  0  0  0  0  0  0
    2.0681   -0.8516    1.0788 O   0  0  0  0  0  0  0  0  0  0  0  0
    3.1998    0.6107    2.8085 O   0  0  0  0  0  0  0  0  0  0  0  0
    3.5857    1.0662    0.4238 O   0  0  0  0  0  0  0  0  0  0  0  0
    4.0713    0.6727   -0.3213 H   0  0  0  0  0  0  0  0  0  0  0  0
  1  6  1  0  0  0  0
  2  1  2  0  0  0  0
  2  3  1  0  0  0  0
  3  4  2  0  0  0  0
  4  5  1  0  0  0  0
  4 13  1  0  0  0  0
  5 12  1  0  0  0  0
  6 11  1  0  0  0  0
  6  5  2  0  0  0  0
  7  1  1  0  0  0  0
  8  2  1  0  0  0  0
 10  9  3  0  0  0  0
 14 17  2  0  0  0  0
 15 14  2  0  0  0  0
 16  3  1  0  0  0  0
 16 14  1  0  0  0  0
 18 14  1  0  0  0  0
 19 18  1  0  0  0  0
M  END
