Coordinates from ORCA-job Ph-N2-HSO4-B3LYPG-6-31G_dp-MTMO-d009-169-n800
 OpenBabel09051908053D

 19 18  0  0  0  0  0  0  0  0999 V2000
   -0.9872    1.0000    0.3326 C   0  0  0  0  0  0  0  0  0  0  0  0
    0.2837    0.4484    0.1646 C   0  0  0  0  0  0  0  0  0  0  0  0
    0.8748   -0.2076    1.2401 C   0  0  0  0  0  0  0  0  0  0  0  0
    0.2412   -0.3263    2.4737 C   0  0  0  0  0  0  0  0  0  0  0  0
   -1.0276    0.2326    2.6281 C   0  0  0  0  0  0  0  0  0  0  0  0
   -1.6423    0.8931    1.5614 C   0  0  0  0  0  0  0  0  0  0  0  0
   -1.4636    1.5112   -0.4982 H   0  0  0  0  0  0  0  0  0  0  0  0
    0.8122    0.5161   -0.7798 H   0  0  0  0  0  0  0  0  0  0  0  0
   10.5581    1.4136   -5.4019 N   0  0  0  0  0  0  0  0  0  0  0  0
   11.6023    1.4549   -5.7616 N   0  0  0  0  0  0  0  0  0  0  0  0
   -2.6311    1.3224    1.6873 H   0  0  0  0  0  0  0  0  0  0  0  0
   -1.5363    0.1488    3.5837 H   0  0  0  0  0  0  0  0  0  0  0  0
    0.7388   -0.8415    3.2870 H   0  0  0  0  0  0  0  0  0  0  0  0
    3.4847   -0.0740    1.5233 S   0  0  0  0  0  0  0  0  0  0  0  0
    4.5353   -1.0513    1.3245 O   0  0  0  0  0  0  0  0  0  0  0  0
    2.1196   -0.8412    1.0388 O   0  0  0  0  0  0  0  0  0  0  0  0
    3.2517    0.6211    2.7682 O   0  0  0  0  0  0  0  0  0  0  0  0
    3.6314    1.0811    0.3834 O   0  0  0  0  0  0  0  0  0  0  0  0
    4.1160    0.6900   -0.3635 H   0  0  0  0  0  0  0  0  0  0  0  0
  1  6  1  0  0  0  0
  2  1  2  0  0  0  0
  2  3  1  0  0  0  0
  3  4  2  0  0  0  0
  4  5  1  0  0  0  0
  4 13  1  0  0  0  0
  5 12  1  0  0  0  0
  6 11  1  0  0  0  0
  6  5  2  0  0  0  0
  7  1  1  0  0  0  0
  8  2  1  0  0  0  0
 10  9  3  0  0  0  0
 14 17  2  0  0  0  0
 15 14  2  0  0  0  0
 16  3  1  0  0  0  0
 16 14  1  0  0  0  0
 18 14  1  0  0  0  0
 19 18  1  0  0  0  0
M  END
