Coordinates from ORCA-job Ph-N2-HSO4-B3LYPG-6-31G_dp-MTMO-d009-169-n800
 OpenBabel09051908053D

 19 18  0  0  0  0  0  0  0  0999 V2000
   -0.6774    1.0306    0.1714 C   0  0  0  0  0  0  0  0  0  0  0  0
    0.5900    0.5175   -0.1081 C   0  0  0  0  0  0  0  0  0  0  0  0
    1.2847   -0.1332    0.9070 C   0  0  0  0  0  0  0  0  0  0  0  0
    0.7590   -0.2837    2.1864 C   0  0  0  0  0  0  0  0  0  0  0  0
   -0.5084    0.2353    2.4515 C   0  0  0  0  0  0  0  0  0  0  0  0
   -1.2265    0.8901    1.4478 C   0  0  0  0  0  0  0  0  0  0  0  0
   -1.2344    1.5381   -0.6102 H   0  0  0  0  0  0  0  0  0  0  0  0
    1.0392    0.6125   -1.0903 H   0  0  0  0  0  0  0  0  0  0  0  0
    6.9870    0.8523   -2.3637 N   0  0  0  0  0  0  0  0  0  0  0  0
    8.0153    0.9216   -2.7614 N   0  0  0  0  0  0  0  0  0  0  0  0
   -2.2133    1.2890    1.6604 H   0  0  0  0  0  0  0  0  0  0  0  0
   -0.9344    0.1256    3.4441 H   0  0  0  0  0  0  0  0  0  0  0  0
    1.3364   -0.7943    2.9485 H   0  0  0  0  0  0  0  0  0  0  0  0
    3.9094    0.0980    0.8990 S   0  0  0  0  0  0  0  0  0  0  0  0
    4.9650   -0.8882    0.7804 O   0  0  0  0  0  0  0  0  0  0  0  0
    2.5272   -0.7305    0.5998 O   0  0  0  0  0  0  0  0  0  0  0  0
    3.7288    0.9487    2.0538 O   0  0  0  0  0  0  0  0  0  0  0  0
    3.9901    1.0783   -0.3999 O   0  0  0  0  0  0  0  0  0  0  0  0
    4.6241    0.6834   -1.0251 H   0  0  0  0  0  0  0  0  0  0  0  0
  1  6  1  0  0  0  0
  2  1  2  0  0  0  0
  2  3  1  0  0  0  0
  3  4  2  0  0  0  0
  4  5  1  0  0  0  0
  4 13  1  0  0  0  0
  5 12  1  0  0  0  0
  6 11  1  0  0  0  0
  6  5  2  0  0  0  0
  7  1  1  0  0  0  0
  8  2  1  0  0  0  0
 10  9  3  0  0  0  0
 14 17  2  0  0  0  0
 15 14  2  0  0  0  0
 16 14  1  0  0  0  0
 16  3  1  0  0  0  0
 18 14  1  0  0  0  0
 19 18  1  0  0  0  0
M  END
