Coordinates from ORCA-job Ph-N2-HSO4-B3LYPG-6-31G_dp-MTMO-d009-169-n800
 OpenBabel09051908053D

 19 17  0  0  0  0  0  0  0  0999 V2000
   -1.0163    0.7700   -0.4806 C   0  0  0  0  0  0  0  0  0  0  0  0
    0.1633    0.5097   -1.2205 C   0  0  0  0  0  0  0  0  0  0  0  0
    1.1412    0.2499   -0.3075 C   0  0  0  0  0  0  0  0  0  0  0  0
    1.2792    0.1835    0.9459 C   0  0  0  0  0  0  0  0  0  0  0  0
    0.1029    0.4406    1.6878 C   0  0  0  0  0  0  0  0  0  0  0  0
   -1.0405    0.7350    0.9249 C   0  0  0  0  0  0  0  0  0  0  0  0
   -1.9238    1.0013   -1.0321 H   0  0  0  0  0  0  0  0  0  0  0  0
    0.2266    0.5244   -2.3001 H   0  0  0  0  0  0  0  0  0  0  0  0
    3.1456   -0.5403   -2.2523 N   0  0  0  0  0  0  0  0  0  0  0  0
    4.0696   -1.0844   -2.5181 N   0  0  0  0  0  0  0  0  0  0  0  0
   -1.9760    0.9440    1.4368 H   0  0  0  0  0  0  0  0  0  0  0  0
    0.0693    0.4180    2.7730 H   0  0  0  0  0  0  0  0  0  0  0  0
    2.8941   -0.1620    1.7828 H   0  0  0  0  0  0  0  0  0  0  0  0
    4.9927    0.3490    1.6592 S   0  0  0  0  0  0  0  0  0  0  0  0
    6.1581   -0.2406    2.2884 O   0  0  0  0  0  0  0  0  0  0  0  0
    4.8140    0.4228    0.2229 O   0  0  0  0  0  0  0  0  0  0  0  0
    3.7164   -0.3473    2.3307 O   0  0  0  0  0  0  0  0  0  0  0  0
    4.8624    1.8888    2.1876 O   0  0  0  0  0  0  0  0  0  0  0  0
    5.2831    1.9288    3.0627 H   0  0  0  0  0  0  0  0  0  0  0  0
  1  6  1  0  0  0  0
  2  1  2  0  0  0  0
  2  3  1  0  0  0  0
  3  4  2  0  0  0  0
  4  5  1  0  0  0  0
  5 12  1  0  0  0  0
  6 11  1  0  0  0  0
  6  5  2  0  0  0  0
  7  1  1  0  0  0  0
  8  2  1  0  0  0  0
 10  9  3  0  0  0  0
 13 17  1  0  0  0  0
 14 18  1  0  0  0  0
 14 15  2  0  0  0  0
 14 17  1  0  0  0  0
 16 14  2  0  0  0  0
 18 19  1  0  0  0  0
M  RAD  2   3   2   4   2
M  END
