Coordinates from ORCA-job Ph-N2-HSO4-B3LYPG-6-31G_dp-MTMO-d009-169-n800
 OpenBabel09051908053D

 19 18  0  0  0  0  0  0  0  0999 V2000
   -1.1377    0.9841    0.4295 C   0  0  0  0  0  0  0  0  0  0  0  0
    0.1305    0.4230    0.2724 C   0  0  0  0  0  0  0  0  0  0  0  0
    0.7111   -0.2298    1.3557 C   0  0  0  0  0  0  0  0  0  0  0  0
    0.0695   -0.3359    2.5863 C   0  0  0  0  0  0  0  0  0  0  0  0
   -1.1963    0.2324    2.7297 C   0  0  0  0  0  0  0  0  0  0  0  0
   -1.8005    0.8898    1.6552 C   0  0  0  0  0  0  0  0  0  0  0  0
   -1.6059    1.4929   -0.4074 H   0  0  0  0  0  0  0  0  0  0  0  0
    0.6648    0.4808   -0.6694 H   0  0  0  0  0  0  0  0  0  0  0  0
   11.9236    1.5838   -6.3689 N   0  0  0  0  0  0  0  0  0  0  0  0
   12.9704    1.6539   -6.7167 N   0  0  0  0  0  0  0  0  0  0  0  0
   -2.7872    1.3264    1.7724 H   0  0  0  0  0  0  0  0  0  0  0  0
   -1.7110    0.1584    3.6829 H   0  0  0  0  0  0  0  0  0  0  0  0
    0.5590   -0.8490    3.4059 H   0  0  0  0  0  0  0  0  0  0  0  0
    3.3200   -0.1129    1.6551 S   0  0  0  0  0  0  0  0  0  0  0  0
    4.3651   -1.0980    1.4664 O   0  0  0  0  0  0  0  0  0  0  0  0
    1.9527   -0.8730    1.1656 O   0  0  0  0  0  0  0  0  0  0  0  0
    3.0843    0.5887    2.8959 O   0  0  0  0  0  0  0  0  0  0  0  0
    3.4810    1.0366    0.5115 O   0  0  0  0  0  0  0  0  0  0  0  0
    3.9682    0.6392   -0.2305 H   0  0  0  0  0  0  0  0  0  0  0  0
  1  6  1  0  0  0  0
  2  1  2  0  0  0  0
  2  3  1  0  0  0  0
  3  4  2  0  0  0  0
  4  5  1  0  0  0  0
  4 13  1  0  0  0  0
  5 12  1  0  0  0  0
  6 11  1  0  0  0  0
  6  5  2  0  0  0  0
  7  1  1  0  0  0  0
  8  2  1  0  0  0  0
 10  9  3  0  0  0  0
 14 17  2  0  0  0  0
 15 14  2  0  0  0  0
 16  3  1  0  0  0  0
 16 14  1  0  0  0  0
 18 14  1  0  0  0  0
 19 18  1  0  0  0  0
M  END
