Coordinates from ORCA-job Ph-N2-HSO4-B3LYPG-6-31G_dp-MTMO-d009-169-n800
 OpenBabel09051908053D

 19 18  0  0  0  0  0  0  0  0999 V2000
   -1.1905    0.9783    0.4642 C   0  0  0  0  0  0  0  0  0  0  0  0
    0.0769    0.4150    0.3094 C   0  0  0  0  0  0  0  0  0  0  0  0
    0.6553   -0.2369    1.3944 C   0  0  0  0  0  0  0  0  0  0  0  0
    0.0122   -0.3400    2.6245 C   0  0  0  0  0  0  0  0  0  0  0  0
   -1.2529    0.2306    2.7656 C   0  0  0  0  0  0  0  0  0  0  0  0
   -1.8548    0.8871    1.6893 C   0  0  0  0  0  0  0  0  0  0  0  0
   -1.6570    1.4864   -0.3742 H   0  0  0  0  0  0  0  0  0  0  0  0
    0.6123    0.4703   -0.6319 H   0  0  0  0  0  0  0  0  0  0  0  0
   12.3914    1.6422   -6.6943 N   0  0  0  0  0  0  0  0  0  0  0  0
   13.4387    1.7156   -7.0398 N   0  0  0  0  0  0  0  0  0  0  0  0
   -2.8409    1.3255    1.8046 H   0  0  0  0  0  0  0  0  0  0  0  0
   -1.7687    0.1590    3.7183 H   0  0  0  0  0  0  0  0  0  0  0  0
    0.4999   -0.8525    3.4455 H   0  0  0  0  0  0  0  0  0  0  0  0
    3.2640   -0.1242    1.6972 S   0  0  0  0  0  0  0  0  0  0  0  0
    4.3078   -1.1110    1.5105 O   0  0  0  0  0  0  0  0  0  0  0  0
    1.8961   -0.8824    1.2067 O   0  0  0  0  0  0  0  0  0  0  0  0
    3.0280    0.5789    2.9371 O   0  0  0  0  0  0  0  0  0  0  0  0
    3.4282    1.0241    0.5527 O   0  0  0  0  0  0  0  0  0  0  0  0
    3.9159    0.6253   -0.1882 H   0  0  0  0  0  0  0  0  0  0  0  0
  1  6  1  0  0  0  0
  2  1  2  0  0  0  0
  2  3  1  0  0  0  0
  3  4  2  0  0  0  0
  4  5  1  0  0  0  0
  4 13  1  0  0  0  0
  5 12  1  0  0  0  0
  6 11  1  0  0  0  0
  6  5  2  0  0  0  0
  7  1  1  0  0  0  0
  8  2  1  0  0  0  0
 10  9  3  0  0  0  0
 14 17  2  0  0  0  0
 15 14  2  0  0  0  0
 16  3  1  0  0  0  0
 16 14  1  0  0  0  0
 18 14  1  0  0  0  0
 19 18  1  0  0  0  0
M  END
