Coordinates from ORCA-job Ph-N2-HSO4-B3LYPG-6-31G_dp-MTMO-d009-169-n800
 OpenBabel09051908053D

 19 18  0  0  0  0  0  0  0  0999 V2000
   -0.6894    1.0222    0.1575 C   0  0  0  0  0  0  0  0  0  0  0  0
    0.5771    0.4859   -0.0789 C   0  0  0  0  0  0  0  0  0  0  0  0
    1.2350   -0.1575    0.9651 C   0  0  0  0  0  0  0  0  0  0  0  0
    0.6728   -0.2779    2.2323 C   0  0  0  0  0  0  0  0  0  0  0  0
   -0.5927    0.2651    2.4546 C   0  0  0  0  0  0  0  0  0  0  0  0
   -1.2740    0.9126    1.4210 C   0  0  0  0  0  0  0  0  0  0  0  0
   -1.2178    1.5238   -0.6474 H   0  0  0  0  0  0  0  0  0  0  0  0
    1.0523    0.5566   -1.0509 H   0  0  0  0  0  0  0  0  0  0  0  0
    7.4728    0.9928   -2.9007 N   0  0  0  0  0  0  0  0  0  0  0  0
    8.4880    1.0783   -3.3290 N   0  0  0  0  0  0  0  0  0  0  0  0
   -2.2599    1.3297    1.6001 H   0  0  0  0  0  0  0  0  0  0  0  0
   -1.0465    0.1793    3.4373 H   0  0  0  0  0  0  0  0  0  0  0  0
    1.2217   -0.7832    3.0184 H   0  0  0  0  0  0  0  0  0  0  0  0
    3.8570    0.0233    1.0686 S   0  0  0  0  0  0  0  0  0  0  0  0
    4.9050   -0.9605    0.8869 O   0  0  0  0  0  0  0  0  0  0  0  0
    2.4751   -0.7775    0.6998 O   0  0  0  0  0  0  0  0  0  0  0  0
    3.6745    0.7966    2.2755 O   0  0  0  0  0  0  0  0  0  0  0  0
    3.9488    1.0988   -0.1522 O   0  0  0  0  0  0  0  0  0  0  0  0
    4.4620    0.6830   -0.8665 H   0  0  0  0  0  0  0  0  0  0  0  0
  1  6  1  0  0  0  0
  2  1  2  0  0  0  0
  2  3  1  0  0  0  0
  3  4  2  0  0  0  0
  4  5  1  0  0  0  0
  4 13  1  0  0  0  0
  5 12  1  0  0  0  0
  6 11  1  0  0  0  0
  6  5  2  0  0  0  0
  7  1  1  0  0  0  0
  8  2  1  0  0  0  0
 10  9  3  0  0  0  0
 14 17  2  0  0  0  0
 15 14  2  0  0  0  0
 16  3  1  0  0  0  0
 16 14  1  0  0  0  0
 18 14  1  0  0  0  0
 19 18  1  0  0  0  0
M  END
