Coordinates from ORCA-job Ph-N2-HSO4-B3LYPG-6-31G_dp-MTMO-d009-169-n800
 OpenBabel09051908053D

 19 17  0  0  0  0  0  0  0  0999 V2000
   -0.9005    0.7326   -0.4765 C   0  0  0  0  0  0  0  0  0  0  0  0
    0.3926    0.5648   -1.0325 C   0  0  0  0  0  0  0  0  0  0  0  0
    1.2327    0.3505    0.0193 C   0  0  0  0  0  0  0  0  0  0  0  0
    1.1784    0.2667    1.2775 C   0  0  0  0  0  0  0  0  0  0  0  0
   -0.1083    0.4320    1.8370 C   0  0  0  0  0  0  0  0  0  0  0  0
   -1.1372    0.6677    0.9082 C   0  0  0  0  0  0  0  0  0  0  0  0
   -1.7272    0.9158   -1.1579 H   0  0  0  0  0  0  0  0  0  0  0  0
    0.6199    0.6035   -2.0886 H   0  0  0  0  0  0  0  0  0  0  0  0
    3.2751   -0.4248   -2.6161 N   0  0  0  0  0  0  0  0  0  0  0  0
    4.2272   -0.9250   -2.8691 N   0  0  0  0  0  0  0  0  0  0  0  0
   -2.1522    0.8058    1.2708 H   0  0  0  0  0  0  0  0  0  0  0  0
   -0.3076    0.3833    2.9031 H   0  0  0  0  0  0  0  0  0  0  0  0
    2.8120   -0.0482    2.1239 H   0  0  0  0  0  0  0  0  0  0  0  0
    4.8899    0.2426    1.6151 S   0  0  0  0  0  0  0  0  0  0  0  0
    6.1012   -0.3201    2.1769 O   0  0  0  0  0  0  0  0  0  0  0  0
    4.5000    0.0670    0.2292 O   0  0  0  0  0  0  0  0  0  0  0  0
    3.6935   -0.2068    2.5790 O   0  0  0  0  0  0  0  0  0  0  0  0
    4.9282    1.8585    1.8428 O   0  0  0  0  0  0  0  0  0  0  0  0
    5.4441    2.0255    2.6495 H   0  0  0  0  0  0  0  0  0  0  0  0
  1  6  1  0  0  0  0
  2  1  2  0  0  0  0
  2  3  1  0  0  0  0
  3  4  2  0  0  0  0
  4  5  1  0  0  0  0
  5 12  1  0  0  0  0
  6 11  1  0  0  0  0
  6  5  2  0  0  0  0
  7  1  1  0  0  0  0
  8  2  1  0  0  0  0
 10  9  3  0  0  0  0
 13 17  1  0  0  0  0
 14 18  1  0  0  0  0
 14 15  2  0  0  0  0
 14 17  1  0  0  0  0
 16 14  2  0  0  0  0
 18 19  1  0  0  0  0
M  RAD  2   3   2   4   2
M  END
