Coordinates from ORCA-job Ph-N2-HSO4-B3LYPG-6-31G_dp-MTMO-d009-169-n800
 OpenBabel09051908053D

 19 18  0  0  0  0  0  0  0  0999 V2000
   -1.0250    0.9961    0.3568 C   0  0  0  0  0  0  0  0  0  0  0  0
    0.2451    0.4417    0.1921 C   0  0  0  0  0  0  0  0  0  0  0  0
    0.8330   -0.2134    1.2699 C   0  0  0  0  0  0  0  0  0  0  0  0
    0.1969   -0.3285    2.5025 C   0  0  0  0  0  0  0  0  0  0  0  0
   -1.0710    0.2332    2.6536 C   0  0  0  0  0  0  0  0  0  0  0  0
   -1.6825    0.8928    1.5846 C   0  0  0  0  0  0  0  0  0  0  0  0
   -1.4989    1.5067   -0.4758 H   0  0  0  0  0  0  0  0  0  0  0  0
    0.7754    0.5066   -0.7516 H   0  0  0  0  0  0  0  0  0  0  0  0
   10.9056    1.4567   -5.6503 N   0  0  0  0  0  0  0  0  0  0  0  0
   11.9507    1.5082   -6.0062 N   0  0  0  0  0  0  0  0  0  0  0  0
   -2.6707    1.3243    1.7078 H   0  0  0  0  0  0  0  0  0  0  0  0
   -1.5816    0.1521    3.6084 H   0  0  0  0  0  0  0  0  0  0  0  0
    0.6920   -0.8431    3.3177 H   0  0  0  0  0  0  0  0  0  0  0  0
    3.4426   -0.0847    1.5580 S   0  0  0  0  0  0  0  0  0  0  0  0
    4.4916   -1.0642    1.3623 O   0  0  0  0  0  0  0  0  0  0  0  0
    2.0770   -0.8498    1.0720 O   0  0  0  0  0  0  0  0  0  0  0  0
    3.2087    0.6125    2.8016 O   0  0  0  0  0  0  0  0  0  0  0  0
    3.5936    1.0687    0.4169 O   0  0  0  0  0  0  0  0  0  0  0  0
    4.0790    0.6756   -0.3286 H   0  0  0  0  0  0  0  0  0  0  0  0
  1  6  1  0  0  0  0
  2  1  2  0  0  0  0
  2  3  1  0  0  0  0
  3  4  2  0  0  0  0
  4  5  1  0  0  0  0
  4 13  1  0  0  0  0
  5 12  1  0  0  0  0
  6 11  1  0  0  0  0
  6  5  2  0  0  0  0
  7  1  1  0  0  0  0
  8  2  1  0  0  0  0
 10  9  3  0  0  0  0
 14 17  2  0  0  0  0
 15 14  2  0  0  0  0
 16  3  1  0  0  0  0
 16 14  1  0  0  0  0
 18 14  1  0  0  0  0
 19 18  1  0  0  0  0
M  END
