Coordinates from ORCA-job Ph-N2-HSO4-B3LYPG-6-31G_dp-MTMO-d009-169-n800
 OpenBabel09051908053D

 19 18  0  0  0  0  0  0  0  0999 V2000
   -0.6799    1.0276    0.1646 C   0  0  0  0  0  0  0  0  0  0  0  0
    0.5868    0.5034   -0.0968 C   0  0  0  0  0  0  0  0  0  0  0  0
    1.2658   -0.1442    0.9309 C   0  0  0  0  0  0  0  0  0  0  0  0
    0.7250   -0.2807    2.2056 C   0  0  0  0  0  0  0  0  0  0  0  0
   -0.5414    0.2495    2.4527 C   0  0  0  0  0  0  0  0  0  0  0  0
   -1.2438    0.9013    1.4360 C   0  0  0  0  0  0  0  0  0  0  0  0
   -1.2247    1.5327   -0.6271 H   0  0  0  0  0  0  0  0  0  0  0  0
    1.0469    0.5873   -1.0750 H   0  0  0  0  0  0  0  0  0  0  0  0
    7.1746    0.9109   -2.5679 N   0  0  0  0  0  0  0  0  0  0  0  0
    8.1946    0.9953   -2.9842 N   0  0  0  0  0  0  0  0  0  0  0  0
   -2.2300    1.3088    1.6345 H   0  0  0  0  0  0  0  0  0  0  0  0
   -0.9790    0.1509    3.4414 H   0  0  0  0  0  0  0  0  0  0  0  0
    1.2903   -0.7891    2.9780 H   0  0  0  0  0  0  0  0  0  0  0  0
    3.8897    0.0657    0.9660 S   0  0  0  0  0  0  0  0  0  0  0  0
    4.9416   -0.9206    0.8206 O   0  0  0  0  0  0  0  0  0  0  0  0
    2.5071   -0.7524    0.6419 O   0  0  0  0  0  0  0  0  0  0  0  0
    3.7107    0.8872    2.1415 O   0  0  0  0  0  0  0  0  0  0  0  0
    3.9732    1.0843   -0.3034 O   0  0  0  0  0  0  0  0  0  0  0  0
    4.5542    0.6735   -0.9677 H   0  0  0  0  0  0  0  0  0  0  0  0
  1  6  1  0  0  0  0
  2  1  2  0  0  0  0
  2  3  1  0  0  0  0
  3  4  2  0  0  0  0
  4  5  1  0  0  0  0
  4 13  1  0  0  0  0
  5 12  1  0  0  0  0
  6 11  1  0  0  0  0
  6  5  2  0  0  0  0
  7  1  1  0  0  0  0
  8  2  1  0  0  0  0
 10  9  3  0  0  0  0
 14 17  2  0  0  0  0
 15 14  2  0  0  0  0
 16  3  1  0  0  0  0
 16 14  1  0  0  0  0
 18 14  1  0  0  0  0
 19 18  1  0  0  0  0
M  END
