Coordinates from ORCA-job Ph-N2-HSO4-B3LYPG-6-31G_dp-MTMO-d009-169-n800
 OpenBabel09051908053D

 19 18  0  0  0  0  0  0  0  0999 V2000
   -0.7089    1.0189    0.1614 C   0  0  0  0  0  0  0  0  0  0  0  0
    0.5588    0.4778   -0.0575 C   0  0  0  0  0  0  0  0  0  0  0  0
    1.2014   -0.1655    0.9960 C   0  0  0  0  0  0  0  0  0  0  0  0
    0.6225   -0.2814    2.2562 C   0  0  0  0  0  0  0  0  0  0  0  0
   -0.6438    0.2667    2.4613 C   0  0  0  0  0  0  0  0  0  0  0  0
   -1.3097    0.9142    1.4177 C   0  0  0  0  0  0  0  0  0  0  0  0
   -1.2252    1.5203   -0.6513 H   0  0  0  0  0  0  0  0  0  0  0  0
    1.0461    0.5445   -1.0238 H   0  0  0  0  0  0  0  0  0  0  0  0
    7.7827    1.0535   -3.2169 N   0  0  0  0  0  0  0  0  0  0  0  0
    8.8010    1.1228   -3.6410 N   0  0  0  0  0  0  0  0  0  0  0  0
   -2.2964    1.3350    1.5833 H   0  0  0  0  0  0  0  0  0  0  0  0
   -1.1103    0.1846    3.4383 H   0  0  0  0  0  0  0  0  0  0  0  0
    1.1594   -0.7868    3.0504 H   0  0  0  0  0  0  0  0  0  0  0  0
    3.8210   -0.0004    1.1514 S   0  0  0  0  0  0  0  0  0  0  0  0
    4.8692   -0.9794    0.9479 O   0  0  0  0  0  0  0  0  0  0  0  0
    2.4424   -0.7897    0.7467 O   0  0  0  0  0  0  0  0  0  0  0  0
    3.6301    0.7367    2.3794 O   0  0  0  0  0  0  0  0  0  0  0  0
    3.9204    1.1136   -0.0335 O   0  0  0  0  0  0  0  0  0  0  0  0
    4.4010    0.7060   -0.7745 H   0  0  0  0  0  0  0  0  0  0  0  0
  1  6  1  0  0  0  0
  2  1  2  0  0  0  0
  2  3  1  0  0  0  0
  3  4  2  0  0  0  0
  4  5  1  0  0  0  0
  4 13  1  0  0  0  0
  5 12  1  0  0  0  0
  6 11  1  0  0  0  0
  6  5  2  0  0  0  0
  7  1  1  0  0  0  0
  8  2  1  0  0  0  0
 10  9  3  0  0  0  0
 14 17  2  0  0  0  0
 15 14  2  0  0  0  0
 16  3  1  0  0  0  0
 16 14  1  0  0  0  0
 18 14  1  0  0  0  0
 19 18  1  0  0  0  0
M  END
