Coordinates from ORCA-job Ph-N2-HSO4-B3LYPG-6-31G_dp-MTMO-d009-169-n800
 OpenBabel09051908053D

 19 18  0  0  0  0  0  0  0  0999 V2000
   -0.3446    1.0265   -0.0737 C   0  0  0  0  0  0  0  0  0  0  0  0
    0.9863    0.6352   -0.2243 C   0  0  0  0  0  0  0  0  0  0  0  0
    1.6086   -0.0417    0.8207 C   0  0  0  0  0  0  0  0  0  0  0  0
    0.9445   -0.3361    2.0084 C   0  0  0  0  0  0  0  0  0  0  0  0
   -0.3843    0.0655    2.1472 C   0  0  0  0  0  0  0  0  0  0  0  0
   -1.0294    0.7441    1.1102 C   0  0  0  0  0  0  0  0  0  0  0  0
   -0.8440    1.5517   -0.8822 H   0  0  0  0  0  0  0  0  0  0  0  0
    1.5390    0.8413   -1.1341 H   0  0  0  0  0  0  0  0  0  0  0  0
    5.2723    0.4466   -2.1864 N   0  0  0  0  0  0  0  0  0  0  0  0
    5.6682   -0.1959   -2.9921 N   0  0  0  0  0  0  0  0  0  0  0  0
   -2.0640    1.0520    1.2248 H   0  0  0  0  0  0  0  0  0  0  0  0
   -0.9157   -0.1555    3.0678 H   0  0  0  0  0  0  0  0  0  0  0  0
    1.4660   -0.8604    2.8003 H   0  0  0  0  0  0  0  0  0  0  0  0
    4.1686    0.3254    1.3010 S   0  0  0  0  0  0  0  0  0  0  0  0
    5.3351   -0.4730    0.9817 O   0  0  0  0  0  0  0  0  0  0  0  0
    2.9241   -0.5072    0.6233 O   0  0  0  0  0  0  0  0  0  0  0  0
    3.8239    0.7417    2.6412 O   0  0  0  0  0  0  0  0  0  0  0  0
    4.1816    1.6722    0.4001 O   0  0  0  0  0  0  0  0  0  0  0  0
    4.6254    1.4589   -0.4425 H   0  0  0  0  0  0  0  0  0  0  0  0
  1  6  1  0  0  0  0
  2  1  2  0  0  0  0
  2  3  1  0  0  0  0
  3  4  2  0  0  0  0
  4  5  1  0  0  0  0
  4 13  1  0  0  0  0
  5 12  1  0  0  0  0
  6 11  1  0  0  0  0
  6  5  2  0  0  0  0
  7  1  1  0  0  0  0
  8  2  1  0  0  0  0
 10  9  3  0  0  0  0
 14 17  2  0  0  0  0
 15 14  2  0  0  0  0
 16  3  1  0  0  0  0
 16 14  1  0  0  0  0
 18 14  1  0  0  0  0
 19 18  1  0  0  0  0
M  END
