Coordinates from ORCA-job Ph-N2-HSO4-B3LYPG-6-31G_dp-MTMO-d009-169-n800
 OpenBabel09051908053D

 19 18  0  0  0  0  0  0  0  0999 V2000
   -0.7423    1.0186    0.1790 C   0  0  0  0  0  0  0  0  0  0  0  0
    0.5285    0.4795   -0.0255 C   0  0  0  0  0  0  0  0  0  0  0  0
    1.1567   -0.1704    1.0327 C   0  0  0  0  0  0  0  0  0  0  0  0
    0.5602   -0.2946    2.2839 C   0  0  0  0  0  0  0  0  0  0  0  0
   -0.7090    0.2519    2.4747 C   0  0  0  0  0  0  0  0  0  0  0  0
   -1.3606    0.9059    1.4261 C   0  0  0  0  0  0  0  0  0  0  0  0
   -1.2474    1.5249   -0.6377 H   0  0  0  0  0  0  0  0  0  0  0  0
    1.0290    0.5522   -0.9847 H   0  0  0  0  0  0  0  0  0  0  0  0
    8.1850    1.1018   -3.5931 N   0  0  0  0  0  0  0  0  0  0  0  0
    9.2105    1.1472   -4.0027 N   0  0  0  0  0  0  0  0  0  0  0  0
   -2.3496    1.3254    1.5805 H   0  0  0  0  0  0  0  0  0  0  0  0
   -1.1891    0.1634    3.4446 H   0  0  0  0  0  0  0  0  0  0  0  0
    1.0860   -0.8048    3.0825 H   0  0  0  0  0  0  0  0  0  0  0  0
    3.7729   -0.0087    1.2348 S   0  0  0  0  0  0  0  0  0  0  0  0
    4.8256   -0.9805    1.0205 O   0  0  0  0  0  0  0  0  0  0  0  0
    2.4014   -0.7921    0.7961 O   0  0  0  0  0  0  0  0  0  0  0  0
    3.5670    0.6999    2.4769 O   0  0  0  0  0  0  0  0  0  0  0  0
    3.8814    1.1331    0.0775 O   0  0  0  0  0  0  0  0  0  0  0  0
    4.3556    0.7387   -0.6746 H   0  0  0  0  0  0  0  0  0  0  0  0
  1  6  1  0  0  0  0
  2  1  2  0  0  0  0
  2  3  1  0  0  0  0
  3  4  2  0  0  0  0
  4  5  1  0  0  0  0
  4 13  1  0  0  0  0
  5 12  1  0  0  0  0
  6 11  1  0  0  0  0
  6  5  2  0  0  0  0
  7  1  1  0  0  0  0
  8  2  1  0  0  0  0
 10  9  3  0  0  0  0
 14 17  2  0  0  0  0
 15 14  2  0  0  0  0
 16  3  1  0  0  0  0
 16 14  1  0  0  0  0
 18 14  1  0  0  0  0
 19 18  1  0  0  0  0
M  END
