Coordinates from ORCA-job Ph-N2-HSO4-B3LYPG-6-31G_dp-MTMO-d009-169-n800
 OpenBabel09051908053D

 19 17  0  0  0  0  0  0  0  0999 V2000
   -0.7936    0.7560   -0.4683 C   0  0  0  0  0  0  0  0  0  0  0  0
    0.5337    0.5764   -0.9338 C   0  0  0  0  0  0  0  0  0  0  0  0
    1.2890    0.3299    0.1727 C   0  0  0  0  0  0  0  0  0  0  0  0
    1.1497    0.2271    1.4244 C   0  0  0  0  0  0  0  0  0  0  0  0
   -0.1726    0.4047    1.8895 C   0  0  0  0  0  0  0  0  0  0  0  0
   -1.1295    0.6729    0.8949 C   0  0  0  0  0  0  0  0  0  0  0  0
   -1.5664    0.9631   -1.2040 H   0  0  0  0  0  0  0  0  0  0  0  0
    0.8380    0.6265   -1.9695 H   0  0  0  0  0  0  0  0  0  0  0  0
    3.2834   -0.4472   -2.7011 N   0  0  0  0  0  0  0  0  0  0  0  0
    4.2375   -0.9637   -2.9098 N   0  0  0  0  0  0  0  0  0  0  0  0
   -2.1654    0.8232    1.1866 H   0  0  0  0  0  0  0  0  0  0  0  0
   -0.4493    0.3435    2.9377 H   0  0  0  0  0  0  0  0  0  0  0  0
    2.7931   -0.0859    2.2390 H   0  0  0  0  0  0  0  0  0  0  0  0
    4.8041    0.2604    1.5395 S   0  0  0  0  0  0  0  0  0  0  0  0
    6.0784   -0.2780    1.9685 O   0  0  0  0  0  0  0  0  0  0  0  0
    4.2871    0.0914    0.1930 O   0  0  0  0  0  0  0  0  0  0  0  0
    3.7195   -0.2302    2.6065 O   0  0  0  0  0  0  0  0  0  0  0  0
    4.8245    1.8740    1.7810 O   0  0  0  0  0  0  0  0  0  0  0  0
    5.4004    2.0472    2.5448 H   0  0  0  0  0  0  0  0  0  0  0  0
  1  6  1  0  0  0  0
  2  1  2  0  0  0  0
  2  3  1  0  0  0  0
  3  4  2  0  0  0  0
  4  5  1  0  0  0  0
  5 12  1  0  0  0  0
  6 11  1  0  0  0  0
  6  5  2  0  0  0  0
  7  1  1  0  0  0  0
  8  2  1  0  0  0  0
 10  9  3  0  0  0  0
 13 17  1  0  0  0  0
 14 18  1  0  0  0  0
 14 15  2  0  0  0  0
 14 17  1  0  0  0  0
 16 14  2  0  0  0  0
 18 19  1  0  0  0  0
M  RAD  2   3   2   4   2
M  END
