Coordinates from ORCA-job Ph-N2-HSO4-B3LYPG-6-31G_dp-MTMO-d009-169-n800
 OpenBabel09051908053D

 19 18  0  0  0  0  0  0  0  0999 V2000
   -0.7832    1.0176    0.2035 C   0  0  0  0  0  0  0  0  0  0  0  0
    0.4894    0.4784    0.0104 C   0  0  0  0  0  0  0  0  0  0  0  0
    1.1057   -0.1764    1.0725 C   0  0  0  0  0  0  0  0  0  0  0  0
    0.4955   -0.3057    2.3167 C   0  0  0  0  0  0  0  0  0  0  0  0
   -0.7753    0.2409    2.4961 C   0  0  0  0  0  0  0  0  0  0  0  0
   -1.4150    0.8999    1.4433 C   0  0  0  0  0  0  0  0  0  0  0  0
   -1.2791    1.5278   -0.6165 H   0  0  0  0  0  0  0  0  0  0  0  0
    1.0003    0.5548   -0.9430 H   0  0  0  0  0  0  0  0  0  0  0  0
    8.6250    1.1540   -3.9691 N   0  0  0  0  0  0  0  0  0  0  0  0
    9.6574    1.1935   -4.3617 N   0  0  0  0  0  0  0  0  0  0  0  0
   -2.4053    1.3196    1.5888 H   0  0  0  0  0  0  0  0  0  0  0  0
   -1.2659    0.1486    3.4603 H   0  0  0  0  0  0  0  0  0  0  0  0
    1.0124   -0.8196    3.1187 H   0  0  0  0  0  0  0  0  0  0  0  0
    3.7193   -0.0186    1.3066 S   0  0  0  0  0  0  0  0  0  0  0  0
    4.7744   -0.9874    1.0914 O   0  0  0  0  0  0  0  0  0  0  0  0
    2.3524   -0.7978    0.8465 O   0  0  0  0  0  0  0  0  0  0  0  0
    3.5015    0.6762    2.5545 O   0  0  0  0  0  0  0  0  0  0  0  0
    3.8374    1.1362    0.1632 O   0  0  0  0  0  0  0  0  0  0  0  0
    4.3148    0.7491   -0.5906 H   0  0  0  0  0  0  0  0  0  0  0  0
  1  6  1  0  0  0  0
  2  1  2  0  0  0  0
  2  3  1  0  0  0  0
  3  4  2  0  0  0  0
  4  5  1  0  0  0  0
  4 13  1  0  0  0  0
  5 12  1  0  0  0  0
  6 11  1  0  0  0  0
  6  5  2  0  0  0  0
  7  1  1  0  0  0  0
  8  2  1  0  0  0  0
 10  9  3  0  0  0  0
 14 17  2  0  0  0  0
 15 14  2  0  0  0  0
 16  3  1  0  0  0  0
 16 14  1  0  0  0  0
 18 14  1  0  0  0  0
 19 18  1  0  0  0  0
M  END
