Coordinates from ORCA-job Ph-N2-HSO4-B3LYPG-6-31G_dp-MTMO-d009-169-n800
 OpenBabel09051908053D

 19 18  0  0  0  0  0  0  0  0999 V2000
   -1.0840    0.9898    0.3947 C   0  0  0  0  0  0  0  0  0  0  0  0
    0.1850    0.4317    0.2345 C   0  0  0  0  0  0  0  0  0  0  0  0
    0.7686   -0.2222    1.3154 C   0  0  0  0  0  0  0  0  0  0  0  0
    0.1292   -0.3322    2.5468 C   0  0  0  0  0  0  0  0  0  0  0  0
   -1.1375    0.2333    2.6935 C   0  0  0  0  0  0  0  0  0  0  0  0
   -1.7447    0.8917    1.6212 C   0  0  0  0  0  0  0  0  0  0  0  0
   -1.5546    1.4995   -0.4404 H   0  0  0  0  0  0  0  0  0  0  0  0
    0.7176    0.4925   -0.7081 H   0  0  0  0  0  0  0  0  0  0  0  0
   11.4428    1.5234   -6.0314 N   0  0  0  0  0  0  0  0  0  0  0  0
   12.4889    1.5874   -6.3823 N   0  0  0  0  0  0  0  0  0  0  0  0
   -2.7321    1.3261    1.7409 H   0  0  0  0  0  0  0  0  0  0  0  0
   -1.6505    0.1562    3.6473 H   0  0  0  0  0  0  0  0  0  0  0  0
    0.6210   -0.8460    3.3646 H   0  0  0  0  0  0  0  0  0  0  0  0
    3.3778   -0.1003    1.6102 S   0  0  0  0  0  0  0  0  0  0  0  0
    4.4246   -1.0830    1.4186 O   0  0  0  0  0  0  0  0  0  0  0  0
    2.0112   -0.8625    1.1221 O   0  0  0  0  0  0  0  0  0  0  0  0
    3.1428    0.5996    2.8521 O   0  0  0  0  0  0  0  0  0  0  0  0
    3.5346    1.0509    0.4676 O   0  0  0  0  0  0  0  0  0  0  0  0
    4.0211    0.6553   -0.2759 H   0  0  0  0  0  0  0  0  0  0  0  0
  1  6  1  0  0  0  0
  2  1  2  0  0  0  0
  2  3  1  0  0  0  0
  3  4  2  0  0  0  0
  4  5  1  0  0  0  0
  4 13  1  0  0  0  0
  5 12  1  0  0  0  0
  6 11  1  0  0  0  0
  6  5  2  0  0  0  0
  7  1  1  0  0  0  0
  8  2  1  0  0  0  0
 10  9  3  0  0  0  0
 14 17  2  0  0  0  0
 15 14  2  0  0  0  0
 16  3  1  0  0  0  0
 16 14  1  0  0  0  0
 18 14  1  0  0  0  0
 19 18  1  0  0  0  0
M  END
