Coordinates from ORCA-job Ph-N2-HSO4-B3LYPG-6-31G_dp-MTMO-d009-169-n800
 OpenBabel09051908053D

 19 18  0  0  0  0  0  0  0  0999 V2000
   -0.5769    1.0029    0.0766 C   0  0  0  0  0  0  0  0  0  0  0  0
    0.7157    0.5425   -0.1773 C   0  0  0  0  0  0  0  0  0  0  0  0
    1.4111   -0.0965    0.8452 C   0  0  0  0  0  0  0  0  0  0  0  0
    0.8596   -0.2854    2.1090 C   0  0  0  0  0  0  0  0  0  0  0  0
   -0.4321    0.1838    2.3495 C   0  0  0  0  0  0  0  0  0  0  0  0
   -1.1505    0.8252    1.3374 C   0  0  0  0  0  0  0  0  0  0  0  0
   -1.1337    1.4992   -0.7123 H   0  0  0  0  0  0  0  0  0  0  0  0
    1.1839    0.6674   -1.1472 H   0  0  0  0  0  0  0  0  0  0  0  0
    6.2507    0.6633   -2.1578 N   0  0  0  0  0  0  0  0  0  0  0  0
    7.1586    0.3373   -2.6949 N   0  0  0  0  0  0  0  0  0  0  0  0
   -2.1561    1.1846    1.5312 H   0  0  0  0  0  0  0  0  0  0  0  0
   -0.8770    0.0447    3.3301 H   0  0  0  0  0  0  0  0  0  0  0  0
    1.4365   -0.7837    2.8790 H   0  0  0  0  0  0  0  0  0  0  0  0
    4.0215    0.1975    0.9970 S   0  0  0  0  0  0  0  0  0  0  0  0
    5.1206   -0.6987    0.6958 O   0  0  0  0  0  0  0  0  0  0  0  0
    2.6812   -0.6372    0.5521 O   0  0  0  0  0  0  0  0  0  0  0  0
    3.8142    0.8051    2.2924 O   0  0  0  0  0  0  0  0  0  0  0  0
    4.0308    1.4055   -0.0863 O   0  0  0  0  0  0  0  0  0  0  0  0
    4.6037    1.1338   -0.8281 H   0  0  0  0  0  0  0  0  0  0  0  0
  1  6  1  0  0  0  0
  2  1  2  0  0  0  0
  2  3  1  0  0  0  0
  3  4  2  0  0  0  0
  4  5  1  0  0  0  0
  4 13  1  0  0  0  0
  5 12  1  0  0  0  0
  6 11  1  0  0  0  0
  6  5  2  0  0  0  0
  7  1  1  0  0  0  0
  8  2  1  0  0  0  0
 10  9  3  0  0  0  0
 14 17  2  0  0  0  0
 15 14  2  0  0  0  0
 16  3  1  0  0  0  0
 16 14  1  0  0  0  0
 18 14  1  0  0  0  0
 19 18  1  0  0  0  0
M  END
