Coordinates from ORCA-job Ph-N2-HSO4-B3LYPG-6-31G_dp-MTMO-d009-169-n800
 OpenBabel09051908053D

 19 18  0  0  0  0  0  0  0  0999 V2000
   -1.2088    0.9763    0.4763 C   0  0  0  0  0  0  0  0  0  0  0  0
    0.0584    0.4123    0.3222 C   0  0  0  0  0  0  0  0  0  0  0  0
    0.6361   -0.2393    1.4076 C   0  0  0  0  0  0  0  0  0  0  0  0
   -0.0074   -0.3415    2.6376 C   0  0  0  0  0  0  0  0  0  0  0  0
   -1.2723    0.2297    2.7780 C   0  0  0  0  0  0  0  0  0  0  0  0
   -1.8736    0.8860    1.7012 C   0  0  0  0  0  0  0  0  0  0  0  0
   -1.6749    1.4842   -0.3624 H   0  0  0  0  0  0  0  0  0  0  0  0
    0.5941    0.4669   -0.6190 H   0  0  0  0  0  0  0  0  0  0  0  0
   12.5525    1.6621   -6.8057 N   0  0  0  0  0  0  0  0  0  0  0  0
   13.5999    1.7363   -7.1507 N   0  0  0  0  0  0  0  0  0  0  0  0
   -2.8595    1.3249    1.8161 H   0  0  0  0  0  0  0  0  0  0  0  0
   -1.7884    0.1588    3.7307 H   0  0  0  0  0  0  0  0  0  0  0  0
    0.4798   -0.8538    3.4590 H   0  0  0  0  0  0  0  0  0  0  0  0
    3.2447   -0.1278    1.7113 S   0  0  0  0  0  0  0  0  0  0  0  0
    4.2881   -1.1152    1.5253 O   0  0  0  0  0  0  0  0  0  0  0  0
    1.8767   -0.8855    1.2206 O   0  0  0  0  0  0  0  0  0  0  0  0
    3.0087    0.5757    2.9510 O   0  0  0  0  0  0  0  0  0  0  0  0
    3.4099    1.0201    0.5666 O   0  0  0  0  0  0  0  0  0  0  0  0
    3.8977    0.6209   -0.1740 H   0  0  0  0  0  0  0  0  0  0  0  0
  1  6  1  0  0  0  0
  2  1  2  0  0  0  0
  2  3  1  0  0  0  0
  3  4  2  0  0  0  0
  4  5  1  0  0  0  0
  4 13  1  0  0  0  0
  5 12  1  0  0  0  0
  6 11  1  0  0  0  0
  6  5  2  0  0  0  0
  7  1  1  0  0  0  0
  8  2  1  0  0  0  0
 10  9  3  0  0  0  0
 14 17  2  0  0  0  0
 15 14  2  0  0  0  0
 16  3  1  0  0  0  0
 16 14  1  0  0  0  0
 18 14  1  0  0  0  0
 19 18  1  0  0  0  0
M  END
