Coordinates from ORCA-job Ph-N2-HSO4-B3LYPG-6-31G_dp-MTMO-d009-169-n800
 OpenBabel09051908053D

 19 18  0  0  0  0  0  0  0  0999 V2000
   -0.5880    1.0048    0.0865 C   0  0  0  0  0  0  0  0  0  0  0  0
    0.7032    0.5442   -0.1739 C   0  0  0  0  0  0  0  0  0  0  0  0
    1.4029   -0.0964    0.8445 C   0  0  0  0  0  0  0  0  0  0  0  0
    0.8571   -0.2869    2.1105 C   0  0  0  0  0  0  0  0  0  0  0  0
   -0.4333    0.1823    2.3576 C   0  0  0  0  0  0  0  0  0  0  0  0
   -1.1560    0.8254    1.3497 C   0  0  0  0  0  0  0  0  0  0  0  0
   -1.1483    1.5025   -0.6991 H   0  0  0  0  0  0  0  0  0  0  0  0
    1.1672    0.6705   -1.1457 H   0  0  0  0  0  0  0  0  0  0  0  0
    6.2960    0.6616   -2.1491 N   0  0  0  0  0  0  0  0  0  0  0  0
    7.2195    0.3438   -2.6640 N   0  0  0  0  0  0  0  0  0  0  0  0
   -2.1607    1.1850    1.5485 H   0  0  0  0  0  0  0  0  0  0  0  0
   -0.8739    0.0420    3.3399 H   0  0  0  0  0  0  0  0  0  0  0  0
    1.4374   -0.7865    2.8772 H   0  0  0  0  0  0  0  0  0  0  0  0
    4.0142    0.1993    0.9787 S   0  0  0  0  0  0  0  0  0  0  0  0
    5.1118   -0.7010    0.6843 O   0  0  0  0  0  0  0  0  0  0  0  0
    2.6716   -0.6374    0.5455 O   0  0  0  0  0  0  0  0  0  0  0  0
    3.8103    0.8203    2.2683 O   0  0  0  0  0  0  0  0  0  0  0  0
    4.0231    1.3957   -0.1179 O   0  0  0  0  0  0  0  0  0  0  0  0
    4.6075    1.1224   -0.8500 H   0  0  0  0  0  0  0  0  0  0  0  0
  1  6  1  0  0  0  0
  2  1  2  0  0  0  0
  2  3  1  0  0  0  0
  3  4  2  0  0  0  0
  4  5  1  0  0  0  0
  4 13  1  0  0  0  0
  5 12  1  0  0  0  0
  6 11  1  0  0  0  0
  6  5  2  0  0  0  0
  7  1  1  0  0  0  0
  8  2  1  0  0  0  0
 10  9  3  0  0  0  0
 14 17  2  0  0  0  0
 15 14  2  0  0  0  0
 16  3  1  0  0  0  0
 16 14  1  0  0  0  0
 18 14  1  0  0  0  0
 19 18  1  0  0  0  0
M  END
