Coordinates from ORCA-job Ph-N2-HSO4-B3LYPG-6-31G_dp-MTMO-d009-169-n800
 OpenBabel09051908053D

 19 18  0  0  0  0  0  0  0  0999 V2000
   -0.7218    1.0187    0.1679 C   0  0  0  0  0  0  0  0  0  0  0  0
    0.5471    0.4782   -0.0450 C   0  0  0  0  0  0  0  0  0  0  0  0
    1.1838   -0.1676    1.0106 C   0  0  0  0  0  0  0  0  0  0  0  0
    0.5975   -0.2865    2.2673 C   0  0  0  0  0  0  0  0  0  0  0  0
   -0.6699    0.2611    2.4663 C   0  0  0  0  0  0  0  0  0  0  0  0
   -1.3299    0.9111    1.4205 C   0  0  0  0  0  0  0  0  0  0  0  0
   -1.2335    1.5218   -0.6467 H   0  0  0  0  0  0  0  0  0  0  0  0
    1.0398    0.5470   -1.0084 H   0  0  0  0  0  0  0  0  0  0  0  0
    7.9429    1.0741   -3.3688 N   0  0  0  0  0  0  0  0  0  0  0  0
    8.9642    1.1323   -3.7871 N   0  0  0  0  0  0  0  0  0  0  0  0
   -2.3175    1.3315    1.5813 H   0  0  0  0  0  0  0  0  0  0  0  0
   -1.1420    0.1768    3.4404 H   0  0  0  0  0  0  0  0  0  0  0  0
    1.1299   -0.7936    3.0634 H   0  0  0  0  0  0  0  0  0  0  0  0
    3.8020   -0.0044    1.1860 S   0  0  0  0  0  0  0  0  0  0  0  0
    4.8519   -0.9803    0.9772 O   0  0  0  0  0  0  0  0  0  0  0  0
    2.4262   -0.7910    0.7667 O   0  0  0  0  0  0  0  0  0  0  0  0
    3.6051    0.7202    2.4204 O   0  0  0  0  0  0  0  0  0  0  0  0
    3.9050    1.1221    0.0132 O   0  0  0  0  0  0  0  0  0  0  0  0
    4.3808    0.7197   -0.7337 H   0  0  0  0  0  0  0  0  0  0  0  0
  1  6  1  0  0  0  0
  2  1  2  0  0  0  0
  2  3  1  0  0  0  0
  3  4  2  0  0  0  0
  4  5  1  0  0  0  0
  4 13  1  0  0  0  0
  5 12  1  0  0  0  0
  6 11  1  0  0  0  0
  6  5  2  0  0  0  0
  7  1  1  0  0  0  0
  8  2  1  0  0  0  0
 10  9  3  0  0  0  0
 14 17  2  0  0  0  0
 15 14  2  0  0  0  0
 16  3  1  0  0  0  0
 16 14  1  0  0  0  0
 18 14  1  0  0  0  0
 19 18  1  0  0  0  0
M  END
