Coordinates from ORCA-job Ph-N2-HSO4-B3LYPG-6-31G_dp-MTMO-d009-169-n800
 OpenBabel09051908053D

 19 18  0  0  0  0  0  0  0  0999 V2000
   -1.0792    0.9904    0.3916 C   0  0  0  0  0  0  0  0  0  0  0  0
    0.1899    0.4325    0.2310 C   0  0  0  0  0  0  0  0  0  0  0  0
    0.7738   -0.2215    1.3117 C   0  0  0  0  0  0  0  0  0  0  0  0
    0.1347   -0.3319    2.5433 C   0  0  0  0  0  0  0  0  0  0  0  0
   -1.1322    0.2333    2.6902 C   0  0  0  0  0  0  0  0  0  0  0  0
   -1.7396    0.8918    1.6182 C   0  0  0  0  0  0  0  0  0  0  0  0
   -1.5500    1.5001   -0.4433 H   0  0  0  0  0  0  0  0  0  0  0  0
    0.7224    0.4936   -0.7116 H   0  0  0  0  0  0  0  0  0  0  0  0
   11.3992    1.5180   -6.0006 N   0  0  0  0  0  0  0  0  0  0  0  0
   12.4452    1.5812   -6.3519 N   0  0  0  0  0  0  0  0  0  0  0  0
   -2.7271    1.3260    1.7382 H   0  0  0  0  0  0  0  0  0  0  0  0
   -1.6450    0.1560    3.6441 H   0  0  0  0  0  0  0  0  0  0  0  0
    0.6267   -0.8457    3.3608 H   0  0  0  0  0  0  0  0  0  0  0  0
    3.3830   -0.0990    1.6060 S   0  0  0  0  0  0  0  0  0  0  0  0
    4.4300   -1.0815    1.4142 O   0  0  0  0  0  0  0  0  0  0  0  0
    2.0165   -0.8615    1.1181 O   0  0  0  0  0  0  0  0  0  0  0  0
    3.1481    0.6006    2.8481 O   0  0  0  0  0  0  0  0  0  0  0  0
    3.5394    1.0522    0.4635 O   0  0  0  0  0  0  0  0  0  0  0  0
    4.0258    0.6568   -0.2801 H   0  0  0  0  0  0  0  0  0  0  0  0
  1  6  1  0  0  0  0
  2  1  2  0  0  0  0
  2  3  1  0  0  0  0
  3  4  2  0  0  0  0
  4  5  1  0  0  0  0
  4 13  1  0  0  0  0
  5 12  1  0  0  0  0
  6 11  1  0  0  0  0
  6  5  2  0  0  0  0
  7  1  1  0  0  0  0
  8  2  1  0  0  0  0
 10  9  3  0  0  0  0
 14 17  2  0  0  0  0
 15 14  2  0  0  0  0
 16  3  1  0  0  0  0
 16 14  1  0  0  0  0
 18 14  1  0  0  0  0
 19 18  1  0  0  0  0
M  END
