Coordinates from ORCA-job Ph-N2-HSO4-B3LYPG-6-31G_dp-MTMO-d009-169-n800
 OpenBabel09051908053D

 19 18  0  0  0  0  0  0  0  0999 V2000
   -0.3999    1.0142   -0.0413 C   0  0  0  0  0  0  0  0  0  0  0  0
    0.9225    0.6023   -0.2102 C   0  0  0  0  0  0  0  0  0  0  0  0
    1.5571   -0.0601    0.8367 C   0  0  0  0  0  0  0  0  0  0  0  0
    0.9140   -0.3199    2.0437 C   0  0  0  0  0  0  0  0  0  0  0  0
   -0.4065    0.1019    2.2004 C   0  0  0  0  0  0  0  0  0  0  0  0
   -1.0640    0.7661    1.1620 C   0  0  0  0  0  0  0  0  0  0  0  0
   -0.9090    1.5282   -0.8509 H   0  0  0  0  0  0  0  0  0  0  0  0
    1.4598    0.7818   -1.1348 H   0  0  0  0  0  0  0  0  0  0  0  0
    5.5303    0.5209   -2.2178 N   0  0  0  0  0  0  0  0  0  0  0  0
    6.0444   -0.0479   -3.0121 N   0  0  0  0  0  0  0  0  0  0  0  0
   -2.0922    1.0894    1.2904 H   0  0  0  0  0  0  0  0  0  0  0  0
   -0.9219   -0.0922    3.1361 H   0  0  0  0  0  0  0  0  0  0  0  0
    1.4450   -0.8338    2.8362 H   0  0  0  0  0  0  0  0  0  0  0  0
    4.1315    0.2888    1.2437 S   0  0  0  0  0  0  0  0  0  0  0  0
    5.2824   -0.5333    0.9262 O   0  0  0  0  0  0  0  0  0  0  0  0
    2.8621   -0.5483    0.6228 O   0  0  0  0  0  0  0  0  0  0  0  0
    3.8193    0.7512    2.5768 O   0  0  0  0  0  0  0  0  0  0  0  0
    4.1464    1.6041    0.2973 O   0  0  0  0  0  0  0  0  0  0  0  0
    4.6401    1.3780   -0.5138 H   0  0  0  0  0  0  0  0  0  0  0  0
  1  6  1  0  0  0  0
  2  1  2  0  0  0  0
  2  3  1  0  0  0  0
  3  4  2  0  0  0  0
  4  5  1  0  0  0  0
  4 13  1  0  0  0  0
  5 12  1  0  0  0  0
  6 11  1  0  0  0  0
  6  5  2  0  0  0  0
  7  1  1  0  0  0  0
  8  2  1  0  0  0  0
 10  9  3  0  0  0  0
 14 17  2  0  0  0  0
 15 14  2  0  0  0  0
 16  3  1  0  0  0  0
 16 14  1  0  0  0  0
 18 14  1  0  0  0  0
 19 18  1  0  0  0  0
M  END
