Coordinates from ORCA-job Ph-N2-HSO4-B3LYPG-6-31G_dp-MTMO-d009-169-n800
 OpenBabel09051908053D

 19 18  0  0  0  0  0  0  0  0999 V2000
   -1.0921    0.9890    0.3999 C   0  0  0  0  0  0  0  0  0  0  0  0
    0.1768    0.4303    0.2402 C   0  0  0  0  0  0  0  0  0  0  0  0
    0.7599   -0.2233    1.3215 C   0  0  0  0  0  0  0  0  0  0  0  0
    0.1202   -0.3327    2.5528 C   0  0  0  0  0  0  0  0  0  0  0  0
   -1.1465    0.2332    2.6989 C   0  0  0  0  0  0  0  0  0  0  0  0
   -1.7531    0.8915    1.6263 C   0  0  0  0  0  0  0  0  0  0  0  0
   -1.5623    1.4985   -0.4355 H   0  0  0  0  0  0  0  0  0  0  0  0
    0.7097    0.4907   -0.7022 H   0  0  0  0  0  0  0  0  0  0  0  0
   11.5155    1.5325   -6.0826 N   0  0  0  0  0  0  0  0  0  0  0  0
   12.5618    1.5977   -6.4331 N   0  0  0  0  0  0  0  0  0  0  0  0
   -2.7404    1.3262    1.7456 H   0  0  0  0  0  0  0  0  0  0  0  0
   -1.6598    0.1567    3.6526 H   0  0  0  0  0  0  0  0  0  0  0  0
    0.6116   -0.8464    3.3709 H   0  0  0  0  0  0  0  0  0  0  0  0
    3.3690   -0.1022    1.6171 S   0  0  0  0  0  0  0  0  0  0  0  0
    4.4156   -1.0853    1.4260 O   0  0  0  0  0  0  0  0  0  0  0  0
    2.0023   -0.8641    1.1288 O   0  0  0  0  0  0  0  0  0  0  0  0
    3.1339    0.5979    2.8588 O   0  0  0  0  0  0  0  0  0  0  0  0
    3.5266    1.0486    0.4743 O   0  0  0  0  0  0  0  0  0  0  0  0
    4.0131    0.6527   -0.2689 H   0  0  0  0  0  0  0  0  0  0  0  0
  1  6  1  0  0  0  0
  2  1  2  0  0  0  0
  2  3  1  0  0  0  0
  3  4  2  0  0  0  0
  4  5  1  0  0  0  0
  4 13  1  0  0  0  0
  5 12  1  0  0  0  0
  6 11  1  0  0  0  0
  6  5  2  0  0  0  0
  7  1  1  0  0  0  0
  8  2  1  0  0  0  0
 10  9  3  0  0  0  0
 14 17  2  0  0  0  0
 15 14  2  0  0  0  0
 16  3  1  0  0  0  0
 16 14  1  0  0  0  0
 18 14  1  0  0  0  0
 19 18  1  0  0  0  0
M  END
