Coordinates from ORCA-job Ph-N2-HSO4-B3LYPG-6-31G_dp-MTMO-d009-169-n800
 OpenBabel09051908053D

 19 18  0  0  0  0  0  0  0  0999 V2000
   -0.9731    1.0014    0.3237 C   0  0  0  0  0  0  0  0  0  0  0  0
    0.2980    0.4509    0.1543 C   0  0  0  0  0  0  0  0  0  0  0  0
    0.8905   -0.2055    1.2289 C   0  0  0  0  0  0  0  0  0  0  0  0
    0.2578   -0.3254    2.4629 C   0  0  0  0  0  0  0  0  0  0  0  0
   -1.0112    0.2324    2.6186 C   0  0  0  0  0  0  0  0  0  0  0  0
   -1.6272    0.8932    1.5529 C   0  0  0  0  0  0  0  0  0  0  0  0
   -1.4505    1.5129   -0.5064 H   0  0  0  0  0  0  0  0  0  0  0  0
    0.8258    0.5196   -0.7905 H   0  0  0  0  0  0  0  0  0  0  0  0
   10.4279    1.3972   -5.3085 N   0  0  0  0  0  0  0  0  0  0  0  0
   11.4718    1.4351   -5.6698 N   0  0  0  0  0  0  0  0  0  0  0  0
   -2.6162    1.3217    1.6797 H   0  0  0  0  0  0  0  0  0  0  0  0
   -1.5192    0.1476    3.5745 H   0  0  0  0  0  0  0  0  0  0  0  0
    0.7564   -0.8408    3.2754 H   0  0  0  0  0  0  0  0  0  0  0  0
    3.5005   -0.0700    1.5101 S   0  0  0  0  0  0  0  0  0  0  0  0
    4.5516   -1.0464    1.3100 O   0  0  0  0  0  0  0  0  0  0  0  0
    2.1356   -0.8380    1.0263 O   0  0  0  0  0  0  0  0  0  0  0  0
    3.2679    0.6244    2.7555 O   0  0  0  0  0  0  0  0  0  0  0  0
    3.6454    1.0858    0.3707 O   0  0  0  0  0  0  0  0  0  0  0  0
    4.1298    0.6954   -0.3768 H   0  0  0  0  0  0  0  0  0  0  0  0
  1  6  1  0  0  0  0
  2  1  2  0  0  0  0
  2  3  1  0  0  0  0
  3  4  2  0  0  0  0
  4  5  1  0  0  0  0
  4 13  1  0  0  0  0
  5 12  1  0  0  0  0
  6 11  1  0  0  0  0
  6  5  2  0  0  0  0
  7  1  1  0  0  0  0
  8  2  1  0  0  0  0
 10  9  3  0  0  0  0
 14 17  2  0  0  0  0
 15 14  2  0  0  0  0
 16  3  1  0  0  0  0
 16 14  1  0  0  0  0
 18 14  1  0  0  0  0
 19 18  1  0  0  0  0
M  END
