Coordinates from ORCA-job Ph-N2-HSO4-B3LYPG-6-31G_dp-MTMO-d009-169-n800
 OpenBabel09051908053D

 19 18  0  0  0  0  0  0  0  0999 V2000
   -0.6620    1.0275    0.1603 C   0  0  0  0  0  0  0  0  0  0  0  0
    0.6097    0.5296   -0.1272 C   0  0  0  0  0  0  0  0  0  0  0  0
    1.3148   -0.1211    0.8807 C   0  0  0  0  0  0  0  0  0  0  0  0
    0.7954   -0.2861    2.1609 C   0  0  0  0  0  0  0  0  0  0  0  0
   -0.4764    0.2182    2.4341 C   0  0  0  0  0  0  0  0  0  0  0  0
   -1.2049    0.8725    1.4377 C   0  0  0  0  0  0  0  0  0  0  0  0
   -1.2271    1.5346   -0.6157 H   0  0  0  0  0  0  0  0  0  0  0  0
    1.0546    0.6362   -1.1102 H   0  0  0  0  0  0  0  0  0  0  0  0
    6.7578    0.7833   -2.2151 N   0  0  0  0  0  0  0  0  0  0  0  0
    7.7854    0.7784   -2.6196 N   0  0  0  0  0  0  0  0  0  0  0  0
   -2.1949    1.2598    1.6567 H   0  0  0  0  0  0  0  0  0  0  0  0
   -0.8974    0.0972    3.4275 H   0  0  0  0  0  0  0  0  0  0  0  0
    1.3807   -0.7957    2.9174 H   0  0  0  0  0  0  0  0  0  0  0  0
    3.9376    0.1324    0.8769 S   0  0  0  0  0  0  0  0  0  0  0  0
    5.0025   -0.8416    0.7382 O   0  0  0  0  0  0  0  0  0  0  0  0
    2.5622   -0.7025    0.5635 O   0  0  0  0  0  0  0  0  0  0  0  0
    3.7504    0.9559    2.0505 O   0  0  0  0  0  0  0  0  0  0  0  0
    4.0073    1.1368   -0.4017 O   0  0  0  0  0  0  0  0  0  0  0  0
    4.6660    0.7759   -1.0232 H   0  0  0  0  0  0  0  0  0  0  0  0
  1  6  1  0  0  0  0
  2  1  2  0  0  0  0
  2  3  1  0  0  0  0
  3  4  2  0  0  0  0
  4  5  1  0  0  0  0
  4 13  1  0  0  0  0
  5 12  1  0  0  0  0
  6 11  1  0  0  0  0
  6  5  2  0  0  0  0
  7  1  1  0  0  0  0
  8  2  1  0  0  0  0
 10  9  3  0  0  0  0
 14 17  2  0  0  0  0
 15 14  2  0  0  0  0
 16 14  1  0  0  0  0
 16  3  1  0  0  0  0
 18 14  1  0  0  0  0
 19 18  1  0  0  0  0
M  END
