Coordinates from ORCA-job Ph-N2-HSO4-B3LYPG-6-31G_dp-MTMO-d009-169-n800
 OpenBabel09051908053D

 19 18  0  0  0  0  0  0  0  0999 V2000
   -0.7270    1.0186    0.1704 C   0  0  0  0  0  0  0  0  0  0  0  0
    0.5425    0.4784   -0.0398 C   0  0  0  0  0  0  0  0  0  0  0  0
    1.1765   -0.1684    1.0168 C   0  0  0  0  0  0  0  0  0  0  0  0
    0.5870   -0.2887    2.2718 C   0  0  0  0  0  0  0  0  0  0  0  0
   -0.6809    0.2587    2.4681 C   0  0  0  0  0  0  0  0  0  0  0  0
   -1.3382    0.9097    1.4213 C   0  0  0  0  0  0  0  0  0  0  0  0
   -1.2366    1.5226   -0.6450 H   0  0  0  0  0  0  0  0  0  0  0  0
    1.0377    0.5482   -1.0019 H   0  0  0  0  0  0  0  0  0  0  0  0
    8.0092    1.0824   -3.4328 N   0  0  0  0  0  0  0  0  0  0  0  0
    9.0315    1.1361   -3.8492 N   0  0  0  0  0  0  0  0  0  0  0  0
   -2.3262    1.3300    1.5800 H   0  0  0  0  0  0  0  0  0  0  0  0
   -1.1555    0.1734    3.4409 H   0  0  0  0  0  0  0  0  0  0  0  0
    1.1173   -0.7966    3.0688 H   0  0  0  0  0  0  0  0  0  0  0  0
    3.7941   -0.0060    1.2009 S   0  0  0  0  0  0  0  0  0  0  0  0
    4.8448   -0.9806    0.9898 O   0  0  0  0  0  0  0  0  0  0  0  0
    2.4196   -0.7914    0.7753 O   0  0  0  0  0  0  0  0  0  0  0  0
    3.5946    0.7129    2.4382 O   0  0  0  0  0  0  0  0  0  0  0  0
    3.8986    1.1260    0.0336 O   0  0  0  0  0  0  0  0  0  0  0  0
    4.3729    0.7261   -0.7156 H   0  0  0  0  0  0  0  0  0  0  0  0
  1  6  1  0  0  0  0
  2  1  2  0  0  0  0
  2  3  1  0  0  0  0
  3  4  2  0  0  0  0
  4  5  1  0  0  0  0
  4 13  1  0  0  0  0
  5 12  1  0  0  0  0
  6 11  1  0  0  0  0
  6  5  2  0  0  0  0
  7  1  1  0  0  0  0
  8  2  1  0  0  0  0
 10  9  3  0  0  0  0
 14 17  2  0  0  0  0
 15 14  2  0  0  0  0
 16  3  1  0  0  0  0
 16 14  1  0  0  0  0
 18 14  1  0  0  0  0
 19 18  1  0  0  0  0
M  END
