Coordinates from ORCA-job Ph-N2-HSO4-B3LYPG-6-31G_dp-MTMO-d009-169-n800
 OpenBabel09051908053D

 19 17  0  0  0  0  0  0  0  0999 V2000
   -1.0253    0.7680   -0.4868 C   0  0  0  0  0  0  0  0  0  0  0  0
    0.1282    0.4843   -1.2583 C   0  0  0  0  0  0  0  0  0  0  0  0
    1.1299    0.2211   -0.3731 C   0  0  0  0  0  0  0  0  0  0  0  0
    1.3109    0.1652    0.8766 C   0  0  0  0  0  0  0  0  0  0  0  0
    0.1575    0.4467    1.6470 C   0  0  0  0  0  0  0  0  0  0  0  0
   -1.0060    0.7481    0.9187 C   0  0  0  0  0  0  0  0  0  0  0  0
   -1.9462    1.0056   -1.0128 H   0  0  0  0  0  0  0  0  0  0  0  0
    0.1589    0.4868   -2.3394 H   0  0  0  0  0  0  0  0  0  0  0  0
    3.0675   -0.5323   -2.1615 N   0  0  0  0  0  0  0  0  0  0  0  0
    3.9990   -1.0848   -2.3800 N   0  0  0  0  0  0  0  0  0  0  0  0
   -1.9222    0.9747    1.4571 H   0  0  0  0  0  0  0  0  0  0  0  0
    0.1570    0.4367    2.7332 H   0  0  0  0  0  0  0  0  0  0  0  0
    2.9109   -0.1794    1.7143 H   0  0  0  0  0  0  0  0  0  0  0  0
    5.0045    0.3719    1.6628 S   0  0  0  0  0  0  0  0  0  0  0  0
    6.1661   -0.2313    2.2865 O   0  0  0  0  0  0  0  0  0  0  0  0
    4.8534    0.5118    0.2283 O   0  0  0  0  0  0  0  0  0  0  0  0
    3.7255   -0.3716    2.2740 O   0  0  0  0  0  0  0  0  0  0  0  0
    4.8429    1.8830    2.2611 O   0  0  0  0  0  0  0  0  0  0  0  0
    5.2492    1.8868    3.1439 H   0  0  0  0  0  0  0  0  0  0  0  0
  1  6  1  0  0  0  0
  2  1  2  0  0  0  0
  2  3  1  0  0  0  0
  3  4  2  0  0  0  0
  4  5  1  0  0  0  0
  5 12  1  0  0  0  0
  6 11  1  0  0  0  0
  6  5  2  0  0  0  0
  7  1  1  0  0  0  0
  8  2  1  0  0  0  0
 10  9  3  0  0  0  0
 13 17  1  0  0  0  0
 14 18  1  0  0  0  0
 14 17  1  0  0  0  0
 14 15  2  0  0  0  0
 16 14  2  0  0  0  0
 18 19  1  0  0  0  0
M  RAD  2   3   2   4   2
M  END
