Coordinates from ORCA-job Ph-N2-HSO4-B3LYPG-6-31G_dp-MTMO-d009-169-n800
 OpenBabel09051908053D

 19 18  0  0  0  0  0  0  0  0999 V2000
   -1.1955    0.9777    0.4674 C   0  0  0  0  0  0  0  0  0  0  0  0
    0.0719    0.4142    0.3129 C   0  0  0  0  0  0  0  0  0  0  0  0
    0.6500   -0.2376    1.3980 C   0  0  0  0  0  0  0  0  0  0  0  0
    0.0069   -0.3404    2.6281 C   0  0  0  0  0  0  0  0  0  0  0  0
   -1.2582    0.2304    2.7690 C   0  0  0  0  0  0  0  0  0  0  0  0
   -1.8599    0.8869    1.6925 C   0  0  0  0  0  0  0  0  0  0  0  0
   -1.6618    1.4858   -0.3710 H   0  0  0  0  0  0  0  0  0  0  0  0
    0.6074    0.4694   -0.6284 H   0  0  0  0  0  0  0  0  0  0  0  0
   12.4353    1.6476   -6.7247 N   0  0  0  0  0  0  0  0  0  0  0  0
   13.4826    1.7213   -7.0701 N   0  0  0  0  0  0  0  0  0  0  0  0
   -2.8460    1.3254    1.8077 H   0  0  0  0  0  0  0  0  0  0  0  0
   -1.7741    0.1590    3.7217 H   0  0  0  0  0  0  0  0  0  0  0  0
    0.4944   -0.8528    3.4492 H   0  0  0  0  0  0  0  0  0  0  0  0
    3.2587   -0.1252    1.7011 S   0  0  0  0  0  0  0  0  0  0  0  0
    4.3024   -1.1122    1.5146 O   0  0  0  0  0  0  0  0  0  0  0  0
    1.8908   -0.8833    1.2105 O   0  0  0  0  0  0  0  0  0  0  0  0
    3.0227    0.5781    2.9409 O   0  0  0  0  0  0  0  0  0  0  0  0
    3.4232    1.0230    0.5565 O   0  0  0  0  0  0  0  0  0  0  0  0
    3.9109    0.6241   -0.1843 H   0  0  0  0  0  0  0  0  0  0  0  0
  1  6  1  0  0  0  0
  2  1  2  0  0  0  0
  2  3  1  0  0  0  0
  3  4  2  0  0  0  0
  4  5  1  0  0  0  0
  4 13  1  0  0  0  0
  5 12  1  0  0  0  0
  6 11  1  0  0  0  0
  6  5  2  0  0  0  0
  7  1  1  0  0  0  0
  8  2  1  0  0  0  0
 10  9  3  0  0  0  0
 14 17  2  0  0  0  0
 15 14  2  0  0  0  0
 16  3  1  0  0  0  0
 16 14  1  0  0  0  0
 18 14  1  0  0  0  0
 19 18  1  0  0  0  0
M  END
