Coordinates from ORCA-job Ph-N2-HSO4-B3LYPG-6-31G_dp-MTMO-d009-169-n800
 OpenBabel09051908053D

 19 18  0  0  0  0  0  0  0  0999 V2000
   -0.9080    1.0077    0.2822 C   0  0  0  0  0  0  0  0  0  0  0  0
    0.3643    0.4618    0.1062 C   0  0  0  0  0  0  0  0  0  0  0  0
    0.9632   -0.1954    1.1768 C   0  0  0  0  0  0  0  0  0  0  0  0
    0.3359   -0.3206    2.4129 C   0  0  0  0  0  0  0  0  0  0  0  0
   -0.9343    0.2327    2.5752 C   0  0  0  0  0  0  0  0  0  0  0  0
   -1.5567    0.8942    1.5137 C   0  0  0  0  0  0  0  0  0  0  0  0
   -1.3904    1.5198   -0.5446 H   0  0  0  0  0  0  0  0  0  0  0  0
    0.8880    0.5347   -0.8405 H   0  0  0  0  0  0  0  0  0  0  0  0
    9.8223    1.3177   -4.8704 N   0  0  0  0  0  0  0  0  0  0  0  0
   10.8637    1.3474   -5.2393 N   0  0  0  0  0  0  0  0  0  0  0  0
   -2.5466    1.3191    1.6457 H   0  0  0  0  0  0  0  0  0  0  0  0
   -1.4380    0.1437    3.5329 H   0  0  0  0  0  0  0  0  0  0  0  0
    0.8395   -0.8365    3.2221 H   0  0  0  0  0  0  0  0  0  0  0  0
    3.5739   -0.0518    1.4471 S   0  0  0  0  0  0  0  0  0  0  0  0
    4.6273   -1.0245    1.2413 O   0  0  0  0  0  0  0  0  0  0  0  0
    2.2095   -0.8234    0.9675 O   0  0  0  0  0  0  0  0  0  0  0  0
    3.3441    0.6398    2.6946 O   0  0  0  0  0  0  0  0  0  0  0  0
    3.7107    1.1064    0.3091 O   0  0  0  0  0  0  0  0  0  0  0  0
    4.1932    0.7188   -0.4411 H   0  0  0  0  0  0  0  0  0  0  0  0
  1  6  1  0  0  0  0
  2  1  2  0  0  0  0
  2  3  1  0  0  0  0
  3  4  2  0  0  0  0
  4  5  1  0  0  0  0
  4 13  1  0  0  0  0
  5 12  1  0  0  0  0
  6 11  1  0  0  0  0
  6  5  2  0  0  0  0
  7  1  1  0  0  0  0
  8  2  1  0  0  0  0
 10  9  3  0  0  0  0
 14 17  2  0  0  0  0
 15 14  2  0  0  0  0
 16  3  1  0  0  0  0
 16 14  1  0  0  0  0
 18 14  1  0  0  0  0
 19 18  1  0  0  0  0
M  END
