Coordinates from ORCA-job Ph-N2-HSO4-B3LYPG-6-31G_dp-MTMO-d009-169-n800
 OpenBabel09051908053D

 19 18  0  0  0  0  0  0  0  0999 V2000
   -0.8239    1.0151    0.2288 C   0  0  0  0  0  0  0  0  0  0  0  0
    0.4489    0.4739    0.0434 C   0  0  0  0  0  0  0  0  0  0  0  0
    1.0574   -0.1828    1.1088 C   0  0  0  0  0  0  0  0  0  0  0  0
    0.4390   -0.3120    2.3490 C   0  0  0  0  0  0  0  0  0  0  0  0
   -0.8320    0.2366    2.5208 C   0  0  0  0  0  0  0  0  0  0  0  0
   -1.4638    0.8975    1.4645 C   0  0  0  0  0  0  0  0  0  0  0  0
   -1.3138    1.5268   -0.5940 H   0  0  0  0  0  0  0  0  0  0  0  0
    0.9659    0.5501   -0.9067 H   0  0  0  0  0  0  0  0  0  0  0  0
    9.0327    1.2063   -4.2909 N   0  0  0  0  0  0  0  0  0  0  0  0
   10.0698    1.2481   -4.6708 N   0  0  0  0  0  0  0  0  0  0  0  0
   -2.4543    1.3188    1.6040 H   0  0  0  0  0  0  0  0  0  0  0  0
   -1.3289    0.1444    3.4818 H   0  0  0  0  0  0  0  0  0  0  0  0
    0.9499   -0.8274    3.1539 H   0  0  0  0  0  0  0  0  0  0  0  0
    3.6695   -0.0300    1.3607 S   0  0  0  0  0  0  0  0  0  0  0  0
    4.7246   -0.9995    1.1483 O   0  0  0  0  0  0  0  0  0  0  0  0
    2.3045   -0.8061    0.8902 O   0  0  0  0  0  0  0  0  0  0  0  0
    3.4455    0.6612    2.6094 O   0  0  0  0  0  0  0  0  0  0  0  0
    3.7954    1.1283    0.2215 O   0  0  0  0  0  0  0  0  0  0  0  0
    4.2753    0.7424   -0.5313 H   0  0  0  0  0  0  0  0  0  0  0  0
  1  6  1  0  0  0  0
  2  1  2  0  0  0  0
  2  3  1  0  0  0  0
  3  4  2  0  0  0  0
  4  5  1  0  0  0  0
  4 13  1  0  0  0  0
  5 12  1  0  0  0  0
  6 11  1  0  0  0  0
  6  5  2  0  0  0  0
  7  1  1  0  0  0  0
  8  2  1  0  0  0  0
 10  9  3  0  0  0  0
 14 17  2  0  0  0  0
 15 14  2  0  0  0  0
 16  3  1  0  0  0  0
 16 14  1  0  0  0  0
 18 14  1  0  0  0  0
 19 18  1  0  0  0  0
M  END
