Coordinates from ORCA-job Ph-N2-HSO4-B3LYPG-6-31G_dp-MTMO-d009-169-n800
 OpenBabel09051908053D

 19 18  0  0  0  0  0  0  0  0999 V2000
   -1.1409    0.9837    0.4316 C   0  0  0  0  0  0  0  0  0  0  0  0
    0.1272    0.4225    0.2747 C   0  0  0  0  0  0  0  0  0  0  0  0
    0.7076   -0.2302    1.3581 C   0  0  0  0  0  0  0  0  0  0  0  0
    0.0659   -0.3362    2.5887 C   0  0  0  0  0  0  0  0  0  0  0  0
   -1.1999    0.2323    2.7319 C   0  0  0  0  0  0  0  0  0  0  0  0
   -1.8039    0.8897    1.6573 C   0  0  0  0  0  0  0  0  0  0  0  0
   -1.6090    1.4925   -0.4054 H   0  0  0  0  0  0  0  0  0  0  0  0
    0.6615    0.4802   -0.6670 H   0  0  0  0  0  0  0  0  0  0  0  0
   11.9528    1.5874   -6.3893 N   0  0  0  0  0  0  0  0  0  0  0  0
   12.9996    1.6579   -6.7369 N   0  0  0  0  0  0  0  0  0  0  0  0
   -2.7905    1.3264    1.7743 H   0  0  0  0  0  0  0  0  0  0  0  0
   -1.7146    0.1584    3.6851 H   0  0  0  0  0  0  0  0  0  0  0  0
    0.5552   -0.8492    3.4084 H   0  0  0  0  0  0  0  0  0  0  0  0
    3.3165   -0.1137    1.6578 S   0  0  0  0  0  0  0  0  0  0  0  0
    4.3615   -1.0988    1.4692 O   0  0  0  0  0  0  0  0  0  0  0  0
    1.9492   -0.8736    1.1682 O   0  0  0  0  0  0  0  0  0  0  0  0
    3.0808    0.5881    2.8985 O   0  0  0  0  0  0  0  0  0  0  0  0
    3.4778    1.0357    0.5141 O   0  0  0  0  0  0  0  0  0  0  0  0
    3.9650    0.6382   -0.2278 H   0  0  0  0  0  0  0  0  0  0  0  0
  1  6  1  0  0  0  0
  2  1  2  0  0  0  0
  2  3  1  0  0  0  0
  3  4  2  0  0  0  0
  4  5  1  0  0  0  0
  4 13  1  0  0  0  0
  5 12  1  0  0  0  0
  6 11  1  0  0  0  0
  6  5  2  0  0  0  0
  7  1  1  0  0  0  0
  8  2  1  0  0  0  0
 10  9  3  0  0  0  0
 14 17  2  0  0  0  0
 15 14  2  0  0  0  0
 16  3  1  0  0  0  0
 16 14  1  0  0  0  0
 18 14  1  0  0  0  0
 19 18  1  0  0  0  0
M  END
