Coordinates from ORCA-job Ph-N2-HSO4-B3LYPG-6-31G_dp-MTMO-d009-169-n800
 OpenBabel09051908053D

 19 18  0  0  0  0  0  0  0  0999 V2000
   -0.7281    1.0186    0.1710 C   0  0  0  0  0  0  0  0  0  0  0  0
    0.5415    0.4785   -0.0387 C   0  0  0  0  0  0  0  0  0  0  0  0
    1.1750   -0.1686    1.0180 C   0  0  0  0  0  0  0  0  0  0  0  0
    0.5849   -0.2891    2.2727 C   0  0  0  0  0  0  0  0  0  0  0  0
   -0.6831    0.2582    2.4686 C   0  0  0  0  0  0  0  0  0  0  0  0
   -1.3399    0.9094    1.4216 C   0  0  0  0  0  0  0  0  0  0  0  0
   -1.2373    1.5228   -0.6445 H   0  0  0  0  0  0  0  0  0  0  0  0
    1.0371    0.5485   -1.0006 H   0  0  0  0  0  0  0  0  0  0  0  0
    8.0226    1.0840   -3.4454 N   0  0  0  0  0  0  0  0  0  0  0  0
    9.0451    1.1368   -3.8613 N   0  0  0  0  0  0  0  0  0  0  0  0
   -2.3280    1.3296    1.5799 H   0  0  0  0  0  0  0  0  0  0  0  0
   -1.1582    0.1726    3.4411 H   0  0  0  0  0  0  0  0  0  0  0  0
    1.1148   -0.7973    3.0699 H   0  0  0  0  0  0  0  0  0  0  0  0
    3.7925   -0.0063    1.2037 S   0  0  0  0  0  0  0  0  0  0  0  0
    4.8433   -0.9806    0.9922 O   0  0  0  0  0  0  0  0  0  0  0  0
    2.4182   -0.7915    0.7769 O   0  0  0  0  0  0  0  0  0  0  0  0
    3.5924    0.7117    2.4414 O   0  0  0  0  0  0  0  0  0  0  0  0
    3.8973    1.1267    0.0373 O   0  0  0  0  0  0  0  0  0  0  0  0
    4.3715    0.7273   -0.7122 H   0  0  0  0  0  0  0  0  0  0  0  0
  1  6  1  0  0  0  0
  2  1  2  0  0  0  0
  2  3  1  0  0  0  0
  3  4  2  0  0  0  0
  4  5  1  0  0  0  0
  4 13  1  0  0  0  0
  5 12  1  0  0  0  0
  6 11  1  0  0  0  0
  6  5  2  0  0  0  0
  7  1  1  0  0  0  0
  8  2  1  0  0  0  0
 10  9  3  0  0  0  0
 14 17  2  0  0  0  0
 15 14  2  0  0  0  0
 16  3  1  0  0  0  0
 16 14  1  0  0  0  0
 18 14  1  0  0  0  0
 19 18  1  0  0  0  0
M  END
