Coordinates from ORCA-job Ph-N2-HSO4-B3LYPG-6-31G_dp-MTMO-d009-169-n800
 OpenBabel09051908053D

 19 18  0  0  0  0  0  0  0  0999 V2000
   -0.6772    1.0302    0.1710 C   0  0  0  0  0  0  0  0  0  0  0  0
    0.5903    0.5179   -0.1093 C   0  0  0  0  0  0  0  0  0  0  0  0
    1.2860   -0.1325    0.9053 C   0  0  0  0  0  0  0  0  0  0  0  0
    0.7615   -0.2832    2.1850 C   0  0  0  0  0  0  0  0  0  0  0  0
   -0.5061    0.2351    2.4511 C   0  0  0  0  0  0  0  0  0  0  0  0
   -1.2253    0.8895    1.4479 C   0  0  0  0  0  0  0  0  0  0  0  0
   -1.2351    1.5374   -0.6101 H   0  0  0  0  0  0  0  0  0  0  0  0
    1.0387    0.6131   -1.0919 H   0  0  0  0  0  0  0  0  0  0  0  0
    6.9736    0.8493   -2.3515 N   0  0  0  0  0  0  0  0  0  0  0  0
    8.0023    0.9155   -2.7486 N   0  0  0  0  0  0  0  0  0  0  0  0
   -2.2122    1.2877    1.6612 H   0  0  0  0  0  0  0  0  0  0  0  0
   -0.9311    0.1252    3.4441 H   0  0  0  0  0  0  0  0  0  0  0  0
    1.3397   -0.7934    2.9467 H   0  0  0  0  0  0  0  0  0  0  0  0
    3.9110    0.0992    0.8957 S   0  0  0  0  0  0  0  0  0  0  0  0
    4.9667   -0.8869    0.7763 O   0  0  0  0  0  0  0  0  0  0  0  0
    2.5286   -0.7293    0.5971 O   0  0  0  0  0  0  0  0  0  0  0  0
    3.7308    0.9492    2.0511 O   0  0  0  0  0  0  0  0  0  0  0  0
    3.9912    1.0797   -0.4029 O   0  0  0  0  0  0  0  0  0  0  0  0
    4.6281    0.6874   -1.0267 H   0  0  0  0  0  0  0  0  0  0  0  0
  1  6  1  0  0  0  0
  2  1  2  0  0  0  0
  2  3  1  0  0  0  0
  3  4  2  0  0  0  0
  4  5  1  0  0  0  0
  4 13  1  0  0  0  0
  5 12  1  0  0  0  0
  6 11  1  0  0  0  0
  6  5  2  0  0  0  0
  7  1  1  0  0  0  0
  8  2  1  0  0  0  0
 10  9  3  0  0  0  0
 14 17  2  0  0  0  0
 15 14  2  0  0  0  0
 16 14  1  0  0  0  0
 16  3  1  0  0  0  0
 18 14  1  0  0  0  0
 19 18  1  0  0  0  0
M  END
