Coordinates from ORCA-job Ph-N2-HSO4-B3LYPG-6-31G_dp-MTMO-d009-169-n800
 OpenBabel09051908053D

 19 18  0  0  0  0  0  0  0  0999 V2000
   -0.0656    1.3412    0.0699 C   0  0  0  0  0  0  0  0  0  0  0  0
    1.3075    1.0916    0.0445 C   0  0  0  0  0  0  0  0  0  0  0  0
    1.8190    0.0952    0.8723 C   0  0  0  0  0  0  0  0  0  0  0  0
    1.0007   -0.6546    1.7122 C   0  0  0  0  0  0  0  0  0  0  0  0
   -0.3712   -0.4005    1.7196 C   0  0  0  0  0  0  0  0  0  0  0  0
   -0.9052    0.5976    0.9017 C   0  0  0  0  0  0  0  0  0  0  0  0
   -0.4781    2.1194   -0.5654 H   0  0  0  0  0  0  0  0  0  0  0  0
    1.9706    1.6642   -0.5929 H   0  0  0  0  0  0  0  0  0  0  0  0
    4.2578   -0.3153   -1.9911 N   0  0  0  0  0  0  0  0  0  0  0  0
    3.9088   -1.1921   -2.5646 N   0  0  0  0  0  0  0  0  0  0  0  0
   -1.9726    0.7974    0.9141 H   0  0  0  0  0  0  0  0  0  0  0  0
   -1.0197   -0.9806    2.3690 H   0  0  0  0  0  0  0  0  0  0  0  0
    1.4428   -1.4212    2.3394 H   0  0  0  0  0  0  0  0  0  0  0  0
    4.3100    0.7851    1.4337 S   0  0  0  0  0  0  0  0  0  0  0  0
    5.5114   -0.0181    1.5159 O   0  0  0  0  0  0  0  0  0  0  0  0
    3.1834   -0.2535    0.8320 O   0  0  0  0  0  0  0  0  0  0  0  0
    3.7669    1.5450    2.5347 O   0  0  0  0  0  0  0  0  0  0  0  0
    4.4550    1.8356    0.2010 O   0  0  0  0  0  0  0  0  0  0  0  0
    4.8405    1.3550   -0.5544 H   0  0  0  0  0  0  0  0  0  0  0  0
  1  6  1  0  0  0  0
  2  1  2  0  0  0  0
  2  3  1  0  0  0  0
  3  4  2  0  0  0  0
  4  5  1  0  0  0  0
  4 13  1  0  0  0  0
  5 12  1  0  0  0  0
  6 11  1  0  0  0  0
  6  5  2  0  0  0  0
  7  1  1  0  0  0  0
  8  2  1  0  0  0  0
 10  9  3  0  0  0  0
 14 15  2  0  0  0  0
 14 17  2  0  0  0  0
 16  3  1  0  0  0  0
 16 14  1  0  0  0  0
 18 14  1  0  0  0  0
 19 18  1  0  0  0  0
M  END
