Coordinates from ORCA-job Ph-N2-HSO4-B3LYPG-6-31G_dp-MTMO-d009-169-n800
 OpenBabel09051908053D

 19 17  0  0  0  0  0  0  0  0999 V2000
   -0.9894    0.7741   -0.4745 C   0  0  0  0  0  0  0  0  0  0  0  0
    0.2248    0.5388   -1.1660 C   0  0  0  0  0  0  0  0  0  0  0  0
    1.1647    0.2791   -0.2137 C   0  0  0  0  0  0  0  0  0  0  0  0
    1.2453    0.1979    1.0431 C   0  0  0  0  0  0  0  0  0  0  0  0
    0.0366    0.4296    1.7382 C   0  0  0  0  0  0  0  0  0  0  0  0
   -1.0752    0.7200    0.9281 C   0  0  0  0  0  0  0  0  0  0  0  0
   -1.8749    1.0009   -1.0623 H   0  0  0  0  0  0  0  0  0  0  0  0
    0.3348    0.5684   -2.2415 H   0  0  0  0  0  0  0  0  0  0  0  0
    3.2184   -0.5431   -2.3607 N   0  0  0  0  0  0  0  0  0  0  0  0
    4.1329   -1.0744   -2.6799 N   0  0  0  0  0  0  0  0  0  0  0  0
   -2.0351    0.9107    1.4003 H   0  0  0  0  0  0  0  0  0  0  0  0
   -0.0451    0.3914    2.8203 H   0  0  0  0  0  0  0  0  0  0  0  0
    2.8717   -0.1463    1.8790 H   0  0  0  0  0  0  0  0  0  0  0  0
    4.9692    0.3225    1.6491 S   0  0  0  0  0  0  0  0  0  0  0  0
    6.1496   -0.2423    2.2726 O   0  0  0  0  0  0  0  0  0  0  0  0
    4.7422    0.3135    0.2177 O   0  0  0  0  0  0  0  0  0  0  0  0
    3.7106   -0.3196    2.4033 O   0  0  0  0  0  0  0  0  0  0  0  0
    4.8699    1.8920    2.0883 O   0  0  0  0  0  0  0  0  0  0  0  0
    5.3107    1.9783    2.9502 H   0  0  0  0  0  0  0  0  0  0  0  0
  1  6  1  0  0  0  0
  2  1  2  0  0  0  0
  2  3  1  0  0  0  0
  3  4  2  0  0  0  0
  4  5  1  0  0  0  0
  5 12  1  0  0  0  0
  6 11  1  0  0  0  0
  6  5  2  0  0  0  0
  7  1  1  0  0  0  0
  8  2  1  0  0  0  0
 10  9  3  0  0  0  0
 13 17  1  0  0  0  0
 14 18  1  0  0  0  0
 14 15  2  0  0  0  0
 14 17  1  0  0  0  0
 16 14  2  0  0  0  0
 18 19  1  0  0  0  0
M  RAD  2   3   2   4   2
M  END
