Coordinates from ORCA-job Ph-N2-HSO4-B3LYPG-6-31G_dp-MTMO-d009-169-n800
 OpenBabel09051908053D

 19 18  0  0  0  0  0  0  0  0999 V2000
   -0.7685    1.0182    0.1945 C   0  0  0  0  0  0  0  0  0  0  0  0
    0.5036    0.4793   -0.0020 C   0  0  0  0  0  0  0  0  0  0  0  0
    1.1236   -0.1742    1.0588 C   0  0  0  0  0  0  0  0  0  0  0  0
    0.5174   -0.3024    2.3050 C   0  0  0  0  0  0  0  0  0  0  0  0
   -0.7530    0.2439    2.4879 C   0  0  0  0  0  0  0  0  0  0  0  0
   -1.3964    0.9015    1.4365 C   0  0  0  0  0  0  0  0  0  0  0  0
   -1.2673    1.5273   -0.6244 H   0  0  0  0  0  0  0  0  0  0  0  0
    1.0115    0.5549   -0.9571 H   0  0  0  0  0  0  0  0  0  0  0  0
    8.4724    1.1356   -3.8428 N   0  0  0  0  0  0  0  0  0  0  0  0
    9.5026    1.1753   -4.2412 N   0  0  0  0  0  0  0  0  0  0  0  0
   -2.3864    1.3209    1.5847 H   0  0  0  0  0  0  0  0  0  0  0  0
   -1.2406    0.1524    3.4537 H   0  0  0  0  0  0  0  0  0  0  0  0
    1.0370   -0.8153    3.1059 H   0  0  0  0  0  0  0  0  0  0  0  0
    3.7379   -0.0148    1.2837 S   0  0  0  0  0  0  0  0  0  0  0  0
    4.7925   -0.9841    1.0680 O   0  0  0  0  0  0  0  0  0  0  0  0
    2.3698   -0.7954    0.8295 O   0  0  0  0  0  0  0  0  0  0  0  0
    3.5236    0.6832    2.5304 O   0  0  0  0  0  0  0  0  0  0  0  0
    3.8528    1.1370    0.1369 O   0  0  0  0  0  0  0  0  0  0  0  0
    4.3290    0.7482   -0.6168 H   0  0  0  0  0  0  0  0  0  0  0  0
  1  6  1  0  0  0  0
  2  1  2  0  0  0  0
  2  3  1  0  0  0  0
  3  4  2  0  0  0  0
  4  5  1  0  0  0  0
  4 13  1  0  0  0  0
  5 12  1  0  0  0  0
  6 11  1  0  0  0  0
  6  5  2  0  0  0  0
  7  1  1  0  0  0  0
  8  2  1  0  0  0  0
 10  9  3  0  0  0  0
 14 17  2  0  0  0  0
 15 14  2  0  0  0  0
 16  3  1  0  0  0  0
 16 14  1  0  0  0  0
 18 14  1  0  0  0  0
 19 18  1  0  0  0  0
M  END
