Coordinates from ORCA-job Ph-N2-HSO4-B3LYPG-6-31G_dp-MTMO-d009-169-n800
 OpenBabel09051908053D

 19 18  0  0  0  0  0  0  0  0999 V2000
   -0.6808    1.0268    0.1633 C   0  0  0  0  0  0  0  0  0  0  0  0
    0.5858    0.5007   -0.0947 C   0  0  0  0  0  0  0  0  0  0  0  0
    1.2620   -0.1462    0.9353 C   0  0  0  0  0  0  0  0  0  0  0  0
    0.7184   -0.2801    2.2091 C   0  0  0  0  0  0  0  0  0  0  0  0
   -0.5478    0.2522    2.4528 C   0  0  0  0  0  0  0  0  0  0  0  0
   -1.2474    0.9032    1.4337 C   0  0  0  0  0  0  0  0  0  0  0  0
   -1.2234    1.5313   -0.6303 H   0  0  0  0  0  0  0  0  0  0  0  0
    1.0479    0.5826   -1.0722 H   0  0  0  0  0  0  0  0  0  0  0  0
    7.2119    0.9220   -2.6095 N   0  0  0  0  0  0  0  0  0  0  0  0
    8.2307    1.0078   -3.0286 N   0  0  0  0  0  0  0  0  0  0  0  0
   -2.2335    1.3121    1.6296 H   0  0  0  0  0  0  0  0  0  0  0  0
   -0.9875    0.1556    3.4409 H   0  0  0  0  0  0  0  0  0  0  0  0
    1.2815   -0.7879    2.9835 H   0  0  0  0  0  0  0  0  0  0  0  0
    3.8858    0.0596    0.9794 S   0  0  0  0  0  0  0  0  0  0  0  0
    4.9369   -0.9266    0.8287 O   0  0  0  0  0  0  0  0  0  0  0  0
    2.5030   -0.7561    0.6495 O   0  0  0  0  0  0  0  0  0  0  0  0
    3.7066    0.8746    2.1594 O   0  0  0  0  0  0  0  0  0  0  0  0
    3.9702    1.0862   -0.2834 O   0  0  0  0  0  0  0  0  0  0  0  0
    4.5412    0.6736   -0.9550 H   0  0  0  0  0  0  0  0  0  0  0  0
  1  6  1  0  0  0  0
  2  1  2  0  0  0  0
  2  3  1  0  0  0  0
  3  4  2  0  0  0  0
  4  5  1  0  0  0  0
  4 13  1  0  0  0  0
  5 12  1  0  0  0  0
  6 11  1  0  0  0  0
  6  5  2  0  0  0  0
  7  1  1  0  0  0  0
  8  2  1  0  0  0  0
 10  9  3  0  0  0  0
 14 17  2  0  0  0  0
 15 14  2  0  0  0  0
 16  3  1  0  0  0  0
 16 14  1  0  0  0  0
 18 14  1  0  0  0  0
 19 18  1  0  0  0  0
M  END
