Coordinates from ORCA-job Ph-N2-HSO4-B3LYPG-6-31G_dp-MTMO-d009-169-n800
 OpenBabel09051908053D

 19 18  0  0  0  0  0  0  0  0999 V2000
   -1.0297    0.9956    0.3598 C   0  0  0  0  0  0  0  0  0  0  0  0
    0.2403    0.4409    0.1955 C   0  0  0  0  0  0  0  0  0  0  0  0
    0.8278   -0.2142    1.2736 C   0  0  0  0  0  0  0  0  0  0  0  0
    0.1914   -0.3288    2.5061 C   0  0  0  0  0  0  0  0  0  0  0  0
   -1.0764    0.2332    2.6568 C   0  0  0  0  0  0  0  0  0  0  0  0
   -1.6875    0.8928    1.5875 C   0  0  0  0  0  0  0  0  0  0  0  0
   -1.5034    1.5061   -0.4730 H   0  0  0  0  0  0  0  0  0  0  0  0
    0.7708    0.5054   -0.7480 H   0  0  0  0  0  0  0  0  0  0  0  0
   10.9491    1.4621   -5.6813 N   0  0  0  0  0  0  0  0  0  0  0  0
   11.9943    1.5148   -6.0368 N   0  0  0  0  0  0  0  0  0  0  0  0
   -2.6757    1.3245    1.7104 H   0  0  0  0  0  0  0  0  0  0  0  0
   -1.5872    0.1525    3.6115 H   0  0  0  0  0  0  0  0  0  0  0  0
    0.6862   -0.8433    3.3215 H   0  0  0  0  0  0  0  0  0  0  0  0
    3.4374   -0.0860    1.5623 S   0  0  0  0  0  0  0  0  0  0  0  0
    4.4862   -1.0658    1.3670 O   0  0  0  0  0  0  0  0  0  0  0  0
    2.0716   -0.8509    1.0761 O   0  0  0  0  0  0  0  0  0  0  0  0
    3.2034    0.6114    2.8057 O   0  0  0  0  0  0  0  0  0  0  0  0
    3.5889    1.0672    0.4210 O   0  0  0  0  0  0  0  0  0  0  0  0
    4.0744    0.6739   -0.3242 H   0  0  0  0  0  0  0  0  0  0  0  0
  1  6  1  0  0  0  0
  2  1  2  0  0  0  0
  2  3  1  0  0  0  0
  3  4  2  0  0  0  0
  4  5  1  0  0  0  0
  4 13  1  0  0  0  0
  5 12  1  0  0  0  0
  6 11  1  0  0  0  0
  6  5  2  0  0  0  0
  7  1  1  0  0  0  0
  8  2  1  0  0  0  0
 10  9  3  0  0  0  0
 14 17  2  0  0  0  0
 15 14  2  0  0  0  0
 16  3  1  0  0  0  0
 16 14  1  0  0  0  0
 18 14  1  0  0  0  0
 19 18  1  0  0  0  0
M  END
