Coordinates from ORCA-job Ph-N2-HSO4-B3LYPG-6-31G_dp-MTMO-d009-169-n800
 OpenBabel09051908053D

 19 18  0  0  0  0  0  0  0  0999 V2000
   -1.2390    0.9729    0.4963 C   0  0  0  0  0  0  0  0  0  0  0  0
    0.0278    0.4080    0.3431 C   0  0  0  0  0  0  0  0  0  0  0  0
    0.6047   -0.2433    1.4292 C   0  0  0  0  0  0  0  0  0  0  0  0
   -0.0393   -0.3441    2.6590 C   0  0  0  0  0  0  0  0  0  0  0  0
   -1.3039    0.2281    2.7986 C   0  0  0  0  0  0  0  0  0  0  0  0
   -1.9043    0.8840    1.7210 C   0  0  0  0  0  0  0  0  0  0  0  0
   -1.7044    1.4806   -0.3429 H   0  0  0  0  0  0  0  0  0  0  0  0
    0.5640    0.4616   -0.5979 H   0  0  0  0  0  0  0  0  0  0  0  0
   12.8165    1.6945   -6.9878 N   0  0  0  0  0  0  0  0  0  0  0  0
   13.8641    1.7697   -7.3320 N   0  0  0  0  0  0  0  0  0  0  0  0
   -2.8900    1.3237    1.8352 H   0  0  0  0  0  0  0  0  0  0  0  0
   -1.8204    0.1582    3.7510 H   0  0  0  0  0  0  0  0  0  0  0  0
    0.4472   -0.8562    3.4810 H   0  0  0  0  0  0  0  0  0  0  0  0
    3.2133   -0.1334    1.7342 S   0  0  0  0  0  0  0  0  0  0  0  0
    4.2561   -1.1216    1.5489 O   0  0  0  0  0  0  0  0  0  0  0  0
    1.8449   -0.8904    1.2431 O   0  0  0  0  0  0  0  0  0  0  0  0
    2.9772    0.5707    2.9735 O   0  0  0  0  0  0  0  0  0  0  0  0
    3.3797    1.0139    0.5891 O   0  0  0  0  0  0  0  0  0  0  0  0
    3.8676    0.6141   -0.1511 H   0  0  0  0  0  0  0  0  0  0  0  0
  1  6  1  0  0  0  0
  2  1  2  0  0  0  0
  2  3  1  0  0  0  0
  3  4  2  0  0  0  0
  4  5  1  0  0  0  0
  4 13  1  0  0  0  0
  5 12  1  0  0  0  0
  6 11  1  0  0  0  0
  6  5  2  0  0  0  0
  7  1  1  0  0  0  0
  8  2  1  0  0  0  0
 10  9  3  0  0  0  0
 14 17  2  0  0  0  0
 15 14  2  0  0  0  0
 16  3  1  0  0  0  0
 16 14  1  0  0  0  0
 18 14  1  0  0  0  0
 19 18  1  0  0  0  0
M  END
