Coordinates from ORCA-job Ph-N2-HSO4-B3LYPG-6-31G_dp-MTMO-d009-169-n800
 OpenBabel09051908053D

 19 19  0  0  1  0  0  0  0  0999 V2000
   -0.5532   -0.1413   -0.3737 C   0  0  0  0  0  0  0  0  0  0  0  0
    0.4490    0.2958   -1.1808 C   0  0  0  0  0  0  0  0  0  0  0  0
    1.6197    0.8747   -0.5811 C   0  0  0  0  0  0  0  0  0  0  0  0
    1.8990    0.8071    0.8700 C   0  0  1  0  0  0  0  0  0  0  0  0
    0.6777    0.5054    1.6472 C   0  0  0  0  0  0  0  0  0  0  0  0
   -0.4402    0.0195    1.0561 C   0  0  0  0  0  0  0  0  0  0  0  0
   -1.4497   -0.5786   -0.7986 H   0  0  0  0  0  0  0  0  0  0  0  0
    0.3872    0.2362   -2.2626 H   0  0  0  0  0  0  0  0  0  0  0  0
    2.5344    1.4516   -1.3732 N   0  0  0  0  0  0  0  0  0  0  0  0
    3.2997    1.9423   -2.0514 N   0  0  0  0  0  0  0  0  0  0  0  0
   -1.2961   -0.2373    1.6744 H   0  0  0  0  0  0  0  0  0  0  0  0
    0.7385    0.6356    2.7221 H   0  0  0  0  0  0  0  0  0  0  0  0
    2.4688    1.6561    1.2452 H   0  0  0  0  0  0  0  0  0  0  0  0
    4.4021   -0.1129    1.4000 S   0  0  0  0  0  0  0  0  0  0  0  0
    5.1276   -1.3664    1.4467 O   0  0  0  0  0  0  0  0  0  0  0  0
    4.8624    0.9830    0.5486 O   0  0  0  0  0  0  0  0  0  0  0  0
    2.8711   -0.4279    1.1539 O   0  0  0  0  0  0  0  0  0  0  0  0
    4.2629    0.4999    2.9222 O   0  0  0  0  0  0  0  0  0  0  0  0
    5.1007    0.9486    3.1266 H   0  0  0  0  0  0  0  0  0  0  0  0
  1  6  1  0  0  0  0
  2  3  2  0  0  0  0
  2  1  1  0  0  0  0
  3  4  1  0  0  0  0
  4 17  1  0  0  0  0
  4 13  1  1  0  0  0
  4  5  1  0  0  0  0
  5 12  1  0  0  0  0
  6  5  2  0  0  0  0
  6 11  1  0  0  0  0
  7  1  1  0  0  0  0
  8  2  1  0  0  0  0
  9  3  1  0  0  0  0
 10  9  1  0  0  0  0
 14 15  2  0  0  0  0
 14 18  1  0  0  0  0
 16 14  2  0  0  0  0
 17 14  1  0  0  0  0
 18 19  1  0  0  0  0
M  RAD  3   1   2   9   2  10   3
M  END
