Coordinates from ORCA-job Ph-N2-HSO4-B3LYPG-6-31G_dp-MTMO-d009-169-n800
 OpenBabel09051908053D

 19 18  0  0  0  0  0  0  0  0999 V2000
   -0.8651    1.0115    0.2549 C   0  0  0  0  0  0  0  0  0  0  0  0
    0.4076    0.4682    0.0742 C   0  0  0  0  0  0  0  0  0  0  0  0
    1.0113   -0.1889    1.1421 C   0  0  0  0  0  0  0  0  0  0  0  0
    0.3884   -0.3165    2.3802 C   0  0  0  0  0  0  0  0  0  0  0  0
   -0.8823    0.2342    2.5473 C   0  0  0  0  0  0  0  0  0  0  0  0
   -1.5095    0.8956    1.4884 C   0  0  0  0  0  0  0  0  0  0  0  0
   -1.3512    1.5235   -0.5698 H   0  0  0  0  0  0  0  0  0  0  0  0
    0.9280    0.5430   -0.8741 H   0  0  0  0  0  0  0  0  0  0  0  0
    9.4198    1.2622   -4.5761 N   0  0  0  0  0  0  0  0  0  0  0  0
   10.4593    1.2945   -4.9504 N   0  0  0  0  0  0  0  0  0  0  0  0
   -2.4997    1.3185    1.6242 H   0  0  0  0  0  0  0  0  0  0  0  0
   -1.3828    0.1433    3.5065 H   0  0  0  0  0  0  0  0  0  0  0  0
    0.8956   -0.8323    3.1872 H   0  0  0  0  0  0  0  0  0  0  0  0
    3.6227   -0.0404    1.4036 S   0  0  0  0  0  0  0  0  0  0  0  0
    4.6771   -1.0113    1.1942 O   0  0  0  0  0  0  0  0  0  0  0  0
    2.2581   -0.8143    0.9282 O   0  0  0  0  0  0  0  0  0  0  0  0
    3.3955    0.6505    2.6519 O   0  0  0  0  0  0  0  0  0  0  0  0
    3.7539    1.1182    0.2654 O   0  0  0  0  0  0  0  0  0  0  0  0
    4.2350    0.7318   -0.4863 H   0  0  0  0  0  0  0  0  0  0  0  0
  1  6  1  0  0  0  0
  2  1  2  0  0  0  0
  2  3  1  0  0  0  0
  3  4  2  0  0  0  0
  4  5  1  0  0  0  0
  4 13  1  0  0  0  0
  5 12  1  0  0  0  0
  6 11  1  0  0  0  0
  6  5  2  0  0  0  0
  7  1  1  0  0  0  0
  8  2  1  0  0  0  0
 10  9  3  0  0  0  0
 14 17  2  0  0  0  0
 15 14  2  0  0  0  0
 16  3  1  0  0  0  0
 16 14  1  0  0  0  0
 18 14  1  0  0  0  0
 19 18  1  0  0  0  0
M  END
