Coordinates from ORCA-job Ph-N2-HSO4-B3LYPG-6-31G_dp-MTMO-d009-169-n800
 OpenBabel09051908053D

 19 18  0  0  0  0  0  0  0  0999 V2000
   -0.9157    1.0070    0.2871 C   0  0  0  0  0  0  0  0  0  0  0  0
    0.3565    0.4605    0.1120 C   0  0  0  0  0  0  0  0  0  0  0  0
    0.9546   -0.1966    1.1830 C   0  0  0  0  0  0  0  0  0  0  0  0
    0.3266   -0.3213    2.4188 C   0  0  0  0  0  0  0  0  0  0  0  0
   -0.9435    0.2325    2.5803 C   0  0  0  0  0  0  0  0  0  0  0  0
   -1.5651    0.8940    1.5183 C   0  0  0  0  0  0  0  0  0  0  0  0
   -1.3975    1.5190   -0.5401 H   0  0  0  0  0  0  0  0  0  0  0  0
    0.8807    0.5330   -0.8345 H   0  0  0  0  0  0  0  0  0  0  0  0
    9.8942    1.3274   -4.9228 N   0  0  0  0  0  0  0  0  0  0  0  0
   10.9360    1.3573   -5.2908 N   0  0  0  0  0  0  0  0  0  0  0  0
   -2.5549    1.3193    1.6497 H   0  0  0  0  0  0  0  0  0  0  0  0
   -1.4478    0.1439    3.5378 H   0  0  0  0  0  0  0  0  0  0  0  0
    0.8296   -0.8372    3.2284 H   0  0  0  0  0  0  0  0  0  0  0  0
    3.5652   -0.0539    1.4547 S   0  0  0  0  0  0  0  0  0  0  0  0
    4.6184   -1.0270    1.2496 O   0  0  0  0  0  0  0  0  0  0  0  0
    2.2008   -0.8250    0.9745 O   0  0  0  0  0  0  0  0  0  0  0  0
    3.3349    0.6380    2.7020 O   0  0  0  0  0  0  0  0  0  0  0  0
    3.7030    1.1041    0.3167 O   0  0  0  0  0  0  0  0  0  0  0  0
    4.1857    0.7162   -0.4332 H   0  0  0  0  0  0  0  0  0  0  0  0
  1  6  1  0  0  0  0
  2  1  2  0  0  0  0
  2  3  1  0  0  0  0
  3  4  2  0  0  0  0
  4  5  1  0  0  0  0
  4 13  1  0  0  0  0
  5 12  1  0  0  0  0
  6 11  1  0  0  0  0
  6  5  2  0  0  0  0
  7  1  1  0  0  0  0
  8  2  1  0  0  0  0
 10  9  3  0  0  0  0
 14 17  2  0  0  0  0
 15 14  2  0  0  0  0
 16  3  1  0  0  0  0
 16 14  1  0  0  0  0
 18 14  1  0  0  0  0
 19 18  1  0  0  0  0
M  END
