Coordinates from ORCA-job Ph-N2-HSO4-B3LYPG-6-31G_dp-MTMO-d009-169-n800
 OpenBabel09051908053D

 19 18  0  0  0  0  0  0  0  0999 V2000
   -1.2458    0.9722    0.5008 C   0  0  0  0  0  0  0  0  0  0  0  0
    0.0210    0.4071    0.3478 C   0  0  0  0  0  0  0  0  0  0  0  0
    0.5977   -0.2441    1.4340 C   0  0  0  0  0  0  0  0  0  0  0  0
   -0.0464   -0.3447    2.6638 C   0  0  0  0  0  0  0  0  0  0  0  0
   -1.3109    0.2277    2.8031 C   0  0  0  0  0  0  0  0  0  0  0  0
   -1.9112    0.8836    1.7255 C   0  0  0  0  0  0  0  0  0  0  0  0
   -1.7110    1.4798   -0.3386 H   0  0  0  0  0  0  0  0  0  0  0  0
    0.5572    0.4605   -0.5932 H   0  0  0  0  0  0  0  0  0  0  0  0
   12.8752    1.7017   -7.0282 N   0  0  0  0  0  0  0  0  0  0  0  0
   13.9229    1.7771   -7.3722 N   0  0  0  0  0  0  0  0  0  0  0  0
   -2.8968    1.3233    1.8395 H   0  0  0  0  0  0  0  0  0  0  0  0
   -1.8275    0.1580    3.7556 H   0  0  0  0  0  0  0  0  0  0  0  0
    0.4400   -0.8567    3.4858 H   0  0  0  0  0  0  0  0  0  0  0  0
    3.2063   -0.1346    1.7392 S   0  0  0  0  0  0  0  0  0  0  0  0
    4.2490   -1.1229    1.5541 O   0  0  0  0  0  0  0  0  0  0  0  0
    1.8379   -0.8914    1.2481 O   0  0  0  0  0  0  0  0  0  0  0  0
    2.9702    0.5696    2.9784 O   0  0  0  0  0  0  0  0  0  0  0  0
    3.3730    1.0126    0.5941 O   0  0  0  0  0  0  0  0  0  0  0  0
    3.8609    0.6127   -0.1460 H   0  0  0  0  0  0  0  0  0  0  0  0
  1  6  1  0  0  0  0
  2  1  2  0  0  0  0
  2  3  1  0  0  0  0
  3  4  2  0  0  0  0
  4  5  1  0  0  0  0
  4 13  1  0  0  0  0
  5 12  1  0  0  0  0
  6 11  1  0  0  0  0
  6  5  2  0  0  0  0
  7  1  1  0  0  0  0
  8  2  1  0  0  0  0
 10  9  3  0  0  0  0
 14 17  2  0  0  0  0
 15 14  2  0  0  0  0
 16  3  1  0  0  0  0
 16 14  1  0  0  0  0
 18 14  1  0  0  0  0
 19 18  1  0  0  0  0
M  END
