Coordinates from ORCA-job Ph-N2-HSO4-B3LYPG-6-31G_dp-MTMO-d009-169-n800
 OpenBabel09051908053D

 19 18  0  0  0  0  0  0  0  0999 V2000
   -1.2441    0.9724    0.4997 C   0  0  0  0  0  0  0  0  0  0  0  0
    0.0227    0.4073    0.3466 C   0  0  0  0  0  0  0  0  0  0  0  0
    0.5995   -0.2439    1.4328 C   0  0  0  0  0  0  0  0  0  0  0  0
   -0.0446   -0.3446    2.6626 C   0  0  0  0  0  0  0  0  0  0  0  0
   -1.3091    0.2278    2.8020 C   0  0  0  0  0  0  0  0  0  0  0  0
   -1.9094    0.8837    1.7244 C   0  0  0  0  0  0  0  0  0  0  0  0
   -1.7093    1.4800   -0.3397 H   0  0  0  0  0  0  0  0  0  0  0  0
    0.5589    0.4608   -0.5944 H   0  0  0  0  0  0  0  0  0  0  0  0
   12.8605    1.6999   -7.0181 N   0  0  0  0  0  0  0  0  0  0  0  0
   13.9082    1.7753   -7.3622 N   0  0  0  0  0  0  0  0  0  0  0  0
   -2.8951    1.3234    1.8384 H   0  0  0  0  0  0  0  0  0  0  0  0
   -1.8258    0.1581    3.7544 H   0  0  0  0  0  0  0  0  0  0  0  0
    0.4418   -0.8566    3.4846 H   0  0  0  0  0  0  0  0  0  0  0  0
    3.2080   -0.1343    1.7379 S   0  0  0  0  0  0  0  0  0  0  0  0
    4.2508   -1.1226    1.5528 O   0  0  0  0  0  0  0  0  0  0  0  0
    1.8396   -0.8912    1.2468 O   0  0  0  0  0  0  0  0  0  0  0  0
    2.9719    0.5699    2.9772 O   0  0  0  0  0  0  0  0  0  0  0  0
    3.3747    1.0130    0.5928 O   0  0  0  0  0  0  0  0  0  0  0  0
    3.8626    0.6131   -0.1473 H   0  0  0  0  0  0  0  0  0  0  0  0
  1  6  1  0  0  0  0
  2  1  2  0  0  0  0
  2  3  1  0  0  0  0
  3  4  2  0  0  0  0
  4  5  1  0  0  0  0
  4 13  1  0  0  0  0
  5 12  1  0  0  0  0
  6 11  1  0  0  0  0
  6  5  2  0  0  0  0
  7  1  1  0  0  0  0
  8  2  1  0  0  0  0
 10  9  3  0  0  0  0
 14 17  2  0  0  0  0
 15 14  2  0  0  0  0
 16  3  1  0  0  0  0
 16 14  1  0  0  0  0
 18 14  1  0  0  0  0
 19 18  1  0  0  0  0
M  END
