Coordinates from ORCA-job Ph-N2-HSO4-B3LYPG-6-31G_dp-MTMO-d009-169-n800
 OpenBabel09051908053D

 19 18  0  0  0  0  0  0  0  0999 V2000
   -0.7724    1.0181    0.1969 C   0  0  0  0  0  0  0  0  0  0  0  0
    0.4999    0.4791    0.0014 C   0  0  0  0  0  0  0  0  0  0  0  0
    1.1188   -0.1748    1.0625 C   0  0  0  0  0  0  0  0  0  0  0  0
    0.5114   -0.3033    2.3082 C   0  0  0  0  0  0  0  0  0  0  0  0
   -0.7592    0.2430    2.4900 C   0  0  0  0  0  0  0  0  0  0  0  0
   -1.4015    0.9011    1.4383 C   0  0  0  0  0  0  0  0  0  0  0  0
   -1.2703    1.5275   -0.6224 H   0  0  0  0  0  0  0  0  0  0  0  0
    1.0086    0.5549   -0.9532 H   0  0  0  0  0  0  0  0  0  0  0  0
    8.5138    1.1407   -3.8776 N   0  0  0  0  0  0  0  0  0  0  0  0
    9.5446    1.1802   -4.2744 N   0  0  0  0  0  0  0  0  0  0  0  0
   -2.3916    1.3205    1.5856 H   0  0  0  0  0  0  0  0  0  0  0  0
   -1.2476    0.1513    3.4554 H   0  0  0  0  0  0  0  0  0  0  0  0
    1.0302   -0.8165    3.1094 H   0  0  0  0  0  0  0  0  0  0  0  0
    3.7329   -0.0159    1.2902 S   0  0  0  0  0  0  0  0  0  0  0  0
    4.7876   -0.9851    1.0747 O   0  0  0  0  0  0  0  0  0  0  0  0
    2.3651   -0.7960    0.8342 O   0  0  0  0  0  0  0  0  0  0  0  0
    3.5175    0.6812    2.5373 O   0  0  0  0  0  0  0  0  0  0  0  0
    3.8487    1.1368    0.1444 O   0  0  0  0  0  0  0  0  0  0  0  0
    4.3253    0.7486   -0.6093 H   0  0  0  0  0  0  0  0  0  0  0  0
  1  6  1  0  0  0  0
  2  1  2  0  0  0  0
  2  3  1  0  0  0  0
  3  4  2  0  0  0  0
  4  5  1  0  0  0  0
  4 13  1  0  0  0  0
  5 12  1  0  0  0  0
  6 11  1  0  0  0  0
  6  5  2  0  0  0  0
  7  1  1  0  0  0  0
  8  2  1  0  0  0  0
 10  9  3  0  0  0  0
 14 17  2  0  0  0  0
 15 14  2  0  0  0  0
 16  3  1  0  0  0  0
 16 14  1  0  0  0  0
 18 14  1  0  0  0  0
 19 18  1  0  0  0  0
M  END
