Coordinates from ORCA-job Ph-N2-HSO4-B3LYPG-6-31G_dp-MTMO-d009-169-n800
 OpenBabel09051908053D

 19 18  0  0  0  0  0  0  0  0999 V2000
   -0.8519    0.5442   -0.7414 C   0  0  0  0  0  0  0  0  0  0  0  0
    0.4632    0.3951   -1.2031 C   0  0  0  0  0  0  0  0  0  0  0  0
    1.3843    0.2778   -0.1909 C   0  0  0  0  0  0  0  0  0  0  0  0
    1.2449    0.2799    1.1672 C   0  0  0  0  0  0  0  0  0  0  0  0
   -0.0943    0.4208    1.5687 C   0  0  0  0  0  0  0  0  0  0  0  0
   -1.1209    0.5560    0.6306 C   0  0  0  0  0  0  0  0  0  0  0  0
   -1.6531    0.6502   -1.4655 H   0  0  0  0  0  0  0  0  0  0  0  0
    0.7203    0.3780   -2.2542 H   0  0  0  0  0  0  0  0  0  0  0  0
    3.0413    0.0400   -0.7994 N   0  0  0  0  0  0  0  0  0  0  0  0
    3.7179   -0.3928   -1.5702 N   0  0  0  0  0  0  0  0  0  0  0  0
   -2.1444    0.6734    0.9715 H   0  0  0  0  0  0  0  0  0  0  0  0
   -0.3142    0.4278    2.6315 H   0  0  0  0  0  0  0  0  0  0  0  0
    2.0802    0.1724    1.8628 H   0  0  0  0  0  0  0  0  0  0  0  0
    4.7414    0.3392    1.6866 S   0  0  0  0  0  0  0  0  0  0  0  0
    5.5787   -0.6103    0.9378 O   0  0  0  0  0  0  0  0  0  0  0  0
    3.9923    1.2840    0.7636 O   0  0  0  0  0  0  0  0  0  0  0  0
    3.8583   -0.2074    2.7319 O   0  0  0  0  0  0  0  0  0  0  0  0
    5.7682    1.3271    2.5145 O   0  0  0  0  0  0  0  0  0  0  0  0
    6.5495    1.4361    1.9494 H   0  0  0  0  0  0  0  0  0  0  0  0
  1  6  1  0  0  0  0
  2  1  2  0  0  0  0
  2  3  1  0  0  0  0
  3  4  2  0  0  0  0
  4  5  1  0  0  0  0
  4 13  1  0  0  0  0
  5 12  1  0  0  0  0
  6 11  1  0  0  0  0
  6  5  2  0  0  0  0
  7  1  1  0  0  0  0
  8  2  1  0  0  0  0
  9  3  1  0  0  0  0
 10  9  2  0  0  0  0
 14 18  1  0  0  0  0
 14 17  1  0  0  0  0
 15 14  2  0  0  0  0
 16 14  2  0  0  0  0
 19 18  1  0  0  0  0
M  RAD  2  10   2  17   2
M  END
