Coordinates from ORCA-job Ph-N2-HSO4-B3LYPG-6-31G_dp-MTMO-d009-169-n800
 OpenBabel09051908053D

 19 18  0  0  0  0  0  0  0  0999 V2000
   -0.6889    1.0224    0.1576 C   0  0  0  0  0  0  0  0  0  0  0  0
    0.5776    0.4864   -0.0797 C   0  0  0  0  0  0  0  0  0  0  0  0
    1.2363   -0.1571    0.9637 C   0  0  0  0  0  0  0  0  0  0  0  0
    0.6749   -0.2779    2.2313 C   0  0  0  0  0  0  0  0  0  0  0  0
   -0.5906    0.2647    2.4545 C   0  0  0  0  0  0  0  0  0  0  0  0
   -1.2727    0.9124    1.4215 C   0  0  0  0  0  0  0  0  0  0  0  0
   -1.2178    1.5240   -0.6469 H   0  0  0  0  0  0  0  0  0  0  0  0
    1.0523    0.5575   -1.0520 H   0  0  0  0  0  0  0  0  0  0  0  0
    7.4602    0.9898   -2.8870 N   0  0  0  0  0  0  0  0  0  0  0  0
    8.4754    1.0757   -3.3152 N   0  0  0  0  0  0  0  0  0  0  0  0
   -2.2586    1.3291    1.6013 H   0  0  0  0  0  0  0  0  0  0  0  0
   -1.0437    0.1786    3.4374 H   0  0  0  0  0  0  0  0  0  0  0  0
    1.2244   -0.7833    3.0169 H   0  0  0  0  0  0  0  0  0  0  0  0
    3.8584    0.0247    1.0646 S   0  0  0  0  0  0  0  0  0  0  0  0
    4.9065   -0.9592    0.8841 O   0  0  0  0  0  0  0  0  0  0  0  0
    2.4765   -0.7767    0.6976 O   0  0  0  0  0  0  0  0  0  0  0  0
    3.6762    0.7999    2.2704 O   0  0  0  0  0  0  0  0  0  0  0  0
    3.9498    1.0982   -0.1580 O   0  0  0  0  0  0  0  0  0  0  0  0
    4.4653    0.6822   -0.8707 H   0  0  0  0  0  0  0  0  0  0  0  0
  1  6  1  0  0  0  0
  2  1  2  0  0  0  0
  2  3  1  0  0  0  0
  3  4  2  0  0  0  0
  4  5  1  0  0  0  0
  4 13  1  0  0  0  0
  5 12  1  0  0  0  0
  6 11  1  0  0  0  0
  6  5  2  0  0  0  0
  7  1  1  0  0  0  0
  8  2  1  0  0  0  0
 10  9  3  0  0  0  0
 14 17  2  0  0  0  0
 15 14  2  0  0  0  0
 16  3  1  0  0  0  0
 16 14  1  0  0  0  0
 18 14  1  0  0  0  0
 19 18  1  0  0  0  0
M  END
