Coordinates from ORCA-job Ph-N2-HSO4-B3LYPG-6-31G_dp-MTMO-d009-169-n800
 OpenBabel09051908053D

 19 18  0  0  0  0  0  0  0  0999 V2000
   -1.1739    0.9801    0.4532 C   0  0  0  0  0  0  0  0  0  0  0  0
    0.0937    0.4174    0.2979 C   0  0  0  0  0  0  0  0  0  0  0  0
    0.6727   -0.2347    1.3823 C   0  0  0  0  0  0  0  0  0  0  0  0
    0.0301   -0.3387    2.6126 C   0  0  0  0  0  0  0  0  0  0  0  0
   -1.2353    0.2313    2.7543 C   0  0  0  0  0  0  0  0  0  0  0  0
   -1.8378    0.8881    1.6785 C   0  0  0  0  0  0  0  0  0  0  0  0
   -1.6409    1.4885   -0.3847 H   0  0  0  0  0  0  0  0  0  0  0  0
    0.6288    0.4735   -0.6436 H   0  0  0  0  0  0  0  0  0  0  0  0
   12.2450    1.6240   -6.5928 N   0  0  0  0  0  0  0  0  0  0  0  0
   13.2922    1.6966   -6.9389 N   0  0  0  0  0  0  0  0  0  0  0  0
   -2.8241    1.3259    1.7943 H   0  0  0  0  0  0  0  0  0  0  0  0
   -1.7508    0.1590    3.7072 H   0  0  0  0  0  0  0  0  0  0  0  0
    0.5182   -0.8513    3.4332 H   0  0  0  0  0  0  0  0  0  0  0  0
    3.2815   -0.1208    1.6842 S   0  0  0  0  0  0  0  0  0  0  0  0
    4.3257   -1.1071    1.4970 O   0  0  0  0  0  0  0  0  0  0  0  0
    1.9138   -0.8795    1.1939 O   0  0  0  0  0  0  0  0  0  0  0  0
    3.0455    0.5819    2.9243 O   0  0  0  0  0  0  0  0  0  0  0  0
    3.4448    1.0278    0.5400 O   0  0  0  0  0  0  0  0  0  0  0  0
    3.9323    0.6294   -0.2013 H   0  0  0  0  0  0  0  0  0  0  0  0
  1  6  1  0  0  0  0
  2  1  2  0  0  0  0
  2  3  1  0  0  0  0
  3  4  2  0  0  0  0
  4  5  1  0  0  0  0
  4 13  1  0  0  0  0
  5 12  1  0  0  0  0
  6 11  1  0  0  0  0
  6  5  2  0  0  0  0
  7  1  1  0  0  0  0
  8  2  1  0  0  0  0
 10  9  3  0  0  0  0
 14 17  2  0  0  0  0
 15 14  2  0  0  0  0
 16  3  1  0  0  0  0
 16 14  1  0  0  0  0
 18 14  1  0  0  0  0
 19 18  1  0  0  0  0
M  END
