Coordinates from ORCA-job Ph-N2-HSO4-B3LYPG-6-31G_dp-MTMO-d009-169-n800
 OpenBabel09051908053D

 19 18  0  0  0  0  0  0  0  0999 V2000
   -1.0600    0.9924    0.3792 C   0  0  0  0  0  0  0  0  0  0  0  0
    0.2094    0.4357    0.2173 C   0  0  0  0  0  0  0  0  0  0  0  0
    0.7947   -0.2187    1.2970 C   0  0  0  0  0  0  0  0  0  0  0  0
    0.1566   -0.3306    2.5289 C   0  0  0  0  0  0  0  0  0  0  0  0
   -1.1106    0.2334    2.6772 C   0  0  0  0  0  0  0  0  0  0  0  0
   -1.7194    0.8923    1.6062 C   0  0  0  0  0  0  0  0  0  0  0  0
   -1.5318    1.5024   -0.4550 H   0  0  0  0  0  0  0  0  0  0  0  0
    0.7412    0.4981   -0.7257 H   0  0  0  0  0  0  0  0  0  0  0  0
   11.2248    1.4962   -5.8772 N   0  0  0  0  0  0  0  0  0  0  0  0
   12.2705    1.5559   -6.2300 N   0  0  0  0  0  0  0  0  0  0  0  0
   -2.7071    1.3256    1.7272 H   0  0  0  0  0  0  0  0  0  0  0  0
   -1.6227    0.1548    3.6314 H   0  0  0  0  0  0  0  0  0  0  0  0
    0.6497   -0.8447    3.3457 H   0  0  0  0  0  0  0  0  0  0  0  0
    3.4041   -0.0941    1.5892 S   0  0  0  0  0  0  0  0  0  0  0  0
    4.4517   -1.0756    1.3961 O   0  0  0  0  0  0  0  0  0  0  0  0
    2.0379   -0.8575    1.1019 O   0  0  0  0  0  0  0  0  0  0  0  0
    3.1695    0.6047    2.8318 O   0  0  0  0  0  0  0  0  0  0  0  0
    3.5587    1.0579    0.4472 O   0  0  0  0  0  0  0  0  0  0  0  0
    4.0447    0.6632   -0.2970 H   0  0  0  0  0  0  0  0  0  0  0  0
  1  6  1  0  0  0  0
  2  1  2  0  0  0  0
  2  3  1  0  0  0  0
  3  4  2  0  0  0  0
  4  5  1  0  0  0  0
  4 13  1  0  0  0  0
  5 12  1  0  0  0  0
  6 11  1  0  0  0  0
  6  5  2  0  0  0  0
  7  1  1  0  0  0  0
  8  2  1  0  0  0  0
 10  9  3  0  0  0  0
 14 17  2  0  0  0  0
 15 14  2  0  0  0  0
 16  3  1  0  0  0  0
 16 14  1  0  0  0  0
 18 14  1  0  0  0  0
 19 18  1  0  0  0  0
M  END
