Coordinates from ORCA-job Ph-N2-HSO4-B3LYPG-6-31G_dp-MTMO-d009-169-n800
 OpenBabel09051908053D

 19 18  0  0  0  0  0  0  0  0999 V2000
   -0.8567    0.5459   -0.7379 C   0  0  0  0  0  0  0  0  0  0  0  0
    0.4567    0.3942   -1.2056 C   0  0  0  0  0  0  0  0  0  0  0  0
    1.3764    0.2754   -0.1941 C   0  0  0  0  0  0  0  0  0  0  0  0
    1.2481    0.2776    1.1633 C   0  0  0  0  0  0  0  0  0  0  0  0
   -0.0902    0.4217    1.5694 C   0  0  0  0  0  0  0  0  0  0  0  0
   -1.1201    0.5586    0.6352 C   0  0  0  0  0  0  0  0  0  0  0  0
   -1.6603    0.6532   -1.4592 H   0  0  0  0  0  0  0  0  0  0  0  0
    0.7106    0.3765   -2.2574 H   0  0  0  0  0  0  0  0  0  0  0  0
    3.0495    0.0318   -0.8150 N   0  0  0  0  0  0  0  0  0  0  0  0
    3.7282   -0.4027   -1.5823 N   0  0  0  0  0  0  0  0  0  0  0  0
   -2.1420    0.6781    0.9801 H   0  0  0  0  0  0  0  0  0  0  0  0
   -0.3053    0.4295    2.6332 H   0  0  0  0  0  0  0  0  0  0  0  0
    2.0871    0.1685    1.8557 H   0  0  0  0  0  0  0  0  0  0  0  0
    4.7408    0.3425    1.6851 S   0  0  0  0  0  0  0  0  0  0  0  0
    5.5875   -0.6068    0.9466 O   0  0  0  0  0  0  0  0  0  0  0  0
    4.0007    1.2859    0.7558 O   0  0  0  0  0  0  0  0  0  0  0  0
    3.8471   -0.2067    2.7212 O   0  0  0  0  0  0  0  0  0  0  0  0
    5.7579    1.3293    2.5267 O   0  0  0  0  0  0  0  0  0  0  0  0
    6.5456    1.4388    1.9707 H   0  0  0  0  0  0  0  0  0  0  0  0
  1  6  1  0  0  0  0
  2  1  2  0  0  0  0
  2  3  1  0  0  0  0
  3  4  2  0  0  0  0
  4  5  1  0  0  0  0
  4 13  1  0  0  0  0
  5 12  1  0  0  0  0
  6 11  1  0  0  0  0
  6  5  2  0  0  0  0
  7  1  1  0  0  0  0
  8  2  1  0  0  0  0
  9  3  1  0  0  0  0
 10  9  2  0  0  0  0
 14 18  1  0  0  0  0
 14 17  1  0  0  0  0
 15 14  2  0  0  0  0
 16 14  2  0  0  0  0
 19 18  1  0  0  0  0
M  RAD  2  10   2  17   2
M  END
