Coordinates from ORCA-job Ph-N2-HSO4-B3LYPG-6-31G_dp-MTMO-d009-169-n800
 OpenBabel09051908053D

 19 18  0  0  0  0  0  0  0  0999 V2000
   -1.3034    0.9659    0.5393 C   0  0  0  0  0  0  0  0  0  0  0  0
   -0.0371    0.3994    0.3875 C   0  0  0  0  0  0  0  0  0  0  0  0
    0.5385   -0.2513    1.4746 C   0  0  0  0  0  0  0  0  0  0  0  0
   -0.1064   -0.3502    2.7041 C   0  0  0  0  0  0  0  0  0  0  0  0
   -1.3704    0.2236    2.8424 C   0  0  0  0  0  0  0  0  0  0  0  0
   -1.9695    0.8790    1.7638 C   0  0  0  0  0  0  0  0  0  0  0  0
   -1.7678    1.4731   -0.3007 H   0  0  0  0  0  0  0  0  0  0  0  0
    0.4996    0.4514   -0.5533 H   0  0  0  0  0  0  0  0  0  0  0  0
   13.3749    1.7620   -7.3709 N   0  0  0  0  0  0  0  0  0  0  0  0
   14.4228    1.8387   -7.7141 N   0  0  0  0  0  0  0  0  0  0  0  0
   -2.9548    1.3198    1.8769 H   0  0  0  0  0  0  0  0  0  0  0  0
   -1.8875    0.1553    3.7946 H   0  0  0  0  0  0  0  0  0  0  0  0
    0.3792   -0.8619    3.5269 H   0  0  0  0  0  0  0  0  0  0  0  0
    3.1470   -0.1443    1.7813 S   0  0  0  0  0  0  0  0  0  0  0  0
    4.1888   -1.1337    1.5972 O   0  0  0  0  0  0  0  0  0  0  0  0
    1.7781   -0.9000    1.2898 O   0  0  0  0  0  0  0  0  0  0  0  0
    2.9109    0.5608    3.0201 O   0  0  0  0  0  0  0  0  0  0  0  0
    3.3154    1.0023    0.6357 O   0  0  0  0  0  0  0  0  0  0  0  0
    3.8035    0.6015   -0.1038 H   0  0  0  0  0  0  0  0  0  0  0  0
  1  6  1  0  0  0  0
  2  1  2  0  0  0  0
  2  3  1  0  0  0  0
  3  4  2  0  0  0  0
  4  5  1  0  0  0  0
  4 13  1  0  0  0  0
  5 12  1  0  0  0  0
  6 11  1  0  0  0  0
  6  5  2  0  0  0  0
  7  1  1  0  0  0  0
  8  2  1  0  0  0  0
 10  9  3  0  0  0  0
 14 17  2  0  0  0  0
 15 14  2  0  0  0  0
 16  3  1  0  0  0  0
 16 14  1  0  0  0  0
 18 14  1  0  0  0  0
 19 18  1  0  0  0  0
M  END
