Coordinates from ORCA-job Ph-N2-HSO4-B3LYPG-6-31G_dp-MTMO-d009-169-n800
 OpenBabel09051908053D

 19 18  0  0  0  0  0  0  0  0999 V2000
   -1.3171    0.9644    0.5485 C   0  0  0  0  0  0  0  0  0  0  0  0
   -0.0508    0.3977    0.3968 C   0  0  0  0  0  0  0  0  0  0  0  0
    0.5245   -0.2530    1.4841 C   0  0  0  0  0  0  0  0  0  0  0  0
   -0.1204   -0.3516    2.7136 C   0  0  0  0  0  0  0  0  0  0  0  0
   -1.3843    0.2224    2.8517 C   0  0  0  0  0  0  0  0  0  0  0  0
   -1.9833    0.8778    1.7729 C   0  0  0  0  0  0  0  0  0  0  0  0
   -1.7813    1.4716   -0.2916 H   0  0  0  0  0  0  0  0  0  0  0  0
    0.4860    0.4494   -0.5439 H   0  0  0  0  0  0  0  0  0  0  0  0
   13.4927    1.7760   -7.4515 N   0  0  0  0  0  0  0  0  0  0  0  0
   14.5406    1.8530   -7.7944 N   0  0  0  0  0  0  0  0  0  0  0  0
   -2.9685    1.3188    1.8859 H   0  0  0  0  0  0  0  0  0  0  0  0
   -1.9016    0.1544    3.8039 H   0  0  0  0  0  0  0  0  0  0  0  0
    0.3649   -0.8632    3.5365 H   0  0  0  0  0  0  0  0  0  0  0  0
    3.1330   -0.1464    1.7911 S   0  0  0  0  0  0  0  0  0  0  0  0
    4.1747   -1.1360    1.6072 O   0  0  0  0  0  0  0  0  0  0  0  0
    1.7640   -0.9019    1.2995 O   0  0  0  0  0  0  0  0  0  0  0  0
    2.8969    0.5588    3.0298 O   0  0  0  0  0  0  0  0  0  0  0  0
    3.3017    1.0000    0.6454 O   0  0  0  0  0  0  0  0  0  0  0  0
    3.7899    0.5991   -0.0941 H   0  0  0  0  0  0  0  0  0  0  0  0
  1  6  1  0  0  0  0
  2  1  2  0  0  0  0
  2  3  1  0  0  0  0
  3  4  2  0  0  0  0
  4  5  1  0  0  0  0
  4 13  1  0  0  0  0
  5 12  1  0  0  0  0
  6 11  1  0  0  0  0
  6  5  2  0  0  0  0
  7  1  1  0  0  0  0
  8  2  1  0  0  0  0
 10  9  3  0  0  0  0
 14 17  2  0  0  0  0
 15 14  2  0  0  0  0
 16  3  1  0  0  0  0
 16 14  1  0  0  0  0
 18 14  1  0  0  0  0
 19 18  1  0  0  0  0
M  END
