Coordinates from ORCA-job Ph-N2-HSO4-B3LYPG-6-31G_dp-MTMO-d009-169-n800
 OpenBabel09051908053D

 19 18  0  0  0  0  0  0  0  0999 V2000
   -0.8482    1.0130    0.2442 C   0  0  0  0  0  0  0  0  0  0  0  0
    0.4245    0.4705    0.0616 C   0  0  0  0  0  0  0  0  0  0  0  0
    1.0301   -0.1865    1.1286 C   0  0  0  0  0  0  0  0  0  0  0  0
    0.4090   -0.3147    2.3675 C   0  0  0  0  0  0  0  0  0  0  0  0
   -0.8618    0.2352    2.5364 C   0  0  0  0  0  0  0  0  0  0  0  0
   -1.4909    0.8964    1.4786 C   0  0  0  0  0  0  0  0  0  0  0  0
   -1.3358    1.5249   -0.5798 H   0  0  0  0  0  0  0  0  0  0  0  0
    0.9436    0.5458   -0.8874 H   0  0  0  0  0  0  0  0  0  0  0  0
    9.2619    1.2399   -4.4601 N   0  0  0  0  0  0  0  0  0  0  0  0
   10.3005    1.2752   -4.8366 N   0  0  0  0  0  0  0  0  0  0  0  0
   -2.4812    1.3187    1.6158 H   0  0  0  0  0  0  0  0  0  0  0  0
   -1.3609    0.1438    3.4964 H   0  0  0  0  0  0  0  0  0  0  0  0
    0.9177   -0.8303    3.1737 H   0  0  0  0  0  0  0  0  0  0  0  0
    3.6418   -0.0362    1.3862 S   0  0  0  0  0  0  0  0  0  0  0  0
    4.6965   -1.0065    1.1756 O   0  0  0  0  0  0  0  0  0  0  0  0
    2.2770   -0.8110    0.9128 O   0  0  0  0  0  0  0  0  0  0  0  0
    3.4159    0.6547    2.6348 O   0  0  0  0  0  0  0  0  0  0  0  0
    3.7708    1.1224    0.2478 O   0  0  0  0  0  0  0  0  0  0  0  0
    4.2513    0.7362   -0.5045 H   0  0  0  0  0  0  0  0  0  0  0  0
  1  6  1  0  0  0  0
  2  1  2  0  0  0  0
  2  3  1  0  0  0  0
  3  4  2  0  0  0  0
  4  5  1  0  0  0  0
  4 13  1  0  0  0  0
  5 12  1  0  0  0  0
  6 11  1  0  0  0  0
  6  5  2  0  0  0  0
  7  1  1  0  0  0  0
  8  2  1  0  0  0  0
 10  9  3  0  0  0  0
 14 17  2  0  0  0  0
 15 14  2  0  0  0  0
 16  3  1  0  0  0  0
 16 14  1  0  0  0  0
 18 14  1  0  0  0  0
 19 18  1  0  0  0  0
M  END
