Coordinates from ORCA-job Ph-N2-HSO4-B3LYPG-6-31G_dp-MTMO-d009-169-n800
 OpenBabel09051908053D

 19 18  0  0  0  0  0  0  0  0999 V2000
   -0.7557    1.0184    0.1868 C   0  0  0  0  0  0  0  0  0  0  0  0
    0.5159    0.4795   -0.0133 C   0  0  0  0  0  0  0  0  0  0  0  0
    1.1396   -0.1723    1.0463 C   0  0  0  0  0  0  0  0  0  0  0  0
    0.5376   -0.2989    2.2948 C   0  0  0  0  0  0  0  0  0  0  0  0
   -0.7323    0.2474    2.4812 C   0  0  0  0  0  0  0  0  0  0  0  0
   -1.3793    0.9034    1.4311 C   0  0  0  0  0  0  0  0  0  0  0  0
   -1.2574    1.5263   -0.6311 H   0  0  0  0  0  0  0  0  0  0  0  0
    1.0205    0.5539   -0.9702 H   0  0  0  0  0  0  0  0  0  0  0  0
    8.3349    1.1194   -3.7253 N   0  0  0  0  0  0  0  0  0  0  0  0
    9.3629    1.1607   -4.1291 N   0  0  0  0  0  0  0  0  0  0  0  0
   -2.3689    1.3227    1.5820 H   0  0  0  0  0  0  0  0  0  0  0  0
   -1.2165    0.1571    3.4488 H   0  0  0  0  0  0  0  0  0  0  0  0
    1.0601   -0.8105    3.0946 H   0  0  0  0  0  0  0  0  0  0  0  0
    3.7547   -0.0118    1.2613 S   0  0  0  0  0  0  0  0  0  0  0  0
    4.8086   -0.9820    1.0457 O   0  0  0  0  0  0  0  0  0  0  0  0
    2.3851   -0.7936    0.8138 O   0  0  0  0  0  0  0  0  0  0  0  0
    3.5441    0.6902    2.5064 O   0  0  0  0  0  0  0  0  0  0  0  0
    3.8665    1.1362    0.1105 O   0  0  0  0  0  0  0  0  0  0  0  0
    4.3414    0.7453   -0.6429 H   0  0  0  0  0  0  0  0  0  0  0  0
  1  6  1  0  0  0  0
  2  1  2  0  0  0  0
  2  3  1  0  0  0  0
  3  4  2  0  0  0  0
  4  5  1  0  0  0  0
  4 13  1  0  0  0  0
  5 12  1  0  0  0  0
  6 11  1  0  0  0  0
  6  5  2  0  0  0  0
  7  1  1  0  0  0  0
  8  2  1  0  0  0  0
 10  9  3  0  0  0  0
 14 17  2  0  0  0  0
 15 14  2  0  0  0  0
 16  3  1  0  0  0  0
 16 14  1  0  0  0  0
 18 14  1  0  0  0  0
 19 18  1  0  0  0  0
M  END
