Coordinates from ORCA-job Ph-N2-HSO4-B3LYPG-6-31G_dp-MTMO-d009-169-n800
 OpenBabel09051908053D

 19 18  0  0  0  0  0  0  0  0999 V2000
   -0.3790    1.0174   -0.0542 C   0  0  0  0  0  0  0  0  0  0  0  0
    0.9465    0.6124   -0.2155 C   0  0  0  0  0  0  0  0  0  0  0  0
    1.5760   -0.0541    0.8318 C   0  0  0  0  0  0  0  0  0  0  0  0
    0.9246   -0.3247    2.0321 C   0  0  0  0  0  0  0  0  0  0  0  0
   -0.3988    0.0903    2.1813 C   0  0  0  0  0  0  0  0  0  0  0  0
   -1.0512    0.7586    1.1423 C   0  0  0  0  0  0  0  0  0  0  0  0
   -0.8841    1.5347   -0.8643 H   0  0  0  0  0  0  0  0  0  0  0  0
    1.4899    0.8002   -1.1349 H   0  0  0  0  0  0  0  0  0  0  0  0
    5.4361    0.4976   -2.2095 N   0  0  0  0  0  0  0  0  0  0  0  0
    5.9062   -0.0970   -3.0120 N   0  0  0  0  0  0  0  0  0  0  0  0
   -2.0817    1.0768    1.2649 H   0  0  0  0  0  0  0  0  0  0  0  0
   -0.9206   -0.1122    3.1117 H   0  0  0  0  0  0  0  0  0  0  0  0
    1.4517   -0.8416    2.8253 H   0  0  0  0  0  0  0  0  0  0  0  0
    4.1454    0.3007    1.2666 S   0  0  0  0  0  0  0  0  0  0  0  0
    5.3018   -0.5128    0.9478 O   0  0  0  0  0  0  0  0  0  0  0  0
    2.8847   -0.5348    0.6248 O   0  0  0  0  0  0  0  0  0  0  0  0
    3.8216    0.7459    2.6027 O   0  0  0  0  0  0  0  0  0  0  0  0
    4.1597    1.6281    0.3374 O   0  0  0  0  0  0  0  0  0  0  0  0
    4.6328    1.4060   -0.4869 H   0  0  0  0  0  0  0  0  0  0  0  0
  1  6  1  0  0  0  0
  2  1  2  0  0  0  0
  2  3  1  0  0  0  0
  3  4  2  0  0  0  0
  4  5  1  0  0  0  0
  4 13  1  0  0  0  0
  5 12  1  0  0  0  0
  6 11  1  0  0  0  0
  6  5  2  0  0  0  0
  7  1  1  0  0  0  0
  8  2  1  0  0  0  0
 10  9  3  0  0  0  0
 14 17  2  0  0  0  0
 15 14  2  0  0  0  0
 16  3  1  0  0  0  0
 16 14  1  0  0  0  0
 18 14  1  0  0  0  0
 19 18  1  0  0  0  0
M  END
