Coordinates from ORCA-job Ph-N2-HSO4-B3LYPG-6-31G_dp-MTMO-d009-169-n800
 OpenBabel09051908053D

 19 18  0  0  0  0  0  0  0  0999 V2000
   -0.8661    0.5505   -0.7305 C   0  0  0  0  0  0  0  0  0  0  0  0
    0.4435    0.3926   -1.2106 C   0  0  0  0  0  0  0  0  0  0  0  0
    1.3607    0.2699   -0.2010 C   0  0  0  0  0  0  0  0  0  0  0  0
    1.2555    0.2717    1.1549 C   0  0  0  0  0  0  0  0  0  0  0  0
   -0.0808    0.4229    1.5706 C   0  0  0  0  0  0  0  0  0  0  0  0
   -1.1176    0.5644    0.6448 C   0  0  0  0  0  0  0  0  0  0  0  0
   -1.6746    0.6615   -1.4458 H   0  0  0  0  0  0  0  0  0  0  0  0
    0.6904    0.3740   -2.2638 H   0  0  0  0  0  0  0  0  0  0  0  0
    3.0649    0.0120   -0.8486 N   0  0  0  0  0  0  0  0  0  0  0  0
    3.7506   -0.4260   -1.6058 N   0  0  0  0  0  0  0  0  0  0  0  0
   -2.1359    0.6889    0.9983 H   0  0  0  0  0  0  0  0  0  0  0  0
   -0.2859    0.4324    2.6364 H   0  0  0  0  0  0  0  0  0  0  0  0
    2.1021    0.1589    1.8409 H   0  0  0  0  0  0  0  0  0  0  0  0
    4.7387    0.3504    1.6816 S   0  0  0  0  0  0  0  0  0  0  0  0
    5.6049   -0.5975    0.9639 O   0  0  0  0  0  0  0  0  0  0  0  0
    4.0161    1.2909    0.7407 O   0  0  0  0  0  0  0  0  0  0  0  0
    3.8242   -0.2057    2.6986 O   0  0  0  0  0  0  0  0  0  0  0  0
    5.7352    1.3347    2.5519 O   0  0  0  0  0  0  0  0  0  0  0  0
    6.5359    1.4450    2.0150 H   0  0  0  0  0  0  0  0  0  0  0  0
  1  6  1  0  0  0  0
  2  1  2  0  0  0  0
  2  3  1  0  0  0  0
  3  4  2  0  0  0  0
  4  5  1  0  0  0  0
  4 13  1  0  0  0  0
  5 12  1  0  0  0  0
  6 11  1  0  0  0  0
  6  5  2  0  0  0  0
  7  1  1  0  0  0  0
  8  2  1  0  0  0  0
  9  3  1  0  0  0  0
 10  9  2  0  0  0  0
 14 18  1  0  0  0  0
 14 17  1  0  0  0  0
 15 14  2  0  0  0  0
 16 14  2  0  0  0  0
 19 18  1  0  0  0  0
M  RAD  2  10   2  17   2
M  END
