Coordinates from ORCA-job Ph-N2-HSO4-B3LYPG-6-31G_dp-MTMO-d009-169-n800
 OpenBabel09051908053D

 19 17  0  0  0  0  0  0  0  0999 V2000
   -1.0251    0.7626   -0.4946 C   0  0  0  0  0  0  0  0  0  0  0  0
    0.0950    0.4400   -1.2969 C   0  0  0  0  0  0  0  0  0  0  0  0
    1.1242    0.1766   -0.4443 C   0  0  0  0  0  0  0  0  0  0  0  0
    1.3587    0.1431    0.8003 C   0  0  0  0  0  0  0  0  0  0  0  0
    0.2317    0.4650    1.5974 C   0  0  0  0  0  0  0  0  0  0  0  0
   -0.9533    0.7728    0.9093 C   0  0  0  0  0  0  0  0  0  0  0  0
   -1.9592    1.0067   -0.9933 H   0  0  0  0  0  0  0  0  0  0  0  0
    0.0897    0.4177   -2.3784 H   0  0  0  0  0  0  0  0  0  0  0  0
    2.9528   -0.5185   -2.0360 N   0  0  0  0  0  0  0  0  0  0  0  0
    3.9050   -1.0532   -2.2048 N   0  0  0  0  0  0  0  0  0  0  0  0
   -1.8435    1.0283    1.4774 H   0  0  0  0  0  0  0  0  0  0  0  0
    0.2717    0.4795    2.6830 H   0  0  0  0  0  0  0  0  0  0  0  0
    2.9280   -0.2104    1.6286 H   0  0  0  0  0  0  0  0  0  0  0  0
    5.0097    0.3984    1.6599 S   0  0  0  0  0  0  0  0  0  0  0  0
    6.1775   -0.2079    2.2695 O   0  0  0  0  0  0  0  0  0  0  0  0
    4.8868    0.6289    0.2339 O   0  0  0  0  0  0  0  0  0  0  0  0
    3.7429   -0.4214    2.1891 O   0  0  0  0  0  0  0  0  0  0  0  0
    4.7888    1.8625    2.3514 O   0  0  0  0  0  0  0  0  0  0  0  0
    5.1804    1.8207    3.2398 H   0  0  0  0  0  0  0  0  0  0  0  0
  1  6  1  0  0  0  0
  2  1  2  0  0  0  0
  2  3  1  0  0  0  0
  3  4  2  0  0  0  0
  4  5  1  0  0  0  0
  5 12  1  0  0  0  0
  6 11  1  0  0  0  0
  6  5  2  0  0  0  0
  7  1  1  0  0  0  0
  8  2  1  0  0  0  0
 10  9  3  0  0  0  0
 13 17  1  0  0  0  0
 14 17  1  0  0  0  0
 14 15  2  0  0  0  0
 14 18  1  0  0  0  0
 16 14  2  0  0  0  0
 18 19  1  0  0  0  0
M  RAD  2   3   2   4   2
M  END
