Coordinates from ORCA-job Ph-N2-HSO4-B3LYPG-6-31G_dp-MTMO-d009-169-n800
 OpenBabel09051908053D

 19 18  0  0  0  0  0  0  0  0999 V2000
   -0.2226    1.0428   -0.1454 C   0  0  0  0  0  0  0  0  0  0  0  0
    1.1230    0.6882   -0.2496 C   0  0  0  0  0  0  0  0  0  0  0  0
    1.7152   -0.0129    0.7970 C   0  0  0  0  0  0  0  0  0  0  0  0
    1.0056   -0.3670    1.9414 C   0  0  0  0  0  0  0  0  0  0  0  0
   -0.3376   -0.0019    2.0345 C   0  0  0  0  0  0  0  0  0  0  0  0
   -0.9524    0.7005    0.9950 C   0  0  0  0  0  0  0  0  0  0  0  0
   -0.6981    1.5867   -0.9561 H   0  0  0  0  0  0  0  0  0  0  0  0
    1.7088    0.9410   -1.1264 H   0  0  0  0  0  0  0  0  0  0  0  0
    4.7414    0.3321   -2.1009 N   0  0  0  0  0  0  0  0  0  0  0  0
    4.7942   -0.4092   -2.9175 N   0  0  0  0  0  0  0  0  0  0  0  0
   -1.9982    0.9809    1.0737 H   0  0  0  0  0  0  0  0  0  0  0  0
   -0.9038   -0.2699    2.9213 H   0  0  0  0  0  0  0  0  0  0  0  0
    1.5039   -0.9091    2.7366 H   0  0  0  0  0  0  0  0  0  0  0  0
    4.2422    0.3928    1.4130 S   0  0  0  0  0  0  0  0  0  0  0  0
    5.4380   -0.3700    1.1191 O   0  0  0  0  0  0  0  0  0  0  0  0
    3.0490   -0.4402    0.6449 O   0  0  0  0  0  0  0  0  0  0  0  0
    3.8284    0.7540    2.7492 O   0  0  0  0  0  0  0  0  0  0  0  0
    4.2598    1.7734    0.5633 O   0  0  0  0  0  0  0  0  0  0  0  0
    4.6651    1.5792   -0.3020 H   0  0  0  0  0  0  0  0  0  0  0  0
  1  6  1  0  0  0  0
  2  1  2  0  0  0  0
  2  3  1  0  0  0  0
  3  4  2  0  0  0  0
  4  5  1  0  0  0  0
  4 13  1  0  0  0  0
  5 12  1  0  0  0  0
  6 11  1  0  0  0  0
  6  5  2  0  0  0  0
  7  1  1  0  0  0  0
  8  2  1  0  0  0  0
 10  9  3  0  0  0  0
 14 17  2  0  0  0  0
 15 14  2  0  0  0  0
 16  3  1  0  0  0  0
 16 14  1  0  0  0  0
 18 14  1  0  0  0  0
 19 18  1  0  0  0  0
M  END
