Coordinates from ORCA-job Ph-N2-HSO4-B3LYPG-6-31G_dp-MTMO-d009-169-n800
 OpenBabel09051908053D

 19 18  0  0  0  0  0  0  0  0999 V2000
   -1.0013    0.9985    0.3417 C   0  0  0  0  0  0  0  0  0  0  0  0
    0.2693    0.4459    0.1749 C   0  0  0  0  0  0  0  0  0  0  0  0
    0.8592   -0.2098    1.2513 C   0  0  0  0  0  0  0  0  0  0  0  0
    0.2245   -0.3271    2.4845 C   0  0  0  0  0  0  0  0  0  0  0  0
   -1.0439    0.2328    2.6376 C   0  0  0  0  0  0  0  0  0  0  0  0
   -1.6573    0.8930    1.5701 C   0  0  0  0  0  0  0  0  0  0  0  0
   -1.4768    1.5095   -0.4898 H   0  0  0  0  0  0  0  0  0  0  0  0
    0.7984    0.5125   -0.7692 H   0  0  0  0  0  0  0  0  0  0  0  0
   10.6883    1.4298   -5.4952 N   0  0  0  0  0  0  0  0  0  0  0  0
   11.7329    1.4749   -5.8534 N   0  0  0  0  0  0  0  0  0  0  0  0
   -2.6459    1.3231    1.6949 H   0  0  0  0  0  0  0  0  0  0  0  0
   -1.5533    0.1501    3.5929 H   0  0  0  0  0  0  0  0  0  0  0  0
    0.7212   -0.8421    3.2985 H   0  0  0  0  0  0  0  0  0  0  0  0
    3.4689   -0.0781    1.5364 S   0  0  0  0  0  0  0  0  0  0  0  0
    4.5189   -1.0562    1.3388 O   0  0  0  0  0  0  0  0  0  0  0  0
    2.1036   -0.8445    1.0513 O   0  0  0  0  0  0  0  0  0  0  0  0
    3.2356    0.6179    2.7808 O   0  0  0  0  0  0  0  0  0  0  0  0
    3.6172    1.0764    0.3960 O   0  0  0  0  0  0  0  0  0  0  0  0
    4.1022    0.6845   -0.3503 H   0  0  0  0  0  0  0  0  0  0  0  0
  1  6  1  0  0  0  0
  2  1  2  0  0  0  0
  2  3  1  0  0  0  0
  3  4  2  0  0  0  0
  4  5  1  0  0  0  0
  4 13  1  0  0  0  0
  5 12  1  0  0  0  0
  6 11  1  0  0  0  0
  6  5  2  0  0  0  0
  7  1  1  0  0  0  0
  8  2  1  0  0  0  0
 10  9  3  0  0  0  0
 14 17  2  0  0  0  0
 15 14  2  0  0  0  0
 16  3  1  0  0  0  0
 16 14  1  0  0  0  0
 18 14  1  0  0  0  0
 19 18  1  0  0  0  0
M  END
