Coordinates from ORCA-job Ph-N2-HSO4-B3LYPG-6-31G_dp-MTMO-d009-169-n800
 OpenBabel09051908053D

 19 19  0  0  1  0  0  0  0  0999 V2000
   -0.5575   -0.1194   -0.2789 C   0  0  0  0  0  0  0  0  0  0  0  0
    0.3507    0.2798   -1.2021 C   0  0  0  0  0  0  0  0  0  0  0  0
    1.5979    0.8695   -0.7656 C   0  0  0  0  0  0  0  0  0  0  0  0
    2.0215    0.8438    0.6681 C   0  0  1  0  0  0  0  0  0  0  0  0
    0.8901    0.5535    1.5833 C   0  0  0  0  0  0  0  0  0  0  0  0
   -0.2871    0.0684    1.1301 C   0  0  0  0  0  0  0  0  0  0  0  0
   -1.4990   -0.5570   -0.5913 H   0  0  0  0  0  0  0  0  0  0  0  0
    0.1704    0.1859   -2.2683 H   0  0  0  0  0  0  0  0  0  0  0  0
    2.3956    1.3665   -1.6055 N   0  0  0  0  0  0  0  0  0  0  0  0
    3.1213    1.8195   -2.3614 N   0  0  0  0  0  0  0  0  0  0  0  0
   -1.0707   -0.1743    1.8427 H   0  0  0  0  0  0  0  0  0  0  0  0
    1.0748    0.6962    2.6423 H   0  0  0  0  0  0  0  0  0  0  0  0
    2.5991    1.7280    0.9424 H   0  0  0  0  0  0  0  0  0  0  0  0
    4.4392   -0.0256    1.5126 S   0  0  0  0  0  0  0  0  0  0  0  0
    5.2566   -1.2126    1.3789 O   0  0  0  0  0  0  0  0  0  0  0  0
    4.9530    1.2896    1.1404 O   0  0  0  0  0  0  0  0  0  0  0  0
    3.0439   -0.3258    0.8090 O   0  0  0  0  0  0  0  0  0  0  0  0
    3.8955    0.1021    3.0604 O   0  0  0  0  0  0  0  0  0  0  0  0
    4.5665    0.6033    3.5544 H   0  0  0  0  0  0  0  0  0  0  0  0
  1  6  1  0  0  0  0
  2  3  2  0  0  0  0
  2  1  1  0  0  0  0
  3  4  1  0  0  0  0
  4 17  1  0  0  0  0
  4 13  1  1  0  0  0
  4  5  1  0  0  0  0
  5 12  1  0  0  0  0
  6  5  2  0  0  0  0
  6 11  1  0  0  0  0
  7  1  1  0  0  0  0
  8  2  1  0  0  0  0
  9  3  1  0  0  0  0
 10  9  1  0  0  0  0
 14 18  1  0  0  0  0
 15 14  2  0  0  0  0
 16 14  2  0  0  0  0
 17 14  1  0  0  0  0
 18 19  1  0  0  0  0
M  RAD  3   1   2   9   2  10   3
M  END
