Coordinates from ORCA-job Ph-N2-HSO4-B3LYPG-6-31G_dp-MTMO-d009-169-n800
 OpenBabel09051908053D

 19 18  0  0  0  0  0  0  0  0999 V2000
   -0.6986    1.0201    0.1586 C   0  0  0  0  0  0  0  0  0  0  0  0
    0.5681    0.4803   -0.0686 C   0  0  0  0  0  0  0  0  0  0  0  0
    1.2182   -0.1622    0.9808 C   0  0  0  0  0  0  0  0  0  0  0  0
    0.6477   -0.2784    2.2448 C   0  0  0  0  0  0  0  0  0  0  0  0
   -0.6178    0.2682    2.4581 C   0  0  0  0  0  0  0  0  0  0  0  0
   -1.2912    0.9149    1.4188 C   0  0  0  0  0  0  0  0  0  0  0  0
   -1.2208    1.5209   -0.6507 H   0  0  0  0  0  0  0  0  0  0  0  0
    1.0492    0.5475   -1.0380 H   0  0  0  0  0  0  0  0  0  0  0  0
    7.6273    1.0266   -3.0584 N   0  0  0  0  0  0  0  0  0  0  0  0
    8.6437    1.1063   -3.4848 N   0  0  0  0  0  0  0  0  0  0  0  0
   -2.2772    1.3346    1.5908 H   0  0  0  0  0  0  0  0  0  0  0  0
   -1.0778    0.1858    3.4382 H   0  0  0  0  0  0  0  0  0  0  0  0
    1.1904   -0.7832    3.0355 H   0  0  0  0  0  0  0  0  0  0  0  0
    3.8391    0.0089    1.1105 S   0  0  0  0  0  0  0  0  0  0  0  0
    4.8865   -0.9731    0.9170 O   0  0  0  0  0  0  0  0  0  0  0  0
    2.4583   -0.7854    0.7240 O   0  0  0  0  0  0  0  0  0  0  0  0
    3.6535    0.7640    2.3283 O   0  0  0  0  0  0  0  0  0  0  0  0
    3.9347    1.1044   -0.0921 O   0  0  0  0  0  0  0  0  0  0  0  0
    4.4284    0.6912   -0.8215 H   0  0  0  0  0  0  0  0  0  0  0  0
  1  6  1  0  0  0  0
  2  1  2  0  0  0  0
  2  3  1  0  0  0  0
  3  4  2  0  0  0  0
  4  5  1  0  0  0  0
  4 13  1  0  0  0  0
  5 12  1  0  0  0  0
  6 11  1  0  0  0  0
  6  5  2  0  0  0  0
  7  1  1  0  0  0  0
  8  2  1  0  0  0  0
 10  9  3  0  0  0  0
 14 17  2  0  0  0  0
 15 14  2  0  0  0  0
 16  3  1  0  0  0  0
 16 14  1  0  0  0  0
 18 14  1  0  0  0  0
 19 18  1  0  0  0  0
M  END
