Coordinates from ORCA-job Ph-N2-HSO4-B3LYPG-6-31G_dp-MTMO-d009-169-n800
 OpenBabel09051908053D

 19 18  0  0  0  0  0  0  0  0999 V2000
   -1.2206    0.9750    0.4840 C   0  0  0  0  0  0  0  0  0  0  0  0
    0.0465    0.4106    0.3303 C   0  0  0  0  0  0  0  0  0  0  0  0
    0.6239   -0.2409    1.4160 C   0  0  0  0  0  0  0  0  0  0  0  0
   -0.0198   -0.3425    2.6459 C   0  0  0  0  0  0  0  0  0  0  0  0
   -1.2846    0.2291    2.7860 C   0  0  0  0  0  0  0  0  0  0  0  0
   -1.8855    0.8853    1.7089 C   0  0  0  0  0  0  0  0  0  0  0  0
   -1.6863    1.4828   -0.3549 H   0  0  0  0  0  0  0  0  0  0  0  0
    0.5824    0.4648   -0.6108 H   0  0  0  0  0  0  0  0  0  0  0  0
   12.6551    1.6748   -6.8766 N   0  0  0  0  0  0  0  0  0  0  0  0
   13.7026    1.7494   -7.2212 N   0  0  0  0  0  0  0  0  0  0  0  0
   -2.8714    1.3245    1.8234 H   0  0  0  0  0  0  0  0  0  0  0  0
   -1.8009    0.1587    3.7386 H   0  0  0  0  0  0  0  0  0  0  0  0
    0.4671   -0.8547    3.4676 H   0  0  0  0  0  0  0  0  0  0  0  0
    3.2325   -0.1300    1.7203 S   0  0  0  0  0  0  0  0  0  0  0  0
    4.2757   -1.1177    1.5345 O   0  0  0  0  0  0  0  0  0  0  0  0
    1.8643   -0.8874    1.2294 O   0  0  0  0  0  0  0  0  0  0  0  0
    2.9964    0.5738    2.9598 O   0  0  0  0  0  0  0  0  0  0  0  0
    3.3982    1.0177    0.5754 O   0  0  0  0  0  0  0  0  0  0  0  0
    3.8860    0.6182   -0.1650 H   0  0  0  0  0  0  0  0  0  0  0  0
  1  6  1  0  0  0  0
  2  1  2  0  0  0  0
  2  3  1  0  0  0  0
  3  4  2  0  0  0  0
  4  5  1  0  0  0  0
  4 13  1  0  0  0  0
  5 12  1  0  0  0  0
  6 11  1  0  0  0  0
  6  5  2  0  0  0  0
  7  1  1  0  0  0  0
  8  2  1  0  0  0  0
 10  9  3  0  0  0  0
 14 17  2  0  0  0  0
 15 14  2  0  0  0  0
 16  3  1  0  0  0  0
 16 14  1  0  0  0  0
 18 14  1  0  0  0  0
 19 18  1  0  0  0  0
M  END
