Coordinates from ORCA-job Ph-N2-HSO4-B3LYPG-6-31G_dp-MTMO-d009-169-n800
 OpenBabel09051908053D

 19 18  0  0  0  0  0  0  0  0999 V2000
   -0.7791    1.0178    0.2010 C   0  0  0  0  0  0  0  0  0  0  0  0
    0.4934    0.4787    0.0070 C   0  0  0  0  0  0  0  0  0  0  0  0
    1.1106   -0.1758    1.0688 C   0  0  0  0  0  0  0  0  0  0  0  0
    0.5014   -0.3048    2.3135 C   0  0  0  0  0  0  0  0  0  0  0  0
   -0.7693    0.2417    2.4938 C   0  0  0  0  0  0  0  0  0  0  0  0
   -1.4099    0.9003    1.4414 C   0  0  0  0  0  0  0  0  0  0  0  0
   -1.2757    1.5277   -0.6188 H   0  0  0  0  0  0  0  0  0  0  0  0
    1.0035    0.5549   -0.9468 H   0  0  0  0  0  0  0  0  0  0  0  0
    8.5832    1.1490   -3.9350 N   0  0  0  0  0  0  0  0  0  0  0  0
    9.6150    1.1884   -4.3292 N   0  0  0  0  0  0  0  0  0  0  0  0
   -2.4002    1.3199    1.5875 H   0  0  0  0  0  0  0  0  0  0  0  0
   -1.2592    0.1496    3.4584 H   0  0  0  0  0  0  0  0  0  0  0  0
    1.0190   -0.8185    3.1152 H   0  0  0  0  0  0  0  0  0  0  0  0
    3.7244   -0.0176    1.3006 S   0  0  0  0  0  0  0  0  0  0  0  0
    4.7794   -0.9865    1.0852 O   0  0  0  0  0  0  0  0  0  0  0  0
    2.3572   -0.7971    0.8420 O   0  0  0  0  0  0  0  0  0  0  0  0
    3.5075    0.6780    2.5482 O   0  0  0  0  0  0  0  0  0  0  0  0
    3.8417    1.1365    0.1563 O   0  0  0  0  0  0  0  0  0  0  0  0
    4.3188    0.7490   -0.5974 H   0  0  0  0  0  0  0  0  0  0  0  0
  1  6  1  0  0  0  0
  2  1  2  0  0  0  0
  2  3  1  0  0  0  0
  3  4  2  0  0  0  0
  4  5  1  0  0  0  0
  4 13  1  0  0  0  0
  5 12  1  0  0  0  0
  6 11  1  0  0  0  0
  6  5  2  0  0  0  0
  7  1  1  0  0  0  0
  8  2  1  0  0  0  0
 10  9  3  0  0  0  0
 14 17  2  0  0  0  0
 15 14  2  0  0  0  0
 16  3  1  0  0  0  0
 16 14  1  0  0  0  0
 18 14  1  0  0  0  0
 19 18  1  0  0  0  0
M  END
