Coordinates from ORCA-job Ph-N2-HSO4-B3LYPG-6-31G_dp-MTMO-d009-169-n800
 OpenBabel09051908053D

 19 18  0  0  0  0  0  0  0  0999 V2000
   -0.7387    1.0186    0.1769 C   0  0  0  0  0  0  0  0  0  0  0  0
    0.5319    0.4793   -0.0288 C   0  0  0  0  0  0  0  0  0  0  0  0
    1.1614   -0.1699    1.0290 C   0  0  0  0  0  0  0  0  0  0  0  0
    0.5663   -0.2933    2.2811 C   0  0  0  0  0  0  0  0  0  0  0  0
   -0.7026    0.2534    2.4731 C   0  0  0  0  0  0  0  0  0  0  0  0
   -1.3554    0.9067    1.4249 C   0  0  0  0  0  0  0  0  0  0  0  0
   -1.2448    1.5244   -0.6395 H   0  0  0  0  0  0  0  0  0  0  0  0
    1.0312    0.5513   -0.9887 H   0  0  0  0  0  0  0  0  0  0  0  0
    8.1442    1.0974   -3.5565 N   0  0  0  0  0  0  0  0  0  0  0  0
    9.1690    1.1443   -3.9677 N   0  0  0  0  0  0  0  0  0  0  0  0
   -2.3442    1.3264    1.5802 H   0  0  0  0  0  0  0  0  0  0  0  0
   -1.1815    0.1656    3.4436 H   0  0  0  0  0  0  0  0  0  0  0  0
    1.0932   -0.8029    3.0793 H   0  0  0  0  0  0  0  0  0  0  0  0
    3.7778   -0.0081    1.2272 S   0  0  0  0  0  0  0  0  0  0  0  0
    4.8301   -0.9804    1.0135 O   0  0  0  0  0  0  0  0  0  0  0  0
    2.4056   -0.7919    0.7913 O   0  0  0  0  0  0  0  0  0  0  0  0
    3.5733    0.7026    2.4684 O   0  0  0  0  0  0  0  0  0  0  0  0
    3.8854    1.1318    0.0679 O   0  0  0  0  0  0  0  0  0  0  0  0
    4.3595    0.7362   -0.6837 H   0  0  0  0  0  0  0  0  0  0  0  0
  1  6  1  0  0  0  0
  2  1  2  0  0  0  0
  2  3  1  0  0  0  0
  3  4  2  0  0  0  0
  4  5  1  0  0  0  0
  4 13  1  0  0  0  0
  5 12  1  0  0  0  0
  6 11  1  0  0  0  0
  6  5  2  0  0  0  0
  7  1  1  0  0  0  0
  8  2  1  0  0  0  0
 10  9  3  0  0  0  0
 14 17  2  0  0  0  0
 15 14  2  0  0  0  0
 16  3  1  0  0  0  0
 16 14  1  0  0  0  0
 18 14  1  0  0  0  0
 19 18  1  0  0  0  0
M  END
