Coordinates from ORCA-job Ph-N2-HSO4-B3LYPG-6-31G_dp-MTMO-d009-169-n800
 OpenBabel09051908053D

 19 18  0  0  0  0  0  0  0  0999 V2000
   -0.8224    1.0152    0.2278 C   0  0  0  0  0  0  0  0  0  0  0  0
    0.4504    0.4741    0.0422 C   0  0  0  0  0  0  0  0  0  0  0  0
    1.0591   -0.1826    1.1076 C   0  0  0  0  0  0  0  0  0  0  0  0
    0.4409   -0.3119    2.3479 C   0  0  0  0  0  0  0  0  0  0  0  0
   -0.8301    0.2367    2.5198 C   0  0  0  0  0  0  0  0  0  0  0  0
   -1.4622    0.8976    1.4637 C   0  0  0  0  0  0  0  0  0  0  0  0
   -1.3124    1.5269   -0.5948 H   0  0  0  0  0  0  0  0  0  0  0  0
    0.9673    0.5503   -0.9079 H   0  0  0  0  0  0  0  0  0  0  0  0
    9.0184    1.2042   -4.2803 N   0  0  0  0  0  0  0  0  0  0  0  0
   10.0554    1.2465   -4.6604 N   0  0  0  0  0  0  0  0  0  0  0  0
   -2.4526    1.3188    1.6032 H   0  0  0  0  0  0  0  0  0  0  0  0
   -1.3269    0.1444    3.4808 H   0  0  0  0  0  0  0  0  0  0  0  0
    0.9519   -0.8273    3.1527 H   0  0  0  0  0  0  0  0  0  0  0  0
    3.6713   -0.0297    1.3591 S   0  0  0  0  0  0  0  0  0  0  0  0
    4.7264   -0.9991    1.1466 O   0  0  0  0  0  0  0  0  0  0  0  0
    2.3062   -0.8058    0.8888 O   0  0  0  0  0  0  0  0  0  0  0  0
    3.4473    0.6616    2.6079 O   0  0  0  0  0  0  0  0  0  0  0  0
    3.7969    1.1286    0.2199 O   0  0  0  0  0  0  0  0  0  0  0  0
    4.2768    0.7428   -0.5330 H   0  0  0  0  0  0  0  0  0  0  0  0
  1  6  1  0  0  0  0
  2  1  2  0  0  0  0
  2  3  1  0  0  0  0
  3  4  2  0  0  0  0
  4  5  1  0  0  0  0
  4 13  1  0  0  0  0
  5 12  1  0  0  0  0
  6 11  1  0  0  0  0
  6  5  2  0  0  0  0
  7  1  1  0  0  0  0
  8  2  1  0  0  0  0
 10  9  3  0  0  0  0
 14 17  2  0  0  0  0
 15 14  2  0  0  0  0
 16  3  1  0  0  0  0
 16 14  1  0  0  0  0
 18 14  1  0  0  0  0
 19 18  1  0  0  0  0
M  END
