Coordinates from ORCA-job Ph-N2-HSO4-B3LYPG-6-31G_dp-MTMO-d009-169-n800
 OpenBabel09051908053D

 19 18  0  0  0  0  0  0  0  0999 V2000
   -1.2983    0.9664    0.5359 C   0  0  0  0  0  0  0  0  0  0  0  0
   -0.0319    0.4001    0.3840 C   0  0  0  0  0  0  0  0  0  0  0  0
    0.5437   -0.2507    1.4710 C   0  0  0  0  0  0  0  0  0  0  0  0
   -0.1011   -0.3497    2.7006 C   0  0  0  0  0  0  0  0  0  0  0  0
   -1.3651    0.2240    2.8389 C   0  0  0  0  0  0  0  0  0  0  0  0
   -1.9643    0.8794    1.7604 C   0  0  0  0  0  0  0  0  0  0  0  0
   -1.7627    1.4737   -0.3041 H   0  0  0  0  0  0  0  0  0  0  0  0
    0.5047    0.4522   -0.5569 H   0  0  0  0  0  0  0  0  0  0  0  0
   13.3308    1.7567   -7.3407 N   0  0  0  0  0  0  0  0  0  0  0  0
   14.3786    1.8333   -7.6839 N   0  0  0  0  0  0  0  0  0  0  0  0
   -2.9497    1.3202    1.8736 H   0  0  0  0  0  0  0  0  0  0  0  0
   -1.8822    0.1556    3.7912 H   0  0  0  0  0  0  0  0  0  0  0  0
    0.3845   -0.8614    3.5233 H   0  0  0  0  0  0  0  0  0  0  0  0
    3.1522   -0.1434    1.7776 S   0  0  0  0  0  0  0  0  0  0  0  0
    4.1941   -1.1328    1.5935 O   0  0  0  0  0  0  0  0  0  0  0  0
    1.7833   -0.8993    1.2862 O   0  0  0  0  0  0  0  0  0  0  0  0
    2.9161    0.5615    3.0164 O   0  0  0  0  0  0  0  0  0  0  0  0
    3.3205    1.0031    0.6321 O   0  0  0  0  0  0  0  0  0  0  0  0
    3.8086    0.6024   -0.1075 H   0  0  0  0  0  0  0  0  0  0  0  0
  1  6  1  0  0  0  0
  2  1  2  0  0  0  0
  2  3  1  0  0  0  0
  3  4  2  0  0  0  0
  4  5  1  0  0  0  0
  4 13  1  0  0  0  0
  5 12  1  0  0  0  0
  6 11  1  0  0  0  0
  6  5  2  0  0  0  0
  7  1  1  0  0  0  0
  8  2  1  0  0  0  0
 10  9  3  0  0  0  0
 14 17  2  0  0  0  0
 15 14  2  0  0  0  0
 16  3  1  0  0  0  0
 16 14  1  0  0  0  0
 18 14  1  0  0  0  0
 19 18  1  0  0  0  0
M  END
