Coordinates from ORCA-job Ph-N2-HSO4-B3LYPG-6-31G_dp-MTMO-d009-169-n800
 OpenBabel09051908053D

 19 18  0  0  0  0  0  0  0  0999 V2000
   -1.1164    0.9864    0.4157 C   0  0  0  0  0  0  0  0  0  0  0  0
    0.1520    0.4264    0.2575 C   0  0  0  0  0  0  0  0  0  0  0  0
    0.7337   -0.2268    1.3399 C   0  0  0  0  0  0  0  0  0  0  0  0
    0.0930   -0.3344    2.5708 C   0  0  0  0  0  0  0  0  0  0  0  0
   -1.1732    0.2329    2.7154 C   0  0  0  0  0  0  0  0  0  0  0  0
   -1.7785    0.8907    1.6417 C   0  0  0  0  0  0  0  0  0  0  0  0
   -1.5855    1.4955   -0.4206 H   0  0  0  0  0  0  0  0  0  0  0  0
    0.6858    0.4853   -0.6846 H   0  0  0  0  0  0  0  0  0  0  0  0
   11.7340    1.5599   -6.2362 N   0  0  0  0  0  0  0  0  0  0  0  0
   12.7805    1.6281   -6.5851 N   0  0  0  0  0  0  0  0  0  0  0  0
   -2.7654    1.3265    1.7598 H   0  0  0  0  0  0  0  0  0  0  0  0
   -1.6873    0.1577    3.6688 H   0  0  0  0  0  0  0  0  0  0  0  0
    0.5833   -0.8477    3.3897 H   0  0  0  0  0  0  0  0  0  0  0  0
    3.3427   -0.1081    1.6376 S   0  0  0  0  0  0  0  0  0  0  0  0
    4.3885   -1.0922    1.4479 O   0  0  0  0  0  0  0  0  0  0  0  0
    1.9757   -0.8689    1.1486 O   0  0  0  0  0  0  0  0  0  0  0  0
    3.1073    0.5929    2.8788 O   0  0  0  0  0  0  0  0  0  0  0  0
    3.5023    1.0420    0.4943 O   0  0  0  0  0  0  0  0  0  0  0  0
    3.9892    0.6453   -0.2482 H   0  0  0  0  0  0  0  0  0  0  0  0
  1  6  1  0  0  0  0
  2  1  2  0  0  0  0
  2  3  1  0  0  0  0
  3  4  2  0  0  0  0
  4  5  1  0  0  0  0
  4 13  1  0  0  0  0
  5 12  1  0  0  0  0
  6 11  1  0  0  0  0
  6  5  2  0  0  0  0
  7  1  1  0  0  0  0
  8  2  1  0  0  0  0
 10  9  3  0  0  0  0
 14 17  2  0  0  0  0
 15 14  2  0  0  0  0
 16  3  1  0  0  0  0
 16 14  1  0  0  0  0
 18 14  1  0  0  0  0
 19 18  1  0  0  0  0
M  END
