Coordinates from ORCA-job Ph-N2-HSO4-B3LYPG-6-31G_dp-MTMO-d009-169-n800
 OpenBabel09051908053D

 19 17  0  0  0  0  0  0  0  0999 V2000
   -1.0144    0.7561   -0.5058 C   0  0  0  0  0  0  0  0  0  0  0  0
    0.0865    0.4133   -1.3222 C   0  0  0  0  0  0  0  0  0  0  0  0
    1.1347    0.1461   -0.4933 C   0  0  0  0  0  0  0  0  0  0  0  0
    1.4070    0.1212    0.7501 C   0  0  0  0  0  0  0  0  0  0  0  0
    0.2884    0.4660    1.5542 C   0  0  0  0  0  0  0  0  0  0  0  0
   -0.9100    0.7796    0.8956 C   0  0  0  0  0  0  0  0  0  0  0  0
   -1.9557    1.0048   -0.9880 H   0  0  0  0  0  0  0  0  0  0  0  0
    0.0618    0.3787   -2.4032 H   0  0  0  0  0  0  0  0  0  0  0  0
    2.8319   -0.4884   -1.9128 N   0  0  0  0  0  0  0  0  0  0  0  0
    3.8043   -0.9944   -2.0548 N   0  0  0  0  0  0  0  0  0  0  0  0
   -1.7832    1.0502    1.4826 H   0  0  0  0  0  0  0  0  0  0  0  0
    0.3520    0.4923    2.6389 H   0  0  0  0  0  0  0  0  0  0  0  0
    2.9247   -0.2231    1.5784 H   0  0  0  0  0  0  0  0  0  0  0  0
    5.0043    0.4082    1.6586 S   0  0  0  0  0  0  0  0  0  0  0  0
    6.1757   -0.2006    2.2600 O   0  0  0  0  0  0  0  0  0  0  0  0
    4.8958    0.6811    0.2380 O   0  0  0  0  0  0  0  0  0  0  0  0
    3.7435   -0.4377    2.1472 O   0  0  0  0  0  0  0  0  0  0  0  0
    4.7631    1.8507    2.3897 O   0  0  0  0  0  0  0  0  0  0  0  0
    5.1513    1.7874    3.2782 H   0  0  0  0  0  0  0  0  0  0  0  0
  1  6  1  0  0  0  0
  2  1  2  0  0  0  0
  2  3  1  0  0  0  0
  3  4  2  0  0  0  0
  4  5  1  0  0  0  0
  5 12  1  0  0  0  0
  6 11  1  0  0  0  0
  6  5  2  0  0  0  0
  7  1  1  0  0  0  0
  8  2  1  0  0  0  0
 10  9  3  0  0  0  0
 13 17  1  0  0  0  0
 14 17  1  0  0  0  0
 14 15  2  0  0  0  0
 14 18  1  0  0  0  0
 16 14  2  0  0  0  0
 18 19  1  0  0  0  0
M  RAD  2   3   2   4   2
M  END
