Coordinates from ORCA-job Ph-N2-HSO4-B3LYPG-6-31G_dp-MTMO-d009-169-n800
 OpenBabel09051908053D

 19 18  0  0  0  0  0  0  0  0999 V2000
   -1.2711    0.9694    0.5177 C   0  0  0  0  0  0  0  0  0  0  0  0
   -0.0045    0.4036    0.3653 C   0  0  0  0  0  0  0  0  0  0  0  0
    0.5716   -0.2473    1.4520 C   0  0  0  0  0  0  0  0  0  0  0  0
   -0.0729   -0.3471    2.6816 C   0  0  0  0  0  0  0  0  0  0  0  0
   -1.3372    0.2260    2.8204 C   0  0  0  0  0  0  0  0  0  0  0  0
   -1.9369    0.8816    1.7423 C   0  0  0  0  0  0  0  0  0  0  0  0
   -1.7359    1.4769   -0.3220 H   0  0  0  0  0  0  0  0  0  0  0  0
    0.5319    0.4564   -0.5756 H   0  0  0  0  0  0  0  0  0  0  0  0
   13.0955    1.7284   -7.1795 N   0  0  0  0  0  0  0  0  0  0  0  0
   14.1433    1.8045   -7.5231 N   0  0  0  0  0  0  0  0  0  0  0  0
   -2.9223    1.3219    1.8558 H   0  0  0  0  0  0  0  0  0  0  0  0
   -1.8541    0.1570    3.7727 H   0  0  0  0  0  0  0  0  0  0  0  0
    0.4131   -0.8589    3.5040 H   0  0  0  0  0  0  0  0  0  0  0  0
    3.1801   -0.1390    1.7579 S   0  0  0  0  0  0  0  0  0  0  0  0
    4.2224   -1.1278    1.5733 O   0  0  0  0  0  0  0  0  0  0  0  0
    1.8115   -0.8953    1.2666 O   0  0  0  0  0  0  0  0  0  0  0  0
    2.9440    0.5656    2.9969 O   0  0  0  0  0  0  0  0  0  0  0  0
    3.3476    1.0079    0.6126 O   0  0  0  0  0  0  0  0  0  0  0  0
    3.8357    0.6076   -0.1273 H   0  0  0  0  0  0  0  0  0  0  0  0
  1  6  1  0  0  0  0
  2  1  2  0  0  0  0
  2  3  1  0  0  0  0
  3  4  2  0  0  0  0
  4  5  1  0  0  0  0
  4 13  1  0  0  0  0
  5 12  1  0  0  0  0
  6 11  1  0  0  0  0
  6  5  2  0  0  0  0
  7  1  1  0  0  0  0
  8  2  1  0  0  0  0
 10  9  3  0  0  0  0
 14 17  2  0  0  0  0
 15 14  2  0  0  0  0
 16  3  1  0  0  0  0
 16 14  1  0  0  0  0
 18 14  1  0  0  0  0
 19 18  1  0  0  0  0
M  END
