Coordinates from ORCA-job Ph-N2-HSO4-B3LYPG-6-31G_dp-MTMO-d009-169-n800
 OpenBabel09051908053D

 19 18  0  0  0  0  0  0  0  0999 V2000
   -0.7896    0.5778   -0.7716 C   0  0  0  0  0  0  0  0  0  0  0  0
    0.5308    0.4020   -1.1805 C   0  0  0  0  0  0  0  0  0  0  0  0
    1.4762    0.2422   -0.1702 C   0  0  0  0  0  0  0  0  0  0  0  0
    1.2218    0.2372    1.1940 C   0  0  0  0  0  0  0  0  0  0  0  0
   -0.1160    0.3985    1.5593 C   0  0  0  0  0  0  0  0  0  0  0  0
   -1.1077    0.5746    0.5908 C   0  0  0  0  0  0  0  0  0  0  0  0
   -1.5646    0.7158   -1.5181 H   0  0  0  0  0  0  0  0  0  0  0  0
    0.8127    0.3949   -2.2269 H   0  0  0  0  0  0  0  0  0  0  0  0
    2.8974    0.0003   -0.6545 N   0  0  0  0  0  0  0  0  0  0  0  0
    3.6429   -0.4312   -1.3676 N   0  0  0  0  0  0  0  0  0  0  0  0
   -2.1395    0.7132    0.8984 H   0  0  0  0  0  0  0  0  0  0  0  0
   -0.3754    0.3947    2.6127 H   0  0  0  0  0  0  0  0  0  0  0  0
    2.0219    0.1075    1.9181 H   0  0  0  0  0  0  0  0  0  0  0  0
    4.7369    0.3452    1.6753 S   0  0  0  0  0  0  0  0  0  0  0  0
    5.5165   -0.5308    0.7807 O   0  0  0  0  0  0  0  0  0  0  0  0
    3.8542    1.2901    0.8787 O   0  0  0  0  0  0  0  0  0  0  0  0
    4.0038   -0.2856    2.7811 O   0  0  0  0  0  0  0  0  0  0  0  0
    5.8181    1.3388    2.4195 O   0  0  0  0  0  0  0  0  0  0  0  0
    6.5214    1.5063    1.7722 H   0  0  0  0  0  0  0  0  0  0  0  0
  1  6  1  0  0  0  0
  2  1  2  0  0  0  0
  2  3  1  0  0  0  0
  3  4  2  0  0  0  0
  4  5  1  0  0  0  0
  4 13  1  0  0  0  0
  5 12  1  0  0  0  0
  6 11  1  0  0  0  0
  6  5  2  0  0  0  0
  7  1  1  0  0  0  0
  8  2  1  0  0  0  0
  9  3  1  0  0  0  0
 10  9  2  0  0  0  0
 14 18  1  0  0  0  0
 14 17  1  0  0  0  0
 15 14  2  0  0  0  0
 16 14  2  0  0  0  0
 19 18  1  0  0  0  0
M  RAD  2  10   2  17   2
M  END
