Coordinates from ORCA-job Ph-N2-HSO4-B3LYPG-6-31G_dp-MTMO-d009-169-n800
 OpenBabel09051908053D

 19 18  0  0  0  0  0  0  0  0999 V2000
   -0.3105    1.0279   -0.0945 C   0  0  0  0  0  0  0  0  0  0  0  0
    1.0244    0.6447   -0.2301 C   0  0  0  0  0  0  0  0  0  0  0  0
    1.6366   -0.0362    0.8183 C   0  0  0  0  0  0  0  0  0  0  0  0
    0.9583   -0.3425    1.9949 C   0  0  0  0  0  0  0  0  0  0  0  0
   -0.3744    0.0510    2.1189 C   0  0  0  0  0  0  0  0  0  0  0  0
   -1.0094    0.7335    1.0782 C   0  0  0  0  0  0  0  0  0  0  0  0
   -0.8019    1.5562   -0.9059 H   0  0  0  0  0  0  0  0  0  0  0  0
    1.5879    0.8601   -1.1312 H   0  0  0  0  0  0  0  0  0  0  0  0
    5.1310    0.4207   -2.1764 N   0  0  0  0  0  0  0  0  0  0  0  0
    5.4395   -0.2397   -3.0056 N   0  0  0  0  0  0  0  0  0  0  0  0
   -2.0469    1.0354    1.1812 H   0  0  0  0  0  0  0  0  0  0  0  0
   -0.9168   -0.1793    3.0308 H   0  0  0  0  0  0  0  0  0  0  0  0
    1.4721   -0.8696    2.7901 H   0  0  0  0  0  0  0  0  0  0  0  0
    4.1878    0.3415    1.3370 S   0  0  0  0  0  0  0  0  0  0  0  0
    5.3628   -0.4470    1.0252 O   0  0  0  0  0  0  0  0  0  0  0  0
    2.9571   -0.4927    0.6354 O   0  0  0  0  0  0  0  0  0  0  0  0
    3.8240    0.7442    2.6762 O   0  0  0  0  0  0  0  0  0  0  0  0
    4.2020    1.6965    0.4481 O   0  0  0  0  0  0  0  0  0  0  0  0
    4.6383    1.4869   -0.3990 H   0  0  0  0  0  0  0  0  0  0  0  0
  1  6  1  0  0  0  0
  2  1  2  0  0  0  0
  2  3  1  0  0  0  0
  3  4  2  0  0  0  0
  4  5  1  0  0  0  0
  4 13  1  0  0  0  0
  5 12  1  0  0  0  0
  6 11  1  0  0  0  0
  6  5  2  0  0  0  0
  7  1  1  0  0  0  0
  8  2  1  0  0  0  0
 10  9  3  0  0  0  0
 14 17  2  0  0  0  0
 15 14  2  0  0  0  0
 16  3  1  0  0  0  0
 16 14  1  0  0  0  0
 18 14  1  0  0  0  0
 19 18  1  0  0  0  0
M  END
