Coordinates from ORCA-job Ph-N2-HSO4-B3LYPG-6-31G_dp-MTMO-d009-169-n800
 OpenBabel09051908053D

 19 18  0  0  0  0  0  0  0  0999 V2000
   -0.7002    1.0198    0.1589 C   0  0  0  0  0  0  0  0  0  0  0  0
    0.5666    0.4797   -0.0668 C   0  0  0  0  0  0  0  0  0  0  0  0
    1.2154   -0.1629    0.9833 C   0  0  0  0  0  0  0  0  0  0  0  0
    0.6435   -0.2787    2.2468 C   0  0  0  0  0  0  0  0  0  0  0  0
   -0.6221    0.2683    2.4586 C   0  0  0  0  0  0  0  0  0  0  0  0
   -1.2942    0.9150    1.4185 C   0  0  0  0  0  0  0  0  0  0  0  0
   -1.2214    1.5206   -0.6511 H   0  0  0  0  0  0  0  0  0  0  0  0
    1.0487    0.5465   -1.0357 H   0  0  0  0  0  0  0  0  0  0  0  0
    7.6530    1.0316   -3.0850 N   0  0  0  0  0  0  0  0  0  0  0  0
    8.6697    1.1098   -3.5111 N   0  0  0  0  0  0  0  0  0  0  0  0
   -2.2803    1.3350    1.5894 H   0  0  0  0  0  0  0  0  0  0  0  0
   -1.0831    0.1861    3.4382 H   0  0  0  0  0  0  0  0  0  0  0  0
    1.1852   -0.7835    3.0382 H   0  0  0  0  0  0  0  0  0  0  0  0
    3.8361    0.0070    1.1175 S   0  0  0  0  0  0  0  0  0  0  0  0
    4.8835   -0.9746    0.9221 O   0  0  0  0  0  0  0  0  0  0  0  0
    2.4556   -0.7864    0.7279 O   0  0  0  0  0  0  0  0  0  0  0  0
    3.6498    0.7589    2.3372 O   0  0  0  0  0  0  0  0  0  0  0  0
    3.9324    1.1058   -0.0819 O   0  0  0  0  0  0  0  0  0  0  0  0
    4.4233    0.6934   -0.8136 H   0  0  0  0  0  0  0  0  0  0  0  0
  1  6  1  0  0  0  0
  2  1  2  0  0  0  0
  2  3  1  0  0  0  0
  3  4  2  0  0  0  0
  4  5  1  0  0  0  0
  4 13  1  0  0  0  0
  5 12  1  0  0  0  0
  6 11  1  0  0  0  0
  6  5  2  0  0  0  0
  7  1  1  0  0  0  0
  8  2  1  0  0  0  0
 10  9  3  0  0  0  0
 14 17  2  0  0  0  0
 15 14  2  0  0  0  0
 16  3  1  0  0  0  0
 16 14  1  0  0  0  0
 18 14  1  0  0  0  0
 19 18  1  0  0  0  0
M  END
