Coordinates from ORCA-job Ph-N2-HSO4-B3LYPG-6-31G_dp-MTMO-d009-169-n800
 OpenBabel09051908053D

 19 19  0  0  1  0  0  0  0  0999 V2000
   -0.5334   -0.1106   -0.2760 C   0  0  0  0  0  0  0  0  0  0  0  0
    0.3636    0.2617   -1.2111 C   0  0  0  0  0  0  0  0  0  0  0  0
    1.6474    0.8841   -0.8303 C   0  0  0  0  0  0  0  0  0  0  0  0
    2.0520    0.8453    0.6481 C   0  0  1  0  0  0  0  0  0  0  0  0
    0.9198    0.5699    1.5732 C   0  0  0  0  0  0  0  0  0  0  0  0
   -0.2625    0.0969    1.1347 C   0  0  0  0  0  0  0  0  0  0  0  0
   -1.4759   -0.5556   -0.5767 H   0  0  0  0  0  0  0  0  0  0  0  0
    0.1817    0.1400   -2.2747 H   0  0  0  0  0  0  0  0  0  0  0  0
    2.3083    1.3144   -1.5389 N   0  0  0  0  0  0  0  0  0  0  0  0
    3.0326    1.7866   -2.3123 N   0  0  0  0  0  0  0  0  0  0  0  0
   -1.0479   -0.1294    1.8503 H   0  0  0  0  0  0  0  0  0  0  0  0
    1.1160    0.7205    2.6295 H   0  0  0  0  0  0  0  0  0  0  0  0
    2.6060    1.7531    0.9001 H   0  0  0  0  0  0  0  0  0  0  0  0
    4.4410   -0.0105    1.5178 S   0  0  0  0  0  0  0  0  0  0  0  0
    5.2557   -1.1892    1.3280 O   0  0  0  0  0  0  0  0  0  0  0  0
    4.9462    1.3256    1.2258 O   0  0  0  0  0  0  0  0  0  0  0  0
    3.0526   -0.2876    0.7673 O   0  0  0  0  0  0  0  0  0  0  0  0
    3.8639    0.0271    3.0558 O   0  0  0  0  0  0  0  0  0  0  0  0
    4.4946    0.5490    3.5808 H   0  0  0  0  0  0  0  0  0  0  0  0
  1  6  1  0  0  0  0
  2  3  2  0  0  0  0
  2  1  1  0  0  0  0
  3  4  1  0  0  0  0
  4 17  1  0  0  0  0
  4 13  1  1  0  0  0
  4  5  1  0  0  0  0
  5 12  1  0  0  0  0
  6  5  2  0  0  0  0
  6 11  1  0  0  0  0
  7  1  1  0  0  0  0
  8  2  1  0  0  0  0
  9  3  1  0  0  0  0
 10  9  1  0  0  0  0
 14 18  1  0  0  0  0
 15 14  2  0  0  0  0
 16 14  2  0  0  0  0
 17 14  1  0  0  0  0
 18 19  1  0  0  0  0
M  RAD  3   1   2   9   2  10   3
M  END
