Coordinates from ORCA-job Ph-N2-HSO4-B3LYPG-6-31G_dp-MTMO-d009-169-n800
 OpenBabel09051908053D

 19 18  0  0  0  0  0  0  0  0999 V2000
   -1.0520    0.9932    0.3741 C   0  0  0  0  0  0  0  0  0  0  0  0
    0.2176    0.4371    0.2115 C   0  0  0  0  0  0  0  0  0  0  0  0
    0.8034   -0.2175    1.2909 C   0  0  0  0  0  0  0  0  0  0  0  0
    0.1657   -0.3301    2.5229 C   0  0  0  0  0  0  0  0  0  0  0  0
   -1.1016    0.2334    2.6718 C   0  0  0  0  0  0  0  0  0  0  0  0
   -1.7110    0.8924    1.6013 C   0  0  0  0  0  0  0  0  0  0  0  0
   -1.5243    1.5034   -0.4598 H   0  0  0  0  0  0  0  0  0  0  0  0
    0.7490    0.5000   -0.7316 H   0  0  0  0  0  0  0  0  0  0  0  0
   11.1522    1.4872   -5.8257 N   0  0  0  0  0  0  0  0  0  0  0  0
   12.1978    1.5452   -6.1792 N   0  0  0  0  0  0  0  0  0  0  0  0
   -2.6988    1.3253    1.7228 H   0  0  0  0  0  0  0  0  0  0  0  0
   -1.6134    0.1543    3.6262 H   0  0  0  0  0  0  0  0  0  0  0  0
    0.6592   -0.8444    3.3393 H   0  0  0  0  0  0  0  0  0  0  0  0
    3.4128   -0.0920    1.5822 S   0  0  0  0  0  0  0  0  0  0  0  0
    4.4608   -1.0731    1.3885 O   0  0  0  0  0  0  0  0  0  0  0  0
    2.0467   -0.8558    1.0952 O   0  0  0  0  0  0  0  0  0  0  0  0
    3.1784    0.6065    2.8250 O   0  0  0  0  0  0  0  0  0  0  0  0
    3.5666    1.0603    0.4403 O   0  0  0  0  0  0  0  0  0  0  0  0
    4.0526    0.6659   -0.3041 H   0  0  0  0  0  0  0  0  0  0  0  0
  1  6  1  0  0  0  0
  2  1  2  0  0  0  0
  2  3  1  0  0  0  0
  3  4  2  0  0  0  0
  4  5  1  0  0  0  0
  4 13  1  0  0  0  0
  5 12  1  0  0  0  0
  6 11  1  0  0  0  0
  6  5  2  0  0  0  0
  7  1  1  0  0  0  0
  8  2  1  0  0  0  0
 10  9  3  0  0  0  0
 14 17  2  0  0  0  0
 15 14  2  0  0  0  0
 16  3  1  0  0  0  0
 16 14  1  0  0  0  0
 18 14  1  0  0  0  0
 19 18  1  0  0  0  0
M  END
