Coordinates from ORCA-job Ph-N2-HSO4-B3LYPG-6-31G_dp-MTMO-d009-169-n800
 OpenBabel09051908053D

 19 18  0  0  0  0  0  0  0  0999 V2000
   -0.1911    1.0431   -0.1671 C   0  0  0  0  0  0  0  0  0  0  0  0
    1.1572    0.6957   -0.2606 C   0  0  0  0  0  0  0  0  0  0  0  0
    1.7432   -0.0079    0.7880 C   0  0  0  0  0  0  0  0  0  0  0  0
    1.0240   -0.3711    1.9237 C   0  0  0  0  0  0  0  0  0  0  0  0
   -0.3217   -0.0131    2.0061 C   0  0  0  0  0  0  0  0  0  0  0  0
   -0.9302    0.6917    0.9645 C   0  0  0  0  0  0  0  0  0  0  0  0
   -0.6615    1.5887   -0.9797 H   0  0  0  0  0  0  0  0  0  0  0  0
    1.7488    0.9560   -1.1310 H   0  0  0  0  0  0  0  0  0  0  0  0
    4.5922    0.3123   -2.0640 N   0  0  0  0  0  0  0  0  0  0  0  0
    4.5730   -0.4458   -2.8666 N   0  0  0  0  0  0  0  0  0  0  0  0
   -1.9780    0.9667    1.0346 H   0  0  0  0  0  0  0  0  0  0  0  0
   -0.8949   -0.2885    2.8861 H   0  0  0  0  0  0  0  0  0  0  0  0
    1.5173   -0.9150    2.7209 H   0  0  0  0  0  0  0  0  0  0  0  0
    4.2619    0.4033    1.4363 S   0  0  0  0  0  0  0  0  0  0  0  0
    5.4645   -0.3483    1.1424 O   0  0  0  0  0  0  0  0  0  0  0  0
    3.0803   -0.4283    0.6483 O   0  0  0  0  0  0  0  0  0  0  0  0
    3.8357    0.7456    2.7737 O   0  0  0  0  0  0  0  0  0  0  0  0
    4.2752    1.7952    0.6049 O   0  0  0  0  0  0  0  0  0  0  0  0
    4.6657    1.6111   -0.2691 H   0  0  0  0  0  0  0  0  0  0  0  0
  1  6  1  0  0  0  0
  2  1  2  0  0  0  0
  2  3  1  0  0  0  0
  3  4  2  0  0  0  0
  4  5  1  0  0  0  0
  4 13  1  0  0  0  0
  5 12  1  0  0  0  0
  6 11  1  0  0  0  0
  6  5  2  0  0  0  0
  7  1  1  0  0  0  0
  8  2  1  0  0  0  0
 10  9  3  0  0  0  0
 14 17  2  0  0  0  0
 15 14  2  0  0  0  0
 16  3  1  0  0  0  0
 16 14  1  0  0  0  0
 18 14  1  0  0  0  0
 19 18  1  0  0  0  0
M  END
