Coordinates from ORCA-job Ph-N2-HSO4-B3LYPG-6-31G_dp-MTMO-d009-169-n800
 OpenBabel09051908053D

 19 18  0  0  0  0  0  0  0  0999 V2000
   -1.1018    0.9879    0.4062 C   0  0  0  0  0  0  0  0  0  0  0  0
    0.1669    0.4287    0.2471 C   0  0  0  0  0  0  0  0  0  0  0  0
    0.7494   -0.2247    1.3289 C   0  0  0  0  0  0  0  0  0  0  0  0
    0.1093   -0.3334    2.5600 C   0  0  0  0  0  0  0  0  0  0  0  0
   -1.1572    0.2331    2.7055 C   0  0  0  0  0  0  0  0  0  0  0  0
   -1.7633    0.8912    1.6324 C   0  0  0  0  0  0  0  0  0  0  0  0
   -1.5715    1.4973   -0.4296 H   0  0  0  0  0  0  0  0  0  0  0  0
    0.7002    0.4885   -0.6952 H   0  0  0  0  0  0  0  0  0  0  0  0
   11.6029    1.5435   -6.1441 N   0  0  0  0  0  0  0  0  0  0  0  0
   12.6492    1.6100   -6.4939 N   0  0  0  0  0  0  0  0  0  0  0  0
   -2.7504    1.3264    1.7512 H   0  0  0  0  0  0  0  0  0  0  0  0
   -1.6708    0.1571    3.6591 H   0  0  0  0  0  0  0  0  0  0  0  0
    0.6002   -0.8469    3.3784 H   0  0  0  0  0  0  0  0  0  0  0  0
    3.3585   -0.1046    1.6253 S   0  0  0  0  0  0  0  0  0  0  0  0
    4.4047   -1.0881    1.4348 O   0  0  0  0  0  0  0  0  0  0  0  0
    1.9917   -0.8661    1.1367 O   0  0  0  0  0  0  0  0  0  0  0  0
    3.1232    0.5959    2.8668 O   0  0  0  0  0  0  0  0  0  0  0  0
    3.5169    1.0459    0.4824 O   0  0  0  0  0  0  0  0  0  0  0  0
    4.0036    0.6497   -0.2606 H   0  0  0  0  0  0  0  0  0  0  0  0
  1  6  1  0  0  0  0
  2  1  2  0  0  0  0
  2  3  1  0  0  0  0
  3  4  2  0  0  0  0
  4  5  1  0  0  0  0
  4 13  1  0  0  0  0
  5 12  1  0  0  0  0
  6 11  1  0  0  0  0
  6  5  2  0  0  0  0
  7  1  1  0  0  0  0
  8  2  1  0  0  0  0
 10  9  3  0  0  0  0
 14 17  2  0  0  0  0
 15 14  2  0  0  0  0
 16  3  1  0  0  0  0
 16 14  1  0  0  0  0
 18 14  1  0  0  0  0
 19 18  1  0  0  0  0
M  END
