Coordinates from ORCA-job Ph-N2-HSO4-B3LYPG-6-31G_dp-MTMO-d009-169-n800
 OpenBabel09051908053D

 19 18  0  0  0  0  0  0  0  0999 V2000
   -0.2481    1.0396   -0.1327 C   0  0  0  0  0  0  0  0  0  0  0  0
    1.0951    0.6791   -0.2476 C   0  0  0  0  0  0  0  0  0  0  0  0
    1.6951   -0.0163    0.7985 C   0  0  0  0  0  0  0  0  0  0  0  0
    0.9958   -0.3591    1.9526 C   0  0  0  0  0  0  0  0  0  0  0  0
   -0.3450    0.0120    2.0562 C   0  0  0  0  0  0  0  0  0  0  0  0
   -0.9676    0.7088    1.0176 C   0  0  0  0  0  0  0  0  0  0  0  0
   -0.7297    1.5789   -0.9428 H   0  0  0  0  0  0  0  0  0  0  0  0
    1.6734    0.9228   -1.1319 H   0  0  0  0  0  0  0  0  0  0  0  0
    4.8444    0.3493   -2.1127 N   0  0  0  0  0  0  0  0  0  0  0  0
    4.9672   -0.3788   -2.9335 N   0  0  0  0  0  0  0  0  0  0  0  0
   -2.0115    0.9936    1.1046 H   0  0  0  0  0  0  0  0  0  0  0  0
   -0.9033   -0.2470    2.9506 H   0  0  0  0  0  0  0  0  0  0  0  0
    1.4999   -0.8969    2.7469 H   0  0  0  0  0  0  0  0  0  0  0  0
    4.2291    0.3786    1.3922 S   0  0  0  0  0  0  0  0  0  0  0  0
    5.4192   -0.3893    1.0881 O   0  0  0  0  0  0  0  0  0  0  0  0
    3.0259   -0.4492    0.6349 O   0  0  0  0  0  0  0  0  0  0  0  0
    3.8287    0.7412    2.7322 O   0  0  0  0  0  0  0  0  0  0  0  0
    4.2458    1.7590    0.5428 O   0  0  0  0  0  0  0  0  0  0  0  0
    4.6475    1.5650   -0.3245 H   0  0  0  0  0  0  0  0  0  0  0  0
  1  6  1  0  0  0  0
  2  1  2  0  0  0  0
  2  3  1  0  0  0  0
  3  4  2  0  0  0  0
  4  5  1  0  0  0  0
  4 13  1  0  0  0  0
  5 12  1  0  0  0  0
  6 11  1  0  0  0  0
  6  5  2  0  0  0  0
  7  1  1  0  0  0  0
  8  2  1  0  0  0  0
 10  9  3  0  0  0  0
 14 17  2  0  0  0  0
 15 14  2  0  0  0  0
 16  3  1  0  0  0  0
 16 14  1  0  0  0  0
 18 14  1  0  0  0  0
 19 18  1  0  0  0  0
M  END
