Coordinates from ORCA-job Ph-N2-HSO4-B3LYPG-6-31G_dp-MTMO-d009-169-n800
 OpenBabel09051908053D

 19 18  0  0  0  0  0  0  0  0999 V2000
   -0.7259    1.0186    0.1698 C   0  0  0  0  0  0  0  0  0  0  0  0
    0.5435    0.4783   -0.0408 C   0  0  0  0  0  0  0  0  0  0  0  0
    1.1780   -0.1683    1.0156 C   0  0  0  0  0  0  0  0  0  0  0  0
    0.5891   -0.2882    2.2709 C   0  0  0  0  0  0  0  0  0  0  0  0
   -0.6787    0.2593    2.4678 C   0  0  0  0  0  0  0  0  0  0  0  0
   -1.3365    0.9100    1.4211 C   0  0  0  0  0  0  0  0  0  0  0  0
   -1.2359    1.5224   -0.6454 H   0  0  0  0  0  0  0  0  0  0  0  0
    1.0382    0.5479   -1.0032 H   0  0  0  0  0  0  0  0  0  0  0  0
    7.9959    1.0809   -3.4201 N   0  0  0  0  0  0  0  0  0  0  0  0
    9.0180    1.1354   -3.8369 N   0  0  0  0  0  0  0  0  0  0  0  0
   -2.3245    1.3303    1.5802 H   0  0  0  0  0  0  0  0  0  0  0  0
   -1.1528    0.1741    3.4408 H   0  0  0  0  0  0  0  0  0  0  0  0
    1.1198   -0.7960    3.0678 H   0  0  0  0  0  0  0  0  0  0  0  0
    3.7957   -0.0057    1.1980 S   0  0  0  0  0  0  0  0  0  0  0  0
    4.8462   -0.9806    0.9873 O   0  0  0  0  0  0  0  0  0  0  0  0
    2.4209   -0.7914    0.7736 O   0  0  0  0  0  0  0  0  0  0  0  0
    3.5967    0.7143    2.4347 O   0  0  0  0  0  0  0  0  0  0  0  0
    3.8999    1.1252    0.0296 O   0  0  0  0  0  0  0  0  0  0  0  0
    4.3744    0.7248   -0.7192 H   0  0  0  0  0  0  0  0  0  0  0  0
  1  6  1  0  0  0  0
  2  1  2  0  0  0  0
  2  3  1  0  0  0  0
  3  4  2  0  0  0  0
  4  5  1  0  0  0  0
  4 13  1  0  0  0  0
  5 12  1  0  0  0  0
  6 11  1  0  0  0  0
  6  5  2  0  0  0  0
  7  1  1  0  0  0  0
  8  2  1  0  0  0  0
 10  9  3  0  0  0  0
 14 17  2  0  0  0  0
 15 14  2  0  0  0  0
 16  3  1  0  0  0  0
 16 14  1  0  0  0  0
 18 14  1  0  0  0  0
 19 18  1  0  0  0  0
M  END
