Coordinates from ORCA-job Ph-N2-HSO4-B3LYPG-6-31G_dp-MTMO-d009-169-n800
 OpenBabel09051908053D

 19 18  0  0  0  0  0  0  0  0999 V2000
   -1.2881    0.9675    0.5291 C   0  0  0  0  0  0  0  0  0  0  0  0
   -0.0216    0.4014    0.3769 C   0  0  0  0  0  0  0  0  0  0  0  0
    0.5542   -0.2494    1.4639 C   0  0  0  0  0  0  0  0  0  0  0  0
   -0.0905   -0.3487    2.6935 C   0  0  0  0  0  0  0  0  0  0  0  0
   -1.3547    0.2248    2.8319 C   0  0  0  0  0  0  0  0  0  0  0  0
   -1.9540    0.8803    1.7536 C   0  0  0  0  0  0  0  0  0  0  0  0
   -1.7526    1.4749   -0.3108 H   0  0  0  0  0  0  0  0  0  0  0  0
    0.5149    0.4537   -0.5639 H   0  0  0  0  0  0  0  0  0  0  0  0
   13.2425    1.7461   -7.2803 N   0  0  0  0  0  0  0  0  0  0  0  0
   14.2904    1.8225   -7.6236 N   0  0  0  0  0  0  0  0  0  0  0  0
   -2.9394    1.3209    1.8669 H   0  0  0  0  0  0  0  0  0  0  0  0
   -1.8717    0.1562    3.7842 H   0  0  0  0  0  0  0  0  0  0  0  0
    0.3952   -0.8604    3.5161 H   0  0  0  0  0  0  0  0  0  0  0  0
    3.1626   -0.1418    1.7703 S   0  0  0  0  0  0  0  0  0  0  0  0
    4.2047   -1.1310    1.5860 O   0  0  0  0  0  0  0  0  0  0  0  0
    1.7939   -0.8978    1.2788 O   0  0  0  0  0  0  0  0  0  0  0  0
    2.9266    0.5631    3.0091 O   0  0  0  0  0  0  0  0  0  0  0  0
    3.3307    1.0049    0.6248 O   0  0  0  0  0  0  0  0  0  0  0  0
    3.8188    0.6043   -0.1149 H   0  0  0  0  0  0  0  0  0  0  0  0
  1  6  1  0  0  0  0
  2  1  2  0  0  0  0
  2  3  1  0  0  0  0
  3  4  2  0  0  0  0
  4  5  1  0  0  0  0
  4 13  1  0  0  0  0
  5 12  1  0  0  0  0
  6 11  1  0  0  0  0
  6  5  2  0  0  0  0
  7  1  1  0  0  0  0
  8  2  1  0  0  0  0
 10  9  3  0  0  0  0
 14 17  2  0  0  0  0
 15 14  2  0  0  0  0
 16  3  1  0  0  0  0
 16 14  1  0  0  0  0
 18 14  1  0  0  0  0
 19 18  1  0  0  0  0
M  END
