Coordinates from ORCA-job Ph-N2-HSO4-B3LYPG-6-31G_dp-MTMO-d009-169-n800
 OpenBabel09051908053D

 19 18  0  0  0  0  0  0  0  0999 V2000
   -0.9172    1.0068    0.2881 C   0  0  0  0  0  0  0  0  0  0  0  0
    0.3549    0.4603    0.1131 C   0  0  0  0  0  0  0  0  0  0  0  0
    0.9528   -0.1968    1.1842 C   0  0  0  0  0  0  0  0  0  0  0  0
    0.3247   -0.3214    2.4200 C   0  0  0  0  0  0  0  0  0  0  0  0
   -0.9453    0.2325    2.5813 C   0  0  0  0  0  0  0  0  0  0  0  0
   -1.5668    0.8940    1.5192 C   0  0  0  0  0  0  0  0  0  0  0  0
   -1.3989    1.5189   -0.5392 H   0  0  0  0  0  0  0  0  0  0  0  0
    0.8792    0.5327   -0.8333 H   0  0  0  0  0  0  0  0  0  0  0  0
    9.9086    1.3293   -4.9332 N   0  0  0  0  0  0  0  0  0  0  0  0
   10.9505    1.3593   -5.3010 N   0  0  0  0  0  0  0  0  0  0  0  0
   -2.5566    1.3194    1.6505 H   0  0  0  0  0  0  0  0  0  0  0  0
   -1.4498    0.1440    3.5387 H   0  0  0  0  0  0  0  0  0  0  0  0
    0.8276   -0.8373    3.2297 H   0  0  0  0  0  0  0  0  0  0  0  0
    3.5635   -0.0543    1.4563 S   0  0  0  0  0  0  0  0  0  0  0  0
    4.6166   -1.0275    1.2512 O   0  0  0  0  0  0  0  0  0  0  0  0
    2.1991   -0.8254    0.9759 O   0  0  0  0  0  0  0  0  0  0  0  0
    3.3331    0.6376    2.7035 O   0  0  0  0  0  0  0  0  0  0  0  0
    3.7014    1.1037    0.3182 O   0  0  0  0  0  0  0  0  0  0  0  0
    4.1842    0.7157   -0.4317 H   0  0  0  0  0  0  0  0  0  0  0  0
  1  6  1  0  0  0  0
  2  1  2  0  0  0  0
  2  3  1  0  0  0  0
  3  4  2  0  0  0  0
  4  5  1  0  0  0  0
  4 13  1  0  0  0  0
  5 12  1  0  0  0  0
  6 11  1  0  0  0  0
  6  5  2  0  0  0  0
  7  1  1  0  0  0  0
  8  2  1  0  0  0  0
 10  9  3  0  0  0  0
 14 17  2  0  0  0  0
 15 14  2  0  0  0  0
 16  3  1  0  0  0  0
 16 14  1  0  0  0  0
 18 14  1  0  0  0  0
 19 18  1  0  0  0  0
M  END
