Coordinates from ORCA-job Ph-N2-HSO4-B3LYPG-6-31G_dp-MTMO-d009-169-n800
 OpenBabel09051908053D

 19 17  0  0  0  0  0  0  0  0999 V2000
   -0.8690    0.6972   -0.6589 C   0  0  0  0  0  0  0  0  0  0  0  0
    0.3906    0.4123   -1.2256 C   0  0  0  0  0  0  0  0  0  0  0  0
    1.2845    0.1500   -0.2381 C   0  0  0  0  0  0  0  0  0  0  0  0
    1.3123    0.0922    1.0959 C   0  0  0  0  0  0  0  0  0  0  0  0
    0.0153    0.3831    1.5891 C   0  0  0  0  0  0  0  0  0  0  0  0
   -1.0448    0.6790    0.7284 C   0  0  0  0  0  0  0  0  0  0  0  0
   -1.6921    0.9287   -1.3275 H   0  0  0  0  0  0  0  0  0  0  0  0
    0.5902    0.4126   -2.2881 H   0  0  0  0  0  0  0  0  0  0  0  0
    3.0651   -0.3828   -1.0827 N   0  0  0  0  0  0  0  0  0  0  0  0
    3.9190   -0.8582   -1.5977 N   0  0  0  0  0  0  0  0  0  0  0  0
   -2.0216    0.9043    1.1432 H   0  0  0  0  0  0  0  0  0  0  0  0
   -0.1220    0.3824    2.6665 H   0  0  0  0  0  0  0  0  0  0  0  0
    2.2174   -0.1132    1.7324 H   0  0  0  0  0  0  0  0  0  0  0  0
    4.6988    0.4838    1.5652 S   0  0  0  0  0  0  0  0  0  0  0  0
    5.8235   -0.2643    0.9804 O   0  0  0  0  0  0  0  0  0  0  0  0
    3.9717    1.3592    0.6096 O   0  0  0  0  0  0  0  0  0  0  0  0
    3.7471   -0.3400    2.3799 O   0  0  0  0  0  0  0  0  0  0  0  0
    5.3737    1.4886    2.6931 O   0  0  0  0  0  0  0  0  0  0  0  0
    6.3020    1.5765    2.4264 H   0  0  0  0  0  0  0  0  0  0  0  0
  1  6  1  0  0  0  0
  2  1  2  0  0  0  0
  2  3  1  0  0  0  0
  3  4  2  0  0  0  0
  4  5  1  0  0  0  0
  4 13  1  0  0  0  0
  5 12  1  0  0  0  0
  6 11  1  0  0  0  0
  6  5  2  0  0  0  0
  7  1  1  0  0  0  0
  8  2  1  0  0  0  0
 10  9  3  0  0  0  0
 14 17  1  0  0  0  0
 14 18  1  0  0  0  0
 15 14  2  0  0  0  0
 16 14  2  0  0  0  0
 19 18  1  0  0  0  0
M  RAD  2   3   2  17   2
M  END
