Coordinates from ORCA-job Ph-N2-HSO4-B3LYPG-6-31G_dp-MTMO-d009-169-n800
 OpenBabel09051908053D

 19 18  0  0  0  0  0  0  0  0999 V2000
   -0.6133    1.0138    0.1143 C   0  0  0  0  0  0  0  0  0  0  0  0
    0.6735    0.5477   -0.1586 C   0  0  0  0  0  0  0  0  0  0  0  0
    1.3778   -0.1002    0.8519 C   0  0  0  0  0  0  0  0  0  0  0  0
    0.8415   -0.2925    2.1216 C   0  0  0  0  0  0  0  0  0  0  0  0
   -0.4447    0.1814    2.3809 C   0  0  0  0  0  0  0  0  0  0  0  0
   -1.1722    0.8319    1.3812 C   0  0  0  0  0  0  0  0  0  0  0  0
   -1.1773    1.5176   -0.6647 H   0  0  0  0  0  0  0  0  0  0  0  0
    1.1306    0.6759   -1.1334 H   0  0  0  0  0  0  0  0  0  0  0  0
    6.4280    0.6768   -2.1501 N   0  0  0  0  0  0  0  0  0  0  0  0
    7.3958    0.4273   -2.6195 N   0  0  0  0  0  0  0  0  0  0  0  0
   -2.1735    1.1955    1.5894 H   0  0  0  0  0  0  0  0  0  0  0  0
   -0.8781    0.0393    3.3662 H   0  0  0  0  0  0  0  0  0  0  0  0
    1.4259   -0.7981    2.8815 H   0  0  0  0  0  0  0  0  0  0  0  0
    3.9914    0.1964    0.9381 S   0  0  0  0  0  0  0  0  0  0  0  0
    5.0831   -0.7253    0.6913 O   0  0  0  0  0  0  0  0  0  0  0  0
    2.6418   -0.6477    0.5438 O   0  0  0  0  0  0  0  0  0  0  0  0
    3.7896    0.8824    2.1948 O   0  0  0  0  0  0  0  0  0  0  0  0
    4.0149    1.3352   -0.2197 O   0  0  0  0  0  0  0  0  0  0  0  0
    4.6268    1.0342   -0.9175 H   0  0  0  0  0  0  0  0  0  0  0  0
  1  6  1  0  0  0  0
  2  1  2  0  0  0  0
  2  3  1  0  0  0  0
  3  4  2  0  0  0  0
  4  5  1  0  0  0  0
  4 13  1  0  0  0  0
  5 12  1  0  0  0  0
  6 11  1  0  0  0  0
  6  5  2  0  0  0  0
  7  1  1  0  0  0  0
  8  2  1  0  0  0  0
 10  9  3  0  0  0  0
 14 17  2  0  0  0  0
 15 14  2  0  0  0  0
 16  3  1  0  0  0  0
 16 14  1  0  0  0  0
 18 14  1  0  0  0  0
 19 18  1  0  0  0  0
M  END
