Coordinates from ORCA-job Ph-N2-HSO4-B3LYPG-6-31G_dp-MTMO-d009-169-n800
 OpenBabel09051908053D

 19 18  0  0  0  0  0  0  0  0999 V2000
   -1.1557    0.9821    0.4413 C   0  0  0  0  0  0  0  0  0  0  0  0
    0.1121    0.4202    0.2851 C   0  0  0  0  0  0  0  0  0  0  0  0
    0.6919   -0.2322    1.3690 C   0  0  0  0  0  0  0  0  0  0  0  0
    0.0498   -0.3373    2.5994 C   0  0  0  0  0  0  0  0  0  0  0  0
   -1.2158    0.2319    2.7420 C   0  0  0  0  0  0  0  0  0  0  0  0
   -1.8191    0.8890    1.6668 C   0  0  0  0  0  0  0  0  0  0  0  0
   -1.6233    1.4907   -0.3961 H   0  0  0  0  0  0  0  0  0  0  0  0
    0.6469    0.4771   -0.6565 H   0  0  0  0  0  0  0  0  0  0  0  0
   12.0842    1.6039   -6.4809 N   0  0  0  0  0  0  0  0  0  0  0  0
   13.1312    1.6754   -6.8279 N   0  0  0  0  0  0  0  0  0  0  0  0
   -2.8056    1.3263    1.7833 H   0  0  0  0  0  0  0  0  0  0  0  0
   -1.7309    0.1587    3.6950 H   0  0  0  0  0  0  0  0  0  0  0  0
    0.5385   -0.8501    3.4196 H   0  0  0  0  0  0  0  0  0  0  0  0
    3.3007   -0.1169    1.6697 S   0  0  0  0  0  0  0  0  0  0  0  0
    4.3454   -1.1026    1.4818 O   0  0  0  0  0  0  0  0  0  0  0  0
    1.9332   -0.8763    1.1798 O   0  0  0  0  0  0  0  0  0  0  0  0
    3.0649    0.5853    2.9102 O   0  0  0  0  0  0  0  0  0  0  0  0
    3.4630    1.0321    0.5258 O   0  0  0  0  0  0  0  0  0  0  0  0
    3.9503    0.6342   -0.2158 H   0  0  0  0  0  0  0  0  0  0  0  0
  1  6  1  0  0  0  0
  2  1  2  0  0  0  0
  2  3  1  0  0  0  0
  3  4  2  0  0  0  0
  4  5  1  0  0  0  0
  4 13  1  0  0  0  0
  5 12  1  0  0  0  0
  6 11  1  0  0  0  0
  6  5  2  0  0  0  0
  7  1  1  0  0  0  0
  8  2  1  0  0  0  0
 10  9  3  0  0  0  0
 14 17  2  0  0  0  0
 15 14  2  0  0  0  0
 16  3  1  0  0  0  0
 16 14  1  0  0  0  0
 18 14  1  0  0  0  0
 19 18  1  0  0  0  0
M  END
