Coordinates from ORCA-job Ph-N2-HSO4-B3LYPG-6-31G_dp-MTMO-d009-169-n800
 OpenBabel09051908053D

 19 18  0  0  0  0  0  0  0  0999 V2000
   -1.2542    0.9713    0.5064 C   0  0  0  0  0  0  0  0  0  0  0  0
    0.0125    0.4059    0.3536 C   0  0  0  0  0  0  0  0  0  0  0  0
    0.5890   -0.2452    1.4400 C   0  0  0  0  0  0  0  0  0  0  0  0
   -0.0553   -0.3455    2.6697 C   0  0  0  0  0  0  0  0  0  0  0  0
   -1.3197    0.2271    2.8089 C   0  0  0  0  0  0  0  0  0  0  0  0
   -1.9197    0.8829    1.7311 C   0  0  0  0  0  0  0  0  0  0  0  0
   -1.7193    1.4788   -0.3331 H   0  0  0  0  0  0  0  0  0  0  0  0
    0.5488    0.4591   -0.5874 H   0  0  0  0  0  0  0  0  0  0  0  0
   12.9486    1.7106   -7.0787 N   0  0  0  0  0  0  0  0  0  0  0  0
   13.9963    1.7863   -7.4225 N   0  0  0  0  0  0  0  0  0  0  0  0
   -2.9053    1.3229    1.8449 H   0  0  0  0  0  0  0  0  0  0  0  0
   -1.8364    0.1577    3.7613 H   0  0  0  0  0  0  0  0  0  0  0  0
    0.4310   -0.8574    3.4919 H   0  0  0  0  0  0  0  0  0  0  0  0
    3.1976   -0.1361    1.7455 S   0  0  0  0  0  0  0  0  0  0  0  0
    4.2401   -1.1246    1.5605 O   0  0  0  0  0  0  0  0  0  0  0  0
    1.8291   -0.8927    1.2543 O   0  0  0  0  0  0  0  0  0  0  0  0
    2.9615    0.5683    2.9846 O   0  0  0  0  0  0  0  0  0  0  0  0
    3.3645    1.0110    0.6003 O   0  0  0  0  0  0  0  0  0  0  0  0
    3.8525    0.6110   -0.1398 H   0  0  0  0  0  0  0  0  0  0  0  0
  1  6  1  0  0  0  0
  2  1  2  0  0  0  0
  2  3  1  0  0  0  0
  3  4  2  0  0  0  0
  4  5  1  0  0  0  0
  4 13  1  0  0  0  0
  5 12  1  0  0  0  0
  6 11  1  0  0  0  0
  6  5  2  0  0  0  0
  7  1  1  0  0  0  0
  8  2  1  0  0  0  0
 10  9  3  0  0  0  0
 14 17  2  0  0  0  0
 15 14  2  0  0  0  0
 16  3  1  0  0  0  0
 16 14  1  0  0  0  0
 18 14  1  0  0  0  0
 19 18  1  0  0  0  0
M  END
