Coordinates from ORCA-job Ph-N2-HSO4-B3LYPG-6-31G_dp-MTMO-d009-169-n800
 OpenBabel09051908053D

 19 17  0  0  0  0  0  0  0  0999 V2000
   -1.0095    0.7703   -0.4820 C   0  0  0  0  0  0  0  0  0  0  0  0
    0.1784    0.5169   -1.2113 C   0  0  0  0  0  0  0  0  0  0  0  0
    1.1473    0.2550   -0.2894 C   0  0  0  0  0  0  0  0  0  0  0  0
    1.2727    0.1830    0.9649 C   0  0  0  0  0  0  0  0  0  0  0  0
    0.0884    0.4337    1.6961 C   0  0  0  0  0  0  0  0  0  0  0  0
   -1.0479    0.7287    0.9229 C   0  0  0  0  0  0  0  0  0  0  0  0
   -1.9121    1.0015   -1.0417 H   0  0  0  0  0  0  0  0  0  0  0  0
    0.2524    0.5366   -2.2901 H   0  0  0  0  0  0  0  0  0  0  0  0
    3.1490   -0.5364   -2.2663 N   0  0  0  0  0  0  0  0  0  0  0  0
    4.0711   -1.0785   -2.5428 N   0  0  0  0  0  0  0  0  0  0  0  0
   -1.9891    0.9329    1.4261 H   0  0  0  0  0  0  0  0  0  0  0  0
    0.0437    0.4060    2.7808 H   0  0  0  0  0  0  0  0  0  0  0  0
    2.8887   -0.1550    1.8048 H   0  0  0  0  0  0  0  0  0  0  0  0
    4.9881    0.3438    1.6584 S   0  0  0  0  0  0  0  0  0  0  0  0
    6.1554   -0.2451    2.2844 O   0  0  0  0  0  0  0  0  0  0  0  0
    4.7954    0.3983    0.2230 O   0  0  0  0  0  0  0  0  0  0  0  0
    3.7133   -0.3335    2.3514 O   0  0  0  0  0  0  0  0  0  0  0  0
    4.8741    1.8919    2.1656 O   0  0  0  0  0  0  0  0  0  0  0  0
    5.3022    1.9412    3.0366 H   0  0  0  0  0  0  0  0  0  0  0  0
  1  6  1  0  0  0  0
  2  1  2  0  0  0  0
  2  3  1  0  0  0  0
  3  4  2  0  0  0  0
  4  5  1  0  0  0  0
  5 12  1  0  0  0  0
  6 11  1  0  0  0  0
  6  5  2  0  0  0  0
  7  1  1  0  0  0  0
  8  2  1  0  0  0  0
 10  9  3  0  0  0  0
 13 17  1  0  0  0  0
 14 18  1  0  0  0  0
 14 15  2  0  0  0  0
 14 17  1  0  0  0  0
 16 14  2  0  0  0  0
 18 19  1  0  0  0  0
M  RAD  2   3   2   4   2
M  END
