Coordinates from ORCA-job Ph-N2-HSO4-B3LYPG-6-31G_dp-MTMO-d009-169-n800
 OpenBabel09051908053D

 19 18  0  0  0  0  0  0  0  0999 V2000
   -0.9700    1.0017    0.3217 C   0  0  0  0  0  0  0  0  0  0  0  0
    0.3012    0.4514    0.1520 C   0  0  0  0  0  0  0  0  0  0  0  0
    0.8939   -0.2050    1.2264 C   0  0  0  0  0  0  0  0  0  0  0  0
    0.2615   -0.3252    2.4605 C   0  0  0  0  0  0  0  0  0  0  0  0
   -1.0076    0.2324    2.6165 C   0  0  0  0  0  0  0  0  0  0  0  0
   -1.6238    0.8932    1.5510 C   0  0  0  0  0  0  0  0  0  0  0  0
   -1.4476    1.5132   -0.5083 H   0  0  0  0  0  0  0  0  0  0  0  0
    0.8288    0.5204   -0.7928 H   0  0  0  0  0  0  0  0  0  0  0  0
   10.3990    1.3935   -5.2877 N   0  0  0  0  0  0  0  0  0  0  0  0
   11.4428    1.4307   -5.6493 N   0  0  0  0  0  0  0  0  0  0  0  0
   -2.6129    1.3215    1.6781 H   0  0  0  0  0  0  0  0  0  0  0  0
   -1.5153    0.1473    3.5725 H   0  0  0  0  0  0  0  0  0  0  0  0
    0.7603   -0.8407    3.2729 H   0  0  0  0  0  0  0  0  0  0  0  0
    3.5040   -0.0691    1.5072 S   0  0  0  0  0  0  0  0  0  0  0  0
    4.5552   -1.0453    1.3068 O   0  0  0  0  0  0  0  0  0  0  0  0
    2.1391   -0.8373    1.0235 O   0  0  0  0  0  0  0  0  0  0  0  0
    3.2715    0.6251    2.7527 O   0  0  0  0  0  0  0  0  0  0  0  0
    3.6486    1.0868    0.3678 O   0  0  0  0  0  0  0  0  0  0  0  0
    4.1328    0.6966   -0.3798 H   0  0  0  0  0  0  0  0  0  0  0  0
  1  6  1  0  0  0  0
  2  1  2  0  0  0  0
  2  3  1  0  0  0  0
  3  4  2  0  0  0  0
  4  5  1  0  0  0  0
  4 13  1  0  0  0  0
  5 12  1  0  0  0  0
  6 11  1  0  0  0  0
  6  5  2  0  0  0  0
  7  1  1  0  0  0  0
  8  2  1  0  0  0  0
 10  9  3  0  0  0  0
 14 17  2  0  0  0  0
 15 14  2  0  0  0  0
 16  3  1  0  0  0  0
 16 14  1  0  0  0  0
 18 14  1  0  0  0  0
 19 18  1  0  0  0  0
M  END
