Coordinates from ORCA-job Ph-N2-HSO4-B3LYPG-6-31G_dp-MTMO-d009-169-n800
 OpenBabel09051908053D

 19 18  0  0  0  0  0  0  0  0999 V2000
   -0.8706    0.5539   -0.7265 C   0  0  0  0  0  0  0  0  0  0  0  0
    0.4368    0.3920   -1.2131 C   0  0  0  0  0  0  0  0  0  0  0  0
    1.3527    0.2662   -0.2045 C   0  0  0  0  0  0  0  0  0  0  0  0
    1.2594    0.2673    1.1504 C   0  0  0  0  0  0  0  0  0  0  0  0
   -0.0757    0.4231    1.5713 C   0  0  0  0  0  0  0  0  0  0  0  0
   -1.1159    0.5681    0.6499 C   0  0  0  0  0  0  0  0  0  0  0  0
   -1.6815    0.6677   -1.4386 H   0  0  0  0  0  0  0  0  0  0  0  0
    0.6802    0.3732   -2.2671 H   0  0  0  0  0  0  0  0  0  0  0  0
    3.0716   -0.0008   -0.8663 N   0  0  0  0  0  0  0  0  0  0  0  0
    3.7634   -0.4411   -1.6158 N   0  0  0  0  0  0  0  0  0  0  0  0
   -2.1323    0.6958    1.0078 H   0  0  0  0  0  0  0  0  0  0  0  0
   -0.2754    0.4333    2.6382 H   0  0  0  0  0  0  0  0  0  0  0  0
    2.1101    0.1522    1.8330 H   0  0  0  0  0  0  0  0  0  0  0  0
    4.7373    0.3553    1.6790 S   0  0  0  0  0  0  0  0  0  0  0  0
    5.6145   -0.5901    0.9713 O   0  0  0  0  0  0  0  0  0  0  0  0
    4.0223    1.2942    0.7336 O   0  0  0  0  0  0  0  0  0  0  0  0
    3.8130   -0.2067    2.6855 O   0  0  0  0  0  0  0  0  0  0  0  0
    5.7221    1.3383    2.5649 O   0  0  0  0  0  0  0  0  0  0  0  0
    6.5296    1.4493    2.0385 H   0  0  0  0  0  0  0  0  0  0  0  0
  1  6  1  0  0  0  0
  2  1  2  0  0  0  0
  2  3  1  0  0  0  0
  3  4  2  0  0  0  0
  4  5  1  0  0  0  0
  4 13  1  0  0  0  0
  5 12  1  0  0  0  0
  6 11  1  0  0  0  0
  6  5  2  0  0  0  0
  7  1  1  0  0  0  0
  8  2  1  0  0  0  0
  9  3  1  0  0  0  0
 10  9  2  0  0  0  0
 14 18  1  0  0  0  0
 14 17  1  0  0  0  0
 15 14  2  0  0  0  0
 16 14  2  0  0  0  0
 19 18  1  0  0  0  0
M  RAD  2  10   2  17   2
M  END
