Coordinates from ORCA-job Ph-N2-HSO4-B3LYPG-6-31G_dp-MTMO-d009-169-n800
 OpenBabel09051908053D

 19 17  0  0  0  0  0  0  0  0999 V2000
   -0.9336    0.7136   -0.4775 C   0  0  0  0  0  0  0  0  0  0  0  0
    0.3452    0.5271   -1.0599 C   0  0  0  0  0  0  0  0  0  0  0  0
    1.2098    0.3324   -0.0244 C   0  0  0  0  0  0  0  0  0  0  0  0
    1.1855    0.2765    1.2362 C   0  0  0  0  0  0  0  0  0  0  0  0
   -0.0867    0.4603    1.8223 C   0  0  0  0  0  0  0  0  0  0  0  0
   -1.1369    0.6803    0.9136 C   0  0  0  0  0  0  0  0  0  0  0  0
   -1.7756    0.8859   -1.1428 H   0  0  0  0  0  0  0  0  0  0  0  0
    0.5470    0.5423   -2.1220 H   0  0  0  0  0  0  0  0  0  0  0  0
    3.2824   -0.3977   -2.5966 N   0  0  0  0  0  0  0  0  0  0  0  0
    4.2457   -0.8688   -2.8626 N   0  0  0  0  0  0  0  0  0  0  0  0
   -2.1422    0.8313    1.2976 H   0  0  0  0  0  0  0  0  0  0  0  0
   -0.2603    0.4359    2.8939 H   0  0  0  0  0  0  0  0  0  0  0  0
    2.8162   -0.0427    2.0857 H   0  0  0  0  0  0  0  0  0  0  0  0
    4.9093    0.2367    1.6332 S   0  0  0  0  0  0  0  0  0  0  0  0
    6.1002   -0.3437    2.2203 O   0  0  0  0  0  0  0  0  0  0  0  0
    4.5521    0.0782    0.2368 O   0  0  0  0  0  0  0  0  0  0  0  0
    3.6843   -0.2089    2.5628 O   0  0  0  0  0  0  0  0  0  0  0  0
    4.9589    1.8498    1.8782 O   0  0  0  0  0  0  0  0  0  0  0  0
    5.4602    2.0031    2.6967 H   0  0  0  0  0  0  0  0  0  0  0  0
  1  6  1  0  0  0  0
  2  1  2  0  0  0  0
  2  3  1  0  0  0  0
  3  4  2  0  0  0  0
  4  5  1  0  0  0  0
  5 12  1  0  0  0  0
  6 11  1  0  0  0  0
  6  5  2  0  0  0  0
  7  1  1  0  0  0  0
  8  2  1  0  0  0  0
 10  9  3  0  0  0  0
 13 17  1  0  0  0  0
 14 18  1  0  0  0  0
 14 15  2  0  0  0  0
 14 17  1  0  0  0  0
 16 14  2  0  0  0  0
 18 19  1  0  0  0  0
M  RAD  2   3   2   4   2
M  END
