Coordinates from ORCA-job Ph-N2-HSO4-B3LYPG-6-31G_dp-MTMO-d009-169-n800
 OpenBabel09051908053D

 19 18  0  0  0  0  0  0  0  0999 V2000
   -1.1541    0.9823    0.4402 C   0  0  0  0  0  0  0  0  0  0  0  0
    0.1138    0.4205    0.2840 C   0  0  0  0  0  0  0  0  0  0  0  0
    0.6936   -0.2320    1.3678 C   0  0  0  0  0  0  0  0  0  0  0  0
    0.0516   -0.3372    2.5982 C   0  0  0  0  0  0  0  0  0  0  0  0
   -1.2141    0.2319    2.7409 C   0  0  0  0  0  0  0  0  0  0  0  0
   -1.8174    0.8891    1.6657 C   0  0  0  0  0  0  0  0  0  0  0  0
   -1.6217    1.4909   -0.3972 H   0  0  0  0  0  0  0  0  0  0  0  0
    0.6485    0.4775   -0.6577 H   0  0  0  0  0  0  0  0  0  0  0  0
   12.0696    1.6021   -6.4708 N   0  0  0  0  0  0  0  0  0  0  0  0
   13.1166    1.6735   -6.8177 N   0  0  0  0  0  0  0  0  0  0  0  0
   -2.8039    1.3263    1.7823 H   0  0  0  0  0  0  0  0  0  0  0  0
   -1.7291    0.1587    3.6939 H   0  0  0  0  0  0  0  0  0  0  0  0
    0.5404   -0.8500    3.4183 H   0  0  0  0  0  0  0  0  0  0  0  0
    3.3025   -0.1166    1.6684 S   0  0  0  0  0  0  0  0  0  0  0  0
    4.3472   -1.1022    1.4804 O   0  0  0  0  0  0  0  0  0  0  0  0
    1.9350   -0.8760    1.1785 O   0  0  0  0  0  0  0  0  0  0  0  0
    3.0667    0.5856    2.9089 O   0  0  0  0  0  0  0  0  0  0  0  0
    3.4646    1.0325    0.5245 O   0  0  0  0  0  0  0  0  0  0  0  0
    3.9520    0.6346   -0.2171 H   0  0  0  0  0  0  0  0  0  0  0  0
  1  6  1  0  0  0  0
  2  1  2  0  0  0  0
  2  3  1  0  0  0  0
  3  4  2  0  0  0  0
  4  5  1  0  0  0  0
  4 13  1  0  0  0  0
  5 12  1  0  0  0  0
  6 11  1  0  0  0  0
  6  5  2  0  0  0  0
  7  1  1  0  0  0  0
  8  2  1  0  0  0  0
 10  9  3  0  0  0  0
 14 17  2  0  0  0  0
 15 14  2  0  0  0  0
 16  3  1  0  0  0  0
 16 14  1  0  0  0  0
 18 14  1  0  0  0  0
 19 18  1  0  0  0  0
M  END
