Coordinates from ORCA-job Ph-N2-HSO4-B3LYPG-6-31G_dp-MTMO-d009-169-n800
 OpenBabel09051908053D

 19 17  0  0  0  0  0  0  0  0999 V2000
   -0.9807    0.7222   -0.4821 C   0  0  0  0  0  0  0  0  0  0  0  0
    0.2632    0.5303   -1.1332 C   0  0  0  0  0  0  0  0  0  0  0  0
    1.1832    0.3230   -0.1487 C   0  0  0  0  0  0  0  0  0  0  0  0
    1.2258    0.2600    1.1110 C   0  0  0  0  0  0  0  0  0  0  0  0
   -0.0121    0.4493    1.7660 C   0  0  0  0  0  0  0  0  0  0  0  0
   -1.1087    0.6820    0.9175 C   0  0  0  0  0  0  0  0  0  0  0  0
   -1.8562    0.9043   -1.0998 H   0  0  0  0  0  0  0  0  0  0  0  0
    0.4062    0.5509   -2.2048 H   0  0  0  0  0  0  0  0  0  0  0  0
    3.2237   -0.3956   -2.4560 N   0  0  0  0  0  0  0  0  0  0  0  0
    4.1737   -0.8670   -2.7657 N   0  0  0  0  0  0  0  0  0  0  0  0
   -2.0906    0.8370    1.3566 H   0  0  0  0  0  0  0  0  0  0  0  0
   -0.1269    0.4198    2.8453 H   0  0  0  0  0  0  0  0  0  0  0  0
    2.8337   -0.0519    1.9889 H   0  0  0  0  0  0  0  0  0  0  0  0
    4.9527    0.2366    1.6795 S   0  0  0  0  0  0  0  0  0  0  0  0
    6.1025   -0.3326    2.3535 O   0  0  0  0  0  0  0  0  0  0  0  0
    4.6919    0.0633    0.2642 O   0  0  0  0  0  0  0  0  0  0  0  0
    3.6679   -0.2059    2.5270 O   0  0  0  0  0  0  0  0  0  0  0  0
    4.9795    1.8522    1.9139 O   0  0  0  0  0  0  0  0  0  0  0  0
    5.4327    2.0134    2.7584 H   0  0  0  0  0  0  0  0  0  0  0  0
  1  6  1  0  0  0  0
  2  1  2  0  0  0  0
  2  3  1  0  0  0  0
  3  4  2  0  0  0  0
  4  5  1  0  0  0  0
  5 12  1  0  0  0  0
  6 11  1  0  0  0  0
  6  5  2  0  0  0  0
  7  1  1  0  0  0  0
  8  2  1  0  0  0  0
 10  9  3  0  0  0  0
 13 17  1  0  0  0  0
 14 18  1  0  0  0  0
 14 15  2  0  0  0  0
 14 17  1  0  0  0  0
 16 14  2  0  0  0  0
 18 19  1  0  0  0  0
M  RAD  2   3   2   4   2
M  END
