Coordinates from ORCA-job Ph-N2-HSO4-B3LYPG-6-31G_dp-MTMO-d009-169-n800
 OpenBabel09051908053D

 19 18  0  0  0  0  0  0  0  0999 V2000
   -1.3188    0.9642    0.5497 C   0  0  0  0  0  0  0  0  0  0  0  0
   -0.0525    0.3974    0.3980 C   0  0  0  0  0  0  0  0  0  0  0  0
    0.5228   -0.2532    1.4853 C   0  0  0  0  0  0  0  0  0  0  0  0
   -0.1222   -0.3517    2.7148 C   0  0  0  0  0  0  0  0  0  0  0  0
   -1.3861    0.2223    2.8528 C   0  0  0  0  0  0  0  0  0  0  0  0
   -1.9850    0.8777    1.7741 C   0  0  0  0  0  0  0  0  0  0  0  0
   -1.7829    1.4714   -0.2905 H   0  0  0  0  0  0  0  0  0  0  0  0
    0.4843    0.4492   -0.5428 H   0  0  0  0  0  0  0  0  0  0  0  0
   13.5074    1.7777   -7.4615 N   0  0  0  0  0  0  0  0  0  0  0  0
   14.5553    1.8548   -7.8045 N   0  0  0  0  0  0  0  0  0  0  0  0
   -2.9702    1.3187    1.8870 H   0  0  0  0  0  0  0  0  0  0  0  0
   -1.9033    0.1543    3.8050 H   0  0  0  0  0  0  0  0  0  0  0  0
    0.3632   -0.8634    3.5377 H   0  0  0  0  0  0  0  0  0  0  0  0
    3.1313   -0.1466    1.7923 S   0  0  0  0  0  0  0  0  0  0  0  0
    4.1729   -1.1363    1.6084 O   0  0  0  0  0  0  0  0  0  0  0  0
    1.7623   -0.9021    1.3007 O   0  0  0  0  0  0  0  0  0  0  0  0
    2.8952    0.5586    3.0310 O   0  0  0  0  0  0  0  0  0  0  0  0
    3.3000    0.9997    0.6466 O   0  0  0  0  0  0  0  0  0  0  0  0
    3.7882    0.5988   -0.0928 H   0  0  0  0  0  0  0  0  0  0  0  0
  1  6  1  0  0  0  0
  2  1  2  0  0  0  0
  2  3  1  0  0  0  0
  3  4  2  0  0  0  0
  4  5  1  0  0  0  0
  4 13  1  0  0  0  0
  5 12  1  0  0  0  0
  6 11  1  0  0  0  0
  6  5  2  0  0  0  0
  7  1  1  0  0  0  0
  8  2  1  0  0  0  0
 10  9  3  0  0  0  0
 14 17  2  0  0  0  0
 15 14  2  0  0  0  0
 16  3  1  0  0  0  0
 16 14  1  0  0  0  0
 18 14  1  0  0  0  0
 19 18  1  0  0  0  0
M  END
