Coordinates from ORCA-job Ph-N2-HSO4-B3LYPG-6-31G_dp-MTMO-d009-169-n800
 OpenBabel09051908053D

 19 18  0  0  0  0  0  0  0  0999 V2000
   -0.7351    1.0186    0.1749 C   0  0  0  0  0  0  0  0  0  0  0  0
    0.5351    0.4790   -0.0321 C   0  0  0  0  0  0  0  0  0  0  0  0
    1.1659   -0.1694    1.0253 C   0  0  0  0  0  0  0  0  0  0  0  0
    0.5725   -0.2919    2.2782 C   0  0  0  0  0  0  0  0  0  0  0  0
   -0.6961    0.2549    2.4715 C   0  0  0  0  0  0  0  0  0  0  0  0
   -1.3503    0.9076    1.4237 C   0  0  0  0  0  0  0  0  0  0  0  0
   -1.2423    1.5239   -0.6412 H   0  0  0  0  0  0  0  0  0  0  0  0
    1.0332    0.5504   -0.9926 H   0  0  0  0  0  0  0  0  0  0  0  0
    8.1036    1.0929   -3.5196 N   0  0  0  0  0  0  0  0  0  0  0  0
    9.1277    1.1416   -3.9324 N   0  0  0  0  0  0  0  0  0  0  0  0
   -2.3388    1.3274    1.5801 H   0  0  0  0  0  0  0  0  0  0  0  0
   -1.1737    0.1679    3.4427 H   0  0  0  0  0  0  0  0  0  0  0  0
    1.1004   -0.8011    3.0761 H   0  0  0  0  0  0  0  0  0  0  0  0
    3.7827   -0.0075    1.2195 S   0  0  0  0  0  0  0  0  0  0  0  0
    4.8345   -0.9804    1.0064 O   0  0  0  0  0  0  0  0  0  0  0  0
    2.4099   -0.7917    0.7865 O   0  0  0  0  0  0  0  0  0  0  0  0
    3.5797    0.7055    2.4596 O   0  0  0  0  0  0  0  0  0  0  0  0
    3.8894    1.1302    0.0579 O   0  0  0  0  0  0  0  0  0  0  0  0
    4.3634    0.7335   -0.6930 H   0  0  0  0  0  0  0  0  0  0  0  0
  1  6  1  0  0  0  0
  2  1  2  0  0  0  0
  2  3  1  0  0  0  0
  3  4  2  0  0  0  0
  4  5  1  0  0  0  0
  4 13  1  0  0  0  0
  5 12  1  0  0  0  0
  6 11  1  0  0  0  0
  6  5  2  0  0  0  0
  7  1  1  0  0  0  0
  8  2  1  0  0  0  0
 10  9  3  0  0  0  0
 14 17  2  0  0  0  0
 15 14  2  0  0  0  0
 16  3  1  0  0  0  0
 16 14  1  0  0  0  0
 18 14  1  0  0  0  0
 19 18  1  0  0  0  0
M  END
