Coordinates from ORCA-job Ph-N2-HSO4-B3LYPG-6-31G_dp-MTMO-d009-169-n800
 OpenBabel09051908053D

 19 17  0  0  0  0  0  0  0  0999 V2000
   -1.0015    0.7712   -0.4802 C   0  0  0  0  0  0  0  0  0  0  0  0
    0.1980    0.5268   -1.1935 C   0  0  0  0  0  0  0  0  0  0  0  0
    1.1547    0.2654   -0.2587 C   0  0  0  0  0  0  0  0  0  0  0  0
    1.2607    0.1883    0.9969 C   0  0  0  0  0  0  0  0  0  0  0  0
    0.0655    0.4296    1.7128 C   0  0  0  0  0  0  0  0  0  0  0  0
   -1.0604    0.7229    0.9238 C   0  0  0  0  0  0  0  0  0  0  0  0
   -1.8970    1.0004   -1.0518 H   0  0  0  0  0  0  0  0  0  0  0  0
    0.2876    0.5519   -2.2710 H   0  0  0  0  0  0  0  0  0  0  0  0
    3.1737   -0.5370   -2.3021 N   0  0  0  0  0  0  0  0  0  0  0  0
    4.0930   -1.0742   -2.5968 N   0  0  0  0  0  0  0  0  0  0  0  0
   -2.0100    0.9204    1.4138 H   0  0  0  0  0  0  0  0  0  0  0  0
    0.0048    0.3964    2.7966 H   0  0  0  0  0  0  0  0  0  0  0  0
    2.8810   -0.1473    1.8367 H   0  0  0  0  0  0  0  0  0  0  0  0
    4.9809    0.3346    1.6556 S   0  0  0  0  0  0  0  0  0  0  0  0
    6.1519   -0.2481    2.2805 O   0  0  0  0  0  0  0  0  0  0  0  0
    4.7722    0.3607    0.2217 O   0  0  0  0  0  0  0  0  0  0  0  0
    3.7105   -0.3215    2.3767 O   0  0  0  0  0  0  0  0  0  0  0  0
    4.8806    1.8933    2.1319 O   0  0  0  0  0  0  0  0  0  0  0  0
    5.3154    1.9578    2.9986 H   0  0  0  0  0  0  0  0  0  0  0  0
  1  6  1  0  0  0  0
  2  1  2  0  0  0  0
  2  3  1  0  0  0  0
  3  4  2  0  0  0  0
  4  5  1  0  0  0  0
  5 12  1  0  0  0  0
  6 11  1  0  0  0  0
  6  5  2  0  0  0  0
  7  1  1  0  0  0  0
  8  2  1  0  0  0  0
 10  9  3  0  0  0  0
 13 17  1  0  0  0  0
 14 18  1  0  0  0  0
 14 15  2  0  0  0  0
 14 17  1  0  0  0  0
 16 14  2  0  0  0  0
 18 19  1  0  0  0  0
M  RAD  2   3   2   4   2
M  END
