Coordinates from ORCA-job Ph-N2-HSO4-B3LYPG-6-31G_dp-MTMO-d009-169-n800
 OpenBabel09051908053D

 19 17  0  0  0  0  0  0  0  0999 V2000
   -0.8738    0.6611   -0.6775 C   0  0  0  0  0  0  0  0  0  0  0  0
    0.4003    0.4093   -1.2240 C   0  0  0  0  0  0  0  0  0  0  0  0
    1.2983    0.1785   -0.2296 C   0  0  0  0  0  0  0  0  0  0  0  0
    1.2997    0.1344    1.1106 C   0  0  0  0  0  0  0  0  0  0  0  0
   -0.0101    0.3893    1.5836 C   0  0  0  0  0  0  0  0  0  0  0  0
   -1.0671    0.6482    0.7074 C   0  0  0  0  0  0  0  0  0  0  0  0
   -1.6948    0.8640   -1.3577 H   0  0  0  0  0  0  0  0  0  0  0  0
    0.6121    0.4080   -2.2842 H   0  0  0  0  0  0  0  0  0  0  0  0
    3.0760   -0.2763   -1.0285 N   0  0  0  0  0  0  0  0  0  0  0  0
    3.8888   -0.7561   -1.6045 N   0  0  0  0  0  0  0  0  0  0  0  0
   -2.0554    0.8478    1.1080 H   0  0  0  0  0  0  0  0  0  0  0  0
   -0.1632    0.3887    2.6587 H   0  0  0  0  0  0  0  0  0  0  0  0
    2.1890   -0.0510    1.7612 H   0  0  0  0  0  0  0  0  0  0  0  0
    4.7061    0.4522    1.5979 S   0  0  0  0  0  0  0  0  0  0  0  0
    5.7605   -0.3638    0.9730 O   0  0  0  0  0  0  0  0  0  0  0  0
    3.9899    1.3495    0.6467 O   0  0  0  0  0  0  0  0  0  0  0  0
    3.7485   -0.2931    2.4691 O   0  0  0  0  0  0  0  0  0  0  0  0
    5.4810    1.4451    2.6692 O   0  0  0  0  0  0  0  0  0  0  0  0
    6.3760    1.5556    2.3120 H   0  0  0  0  0  0  0  0  0  0  0  0
  1  6  1  0  0  0  0
  2  1  2  0  0  0  0
  2  3  1  0  0  0  0
  3  4  2  0  0  0  0
  4  5  1  0  0  0  0
  4 13  1  0  0  0  0
  5 12  1  0  0  0  0
  6 11  1  0  0  0  0
  6  5  2  0  0  0  0
  7  1  1  0  0  0  0
  8  2  1  0  0  0  0
 10  9  3  0  0  0  0
 14 17  1  0  0  0  0
 14 18  1  0  0  0  0
 15 14  2  0  0  0  0
 16 14  2  0  0  0  0
 19 18  1  0  0  0  0
M  RAD  2   3   2  17   2
M  END
