Coordinates from ORCA-job Ph-N2-HSO4-B3LYPG-6-31G_dp-MTMO-d009-169-n800
 OpenBabel09051908053D

 19 18  0  0  0  0  0  0  0  0999 V2000
   -1.3051    0.9657    0.5405 C   0  0  0  0  0  0  0  0  0  0  0  0
   -0.0388    0.3992    0.3886 C   0  0  0  0  0  0  0  0  0  0  0  0
    0.5367   -0.2515    1.4758 C   0  0  0  0  0  0  0  0  0  0  0  0
   -0.1081   -0.3504    2.7053 C   0  0  0  0  0  0  0  0  0  0  0  0
   -1.3721    0.2234    2.8435 C   0  0  0  0  0  0  0  0  0  0  0  0
   -1.9712    0.8789    1.7650 C   0  0  0  0  0  0  0  0  0  0  0  0
   -1.7694    1.4729   -0.2996 H   0  0  0  0  0  0  0  0  0  0  0  0
    0.4979    0.4512   -0.5522 H   0  0  0  0  0  0  0  0  0  0  0  0
   13.3896    1.7637   -7.3810 N   0  0  0  0  0  0  0  0  0  0  0  0
   14.4375    1.8405   -7.7241 N   0  0  0  0  0  0  0  0  0  0  0  0
   -2.9565    1.3197    1.8780 H   0  0  0  0  0  0  0  0  0  0  0  0
   -1.8893    0.1552    3.7958 H   0  0  0  0  0  0  0  0  0  0  0  0
    0.3774   -0.8620    3.5281 H   0  0  0  0  0  0  0  0  0  0  0  0
    3.1452   -0.1445    1.7826 S   0  0  0  0  0  0  0  0  0  0  0  0
    4.1871   -1.1340    1.5985 O   0  0  0  0  0  0  0  0  0  0  0  0
    1.7763   -0.9002    1.2910 O   0  0  0  0  0  0  0  0  0  0  0  0
    2.9091    0.5605    3.0213 O   0  0  0  0  0  0  0  0  0  0  0  0
    3.3137    1.0020    0.6369 O   0  0  0  0  0  0  0  0  0  0  0  0
    3.8018    0.6012   -0.1026 H   0  0  0  0  0  0  0  0  0  0  0  0
  1  6  1  0  0  0  0
  2  1  2  0  0  0  0
  2  3  1  0  0  0  0
  3  4  2  0  0  0  0
  4  5  1  0  0  0  0
  4 13  1  0  0  0  0
  5 12  1  0  0  0  0
  6 11  1  0  0  0  0
  6  5  2  0  0  0  0
  7  1  1  0  0  0  0
  8  2  1  0  0  0  0
 10  9  3  0  0  0  0
 14 17  2  0  0  0  0
 15 14  2  0  0  0  0
 16  3  1  0  0  0  0
 16 14  1  0  0  0  0
 18 14  1  0  0  0  0
 19 18  1  0  0  0  0
M  END
