Coordinates from ORCA-job Ph-N2-HSO4-B3LYPG-6-31G_dp-MTMO-d009-169-n800
 OpenBabel09051908053D

 19 18  0  0  0  0  0  0  0  0999 V2000
   -0.6812    1.0263    0.1623 C   0  0  0  0  0  0  0  0  0  0  0  0
    0.5853    0.4989   -0.0933 C   0  0  0  0  0  0  0  0  0  0  0  0
    1.2596   -0.1475    0.9383 C   0  0  0  0  0  0  0  0  0  0  0  0
    0.7140   -0.2796    2.2115 C   0  0  0  0  0  0  0  0  0  0  0  0
   -0.5521    0.2540    2.4529 C   0  0  0  0  0  0  0  0  0  0  0  0
   -1.2497    0.9045    1.4321 C   0  0  0  0  0  0  0  0  0  0  0  0
   -1.2223    1.5303   -0.6325 H   0  0  0  0  0  0  0  0  0  0  0  0
    1.0487    0.5793   -1.0703 H   0  0  0  0  0  0  0  0  0  0  0  0
    7.2364    0.9297   -2.6376 N   0  0  0  0  0  0  0  0  0  0  0  0
    8.2545    1.0162   -3.0583 N   0  0  0  0  0  0  0  0  0  0  0  0
   -2.2358    1.3145    1.6262 H   0  0  0  0  0  0  0  0  0  0  0  0
   -0.9932    0.1588    3.4404 H   0  0  0  0  0  0  0  0  0  0  0  0
    1.2756   -0.7870    2.9872 H   0  0  0  0  0  0  0  0  0  0  0  0
    3.8831    0.0553    0.9885 S   0  0  0  0  0  0  0  0  0  0  0  0
    4.9339   -0.9307    0.8342 O   0  0  0  0  0  0  0  0  0  0  0  0
    2.5004   -0.7588    0.6548 O   0  0  0  0  0  0  0  0  0  0  0  0
    3.7040    0.8660    2.1715 O   0  0  0  0  0  0  0  0  0  0  0  0
    3.9681    1.0873   -0.2699 O   0  0  0  0  0  0  0  0  0  0  0  0
    4.5325    0.6738   -0.9464 H   0  0  0  0  0  0  0  0  0  0  0  0
  1  6  1  0  0  0  0
  2  1  2  0  0  0  0
  2  3  1  0  0  0  0
  3  4  2  0  0  0  0
  4  5  1  0  0  0  0
  4 13  1  0  0  0  0
  5 12  1  0  0  0  0
  6 11  1  0  0  0  0
  6  5  2  0  0  0  0
  7  1  1  0  0  0  0
  8  2  1  0  0  0  0
 10  9  3  0  0  0  0
 14 17  2  0  0  0  0
 15 14  2  0  0  0  0
 16  3  1  0  0  0  0
 16 14  1  0  0  0  0
 18 14  1  0  0  0  0
 19 18  1  0  0  0  0
M  END
