Coordinates from ORCA-job Ph-N2-HSO4-B3LYPG-6-31G_dp-MTMO-d009-169-n800
 OpenBabel09051908053D

 19 18  0  0  0  0  0  0  0  0999 V2000
   -0.8987    1.0085    0.2763 C   0  0  0  0  0  0  0  0  0  0  0  0
    0.3736    0.4632    0.0994 C   0  0  0  0  0  0  0  0  0  0  0  0
    0.9735   -0.1940    1.1693 C   0  0  0  0  0  0  0  0  0  0  0  0
    0.3472   -0.3198    2.4059 C   0  0  0  0  0  0  0  0  0  0  0  0
   -0.9232    0.2329    2.5692 C   0  0  0  0  0  0  0  0  0  0  0  0
   -1.5466    0.8944    1.5082 C   0  0  0  0  0  0  0  0  0  0  0  0
   -1.3819    1.5206   -0.5501 H   0  0  0  0  0  0  0  0  0  0  0  0
    0.8967    0.5366   -0.8476 H   0  0  0  0  0  0  0  0  0  0  0  0
    9.7359    1.3059   -4.8075 N   0  0  0  0  0  0  0  0  0  0  0  0
   10.7770    1.3356   -5.1776 N   0  0  0  0  0  0  0  0  0  0  0  0
   -2.5366    1.3189    1.6410 H   0  0  0  0  0  0  0  0  0  0  0  0
   -1.4263    0.1434    3.5272 H   0  0  0  0  0  0  0  0  0  0  0  0
    0.8515   -0.8357    3.2146 H   0  0  0  0  0  0  0  0  0  0  0  0
    3.5844   -0.0493    1.4379 S   0  0  0  0  0  0  0  0  0  0  0  0
    4.6380   -1.0216    1.2313 O   0  0  0  0  0  0  0  0  0  0  0  0
    2.2200   -0.8214    0.9591 O   0  0  0  0  0  0  0  0  0  0  0  0
    3.3551    0.6421    2.6856 O   0  0  0  0  0  0  0  0  0  0  0  0
    3.7200    1.1091    0.2999 O   0  0  0  0  0  0  0  0  0  0  0  0
    4.2022    0.7218   -0.4506 H   0  0  0  0  0  0  0  0  0  0  0  0
  1  6  1  0  0  0  0
  2  1  2  0  0  0  0
  2  3  1  0  0  0  0
  3  4  2  0  0  0  0
  4  5  1  0  0  0  0
  4 13  1  0  0  0  0
  5 12  1  0  0  0  0
  6 11  1  0  0  0  0
  6  5  2  0  0  0  0
  7  1  1  0  0  0  0
  8  2  1  0  0  0  0
 10  9  3  0  0  0  0
 14 17  2  0  0  0  0
 15 14  2  0  0  0  0
 16  3  1  0  0  0  0
 16 14  1  0  0  0  0
 18 14  1  0  0  0  0
 19 18  1  0  0  0  0
M  END
