Coordinates from ORCA-job Ph-N2-HSO4-B3LYPG-6-31G_dp-MTMO-d009-169-n800
 OpenBabel09051908053D

 19 18  0  0  0  0  0  0  0  0999 V2000
   -0.7399    1.0186    0.1776 C   0  0  0  0  0  0  0  0  0  0  0  0
    0.5308    0.4793   -0.0277 C   0  0  0  0  0  0  0  0  0  0  0  0
    1.1598   -0.1700    1.0302 C   0  0  0  0  0  0  0  0  0  0  0  0
    0.5643   -0.2937    2.2820 C   0  0  0  0  0  0  0  0  0  0  0  0
   -0.7047    0.2529    2.4736 C   0  0  0  0  0  0  0  0  0  0  0  0
   -1.3571    0.9064    1.4253 C   0  0  0  0  0  0  0  0  0  0  0  0
   -1.2457    1.5246   -0.6389 H   0  0  0  0  0  0  0  0  0  0  0  0
    1.0305    0.5516   -0.9873 H   0  0  0  0  0  0  0  0  0  0  0  0
    8.1578    1.0988   -3.5687 N   0  0  0  0  0  0  0  0  0  0  0  0
    9.1828    1.1452   -3.9794 N   0  0  0  0  0  0  0  0  0  0  0  0
   -2.3460    1.3260    1.5803 H   0  0  0  0  0  0  0  0  0  0  0  0
   -1.1840    0.1649    3.4439 H   0  0  0  0  0  0  0  0  0  0  0  0
    1.0908   -0.8035    3.0803 H   0  0  0  0  0  0  0  0  0  0  0  0
    3.7762   -0.0083    1.2298 S   0  0  0  0  0  0  0  0  0  0  0  0
    4.8286   -0.9804    1.0159 O   0  0  0  0  0  0  0  0  0  0  0  0
    2.4042   -0.7920    0.7929 O   0  0  0  0  0  0  0  0  0  0  0  0
    3.5712    0.7017    2.4713 O   0  0  0  0  0  0  0  0  0  0  0  0
    3.8841    1.1323    0.0711 O   0  0  0  0  0  0  0  0  0  0  0  0
    4.3582    0.7371   -0.6806 H   0  0  0  0  0  0  0  0  0  0  0  0
  1  6  1  0  0  0  0
  2  1  2  0  0  0  0
  2  3  1  0  0  0  0
  3  4  2  0  0  0  0
  4  5  1  0  0  0  0
  4 13  1  0  0  0  0
  5 12  1  0  0  0  0
  6 11  1  0  0  0  0
  6  5  2  0  0  0  0
  7  1  1  0  0  0  0
  8  2  1  0  0  0  0
 10  9  3  0  0  0  0
 14 17  2  0  0  0  0
 15 14  2  0  0  0  0
 16  3  1  0  0  0  0
 16 14  1  0  0  0  0
 18 14  1  0  0  0  0
 19 18  1  0  0  0  0
M  END
