Coordinates from ORCA-job Ph-N2-HSO4-B3LYPG-6-31G_dp-MTMO-d009-169-n800
 OpenBabel09051908053D

 19 18  0  0  0  0  0  0  0  0999 V2000
   -0.3874    1.0166   -0.0487 C   0  0  0  0  0  0  0  0  0  0  0  0
    0.9369    0.6091   -0.2132 C   0  0  0  0  0  0  0  0  0  0  0  0
    1.5685   -0.0562    0.8337 C   0  0  0  0  0  0  0  0  0  0  0  0
    0.9204   -0.3233    2.0365 C   0  0  0  0  0  0  0  0  0  0  0  0
   -0.4020    0.0942    2.1888 C   0  0  0  0  0  0  0  0  0  0  0  0
   -1.0564    0.7613    1.1503 C   0  0  0  0  0  0  0  0  0  0  0  0
   -0.8942    1.5329   -0.8584 H   0  0  0  0  0  0  0  0  0  0  0  0
    1.4780    0.7942   -1.1345 H   0  0  0  0  0  0  0  0  0  0  0  0
    5.4742    0.5056   -2.2128 N   0  0  0  0  0  0  0  0  0  0  0  0
    5.9615   -0.0800   -3.0118 N   0  0  0  0  0  0  0  0  0  0  0  0
   -2.0861    1.0813    1.2754 H   0  0  0  0  0  0  0  0  0  0  0  0
   -0.9213   -0.1056    3.1212 H   0  0  0  0  0  0  0  0  0  0  0  0
    1.4490   -0.8393    2.8292 H   0  0  0  0  0  0  0  0  0  0  0  0
    4.1398    0.2967    1.2573 S   0  0  0  0  0  0  0  0  0  0  0  0
    5.2941   -0.5202    0.9392 O   0  0  0  0  0  0  0  0  0  0  0  0
    2.8758   -0.5396    0.6237 O   0  0  0  0  0  0  0  0  0  0  0  0
    3.8204    0.7488    2.5922 O   0  0  0  0  0  0  0  0  0  0  0  0
    4.1544    1.6193    0.3212 O   0  0  0  0  0  0  0  0  0  0  0  0
    4.6361    1.3956   -0.4978 H   0  0  0  0  0  0  0  0  0  0  0  0
  1  6  1  0  0  0  0
  2  1  2  0  0  0  0
  2  3  1  0  0  0  0
  3  4  2  0  0  0  0
  4  5  1  0  0  0  0
  4 13  1  0  0  0  0
  5 12  1  0  0  0  0
  6 11  1  0  0  0  0
  6  5  2  0  0  0  0
  7  1  1  0  0  0  0
  8  2  1  0  0  0  0
 10  9  3  0  0  0  0
 14 17  2  0  0  0  0
 15 14  2  0  0  0  0
 16  3  1  0  0  0  0
 16 14  1  0  0  0  0
 18 14  1  0  0  0  0
 19 18  1  0  0  0  0
M  END
