Coordinates from ORCA-job Ph-N2-HSO4-B3LYPG-6-31G_dp-MTMO-d009-169-n800
 OpenBabel09051908053D

 19 18  0  0  0  0  0  0  0  0999 V2000
   -0.6227    1.0163    0.1242 C   0  0  0  0  0  0  0  0  0  0  0  0
    0.6626    0.5496   -0.1545 C   0  0  0  0  0  0  0  0  0  0  0  0
    1.3701   -0.1005    0.8523 C   0  0  0  0  0  0  0  0  0  0  0  0
    0.8386   -0.2944    2.1237 C   0  0  0  0  0  0  0  0  0  0  0  0
   -0.4463    0.1798    2.3887 C   0  0  0  0  0  0  0  0  0  0  0  0
   -1.1770    0.8327    1.3928 C   0  0  0  0  0  0  0  0  0  0  0  0
   -1.1893    1.5220   -0.6517 H   0  0  0  0  0  0  0  0  0  0  0  0
    1.1161    0.6793   -1.1308 H   0  0  0  0  0  0  0  0  0  0  0  0
    6.4718    0.6779   -2.1417 N   0  0  0  0  0  0  0  0  0  0  0  0
    7.4522    0.4392   -2.5900 N   0  0  0  0  0  0  0  0  0  0  0  0
   -2.1773    1.1966    1.6055 H   0  0  0  0  0  0  0  0  0  0  0  0
   -0.8761    0.0363    3.3754 H   0  0  0  0  0  0  0  0  0  0  0  0
    1.4255   -0.8018    2.8804 H   0  0  0  0  0  0  0  0  0  0  0  0
    3.9842    0.1980    0.9204 S   0  0  0  0  0  0  0  0  0  0  0  0
    5.0748   -0.7277    0.6843 O   0  0  0  0  0  0  0  0  0  0  0  0
    2.6327   -0.6488    0.5394 O   0  0  0  0  0  0  0  0  0  0  0  0
    3.7852    0.9008    2.1682 O   0  0  0  0  0  0  0  0  0  0  0  0
    4.0078    1.3207   -0.2537 O   0  0  0  0  0  0  0  0  0  0  0  0
    4.6289    1.0155   -0.9413 H   0  0  0  0  0  0  0  0  0  0  0  0
  1  6  1  0  0  0  0
  2  1  2  0  0  0  0
  2  3  1  0  0  0  0
  3  4  2  0  0  0  0
  4  5  1  0  0  0  0
  4 13  1  0  0  0  0
  5 12  1  0  0  0  0
  6 11  1  0  0  0  0
  6  5  2  0  0  0  0
  7  1  1  0  0  0  0
  8  2  1  0  0  0  0
 10  9  3  0  0  0  0
 14 17  2  0  0  0  0
 15 14  2  0  0  0  0
 16  3  1  0  0  0  0
 16 14  1  0  0  0  0
 18 14  1  0  0  0  0
 19 18  1  0  0  0  0
M  END
