Coordinates from ORCA-job Ph-N2-HSO4-B3LYPG-6-31G_dp-MTMO-d009-169-n800
 OpenBabel09051908053D

 19 18  0  0  0  0  0  0  0  0999 V2000
   -0.6831    1.0247    0.1599 C   0  0  0  0  0  0  0  0  0  0  0  0
    0.5833    0.4936   -0.0891 C   0  0  0  0  0  0  0  0  0  0  0  0
    1.2519   -0.1513    0.9471 C   0  0  0  0  0  0  0  0  0  0  0  0
    0.7008   -0.2783    2.2185 C   0  0  0  0  0  0  0  0  0  0  0  0
   -0.5649    0.2591    2.4532 C   0  0  0  0  0  0  0  0  0  0  0  0
   -1.2569    0.9082    1.4278 C   0  0  0  0  0  0  0  0  0  0  0  0
   -1.2198    1.5276   -0.6387 H   0  0  0  0  0  0  0  0  0  0  0  0
    1.0506    0.5699   -1.0645 H   0  0  0  0  0  0  0  0  0  0  0  0
    7.3102    0.9521   -2.7213 N   0  0  0  0  0  0  0  0  0  0  0  0
    8.3266    1.0404   -3.1459 N   0  0  0  0  0  0  0  0  0  0  0  0
   -2.2427    1.3210    1.6166 H   0  0  0  0  0  0  0  0  0  0  0  0
   -1.0102    0.1680    3.4393 H   0  0  0  0  0  0  0  0  0  0  0  0
    1.2581   -0.7847    2.9980 H   0  0  0  0  0  0  0  0  0  0  0  0
    3.8751    0.0432    1.0151 S   0  0  0  0  0  0  0  0  0  0  0  0
    4.9245   -0.9424    0.8507 O   0  0  0  0  0  0  0  0  0  0  0  0
    2.4923   -0.7661    0.6700 O   0  0  0  0  0  0  0  0  0  0  0  0
    3.6956    0.8412    2.2064 O   0  0  0  0  0  0  0  0  0  0  0  0
    3.9621    1.0903   -0.2306 O   0  0  0  0  0  0  0  0  0  0  0  0
    4.5080    0.6749   -0.9209 H   0  0  0  0  0  0  0  0  0  0  0  0
  1  6  1  0  0  0  0
  2  1  2  0  0  0  0
  2  3  1  0  0  0  0
  3  4  2  0  0  0  0
  4  5  1  0  0  0  0
  4 13  1  0  0  0  0
  5 12  1  0  0  0  0
  6 11  1  0  0  0  0
  6  5  2  0  0  0  0
  7  1  1  0  0  0  0
  8  2  1  0  0  0  0
 10  9  3  0  0  0  0
 14 17  2  0  0  0  0
 15 14  2  0  0  0  0
 16  3  1  0  0  0  0
 16 14  1  0  0  0  0
 18 14  1  0  0  0  0
 19 18  1  0  0  0  0
M  END
