Coordinates from ORCA-job Ph-N2-HSO4-B3LYPG-6-31G_dp-MTMO-d009-169-n800
 OpenBabel09051908053D

 19 18  0  0  0  0  0  0  0  0999 V2000
   -1.0696    0.9914    0.3854 C   0  0  0  0  0  0  0  0  0  0  0  0
    0.1997    0.4341    0.2241 C   0  0  0  0  0  0  0  0  0  0  0  0
    0.7843   -0.2201    1.3044 C   0  0  0  0  0  0  0  0  0  0  0  0
    0.1456   -0.3312    2.5361 C   0  0  0  0  0  0  0  0  0  0  0  0
   -1.1214    0.2334    2.6837 C   0  0  0  0  0  0  0  0  0  0  0  0
   -1.7295    0.8921    1.6122 C   0  0  0  0  0  0  0  0  0  0  0  0
   -1.5409    1.5012   -0.4492 H   0  0  0  0  0  0  0  0  0  0  0  0
    0.7318    0.4958   -0.7186 H   0  0  0  0  0  0  0  0  0  0  0  0
   11.3119    1.5071   -5.9389 N   0  0  0  0  0  0  0  0  0  0  0  0
   12.3578    1.5686   -6.2910 N   0  0  0  0  0  0  0  0  0  0  0  0
   -2.7171    1.3258    1.7327 H   0  0  0  0  0  0  0  0  0  0  0  0
   -1.6339    0.1554    3.6377 H   0  0  0  0  0  0  0  0  0  0  0  0
    0.6382   -0.8452    3.3532 H   0  0  0  0  0  0  0  0  0  0  0  0
    3.3935   -0.0966    1.5976 S   0  0  0  0  0  0  0  0  0  0  0  0
    4.4409   -1.0786    1.4052 O   0  0  0  0  0  0  0  0  0  0  0  0
    2.0272   -0.8595    1.1100 O   0  0  0  0  0  0  0  0  0  0  0  0
    3.1588    0.6027    2.8399 O   0  0  0  0  0  0  0  0  0  0  0  0
    3.5491    1.0550    0.4554 O   0  0  0  0  0  0  0  0  0  0  0  0
    4.0353    0.6600   -0.2885 H   0  0  0  0  0  0  0  0  0  0  0  0
  1  6  1  0  0  0  0
  2  1  2  0  0  0  0
  2  3  1  0  0  0  0
  3  4  2  0  0  0  0
  4  5  1  0  0  0  0
  4 13  1  0  0  0  0
  5 12  1  0  0  0  0
  6 11  1  0  0  0  0
  6  5  2  0  0  0  0
  7  1  1  0  0  0  0
  8  2  1  0  0  0  0
 10  9  3  0  0  0  0
 14 17  2  0  0  0  0
 15 14  2  0  0  0  0
 16  3  1  0  0  0  0
 16 14  1  0  0  0  0
 18 14  1  0  0  0  0
 19 18  1  0  0  0  0
M  END
