Coordinates from ORCA-job Ph-N2-HSO4-B3LYPG-6-31G_dp-MTMO-d009-169-n800
 OpenBabel09051908053D

 19 18  0  0  0  0  0  0  0  0999 V2000
   -0.8270    1.0148    0.2307 C   0  0  0  0  0  0  0  0  0  0  0  0
    0.4458    0.4734    0.0456 C   0  0  0  0  0  0  0  0  0  0  0  0
    1.0539   -0.1833    1.1113 C   0  0  0  0  0  0  0  0  0  0  0  0
    0.4353   -0.3123    2.3513 C   0  0  0  0  0  0  0  0  0  0  0  0
   -0.8356    0.2365    2.5227 C   0  0  0  0  0  0  0  0  0  0  0  0
   -1.4672    0.8974    1.4663 C   0  0  0  0  0  0  0  0  0  0  0  0
   -1.3165    1.5264   -0.5923 H   0  0  0  0  0  0  0  0  0  0  0  0
    0.9631    0.5493   -0.9044 H   0  0  0  0  0  0  0  0  0  0  0  0
    9.0613    1.2108   -4.3121 N   0  0  0  0  0  0  0  0  0  0  0  0
   10.0986    1.2515   -4.6915 N   0  0  0  0  0  0  0  0  0  0  0  0
   -2.4576    1.3189    1.6054 H   0  0  0  0  0  0  0  0  0  0  0  0
   -1.3328    0.1445    3.4836 H   0  0  0  0  0  0  0  0  0  0  0  0
    0.9459   -0.8276    3.1565 H   0  0  0  0  0  0  0  0  0  0  0  0
    3.6661   -0.0309    1.3639 S   0  0  0  0  0  0  0  0  0  0  0  0
    4.7211   -1.0005    1.1517 O   0  0  0  0  0  0  0  0  0  0  0  0
    2.3010   -0.8068    0.8930 O   0  0  0  0  0  0  0  0  0  0  0  0
    3.4418    0.6601    2.6127 O   0  0  0  0  0  0  0  0  0  0  0  0
    3.7923    1.1275    0.2249 O   0  0  0  0  0  0  0  0  0  0  0  0
    4.2722    0.7416   -0.5279 H   0  0  0  0  0  0  0  0  0  0  0  0
  1  6  1  0  0  0  0
  2  1  2  0  0  0  0
  2  3  1  0  0  0  0
  3  4  2  0  0  0  0
  4  5  1  0  0  0  0
  4 13  1  0  0  0  0
  5 12  1  0  0  0  0
  6 11  1  0  0  0  0
  6  5  2  0  0  0  0
  7  1  1  0  0  0  0
  8  2  1  0  0  0  0
 10  9  3  0  0  0  0
 14 17  2  0  0  0  0
 15 14  2  0  0  0  0
 16  3  1  0  0  0  0
 16 14  1  0  0  0  0
 18 14  1  0  0  0  0
 19 18  1  0  0  0  0
M  END
