Coordinates from ORCA-job Ph-N2-HSO4-B3LYPG-6-31G_dp-MTMO-d009-169-n800
 OpenBabel09051908053D

 19 19  0  0  1  0  0  0  0  0999 V2000
   -0.5356   -0.0819   -0.2820 C   0  0  0  0  0  0  0  0  0  0  0  0
    0.3611    0.2652   -1.2196 C   0  0  0  0  0  0  0  0  0  0  0  0
    1.6916    0.8877   -0.8804 C   0  0  0  0  0  0  0  0  0  0  0  0
    2.0604    0.8316    0.6578 C   0  0  1  0  0  0  0  0  0  0  0  0
    0.9239    0.5511    1.5758 C   0  0  0  0  0  0  0  0  0  0  0  0
   -0.2661    0.1100    1.1339 C   0  0  0  0  0  0  0  0  0  0  0  0
   -1.4862   -0.5107   -0.5836 H   0  0  0  0  0  0  0  0  0  0  0  0
    0.1841    0.1412   -2.2843 H   0  0  0  0  0  0  0  0  0  0  0  0
    2.2681    1.2412   -1.4744 N   0  0  0  0  0  0  0  0  0  0  0  0
    3.0279    1.7068   -2.2549 N   0  0  0  0  0  0  0  0  0  0  0  0
   -1.0574   -0.1101    1.8446 H   0  0  0  0  0  0  0  0  0  0  0  0
    1.1244    0.6842    2.6344 H   0  0  0  0  0  0  0  0  0  0  0  0
    2.5870    1.7619    0.8908 H   0  0  0  0  0  0  0  0  0  0  0  0
    4.4535    0.0159    1.5114 S   0  0  0  0  0  0  0  0  0  0  0  0
    5.2769   -1.1475    1.2796 O   0  0  0  0  0  0  0  0  0  0  0  0
    4.9304    1.3676    1.2545 O   0  0  0  0  0  0  0  0  0  0  0  0
    3.0580   -0.2667    0.7569 O   0  0  0  0  0  0  0  0  0  0  0  0
    3.8787   -0.0018    3.0492 O   0  0  0  0  0  0  0  0  0  0  0  0
    4.4810    0.5457    3.5817 H   0  0  0  0  0  0  0  0  0  0  0  0
  1  6  2  0  0  0  0
  2  3  2  0  0  0  0
  2  1  1  0  0  0  0
  3  4  1  0  0  0  0
  4 17  1  0  0  0  0
  4 13  1  1  0  0  0
  4  5  1  0  0  0  0
  5 12  1  0  0  0  0
  6  5  1  0  0  0  0
  6 11  1  0  0  0  0
  7  1  1  0  0  0  0
  8  2  1  0  0  0  0
  9  3  1  0  0  0  0
 10  9  1  0  0  0  0
 14 18  1  0  0  0  0
 15 14  2  0  0  0  0
 16 14  2  0  0  0  0
 17 14  1  0  0  0  0
 18 19  1  0  0  0  0
M  RAD  3   5   2   9   2  10   3
M  END
