Coordinates from ORCA-job Ph-N2-HSO4-B3LYPG-6-31G_dp-MTMO-d009-169-n800
 OpenBabel09051908053D

 19 18  0  0  0  0  0  0  0  0999 V2000
   -0.8742    1.0107    0.2607 C   0  0  0  0  0  0  0  0  0  0  0  0
    0.3984    0.4669    0.0811 C   0  0  0  0  0  0  0  0  0  0  0  0
    1.0010   -0.1903    1.1495 C   0  0  0  0  0  0  0  0  0  0  0  0
    0.3771   -0.3175    2.3872 C   0  0  0  0  0  0  0  0  0  0  0  0
   -0.8935    0.2338    2.5532 C   0  0  0  0  0  0  0  0  0  0  0  0
   -1.5196    0.8953    1.4938 C   0  0  0  0  0  0  0  0  0  0  0  0
   -1.3595    1.5228   -0.5645 H   0  0  0  0  0  0  0  0  0  0  0  0
    0.9195    0.5413   -0.8669 H   0  0  0  0  0  0  0  0  0  0  0  0
    9.5060    1.2743   -4.6394 N   0  0  0  0  0  0  0  0  0  0  0  0
   10.5459    1.3054   -5.0124 N   0  0  0  0  0  0  0  0  0  0  0  0
   -2.5098    1.3186    1.6287 H   0  0  0  0  0  0  0  0  0  0  0  0
   -1.3947    0.1433    3.5121 H   0  0  0  0  0  0  0  0  0  0  0  0
    0.8835   -0.8333    3.1946 H   0  0  0  0  0  0  0  0  0  0  0  0
    3.6123   -0.0428    1.4130 S   0  0  0  0  0  0  0  0  0  0  0  0
    4.6665   -1.0140    1.2044 O   0  0  0  0  0  0  0  0  0  0  0  0
    2.2478   -0.8162    0.9366 O   0  0  0  0  0  0  0  0  0  0  0  0
    3.3845    0.6482    2.6612 O   0  0  0  0  0  0  0  0  0  0  0  0
    3.7446    1.1158    0.2750 O   0  0  0  0  0  0  0  0  0  0  0  0
    4.2260    0.7292   -0.4765 H   0  0  0  0  0  0  0  0  0  0  0  0
  1  6  1  0  0  0  0
  2  1  2  0  0  0  0
  2  3  1  0  0  0  0
  3  4  2  0  0  0  0
  4  5  1  0  0  0  0
  4 13  1  0  0  0  0
  5 12  1  0  0  0  0
  6 11  1  0  0  0  0
  6  5  2  0  0  0  0
  7  1  1  0  0  0  0
  8  2  1  0  0  0  0
 10  9  3  0  0  0  0
 14 17  2  0  0  0  0
 15 14  2  0  0  0  0
 16  3  1  0  0  0  0
 16 14  1  0  0  0  0
 18 14  1  0  0  0  0
 19 18  1  0  0  0  0
M  END
