Coordinates from ORCA-job Ph-N2-HSO4-B3LYPG-6-31G_dp-MTMO-d009-169-n800
 OpenBabel09051908053D

 19 18  0  0  0  0  0  0  0  0999 V2000
   -1.2796    0.9685    0.5234 C   0  0  0  0  0  0  0  0  0  0  0  0
   -0.0131    0.4025    0.3711 C   0  0  0  0  0  0  0  0  0  0  0  0
    0.5629   -0.2484    1.4579 C   0  0  0  0  0  0  0  0  0  0  0  0
   -0.0817   -0.3479    2.6875 C   0  0  0  0  0  0  0  0  0  0  0  0
   -1.3459    0.2254    2.8262 C   0  0  0  0  0  0  0  0  0  0  0  0
   -1.9454    0.8810    1.7479 C   0  0  0  0  0  0  0  0  0  0  0  0
   -1.7443    1.4759   -0.3164 H   0  0  0  0  0  0  0  0  0  0  0  0
    0.5234    0.4550   -0.5698 H   0  0  0  0  0  0  0  0  0  0  0  0
   13.1690    1.7373   -7.2299 N   0  0  0  0  0  0  0  0  0  0  0  0
   14.2168    1.8135   -7.5734 N   0  0  0  0  0  0  0  0  0  0  0  0
   -2.9309    1.3214    1.8613 H   0  0  0  0  0  0  0  0  0  0  0  0
   -1.8629    0.1566    3.7785 H   0  0  0  0  0  0  0  0  0  0  0  0
    0.4041   -0.8597    3.5101 H   0  0  0  0  0  0  0  0  0  0  0  0
    3.1714   -0.1404    1.7641 S   0  0  0  0  0  0  0  0  0  0  0  0
    4.2136   -1.1294    1.5797 O   0  0  0  0  0  0  0  0  0  0  0  0
    1.8027   -0.8965    1.2727 O   0  0  0  0  0  0  0  0  0  0  0  0
    2.9353    0.5643    3.0030 O   0  0  0  0  0  0  0  0  0  0  0  0
    3.3392    1.0064    0.6187 O   0  0  0  0  0  0  0  0  0  0  0  0
    3.8272    0.6059   -0.1211 H   0  0  0  0  0  0  0  0  0  0  0  0
  1  6  1  0  0  0  0
  2  1  2  0  0  0  0
  2  3  1  0  0  0  0
  3  4  2  0  0  0  0
  4  5  1  0  0  0  0
  4 13  1  0  0  0  0
  5 12  1  0  0  0  0
  6 11  1  0  0  0  0
  6  5  2  0  0  0  0
  7  1  1  0  0  0  0
  8  2  1  0  0  0  0
 10  9  3  0  0  0  0
 14 17  2  0  0  0  0
 15 14  2  0  0  0  0
 16  3  1  0  0  0  0
 16 14  1  0  0  0  0
 18 14  1  0  0  0  0
 19 18  1  0  0  0  0
M  END
