Coordinates from ORCA-job Ph-N2-HSO4-B3LYPG-6-31G_dp-MTMO-d009-169-n800
 OpenBabel09051908053D

 19 18  0  0  0  0  0  0  0  0999 V2000
   -1.3496    0.9608    0.5704 C   0  0  0  0  0  0  0  0  0  0  0  0
   -0.0835    0.3936    0.4191 C   0  0  0  0  0  0  0  0  0  0  0  0
    0.4914   -0.2569    1.5067 C   0  0  0  0  0  0  0  0  0  0  0  0
   -0.1537   -0.3549    2.7361 C   0  0  0  0  0  0  0  0  0  0  0  0
   -1.4175    0.2196    2.8738 C   0  0  0  0  0  0  0  0  0  0  0  0
   -2.0160    0.8748    1.7948 C   0  0  0  0  0  0  0  0  0  0  0  0
   -1.8135    1.4679   -0.2699 H   0  0  0  0  0  0  0  0  0  0  0  0
    0.4534    0.4449   -0.5216 H   0  0  0  0  0  0  0  0  0  0  0  0
   13.7725    1.8091   -7.6425 N   0  0  0  0  0  0  0  0  0  0  0  0
   14.8204    1.8867   -7.9852 N   0  0  0  0  0  0  0  0  0  0  0  0
   -3.0011    1.3162    1.9075 H   0  0  0  0  0  0  0  0  0  0  0  0
   -1.9349    0.1519    3.8260 H   0  0  0  0  0  0  0  0  0  0  0  0
    0.3313   -0.8665    3.5592 H   0  0  0  0  0  0  0  0  0  0  0  0
    3.0999   -0.1512    1.8141 S   0  0  0  0  0  0  0  0  0  0  0  0
    4.1413   -1.1412    1.6306 O   0  0  0  0  0  0  0  0  0  0  0  0
    1.7307   -0.9063    1.3224 O   0  0  0  0  0  0  0  0  0  0  0  0
    2.8639    0.5542    3.0527 O   0  0  0  0  0  0  0  0  0  0  0  0
    3.2692    0.9949    0.6683 O   0  0  0  0  0  0  0  0  0  0  0  0
    3.7574    0.5938   -0.0710 H   0  0  0  0  0  0  0  0  0  0  0  0
  1  6  1  0  0  0  0
  2  1  2  0  0  0  0
  2  3  1  0  0  0  0
  3  4  2  0  0  0  0
  4  5  1  0  0  0  0
  4 13  1  0  0  0  0
  5 12  1  0  0  0  0
  6 11  1  0  0  0  0
  6  5  2  0  0  0  0
  7  1  1  0  0  0  0
  8  2  1  0  0  0  0
 10  9  3  0  0  0  0
 14 17  2  0  0  0  0
 15 14  2  0  0  0  0
 16  3  1  0  0  0  0
 16 14  1  0  0  0  0
 18 14  1  0  0  0  0
 19 18  1  0  0  0  0
M  END
