Coordinates from ORCA-job Ph-N2-HSO4-B3LYPG-6-31G_dp-MTMO-d009-169-n800
 OpenBabel09051908053D

 19 18  0  0  0  0  0  0  0  0999 V2000
   -1.3205    0.9640    0.5508 C   0  0  0  0  0  0  0  0  0  0  0  0
   -0.0542    0.3972    0.3992 C   0  0  0  0  0  0  0  0  0  0  0  0
    0.5210   -0.2534    1.4865 C   0  0  0  0  0  0  0  0  0  0  0  0
   -0.1239   -0.3519    2.7160 C   0  0  0  0  0  0  0  0  0  0  0  0
   -1.3878    0.2221    2.8540 C   0  0  0  0  0  0  0  0  0  0  0  0
   -1.9867    0.8775    1.7752 C   0  0  0  0  0  0  0  0  0  0  0  0
   -1.7846    1.4712   -0.2894 H   0  0  0  0  0  0  0  0  0  0  0  0
    0.4826    0.4490   -0.5416 H   0  0  0  0  0  0  0  0  0  0  0  0
   13.5221    1.7795   -7.4716 N   0  0  0  0  0  0  0  0  0  0  0  0
   14.5700    1.8566   -7.8145 N   0  0  0  0  0  0  0  0  0  0  0  0
   -2.9719    1.3186    1.8882 H   0  0  0  0  0  0  0  0  0  0  0  0
   -1.9051    0.1541    3.8062 H   0  0  0  0  0  0  0  0  0  0  0  0
    0.3614   -0.8635    3.5389 H   0  0  0  0  0  0  0  0  0  0  0  0
    3.1295   -0.1469    1.7935 S   0  0  0  0  0  0  0  0  0  0  0  0
    4.1712   -1.1366    1.6097 O   0  0  0  0  0  0  0  0  0  0  0  0
    1.7605   -0.9024    1.3019 O   0  0  0  0  0  0  0  0  0  0  0  0
    2.8934    0.5583    3.0322 O   0  0  0  0  0  0  0  0  0  0  0  0
    3.2983    0.9995    0.6478 O   0  0  0  0  0  0  0  0  0  0  0  0
    3.7865    0.5985   -0.0916 H   0  0  0  0  0  0  0  0  0  0  0  0
  1  6  1  0  0  0  0
  2  1  2  0  0  0  0
  2  3  1  0  0  0  0
  3  4  2  0  0  0  0
  4  5  1  0  0  0  0
  4 13  1  0  0  0  0
  5 12  1  0  0  0  0
  6 11  1  0  0  0  0
  6  5  2  0  0  0  0
  7  1  1  0  0  0  0
  8  2  1  0  0  0  0
 10  9  3  0  0  0  0
 14 17  2  0  0  0  0
 15 14  2  0  0  0  0
 16  3  1  0  0  0  0
 16 14  1  0  0  0  0
 18 14  1  0  0  0  0
 19 18  1  0  0  0  0
M  END
