Coordinates from ORCA-job Ph-N2-HSO4-B3LYPG-6-31G_dp-MTMO-d009-169-n800
 OpenBabel09051908053D

 19 18  0  0  0  0  0  0  0  0999 V2000
   -1.3651    0.9591    0.5809 C   0  0  0  0  0  0  0  0  0  0  0  0
   -0.0990    0.3917    0.4297 C   0  0  0  0  0  0  0  0  0  0  0  0
    0.4758   -0.2588    1.5173 C   0  0  0  0  0  0  0  0  0  0  0  0
   -0.1695   -0.3566    2.7467 C   0  0  0  0  0  0  0  0  0  0  0  0
   -1.4332    0.2181    2.8843 C   0  0  0  0  0  0  0  0  0  0  0  0
   -2.0315    0.8734    1.8052 C   0  0  0  0  0  0  0  0  0  0  0  0
   -1.8288    1.4662   -0.2596 H   0  0  0  0  0  0  0  0  0  0  0  0
    0.4380    0.4429   -0.5110 H   0  0  0  0  0  0  0  0  0  0  0  0
   13.9051    1.8247   -7.7329 N   0  0  0  0  0  0  0  0  0  0  0  0
   14.9530    1.9025   -8.0756 N   0  0  0  0  0  0  0  0  0  0  0  0
   -3.0166    1.3149    1.9178 H   0  0  0  0  0  0  0  0  0  0  0  0
   -1.9506    0.1506    3.8364 H   0  0  0  0  0  0  0  0  0  0  0  0
    0.3155   -0.8681    3.5699 H   0  0  0  0  0  0  0  0  0  0  0  0
    3.0842   -0.1534    1.8250 S   0  0  0  0  0  0  0  0  0  0  0  0
    4.1255   -1.1436    1.6415 O   0  0  0  0  0  0  0  0  0  0  0  0
    1.7150   -0.9084    1.3332 O   0  0  0  0  0  0  0  0  0  0  0  0
    2.8482    0.5521    3.0635 O   0  0  0  0  0  0  0  0  0  0  0  0
    3.2538    0.9927    0.6791 O   0  0  0  0  0  0  0  0  0  0  0  0
    3.7420    0.5914   -0.0601 H   0  0  0  0  0  0  0  0  0  0  0  0
  1  6  1  0  0  0  0
  2  1  2  0  0  0  0
  2  3  1  0  0  0  0
  3  4  2  0  0  0  0
  4  5  1  0  0  0  0
  4 13  1  0  0  0  0
  5 12  1  0  0  0  0
  6 11  1  0  0  0  0
  6  5  2  0  0  0  0
  7  1  1  0  0  0  0
  8  2  1  0  0  0  0
 10  9  3  0  0  0  0
 14 17  2  0  0  0  0
 15 14  2  0  0  0  0
 16  3  1  0  0  0  0
 16 14  1  0  0  0  0
 18 14  1  0  0  0  0
 19 18  1  0  0  0  0
M  END
