Coordinates from ORCA-job Ph-N2-HSO4-B3LYPG-6-31G_dp-MTMO-d009-169-n800
 OpenBabel09051908053D

 19 18  0  0  0  0  0  0  0  0999 V2000
   -0.8712    1.0110    0.2587 C   0  0  0  0  0  0  0  0  0  0  0  0
    0.4014    0.4673    0.0788 C   0  0  0  0  0  0  0  0  0  0  0  0
    1.0044   -0.1899    1.1471 C   0  0  0  0  0  0  0  0  0  0  0  0
    0.3809   -0.3171    2.3849 C   0  0  0  0  0  0  0  0  0  0  0  0
   -0.8898    0.2340    2.5512 C   0  0  0  0  0  0  0  0  0  0  0  0
   -1.5162    0.8954    1.4920 C   0  0  0  0  0  0  0  0  0  0  0  0
   -1.3568    1.5230   -0.5663 H   0  0  0  0  0  0  0  0  0  0  0  0
    0.9223    0.5418   -0.8693 H   0  0  0  0  0  0  0  0  0  0  0  0
    9.4772    1.2703   -4.6183 N   0  0  0  0  0  0  0  0  0  0  0  0
   10.5170    1.3018   -4.9917 N   0  0  0  0  0  0  0  0  0  0  0  0
   -2.5064    1.3186    1.6272 H   0  0  0  0  0  0  0  0  0  0  0  0
   -1.3907    0.1434    3.5103 H   0  0  0  0  0  0  0  0  0  0  0  0
    0.8876   -0.8329    3.1922 H   0  0  0  0  0  0  0  0  0  0  0  0
    3.6157   -0.0421    1.4099 S   0  0  0  0  0  0  0  0  0  0  0  0
    4.6700   -1.0132    1.2009 O   0  0  0  0  0  0  0  0  0  0  0  0
    2.2512   -0.8156    0.9338 O   0  0  0  0  0  0  0  0  0  0  0  0
    3.3882    0.6488    2.6582 O   0  0  0  0  0  0  0  0  0  0  0  0
    3.7477    1.1166    0.2718 O   0  0  0  0  0  0  0  0  0  0  0  0
    4.2290    0.7301   -0.4797 H   0  0  0  0  0  0  0  0  0  0  0  0
  1  6  1  0  0  0  0
  2  1  2  0  0  0  0
  2  3  1  0  0  0  0
  3  4  2  0  0  0  0
  4  5  1  0  0  0  0
  4 13  1  0  0  0  0
  5 12  1  0  0  0  0
  6 11  1  0  0  0  0
  6  5  2  0  0  0  0
  7  1  1  0  0  0  0
  8  2  1  0  0  0  0
 10  9  3  0  0  0  0
 14 17  2  0  0  0  0
 15 14  2  0  0  0  0
 16  3  1  0  0  0  0
 16 14  1  0  0  0  0
 18 14  1  0  0  0  0
 19 18  1  0  0  0  0
M  END
