Coordinates from ORCA-job Ph-N2-HSO4-B3LYPG-6-31G_dp-MTMO-d009-169-n800
 OpenBabel09051908053D

 19 18  0  0  0  0  0  0  0  0999 V2000
   -0.2186    1.0435   -0.1477 C   0  0  0  0  0  0  0  0  0  0  0  0
    1.1275    0.6901   -0.2506 C   0  0  0  0  0  0  0  0  0  0  0  0
    1.7188   -0.0120    0.7960 C   0  0  0  0  0  0  0  0  0  0  0  0
    1.0078   -0.3682    1.9389 C   0  0  0  0  0  0  0  0  0  0  0  0
   -0.3358   -0.0042    2.0306 C   0  0  0  0  0  0  0  0  0  0  0  0
   -0.9497    0.6992    0.9912 C   0  0  0  0  0  0  0  0  0  0  0  0
   -0.6934    1.5881   -0.9583 H   0  0  0  0  0  0  0  0  0  0  0  0
    1.7142    0.9446   -1.1262 H   0  0  0  0  0  0  0  0  0  0  0  0
    4.7228    0.3281   -2.0966 N   0  0  0  0  0  0  0  0  0  0  0  0
    4.7655   -0.4161   -2.9112 N   0  0  0  0  0  0  0  0  0  0  0  0
   -1.9958    0.9786    1.0689 H   0  0  0  0  0  0  0  0  0  0  0  0
   -0.9030   -0.2739    2.9162 H   0  0  0  0  0  0  0  0  0  0  0  0
    1.5054   -0.9109    2.7341 H   0  0  0  0  0  0  0  0  0  0  0  0
    4.2447    0.3949    1.4160 S   0  0  0  0  0  0  0  0  0  0  0  0
    5.4414   -0.3666    1.1228 O   0  0  0  0  0  0  0  0  0  0  0  0
    3.0531   -0.4381    0.6454 O   0  0  0  0  0  0  0  0  0  0  0  0
    3.8289    0.7544    2.7521 O   0  0  0  0  0  0  0  0  0  0  0  0
    4.2621    1.7766    0.5680 O   0  0  0  0  0  0  0  0  0  0  0  0
    4.6658    1.5833   -0.2982 H   0  0  0  0  0  0  0  0  0  0  0  0
  1  6  1  0  0  0  0
  2  1  2  0  0  0  0
  2  3  1  0  0  0  0
  3  4  2  0  0  0  0
  4  5  1  0  0  0  0
  4 13  1  0  0  0  0
  5 12  1  0  0  0  0
  6 11  1  0  0  0  0
  6  5  2  0  0  0  0
  7  1  1  0  0  0  0
  8  2  1  0  0  0  0
 10  9  3  0  0  0  0
 14 17  2  0  0  0  0
 15 14  2  0  0  0  0
 16  3  1  0  0  0  0
 16 14  1  0  0  0  0
 18 14  1  0  0  0  0
 19 18  1  0  0  0  0
M  END
