Coordinates from ORCA-job Ph-N2-HSO4-B3LYPG-6-31G_dp-MTMO-d009-169-n800
 OpenBabel09051908053D

 19 18  0  0  0  0  0  0  0  0999 V2000
   -1.0424    0.9942    0.3680 C   0  0  0  0  0  0  0  0  0  0  0  0
    0.2273    0.4387    0.2046 C   0  0  0  0  0  0  0  0  0  0  0  0
    0.8139   -0.2161    1.2835 C   0  0  0  0  0  0  0  0  0  0  0  0
    0.1767   -0.3295    2.5157 C   0  0  0  0  0  0  0  0  0  0  0  0
   -1.0909    0.2333    2.6654 C   0  0  0  0  0  0  0  0  0  0  0  0
   -1.7009    0.8926    1.5954 C   0  0  0  0  0  0  0  0  0  0  0  0
   -1.5153    1.5046   -0.4655 H   0  0  0  0  0  0  0  0  0  0  0  0
    0.7584    0.5023   -0.7386 H   0  0  0  0  0  0  0  0  0  0  0  0
   11.0651    1.4764   -5.7639 N   0  0  0  0  0  0  0  0  0  0  0  0
   12.1106    1.5323   -6.1182 N   0  0  0  0  0  0  0  0  0  0  0  0
   -2.6889    1.3250    1.7174 H   0  0  0  0  0  0  0  0  0  0  0  0
   -1.6022    0.1535    3.6199 H   0  0  0  0  0  0  0  0  0  0  0  0
    0.6708   -0.8439    3.3317 H   0  0  0  0  0  0  0  0  0  0  0  0
    3.4233   -0.0894    1.5737 S   0  0  0  0  0  0  0  0  0  0  0  0
    4.4717   -1.0700    1.3793 O   0  0  0  0  0  0  0  0  0  0  0  0
    2.0574   -0.8537    1.0870 O   0  0  0  0  0  0  0  0  0  0  0  0
    3.1891    0.6086    2.8167 O   0  0  0  0  0  0  0  0  0  0  0  0
    3.5762    1.0632    0.4321 O   0  0  0  0  0  0  0  0  0  0  0  0
    4.0619    0.6693   -0.3127 H   0  0  0  0  0  0  0  0  0  0  0  0
  1  6  1  0  0  0  0
  2  1  2  0  0  0  0
  2  3  1  0  0  0  0
  3  4  2  0  0  0  0
  4  5  1  0  0  0  0
  4 13  1  0  0  0  0
  5 12  1  0  0  0  0
  6 11  1  0  0  0  0
  6  5  2  0  0  0  0
  7  1  1  0  0  0  0
  8  2  1  0  0  0  0
 10  9  3  0  0  0  0
 14 17  2  0  0  0  0
 15 14  2  0  0  0  0
 16  3  1  0  0  0  0
 16 14  1  0  0  0  0
 18 14  1  0  0  0  0
 19 18  1  0  0  0  0
M  END
