Coordinates from ORCA-job Ph-N2-HSO4-B3LYPG-6-31G_dp-MTMO-d009-169-n800
 OpenBabel09051908053D

 19 18  0  0  0  0  0  0  0  0999 V2000
   -0.8285    1.0147    0.2317 C   0  0  0  0  0  0  0  0  0  0  0  0
    0.4443    0.4732    0.0468 C   0  0  0  0  0  0  0  0  0  0  0  0
    1.0523   -0.1835    1.1125 C   0  0  0  0  0  0  0  0  0  0  0  0
    0.4334   -0.3125    2.3525 C   0  0  0  0  0  0  0  0  0  0  0  0
   -0.8375    0.2364    2.5237 C   0  0  0  0  0  0  0  0  0  0  0  0
   -1.4689    0.8973    1.4672 C   0  0  0  0  0  0  0  0  0  0  0  0
   -1.3179    1.5264   -0.5913 H   0  0  0  0  0  0  0  0  0  0  0  0
    0.9617    0.5492   -0.9031 H   0  0  0  0  0  0  0  0  0  0  0  0
    9.0756    1.2128   -4.3227 N   0  0  0  0  0  0  0  0  0  0  0  0
   10.1130    1.2531   -4.7018 N   0  0  0  0  0  0  0  0  0  0  0  0
   -2.4593    1.3188    1.6062 H   0  0  0  0  0  0  0  0  0  0  0  0
   -1.3349    0.1443    3.4845 H   0  0  0  0  0  0  0  0  0  0  0  0
    0.9439   -0.8279    3.1576 H   0  0  0  0  0  0  0  0  0  0  0  0
    3.6643   -0.0312    1.3655 S   0  0  0  0  0  0  0  0  0  0  0  0
    4.7194   -1.0008    1.1534 O   0  0  0  0  0  0  0  0  0  0  0  0
    2.2993   -0.8070    0.8944 O   0  0  0  0  0  0  0  0  0  0  0  0
    3.4399    0.6599    2.6142 O   0  0  0  0  0  0  0  0  0  0  0  0
    3.7908    1.1272    0.2265 O   0  0  0  0  0  0  0  0  0  0  0  0
    4.2707    0.7413   -0.5262 H   0  0  0  0  0  0  0  0  0  0  0  0
  1  6  1  0  0  0  0
  2  1  2  0  0  0  0
  2  3  1  0  0  0  0
  3  4  2  0  0  0  0
  4  5  1  0  0  0  0
  4 13  1  0  0  0  0
  5 12  1  0  0  0  0
  6 11  1  0  0  0  0
  6  5  2  0  0  0  0
  7  1  1  0  0  0  0
  8  2  1  0  0  0  0
 10  9  3  0  0  0  0
 14 17  2  0  0  0  0
 15 14  2  0  0  0  0
 16  3  1  0  0  0  0
 16 14  1  0  0  0  0
 18 14  1  0  0  0  0
 19 18  1  0  0  0  0
M  END
