Coordinates from ORCA-job Ph-N2-HSO4-B3LYPG-6-31G_dp-MTMO-d009-169-n800
 OpenBabel09051908053D

 19 18  0  0  0  0  0  0  0  0999 V2000
   -0.6334    1.0229    0.1373 C   0  0  0  0  0  0  0  0  0  0  0  0
    0.6483    0.5469   -0.1424 C   0  0  0  0  0  0  0  0  0  0  0  0
    1.3521   -0.1069    0.8646 C   0  0  0  0  0  0  0  0  0  0  0  0
    0.8208   -0.2958    2.1367 C   0  0  0  0  0  0  0  0  0  0  0  0
   -0.4607    0.1872    2.4025 C   0  0  0  0  0  0  0  0  0  0  0  0
   -1.1878    0.8441    1.4066 C   0  0  0  0  0  0  0  0  0  0  0  0
   -1.1973    1.5319   -0.6384 H   0  0  0  0  0  0  0  0  0  0  0  0
    1.1020    0.6726   -1.1191 H   0  0  0  0  0  0  0  0  0  0  0  0
    6.5614    0.7138   -2.1743 N   0  0  0  0  0  0  0  0  0  0  0  0
    7.5577    0.5497   -2.6211 N   0  0  0  0  0  0  0  0  0  0  0  0
   -2.1854    1.2149    1.6198 H   0  0  0  0  0  0  0  0  0  0  0  0
   -0.8905    0.0476    3.3897 H   0  0  0  0  0  0  0  0  0  0  0  0
    1.4052   -0.8065    2.8932 H   0  0  0  0  0  0  0  0  0  0  0  0
    3.9687    0.1812    0.9108 S   0  0  0  0  0  0  0  0  0  0  0  0
    5.0520   -0.7637    0.7209 O   0  0  0  0  0  0  0  0  0  0  0  0
    2.6108   -0.6653    0.5528 O   0  0  0  0  0  0  0  0  0  0  0  0
    3.7666    0.9358    2.1274 O   0  0  0  0  0  0  0  0  0  0  0  0
    4.0147    1.2544   -0.3092 O   0  0  0  0  0  0  0  0  0  0  0  0
    4.6566    0.9267   -0.9664 H   0  0  0  0  0  0  0  0  0  0  0  0
  1  6  1  0  0  0  0
  2  1  2  0  0  0  0
  2  3  1  0  0  0  0
  3  4  2  0  0  0  0
  4  5  1  0  0  0  0
  4 13  1  0  0  0  0
  5 12  1  0  0  0  0
  6 11  1  0  0  0  0
  6  5  2  0  0  0  0
  7  1  1  0  0  0  0
  8  2  1  0  0  0  0
 10  9  3  0  0  0  0
 14 17  2  0  0  0  0
 15 14  2  0  0  0  0
 16  3  1  0  0  0  0
 16 14  1  0  0  0  0
 18 14  1  0  0  0  0
 19 18  1  0  0  0  0
M  END
