Coordinates from ORCA-job Ph-N2-HSO4-B3LYPG-6-31G_dp-MTMO-d009-169-n800
 OpenBabel09051908053D

 19 18  0  0  0  0  0  0  0  0999 V2000
   -0.9998    0.9987    0.3407 C   0  0  0  0  0  0  0  0  0  0  0  0
    0.2709    0.4462    0.1737 C   0  0  0  0  0  0  0  0  0  0  0  0
    0.8609   -0.2096    1.2500 C   0  0  0  0  0  0  0  0  0  0  0  0
    0.2264   -0.3270    2.4833 C   0  0  0  0  0  0  0  0  0  0  0  0
   -1.0421    0.2328    2.6366 C   0  0  0  0  0  0  0  0  0  0  0  0
   -1.6557    0.8930    1.5691 C   0  0  0  0  0  0  0  0  0  0  0  0
   -1.4753    1.5097   -0.4908 H   0  0  0  0  0  0  0  0  0  0  0  0
    0.8000    0.5129   -0.7704 H   0  0  0  0  0  0  0  0  0  0  0  0
   10.6738    1.4280   -5.4848 N   0  0  0  0  0  0  0  0  0  0  0  0
   11.7184    1.4727   -5.8432 N   0  0  0  0  0  0  0  0  0  0  0  0
   -2.6443    1.3231    1.6940 H   0  0  0  0  0  0  0  0  0  0  0  0
   -1.5514    0.1499    3.5919 H   0  0  0  0  0  0  0  0  0  0  0  0
    0.7231   -0.8420    3.2972 H   0  0  0  0  0  0  0  0  0  0  0  0
    3.4707   -0.0776    1.5349 S   0  0  0  0  0  0  0  0  0  0  0  0
    4.5207   -1.0556    1.3372 O   0  0  0  0  0  0  0  0  0  0  0  0
    2.1054   -0.8441    1.0499 O   0  0  0  0  0  0  0  0  0  0  0  0
    3.2374    0.6183    2.7794 O   0  0  0  0  0  0  0  0  0  0  0  0
    3.6188    1.0770    0.3946 O   0  0  0  0  0  0  0  0  0  0  0  0
    4.1037    0.6851   -0.3518 H   0  0  0  0  0  0  0  0  0  0  0  0
  1  6  1  0  0  0  0
  2  1  2  0  0  0  0
  2  3  1  0  0  0  0
  3  4  2  0  0  0  0
  4  5  1  0  0  0  0
  4 13  1  0  0  0  0
  5 12  1  0  0  0  0
  6 11  1  0  0  0  0
  6  5  2  0  0  0  0
  7  1  1  0  0  0  0
  8  2  1  0  0  0  0
 10  9  3  0  0  0  0
 14 17  2  0  0  0  0
 15 14  2  0  0  0  0
 16  3  1  0  0  0  0
 16 14  1  0  0  0  0
 18 14  1  0  0  0  0
 19 18  1  0  0  0  0
M  END
