Coordinates from ORCA-job Ph-N2-HSO4-B3LYPG-6-31G_dp-MTMO-d009-169-n800
 OpenBabel09051908053D

 19 18  0  0  0  0  0  0  0  0999 V2000
   -1.4047    0.9548    0.6077 C   0  0  0  0  0  0  0  0  0  0  0  0
   -0.1388    0.3871    0.4567 C   0  0  0  0  0  0  0  0  0  0  0  0
    0.4357   -0.2635    1.5445 C   0  0  0  0  0  0  0  0  0  0  0  0
   -0.2097   -0.3609    2.7739 C   0  0  0  0  0  0  0  0  0  0  0  0
   -1.4732    0.2141    2.9112 C   0  0  0  0  0  0  0  0  0  0  0  0
   -2.0713    0.8694    1.8320 C   0  0  0  0  0  0  0  0  0  0  0  0
   -1.8682    1.4619   -0.2328 H   0  0  0  0  0  0  0  0  0  0  0  0
    0.3983    0.4379   -0.4839 H   0  0  0  0  0  0  0  0  0  0  0  0
   14.2442    1.8643   -7.9638 N   0  0  0  0  0  0  0  0  0  0  0  0
   15.2922    1.9427   -8.3064 N   0  0  0  0  0  0  0  0  0  0  0  0
   -3.0562    1.3112    1.9444 H   0  0  0  0  0  0  0  0  0  0  0  0
   -1.9908    0.1469    3.8633 H   0  0  0  0  0  0  0  0  0  0  0  0
    0.2750   -0.8725    3.5972 H   0  0  0  0  0  0  0  0  0  0  0  0
    3.0442   -0.1589    1.8525 S   0  0  0  0  0  0  0  0  0  0  0  0
    4.0852   -1.1493    1.6692 O   0  0  0  0  0  0  0  0  0  0  0  0
    1.6748   -0.9134    1.3606 O   0  0  0  0  0  0  0  0  0  0  0  0
    2.8082    0.5469    3.0909 O   0  0  0  0  0  0  0  0  0  0  0  0
    3.2142    0.9871    0.7065 O   0  0  0  0  0  0  0  0  0  0  0  0
    3.7024    0.5856   -0.0326 H   0  0  0  0  0  0  0  0  0  0  0  0
  1  6  1  0  0  0  0
  2  1  2  0  0  0  0
  2  3  1  0  0  0  0
  3  4  2  0  0  0  0
  4  5  1  0  0  0  0
  4 13  1  0  0  0  0
  5 12  1  0  0  0  0
  6 11  1  0  0  0  0
  6  5  2  0  0  0  0
  7  1  1  0  0  0  0
  8  2  1  0  0  0  0
 10  9  3  0  0  0  0
 14 17  2  0  0  0  0
 15 14  2  0  0  0  0
 16  3  1  0  0  0  0
 16 14  1  0  0  0  0
 18 14  1  0  0  0  0
 19 18  1  0  0  0  0
M  END
