Coordinates from ORCA-job Ph-N2-HSO4-B3LYPG-6-31G_dp-MTMO-d009-169-n800
 OpenBabel09051908053D

 19 18  0  0  0  0  0  0  0  0999 V2000
   -0.6901    1.0220    0.1575 C   0  0  0  0  0  0  0  0  0  0  0  0
    0.5764    0.4853   -0.0781 C   0  0  0  0  0  0  0  0  0  0  0  0
    1.2336   -0.1579    0.9664 C   0  0  0  0  0  0  0  0  0  0  0  0
    0.6707   -0.2779    2.2334 C   0  0  0  0  0  0  0  0  0  0  0  0
   -0.5948    0.2654    2.4549 C   0  0  0  0  0  0  0  0  0  0  0  0
   -1.2754    0.9129    1.4208 C   0  0  0  0  0  0  0  0  0  0  0  0
   -1.2179    1.5235   -0.6478 H   0  0  0  0  0  0  0  0  0  0  0  0
    1.0521    0.5557   -1.0499 H   0  0  0  0  0  0  0  0  0  0  0  0
    7.4856    0.9958   -2.9141 N   0  0  0  0  0  0  0  0  0  0  0  0
    8.5008    1.0809   -3.3423 N   0  0  0  0  0  0  0  0  0  0  0  0
   -2.2613    1.3302    1.5992 H   0  0  0  0  0  0  0  0  0  0  0  0
   -1.0491    0.1800    3.4373 H   0  0  0  0  0  0  0  0  0  0  0  0
    1.2190   -0.7832    3.0199 H   0  0  0  0  0  0  0  0  0  0  0  0
    3.8556    0.0220    1.0723 S   0  0  0  0  0  0  0  0  0  0  0  0
    4.9035   -0.9617    0.8895 O   0  0  0  0  0  0  0  0  0  0  0  0
    2.4738   -0.7782    0.7019 O   0  0  0  0  0  0  0  0  0  0  0  0
    3.6728    0.7936    2.2802 O   0  0  0  0  0  0  0  0  0  0  0  0
    3.9477    1.0994   -0.1468 O   0  0  0  0  0  0  0  0  0  0  0  0
    4.4588    0.6836   -0.8627 H   0  0  0  0  0  0  0  0  0  0  0  0
  1  6  1  0  0  0  0
  2  1  2  0  0  0  0
  2  3  1  0  0  0  0
  3  4  2  0  0  0  0
  4  5  1  0  0  0  0
  4 13  1  0  0  0  0
  5 12  1  0  0  0  0
  6 11  1  0  0  0  0
  6  5  2  0  0  0  0
  7  1  1  0  0  0  0
  8  2  1  0  0  0  0
 10  9  3  0  0  0  0
 14 17  2  0  0  0  0
 15 14  2  0  0  0  0
 16  3  1  0  0  0  0
 16 14  1  0  0  0  0
 18 14  1  0  0  0  0
 19 18  1  0  0  0  0
M  END
