Coordinates from ORCA-job Ph-N2-HSO4-B3LYPG-6-31G_dp-MTMO-d009-169-n800
 OpenBabel09051908053D

 19 18  0  0  0  0  0  0  0  0999 V2000
   -1.1524    0.9824    0.4392 C   0  0  0  0  0  0  0  0  0  0  0  0
    0.1155    0.4207    0.2828 C   0  0  0  0  0  0  0  0  0  0  0  0
    0.6954   -0.2318    1.3666 C   0  0  0  0  0  0  0  0  0  0  0  0
    0.0534   -0.3370    2.5970 C   0  0  0  0  0  0  0  0  0  0  0  0
   -1.2123    0.2320    2.7397 C   0  0  0  0  0  0  0  0  0  0  0  0
   -1.8157    0.8891    1.6646 C   0  0  0  0  0  0  0  0  0  0  0  0
   -1.6201    1.4911   -0.3982 H   0  0  0  0  0  0  0  0  0  0  0  0
    0.6501    0.4778   -0.6588 H   0  0  0  0  0  0  0  0  0  0  0  0
   12.0550    1.6002   -6.4606 N   0  0  0  0  0  0  0  0  0  0  0  0
   13.1020    1.6715   -6.8076 N   0  0  0  0  0  0  0  0  0  0  0  0
   -2.8022    1.3263    1.7813 H   0  0  0  0  0  0  0  0  0  0  0  0
   -1.7273    0.1587    3.6928 H   0  0  0  0  0  0  0  0  0  0  0  0
    0.5422   -0.8499    3.4171 H   0  0  0  0  0  0  0  0  0  0  0  0
    3.3042   -0.1162    1.6671 S   0  0  0  0  0  0  0  0  0  0  0  0
    4.3490   -1.1018    1.4790 O   0  0  0  0  0  0  0  0  0  0  0  0
    1.9368   -0.8757    1.1772 O   0  0  0  0  0  0  0  0  0  0  0  0
    3.0684    0.5859    2.9076 O   0  0  0  0  0  0  0  0  0  0  0  0
    3.4663    1.0329    0.5232 O   0  0  0  0  0  0  0  0  0  0  0  0
    3.9536    0.6351   -0.2185 H   0  0  0  0  0  0  0  0  0  0  0  0
  1  6  1  0  0  0  0
  2  1  2  0  0  0  0
  2  3  1  0  0  0  0
  3  4  2  0  0  0  0
  4  5  1  0  0  0  0
  4 13  1  0  0  0  0
  5 12  1  0  0  0  0
  6 11  1  0  0  0  0
  6  5  2  0  0  0  0
  7  1  1  0  0  0  0
  8  2  1  0  0  0  0
 10  9  3  0  0  0  0
 14 17  2  0  0  0  0
 15 14  2  0  0  0  0
 16  3  1  0  0  0  0
 16 14  1  0  0  0  0
 18 14  1  0  0  0  0
 19 18  1  0  0  0  0
M  END
