Coordinates from ORCA-job Ph-N2-HSO4-B3LYPG-6-31G_dp-MTMO-d009-169-n800
 OpenBabel09051908053D

 19 18  0  0  0  0  0  0  0  0999 V2000
   -0.4162    1.0079   -0.0334 C   0  0  0  0  0  0  0  0  0  0  0  0
    0.9031    0.5883   -0.2074 C   0  0  0  0  0  0  0  0  0  0  0  0
    1.5417   -0.0671    0.8415 C   0  0  0  0  0  0  0  0  0  0  0  0
    0.9058   -0.3123    2.0554 C   0  0  0  0  0  0  0  0  0  0  0  0
   -0.4116    0.1173    2.2170 C   0  0  0  0  0  0  0  0  0  0  0  0
   -1.0731    0.7745    1.1766 C   0  0  0  0  0  0  0  0  0  0  0  0
   -0.9285    1.5166   -0.8445 H   0  0  0  0  0  0  0  0  0  0  0  0
    1.4351    0.7564   -1.1372 H   0  0  0  0  0  0  0  0  0  0  0  0
    5.6021    0.5481   -2.2250 N   0  0  0  0  0  0  0  0  0  0  0  0
    6.1576    0.0127   -3.0145 N   0  0  0  0  0  0  0  0  0  0  0  0
   -2.0990    1.1037    1.3089 H   0  0  0  0  0  0  0  0  0  0  0  0
   -0.9215   -0.0654    3.1580 H   0  0  0  0  0  0  0  0  0  0  0  0
    1.4397   -0.8211    2.8491 H   0  0  0  0  0  0  0  0  0  0  0  0
    4.1205    0.2734    1.2264 S   0  0  0  0  0  0  0  0  0  0  0  0
    5.2659   -0.5562    0.9087 O   0  0  0  0  0  0  0  0  0  0  0  0
    2.8429   -0.5636    0.6231 O   0  0  0  0  0  0  0  0  0  0  0  0
    3.8193    0.7495    2.5572 O   0  0  0  0  0  0  0  0  0  0  0  0
    4.1356    1.5793    0.2668 O   0  0  0  0  0  0  0  0  0  0  0  0
    4.6425    1.3495   -0.5352 H   0  0  0  0  0  0  0  0  0  0  0  0
  1  6  1  0  0  0  0
  2  1  2  0  0  0  0
  2  3  1  0  0  0  0
  3  4  2  0  0  0  0
  4  5  1  0  0  0  0
  4 13  1  0  0  0  0
  5 12  1  0  0  0  0
  6 11  1  0  0  0  0
  6  5  2  0  0  0  0
  7  1  1  0  0  0  0
  8  2  1  0  0  0  0
 10  9  3  0  0  0  0
 14 17  2  0  0  0  0
 15 14  2  0  0  0  0
 16  3  1  0  0  0  0
 16 14  1  0  0  0  0
 18 14  1  0  0  0  0
 19 18  1  0  0  0  0
M  END
