Coordinates from ORCA-job Ph-N2-HSO4-B3LYPG-6-31G_dp-MTMO-d009-169-n800
 OpenBabel09051908053D

 19 18  0  0  0  0  0  0  0  0999 V2000
   -0.8666    1.0114    0.2559 C   0  0  0  0  0  0  0  0  0  0  0  0
    0.4061    0.4680    0.0754 C   0  0  0  0  0  0  0  0  0  0  0  0
    1.0096   -0.1892    1.1434 C   0  0  0  0  0  0  0  0  0  0  0  0
    0.3865   -0.3167    2.3814 C   0  0  0  0  0  0  0  0  0  0  0  0
   -0.8842    0.2341    2.5482 C   0  0  0  0  0  0  0  0  0  0  0  0
   -1.5112    0.8956    1.4893 C   0  0  0  0  0  0  0  0  0  0  0  0
   -1.3526    1.5234   -0.5689 H   0  0  0  0  0  0  0  0  0  0  0  0
    0.9266    0.5427   -0.8729 H   0  0  0  0  0  0  0  0  0  0  0  0
    9.4342    1.2642   -4.5867 N   0  0  0  0  0  0  0  0  0  0  0  0
   10.4737    1.2963   -4.9607 N   0  0  0  0  0  0  0  0  0  0  0  0
   -2.5014    1.3186    1.6249 H   0  0  0  0  0  0  0  0  0  0  0  0
   -1.3848    0.1433    3.5074 H   0  0  0  0  0  0  0  0  0  0  0  0
    0.8936   -0.8325    3.1884 H   0  0  0  0  0  0  0  0  0  0  0  0
    3.6209   -0.0408    1.4051 S   0  0  0  0  0  0  0  0  0  0  0  0
    4.6753   -1.0117    1.1959 O   0  0  0  0  0  0  0  0  0  0  0  0
    2.2564   -0.8146    0.9296 O   0  0  0  0  0  0  0  0  0  0  0  0
    3.3937    0.6501    2.6535 O   0  0  0  0  0  0  0  0  0  0  0  0
    3.7523    1.1178    0.2670 O   0  0  0  0  0  0  0  0  0  0  0  0
    4.2335    0.7313   -0.4847 H   0  0  0  0  0  0  0  0  0  0  0  0
  1  6  1  0  0  0  0
  2  1  2  0  0  0  0
  2  3  1  0  0  0  0
  3  4  2  0  0  0  0
  4  5  1  0  0  0  0
  4 13  1  0  0  0  0
  5 12  1  0  0  0  0
  6 11  1  0  0  0  0
  6  5  2  0  0  0  0
  7  1  1  0  0  0  0
  8  2  1  0  0  0  0
 10  9  3  0  0  0  0
 14 17  2  0  0  0  0
 15 14  2  0  0  0  0
 16  3  1  0  0  0  0
 16 14  1  0  0  0  0
 18 14  1  0  0  0  0
 19 18  1  0  0  0  0
M  END
