Coordinates from ORCA-job Ph-N2-HSO4-B3LYPG-6-31G_dp-MTMO-d009-169-n800
 OpenBabel09051908053D

 19 18  0  0  0  0  0  0  0  0999 V2000
   -0.8558    1.0123    0.2490 C   0  0  0  0  0  0  0  0  0  0  0  0
    0.4169    0.4694    0.0674 C   0  0  0  0  0  0  0  0  0  0  0  0
    1.0215   -0.1876    1.1347 C   0  0  0  0  0  0  0  0  0  0  0  0
    0.3996   -0.3155    2.3733 C   0  0  0  0  0  0  0  0  0  0  0  0
   -0.8712    0.2348    2.5413 C   0  0  0  0  0  0  0  0  0  0  0  0
   -1.4993    0.8961    1.4830 C   0  0  0  0  0  0  0  0  0  0  0  0
   -1.3427    1.5242   -0.5753 H   0  0  0  0  0  0  0  0  0  0  0  0
    0.9366    0.5445   -0.8814 H   0  0  0  0  0  0  0  0  0  0  0  0
    9.3336    1.2502   -4.5129 N   0  0  0  0  0  0  0  0  0  0  0  0
   10.3726    1.2840   -4.8883 N   0  0  0  0  0  0  0  0  0  0  0  0
   -2.4896    1.3187    1.6196 H   0  0  0  0  0  0  0  0  0  0  0  0
   -1.3709    0.1436    3.5009 H   0  0  0  0  0  0  0  0  0  0  0  0
    0.9076   -0.8312    3.1798 H   0  0  0  0  0  0  0  0  0  0  0  0
    3.6331   -0.0382    1.3941 S   0  0  0  0  0  0  0  0  0  0  0  0
    4.6877   -1.0087    1.1841 O   0  0  0  0  0  0  0  0  0  0  0  0
    2.2684   -0.8126    0.9198 O   0  0  0  0  0  0  0  0  0  0  0  0
    3.4067    0.6527    2.6426 O   0  0  0  0  0  0  0  0  0  0  0  0
    3.7631    1.1205    0.2558 O   0  0  0  0  0  0  0  0  0  0  0  0
    4.2438    0.7342   -0.4962 H   0  0  0  0  0  0  0  0  0  0  0  0
  1  6  1  0  0  0  0
  2  1  2  0  0  0  0
  2  3  1  0  0  0  0
  3  4  2  0  0  0  0
  4  5  1  0  0  0  0
  4 13  1  0  0  0  0
  5 12  1  0  0  0  0
  6 11  1  0  0  0  0
  6  5  2  0  0  0  0
  7  1  1  0  0  0  0
  8  2  1  0  0  0  0
 10  9  3  0  0  0  0
 14 17  2  0  0  0  0
 15 14  2  0  0  0  0
 16  3  1  0  0  0  0
 16 14  1  0  0  0  0
 18 14  1  0  0  0  0
 19 18  1  0  0  0  0
M  END
