Coordinates from ORCA-job Ph-N2-HSO4-B3LYPG-6-31G_dp-MTMO-d009-169-n800
 OpenBabel09051908053D

 19 18  0  0  0  0  0  0  0  0999 V2000
   -0.9234    1.0062    0.2920 C   0  0  0  0  0  0  0  0  0  0  0  0
    0.3486    0.4593    0.1177 C   0  0  0  0  0  0  0  0  0  0  0  0
    0.9459   -0.1978    1.1892 C   0  0  0  0  0  0  0  0  0  0  0  0
    0.3173   -0.3219    2.4247 C   0  0  0  0  0  0  0  0  0  0  0  0
   -0.9527    0.2324    2.5854 C   0  0  0  0  0  0  0  0  0  0  0  0
   -1.5735    0.8938    1.5229 C   0  0  0  0  0  0  0  0  0  0  0  0
   -1.4045    1.5183   -0.5356 H   0  0  0  0  0  0  0  0  0  0  0  0
    0.8734    0.5313   -0.8285 H   0  0  0  0  0  0  0  0  0  0  0  0
    9.9662    1.3370   -4.9751 N   0  0  0  0  0  0  0  0  0  0  0  0
   11.0083    1.3674   -5.3421 N   0  0  0  0  0  0  0  0  0  0  0  0
   -2.5632    1.3196    1.6537 H   0  0  0  0  0  0  0  0  0  0  0  0
   -1.4575    0.1443    3.5426 H   0  0  0  0  0  0  0  0  0  0  0  0
    0.8196   -0.8378    3.2347 H   0  0  0  0  0  0  0  0  0  0  0  0
    3.5565   -0.0560    1.4623 S   0  0  0  0  0  0  0  0  0  0  0  0
    4.6094   -1.0295    1.2578 O   0  0  0  0  0  0  0  0  0  0  0  0
    2.1920   -0.8267    0.9815 O   0  0  0  0  0  0  0  0  0  0  0  0
    3.3258    0.6361    2.7094 O   0  0  0  0  0  0  0  0  0  0  0  0
    3.6952    1.1018    0.3242 O   0  0  0  0  0  0  0  0  0  0  0  0
    4.1782    0.7136   -0.4254 H   0  0  0  0  0  0  0  0  0  0  0  0
  1  6  1  0  0  0  0
  2  1  2  0  0  0  0
  2  3  1  0  0  0  0
  3  4  2  0  0  0  0
  4  5  1  0  0  0  0
  4 13  1  0  0  0  0
  5 12  1  0  0  0  0
  6 11  1  0  0  0  0
  6  5  2  0  0  0  0
  7  1  1  0  0  0  0
  8  2  1  0  0  0  0
 10  9  3  0  0  0  0
 14 17  2  0  0  0  0
 15 14  2  0  0  0  0
 16  3  1  0  0  0  0
 16 14  1  0  0  0  0
 18 14  1  0  0  0  0
 19 18  1  0  0  0  0
M  END
