Coordinates from ORCA-job Ph-N2-HSO4-B3LYPG-6-31G_dp-MTMO-d009-169-n800
 OpenBabel09051908053D

 19 18  0  0  0  0  0  0  0  0999 V2000
   -0.1540    1.0729   -0.1674 C   0  0  0  0  0  0  0  0  0  0  0  0
    1.1983    0.7379   -0.2502 C   0  0  0  0  0  0  0  0  0  0  0  0
    1.7721    0.0030    0.7836 C   0  0  0  0  0  0  0  0  0  0  0  0
    1.0361   -0.4021    1.8943 C   0  0  0  0  0  0  0  0  0  0  0  0
   -0.3136   -0.0572    1.9661 C   0  0  0  0  0  0  0  0  0  0  0  0
   -0.9096    0.6782    0.9386 C   0  0  0  0  0  0  0  0  0  0  0  0
   -0.6145    1.6432   -0.9686 H   0  0  0  0  0  0  0  0  0  0  0  0
    1.8013    1.0342   -1.1007 H   0  0  0  0  0  0  0  0  0  0  0  0
    4.4425    0.2400   -2.0263 N   0  0  0  0  0  0  0  0  0  0  0  0
    4.3667   -0.5495   -2.7947 N   0  0  0  0  0  0  0  0  0  0  0  0
   -1.9604    0.9440    1.0001 H   0  0  0  0  0  0  0  0  0  0  0  0
   -0.8991   -0.3657    2.8268 H   0  0  0  0  0  0  0  0  0  0  0  0
    1.5205   -0.9692    2.6809 H   0  0  0  0  0  0  0  0  0  0  0  0
    4.2797    0.4430    1.4537 S   0  0  0  0  0  0  0  0  0  0  0  0
    5.4904   -0.3045    1.1851 O   0  0  0  0  0  0  0  0  0  0  0  0
    3.1136   -0.4065    0.6605 O   0  0  0  0  0  0  0  0  0  0  0  0
    3.8340    0.8006    2.7805 O   0  0  0  0  0  0  0  0  0  0  0  0
    4.2933    1.8245    0.6041 O   0  0  0  0  0  0  0  0  0  0  0  0
    4.6643    1.6246   -0.2748 H   0  0  0  0  0  0  0  0  0  0  0  0
  1  6  1  0  0  0  0
  2  1  2  0  0  0  0
  2  3  1  0  0  0  0
  3  4  2  0  0  0  0
  4  5  1  0  0  0  0
  4 13  1  0  0  0  0
  5 12  1  0  0  0  0
  6 11  1  0  0  0  0
  6  5  2  0  0  0  0
  7  1  1  0  0  0  0
  8  2  1  0  0  0  0
 10  9  3  0  0  0  0
 14 17  2  0  0  0  0
 15 14  2  0  0  0  0
 16  3  1  0  0  0  0
 16 14  1  0  0  0  0
 18 14  1  0  0  0  0
 19 18  1  0  0  0  0
M  END
