Coordinates from ORCA-job Ph-N2-HSO4-B3LYPG-6-31G_dp-MTMO-d009-169-n800
 OpenBabel09051908053D

 19 18  0  0  0  0  0  0  0  0999 V2000
   -0.0505    1.3705    0.1033 C   0  0  0  0  0  0  0  0  0  0  0  0
    1.3254    1.1355    0.0947 C   0  0  0  0  0  0  0  0  0  0  0  0
    1.8305    0.1097    0.8902 C   0  0  0  0  0  0  0  0  0  0  0  0
    1.0029   -0.6829    1.6803 C   0  0  0  0  0  0  0  0  0  0  0  0
   -0.3715   -0.4431    1.6696 C   0  0  0  0  0  0  0  0  0  0  0  0
   -0.8994    0.5840    0.8844 C   0  0  0  0  0  0  0  0  0  0  0  0
   -0.4577    2.1717   -0.5064 H   0  0  0  0  0  0  0  0  0  0  0  0
    1.9942    1.7415   -0.5048 H   0  0  0  0  0  0  0  0  0  0  0  0
    4.1977   -0.3882   -1.9668 N   0  0  0  0  0  0  0  0  0  0  0  0
    3.8107   -1.2673   -2.5119 N   0  0  0  0  0  0  0  0  0  0  0  0
   -1.9688    0.7727    0.8828 H   0  0  0  0  0  0  0  0  0  0  0  0
   -1.0267   -1.0569    2.2801 H   0  0  0  0  0  0  0  0  0  0  0  0
    1.4403   -1.4712    2.2836 H   0  0  0  0  0  0  0  0  0  0  0  0
    4.3212    0.8329    1.4301 S   0  0  0  0  0  0  0  0  0  0  0  0
    5.5213    0.0334    1.5544 O   0  0  0  0  0  0  0  0  0  0  0  0
    3.1976   -0.2304    0.8693 O   0  0  0  0  0  0  0  0  0  0  0  0
    3.7741    1.6433    2.4924 O   0  0  0  0  0  0  0  0  0  0  0  0
    4.4726    1.8266    0.1514 O   0  0  0  0  0  0  0  0  0  0  0  0
    4.8476    1.3098   -0.5851 H   0  0  0  0  0  0  0  0  0  0  0  0
  1  6  1  0  0  0  0
  2  1  2  0  0  0  0
  2  3  1  0  0  0  0
  3  4  2  0  0  0  0
  4 13  1  0  0  0  0
  5  4  1  0  0  0  0
  5 12  1  0  0  0  0
  6  5  2  0  0  0  0
  7  1  1  0  0  0  0
  8  2  1  0  0  0  0
 10  9  3  0  0  0  0
 11  6  1  0  0  0  0
 14 15  2  0  0  0  0
 14 17  2  0  0  0  0
 16  3  1  0  0  0  0
 16 14  1  0  0  0  0
 18 14  1  0  0  0  0
 19 18  1  0  0  0  0
M  END
