Coordinates from ORCA-job Ph-N2-HSO4-B3LYPG-6-31G_dp-MTMO-d009-169-n800
 OpenBabel09051908053D

 19 18  0  0  0  0  0  0  0  0999 V2000
   -1.0744    0.9909    0.3885 C   0  0  0  0  0  0  0  0  0  0  0  0
    0.1948    0.4333    0.2276 C   0  0  0  0  0  0  0  0  0  0  0  0
    0.7790   -0.2208    1.3081 C   0  0  0  0  0  0  0  0  0  0  0  0
    0.1402   -0.3315    2.5397 C   0  0  0  0  0  0  0  0  0  0  0  0
   -1.1268    0.2334    2.6869 C   0  0  0  0  0  0  0  0  0  0  0  0
   -1.7346    0.8920    1.6152 C   0  0  0  0  0  0  0  0  0  0  0  0
   -1.5455    1.5007   -0.4463 H   0  0  0  0  0  0  0  0  0  0  0  0
    0.7271    0.4947   -0.7151 H   0  0  0  0  0  0  0  0  0  0  0  0
   11.3556    1.5125   -5.9698 N   0  0  0  0  0  0  0  0  0  0  0  0
   12.4015    1.5749   -6.3214 N   0  0  0  0  0  0  0  0  0  0  0  0
   -2.7221    1.3259    1.7354 H   0  0  0  0  0  0  0  0  0  0  0  0
   -1.6394    0.1557    3.6409 H   0  0  0  0  0  0  0  0  0  0  0  0
    0.6325   -0.8455    3.3570 H   0  0  0  0  0  0  0  0  0  0  0  0
    3.3883   -0.0978    1.6018 S   0  0  0  0  0  0  0  0  0  0  0  0
    4.4354   -1.0801    1.4097 O   0  0  0  0  0  0  0  0  0  0  0  0
    2.0219   -0.8605    1.1141 O   0  0  0  0  0  0  0  0  0  0  0  0
    3.1534    0.6016    2.8440 O   0  0  0  0  0  0  0  0  0  0  0  0
    3.5443    1.0536    0.4594 O   0  0  0  0  0  0  0  0  0  0  0  0
    4.0305    0.6584   -0.2843 H   0  0  0  0  0  0  0  0  0  0  0  0
  1  6  1  0  0  0  0
  2  1  2  0  0  0  0
  2  3  1  0  0  0  0
  3  4  2  0  0  0  0
  4  5  1  0  0  0  0
  4 13  1  0  0  0  0
  5 12  1  0  0  0  0
  6 11  1  0  0  0  0
  6  5  2  0  0  0  0
  7  1  1  0  0  0  0
  8  2  1  0  0  0  0
 10  9  3  0  0  0  0
 14 17  2  0  0  0  0
 15 14  2  0  0  0  0
 16  3  1  0  0  0  0
 16 14  1  0  0  0  0
 18 14  1  0  0  0  0
 19 18  1  0  0  0  0
M  END
