Coordinates from ORCA-job Ph-N2-HSO4-B3LYPG-6-31G_dp-MTMO-d009-169-n800
 OpenBabel09051908053D

 19 18  0  0  0  0  0  0  0  0999 V2000
   -0.5989    1.0070    0.0966 C   0  0  0  0  0  0  0  0  0  0  0  0
    0.6910    0.5464   -0.1703 C   0  0  0  0  0  0  0  0  0  0  0  0
    1.3948   -0.0963    0.8440 C   0  0  0  0  0  0  0  0  0  0  0  0
    0.8546   -0.2887    2.1120 C   0  0  0  0  0  0  0  0  0  0  0  0
   -0.4346    0.1805    2.3656 C   0  0  0  0  0  0  0  0  0  0  0  0
   -1.1614    0.8256    1.3620 C   0  0  0  0  0  0  0  0  0  0  0  0
   -1.1624    1.5064   -0.6855 H   0  0  0  0  0  0  0  0  0  0  0  0
    1.1509    0.6743   -1.1439 H   0  0  0  0  0  0  0  0  0  0  0  0
    6.3412    0.6597   -2.1403 N   0  0  0  0  0  0  0  0  0  0  0  0
    7.2800    0.3506   -2.6322 N   0  0  0  0  0  0  0  0  0  0  0  0
   -2.1650    1.1852    1.5659 H   0  0  0  0  0  0  0  0  0  0  0  0
   -0.8709    0.0385    3.3496 H   0  0  0  0  0  0  0  0  0  0  0  0
    1.4381   -0.7900    2.8753 H   0  0  0  0  0  0  0  0  0  0  0  0
    4.0068    0.2015    0.9602 S   0  0  0  0  0  0  0  0  0  0  0  0
    5.1032   -0.7030    0.6738 O   0  0  0  0  0  0  0  0  0  0  0  0
    2.6621   -0.6376    0.5390 O   0  0  0  0  0  0  0  0  0  0  0  0
    3.8061    0.8369    2.2433 O   0  0  0  0  0  0  0  0  0  0  0  0
    4.0156    1.3852   -0.1507 O   0  0  0  0  0  0  0  0  0  0  0  0
    4.6106    1.1093   -0.8730 H   0  0  0  0  0  0  0  0  0  0  0  0
  1  6  1  0  0  0  0
  2  1  2  0  0  0  0
  2  3  1  0  0  0  0
  3  4  2  0  0  0  0
  4  5  1  0  0  0  0
  4 13  1  0  0  0  0
  5 12  1  0  0  0  0
  6 11  1  0  0  0  0
  6  5  2  0  0  0  0
  7  1  1  0  0  0  0
  8  2  1  0  0  0  0
 10  9  3  0  0  0  0
 14 17  2  0  0  0  0
 15 14  2  0  0  0  0
 16  3  1  0  0  0  0
 16 14  1  0  0  0  0
 18 14  1  0  0  0  0
 19 18  1  0  0  0  0
M  END
