Coordinates from ORCA-job Ph-N2-HSO4-B3LYPG-6-31G_dp-MTMO-d009-169-n800
 OpenBabel09051908053D

 19 17  0  0  0  0  0  0  0  0999 V2000
   -0.8762    0.6390   -0.6882 C   0  0  0  0  0  0  0  0  0  0  0  0
    0.4061    0.4091   -1.2235 C   0  0  0  0  0  0  0  0  0  0  0  0
    1.3066    0.1976   -0.2255 C   0  0  0  0  0  0  0  0  0  0  0  0
    1.2924    0.1597    1.1180 C   0  0  0  0  0  0  0  0  0  0  0  0
   -0.0247    0.3907    1.5800 C   0  0  0  0  0  0  0  0  0  0  0  0
   -1.0796    0.6274    0.6951 C   0  0  0  0  0  0  0  0  0  0  0  0
   -1.6958    0.8248   -1.3749 H   0  0  0  0  0  0  0  0  0  0  0  0
    0.6246    0.4085   -2.2824 H   0  0  0  0  0  0  0  0  0  0  0  0
    3.0840   -0.2102   -1.0003 N   0  0  0  0  0  0  0  0  0  0  0  0
    3.8676   -0.6859   -1.6200 N   0  0  0  0  0  0  0  0  0  0  0  0
   -2.0745    0.8097    1.0876 H   0  0  0  0  0  0  0  0  0  0  0  0
   -0.1869    0.3885    2.6536 H   0  0  0  0  0  0  0  0  0  0  0  0
    2.1720   -0.0135    1.7767 H   0  0  0  0  0  0  0  0  0  0  0  0
    4.7094    0.4328    1.6242 S   0  0  0  0  0  0  0  0  0  0  0  0
    5.7156   -0.4332    0.9869 O   0  0  0  0  0  0  0  0  0  0  0  0
    4.0024    1.3348    0.6646 O   0  0  0  0  0  0  0  0  0  0  0  0
    3.7500   -0.2496    2.5379 O   0  0  0  0  0  0  0  0  0  0  0  0
    5.5472    1.4275    2.6440 O   0  0  0  0  0  0  0  0  0  0  0  0
    6.4215    1.5339    2.2377 H   0  0  0  0  0  0  0  0  0  0  0  0
  1  6  1  0  0  0  0
  2  1  2  0  0  0  0
  2  3  1  0  0  0  0
  3  4  2  0  0  0  0
  4  5  1  0  0  0  0
  4 13  1  0  0  0  0
  5 12  1  0  0  0  0
  6 11  1  0  0  0  0
  6  5  2  0  0  0  0
  7  1  1  0  0  0  0
  8  2  1  0  0  0  0
 10  9  3  0  0  0  0
 14 17  1  0  0  0  0
 14 18  1  0  0  0  0
 15 14  2  0  0  0  0
 16 14  2  0  0  0  0
 19 18  1  0  0  0  0
M  RAD  2   3   2  17   2
M  END
