Coordinates from ORCA-job Ph-N2-HSO4-B3LYPG-6-31G_dp-MTMO-d009-169-n800
 OpenBabel09051908053D

 19 18  0  0  0  0  0  0  0  0999 V2000
   -1.2374    0.9731    0.4952 C   0  0  0  0  0  0  0  0  0  0  0  0
    0.0295    0.4082    0.3419 C   0  0  0  0  0  0  0  0  0  0  0  0
    0.6064   -0.2430    1.4280 C   0  0  0  0  0  0  0  0  0  0  0  0
   -0.0376   -0.3440    2.6578 C   0  0  0  0  0  0  0  0  0  0  0  0
   -1.3021    0.2282    2.7974 C   0  0  0  0  0  0  0  0  0  0  0  0
   -1.9026    0.8842    1.7199 C   0  0  0  0  0  0  0  0  0  0  0  0
   -1.7027    1.4808   -0.3440 H   0  0  0  0  0  0  0  0  0  0  0  0
    0.5656    0.4619   -0.5991 H   0  0  0  0  0  0  0  0  0  0  0  0
   12.8018    1.6927   -6.9777 N   0  0  0  0  0  0  0  0  0  0  0  0
   13.8494    1.7679   -7.3219 N   0  0  0  0  0  0  0  0  0  0  0  0
   -2.8883    1.3238    1.8341 H   0  0  0  0  0  0  0  0  0  0  0  0
   -1.8187    0.1583    3.7499 H   0  0  0  0  0  0  0  0  0  0  0  0
    0.4490   -0.8560    3.4798 H   0  0  0  0  0  0  0  0  0  0  0  0
    3.2150   -0.1331    1.7329 S   0  0  0  0  0  0  0  0  0  0  0  0
    4.2579   -1.1212    1.5476 O   0  0  0  0  0  0  0  0  0  0  0  0
    1.8467   -0.8901    1.2419 O   0  0  0  0  0  0  0  0  0  0  0  0
    2.9789    0.5710    2.9722 O   0  0  0  0  0  0  0  0  0  0  0  0
    3.3814    1.0143    0.5879 O   0  0  0  0  0  0  0  0  0  0  0  0
    3.8693    0.6145   -0.1524 H   0  0  0  0  0  0  0  0  0  0  0  0
  1  6  1  0  0  0  0
  2  1  2  0  0  0  0
  2  3  1  0  0  0  0
  3  4  2  0  0  0  0
  4  5  1  0  0  0  0
  4 13  1  0  0  0  0
  5 12  1  0  0  0  0
  6 11  1  0  0  0  0
  6  5  2  0  0  0  0
  7  1  1  0  0  0  0
  8  2  1  0  0  0  0
 10  9  3  0  0  0  0
 14 17  2  0  0  0  0
 15 14  2  0  0  0  0
 16  3  1  0  0  0  0
 16 14  1  0  0  0  0
 18 14  1  0  0  0  0
 19 18  1  0  0  0  0
M  END
