Coordinates from ORCA-job Ph-N2-HSO4-B3LYPG-6-31G_dp-MTMO-d009-169-n800
 OpenBabel09051908053D

 19 18  0  0  0  0  0  0  0  0999 V2000
   -0.7068    1.0190    0.1606 C   0  0  0  0  0  0  0  0  0  0  0  0
    0.5607    0.4780   -0.0595 C   0  0  0  0  0  0  0  0  0  0  0  0
    1.2043   -0.1651    0.9935 C   0  0  0  0  0  0  0  0  0  0  0  0
    0.6266   -0.2808    2.2543 C   0  0  0  0  0  0  0  0  0  0  0  0
   -0.6395    0.2673    2.4605 C   0  0  0  0  0  0  0  0  0  0  0  0
   -1.3065    0.9146    1.4175 C   0  0  0  0  0  0  0  0  0  0  0  0
   -1.2240    1.5202   -0.6518 H   0  0  0  0  0  0  0  0  0  0  0  0
    1.0471    0.5445   -1.0263 H   0  0  0  0  0  0  0  0  0  0  0  0
    7.7562    1.0496   -3.1914 N   0  0  0  0  0  0  0  0  0  0  0  0
    8.7740    1.1206   -3.6163 N   0  0  0  0  0  0  0  0  0  0  0  0
   -2.2930    1.3353    1.5839 H   0  0  0  0  0  0  0  0  0  0  0  0
   -1.1050    0.1854    3.4380 H   0  0  0  0  0  0  0  0  0  0  0  0
    1.1643   -0.7860    3.0481 H   0  0  0  0  0  0  0  0  0  0  0  0
    3.8241    0.0006    1.1455 S   0  0  0  0  0  0  0  0  0  0  0  0
    4.8721   -0.9788    0.9430 O   0  0  0  0  0  0  0  0  0  0  0  0
    2.4452   -0.7893    0.7432 O   0  0  0  0  0  0  0  0  0  0  0  0
    3.6342    0.7401    2.3721 O   0  0  0  0  0  0  0  0  0  0  0  0
    3.9229    1.1123   -0.0418 O   0  0  0  0  0  0  0  0  0  0  0  0
    4.4047    0.7038   -0.7815 H   0  0  0  0  0  0  0  0  0  0  0  0
  1  6  1  0  0  0  0
  2  1  2  0  0  0  0
  2  3  1  0  0  0  0
  3  4  2  0  0  0  0
  4  5  1  0  0  0  0
  4 13  1  0  0  0  0
  5 12  1  0  0  0  0
  6 11  1  0  0  0  0
  6  5  2  0  0  0  0
  7  1  1  0  0  0  0
  8  2  1  0  0  0  0
 10  9  3  0  0  0  0
 14 17  2  0  0  0  0
 15 14  2  0  0  0  0
 16  3  1  0  0  0  0
 16 14  1  0  0  0  0
 18 14  1  0  0  0  0
 19 18  1  0  0  0  0
M  END
