Coordinates from ORCA-job Ph-N2-HSO4-B3LYPG-6-31G_dp-MTMO-d009-169-n800
 OpenBabel09051908053D

 19 18  0  0  0  0  0  0  0  0999 V2000
   -0.7660    1.0182    0.1930 C   0  0  0  0  0  0  0  0  0  0  0  0
    0.5061    0.4794   -0.0043 C   0  0  0  0  0  0  0  0  0  0  0  0
    1.1268   -0.1738    1.0563 C   0  0  0  0  0  0  0  0  0  0  0  0
    0.5214   -0.3017    2.3029 C   0  0  0  0  0  0  0  0  0  0  0  0
   -0.7489    0.2445    2.4865 C   0  0  0  0  0  0  0  0  0  0  0  0
   -1.3930    0.9018    1.4354 C   0  0  0  0  0  0  0  0  0  0  0  0
   -1.2653    1.5271   -0.6258 H   0  0  0  0  0  0  0  0  0  0  0  0
    1.0133    0.5548   -0.9597 H   0  0  0  0  0  0  0  0  0  0  0  0
    8.4448    1.1323   -3.8195 N   0  0  0  0  0  0  0  0  0  0  0  0
    9.4746    1.1721   -4.2189 N   0  0  0  0  0  0  0  0  0  0  0  0
   -2.3829    1.3212    1.5841 H   0  0  0  0  0  0  0  0  0  0  0  0
   -1.2358    0.1532    3.4527 H   0  0  0  0  0  0  0  0  0  0  0  0
    1.0416   -0.8144    3.1036 H   0  0  0  0  0  0  0  0  0  0  0  0
    3.7413   -0.0142    1.2794 S   0  0  0  0  0  0  0  0  0  0  0  0
    4.7958   -0.9836    1.0636 O   0  0  0  0  0  0  0  0  0  0  0  0
    2.3730   -0.7949    0.8264 O   0  0  0  0  0  0  0  0  0  0  0  0
    3.5276    0.6845    2.5258 O   0  0  0  0  0  0  0  0  0  0  0  0
    3.8556    1.1370    0.1319 O   0  0  0  0  0  0  0  0  0  0  0  0
    4.3315    0.7479   -0.6218 H   0  0  0  0  0  0  0  0  0  0  0  0
  1  6  1  0  0  0  0
  2  1  2  0  0  0  0
  2  3  1  0  0  0  0
  3  4  2  0  0  0  0
  4  5  1  0  0  0  0
  4 13  1  0  0  0  0
  5 12  1  0  0  0  0
  6 11  1  0  0  0  0
  6  5  2  0  0  0  0
  7  1  1  0  0  0  0
  8  2  1  0  0  0  0
 10  9  3  0  0  0  0
 14 17  2  0  0  0  0
 15 14  2  0  0  0  0
 16  3  1  0  0  0  0
 16 14  1  0  0  0  0
 18 14  1  0  0  0  0
 19 18  1  0  0  0  0
M  END
