Coordinates from ORCA-job Ph-N2-HSO4-B3LYPG-6-31G_dp-MTMO-d009-169-n800
 OpenBabel09051908053D

 19 17  0  0  0  0  0  0  0  0999 V2000
   -0.8939    0.7605   -0.5568 C   0  0  0  0  0  0  0  0  0  0  0  0
    0.2855    0.4123   -1.2498 C   0  0  0  0  0  0  0  0  0  0  0  0
    1.2479    0.1111   -0.3431 C   0  0  0  0  0  0  0  0  0  0  0  0
    1.4234    0.0381    0.9637 C   0  0  0  0  0  0  0  0  0  0  0  0
    0.1972    0.3981    1.5914 C   0  0  0  0  0  0  0  0  0  0  0  0
   -0.9287    0.7483    0.8425 C   0  0  0  0  0  0  0  0  0  0  0  0
   -1.7678    1.0355   -1.1394 H   0  0  0  0  0  0  0  0  0  0  0  0
    0.3778    0.4022   -2.3268 H   0  0  0  0  0  0  0  0  0  0  0  0
    2.9502   -0.5449   -1.4648 N   0  0  0  0  0  0  0  0  0  0  0  0
    3.8062   -0.9386   -2.0394 N   0  0  0  0  0  0  0  0  0  0  0  0
   -1.8463    1.0205    1.3536 H   0  0  0  0  0  0  0  0  0  0  0  0
    0.1762    0.4037    2.6776 H   0  0  0  0  0  0  0  0  0  0  0  0
    2.3951   -0.1979    1.5540 H   0  0  0  0  0  0  0  0  0  0  0  0
    4.7854    0.4591    1.5748 S   0  0  0  0  0  0  0  0  0  0  0  0
    6.1138   -0.1599    1.5921 O   0  0  0  0  0  0  0  0  0  0  0  0
    4.2810    0.9909    0.2949 O   0  0  0  0  0  0  0  0  0  0  0  0
    3.7323   -0.3966    2.2542 O   0  0  0  0  0  0  0  0  0  0  0  0
    4.9139    1.7988    2.5414 O   0  0  0  0  0  0  0  0  0  0  0  0
    5.7123    1.6499    3.0713 H   0  0  0  0  0  0  0  0  0  0  0  0
  1  6  1  0  0  0  0
  2  1  2  0  0  0  0
  2  3  1  0  0  0  0
  3  4  2  0  0  0  0
  4 13  1  0  0  0  0
  4  5  1  0  0  0  0
  5 12  1  0  0  0  0
  6 11  1  0  0  0  0
  6  5  2  0  0  0  0
  7  1  1  0  0  0  0
  8  2  1  0  0  0  0
 10  9  3  0  0  0  0
 14 15  2  0  0  0  0
 14 17  1  0  0  0  0
 14 18  1  0  0  0  0
 16 14  2  0  0  0  0
 18 19  1  0  0  0  0
M  RAD  2   3   2  17   2
M  END
