Coordinates from ORCA-job Ph-N2-HSO4-B3LYPG-6-31G_dp-MTMO-d009-169-n800
 OpenBabel09051908053D

 19 17  0  0  0  0  0  0  0  0999 V2000
   -0.8834    0.6017   -0.6992 C   0  0  0  0  0  0  0  0  0  0  0  0
    0.4070    0.3986   -1.2237 C   0  0  0  0  0  0  0  0  0  0  0  0
    1.3140    0.2251   -0.2225 C   0  0  0  0  0  0  0  0  0  0  0  0
    1.2857    0.2064    1.1241 C   0  0  0  0  0  0  0  0  0  0  0  0
   -0.0382    0.4081    1.5765 C   0  0  0  0  0  0  0  0  0  0  0  0
   -1.0942    0.6044    0.6830 C   0  0  0  0  0  0  0  0  0  0  0  0
   -1.7044    0.7558   -1.3921 H   0  0  0  0  0  0  0  0  0  0  0  0
    0.6298    0.3876   -2.2818 H   0  0  0  0  0  0  0  0  0  0  0  0
    3.0900   -0.1317   -0.9742 N   0  0  0  0  0  0  0  0  0  0  0  0
    3.8430   -0.5939   -1.6419 N   0  0  0  0  0  0  0  0  0  0  0  0
   -2.0958    0.7652    1.0677 H   0  0  0  0  0  0  0  0  0  0  0  0
   -0.2073    0.4142    2.6490 H   0  0  0  0  0  0  0  0  0  0  0  0
    2.1596    0.0593    1.7894 H   0  0  0  0  0  0  0  0  0  0  0  0
    4.7192    0.4060    1.6476 S   0  0  0  0  0  0  0  0  0  0  0  0
    5.6811   -0.5000    0.9987 O   0  0  0  0  0  0  0  0  0  0  0  0
    4.0267    1.3227    0.6846 O   0  0  0  0  0  0  0  0  0  0  0  0
    3.7547   -0.2244    2.5871 O   0  0  0  0  0  0  0  0  0  0  0  0
    5.6087    1.3911    2.6313 O   0  0  0  0  0  0  0  0  0  0  0  0
    6.4653    1.4950    2.1879 H   0  0  0  0  0  0  0  0  0  0  0  0
  1  6  1  0  0  0  0
  2  1  2  0  0  0  0
  2  3  1  0  0  0  0
  3  4  2  0  0  0  0
  4  5  1  0  0  0  0
  4 13  1  0  0  0  0
  5 12  1  0  0  0  0
  6 11  1  0  0  0  0
  6  5  2  0  0  0  0
  7  1  1  0  0  0  0
  8  2  1  0  0  0  0
 10  9  3  0  0  0  0
 14 17  1  0  0  0  0
 14 18  1  0  0  0  0
 15 14  2  0  0  0  0
 16 14  2  0  0  0  0
 19 18  1  0  0  0  0
M  RAD  2   3   2  17   2
M  END
