Coordinates from ORCA-job Ph-N2-HSO4-B3LYPG-6-31G_dp-MTMO-d009-169-n800
 OpenBabel09051908053D

 19 18  0  0  0  0  0  0  0  0999 V2000
   -0.8605    1.0119    0.2520 C   0  0  0  0  0  0  0  0  0  0  0  0
    0.4122    0.4688    0.0708 C   0  0  0  0  0  0  0  0  0  0  0  0
    1.0164   -0.1883    1.1384 C   0  0  0  0  0  0  0  0  0  0  0  0
    0.3940   -0.3160    2.3767 C   0  0  0  0  0  0  0  0  0  0  0  0
   -0.8767    0.2345    2.5443 C   0  0  0  0  0  0  0  0  0  0  0  0
   -1.5044    0.8958    1.4858 C   0  0  0  0  0  0  0  0  0  0  0  0
   -1.3470    1.5239   -0.5725 H   0  0  0  0  0  0  0  0  0  0  0  0
    0.9323    0.5438   -0.8777 H   0  0  0  0  0  0  0  0  0  0  0  0
    9.3768    1.2561   -4.5445 N   0  0  0  0  0  0  0  0  0  0  0  0
   10.4160    1.2891   -4.9193 N   0  0  0  0  0  0  0  0  0  0  0  0
   -2.4947    1.3185    1.6219 H   0  0  0  0  0  0  0  0  0  0  0  0
   -1.3768    0.1434    3.5038 H   0  0  0  0  0  0  0  0  0  0  0  0
    0.9016   -0.8318    3.1835 H   0  0  0  0  0  0  0  0  0  0  0  0
    3.6279   -0.0393    1.3988 S   0  0  0  0  0  0  0  0  0  0  0  0
    4.6824   -1.0099    1.1891 O   0  0  0  0  0  0  0  0  0  0  0  0
    2.2633   -0.8134    0.9239 O   0  0  0  0  0  0  0  0  0  0  0  0
    3.4011    0.6517    2.6472 O   0  0  0  0  0  0  0  0  0  0  0  0
    3.7585    1.1194    0.2606 O   0  0  0  0  0  0  0  0  0  0  0  0
    4.2394    0.7330   -0.4913 H   0  0  0  0  0  0  0  0  0  0  0  0
  1  6  1  0  0  0  0
  2  1  2  0  0  0  0
  2  3  1  0  0  0  0
  3  4  2  0  0  0  0
  4  5  1  0  0  0  0
  4 13  1  0  0  0  0
  5 12  1  0  0  0  0
  6 11  1  0  0  0  0
  6  5  2  0  0  0  0
  7  1  1  0  0  0  0
  8  2  1  0  0  0  0
 10  9  3  0  0  0  0
 14 17  2  0  0  0  0
 15 14  2  0  0  0  0
 16  3  1  0  0  0  0
 16 14  1  0  0  0  0
 18 14  1  0  0  0  0
 19 18  1  0  0  0  0
M  END
