Coordinates from ORCA-job Ph-N2-HSO4-B3LYPG-6-31G_dp-MTMO-d009-169-n800
 OpenBabel09051908053D

 19 18  0  0  0  0  0  0  0  0999 V2000
   -0.3514    1.0232   -0.0706 C   0  0  0  0  0  0  0  0  0  0  0  0
    0.9782    0.6282   -0.2227 C   0  0  0  0  0  0  0  0  0  0  0  0
    1.6017   -0.0453    0.8238 C   0  0  0  0  0  0  0  0  0  0  0  0
    0.9400   -0.3325    2.0146 C   0  0  0  0  0  0  0  0  0  0  0  0
   -0.3875    0.0728    2.1549 C   0  0  0  0  0  0  0  0  0  0  0  0
   -1.0337    0.7480    1.1164 C   0  0  0  0  0  0  0  0  0  0  0  0
   -0.8516    1.5457   -0.8803 H   0  0  0  0  0  0  0  0  0  0  0  0
    1.5292    0.8287   -1.1350 H   0  0  0  0  0  0  0  0  0  0  0  0
    5.3070    0.4617   -2.1929 N   0  0  0  0  0  0  0  0  0  0  0  0
    5.7181   -0.1683   -3.0009 N   0  0  0  0  0  0  0  0  0  0  0  0
   -2.0673    1.0587    1.2321 H   0  0  0  0  0  0  0  0  0  0  0  0
   -0.9171   -0.1427    3.0779 H   0  0  0  0  0  0  0  0  0  0  0  0
    1.4623   -0.8543    2.8077 H   0  0  0  0  0  0  0  0  0  0  0  0
    4.1638    0.3184    1.2949 S   0  0  0  0  0  0  0  0  0  0  0  0
    5.3280   -0.4833    0.9753 O   0  0  0  0  0  0  0  0  0  0  0  0
    2.9155   -0.5149    0.6251 O   0  0  0  0  0  0  0  0  0  0  0  0
    3.8240    0.7407    2.6344 O   0  0  0  0  0  0  0  0  0  0  0  0
    4.1770    1.6611    0.3880 O   0  0  0  0  0  0  0  0  0  0  0  0
    4.6255    1.4454   -0.4515 H   0  0  0  0  0  0  0  0  0  0  0  0
  1  6  1  0  0  0  0
  2  1  2  0  0  0  0
  2  3  1  0  0  0  0
  3  4  2  0  0  0  0
  4  5  1  0  0  0  0
  4 13  1  0  0  0  0
  5 12  1  0  0  0  0
  6 11  1  0  0  0  0
  6  5  2  0  0  0  0
  7  1  1  0  0  0  0
  8  2  1  0  0  0  0
 10  9  3  0  0  0  0
 14 17  2  0  0  0  0
 15 14  2  0  0  0  0
 16  3  1  0  0  0  0
 16 14  1  0  0  0  0
 18 14  1  0  0  0  0
 19 18  1  0  0  0  0
M  END
