Coordinates from ORCA-job Ph-N2-HSO4-B3LYPG-6-31G_dp-MTMO-d009-169-n800
 OpenBabel09051908053D

 19 18  0  0  0  0  0  0  0  0999 V2000
   -0.2713    1.0381   -0.1165 C   0  0  0  0  0  0  0  0  0  0  0  0
    1.0691    0.6703   -0.2395 C   0  0  0  0  0  0  0  0  0  0  0  0
    1.6733   -0.0225    0.8059 C   0  0  0  0  0  0  0  0  0  0  0  0
    0.9811   -0.3554    1.9672 C   0  0  0  0  0  0  0  0  0  0  0  0
   -0.3570    0.0229    2.0787 C   0  0  0  0  0  0  0  0  0  0  0  0
   -0.9839    0.7171    1.0409 C   0  0  0  0  0  0  0  0  0  0  0  0
   -0.7564    1.5755   -0.9259 H   0  0  0  0  0  0  0  0  0  0  0  0
    1.6425    0.9063   -1.1291 H   0  0  0  0  0  0  0  0  0  0  0  0
    4.9527    0.3685   -2.1383 N   0  0  0  0  0  0  0  0  0  0  0  0
    5.1448   -0.3390   -2.9638 N   0  0  0  0  0  0  0  0  0  0  0  0
   -2.0257    1.0074    1.1341 H   0  0  0  0  0  0  0  0  0  0  0  0
   -0.9099   -0.2283    2.9787 H   0  0  0  0  0  0  0  0  0  0  0  0
    1.4887   -0.8912    2.7606 H   0  0  0  0  0  0  0  0  0  0  0  0
    4.2134    0.3682    1.3718 S   0  0  0  0  0  0  0  0  0  0  0  0
    5.3985   -0.4071    1.0660 O   0  0  0  0  0  0  0  0  0  0  0  0
    3.0007   -0.4630    0.6347 O   0  0  0  0  0  0  0  0  0  0  0  0
    3.8255    0.7464    2.7113 O   0  0  0  0  0  0  0  0  0  0  0  0
    4.2296    1.7388    0.5069 O   0  0  0  0  0  0  0  0  0  0  0  0
    4.6460    1.5385   -0.3521 H   0  0  0  0  0  0  0  0  0  0  0  0
  1  6  1  0  0  0  0
  2  1  2  0  0  0  0
  2  3  1  0  0  0  0
  3  4  2  0  0  0  0
  4  5  1  0  0  0  0
  4 13  1  0  0  0  0
  5 12  1  0  0  0  0
  6 11  1  0  0  0  0
  6  5  2  0  0  0  0
  7  1  1  0  0  0  0
  8  2  1  0  0  0  0
 10  9  3  0  0  0  0
 14 17  2  0  0  0  0
 15 14  2  0  0  0  0
 16  3  1  0  0  0  0
 16 14  1  0  0  0  0
 18 14  1  0  0  0  0
 19 18  1  0  0  0  0
M  END
