Coordinates from ORCA-job Ph-N2-HSO4-B3LYPG-6-31G_dp-MTMO-d009-169-n800
 OpenBabel09051908053D

 19 18  0  0  0  0  0  0  0  0999 V2000
   -0.0249    1.3897    0.1245 C   0  0  0  0  0  0  0  0  0  0  0  0
    1.3539    1.1722    0.1431 C   0  0  0  0  0  0  0  0  0  0  0  0
    1.8515    0.1230    0.9127 C   0  0  0  0  0  0  0  0  0  0  0  0
    1.0134   -0.7088    1.6500 C   0  0  0  0  0  0  0  0  0  0  0  0
   -0.3634   -0.4860    1.6110 C   0  0  0  0  0  0  0  0  0  0  0  0
   -0.8842    0.5638    0.8515 C   0  0  0  0  0  0  0  0  0  0  0  0
   -0.4260    2.2090   -0.4648 H   0  0  0  0  0  0  0  0  0  0  0  0
    2.0283    1.8091   -0.4166 H   0  0  0  0  0  0  0  0  0  0  0  0
    4.0835   -0.4463   -1.9361 N   0  0  0  0  0  0  0  0  0  0  0  0
    3.6336   -1.3123   -2.4532 N   0  0  0  0  0  0  0  0  0  0  0  0
   -1.9556    0.7392    0.8280 H   0  0  0  0  0  0  0  0  0  0  0  0
   -1.0259   -1.1309    2.1801 H   0  0  0  0  0  0  0  0  0  0  0  0
    1.4451   -1.5138    2.2349 H   0  0  0  0  0  0  0  0  0  0  0  0
    4.3397    0.8838    1.4371 S   0  0  0  0  0  0  0  0  0  0  0  0
    5.5388    0.0920    1.6082 O   0  0  0  0  0  0  0  0  0  0  0  0
    3.2211   -0.2067    0.9228 O   0  0  0  0  0  0  0  0  0  0  0  0
    3.7877    1.7470    2.4542 O   0  0  0  0  0  0  0  0  0  0  0  0
    4.4965    1.8127    0.1108 O   0  0  0  0  0  0  0  0  0  0  0  0
    4.8485    1.2547   -0.6068 H   0  0  0  0  0  0  0  0  0  0  0  0
  1  2  2  0  0  0  0
  1  6  1  0  0  0  0
  2  3  1  0  0  0  0
  3 16  1  0  0  0  0
  3  4  2  0  0  0  0
  4 13  1  0  0  0  0
  5  4  1  0  0  0  0
  5 12  1  0  0  0  0
  6  5  2  0  0  0  0
  7  1  1  0  0  0  0
  8  2  1  0  0  0  0
 10  9  3  0  0  0  0
 11  6  1  0  0  0  0
 14 15  2  0  0  0  0
 14 17  2  0  0  0  0
 16 14  1  0  0  0  0
 18 14  1  0  0  0  0
 19 18  1  0  0  0  0
M  END
