Coordinates from ORCA-job Ph-N2-HSO4-B3LYPG-6-31G_dp-MTMO-d009-169-n800
 OpenBabel09051908053D

 19 18  0  0  0  0  0  0  0  0999 V2000
   -0.6763    1.0306    0.1715 C   0  0  0  0  0  0  0  0  0  0  0  0
    0.5916    0.5204   -0.1110 C   0  0  0  0  0  0  0  0  0  0  0  0
    1.2892   -0.1307    0.9019 C   0  0  0  0  0  0  0  0  0  0  0  0
    0.7661   -0.2844    2.1818 C   0  0  0  0  0  0  0  0  0  0  0  0
   -0.5020    0.2318    2.4500 C   0  0  0  0  0  0  0  0  0  0  0  0
   -1.2230    0.8869    1.4486 C   0  0  0  0  0  0  0  0  0  0  0  0
   -1.2356    1.5384   -0.6083 H   0  0  0  0  0  0  0  0  0  0  0  0
    1.0390    0.6179   -1.0938 H   0  0  0  0  0  0  0  0  0  0  0  0
    6.9476    0.8388   -2.3281 N   0  0  0  0  0  0  0  0  0  0  0  0
    7.9772    0.8984   -2.7238 N   0  0  0  0  0  0  0  0  0  0  0  0
   -2.2102    1.2836    1.6636 H   0  0  0  0  0  0  0  0  0  0  0  0
   -0.9260    0.1196    3.4431 H   0  0  0  0  0  0  0  0  0  0  0  0
    1.3456   -0.7951    2.9421 H   0  0  0  0  0  0  0  0  0  0  0  0
    3.9138    0.1052    0.8893 S   0  0  0  0  0  0  0  0  0  0  0  0
    4.9709   -0.8797    0.7716 O   0  0  0  0  0  0  0  0  0  0  0  0
    2.5324   -0.7251    0.5914 O   0  0  0  0  0  0  0  0  0  0  0  0
    3.7324    0.9564    2.0436 O   0  0  0  0  0  0  0  0  0  0  0  0
    3.9929    1.0835   -0.4110 O   0  0  0  0  0  0  0  0  0  0  0  0
    4.6362    0.6949   -1.0309 H   0  0  0  0  0  0  0  0  0  0  0  0
  1  6  1  0  0  0  0
  2  1  2  0  0  0  0
  2  3  1  0  0  0  0
  3  4  2  0  0  0  0
  4  5  1  0  0  0  0
  4 13  1  0  0  0  0
  5 12  1  0  0  0  0
  6 11  1  0  0  0  0
  6  5  2  0  0  0  0
  7  1  1  0  0  0  0
  8  2  1  0  0  0  0
 10  9  3  0  0  0  0
 14 17  2  0  0  0  0
 15 14  2  0  0  0  0
 16 14  1  0  0  0  0
 16  3  1  0  0  0  0
 18 14  1  0  0  0  0
 19 18  1  0  0  0  0
M  END
