Coordinates from ORCA-job Ph-N2-HSO4-B3LYPG-6-31G_dp-MTMO-d009-169-n800
 OpenBabel09051908053D

 19 18  0  0  0  0  0  0  0  0999 V2000
   -1.0076    0.9979    0.3457 C   0  0  0  0  0  0  0  0  0  0  0  0
    0.2628    0.4448    0.1795 C   0  0  0  0  0  0  0  0  0  0  0  0
    0.8522   -0.2108    1.2563 C   0  0  0  0  0  0  0  0  0  0  0  0
    0.2172   -0.3275    2.4893 C   0  0  0  0  0  0  0  0  0  0  0  0
   -1.0511    0.2329    2.6419 C   0  0  0  0  0  0  0  0  0  0  0  0
   -1.6640    0.8930    1.5739 C   0  0  0  0  0  0  0  0  0  0  0  0
   -1.4827    1.5088   -0.4861 H   0  0  0  0  0  0  0  0  0  0  0  0
    0.7923    0.5109   -0.7645 H   0  0  0  0  0  0  0  0  0  0  0  0
   10.7462    1.4370   -5.5366 N   0  0  0  0  0  0  0  0  0  0  0  0
   11.7910    1.4838   -5.8942 N   0  0  0  0  0  0  0  0  0  0  0  0
   -2.6525    1.3234    1.6983 H   0  0  0  0  0  0  0  0  0  0  0  0
   -1.5609    0.1506    3.5970 H   0  0  0  0  0  0  0  0  0  0  0  0
    0.7134   -0.8424    3.3036 H   0  0  0  0  0  0  0  0  0  0  0  0
    3.4619   -0.0798    1.5421 S   0  0  0  0  0  0  0  0  0  0  0  0
    4.5116   -1.0584    1.3451 O   0  0  0  0  0  0  0  0  0  0  0  0
    2.0965   -0.8459    1.0568 O   0  0  0  0  0  0  0  0  0  0  0  0
    3.2284    0.6165    2.7863 O   0  0  0  0  0  0  0  0  0  0  0  0
    3.6109    1.0744    0.4016 O   0  0  0  0  0  0  0  0  0  0  0  0
    4.0960    0.6821   -0.3445 H   0  0  0  0  0  0  0  0  0  0  0  0
  1  6  1  0  0  0  0
  2  1  2  0  0  0  0
  2  3  1  0  0  0  0
  3  4  2  0  0  0  0
  4  5  1  0  0  0  0
  4 13  1  0  0  0  0
  5 12  1  0  0  0  0
  6 11  1  0  0  0  0
  6  5  2  0  0  0  0
  7  1  1  0  0  0  0
  8  2  1  0  0  0  0
 10  9  3  0  0  0  0
 14 17  2  0  0  0  0
 15 14  2  0  0  0  0
 16  3  1  0  0  0  0
 16 14  1  0  0  0  0
 18 14  1  0  0  0  0
 19 18  1  0  0  0  0
M  END
