Coordinates from ORCA-job Ph-N2-HSO4-B3LYPG-6-31G_dp-MTMO-d009-169-n800
 OpenBabel09051908053D

 19 17  0  0  0  0  0  0  0  0999 V2000
   -1.0021    0.7726   -0.4761 C   0  0  0  0  0  0  0  0  0  0  0  0
    0.1991    0.5291   -1.1873 C   0  0  0  0  0  0  0  0  0  0  0  0
    1.1541    0.2693   -0.2501 C   0  0  0  0  0  0  0  0  0  0  0  0
    1.2560    0.1934    1.0056 C   0  0  0  0  0  0  0  0  0  0  0  0
    0.0600    0.4333    1.7201 C   0  0  0  0  0  0  0  0  0  0  0  0
   -1.0643    0.7249    0.9278 C   0  0  0  0  0  0  0  0  0  0  0  0
   -1.8967    1.0008   -1.0494 H   0  0  0  0  0  0  0  0  0  0  0  0
    0.2904    0.5540   -2.2647 H   0  0  0  0  0  0  0  0  0  0  0  0
    3.1973   -0.5440   -2.3238 N   0  0  0  0  0  0  0  0  0  0  0  0
    4.1152   -1.0803   -2.6245 N   0  0  0  0  0  0  0  0  0  0  0  0
   -2.0153    0.9218    1.4153 H   0  0  0  0  0  0  0  0  0  0  0  0
   -0.0032    0.4005    2.8037 H   0  0  0  0  0  0  0  0  0  0  0  0
    2.8802   -0.1494    1.8429 H   0  0  0  0  0  0  0  0  0  0  0  0
    4.9795    0.3319    1.6544 S   0  0  0  0  0  0  0  0  0  0  0  0
    6.1523   -0.2436    2.2825 O   0  0  0  0  0  0  0  0  0  0  0  0
    4.7723    0.3521    0.2202 O   0  0  0  0  0  0  0  0  0  0  0  0
    3.7116   -0.3278    2.3774 O   0  0  0  0  0  0  0  0  0  0  0  0
    4.8712    1.8917    2.1252 O   0  0  0  0  0  0  0  0  0  0  0  0
    5.3042    1.9611    2.9924 H   0  0  0  0  0  0  0  0  0  0  0  0
  1  6  1  0  0  0  0
  2  1  2  0  0  0  0
  2  3  1  0  0  0  0
  3  4  2  0  0  0  0
  4  5  1  0  0  0  0
  5 12  1  0  0  0  0
  6 11  1  0  0  0  0
  6  5  2  0  0  0  0
  7  1  1  0  0  0  0
  8  2  1  0  0  0  0
 10  9  3  0  0  0  0
 13 17  1  0  0  0  0
 14 18  1  0  0  0  0
 14 15  2  0  0  0  0
 14 17  1  0  0  0  0
 16 14  2  0  0  0  0
 18 19  1  0  0  0  0
M  RAD  2   3   2   4   2
M  END
