Coordinates from ORCA-job Ph-N2-HSO4-B3LYPG-6-31G_dp-MTMO-d009-169-n800
 OpenBabel09051908053D

 19 18  0  0  0  0  0  0  0  0999 V2000
   -1.3548    0.9602    0.5739 C   0  0  0  0  0  0  0  0  0  0  0  0
   -0.0887    0.3930    0.4226 C   0  0  0  0  0  0  0  0  0  0  0  0
    0.4862   -0.2576    1.5102 C   0  0  0  0  0  0  0  0  0  0  0  0
   -0.1590   -0.3555    2.7396 C   0  0  0  0  0  0  0  0  0  0  0  0
   -1.4227    0.2191    2.8773 C   0  0  0  0  0  0  0  0  0  0  0  0
   -2.0212    0.8743    1.7983 C   0  0  0  0  0  0  0  0  0  0  0  0
   -1.8186    1.4674   -0.2665 H   0  0  0  0  0  0  0  0  0  0  0  0
    0.4483    0.4443   -0.5180 H   0  0  0  0  0  0  0  0  0  0  0  0
   13.8167    1.8143   -7.6726 N   0  0  0  0  0  0  0  0  0  0  0  0
   14.8646    1.8919   -8.0153 N   0  0  0  0  0  0  0  0  0  0  0  0
   -3.0062    1.3158    1.9109 H   0  0  0  0  0  0  0  0  0  0  0  0
   -1.9401    0.1515    3.8294 H   0  0  0  0  0  0  0  0  0  0  0  0
    0.3260   -0.8670    3.5628 H   0  0  0  0  0  0  0  0  0  0  0  0
    3.0947   -0.1520    1.8178 S   0  0  0  0  0  0  0  0  0  0  0  0
    4.1360   -1.1420    1.6342 O   0  0  0  0  0  0  0  0  0  0  0  0
    1.7255   -0.9070    1.3260 O   0  0  0  0  0  0  0  0  0  0  0  0
    2.8586    0.5535    3.0563 O   0  0  0  0  0  0  0  0  0  0  0  0
    3.2641    0.9942    0.6719 O   0  0  0  0  0  0  0  0  0  0  0  0
    3.7523    0.5930   -0.0674 H   0  0  0  0  0  0  0  0  0  0  0  0
  1  6  1  0  0  0  0
  2  1  2  0  0  0  0
  2  3  1  0  0  0  0
  3  4  2  0  0  0  0
  4  5  1  0  0  0  0
  4 13  1  0  0  0  0
  5 12  1  0  0  0  0
  6 11  1  0  0  0  0
  6  5  2  0  0  0  0
  7  1  1  0  0  0  0
  8  2  1  0  0  0  0
 10  9  3  0  0  0  0
 14 17  2  0  0  0  0
 15 14  2  0  0  0  0
 16  3  1  0  0  0  0
 16 14  1  0  0  0  0
 18 14  1  0  0  0  0
 19 18  1  0  0  0  0
M  END
