Coordinates from ORCA-job Ph-N2-HSO4-B3LYPG-6-31G_dp-MTMO-d009-169-n800
 OpenBabel09051908053D

 19 18  0  0  0  0  0  0  0  0999 V2000
   -0.3659    1.0179   -0.0632 C   0  0  0  0  0  0  0  0  0  0  0  0
    0.9612    0.6160   -0.2193 C   0  0  0  0  0  0  0  0  0  0  0  0
    1.5875   -0.0515    0.8294 C   0  0  0  0  0  0  0  0  0  0  0  0
    0.9311   -0.3262    2.0260 C   0  0  0  0  0  0  0  0  0  0  0  0
   -0.3939    0.0858    2.1702 C   0  0  0  0  0  0  0  0  0  0  0  0
   -1.0429    0.7551    1.1297 C   0  0  0  0  0  0  0  0  0  0  0  0
   -0.8684    1.5358   -0.8745 H   0  0  0  0  0  0  0  0  0  0  0  0
    1.5082    0.8069   -1.1360 H   0  0  0  0  0  0  0  0  0  0  0  0
    5.3779    0.4886   -2.2044 N   0  0  0  0  0  0  0  0  0  0  0  0
    5.8211   -0.1181   -3.0132 N   0  0  0  0  0  0  0  0  0  0  0  0
   -2.0746    1.0709    1.2484 H   0  0  0  0  0  0  0  0  0  0  0  0
   -0.9193   -0.1199    3.0978 H   0  0  0  0  0  0  0  0  0  0  0  0
    1.4556   -0.8437    2.8205 H   0  0  0  0  0  0  0  0  0  0  0  0
    4.1538    0.3056    1.2811 S   0  0  0  0  0  0  0  0  0  0  0  0
    5.3134   -0.5031    0.9614 O   0  0  0  0  0  0  0  0  0  0  0  0
    2.8982   -0.5285    0.6271 O   0  0  0  0  0  0  0  0  0  0  0  0
    3.8237    0.7404    2.6190 O   0  0  0  0  0  0  0  0  0  0  0  0
    4.1679    1.6401    0.3619 O   0  0  0  0  0  0  0  0  0  0  0  0
    4.6271    1.4192   -0.4706 H   0  0  0  0  0  0  0  0  0  0  0  0
  1  6  1  0  0  0  0
  2  1  2  0  0  0  0
  2  3  1  0  0  0  0
  3  4  2  0  0  0  0
  4  5  1  0  0  0  0
  4 13  1  0  0  0  0
  5 12  1  0  0  0  0
  6 11  1  0  0  0  0
  6  5  2  0  0  0  0
  7  1  1  0  0  0  0
  8  2  1  0  0  0  0
 10  9  3  0  0  0  0
 14 17  2  0  0  0  0
 15 14  2  0  0  0  0
 16  3  1  0  0  0  0
 16 14  1  0  0  0  0
 18 14  1  0  0  0  0
 19 18  1  0  0  0  0
M  END
