Coordinates from ORCA-job Ph-N2-HSO4-B3LYPG-6-31G_dp-MTMO-d009-169-n800
 OpenBabel09051908053D

 19 19  0  0  1  0  0  0  0  0999 V2000
   -0.5388   -0.1143   -0.2760 C   0  0  0  0  0  0  0  0  0  0  0  0
    0.3603    0.2666   -1.2084 C   0  0  0  0  0  0  0  0  0  0  0  0
    1.6327    0.8796   -0.8118 C   0  0  0  0  0  0  0  0  0  0  0  0
    2.0453    0.8450    0.6512 C   0  0  1  0  0  0  0  0  0  0  0  0
    0.9140    0.5661    1.5752 C   0  0  0  0  0  0  0  0  0  0  0  0
   -0.2669    0.0885    1.1340 C   0  0  0  0  0  0  0  0  0  0  0  0
   -1.4810   -0.5580   -0.5789 H   0  0  0  0  0  0  0  0  0  0  0  0
    0.1769    0.1526   -2.2724 H   0  0  0  0  0  0  0  0  0  0  0  0
    2.3315    1.3327   -1.5610 N   0  0  0  0  0  0  0  0  0  0  0  0
    3.0528    1.8010   -2.3299 N   0  0  0  0  0  0  0  0  0  0  0  0
   -1.0510   -0.1425    1.8496 H   0  0  0  0  0  0  0  0  0  0  0  0
    1.1080    0.7152    2.6320 H   0  0  0  0  0  0  0  0  0  0  0  0
    2.6061    1.7461    0.9101 H   0  0  0  0  0  0  0  0  0  0  0  0
    4.4397   -0.0162    1.5179 S   0  0  0  0  0  0  0  0  0  0  0  0
    5.2533   -1.1991    1.3459 O   0  0  0  0  0  0  0  0  0  0  0  0
    4.9505    1.3135    1.2045 O   0  0  0  0  0  0  0  0  0  0  0  0
    3.0508   -0.2980    0.7767 O   0  0  0  0  0  0  0  0  0  0  0  0
    3.8682    0.0479    3.0579 O   0  0  0  0  0  0  0  0  0  0  0  0
    4.5092    0.5649    3.5750 H   0  0  0  0  0  0  0  0  0  0  0  0
  1  6  1  0  0  0  0
  2  3  2  0  0  0  0
  2  1  1  0  0  0  0
  3  4  1  0  0  0  0
  4 17  1  0  0  0  0
  4 13  1  1  0  0  0
  4  5  1  0  0  0  0
  5 12  1  0  0  0  0
  6  5  2  0  0  0  0
  6 11  1  0  0  0  0
  7  1  1  0  0  0  0
  8  2  1  0  0  0  0
  9  3  1  0  0  0  0
 10  9  1  0  0  0  0
 14 18  1  0  0  0  0
 15 14  2  0  0  0  0
 16 14  2  0  0  0  0
 17 14  1  0  0  0  0
 18 19  1  0  0  0  0
M  RAD  3   1   2   9   2  10   3
M  END
