Coordinates from ORCA-job Ph-N2-HSO4-B3LYPG-6-31G_dp-MTMO-d009-169-n800
 OpenBabel09051908053D

 19 17  0  0  0  0  0  0  0  0999 V2000
   -0.9621    0.7253   -0.4755 C   0  0  0  0  0  0  0  0  0  0  0  0
    0.2997    0.5434   -1.0948 C   0  0  0  0  0  0  0  0  0  0  0  0
    1.1936    0.3389   -0.0862 C   0  0  0  0  0  0  0  0  0  0  0  0
    1.2038    0.2709    1.1738 C   0  0  0  0  0  0  0  0  0  0  0  0
   -0.0515    0.4501    1.7971 C   0  0  0  0  0  0  0  0  0  0  0  0
   -1.1266    0.6791    0.9203 C   0  0  0  0  0  0  0  0  0  0  0  0
   -1.8222    0.9045   -1.1153 H   0  0  0  0  0  0  0  0  0  0  0  0
    0.4708    0.5688   -2.1622 H   0  0  0  0  0  0  0  0  0  0  0  0
    3.2832   -0.4093   -2.5323 N   0  0  0  0  0  0  0  0  0  0  0  0
    4.2210   -0.9038   -2.8428 N   0  0  0  0  0  0  0  0  0  0  0  0
   -2.1206    0.8266    1.3337 H   0  0  0  0  0  0  0  0  0  0  0  0
   -0.1947    0.4155    2.8729 H   0  0  0  0  0  0  0  0  0  0  0  0
    2.8256   -0.0491    2.0339 H   0  0  0  0  0  0  0  0  0  0  0  0
    4.9339    0.2372    1.6583 S   0  0  0  0  0  0  0  0  0  0  0  0
    6.1046   -0.3287    2.2981 O   0  0  0  0  0  0  0  0  0  0  0  0
    4.6340    0.0644    0.2505 O   0  0  0  0  0  0  0  0  0  0  0  0
    3.6762   -0.2109    2.5427 O   0  0  0  0  0  0  0  0  0  0  0  0
    4.9609    1.8526    1.8925 O   0  0  0  0  0  0  0  0  0  0  0  0
    5.4322    2.0159    2.7267 H   0  0  0  0  0  0  0  0  0  0  0  0
  1  6  1  0  0  0  0
  2  1  2  0  0  0  0
  2  3  1  0  0  0  0
  3  4  2  0  0  0  0
  4  5  1  0  0  0  0
  5 12  1  0  0  0  0
  6 11  1  0  0  0  0
  6  5  2  0  0  0  0
  7  1  1  0  0  0  0
  8  2  1  0  0  0  0
 10  9  3  0  0  0  0
 13 17  1  0  0  0  0
 14 18  1  0  0  0  0
 14 15  2  0  0  0  0
 14 17  1  0  0  0  0
 16 14  2  0  0  0  0
 18 19  1  0  0  0  0
M  RAD  2   3   2   4   2
M  END
