Coordinates from ORCA-job Ph-N2-HSO4-B3LYPG-6-31G_dp-MTMO-d009-169-n800
 OpenBabel09051908053D

 19 18  0  0  0  0  0  0  0  0999 V2000
   -1.1115    0.9869    0.4125 C   0  0  0  0  0  0  0  0  0  0  0  0
    0.1570    0.4272    0.2540 C   0  0  0  0  0  0  0  0  0  0  0  0
    0.7390   -0.2261    1.3362 C   0  0  0  0  0  0  0  0  0  0  0  0
    0.0984   -0.3341    2.5672 C   0  0  0  0  0  0  0  0  0  0  0  0
   -1.1679    0.2330    2.7121 C   0  0  0  0  0  0  0  0  0  0  0  0
   -1.7734    0.8908    1.6386 C   0  0  0  0  0  0  0  0  0  0  0  0
   -1.5808    1.4961   -0.4236 H   0  0  0  0  0  0  0  0  0  0  0  0
    0.6906    0.4864   -0.6881 H   0  0  0  0  0  0  0  0  0  0  0  0
   11.6903    1.5545   -6.2055 N   0  0  0  0  0  0  0  0  0  0  0  0
   12.7368    1.6221   -6.5547 N   0  0  0  0  0  0  0  0  0  0  0  0
   -2.7604    1.3264    1.7569 H   0  0  0  0  0  0  0  0  0  0  0  0
   -1.6818    0.1575    3.6655 H   0  0  0  0  0  0  0  0  0  0  0  0
    0.5889   -0.8475    3.3859 H   0  0  0  0  0  0  0  0  0  0  0  0
    3.3480   -0.1069    1.6335 S   0  0  0  0  0  0  0  0  0  0  0  0
    4.3939   -1.0909    1.4435 O   0  0  0  0  0  0  0  0  0  0  0  0
    1.9811   -0.8680    1.1446 O   0  0  0  0  0  0  0  0  0  0  0  0
    3.1126    0.5939    2.8748 O   0  0  0  0  0  0  0  0  0  0  0  0
    3.5071    1.0433    0.4904 O   0  0  0  0  0  0  0  0  0  0  0  0
    3.9940    0.6467   -0.2523 H   0  0  0  0  0  0  0  0  0  0  0  0
  1  6  1  0  0  0  0
  2  1  2  0  0  0  0
  2  3  1  0  0  0  0
  3  4  2  0  0  0  0
  4  5  1  0  0  0  0
  4 13  1  0  0  0  0
  5 12  1  0  0  0  0
  6 11  1  0  0  0  0
  6  5  2  0  0  0  0
  7  1  1  0  0  0  0
  8  2  1  0  0  0  0
 10  9  3  0  0  0  0
 14 17  2  0  0  0  0
 15 14  2  0  0  0  0
 16  3  1  0  0  0  0
 16 14  1  0  0  0  0
 18 14  1  0  0  0  0
 19 18  1  0  0  0  0
M  END
