Coordinates from ORCA-job Ph-N2-HSO4-B3LYPG-6-31G_dp-MTMO-d009-169-n800
 OpenBabel09051908053D

 19 18  0  0  0  0  0  0  0  0999 V2000
   -0.7595    1.0184    0.1891 C   0  0  0  0  0  0  0  0  0  0  0  0
    0.5123    0.4795   -0.0099 C   0  0  0  0  0  0  0  0  0  0  0  0
    1.1348   -0.1728    1.0500 C   0  0  0  0  0  0  0  0  0  0  0  0
    0.5315   -0.3000    2.2978 C   0  0  0  0  0  0  0  0  0  0  0  0
   -0.7386    0.2462    2.4831 C   0  0  0  0  0  0  0  0  0  0  0  0
   -1.3845    0.9028    1.4326 C   0  0  0  0  0  0  0  0  0  0  0  0
   -1.2603    1.5266   -0.6292 H   0  0  0  0  0  0  0  0  0  0  0  0
    1.0179    0.5544   -0.9663 H   0  0  0  0  0  0  0  0  0  0  0  0
    8.3760    1.1241   -3.7608 N   0  0  0  0  0  0  0  0  0  0  0  0
    9.4047    1.1647   -4.1631 N   0  0  0  0  0  0  0  0  0  0  0  0
   -2.3742    1.3221    1.5827 H   0  0  0  0  0  0  0  0  0  0  0  0
   -1.2238    0.1555    3.4502 H   0  0  0  0  0  0  0  0  0  0  0  0
    1.0531   -0.8121    3.0979 H   0  0  0  0  0  0  0  0  0  0  0  0
    3.7497   -0.0127    1.2683 S   0  0  0  0  0  0  0  0  0  0  0  0
    4.8038   -0.9825    1.0525 O   0  0  0  0  0  0  0  0  0  0  0  0
    2.3806   -0.7941    0.8185 O   0  0  0  0  0  0  0  0  0  0  0  0
    3.5379    0.6880    2.5139 O   0  0  0  0  0  0  0  0  0  0  0  0
    3.8624    1.1367    0.1188 O   0  0  0  0  0  0  0  0  0  0  0  0
    4.3377    0.7465   -0.6348 H   0  0  0  0  0  0  0  0  0  0  0  0
  1  6  1  0  0  0  0
  2  1  2  0  0  0  0
  2  3  1  0  0  0  0
  3  4  2  0  0  0  0
  4  5  1  0  0  0  0
  4 13  1  0  0  0  0
  5 12  1  0  0  0  0
  6 11  1  0  0  0  0
  6  5  2  0  0  0  0
  7  1  1  0  0  0  0
  8  2  1  0  0  0  0
 10  9  3  0  0  0  0
 14 17  2  0  0  0  0
 15 14  2  0  0  0  0
 16  3  1  0  0  0  0
 16 14  1  0  0  0  0
 18 14  1  0  0  0  0
 19 18  1  0  0  0  0
M  END
