Coordinates from ORCA-job Ph-N2-HSO4-B3LYPG-6-31G_dp-MTMO-d009-169-n800
 OpenBabel09051908053D

 19 18  0  0  0  0  0  0  0  0999 V2000
   -0.2068    1.0445   -0.1553 C   0  0  0  0  0  0  0  0  0  0  0  0
    1.1404    0.6942   -0.2541 C   0  0  0  0  0  0  0  0  0  0  0  0
    1.7294   -0.0096    0.7926 C   0  0  0  0  0  0  0  0  0  0  0  0
    1.0147   -0.3704    1.9318 C   0  0  0  0  0  0  0  0  0  0  0  0
   -0.3301   -0.0096    2.0195 C   0  0  0  0  0  0  0  0  0  0  0  0
   -0.9415    0.6955    0.9798 C   0  0  0  0  0  0  0  0  0  0  0  0
   -0.6796    1.5904   -0.9662 H   0  0  0  0  0  0  0  0  0  0  0  0
    1.7294    0.9525   -1.1271 H   0  0  0  0  0  0  0  0  0  0  0  0
    4.6672    0.3185   -2.0830 N   0  0  0  0  0  0  0  0  0  0  0  0
    4.6811   -0.4329   -2.8920 N   0  0  0  0  0  0  0  0  0  0  0  0
   -1.9885    0.9725    1.0543 H   0  0  0  0  0  0  0  0  0  0  0  0
   -0.9000   -0.2830    2.9022 H   0  0  0  0  0  0  0  0  0  0  0  0
    1.5104   -0.9145    2.7273 H   0  0  0  0  0  0  0  0  0  0  0  0
    4.2521    0.3999    1.4248 S   0  0  0  0  0  0  0  0  0  0  0  0
    5.4513   -0.3579    1.1326 O   0  0  0  0  0  0  0  0  0  0  0  0
    3.0651   -0.4327    0.6465 O   0  0  0  0  0  0  0  0  0  0  0  0
    3.8310    0.7531    2.7610 O   0  0  0  0  0  0  0  0  0  0  0  0
    4.2688    1.7854    0.5830 O   0  0  0  0  0  0  0  0  0  0  0  0
    4.6673    1.5954   -0.2862 H   0  0  0  0  0  0  0  0  0  0  0  0
  1  6  1  0  0  0  0
  2  1  2  0  0  0  0
  2  3  1  0  0  0  0
  3  4  2  0  0  0  0
  4  5  1  0  0  0  0
  4 13  1  0  0  0  0
  5 12  1  0  0  0  0
  6 11  1  0  0  0  0
  6  5  2  0  0  0  0
  7  1  1  0  0  0  0
  8  2  1  0  0  0  0
 10  9  3  0  0  0  0
 14 17  2  0  0  0  0
 15 14  2  0  0  0  0
 16  3  1  0  0  0  0
 16 14  1  0  0  0  0
 18 14  1  0  0  0  0
 19 18  1  0  0  0  0
M  END
