Coordinates from ORCA-job Ph-N2-HSO4-B3LYPG-6-31G_dp-MTMO-d009-169-n800
 OpenBabel09051908053D

 19 18  0  0  0  0  0  0  0  0999 V2000
   -0.4797    1.0001    0.0038 C   0  0  0  0  0  0  0  0  0  0  0  0
    0.8299    0.5643   -0.2017 C   0  0  0  0  0  0  0  0  0  0  0  0
    1.4932   -0.0785    0.8396 C   0  0  0  0  0  0  0  0  0  0  0  0
    0.8918   -0.2954    2.0761 C   0  0  0  0  0  0  0  0  0  0  0  0
   -0.4161    0.1502    2.2690 C   0  0  0  0  0  0  0  0  0  0  0  0
   -1.1023    0.7950    1.2369 C   0  0  0  0  0  0  0  0  0  0  0  0
   -1.0112    1.4989   -0.8009 H   0  0  0  0  0  0  0  0  0  0  0  0
    1.3353    0.7102   -1.1499 H   0  0  0  0  0  0  0  0  0  0  0  0
    5.8421    0.5946   -2.1950 N   0  0  0  0  0  0  0  0  0  0  0  0
    6.5550    0.1273   -2.8965 N   0  0  0  0  0  0  0  0  0  0  0  0
   -2.1207    1.1362    1.3935 H   0  0  0  0  0  0  0  0  0  0  0  0
   -0.8992   -0.0106    3.2279 H   0  0  0  0  0  0  0  0  0  0  0  0
    1.4442   -0.7955    2.8628 H   0  0  0  0  0  0  0  0  0  0  0  0
    4.0866    0.2392    1.1412 S   0  0  0  0  0  0  0  0  0  0  0  0
    5.2134   -0.6097    0.8078 O   0  0  0  0  0  0  0  0  0  0  0  0
    2.7825   -0.5925    0.5908 O   0  0  0  0  0  0  0  0  0  0  0  0
    3.8285    0.7427    2.4712 O   0  0  0  0  0  0  0  0  0  0  0  0
    4.0918    1.5273    0.1576 O   0  0  0  0  0  0  0  0  0  0  0  0
    4.5966    1.2877   -0.6428 H   0  0  0  0  0  0  0  0  0  0  0  0
  1  6  1  0  0  0  0
  2  1  2  0  0  0  0
  2  3  1  0  0  0  0
  3  4  2  0  0  0  0
  4  5  1  0  0  0  0
  4 13  1  0  0  0  0
  5 12  1  0  0  0  0
  6 11  1  0  0  0  0
  6  5  2  0  0  0  0
  7  1  1  0  0  0  0
  8  2  1  0  0  0  0
 10  9  3  0  0  0  0
 14 17  2  0  0  0  0
 15 14  2  0  0  0  0
 16  3  1  0  0  0  0
 16 14  1  0  0  0  0
 18 14  1  0  0  0  0
 19 18  1  0  0  0  0
M  END
