Coordinates from ORCA-job Ph-N2-HSO4-B3LYPG-6-31G_dp-MTMO-d009-169-n800
 OpenBabel09051908053D

 19 18  0  0  0  0  0  0  0  0999 V2000
   -0.9606    1.0026    0.3157 C   0  0  0  0  0  0  0  0  0  0  0  0
    0.3108    0.4531    0.1451 C   0  0  0  0  0  0  0  0  0  0  0  0
    0.9044   -0.2035    1.2190 C   0  0  0  0  0  0  0  0  0  0  0  0
    0.2726   -0.3246    2.4533 C   0  0  0  0  0  0  0  0  0  0  0  0
   -0.9967    0.2323    2.6102 C   0  0  0  0  0  0  0  0  0  0  0  0
   -1.6138    0.8933    1.5453 C   0  0  0  0  0  0  0  0  0  0  0  0
   -1.4389    1.5143   -0.5138 H   0  0  0  0  0  0  0  0  0  0  0  0
    0.8378    0.5227   -0.7999 H   0  0  0  0  0  0  0  0  0  0  0  0
   10.3124    1.3824   -5.2253 N   0  0  0  0  0  0  0  0  0  0  0  0
   11.3558    1.4177   -5.5880 N   0  0  0  0  0  0  0  0  0  0  0  0
   -2.6030    1.3211    1.6731 H   0  0  0  0  0  0  0  0  0  0  0  0
   -1.5039    0.1466    3.5664 H   0  0  0  0  0  0  0  0  0  0  0  0
    0.7721   -0.8402    3.2652 H   0  0  0  0  0  0  0  0  0  0  0  0
    3.5145   -0.0665    1.4983 S   0  0  0  0  0  0  0  0  0  0  0  0
    4.5661   -1.0421    1.2971 O   0  0  0  0  0  0  0  0  0  0  0  0
    2.1498   -0.8351    1.0151 O   0  0  0  0  0  0  0  0  0  0  0  0
    3.2823    0.6273    2.7442 O   0  0  0  0  0  0  0  0  0  0  0  0
    3.6579    1.0899    0.3593 O   0  0  0  0  0  0  0  0  0  0  0  0
    4.1420    0.7001   -0.3888 H   0  0  0  0  0  0  0  0  0  0  0  0
  1  6  1  0  0  0  0
  2  1  2  0  0  0  0
  2  3  1  0  0  0  0
  3  4  2  0  0  0  0
  4  5  1  0  0  0  0
  4 13  1  0  0  0  0
  5 12  1  0  0  0  0
  6 11  1  0  0  0  0
  6  5  2  0  0  0  0
  7  1  1  0  0  0  0
  8  2  1  0  0  0  0
 10  9  3  0  0  0  0
 14 17  2  0  0  0  0
 15 14  2  0  0  0  0
 16  3  1  0  0  0  0
 16 14  1  0  0  0  0
 18 14  1  0  0  0  0
 19 18  1  0  0  0  0
M  END
