Coordinates from ORCA-job Ph-N2-HSO4-B3LYPG-6-31G_dp-MTMO-d009-169-n800
 OpenBabel09051908053D

 19 18  0  0  0  0  0  0  0  0999 V2000
   -0.8315    1.0144    0.2336 C   0  0  0  0  0  0  0  0  0  0  0  0
    0.4413    0.4728    0.0491 C   0  0  0  0  0  0  0  0  0  0  0  0
    1.0488   -0.1840    1.1150 C   0  0  0  0  0  0  0  0  0  0  0  0
    0.4296   -0.3129    2.3548 C   0  0  0  0  0  0  0  0  0  0  0  0
   -0.8413    0.2361    2.5257 C   0  0  0  0  0  0  0  0  0  0  0  0
   -1.4723    0.8972    1.4689 C   0  0  0  0  0  0  0  0  0  0  0  0
   -1.3206    1.5262   -0.5895 H   0  0  0  0  0  0  0  0  0  0  0  0
    0.9590    0.5487   -0.9007 H   0  0  0  0  0  0  0  0  0  0  0  0
    9.1043    1.2170   -4.3439 N   0  0  0  0  0  0  0  0  0  0  0  0
   10.1419    1.2564   -4.7226 N   0  0  0  0  0  0  0  0  0  0  0  0
   -2.4627    1.3187    1.6077 H   0  0  0  0  0  0  0  0  0  0  0  0
   -1.3389    0.1442    3.4863 H   0  0  0  0  0  0  0  0  0  0  0  0
    0.9398   -0.8283    3.1601 H   0  0  0  0  0  0  0  0  0  0  0  0
    3.6609   -0.0320    1.3687 S   0  0  0  0  0  0  0  0  0  0  0  0
    4.7159   -1.0017    1.1568 O   0  0  0  0  0  0  0  0  0  0  0  0
    2.2959   -0.8076    0.8972 O   0  0  0  0  0  0  0  0  0  0  0  0
    3.4362    0.6591    2.6174 O   0  0  0  0  0  0  0  0  0  0  0  0
    3.7877    1.1264    0.2298 O   0  0  0  0  0  0  0  0  0  0  0  0
    4.2677    0.7405   -0.5229 H   0  0  0  0  0  0  0  0  0  0  0  0
  1  6  1  0  0  0  0
  2  1  2  0  0  0  0
  2  3  1  0  0  0  0
  3  4  2  0  0  0  0
  4  5  1  0  0  0  0
  4 13  1  0  0  0  0
  5 12  1  0  0  0  0
  6 11  1  0  0  0  0
  6  5  2  0  0  0  0
  7  1  1  0  0  0  0
  8  2  1  0  0  0  0
 10  9  3  0  0  0  0
 14 17  2  0  0  0  0
 15 14  2  0  0  0  0
 16  3  1  0  0  0  0
 16 14  1  0  0  0  0
 18 14  1  0  0  0  0
 19 18  1  0  0  0  0
M  END
