18
Coordinates from ORCA-job 4-MeO-Ph-N2-Cl-B3LYPG-6-31G_dp-MTMO-d009-169-n800
  C   -1.17596373534976      0.79429085248882     -0.76571655648280
  C   -0.27999768920747      1.72588551672308     -0.22026952514193
  C   -0.79806585296253      2.16956107077013      0.97604004297950
  C   -1.84523749896271      1.91276818381731      1.61627205103947
  C   -2.77680010766562      0.99082804944564      1.12121959475407
  C   -2.38994436536195      0.43204437388066     -0.12014735352692
  H   -0.95279644412083      0.32138332693736     -1.71686485296268
  H   0.64837217085517      2.01243419531789     -0.69753067715334
  H   -2.34245509154312      2.70060052018633      3.29693472771052
  H   -3.69835808942037      0.72509022530788      1.62263323114460
  N   8.10659104909470     -8.86848833872950     -8.21518136129533
  N   8.63960680816542     -9.81146874914648     -8.43502158442491
  Cl  -2.85889034446797      3.12147282971480      4.43736044582533
  O   -3.13230413921847     -0.48728925569810     -0.79829096511053
  C   -4.36079753953811     -0.91689288119720     -0.22704774895029
  H   -4.77808849812387     -1.64276370244678     -0.92635637869755
  H   -5.06320160915537     -0.08229937785367     -0.10815002755856
  H   -4.20526902301704     -1.39985683951803      0.74601693785134
