18
Coordinates from ORCA-job 4-MeO-Ph-N2-Cl-B3LYPG-6-31G_dp-MTMO-d009-169-n800
  C   -1.39781580724310     -1.80349631355178     -1.52799844060238
  C   -0.03061638513791     -1.56296721243693     -1.72260054483995
  C   0.32449332454293     -0.46355474758742     -1.00028605502909
  C   -0.23712470738257      0.39770200353633     -0.20606176028948
  C   -1.61716622421387      0.13404327626842     -0.02724022587522
  C   -2.18212595585350     -0.96939943247874     -0.69282901129454
  H   -1.87652940889133     -2.64323959361678     -2.02127507985944
  H   0.60835767497032     -2.17106126283668     -2.34939335930403
  H   0.28714860629835      1.33675053941383      0.35507444510326
  H   -2.19679884307476      0.78830259434877      0.61356955146504
  N   2.49189981035221      0.08217232369709     -1.17246992950968
  N   3.10210170186027      0.88986803613161     -0.72068148139681
  Cl  1.05292185328048      2.64964796575273      1.14439623503225
  O   -3.48695845076492     -1.32832754734322     -0.60171059234551
  C   -4.34808669980128     -0.54972691357318      0.22387009229513
  H   -5.33014639598633     -1.01796517163954      0.15336481456347
  H   -4.41253479113345      0.48601445200247     -0.13049606996986
  H   -4.01461930182154     -0.55746299608693      1.26866741185688
