18
Coordinates from ORCA-job 4-MeO-Ph-N2-Cl-B3LYPG-6-31G_dp-MTMO-d009-169-n800
  C   -1.43317733179859     -1.75528473577640     -1.48753894662992
  C   -0.07043678586252     -1.47531949282384     -1.66855908106031
  C   0.23395459841364     -0.35524470318752     -0.93075387417501
  C   -0.42098580182552      0.40945297485922     -0.18169373658920
  C   -1.78737091576715      0.17472468585989      0.03212043132577
  C   -2.27333400978334     -0.95791785322466     -0.66269734703694
  H   -1.88216185015070     -2.60851972992438     -1.98632301992082
  H   0.58884644988499     -2.06723711296497     -2.29048152620113
  H   0.27041267802910      1.90237003433517      0.75718749959318
  H   -2.41752340685973      0.79111727856033      0.66093866909333
  N   3.34294286735429     -0.22147870352449     -1.59922618722642
  N   4.25338986588468      0.34917569539503     -1.34071510075181
  Cl  0.58130626545427      2.96758913102032      1.48041097374912
  O   -3.56701231359208     -1.38125398239871     -0.60607061009595
  C   -4.48100348834799     -0.65051701324840      0.19978550323987
  H   -5.43940227427208     -1.16254497834763      0.10517824526395
  H   -4.58765938185782      0.38437241588059     -0.14922744564387
  H   -4.17438516490346     -0.64618391048949      1.25356555306620
