18
Coordinates from ORCA-job 4-MeO-Ph-N2-Cl-B3LYPG-6-31G_dp-MTMO-d009-169-n800
  C   -1.30918257669010     -1.71952822864004     -1.48415471384942
  C   0.02206178143991     -1.36965007261984     -1.59004181680892
  C   0.50426280585555     -0.24849042206002     -0.88977324779008
  C   -0.34719653068275      0.52500623852709     -0.08599569602285
  C   -1.68674152255374      0.16854397872615      0.01449762673678
  C   -2.17566658790225     -0.95236751071223     -0.67945543356864
  H   -1.71289225837858     -2.57883736352556     -2.00748427576994
  H   0.70546726205288     -1.94663895535045     -2.20366406710072
  H   0.05331980329673      1.38377807859873      0.44006374385629
  H   -2.34211690122729      0.76906462002257      0.63302694744847
  N   1.86561217521270      0.04140486050762     -1.04611004716006
  N   2.72998348044141      0.76109862526150     -0.73141415284942
  Cl  2.25344170549435      2.37559669024851      0.65189660580432
  O   -3.45636366347016     -1.37603957910966     -0.64133130830100
  C   -4.39922466429052     -0.66013139816616      0.15386414646168
  H   -5.34627095832263     -1.18655432360666      0.03467633413584
  H   -4.51092450013870      0.37318083656160     -0.19426158288673
  H   -4.11116885013682     -0.66213607466308      1.21156093766445
