Coordinates from ORCA-job Ph-N2-OTs-B3LYPG-aug-cc-pVDZ-scan-d09-49-n400
 OpenBabel07022015303D

 31 30  0  0  0  0  0  0  0  0999 V2000
    0.3719    0.8068   -3.6889 C   0  0  0  0  0  0  0  0  0  0  0  0
    1.1583    1.5177   -2.7654 C   0  0  0  0  0  0  0  0  0  0  0  0
    0.7873    1.6423   -1.5707 C   0  0  0  0  0  0  0  0  0  0  0  0
   -0.3259    1.2391   -0.8713 C   0  0  0  0  0  0  0  0  0  0  0  0
   -1.1594    0.5207   -1.7660 C   0  0  0  0  0  0  0  0  0  0  0  0
   -0.8212    0.3164   -3.1180 C   0  0  0  0  0  0  0  0  0  0  0  0
    0.6360    0.6538   -4.7332 H   0  0  0  0  0  0  0  0  0  0  0  0
    2.6818    2.5525   -3.7001 H   0  0  0  0  0  0  0  0  0  0  0  0
   -0.5669    1.4040    0.1751 H   0  0  0  0  0  0  0  0  0  0  0  0
   -2.0959    0.1140   -1.3802 H   0  0  0  0  0  0  0  0  0  0  0  0
    1.7844    3.0168    1.5772 N   0  0  0  0  0  0  0  0  0  0  0  0
    2.6774    3.5473    1.9512 N   0  0  0  0  0  0  0  0  0  0  0  0
    5.3567    0.2360   -4.5308 C   0  0  0  0  0  0  0  0  0  0  0  0
    6.5398   -0.3627   -4.0889 C   0  0  0  0  0  0  0  0  0  0  0  0
    7.7482    0.3481   -4.0636 C   0  0  0  0  0  0  0  0  0  0  0  0
    7.7505    1.6850   -4.5007 C   0  0  0  0  0  0  0  0  0  0  0  0
    6.5824    2.3011   -4.9469 C   0  0  0  0  0  0  0  0  0  0  0  0
    5.3950    1.5647   -4.9523 C   0  0  0  0  0  0  0  0  0  0  0  0
    4.4229   -0.3222   -4.5657 H   0  0  0  0  0  0  0  0  0  0  0  0
    6.5201   -1.4034   -3.7635 H   0  0  0  0  0  0  0  0  0  0  0  0
    8.6836    2.2502   -4.4949 H   0  0  0  0  0  0  0  0  0  0  0  0
    6.5868    3.3307   -5.2995 H   0  0  0  0  0  0  0  0  0  0  0  0
    3.8804    2.3596   -5.5106 S   0  0  0  0  0  0  0  0  0  0  0  0
    2.8842    1.3136   -5.8551 O   0  0  0  0  0  0  0  0  0  0  0  0
    4.2283    3.4416   -6.4510 O   0  0  0  0  0  0  0  0  0  0  0  0
    3.3488    3.1269   -4.1432 O   0  0  0  0  0  0  0  0  0  0  0  0
    9.0223   -0.2961   -3.5746 C   0  0  0  0  0  0  0  0  0  0  0  0
    8.8957   -1.3759   -3.4276 H   0  0  0  0  0  0  0  0  0  0  0  0
    9.8454   -0.1383   -4.2860 H   0  0  0  0  0  0  0  0  0  0  0  0
    9.3352    0.1394   -2.6141 H   0  0  0  0  0  0  0  0  0  0  0  0
   -1.5144   -0.2389   -3.7529 H   0  0  0  0  0  0  0  0  0  0  0  0
  1  6  2  0  0  0  0
  1  2  1  0  0  0  0
  2  3  2  0  0  0  0
  3  4  1  0  0  0  0
  4  9  1  0  0  0  0
  5 10  1  0  0  0  0
  5  4  2  0  0  0  0
  6  5  1  0  0  0  0
  7  1  1  0  0  0  0
 11 12  3  0  0  0  0
 13 14  2  0  0  0  0
 14 15  1  0  0  0  0
 14 20  1  0  0  0  0
 15 27  1  0  0  0  0
 16 21  1  0  0  0  0
 16 15  2  0  0  0  0
 17 16  1  0  0  0  0
 18 17  2  0  0  0  0
 18 13  1  0  0  0  0
 19 13  1  0  0  0  0
 22 17  1  0  0  0  0
 23 18  1  0  0  0  0
 23 26  1  0  0  0  0
 24 23  2  0  0  0  0
 25 23  2  0  0  0  0
 26  8  1  0  0  0  0
 27 28  1  0  0  0  0
 27 30  1  0  0  0  0
 29 27  1  0  0  0  0
 31  6  1  0  0  0  0
M  RAD  2   2   2   3   2
M  END
