Coordinates from ORCA-job Ph-N2-OTs-B3LYPG-aug-cc-pVDZ-scan-d09-49-n400
 OpenBabel07022015303D

 31 30  0  0  0  0  0  0  0  0999 V2000
    0.3853    0.8202   -3.7108 C   0  0  0  0  0  0  0  0  0  0  0  0
    1.1822    1.5476   -2.8088 C   0  0  0  0  0  0  0  0  0  0  0  0
    0.8239    1.6921   -1.6123 C   0  0  0  0  0  0  0  0  0  0  0  0
   -0.2813    1.3011   -0.8940 C   0  0  0  0  0  0  0  0  0  0  0  0
   -1.1247    0.5675   -1.7668 C   0  0  0  0  0  0  0  0  0  0  0  0
   -0.8015    0.3400   -3.1185 C   0  0  0  0  0  0  0  0  0  0  0  0
    0.6382    0.6479   -4.7549 H   0  0  0  0  0  0  0  0  0  0  0  0
    2.6982    2.5550   -3.7854 H   0  0  0  0  0  0  0  0  0  0  0  0
   -0.5096    1.4826    0.1521 H   0  0  0  0  0  0  0  0  0  0  0  0
   -2.0566    0.1668   -1.3638 H   0  0  0  0  0  0  0  0  0  0  0  0
    1.5740    3.0008    2.0141 N   0  0  0  0  0  0  0  0  0  0  0  0
    2.3998    3.5132    2.5379 N   0  0  0  0  0  0  0  0  0  0  0  0
    5.3742    0.2066   -4.5742 C   0  0  0  0  0  0  0  0  0  0  0  0
    6.5591   -0.3748   -4.1143 C   0  0  0  0  0  0  0  0  0  0  0  0
    7.7605    0.3476   -4.0885 C   0  0  0  0  0  0  0  0  0  0  0  0
    7.7542    1.6783   -4.5443 C   0  0  0  0  0  0  0  0  0  0  0  0
    6.5846    2.2769   -5.0095 C   0  0  0  0  0  0  0  0  0  0  0  0
    5.4040    1.5294   -5.0143 C   0  0  0  0  0  0  0  0  0  0  0  0
    4.4453   -0.3598   -4.6080 H   0  0  0  0  0  0  0  0  0  0  0  0
    6.5467   -1.4108   -3.7742 H   0  0  0  0  0  0  0  0  0  0  0  0
    8.6819    2.2523   -4.5381 H   0  0  0  0  0  0  0  0  0  0  0  0
    6.5829    3.3016   -5.3762 H   0  0  0  0  0  0  0  0  0  0  0  0
    3.8867    2.3026   -5.5953 S   0  0  0  0  0  0  0  0  0  0  0  0
    2.8909    1.2440   -5.8999 O   0  0  0  0  0  0  0  0  0  0  0  0
    4.2295    3.3522   -6.5734 O   0  0  0  0  0  0  0  0  0  0  0  0
    3.3591    3.1166   -4.2534 O   0  0  0  0  0  0  0  0  0  0  0  0
    9.0360   -0.2773   -3.5785 C   0  0  0  0  0  0  0  0  0  0  0  0
    8.9197   -1.3570   -3.4226 H   0  0  0  0  0  0  0  0  0  0  0  0
    9.8655   -0.1169   -4.2817 H   0  0  0  0  0  0  0  0  0  0  0  0
    9.3326    0.1707   -2.6185 H   0  0  0  0  0  0  0  0  0  0  0  0
   -1.5018   -0.2262   -3.7360 H   0  0  0  0  0  0  0  0  0  0  0  0
  1  6  2  0  0  0  0
  1  2  1  0  0  0  0
  2  3  2  0  0  0  0
  3  4  1  0  0  0  0
  4  9  1  0  0  0  0
  5 10  1  0  0  0  0
  5  4  2  0  0  0  0
  6  5  1  0  0  0  0
  7  1  1  0  0  0  0
 11 12  3  0  0  0  0
 13 14  2  0  0  0  0
 14 15  1  0  0  0  0
 14 20  1  0  0  0  0
 15 27  1  0  0  0  0
 16 21  1  0  0  0  0
 16 15  2  0  0  0  0
 17 16  1  0  0  0  0
 18 17  2  0  0  0  0
 18 13  1  0  0  0  0
 19 13  1  0  0  0  0
 22 17  1  0  0  0  0
 23 18  1  0  0  0  0
 23 26  1  0  0  0  0
 24 23  2  0  0  0  0
 25 23  2  0  0  0  0
 26  8  1  0  0  0  0
 27 28  1  0  0  0  0
 27 30  1  0  0  0  0
 29 27  1  0  0  0  0
 31  6  1  0  0  0  0
M  RAD  2   2   2   3   2
M  END
