Coordinates from ORCA-job Ph-N2-OTs-B3LYPG-aug-cc-pVDZ-scan-d09-49-n400
 OpenBabel07022015303D

 31 30  0  0  0  0  0  0  0  0999 V2000
    0.4353    0.8480   -3.6990 C   0  0  0  0  0  0  0  0  0  0  0  0
    1.2393    1.6206   -2.8433 C   0  0  0  0  0  0  0  0  0  0  0  0
    0.9057    1.8118   -1.6464 C   0  0  0  0  0  0  0  0  0  0  0  0
   -0.1774    1.4319   -0.8884 C   0  0  0  0  0  0  0  0  0  0  0  0
   -1.0281    0.6523   -1.7127 C   0  0  0  0  0  0  0  0  0  0  0  0
   -0.7310    0.3754   -3.0613 C   0  0  0  0  0  0  0  0  0  0  0  0
    0.6690    0.6368   -4.7404 H   0  0  0  0  0  0  0  0  0  0  0  0
    2.7497    2.5775   -3.8897 H   0  0  0  0  0  0  0  0  0  0  0  0
   -0.3858    1.6513    0.1551 H   0  0  0  0  0  0  0  0  0  0  0  0
   -1.9446    0.2540   -1.2737 H   0  0  0  0  0  0  0  0  0  0  0  0
    1.0015    2.9258    2.5248 N   0  0  0  0  0  0  0  0  0  0  0  0
    1.6573    3.3713    3.2932 N   0  0  0  0  0  0  0  0  0  0  0  0
    5.4046    0.1695   -4.6386 C   0  0  0  0  0  0  0  0  0  0  0  0
    6.5924   -0.3951   -4.1652 C   0  0  0  0  0  0  0  0  0  0  0  0
    7.7893    0.3350   -4.1521 C   0  0  0  0  0  0  0  0  0  0  0  0
    7.7759    1.6558   -4.6358 C   0  0  0  0  0  0  0  0  0  0  0  0
    6.6037    2.2372   -5.1157 C   0  0  0  0  0  0  0  0  0  0  0  0
    5.4274    1.4829   -5.1066 C   0  0  0  0  0  0  0  0  0  0  0  0
    4.4787   -0.4020   -4.6611 H   0  0  0  0  0  0  0  0  0  0  0  0
    6.5859   -1.4238   -3.8035 H   0  0  0  0  0  0  0  0  0  0  0  0
    8.6998    2.2357   -4.6397 H   0  0  0  0  0  0  0  0  0  0  0  0
    6.5972    3.2541   -5.5037 H   0  0  0  0  0  0  0  0  0  0  0  0
    3.9066    2.2341   -5.7069 S   0  0  0  0  0  0  0  0  0  0  0  0
    2.9036    1.1662   -5.9488 O   0  0  0  0  0  0  0  0  0  0  0  0
    4.2412    3.2346   -6.7377 O   0  0  0  0  0  0  0  0  0  0  0  0
    3.3986    3.1154   -4.4002 O   0  0  0  0  0  0  0  0  0  0  0  0
    9.0671   -0.2710   -3.6252 C   0  0  0  0  0  0  0  0  0  0  0  0
    8.9610   -1.3502   -3.4596 H   0  0  0  0  0  0  0  0  0  0  0  0
    9.9010   -0.1083   -4.3226 H   0  0  0  0  0  0  0  0  0  0  0  0
    9.3503    0.1894   -2.6670 H   0  0  0  0  0  0  0  0  0  0  0  0
   -1.4357   -0.2251   -3.6400 H   0  0  0  0  0  0  0  0  0  0  0  0
  1  6  2  0  0  0  0
  1  2  1  0  0  0  0
  2  3  2  0  0  0  0
  3  4  1  0  0  0  0
  4  9  1  0  0  0  0
  5 10  1  0  0  0  0
  5  4  2  0  0  0  0
  6  5  1  0  0  0  0
  7  1  1  0  0  0  0
 11 12  3  0  0  0  0
 13 14  2  0  0  0  0
 14 15  1  0  0  0  0
 14 20  1  0  0  0  0
 15 27  1  0  0  0  0
 16 15  2  0  0  0  0
 17 18  2  0  0  0  0
 17 16  1  0  0  0  0
 18 13  1  0  0  0  0
 19 13  1  0  0  0  0
 21 16  1  0  0  0  0
 22 17  1  0  0  0  0
 23 18  1  0  0  0  0
 23 26  1  0  0  0  0
 24 23  2  0  0  0  0
 25 23  2  0  0  0  0
 26  8  1  0  0  0  0
 27 28  1  0  0  0  0
 27 30  1  0  0  0  0
 29 27  1  0  0  0  0
 31  6  1  0  0  0  0
M  RAD  2   2   2   3   2
M  END
