Coordinates from ORCA-job Ph-N2-OTs-B3LYPG-aug-cc-pVDZ-scan-d09-49-n400
 OpenBabel07022015303D

 31 30  0  0  0  0  0  0  0  0999 V2000
   -0.3131    0.1640   -2.9538 C   0  0  0  0  0  0  0  0  0  0  0  0
    0.6334    1.0480   -2.3813 C   0  0  0  0  0  0  0  0  0  0  0  0
    0.1443    2.0170   -1.7269 C   0  0  0  0  0  0  0  0  0  0  0  0
   -1.0975    2.4892   -1.3992 C   0  0  0  0  0  0  0  0  0  0  0  0
   -2.0490    1.6074   -1.9666 C   0  0  0  0  0  0  0  0  0  0  0  0
   -1.6639    0.4819   -2.7203 C   0  0  0  0  0  0  0  0  0  0  0  0
   -0.0277   -0.7038   -3.5484 H   0  0  0  0  0  0  0  0  0  0  0  0
    2.5071    0.7991   -2.7741 H   0  0  0  0  0  0  0  0  0  0  0  0
   -1.3535    3.3705   -0.8182 H   0  0  0  0  0  0  0  0  0  0  0  0
   -3.1078    1.8195   -1.8092 H   0  0  0  0  0  0  0  0  0  0  0  0
    1.6598    3.5381   -0.7630 N   0  0  0  0  0  0  0  0  0  0  0  0
    2.7325    3.7481   -0.6042 N   0  0  0  0  0  0  0  0  0  0  0  0
    6.0856   -0.0913   -4.8705 C   0  0  0  0  0  0  0  0  0  0  0  0
    7.4523   -0.3666   -4.8949 C   0  0  0  0  0  0  0  0  0  0  0  0
    8.3898    0.5455   -4.3790 C   0  0  0  0  0  0  0  0  0  0  0  0
    7.9213    1.7459   -3.8241 C   0  0  0  0  0  0  0  0  0  0  0  0
    6.5562    2.0399   -3.7859 C   0  0  0  0  0  0  0  0  0  0  0  0
    5.6561    1.1152   -4.3135 C   0  0  0  0  0  0  0  0  0  0  0  0
    5.3638   -0.7920   -5.2864 H   0  0  0  0  0  0  0  0  0  0  0  0
    7.8015   -1.3051   -5.3277 H   0  0  0  0  0  0  0  0  0  0  0  0
    8.6315    2.4680   -3.4191 H   0  0  0  0  0  0  0  0  0  0  0  0
    6.1879    2.9743   -3.3672 H   0  0  0  0  0  0  0  0  0  0  0  0
    3.9011    1.5024   -4.2990 S   0  0  0  0  0  0  0  0  0  0  0  0
    3.2394    0.8788   -5.4705 O   0  0  0  0  0  0  0  0  0  0  0  0
    3.7129    2.9507   -4.0328 O   0  0  0  0  0  0  0  0  0  0  0  0
    3.4806    0.6552   -2.9433 O   0  0  0  0  0  0  0  0  0  0  0  0
    9.8676    0.2469   -4.4522 C   0  0  0  0  0  0  0  0  0  0  0  0
   10.0704   -0.8139   -4.2529 H   0  0  0  0  0  0  0  0  0  0  0  0
   10.2606    0.4707   -5.4560 H   0  0  0  0  0  0  0  0  0  0  0  0
   10.4352    0.8497   -3.7325 H   0  0  0  0  0  0  0  0  0  0  0  0
   -2.4388   -0.1623   -3.1395 H   0  0  0  0  0  0  0  0  0  0  0  0
  1  6  2  0  0  0  0
  1  2  1  0  0  0  0
  2  3  2  0  0  0  0
  3  4  1  0  0  0  0
  4  9  1  0  0  0  0
  5 10  1  0  0  0  0
  5  4  2  0  0  0  0
  6  5  1  0  0  0  0
  7  1  1  0  0  0  0
 11 12  3  0  0  0  0
 13 18  1  0  0  0  0
 14 13  2  0  0  0  0
 14 15  1  0  0  0  0
 15 16  2  0  0  0  0
 16 17  1  0  0  0  0
 16 21  1  0  0  0  0
 17 22  1  0  0  0  0
 18 23  1  0  0  0  0
 18 17  2  0  0  0  0
 19 13  1  0  0  0  0
 20 14  1  0  0  0  0
 23 25  2  0  0  0  0
 23 26  1  0  0  0  0
 24 23  2  0  0  0  0
 26  8  1  0  0  0  0
 27 15  1  0  0  0  0
 27 28  1  0  0  0  0
 27 30  1  0  0  0  0
 29 27  1  0  0  0  0
 31  6  1  0  0  0  0
M  RAD  2   2   2   3   2
M  END
