Coordinates from ORCA-job Ph-N2-OTs-B3LYPG-aug-cc-pVDZ-scan-d09-49-n400
 OpenBabel07022015303D

 31 30  0  0  0  0  0  0  0  0999 V2000
    0.3501    0.8075   -3.6185 C   0  0  0  0  0  0  0  0  0  0  0  0
    1.1208    1.5051   -2.6686 C   0  0  0  0  0  0  0  0  0  0  0  0
    0.7093    1.6062   -1.4839 C   0  0  0  0  0  0  0  0  0  0  0  0
   -0.4195    1.1958   -0.8177 C   0  0  0  0  0  0  0  0  0  0  0  0
   -1.2309    0.4919   -1.7427 C   0  0  0  0  0  0  0  0  0  0  0  0
   -0.8575    0.3084   -3.0885 C   0  0  0  0  0  0  0  0  0  0  0  0
    0.6394    0.6724   -4.6588 H   0  0  0  0  0  0  0  0  0  0  0  0
    2.6600    2.5258   -3.5370 H   0  0  0  0  0  0  0  0  0  0  0  0
   -0.6817    1.3496    0.2252 H   0  0  0  0  0  0  0  0  0  0  0  0
   -2.1779    0.0823   -1.3866 H   0  0  0  0  0  0  0  0  0  0  0  0
    1.9970    2.9327    0.7569 N   0  0  0  0  0  0  0  0  0  0  0  0
    2.9501    3.4489    0.9670 N   0  0  0  0  0  0  0  0  0  0  0  0
    5.3543    0.2720   -4.4431 C   0  0  0  0  0  0  0  0  0  0  0  0
    6.5433   -0.3444   -4.0441 C   0  0  0  0  0  0  0  0  0  0  0  0
    7.7595    0.3539   -4.0450 C   0  0  0  0  0  0  0  0  0  0  0  0
    7.7628    1.6963   -4.4639 C   0  0  0  0  0  0  0  0  0  0  0  0
    6.5881    2.3306   -4.8660 C   0  0  0  0  0  0  0  0  0  0  0  0
    5.3937    1.6063   -4.8470 C   0  0  0  0  0  0  0  0  0  0  0  0
    4.4148   -0.2776   -4.4593 H   0  0  0  0  0  0  0  0  0  0  0  0
    6.5220   -1.3893   -3.7324 H   0  0  0  0  0  0  0  0  0  0  0  0
    8.7014    2.2521   -4.4787 H   0  0  0  0  0  0  0  0  0  0  0  0
    6.5920    3.3649   -5.2047 H   0  0  0  0  0  0  0  0  0  0  0  0
    3.8710    2.4228   -5.3498 S   0  0  0  0  0  0  0  0  0  0  0  0
    2.8768    1.3922   -5.7441 O   0  0  0  0  0  0  0  0  0  0  0  0
    4.2087    3.5539   -6.2349 O   0  0  0  0  0  0  0  0  0  0  0  0
    3.3468    3.1098   -3.9389 O   0  0  0  0  0  0  0  0  0  0  0  0
    9.0408   -0.3102   -3.6038 C   0  0  0  0  0  0  0  0  0  0  0  0
    8.9051   -1.3893   -3.4596 H   0  0  0  0  0  0  0  0  0  0  0  0
    9.8414   -0.1583   -4.3418 H   0  0  0  0  0  0  0  0  0  0  0  0
    9.3920    0.1148   -2.6519 H   0  0  0  0  0  0  0  0  0  0  0  0
   -1.5342   -0.2360   -3.7500 H   0  0  0  0  0  0  0  0  0  0  0  0
  1  6  2  0  0  0  0
  1  2  1  0  0  0  0
  2  3  2  0  0  0  0
  3  4  1  0  0  0  0
  4  9  1  0  0  0  0
  5 10  1  0  0  0  0
  5  4  2  0  0  0  0
  6  5  1  0  0  0  0
  7  1  1  0  0  0  0
 11 12  3  0  0  0  0
 13 14  2  0  0  0  0
 14 20  1  0  0  0  0
 15 14  1  0  0  0  0
 15 27  1  0  0  0  0
 16 15  2  0  0  0  0
 17 18  2  0  0  0  0
 17 16  1  0  0  0  0
 18 13  1  0  0  0  0
 19 13  1  0  0  0  0
 21 16  1  0  0  0  0
 22 17  1  0  0  0  0
 23 18  1  0  0  0  0
 23 26  1  0  0  0  0
 24 23  2  0  0  0  0
 25 23  2  0  0  0  0
 26  8  1  0  0  0  0
 27 28  1  0  0  0  0
 27 30  1  0  0  0  0
 29 27  1  0  0  0  0
 31  6  1  0  0  0  0
M  RAD  2   2   2   3   2
M  END
