Coordinates from ORCA-job Ph-N2-OTs-B3LYPG-aug-cc-pVDZ-scan-d09-49-n400
 OpenBabel07022015303D

 31 30  0  0  0  0  0  0  0  0999 V2000
    0.5502    0.8628   -3.6251 C   0  0  0  0  0  0  0  0  0  0  0  0
    1.3192    1.7344   -2.8344 C   0  0  0  0  0  0  0  0  0  0  0  0
    1.0001    1.9656   -1.6406 C   0  0  0  0  0  0  0  0  0  0  0  0
   -0.0265    1.5435   -0.8287 C   0  0  0  0  0  0  0  0  0  0  0  0
   -0.8377    0.6604   -1.5861 C   0  0  0  0  0  0  0  0  0  0  0  0
   -0.5579    0.3369   -2.9278 C   0  0  0  0  0  0  0  0  0  0  0  0
    0.7710    0.6159   -4.6615 H   0  0  0  0  0  0  0  0  0  0  0  0
    2.8226    2.6557   -3.9199 H   0  0  0  0  0  0  0  0  0  0  0  0
   -0.2233    1.8024    0.2078 H   0  0  0  0  0  0  0  0  0  0  0  0
   -1.7090    0.2193   -1.0985 H   0  0  0  0  0  0  0  0  0  0  0  0
    0.2225    2.9082    2.7622 N   0  0  0  0  0  0  0  0  0  0  0  0
    0.5185    3.3996    3.7055 N   0  0  0  0  0  0  0  0  0  0  0  0
    5.4052    0.1724   -4.7007 C   0  0  0  0  0  0  0  0  0  0  0  0
    6.5872   -0.4182   -4.2447 C   0  0  0  0  0  0  0  0  0  0  0  0
    7.8005    0.2842   -4.2531 C   0  0  0  0  0  0  0  0  0  0  0  0
    7.8094    1.6037   -4.7406 C   0  0  0  0  0  0  0  0  0  0  0  0
    6.6433    2.2106   -5.2034 C   0  0  0  0  0  0  0  0  0  0  0  0
    5.4503    1.4835   -5.1733 C   0  0  0  0  0  0  0  0  0  0  0  0
    4.4664   -0.3780   -4.7071 H   0  0  0  0  0  0  0  0  0  0  0  0
    6.5626   -1.4457   -3.8804 H   0  0  0  0  0  0  0  0  0  0  0  0
    8.7462    2.1623   -4.7611 H   0  0  0  0  0  0  0  0  0  0  0  0
    6.6540    3.2263   -5.5941 H   0  0  0  0  0  0  0  0  0  0  0  0
    3.9383    2.2661   -5.7563 S   0  0  0  0  0  0  0  0  0  0  0  0
    2.9074    1.2195   -5.9734 O   0  0  0  0  0  0  0  0  0  0  0  0
    4.2808    3.2486   -6.8017 O   0  0  0  0  0  0  0  0  0  0  0  0
    3.4718    3.1725   -4.4518 O   0  0  0  0  0  0  0  0  0  0  0  0
    9.0724   -0.3498   -3.7452 C   0  0  0  0  0  0  0  0  0  0  0  0
    8.9449   -1.4264   -3.5773 H   0  0  0  0  0  0  0  0  0  0  0  0
    9.8991   -0.2059   -4.4552 H   0  0  0  0  0  0  0  0  0  0  0  0
    9.3799    0.1045   -2.7917 H   0  0  0  0  0  0  0  0  0  0  0  0
   -1.2297   -0.3441   -3.4539 H   0  0  0  0  0  0  0  0  0  0  0  0
  1  6  2  0  0  0  0
  1  2  1  0  0  0  0
  2  3  2  0  0  0  0
  3  4  1  0  0  0  0
  4  9  1  0  0  0  0
  5 10  1  0  0  0  0
  5  4  2  0  0  0  0
  6  5  1  0  0  0  0
  7  1  1  0  0  0  0
 11 12  3  0  0  0  0
 13 14  2  0  0  0  0
 14 20  1  0  0  0  0
 15 14  1  0  0  0  0
 15 27  1  0  0  0  0
 16 15  2  0  0  0  0
 17 18  2  0  0  0  0
 17 16  1  0  0  0  0
 18 13  1  0  0  0  0
 19 13  1  0  0  0  0
 21 16  1  0  0  0  0
 22 17  1  0  0  0  0
 23 18  1  0  0  0  0
 23 26  1  0  0  0  0
 24 23  2  0  0  0  0
 25 23  2  0  0  0  0
 26  8  1  0  0  0  0
 27 28  1  0  0  0  0
 27 30  1  0  0  0  0
 29 27  1  0  0  0  0
 31  6  1  0  0  0  0
M  RAD  2   2   2   3   2
M  END
