Coordinates from ORCA-job Ph-N2-OTs-B3LYPG-aug-cc-pVDZ-scan-d09-49-n400
 OpenBabel07022015303D

 31 30  0  0  0  0  0  0  0  0999 V2000
    0.5500    0.8621   -3.6253 C   0  0  0  0  0  0  0  0  0  0  0  0
    1.3175    1.7336   -2.8333 C   0  0  0  0  0  0  0  0  0  0  0  0
    0.9969    1.9640   -1.6396 C   0  0  0  0  0  0  0  0  0  0  0  0
   -0.0306    1.5409   -0.8293 C   0  0  0  0  0  0  0  0  0  0  0  0
   -0.8403    0.6577   -1.5880 C   0  0  0  0  0  0  0  0  0  0  0  0
   -0.5586    0.3351   -2.9296 C   0  0  0  0  0  0  0  0  0  0  0  0
    0.7719    0.6161   -4.6616 H   0  0  0  0  0  0  0  0  0  0  0  0
    2.8216    2.6560   -3.9172 H   0  0  0  0  0  0  0  0  0  0  0  0
   -0.2283    1.7995    0.2073 H   0  0  0  0  0  0  0  0  0  0  0  0
   -1.7120    0.2159   -1.1017 H   0  0  0  0  0  0  0  0  0  0  0  0
    0.2323    2.9107    2.7541 N   0  0  0  0  0  0  0  0  0  0  0  0
    0.5356    3.4041    3.6940 N   0  0  0  0  0  0  0  0  0  0  0  0
    5.4045    0.1736   -4.6985 C   0  0  0  0  0  0  0  0  0  0  0  0
    6.5865   -0.4175   -4.2432 C   0  0  0  0  0  0  0  0  0  0  0  0
    7.8001    0.2843   -4.2524 C   0  0  0  0  0  0  0  0  0  0  0  0
    7.8093    1.6038   -4.7398 C   0  0  0  0  0  0  0  0  0  0  0  0
    6.6432    2.2112   -5.2020 C   0  0  0  0  0  0  0  0  0  0  0  0
    5.4499    1.4846   -5.1712 C   0  0  0  0  0  0  0  0  0  0  0  0
    4.4655   -0.3765   -4.7044 H   0  0  0  0  0  0  0  0  0  0  0  0
    6.5617   -1.4451   -3.8789 H   0  0  0  0  0  0  0  0  0  0  0  0
    8.7463    2.1620   -4.7608 H   0  0  0  0  0  0  0  0  0  0  0  0
    6.6540    3.2270   -5.5926 H   0  0  0  0  0  0  0  0  0  0  0  0
    3.9379    2.2678   -5.7535 S   0  0  0  0  0  0  0  0  0  0  0  0
    2.9072    1.2213   -5.9717 O   0  0  0  0  0  0  0  0  0  0  0  0
    4.2805    3.2512   -6.7980 O   0  0  0  0  0  0  0  0  0  0  0  0
    3.4712    3.1730   -4.4483 O   0  0  0  0  0  0  0  0  0  0  0  0
    9.0720   -0.3502   -3.7452 C   0  0  0  0  0  0  0  0  0  0  0  0
    8.9442   -1.4268   -3.5772 H   0  0  0  0  0  0  0  0  0  0  0  0
    9.8984   -0.2066   -4.4556 H   0  0  0  0  0  0  0  0  0  0  0  0
    9.3803    0.1040   -2.7918 H   0  0  0  0  0  0  0  0  0  0  0  0
   -1.2293   -0.3460   -3.4569 H   0  0  0  0  0  0  0  0  0  0  0  0
  1  6  2  0  0  0  0
  1  2  1  0  0  0  0
  2  3  2  0  0  0  0
  3  4  1  0  0  0  0
  4  9  1  0  0  0  0
  5 10  1  0  0  0  0
  5  4  2  0  0  0  0
  6  5  1  0  0  0  0
  7  1  1  0  0  0  0
 11 12  3  0  0  0  0
 13 14  2  0  0  0  0
 14 20  1  0  0  0  0
 15 14  1  0  0  0  0
 15 27  1  0  0  0  0
 16 15  2  0  0  0  0
 17 18  2  0  0  0  0
 17 16  1  0  0  0  0
 18 13  1  0  0  0  0
 19 13  1  0  0  0  0
 21 16  1  0  0  0  0
 22 17  1  0  0  0  0
 23 18  1  0  0  0  0
 23 26  1  0  0  0  0
 24 23  2  0  0  0  0
 25 23  2  0  0  0  0
 26  8  1  0  0  0  0
 27 28  1  0  0  0  0
 27 30  1  0  0  0  0
 29 27  1  0  0  0  0
 31  6  1  0  0  0  0
M  RAD  2   2   2   3   2
M  END
