Coordinates from ORCA-job Ph-N2-OTs-B3LYPG-aug-cc-pVDZ-scan-d09-49-n400
 OpenBabel07022015303D

 31 30  0  0  0  0  0  0  0  0999 V2000
    0.3536    0.7999   -3.6610 C   0  0  0  0  0  0  0  0  0  0  0  0
    1.1279    1.5021   -2.7205 C   0  0  0  0  0  0  0  0  0  0  0  0
    0.7354    1.6233   -1.5324 C   0  0  0  0  0  0  0  0  0  0  0  0
   -0.3923    1.2238   -0.8549 C   0  0  0  0  0  0  0  0  0  0  0  0
   -1.2135    0.5136   -1.7671 C   0  0  0  0  0  0  0  0  0  0  0  0
   -0.8520    0.3132   -3.1137 C   0  0  0  0  0  0  0  0  0  0  0  0
    0.6349    0.6515   -4.7016 H   0  0  0  0  0  0  0  0  0  0  0  0
    2.6803    2.5329   -3.6227 H   0  0  0  0  0  0  0  0  0  0  0  0
   -0.6503    1.3874    0.1876 H   0  0  0  0  0  0  0  0  0  0  0  0
   -2.1595    0.1113   -1.4001 H   0  0  0  0  0  0  0  0  0  0  0  0
    1.8401    3.0204    1.3239 N   0  0  0  0  0  0  0  0  0  0  0  0
    2.7742    3.5400    1.6004 N   0  0  0  0  0  0  0  0  0  0  0  0
    5.3685    0.2485   -4.4909 C   0  0  0  0  0  0  0  0  0  0  0  0
    6.5566   -0.3571   -4.0731 C   0  0  0  0  0  0  0  0  0  0  0  0
    7.7688    0.3480   -4.0683 C   0  0  0  0  0  0  0  0  0  0  0  0
    7.7694    1.6861   -4.5010 C   0  0  0  0  0  0  0  0  0  0  0  0
    6.5958    2.3095   -4.9225 C   0  0  0  0  0  0  0  0  0  0  0  0
    5.4051    1.5786   -4.9083 C   0  0  0  0  0  0  0  0  0  0  0  0
    4.4319   -0.3058   -4.5108 H   0  0  0  0  0  0  0  0  0  0  0  0
    6.5380   -1.3988   -3.7508 H   0  0  0  0  0  0  0  0  0  0  0  0
    8.7051    2.2469   -4.5112 H   0  0  0  0  0  0  0  0  0  0  0  0
    6.5979    3.3403   -5.2716 H   0  0  0  0  0  0  0  0  0  0  0  0
    3.8833    2.3815   -5.4353 S   0  0  0  0  0  0  0  0  0  0  0  0
    2.8880    1.3410   -5.7990 O   0  0  0  0  0  0  0  0  0  0  0  0
    4.2213    3.4875   -6.3511 O   0  0  0  0  0  0  0  0  0  0  0  0
    3.3584    3.1105   -4.0445 O   0  0  0  0  0  0  0  0  0  0  0  0
    9.0488   -0.3042   -3.6058 C   0  0  0  0  0  0  0  0  0  0  0  0
    8.9188   -1.3834   -3.4574 H   0  0  0  0  0  0  0  0  0  0  0  0
    9.8583   -0.1504   -4.3334 H   0  0  0  0  0  0  0  0  0  0  0  0
    9.3834    0.1284   -2.6514 H   0  0  0  0  0  0  0  0  0  0  0  0
   -1.5368   -0.2353   -3.7636 H   0  0  0  0  0  0  0  0  0  0  0  0
  1  6  2  0  0  0  0
  1  2  1  0  0  0  0
  2  3  2  0  0  0  0
  3  4  1  0  0  0  0
  4  9  1  0  0  0  0
  5 10  1  0  0  0  0
  5  4  2  0  0  0  0
  6  5  1  0  0  0  0
  7  1  1  0  0  0  0
 11 12  3  0  0  0  0
 13 14  2  0  0  0  0
 14 15  1  0  0  0  0
 14 20  1  0  0  0  0
 15 27  1  0  0  0  0
 16 15  2  0  0  0  0
 17 18  2  0  0  0  0
 17 16  1  0  0  0  0
 18 13  1  0  0  0  0
 19 13  1  0  0  0  0
 21 16  1  0  0  0  0
 22 17  1  0  0  0  0
 23 18  1  0  0  0  0
 23 26  1  0  0  0  0
 24 23  2  0  0  0  0
 25 23  2  0  0  0  0
 26  8  1  0  0  0  0
 27 28  1  0  0  0  0
 27 30  1  0  0  0  0
 29 27  1  0  0  0  0
 31  6  1  0  0  0  0
M  RAD  2   2   2   3   2
M  END
