Coordinates from ORCA-job Ph-N2-OTs-B3LYPG-aug-cc-pVDZ-scan-d09-49-n400
 OpenBabel07022015303D

 31 30  0  0  0  0  0  0  0  0999 V2000
    0.5796    0.8742   -3.5997 C   0  0  0  0  0  0  0  0  0  0  0  0
    1.3520    1.7612   -2.8299 C   0  0  0  0  0  0  0  0  0  0  0  0
    1.0417    2.0107   -1.6374 C   0  0  0  0  0  0  0  0  0  0  0  0
    0.0242    1.5979   -0.8099 C   0  0  0  0  0  0  0  0  0  0  0  0
   -0.7894    0.6988   -1.5456 C   0  0  0  0  0  0  0  0  0  0  0  0
   -0.5199    0.3545   -2.8842 C   0  0  0  0  0  0  0  0  0  0  0  0
    0.7918    0.6120   -4.6341 H   0  0  0  0  0  0  0  0  0  0  0  0
    2.8504    2.6626   -3.9364 H   0  0  0  0  0  0  0  0  0  0  0  0
   -0.1668    1.8723    0.2235 H   0  0  0  0  0  0  0  0  0  0  0  0
   -1.6543    0.2618   -1.0431 H   0  0  0  0  0  0  0  0  0  0  0  0
   -0.0736    2.8862    2.9061 N   0  0  0  0  0  0  0  0  0  0  0  0
    0.0813    3.3427    3.8993 N   0  0  0  0  0  0  0  0  0  0  0  0
    5.4199    0.1624   -4.7192 C   0  0  0  0  0  0  0  0  0  0  0  0
    6.6043   -0.4278   -4.2689 C   0  0  0  0  0  0  0  0  0  0  0  0
    7.8191    0.2715   -4.2927 C   0  0  0  0  0  0  0  0  0  0  0  0
    7.8271    1.5874   -4.7900 C   0  0  0  0  0  0  0  0  0  0  0  0
    6.6586    2.1937   -5.2475 C   0  0  0  0  0  0  0  0  0  0  0  0
    5.4641    1.4698   -5.2020 C   0  0  0  0  0  0  0  0  0  0  0  0
    4.4797   -0.3857   -4.7136 H   0  0  0  0  0  0  0  0  0  0  0  0
    6.5804   -1.4525   -3.8968 H   0  0  0  0  0  0  0  0  0  0  0  0
    8.7650    2.1436   -4.8225 H   0  0  0  0  0  0  0  0  0  0  0  0
    6.6685    3.2065   -5.6457 H   0  0  0  0  0  0  0  0  0  0  0  0
    3.9491    2.2513   -5.7788 S   0  0  0  0  0  0  0  0  0  0  0  0
    2.9138    1.2052   -5.9770 O   0  0  0  0  0  0  0  0  0  0  0  0
    4.2850    3.2226   -6.8367 O   0  0  0  0  0  0  0  0  0  0  0  0
    3.4967    3.1716   -4.4794 O   0  0  0  0  0  0  0  0  0  0  0  0
    9.0937   -0.3619   -3.7908 C   0  0  0  0  0  0  0  0  0  0  0  0
    8.9648   -1.4367   -3.6131 H   0  0  0  0  0  0  0  0  0  0  0  0
    9.9145   -0.2263   -4.5093 H   0  0  0  0  0  0  0  0  0  0  0  0
    9.4110    0.0993   -2.8438 H   0  0  0  0  0  0  0  0  0  0  0  0
   -1.1932   -0.3379   -3.3931 H   0  0  0  0  0  0  0  0  0  0  0  0
  1  6  2  0  0  0  0
  1  2  1  0  0  0  0
  2  3  2  0  0  0  0
  3  4  1  0  0  0  0
  4  9  1  0  0  0  0
  5 10  1  0  0  0  0
  5  4  2  0  0  0  0
  6  5  1  0  0  0  0
  7  1  1  0  0  0  0
 11 12  3  0  0  0  0
 13 19  1  0  0  0  0
 13 14  2  0  0  0  0
 14 20  1  0  0  0  0
 15 14  1  0  0  0  0
 15 27  1  0  0  0  0
 16 15  2  0  0  0  0
 17 18  2  0  0  0  0
 17 16  1  0  0  0  0
 18 13  1  0  0  0  0
 21 16  1  0  0  0  0
 22 17  1  0  0  0  0
 23 18  1  0  0  0  0
 23 26  1  0  0  0  0
 24 23  2  0  0  0  0
 25 23  2  0  0  0  0
 26  8  1  0  0  0  0
 27 28  1  0  0  0  0
 27 30  1  0  0  0  0
 29 27  1  0  0  0  0
 31  6  1  0  0  0  0
M  RAD  2   2   2   3   2
M  END
