Coordinates from ORCA-job Ph-N2-OTs-B3LYPG-aug-cc-pVDZ-scan-d09-49-n400
 OpenBabel07022015303D

 31 30  0  0  0  0  0  0  0  0999 V2000
    0.3486    0.8011   -3.6457 C   0  0  0  0  0  0  0  0  0  0  0  0
    1.1215    1.4966   -2.6982 C   0  0  0  0  0  0  0  0  0  0  0  0
    0.7215    1.6087   -1.5114 C   0  0  0  0  0  0  0  0  0  0  0  0
   -0.4093    1.2061   -0.8413 C   0  0  0  0  0  0  0  0  0  0  0  0
   -1.2275    0.5034   -1.7616 C   0  0  0  0  0  0  0  0  0  0  0  0
   -0.8601    0.3119   -3.1079 C   0  0  0  0  0  0  0  0  0  0  0  0
    0.6338    0.6599   -4.6862 H   0  0  0  0  0  0  0  0  0  0  0  0
    2.6703    2.5279   -3.5842 H   0  0  0  0  0  0  0  0  0  0  0  0
   -0.6691    1.3647    0.2014 H   0  0  0  0  0  0  0  0  0  0  0  0
   -2.1757    0.1001   -1.4012 H   0  0  0  0  0  0  0  0  0  0  0  0
    1.9428    2.9864    1.0761 N   0  0  0  0  0  0  0  0  0  0  0  0
    2.8922    3.5001    1.3080 N   0  0  0  0  0  0  0  0  0  0  0  0
    5.3610    0.2601   -4.4674 C   0  0  0  0  0  0  0  0  0  0  0  0
    6.5492   -0.3500   -4.0568 C   0  0  0  0  0  0  0  0  0  0  0  0
    7.7632    0.3519   -4.0546 C   0  0  0  0  0  0  0  0  0  0  0  0
    7.7655    1.6916   -4.4825 C   0  0  0  0  0  0  0  0  0  0  0  0
    6.5916    2.3196   -4.8965 C   0  0  0  0  0  0  0  0  0  0  0  0
    5.3993    1.5918   -4.8800 C   0  0  0  0  0  0  0  0  0  0  0  0
    4.4230   -0.2920   -4.4855 H   0  0  0  0  0  0  0  0  0  0  0  0
    6.5292   -1.3928   -3.7381 H   0  0  0  0  0  0  0  0  0  0  0  0
    8.7026    2.2499   -4.4948 H   0  0  0  0  0  0  0  0  0  0  0  0
    6.5947    3.3517   -5.2419 H   0  0  0  0  0  0  0  0  0  0  0  0
    3.8769    2.4002   -5.3966 S   0  0  0  0  0  0  0  0  0  0  0  0
    2.8827    1.3635   -5.7742 O   0  0  0  0  0  0  0  0  0  0  0  0
    4.2141    3.5181   -6.2982 O   0  0  0  0  0  0  0  0  0  0  0  0
    3.3514    3.1096   -3.9963 O   0  0  0  0  0  0  0  0  0  0  0  0
    9.0435   -0.3053   -3.6001 C   0  0  0  0  0  0  0  0  0  0  0  0
    8.9109   -1.3843   -3.4531 H   0  0  0  0  0  0  0  0  0  0  0  0
    9.8497   -0.1527   -4.3317 H   0  0  0  0  0  0  0  0  0  0  0  0
    9.3847    0.1245   -2.6467 H   0  0  0  0  0  0  0  0  0  0  0  0
   -1.5425   -0.2312   -3.7646 H   0  0  0  0  0  0  0  0  0  0  0  0
  1  6  2  0  0  0  0
  1  2  1  0  0  0  0
  2  3  2  0  0  0  0
  3  4  1  0  0  0  0
  4  9  1  0  0  0  0
  5 10  1  0  0  0  0
  5  4  2  0  0  0  0
  6  5  1  0  0  0  0
  7  1  1  0  0  0  0
 11 12  3  0  0  0  0
 13 14  2  0  0  0  0
 14 15  1  0  0  0  0
 14 20  1  0  0  0  0
 15 27  1  0  0  0  0
 16 15  2  0  0  0  0
 17 18  2  0  0  0  0
 17 16  1  0  0  0  0
 18 13  1  0  0  0  0
 19 13  1  0  0  0  0
 21 16  1  0  0  0  0
 22 17  1  0  0  0  0
 23 18  1  0  0  0  0
 23 26  1  0  0  0  0
 24 23  2  0  0  0  0
 25 23  2  0  0  0  0
 26  8  1  0  0  0  0
 27 28  1  0  0  0  0
 27 30  1  0  0  0  0
 29 27  1  0  0  0  0
 31  6  1  0  0  0  0
M  RAD  2   2   2   3   2
M  END
