Coordinates from ORCA-job Ph-N2-OTs-B3LYPG-aug-cc-pVDZ-scan-d09-49-n400
 OpenBabel07022015303D

 31 30  0  0  0  0  0  0  0  0999 V2000
    0.3501    0.8041   -3.6292 C   0  0  0  0  0  0  0  0  0  0  0  0
    1.1211    1.5009   -2.6798 C   0  0  0  0  0  0  0  0  0  0  0  0
    0.7134    1.6055   -1.4944 C   0  0  0  0  0  0  0  0  0  0  0  0
   -0.4161    1.1973   -0.8271 C   0  0  0  0  0  0  0  0  0  0  0  0
   -1.2296    0.4939   -1.7508 C   0  0  0  0  0  0  0  0  0  0  0  0
   -0.8579    0.3081   -3.0968 C   0  0  0  0  0  0  0  0  0  0  0  0
    0.6381    0.6670   -4.6696 H   0  0  0  0  0  0  0  0  0  0  0  0
    2.6637    2.5257   -3.5508 H   0  0  0  0  0  0  0  0  0  0  0  0
   -0.6776    1.3524    0.2158 H   0  0  0  0  0  0  0  0  0  0  0  0
   -2.1770    0.0862   -1.3935 H   0  0  0  0  0  0  0  0  0  0  0  0
    1.9896    2.9527    0.8567 N   0  0  0  0  0  0  0  0  0  0  0  0
    2.9390    3.4709    1.0786 N   0  0  0  0  0  0  0  0  0  0  0  0
    5.3548    0.2699   -4.4497 C   0  0  0  0  0  0  0  0  0  0  0  0
    6.5429   -0.3453   -4.0466 C   0  0  0  0  0  0  0  0  0  0  0  0
    7.7590    0.3530   -4.0472 C   0  0  0  0  0  0  0  0  0  0  0  0
    7.7635    1.6941   -4.4704 C   0  0  0  0  0  0  0  0  0  0  0  0
    6.5895    2.3272   -4.8767 C   0  0  0  0  0  0  0  0  0  0  0  0
    5.3952    1.6030   -4.8576 C   0  0  0  0  0  0  0  0  0  0  0  0
    4.4152   -0.2795   -4.4658 H   0  0  0  0  0  0  0  0  0  0  0  0
    6.5211   -1.3892   -3.7316 H   0  0  0  0  0  0  0  0  0  0  0  0
    8.7022    2.2497   -4.4851 H   0  0  0  0  0  0  0  0  0  0  0  0
    6.5940    3.3605   -5.2184 H   0  0  0  0  0  0  0  0  0  0  0  0
    3.8725    2.4177   -5.3634 S   0  0  0  0  0  0  0  0  0  0  0  0
    2.8781    1.3854   -5.7526 O   0  0  0  0  0  0  0  0  0  0  0  0
    4.2095    3.5455   -6.2528 O   0  0  0  0  0  0  0  0  0  0  0  0
    3.3487    3.1098   -3.9545 O   0  0  0  0  0  0  0  0  0  0  0  0
    9.0394   -0.3097   -3.6010 C   0  0  0  0  0  0  0  0  0  0  0  0
    8.9038   -1.3886   -3.4556 H   0  0  0  0  0  0  0  0  0  0  0  0
    9.8422   -0.1584   -4.3366 H   0  0  0  0  0  0  0  0  0  0  0  0
    9.3872    0.1169   -2.6485 H   0  0  0  0  0  0  0  0  0  0  0  0
   -1.5363   -0.2358   -3.7570 H   0  0  0  0  0  0  0  0  0  0  0  0
  1  6  2  0  0  0  0
  1  2  1  0  0  0  0
  2  3  2  0  0  0  0
  3  4  1  0  0  0  0
  4  9  1  0  0  0  0
  5 10  1  0  0  0  0
  5  4  2  0  0  0  0
  6  5  1  0  0  0  0
  7  1  1  0  0  0  0
 11 12  3  0  0  0  0
 13 14  2  0  0  0  0
 14 20  1  0  0  0  0
 15 14  1  0  0  0  0
 15 27  1  0  0  0  0
 16 15  2  0  0  0  0
 17 18  2  0  0  0  0
 17 16  1  0  0  0  0
 18 13  1  0  0  0  0
 19 13  1  0  0  0  0
 21 16  1  0  0  0  0
 22 17  1  0  0  0  0
 23 18  1  0  0  0  0
 23 26  1  0  0  0  0
 24 23  2  0  0  0  0
 25 23  2  0  0  0  0
 26  8  1  0  0  0  0
 27 28  1  0  0  0  0
 27 30  1  0  0  0  0
 29 27  1  0  0  0  0
 31  6  1  0  0  0  0
M  RAD  2   2   2   3   2
M  END
