Coordinates from ORCA-job Ph-N2-OTs-B3LYPG-aug-cc-pVDZ-scan-d09-49-n400
 OpenBabel07022015303D

 31 30  0  0  0  0  0  0  0  0999 V2000
    0.3512    0.8152   -3.5951 C   0  0  0  0  0  0  0  0  0  0  0  0
    1.1213    1.5153   -2.6440 C   0  0  0  0  0  0  0  0  0  0  0  0
    0.6945    1.6096   -1.4630 C   0  0  0  0  0  0  0  0  0  0  0  0
   -0.4350    1.1970   -0.8015 C   0  0  0  0  0  0  0  0  0  0  0  0
   -1.2401    0.4920   -1.7308 C   0  0  0  0  0  0  0  0  0  0  0  0
   -0.8580    0.3115   -3.0746 C   0  0  0  0  0  0  0  0  0  0  0  0
    0.6462    0.6819   -4.6342 H   0  0  0  0  0  0  0  0  0  0  0  0
    2.6546    2.5163   -3.5012 H   0  0  0  0  0  0  0  0  0  0  0  0
   -0.7015    1.3505    0.2403 H   0  0  0  0  0  0  0  0  0  0  0  0
   -2.1882    0.0804   -1.3800 H   0  0  0  0  0  0  0  0  0  0  0  0
    1.9996    2.8965    0.5664 N   0  0  0  0  0  0  0  0  0  0  0  0
    2.9674    3.3990    0.7399 N   0  0  0  0  0  0  0  0  0  0  0  0
    5.3569    0.2752   -4.4282 C   0  0  0  0  0  0  0  0  0  0  0  0
    6.5483   -0.3429   -4.0393 C   0  0  0  0  0  0  0  0  0  0  0  0
    7.7643    0.3557   -4.0434 C   0  0  0  0  0  0  0  0  0  0  0  0
    7.7648    1.7004   -4.4551 C   0  0  0  0  0  0  0  0  0  0  0  0
    6.5876    2.3364   -4.8469 C   0  0  0  0  0  0  0  0  0  0  0  0
    5.3935    1.6118   -4.8250 C   0  0  0  0  0  0  0  0  0  0  0  0
    4.4176   -0.2748   -4.4424 H   0  0  0  0  0  0  0  0  0  0  0  0
    6.5289   -1.3895   -3.7330 H   0  0  0  0  0  0  0  0  0  0  0  0
    8.7032    2.2564   -4.4724 H   0  0  0  0  0  0  0  0  0  0  0  0
    6.5891    3.3724   -5.1803 H   0  0  0  0  0  0  0  0  0  0  0  0
    3.8676    2.4304   -5.3156 S   0  0  0  0  0  0  0  0  0  0  0  0
    2.8751    1.4018   -5.7190 O   0  0  0  0  0  0  0  0  0  0  0  0
    4.2018    3.5705   -6.1907 O   0  0  0  0  0  0  0  0  0  0  0  0
    3.3459    3.1013   -3.8972 O   0  0  0  0  0  0  0  0  0  0  0  0
    9.0484   -0.3105   -3.6135 C   0  0  0  0  0  0  0  0  0  0  0  0
    8.9131   -1.3899   -3.4716 H   0  0  0  0  0  0  0  0  0  0  0  0
    9.8437   -0.1568   -4.3568 H   0  0  0  0  0  0  0  0  0  0  0  0
    9.4068    0.1113   -2.6629 H   0  0  0  0  0  0  0  0  0  0  0  0
   -1.5291   -0.2337   -3.7410 H   0  0  0  0  0  0  0  0  0  0  0  0
  1  6  2  0  0  0  0
  1  2  1  0  0  0  0
  2  3  2  0  0  0  0
  3  4  1  0  0  0  0
  4  9  1  0  0  0  0
  5 10  1  0  0  0  0
  5  4  2  0  0  0  0
  6  5  1  0  0  0  0
  7  1  1  0  0  0  0
 11 12  3  0  0  0  0
 13 14  2  0  0  0  0
 14 20  1  0  0  0  0
 15 14  1  0  0  0  0
 15 27  1  0  0  0  0
 16 15  2  0  0  0  0
 17 18  2  0  0  0  0
 17 16  1  0  0  0  0
 18 13  1  0  0  0  0
 19 13  1  0  0  0  0
 21 16  1  0  0  0  0
 22 17  1  0  0  0  0
 23 18  1  0  0  0  0
 23 26  1  0  0  0  0
 24 23  2  0  0  0  0
 25 23  2  0  0  0  0
 26  8  1  0  0  0  0
 27 28  1  0  0  0  0
 27 30  1  0  0  0  0
 29 27  1  0  0  0  0
 31  6  1  0  0  0  0
M  RAD  2   2   2   3   2
M  END
