Coordinates from ORCA-job Ph-N2-OTs-B3LYPG-aug-cc-pVDZ-scan-d09-49-n400
 OpenBabel07022015303D

 31 30  0  0  0  0  0  0  0  0999 V2000
   -0.3046    0.1629   -2.9401 C   0  0  0  0  0  0  0  0  0  0  0  0
    0.6500    1.0501   -2.3831 C   0  0  0  0  0  0  0  0  0  0  0  0
    0.1557    2.0255   -1.7370 C   0  0  0  0  0  0  0  0  0  0  0  0
   -1.0857    2.4985   -1.4097 C   0  0  0  0  0  0  0  0  0  0  0  0
   -2.0395    1.6114   -1.9629 C   0  0  0  0  0  0  0  0  0  0  0  0
   -1.6550    0.4790   -2.7062 C   0  0  0  0  0  0  0  0  0  0  0  0
   -0.0207   -0.7110   -3.5267 H   0  0  0  0  0  0  0  0  0  0  0  0
    2.4962    0.7886   -2.7745 H   0  0  0  0  0  0  0  0  0  0  0  0
   -1.3387    3.3858   -0.8365 H   0  0  0  0  0  0  0  0  0  0  0  0
   -3.0977    1.8244   -1.8031 H   0  0  0  0  0  0  0  0  0  0  0  0
    1.6410    3.4929   -0.8373 N   0  0  0  0  0  0  0  0  0  0  0  0
    2.7157    3.7009   -0.6888 N   0  0  0  0  0  0  0  0  0  0  0  0
    6.0792   -0.0808   -4.8680 C   0  0  0  0  0  0  0  0  0  0  0  0
    7.4450   -0.3593   -4.8972 C   0  0  0  0  0  0  0  0  0  0  0  0
    8.3859    0.5470   -4.3768 C   0  0  0  0  0  0  0  0  0  0  0  0
    7.9214    1.7444   -3.8124 C   0  0  0  0  0  0  0  0  0  0  0  0
    6.5569    2.0412   -3.7690 C   0  0  0  0  0  0  0  0  0  0  0  0
    5.6534    1.1226   -4.3013 C   0  0  0  0  0  0  0  0  0  0  0  0
    5.3549   -0.7770   -5.2874 H   0  0  0  0  0  0  0  0  0  0  0  0
    7.7910   -1.2955   -5.3373 H   0  0  0  0  0  0  0  0  0  0  0  0
    8.6342    2.4620   -3.4039 H   0  0  0  0  0  0  0  0  0  0  0  0
    6.1916    2.9733   -3.3429 H   0  0  0  0  0  0  0  0  0  0  0  0
    3.8992    1.5142   -4.2819 S   0  0  0  0  0  0  0  0  0  0  0  0
    3.2396    0.9181   -5.4689 O   0  0  0  0  0  0  0  0  0  0  0  0
    3.7152    2.9581   -3.9873 O   0  0  0  0  0  0  0  0  0  0  0  0
    3.4718    0.6424   -2.9463 O   0  0  0  0  0  0  0  0  0  0  0  0
    9.8627    0.2449   -4.4553 C   0  0  0  0  0  0  0  0  0  0  0  0
   10.0640   -0.8157   -4.2528 H   0  0  0  0  0  0  0  0  0  0  0  0
   10.2519    0.4639   -5.4615 H   0  0  0  0  0  0  0  0  0  0  0  0
   10.4346    0.8489   -3.7401 H   0  0  0  0  0  0  0  0  0  0  0  0
   -2.4299   -0.1710   -3.1163 H   0  0  0  0  0  0  0  0  0  0  0  0
  1  6  2  0  0  0  0
  1  2  1  0  0  0  0
  2  3  2  0  0  0  0
  3  4  1  0  0  0  0
  4  9  1  0  0  0  0
  5 10  1  0  0  0  0
  5  4  2  0  0  0  0
  6  5  1  0  0  0  0
  7  1  1  0  0  0  0
 11 12  3  0  0  0  0
 13 18  1  0  0  0  0
 14 13  2  0  0  0  0
 14 15  1  0  0  0  0
 15 16  2  0  0  0  0
 16 17  1  0  0  0  0
 16 21  1  0  0  0  0
 17 22  1  0  0  0  0
 18 23  1  0  0  0  0
 18 17  2  0  0  0  0
 19 13  1  0  0  0  0
 20 14  1  0  0  0  0
 23 25  2  0  0  0  0
 23 26  1  0  0  0  0
 24 23  2  0  0  0  0
 26  8  1  0  0  0  0
 27 15  1  0  0  0  0
 27 28  1  0  0  0  0
 27 30  1  0  0  0  0
 29 27  1  0  0  0  0
 31  6  1  0  0  0  0
M  RAD  2   2   2   3   2
M  END
