Coordinates from ORCA-job Ph-N2-OTs-B3LYPG-aug-cc-pVDZ-scan-d09-49-n400
 OpenBabel07022015303D

 31 30  0  0  0  0  0  0  0  0999 V2000
    0.4005    0.8412   -3.7007 C   0  0  0  0  0  0  0  0  0  0  0  0
    1.2059    1.5827   -2.8192 C   0  0  0  0  0  0  0  0  0  0  0  0
    0.8636    1.7498   -1.6212 C   0  0  0  0  0  0  0  0  0  0  0  0
   -0.2334    1.3689   -0.8840 C   0  0  0  0  0  0  0  0  0  0  0  0
   -1.0864    0.6209   -1.7347 C   0  0  0  0  0  0  0  0  0  0  0  0
   -0.7790    0.3708   -3.0862 C   0  0  0  0  0  0  0  0  0  0  0  0
    0.6415    0.6516   -4.7447 H   0  0  0  0  0  0  0  0  0  0  0  0
    2.7202    2.5654   -3.8361 H   0  0  0  0  0  0  0  0  0  0  0  0
   -0.4492    1.5681    0.1619 H   0  0  0  0  0  0  0  0  0  0  0  0
   -2.0130    0.2259   -1.3144 H   0  0  0  0  0  0  0  0  0  0  0  0
    1.3297    2.9231    2.1720 N   0  0  0  0  0  0  0  0  0  0  0  0
    2.1085    3.3746    2.8110 N   0  0  0  0  0  0  0  0  0  0  0  0
    5.3900    0.1863   -4.5986 C   0  0  0  0  0  0  0  0  0  0  0  0
    6.5774   -0.3824   -4.1294 C   0  0  0  0  0  0  0  0  0  0  0  0
    7.7743    0.3476   -4.1092 C   0  0  0  0  0  0  0  0  0  0  0  0
    7.7611    1.6726   -4.5810 C   0  0  0  0  0  0  0  0  0  0  0  0
    6.5891    2.2584   -5.0562 C   0  0  0  0  0  0  0  0  0  0  0  0
    5.4130    1.5039   -5.0547 C   0  0  0  0  0  0  0  0  0  0  0  0
    4.4643   -0.3854   -4.6273 H   0  0  0  0  0  0  0  0  0  0  0  0
    6.5707   -1.4144   -3.7770 H   0  0  0  0  0  0  0  0  0  0  0  0
    8.6852    2.2524   -4.5792 H   0  0  0  0  0  0  0  0  0  0  0  0
    6.5826    3.2786   -5.4352 H   0  0  0  0  0  0  0  0  0  0  0  0
    3.8925    2.2603   -5.6493 S   0  0  0  0  0  0  0  0  0  0  0  0
    2.8950    1.1933   -5.9165 O   0  0  0  0  0  0  0  0  0  0  0  0
    4.2290    3.2811   -6.6594 O   0  0  0  0  0  0  0  0  0  0  0  0
    3.3734    3.1144   -4.3288 O   0  0  0  0  0  0  0  0  0  0  0  0
    9.0520   -0.2632   -3.5876 C   0  0  0  0  0  0  0  0  0  0  0  0
    8.9456   -1.3438   -3.4309 H   0  0  0  0  0  0  0  0  0  0  0  0
    9.8858   -0.0950   -4.2837 H   0  0  0  0  0  0  0  0  0  0  0  0
    9.3355    0.1891   -2.6256 H   0  0  0  0  0  0  0  0  0  0  0  0
   -1.4860   -0.2059   -3.6859 H   0  0  0  0  0  0  0  0  0  0  0  0
  1  6  2  0  0  0  0
  1  2  1  0  0  0  0
  2  3  2  0  0  0  0
  3  4  1  0  0  0  0
  4  9  1  0  0  0  0
  5 10  1  0  0  0  0
  5  4  2  0  0  0  0
  6  5  1  0  0  0  0
  7  1  1  0  0  0  0
 11 12  3  0  0  0  0
 13 14  2  0  0  0  0
 14 15  1  0  0  0  0
 14 20  1  0  0  0  0
 15 27  1  0  0  0  0
 16 21  1  0  0  0  0
 16 15  2  0  0  0  0
 17 18  2  0  0  0  0
 17 16  1  0  0  0  0
 18 13  1  0  0  0  0
 19 13  1  0  0  0  0
 22 17  1  0  0  0  0
 23 18  1  0  0  0  0
 23 26  1  0  0  0  0
 24 23  2  0  0  0  0
 25 23  2  0  0  0  0
 26  8  1  0  0  0  0
 27 28  1  0  0  0  0
 27 30  1  0  0  0  0
 29 27  1  0  0  0  0
 31  6  1  0  0  0  0
M  RAD  2   2   2   3   2
M  END
