Coordinates from ORCA-job Ph-N2-OTs-B3LYPG-aug-cc-pVDZ-scan-d09-49-n400
 OpenBabel07022015303D

 31 30  0  0  0  0  0  0  0  0999 V2000
    0.3557    0.8000   -3.6625 C   0  0  0  0  0  0  0  0  0  0  0  0
    1.1305    1.5031   -2.7230 C   0  0  0  0  0  0  0  0  0  0  0  0
    0.7395    1.6245   -1.5343 C   0  0  0  0  0  0  0  0  0  0  0  0
   -0.3878    1.2238   -0.8562 C   0  0  0  0  0  0  0  0  0  0  0  0
   -1.2095    0.5131   -1.7673 C   0  0  0  0  0  0  0  0  0  0  0  0
   -0.8491    0.3127   -3.1141 C   0  0  0  0  0  0  0  0  0  0  0  0
    0.6359    0.6516   -4.7033 H   0  0  0  0  0  0  0  0  0  0  0  0
    2.6803    2.5344   -3.6271 H   0  0  0  0  0  0  0  0  0  0  0  0
   -0.6437    1.3880    0.1866 H   0  0  0  0  0  0  0  0  0  0  0  0
   -2.1548    0.1102   -1.3991 H   0  0  0  0  0  0  0  0  0  0  0  0
    1.8391    3.0203    1.3364 N   0  0  0  0  0  0  0  0  0  0  0  0
    2.7712    3.5405    1.6184 N   0  0  0  0  0  0  0  0  0  0  0  0
    5.3668    0.2483   -4.4934 C   0  0  0  0  0  0  0  0  0  0  0  0
    6.5544   -0.3572   -4.0739 C   0  0  0  0  0  0  0  0  0  0  0  0
    7.7665    0.3480   -4.0675 C   0  0  0  0  0  0  0  0  0  0  0  0
    7.7677    1.6860   -4.5005 C   0  0  0  0  0  0  0  0  0  0  0  0
    6.5946    2.3092   -4.9238 C   0  0  0  0  0  0  0  0  0  0  0  0
    5.4040    1.5783   -4.9111 C   0  0  0  0  0  0  0  0  0  0  0  0
    4.4303   -0.3061   -4.5144 H   0  0  0  0  0  0  0  0  0  0  0  0
    6.5354   -1.3988   -3.7513 H   0  0  0  0  0  0  0  0  0  0  0  0
    8.7033    2.2468   -4.5095 H   0  0  0  0  0  0  0  0  0  0  0  0
    6.5971    3.3400   -5.2731 H   0  0  0  0  0  0  0  0  0  0  0  0
    3.8828    2.3810   -5.4398 S   0  0  0  0  0  0  0  0  0  0  0  0
    2.8873    1.3403   -5.8026 O   0  0  0  0  0  0  0  0  0  0  0  0
    4.2214    3.4857   -6.3570 O   0  0  0  0  0  0  0  0  0  0  0  0
    3.3575    3.1120   -4.0502 O   0  0  0  0  0  0  0  0  0  0  0  0
    9.0458   -0.3040   -3.6029 C   0  0  0  0  0  0  0  0  0  0  0  0
    8.9158   -1.3832   -3.4547 H   0  0  0  0  0  0  0  0  0  0  0  0
    9.8565   -0.1501   -4.3293 H   0  0  0  0  0  0  0  0  0  0  0  0
    9.3790    0.1287   -2.6480 H   0  0  0  0  0  0  0  0  0  0  0  0
   -1.5341   -0.2363   -3.7633 H   0  0  0  0  0  0  0  0  0  0  0  0
  1  6  2  0  0  0  0
  1  2  1  0  0  0  0
  2  3  2  0  0  0  0
  3  4  1  0  0  0  0
  4  9  1  0  0  0  0
  5 10  1  0  0  0  0
  5  4  2  0  0  0  0
  6  5  1  0  0  0  0
  7  1  1  0  0  0  0
 11 12  3  0  0  0  0
 13 14  2  0  0  0  0
 14 15  1  0  0  0  0
 14 20  1  0  0  0  0
 15 27  1  0  0  0  0
 16 15  2  0  0  0  0
 17 18  2  0  0  0  0
 17 16  1  0  0  0  0
 18 13  1  0  0  0  0
 19 13  1  0  0  0  0
 21 16  1  0  0  0  0
 22 17  1  0  0  0  0
 23 18  1  0  0  0  0
 23 26  1  0  0  0  0
 24 23  2  0  0  0  0
 25 23  2  0  0  0  0
 26  8  1  0  0  0  0
 27 28  1  0  0  0  0
 27 30  1  0  0  0  0
 29 27  1  0  0  0  0
 31  6  1  0  0  0  0
M  RAD  2   2   2   3   2
M  END
