Coordinates from ORCA-job Ph-N2-OTs-B3LYPG-aug-cc-pVDZ-scan-d09-49-n400
 OpenBabel07022015303D

 31 30  0  0  0  0  0  0  0  0999 V2000
    0.3762    0.8103   -3.6959 C   0  0  0  0  0  0  0  0  0  0  0  0
    1.1665    1.5239   -2.7776 C   0  0  0  0  0  0  0  0  0  0  0  0
    0.8007    1.6519   -1.5815 C   0  0  0  0  0  0  0  0  0  0  0  0
   -0.3100    1.2502   -0.8772 C   0  0  0  0  0  0  0  0  0  0  0  0
   -1.1472    0.5295   -1.7663 C   0  0  0  0  0  0  0  0  0  0  0  0
   -0.8146    0.3215   -3.1189 C   0  0  0  0  0  0  0  0  0  0  0  0
    0.6361    0.6541   -4.7408 H   0  0  0  0  0  0  0  0  0  0  0  0
    2.6857    2.5546   -3.7243 H   0  0  0  0  0  0  0  0  0  0  0  0
   -0.5454    1.4181    0.1697 H   0  0  0  0  0  0  0  0  0  0  0  0
   -2.0820    0.1235   -1.3755 H   0  0  0  0  0  0  0  0  0  0  0  0
    1.7346    3.0167    1.6914 N   0  0  0  0  0  0  0  0  0  0  0  0
    2.6078    3.5499    2.1061 N   0  0  0  0  0  0  0  0  0  0  0  0
    5.3591    0.2290   -4.5439 C   0  0  0  0  0  0  0  0  0  0  0  0
    6.5420   -0.3659   -4.0963 C   0  0  0  0  0  0  0  0  0  0  0  0
    7.7488    0.3475   -4.0687 C   0  0  0  0  0  0  0  0  0  0  0  0
    7.7497    1.6832   -4.5095 C   0  0  0  0  0  0  0  0  0  0  0  0
    6.5820    2.2955   -4.9617 C   0  0  0  0  0  0  0  0  0  0  0  0
    5.3962    1.5566   -4.9691 C   0  0  0  0  0  0  0  0  0  0  0  0
    4.4265   -0.3310   -4.5802 H   0  0  0  0  0  0  0  0  0  0  0  0
    6.5235   -1.4057   -3.7679 H   0  0  0  0  0  0  0  0  0  0  0  0
    8.6816    2.2504   -4.5020 H   0  0  0  0  0  0  0  0  0  0  0  0
    6.5855    3.3241   -5.3171 H   0  0  0  0  0  0  0  0  0  0  0  0
    3.8818    2.3467   -5.5348 S   0  0  0  0  0  0  0  0  0  0  0  0
    2.8855    1.2978   -5.8700 O   0  0  0  0  0  0  0  0  0  0  0  0
    4.2298    3.4204   -6.4846 O   0  0  0  0  0  0  0  0  0  0  0  0
    3.3502    3.1265   -4.1744 O   0  0  0  0  0  0  0  0  0  0  0  0
    9.0225   -0.2924   -3.5731 C   0  0  0  0  0  0  0  0  0  0  0  0
    8.8979   -1.3722   -3.4244 H   0  0  0  0  0  0  0  0  0  0  0  0
    9.8480   -0.1341   -4.2816 H   0  0  0  0  0  0  0  0  0  0  0  0
    9.3304    0.1459   -2.6123 H   0  0  0  0  0  0  0  0  0  0  0  0
   -1.5103   -0.2355   -3.7496 H   0  0  0  0  0  0  0  0  0  0  0  0
  1  6  2  0  0  0  0
  1  2  1  0  0  0  0
  2  3  2  0  0  0  0
  3  4  1  0  0  0  0
  4  9  1  0  0  0  0
  5 10  1  0  0  0  0
  5  4  2  0  0  0  0
  6  5  1  0  0  0  0
  7  1  1  0  0  0  0
 11 12  3  0  0  0  0
 13 14  2  0  0  0  0
 14 15  1  0  0  0  0
 14 20  1  0  0  0  0
 15 27  1  0  0  0  0
 16 21  1  0  0  0  0
 16 15  2  0  0  0  0
 17 16  1  0  0  0  0
 18 17  2  0  0  0  0
 18 13  1  0  0  0  0
 19 13  1  0  0  0  0
 22 17  1  0  0  0  0
 23 18  1  0  0  0  0
 23 26  1  0  0  0  0
 24 23  2  0  0  0  0
 25 23  2  0  0  0  0
 26  8  1  0  0  0  0
 27 28  1  0  0  0  0
 27 30  1  0  0  0  0
 29 27  1  0  0  0  0
 31  6  1  0  0  0  0
M  RAD  2   2   2   3   2
M  END
