Coordinates from ORCA-job Ph-N2-OTs-B3LYPG-aug-cc-pVDZ-scan-d09-49-n400
 OpenBabel07022015303D

 31 31  0  0  0  0  0  0  0  0999 V2000
   -0.1298   -0.2021   -2.2939 C   0  0  0  0  0  0  0  0  0  0  0  0
    0.9056    0.7453   -2.2343 C   0  0  0  0  0  0  0  0  0  0  0  0
    0.5036    2.0173   -2.5472 C   0  0  0  0  0  0  0  0  0  0  0  0
   -0.7398    2.4869   -2.9191 C   0  0  0  0  0  0  0  0  0  0  0  0
   -1.7324    1.4993   -2.9812 C   0  0  0  0  0  0  0  0  0  0  0  0
   -1.4255    0.1694   -2.6693 C   0  0  0  0  0  0  0  0  0  0  0  0
    0.0983   -1.2385   -2.0478 H   0  0  0  0  0  0  0  0  0  0  0  0
    1.9401    0.4941   -1.9672 H   0  0  0  0  0  0  0  0  0  0  0  0
   -0.9355    3.5299   -3.1525 H   0  0  0  0  0  0  0  0  0  0  0  0
   -2.7410    1.7827   -3.2800 H   0  0  0  0  0  0  0  0  0  0  0  0
    1.6869    3.2509   -2.4534 N   0  0  0  0  0  0  0  0  0  0  0  0
    1.8961    4.3243   -2.2441 N   0  0  0  0  0  0  0  0  0  0  0  0
    5.8961   -0.0050   -3.8233 C   0  0  0  0  0  0  0  0  0  0  0  0
    7.0114   -0.3058   -4.6040 C   0  0  0  0  0  0  0  0  0  0  0  0
    8.0578    0.6195   -4.7663 C   0  0  0  0  0  0  0  0  0  0  0  0
    7.9575    1.8578   -4.1170 C   0  0  0  0  0  0  0  0  0  0  0  0
    6.8434    2.1781   -3.3326 C   0  0  0  0  0  0  0  0  0  0  0  0
    5.8216    1.2408   -3.1941 C   0  0  0  0  0  0  0  0  0  0  0  0
    5.0948   -0.7288   -3.6847 H   0  0  0  0  0  0  0  0  0  0  0  0
    7.0733   -1.2792   -5.0940 H   0  0  0  0  0  0  0  0  0  0  0  0
    8.7635    2.5865   -4.2194 H   0  0  0  0  0  0  0  0  0  0  0  0
    6.7704    3.1374   -2.8229 H   0  0  0  0  0  0  0  0  0  0  0  0
    4.3530    1.6561   -2.2225 S   0  0  0  0  0  0  0  0  0  0  0  0
    3.3312    2.0991   -3.3105 O   0  0  0  0  0  0  0  0  0  0  0  0
    4.7001    2.7813   -1.3006 O   0  0  0  0  0  0  0  0  0  0  0  0
    3.8824    0.3822   -1.5628 O   0  0  0  0  0  0  0  0  0  0  0  0
    9.2562    0.2723   -5.6166 C   0  0  0  0  0  0  0  0  0  0  0  0
    9.7362   -0.6518   -5.2631 H   0  0  0  0  0  0  0  0  0  0  0  0
    8.9644    0.1058   -6.6642 H   0  0  0  0  0  0  0  0  0  0  0  0
   10.0083    1.0718   -5.5993 H   0  0  0  0  0  0  0  0  0  0  0  0
   -2.2090   -0.5866   -2.7241 H   0  0  0  0  0  0  0  0  0  0  0  0
  1  2  1  0  0  0  0
  1  7  1  0  0  0  0
  2  8  1  0  0  0  0
  3 11  1  0  0  0  0
  3  2  2  0  0  0  0
  4  3  1  0  0  0  0
  5  4  2  0  0  0  0
  5  6  1  0  0  0  0
  6  1  2  0  0  0  0
  9  4  1  0  0  0  0
 10  5  1  0  0  0  0
 11 12  2  0  0  0  0
 13 19  1  0  0  0  0
 13 18  2  0  0  0  0
 14 13  1  0  0  0  0
 15 14  2  0  0  0  0
 15 16  1  0  0  0  0
 16 17  2  0  0  0  0
 17 18  1  0  0  0  0
 17 22  1  0  0  0  0
 18 23  1  0  0  0  0
 20 14  1  0  0  0  0
 21 16  1  0  0  0  0
 23 26  2  0  0  0  0
 23 25  1  0  0  0  0
 24 23  2  0  0  0  0
 27 30  1  0  0  0  0
 27 28  1  0  0  0  0
 27 15  1  0  0  0  0
 29 27  1  0  0  0  0
 31  6  1  0  0  0  0
M  RAD  2  12   2  25   2
M  END
