Coordinates from ORCA-job Ph-N2-OTs-B3LYPG-aug-cc-pVDZ-scan-d09-49-n400
 OpenBabel07022015303D

 31 30  0  0  0  0  0  0  0  0999 V2000
    0.4339    0.8477   -3.6985 C   0  0  0  0  0  0  0  0  0  0  0  0
    1.2373    1.6194   -2.8414 C   0  0  0  0  0  0  0  0  0  0  0  0
    0.9025    1.8099   -1.6448 C   0  0  0  0  0  0  0  0  0  0  0  0
   -0.1817    1.4300   -0.8884 C   0  0  0  0  0  0  0  0  0  0  0  0
   -1.0320    0.6515   -1.7141 C   0  0  0  0  0  0  0  0  0  0  0  0
   -0.7334    0.3753   -3.0626 C   0  0  0  0  0  0  0  0  0  0  0  0
    0.6686    0.6371   -4.7399 H   0  0  0  0  0  0  0  0  0  0  0  0
    2.7491    2.5765   -3.8861 H   0  0  0  0  0  0  0  0  0  0  0  0
   -0.3907    1.6492    0.1550 H   0  0  0  0  0  0  0  0  0  0  0  0
   -1.9493    0.2535   -1.2764 H   0  0  0  0  0  0  0  0  0  0  0  0
    1.0100    2.9269    2.5150 N   0  0  0  0  0  0  0  0  0  0  0  0
    1.6701    3.3729    3.2794 N   0  0  0  0  0  0  0  0  0  0  0  0
    5.4051    0.1700   -4.6365 C   0  0  0  0  0  0  0  0  0  0  0  0
    6.5932   -0.3948   -4.1641 C   0  0  0  0  0  0  0  0  0  0  0  0
    7.7901    0.3352   -4.1518 C   0  0  0  0  0  0  0  0  0  0  0  0
    7.7764    1.6560   -4.6355 C   0  0  0  0  0  0  0  0  0  0  0  0
    6.6039    2.2376   -5.1145 C   0  0  0  0  0  0  0  0  0  0  0  0
    5.4276    1.4833   -5.1046 C   0  0  0  0  0  0  0  0  0  0  0  0
    4.4791   -0.4014   -4.6583 H   0  0  0  0  0  0  0  0  0  0  0  0
    6.5868   -1.4235   -3.8023 H   0  0  0  0  0  0  0  0  0  0  0  0
    8.7004    2.2359   -4.6400 H   0  0  0  0  0  0  0  0  0  0  0  0
    6.5972    3.2545   -5.5024 H   0  0  0  0  0  0  0  0  0  0  0  0
    3.9063    2.2348   -5.7035 S   0  0  0  0  0  0  0  0  0  0  0  0
    2.9035    1.1668   -5.9460 O   0  0  0  0  0  0  0  0  0  0  0  0
    4.2403    3.2364   -6.7334 O   0  0  0  0  0  0  0  0  0  0  0  0
    3.3986    3.1145   -4.3956 O   0  0  0  0  0  0  0  0  0  0  0  0
    9.0683   -0.2709   -3.6259 C   0  0  0  0  0  0  0  0  0  0  0  0
    8.9621   -1.3501   -3.4602 H   0  0  0  0  0  0  0  0  0  0  0  0
    9.9016   -0.1084   -4.3240 H   0  0  0  0  0  0  0  0  0  0  0  0
    9.3523    0.1895   -2.6680 H   0  0  0  0  0  0  0  0  0  0  0  0
   -1.4377   -0.2244   -3.6426 H   0  0  0  0  0  0  0  0  0  0  0  0
  1  6  2  0  0  0  0
  1  2  1  0  0  0  0
  2  3  2  0  0  0  0
  3  4  1  0  0  0  0
  4  9  1  0  0  0  0
  5 10  1  0  0  0  0
  5  4  2  0  0  0  0
  6  5  1  0  0  0  0
  7  1  1  0  0  0  0
 11 12  3  0  0  0  0
 13 14  2  0  0  0  0
 14 15  1  0  0  0  0
 14 20  1  0  0  0  0
 15 27  1  0  0  0  0
 16 15  2  0  0  0  0
 17 18  2  0  0  0  0
 17 16  1  0  0  0  0
 18 13  1  0  0  0  0
 19 13  1  0  0  0  0
 21 16  1  0  0  0  0
 22 17  1  0  0  0  0
 23 18  1  0  0  0  0
 23 26  1  0  0  0  0
 24 23  2  0  0  0  0
 25 23  2  0  0  0  0
 26  8  1  0  0  0  0
 27 28  1  0  0  0  0
 27 30  1  0  0  0  0
 29 27  1  0  0  0  0
 31  6  1  0  0  0  0
M  RAD  2   2   2   3   2
M  END
