Coordinates from ORCA-job Ph-N2-OTs-B3LYPG-aug-cc-pVDZ-scan-d09-49-n400
 OpenBabel07022015303D

 31 32  0  0  1  0  0  0  0  0999 V2000
    1.9748    0.3494   -2.2879 C   0  0  0  0  0  0  0  0  0  0  0  0
    1.7775    1.2672   -3.4515 C   0  0  1  0  0  0  0  0  0  0  0  0
    0.3302    1.8017   -3.5603 C   0  0  0  0  0  0  0  0  0  0  0  0
   -0.5016    1.7721   -2.3389 C   0  0  0  0  0  0  0  0  0  0  0  0
   -0.1291    1.0605   -1.2528 C   0  0  0  0  0  0  0  0  0  0  0  0
    1.1026    0.2879   -1.2611 C   0  0  0  0  0  0  0  0  0  0  0  0
    2.8913   -0.2406   -2.2880 H   0  0  0  0  0  0  0  0  0  0  0  0
    2.0415    0.7990   -4.4062 H   0  0  0  0  0  0  0  0  0  0  0  0
   -1.4344    2.3356   -2.3742 H   0  0  0  0  0  0  0  0  0  0  0  0
   -0.7684    1.0390   -0.3708 H   0  0  0  0  0  0  0  0  0  0  0  0
   -0.0163    2.1881   -4.4735 N   0  0  0  0  0  0  0  0  0  0  0  0
   -0.3977    2.6134   -5.4856 N   0  0  0  0  0  0  0  0  0  0  0  0
    5.3769    0.6758   -4.8921 C   0  0  0  0  0  0  0  0  0  0  0  0
    6.5173   -0.0845   -4.6332 C   0  0  0  0  0  0  0  0  0  0  0  0
    7.4665    0.3297   -3.6830 C   0  0  0  0  0  0  0  0  0  0  0  0
    7.2436    1.5327   -2.9945 C   0  0  0  0  0  0  0  0  0  0  0  0
    6.1074    2.3086   -3.2357 C   0  0  0  0  0  0  0  0  0  0  0  0
    5.1844    1.8645   -4.1829 C   0  0  0  0  0  0  0  0  0  0  0  0
    4.6544    0.3729   -5.6472 H   0  0  0  0  0  0  0  0  0  0  0  0
    6.6743   -1.0100   -5.1888 H   0  0  0  0  0  0  0  0  0  0  0  0
    7.9771    1.8733   -2.2629 H   0  0  0  0  0  0  0  0  0  0  0  0
    5.9515    3.2492   -2.7109 H   0  0  0  0  0  0  0  0  0  0  0  0
    3.7194    2.8548   -4.5124 S   0  0  0  0  0  0  0  0  0  0  0  0
    3.1220    2.3972   -5.7903 O   0  0  0  0  0  0  0  0  0  0  0  0
    4.0198    4.2735   -4.2473 O   0  0  0  0  0  0  0  0  0  0  0  0
    2.6851    2.4238   -3.2645 O   0  0  0  0  0  0  0  0  0  0  0  0
    8.6984   -0.5027   -3.4233 C   0  0  0  0  0  0  0  0  0  0  0  0
    8.4280   -1.5110   -3.0784 H   0  0  0  0  0  0  0  0  0  0  0  0
    9.2929   -0.6225   -4.3407 H   0  0  0  0  0  0  0  0  0  0  0  0
    9.3385   -0.0424   -2.6604 H   0  0  0  0  0  0  0  0  0  0  0  0
    1.3116   -0.3652   -0.4126 H   0  0  0  0  0  0  0  0  0  0  0  0
  1  6  2  0  0  0  0
  2  8  1  6  0  0  0
  2 26  1  0  0  0  0
  2  1  1  0  0  0  0
  3  2  1  0  0  0  0
  3  4  2  0  0  0  0
  4  5  1  0  0  0  0
  5 10  1  0  0  0  0
  6  5  1  0  0  0  0
  6 31  1  0  0  0  0
  7  1  1  0  0  0  0
  9  4  1  0  0  0  0
 11  3  1  0  0  0  0
 12 11  1  0  0  0  0
 13 14  2  0  0  0  0
 13 18  1  0  0  0  0
 14 15  1  0  0  0  0
 15 27  1  0  0  0  0
 15 16  2  0  0  0  0
 16 21  1  0  0  0  0
 17 16  1  0  0  0  0
 17 22  1  0  0  0  0
 18 17  2  0  0  0  0
 19 13  1  0  0  0  0
 20 14  1  0  0  0  0
 23 25  2  0  0  0  0
 23 18  1  0  0  0  0
 23 26  1  0  0  0  0
 24 23  2  0  0  0  0
 27 28  1  0  0  0  0
 27 30  1  0  0  0  0
 29 27  1  0  0  0  0
M  RAD  3   5   2  11   2  12   3
M  END
