Coordinates from ORCA-job Ph-N2-OTs-B3LYPG-aug-cc-pVDZ-scan-d09-49-n400
 OpenBabel07022015303D

 31 31  0  0  0  0  0  0  0  0999 V2000
   -0.0952   -0.2092   -2.3124 C   0  0  0  0  0  0  0  0  0  0  0  0
    0.9145    0.7725   -2.2527 C   0  0  0  0  0  0  0  0  0  0  0  0
    0.4371    2.0121   -2.5429 C   0  0  0  0  0  0  0  0  0  0  0  0
   -0.8089    2.4721   -2.8897 C   0  0  0  0  0  0  0  0  0  0  0  0
   -1.7676    1.4462   -2.9480 C   0  0  0  0  0  0  0  0  0  0  0  0
   -1.4088    0.1239   -2.6597 C   0  0  0  0  0  0  0  0  0  0  0  0
    0.1760   -1.2399   -2.0860 H   0  0  0  0  0  0  0  0  0  0  0  0
    1.9683    0.5537   -2.0071 H   0  0  0  0  0  0  0  0  0  0  0  0
   -1.0390    3.5112   -3.1052 H   0  0  0  0  0  0  0  0  0  0  0  0
   -2.7901    1.7007   -3.2255 H   0  0  0  0  0  0  0  0  0  0  0  0
    1.6640    3.3692   -2.4411 N   0  0  0  0  0  0  0  0  0  0  0  0
    1.8691    4.4388   -2.2261 N   0  0  0  0  0  0  0  0  0  0  0  0
    5.8779    0.0193   -3.8599 C   0  0  0  0  0  0  0  0  0  0  0  0
    6.9971   -0.3008   -4.6273 C   0  0  0  0  0  0  0  0  0  0  0  0
    8.0710    0.5975   -4.7590 C   0  0  0  0  0  0  0  0  0  0  0  0
    7.9949    1.8273   -4.0908 C   0  0  0  0  0  0  0  0  0  0  0  0
    6.8774    2.1659   -3.3187 C   0  0  0  0  0  0  0  0  0  0  0  0
    5.8269    1.2564   -3.2117 C   0  0  0  0  0  0  0  0  0  0  0  0
    5.0548   -0.6841   -3.7461 H   0  0  0  0  0  0  0  0  0  0  0  0
    7.0409   -1.2681   -5.1311 H   0  0  0  0  0  0  0  0  0  0  0  0
    8.8217    2.5354   -4.1699 H   0  0  0  0  0  0  0  0  0  0  0  0
    6.8229    3.1183   -2.7940 H   0  0  0  0  0  0  0  0  0  0  0  0
    4.3507    1.7025   -2.2612 S   0  0  0  0  0  0  0  0  0  0  0  0
    3.3603    2.2000   -3.3427 O   0  0  0  0  0  0  0  0  0  0  0  0
    4.7265    2.7844   -1.2992 O   0  0  0  0  0  0  0  0  0  0  0  0
    3.8318    0.4238   -1.6358 O   0  0  0  0  0  0  0  0  0  0  0  0
    9.2723    0.2313   -5.5974 C   0  0  0  0  0  0  0  0  0  0  0  0
    9.7214   -0.7114   -5.2527 H   0  0  0  0  0  0  0  0  0  0  0  0
    8.9924    0.0904   -6.6522 H   0  0  0  0  0  0  0  0  0  0  0  0
   10.0460    1.0090   -5.5546 H   0  0  0  0  0  0  0  0  0  0  0  0
   -2.1669   -0.6577   -2.7114 H   0  0  0  0  0  0  0  0  0  0  0  0
  1  2  1  0  0  0  0
  1  7  1  0  0  0  0
  2  8  1  0  0  0  0
  3 11  1  0  0  0  0
  3  2  2  0  0  0  0
  4  3  1  0  0  0  0
  5  4  2  0  0  0  0
  5  6  1  0  0  0  0
  6  1  2  0  0  0  0
  9  4  1  0  0  0  0
 10  5  1  0  0  0  0
 11 12  2  0  0  0  0
 13 19  1  0  0  0  0
 13 18  2  0  0  0  0
 14 13  1  0  0  0  0
 15 14  2  0  0  0  0
 15 16  1  0  0  0  0
 16 17  2  0  0  0  0
 17 18  1  0  0  0  0
 17 22  1  0  0  0  0
 18 23  1  0  0  0  0
 20 14  1  0  0  0  0
 21 16  1  0  0  0  0
 23 26  2  0  0  0  0
 23 25  1  0  0  0  0
 24 23  2  0  0  0  0
 27 30  1  0  0  0  0
 27 28  1  0  0  0  0
 27 15  1  0  0  0  0
 29 27  1  0  0  0  0
 31  6  1  0  0  0  0
M  RAD  2  12   2  25   2
M  END
