Coordinates from ORCA-job Ph-N2-OTs-B3LYPG-aug-cc-pVDZ-scan-d09-49-n400
 OpenBabel07022015303D

 31 30  0  0  0  0  0  0  0  0999 V2000
    0.4251    0.8453   -3.7013 C   0  0  0  0  0  0  0  0  0  0  0  0
    1.2296    1.6096   -2.8386 C   0  0  0  0  0  0  0  0  0  0  0  0
    0.8924    1.7956   -1.6420 C   0  0  0  0  0  0  0  0  0  0  0  0
   -0.1958    1.4175   -0.8906 C   0  0  0  0  0  0  0  0  0  0  0  0
   -1.0474    0.6466   -1.7221 C   0  0  0  0  0  0  0  0  0  0  0  0
   -0.7462    0.3753   -3.0709 C   0  0  0  0  0  0  0  0  0  0  0  0
    0.6615    0.6387   -4.7431 H   0  0  0  0  0  0  0  0  0  0  0  0
    2.7420    2.5721   -3.8774 H   0  0  0  0  0  0  0  0  0  0  0  0
   -0.4067    1.6330    0.1532 H   0  0  0  0  0  0  0  0  0  0  0  0
   -1.9676    0.2508   -1.2887 H   0  0  0  0  0  0  0  0  0  0  0  0
    1.0858    2.9280    2.4586 N   0  0  0  0  0  0  0  0  0  0  0  0
    1.7746    3.3735    3.1975 N   0  0  0  0  0  0  0  0  0  0  0  0
    5.4029    0.1724   -4.6286 C   0  0  0  0  0  0  0  0  0  0  0  0
    6.5912   -0.3921   -4.1563 C   0  0  0  0  0  0  0  0  0  0  0  0
    7.7876    0.3387   -4.1423 C   0  0  0  0  0  0  0  0  0  0  0  0
    7.7732    1.6602   -4.6240 C   0  0  0  0  0  0  0  0  0  0  0  0
    6.6005    2.2417   -5.1027 C   0  0  0  0  0  0  0  0  0  0  0  0
    5.4247    1.4865   -5.0946 C   0  0  0  0  0  0  0  0  0  0  0  0
    4.4774   -0.3997   -4.6518 H   0  0  0  0  0  0  0  0  0  0  0  0
    6.5854   -1.4214   -3.7961 H   0  0  0  0  0  0  0  0  0  0  0  0
    8.6968    2.2407   -4.6270 H   0  0  0  0  0  0  0  0  0  0  0  0
    6.5932    3.2592   -5.4890 H   0  0  0  0  0  0  0  0  0  0  0  0
    3.9033    2.2378   -5.6933 S   0  0  0  0  0  0  0  0  0  0  0  0
    2.9024    1.1692   -5.9409 O   0  0  0  0  0  0  0  0  0  0  0  0
    4.2376    3.2432   -6.7194 O   0  0  0  0  0  0  0  0  0  0  0  0
    3.3922    3.1125   -4.3834 O   0  0  0  0  0  0  0  0  0  0  0  0
    9.0659   -0.2673   -3.6168 C   0  0  0  0  0  0  0  0  0  0  0  0
    8.9603   -1.3468   -3.4523 H   0  0  0  0  0  0  0  0  0  0  0  0
    9.8993   -0.1035   -4.3144 H   0  0  0  0  0  0  0  0  0  0  0  0
    9.3495    0.1922   -2.6582 H   0  0  0  0  0  0  0  0  0  0  0  0
   -1.4515   -0.2186   -3.6556 H   0  0  0  0  0  0  0  0  0  0  0  0
  1  6  2  0  0  0  0
  1  2  1  0  0  0  0
  2  3  2  0  0  0  0
  3  4  1  0  0  0  0
  4  9  1  0  0  0  0
  5 10  1  0  0  0  0
  5  4  2  0  0  0  0
  6  5  1  0  0  0  0
  7  1  1  0  0  0  0
 11 12  3  0  0  0  0
 13 14  2  0  0  0  0
 14 15  1  0  0  0  0
 14 20  1  0  0  0  0
 15 27  1  0  0  0  0
 16 15  2  0  0  0  0
 17 18  2  0  0  0  0
 17 16  1  0  0  0  0
 18 13  1  0  0  0  0
 19 13  1  0  0  0  0
 21 16  1  0  0  0  0
 22 17  1  0  0  0  0
 23 18  1  0  0  0  0
 23 26  1  0  0  0  0
 24 23  2  0  0  0  0
 25 23  2  0  0  0  0
 26  8  1  0  0  0  0
 27 28  1  0  0  0  0
 27 30  1  0  0  0  0
 29 27  1  0  0  0  0
 31  6  1  0  0  0  0
M  RAD  2   2   2   3   2
M  END
