Coordinates from ORCA-job Ph-N2-OTs-B3LYPG-aug-cc-pVDZ-scan-d09-49-n400
 OpenBabel07022015303D

 31 30  0  0  0  0  0  0  0  0999 V2000
    0.0498   -0.2203   -2.4067 C   0  0  0  0  0  0  0  0  0  0  0  0
    0.9819    0.8371   -2.2607 C   0  0  0  0  0  0  0  0  0  0  0  0
    0.3773    2.0130   -2.4959 C   0  0  0  0  0  0  0  0  0  0  0  0
   -0.8731    2.4301   -2.8470 C   0  0  0  0  0  0  0  0  0  0  0  0
   -1.7419    1.3286   -2.9869 C   0  0  0  0  0  0  0  0  0  0  0  0
   -1.2794    0.0254   -2.7659 C   0  0  0  0  0  0  0  0  0  0  0  0
    0.4077   -1.2355   -2.2367 H   0  0  0  0  0  0  0  0  0  0  0  0
    2.0644    0.6817   -2.0071 H   0  0  0  0  0  0  0  0  0  0  0  0
   -1.1772    3.4592   -3.0090 H   0  0  0  0  0  0  0  0  0  0  0  0
   -2.7764    1.5188   -3.2728 H   0  0  0  0  0  0  0  0  0  0  0  0
    1.5648    3.5829   -2.2582 N   0  0  0  0  0  0  0  0  0  0  0  0
    1.8151    4.6241   -1.9837 N   0  0  0  0  0  0  0  0  0  0  0  0
    5.8098    0.0654   -3.8597 C   0  0  0  0  0  0  0  0  0  0  0  0
    6.9174   -0.3078   -4.6207 C   0  0  0  0  0  0  0  0  0  0  0  0
    8.0290    0.5426   -4.7543 C   0  0  0  0  0  0  0  0  0  0  0  0
    8.0036    1.7784   -4.0941 C   0  0  0  0  0  0  0  0  0  0  0  0
    6.9001    2.1682   -3.3263 C   0  0  0  0  0  0  0  0  0  0  0  0
    5.8096    1.3070   -3.2183 C   0  0  0  0  0  0  0  0  0  0  0  0
    4.9570   -0.6014   -3.7455 H   0  0  0  0  0  0  0  0  0  0  0  0
    6.9235   -1.2798   -5.1175 H   0  0  0  0  0  0  0  0  0  0  0  0
    8.8597    2.4502   -4.1762 H   0  0  0  0  0  0  0  0  0  0  0  0
    6.8845    3.1242   -2.8058 H   0  0  0  0  0  0  0  0  0  0  0  0
    4.3496    1.8418   -2.2859 S   0  0  0  0  0  0  0  0  0  0  0  0
    3.3902    2.4044   -3.3372 O   0  0  0  0  0  0  0  0  0  0  0  0
    4.7978    2.8622   -1.2881 O   0  0  0  0  0  0  0  0  0  0  0  0
    3.7608    0.5722   -1.6702 O   0  0  0  0  0  0  0  0  0  0  0  0
    9.2173    0.1198   -5.5849 C   0  0  0  0  0  0  0  0  0  0  0  0
    9.6408   -0.8259   -5.2162 H   0  0  0  0  0  0  0  0  0  0  0  0
    8.9315   -0.0409   -6.6352 H   0  0  0  0  0  0  0  0  0  0  0  0
   10.0129    0.8762   -5.5641 H   0  0  0  0  0  0  0  0  0  0  0  0
   -1.9686   -0.8109   -2.8815 H   0  0  0  0  0  0  0  0  0  0  0  0
  1  2  1  0  0  0  0
  1  7  1  0  0  0  0
  2  8  1  0  0  0  0
  3  2  2  0  0  0  0
  4  3  1  0  0  0  0
  5  4  2  0  0  0  0
  5  6  1  0  0  0  0
  6  1  2  0  0  0  0
  9  4  1  0  0  0  0
 10  5  1  0  0  0  0
 11 12  3  0  0  0  0
 13 19  1  0  0  0  0
 13 18  2  0  0  0  0
 14 13  1  0  0  0  0
 15 14  2  0  0  0  0
 15 16  1  0  0  0  0
 16 17  2  0  0  0  0
 17 18  1  0  0  0  0
 17 22  1  0  0  0  0
 18 23  1  0  0  0  0
 20 14  1  0  0  0  0
 21 16  1  0  0  0  0
 23 26  2  0  0  0  0
 23 25  1  0  0  0  0
 24 23  2  0  0  0  0
 27 30  1  0  0  0  0
 27 28  1  0  0  0  0
 27 15  1  0  0  0  0
 29 27  1  0  0  0  0
 31  6  1  0  0  0  0
M  RAD  2   3   2  25   2
M  END
