Coordinates from ORCA-job Ph-N2-OTs-B3LYPG-aug-cc-pVDZ-scan-d09-49-n400
 OpenBabel07022015303D

 31 32  0  0  1  0  0  0  0  0999 V2000
    1.9983    0.3724   -2.2629 C   0  0  0  0  0  0  0  0  0  0  0  0
    1.7935    1.2692   -3.4414 C   0  0  1  0  0  0  0  0  0  0  0  0
    0.3424    1.7757   -3.5629 C   0  0  0  0  0  0  0  0  0  0  0  0
   -0.4996    1.7533   -2.3526 C   0  0  0  0  0  0  0  0  0  0  0  0
   -0.1230    1.0663   -1.2513 C   0  0  0  0  0  0  0  0  0  0  0  0
    1.1211    0.3145   -1.2398 C   0  0  0  0  0  0  0  0  0  0  0  0
    2.9236   -0.2033   -2.2482 H   0  0  0  0  0  0  0  0  0  0  0  0
    2.0753    0.7924   -4.3866 H   0  0  0  0  0  0  0  0  0  0  0  0
   -1.4420    2.2992   -2.4028 H   0  0  0  0  0  0  0  0  0  0  0  0
   -0.7680    1.0480   -0.3735 H   0  0  0  0  0  0  0  0  0  0  0  0
   -0.0117    2.1498   -4.5013 N   0  0  0  0  0  0  0  0  0  0  0  0
   -0.3929    2.5528   -5.5197 N   0  0  0  0  0  0  0  0  0  0  0  0
    5.3762    0.6973   -4.9116 C   0  0  0  0  0  0  0  0  0  0  0  0
    6.5122   -0.0704   -4.6548 C   0  0  0  0  0  0  0  0  0  0  0  0
    7.4528    0.3244   -3.6882 C   0  0  0  0  0  0  0  0  0  0  0  0
    7.2262    1.5159   -2.9809 C   0  0  0  0  0  0  0  0  0  0  0  0
    6.0945    2.2991   -3.2199 C   0  0  0  0  0  0  0  0  0  0  0  0
    5.1793    1.8738   -4.1835 C   0  0  0  0  0  0  0  0  0  0  0  0
    4.6599    0.4096   -5.6785 H   0  0  0  0  0  0  0  0  0  0  0  0
    6.6727   -0.9861   -5.2255 H   0  0  0  0  0  0  0  0  0  0  0  0
    7.9531    1.8415   -2.2361 H   0  0  0  0  0  0  0  0  0  0  0  0
    5.9357    3.2305   -2.6798 H   0  0  0  0  0  0  0  0  0  0  0  0
    3.7188    2.8726   -4.5086 S   0  0  0  0  0  0  0  0  0  0  0  0
    3.1193    2.4217   -5.7881 O   0  0  0  0  0  0  0  0  0  0  0  0
    4.0264    4.2894   -4.2405 O   0  0  0  0  0  0  0  0  0  0  0  0
    2.6841    2.4444   -3.2629 O   0  0  0  0  0  0  0  0  0  0  0  0
    8.6790   -0.5168   -3.4300 C   0  0  0  0  0  0  0  0  0  0  0  0
    8.4015   -1.5267   -3.0955 H   0  0  0  0  0  0  0  0  0  0  0  0
    9.2775   -0.6315   -4.3454 H   0  0  0  0  0  0  0  0  0  0  0  0
    9.3176   -0.0671   -2.6596 H   0  0  0  0  0  0  0  0  0  0  0  0
    1.3356   -0.3212   -0.3796 H   0  0  0  0  0  0  0  0  0  0  0  0
  1  7  1  0  0  0  0
  1  6  2  0  0  0  0
  2  8  1  6  0  0  0
  2 26  1  0  0  0  0
  2  1  1  0  0  0  0
  3  2  1  0  0  0  0
  3  4  2  0  0  0  0
  4  5  1  0  0  0  0
  5  6  1  0  0  0  0
  5 10  1  0  0  0  0
  6 31  1  0  0  0  0
  9  4  1  0  0  0  0
 11  3  1  0  0  0  0
 12 11  1  0  0  0  0
 13 14  2  0  0  0  0
 13 18  1  0  0  0  0
 14 15  1  0  0  0  0
 15 27  1  0  0  0  0
 15 16  2  0  0  0  0
 16 21  1  0  0  0  0
 17 16  1  0  0  0  0
 17 22  1  0  0  0  0
 18 17  2  0  0  0  0
 19 13  1  0  0  0  0
 20 14  1  0  0  0  0
 23 25  2  0  0  0  0
 23 18  1  0  0  0  0
 23 26  1  0  0  0  0
 24 23  2  0  0  0  0
 27 28  1  0  0  0  0
 27 30  1  0  0  0  0
 29 27  1  0  0  0  0
M  RAD  3   5   2  11   2  12   3
M  END
