Coordinates from ORCA-job Ph-N2-OTs-B3LYPG-aug-cc-pVDZ-scan-d09-49-n400
 OpenBabel07022015303D

 31 30  0  0  0  0  0  0  0  0999 V2000
   -0.0130    0.9103   -3.4753 C   0  0  0  0  0  0  0  0  0  0  0  0
    0.7400    1.4863   -2.4283 C   0  0  0  0  0  0  0  0  0  0  0  0
    0.1252    1.8309   -1.3826 C   0  0  0  0  0  0  0  0  0  0  0  0
   -1.1748    1.8091   -0.9490 C   0  0  0  0  0  0  0  0  0  0  0  0
   -1.9562    1.2397   -1.9856 C   0  0  0  0  0  0  0  0  0  0  0  0
   -1.3917    0.8096   -3.2023 C   0  0  0  0  0  0  0  0  0  0  0  0
    0.4242    0.5731   -4.4141 H   0  0  0  0  0  0  0  0  0  0  0  0
    2.6495    1.7468   -2.8474 H   0  0  0  0  0  0  0  0  0  0  0  0
   -1.5766    2.1487    0.0012 H   0  0  0  0  0  0  0  0  0  0  0  0
   -3.0306    1.1346   -1.8216 H   0  0  0  0  0  0  0  0  0  0  0  0
    1.3570    2.9142    0.6531 N   0  0  0  0  0  0  0  0  0  0  0  0
    2.3667    3.2398    0.9595 N   0  0  0  0  0  0  0  0  0  0  0  0
    5.9646   -0.1442   -4.1937 C   0  0  0  0  0  0  0  0  0  0  0  0
    7.3162   -0.4880   -4.1240 C   0  0  0  0  0  0  0  0  0  0  0  0
    8.3225    0.4549   -4.3880 C   0  0  0  0  0  0  0  0  0  0  0  0
    7.9408    1.7609   -4.7376 C   0  0  0  0  0  0  0  0  0  0  0  0
    6.5962    2.1255   -4.8143 C   0  0  0  0  0  0  0  0  0  0  0  0
    5.6233    1.1638   -4.5374 C   0  0  0  0  0  0  0  0  0  0  0  0
    5.1883   -0.8816   -3.9958 H   0  0  0  0  0  0  0  0  0  0  0  0
    7.5918   -1.5094   -3.8599 H   0  0  0  0  0  0  0  0  0  0  0  0
    8.7063    2.5068   -4.9574 H   0  0  0  0  0  0  0  0  0  0  0  0
    6.2977    3.1327   -5.0981 H   0  0  0  0  0  0  0  0  0  0  0  0
    3.8903    1.6256   -4.6367 S   0  0  0  0  0  0  0  0  0  0  0  0
    3.0643    0.4582   -5.0421 O   0  0  0  0  0  0  0  0  0  0  0  0
    3.7700    2.9034   -5.3739 O   0  0  0  0  0  0  0  0  0  0  0  0
    3.6130    1.9024   -3.0295 O   0  0  0  0  0  0  0  0  0  0  0  0
    9.7817    0.0822   -4.2893 C   0  0  0  0  0  0  0  0  0  0  0  0
    9.9121   -1.0043   -4.2106 H   0  0  0  0  0  0  0  0  0  0  0  0
   10.3446    0.4347   -5.1648 H   0  0  0  0  0  0  0  0  0  0  0  0
   10.2429    0.5421   -3.4025 H   0  0  0  0  0  0  0  0  0  0  0  0
   -2.0469    0.3824   -3.9638 H   0  0  0  0  0  0  0  0  0  0  0  0
  1  6  2  0  0  0  0
  1  2  1  0  0  0  0
  2  3  2  0  0  0  0
  3  4  1  0  0  0  0
  4  9  1  0  0  0  0
  5 10  1  0  0  0  0
  5  4  2  0  0  0  0
  6  5  1  0  0  0  0
  7  1  1  0  0  0  0
 11 12  3  0  0  0  0
 13 14  1  0  0  0  0
 13 19  1  0  0  0  0
 14 20  1  0  0  0  0
 15 27  1  0  0  0  0
 15 14  2  0  0  0  0
 16 15  1  0  0  0  0
 17 16  2  0  0  0  0
 17 18  1  0  0  0  0
 18 13  2  0  0  0  0
 21 16  1  0  0  0  0
 22 17  1  0  0  0  0
 23 18  1  0  0  0  0
 23 26  1  0  0  0  0
 24 23  2  0  0  0  0
 25 23  2  0  0  0  0
 26  8  1  0  0  0  0
 27 28  1  0  0  0  0
 27 30  1  0  0  0  0
 29 27  1  0  0  0  0
 31  6  1  0  0  0  0
M  RAD  2   2   2   3   2
M  END
