Coordinates from ORCA-job Ph-N2-OTs-B3LYPG-aug-cc-pVDZ-scan-d09-49-n400
 OpenBabel07022015303D

 31 30  0  0  0  0  0  0  0  0999 V2000
    0.3708    0.8061   -3.6864 C   0  0  0  0  0  0  0  0  0  0  0  0
    1.1559    1.5162   -2.7611 C   0  0  0  0  0  0  0  0  0  0  0  0
    0.7845    1.6401   -1.5664 C   0  0  0  0  0  0  0  0  0  0  0  0
   -0.3300    1.2354   -0.8697 C   0  0  0  0  0  0  0  0  0  0  0  0
   -1.1625    0.5178   -1.7657 C   0  0  0  0  0  0  0  0  0  0  0  0
   -0.8228    0.3148   -3.1174 C   0  0  0  0  0  0  0  0  0  0  0  0
    0.6360    0.6544   -4.7307 H   0  0  0  0  0  0  0  0  0  0  0  0
    2.6807    2.5526   -3.6933 H   0  0  0  0  0  0  0  0  0  0  0  0
   -0.5714    1.4000    0.1765 H   0  0  0  0  0  0  0  0  0  0  0  0
   -2.0994    0.1106   -1.3813 H   0  0  0  0  0  0  0  0  0  0  0  0
    1.7999    3.0151    1.5411 N   0  0  0  0  0  0  0  0  0  0  0  0
    2.6985    3.5450    1.9024 N   0  0  0  0  0  0  0  0  0  0  0  0
    5.3555    0.2381   -4.5270 C   0  0  0  0  0  0  0  0  0  0  0  0
    6.5386   -0.3617   -4.0866 C   0  0  0  0  0  0  0  0  0  0  0  0
    7.7475    0.3483   -4.0617 C   0  0  0  0  0  0  0  0  0  0  0  0
    7.7503    1.6855   -4.4976 C   0  0  0  0  0  0  0  0  0  0  0  0
    6.5823    2.3028   -4.9423 C   0  0  0  0  0  0  0  0  0  0  0  0
    5.3944    1.5672   -4.9474 C   0  0  0  0  0  0  0  0  0  0  0  0
    4.4214   -0.3194   -4.5616 H   0  0  0  0  0  0  0  0  0  0  0  0
    6.5185   -1.4026   -3.7621 H   0  0  0  0  0  0  0  0  0  0  0  0
    8.6837    2.2501   -4.4922 H   0  0  0  0  0  0  0  0  0  0  0  0
    6.5870    3.3327   -5.2941 H   0  0  0  0  0  0  0  0  0  0  0  0
    3.8798    2.3635   -5.5040 S   0  0  0  0  0  0  0  0  0  0  0  0
    2.8835    1.3184   -5.8508 O   0  0  0  0  0  0  0  0  0  0  0  0
    4.2279    3.4476   -6.4419 O   0  0  0  0  0  0  0  0  0  0  0  0
    3.3482    3.1277   -4.1347 O   0  0  0  0  0  0  0  0  0  0  0  0
    9.0216   -0.2971   -3.5743 C   0  0  0  0  0  0  0  0  0  0  0  0
    8.8944   -1.3769   -3.4280 H   0  0  0  0  0  0  0  0  0  0  0  0
    9.8442   -0.1393   -4.2863 H   0  0  0  0  0  0  0  0  0  0  0  0
    9.3356    0.1375   -2.6137 H   0  0  0  0  0  0  0  0  0  0  0  0
   -1.5152   -0.2400   -3.7537 H   0  0  0  0  0  0  0  0  0  0  0  0
  1  6  2  0  0  0  0
  1  2  1  0  0  0  0
  2  3  2  0  0  0  0
  3  4  1  0  0  0  0
  4  9  1  0  0  0  0
  5 10  1  0  0  0  0
  5  4  2  0  0  0  0
  6  5  1  0  0  0  0
  7  1  1  0  0  0  0
 11 12  3  0  0  0  0
 13 14  2  0  0  0  0
 14 15  1  0  0  0  0
 14 20  1  0  0  0  0
 15 27  1  0  0  0  0
 16 21  1  0  0  0  0
 16 15  2  0  0  0  0
 17 16  1  0  0  0  0
 18 17  2  0  0  0  0
 18 13  1  0  0  0  0
 19 13  1  0  0  0  0
 22 17  1  0  0  0  0
 23 18  1  0  0  0  0
 23 26  1  0  0  0  0
 24 23  2  0  0  0  0
 25 23  2  0  0  0  0
 26  8  1  0  0  0  0
 27 28  1  0  0  0  0
 27 30  1  0  0  0  0
 29 27  1  0  0  0  0
 31  6  1  0  0  0  0
M  RAD  2   2   2   3   2
M  END
