Coordinates from ORCA-job Ph-N2-OTs-B3LYPG-aug-cc-pVDZ-scan-d09-49-n400
 OpenBabel07022015303D

 31 30  0  0  0  0  0  0  0  0999 V2000
   -0.3062    0.1622   -2.9427 C   0  0  0  0  0  0  0  0  0  0  0  0
    0.6466    1.0493   -2.3829 C   0  0  0  0  0  0  0  0  0  0  0  0
    0.1531    2.0235   -1.7355 C   0  0  0  0  0  0  0  0  0  0  0  0
   -1.0886    2.4961   -1.4080 C   0  0  0  0  0  0  0  0  0  0  0  0
   -2.0417    1.6095   -1.9637 C   0  0  0  0  0  0  0  0  0  0  0  0
   -1.6569    0.4783   -2.7087 C   0  0  0  0  0  0  0  0  0  0  0  0
   -0.0220   -0.7106   -3.5307 H   0  0  0  0  0  0  0  0  0  0  0  0
    2.4989    0.7910   -2.7746 H   0  0  0  0  0  0  0  0  0  0  0  0
   -1.3425    3.3824   -0.8337 H   0  0  0  0  0  0  0  0  0  0  0  0
   -3.1001    1.8221   -1.8043 H   0  0  0  0  0  0  0  0  0  0  0  0
    1.6465    3.5051   -0.8219 N   0  0  0  0  0  0  0  0  0  0  0  0
    2.7207    3.7138   -0.6709 N   0  0  0  0  0  0  0  0  0  0  0  0
    6.0802   -0.0821   -4.8693 C   0  0  0  0  0  0  0  0  0  0  0  0
    7.4461   -0.3605   -4.8973 C   0  0  0  0  0  0  0  0  0  0  0  0
    8.3864    0.5464   -4.3771 C   0  0  0  0  0  0  0  0  0  0  0  0
    7.9215    1.7443   -3.8142 C   0  0  0  0  0  0  0  0  0  0  0  0
    6.5569    2.0410   -3.7721 C   0  0  0  0  0  0  0  0  0  0  0  0
    5.6540    1.1218   -4.3041 C   0  0  0  0  0  0  0  0  0  0  0  0
    5.3562   -0.7788   -5.2885 H   0  0  0  0  0  0  0  0  0  0  0  0
    7.7925   -1.2971   -5.3363 H   0  0  0  0  0  0  0  0  0  0  0  0
    8.6339    2.4624   -3.4059 H   0  0  0  0  0  0  0  0  0  0  0  0
    6.1913    2.9736   -3.3472 H   0  0  0  0  0  0  0  0  0  0  0  0
    3.8997    1.5129   -4.2856 S   0  0  0  0  0  0  0  0  0  0  0  0
    3.2392    0.9110   -5.4691 O   0  0  0  0  0  0  0  0  0  0  0  0
    3.7151    2.9577   -3.9967 O   0  0  0  0  0  0  0  0  0  0  0  0
    3.4741    0.6460   -2.9456 O   0  0  0  0  0  0  0  0  0  0  0  0
    9.8633    0.2445   -4.4543 C   0  0  0  0  0  0  0  0  0  0  0  0
   10.0645   -0.8162   -4.2522 H   0  0  0  0  0  0  0  0  0  0  0  0
   10.2535    0.4640   -5.4601 H   0  0  0  0  0  0  0  0  0  0  0  0
   10.4346    0.8482   -3.7383 H   0  0  0  0  0  0  0  0  0  0  0  0
   -2.4315   -0.1709   -3.1203 H   0  0  0  0  0  0  0  0  0  0  0  0
  1  6  2  0  0  0  0
  1  2  1  0  0  0  0
  2  3  2  0  0  0  0
  3  4  1  0  0  0  0
  4  9  1  0  0  0  0
  5 10  1  0  0  0  0
  5  4  2  0  0  0  0
  6  5  1  0  0  0  0
  7  1  1  0  0  0  0
 11 12  3  0  0  0  0
 13 18  1  0  0  0  0
 14 13  2  0  0  0  0
 14 15  1  0  0  0  0
 15 16  2  0  0  0  0
 16 17  1  0  0  0  0
 16 21  1  0  0  0  0
 17 22  1  0  0  0  0
 18 23  1  0  0  0  0
 18 17  2  0  0  0  0
 19 13  1  0  0  0  0
 20 14  1  0  0  0  0
 23 25  2  0  0  0  0
 23 26  1  0  0  0  0
 24 23  2  0  0  0  0
 26  8  1  0  0  0  0
 27 15  1  0  0  0  0
 27 28  1  0  0  0  0
 27 30  1  0  0  0  0
 29 27  1  0  0  0  0
 31  6  1  0  0  0  0
M  RAD  2   2   2   3   2
M  END
