Coordinates from ORCA-job Ph-N2-OTs-B3LYPG-aug-cc-pVDZ-scan-d09-49-n400
 OpenBabel07022015303D

 31 30  0  0  0  0  0  0  0  0999 V2000
    0.0838   -0.2212   -2.4280 C   0  0  0  0  0  0  0  0  0  0  0  0
    0.9965    0.8522   -2.2578 C   0  0  0  0  0  0  0  0  0  0  0  0
    0.3640    2.0102   -2.4812 C   0  0  0  0  0  0  0  0  0  0  0  0
   -0.8859    2.4196   -2.8350 C   0  0  0  0  0  0  0  0  0  0  0  0
   -1.7328    1.3027   -2.9978 C   0  0  0  0  0  0  0  0  0  0  0  0
   -1.2472    0.0052   -2.7932 C   0  0  0  0  0  0  0  0  0  0  0  0
    0.4613   -1.2317   -2.2721 H   0  0  0  0  0  0  0  0  0  0  0  0
    2.0875    0.7103   -2.0006 H   0  0  0  0  0  0  0  0  0  0  0  0
   -1.2062    3.4457   -2.9830 H   0  0  0  0  0  0  0  0  0  0  0  0
   -2.7687    1.4791   -3.2878 H   0  0  0  0  0  0  0  0  0  0  0  0
    1.5358    3.6350   -2.2007 N   0  0  0  0  0  0  0  0  0  0  0  0
    1.8034    4.6670   -1.9118 N   0  0  0  0  0  0  0  0  0  0  0  0
    5.7946    0.0746   -3.8612 C   0  0  0  0  0  0  0  0  0  0  0  0
    6.9006   -0.3111   -4.6185 C   0  0  0  0  0  0  0  0  0  0  0  0
    8.0197    0.5293   -4.7530 C   0  0  0  0  0  0  0  0  0  0  0  0
    8.0035    1.7677   -4.0973 C   0  0  0  0  0  0  0  0  0  0  0  0
    6.9021    2.1694   -3.3328 C   0  0  0  0  0  0  0  0  0  0  0  0
    5.8037    1.3183   -3.2242 C   0  0  0  0  0  0  0  0  0  0  0  0
    4.9359   -0.5846   -3.7470 H   0  0  0  0  0  0  0  0  0  0  0  0
    6.8999   -1.2849   -5.1116 H   0  0  0  0  0  0  0  0  0  0  0  0
    8.8653    2.4321   -4.1806 H   0  0  0  0  0  0  0  0  0  0  0  0
    6.8936    3.1271   -2.8153 H   0  0  0  0  0  0  0  0  0  0  0  0
    4.3463    1.8739   -2.2993 S   0  0  0  0  0  0  0  0  0  0  0  0
    3.3938    2.4475   -3.3446 O   0  0  0  0  0  0  0  0  0  0  0  0
    4.8083    2.8804   -1.2936 O   0  0  0  0  0  0  0  0  0  0  0  0
    3.7428    0.6062   -1.6835 O   0  0  0  0  0  0  0  0  0  0  0  0
    9.2063    0.0933   -5.5792 C   0  0  0  0  0  0  0  0  0  0  0  0
    9.6266   -0.8498   -5.2004 H   0  0  0  0  0  0  0  0  0  0  0  0
    8.9197   -0.0776   -6.6276 H   0  0  0  0  0  0  0  0  0  0  0  0
   10.0045    0.8471   -5.5666 H   0  0  0  0  0  0  0  0  0  0  0  0
   -1.9195   -0.8420   -2.9267 H   0  0  0  0  0  0  0  0  0  0  0  0
  1  7  1  0  0  0  0
  1  2  1  0  0  0  0
  2  8  1  0  0  0  0
  3  2  2  0  0  0  0
  4  3  1  0  0  0  0
  5  4  2  0  0  0  0
  5  6  1  0  0  0  0
  6  1  2  0  0  0  0
  9  4  1  0  0  0  0
 10  5  1  0  0  0  0
 11 12  3  0  0  0  0
 13 19  1  0  0  0  0
 13 18  2  0  0  0  0
 14 13  1  0  0  0  0
 15 14  2  0  0  0  0
 15 16  1  0  0  0  0
 16 17  2  0  0  0  0
 17 18  1  0  0  0  0
 17 22  1  0  0  0  0
 18 23  1  0  0  0  0
 20 14  1  0  0  0  0
 21 16  1  0  0  0  0
 23 26  2  0  0  0  0
 23 25  1  0  0  0  0
 24 23  2  0  0  0  0
 27 30  1  0  0  0  0
 27 28  1  0  0  0  0
 27 15  1  0  0  0  0
 29 27  1  0  0  0  0
 31  6  1  0  0  0  0
M  RAD  2   3   2  25   2
M  END
