Coordinates from ORCA-job Ph-N2-OTs-B3LYPG-aug-cc-pVDZ-scan-d09-49-n400
 OpenBabel07022015303D

 31 31  0  0  0  0  0  0  0  0999 V2000
   -0.0317   -0.2157   -2.3566 C   0  0  0  0  0  0  0  0  0  0  0  0
    0.9445    0.8022   -2.2662 C   0  0  0  0  0  0  0  0  0  0  0  0
    0.4032    2.0129   -2.5271 C   0  0  0  0  0  0  0  0  0  0  0  0
   -0.8460    2.4546   -2.8666 C   0  0  0  0  0  0  0  0  0  0  0  0
   -1.7649    1.3916   -2.9536 C   0  0  0  0  0  0  0  0  0  0  0  0
   -1.3561    0.0770   -2.6986 C   0  0  0  0  0  0  0  0  0  0  0  0
    0.2811   -1.2403   -2.1572 H   0  0  0  0  0  0  0  0  0  0  0  0
    2.0122    0.6135   -2.0235 H   0  0  0  0  0  0  0  0  0  0  0  0
   -1.1112    3.4901   -3.0563 H   0  0  0  0  0  0  0  0  0  0  0  0
   -2.7957    1.6164   -3.2268 H   0  0  0  0  0  0  0  0  0  0  0  0
    1.6279    3.4744   -2.3796 N   0  0  0  0  0  0  0  0  0  0  0  0
    1.8412    4.5356   -2.1438 N   0  0  0  0  0  0  0  0  0  0  0  0
    5.8491    0.0401   -3.8616 C   0  0  0  0  0  0  0  0  0  0  0  0
    6.9632   -0.3030   -4.6266 C   0  0  0  0  0  0  0  0  0  0  0  0
    8.0557    0.5728   -4.7555 C   0  0  0  0  0  0  0  0  0  0  0  0
    8.0039    1.8032   -4.0863 C   0  0  0  0  0  0  0  0  0  0  0  0
    6.8925    2.1640   -3.3155 C   0  0  0  0  0  0  0  0  0  0  0  0
    5.8225    1.2772   -3.2121 C   0  0  0  0  0  0  0  0  0  0  0  0
    5.0112   -0.6459   -3.7505 H   0  0  0  0  0  0  0  0  0  0  0  0
    6.9889   -1.2709   -5.1307 H   0  0  0  0  0  0  0  0  0  0  0  0
    8.8452    2.4941   -4.1637 H   0  0  0  0  0  0  0  0  0  0  0  0
    6.8567    3.1165   -2.7895 H   0  0  0  0  0  0  0  0  0  0  0  0
    4.3514    1.7617   -2.2714 S   0  0  0  0  0  0  0  0  0  0  0  0
    3.3803    2.2954   -3.3419 O   0  0  0  0  0  0  0  0  0  0  0  0
    4.7587    2.8123   -1.2877 O   0  0  0  0  0  0  0  0  0  0  0  0
    3.7963    0.4857   -1.6585 O   0  0  0  0  0  0  0  0  0  0  0  0
    9.2512    0.1827   -5.5916 C   0  0  0  0  0  0  0  0  0  0  0  0
    9.6837   -0.7665   -5.2432 H   0  0  0  0  0  0  0  0  0  0  0  0
    8.9701    0.0430   -6.6462 H   0  0  0  0  0  0  0  0  0  0  0  0
   10.0383    0.9470   -5.5507 H   0  0  0  0  0  0  0  0  0  0  0  0
   -2.0837   -0.7311   -2.7729 H   0  0  0  0  0  0  0  0  0  0  0  0
  1  2  1  0  0  0  0
  1  7  1  0  0  0  0
  2  8  1  0  0  0  0
  3 11  1  0  0  0  0
  3  2  2  0  0  0  0
  4  3  1  0  0  0  0
  5  4  2  0  0  0  0
  5  6  1  0  0  0  0
  6  1  2  0  0  0  0
  9  4  1  0  0  0  0
 10  5  1  0  0  0  0
 11 12  2  0  0  0  0
 13 19  1  0  0  0  0
 13 18  2  0  0  0  0
 14 13  1  0  0  0  0
 15 14  2  0  0  0  0
 15 16  1  0  0  0  0
 16 17  2  0  0  0  0
 17 18  1  0  0  0  0
 17 22  1  0  0  0  0
 18 23  1  0  0  0  0
 20 14  1  0  0  0  0
 21 16  1  0  0  0  0
 23 26  2  0  0  0  0
 23 25  1  0  0  0  0
 24 23  2  0  0  0  0
 27 30  1  0  0  0  0
 27 28  1  0  0  0  0
 27 15  1  0  0  0  0
 29 27  1  0  0  0  0
 31  6  1  0  0  0  0
M  RAD  2  12   2  25   2
M  END
