Coordinates from ORCA-job Ph-N2-OTs-B3LYPG-aug-cc-pVDZ-scan-d09-49-n400
 OpenBabel07022015303D

 31 30  0  0  0  0  0  0  0  0999 V2000
    0.3603    0.8148   -3.5901 C   0  0  0  0  0  0  0  0  0  0  0  0
    1.1261    1.5197   -2.6382 C   0  0  0  0  0  0  0  0  0  0  0  0
    0.6915    1.6127   -1.4595 C   0  0  0  0  0  0  0  0  0  0  0  0
   -0.4383    1.1971   -0.8010 C   0  0  0  0  0  0  0  0  0  0  0  0
   -1.2374    0.4879   -1.7323 C   0  0  0  0  0  0  0  0  0  0  0  0
   -0.8491    0.3071   -3.0743 C   0  0  0  0  0  0  0  0  0  0  0  0
    0.6602    0.6811   -4.6279 H   0  0  0  0  0  0  0  0  0  0  0  0
    2.6526    2.5148   -3.4855 H   0  0  0  0  0  0  0  0  0  0  0  0
   -0.7090    1.3515    0.2396 H   0  0  0  0  0  0  0  0  0  0  0  0
   -2.1854    0.0736   -1.3845 H   0  0  0  0  0  0  0  0  0  0  0  0
    1.9848    2.9008    0.5225 N   0  0  0  0  0  0  0  0  0  0  0  0
    2.9502    3.4096    0.6914 N   0  0  0  0  0  0  0  0  0  0  0  0
    5.3546    0.2787   -4.4178 C   0  0  0  0  0  0  0  0  0  0  0  0
    6.5464   -0.3423   -4.0348 C   0  0  0  0  0  0  0  0  0  0  0  0
    7.7642    0.3532   -4.0457 C   0  0  0  0  0  0  0  0  0  0  0  0
    7.7661    1.6976   -4.4579 C   0  0  0  0  0  0  0  0  0  0  0  0
    6.5884    2.3366   -4.8437 C   0  0  0  0  0  0  0  0  0  0  0  0
    5.3925    1.6150   -4.8152 C   0  0  0  0  0  0  0  0  0  0  0  0
    4.4140   -0.2691   -4.4272 H   0  0  0  0  0  0  0  0  0  0  0  0
    6.5259   -1.3887   -3.7281 H   0  0  0  0  0  0  0  0  0  0  0  0
    8.7059    2.2512   -4.4805 H   0  0  0  0  0  0  0  0  0  0  0  0
    6.5907    3.3724   -5.1776 H   0  0  0  0  0  0  0  0  0  0  0  0
    3.8663    2.4367   -5.3000 S   0  0  0  0  0  0  0  0  0  0  0  0
    2.8728    1.4105   -5.7074 O   0  0  0  0  0  0  0  0  0  0  0  0
    4.2005    3.5803   -6.1706 O   0  0  0  0  0  0  0  0  0  0  0  0
    3.3460    3.1008   -3.8782 O   0  0  0  0  0  0  0  0  0  0  0  0
    9.0488   -0.3162   -3.6222 C   0  0  0  0  0  0  0  0  0  0  0  0
    8.9115   -1.3953   -3.4793 H   0  0  0  0  0  0  0  0  0  0  0  0
    9.8407   -0.1648   -4.3696 H   0  0  0  0  0  0  0  0  0  0  0  0
    9.4131    0.1049   -2.6735 H   0  0  0  0  0  0  0  0  0  0  0  0
   -1.5154   -0.2415   -3.7428 H   0  0  0  0  0  0  0  0  0  0  0  0
  1  6  2  0  0  0  0
  1  2  1  0  0  0  0
  2  3  2  0  0  0  0
  3  4  1  0  0  0  0
  4  9  1  0  0  0  0
  5 10  1  0  0  0  0
  5  4  2  0  0  0  0
  6  5  1  0  0  0  0
  7  1  1  0  0  0  0
 11 12  3  0  0  0  0
 13 14  2  0  0  0  0
 14 20  1  0  0  0  0
 15 14  1  0  0  0  0
 15 27  1  0  0  0  0
 16 15  2  0  0  0  0
 17 18  2  0  0  0  0
 17 16  1  0  0  0  0
 18 13  1  0  0  0  0
 19 13  1  0  0  0  0
 21 16  1  0  0  0  0
 22 17  1  0  0  0  0
 23 18  1  0  0  0  0
 23 26  1  0  0  0  0
 24 23  2  0  0  0  0
 25 23  2  0  0  0  0
 26  8  1  0  0  0  0
 27 28  1  0  0  0  0
 27 30  1  0  0  0  0
 29 27  1  0  0  0  0
 31  6  1  0  0  0  0
M  RAD  2   2   2   3   2
M  END
