Coordinates from ORCA-job Ph-N2-OTs-B3LYPG-aug-cc-pVDZ-scan-d09-49-n400
 OpenBabel07022015303D

 31 32  0  0  1  0  0  0  0  0999 V2000
    2.0893    0.4755   -2.1422 C   0  0  0  0  0  0  0  0  0  0  0  0
    1.8690    1.2716   -3.3884 C   0  0  1  0  0  0  0  0  0  0  0  0
    0.4009    1.6599   -3.5815 C   0  0  0  0  0  0  0  0  0  0  0  0
   -0.4797    1.6885   -2.4091 C   0  0  0  0  0  0  0  0  0  0  0  0
   -0.0962    1.1216   -1.2416 C   0  0  0  0  0  0  0  0  0  0  0  0
    1.1871    0.4490   -1.1389 C   0  0  0  0  0  0  0  0  0  0  0  0
    3.0436   -0.0438   -2.0597 H   0  0  0  0  0  0  0  0  0  0  0  0
    2.2267    0.7535   -4.2847 H   0  0  0  0  0  0  0  0  0  0  0  0
   -1.4520    2.1670   -2.5276 H   0  0  0  0  0  0  0  0  0  0  0  0
   -0.7652    1.1371   -0.3821 H   0  0  0  0  0  0  0  0  0  0  0  0
    0.0342    1.9409   -4.6024 N   0  0  0  0  0  0  0  0  0  0  0  0
   -0.3420    2.2270   -5.6550 N   0  0  0  0  0  0  0  0  0  0  0  0
    5.3951    0.8120   -5.0218 C   0  0  0  0  0  0  0  0  0  0  0  0
    6.5158    0.0170   -4.7774 C   0  0  0  0  0  0  0  0  0  0  0  0
    7.3945    0.3044   -3.7199 C   0  0  0  0  0  0  0  0  0  0  0  0
    7.1256    1.4193   -2.9091 C   0  0  0  0  0  0  0  0  0  0  0  0
    6.0109    2.2296   -3.1357 C   0  0  0  0  0  0  0  0  0  0  0  0
    5.1535    1.9081   -4.1897 C   0  0  0  0  0  0  0  0  0  0  0  0
    4.7235    0.6066   -5.8527 H   0  0  0  0  0  0  0  0  0  0  0  0
    6.7139   -0.8346   -5.4300 H   0  0  0  0  0  0  0  0  0  0  0  0
    7.8055    1.6623   -2.0918 H   0  0  0  0  0  0  0  0  0  0  0  0
    5.8190    3.1014   -2.5128 H   0  0  0  0  0  0  0  0  0  0  0  0
    3.7107    2.9397   -4.4961 S   0  0  0  0  0  0  0  0  0  0  0  0
    3.1003    2.5150   -5.7798 O   0  0  0  0  0  0  0  0  0  0  0  0
    4.0421    4.3488   -4.2146 O   0  0  0  0  0  0  0  0  0  0  0  0
    2.6788    2.5182   -3.2530 O   0  0  0  0  0  0  0  0  0  0  0  0
    8.5965   -0.5734   -3.4691 C   0  0  0  0  0  0  0  0  0  0  0  0
    8.2882   -1.5823   -3.1580 H   0  0  0  0  0  0  0  0  0  0  0  0
    9.2010   -0.6853   -4.3803 H   0  0  0  0  0  0  0  0  0  0  0  0
    9.2376   -0.1593   -2.6808 H   0  0  0  0  0  0  0  0  0  0  0  0
    1.4114   -0.1046   -0.2261 H   0  0  0  0  0  0  0  0  0  0  0  0
  1  7  1  0  0  0  0
  1  6  2  0  0  0  0
  2  8  1  6  0  0  0
  2 26  1  0  0  0  0
  2  1  1  0  0  0  0
  3  2  1  0  0  0  0
  3  4  2  0  0  0  0
  4  5  1  0  0  0  0
  5  6  1  0  0  0  0
  5 10  1  0  0  0  0
  6 31  1  0  0  0  0
  9  4  1  0  0  0  0
 11  3  1  0  0  0  0
 12 11  1  0  0  0  0
 13 14  2  0  0  0  0
 13 18  1  0  0  0  0
 14 15  1  0  0  0  0
 15 27  1  0  0  0  0
 15 16  2  0  0  0  0
 16 21  1  0  0  0  0
 17 16  1  0  0  0  0
 17 22  1  0  0  0  0
 18 17  2  0  0  0  0
 19 13  1  0  0  0  0
 20 14  1  0  0  0  0
 23 25  2  0  0  0  0
 23 18  1  0  0  0  0
 23 26  1  0  0  0  0
 24 23  2  0  0  0  0
 27 28  1  0  0  0  0
 27 30  1  0  0  0  0
 29 27  1  0  0  0  0
M  RAD  3   5   2  11   2  12   3
M  END
