Coordinates from ORCA-job Ph-N2-OTs-B3LYPG-aug-cc-pVDZ-scan-d09-49-n400
 OpenBabel07022015303D

 31 30  0  0  0  0  0  0  0  0999 V2000
    0.3743    0.8085   -3.5725 C   0  0  0  0  0  0  0  0  0  0  0  0
    1.1211    1.5312   -2.6181 C   0  0  0  0  0  0  0  0  0  0  0  0
    0.6679    1.6273   -1.4462 C   0  0  0  0  0  0  0  0  0  0  0  0
   -0.4636    1.2020   -0.7977 C   0  0  0  0  0  0  0  0  0  0  0  0
   -1.2423    0.4753   -1.7325 C   0  0  0  0  0  0  0  0  0  0  0  0
   -0.8345    0.2886   -3.0679 C   0  0  0  0  0  0  0  0  0  0  0  0
    0.6880    0.6722   -4.6057 H   0  0  0  0  0  0  0  0  0  0  0  0
    2.6632    2.5158   -3.4547 H   0  0  0  0  0  0  0  0  0  0  0  0
   -0.7485    1.3616    0.2383 H   0  0  0  0  0  0  0  0  0  0  0  0
   -2.1896    0.0525   -1.3932 H   0  0  0  0  0  0  0  0  0  0  0  0
    1.9196    2.9408    0.4913 N   0  0  0  0  0  0  0  0  0  0  0  0
    2.8754    3.4686    0.6570 N   0  0  0  0  0  0  0  0  0  0  0  0
    5.3598    0.2813   -4.4166 C   0  0  0  0  0  0  0  0  0  0  0  0
    6.5517   -0.3464   -4.0448 C   0  0  0  0  0  0  0  0  0  0  0  0
    7.7724    0.3439   -4.0619 C   0  0  0  0  0  0  0  0  0  0  0  0
    7.7771    1.6897   -4.4695 C   0  0  0  0  0  0  0  0  0  0  0  0
    6.5993    2.3350   -4.8446 C   0  0  0  0  0  0  0  0  0  0  0  0
    5.4006    1.6187   -4.8100 C   0  0  0  0  0  0  0  0  0  0  0  0
    4.4170   -0.2629   -4.4201 H   0  0  0  0  0  0  0  0  0  0  0  0
    6.5285   -1.3936   -3.7414 H   0  0  0  0  0  0  0  0  0  0  0  0
    8.7187    2.2398   -4.4968 H   0  0  0  0  0  0  0  0  0  0  0  0
    6.6040    3.3722   -5.1741 H   0  0  0  0  0  0  0  0  0  0  0  0
    3.8735    2.4504   -5.2744 S   0  0  0  0  0  0  0  0  0  0  0  0
    2.8748    1.4325   -5.6898 O   0  0  0  0  0  0  0  0  0  0  0  0
    4.2049    3.6043   -6.1325 O   0  0  0  0  0  0  0  0  0  0  0  0
    3.3661    3.0957   -3.8397 O   0  0  0  0  0  0  0  0  0  0  0  0
    9.0566   -0.3321   -3.6478 C   0  0  0  0  0  0  0  0  0  0  0  0
    8.9163   -1.4115   -3.5105 H   0  0  0  0  0  0  0  0  0  0  0  0
    9.8463   -0.1789   -4.3972 H   0  0  0  0  0  0  0  0  0  0  0  0
    9.4261    0.0823   -2.6981 H   0  0  0  0  0  0  0  0  0  0  0  0
   -1.4853   -0.2737   -3.7404 H   0  0  0  0  0  0  0  0  0  0  0  0
  1  6  2  0  0  0  0
  1  2  1  0  0  0  0
  2  3  2  0  0  0  0
  3  4  1  0  0  0  0
  4  9  1  0  0  0  0
  5 10  1  0  0  0  0
  5  4  2  0  0  0  0
  6  5  1  0  0  0  0
  7  1  1  0  0  0  0
 11 12  3  0  0  0  0
 13 14  2  0  0  0  0
 14 20  1  0  0  0  0
 15 14  1  0  0  0  0
 15 27  1  0  0  0  0
 16 15  2  0  0  0  0
 17 18  2  0  0  0  0
 17 16  1  0  0  0  0
 18 13  1  0  0  0  0
 19 13  1  0  0  0  0
 21 16  1  0  0  0  0
 22 17  1  0  0  0  0
 23 18  1  0  0  0  0
 23 26  1  0  0  0  0
 24 23  2  0  0  0  0
 25 23  2  0  0  0  0
 26  8  1  0  0  0  0
 27 28  1  0  0  0  0
 27 30  1  0  0  0  0
 29 27  1  0  0  0  0
 31  6  1  0  0  0  0
M  RAD  2   2   2   3   2
M  END
