Coordinates from ORCA-job Ph-N2-OTs-B3LYPG-aug-cc-pVDZ-scan-d09-49-n400
 OpenBabel07022015303D

 31 30  0  0  0  0  0  0  0  0999 V2000
   -0.0004   -0.2173   -2.3778 C   0  0  0  0  0  0  0  0  0  0  0  0
    0.9603    0.8150   -2.2686 C   0  0  0  0  0  0  0  0  0  0  0  0
    0.3964    2.0147   -2.5189 C   0  0  0  0  0  0  0  0  0  0  0  0
   -0.8546    2.4467   -2.8607 C   0  0  0  0  0  0  0  0  0  0  0  0
   -1.7558    1.3694   -2.9656 C   0  0  0  0  0  0  0  0  0  0  0  0
   -1.3273    0.0585   -2.7239 C   0  0  0  0  0  0  0  0  0  0  0  0
    0.3287   -1.2389   -2.1896 H   0  0  0  0  0  0  0  0  0  0  0  0
    2.0328    0.6382   -2.0232 H   0  0  0  0  0  0  0  0  0  0  0  0
   -1.1344    3.4800   -3.0397 H   0  0  0  0  0  0  0  0  0  0  0  0
   -2.7886    1.5816   -3.2418 H   0  0  0  0  0  0  0  0  0  0  0  0
    1.6078    3.5101   -2.3421 N   0  0  0  0  0  0  0  0  0  0  0  0
    1.8297    4.5658   -2.0935 N   0  0  0  0  0  0  0  0  0  0  0  0
    5.8346    0.0486   -3.8567 C   0  0  0  0  0  0  0  0  0  0  0  0
    6.9452   -0.3049   -4.6223 C   0  0  0  0  0  0  0  0  0  0  0  0
    8.0440    0.5623   -4.7550 C   0  0  0  0  0  0  0  0  0  0  0  0
    8.0024    1.7947   -4.0891 C   0  0  0  0  0  0  0  0  0  0  0  0
    6.8950    2.1657   -3.3174 C   0  0  0  0  0  0  0  0  0  0  0  0
    5.8182    1.2875   -3.2103 C   0  0  0  0  0  0  0  0  0  0  0  0
    4.9918   -0.6308   -3.7428 H   0  0  0  0  0  0  0  0  0  0  0  0
    6.9634   -1.2744   -5.1237 H   0  0  0  0  0  0  0  0  0  0  0  0
    8.8486    2.4792   -4.1698 H   0  0  0  0  0  0  0  0  0  0  0  0
    6.8669    3.1195   -2.7935 H   0  0  0  0  0  0  0  0  0  0  0  0
    4.3525    1.7897   -2.2701 S   0  0  0  0  0  0  0  0  0  0  0  0
    3.3849    2.3342   -3.3334 O   0  0  0  0  0  0  0  0  0  0  0  0
    4.7756    2.8299   -1.2820 O   0  0  0  0  0  0  0  0  0  0  0  0
    3.7857    0.5159   -1.6563 O   0  0  0  0  0  0  0  0  0  0  0  0
    9.2355    0.1609   -5.5915 C   0  0  0  0  0  0  0  0  0  0  0  0
    9.6643   -0.7882   -5.2382 H   0  0  0  0  0  0  0  0  0  0  0  0
    8.9512    0.0159   -6.6446 H   0  0  0  0  0  0  0  0  0  0  0  0
   10.0264    0.9216   -5.5574 H   0  0  0  0  0  0  0  0  0  0  0  0
   -2.0414   -0.7601   -2.8124 H   0  0  0  0  0  0  0  0  0  0  0  0
  1  2  1  0  0  0  0
  1  7  1  0  0  0  0
  2  8  1  0  0  0  0
  3  2  2  0  0  0  0
  4  3  1  0  0  0  0
  5  4  2  0  0  0  0
  5  6  1  0  0  0  0
  6  1  2  0  0  0  0
  9  4  1  0  0  0  0
 10  5  1  0  0  0  0
 11 12  3  0  0  0  0
 13 19  1  0  0  0  0
 13 18  2  0  0  0  0
 14 13  1  0  0  0  0
 15 14  2  0  0  0  0
 15 16  1  0  0  0  0
 16 17  2  0  0  0  0
 17 18  1  0  0  0  0
 17 22  1  0  0  0  0
 18 23  1  0  0  0  0
 20 14  1  0  0  0  0
 21 16  1  0  0  0  0
 23 26  2  0  0  0  0
 23 25  1  0  0  0  0
 24 23  2  0  0  0  0
 27 30  1  0  0  0  0
 27 28  1  0  0  0  0
 27 15  1  0  0  0  0
 29 27  1  0  0  0  0
 31  6  1  0  0  0  0
M  RAD  2   3   2  25   2
M  END
