Coordinates from ORCA-job Ph-N2-OTs-B3LYPG-aug-cc-pVDZ-scan-d09-49-n400
 OpenBabel07022015303D

 31 32  0  0  1  0  0  0  0  0999 V2000
    2.0851    0.4890   -2.0980 C   0  0  0  0  0  0  0  0  0  0  0  0
    1.8783    1.2606   -3.3613 C   0  0  1  0  0  0  0  0  0  0  0  0
    0.4211    1.6330   -3.5656 C   0  0  0  0  0  0  0  0  0  0  0  0
   -0.4874    1.6746   -2.4281 C   0  0  0  0  0  0  0  0  0  0  0  0
   -0.1198    1.1338   -1.2403 C   0  0  0  0  0  0  0  0  0  0  0  0
    1.1673    0.4772   -1.1068 C   0  0  0  0  0  0  0  0  0  0  0  0
    3.0403   -0.0239   -1.9908 H   0  0  0  0  0  0  0  0  0  0  0  0
    2.2615    0.7350   -4.2419 H   0  0  0  0  0  0  0  0  0  0  0  0
   -1.4637    2.1372   -2.5725 H   0  0  0  0  0  0  0  0  0  0  0  0
   -0.8043    1.1564   -0.3935 H   0  0  0  0  0  0  0  0  0  0  0  0
    0.0470    1.9229   -4.6582 N   0  0  0  0  0  0  0  0  0  0  0  0
   -0.3109    2.1987   -5.7125 N   0  0  0  0  0  0  0  0  0  0  0  0
    5.3983    0.8264   -5.0327 C   0  0  0  0  0  0  0  0  0  0  0  0
    6.5203    0.0299   -4.7985 C   0  0  0  0  0  0  0  0  0  0  0  0
    7.3973    0.3035   -3.7361 C   0  0  0  0  0  0  0  0  0  0  0  0
    7.1262    1.4068   -2.9102 C   0  0  0  0  0  0  0  0  0  0  0  0
    6.0106    2.2186   -3.1268 C   0  0  0  0  0  0  0  0  0  0  0  0
    5.1542    1.9102   -4.1857 C   0  0  0  0  0  0  0  0  0  0  0  0
    4.7272    0.6311   -5.8664 H   0  0  0  0  0  0  0  0  0  0  0  0
    6.7206   -0.8123   -5.4626 H   0  0  0  0  0  0  0  0  0  0  0  0
    7.8048    1.6392   -2.0887 H   0  0  0  0  0  0  0  0  0  0  0  0
    5.8164    3.0812   -2.4919 H   0  0  0  0  0  0  0  0  0  0  0  0
    3.7081    2.9429   -4.4760 S   0  0  0  0  0  0  0  0  0  0  0  0
    3.0876    2.5220   -5.7573 O   0  0  0  0  0  0  0  0  0  0  0  0
    4.0450    4.3522   -4.1994 O   0  0  0  0  0  0  0  0  0  0  0  0
    2.6901    2.5196   -3.2288 O   0  0  0  0  0  0  0  0  0  0  0  0
    8.5994   -0.5771   -3.4954 C   0  0  0  0  0  0  0  0  0  0  0  0
    8.2911   -1.5872   -3.1883 H   0  0  0  0  0  0  0  0  0  0  0  0
    9.2000   -0.6849   -4.4096 H   0  0  0  0  0  0  0  0  0  0  0  0
    9.2443   -0.1684   -2.7074 H   0  0  0  0  0  0  0  0  0  0  0  0
    1.3833   -0.0574   -0.1808 H   0  0  0  0  0  0  0  0  0  0  0  0
  1  7  1  0  0  0  0
  1  6  2  0  0  0  0
  2  8  1  6  0  0  0
  2 26  1  0  0  0  0
  2  1  1  0  0  0  0
  3  2  1  0  0  0  0
  3  4  2  0  0  0  0
  4  5  1  0  0  0  0
  5  6  1  0  0  0  0
  5 10  1  0  0  0  0
  6 31  1  0  0  0  0
  9  4  1  0  0  0  0
 11  3  1  0  0  0  0
 12 11  1  0  0  0  0
 13 14  2  0  0  0  0
 13 18  1  0  0  0  0
 14 15  1  0  0  0  0
 15 27  1  0  0  0  0
 15 16  2  0  0  0  0
 16 21  1  0  0  0  0
 17 16  1  0  0  0  0
 17 22  1  0  0  0  0
 18 17  2  0  0  0  0
 19 13  1  0  0  0  0
 20 14  1  0  0  0  0
 23 25  2  0  0  0  0
 23 18  1  0  0  0  0
 23 26  1  0  0  0  0
 24 23  2  0  0  0  0
 27 28  1  0  0  0  0
 27 30  1  0  0  0  0
 29 27  1  0  0  0  0
M  RAD  3   5   2  11   2  12   3
M  END
