Coordinates from ORCA-job Ph-N2-OTs-B3LYPG-aug-cc-pVDZ-scan-d09-49-n400
 OpenBabel07022015303D

 31 30  0  0  0  0  0  0  0  0999 V2000
    0.5251    0.8550   -3.6488 C   0  0  0  0  0  0  0  0  0  0  0  0
    1.2993    1.7014   -2.8363 C   0  0  0  0  0  0  0  0  0  0  0  0
    0.9709    1.9202   -1.6426 C   0  0  0  0  0  0  0  0  0  0  0  0
   -0.0746    1.5067   -0.8505 C   0  0  0  0  0  0  0  0  0  0  0  0
   -0.8927    0.6502   -1.6305 C   0  0  0  0  0  0  0  0  0  0  0  0
   -0.6018    0.3407   -2.9732 C   0  0  0  0  0  0  0  0  0  0  0  0
    0.7540    0.6191   -4.6859 H   0  0  0  0  0  0  0  0  0  0  0  0
    2.7989    2.6369   -3.9130 H   0  0  0  0  0  0  0  0  0  0  0  0
   -0.2779    1.7544    0.1877 H   0  0  0  0  0  0  0  0  0  0  0  0
   -1.7782    0.2185   -1.1604 H   0  0  0  0  0  0  0  0  0  0  0  0
    0.4708    2.9266    2.6827 N   0  0  0  0  0  0  0  0  0  0  0  0
    0.9216    3.3882    3.5786 N   0  0  0  0  0  0  0  0  0  0  0  0
    5.3980    0.1740   -4.6829 C   0  0  0  0  0  0  0  0  0  0  0  0
    6.5801   -0.4099   -4.2188 C   0  0  0  0  0  0  0  0  0  0  0  0
    7.7890    0.3000   -4.2171 C   0  0  0  0  0  0  0  0  0  0  0  0
    7.7935    1.6202   -4.7028 C   0  0  0  0  0  0  0  0  0  0  0  0
    6.6273    2.2205   -5.1737 C   0  0  0  0  0  0  0  0  0  0  0  0
    5.4386    1.4860   -5.1534 C   0  0  0  0  0  0  0  0  0  0  0  0
    4.4626   -0.3820   -4.6969 H   0  0  0  0  0  0  0  0  0  0  0  0
    6.5592   -1.4379   -3.8558 H   0  0  0  0  0  0  0  0  0  0  0  0
    8.7270    2.1845   -4.7154 H   0  0  0  0  0  0  0  0  0  0  0  0
    6.6345    3.2369   -5.5629 H   0  0  0  0  0  0  0  0  0  0  0  0
    3.9259    2.2609   -5.7446 S   0  0  0  0  0  0  0  0  0  0  0  0
    2.9030    1.2086   -5.9709 O   0  0  0  0  0  0  0  0  0  0  0  0
    4.2690    3.2483   -6.7851 O   0  0  0  0  0  0  0  0  0  0  0  0
    3.4456    3.1609   -4.4407 O   0  0  0  0  0  0  0  0  0  0  0  0
    9.0609   -0.3265   -3.7000 C   0  0  0  0  0  0  0  0  0  0  0  0
    8.9390   -1.4041   -3.5341 H   0  0  0  0  0  0  0  0  0  0  0  0
    9.8921   -0.1767   -4.4034 H   0  0  0  0  0  0  0  0  0  0  0  0
    9.3583    0.1287   -2.7437 H   0  0  0  0  0  0  0  0  0  0  0  0
   -1.2797   -0.3196   -3.5175 H   0  0  0  0  0  0  0  0  0  0  0  0
  1  6  2  0  0  0  0
  1  2  1  0  0  0  0
  2  3  2  0  0  0  0
  3  4  1  0  0  0  0
  4  9  1  0  0  0  0
  5 10  1  0  0  0  0
  5  4  2  0  0  0  0
  6  5  1  0  0  0  0
  7  1  1  0  0  0  0
 11 12  3  0  0  0  0
 13 14  2  0  0  0  0
 14 15  1  0  0  0  0
 14 20  1  0  0  0  0
 15 27  1  0  0  0  0
 16 15  2  0  0  0  0
 17 18  2  0  0  0  0
 17 16  1  0  0  0  0
 18 13  1  0  0  0  0
 19 13  1  0  0  0  0
 21 16  1  0  0  0  0
 22 17  1  0  0  0  0
 23 18  1  0  0  0  0
 23 26  1  0  0  0  0
 24 23  2  0  0  0  0
 25 23  2  0  0  0  0
 26  8  1  0  0  0  0
 27 28  1  0  0  0  0
 27 30  1  0  0  0  0
 29 27  1  0  0  0  0
 31  6  1  0  0  0  0
M  RAD  2   2   2   3   2
M  END
