Coordinates from ORCA-job Ph-N2-OTs-B3LYPG-aug-cc-pVDZ-scan-d09-49-n400
 OpenBabel07022015303D

 31 30  0  0  0  0  0  0  0  0999 V2000
    0.1443   -0.2230   -2.4754 C   0  0  0  0  0  0  0  0  0  0  0  0
    1.0205    0.8777   -2.2587 C   0  0  0  0  0  0  0  0  0  0  0  0
    0.3383    2.0015   -2.4503 C   0  0  0  0  0  0  0  0  0  0  0  0
   -0.9140    2.3990   -2.7973 C   0  0  0  0  0  0  0  0  0  0  0  0
   -1.7208    1.2575   -3.0051 C   0  0  0  0  0  0  0  0  0  0  0  0
   -1.1915   -0.0292   -2.8420 C   0  0  0  0  0  0  0  0  0  0  0  0
    0.5583   -1.2243   -2.3552 H   0  0  0  0  0  0  0  0  0  0  0  0
    2.1341    0.7592   -2.0037 H   0  0  0  0  0  0  0  0  0  0  0  0
   -1.2657    3.4191   -2.9100 H   0  0  0  0  0  0  0  0  0  0  0  0
   -2.7606    1.4098   -3.2951 H   0  0  0  0  0  0  0  0  0  0  0  0
    1.4751    3.7314   -2.0787 N   0  0  0  0  0  0  0  0  0  0  0  0
    1.7957    4.7414   -1.7717 N   0  0  0  0  0  0  0  0  0  0  0  0
    5.7677    0.0917   -3.8705 C   0  0  0  0  0  0  0  0  0  0  0  0
    6.8744   -0.3183   -4.6142 C   0  0  0  0  0  0  0  0  0  0  0  0
    8.0073    0.5036   -4.7473 C   0  0  0  0  0  0  0  0  0  0  0  0
    8.0042    1.7486   -4.1041 C   0  0  0  0  0  0  0  0  0  0  0  0
    6.9033    2.1735   -3.3519 C   0  0  0  0  0  0  0  0  0  0  0  0
    5.7904    1.3410   -3.2448 C   0  0  0  0  0  0  0  0  0  0  0  0
    4.8982   -0.5534   -3.7586 H   0  0  0  0  0  0  0  0  0  0  0  0
    6.8634   -1.2968   -5.0978 H   0  0  0  0  0  0  0  0  0  0  0  0
    8.8763    2.3993   -4.1873 H   0  0  0  0  0  0  0  0  0  0  0  0
    6.9055    3.1356   -2.8428 H   0  0  0  0  0  0  0  0  0  0  0  0
    4.3360    1.9370   -2.3409 S   0  0  0  0  0  0  0  0  0  0  0  0
    3.3968    2.5231   -3.3793 O   0  0  0  0  0  0  0  0  0  0  0  0
    4.8180    2.9209   -1.3231 O   0  0  0  0  0  0  0  0  0  0  0  0
    3.7056    0.6728   -1.7202 O   0  0  0  0  0  0  0  0  0  0  0  0
    9.1947    0.0416   -5.5579 C   0  0  0  0  0  0  0  0  0  0  0  0
    9.6111   -0.8923   -5.1526 H   0  0  0  0  0  0  0  0  0  0  0  0
    8.9107   -0.1566   -6.6021 H   0  0  0  0  0  0  0  0  0  0  0  0
    9.9950    0.7932   -5.5634 H   0  0  0  0  0  0  0  0  0  0  0  0
   -1.8330   -0.8938   -3.0100 H   0  0  0  0  0  0  0  0  0  0  0  0
  1  7  1  0  0  0  0
  1  2  2  0  0  0  0
  2  8  1  0  0  0  0
  3  2  1  0  0  0  0
  4  3  2  0  0  0  0
  5  6  2  0  0  0  0
  5  4  1  0  0  0  0
  6  1  1  0  0  0  0
  9  4  1  0  0  0  0
 10  5  1  0  0  0  0
 11 12  3  0  0  0  0
 13 19  1  0  0  0  0
 13 18  2  0  0  0  0
 14 13  1  0  0  0  0
 15 14  2  0  0  0  0
 15 16  1  0  0  0  0
 16 17  2  0  0  0  0
 17 18  1  0  0  0  0
 17 22  1  0  0  0  0
 18 23  1  0  0  0  0
 20 14  1  0  0  0  0
 21 16  1  0  0  0  0
 23 26  2  0  0  0  0
 23 25  1  0  0  0  0
 24 23  2  0  0  0  0
 27 28  1  0  0  0  0
 27 15  1  0  0  0  0
 29 27  1  0  0  0  0
 30 27  1  0  0  0  0
 31  6  1  0  0  0  0
M  RAD  2   3   2  25   2
M  END
