Coordinates from ORCA-job Ph-N2-OTs-B3LYPG-aug-cc-pVDZ-scan-d09-49-n400
 OpenBabel07022015303D

 31 30  0  0  0  0  0  0  0  0999 V2000
    0.0277   -0.2194   -2.3960 C   0  0  0  0  0  0  0  0  0  0  0  0
    0.9730    0.8270   -2.2669 C   0  0  0  0  0  0  0  0  0  0  0  0
    0.3847    2.0131   -2.5061 C   0  0  0  0  0  0  0  0  0  0  0  0
   -0.8662    2.4380   -2.8500 C   0  0  0  0  0  0  0  0  0  0  0  0
   -1.7496    1.3468   -2.9738 C   0  0  0  0  0  0  0  0  0  0  0  0
   -1.3014    0.0398   -2.7463 C   0  0  0  0  0  0  0  0  0  0  0  0
    0.3734   -1.2377   -2.2199 H   0  0  0  0  0  0  0  0  0  0  0  0
    2.0517    0.6614   -2.0188 H   0  0  0  0  0  0  0  0  0  0  0  0
   -1.1599    3.4692   -3.0177 H   0  0  0  0  0  0  0  0  0  0  0  0
   -2.7840    1.5470   -3.2530 H   0  0  0  0  0  0  0  0  0  0  0  0
    1.5850    3.5518   -2.2973 N   0  0  0  0  0  0  0  0  0  0  0  0
    1.8207    4.6000   -2.0340 N   0  0  0  0  0  0  0  0  0  0  0  0
    5.8213    0.0577   -3.8585 C   0  0  0  0  0  0  0  0  0  0  0  0
    6.9306   -0.3070   -4.6209 C   0  0  0  0  0  0  0  0  0  0  0  0
    8.0366    0.5510   -4.7539 C   0  0  0  0  0  0  0  0  0  0  0  0
    8.0035    1.7856   -4.0916 C   0  0  0  0  0  0  0  0  0  0  0  0
    6.8978    2.1671   -3.3227 C   0  0  0  0  0  0  0  0  0  0  0  0
    5.8134    1.2983   -3.2153 C   0  0  0  0  0  0  0  0  0  0  0  0
    4.9729   -0.6148   -3.7447 H   0  0  0  0  0  0  0  0  0  0  0  0
    6.9425   -1.2780   -5.1193 H   0  0  0  0  0  0  0  0  0  0  0  0
    8.8552    2.4631   -4.1729 H   0  0  0  0  0  0  0  0  0  0  0  0
    6.8762    3.1224   -2.8010 H   0  0  0  0  0  0  0  0  0  0  0  0
    4.3500    1.8193   -2.2811 S   0  0  0  0  0  0  0  0  0  0  0  0
    3.3885    2.3743   -3.3386 O   0  0  0  0  0  0  0  0  0  0  0  0
    4.7867    2.8479   -1.2866 O   0  0  0  0  0  0  0  0  0  0  0  0
    3.7697    0.5480   -1.6670 O   0  0  0  0  0  0  0  0  0  0  0  0
    9.2267    0.1376   -5.5865 C   0  0  0  0  0  0  0  0  0  0  0  0
    9.6522   -0.8097   -5.2245 H   0  0  0  0  0  0  0  0  0  0  0  0
    8.9422   -0.0159   -6.6383 H   0  0  0  0  0  0  0  0  0  0  0  0
   10.0203    0.8958   -5.5592 H   0  0  0  0  0  0  0  0  0  0  0  0
   -2.0018   -0.7888   -2.8494 H   0  0  0  0  0  0  0  0  0  0  0  0
  1  2  1  0  0  0  0
  1  7  1  0  0  0  0
  2  8  1  0  0  0  0
  3  2  2  0  0  0  0
  4  3  1  0  0  0  0
  5  4  2  0  0  0  0
  5  6  1  0  0  0  0
  6  1  2  0  0  0  0
  9  4  1  0  0  0  0
 10  5  1  0  0  0  0
 11 12  3  0  0  0  0
 13 19  1  0  0  0  0
 13 18  2  0  0  0  0
 14 13  1  0  0  0  0
 15 14  2  0  0  0  0
 15 16  1  0  0  0  0
 16 17  2  0  0  0  0
 17 18  1  0  0  0  0
 17 22  1  0  0  0  0
 18 23  1  0  0  0  0
 20 14  1  0  0  0  0
 21 16  1  0  0  0  0
 23 26  2  0  0  0  0
 23 25  1  0  0  0  0
 24 23  2  0  0  0  0
 27 30  1  0  0  0  0
 27 28  1  0  0  0  0
 27 15  1  0  0  0  0
 29 27  1  0  0  0  0
 31  6  1  0  0  0  0
M  RAD  2   3   2  25   2
M  END
