Coordinates from ORCA-job Ph-N2-OTs-B3LYPG-aug-cc-pVDZ-scan-d09-49-n400
 OpenBabel07022015303D

 31 30  0  0  0  0  0  0  0  0999 V2000
    0.5214    0.8536   -3.6529 C   0  0  0  0  0  0  0  0  0  0  0  0
    1.2963    1.6957   -2.8365 C   0  0  0  0  0  0  0  0  0  0  0  0
    0.9665    1.9118   -1.6427 C   0  0  0  0  0  0  0  0  0  0  0  0
   -0.0817    1.4993   -0.8537 C   0  0  0  0  0  0  0  0  0  0  0  0
   -0.9007    0.6472   -1.6378 C   0  0  0  0  0  0  0  0  0  0  0  0
   -0.6082    0.3406   -2.9808 C   0  0  0  0  0  0  0  0  0  0  0  0
    0.7514    0.6201   -4.6903 H   0  0  0  0  0  0  0  0  0  0  0  0
    2.7938    2.6345   -3.9118 H   0  0  0  0  0  0  0  0  0  0  0  0
   -0.2869    1.7440    0.1846 H   0  0  0  0  0  0  0  0  0  0  0  0
   -1.7882    0.2167   -1.1707 H   0  0  0  0  0  0  0  0  0  0  0  0
    0.5263    2.9278    2.6558 N   0  0  0  0  0  0  0  0  0  0  0  0
    1.0037    3.3849    3.5401 N   0  0  0  0  0  0  0  0  0  0  0  0
    5.3950    0.1747   -4.6801 C   0  0  0  0  0  0  0  0  0  0  0  0
    6.5768   -0.4083   -4.2138 C   0  0  0  0  0  0  0  0  0  0  0  0
    7.7848    0.3031   -4.2086 C   0  0  0  0  0  0  0  0  0  0  0  0
    7.7888    1.6238   -4.6930 C   0  0  0  0  0  0  0  0  0  0  0  0
    6.6229    2.2232   -5.1659 C   0  0  0  0  0  0  0  0  0  0  0  0
    5.4351    1.4872   -5.1490 C   0  0  0  0  0  0  0  0  0  0  0  0
    4.4602   -0.3825   -4.6967 H   0  0  0  0  0  0  0  0  0  0  0  0
    6.5563   -1.4368   -3.8520 H   0  0  0  0  0  0  0  0  0  0  0  0
    8.7216    2.1892   -4.7029 H   0  0  0  0  0  0  0  0  0  0  0  0
    6.6298    3.2399   -5.5541 H   0  0  0  0  0  0  0  0  0  0  0  0
    3.9228    2.2611   -5.7425 S   0  0  0  0  0  0  0  0  0  0  0  0
    2.9011    1.2079   -5.9708 O   0  0  0  0  0  0  0  0  0  0  0  0
    4.2666    3.2493   -6.7820 O   0  0  0  0  0  0  0  0  0  0  0  0
    3.4396    3.1602   -4.4390 O   0  0  0  0  0  0  0  0  0  0  0  0
    9.0563   -0.3224   -3.6893 C   0  0  0  0  0  0  0  0  0  0  0  0
    8.9353   -1.4002   -3.5247 H   0  0  0  0  0  0  0  0  0  0  0  0
    9.8889   -0.1709   -4.3908 H   0  0  0  0  0  0  0  0  0  0  0  0
    9.3510    0.1324   -2.7319 H   0  0  0  0  0  0  0  0  0  0  0  0
   -1.2871   -0.3162   -3.5282 H   0  0  0  0  0  0  0  0  0  0  0  0
  1  6  2  0  0  0  0
  1  2  1  0  0  0  0
  2  3  2  0  0  0  0
  3  4  1  0  0  0  0
  4  9  1  0  0  0  0
  5 10  1  0  0  0  0
  5  4  2  0  0  0  0
  6  5  1  0  0  0  0
  7  1  1  0  0  0  0
 11 12  3  0  0  0  0
 13 14  2  0  0  0  0
 14 15  1  0  0  0  0
 14 20  1  0  0  0  0
 15 27  1  0  0  0  0
 16 15  2  0  0  0  0
 17 18  2  0  0  0  0
 17 16  1  0  0  0  0
 18 13  1  0  0  0  0
 19 13  1  0  0  0  0
 21 16  1  0  0  0  0
 22 17  1  0  0  0  0
 23 18  1  0  0  0  0
 23 26  1  0  0  0  0
 24 23  2  0  0  0  0
 25 23  2  0  0  0  0
 26  8  1  0  0  0  0
 27 28  1  0  0  0  0
 27 30  1  0  0  0  0
 29 27  1  0  0  0  0
 31  6  1  0  0  0  0
M  RAD  2   2   2   3   2
M  END
