Coordinates from ORCA-job Ph-N2-OTs-B3LYPG-aug-cc-pVDZ-scan-d09-49-n400
 OpenBabel07022015303D

 31 32  0  0  1  0  0  0  0  0999 V2000
    1.9845    0.3584   -2.2778 C   0  0  0  0  0  0  0  0  0  0  0  0
    1.7842    1.2681   -3.4473 C   0  0  1  0  0  0  0  0  0  0  0  0
    0.3354    1.7907   -3.5610 C   0  0  0  0  0  0  0  0  0  0  0  0
   -0.5009    1.7639   -2.3448 C   0  0  0  0  0  0  0  0  0  0  0  0
   -0.1267    1.0622   -1.2525 C   0  0  0  0  0  0  0  0  0  0  0  0
    1.1102    0.2981   -1.2526 C   0  0  0  0  0  0  0  0  0  0  0  0
    2.9046   -0.2257   -2.2720 H   0  0  0  0  0  0  0  0  0  0  0  0
    2.0554    0.7964   -4.3982 H   0  0  0  0  0  0  0  0  0  0  0  0
   -1.4377    2.3201   -2.3865 H   0  0  0  0  0  0  0  0  0  0  0  0
   -0.7685    1.0418   -0.3723 H   0  0  0  0  0  0  0  0  0  0  0  0
   -0.0146    2.1732   -4.4860 N   0  0  0  0  0  0  0  0  0  0  0  0
   -0.3956    2.5897   -5.5004 N   0  0  0  0  0  0  0  0  0  0  0  0
    5.3758    0.6843   -4.8989 C   0  0  0  0  0  0  0  0  0  0  0  0
    6.5143   -0.0793   -4.6410 C   0  0  0  0  0  0  0  0  0  0  0  0
    7.4608    0.3275   -3.6850 C   0  0  0  0  0  0  0  0  0  0  0  0
    7.2374    1.5266   -2.9898 C   0  0  0  0  0  0  0  0  0  0  0  0
    6.1031    2.3058   -3.2301 C   0  0  0  0  0  0  0  0  0  0  0  0
    5.1825    1.8688   -4.1830 C   0  0  0  0  0  0  0  0  0  0  0  0
    4.6552    0.3872   -5.6582 H   0  0  0  0  0  0  0  0  0  0  0  0
    6.6719   -1.0014   -5.2020 H   0  0  0  0  0  0  0  0  0  0  0  0
    7.9689    1.8615   -2.2536 H   0  0  0  0  0  0  0  0  0  0  0  0
    5.9468    3.2431   -2.6997 H   0  0  0  0  0  0  0  0  0  0  0  0
    3.7193    2.8626   -4.5102 S   0  0  0  0  0  0  0  0  0  0  0  0
    3.1209    2.4082   -5.7889 O   0  0  0  0  0  0  0  0  0  0  0  0
    4.0226    4.2804   -4.2433 O   0  0  0  0  0  0  0  0  0  0  0  0
    2.6849    2.4321   -3.2633 O   0  0  0  0  0  0  0  0  0  0  0  0
    8.6903   -0.5086   -3.4260 C   0  0  0  0  0  0  0  0  0  0  0  0
    8.4169   -1.5174   -3.0849 H   0  0  0  0  0  0  0  0  0  0  0  0
    9.2861   -0.6268   -4.3428 H   0  0  0  0  0  0  0  0  0  0  0  0
    9.3301   -0.0525   -2.6605 H   0  0  0  0  0  0  0  0  0  0  0  0
    1.3213   -0.3481   -0.3994 H   0  0  0  0  0  0  0  0  0  0  0  0
  1  7  1  0  0  0  0
  1  6  2  0  0  0  0
  2  8  1  6  0  0  0
  2 26  1  0  0  0  0
  2  1  1  0  0  0  0
  3  2  1  0  0  0  0
  3  4  2  0  0  0  0
  4  5  1  0  0  0  0
  5 10  1  0  0  0  0
  6  5  1  0  0  0  0
  6 31  1  0  0  0  0
  9  4  1  0  0  0  0
 11  3  1  0  0  0  0
 12 11  1  0  0  0  0
 13 14  2  0  0  0  0
 13 18  1  0  0  0  0
 14 15  1  0  0  0  0
 15 27  1  0  0  0  0
 15 16  2  0  0  0  0
 16 21  1  0  0  0  0
 17 16  1  0  0  0  0
 17 22  1  0  0  0  0
 18 17  2  0  0  0  0
 19 13  1  0  0  0  0
 20 14  1  0  0  0  0
 23 25  2  0  0  0  0
 23 18  1  0  0  0  0
 23 26  1  0  0  0  0
 24 23  2  0  0  0  0
 27 28  1  0  0  0  0
 27 30  1  0  0  0  0
 29 27  1  0  0  0  0
M  RAD  3   5   2  11   2  12   3
M  END
