Coordinates from ORCA-job Ph-N2-OTs-B3LYPG-aug-cc-pVDZ-scan-d09-49-n400
 OpenBabel07022015303D

 31 30  0  0  0  0  0  0  0  0999 V2000
    0.4057    0.8408   -3.7034 C   0  0  0  0  0  0  0  0  0  0  0  0
    1.2110    1.5874   -2.8261 C   0  0  0  0  0  0  0  0  0  0  0  0
    0.8698    1.7578   -1.6282 C   0  0  0  0  0  0  0  0  0  0  0  0
   -0.2247    1.3768   -0.8875 C   0  0  0  0  0  0  0  0  0  0  0  0
   -1.0773    0.6238   -1.7341 C   0  0  0  0  0  0  0  0  0  0  0  0
   -0.7716    0.3697   -3.0853 C   0  0  0  0  0  0  0  0  0  0  0  0
    0.6455    0.6479   -4.7470 H   0  0  0  0  0  0  0  0  0  0  0  0
    2.7232    2.5673   -3.8473 H   0  0  0  0  0  0  0  0  0  0  0  0
   -0.4393    1.5789    0.1581 H   0  0  0  0  0  0  0  0  0  0  0  0
   -2.0023    0.2280   -1.3108 H   0  0  0  0  0  0  0  0  0  0  0  0
    1.2952    2.9266    2.2344 N   0  0  0  0  0  0  0  0  0  0  0  0
    2.0587    3.3773    2.8922 N   0  0  0  0  0  0  0  0  0  0  0  0
    5.3905    0.1841   -4.6057 C   0  0  0  0  0  0  0  0  0  0  0  0
    6.5774   -0.3839   -4.1343 C   0  0  0  0  0  0  0  0  0  0  0  0
    7.7741    0.3463   -4.1132 C   0  0  0  0  0  0  0  0  0  0  0  0
    7.7614    1.6708   -4.5865 C   0  0  0  0  0  0  0  0  0  0  0  0
    6.5899    2.2558   -5.0640 C   0  0  0  0  0  0  0  0  0  0  0  0
    5.4139    1.5011   -5.0632 C   0  0  0  0  0  0  0  0  0  0  0  0
    4.4649   -0.3877   -4.6348 H   0  0  0  0  0  0  0  0  0  0  0  0
    6.5704   -1.4155   -3.7807 H   0  0  0  0  0  0  0  0  0  0  0  0
    8.6853    2.2508   -4.5842 H   0  0  0  0  0  0  0  0  0  0  0  0
    6.5838    3.2756   -5.4441 H   0  0  0  0  0  0  0  0  0  0  0  0
    3.8941    2.2568   -5.6606 S   0  0  0  0  0  0  0  0  0  0  0  0
    2.8960    1.1897   -5.9252 O   0  0  0  0  0  0  0  0  0  0  0  0
    4.2317    3.2745   -6.6735 O   0  0  0  0  0  0  0  0  0  0  0  0
    3.3751    3.1153   -4.3430 O   0  0  0  0  0  0  0  0  0  0  0  0
    9.0512   -0.2637   -3.5892 C   0  0  0  0  0  0  0  0  0  0  0  0
    8.9447   -1.3441   -3.4312 H   0  0  0  0  0  0  0  0  0  0  0  0
    9.8859   -0.0963   -4.2844 H   0  0  0  0  0  0  0  0  0  0  0  0
    9.3334    0.1899   -2.6274 H   0  0  0  0  0  0  0  0  0  0  0  0
   -1.4783   -0.2109   -3.6817 H   0  0  0  0  0  0  0  0  0  0  0  0
  1  6  2  0  0  0  0
  1  2  1  0  0  0  0
  2  3  2  0  0  0  0
  3  4  1  0  0  0  0
  4  9  1  0  0  0  0
  5 10  1  0  0  0  0
  5  4  2  0  0  0  0
  6  5  1  0  0  0  0
  7  1  1  0  0  0  0
 11 12  3  0  0  0  0
 13 14  2  0  0  0  0
 14 15  1  0  0  0  0
 14 20  1  0  0  0  0
 15 27  1  0  0  0  0
 16 21  1  0  0  0  0
 16 15  2  0  0  0  0
 17 18  2  0  0  0  0
 17 16  1  0  0  0  0
 18 13  1  0  0  0  0
 19 13  1  0  0  0  0
 22 17  1  0  0  0  0
 23 18  1  0  0  0  0
 23 26  1  0  0  0  0
 24 23  2  0  0  0  0
 25 23  2  0  0  0  0
 26  8  1  0  0  0  0
 27 28  1  0  0  0  0
 27 30  1  0  0  0  0
 29 27  1  0  0  0  0
 31  6  1  0  0  0  0
M  RAD  2   2   2   3   2
M  END
