Coordinates from ORCA-job Ph-N2-OTs-B3LYPG-aug-cc-pVDZ-scan-d09-49-n400
 OpenBabel07022015303D

 31 31  0  0  0  0  0  0  0  0999 V2000
   -0.1437   -0.1971   -2.2835 C   0  0  0  0  0  0  0  0  0  0  0  0
    0.9022    0.7343   -2.2211 C   0  0  0  0  0  0  0  0  0  0  0  0
    0.5412    2.0233   -2.5442 C   0  0  0  0  0  0  0  0  0  0  0  0
   -0.7045    2.4925   -2.9307 C   0  0  0  0  0  0  0  0  0  0  0  0
   -1.7117    1.5240   -2.9983 C   0  0  0  0  0  0  0  0  0  0  0  0
   -1.4297    0.1911   -2.6752 C   0  0  0  0  0  0  0  0  0  0  0  0
    0.0642   -1.2355   -2.0285 H   0  0  0  0  0  0  0  0  0  0  0  0
    1.9268    0.4671   -1.9419 H   0  0  0  0  0  0  0  0  0  0  0  0
   -0.8847    3.5367   -3.1728 H   0  0  0  0  0  0  0  0  0  0  0  0
   -2.7126    1.8203   -3.3097 H   0  0  0  0  0  0  0  0  0  0  0  0
    1.6816    3.1866   -2.4494 N   0  0  0  0  0  0  0  0  0  0  0  0
    1.9095    4.2586   -2.2428 N   0  0  0  0  0  0  0  0  0  0  0  0
    5.9012   -0.0121   -3.8125 C   0  0  0  0  0  0  0  0  0  0  0  0
    7.0154   -0.3060   -4.5970 C   0  0  0  0  0  0  0  0  0  0  0  0
    8.0518    0.6289   -4.7692 C   0  0  0  0  0  0  0  0  0  0  0  0
    7.9418    1.8700   -4.1268 C   0  0  0  0  0  0  0  0  0  0  0  0
    6.8280    2.1836   -3.3393 C   0  0  0  0  0  0  0  0  0  0  0  0
    5.8169    1.2367   -3.1903 C   0  0  0  0  0  0  0  0  0  0  0  0
    5.1081   -0.7435   -3.6660 H   0  0  0  0  0  0  0  0  0  0  0  0
    7.0845   -1.2813   -5.0821 H   0  0  0  0  0  0  0  0  0  0  0  0
    8.7400    2.6061   -4.2369 H   0  0  0  0  0  0  0  0  0  0  0  0
    6.7470    3.1453   -2.8353 H   0  0  0  0  0  0  0  0  0  0  0  0
    4.3505    1.6393   -2.2116 S   0  0  0  0  0  0  0  0  0  0  0  0
    3.3085    2.0386   -3.3008 O   0  0  0  0  0  0  0  0  0  0  0  0
    4.6799    2.7943   -1.3198 O   0  0  0  0  0  0  0  0  0  0  0  0
    3.9123    0.3725   -1.5209 O   0  0  0  0  0  0  0  0  0  0  0  0
    9.2498    0.2888   -5.6229 C   0  0  0  0  0  0  0  0  0  0  0  0
    9.7405   -0.6286   -5.2664 H   0  0  0  0  0  0  0  0  0  0  0  0
    8.9549    0.1135   -6.6682 H   0  0  0  0  0  0  0  0  0  0  0  0
    9.9939    1.0958   -5.6135 H   0  0  0  0  0  0  0  0  0  0  0  0
   -2.2242   -0.5531   -2.7345 H   0  0  0  0  0  0  0  0  0  0  0  0
  1  2  1  0  0  0  0
  1  7  1  0  0  0  0
  2  8  1  0  0  0  0
  3 11  1  0  0  0  0
  3  2  2  0  0  0  0
  4  3  1  0  0  0  0
  5  4  2  0  0  0  0
  5  6  1  0  0  0  0
  6  1  2  0  0  0  0
  9  4  1  0  0  0  0
 10  5  1  0  0  0  0
 11 12  2  0  0  0  0
 13 19  1  0  0  0  0
 13 18  2  0  0  0  0
 14 13  1  0  0  0  0
 15 14  2  0  0  0  0
 15 16  1  0  0  0  0
 16 17  2  0  0  0  0
 17 18  1  0  0  0  0
 17 22  1  0  0  0  0
 18 23  1  0  0  0  0
 20 14  1  0  0  0  0
 21 16  1  0  0  0  0
 23 26  2  0  0  0  0
 23 25  1  0  0  0  0
 24 23  2  0  0  0  0
 27 30  1  0  0  0  0
 27 28  1  0  0  0  0
 27 15  1  0  0  0  0
 29 27  1  0  0  0  0
 31  6  1  0  0  0  0
M  RAD  2  12   2  25   2
M  END
