Coordinates from ORCA-job Ph-N2-OTs-B3LYPG-aug-cc-pVDZ-scan-d09-49-n400
 OpenBabel07022015303D

 31 30  0  0  0  0  0  0  0  0999 V2000
    0.3475    0.8022   -3.6383 C   0  0  0  0  0  0  0  0  0  0  0  0
    1.1197    1.4946   -2.6875 C   0  0  0  0  0  0  0  0  0  0  0  0
    0.7164    1.6016   -1.5012 C   0  0  0  0  0  0  0  0  0  0  0  0
   -0.4152    1.1968   -0.8344 C   0  0  0  0  0  0  0  0  0  0  0  0
   -1.2320    0.4974   -1.7583 C   0  0  0  0  0  0  0  0  0  0  0  0
   -0.8619    0.3107   -3.1046 C   0  0  0  0  0  0  0  0  0  0  0  0
    0.6338    0.6656   -4.6790 H   0  0  0  0  0  0  0  0  0  0  0  0
    2.6712    2.5249   -3.5662 H   0  0  0  0  0  0  0  0  0  0  0  0
   -0.6761    1.3519    0.2086 H   0  0  0  0  0  0  0  0  0  0  0  0
   -2.1807    0.0930   -1.4010 H   0  0  0  0  0  0  0  0  0  0  0  0
    1.9744    2.9585    0.9679 N   0  0  0  0  0  0  0  0  0  0  0  0
    2.9261    3.4709    1.1926 N   0  0  0  0  0  0  0  0  0  0  0  0
    5.3562    0.2715   -4.4516 C   0  0  0  0  0  0  0  0  0  0  0  0
    6.5430   -0.3418   -4.0419 C   0  0  0  0  0  0  0  0  0  0  0  0
    7.7602    0.3545   -4.0496 C   0  0  0  0  0  0  0  0  0  0  0  0
    7.7677    1.6908   -4.4878 C   0  0  0  0  0  0  0  0  0  0  0  0
    6.5950    2.3221   -4.9004 C   0  0  0  0  0  0  0  0  0  0  0  0
    5.3994    1.6003   -4.8733 C   0  0  0  0  0  0  0  0  0  0  0  0
    4.4152   -0.2756   -4.4613 H   0  0  0  0  0  0  0  0  0  0  0  0
    6.5192   -1.3821   -3.7155 H   0  0  0  0  0  0  0  0  0  0  0  0
    8.7075    2.2442   -4.5080 H   0  0  0  0  0  0  0  0  0  0  0  0
    6.6012    3.3520   -5.2519 H   0  0  0  0  0  0  0  0  0  0  0  0
    3.8764    2.4129   -5.3804 S   0  0  0  0  0  0  0  0  0  0  0  0
    2.8826    1.3781   -5.7643 O   0  0  0  0  0  0  0  0  0  0  0  0
    4.2109    3.5386   -6.2733 O   0  0  0  0  0  0  0  0  0  0  0  0
    3.3542    3.1086   -3.9723 O   0  0  0  0  0  0  0  0  0  0  0  0
    9.0392   -0.3057   -3.5956 C   0  0  0  0  0  0  0  0  0  0  0  0
    8.9017   -1.3827   -3.4388 H   0  0  0  0  0  0  0  0  0  0  0  0
    9.8427   -0.1637   -4.3324 H   0  0  0  0  0  0  0  0  0  0  0  0
    9.3873    0.1304   -2.6476 H   0  0  0  0  0  0  0  0  0  0  0  0
   -1.5432   -0.2298   -3.7647 H   0  0  0  0  0  0  0  0  0  0  0  0
  1  6  2  0  0  0  0
  1  2  1  0  0  0  0
  2  3  2  0  0  0  0
  3  4  1  0  0  0  0
  4  9  1  0  0  0  0
  5 10  1  0  0  0  0
  5  4  2  0  0  0  0
  6  5  1  0  0  0  0
  7  1  1  0  0  0  0
 11 12  3  0  0  0  0
 13 14  2  0  0  0  0
 14 20  1  0  0  0  0
 15 14  1  0  0  0  0
 15 27  1  0  0  0  0
 16 15  2  0  0  0  0
 17 18  2  0  0  0  0
 17 16  1  0  0  0  0
 18 13  1  0  0  0  0
 19 13  1  0  0  0  0
 21 16  1  0  0  0  0
 22 17  1  0  0  0  0
 23 18  1  0  0  0  0
 23 26  1  0  0  0  0
 24 23  2  0  0  0  0
 25 23  2  0  0  0  0
 26  8  1  0  0  0  0
 27 28  1  0  0  0  0
 27 30  1  0  0  0  0
 29 27  1  0  0  0  0
 31  6  1  0  0  0  0
M  RAD  2   2   2   3   2
M  END
