Coordinates from ORCA-job Ph-N2-OTs-B3LYPG-aug-cc-pVDZ-scan-d09-49-n400
 OpenBabel07022015303D

 31 30  0  0  0  0  0  0  0  0999 V2000
    0.1554   -0.2233   -2.4832 C   0  0  0  0  0  0  0  0  0  0  0  0
    1.0251    0.8819   -2.2587 C   0  0  0  0  0  0  0  0  0  0  0  0
    0.3358    2.0004   -2.4459 C   0  0  0  0  0  0  0  0  0  0  0  0
   -0.9176    2.3948   -2.7926 C   0  0  0  0  0  0  0  0  0  0  0  0
   -1.7174    1.2498   -3.0079 C   0  0  0  0  0  0  0  0  0  0  0  0
   -1.1808   -0.0349   -2.8509 C   0  0  0  0  0  0  0  0  0  0  0  0
    0.5752   -1.2228   -2.3684 H   0  0  0  0  0  0  0  0  0  0  0  0
    2.1438    0.7674   -2.0039 H   0  0  0  0  0  0  0  0  0  0  0  0
   -1.2746    3.4136   -2.9001 H   0  0  0  0  0  0  0  0  0  0  0  0
   -2.7577    1.3976   -3.2987 H   0  0  0  0  0  0  0  0  0  0  0  0
    1.4648    3.7441   -2.0587 N   0  0  0  0  0  0  0  0  0  0  0  0
    1.7963    4.7493   -1.7475 N   0  0  0  0  0  0  0  0  0  0  0  0
    5.7621    0.0956   -3.8711 C   0  0  0  0  0  0  0  0  0  0  0  0
    6.8684   -0.3190   -4.6129 C   0  0  0  0  0  0  0  0  0  0  0  0
    8.0037    0.4993   -4.7463 C   0  0  0  0  0  0  0  0  0  0  0  0
    8.0037    1.7455   -4.1052 C   0  0  0  0  0  0  0  0  0  0  0  0
    6.9035    2.1748   -3.3547 C   0  0  0  0  0  0  0  0  0  0  0  0
    5.7879    1.3458   -3.2473 C   0  0  0  0  0  0  0  0  0  0  0  0
    4.8904   -0.5467   -3.7593 H   0  0  0  0  0  0  0  0  0  0  0  0
    6.8550   -1.2982   -5.0949 H   0  0  0  0  0  0  0  0  0  0  0  0
    8.8777    2.3935   -4.1887 H   0  0  0  0  0  0  0  0  0  0  0  0
    6.9082    3.1377   -2.8470 H   0  0  0  0  0  0  0  0  0  0  0  0
    4.3350    1.9492   -2.3465 S   0  0  0  0  0  0  0  0  0  0  0  0
    3.3977    2.5373   -3.3836 O   0  0  0  0  0  0  0  0  0  0  0  0
    4.8205    2.9293   -1.3269 O   0  0  0  0  0  0  0  0  0  0  0  0
    3.6998    0.6852   -1.7247 O   0  0  0  0  0  0  0  0  0  0  0  0
    9.1906    0.0325   -5.5548 C   0  0  0  0  0  0  0  0  0  0  0  0
    9.6063   -0.8998   -5.1452 H   0  0  0  0  0  0  0  0  0  0  0  0
    8.9063   -0.1703   -6.5980 H   0  0  0  0  0  0  0  0  0  0  0  0
    9.9915    0.7835   -5.5639 H   0  0  0  0  0  0  0  0  0  0  0  0
   -1.8172   -0.9023   -3.0246 H   0  0  0  0  0  0  0  0  0  0  0  0
  1  7  1  0  0  0  0
  1  2  2  0  0  0  0
  2  8  1  0  0  0  0
  3  2  1  0  0  0  0
  4  3  2  0  0  0  0
  5  6  2  0  0  0  0
  5  4  1  0  0  0  0
  6  1  1  0  0  0  0
  9  4  1  0  0  0  0
 10  5  1  0  0  0  0
 11 12  3  0  0  0  0
 13 19  1  0  0  0  0
 13 18  2  0  0  0  0
 14 13  1  0  0  0  0
 15 14  2  0  0  0  0
 15 16  1  0  0  0  0
 16 17  2  0  0  0  0
 17 18  1  0  0  0  0
 17 22  1  0  0  0  0
 18 23  1  0  0  0  0
 20 14  1  0  0  0  0
 21 16  1  0  0  0  0
 23 26  2  0  0  0  0
 23 25  1  0  0  0  0
 24 23  2  0  0  0  0
 27 28  1  0  0  0  0
 27 15  1  0  0  0  0
 29 27  1  0  0  0  0
 30 27  1  0  0  0  0
 31  6  1  0  0  0  0
M  RAD  2   3   2  25   2
M  END
