Coordinates from ORCA-job Ph-N2-OTs-B3LYPG-aug-cc-pVDZ-scan-d09-49-n400
 OpenBabel07022015303D

 31 32  0  0  1  0  0  0  0  0999 V2000
    1.9938    0.4865   -1.9459 C   0  0  0  0  0  0  0  0  0  0  0  0
    1.8813    1.1954   -3.2528 C   0  0  1  0  0  0  0  0  0  0  0  0
    0.4677    1.5638   -3.5082 C   0  0  1  0  0  0  0  0  0  0  0  0
   -0.5357    1.6700   -2.4981 C   0  0  0  0  0  0  0  0  0  0  0  0
   -0.2567    1.1886   -1.2514 C   0  0  0  0  0  0  0  0  0  0  0  0
    1.0115    0.5404   -1.0110 C   0  0  0  0  0  0  0  0  0  0  0  0
    2.9275   -0.0389   -1.7509 H   0  0  0  0  0  0  0  0  0  0  0  0
    2.3340    0.6477   -4.0831 H   0  0  0  0  0  0  0  0  0  0  0  0
   -1.4970    2.1204   -2.7408 H   0  0  0  0  0  0  0  0  0  0  0  0
   -0.9981    1.2539   -0.4571 H   0  0  0  0  0  0  0  0  0  0  0  0
    0.1128    1.9044   -4.8309 N   0  0  0  0  0  0  0  0  0  0  0  0
   -0.1732    2.1751   -5.8901 N   0  0  0  0  0  0  0  0  0  0  0  0
    5.4015    0.8304   -5.0232 C   0  0  0  0  0  0  0  0  0  0  0  0
    6.5409    0.0449   -4.8396 C   0  0  0  0  0  0  0  0  0  0  0  0
    7.4508    0.3146   -3.8044 C   0  0  0  0  0  0  0  0  0  0  0  0
    7.1957    1.4030   -2.9543 C   0  0  0  0  0  0  0  0  0  0  0  0
    6.0632    2.2035   -3.1208 C   0  0  0  0  0  0  0  0  0  0  0  0
    5.1736    1.8995   -4.1535 C   0  0  0  0  0  0  0  0  0  0  0  0
    4.7045    0.6377   -5.8361 H   0  0  0  0  0  0  0  0  0  0  0  0
    6.7283   -0.7863   -5.5211 H   0  0  0  0  0  0  0  0  0  0  0  0
    7.8985    1.6320   -2.1524 H   0  0  0  0  0  0  0  0  0  0  0  0
    5.8792    3.0545   -2.4675 H   0  0  0  0  0  0  0  0  0  0  0  0
    3.7027    2.9170   -4.3727 S   0  0  0  0  0  0  0  0  0  0  0  0
    3.0425    2.5028   -5.6406 O   0  0  0  0  0  0  0  0  0  0  0  0
    4.0457    4.3299   -4.1138 O   0  0  0  0  0  0  0  0  0  0  0  0
    2.7424    2.4720   -3.1069 O   0  0  0  0  0  0  0  0  0  0  0  0
    8.6705   -0.5554   -3.6183 C   0  0  0  0  0  0  0  0  0  0  0  0
    8.3838   -1.5787   -3.3346 H   0  0  0  0  0  0  0  0  0  0  0  0
    9.2511   -0.6269   -4.5491 H   0  0  0  0  0  0  0  0  0  0  0  0
    9.3282   -0.1608   -2.8337 H   0  0  0  0  0  0  0  0  0  0  0  0
    1.1683    0.0499   -0.0490 H   0  0  0  0  0  0  0  0  0  0  0  0
  1  7  1  0  0  0  0
  1  6  2  0  0  0  0
  2  8  1  6  0  0  0
  2 26  1  0  0  0  0
  2  1  1  0  0  0  0
  3 11  1  1  0  0  0
  3  2  1  0  0  0  0
  3  4  1  0  0  0  0
  4  5  2  0  0  0  0
  5  6  1  0  0  0  0
  5 10  1  0  0  0  0
  6 31  1  0  0  0  0
  9  4  1  0  0  0  0
 12 11  1  0  0  0  0
 13 14  2  0  0  0  0
 13 18  1  0  0  0  0
 14 15  1  0  0  0  0
 15 27  1  0  0  0  0
 15 16  2  0  0  0  0
 16 21  1  0  0  0  0
 17 16  1  0  0  0  0
 17 22  1  0  0  0  0
 18 17  2  0  0  0  0
 19 13  1  0  0  0  0
 20 14  1  0  0  0  0
 23 18  1  0  0  0  0
 23 25  2  0  0  0  0
 23 26  1  0  0  0  0
 24 23  2  0  0  0  0
 27 28  1  0  0  0  0
 27 30  1  0  0  0  0
 29 27  1  0  0  0  0
M  RAD  3   3   2  11   2  12   3
M  END
