Coordinates from ORCA-job Ph-N2-OTs-B3LYPG-aug-cc-pVDZ-scan-d09-49-n400
 OpenBabel07022015303D

 31 32  0  0  1  0  0  0  0  0999 V2000
    2.0858    0.4817   -2.1190 C   0  0  0  0  0  0  0  0  0  0  0  0
    1.8730    1.2655   -3.3740 C   0  0  1  0  0  0  0  0  0  0  0  0
    0.4116    1.6462   -3.5719 C   0  0  0  0  0  0  0  0  0  0  0  0
   -0.4847    1.6811   -2.4193 C   0  0  0  0  0  0  0  0  0  0  0  0
   -0.1101    1.1271   -1.2410 C   0  0  0  0  0  0  0  0  0  0  0  0
    1.1752    0.4628   -1.1221 C   0  0  0  0  0  0  0  0  0  0  0  0
    3.0405   -0.0346   -2.0236 H   0  0  0  0  0  0  0  0  0  0  0  0
    2.2441    0.7436   -4.2622 H   0  0  0  0  0  0  0  0  0  0  0  0
   -1.4591    2.1512   -2.5514 H   0  0  0  0  0  0  0  0  0  0  0  0
   -0.7876    1.1458   -0.3884 H   0  0  0  0  0  0  0  0  0  0  0  0
    0.0401    1.9345   -4.6331 N   0  0  0  0  0  0  0  0  0  0  0  0
   -0.3257    2.2167   -5.6859 N   0  0  0  0  0  0  0  0  0  0  0  0
    5.3966    0.8184   -5.0264 C   0  0  0  0  0  0  0  0  0  0  0  0
    6.5181    0.0228   -4.7875 C   0  0  0  0  0  0  0  0  0  0  0  0
    7.3970    0.3042   -3.7286 C   0  0  0  0  0  0  0  0  0  0  0  0
    7.1278    1.4140   -2.9109 C   0  0  0  0  0  0  0  0  0  0  0  0
    6.0124    2.2249   -3.1321 C   0  0  0  0  0  0  0  0  0  0  0  0
    5.1545    1.9091   -4.1875 C   0  0  0  0  0  0  0  0  0  0  0  0
    4.7245    0.6174   -5.8579 H   0  0  0  0  0  0  0  0  0  0  0  0
    6.7167   -0.8247   -5.4454 H   0  0  0  0  0  0  0  0  0  0  0  0
    7.8078    1.6524   -2.0923 H   0  0  0  0  0  0  0  0  0  0  0  0
    5.8199    3.0926   -2.5037 H   0  0  0  0  0  0  0  0  0  0  0  0
    3.7095    2.9408   -4.4847 S   0  0  0  0  0  0  0  0  0  0  0  0
    3.0936    2.5182   -5.7672 O   0  0  0  0  0  0  0  0  0  0  0  0
    4.0437    4.3501   -4.2059 O   0  0  0  0  0  0  0  0  0  0  0  0
    2.6854    2.5180   -3.2394 O   0  0  0  0  0  0  0  0  0  0  0  0
    8.5992   -0.5749   -3.4831 C   0  0  0  0  0  0  0  0  0  0  0  0
    8.2910   -1.5838   -3.1716 H   0  0  0  0  0  0  0  0  0  0  0  0
    9.2002   -0.6867   -4.3966 H   0  0  0  0  0  0  0  0  0  0  0  0
    9.2436   -0.1623   -2.6968 H   0  0  0  0  0  0  0  0  0  0  0  0
    1.3950   -0.0813   -0.2025 H   0  0  0  0  0  0  0  0  0  0  0  0
  1  7  1  0  0  0  0
  1  6  2  0  0  0  0
  2  8  1  6  0  0  0
  2 26  1  0  0  0  0
  2  1  1  0  0  0  0
  3  2  1  0  0  0  0
  3  4  2  0  0  0  0
  4  5  1  0  0  0  0
  5  6  1  0  0  0  0
  5 10  1  0  0  0  0
  6 31  1  0  0  0  0
  9  4  1  0  0  0  0
 11  3  1  0  0  0  0
 12 11  1  0  0  0  0
 13 14  2  0  0  0  0
 13 18  1  0  0  0  0
 14 15  1  0  0  0  0
 15 27  1  0  0  0  0
 15 16  2  0  0  0  0
 16 21  1  0  0  0  0
 17 16  1  0  0  0  0
 17 22  1  0  0  0  0
 18 17  2  0  0  0  0
 19 13  1  0  0  0  0
 20 14  1  0  0  0  0
 23 25  2  0  0  0  0
 23 18  1  0  0  0  0
 23 26  1  0  0  0  0
 24 23  2  0  0  0  0
 27 28  1  0  0  0  0
 27 30  1  0  0  0  0
 29 27  1  0  0  0  0
M  RAD  3   5   2  11   2  12   3
M  END
