Coordinates from ORCA-job Ph-N2-OTs-B3LYPG-aug-cc-pVDZ-scan-d09-49-n400
 OpenBabel07022015303D

 31 30  0  0  0  0  0  0  0  0999 V2000
    0.3492    0.8036   -3.6305 C   0  0  0  0  0  0  0  0  0  0  0  0
    1.1208    1.5006   -2.6816 C   0  0  0  0  0  0  0  0  0  0  0  0
    0.7129    1.6053   -1.4963 C   0  0  0  0  0  0  0  0  0  0  0  0
   -0.4162    1.1980   -0.8281 C   0  0  0  0  0  0  0  0  0  0  0  0
   -1.2302    0.4945   -1.7517 C   0  0  0  0  0  0  0  0  0  0  0  0
   -0.8588    0.3080   -3.0976 C   0  0  0  0  0  0  0  0  0  0  0  0
    0.6369    0.6662   -4.6710 H   0  0  0  0  0  0  0  0  0  0  0  0
    2.6639    2.5257   -3.5539 H   0  0  0  0  0  0  0  0  0  0  0  0
   -0.6777    1.3533    0.2147 H   0  0  0  0  0  0  0  0  0  0  0  0
   -2.1776    0.0870   -1.3941 H   0  0  0  0  0  0  0  0  0  0  0  0
    1.9853    2.9577    0.8794 N   0  0  0  0  0  0  0  0  0  0  0  0
    2.9355    3.4749    1.0997 N   0  0  0  0  0  0  0  0  0  0  0  0
    5.3558    0.2689   -4.4516 C   0  0  0  0  0  0  0  0  0  0  0  0
    6.5440   -0.3459   -4.0478 C   0  0  0  0  0  0  0  0  0  0  0  0
    7.7598    0.3529   -4.0481 C   0  0  0  0  0  0  0  0  0  0  0  0
    7.7640    1.6939   -4.4716 C   0  0  0  0  0  0  0  0  0  0  0  0
    6.5900    2.3266   -4.8785 C   0  0  0  0  0  0  0  0  0  0  0  0
    5.3959    1.6019   -4.8597 C   0  0  0  0  0  0  0  0  0  0  0  0
    4.4164   -0.2808   -4.4679 H   0  0  0  0  0  0  0  0  0  0  0  0
    6.5223   -1.3897   -3.7327 H   0  0  0  0  0  0  0  0  0  0  0  0
    8.7025    2.2498   -4.4860 H   0  0  0  0  0  0  0  0  0  0  0  0
    6.5943    3.3598   -5.2204 H   0  0  0  0  0  0  0  0  0  0  0  0
    3.8733    2.4161   -5.3665 S   0  0  0  0  0  0  0  0  0  0  0  0
    2.8791    1.3836   -5.7554 O   0  0  0  0  0  0  0  0  0  0  0  0
    4.2106    3.5434   -6.2565 O   0  0  0  0  0  0  0  0  0  0  0  0
    3.3490    3.1094   -3.9584 O   0  0  0  0  0  0  0  0  0  0  0  0
    9.0402   -0.3093   -3.6013 C   0  0  0  0  0  0  0  0  0  0  0  0
    8.9050   -1.3882   -3.4556 H   0  0  0  0  0  0  0  0  0  0  0  0
    9.8432   -0.1579   -4.3367 H   0  0  0  0  0  0  0  0  0  0  0  0
    9.3876    0.1176   -2.6488 H   0  0  0  0  0  0  0  0  0  0  0  0
   -1.5376   -0.2359   -3.7574 H   0  0  0  0  0  0  0  0  0  0  0  0
  1  6  2  0  0  0  0
  1  2  1  0  0  0  0
  2  3  2  0  0  0  0
  3  4  1  0  0  0  0
  4  9  1  0  0  0  0
  5 10  1  0  0  0  0
  5  4  2  0  0  0  0
  6  5  1  0  0  0  0
  7  1  1  0  0  0  0
 11 12  3  0  0  0  0
 13 14  2  0  0  0  0
 14 20  1  0  0  0  0
 15 14  1  0  0  0  0
 15 27  1  0  0  0  0
 16 15  2  0  0  0  0
 17 18  2  0  0  0  0
 17 16  1  0  0  0  0
 18 13  1  0  0  0  0
 19 13  1  0  0  0  0
 21 16  1  0  0  0  0
 22 17  1  0  0  0  0
 23 18  1  0  0  0  0
 23 26  1  0  0  0  0
 24 23  2  0  0  0  0
 25 23  2  0  0  0  0
 26  8  1  0  0  0  0
 27 28  1  0  0  0  0
 27 30  1  0  0  0  0
 29 27  1  0  0  0  0
 31  6  1  0  0  0  0
M  RAD  2   2   2   3   2
M  END
