Coordinates from ORCA-job Ph-N2-OTs-B3LYPG-aug-cc-pVDZ-scan-d09-49-n400
 OpenBabel07022015303D

 31 30  0  0  0  0  0  0  0  0999 V2000
    0.5965    0.8794   -3.5839 C   0  0  0  0  0  0  0  0  0  0  0  0
    1.3681    1.7753   -2.8236 C   0  0  0  0  0  0  0  0  0  0  0  0
    1.0604    2.0339   -1.6324 C   0  0  0  0  0  0  0  0  0  0  0  0
    0.0466    1.6245   -0.7986 C   0  0  0  0  0  0  0  0  0  0  0  0
   -0.7658    0.7162   -1.5243 C   0  0  0  0  0  0  0  0  0  0  0  0
   -0.4989    0.3617   -2.8608 C   0  0  0  0  0  0  0  0  0  0  0  0
    0.8064    0.6099   -4.6169 H   0  0  0  0  0  0  0  0  0  0  0  0
    2.8643    2.6674   -3.9410 H   0  0  0  0  0  0  0  0  0  0  0  0
   -0.1432    1.9069    0.2328 H   0  0  0  0  0  0  0  0  0  0  0  0
   -1.6276    0.2804   -1.0156 H   0  0  0  0  0  0  0  0  0  0  0  0
   -0.2165    2.8753    2.9595 N   0  0  0  0  0  0  0  0  0  0  0  0
   -0.1262    3.3111    3.9699 N   0  0  0  0  0  0  0  0  0  0  0  0
    5.4260    0.1587   -4.7265 C   0  0  0  0  0  0  0  0  0  0  0  0
    6.6114   -0.4319   -4.2799 C   0  0  0  0  0  0  0  0  0  0  0  0
    7.8274    0.2650   -4.3122 C   0  0  0  0  0  0  0  0  0  0  0  0
    7.8354    1.5790   -4.8144 C   0  0  0  0  0  0  0  0  0  0  0  0
    6.6657    2.1858   -5.2684 C   0  0  0  0  0  0  0  0  0  0  0  0
    5.4701    1.4642   -5.2144 C   0  0  0  0  0  0  0  0  0  0  0  0
    4.4848   -0.3875   -4.7143 H   0  0  0  0  0  0  0  0  0  0  0  0
    6.5875   -1.4553   -3.9039 H   0  0  0  0  0  0  0  0  0  0  0  0
    8.7741    2.1334   -4.8536 H   0  0  0  0  0  0  0  0  0  0  0  0
    6.6756    3.1971   -5.6703 H   0  0  0  0  0  0  0  0  0  0  0  0
    3.9538    2.2461   -5.7870 S   0  0  0  0  0  0  0  0  0  0  0  0
    2.9159    1.2010   -5.9760 O   0  0  0  0  0  0  0  0  0  0  0  0
    4.2862    3.2125   -6.8505 O   0  0  0  0  0  0  0  0  0  0  0  0
    3.5091    3.1726   -4.4893 O   0  0  0  0  0  0  0  0  0  0  0  0
    9.1033   -0.3690   -3.8144 C   0  0  0  0  0  0  0  0  0  0  0  0
    8.9730   -1.4428   -3.6314 H   0  0  0  0  0  0  0  0  0  0  0  0
    9.9206   -0.2383   -4.5377 H   0  0  0  0  0  0  0  0  0  0  0  0
    9.4266    0.0956   -2.8710 H   0  0  0  0  0  0  0  0  0  0  0  0
   -1.1712   -0.3374   -3.3619 H   0  0  0  0  0  0  0  0  0  0  0  0
  1  6  2  0  0  0  0
  1  2  1  0  0  0  0
  2  3  2  0  0  0  0
  3  4  1  0  0  0  0
  4  9  1  0  0  0  0
  5 10  1  0  0  0  0
  5  4  2  0  0  0  0
  6  5  1  0  0  0  0
  7  1  1  0  0  0  0
 11 12  3  0  0  0  0
 13 19  1  0  0  0  0
 13 14  2  0  0  0  0
 14 20  1  0  0  0  0
 15 14  1  0  0  0  0
 15 27  1  0  0  0  0
 16 15  2  0  0  0  0
 17 18  2  0  0  0  0
 17 16  1  0  0  0  0
 18 13  1  0  0  0  0
 21 16  1  0  0  0  0
 22 17  1  0  0  0  0
 23 18  1  0  0  0  0
 23 26  1  0  0  0  0
 24 23  2  0  0  0  0
 25 23  2  0  0  0  0
 26  8  1  0  0  0  0
 27 28  1  0  0  0  0
 27 30  1  0  0  0  0
 29 27  1  0  0  0  0
 31  6  1  0  0  0  0
M  RAD  2   2   2   3   2
M  END
