Coordinates from ORCA-job Ph-N2-OTs-B3LYPG-aug-cc-pVDZ-scan-d09-49-n400
 OpenBabel07022015303D

 31 32  0  0  1  0  0  0  0  0999 V2000
    1.9110    0.2896   -2.3605 C   0  0  0  0  0  0  0  0  0  0  0  0
    1.7382    1.2651   -3.4791 C   0  0  1  0  0  0  0  0  0  0  0  0
    0.2917    1.8977   -3.5561 C   0  0  0  0  0  0  0  0  0  0  0  0
   -0.5023    1.8291   -2.2869 C   0  0  0  0  0  0  0  0  0  0  0  0
   -0.1422    1.0407   -1.2560 C   0  0  0  0  0  0  0  0  0  0  0  0
    1.0522    0.2109   -1.3258 C   0  0  0  0  0  0  0  0  0  0  0  0
    2.8018   -0.3378   -2.4044 H   0  0  0  0  0  0  0  0  0  0  0  0
    1.9314    0.8216   -4.4633 H   0  0  0  0  0  0  0  0  0  0  0  0
   -1.4016    2.4460   -2.2749 H   0  0  0  0  0  0  0  0  0  0  0  0
   -0.7634    1.0037   -0.3610 H   0  0  0  0  0  0  0  0  0  0  0  0
   -0.0090    2.3003   -4.3507 N   0  0  0  0  0  0  0  0  0  0  0  0
   -0.3865    2.8041   -5.3477 N   0  0  0  0  0  0  0  0  0  0  0  0
    5.3906    0.6157   -4.8565 C   0  0  0  0  0  0  0  0  0  0  0  0
    6.5438   -0.1193   -4.5837 C   0  0  0  0  0  0  0  0  0  0  0  0
    7.5020    0.3457   -3.6662 C   0  0  0  0  0  0  0  0  0  0  0  0
    7.2746    1.5738   -3.0254 C   0  0  0  0  0  0  0  0  0  0  0  0
    6.1255    2.3256   -3.2812 C   0  0  0  0  0  0  0  0  0  0  0  0
    5.1953    1.8314   -4.1954 C   0  0  0  0  0  0  0  0  0  0  0  0
    4.6615    0.2723   -5.5877 H   0  0  0  0  0  0  0  0  0  0  0  0
    6.7037   -1.0661   -5.1013 H   0  0  0  0  0  0  0  0  0  0  0  0
    8.0146    1.9536   -2.3202 H   0  0  0  0  0  0  0  0  0  0  0  0
    5.9660    3.2860   -2.7950 H   0  0  0  0  0  0  0  0  0  0  0  0
    3.7182    2.7926   -4.5484 S   0  0  0  0  0  0  0  0  0  0  0  0
    3.1256    2.3003   -5.8140 O   0  0  0  0  0  0  0  0  0  0  0  0
    3.9934    4.2192   -4.3038 O   0  0  0  0  0  0  0  0  0  0  0  0
    2.6870    2.3619   -3.2840 O   0  0  0  0  0  0  0  0  0  0  0  0
    8.7493   -0.4584   -3.3923 C   0  0  0  0  0  0  0  0  0  0  0  0
    8.4984   -1.4595   -3.0134 H   0  0  0  0  0  0  0  0  0  0  0  0
    9.3370   -0.5978   -4.3113 H   0  0  0  0  0  0  0  0  0  0  0  0
    9.3888    0.0363   -2.6509 H   0  0  0  0  0  0  0  0  0  0  0  0
    1.2429   -0.4933   -0.5150 H   0  0  0  0  0  0  0  0  0  0  0  0
  1  6  1  0  0  0  0
  2  8  1  6  0  0  0
  2 26  1  0  0  0  0
  2  1  1  0  0  0  0
  3  2  1  0  0  0  0
  3  4  2  0  0  0  0
  4  9  1  0  0  0  0
  4  5  1  0  0  0  0
  5 10  1  0  0  0  0
  6  5  2  0  0  0  0
  6 31  1  0  0  0  0
  7  1  1  0  0  0  0
 11  3  1  0  0  0  0
 12 11  1  0  0  0  0
 13 14  2  0  0  0  0
 13 18  1  0  0  0  0
 14 15  1  0  0  0  0
 15 27  1  0  0  0  0
 15 16  2  0  0  0  0
 16 21  1  0  0  0  0
 17 16  1  0  0  0  0
 17 22  1  0  0  0  0
 18 17  2  0  0  0  0
 19 13  1  0  0  0  0
 20 14  1  0  0  0  0
 23 25  2  0  0  0  0
 23 18  1  0  0  0  0
 23 26  1  0  0  0  0
 24 23  2  0  0  0  0
 27 28  1  0  0  0  0
 27 30  1  0  0  0  0
 29 27  1  0  0  0  0
M  RAD  3   1   2  11   2  12   3
M  END
