Coordinates from ORCA-job Ph-N2-OTs-B3LYPG-aug-cc-pVDZ-scan-d09-49-n400
 OpenBabel07022015303D

 31 32  0  0  1  0  0  0  0  0999 V2000
    1.9374    0.4915   -1.8640 C   0  0  0  0  0  0  0  0  0  0  0  0
    1.8789    1.1591   -3.1931 C   0  0  1  0  0  0  0  0  0  0  0  0
    0.4851    1.5286   -3.4915 C   0  0  1  0  0  0  0  0  0  0  0  0
   -0.5569    1.6813   -2.5374 C   0  0  0  0  0  0  0  0  0  0  0  0
   -0.3273    1.2379   -1.2636 C   0  0  0  0  0  0  0  0  0  0  0  0
    0.9236    0.5871   -0.9629 C   0  0  0  0  0  0  0  0  0  0  0  0
    2.8554   -0.0410   -1.6202 H   0  0  0  0  0  0  0  0  0  0  0  0
    2.3650    0.5948   -3.9919 H   0  0  0  0  0  0  0  0  0  0  0  0
   -1.5030    2.1317   -2.8326 H   0  0  0  0  0  0  0  0  0  0  0  0
   -1.0947    1.3383   -0.4984 H   0  0  0  0  0  0  0  0  0  0  0  0
    0.1613    1.8542   -4.8895 N   0  0  0  0  0  0  0  0  0  0  0  0
   -0.0971    2.1016   -5.9569 N   0  0  0  0  0  0  0  0  0  0  0  0
    5.4116    0.8405   -5.0278 C   0  0  0  0  0  0  0  0  0  0  0  0
    6.5616    0.0638   -4.8744 C   0  0  0  0  0  0  0  0  0  0  0  0
    7.4802    0.3207   -3.8439 C   0  0  0  0  0  0  0  0  0  0  0  0
    7.2228    1.3871   -2.9669 C   0  0  0  0  0  0  0  0  0  0  0  0
    6.0799    2.1786   -3.1035 C   0  0  0  0  0  0  0  0  0  0  0  0
    5.1820    1.8879   -4.1328 C   0  0  0  0  0  0  0  0  0  0  0  0
    4.7072    0.6569   -5.8365 H   0  0  0  0  0  0  0  0  0  0  0  0
    6.7503   -0.7504   -5.5759 H   0  0  0  0  0  0  0  0  0  0  0  0
    7.9312    1.6057   -2.1669 H   0  0  0  0  0  0  0  0  0  0  0  0
    5.8937    3.0129   -2.4297 H   0  0  0  0  0  0  0  0  0  0  0  0
    3.7005    2.8984   -4.3178 S   0  0  0  0  0  0  0  0  0  0  0  0
    3.0236    2.4869   -5.5795 O   0  0  0  0  0  0  0  0  0  0  0  0
    4.0459    4.3129   -4.0666 O   0  0  0  0  0  0  0  0  0  0  0  0
    2.7649    2.4447   -3.0446 O   0  0  0  0  0  0  0  0  0  0  0  0
    8.7123   -0.5389   -3.6924 C   0  0  0  0  0  0  0  0  0  0  0  0
    8.4407   -1.5766   -3.4489 H   0  0  0  0  0  0  0  0  0  0  0  0
    9.2926   -0.5652   -4.6259 H   0  0  0  0  0  0  0  0  0  0  0  0
    9.3657   -0.1654   -2.8940 H   0  0  0  0  0  0  0  0  0  0  0  0
    1.0449    0.1251    0.0182 H   0  0  0  0  0  0  0  0  0  0  0  0
  1  7  1  0  0  0  0
  1  6  2  0  0  0  0
  2  8  1  6  0  0  0
  2 26  1  0  0  0  0
  2  1  1  0  0  0  0
  3 11  1  1  0  0  0
  3  2  1  0  0  0  0
  3  4  1  0  0  0  0
  4  5  2  0  0  0  0
  5  6  1  0  0  0  0
  5 10  1  0  0  0  0
  6 31  1  0  0  0  0
  9  4  1  0  0  0  0
 12 11  1  0  0  0  0
 13 14  2  0  0  0  0
 13 18  1  0  0  0  0
 14 15  1  0  0  0  0
 15 27  1  0  0  0  0
 15 16  2  0  0  0  0
 16 21  1  0  0  0  0
 17 16  1  0  0  0  0
 17 22  1  0  0  0  0
 18 17  2  0  0  0  0
 19 13  1  0  0  0  0
 20 14  1  0  0  0  0
 23 18  1  0  0  0  0
 23 25  2  0  0  0  0
 23 26  1  0  0  0  0
 24 23  2  0  0  0  0
 27 28  1  0  0  0  0
 27 30  1  0  0  0  0
 29 27  1  0  0  0  0
M  RAD  3   3   2  11   2  12   3
M  END
