Coordinates from ORCA-job Ph-N2-OTs-B3LYPG-aug-cc-pVDZ-scan-d09-49-n400
 OpenBabel07022015303D

 31 30  0  0  0  0  0  0  0  0999 V2000
   -0.3268    0.1629   -2.9840 C   0  0  0  0  0  0  0  0  0  0  0  0
    0.6028    1.0443   -2.3875 C   0  0  0  0  0  0  0  0  0  0  0  0
    0.1244    2.0001   -1.7142 C   0  0  0  0  0  0  0  0  0  0  0  0
   -1.1197    2.4629   -1.3793 C   0  0  0  0  0  0  0  0  0  0  0  0
   -2.0659    1.5874   -1.9681 C   0  0  0  0  0  0  0  0  0  0  0  0
   -1.6784    0.4775   -2.7436 C   0  0  0  0  0  0  0  0  0  0  0  0
   -0.0377   -0.6920   -3.5946 H   0  0  0  0  0  0  0  0  0  0  0  0
    2.5235    0.8173   -2.7794 H   0  0  0  0  0  0  0  0  0  0  0  0
   -1.3824    3.3311   -0.7818 H   0  0  0  0  0  0  0  0  0  0  0  0
   -3.1260    1.7926   -1.8090 H   0  0  0  0  0  0  0  0  0  0  0  0
    1.6963    3.6505   -0.6297 N   0  0  0  0  0  0  0  0  0  0  0  0
    2.7670    3.8770   -0.4823 N   0  0  0  0  0  0  0  0  0  0  0  0
    6.0939   -0.1065   -4.8731 C   0  0  0  0  0  0  0  0  0  0  0  0
    7.4611   -0.3804   -4.8894 C   0  0  0  0  0  0  0  0  0  0  0  0
    8.3955    0.5393   -4.3817 C   0  0  0  0  0  0  0  0  0  0  0  0
    7.9237    1.7461   -3.8434 C   0  0  0  0  0  0  0  0  0  0  0  0
    6.5584    2.0389   -3.8136 C   0  0  0  0  0  0  0  0  0  0  0  0
    5.6613    1.1062   -4.3327 C   0  0  0  0  0  0  0  0  0  0  0  0
    5.3741   -0.8133   -5.2822 H   0  0  0  0  0  0  0  0  0  0  0  0
    7.8128   -1.3238   -5.3089 H   0  0  0  0  0  0  0  0  0  0  0  0
    8.6317    2.4740   -3.4448 H   0  0  0  0  0  0  0  0  0  0  0  0
    6.1875    2.9778   -3.4073 H   0  0  0  0  0  0  0  0  0  0  0  0
    3.9062    1.4902   -4.3254 S   0  0  0  0  0  0  0  0  0  0  0  0
    3.2421    0.8369   -5.4790 O   0  0  0  0  0  0  0  0  0  0  0  0
    3.7135    2.9425   -4.0897 O   0  0  0  0  0  0  0  0  0  0  0  0
    3.4922    0.6702   -2.9478 O   0  0  0  0  0  0  0  0  0  0  0  0
    9.8741    0.2428   -4.4463 C   0  0  0  0  0  0  0  0  0  0  0  0
   10.0757   -0.8217   -4.2668 H   0  0  0  0  0  0  0  0  0  0  0  0
   10.2769    0.4879   -5.4412 H   0  0  0  0  0  0  0  0  0  0  0  0
   10.4342    0.8317   -3.7093 H   0  0  0  0  0  0  0  0  0  0  0  0
   -2.4524   -0.1590   -3.1759 H   0  0  0  0  0  0  0  0  0  0  0  0
  1  6  2  0  0  0  0
  1  2  1  0  0  0  0
  2  3  2  0  0  0  0
  3  4  1  0  0  0  0
  4  9  1  0  0  0  0
  5 10  1  0  0  0  0
  5  4  2  0  0  0  0
  6  5  1  0  0  0  0
  7  1  1  0  0  0  0
 11 12  3  0  0  0  0
 13 18  1  0  0  0  0
 14 13  2  0  0  0  0
 14 15  1  0  0  0  0
 15 16  2  0  0  0  0
 16 17  1  0  0  0  0
 16 21  1  0  0  0  0
 17 22  1  0  0  0  0
 18 23  1  0  0  0  0
 18 17  2  0  0  0  0
 19 13  1  0  0  0  0
 20 14  1  0  0  0  0
 23 25  2  0  0  0  0
 23 26  1  0  0  0  0
 24 23  2  0  0  0  0
 26  8  1  0  0  0  0
 27 15  1  0  0  0  0
 27 28  1  0  0  0  0
 27 30  1  0  0  0  0
 29 27  1  0  0  0  0
 31  6  1  0  0  0  0
M  RAD  2   2   2   3   2
M  END
