Coordinates from ORCA-job Ph-N2-OTs-B3LYPG-aug-cc-pVDZ-scan-d09-49-n400
 OpenBabel07022015303D

 31 31  0  0  0  0  0  0  0  0999 V2000
   -0.1468   -0.1948   -2.2798 C   0  0  0  0  0  0  0  0  0  0  0  0
    0.9017    0.7315   -2.2146 C   0  0  0  0  0  0  0  0  0  0  0  0
    0.5568    2.0278   -2.5404 C   0  0  0  0  0  0  0  0  0  0  0  0
   -0.6912    2.4942   -2.9334 C   0  0  0  0  0  0  0  0  0  0  0  0
   -1.7027    1.5322   -3.0053 C   0  0  0  0  0  0  0  0  0  0  0  0
   -1.4290    0.1983   -2.6789 C   0  0  0  0  0  0  0  0  0  0  0  0
    0.0544   -1.2338   -2.0221 H   0  0  0  0  0  0  0  0  0  0  0  0
    1.9226    0.4588   -1.9302 H   0  0  0  0  0  0  0  0  0  0  0  0
   -0.8668    3.5389   -3.1782 H   0  0  0  0  0  0  0  0  0  0  0  0
   -2.7005    1.8326   -3.3224 H   0  0  0  0  0  0  0  0  0  0  0  0
    1.6711    3.1603   -2.4430 N   0  0  0  0  0  0  0  0  0  0  0  0
    1.9126    4.2301   -2.2366 N   0  0  0  0  0  0  0  0  0  0  0  0
    5.9011   -0.0127   -3.8112 C   0  0  0  0  0  0  0  0  0  0  0  0
    7.0153   -0.3053   -4.5962 C   0  0  0  0  0  0  0  0  0  0  0  0
    8.0496    0.6316   -4.7702 C   0  0  0  0  0  0  0  0  0  0  0  0
    7.9374    1.8732   -4.1294 C   0  0  0  0  0  0  0  0  0  0  0  0
    6.8234    2.1857   -3.3416 C   0  0  0  0  0  0  0  0  0  0  0  0
    5.8145    1.2368   -3.1907 C   0  0  0  0  0  0  0  0  0  0  0  0
    5.1098   -0.7458   -3.6632 H   0  0  0  0  0  0  0  0  0  0  0  0
    7.0860   -1.2810   -5.0801 H   0  0  0  0  0  0  0  0  0  0  0  0
    8.7341    2.6108   -4.2409 H   0  0  0  0  0  0  0  0  0  0  0  0
    6.7404    3.1479   -2.8392 H   0  0  0  0  0  0  0  0  0  0  0  0
    4.3484    1.6362   -2.2105 S   0  0  0  0  0  0  0  0  0  0  0  0
    3.2971    2.0124   -3.2992 O   0  0  0  0  0  0  0  0  0  0  0  0
    4.6699    2.8062   -1.3348 O   0  0  0  0  0  0  0  0  0  0  0  0
    3.9256    0.3746   -1.5019 O   0  0  0  0  0  0  0  0  0  0  0  0
    9.2478    0.2928   -5.6242 C   0  0  0  0  0  0  0  0  0  0  0  0
    9.7404   -0.6233   -5.2670 H   0  0  0  0  0  0  0  0  0  0  0  0
    8.9527    0.1159   -6.6692 H   0  0  0  0  0  0  0  0  0  0  0  0
    9.9904    1.1012   -5.6161 H   0  0  0  0  0  0  0  0  0  0  0  0
   -2.2267   -0.5423   -2.7415 H   0  0  0  0  0  0  0  0  0  0  0  0
  1  2  1  0  0  0  0
  1  7  1  0  0  0  0
  2  8  1  0  0  0  0
  3 11  1  0  0  0  0
  3  2  2  0  0  0  0
  4  3  1  0  0  0  0
  5  4  2  0  0  0  0
  5  6  1  0  0  0  0
  6  1  2  0  0  0  0
  9  4  1  0  0  0  0
 10  5  1  0  0  0  0
 11 12  2  0  0  0  0
 13 19  1  0  0  0  0
 13 18  2  0  0  0  0
 14 13  1  0  0  0  0
 15 14  2  0  0  0  0
 15 16  1  0  0  0  0
 16 17  2  0  0  0  0
 17 18  1  0  0  0  0
 17 22  1  0  0  0  0
 18 23  1  0  0  0  0
 20 14  1  0  0  0  0
 21 16  1  0  0  0  0
 23 26  2  0  0  0  0
 23 25  1  0  0  0  0
 24 23  2  0  0  0  0
 27 30  1  0  0  0  0
 27 28  1  0  0  0  0
 27 15  1  0  0  0  0
 29 27  1  0  0  0  0
 31  6  1  0  0  0  0
M  RAD  2  12   2  25   2
M  END
