Coordinates from ORCA-job Ph-N2-OTs-B3LYPG-aug-cc-pVDZ-scan-d09-49-n400
 OpenBabel07022015303D

 31 31  0  0  0  0  0  0  0  0999 V2000
   -0.1195   -0.2047   -2.2971 C   0  0  0  0  0  0  0  0  0  0  0  0
    0.9068    0.7553   -2.2405 C   0  0  0  0  0  0  0  0  0  0  0  0
    0.4759    2.0148   -2.5467 C   0  0  0  0  0  0  0  0  0  0  0  0
   -0.7680    2.4816   -2.9083 C   0  0  0  0  0  0  0  0  0  0  0  0
   -1.7486    1.4797   -2.9655 C   0  0  0  0  0  0  0  0  0  0  0  0
   -1.4223    0.1528   -2.6606 C   0  0  0  0  0  0  0  0  0  0  0  0
    0.1248   -1.2389   -2.0570 H   0  0  0  0  0  0  0  0  0  0  0  0
    1.9489    0.5161   -1.9834 H   0  0  0  0  0  0  0  0  0  0  0  0
   -0.9762    3.5231   -3.1365 H   0  0  0  0  0  0  0  0  0  0  0  0
   -2.7629    1.7523   -3.2553 H   0  0  0  0  0  0  0  0  0  0  0  0
    1.6822    3.2961   -2.4549 N   0  0  0  0  0  0  0  0  0  0  0  0
    1.8867    4.3693   -2.2474 N   0  0  0  0  0  0  0  0  0  0  0  0
    5.8896    0.0044   -3.8407 C   0  0  0  0  0  0  0  0  0  0  0  0
    7.0073   -0.3029   -4.6155 C   0  0  0  0  0  0  0  0  0  0  0  0
    8.0650    0.6120   -4.7633 C   0  0  0  0  0  0  0  0  0  0  0  0
    7.9738    1.8462   -4.1049 C   0  0  0  0  0  0  0  0  0  0  0  0
    6.8573    2.1726   -3.3261 C   0  0  0  0  0  0  0  0  0  0  0  0
    5.8241    1.2459   -3.2022 C   0  0  0  0  0  0  0  0  0  0  0  0
    5.0795   -0.7117   -3.7136 H   0  0  0  0  0  0  0  0  0  0  0  0
    7.0623   -1.2732   -5.1123 H   0  0  0  0  0  0  0  0  0  0  0  0
    8.7882    2.5670   -4.1962 H   0  0  0  0  0  0  0  0  0  0  0  0
    6.7912    3.1286   -2.8094 H   0  0  0  0  0  0  0  0  0  0  0  0
    4.3519    1.6709   -2.2386 S   0  0  0  0  0  0  0  0  0  0  0  0
    3.3425    2.1361   -3.3249 O   0  0  0  0  0  0  0  0  0  0  0  0
    4.7090    2.7792   -1.3000 O   0  0  0  0  0  0  0  0  0  0  0  0
    3.8630    0.3941   -1.5943 O   0  0  0  0  0  0  0  0  0  0  0  0
    9.2654    0.2583   -5.6081 C   0  0  0  0  0  0  0  0  0  0  0  0
    9.7324   -0.6742   -5.2590 H   0  0  0  0  0  0  0  0  0  0  0  0
    8.9793    0.1038   -6.6592 H   0  0  0  0  0  0  0  0  0  0  0  0
   10.0266    1.0488   -5.5785 H   0  0  0  0  0  0  0  0  0  0  0  0
   -2.1969   -0.6125   -2.7118 H   0  0  0  0  0  0  0  0  0  0  0  0
  1  2  1  0  0  0  0
  1  7  1  0  0  0  0
  2  8  1  0  0  0  0
  3 11  1  0  0  0  0
  3  2  2  0  0  0  0
  4  3  1  0  0  0  0
  5  4  2  0  0  0  0
  5  6  1  0  0  0  0
  6  1  2  0  0  0  0
  9  4  1  0  0  0  0
 10  5  1  0  0  0  0
 11 12  2  0  0  0  0
 13 19  1  0  0  0  0
 13 18  2  0  0  0  0
 14 13  1  0  0  0  0
 15 14  2  0  0  0  0
 15 16  1  0  0  0  0
 16 17  2  0  0  0  0
 17 18  1  0  0  0  0
 17 22  1  0  0  0  0
 18 23  1  0  0  0  0
 20 14  1  0  0  0  0
 21 16  1  0  0  0  0
 23 26  2  0  0  0  0
 23 25  1  0  0  0  0
 24 23  2  0  0  0  0
 27 30  1  0  0  0  0
 27 28  1  0  0  0  0
 27 15  1  0  0  0  0
 29 27  1  0  0  0  0
 31  6  1  0  0  0  0
M  RAD  2  12   2  25   2
M  END
