Coordinates from ORCA-job Ph-N2-OTs-B3LYPG-aug-cc-pVDZ-scan-d09-49-n400
 OpenBabel07022015303D

 31 30  0  0  0  0  0  0  0  0999 V2000
    0.5416    0.8590   -3.6311 C   0  0  0  0  0  0  0  0  0  0  0  0
    1.3085    1.7257   -2.8332 C   0  0  0  0  0  0  0  0  0  0  0  0
    0.9855    1.9517   -1.6394 C   0  0  0  0  0  0  0  0  0  0  0  0
   -0.0451    1.5269   -0.8337 C   0  0  0  0  0  0  0  0  0  0  0  0
   -0.8546    0.6487   -1.5984 C   0  0  0  0  0  0  0  0  0  0  0  0
   -0.5699    0.3314   -2.9406 C   0  0  0  0  0  0  0  0  0  0  0  0
    0.7660    0.6169   -4.6678 H   0  0  0  0  0  0  0  0  0  0  0  0
    2.8135    2.6537   -3.9123 H   0  0  0  0  0  0  0  0  0  0  0  0
   -0.2443    1.7816    0.2036 H   0  0  0  0  0  0  0  0  0  0  0  0
   -1.7284    0.2065   -1.1165 H   0  0  0  0  0  0  0  0  0  0  0  0
    0.3151    2.9122    2.7044 N   0  0  0  0  0  0  0  0  0  0  0  0
    0.6714    3.4105    3.6229 N   0  0  0  0  0  0  0  0  0  0  0  0
    5.4000    0.1766   -4.6923 C   0  0  0  0  0  0  0  0  0  0  0  0
    6.5814   -0.4144   -4.2351 C   0  0  0  0  0  0  0  0  0  0  0  0
    7.7944    0.2884   -4.2401 C   0  0  0  0  0  0  0  0  0  0  0  0
    7.8038    1.6088   -4.7253 C   0  0  0  0  0  0  0  0  0  0  0  0
    6.6383    2.2161   -5.1892 C   0  0  0  0  0  0  0  0  0  0  0  0
    5.4455    1.4885   -5.1625 C   0  0  0  0  0  0  0  0  0  0  0  0
    4.4614   -0.3742   -4.7014 H   0  0  0  0  0  0  0  0  0  0  0  0
    6.5565   -1.4426   -3.8726 H   0  0  0  0  0  0  0  0  0  0  0  0
    8.7404    2.1677   -4.7432 H   0  0  0  0  0  0  0  0  0  0  0  0
    6.6492    3.2325   -5.5782 H   0  0  0  0  0  0  0  0  0  0  0  0
    3.9343    2.2716   -5.7469 S   0  0  0  0  0  0  0  0  0  0  0  0
    2.9050    1.2248   -5.9703 O   0  0  0  0  0  0  0  0  0  0  0  0
    4.2786    3.2579   -6.7881 O   0  0  0  0  0  0  0  0  0  0  0  0
    3.4633    3.1731   -4.4406 O   0  0  0  0  0  0  0  0  0  0  0  0
    9.0656   -0.3459   -3.7310 C   0  0  0  0  0  0  0  0  0  0  0  0
    8.9384   -1.4230   -3.5655 H   0  0  0  0  0  0  0  0  0  0  0  0
    9.8937   -0.2002   -4.4390 H   0  0  0  0  0  0  0  0  0  0  0  0
    9.3710    0.1066   -2.7759 H   0  0  0  0  0  0  0  0  0  0  0  0
   -1.2406   -0.3461   -3.4727 H   0  0  0  0  0  0  0  0  0  0  0  0
  1  6  2  0  0  0  0
  1  2  1  0  0  0  0
  2  3  2  0  0  0  0
  3  4  1  0  0  0  0
  4  9  1  0  0  0  0
  5 10  1  0  0  0  0
  5  4  2  0  0  0  0
  6  5  1  0  0  0  0
  7  1  1  0  0  0  0
 11 12  3  0  0  0  0
 13 14  2  0  0  0  0
 14 20  1  0  0  0  0
 15 14  1  0  0  0  0
 15 27  1  0  0  0  0
 16 15  2  0  0  0  0
 17 18  2  0  0  0  0
 17 16  1  0  0  0  0
 18 13  1  0  0  0  0
 19 13  1  0  0  0  0
 21 16  1  0  0  0  0
 22 17  1  0  0  0  0
 23 18  1  0  0  0  0
 23 26  1  0  0  0  0
 24 23  2  0  0  0  0
 25 23  2  0  0  0  0
 26  8  1  0  0  0  0
 27 28  1  0  0  0  0
 27 30  1  0  0  0  0
 29 27  1  0  0  0  0
 31  6  1  0  0  0  0
M  RAD  2   2   2   3   2
M  END
