Coordinates from ORCA-job Ph-N2-OTs-B3LYPG-aug-cc-pVDZ-scan-d09-49-n400
 OpenBabel07022015303D

 31 30  0  0  0  0  0  0  0  0999 V2000
    0.3746    0.8087   -3.6935 C   0  0  0  0  0  0  0  0  0  0  0  0
    1.1636    1.5214   -2.7734 C   0  0  0  0  0  0  0  0  0  0  0  0
    0.7951    1.6480   -1.5781 C   0  0  0  0  0  0  0  0  0  0  0  0
   -0.3164    1.2463   -0.8751 C   0  0  0  0  0  0  0  0  0  0  0  0
   -1.1521    0.5264   -1.7665 C   0  0  0  0  0  0  0  0  0  0  0  0
   -0.8172    0.3196   -3.1189 C   0  0  0  0  0  0  0  0  0  0  0  0
    0.6362    0.6536   -4.7382 H   0  0  0  0  0  0  0  0  0  0  0  0
    2.6842    2.5533   -3.7151 H   0  0  0  0  0  0  0  0  0  0  0  0
   -0.5547    1.4129    0.1716 H   0  0  0  0  0  0  0  0  0  0  0  0
   -2.0877    0.1204   -1.3777 H   0  0  0  0  0  0  0  0  0  0  0  0
    1.7519    3.0182    1.6520 N   0  0  0  0  0  0  0  0  0  0  0  0
    2.6324    3.5504    2.0524 N   0  0  0  0  0  0  0  0  0  0  0  0
    5.3585    0.2315   -4.5390 C   0  0  0  0  0  0  0  0  0  0  0  0
    6.5416   -0.3648   -4.0937 C   0  0  0  0  0  0  0  0  0  0  0  0
    7.7490    0.3477   -4.0672 C   0  0  0  0  0  0  0  0  0  0  0  0
    7.7503    1.6837   -4.5068 C   0  0  0  0  0  0  0  0  0  0  0  0
    6.5824    2.2974   -4.9565 C   0  0  0  0  0  0  0  0  0  0  0  0
    5.3960    1.5595   -4.9628 C   0  0  0  0  0  0  0  0  0  0  0  0
    4.4255   -0.3278   -4.5745 H   0  0  0  0  0  0  0  0  0  0  0  0
    6.5227   -1.4049   -3.7664 H   0  0  0  0  0  0  0  0  0  0  0  0
    8.6826    2.2502   -4.5001 H   0  0  0  0  0  0  0  0  0  0  0  0
    6.5861    3.3264   -5.3110 H   0  0  0  0  0  0  0  0  0  0  0  0
    3.8814    2.3514   -5.5256 S   0  0  0  0  0  0  0  0  0  0  0  0
    2.8852    1.3034   -5.8644 O   0  0  0  0  0  0  0  0  0  0  0  0
    4.2292    3.4283   -6.4718 O   0  0  0  0  0  0  0  0  0  0  0  0
    3.3499    3.1262   -4.1624 O   0  0  0  0  0  0  0  0  0  0  0  0
    9.0230   -0.2939   -3.5744 C   0  0  0  0  0  0  0  0  0  0  0  0
    8.8976   -1.3736   -3.4260 H   0  0  0  0  0  0  0  0  0  0  0  0
    9.8474   -0.1360   -4.2842 H   0  0  0  0  0  0  0  0  0  0  0  0
    9.3330    0.1436   -2.6138 H   0  0  0  0  0  0  0  0  0  0  0  0
   -1.5119   -0.2368   -3.7512 H   0  0  0  0  0  0  0  0  0  0  0  0
  1  6  2  0  0  0  0
  1  2  1  0  0  0  0
  2  3  2  0  0  0  0
  3  4  1  0  0  0  0
  4  9  1  0  0  0  0
  5 10  1  0  0  0  0
  5  4  2  0  0  0  0
  6  5  1  0  0  0  0
  7  1  1  0  0  0  0
 11 12  3  0  0  0  0
 13 14  2  0  0  0  0
 14 15  1  0  0  0  0
 14 20  1  0  0  0  0
 15 27  1  0  0  0  0
 16 21  1  0  0  0  0
 16 15  2  0  0  0  0
 17 16  1  0  0  0  0
 18 17  2  0  0  0  0
 18 13  1  0  0  0  0
 19 13  1  0  0  0  0
 22 17  1  0  0  0  0
 23 18  1  0  0  0  0
 23 26  1  0  0  0  0
 24 23  2  0  0  0  0
 25 23  2  0  0  0  0
 26  8  1  0  0  0  0
 27 28  1  0  0  0  0
 27 30  1  0  0  0  0
 29 27  1  0  0  0  0
 31  6  1  0  0  0  0
M  RAD  2   2   2   3   2
M  END
