Coordinates from ORCA-job Ph-N2-OTs-B3LYPG-aug-cc-pVDZ-scan-d09-49-n400
 OpenBabel07022015303D

 31 31  0  0  0  0  0  0  0  0999 V2000
   -0.1377   -0.1995   -2.2891 C   0  0  0  0  0  0  0  0  0  0  0  0
    0.9038    0.7389   -2.2280 C   0  0  0  0  0  0  0  0  0  0  0  0
    0.5238    2.0200   -2.5463 C   0  0  0  0  0  0  0  0  0  0  0  0
   -0.7204    2.4904   -2.9257 C   0  0  0  0  0  0  0  0  0  0  0  0
   -1.7213    1.5133   -2.9905 C   0  0  0  0  0  0  0  0  0  0  0  0
   -1.4281    0.1817   -2.6728 C   0  0  0  0  0  0  0  0  0  0  0  0
    0.0792   -1.2371   -2.0383 H   0  0  0  0  0  0  0  0  0  0  0  0
    1.9329    0.4788   -1.9545 H   0  0  0  0  0  0  0  0  0  0  0  0
   -0.9073    3.5342   -3.1636 H   0  0  0  0  0  0  0  0  0  0  0  0
   -2.7258    1.8041   -3.2958 H   0  0  0  0  0  0  0  0  0  0  0  0
    1.6874    3.2169   -2.4519 N   0  0  0  0  0  0  0  0  0  0  0  0
    1.9047    4.2900   -2.2446 N   0  0  0  0  0  0  0  0  0  0  0  0
    5.8998   -0.0101   -3.8155 C   0  0  0  0  0  0  0  0  0  0  0  0
    7.0144   -0.3067   -4.5987 C   0  0  0  0  0  0  0  0  0  0  0  0
    8.0541    0.6249   -4.7679 C   0  0  0  0  0  0  0  0  0  0  0  0
    7.9475    1.8653   -4.1235 C   0  0  0  0  0  0  0  0  0  0  0  0
    6.8338    2.1814   -3.3370 C   0  0  0  0  0  0  0  0  0  0  0  0
    5.8191    1.2378   -3.1911 C   0  0  0  0  0  0  0  0  0  0  0  0
    5.1039   -0.7388   -3.6713 H   0  0  0  0  0  0  0  0  0  0  0  0
    7.0809   -1.2814   -5.0852 H   0  0  0  0  0  0  0  0  0  0  0  0
    8.7484    2.5988   -4.2313 H   0  0  0  0  0  0  0  0  0  0  0  0
    6.7558    3.1424   -2.8313 H   0  0  0  0  0  0  0  0  0  0  0  0
    4.3520    1.6455   -2.2151 S   0  0  0  0  0  0  0  0  0  0  0  0
    3.3199    2.0676   -3.3039 O   0  0  0  0  0  0  0  0  0  0  0  0
    4.6900    2.7853   -1.3076 O   0  0  0  0  0  0  0  0  0  0  0  0
    3.8978    0.3744   -1.5412 O   0  0  0  0  0  0  0  0  0  0  0  0
    9.2521    0.2821   -5.6205 C   0  0  0  0  0  0  0  0  0  0  0  0
    9.7393   -0.6374   -5.2647 H   0  0  0  0  0  0  0  0  0  0  0  0
    8.9582    0.1094   -6.6665 H   0  0  0  0  0  0  0  0  0  0  0  0
    9.9990    1.0866   -5.6088 H   0  0  0  0  0  0  0  0  0  0  0  0
   -2.2179   -0.5677   -2.7299 H   0  0  0  0  0  0  0  0  0  0  0  0
  1  2  1  0  0  0  0
  1  7  1  0  0  0  0
  2  8  1  0  0  0  0
  3 11  1  0  0  0  0
  3  2  2  0  0  0  0
  4  3  1  0  0  0  0
  5  4  2  0  0  0  0
  5  6  1  0  0  0  0
  6  1  2  0  0  0  0
  9  4  1  0  0  0  0
 10  5  1  0  0  0  0
 11 12  2  0  0  0  0
 13 19  1  0  0  0  0
 13 18  2  0  0  0  0
 14 13  1  0  0  0  0
 15 14  2  0  0  0  0
 15 16  1  0  0  0  0
 16 17  2  0  0  0  0
 17 18  1  0  0  0  0
 17 22  1  0  0  0  0
 18 23  1  0  0  0  0
 20 14  1  0  0  0  0
 21 16  1  0  0  0  0
 23 26  2  0  0  0  0
 23 25  1  0  0  0  0
 24 23  2  0  0  0  0
 27 30  1  0  0  0  0
 27 28  1  0  0  0  0
 27 15  1  0  0  0  0
 29 27  1  0  0  0  0
 31  6  1  0  0  0  0
M  RAD  2  12   2  25   2
M  END
