Coordinates from ORCA-job Ph-N2-OTs-B3LYPG-aug-cc-pVDZ-scan-d09-49-n400
 OpenBabel07022015303D

 31 30  0  0  0  0  0  0  0  0999 V2000
    0.0993   -0.2220   -2.4389 C   0  0  0  0  0  0  0  0  0  0  0  0
    1.0031    0.8574   -2.2548 C   0  0  0  0  0  0  0  0  0  0  0  0
    0.3612    2.0094   -2.4731 C   0  0  0  0  0  0  0  0  0  0  0  0
   -0.8888    2.4146   -2.8305 C   0  0  0  0  0  0  0  0  0  0  0  0
   -1.7261    1.2924   -3.0068 C   0  0  0  0  0  0  0  0  0  0  0  0
   -1.2314   -0.0030   -2.8095 C   0  0  0  0  0  0  0  0  0  0  0  0
    0.4841   -1.2307   -2.2897 H   0  0  0  0  0  0  0  0  0  0  0  0
    2.0975    0.7215   -1.9946 H   0  0  0  0  0  0  0  0  0  0  0  0
   -1.2158    3.4395   -2.9722 H   0  0  0  0  0  0  0  0  0  0  0  0
   -2.7618    1.4630   -3.3009 H   0  0  0  0  0  0  0  0  0  0  0  0
    1.5209    3.6508   -2.1676 N   0  0  0  0  0  0  0  0  0  0  0  0
    1.8049    4.6756   -1.8700 N   0  0  0  0  0  0  0  0  0  0  0  0
    5.7871    0.0791   -3.8595 C   0  0  0  0  0  0  0  0  0  0  0  0
    6.8920   -0.3129   -4.6151 C   0  0  0  0  0  0  0  0  0  0  0  0
    8.0138    0.5234   -4.7526 C   0  0  0  0  0  0  0  0  0  0  0  0
    8.0013    1.7645   -4.1019 C   0  0  0  0  0  0  0  0  0  0  0  0
    6.9012    2.1723   -3.3389 C   0  0  0  0  0  0  0  0  0  0  0  0
    5.7999    1.3252   -3.2271 C   0  0  0  0  0  0  0  0  0  0  0  0
    4.9264   -0.5770   -3.7430 H   0  0  0  0  0  0  0  0  0  0  0  0
    6.8885   -1.2886   -5.1044 H   0  0  0  0  0  0  0  0  0  0  0  0
    8.8652    2.4258   -4.1877 H   0  0  0  0  0  0  0  0  0  0  0  0
    6.8956    3.1318   -2.8248 H   0  0  0  0  0  0  0  0  0  0  0  0
    4.3451    1.8911   -2.3045 S   0  0  0  0  0  0  0  0  0  0  0  0
    3.3933    2.4670   -3.3463 O   0  0  0  0  0  0  0  0  0  0  0  0
    4.8142    2.8939   -1.2984 O   0  0  0  0  0  0  0  0  0  0  0  0
    3.7367    0.6250   -1.6848 O   0  0  0  0  0  0  0  0  0  0  0  0
    9.1993    0.0804   -5.5766 C   0  0  0  0  0  0  0  0  0  0  0  0
    9.6203   -0.8593   -5.1902 H   0  0  0  0  0  0  0  0  0  0  0  0
    8.9115   -0.0996   -6.6231 H   0  0  0  0  0  0  0  0  0  0  0  0
    9.9973    0.8345   -5.5716 H   0  0  0  0  0  0  0  0  0  0  0  0
   -1.8963   -0.8543   -2.9533 H   0  0  0  0  0  0  0  0  0  0  0  0
  1  7  1  0  0  0  0
  1  2  1  0  0  0  0
  2  8  1  0  0  0  0
  3  2  2  0  0  0  0
  4  3  1  0  0  0  0
  5  4  2  0  0  0  0
  5  6  1  0  0  0  0
  6  1  2  0  0  0  0
  9  4  1  0  0  0  0
 10  5  1  0  0  0  0
 11 12  3  0  0  0  0
 13 19  1  0  0  0  0
 13 18  2  0  0  0  0
 14 13  1  0  0  0  0
 15 14  2  0  0  0  0
 15 16  1  0  0  0  0
 16 17  2  0  0  0  0
 17 18  1  0  0  0  0
 17 22  1  0  0  0  0
 18 23  1  0  0  0  0
 20 14  1  0  0  0  0
 21 16  1  0  0  0  0
 23 26  2  0  0  0  0
 23 25  1  0  0  0  0
 24 23  2  0  0  0  0
 27 30  1  0  0  0  0
 27 28  1  0  0  0  0
 27 15  1  0  0  0  0
 29 27  1  0  0  0  0
 31  6  1  0  0  0  0
M  RAD  2   3   2  25   2
M  END
