Coordinates from ORCA-job Ph-N2-OTs-B3LYPG-aug-cc-pVDZ-scan-d09-49-n400
 OpenBabel07022015303D

 31 30  0  0  0  0  0  0  0  0999 V2000
    0.3518    0.7999   -3.6546 C   0  0  0  0  0  0  0  0  0  0  0  0
    1.1255    1.4975   -2.7100 C   0  0  0  0  0  0  0  0  0  0  0  0
    0.7299    1.6146   -1.5223 C   0  0  0  0  0  0  0  0  0  0  0  0
   -0.4000    1.2135   -0.8493 C   0  0  0  0  0  0  0  0  0  0  0  0
   -1.2203    0.5084   -1.7659 C   0  0  0  0  0  0  0  0  0  0  0  0
   -0.8559    0.3128   -3.1124 C   0  0  0  0  0  0  0  0  0  0  0  0
    0.6350    0.6554   -4.6952 H   0  0  0  0  0  0  0  0  0  0  0  0
    2.6761    2.5306   -3.6048 H   0  0  0  0  0  0  0  0  0  0  0  0
   -0.6583    1.3750    0.1934 H   0  0  0  0  0  0  0  0  0  0  0  0
   -2.1678    0.1062   -1.4025 H   0  0  0  0  0  0  0  0  0  0  0  0
    1.8868    3.0103    1.2184 N   0  0  0  0  0  0  0  0  0  0  0  0
    2.8299    3.5274    1.4674 N   0  0  0  0  0  0  0  0  0  0  0  0
    5.3648    0.2536   -4.4806 C   0  0  0  0  0  0  0  0  0  0  0  0
    6.5530   -0.3542   -4.0661 C   0  0  0  0  0  0  0  0  0  0  0  0
    7.7660    0.3494   -4.0621 C   0  0  0  0  0  0  0  0  0  0  0  0
    7.7674    1.6885   -4.4921 C   0  0  0  0  0  0  0  0  0  0  0  0
    6.5937    2.3141   -4.9101 C   0  0  0  0  0  0  0  0  0  0  0  0
    5.4023    1.5846   -4.8953 C   0  0  0  0  0  0  0  0  0  0  0  0
    4.4277   -0.2997   -4.5000 H   0  0  0  0  0  0  0  0  0  0  0  0
    6.5337   -1.3965   -3.7458 H   0  0  0  0  0  0  0  0  0  0  0  0
    8.7038    2.2481   -4.5030 H   0  0  0  0  0  0  0  0  0  0  0  0
    6.5964    3.3456   -5.2572 H   0  0  0  0  0  0  0  0  0  0  0  0
    3.8804    2.3901   -5.4176 S   0  0  0  0  0  0  0  0  0  0  0  0
    2.8855    1.3515   -5.7878 O   0  0  0  0  0  0  0  0  0  0  0  0
    4.2181    3.5017   -6.3268 O   0  0  0  0  0  0  0  0  0  0  0  0
    3.3551    3.1103   -4.0224 O   0  0  0  0  0  0  0  0  0  0  0  0
    9.0460   -0.3052   -3.6033 C   0  0  0  0  0  0  0  0  0  0  0  0
    8.9148   -1.3844   -3.4559 H   0  0  0  0  0  0  0  0  0  0  0  0
    9.8541   -0.1518   -4.3327 H   0  0  0  0  0  0  0  0  0  0  0  0
    9.3836    0.1258   -2.6492 H   0  0  0  0  0  0  0  0  0  0  0  0
   -1.5398   -0.2321   -3.7661 H   0  0  0  0  0  0  0  0  0  0  0  0
  1  6  2  0  0  0  0
  1  2  1  0  0  0  0
  2  3  2  0  0  0  0
  3  4  1  0  0  0  0
  4  9  1  0  0  0  0
  5 10  1  0  0  0  0
  5  4  2  0  0  0  0
  6  5  1  0  0  0  0
  7  1  1  0  0  0  0
 11 12  3  0  0  0  0
 13 14  2  0  0  0  0
 14 15  1  0  0  0  0
 14 20  1  0  0  0  0
 15 27  1  0  0  0  0
 16 15  2  0  0  0  0
 17 18  2  0  0  0  0
 17 16  1  0  0  0  0
 18 13  1  0  0  0  0
 19 13  1  0  0  0  0
 21 16  1  0  0  0  0
 22 17  1  0  0  0  0
 23 18  1  0  0  0  0
 23 26  1  0  0  0  0
 24 23  2  0  0  0  0
 25 23  2  0  0  0  0
 26  8  1  0  0  0  0
 27 28  1  0  0  0  0
 27 30  1  0  0  0  0
 29 27  1  0  0  0  0
 31  6  1  0  0  0  0
M  RAD  2   2   2   3   2
M  END
