Coordinates from ORCA-job Ph-N2-OTs-B3LYPG-aug-cc-pVDZ-scan-d09-49-n400
 OpenBabel07022015303D

 31 30  0  0  0  0  0  0  0  0999 V2000
    0.2095   -0.2247   -2.5256 C   0  0  0  0  0  0  0  0  0  0  0  0
    1.0454    0.9040   -2.2703 C   0  0  0  0  0  0  0  0  0  0  0  0
    0.3165    1.9911   -2.4308 C   0  0  0  0  0  0  0  0  0  0  0  0
   -0.9421    2.3713   -2.7654 C   0  0  0  0  0  0  0  0  0  0  0  0
   -1.7071    1.2067   -3.0113 C   0  0  0  0  0  0  0  0  0  0  0  0
   -1.1321   -0.0655   -2.8884 C   0  0  0  0  0  0  0  0  0  0  0  0
    0.6603   -1.2137   -2.4393 H   0  0  0  0  0  0  0  0  0  0  0  0
    2.1897    0.8117   -2.0181 H   0  0  0  0  0  0  0  0  0  0  0  0
   -1.3275    3.3823   -2.8434 H   0  0  0  0  0  0  0  0  0  0  0  0
   -2.7519    1.3316   -3.2972 H   0  0  0  0  0  0  0  0  0  0  0  0
    1.4148    3.8331   -1.9716 N   0  0  0  0  0  0  0  0  0  0  0  0
    1.7838    4.8244   -1.6593 N   0  0  0  0  0  0  0  0  0  0  0  0
    5.7369    0.1129   -3.8765 C   0  0  0  0  0  0  0  0  0  0  0  0
    6.8407   -0.3218   -4.6107 C   0  0  0  0  0  0  0  0  0  0  0  0
    7.9892    0.4783   -4.7413 C   0  0  0  0  0  0  0  0  0  0  0  0
    8.0054    1.7268   -4.1048 C   0  0  0  0  0  0  0  0  0  0  0  0
    6.9090    2.1755   -3.3607 C   0  0  0  0  0  0  0  0  0  0  0  0
    5.7797    1.3645   -3.2565 C   0  0  0  0  0  0  0  0  0  0  0  0
    4.8547   -0.5153   -3.7680 H   0  0  0  0  0  0  0  0  0  0  0  0
    6.8149   -1.3025   -5.0891 H   0  0  0  0  0  0  0  0  0  0  0  0
    8.8896    2.3610   -4.1871 H   0  0  0  0  0  0  0  0  0  0  0  0
    6.9264    3.1397   -2.8560 H   0  0  0  0  0  0  0  0  0  0  0  0
    4.3342    2.0019   -2.3684 S   0  0  0  0  0  0  0  0  0  0  0  0
    3.4115    2.6073   -3.4014 O   0  0  0  0  0  0  0  0  0  0  0  0
    4.8370    2.9564   -1.3347 O   0  0  0  0  0  0  0  0  0  0  0  0
    3.6705    0.7403   -1.7501 O   0  0  0  0  0  0  0  0  0  0  0  0
    9.1732   -0.0097   -5.5413 C   0  0  0  0  0  0  0  0  0  0  0  0
    9.5829   -0.9376   -5.1157 H   0  0  0  0  0  0  0  0  0  0  0  0
    8.8879   -0.2284   -6.5809 H   0  0  0  0  0  0  0  0  0  0  0  0
    9.9788    0.7359   -5.5628 H   0  0  0  0  0  0  0  0  0  0  0  0
   -1.7423   -0.9465   -3.0854 H   0  0  0  0  0  0  0  0  0  0  0  0
  1  7  1  0  0  0  0
  1  2  2  0  0  0  0
  2  8  1  0  0  0  0
  3  2  1  0  0  0  0
  4  3  2  0  0  0  0
  5  6  2  0  0  0  0
  5  4  1  0  0  0  0
  6  1  1  0  0  0  0
  9  4  1  0  0  0  0
 10  5  1  0  0  0  0
 11 12  3  0  0  0  0
 13 19  1  0  0  0  0
 13 18  2  0  0  0  0
 14 13  1  0  0  0  0
 15 14  2  0  0  0  0
 15 16  1  0  0  0  0
 16 17  2  0  0  0  0
 17 18  1  0  0  0  0
 17 22  1  0  0  0  0
 18 23  1  0  0  0  0
 20 14  1  0  0  0  0
 21 16  1  0  0  0  0
 23 26  2  0  0  0  0
 23 25  1  0  0  0  0
 24 23  2  0  0  0  0
 27 28  1  0  0  0  0
 27 15  1  0  0  0  0
 29 27  1  0  0  0  0
 30 27  1  0  0  0  0
 31  6  1  0  0  0  0
M  RAD  2   3   2  25   2
M  END
