Coordinates from ORCA-job Ph-N2-OTs-B3LYPG-aug-cc-pVDZ-scan-d09-49-n400
 OpenBabel07022015303D

 31 30  0  0  0  0  0  0  0  0999 V2000
   -0.3053    0.1653   -2.9441 C   0  0  0  0  0  0  0  0  0  0  0  0
    0.6491    1.0504   -2.3835 C   0  0  0  0  0  0  0  0  0  0  0  0
    0.1550    2.0239   -1.7347 C   0  0  0  0  0  0  0  0  0  0  0  0
   -1.0864    2.4965   -1.4068 C   0  0  0  0  0  0  0  0  0  0  0  0
   -2.0402    1.6117   -1.9636 C   0  0  0  0  0  0  0  0  0  0  0  0
   -1.6558    0.4814   -2.7102 C   0  0  0  0  0  0  0  0  0  0  0  0
   -0.0215   -0.7069   -3.5333 H   0  0  0  0  0  0  0  0  0  0  0  0
    2.4964    0.7894   -2.7746 H   0  0  0  0  0  0  0  0  0  0  0  0
   -1.3394    3.3822   -0.8311 H   0  0  0  0  0  0  0  0  0  0  0  0
   -3.0984    1.8247   -1.8039 H   0  0  0  0  0  0  0  0  0  0  0  0
    1.6464    3.4944   -0.8250 N   0  0  0  0  0  0  0  0  0  0  0  0
    2.7211    3.7010   -0.6745 N   0  0  0  0  0  0  0  0  0  0  0  0
    6.0796   -0.0836   -4.8658 C   0  0  0  0  0  0  0  0  0  0  0  0
    7.4457   -0.3612   -4.8943 C   0  0  0  0  0  0  0  0  0  0  0  0
    8.3859    0.5475   -4.3768 C   0  0  0  0  0  0  0  0  0  0  0  0
    7.9205    1.7463   -3.8161 C   0  0  0  0  0  0  0  0  0  0  0  0
    6.5558    2.0422   -3.7735 C   0  0  0  0  0  0  0  0  0  0  0  0
    5.6530    1.1212   -4.3029 C   0  0  0  0  0  0  0  0  0  0  0  0
    5.3559   -0.7817   -5.2830 H   0  0  0  0  0  0  0  0  0  0  0  0
    7.7924   -1.2985   -5.3314 H   0  0  0  0  0  0  0  0  0  0  0  0
    8.6328    2.4657   -3.4099 H   0  0  0  0  0  0  0  0  0  0  0  0
    6.1899    2.9754   -3.3503 H   0  0  0  0  0  0  0  0  0  0  0  0
    3.8985    1.5115   -4.2845 S   0  0  0  0  0  0  0  0  0  0  0  0
    3.2392    0.9111   -5.4695 O   0  0  0  0  0  0  0  0  0  0  0  0
    3.7134    2.9561   -3.9943 O   0  0  0  0  0  0  0  0  0  0  0  0
    3.4721    0.6435   -2.9460 O   0  0  0  0  0  0  0  0  0  0  0  0
    9.8629    0.2463   -4.4544 C   0  0  0  0  0  0  0  0  0  0  0  0
   10.0651   -0.8135   -4.2488 H   0  0  0  0  0  0  0  0  0  0  0  0
   10.2519    0.4627   -5.4613 H   0  0  0  0  0  0  0  0  0  0  0  0
   10.4345    0.8529   -3.7411 H   0  0  0  0  0  0  0  0  0  0  0  0
   -2.4307   -0.1669   -3.1229 H   0  0  0  0  0  0  0  0  0  0  0  0
  1  6  2  0  0  0  0
  1  2  1  0  0  0  0
  2  3  2  0  0  0  0
  3  4  1  0  0  0  0
  4  9  1  0  0  0  0
  5 10  1  0  0  0  0
  5  4  2  0  0  0  0
  6  5  1  0  0  0  0
  7  1  1  0  0  0  0
 11 12  3  0  0  0  0
 13 18  1  0  0  0  0
 14 13  2  0  0  0  0
 14 15  1  0  0  0  0
 15 16  2  0  0  0  0
 16 17  1  0  0  0  0
 16 21  1  0  0  0  0
 17 22  1  0  0  0  0
 18 23  1  0  0  0  0
 18 17  2  0  0  0  0
 19 13  1  0  0  0  0
 20 14  1  0  0  0  0
 23 25  2  0  0  0  0
 23 26  1  0  0  0  0
 24 23  2  0  0  0  0
 26  8  1  0  0  0  0
 27 15  1  0  0  0  0
 27 28  1  0  0  0  0
 27 30  1  0  0  0  0
 29 27  1  0  0  0  0
 31  6  1  0  0  0  0
M  RAD  2   2   2   3   2
M  END
