Coordinates from ORCA-job Ph-N2-OTs-B3LYPG-aug-cc-pVDZ-scan-d09-49-n400
 OpenBabel07022015303D

 31 30  0  0  0  0  0  0  0  0999 V2000
    0.4112    0.8419   -3.7047 C   0  0  0  0  0  0  0  0  0  0  0  0
    1.2173    1.5942   -2.8329 C   0  0  0  0  0  0  0  0  0  0  0  0
    0.8780    1.7706   -1.6353 C   0  0  0  0  0  0  0  0  0  0  0  0
   -0.2143    1.3918   -0.8903 C   0  0  0  0  0  0  0  0  0  0  0  0
   -1.0676    0.6331   -1.7313 C   0  0  0  0  0  0  0  0  0  0  0  0
   -0.7642    0.3724   -3.0818 C   0  0  0  0  0  0  0  0  0  0  0  0
    0.6494    0.6437   -4.7477 H   0  0  0  0  0  0  0  0  0  0  0  0
    2.7290    2.5680   -3.8608 H   0  0  0  0  0  0  0  0  0  0  0  0
   -0.4273    1.5987    0.1547 H   0  0  0  0  0  0  0  0  0  0  0  0
   -1.9911    0.2382   -1.3041 H   0  0  0  0  0  0  0  0  0  0  0  0
    1.2287    2.9265    2.3225 N   0  0  0  0  0  0  0  0  0  0  0  0
    1.9678    3.3743    3.0096 N   0  0  0  0  0  0  0  0  0  0  0  0
    5.3950    0.1790   -4.6150 C   0  0  0  0  0  0  0  0  0  0  0  0
    6.5824   -0.3870   -4.1422 C   0  0  0  0  0  0  0  0  0  0  0  0
    7.7784    0.3443   -4.1222 C   0  0  0  0  0  0  0  0  0  0  0  0
    7.7646    1.6679   -4.5982 C   0  0  0  0  0  0  0  0  0  0  0  0
    6.5928    2.2509   -5.0772 C   0  0  0  0  0  0  0  0  0  0  0  0
    5.4173    1.4952   -5.0751 C   0  0  0  0  0  0  0  0  0  0  0  0
    4.4699   -0.3935   -4.6431 H   0  0  0  0  0  0  0  0  0  0  0  0
    6.5762   -1.4178   -3.7865 H   0  0  0  0  0  0  0  0  0  0  0  0
    8.6880    2.2488   -4.5967 H   0  0  0  0  0  0  0  0  0  0  0  0
    6.5858    3.2699   -5.4594 H   0  0  0  0  0  0  0  0  0  0  0  0
    3.8971    2.2483   -5.6745 S   0  0  0  0  0  0  0  0  0  0  0  0
    2.8984    1.1802   -5.9330 O   0  0  0  0  0  0  0  0  0  0  0  0
    4.2338    3.2611   -6.6927 O   0  0  0  0  0  0  0  0  0  0  0  0
    3.3799    3.1134   -4.3606 O   0  0  0  0  0  0  0  0  0  0  0  0
    9.0559   -0.2633   -3.5964 C   0  0  0  0  0  0  0  0  0  0  0  0
    8.9503   -1.3435   -3.4363 H   0  0  0  0  0  0  0  0  0  0  0  0
    9.8906   -0.0966   -4.2917 H   0  0  0  0  0  0  0  0  0  0  0  0
    9.3373    0.1925   -2.6355 H   0  0  0  0  0  0  0  0  0  0  0  0
   -1.4712   -0.2123   -3.6737 H   0  0  0  0  0  0  0  0  0  0  0  0
  1  6  2  0  0  0  0
  1  2  1  0  0  0  0
  2  3  2  0  0  0  0
  3  4  1  0  0  0  0
  4  9  1  0  0  0  0
  5 10  1  0  0  0  0
  5  4  2  0  0  0  0
  6  5  1  0  0  0  0
  7  1  1  0  0  0  0
 11 12  3  0  0  0  0
 13 14  2  0  0  0  0
 14 15  1  0  0  0  0
 14 20  1  0  0  0  0
 15 27  1  0  0  0  0
 16 21  1  0  0  0  0
 16 15  2  0  0  0  0
 17 18  2  0  0  0  0
 17 16  1  0  0  0  0
 18 13  1  0  0  0  0
 19 13  1  0  0  0  0
 22 17  1  0  0  0  0
 23 18  1  0  0  0  0
 23 26  1  0  0  0  0
 24 23  2  0  0  0  0
 25 23  2  0  0  0  0
 26  8  1  0  0  0  0
 27 28  1  0  0  0  0
 27 30  1  0  0  0  0
 29 27  1  0  0  0  0
 31  6  1  0  0  0  0
M  RAD  2   2   2   3   2
M  END
