Coordinates from ORCA-job Ph-N2-OTs-B3LYPG-aug-cc-pVDZ-scan-d09-49-n400
 OpenBabel07022015303D

 31 30  0  0  0  0  0  0  0  0999 V2000
    0.5438    0.8596   -3.6305 C   0  0  0  0  0  0  0  0  0  0  0  0
    1.3110    1.7275   -2.8344 C   0  0  0  0  0  0  0  0  0  0  0  0
    0.9889    1.9545   -1.6405 C   0  0  0  0  0  0  0  0  0  0  0  0
   -0.0406    1.5301   -0.8333 C   0  0  0  0  0  0  0  0  0  0  0  0
   -0.8503    0.6505   -1.5963 C   0  0  0  0  0  0  0  0  0  0  0  0
   -0.5668    0.3320   -2.9384 C   0  0  0  0  0  0  0  0  0  0  0  0
    0.7673    0.6165   -4.6672 H   0  0  0  0  0  0  0  0  0  0  0  0
    2.8153    2.6541   -3.9142 H   0  0  0  0  0  0  0  0  0  0  0  0
   -0.2393    1.7856    0.2038 H   0  0  0  0  0  0  0  0  0  0  0  0
   -1.7235    0.2084   -1.1130 H   0  0  0  0  0  0  0  0  0  0  0  0
    0.2955    2.9132    2.7209 N   0  0  0  0  0  0  0  0  0  0  0  0
    0.6371    3.4114    3.6451 N   0  0  0  0  0  0  0  0  0  0  0  0
    5.4010    0.1755   -4.6947 C   0  0  0  0  0  0  0  0  0  0  0  0
    6.5824   -0.4154   -4.2377 C   0  0  0  0  0  0  0  0  0  0  0  0
    7.7954    0.2874   -4.2430 C   0  0  0  0  0  0  0  0  0  0  0  0
    7.8047    1.6077   -4.7281 C   0  0  0  0  0  0  0  0  0  0  0  0
    6.6392    2.2150   -5.1919 C   0  0  0  0  0  0  0  0  0  0  0  0
    5.4464    1.4874   -5.1650 C   0  0  0  0  0  0  0  0  0  0  0  0
    4.4624   -0.3752   -4.7036 H   0  0  0  0  0  0  0  0  0  0  0  0
    6.5575   -1.4436   -3.8752 H   0  0  0  0  0  0  0  0  0  0  0  0
    8.7414    2.1667   -4.7461 H   0  0  0  0  0  0  0  0  0  0  0  0
    6.6501    3.2314   -5.5808 H   0  0  0  0  0  0  0  0  0  0  0  0
    3.9351    2.2706   -5.7491 S   0  0  0  0  0  0  0  0  0  0  0  0
    2.9055    1.2238   -5.9713 O   0  0  0  0  0  0  0  0  0  0  0  0
    4.2791    3.2562   -6.7911 O   0  0  0  0  0  0  0  0  0  0  0  0
    3.4650    3.1731   -4.4432 O   0  0  0  0  0  0  0  0  0  0  0  0
    9.0667   -0.3470   -3.7341 C   0  0  0  0  0  0  0  0  0  0  0  0
    8.9395   -1.4240   -3.5684 H   0  0  0  0  0  0  0  0  0  0  0  0
    9.8946   -0.2013   -4.4423 H   0  0  0  0  0  0  0  0  0  0  0  0
    9.3724    0.1056   -2.7791 H   0  0  0  0  0  0  0  0  0  0  0  0
   -1.2376   -0.3465   -3.4691 H   0  0  0  0  0  0  0  0  0  0  0  0
  1  6  2  0  0  0  0
  1  2  1  0  0  0  0
  2  3  2  0  0  0  0
  3  4  1  0  0  0  0
  4  9  1  0  0  0  0
  5 10  1  0  0  0  0
  5  4  2  0  0  0  0
  6  5  1  0  0  0  0
  7  1  1  0  0  0  0
 11 12  3  0  0  0  0
 13 14  2  0  0  0  0
 14 20  1  0  0  0  0
 15 14  1  0  0  0  0
 15 27  1  0  0  0  0
 16 15  2  0  0  0  0
 17 18  2  0  0  0  0
 17 16  1  0  0  0  0
 18 13  1  0  0  0  0
 19 13  1  0  0  0  0
 21 16  1  0  0  0  0
 22 17  1  0  0  0  0
 23 18  1  0  0  0  0
 23 26  1  0  0  0  0
 24 23  2  0  0  0  0
 25 23  2  0  0  0  0
 26  8  1  0  0  0  0
 27 28  1  0  0  0  0
 27 30  1  0  0  0  0
 29 27  1  0  0  0  0
 31  6  1  0  0  0  0
M  RAD  2   2   2   3   2
M  END
