Coordinates from ORCA-job Ph-N2-OTs-B3LYPG-aug-cc-pVDZ-scan-d09-49-n400
 OpenBabel07022015303D

 31 31  0  0  0  0  0  0  0  0999 V2000
   -0.1273   -0.2031   -2.2923 C   0  0  0  0  0  0  0  0  0  0  0  0
    0.9040    0.7505   -2.2374 C   0  0  0  0  0  0  0  0  0  0  0  0
    0.4860    2.0152   -2.5476 C   0  0  0  0  0  0  0  0  0  0  0  0
   -0.7578    2.4842   -2.9121 C   0  0  0  0  0  0  0  0  0  0  0  0
   -1.7446    1.4894   -2.9683 C   0  0  0  0  0  0  0  0  0  0  0  0
   -1.4274    0.1612   -2.6591 C   0  0  0  0  0  0  0  0  0  0  0  0
    0.1095   -1.2382   -2.0488 H   0  0  0  0  0  0  0  0  0  0  0  0
    1.9432    0.5055   -1.9778 H   0  0  0  0  0  0  0  0  0  0  0  0
   -0.9600    3.5263   -3.1436 H   0  0  0  0  0  0  0  0  0  0  0  0
   -2.7568    1.7671   -3.2605 H   0  0  0  0  0  0  0  0  0  0  0  0
    1.6853    3.2757   -2.4587 N   0  0  0  0  0  0  0  0  0  0  0  0
    1.8924    4.3493   -2.2523 N   0  0  0  0  0  0  0  0  0  0  0  0
    5.8934    0.0005   -3.8374 C   0  0  0  0  0  0  0  0  0  0  0  0
    7.0114   -0.3034   -4.6131 C   0  0  0  0  0  0  0  0  0  0  0  0
    8.0649    0.6159   -4.7641 C   0  0  0  0  0  0  0  0  0  0  0  0
    7.9691    1.8510   -4.1081 C   0  0  0  0  0  0  0  0  0  0  0  0
    6.8521    2.1742   -3.3286 C   0  0  0  0  0  0  0  0  0  0  0  0
    5.8233    1.2431   -3.2014 C   0  0  0  0  0  0  0  0  0  0  0  0
    5.0867   -0.7189   -3.7077 H   0  0  0  0  0  0  0  0  0  0  0  0
    7.0698   -1.2744   -5.1082 H   0  0  0  0  0  0  0  0  0  0  0  0
    8.7802    2.5752   -4.2019 H   0  0  0  0  0  0  0  0  0  0  0  0
    6.7825    3.1309   -2.8138 H   0  0  0  0  0  0  0  0  0  0  0  0
    4.3512    1.6625   -2.2357 S   0  0  0  0  0  0  0  0  0  0  0  0
    3.3368    2.1177   -3.3233 O   0  0  0  0  0  0  0  0  0  0  0  0
    4.7024    2.7780   -1.3036 O   0  0  0  0  0  0  0  0  0  0  0  0
    3.8705    0.3862   -1.5856 O   0  0  0  0  0  0  0  0  0  0  0  0
    9.2657    0.2656   -5.6097 C   0  0  0  0  0  0  0  0  0  0  0  0
    9.7374   -0.6639   -5.2591 H   0  0  0  0  0  0  0  0  0  0  0  0
    8.9790    0.1075   -6.6600 H   0  0  0  0  0  0  0  0  0  0  0  0
   10.0233    1.0597   -5.5829 H   0  0  0  0  0  0  0  0  0  0  0  0
   -2.2067   -0.5994   -2.7094 H   0  0  0  0  0  0  0  0  0  0  0  0
  1  2  1  0  0  0  0
  1  7  1  0  0  0  0
  2  8  1  0  0  0  0
  3 11  1  0  0  0  0
  3  2  2  0  0  0  0
  4  3  1  0  0  0  0
  5  4  2  0  0  0  0
  5  6  1  0  0  0  0
  6  1  2  0  0  0  0
  9  4  1  0  0  0  0
 10  5  1  0  0  0  0
 11 12  2  0  0  0  0
 13 19  1  0  0  0  0
 13 18  2  0  0  0  0
 14 13  1  0  0  0  0
 15 14  2  0  0  0  0
 15 16  1  0  0  0  0
 16 17  2  0  0  0  0
 17 18  1  0  0  0  0
 17 22  1  0  0  0  0
 18 23  1  0  0  0  0
 20 14  1  0  0  0  0
 21 16  1  0  0  0  0
 23 26  2  0  0  0  0
 23 25  1  0  0  0  0
 24 23  2  0  0  0  0
 27 30  1  0  0  0  0
 27 28  1  0  0  0  0
 27 15  1  0  0  0  0
 29 27  1  0  0  0  0
 31  6  1  0  0  0  0
M  RAD  2  12   2  25   2
M  END
