Coordinates from ORCA-job Ph-N2-OTs-B3LYPG-aug-cc-pVDZ-scan-d09-49-n400
 OpenBabel07022015303D

 31 30  0  0  0  0  0  0  0  0999 V2000
    0.4031    0.8408   -3.7021 C   0  0  0  0  0  0  0  0  0  0  0  0
    1.2084    1.5850   -2.8227 C   0  0  0  0  0  0  0  0  0  0  0  0
    0.8665    1.7537   -1.6248 C   0  0  0  0  0  0  0  0  0  0  0  0
   -0.2292    1.3727   -0.8858 C   0  0  0  0  0  0  0  0  0  0  0  0
   -1.0819    0.6220   -1.7345 C   0  0  0  0  0  0  0  0  0  0  0  0
   -0.7752    0.3699   -3.0859 C   0  0  0  0  0  0  0  0  0  0  0  0
    0.6436    0.6496   -4.7459 H   0  0  0  0  0  0  0  0  0  0  0  0
    2.7216    2.5663   -3.8416 H   0  0  0  0  0  0  0  0  0  0  0  0
   -0.4445    1.5733    0.1599 H   0  0  0  0  0  0  0  0  0  0  0  0
   -2.0077    0.2265   -1.3127 H   0  0  0  0  0  0  0  0  0  0  0  0
    1.3136    2.9257    2.2027 N   0  0  0  0  0  0  0  0  0  0  0  0
    2.0851    3.3769    2.8509 N   0  0  0  0  0  0  0  0  0  0  0  0
    5.3901    0.1852   -4.6024 C   0  0  0  0  0  0  0  0  0  0  0  0
    6.5773   -0.3833   -4.1321 C   0  0  0  0  0  0  0  0  0  0  0  0
    7.7741    0.3469   -4.1111 C   0  0  0  0  0  0  0  0  0  0  0  0
    7.7611    1.6718   -4.5833 C   0  0  0  0  0  0  0  0  0  0  0  0
    6.5894    2.2573   -5.0596 C   0  0  0  0  0  0  0  0  0  0  0  0
    5.4133    1.5026   -5.0588 C   0  0  0  0  0  0  0  0  0  0  0  0
    4.4645   -0.3866   -4.6316 H   0  0  0  0  0  0  0  0  0  0  0  0
    6.5704   -1.4151   -3.7794 H   0  0  0  0  0  0  0  0  0  0  0  0
    8.6851    2.2517   -4.5810 H   0  0  0  0  0  0  0  0  0  0  0  0
    6.5830    3.2774   -5.4390 H   0  0  0  0  0  0  0  0  0  0  0  0
    3.8933    2.2588   -5.6548 S   0  0  0  0  0  0  0  0  0  0  0  0
    2.8954    1.1917   -5.9210 O   0  0  0  0  0  0  0  0  0  0  0  0
    4.2304    3.2781   -6.6662 O   0  0  0  0  0  0  0  0  0  0  0  0
    3.3742    3.1149   -4.3357 O   0  0  0  0  0  0  0  0  0  0  0  0
    9.0514   -0.2636   -3.5882 C   0  0  0  0  0  0  0  0  0  0  0  0
    8.9449   -1.3441   -3.4312 H   0  0  0  0  0  0  0  0  0  0  0  0
    9.8857   -0.0955   -4.2838 H   0  0  0  0  0  0  0  0  0  0  0  0
    9.3341    0.1892   -2.6263 H   0  0  0  0  0  0  0  0  0  0  0  0
   -1.4820   -0.2088   -3.6840 H   0  0  0  0  0  0  0  0  0  0  0  0
  1  6  2  0  0  0  0
  1  2  1  0  0  0  0
  2  3  2  0  0  0  0
  3  4  1  0  0  0  0
  4  9  1  0  0  0  0
  5 10  1  0  0  0  0
  5  4  2  0  0  0  0
  6  5  1  0  0  0  0
  7  1  1  0  0  0  0
 11 12  3  0  0  0  0
 13 14  2  0  0  0  0
 14 15  1  0  0  0  0
 14 20  1  0  0  0  0
 15 27  1  0  0  0  0
 16 21  1  0  0  0  0
 16 15  2  0  0  0  0
 17 18  2  0  0  0  0
 17 16  1  0  0  0  0
 18 13  1  0  0  0  0
 19 13  1  0  0  0  0
 22 17  1  0  0  0  0
 23 18  1  0  0  0  0
 23 26  1  0  0  0  0
 24 23  2  0  0  0  0
 25 23  2  0  0  0  0
 26  8  1  0  0  0  0
 27 28  1  0  0  0  0
 27 30  1  0  0  0  0
 29 27  1  0  0  0  0
 31  6  1  0  0  0  0
M  RAD  2   2   2   3   2
M  END
