Coordinates from ORCA-job Ph-N2-OTs-B3LYPG-aug-cc-pVDZ-scan-d09-49-n400
 OpenBabel07022015303D

 31 30  0  0  0  0  0  0  0  0999 V2000
    0.5692    0.8704   -3.6084 C   0  0  0  0  0  0  0  0  0  0  0  0
    1.3409    1.7522   -2.8319 C   0  0  0  0  0  0  0  0  0  0  0  0
    1.0279    1.9958   -1.6389 C   0  0  0  0  0  0  0  0  0  0  0  0
    0.0075    1.5803   -0.8163 C   0  0  0  0  0  0  0  0  0  0  0  0
   -0.8057    0.6865   -1.5589 C   0  0  0  0  0  0  0  0  0  0  0  0
   -0.5332    0.3489   -2.8987 C   0  0  0  0  0  0  0  0  0  0  0  0
    0.7839    0.6131   -4.6435 H   0  0  0  0  0  0  0  0  0  0  0  0
    2.8415    2.6597   -3.9310 H   0  0  0  0  0  0  0  0  0  0  0  0
   -0.1852    1.8497    0.2181 H   0  0  0  0  0  0  0  0  0  0  0  0
   -1.6727    0.2484   -1.0611 H   0  0  0  0  0  0  0  0  0  0  0  0
    0.0222    2.8949    2.8628 N   0  0  0  0  0  0  0  0  0  0  0  0
    0.2186    3.3638    3.8428 N   0  0  0  0  0  0  0  0  0  0  0  0
    5.4159    0.1651   -4.7138 C   0  0  0  0  0  0  0  0  0  0  0  0
    6.5996   -0.4250   -4.2619 C   0  0  0  0  0  0  0  0  0  0  0  0
    7.8138    0.2755   -4.2804 C   0  0  0  0  0  0  0  0  0  0  0  0
    7.8219    1.5928   -4.7740 C   0  0  0  0  0  0  0  0  0  0  0  0
    6.6540    2.1992   -5.2330 C   0  0  0  0  0  0  0  0  0  0  0  0
    5.4601    1.4739   -5.1928 C   0  0  0  0  0  0  0  0  0  0  0  0
    4.4763   -0.3839   -4.7124 H   0  0  0  0  0  0  0  0  0  0  0  0
    6.5757   -1.4509   -3.8927 H   0  0  0  0  0  0  0  0  0  0  0  0
    8.7593    2.1500   -4.8024 H   0  0  0  0  0  0  0  0  0  0  0  0
    6.6639    3.2131   -5.6284 H   0  0  0  0  0  0  0  0  0  0  0  0
    3.9459    2.2557   -5.7714 S   0  0  0  0  0  0  0  0  0  0  0  0
    2.9122    1.2093   -5.9758 O   0  0  0  0  0  0  0  0  0  0  0  0
    4.2838    3.2308   -6.8252 O   0  0  0  0  0  0  0  0  0  0  0  0
    3.4889    3.1712   -4.4702 O   0  0  0  0  0  0  0  0  0  0  0  0
    9.0877   -0.3580   -3.7768 C   0  0  0  0  0  0  0  0  0  0  0  0
    8.9595   -1.4335   -3.6027 H   0  0  0  0  0  0  0  0  0  0  0  0
    9.9104   -0.2191   -4.4924 H   0  0  0  0  0  0  0  0  0  0  0  0
    9.4017    0.1007   -2.8275 H   0  0  0  0  0  0  0  0  0  0  0  0
   -1.2063   -0.3396   -3.4131 H   0  0  0  0  0  0  0  0  0  0  0  0
  1  6  2  0  0  0  0
  1  2  1  0  0  0  0
  2  3  2  0  0  0  0
  3  4  1  0  0  0  0
  4  9  1  0  0  0  0
  5 10  1  0  0  0  0
  5  4  2  0  0  0  0
  6  5  1  0  0  0  0
  7  1  1  0  0  0  0
 11 12  3  0  0  0  0
 13 19  1  0  0  0  0
 13 14  2  0  0  0  0
 14 20  1  0  0  0  0
 15 14  1  0  0  0  0
 15 27  1  0  0  0  0
 16 15  2  0  0  0  0
 17 18  2  0  0  0  0
 17 16  1  0  0  0  0
 18 13  1  0  0  0  0
 21 16  1  0  0  0  0
 22 17  1  0  0  0  0
 23 18  1  0  0  0  0
 23 26  1  0  0  0  0
 24 23  2  0  0  0  0
 25 23  2  0  0  0  0
 26  8  1  0  0  0  0
 27 28  1  0  0  0  0
 27 30  1  0  0  0  0
 29 27  1  0  0  0  0
 31  6  1  0  0  0  0
M  RAD  2   2   2   3   2
M  END
