Coordinates from ORCA-job Ph-N2-OTs-B3LYPG-aug-cc-pVDZ-scan-d09-49-n400
 OpenBabel07022015303D

 31 30  0  0  0  0  0  0  0  0999 V2000
    0.3614    0.8111   -3.6119 C   0  0  0  0  0  0  0  0  0  0  0  0
    1.1300    1.5153   -2.6639 C   0  0  0  0  0  0  0  0  0  0  0  0
    0.7153    1.6078   -1.4792 C   0  0  0  0  0  0  0  0  0  0  0  0
   -0.4071    1.1860   -0.8102 C   0  0  0  0  0  0  0  0  0  0  0  0
   -1.2135    0.4758   -1.7350 C   0  0  0  0  0  0  0  0  0  0  0  0
   -0.8404    0.2986   -3.0816 C   0  0  0  0  0  0  0  0  0  0  0  0
    0.6500    0.6808   -4.6531 H   0  0  0  0  0  0  0  0  0  0  0  0
    2.6553    2.5385   -3.5305 H   0  0  0  0  0  0  0  0  0  0  0  0
   -0.6688    1.3354    0.2332 H   0  0  0  0  0  0  0  0  0  0  0  0
   -2.1560    0.0567   -1.3778 H   0  0  0  0  0  0  0  0  0  0  0  0
    2.0108    2.9279    0.6691 N   0  0  0  0  0  0  0  0  0  0  0  0
    2.9673    3.4464    0.8572 N   0  0  0  0  0  0  0  0  0  0  0  0
    5.3422    0.2793   -4.4393 C   0  0  0  0  0  0  0  0  0  0  0  0
    6.5287   -0.3425   -4.0407 C   0  0  0  0  0  0  0  0  0  0  0  0
    7.7473    0.3516   -4.0380 C   0  0  0  0  0  0  0  0  0  0  0  0
    7.7554    1.6954   -4.4522 C   0  0  0  0  0  0  0  0  0  0  0  0
    6.5834    2.3350   -4.8537 C   0  0  0  0  0  0  0  0  0  0  0  0
    5.3865    1.6147   -4.8387 C   0  0  0  0  0  0  0  0  0  0  0  0
    4.4010   -0.2673   -4.4585 H   0  0  0  0  0  0  0  0  0  0  0  0
    6.5032   -1.3884   -3.7327 H   0  0  0  0  0  0  0  0  0  0  0  0
    8.6959    2.2481   -4.4642 H   0  0  0  0  0  0  0  0  0  0  0  0
    6.5913    3.3703   -5.1892 H   0  0  0  0  0  0  0  0  0  0  0  0
    3.8680    2.4384   -5.3431 S   0  0  0  0  0  0  0  0  0  0  0  0
    2.8716    1.4127   -5.7444 O   0  0  0  0  0  0  0  0  0  0  0  0
    4.2129    3.5708   -6.2238 O   0  0  0  0  0  0  0  0  0  0  0  0
    3.3421    3.1235   -3.9325 O   0  0  0  0  0  0  0  0  0  0  0  0
    9.0260   -0.3183   -3.5979 C   0  0  0  0  0  0  0  0  0  0  0  0
    8.8867   -1.3974   -3.4575 H   0  0  0  0  0  0  0  0  0  0  0  0
    9.8278   -0.1664   -4.3346 H   0  0  0  0  0  0  0  0  0  0  0  0
    9.3777    0.1023   -2.6442 H   0  0  0  0  0  0  0  0  0  0  0  0
   -1.5128   -0.2512   -3.7431 H   0  0  0  0  0  0  0  0  0  0  0  0
  1  6  2  0  0  0  0
  1  2  1  0  0  0  0
  2  3  2  0  0  0  0
  3  4  1  0  0  0  0
  4  9  1  0  0  0  0
  5 10  1  0  0  0  0
  5  4  2  0  0  0  0
  6  5  1  0  0  0  0
  7  1  1  0  0  0  0
 11 12  3  0  0  0  0
 13 14  2  0  0  0  0
 14 15  1  0  0  0  0
 14 20  1  0  0  0  0
 15 27  1  0  0  0  0
 16 15  2  0  0  0  0
 17 18  2  0  0  0  0
 17 16  1  0  0  0  0
 18 13  1  0  0  0  0
 19 13  1  0  0  0  0
 21 16  1  0  0  0  0
 22 17  1  0  0  0  0
 23 18  1  0  0  0  0
 23 26  1  0  0  0  0
 24 23  2  0  0  0  0
 25 23  2  0  0  0  0
 26  8  1  0  0  0  0
 27 28  1  0  0  0  0
 27 30  1  0  0  0  0
 29 27  1  0  0  0  0
 31  6  1  0  0  0  0
M  RAD  2   2   2   3   2
M  END
