Coordinates from ORCA-job Ph-N2-OTs-B3LYPG-aug-cc-pVDZ-scan-d09-49-n400
 OpenBabel07022015303D

 31 32  0  0  1  0  0  0  0  0999 V2000
    1.8872    0.4748   -1.8308 C   0  0  0  0  0  0  0  0  0  0  0  0
    1.8589    1.1244   -3.1656 C   0  0  1  0  0  0  0  0  0  0  0  0
    0.4831    1.5116   -3.4724 C   0  0  1  0  0  0  0  0  0  0  0  0
   -0.5744    1.6991   -2.5507 C   0  0  0  0  0  0  0  0  0  0  0  0
   -0.3721    1.2659   -1.2659 C   0  0  0  0  0  0  0  0  0  0  0  0
    0.8621    0.6004   -0.9423 C   0  0  0  0  0  0  0  0  0  0  0  0
    2.7916   -0.0712   -1.5672 H   0  0  0  0  0  0  0  0  0  0  0  0
    2.3592    0.5602   -3.9541 H   0  0  0  0  0  0  0  0  0  0  0  0
   -1.5063    2.1624   -2.8690 H   0  0  0  0  0  0  0  0  0  0  0  0
   -1.1493    1.3888   -0.5141 H   0  0  0  0  0  0  0  0  0  0  0  0
    0.1772    1.8601   -4.9215 N   0  0  0  0  0  0  0  0  0  0  0  0
   -0.0668    2.1136   -5.9870 N   0  0  0  0  0  0  0  0  0  0  0  0
    5.4196    0.8303   -5.0194 C   0  0  0  0  0  0  0  0  0  0  0  0
    6.5781    0.0633   -4.8821 C   0  0  0  0  0  0  0  0  0  0  0  0
    7.5080    0.3272   -3.8635 C   0  0  0  0  0  0  0  0  0  0  0  0
    7.2523    1.3899   -2.9817 C   0  0  0  0  0  0  0  0  0  0  0  0
    6.1008    2.1716   -3.1027 C   0  0  0  0  0  0  0  0  0  0  0  0
    5.1921    1.8750   -4.1206 C   0  0  0  0  0  0  0  0  0  0  0  0
    4.7066    0.6415   -5.8194 H   0  0  0  0  0  0  0  0  0  0  0  0
    6.7647   -0.7486   -5.5868 H   0  0  0  0  0  0  0  0  0  0  0  0
    7.9686    1.6136   -2.1902 H   0  0  0  0  0  0  0  0  0  0  0  0
    5.9160    3.0036   -2.4254 H   0  0  0  0  0  0  0  0  0  0  0  0
    3.7000    2.8747   -4.2866 S   0  0  0  0  0  0  0  0  0  0  0  0
    3.0141    2.4570   -5.5434 O   0  0  0  0  0  0  0  0  0  0  0  0
    4.0446    4.2930   -4.0511 O   0  0  0  0  0  0  0  0  0  0  0  0
    2.7823    2.4183   -3.0105 O   0  0  0  0  0  0  0  0  0  0  0  0
    8.7511   -0.5199   -3.7314 C   0  0  0  0  0  0  0  0  0  0  0  0
    8.4936   -1.5657   -3.5084 H   0  0  0  0  0  0  0  0  0  0  0  0
    9.3296   -0.5197   -4.6666 H   0  0  0  0  0  0  0  0  0  0  0  0
    9.4019   -0.1537   -2.9275 H   0  0  0  0  0  0  0  0  0  0  0  0
    0.9650    0.1496    0.0460 H   0  0  0  0  0  0  0  0  0  0  0  0
  1  7  1  0  0  0  0
  1  6  2  0  0  0  0
  2  8  1  6  0  0  0
  2 26  1  0  0  0  0
  2  1  1  0  0  0  0
  3 11  1  1  0  0  0
  3  2  1  0  0  0  0
  3  4  1  0  0  0  0
  4  5  2  0  0  0  0
  5  6  1  0  0  0  0
  5 10  1  0  0  0  0
  6 31  1  0  0  0  0
  9  4  1  0  0  0  0
 12 11  1  0  0  0  0
 13 14  2  0  0  0  0
 13 18  1  0  0  0  0
 14 15  1  0  0  0  0
 15 27  1  0  0  0  0
 15 16  2  0  0  0  0
 16 21  1  0  0  0  0
 17 16  1  0  0  0  0
 17 22  1  0  0  0  0
 18 17  2  0  0  0  0
 19 13  1  0  0  0  0
 20 14  1  0  0  0  0
 23 18  1  0  0  0  0
 23 25  2  0  0  0  0
 23 26  1  0  0  0  0
 24 23  2  0  0  0  0
 27 28  1  0  0  0  0
 27 30  1  0  0  0  0
 29 27  1  0  0  0  0
M  RAD  3   3   2  11   2  12   3
M  END
