Coordinates from ORCA-job Ph-N2-OTs-B3LYPG-aug-cc-pVDZ-scan-d09-49-n400
 OpenBabel07022015303D

 31 32  0  0  1  0  0  0  0  0999 V2000
    1.9001    0.2823   -2.3680 C   0  0  0  0  0  0  0  0  0  0  0  0
    1.7326    1.2645   -3.4811 C   0  0  1  0  0  0  0  0  0  0  0  0
    0.2851    1.9147   -3.5555 C   0  0  0  0  0  0  0  0  0  0  0  0
   -0.5046    1.8378   -2.2791 C   0  0  0  0  0  0  0  0  0  0  0  0
   -0.1477    1.0383   -1.2566 C   0  0  0  0  0  0  0  0  0  0  0  0
    1.0417    0.2013   -1.3336 C   0  0  0  0  0  0  0  0  0  0  0  0
    2.7872   -0.3502   -2.4164 H   0  0  0  0  0  0  0  0  0  0  0  0
    1.9139    0.8244   -4.4691 H   0  0  0  0  0  0  0  0  0  0  0  0
   -1.3989    2.4619   -2.2614 H   0  0  0  0  0  0  0  0  0  0  0  0
   -0.7676    0.9982   -0.3607 H   0  0  0  0  0  0  0  0  0  0  0  0
   -0.0053    2.3180   -4.3298 N   0  0  0  0  0  0  0  0  0  0  0  0
   -0.3799    2.8358   -5.3254 N   0  0  0  0  0  0  0  0  0  0  0  0
    5.3951    0.6064   -4.8538 C   0  0  0  0  0  0  0  0  0  0  0  0
    6.5511   -0.1237   -4.5794 C   0  0  0  0  0  0  0  0  0  0  0  0
    7.5090    0.3483   -3.6651 C   0  0  0  0  0  0  0  0  0  0  0  0
    7.2783    1.5782   -3.0290 C   0  0  0  0  0  0  0  0  0  0  0  0
    6.1266    2.3252   -3.2865 C   0  0  0  0  0  0  0  0  0  0  0  0
    5.1968    1.8243   -4.1976 C   0  0  0  0  0  0  0  0  0  0  0  0
    4.6661    0.2576   -5.5827 H   0  0  0  0  0  0  0  0  0  0  0  0
    6.7134   -1.0720   -5.0933 H   0  0  0  0  0  0  0  0  0  0  0  0
    8.0180    1.9634   -2.3263 H   0  0  0  0  0  0  0  0  0  0  0  0
    5.9648    3.2873   -2.8044 H   0  0  0  0  0  0  0  0  0  0  0  0
    3.7178    2.7806   -4.5548 S   0  0  0  0  0  0  0  0  0  0  0  0
    3.1256    2.2810   -5.8175 O   0  0  0  0  0  0  0  0  0  0  0  0
    3.9891    4.2087   -4.3154 O   0  0  0  0  0  0  0  0  0  0  0  0
    2.6870    2.3523   -3.2868 O   0  0  0  0  0  0  0  0  0  0  0  0
    8.7592   -0.4506   -3.3894 C   0  0  0  0  0  0  0  0  0  0  0  0
    8.5121   -1.4507   -3.0054 H   0  0  0  0  0  0  0  0  0  0  0  0
    9.3458   -0.5925   -4.3087 H   0  0  0  0  0  0  0  0  0  0  0  0
    9.3983    0.0496   -2.6513 H   0  0  0  0  0  0  0  0  0  0  0  0
    1.2285   -0.5097   -0.5278 H   0  0  0  0  0  0  0  0  0  0  0  0
  1  6  1  0  0  0  0
  2  8  1  6  0  0  0
  2 26  1  0  0  0  0
  2  1  1  0  0  0  0
  3  2  1  0  0  0  0
  3  4  2  0  0  0  0
  4  9  1  0  0  0  0
  4  5  1  0  0  0  0
  5 10  1  0  0  0  0
  6  5  2  0  0  0  0
  6 31  1  0  0  0  0
  7  1  1  0  0  0  0
 11  3  1  0  0  0  0
 12 11  1  0  0  0  0
 13 14  2  0  0  0  0
 13 18  1  0  0  0  0
 14 15  1  0  0  0  0
 15 27  1  0  0  0  0
 15 16  2  0  0  0  0
 16 21  1  0  0  0  0
 17 16  1  0  0  0  0
 17 22  1  0  0  0  0
 18 17  2  0  0  0  0
 19 13  1  0  0  0  0
 20 14  1  0  0  0  0
 23 25  2  0  0  0  0
 23 18  1  0  0  0  0
 23 26  1  0  0  0  0
 24 23  2  0  0  0  0
 27 28  1  0  0  0  0
 27 30  1  0  0  0  0
 29 27  1  0  0  0  0
M  RAD  3   1   2  11   2  12   3
M  END
