Coordinates from ORCA-job Ph-N2-OTs-B3LYPG-aug-cc-pVDZ-scan-d09-49-n400
 OpenBabel07022015303D

 31 30  0  0  0  0  0  0  0  0999 V2000
    0.3780    0.8115   -3.6988 C   0  0  0  0  0  0  0  0  0  0  0  0
    1.1695    1.5271   -2.7829 C   0  0  0  0  0  0  0  0  0  0  0  0
    0.8048    1.6566   -1.5867 C   0  0  0  0  0  0  0  0  0  0  0  0
   -0.3048    1.2565   -0.8799 C   0  0  0  0  0  0  0  0  0  0  0  0
   -1.1430    0.5341   -1.7667 C   0  0  0  0  0  0  0  0  0  0  0  0
   -0.8122    0.3237   -3.1194 C   0  0  0  0  0  0  0  0  0  0  0  0
    0.6367    0.6533   -4.7437 H   0  0  0  0  0  0  0  0  0  0  0  0
    2.6874    2.5546   -3.7333 H   0  0  0  0  0  0  0  0  0  0  0  0
   -0.5388    1.4258    0.1671 H   0  0  0  0  0  0  0  0  0  0  0  0
   -2.0774    0.1287   -1.3740 H   0  0  0  0  0  0  0  0  0  0  0  0
    1.7120    3.0160    1.7406 N   0  0  0  0  0  0  0  0  0  0  0  0
    2.5773    3.5487    2.1722 N   0  0  0  0  0  0  0  0  0  0  0  0
    5.3608    0.2261   -4.5486 C   0  0  0  0  0  0  0  0  0  0  0  0
    6.5438   -0.3671   -4.0989 C   0  0  0  0  0  0  0  0  0  0  0  0
    7.7499    0.3474   -4.0714 C   0  0  0  0  0  0  0  0  0  0  0  0
    7.7502    1.6823   -4.5146 C   0  0  0  0  0  0  0  0  0  0  0  0
    6.5823    2.2928   -4.9689 C   0  0  0  0  0  0  0  0  0  0  0  0
    5.3971    1.5529   -4.9760 C   0  0  0  0  0  0  0  0  0  0  0  0
    4.4286   -0.3347   -4.5846 H   0  0  0  0  0  0  0  0  0  0  0  0
    6.5258   -1.4063   -3.7688 H   0  0  0  0  0  0  0  0  0  0  0  0
    8.6815    2.2503   -4.5071 H   0  0  0  0  0  0  0  0  0  0  0  0
    6.5854    3.3209   -5.3260 H   0  0  0  0  0  0  0  0  0  0  0  0
    3.8825    2.3410   -5.5439 S   0  0  0  0  0  0  0  0  0  0  0  0
    2.8862    1.2908   -5.8752 O   0  0  0  0  0  0  0  0  0  0  0  0
    4.2299    3.4116   -6.4974 O   0  0  0  0  0  0  0  0  0  0  0  0
    3.3515    3.1252   -4.1859 O   0  0  0  0  0  0  0  0  0  0  0  0
    9.0236   -0.2907   -3.5735 C   0  0  0  0  0  0  0  0  0  0  0  0
    8.8999   -1.3704   -3.4234 H   0  0  0  0  0  0  0  0  0  0  0  0
    9.8498   -0.1325   -4.2811 H   0  0  0  0  0  0  0  0  0  0  0  0
    9.3300    0.1492   -2.6129 H   0  0  0  0  0  0  0  0  0  0  0  0
   -1.5088   -0.2346   -3.7480 H   0  0  0  0  0  0  0  0  0  0  0  0
  1  6  2  0  0  0  0
  1  2  1  0  0  0  0
  2  3  2  0  0  0  0
  3  4  1  0  0  0  0
  4  9  1  0  0  0  0
  5 10  1  0  0  0  0
  5  4  2  0  0  0  0
  6  5  1  0  0  0  0
  7  1  1  0  0  0  0
 11 12  3  0  0  0  0
 13 14  2  0  0  0  0
 14 15  1  0  0  0  0
 14 20  1  0  0  0  0
 15 27  1  0  0  0  0
 16 21  1  0  0  0  0
 16 15  2  0  0  0  0
 17 16  1  0  0  0  0
 18 17  2  0  0  0  0
 18 13  1  0  0  0  0
 19 13  1  0  0  0  0
 22 17  1  0  0  0  0
 23 18  1  0  0  0  0
 23 26  1  0  0  0  0
 24 23  2  0  0  0  0
 25 23  2  0  0  0  0
 26  8  1  0  0  0  0
 27 28  1  0  0  0  0
 27 30  1  0  0  0  0
 29 27  1  0  0  0  0
 31  6  1  0  0  0  0
M  RAD  2   2   2   3   2
M  END
