Coordinates from ORCA-job Ph-N2-OTs-B3LYPG-aug-cc-pVDZ-scan-d09-49-n400
 OpenBabel07022015303D

 31 30  0  0  0  0  0  0  0  0999 V2000
    0.3828    0.8180   -3.7089 C   0  0  0  0  0  0  0  0  0  0  0  0
    1.1779    1.5425   -2.8035 C   0  0  0  0  0  0  0  0  0  0  0  0
    0.8184    1.6835   -1.6072 C   0  0  0  0  0  0  0  0  0  0  0  0
   -0.2877    1.2908   -0.8903 C   0  0  0  0  0  0  0  0  0  0  0  0
   -1.1293    0.5596   -1.7670 C   0  0  0  0  0  0  0  0  0  0  0  0
   -0.8045    0.3360   -3.1191 C   0  0  0  0  0  0  0  0  0  0  0  0
    0.6370    0.6490   -4.7532 H   0  0  0  0  0  0  0  0  0  0  0  0
    2.6954    2.5550   -3.7739 H   0  0  0  0  0  0  0  0  0  0  0  0
   -0.5179    1.4691    0.1564 H   0  0  0  0  0  0  0  0  0  0  0  0
   -2.0617    0.1575   -1.3666 H   0  0  0  0  0  0  0  0  0  0  0  0
    1.6095    3.0044    1.9515 N   0  0  0  0  0  0  0  0  0  0  0  0
    2.4450    3.5229    2.4534 N   0  0  0  0  0  0  0  0  0  0  0  0
    5.3712    0.2111   -4.5684 C   0  0  0  0  0  0  0  0  0  0  0  0
    6.5556   -0.3730   -4.1108 C   0  0  0  0  0  0  0  0  0  0  0  0
    7.7581    0.3477   -4.0842 C   0  0  0  0  0  0  0  0  0  0  0  0
    7.7533    1.6794   -4.5368 C   0  0  0  0  0  0  0  0  0  0  0  0
    6.5841    2.2808   -4.9995 C   0  0  0  0  0  0  0  0  0  0  0  0
    5.4025    1.5350   -5.0053 C   0  0  0  0  0  0  0  0  0  0  0  0
    4.4416   -0.3541   -4.6031 H   0  0  0  0  0  0  0  0  0  0  0  0
    6.5420   -1.4099   -3.7732 H   0  0  0  0  0  0  0  0  0  0  0  0
    8.6817    2.2522   -4.5299 H   0  0  0  0  0  0  0  0  0  0  0  0
    6.5834    3.3063   -5.3639 H   0  0  0  0  0  0  0  0  0  0  0  0
    3.8859    2.3115   -5.5837 S   0  0  0  0  0  0  0  0  0  0  0  0
    2.8900    1.2547   -5.8945 O   0  0  0  0  0  0  0  0  0  0  0  0
    4.2299    3.3660   -6.5561 O   0  0  0  0  0  0  0  0  0  0  0  0
    3.3571    3.1188   -4.2381 O   0  0  0  0  0  0  0  0  0  0  0  0
    9.0332   -0.2803   -3.5769 C   0  0  0  0  0  0  0  0  0  0  0  0
    8.9152   -1.3601   -3.4226 H   0  0  0  0  0  0  0  0  0  0  0  0
    9.8620   -0.1202   -4.2809 H   0  0  0  0  0  0  0  0  0  0  0  0
    9.3318    0.1656   -2.6166 H   0  0  0  0  0  0  0  0  0  0  0  0
   -1.5040   -0.2286   -3.7389 H   0  0  0  0  0  0  0  0  0  0  0  0
  1  6  2  0  0  0  0
  1  2  1  0  0  0  0
  2  3  2  0  0  0  0
  3  4  1  0  0  0  0
  4  9  1  0  0  0  0
  5 10  1  0  0  0  0
  5  4  2  0  0  0  0
  6  5  1  0  0  0  0
  7  1  1  0  0  0  0
 11 12  3  0  0  0  0
 13 14  2  0  0  0  0
 14 15  1  0  0  0  0
 14 20  1  0  0  0  0
 15 27  1  0  0  0  0
 16 21  1  0  0  0  0
 16 15  2  0  0  0  0
 17 16  1  0  0  0  0
 18 17  2  0  0  0  0
 18 13  1  0  0  0  0
 19 13  1  0  0  0  0
 22 17  1  0  0  0  0
 23 18  1  0  0  0  0
 23 26  1  0  0  0  0
 24 23  2  0  0  0  0
 25 23  2  0  0  0  0
 26  8  1  0  0  0  0
 27 28  1  0  0  0  0
 27 30  1  0  0  0  0
 29 27  1  0  0  0  0
 31  6  1  0  0  0  0
M  RAD  2   2   2   3   2
M  END
