Coordinates from ORCA-job Ph-N2-OTs-B3LYPG-aug-cc-pVDZ-scan-d09-49-n400
 OpenBabel07022015303D

 31 30  0  0  0  0  0  0  0  0999 V2000
   -0.3238    0.1614   -2.9728 C   0  0  0  0  0  0  0  0  0  0  0  0
    0.6102    1.0453   -2.3849 C   0  0  0  0  0  0  0  0  0  0  0  0
    0.1282    2.0057   -1.7188 C   0  0  0  0  0  0  0  0  0  0  0  0
   -1.1150    2.4716   -1.3864 C   0  0  0  0  0  0  0  0  0  0  0  0
   -2.0624    1.5925   -1.9673 C   0  0  0  0  0  0  0  0  0  0  0  0
   -1.6753    0.4768   -2.7346 C   0  0  0  0  0  0  0  0  0  0  0  0
   -0.0355   -0.6982   -3.5774 H   0  0  0  0  0  0  0  0  0  0  0  0
    2.5191    0.8119   -2.7788 H   0  0  0  0  0  0  0  0  0  0  0  0
   -1.3762    3.3445   -0.7951 H   0  0  0  0  0  0  0  0  0  0  0  0
   -3.1223    1.7994   -1.8088 H   0  0  0  0  0  0  0  0  0  0  0  0
    1.6835    3.6204   -0.6728 N   0  0  0  0  0  0  0  0  0  0  0  0
    2.7545    3.8423   -0.5209 N   0  0  0  0  0  0  0  0  0  0  0  0
    6.0921   -0.1007   -4.8739 C   0  0  0  0  0  0  0  0  0  0  0  0
    7.4590   -0.3756   -4.8930 C   0  0  0  0  0  0  0  0  0  0  0  0
    8.3948    0.5405   -4.3813 C   0  0  0  0  0  0  0  0  0  0  0  0
    7.9245    1.7448   -3.8360 C   0  0  0  0  0  0  0  0  0  0  0  0
    6.5593    2.0385   -3.8032 C   0  0  0  0  0  0  0  0  0  0  0  0
    5.6609    1.1094   -4.3265 C   0  0  0  0  0  0  0  0  0  0  0  0
    5.3713   -0.8047   -5.2862 H   0  0  0  0  0  0  0  0  0  0  0  0
    7.8095   -1.3170   -5.3180 H   0  0  0  0  0  0  0  0  0  0  0  0
    8.6335    2.4699   -3.4342 H   0  0  0  0  0  0  0  0  0  0  0  0
    6.1897    2.9755   -3.3917 H   0  0  0  0  0  0  0  0  0  0  0  0
    3.9061    1.4955   -4.3170 S   0  0  0  0  0  0  0  0  0  0  0  0
    3.2425    0.8530   -5.4770 O   0  0  0  0  0  0  0  0  0  0  0  0
    3.7155    2.9464   -4.0702 O   0  0  0  0  0  0  0  0  0  0  0  0
    3.4891    0.6656   -2.9471 O   0  0  0  0  0  0  0  0  0  0  0  0
    9.8729    0.2428   -4.4489 C   0  0  0  0  0  0  0  0  0  0  0  0
   10.0744   -0.8210   -4.2647 H   0  0  0  0  0  0  0  0  0  0  0  0
   10.2728    0.4825   -5.4463 H   0  0  0  0  0  0  0  0  0  0  0  0
   10.4357    0.8348   -3.7164 H   0  0  0  0  0  0  0  0  0  0  0  0
   -2.4494   -0.1630   -3.1618 H   0  0  0  0  0  0  0  0  0  0  0  0
  1  6  2  0  0  0  0
  1  2  1  0  0  0  0
  2  3  2  0  0  0  0
  3  4  1  0  0  0  0
  4  9  1  0  0  0  0
  5 10  1  0  0  0  0
  5  4  2  0  0  0  0
  6  5  1  0  0  0  0
  7  1  1  0  0  0  0
 11 12  3  0  0  0  0
 13 18  1  0  0  0  0
 14 13  2  0  0  0  0
 14 15  1  0  0  0  0
 15 16  2  0  0  0  0
 16 17  1  0  0  0  0
 16 21  1  0  0  0  0
 17 22  1  0  0  0  0
 18 23  1  0  0  0  0
 18 17  2  0  0  0  0
 19 13  1  0  0  0  0
 20 14  1  0  0  0  0
 23 25  2  0  0  0  0
 23 26  1  0  0  0  0
 24 23  2  0  0  0  0
 26  8  1  0  0  0  0
 27 15  1  0  0  0  0
 27 28  1  0  0  0  0
 27 30  1  0  0  0  0
 29 27  1  0  0  0  0
 31  6  1  0  0  0  0
M  RAD  2   2   2   3   2
M  END
