Coordinates from ORCA-job Ph-N2-OTs-B3LYPG-aug-cc-pVDZ-scan-d09-49-n400
 OpenBabel07022015303D

 31 30  0  0  0  0  0  0  0  0999 V2000
    0.3481    0.8050   -3.6219 C   0  0  0  0  0  0  0  0  0  0  0  0
    1.1186    1.5000   -2.6702 C   0  0  0  0  0  0  0  0  0  0  0  0
    0.7069    1.6019   -1.4858 C   0  0  0  0  0  0  0  0  0  0  0  0
   -0.4238    1.1934   -0.8213 C   0  0  0  0  0  0  0  0  0  0  0  0
   -1.2356    0.4917   -1.7477 C   0  0  0  0  0  0  0  0  0  0  0  0
   -0.8609    0.3081   -3.0932 C   0  0  0  0  0  0  0  0  0  0  0  0
    0.6371    0.6707   -4.6623 H   0  0  0  0  0  0  0  0  0  0  0  0
    2.6666    2.5229   -3.5375 H   0  0  0  0  0  0  0  0  0  0  0  0
   -0.6868    1.3473    0.2213 H   0  0  0  0  0  0  0  0  0  0  0  0
   -2.1839    0.0838   -1.3930 H   0  0  0  0  0  0  0  0  0  0  0  0
    1.9898    2.9312    0.7949 N   0  0  0  0  0  0  0  0  0  0  0  0
    2.9412    3.4475    1.0127 N   0  0  0  0  0  0  0  0  0  0  0  0
    5.3546    0.2782   -4.4358 C   0  0  0  0  0  0  0  0  0  0  0  0
    6.5424   -0.3390   -4.0349 C   0  0  0  0  0  0  0  0  0  0  0  0
    7.7611    0.3547   -4.0473 C   0  0  0  0  0  0  0  0  0  0  0  0
    7.7686    1.6924   -4.4807 C   0  0  0  0  0  0  0  0  0  0  0  0
    6.5949    2.3276   -4.8846 C   0  0  0  0  0  0  0  0  0  0  0  0
    5.3980    1.6083   -4.8534 C   0  0  0  0  0  0  0  0  0  0  0  0
    4.4127   -0.2674   -4.4425 H   0  0  0  0  0  0  0  0  0  0  0  0
    6.5181   -1.3804   -3.7123 H   0  0  0  0  0  0  0  0  0  0  0  0
    8.7095    2.2440   -4.5045 H   0  0  0  0  0  0  0  0  0  0  0  0
    6.6013    3.3586   -5.2329 H   0  0  0  0  0  0  0  0  0  0  0  0
    3.8747    2.4255   -5.3521 S   0  0  0  0  0  0  0  0  0  0  0  0
    2.8812    1.3943   -5.7462 O   0  0  0  0  0  0  0  0  0  0  0  0
    4.2088    3.5596   -6.2345 O   0  0  0  0  0  0  0  0  0  0  0  0
    3.3539    3.1071   -3.9371 O   0  0  0  0  0  0  0  0  0  0  0  0
    9.0414   -0.3098   -3.6034 C   0  0  0  0  0  0  0  0  0  0  0  0
    8.9021   -1.3869   -3.4480 H   0  0  0  0  0  0  0  0  0  0  0  0
    9.8403   -0.1684   -4.3453 H   0  0  0  0  0  0  0  0  0  0  0  0
    9.3970    0.1232   -2.6568 H   0  0  0  0  0  0  0  0  0  0  0  0
   -1.5382   -0.2343   -3.7558 H   0  0  0  0  0  0  0  0  0  0  0  0
  1  6  2  0  0  0  0
  1  2  1  0  0  0  0
  2  3  2  0  0  0  0
  3  4  1  0  0  0  0
  4  9  1  0  0  0  0
  5 10  1  0  0  0  0
  5  4  2  0  0  0  0
  6  5  1  0  0  0  0
  7  1  1  0  0  0  0
 11 12  3  0  0  0  0
 13 14  2  0  0  0  0
 14 20  1  0  0  0  0
 15 14  1  0  0  0  0
 15 27  1  0  0  0  0
 16 15  2  0  0  0  0
 17 18  2  0  0  0  0
 17 16  1  0  0  0  0
 18 13  1  0  0  0  0
 19 13  1  0  0  0  0
 21 16  1  0  0  0  0
 22 17  1  0  0  0  0
 23 18  1  0  0  0  0
 23 26  1  0  0  0  0
 24 23  2  0  0  0  0
 25 23  2  0  0  0  0
 26  8  1  0  0  0  0
 27 28  1  0  0  0  0
 27 30  1  0  0  0  0
 29 27  1  0  0  0  0
 31  6  1  0  0  0  0
M  RAD  2   2   2   3   2
M  END
