Coordinates from ORCA-job Ph-N2-OTs-B3LYPG-aug-cc-pVDZ-scan-d09-49-n400
 OpenBabel07022015303D

 31 30  0  0  0  0  0  0  0  0999 V2000
    0.4014    0.8410   -3.7012 C   0  0  0  0  0  0  0  0  0  0  0  0
    1.2068    1.5835   -2.8203 C   0  0  0  0  0  0  0  0  0  0  0  0
    0.8645    1.7512   -1.6224 C   0  0  0  0  0  0  0  0  0  0  0  0
   -0.2321    1.3702   -0.8846 C   0  0  0  0  0  0  0  0  0  0  0  0
   -1.0848    0.6212   -1.7346 C   0  0  0  0  0  0  0  0  0  0  0  0
   -0.7777    0.3704   -3.0861 C   0  0  0  0  0  0  0  0  0  0  0  0
    0.6423    0.6509   -4.7450 H   0  0  0  0  0  0  0  0  0  0  0  0
    2.7207    2.5657   -3.8379 H   0  0  0  0  0  0  0  0  0  0  0  0
   -0.4477    1.5699    0.1612 H   0  0  0  0  0  0  0  0  0  0  0  0
   -2.0112    0.2259   -1.3138 H   0  0  0  0  0  0  0  0  0  0  0  0
    1.3244    2.9243    2.1821 N   0  0  0  0  0  0  0  0  0  0  0  0
    2.1008    3.3757    2.8242 N   0  0  0  0  0  0  0  0  0  0  0  0
    5.3900    0.1859   -4.6001 C   0  0  0  0  0  0  0  0  0  0  0  0
    6.5774   -0.3828   -4.1305 C   0  0  0  0  0  0  0  0  0  0  0  0
    7.7742    0.3473   -4.1099 C   0  0  0  0  0  0  0  0  0  0  0  0
    7.7611    1.6724   -4.5816 C   0  0  0  0  0  0  0  0  0  0  0  0
    6.5892    2.2581   -5.0572 C   0  0  0  0  0  0  0  0  0  0  0  0
    5.4131    1.5034   -5.0560 C   0  0  0  0  0  0  0  0  0  0  0  0
    4.4644   -0.3859   -4.6290 H   0  0  0  0  0  0  0  0  0  0  0  0
    6.5706   -1.4147   -3.7781 H   0  0  0  0  0  0  0  0  0  0  0  0
    8.6851    2.2523   -4.5795 H   0  0  0  0  0  0  0  0  0  0  0  0
    6.5827    3.2783   -5.4362 H   0  0  0  0  0  0  0  0  0  0  0  0
    3.8928    2.2598   -5.6511 S   0  0  0  0  0  0  0  0  0  0  0  0
    2.8951    1.1928   -5.9180 O   0  0  0  0  0  0  0  0  0  0  0  0
    4.2295    3.2802   -6.6616 O   0  0  0  0  0  0  0  0  0  0  0  0
    3.3736    3.1146   -4.3311 O   0  0  0  0  0  0  0  0  0  0  0  0
    9.0517   -0.2634   -3.5878 C   0  0  0  0  0  0  0  0  0  0  0  0
    8.9453   -1.3440   -3.4312 H   0  0  0  0  0  0  0  0  0  0  0  0
    9.8858   -0.0951   -4.2837 H   0  0  0  0  0  0  0  0  0  0  0  0
    9.3349    0.1889   -2.6258 H   0  0  0  0  0  0  0  0  0  0  0  0
   -1.4846   -0.2070   -3.6853 H   0  0  0  0  0  0  0  0  0  0  0  0
  1  6  2  0  0  0  0
  1  2  1  0  0  0  0
  2  3  2  0  0  0  0
  3  4  1  0  0  0  0
  4  9  1  0  0  0  0
  5 10  1  0  0  0  0
  5  4  2  0  0  0  0
  6  5  1  0  0  0  0
  7  1  1  0  0  0  0
 11 12  3  0  0  0  0
 13 14  2  0  0  0  0
 14 15  1  0  0  0  0
 14 20  1  0  0  0  0
 15 27  1  0  0  0  0
 16 21  1  0  0  0  0
 16 15  2  0  0  0  0
 17 18  2  0  0  0  0
 17 16  1  0  0  0  0
 18 13  1  0  0  0  0
 19 13  1  0  0  0  0
 22 17  1  0  0  0  0
 23 18  1  0  0  0  0
 23 26  1  0  0  0  0
 24 23  2  0  0  0  0
 25 23  2  0  0  0  0
 26  8  1  0  0  0  0
 27 28  1  0  0  0  0
 27 30  1  0  0  0  0
 29 27  1  0  0  0  0
 31  6  1  0  0  0  0
M  RAD  2   2   2   3   2
M  END
