Coordinates from ORCA-job Ph-N2-OTs-B3LYPG-aug-cc-pVDZ-scan-d09-49-n400
 OpenBabel07022015303D

 31 30  0  0  0  0  0  0  0  0999 V2000
    0.3512    0.8106   -3.6039 C   0  0  0  0  0  0  0  0  0  0  0  0
    1.1205    1.5098   -2.6524 C   0  0  0  0  0  0  0  0  0  0  0  0
    0.6969    1.6070   -1.4709 C   0  0  0  0  0  0  0  0  0  0  0  0
   -0.4332    1.1964   -0.8087 C   0  0  0  0  0  0  0  0  0  0  0  0
   -1.2396    0.4918   -1.7377 C   0  0  0  0  0  0  0  0  0  0  0  0
   -0.8585    0.3093   -3.0815 C   0  0  0  0  0  0  0  0  0  0  0  0
    0.6456    0.6762   -4.6430 H   0  0  0  0  0  0  0  0  0  0  0  0
    2.6583    2.5181   -3.5146 H   0  0  0  0  0  0  0  0  0  0  0  0
   -0.7004    1.3501    0.2329 H   0  0  0  0  0  0  0  0  0  0  0  0
   -2.1880    0.0814   -1.3864 H   0  0  0  0  0  0  0  0  0  0  0  0
    1.9946    2.9148    0.6571 N   0  0  0  0  0  0  0  0  0  0  0  0
    2.9561    3.4229    0.8486 N   0  0  0  0  0  0  0  0  0  0  0  0
    5.3570    0.2749   -4.4322 C   0  0  0  0  0  0  0  0  0  0  0  0
    6.5478   -0.3424   -4.0397 C   0  0  0  0  0  0  0  0  0  0  0  0
    7.7642    0.3554   -4.0463 C   0  0  0  0  0  0  0  0  0  0  0  0
    7.7661    1.6982   -4.4641 C   0  0  0  0  0  0  0  0  0  0  0  0
    6.5896    2.3334   -4.8595 C   0  0  0  0  0  0  0  0  0  0  0  0
    5.3950    1.6095   -4.8351 C   0  0  0  0  0  0  0  0  0  0  0  0
    4.4173   -0.2743   -4.4443 H   0  0  0  0  0  0  0  0  0  0  0  0
    6.5274   -1.3875   -3.7287 H   0  0  0  0  0  0  0  0  0  0  0  0
    8.7049    2.2534   -4.4833 H   0  0  0  0  0  0  0  0  0  0  0  0
    6.5921    3.3679   -5.1974 H   0  0  0  0  0  0  0  0  0  0  0  0
    3.8696    2.4269   -5.3289 S   0  0  0  0  0  0  0  0  0  0  0  0
    2.8767    1.3972   -5.7283 O   0  0  0  0  0  0  0  0  0  0  0  0
    4.2041    3.5641   -6.2077 O   0  0  0  0  0  0  0  0  0  0  0  0
    3.3475    3.1031   -3.9127 O   0  0  0  0  0  0  0  0  0  0  0  0
    9.0475   -0.3097   -3.6122 C   0  0  0  0  0  0  0  0  0  0  0  0
    8.9115   -1.3886   -3.4665 H   0  0  0  0  0  0  0  0  0  0  0  0
    9.8438   -0.1592   -4.3551 H   0  0  0  0  0  0  0  0  0  0  0  0
    9.4048    0.1155   -2.6627 H   0  0  0  0  0  0  0  0  0  0  0  0
   -1.5310   -0.2355   -3.7469 H   0  0  0  0  0  0  0  0  0  0  0  0
  1  6  2  0  0  0  0
  1  2  1  0  0  0  0
  2  3  2  0  0  0  0
  3  4  1  0  0  0  0
  4  9  1  0  0  0  0
  5 10  1  0  0  0  0
  5  4  2  0  0  0  0
  6  5  1  0  0  0  0
  7  1  1  0  0  0  0
 11 12  3  0  0  0  0
 13 14  2  0  0  0  0
 14 20  1  0  0  0  0
 15 14  1  0  0  0  0
 15 27  1  0  0  0  0
 16 15  2  0  0  0  0
 17 18  2  0  0  0  0
 17 16  1  0  0  0  0
 18 13  1  0  0  0  0
 19 13  1  0  0  0  0
 21 16  1  0  0  0  0
 22 17  1  0  0  0  0
 23 18  1  0  0  0  0
 23 26  1  0  0  0  0
 24 23  2  0  0  0  0
 25 23  2  0  0  0  0
 26  8  1  0  0  0  0
 27 28  1  0  0  0  0
 27 30  1  0  0  0  0
 29 27  1  0  0  0  0
 31  6  1  0  0  0  0
M  RAD  2   2   2   3   2
M  END
