Coordinates from ORCA-job Ph-N2-OTs-B3LYPG-aug-cc-pVDZ-scan-d09-49-n400
 OpenBabel07022015303D

 31 32  0  0  1  0  0  0  0  0999 V2000
    2.0176    0.4854   -1.9858 C   0  0  0  0  0  0  0  0  0  0  0  0
    1.8796    1.2121   -3.2817 C   0  0  1  0  0  0  0  0  0  0  0  0
    0.4561    1.5841   -3.5215 C   0  0  0  0  0  0  0  0  0  0  0  0
   -0.5245    1.6715   -2.4788 C   0  0  0  0  0  0  0  0  0  0  0  0
   -0.2219    1.1730   -1.2469 C   0  0  0  0  0  0  0  0  0  0  0  0
    1.0520    0.5222   -1.0353 C   0  0  0  0  0  0  0  0  0  0  0  0
    2.9574   -0.0375   -1.8142 H   0  0  0  0  0  0  0  0  0  0  0  0
    2.3144    0.6704   -4.1259 H   0  0  0  0  0  0  0  0  0  0  0  0
   -1.4912    2.1246   -2.6947 H   0  0  0  0  0  0  0  0  0  0  0  0
   -0.9490    1.2254   -0.4383 H   0  0  0  0  0  0  0  0  0  0  0  0
    0.0915    1.9173   -4.7899 N   0  0  0  0  0  0  0  0  0  0  0  0
   -0.2116    2.1924   -5.8470 N   0  0  0  0  0  0  0  0  0  0  0  0
    5.4013    0.8279   -5.0257 C   0  0  0  0  0  0  0  0  0  0  0  0
    6.5366    0.0400   -4.8284 C   0  0  0  0  0  0  0  0  0  0  0  0
    7.4382    0.3119   -3.7865 C   0  0  0  0  0  0  0  0  0  0  0  0
    7.1788    1.4051   -2.9437 C   0  0  0  0  0  0  0  0  0  0  0  0
    6.0504    2.2082   -3.1240 C   0  0  0  0  0  0  0  0  0  0  0  0
    5.1691    1.9017   -4.1629 C   0  0  0  0  0  0  0  0  0  0  0  0
    4.7106    0.6333   -5.8435 H   0  0  0  0  0  0  0  0  0  0  0  0
    6.7275   -0.7948   -5.5045 H   0  0  0  0  0  0  0  0  0  0  0  0
    7.8756    1.6360   -2.1371 H   0  0  0  0  0  0  0  0  0  0  0  0
    5.8636    3.0628   -2.4763 H   0  0  0  0  0  0  0  0  0  0  0  0
    3.7034    2.9221   -4.4003 S   0  0  0  0  0  0  0  0  0  0  0  0
    3.0526    2.5054   -5.6712 O   0  0  0  0  0  0  0  0  0  0  0  0
    4.0445    4.3344   -4.1379 O   0  0  0  0  0  0  0  0  0  0  0  0
    2.7300    2.4824   -3.1382 O   0  0  0  0  0  0  0  0  0  0  0  0
    8.6535   -0.5607   -3.5849 C   0  0  0  0  0  0  0  0  0  0  0  0
    8.3614   -1.5789   -3.2885 H   0  0  0  0  0  0  0  0  0  0  0  0
    9.2367   -0.6472   -4.5127 H   0  0  0  0  0  0  0  0  0  0  0  0
    9.3103   -0.1586   -2.8033 H   0  0  0  0  0  0  0  0  0  0  0  0
    1.2247    0.0192   -0.0825 H   0  0  0  0  0  0  0  0  0  0  0  0
  1  7  1  0  0  0  0
  1  6  2  0  0  0  0
  2  8  1  6  0  0  0
  2 26  1  0  0  0  0
  2  1  1  0  0  0  0
  3  2  1  0  0  0  0
  3  4  2  0  0  0  0
  4  5  1  0  0  0  0
  5  6  1  0  0  0  0
  5 10  1  0  0  0  0
  6 31  1  0  0  0  0
  9  4  1  0  0  0  0
 11  3  1  0  0  0  0
 12 11  1  0  0  0  0
 13 14  2  0  0  0  0
 13 18  1  0  0  0  0
 14 15  1  0  0  0  0
 15 27  1  0  0  0  0
 15 16  2  0  0  0  0
 16 21  1  0  0  0  0
 17 16  1  0  0  0  0
 17 22  1  0  0  0  0
 18 17  2  0  0  0  0
 19 13  1  0  0  0  0
 20 14  1  0  0  0  0
 23 18  1  0  0  0  0
 23 25  2  0  0  0  0
 23 26  1  0  0  0  0
 24 23  2  0  0  0  0
 27 28  1  0  0  0  0
 27 30  1  0  0  0  0
 29 27  1  0  0  0  0
M  RAD  3   5   2  11   2  12   3
M  END
