Coordinates from ORCA-job Ph-N2-OTs-B3LYPG-aug-cc-pVDZ-scan-d09-49-n400
 OpenBabel07022015303D

 31 30  0  0  0  0  0  0  0  0999 V2000
    0.3561    0.8022   -3.6745 C   0  0  0  0  0  0  0  0  0  0  0  0
    1.1364    1.5086   -2.7424 C   0  0  0  0  0  0  0  0  0  0  0  0
    0.7531    1.6361   -1.5520 C   0  0  0  0  0  0  0  0  0  0  0  0
   -0.3702    1.2395   -0.8649 C   0  0  0  0  0  0  0  0  0  0  0  0
   -1.1978    0.5254   -1.7683 C   0  0  0  0  0  0  0  0  0  0  0  0
   -0.8458    0.3186   -3.1164 C   0  0  0  0  0  0  0  0  0  0  0  0
    0.6305    0.6481   -4.7161 H   0  0  0  0  0  0  0  0  0  0  0  0
    2.6845    2.5362   -3.6597 H   0  0  0  0  0  0  0  0  0  0  0  0
   -0.6212    1.4073    0.1786 H   0  0  0  0  0  0  0  0  0  0  0  0
   -2.1411    0.1246   -1.3929 H   0  0  0  0  0  0  0  0  0  0  0  0
    1.7837    3.0223    1.4880 N   0  0  0  0  0  0  0  0  0  0  0  0
    2.6939    3.5459    1.8289 N   0  0  0  0  0  0  0  0  0  0  0  0
    5.3718    0.2387   -4.5104 C   0  0  0  0  0  0  0  0  0  0  0  0
    6.5595   -0.3614   -4.0835 C   0  0  0  0  0  0  0  0  0  0  0  0
    7.7692    0.3478   -4.0737 C   0  0  0  0  0  0  0  0  0  0  0  0
    7.7679    1.6845   -4.5112 C   0  0  0  0  0  0  0  0  0  0  0  0
    6.5948    2.3022   -4.9422 C   0  0  0  0  0  0  0  0  0  0  0  0
    5.4065    1.5674   -4.9325 C   0  0  0  0  0  0  0  0  0  0  0  0
    4.4370   -0.3185   -4.5337 H   0  0  0  0  0  0  0  0  0  0  0  0
    6.5425   -1.4019   -3.7574 H   0  0  0  0  0  0  0  0  0  0  0  0
    8.7017    2.2484   -4.5175 H   0  0  0  0  0  0  0  0  0  0  0  0
    6.5957    3.3318   -5.2950 H   0  0  0  0  0  0  0  0  0  0  0  0
    3.8853    2.3635   -5.4713 S   0  0  0  0  0  0  0  0  0  0  0  0
    2.8902    1.3185   -5.8226 O   0  0  0  0  0  0  0  0  0  0  0  0
    4.2240    3.4579   -6.4007 O   0  0  0  0  0  0  0  0  0  0  0  0
    3.3591    3.1108   -4.0906 O   0  0  0  0  0  0  0  0  0  0  0  0
    9.0484   -0.2982   -3.6007 C   0  0  0  0  0  0  0  0  0  0  0  0
    8.9219   -1.3777   -3.4516 H   0  0  0  0  0  0  0  0  0  0  0  0
    9.8626   -0.1421   -4.3225 H   0  0  0  0  0  0  0  0  0  0  0  0
    9.3741    0.1372   -2.6444 H   0  0  0  0  0  0  0  0  0  0  0  0
   -1.5352   -0.2329   -3.7588 H   0  0  0  0  0  0  0  0  0  0  0  0
  1  6  2  0  0  0  0
  1  2  1  0  0  0  0
  2  3  2  0  0  0  0
  3  4  1  0  0  0  0
  4  9  1  0  0  0  0
  5 10  1  0  0  0  0
  5  4  2  0  0  0  0
  6  5  1  0  0  0  0
  7  1  1  0  0  0  0
 11 12  3  0  0  0  0
 13 14  2  0  0  0  0
 14 15  1  0  0  0  0
 14 20  1  0  0  0  0
 15 27  1  0  0  0  0
 16 15  2  0  0  0  0
 17 18  2  0  0  0  0
 17 16  1  0  0  0  0
 18 13  1  0  0  0  0
 19 13  1  0  0  0  0
 21 16  1  0  0  0  0
 22 17  1  0  0  0  0
 23 18  1  0  0  0  0
 23 26  1  0  0  0  0
 24 23  2  0  0  0  0
 25 23  2  0  0  0  0
 26  8  1  0  0  0  0
 27 28  1  0  0  0  0
 27 30  1  0  0  0  0
 29 27  1  0  0  0  0
 31  6  1  0  0  0  0
M  RAD  2   2   2   3   2
M  END
