Coordinates from ORCA-job Ph-N2-OTs-B3LYPG-aug-cc-pVDZ-scan-d09-49-n400
 OpenBabel07022015303D

 31 30  0  0  0  0  0  0  0  0999 V2000
    0.3497    0.8047   -3.6252 C   0  0  0  0  0  0  0  0  0  0  0  0
    1.1205    1.5017   -2.6754 C   0  0  0  0  0  0  0  0  0  0  0  0
    0.7101    1.6057   -1.4908 C   0  0  0  0  0  0  0  0  0  0  0  0
   -0.4198    1.1983   -0.8242 C   0  0  0  0  0  0  0  0  0  0  0  0
   -1.2325    0.4950   -1.7489 C   0  0  0  0  0  0  0  0  0  0  0  0
   -0.8592    0.3089   -3.0944 C   0  0  0  0  0  0  0  0  0  0  0  0
    0.6387    0.6675   -4.6653 H   0  0  0  0  0  0  0  0  0  0  0  0
    2.6628    2.5225   -3.5437 H   0  0  0  0  0  0  0  0  0  0  0  0
   -0.6827    1.3535    0.2182 H   0  0  0  0  0  0  0  0  0  0  0  0
   -2.1805    0.0875   -1.3927 H   0  0  0  0  0  0  0  0  0  0  0  0
    1.9894    2.9462    0.8241 N   0  0  0  0  0  0  0  0  0  0  0  0
    2.9383    3.4646    1.0473 N   0  0  0  0  0  0  0  0  0  0  0  0
    5.3562    0.2703   -4.4468 C   0  0  0  0  0  0  0  0  0  0  0  0
    6.5450   -0.3450   -4.0459 C   0  0  0  0  0  0  0  0  0  0  0  0
    7.7610    0.3536   -4.0480 C   0  0  0  0  0  0  0  0  0  0  0  0
    7.7647    1.6949   -4.4704 C   0  0  0  0  0  0  0  0  0  0  0  0
    6.5900    2.3281   -4.8744 C   0  0  0  0  0  0  0  0  0  0  0  0
    5.3958    1.6037   -4.8538 C   0  0  0  0  0  0  0  0  0  0  0  0
    4.4168   -0.2793   -4.4619 H   0  0  0  0  0  0  0  0  0  0  0  0
    6.5239   -1.3891   -3.7315 H   0  0  0  0  0  0  0  0  0  0  0  0
    8.7033    2.2505   -4.4862 H   0  0  0  0  0  0  0  0  0  0  0  0
    6.5936    3.3616   -5.2154 H   0  0  0  0  0  0  0  0  0  0  0  0
    3.8721    2.4182   -5.3568 S   0  0  0  0  0  0  0  0  0  0  0  0
    2.8783    1.3858   -5.7472 O   0  0  0  0  0  0  0  0  0  0  0  0
    4.2073    3.5480   -6.2443 O   0  0  0  0  0  0  0  0  0  0  0  0
    3.3491    3.1067   -3.9459 O   0  0  0  0  0  0  0  0  0  0  0  0
    9.0422   -0.3093   -3.6043 C   0  0  0  0  0  0  0  0  0  0  0  0
    8.9068   -1.3882   -3.4587 H   0  0  0  0  0  0  0  0  0  0  0  0
    9.8436   -0.1581   -4.3415 H   0  0  0  0  0  0  0  0  0  0  0  0
    9.3920    0.1172   -2.6525 H   0  0  0  0  0  0  0  0  0  0  0  0
   -1.5370   -0.2349   -3.7553 H   0  0  0  0  0  0  0  0  0  0  0  0
  1  6  2  0  0  0  0
  1  2  1  0  0  0  0
  2  3  2  0  0  0  0
  3  4  1  0  0  0  0
  4  9  1  0  0  0  0
  5 10  1  0  0  0  0
  5  4  2  0  0  0  0
  6  5  1  0  0  0  0
  7  1  1  0  0  0  0
 11 12  3  0  0  0  0
 13 14  2  0  0  0  0
 14 20  1  0  0  0  0
 15 14  1  0  0  0  0
 15 27  1  0  0  0  0
 16 15  2  0  0  0  0
 17 18  2  0  0  0  0
 17 16  1  0  0  0  0
 18 13  1  0  0  0  0
 19 13  1  0  0  0  0
 21 16  1  0  0  0  0
 22 17  1  0  0  0  0
 23 18  1  0  0  0  0
 23 26  1  0  0  0  0
 24 23  2  0  0  0  0
 25 23  2  0  0  0  0
 26  8  1  0  0  0  0
 27 28  1  0  0  0  0
 27 30  1  0  0  0  0
 29 27  1  0  0  0  0
 31  6  1  0  0  0  0
M  RAD  2   2   2   3   2
M  END
