Coordinates from ORCA-job Ph-N2-OTs-B3LYPG-aug-cc-pVDZ-scan-d09-49-n400
 OpenBabel07022015303D

 31 30  0  0  0  0  0  0  0  0999 V2000
    0.4048    0.8408   -3.7030 C   0  0  0  0  0  0  0  0  0  0  0  0
    1.2101    1.5866   -2.8249 C   0  0  0  0  0  0  0  0  0  0  0  0
    0.8687    1.7565   -1.6271 C   0  0  0  0  0  0  0  0  0  0  0  0
   -0.2263    1.3754   -0.8869 C   0  0  0  0  0  0  0  0  0  0  0  0
   -1.0789    0.6231   -1.7343 C   0  0  0  0  0  0  0  0  0  0  0  0
   -0.7728    0.3697   -3.0855 C   0  0  0  0  0  0  0  0  0  0  0  0
    0.6449    0.6484   -4.7466 H   0  0  0  0  0  0  0  0  0  0  0  0
    2.7227    2.5670   -3.8454 H   0  0  0  0  0  0  0  0  0  0  0  0
   -0.4411    1.5770    0.1587 H   0  0  0  0  0  0  0  0  0  0  0  0
   -2.0041    0.2274   -1.3115 H   0  0  0  0  0  0  0  0  0  0  0  0
    1.3015    2.9265    2.2238 N   0  0  0  0  0  0  0  0  0  0  0  0
    2.0678    3.3774    2.8783 N   0  0  0  0  0  0  0  0  0  0  0  0
    5.3904    0.1844   -4.6047 C   0  0  0  0  0  0  0  0  0  0  0  0
    6.5774   -0.3838   -4.1336 C   0  0  0  0  0  0  0  0  0  0  0  0
    7.7741    0.3465   -4.1125 C   0  0  0  0  0  0  0  0  0  0  0  0
    7.7613    1.6712   -4.5853 C   0  0  0  0  0  0  0  0  0  0  0  0
    6.5897    2.2564   -5.0624 C   0  0  0  0  0  0  0  0  0  0  0  0
    5.4137    1.5016   -5.0617 C   0  0  0  0  0  0  0  0  0  0  0  0
    4.4648   -0.3874   -4.6339 H   0  0  0  0  0  0  0  0  0  0  0  0
    6.5704   -1.4154   -3.7804 H   0  0  0  0  0  0  0  0  0  0  0  0
    8.6852    2.2511   -4.5829 H   0  0  0  0  0  0  0  0  0  0  0  0
    6.5835    3.2763   -5.4422 H   0  0  0  0  0  0  0  0  0  0  0  0
    3.8938    2.2575   -5.6586 S   0  0  0  0  0  0  0  0  0  0  0  0
    2.8958    1.1904   -5.9238 O   0  0  0  0  0  0  0  0  0  0  0  0
    4.2312    3.2758   -6.6710 O   0  0  0  0  0  0  0  0  0  0  0  0
    3.3748    3.1151   -4.3405 O   0  0  0  0  0  0  0  0  0  0  0  0
    9.0513   -0.2637   -3.5888 C   0  0  0  0  0  0  0  0  0  0  0  0
    8.9448   -1.3441   -3.4313 H   0  0  0  0  0  0  0  0  0  0  0  0
    9.8858   -0.0960   -4.2842 H   0  0  0  0  0  0  0  0  0  0  0  0
    9.3336    0.1896   -2.6270 H   0  0  0  0  0  0  0  0  0  0  0  0
   -1.4795   -0.2102   -3.6825 H   0  0  0  0  0  0  0  0  0  0  0  0
  1  6  2  0  0  0  0
  1  2  1  0  0  0  0
  2  3  2  0  0  0  0
  3  4  1  0  0  0  0
  4  9  1  0  0  0  0
  5 10  1  0  0  0  0
  5  4  2  0  0  0  0
  6  5  1  0  0  0  0
  7  1  1  0  0  0  0
 11 12  3  0  0  0  0
 13 14  2  0  0  0  0
 14 15  1  0  0  0  0
 14 20  1  0  0  0  0
 15 27  1  0  0  0  0
 16 21  1  0  0  0  0
 16 15  2  0  0  0  0
 17 18  2  0  0  0  0
 17 16  1  0  0  0  0
 18 13  1  0  0  0  0
 19 13  1  0  0  0  0
 22 17  1  0  0  0  0
 23 18  1  0  0  0  0
 23 26  1  0  0  0  0
 24 23  2  0  0  0  0
 25 23  2  0  0  0  0
 26  8  1  0  0  0  0
 27 28  1  0  0  0  0
 27 30  1  0  0  0  0
 29 27  1  0  0  0  0
 31  6  1  0  0  0  0
M  RAD  2   2   2   3   2
M  END
