Coordinates from ORCA-job Ph-N2-OTs-B3LYPG-aug-cc-pVDZ-scan-d09-49-n400
 OpenBabel07022015303D

 31 31  0  0  0  0  0  0  0  0999 V2000
   -0.1456   -0.1959   -2.2814 C   0  0  0  0  0  0  0  0  0  0  0  0
    0.9018    0.7327   -2.2178 C   0  0  0  0  0  0  0  0  0  0  0  0
    0.5492    2.0253   -2.5425 C   0  0  0  0  0  0  0  0  0  0  0  0
   -0.6975    2.4934   -2.9324 C   0  0  0  0  0  0  0  0  0  0  0  0
   -1.7071    1.5284   -3.0019 C   0  0  0  0  0  0  0  0  0  0  0  0
   -1.4296    0.1950   -2.6769 C   0  0  0  0  0  0  0  0  0  0  0  0
    0.0587   -1.2347   -2.0248 H   0  0  0  0  0  0  0  0  0  0  0  0
    1.9245    0.4626   -1.9359 H   0  0  0  0  0  0  0  0  0  0  0  0
   -0.8752    3.5378   -3.1760 H   0  0  0  0  0  0  0  0  0  0  0  0
   -2.7064    1.8269   -3.3162 H   0  0  0  0  0  0  0  0  0  0  0  0
    1.6769    3.1730   -2.4467 N   0  0  0  0  0  0  0  0  0  0  0  0
    1.9112    4.2440   -2.2403 N   0  0  0  0  0  0  0  0  0  0  0  0
    5.9013   -0.0126   -3.8117 C   0  0  0  0  0  0  0  0  0  0  0  0
    7.0154   -0.3056   -4.5965 C   0  0  0  0  0  0  0  0  0  0  0  0
    8.0506    0.6304   -4.7698 C   0  0  0  0  0  0  0  0  0  0  0  0
    7.9394    1.8717   -4.1282 C   0  0  0  0  0  0  0  0  0  0  0  0
    6.8256    2.1847   -3.3404 C   0  0  0  0  0  0  0  0  0  0  0  0
    5.8157    1.2366   -3.1903 C   0  0  0  0  0  0  0  0  0  0  0  0
    5.1092   -0.7449   -3.6643 H   0  0  0  0  0  0  0  0  0  0  0  0
    7.0854   -1.2811   -5.0810 H   0  0  0  0  0  0  0  0  0  0  0  0
    8.7368    2.6087   -4.2391 H   0  0  0  0  0  0  0  0  0  0  0  0
    6.7435    3.1466   -2.8372 H   0  0  0  0  0  0  0  0  0  0  0  0
    4.3496    1.6374   -2.2107 S   0  0  0  0  0  0  0  0  0  0  0  0
    3.3028    2.0252   -3.2997 O   0  0  0  0  0  0  0  0  0  0  0  0
    4.6749    2.7999   -1.3270 O   0  0  0  0  0  0  0  0  0  0  0  0
    3.9191    0.3731   -1.5112 O   0  0  0  0  0  0  0  0  0  0  0  0
    9.2487    0.2911   -5.6237 C   0  0  0  0  0  0  0  0  0  0  0  0
    9.7405   -0.6255   -5.2668 H   0  0  0  0  0  0  0  0  0  0  0  0
    8.9537    0.1149   -6.6688 H   0  0  0  0  0  0  0  0  0  0  0  0
    9.9919    1.0990   -5.6150 H   0  0  0  0  0  0  0  0  0  0  0  0
   -2.2259   -0.5473   -2.7377 H   0  0  0  0  0  0  0  0  0  0  0  0
  1  2  1  0  0  0  0
  1  7  1  0  0  0  0
  2  8  1  0  0  0  0
  3 11  1  0  0  0  0
  3  2  2  0  0  0  0
  4  3  1  0  0  0  0
  5  4  2  0  0  0  0
  5  6  1  0  0  0  0
  6  1  2  0  0  0  0
  9  4  1  0  0  0  0
 10  5  1  0  0  0  0
 11 12  2  0  0  0  0
 13 19  1  0  0  0  0
 13 18  2  0  0  0  0
 14 13  1  0  0  0  0
 15 14  2  0  0  0  0
 15 16  1  0  0  0  0
 16 17  2  0  0  0  0
 17 18  1  0  0  0  0
 17 22  1  0  0  0  0
 18 23  1  0  0  0  0
 20 14  1  0  0  0  0
 21 16  1  0  0  0  0
 23 26  2  0  0  0  0
 23 25  1  0  0  0  0
 24 23  2  0  0  0  0
 27 30  1  0  0  0  0
 27 28  1  0  0  0  0
 27 15  1  0  0  0  0
 29 27  1  0  0  0  0
 31  6  1  0  0  0  0
M  RAD  2  12   2  25   2
M  END
