Coordinates from ORCA-job Ph-N2-OTs-B3LYPG-aug-cc-pVDZ-scan-d09-49-n400
 OpenBabel07022015303D

 31 30  0  0  0  0  0  0  0  0999 V2000
    0.5898    0.8774   -3.5901 C   0  0  0  0  0  0  0  0  0  0  0  0
    1.3618    1.7698   -2.8261 C   0  0  0  0  0  0  0  0  0  0  0  0
    1.0531    2.0248   -1.6344 C   0  0  0  0  0  0  0  0  0  0  0  0
    0.0379    1.6142   -0.8031 C   0  0  0  0  0  0  0  0  0  0  0  0
   -0.7751    0.7095   -1.5326 C   0  0  0  0  0  0  0  0  0  0  0  0
   -0.5072    0.3590   -2.8700 C   0  0  0  0  0  0  0  0  0  0  0  0
    0.8006    0.6108   -4.6237 H   0  0  0  0  0  0  0  0  0  0  0  0
    2.8590    2.6655   -3.9393 H   0  0  0  0  0  0  0  0  0  0  0  0
   -0.1524    1.8936    0.2291 H   0  0  0  0  0  0  0  0  0  0  0  0
   -1.6381    0.2732   -1.0264 H   0  0  0  0  0  0  0  0  0  0  0  0
   -0.1620    2.8797    2.9401 N   0  0  0  0  0  0  0  0  0  0  0  0
   -0.0466    3.3239    3.9443 N   0  0  0  0  0  0  0  0  0  0  0  0
    5.4238    0.1600   -4.7238 C   0  0  0  0  0  0  0  0  0  0  0  0
    6.6089   -0.4304   -4.2758 C   0  0  0  0  0  0  0  0  0  0  0  0
    7.8244    0.2675   -4.3048 C   0  0  0  0  0  0  0  0  0  0  0  0
    7.8323    1.5822   -4.8051 C   0  0  0  0  0  0  0  0  0  0  0  0
    6.6631    2.1888   -5.2603 C   0  0  0  0  0  0  0  0  0  0  0  0
    5.4679    1.4663   -5.2097 C   0  0  0  0  0  0  0  0  0  0  0  0
    4.4830   -0.3869   -4.7141 H   0  0  0  0  0  0  0  0  0  0  0  0
    6.5849   -1.4543   -3.9013 H   0  0  0  0  0  0  0  0  0  0  0  0
    8.7707    2.1374   -4.8417 H   0  0  0  0  0  0  0  0  0  0  0  0
    6.6729    3.2007   -5.6608 H   0  0  0  0  0  0  0  0  0  0  0  0
    3.9521    2.2480   -5.7839 S   0  0  0  0  0  0  0  0  0  0  0  0
    2.9152    1.2025   -5.9764 O   0  0  0  0  0  0  0  0  0  0  0  0
    4.2858    3.2163   -6.8452 O   0  0  0  0  0  0  0  0  0  0  0  0
    3.5044    3.1721   -4.4855 O   0  0  0  0  0  0  0  0  0  0  0  0
    9.0998   -0.3662   -3.8054 C   0  0  0  0  0  0  0  0  0  0  0  0
    8.9701   -1.4404   -3.6245 H   0  0  0  0  0  0  0  0  0  0  0  0
    9.9185   -0.2335   -4.5268 H   0  0  0  0  0  0  0  0  0  0  0  0
    9.4207    0.0970   -2.8606 H   0  0  0  0  0  0  0  0  0  0  0  0
   -1.1799   -0.3375   -3.3741 H   0  0  0  0  0  0  0  0  0  0  0  0
  1  6  2  0  0  0  0
  1  2  1  0  0  0  0
  2  3  2  0  0  0  0
  3  4  1  0  0  0  0
  4  9  1  0  0  0  0
  5 10  1  0  0  0  0
  5  4  2  0  0  0  0
  6  5  1  0  0  0  0
  7  1  1  0  0  0  0
 11 12  3  0  0  0  0
 13 19  1  0  0  0  0
 13 14  2  0  0  0  0
 14 20  1  0  0  0  0
 15 14  1  0  0  0  0
 15 27  1  0  0  0  0
 16 15  2  0  0  0  0
 17 18  2  0  0  0  0
 17 16  1  0  0  0  0
 18 13  1  0  0  0  0
 21 16  1  0  0  0  0
 22 17  1  0  0  0  0
 23 18  1  0  0  0  0
 23 26  1  0  0  0  0
 24 23  2  0  0  0  0
 25 23  2  0  0  0  0
 26  8  1  0  0  0  0
 27 28  1  0  0  0  0
 27 30  1  0  0  0  0
 29 27  1  0  0  0  0
 31  6  1  0  0  0  0
M  RAD  2   2   2   3   2
M  END
