Coordinates from ORCA-job Ph-N2-OTs-B3LYPG-aug-cc-pVDZ-scan-d09-49-n400
 OpenBabel07022015303D

 31 30  0  0  0  0  0  0  0  0999 V2000
    0.5465    0.8607   -3.6284 C   0  0  0  0  0  0  0  0  0  0  0  0
    1.3139    1.7302   -2.8342 C   0  0  0  0  0  0  0  0  0  0  0  0
    0.9926    1.9587   -1.6403 C   0  0  0  0  0  0  0  0  0  0  0  0
   -0.0360    1.5348   -0.8317 C   0  0  0  0  0  0  0  0  0  0  0  0
   -0.8458    0.6536   -1.5927 C   0  0  0  0  0  0  0  0  0  0  0  0
   -0.5632    0.3333   -2.9346 C   0  0  0  0  0  0  0  0  0  0  0  0
    0.7691    0.6163   -4.6650 H   0  0  0  0  0  0  0  0  0  0  0  0
    2.8181    2.6550   -3.9158 H   0  0  0  0  0  0  0  0  0  0  0  0
   -0.2342    1.7917    0.2052 H   0  0  0  0  0  0  0  0  0  0  0  0
   -1.7182    0.2116   -1.1080 H   0  0  0  0  0  0  0  0  0  0  0  0
    0.2668    2.9124    2.7377 N   0  0  0  0  0  0  0  0  0  0  0  0
    0.5904    3.4089    3.6692 N   0  0  0  0  0  0  0  0  0  0  0  0
    5.4026    0.1747   -4.6965 C   0  0  0  0  0  0  0  0  0  0  0  0
    6.5843   -0.4164   -4.2403 C   0  0  0  0  0  0  0  0  0  0  0  0
    7.7976    0.2860   -4.2473 C   0  0  0  0  0  0  0  0  0  0  0  0
    7.8069    1.6059   -4.7335 C   0  0  0  0  0  0  0  0  0  0  0  0
    6.6411    2.2133   -5.1965 C   0  0  0  0  0  0  0  0  0  0  0  0
    5.4480    1.4862   -5.1679 C   0  0  0  0  0  0  0  0  0  0  0  0
    4.4638   -0.3758   -4.7041 H   0  0  0  0  0  0  0  0  0  0  0  0
    6.5594   -1.4442   -3.8769 H   0  0  0  0  0  0  0  0  0  0  0  0
    8.7437    2.1645   -4.7529 H   0  0  0  0  0  0  0  0  0  0  0  0
    6.6520    3.2294   -5.5862 H   0  0  0  0  0  0  0  0  0  0  0  0
    3.9365    2.2694   -5.7513 S   0  0  0  0  0  0  0  0  0  0  0  0
    2.9064    1.2227   -5.9717 O   0  0  0  0  0  0  0  0  0  0  0  0
    4.2799    3.2539   -6.7944 O   0  0  0  0  0  0  0  0  0  0  0  0
    3.4678    3.1731   -4.4457 O   0  0  0  0  0  0  0  0  0  0  0  0
    9.0691   -0.3485   -3.7391 C   0  0  0  0  0  0  0  0  0  0  0  0
    8.9417   -1.4253   -3.5724 H   0  0  0  0  0  0  0  0  0  0  0  0
    9.8964   -0.2038   -4.4483 H   0  0  0  0  0  0  0  0  0  0  0  0
    9.3760    0.1049   -2.7849 H   0  0  0  0  0  0  0  0  0  0  0  0
   -1.2340   -0.3463   -3.4637 H   0  0  0  0  0  0  0  0  0  0  0  0
  1  6  2  0  0  0  0
  1  2  1  0  0  0  0
  2  3  2  0  0  0  0
  3  4  1  0  0  0  0
  4  9  1  0  0  0  0
  5 10  1  0  0  0  0
  5  4  2  0  0  0  0
  6  5  1  0  0  0  0
  7  1  1  0  0  0  0
 11 12  3  0  0  0  0
 13 14  2  0  0  0  0
 14 20  1  0  0  0  0
 15 14  1  0  0  0  0
 15 27  1  0  0  0  0
 16 15  2  0  0  0  0
 17 18  2  0  0  0  0
 17 16  1  0  0  0  0
 18 13  1  0  0  0  0
 19 13  1  0  0  0  0
 21 16  1  0  0  0  0
 22 17  1  0  0  0  0
 23 18  1  0  0  0  0
 23 26  1  0  0  0  0
 24 23  2  0  0  0  0
 25 23  2  0  0  0  0
 26  8  1  0  0  0  0
 27 28  1  0  0  0  0
 27 30  1  0  0  0  0
 29 27  1  0  0  0  0
 31  6  1  0  0  0  0
M  RAD  2   2   2   3   2
M  END
