Coordinates from ORCA-job Ph-N2-OTs-B3LYPG-aug-cc-pVDZ-scan-d09-49-n400
 OpenBabel07022015303D

 31 30  0  0  0  0  0  0  0  0999 V2000
    0.3850    0.8199   -3.7102 C   0  0  0  0  0  0  0  0  0  0  0  0
    1.1812    1.5481   -2.8085 C   0  0  0  0  0  0  0  0  0  0  0  0
    0.8219    1.6937   -1.6126 C   0  0  0  0  0  0  0  0  0  0  0  0
   -0.2836    1.3041   -0.8932 C   0  0  0  0  0  0  0  0  0  0  0  0
   -1.1259    0.5694   -1.7664 C   0  0  0  0  0  0  0  0  0  0  0  0
   -0.8018    0.3402   -3.1177 C   0  0  0  0  0  0  0  0  0  0  0  0
    0.6383    0.6468   -4.7541 H   0  0  0  0  0  0  0  0  0  0  0  0
    2.6992    2.5547   -3.7858 H   0  0  0  0  0  0  0  0  0  0  0  0
   -0.5133    1.4864    0.1529 H   0  0  0  0  0  0  0  0  0  0  0  0
   -2.0581    0.1689   -1.3637 H   0  0  0  0  0  0  0  0  0  0  0  0
    1.5609    3.0036    2.0265 N   0  0  0  0  0  0  0  0  0  0  0  0
    2.3843    3.5155    2.5543 N   0  0  0  0  0  0  0  0  0  0  0  0
    5.3764    0.2056   -4.5748 C   0  0  0  0  0  0  0  0  0  0  0  0
    6.5619   -0.3757   -4.1161 C   0  0  0  0  0  0  0  0  0  0  0  0
    7.7632    0.3470   -4.0912 C   0  0  0  0  0  0  0  0  0  0  0  0
    7.7562    1.6777   -4.5466 C   0  0  0  0  0  0  0  0  0  0  0  0
    6.5861    2.2762   -5.0107 C   0  0  0  0  0  0  0  0  0  0  0  0
    5.4056    1.5285   -5.0147 C   0  0  0  0  0  0  0  0  0  0  0  0
    4.4477   -0.3611   -4.6082 H   0  0  0  0  0  0  0  0  0  0  0  0
    6.5500   -1.4118   -3.7763 H   0  0  0  0  0  0  0  0  0  0  0  0
    8.6837    2.2520   -4.5411 H   0  0  0  0  0  0  0  0  0  0  0  0
    6.5838    3.3009   -5.3774 H   0  0  0  0  0  0  0  0  0  0  0  0
    3.8879    2.3012   -5.5955 S   0  0  0  0  0  0  0  0  0  0  0  0
    2.8922    1.2423   -5.8994 O   0  0  0  0  0  0  0  0  0  0  0  0
    4.2304    3.3504   -6.5742 O   0  0  0  0  0  0  0  0  0  0  0  0
    3.3605    3.1159   -4.2539 O   0  0  0  0  0  0  0  0  0  0  0  0
    9.0393   -0.2779   -3.5825 C   0  0  0  0  0  0  0  0  0  0  0  0
    8.9234   -1.3576   -3.4269 H   0  0  0  0  0  0  0  0  0  0  0  0
    9.8682   -0.1170   -4.2864 H   0  0  0  0  0  0  0  0  0  0  0  0
    9.3366    0.1699   -2.6227 H   0  0  0  0  0  0  0  0  0  0  0  0
   -1.5017   -0.2267   -3.7349 H   0  0  0  0  0  0  0  0  0  0  0  0
  1  6  2  0  0  0  0
  1  2  1  0  0  0  0
  2  3  2  0  0  0  0
  3  4  1  0  0  0  0
  4  9  1  0  0  0  0
  5 10  1  0  0  0  0
  5  4  2  0  0  0  0
  6  5  1  0  0  0  0
  7  1  1  0  0  0  0
 11 12  3  0  0  0  0
 13 14  2  0  0  0  0
 14 15  1  0  0  0  0
 14 20  1  0  0  0  0
 15 27  1  0  0  0  0
 16 21  1  0  0  0  0
 16 15  2  0  0  0  0
 17 16  1  0  0  0  0
 18 17  2  0  0  0  0
 18 13  1  0  0  0  0
 19 13  1  0  0  0  0
 22 17  1  0  0  0  0
 23 18  1  0  0  0  0
 23 26  1  0  0  0  0
 24 23  2  0  0  0  0
 25 23  2  0  0  0  0
 26  8  1  0  0  0  0
 27 28  1  0  0  0  0
 27 30  1  0  0  0  0
 29 27  1  0  0  0  0
 31  6  1  0  0  0  0
M  RAD  2   2   2   3   2
M  END
