Coordinates from ORCA-job Ph-N2-OTs-B3LYPG-aug-cc-pVDZ-scan-d09-49-n400
 OpenBabel07022015303D

 31 30  0  0  0  0  0  0  0  0999 V2000
    0.3722    0.8073   -3.6897 C   0  0  0  0  0  0  0  0  0  0  0  0
    1.1594    1.5186   -2.7667 C   0  0  0  0  0  0  0  0  0  0  0  0
    0.7892    1.6436   -1.5717 C   0  0  0  0  0  0  0  0  0  0  0  0
   -0.3241    1.2401   -0.8725 C   0  0  0  0  0  0  0  0  0  0  0  0
   -1.1582    0.5217   -1.7664 C   0  0  0  0  0  0  0  0  0  0  0  0
   -0.8207    0.3171   -3.1183 C   0  0  0  0  0  0  0  0  0  0  0  0
    0.6357    0.6541   -4.7341 H   0  0  0  0  0  0  0  0  0  0  0  0
    2.6820    2.5526   -3.7029 H   0  0  0  0  0  0  0  0  0  0  0  0
   -0.5635    1.4059    0.1738 H   0  0  0  0  0  0  0  0  0  0  0  0
   -2.0946    0.1151   -1.3799 H   0  0  0  0  0  0  0  0  0  0  0  0
    1.7805    3.0164    1.5901 N   0  0  0  0  0  0  0  0  0  0  0  0
    2.6714    3.5472    1.9689 N   0  0  0  0  0  0  0  0  0  0  0  0
    5.3569    0.2350   -4.5325 C   0  0  0  0  0  0  0  0  0  0  0  0
    6.5400   -0.3631   -4.0898 C   0  0  0  0  0  0  0  0  0  0  0  0
    7.7481    0.3482   -4.0639 C   0  0  0  0  0  0  0  0  0  0  0  0
    7.7501    1.6849   -4.5013 C   0  0  0  0  0  0  0  0  0  0  0  0
    6.5821    2.3005   -4.9483 C   0  0  0  0  0  0  0  0  0  0  0  0
    5.3950    1.5636   -4.9542 C   0  0  0  0  0  0  0  0  0  0  0  0
    4.4233   -0.3235   -4.5677 H   0  0  0  0  0  0  0  0  0  0  0  0
    6.5205   -1.4037   -3.7642 H   0  0  0  0  0  0  0  0  0  0  0  0
    8.6829    2.2505   -4.4951 H   0  0  0  0  0  0  0  0  0  0  0  0
    6.5862    3.3300   -5.3011 H   0  0  0  0  0  0  0  0  0  0  0  0
    3.8803    2.3579   -5.5136 S   0  0  0  0  0  0  0  0  0  0  0  0
    2.8842    1.3114   -5.8568 O   0  0  0  0  0  0  0  0  0  0  0  0
    4.2282    3.4388   -6.4552 O   0  0  0  0  0  0  0  0  0  0  0  0
    3.3487    3.1267   -4.1470 O   0  0  0  0  0  0  0  0  0  0  0  0
    9.0222   -0.2954   -3.5740 C   0  0  0  0  0  0  0  0  0  0  0  0
    8.8959   -1.3752   -3.4269 H   0  0  0  0  0  0  0  0  0  0  0  0
    9.8456   -0.1374   -4.2849 H   0  0  0  0  0  0  0  0  0  0  0  0
    9.3343    0.1404   -2.6134 H   0  0  0  0  0  0  0  0  0  0  0  0
   -1.5142   -0.2383   -3.7529 H   0  0  0  0  0  0  0  0  0  0  0  0
  1  6  2  0  0  0  0
  1  2  1  0  0  0  0
  2  3  2  0  0  0  0
  3  4  1  0  0  0  0
  4  9  1  0  0  0  0
  5 10  1  0  0  0  0
  5  4  2  0  0  0  0
  6  5  1  0  0  0  0
  7  1  1  0  0  0  0
 11 12  3  0  0  0  0
 13 14  2  0  0  0  0
 14 15  1  0  0  0  0
 14 20  1  0  0  0  0
 15 27  1  0  0  0  0
 16 21  1  0  0  0  0
 16 15  2  0  0  0  0
 17 16  1  0  0  0  0
 18 17  2  0  0  0  0
 18 13  1  0  0  0  0
 19 13  1  0  0  0  0
 22 17  1  0  0  0  0
 23 18  1  0  0  0  0
 23 26  1  0  0  0  0
 24 23  2  0  0  0  0
 25 23  2  0  0  0  0
 26  8  1  0  0  0  0
 27 28  1  0  0  0  0
 27 30  1  0  0  0  0
 29 27  1  0  0  0  0
 31  6  1  0  0  0  0
M  RAD  2   2   2   3   2
M  END
