Coordinates from ORCA-job Ph-N2-OTs-B3LYPG-aug-cc-pVDZ-scan-d09-49-n400
 OpenBabel07022015303D

 31 30  0  0  0  0  0  0  0  0999 V2000
   -0.3249    0.1598   -2.9753 C   0  0  0  0  0  0  0  0  0  0  0  0
    0.6071    1.0442   -2.3858 C   0  0  0  0  0  0  0  0  0  0  0  0
    0.1262    2.0037   -1.7184 C   0  0  0  0  0  0  0  0  0  0  0  0
   -1.1176    2.4684   -1.3855 C   0  0  0  0  0  0  0  0  0  0  0  0
   -2.0642    1.5892   -1.9678 C   0  0  0  0  0  0  0  0  0  0  0  0
   -1.6765    0.4747   -2.7364 C   0  0  0  0  0  0  0  0  0  0  0  0
   -0.0360   -0.6989   -3.5808 H   0  0  0  0  0  0  0  0  0  0  0  0
    2.5211    0.8137   -2.7790 H   0  0  0  0  0  0  0  0  0  0  0  0
   -1.3796    3.3403   -0.7933 H   0  0  0  0  0  0  0  0  0  0  0  0
   -3.1242    1.7952   -1.8092 H   0  0  0  0  0  0  0  0  0  0  0  0
    1.6874    3.6354   -0.6602 N   0  0  0  0  0  0  0  0  0  0  0  0
    2.7582    3.8601   -0.5105 N   0  0  0  0  0  0  0  0  0  0  0  0
    6.0923   -0.1011   -4.8747 C   0  0  0  0  0  0  0  0  0  0  0  0
    7.4591   -0.3766   -4.8932 C   0  0  0  0  0  0  0  0  0  0  0  0
    8.3951    0.5394   -4.3816 C   0  0  0  0  0  0  0  0  0  0  0  0
    7.9251    1.7442   -3.8372 C   0  0  0  0  0  0  0  0  0  0  0  0
    6.5601    2.0385   -3.8051 C   0  0  0  0  0  0  0  0  0  0  0  0
    5.6615    1.1095   -4.3281 C   0  0  0  0  0  0  0  0  0  0  0  0
    5.3714   -0.8050   -5.2868 H   0  0  0  0  0  0  0  0  0  0  0  0
    7.8094   -1.3184   -5.3175 H   0  0  0  0  0  0  0  0  0  0  0  0
    8.6343    2.4692   -3.4356 H   0  0  0  0  0  0  0  0  0  0  0  0
    6.1908    2.9759   -3.3941 H   0  0  0  0  0  0  0  0  0  0  0  0
    3.9069    1.4960   -4.3187 S   0  0  0  0  0  0  0  0  0  0  0  0
    3.2426    0.8520   -5.4775 O   0  0  0  0  0  0  0  0  0  0  0  0
    3.7164    2.9470   -4.0732 O   0  0  0  0  0  0  0  0  0  0  0  0
    3.4906    0.6673   -2.9474 O   0  0  0  0  0  0  0  0  0  0  0  0
    9.8732    0.2411   -4.4486 C   0  0  0  0  0  0  0  0  0  0  0  0
   10.0740   -0.8233   -4.2677 H   0  0  0  0  0  0  0  0  0  0  0  0
   10.2743    0.4840   -5.4447 H   0  0  0  0  0  0  0  0  0  0  0  0
   10.4354    0.8305   -3.7136 H   0  0  0  0  0  0  0  0  0  0  0  0
   -2.4504   -0.1650   -3.1644 H   0  0  0  0  0  0  0  0  0  0  0  0
  1  6  2  0  0  0  0
  1  2  1  0  0  0  0
  2  3  2  0  0  0  0
  3  4  1  0  0  0  0
  4  9  1  0  0  0  0
  5 10  1  0  0  0  0
  5  4  2  0  0  0  0
  6  5  1  0  0  0  0
  7  1  1  0  0  0  0
 11 12  3  0  0  0  0
 13 18  1  0  0  0  0
 14 13  2  0  0  0  0
 14 15  1  0  0  0  0
 15 16  2  0  0  0  0
 16 17  1  0  0  0  0
 16 21  1  0  0  0  0
 17 22  1  0  0  0  0
 18 23  1  0  0  0  0
 18 17  2  0  0  0  0
 19 13  1  0  0  0  0
 20 14  1  0  0  0  0
 23 25  2  0  0  0  0
 23 26  1  0  0  0  0
 24 23  2  0  0  0  0
 26  8  1  0  0  0  0
 27 15  1  0  0  0  0
 27 28  1  0  0  0  0
 27 30  1  0  0  0  0
 29 27  1  0  0  0  0
 31  6  1  0  0  0  0
M  RAD  2   2   2   3   2
M  END
