Coordinates from ORCA-job Ph-N2-OTs-B3LYPG-aug-cc-pVDZ-scan-d09-49-n400
 OpenBabel07022015303D

 31 30  0  0  0  0  0  0  0  0999 V2000
    0.3543    0.7998   -3.6577 C   0  0  0  0  0  0  0  0  0  0  0  0
    1.1276    1.5001   -2.7148 C   0  0  0  0  0  0  0  0  0  0  0  0
    0.7334    1.6186   -1.5269 C   0  0  0  0  0  0  0  0  0  0  0  0
   -0.3956    1.2171   -0.8523 C   0  0  0  0  0  0  0  0  0  0  0  0
   -1.2154    0.5089   -1.7669 C   0  0  0  0  0  0  0  0  0  0  0  0
   -0.8519    0.3117   -3.1134 C   0  0  0  0  0  0  0  0  0  0  0  0
    0.6368    0.6540   -4.6983 H   0  0  0  0  0  0  0  0  0  0  0  0
    2.6782    2.5326   -3.6128 H   0  0  0  0  0  0  0  0  0  0  0  0
   -0.6533    1.3798    0.1904 H   0  0  0  0  0  0  0  0  0  0  0  0
   -2.1618    0.1057   -1.4019 H   0  0  0  0  0  0  0  0  0  0  0  0
    1.8641    3.0172    1.2710 N   0  0  0  0  0  0  0  0  0  0  0  0
    2.8052    3.5356    1.5248 N   0  0  0  0  0  0  0  0  0  0  0  0
    5.3653    0.2520   -4.4852 C   0  0  0  0  0  0  0  0  0  0  0  0
    6.5531   -0.3553   -4.0691 C   0  0  0  0  0  0  0  0  0  0  0  0
    7.7660    0.3484   -4.0647 C   0  0  0  0  0  0  0  0  0  0  0  0
    7.7678    1.6869   -4.4963 C   0  0  0  0  0  0  0  0  0  0  0  0
    6.5945    2.3120   -4.9161 C   0  0  0  0  0  0  0  0  0  0  0  0
    5.4031    1.5825   -4.9015 C   0  0  0  0  0  0  0  0  0  0  0  0
    4.4281   -0.3012   -4.5047 H   0  0  0  0  0  0  0  0  0  0  0  0
    6.5335   -1.3972   -3.7475 H   0  0  0  0  0  0  0  0  0  0  0  0
    8.7041    2.2466   -4.5069 H   0  0  0  0  0  0  0  0  0  0  0  0
    6.5974    3.3432   -5.2642 H   0  0  0  0  0  0  0  0  0  0  0  0
    3.8815    2.3875   -5.4257 S   0  0  0  0  0  0  0  0  0  0  0  0
    2.8861    1.3483   -5.7932 O   0  0  0  0  0  0  0  0  0  0  0  0
    4.2197    3.4966   -6.3377 O   0  0  0  0  0  0  0  0  0  0  0  0
    3.3566    3.1115   -4.0323 O   0  0  0  0  0  0  0  0  0  0  0  0
    9.0457   -0.3057   -3.6040 C   0  0  0  0  0  0  0  0  0  0  0  0
    8.9145   -1.3848   -3.4560 H   0  0  0  0  0  0  0  0  0  0  0  0
    9.8545   -0.1526   -4.3326 H   0  0  0  0  0  0  0  0  0  0  0  0
    9.3821    0.1261   -2.6499 H   0  0  0  0  0  0  0  0  0  0  0  0
   -1.5356   -0.2354   -3.7656 H   0  0  0  0  0  0  0  0  0  0  0  0
  1  6  2  0  0  0  0
  1  2  1  0  0  0  0
  2  3  2  0  0  0  0
  3  4  1  0  0  0  0
  4  9  1  0  0  0  0
  5 10  1  0  0  0  0
  5  4  2  0  0  0  0
  6  5  1  0  0  0  0
  7  1  1  0  0  0  0
 11 12  3  0  0  0  0
 13 14  2  0  0  0  0
 14 15  1  0  0  0  0
 14 20  1  0  0  0  0
 15 27  1  0  0  0  0
 16 15  2  0  0  0  0
 17 18  2  0  0  0  0
 17 16  1  0  0  0  0
 18 13  1  0  0  0  0
 19 13  1  0  0  0  0
 21 16  1  0  0  0  0
 22 17  1  0  0  0  0
 23 18  1  0  0  0  0
 23 26  1  0  0  0  0
 24 23  2  0  0  0  0
 25 23  2  0  0  0  0
 26  8  1  0  0  0  0
 27 28  1  0  0  0  0
 27 30  1  0  0  0  0
 29 27  1  0  0  0  0
 31  6  1  0  0  0  0
M  RAD  2   2   2   3   2
M  END
