Coordinates from ORCA-job Ph-N2-OTs-B3LYPG-aug-cc-pVDZ-scan-d09-49-n400
 OpenBabel07022015303D

 31 30  0  0  0  0  0  0  0  0999 V2000
   -0.0186   -0.2156   -2.3656 C   0  0  0  0  0  0  0  0  0  0  0  0
    0.9515    0.8083   -2.2682 C   0  0  0  0  0  0  0  0  0  0  0  0
    0.3996    2.0139   -2.5237 C   0  0  0  0  0  0  0  0  0  0  0  0
   -0.8503    2.4524   -2.8627 C   0  0  0  0  0  0  0  0  0  0  0  0
   -1.7620    1.3832   -2.9563 C   0  0  0  0  0  0  0  0  0  0  0  0
   -1.3445    0.0700   -2.7077 C   0  0  0  0  0  0  0  0  0  0  0  0
    0.3013   -1.2390   -2.1715 H   0  0  0  0  0  0  0  0  0  0  0  0
    2.0215    0.6239   -2.0254 H   0  0  0  0  0  0  0  0  0  0  0  0
   -1.1217    3.4870   -3.0474 H   0  0  0  0  0  0  0  0  0  0  0  0
   -2.7939    1.6028   -3.2295 H   0  0  0  0  0  0  0  0  0  0  0  0
    1.6203    3.4908   -2.3659 N   0  0  0  0  0  0  0  0  0  0  0  0
    1.8348    4.5504   -2.1260 N   0  0  0  0  0  0  0  0  0  0  0  0
    5.8441    0.0421   -3.8597 C   0  0  0  0  0  0  0  0  0  0  0  0
    6.9572   -0.3047   -4.6245 C   0  0  0  0  0  0  0  0  0  0  0  0
    8.0517    0.5684   -4.7549 C   0  0  0  0  0  0  0  0  0  0  0  0
    8.0029    1.7997   -4.0872 C   0  0  0  0  0  0  0  0  0  0  0  0
    6.8927    2.1640   -3.3165 C   0  0  0  0  0  0  0  0  0  0  0  0
    5.8206    1.2800   -3.2117 C   0  0  0  0  0  0  0  0  0  0  0  0
    5.0045   -0.6417   -3.7476 H   0  0  0  0  0  0  0  0  0  0  0  0
    6.9806   -1.2733   -5.1273 H   0  0  0  0  0  0  0  0  0  0  0  0
    8.8457    2.4887   -4.1659 H   0  0  0  0  0  0  0  0  0  0  0  0
    6.8593    3.1172   -2.7915 H   0  0  0  0  0  0  0  0  0  0  0  0
    4.3508    1.7714   -2.2724 S   0  0  0  0  0  0  0  0  0  0  0  0
    3.3826    2.3108   -3.3403 O   0  0  0  0  0  0  0  0  0  0  0  0
    4.7638    2.8162   -1.2850 O   0  0  0  0  0  0  0  0  0  0  0  0
    3.7900    0.4955   -1.6612 O   0  0  0  0  0  0  0  0  0  0  0  0
    9.2460    0.1746   -5.5910 C   0  0  0  0  0  0  0  0  0  0  0  0
    9.6774   -0.7744   -5.2408 H   0  0  0  0  0  0  0  0  0  0  0  0
    8.9640    0.0330   -6.6451 H   0  0  0  0  0  0  0  0  0  0  0  0
   10.0342    0.9378   -5.5522 H   0  0  0  0  0  0  0  0  0  0  0  0
   -2.0665   -0.7426   -2.7873 H   0  0  0  0  0  0  0  0  0  0  0  0
  1  2  1  0  0  0  0
  1  7  1  0  0  0  0
  2  8  1  0  0  0  0
  3  2  2  0  0  0  0
  4  3  1  0  0  0  0
  5  4  2  0  0  0  0
  5  6  1  0  0  0  0
  6  1  2  0  0  0  0
  9  4  1  0  0  0  0
 10  5  1  0  0  0  0
 11 12  3  0  0  0  0
 13 19  1  0  0  0  0
 13 18  2  0  0  0  0
 14 13  1  0  0  0  0
 15 14  2  0  0  0  0
 15 16  1  0  0  0  0
 16 17  2  0  0  0  0
 17 18  1  0  0  0  0
 17 22  1  0  0  0  0
 18 23  1  0  0  0  0
 20 14  1  0  0  0  0
 21 16  1  0  0  0  0
 23 26  2  0  0  0  0
 23 25  1  0  0  0  0
 24 23  2  0  0  0  0
 27 30  1  0  0  0  0
 27 28  1  0  0  0  0
 27 15  1  0  0  0  0
 29 27  1  0  0  0  0
 31  6  1  0  0  0  0
M  RAD  2   3   2  25   2
M  END
