Coordinates from ORCA-job Ph-N2-OTs-B3LYPG-aug-cc-pVDZ-scan-d09-49-n400
 OpenBabel07022015303D

 31 31  0  0  0  0  0  0  0  0999 V2000
   -0.1309   -0.2016   -2.2934 C   0  0  0  0  0  0  0  0  0  0  0  0
    0.9058    0.7438   -2.2330 C   0  0  0  0  0  0  0  0  0  0  0  0
    0.5092    2.0181   -2.5471 C   0  0  0  0  0  0  0  0  0  0  0  0
   -0.7347    2.4875   -2.9211 C   0  0  0  0  0  0  0  0  0  0  0  0
   -1.7291    1.5024   -2.9843 C   0  0  0  0  0  0  0  0  0  0  0  0
   -1.4253    0.1721   -2.6711 C   0  0  0  0  0  0  0  0  0  0  0  0
    0.0946   -1.2383   -2.0463 H   0  0  0  0  0  0  0  0  0  0  0  0
    1.9391    0.4906   -1.9641 H   0  0  0  0  0  0  0  0  0  0  0  0
   -0.9286    3.5307   -3.1554 H   0  0  0  0  0  0  0  0  0  0  0  0
   -2.7367    1.7873   -3.2849 H   0  0  0  0  0  0  0  0  0  0  0  0
    1.6877    3.2424   -2.4522 N   0  0  0  0  0  0  0  0  0  0  0  0
    1.8987    4.3156   -2.2424 N   0  0  0  0  0  0  0  0  0  0  0  0
    5.8965   -0.0060   -3.8207 C   0  0  0  0  0  0  0  0  0  0  0  0
    7.0114   -0.3061   -4.6022 C   0  0  0  0  0  0  0  0  0  0  0  0
    8.0562    0.6207   -4.7667 C   0  0  0  0  0  0  0  0  0  0  0  0
    7.9546    1.8597   -4.1189 C   0  0  0  0  0  0  0  0  0  0  0  0
    6.8408    2.1793   -3.3338 C   0  0  0  0  0  0  0  0  0  0  0  0
    5.8208    1.2405   -3.1929 C   0  0  0  0  0  0  0  0  0  0  0  0
    5.0965   -0.7309   -3.6803 H   0  0  0  0  0  0  0  0  0  0  0  0
    7.0742   -1.2799   -5.0911 H   0  0  0  0  0  0  0  0  0  0  0  0
    8.7593    2.5895   -4.2231 H   0  0  0  0  0  0  0  0  0  0  0  0
    6.7668    3.1391   -2.8254 H   0  0  0  0  0  0  0  0  0  0  0  0
    4.3529    1.6542   -2.2199 S   0  0  0  0  0  0  0  0  0  0  0  0
    3.3286    2.0928   -3.3079 O   0  0  0  0  0  0  0  0  0  0  0  0
    4.6984    2.7826   -1.3012 O   0  0  0  0  0  0  0  0  0  0  0  0
    3.8860    0.3809   -1.5570 O   0  0  0  0  0  0  0  0  0  0  0  0
    9.2542    0.2743   -5.6178 C   0  0  0  0  0  0  0  0  0  0  0  0
    9.7360   -0.6487   -5.2636 H   0  0  0  0  0  0  0  0  0  0  0  0
    8.9616    0.1059   -6.6649 H   0  0  0  0  0  0  0  0  0  0  0  0
   10.0051    1.0749   -5.6023 H   0  0  0  0  0  0  0  0  0  0  0  0
   -2.2102   -0.5825   -2.7269 H   0  0  0  0  0  0  0  0  0  0  0  0
  1  2  1  0  0  0  0
  1  7  1  0  0  0  0
  2  8  1  0  0  0  0
  3 11  1  0  0  0  0
  3  2  2  0  0  0  0
  4  3  1  0  0  0  0
  5  4  2  0  0  0  0
  5  6  1  0  0  0  0
  6  1  2  0  0  0  0
  9  4  1  0  0  0  0
 10  5  1  0  0  0  0
 11 12  2  0  0  0  0
 13 19  1  0  0  0  0
 13 18  2  0  0  0  0
 14 13  1  0  0  0  0
 15 14  2  0  0  0  0
 15 16  1  0  0  0  0
 16 17  2  0  0  0  0
 17 18  1  0  0  0  0
 17 22  1  0  0  0  0
 18 23  1  0  0  0  0
 20 14  1  0  0  0  0
 21 16  1  0  0  0  0
 23 26  2  0  0  0  0
 23 25  1  0  0  0  0
 24 23  2  0  0  0  0
 27 30  1  0  0  0  0
 27 28  1  0  0  0  0
 27 15  1  0  0  0  0
 29 27  1  0  0  0  0
 31  6  1  0  0  0  0
M  RAD  2  12   2  25   2
M  END
