Coordinates from ORCA-job Ph-N2-OTs-B3LYPG-aug-cc-pVDZ-scan-d09-49-n400
 OpenBabel07022015303D

 31 30  0  0  0  0  0  0  0  0999 V2000
    0.3706    0.8056   -3.6858 C   0  0  0  0  0  0  0  0  0  0  0  0
    1.1547    1.5154   -2.7597 C   0  0  0  0  0  0  0  0  0  0  0  0
    0.7830    1.6389   -1.5653 C   0  0  0  0  0  0  0  0  0  0  0  0
   -0.3315    1.2342   -0.8684 C   0  0  0  0  0  0  0  0  0  0  0  0
   -1.1632    0.5166   -1.7653 C   0  0  0  0  0  0  0  0  0  0  0  0
   -0.8231    0.3141   -3.1170 C   0  0  0  0  0  0  0  0  0  0  0  0
    0.6364    0.6543   -4.7300 H   0  0  0  0  0  0  0  0  0  0  0  0
    2.6805    2.5527   -3.6909 H   0  0  0  0  0  0  0  0  0  0  0  0
   -0.5738    1.3982    0.1778 H   0  0  0  0  0  0  0  0  0  0  0  0
   -2.1003    0.1092   -1.3815 H   0  0  0  0  0  0  0  0  0  0  0  0
    1.8044    3.0152    1.5283 N   0  0  0  0  0  0  0  0  0  0  0  0
    2.7050    3.5450    1.8847 N   0  0  0  0  0  0  0  0  0  0  0  0
    5.3551    0.2392   -4.5256 C   0  0  0  0  0  0  0  0  0  0  0  0
    6.5381   -0.3612   -4.0858 C   0  0  0  0  0  0  0  0  0  0  0  0
    7.7473    0.3483   -4.0611 C   0  0  0  0  0  0  0  0  0  0  0  0
    7.7504    1.6856   -4.4968 C   0  0  0  0  0  0  0  0  0  0  0  0
    6.5825    2.3035   -4.9409 C   0  0  0  0  0  0  0  0  0  0  0  0
    5.3943    1.5683   -4.9457 C   0  0  0  0  0  0  0  0  0  0  0  0
    4.4207   -0.3181   -4.5600 H   0  0  0  0  0  0  0  0  0  0  0  0
    6.5176   -1.4022   -3.7615 H   0  0  0  0  0  0  0  0  0  0  0  0
    8.6841    2.2498   -4.4916 H   0  0  0  0  0  0  0  0  0  0  0  0
    6.5875    3.3335   -5.2923 H   0  0  0  0  0  0  0  0  0  0  0  0
    3.8799    2.3654   -5.5015 S   0  0  0  0  0  0  0  0  0  0  0  0
    2.8835    1.3207   -5.8495 O   0  0  0  0  0  0  0  0  0  0  0  0
    4.2281    3.4505   -6.4382 O   0  0  0  0  0  0  0  0  0  0  0  0
    3.3482    3.1282   -4.1315 O   0  0  0  0  0  0  0  0  0  0  0  0
    9.0213   -0.2978   -3.5744 C   0  0  0  0  0  0  0  0  0  0  0  0
    8.8937   -1.3776   -3.4284 H   0  0  0  0  0  0  0  0  0  0  0  0
    9.8436   -0.1401   -4.2867 H   0  0  0  0  0  0  0  0  0  0  0  0
    9.3358    0.1364   -2.6139 H   0  0  0  0  0  0  0  0  0  0  0  0
   -1.5152   -0.2407   -3.7536 H   0  0  0  0  0  0  0  0  0  0  0  0
  1  6  2  0  0  0  0
  1  2  1  0  0  0  0
  2  3  2  0  0  0  0
  3  4  1  0  0  0  0
  4  9  1  0  0  0  0
  5 10  1  0  0  0  0
  5  4  2  0  0  0  0
  6  5  1  0  0  0  0
  7  1  1  0  0  0  0
 11 12  3  0  0  0  0
 13 14  2  0  0  0  0
 14 15  1  0  0  0  0
 14 20  1  0  0  0  0
 15 27  1  0  0  0  0
 16 21  1  0  0  0  0
 16 15  2  0  0  0  0
 17 16  1  0  0  0  0
 18 17  2  0  0  0  0
 18 13  1  0  0  0  0
 19 13  1  0  0  0  0
 22 17  1  0  0  0  0
 23 18  1  0  0  0  0
 23 26  1  0  0  0  0
 24 23  2  0  0  0  0
 25 23  2  0  0  0  0
 26  8  1  0  0  0  0
 27 28  1  0  0  0  0
 27 30  1  0  0  0  0
 29 27  1  0  0  0  0
 31  6  1  0  0  0  0
M  RAD  2   2   2   3   2
M  END
