Coordinates from ORCA-job Ph-N2-OTs-B3LYPG-aug-cc-pVDZ-scan-d09-49-n400
 OpenBabel07022015303D

 31 32  0  0  1  0  0  0  0  0999 V2000
    2.0276    0.4867   -1.9993 C   0  0  0  0  0  0  0  0  0  0  0  0
    1.8803    1.2187   -3.2916 C   0  0  1  0  0  0  0  0  0  0  0  0
    0.4525    1.5898   -3.5269 C   0  0  0  0  0  0  0  0  0  0  0  0
   -0.5194    1.6712   -2.4725 C   0  0  0  0  0  0  0  0  0  0  0  0
   -0.2081    1.1684   -1.2455 C   0  0  0  0  0  0  0  0  0  0  0  0
    1.0681    0.5175   -1.0434 C   0  0  0  0  0  0  0  0  0  0  0  0
    2.9699   -0.0345   -1.8358 H   0  0  0  0  0  0  0  0  0  0  0  0
    2.3090    0.6785   -4.1402 H   0  0  0  0  0  0  0  0  0  0  0  0
   -1.4881    2.1246   -2.6793 H   0  0  0  0  0  0  0  0  0  0  0  0
   -0.9300    1.2168   -0.4320 H   0  0  0  0  0  0  0  0  0  0  0  0
    0.0854    1.9172   -4.7746 N   0  0  0  0  0  0  0  0  0  0  0  0
   -0.2241    2.1916   -5.8316 N   0  0  0  0  0  0  0  0  0  0  0  0
    5.4014    0.8290   -5.0282 C   0  0  0  0  0  0  0  0  0  0  0  0
    6.5350    0.0398   -4.8260 C   0  0  0  0  0  0  0  0  0  0  0  0
    7.4323    0.3106   -3.7801 C   0  0  0  0  0  0  0  0  0  0  0  0
    7.1705    1.4041   -2.9385 C   0  0  0  0  0  0  0  0  0  0  0  0
    6.0439    2.2085   -3.1236 C   0  0  0  0  0  0  0  0  0  0  0  0
    5.1668    1.9030   -4.1664 C   0  0  0  0  0  0  0  0  0  0  0  0
    4.7139    0.6353   -5.8489 H   0  0  0  0  0  0  0  0  0  0  0  0
    6.7279   -0.7951   -5.5014 H   0  0  0  0  0  0  0  0  0  0  0  0
    7.8642    1.6342   -2.1290 H   0  0  0  0  0  0  0  0  0  0  0  0
    5.8555    3.0634   -2.4767 H   0  0  0  0  0  0  0  0  0  0  0  0
    3.7036    2.9252   -4.4104 S   0  0  0  0  0  0  0  0  0  0  0  0
    3.0564    2.5081   -5.6826 O   0  0  0  0  0  0  0  0  0  0  0  0
    4.0444    4.3371   -4.1462 O   0  0  0  0  0  0  0  0  0  0  0  0
    2.7250    2.4877   -3.1499 O   0  0  0  0  0  0  0  0  0  0  0  0
    8.6457   -0.5633   -3.5732 C   0  0  0  0  0  0  0  0  0  0  0  0
    8.3511   -1.5798   -3.2730 H   0  0  0  0  0  0  0  0  0  0  0  0
    9.2301   -0.6549   -4.4997 H   0  0  0  0  0  0  0  0  0  0  0  0
    9.3020   -0.1594   -2.7921 H   0  0  0  0  0  0  0  0  0  0  0  0
    1.2466    0.0110   -0.0936 H   0  0  0  0  0  0  0  0  0  0  0  0
  1  7  1  0  0  0  0
  1  6  2  0  0  0  0
  2  8  1  6  0  0  0
  2 26  1  0  0  0  0
  2  1  1  0  0  0  0
  3  2  1  0  0  0  0
  3  4  2  0  0  0  0
  4  5  1  0  0  0  0
  5  6  1  0  0  0  0
  5 10  1  0  0  0  0
  6 31  1  0  0  0  0
  9  4  1  0  0  0  0
 11  3  1  0  0  0  0
 12 11  1  0  0  0  0
 13 14  2  0  0  0  0
 13 18  1  0  0  0  0
 14 15  1  0  0  0  0
 15 27  1  0  0  0  0
 15 16  2  0  0  0  0
 16 21  1  0  0  0  0
 17 16  1  0  0  0  0
 17 22  1  0  0  0  0
 18 17  2  0  0  0  0
 19 13  1  0  0  0  0
 20 14  1  0  0  0  0
 23 18  1  0  0  0  0
 23 25  2  0  0  0  0
 23 26  1  0  0  0  0
 24 23  2  0  0  0  0
 27 28  1  0  0  0  0
 27 30  1  0  0  0  0
 29 27  1  0  0  0  0
M  RAD  3   5   2  11   2  12   3
M  END
