Coordinates from ORCA-job Ph-N2-OTs-B3LYPG-aug-cc-pVDZ-scan-d09-49-n400
 OpenBabel07022015303D

 31 30  0  0  0  0  0  0  0  0999 V2000
   -0.0131    0.9130   -3.4702 C   0  0  0  0  0  0  0  0  0  0  0  0
    0.7428    1.4869   -2.4235 C   0  0  0  0  0  0  0  0  0  0  0  0
    0.1265    1.8316   -1.3782 C   0  0  0  0  0  0  0  0  0  0  0  0
   -1.1736    1.8117   -0.9450 C   0  0  0  0  0  0  0  0  0  0  0  0
   -1.9563    1.2445   -1.9814 C   0  0  0  0  0  0  0  0  0  0  0  0
   -1.3920    0.8142   -3.1983 C   0  0  0  0  0  0  0  0  0  0  0  0
    0.4235    0.5756   -4.4093 H   0  0  0  0  0  0  0  0  0  0  0  0
    2.6464    1.7429   -2.8454 H   0  0  0  0  0  0  0  0  0  0  0  0
   -1.5740    2.1517    0.0056 H   0  0  0  0  0  0  0  0  0  0  0  0
   -3.0308    1.1413   -1.8175 H   0  0  0  0  0  0  0  0  0  0  0  0
    1.3606    2.8941    0.6154 N   0  0  0  0  0  0  0  0  0  0  0  0
    2.3716    3.2249    0.9121 N   0  0  0  0  0  0  0  0  0  0  0  0
    5.9649   -0.1453   -4.1934 C   0  0  0  0  0  0  0  0  0  0  0  0
    7.3168   -0.4879   -4.1239 C   0  0  0  0  0  0  0  0  0  0  0  0
    8.3222    0.4564   -4.3858 C   0  0  0  0  0  0  0  0  0  0  0  0
    7.9393    1.7627   -4.7331 C   0  0  0  0  0  0  0  0  0  0  0  0
    6.5944    2.1261   -4.8096 C   0  0  0  0  0  0  0  0  0  0  0  0
    5.6223    1.1630   -4.5348 C   0  0  0  0  0  0  0  0  0  0  0  0
    5.1892   -0.8837   -3.9970 H   0  0  0  0  0  0  0  0  0  0  0  0
    7.5934   -1.5095   -3.8614 H   0  0  0  0  0  0  0  0  0  0  0  0
    8.7041    2.5098   -4.9513 H   0  0  0  0  0  0  0  0  0  0  0  0
    6.2950    3.1335   -5.0917 H   0  0  0  0  0  0  0  0  0  0  0  0
    3.8889    1.6233   -4.6339 S   0  0  0  0  0  0  0  0  0  0  0  0
    3.0642    0.4557   -5.0419 O   0  0  0  0  0  0  0  0  0  0  0  0
    3.7678    2.9021   -5.3694 O   0  0  0  0  0  0  0  0  0  0  0  0
    3.6108    1.8972   -3.0267 O   0  0  0  0  0  0  0  0  0  0  0  0
    9.7818    0.0850   -4.2878 C   0  0  0  0  0  0  0  0  0  0  0  0
    9.9130   -1.0013   -4.2068 H   0  0  0  0  0  0  0  0  0  0  0  0
   10.3435    0.4358   -5.1649 H   0  0  0  0  0  0  0  0  0  0  0  0
   10.2437    0.5474   -3.4026 H   0  0  0  0  0  0  0  0  0  0  0  0
   -2.0475    0.3885   -3.9604 H   0  0  0  0  0  0  0  0  0  0  0  0
  1  6  2  0  0  0  0
  1  2  1  0  0  0  0
  2  3  2  0  0  0  0
  3  4  1  0  0  0  0
  4  9  1  0  0  0  0
  5 10  1  0  0  0  0
  5  4  2  0  0  0  0
  6  5  1  0  0  0  0
  7  1  1  0  0  0  0
 11 12  3  0  0  0  0
 13 14  1  0  0  0  0
 13 19  1  0  0  0  0
 14 20  1  0  0  0  0
 15 27  1  0  0  0  0
 15 14  2  0  0  0  0
 16 15  1  0  0  0  0
 17 16  2  0  0  0  0
 17 18  1  0  0  0  0
 18 13  2  0  0  0  0
 21 16  1  0  0  0  0
 22 17  1  0  0  0  0
 23 18  1  0  0  0  0
 23 26  1  0  0  0  0
 24 23  2  0  0  0  0
 25 23  2  0  0  0  0
 26  8  1  0  0  0  0
 27 28  1  0  0  0  0
 27 30  1  0  0  0  0
 29 27  1  0  0  0  0
 31  6  1  0  0  0  0
M  RAD  2   2   2   3   2
M  END
