Coordinates from ORCA-job Ph-N2-OTs-B3LYPG-aug-cc-pVDZ-scan-d09-49-n400
 OpenBabel07022015303D

 31 30  0  0  0  0  0  0  0  0999 V2000
    0.5921    0.8781   -3.5881 C   0  0  0  0  0  0  0  0  0  0  0  0
    1.3640    1.7717   -2.8253 C   0  0  0  0  0  0  0  0  0  0  0  0
    1.0555    2.0278   -1.6338 C   0  0  0  0  0  0  0  0  0  0  0  0
    0.0408    1.6176   -0.8016 C   0  0  0  0  0  0  0  0  0  0  0  0
   -0.7720    0.7117   -1.5299 C   0  0  0  0  0  0  0  0  0  0  0  0
   -0.5044    0.3599   -2.8670 C   0  0  0  0  0  0  0  0  0  0  0  0
    0.8025    0.6105   -4.6214 H   0  0  0  0  0  0  0  0  0  0  0  0
    2.8607    2.6661   -3.9399 H   0  0  0  0  0  0  0  0  0  0  0  0
   -0.1493    1.8980    0.2303 H   0  0  0  0  0  0  0  0  0  0  0  0
   -1.6346    0.2756   -1.0228 H   0  0  0  0  0  0  0  0  0  0  0  0
   -0.1801    2.8783    2.9467 N   0  0  0  0  0  0  0  0  0  0  0  0
   -0.0730    3.3196    3.9530 N   0  0  0  0  0  0  0  0  0  0  0  0
    5.4245    0.1596   -4.7247 C   0  0  0  0  0  0  0  0  0  0  0  0
    6.6097   -0.4309   -4.2771 C   0  0  0  0  0  0  0  0  0  0  0  0
    7.8254    0.2667   -4.3072 C   0  0  0  0  0  0  0  0  0  0  0  0
    7.8333    1.5811   -4.8082 C   0  0  0  0  0  0  0  0  0  0  0  0
    6.6639    2.1878   -5.2630 C   0  0  0  0  0  0  0  0  0  0  0  0
    5.4686    1.4656   -5.2113 C   0  0  0  0  0  0  0  0  0  0  0  0
    4.4836   -0.3872   -4.7142 H   0  0  0  0  0  0  0  0  0  0  0  0
    6.5858   -1.4546   -3.9021 H   0  0  0  0  0  0  0  0  0  0  0  0
    8.7718    2.1360   -4.8456 H   0  0  0  0  0  0  0  0  0  0  0  0
    6.6738    3.1995   -5.6640 H   0  0  0  0  0  0  0  0  0  0  0  0
    3.9526    2.2474   -5.7849 S   0  0  0  0  0  0  0  0  0  0  0  0
    2.9154    1.2019   -5.9763 O   0  0  0  0  0  0  0  0  0  0  0  0
    4.2859    3.2150   -6.8470 O   0  0  0  0  0  0  0  0  0  0  0  0
    3.5059    3.1722   -4.4868 O   0  0  0  0  0  0  0  0  0  0  0  0
    9.1010   -0.3672   -3.8084 C   0  0  0  0  0  0  0  0  0  0  0  0
    8.9710   -1.4412   -3.6268 H   0  0  0  0  0  0  0  0  0  0  0  0
    9.9192   -0.2351   -4.5304 H   0  0  0  0  0  0  0  0  0  0  0  0
    9.4226    0.0965   -2.8641 H   0  0  0  0  0  0  0  0  0  0  0  0
   -1.1770   -0.3374   -3.3701 H   0  0  0  0  0  0  0  0  0  0  0  0
  1  6  2  0  0  0  0
  1  2  1  0  0  0  0
  2  3  2  0  0  0  0
  3  4  1  0  0  0  0
  4  9  1  0  0  0  0
  5 10  1  0  0  0  0
  5  4  2  0  0  0  0
  6  5  1  0  0  0  0
  7  1  1  0  0  0  0
 11 12  3  0  0  0  0
 13 19  1  0  0  0  0
 13 14  2  0  0  0  0
 14 20  1  0  0  0  0
 15 14  1  0  0  0  0
 15 27  1  0  0  0  0
 16 15  2  0  0  0  0
 17 18  2  0  0  0  0
 17 16  1  0  0  0  0
 18 13  1  0  0  0  0
 21 16  1  0  0  0  0
 22 17  1  0  0  0  0
 23 18  1  0  0  0  0
 23 26  1  0  0  0  0
 24 23  2  0  0  0  0
 25 23  2  0  0  0  0
 26  8  1  0  0  0  0
 27 28  1  0  0  0  0
 27 30  1  0  0  0  0
 29 27  1  0  0  0  0
 31  6  1  0  0  0  0
M  RAD  2   2   2   3   2
M  END
