Coordinates from ORCA-job Ph-N2-OTs-B3LYPG-aug-cc-pVDZ-scan-d09-49-n400
 OpenBabel07022015303D

 31 30  0  0  0  0  0  0  0  0999 V2000
    0.0547   -0.2202   -2.4101 C   0  0  0  0  0  0  0  0  0  0  0  0
    0.9842    0.8398   -2.2617 C   0  0  0  0  0  0  0  0  0  0  0  0
    0.3738    2.0121   -2.4943 C   0  0  0  0  0  0  0  0  0  0  0  0
   -0.8765    2.4289   -2.8439 C   0  0  0  0  0  0  0  0  0  0  0  0
   -1.7420    1.3246   -2.9858 C   0  0  0  0  0  0  0  0  0  0  0  0
   -1.2754    0.0224   -2.7682 C   0  0  0  0  0  0  0  0  0  0  0  0
    0.4160   -1.2347   -2.2427 H   0  0  0  0  0  0  0  0  0  0  0  0
    2.0683    0.6862   -2.0085 H   0  0  0  0  0  0  0  0  0  0  0  0
   -1.1832    3.4577   -3.0031 H   0  0  0  0  0  0  0  0  0  0  0  0
   -2.7772    1.5128   -3.2707 H   0  0  0  0  0  0  0  0  0  0  0  0
    1.5618    3.5937   -2.2531 N   0  0  0  0  0  0  0  0  0  0  0  0
    1.8106    4.6350   -1.9783 N   0  0  0  0  0  0  0  0  0  0  0  0
    5.8082    0.0663   -3.8606 C   0  0  0  0  0  0  0  0  0  0  0  0
    6.9158   -0.3084   -4.6209 C   0  0  0  0  0  0  0  0  0  0  0  0
    8.0286    0.5406   -4.7538 C   0  0  0  0  0  0  0  0  0  0  0  0
    8.0044    1.7763   -4.0933 C   0  0  0  0  0  0  0  0  0  0  0  0
    6.9009    2.1674   -3.3261 C   0  0  0  0  0  0  0  0  0  0  0  0
    5.8092    1.3077   -3.2191 C   0  0  0  0  0  0  0  0  0  0  0  0
    4.9544   -0.5994   -3.7473 H   0  0  0  0  0  0  0  0  0  0  0  0
    6.9209   -1.2803   -5.1179 H   0  0  0  0  0  0  0  0  0  0  0  0
    8.8614    2.4471   -4.1749 H   0  0  0  0  0  0  0  0  0  0  0  0
    6.8863    3.1233   -2.8055 H   0  0  0  0  0  0  0  0  0  0  0  0
    4.3488    1.8450   -2.2886 S   0  0  0  0  0  0  0  0  0  0  0  0
    3.3916    2.4100   -3.3399 O   0  0  0  0  0  0  0  0  0  0  0  0
    4.7981    2.8626   -1.2884 O   0  0  0  0  0  0  0  0  0  0  0  0
    3.7572    0.5754   -1.6745 O   0  0  0  0  0  0  0  0  0  0  0  0
    9.2168    0.1165   -5.5838 C   0  0  0  0  0  0  0  0  0  0  0  0
    9.6393   -0.8294   -5.2145 H   0  0  0  0  0  0  0  0  0  0  0  0
    8.9313   -0.0444   -6.6341 H   0  0  0  0  0  0  0  0  0  0  0  0
   10.0130    0.8721   -5.5629 H   0  0  0  0  0  0  0  0  0  0  0  0
   -1.9620   -0.8157   -2.8856 H   0  0  0  0  0  0  0  0  0  0  0  0
  1  2  1  0  0  0  0
  1  7  1  0  0  0  0
  2  8  1  0  0  0  0
  3  2  2  0  0  0  0
  4  3  1  0  0  0  0
  5  4  2  0  0  0  0
  5  6  1  0  0  0  0
  6  1  2  0  0  0  0
  9  4  1  0  0  0  0
 10  5  1  0  0  0  0
 11 12  3  0  0  0  0
 13 19  1  0  0  0  0
 13 18  2  0  0  0  0
 14 13  1  0  0  0  0
 15 14  2  0  0  0  0
 15 16  1  0  0  0  0
 16 17  2  0  0  0  0
 17 18  1  0  0  0  0
 17 22  1  0  0  0  0
 18 23  1  0  0  0  0
 20 14  1  0  0  0  0
 21 16  1  0  0  0  0
 23 26  2  0  0  0  0
 23 25  1  0  0  0  0
 24 23  2  0  0  0  0
 27 30  1  0  0  0  0
 27 28  1  0  0  0  0
 27 15  1  0  0  0  0
 29 27  1  0  0  0  0
 31  6  1  0  0  0  0
M  RAD  2   3   2  25   2
M  END
