Coordinates from ORCA-job Ph-N2-OTs-B3LYPG-aug-cc-pVDZ-scan-d09-49-n400
 OpenBabel07022015303D

 31 30  0  0  0  0  0  0  0  0999 V2000
    0.4211    0.8442   -3.7040 C   0  0  0  0  0  0  0  0  0  0  0  0
    1.2274    1.6047   -2.8395 C   0  0  0  0  0  0  0  0  0  0  0  0
    0.8909    1.7879   -1.6422 C   0  0  0  0  0  0  0  0  0  0  0  0
   -0.1978    1.4102   -0.8913 C   0  0  0  0  0  0  0  0  0  0  0  0
   -1.0510    0.6432   -1.7249 C   0  0  0  0  0  0  0  0  0  0  0  0
   -0.7508    0.3748   -3.0745 C   0  0  0  0  0  0  0  0  0  0  0  0
    0.6568    0.6400   -4.7464 H   0  0  0  0  0  0  0  0  0  0  0  0
    2.7374    2.5712   -3.8765 H   0  0  0  0  0  0  0  0  0  0  0  0
   -0.4085    1.6228    0.1530 H   0  0  0  0  0  0  0  0  0  0  0  0
   -1.9719    0.2478   -1.2923 H   0  0  0  0  0  0  0  0  0  0  0  0
    1.1333    2.9254    2.4231 N   0  0  0  0  0  0  0  0  0  0  0  0
    1.8374    3.3707    3.1475 N   0  0  0  0  0  0  0  0  0  0  0  0
    5.3994    0.1740   -4.6262 C   0  0  0  0  0  0  0  0  0  0  0  0
    6.5870   -0.3906   -4.1521 C   0  0  0  0  0  0  0  0  0  0  0  0
    7.7829    0.3410   -4.1344 C   0  0  0  0  0  0  0  0  0  0  0  0
    7.7688    1.6632   -4.6142 C   0  0  0  0  0  0  0  0  0  0  0  0
    6.5969    2.2447   -5.0946 C   0  0  0  0  0  0  0  0  0  0  0  0
    5.4215    1.4888   -5.0901 C   0  0  0  0  0  0  0  0  0  0  0  0
    4.4743   -0.3986   -4.6523 H   0  0  0  0  0  0  0  0  0  0  0  0
    6.5811   -1.4204   -3.7934 H   0  0  0  0  0  0  0  0  0  0  0  0
    8.6922    2.2442   -4.6145 H   0  0  0  0  0  0  0  0  0  0  0  0
    6.5898    3.2626   -5.4797 H   0  0  0  0  0  0  0  0  0  0  0  0
    3.9011    2.2401   -5.6913 S   0  0  0  0  0  0  0  0  0  0  0  0
    2.9010    1.1714   -5.9420 O   0  0  0  0  0  0  0  0  0  0  0  0
    4.2369    3.2466   -6.7158 O   0  0  0  0  0  0  0  0  0  0  0  0
    3.3870    3.1134   -4.3816 O   0  0  0  0  0  0  0  0  0  0  0  0
    9.0605   -0.2650   -3.6071 C   0  0  0  0  0  0  0  0  0  0  0  0
    8.9552   -1.3448   -3.4442 H   0  0  0  0  0  0  0  0  0  0  0  0
    9.8953   -0.0999   -4.3029 H   0  0  0  0  0  0  0  0  0  0  0  0
    9.3419    0.1934   -2.6474 H   0  0  0  0  0  0  0  0  0  0  0  0
   -1.4576   -0.2160   -3.6605 H   0  0  0  0  0  0  0  0  0  0  0  0
  1  6  2  0  0  0  0
  1  2  1  0  0  0  0
  2  3  2  0  0  0  0
  3  4  1  0  0  0  0
  4  9  1  0  0  0  0
  5 10  1  0  0  0  0
  5  4  2  0  0  0  0
  6  5  1  0  0  0  0
  7  1  1  0  0  0  0
 11 12  3  0  0  0  0
 13 14  2  0  0  0  0
 14 15  1  0  0  0  0
 14 20  1  0  0  0  0
 15 27  1  0  0  0  0
 16 15  2  0  0  0  0
 17 18  2  0  0  0  0
 17 16  1  0  0  0  0
 18 13  1  0  0  0  0
 19 13  1  0  0  0  0
 21 16  1  0  0  0  0
 22 17  1  0  0  0  0
 23 18  1  0  0  0  0
 23 26  1  0  0  0  0
 24 23  2  0  0  0  0
 25 23  2  0  0  0  0
 26  8  1  0  0  0  0
 27 28  1  0  0  0  0
 27 30  1  0  0  0  0
 29 27  1  0  0  0  0
 31  6  1  0  0  0  0
M  RAD  2   2   2   3   2
M  END
