Coordinates from ORCA-job Ph-N2-OTs-B3LYPG-aug-cc-pVDZ-scan-d09-49-n400
 OpenBabel07022015303D

 31 30  0  0  0  0  0  0  0  0999 V2000
    0.3549    0.8000   -3.6607 C   0  0  0  0  0  0  0  0  0  0  0  0
    1.1289    1.5021   -2.7199 C   0  0  0  0  0  0  0  0  0  0  0  0
    0.7371    1.6227   -1.5314 C   0  0  0  0  0  0  0  0  0  0  0  0
   -0.3909    1.2216   -0.8547 C   0  0  0  0  0  0  0  0  0  0  0  0
   -1.2119    0.5117   -1.7670 C   0  0  0  0  0  0  0  0  0  0  0  0
   -0.8504    0.3124   -3.1137 C   0  0  0  0  0  0  0  0  0  0  0  0
    0.6359    0.6525   -4.7014 H   0  0  0  0  0  0  0  0  0  0  0  0
    2.6797    2.5338   -3.6218 H   0  0  0  0  0  0  0  0  0  0  0  0
   -0.6475    1.3851    0.1881 H   0  0  0  0  0  0  0  0  0  0  0  0
   -2.1576    0.1087   -1.3999 H   0  0  0  0  0  0  0  0  0  0  0  0
    1.8485    3.0185    1.3112 N   0  0  0  0  0  0  0  0  0  0  0  0
    2.7840    3.5379    1.5831 N   0  0  0  0  0  0  0  0  0  0  0  0
    5.3664    0.2496   -4.4904 C   0  0  0  0  0  0  0  0  0  0  0  0
    6.5541   -0.3565   -4.0721 C   0  0  0  0  0  0  0  0  0  0  0  0
    7.7665    0.3482   -4.0664 C   0  0  0  0  0  0  0  0  0  0  0  0
    7.7678    1.6864   -4.4989 C   0  0  0  0  0  0  0  0  0  0  0  0
    6.5946    2.3103   -4.9209 C   0  0  0  0  0  0  0  0  0  0  0  0
    5.4038    1.5798   -4.9075 C   0  0  0  0  0  0  0  0  0  0  0  0
    4.4296   -0.3044   -4.5108 H   0  0  0  0  0  0  0  0  0  0  0  0
    6.5349   -1.3982   -3.7500 H   0  0  0  0  0  0  0  0  0  0  0  0
    8.7037    2.2469   -4.5085 H   0  0  0  0  0  0  0  0  0  0  0  0
    6.5972    3.3412   -5.2698 H   0  0  0  0  0  0  0  0  0  0  0  0
    3.8824    2.3833   -5.4346 S   0  0  0  0  0  0  0  0  0  0  0  0
    2.8869    1.3431   -5.7989 O   0  0  0  0  0  0  0  0  0  0  0  0
    4.2207    3.4896   -6.3499 O   0  0  0  0  0  0  0  0  0  0  0  0
    3.3573    3.1118   -4.0436 O   0  0  0  0  0  0  0  0  0  0  0  0
    9.0460   -0.3045   -3.6033 C   0  0  0  0  0  0  0  0  0  0  0  0
    8.9156   -1.3837   -3.4552 H   0  0  0  0  0  0  0  0  0  0  0  0
    9.8559   -0.1508   -4.3305 H   0  0  0  0  0  0  0  0  0  0  0  0
    9.3803    0.1278   -2.6487 H   0  0  0  0  0  0  0  0  0  0  0  0
   -1.5350   -0.2360   -3.7639 H   0  0  0  0  0  0  0  0  0  0  0  0
  1  6  2  0  0  0  0
  1  2  1  0  0  0  0
  2  3  2  0  0  0  0
  3  4  1  0  0  0  0
  4  9  1  0  0  0  0
  5 10  1  0  0  0  0
  5  4  2  0  0  0  0
  6  5  1  0  0  0  0
  7  1  1  0  0  0  0
 11 12  3  0  0  0  0
 13 14  2  0  0  0  0
 14 15  1  0  0  0  0
 14 20  1  0  0  0  0
 15 27  1  0  0  0  0
 16 15  2  0  0  0  0
 17 18  2  0  0  0  0
 17 16  1  0  0  0  0
 18 13  1  0  0  0  0
 19 13  1  0  0  0  0
 21 16  1  0  0  0  0
 22 17  1  0  0  0  0
 23 18  1  0  0  0  0
 23 26  1  0  0  0  0
 24 23  2  0  0  0  0
 25 23  2  0  0  0  0
 26  8  1  0  0  0  0
 27 28  1  0  0  0  0
 27 30  1  0  0  0  0
 29 27  1  0  0  0  0
 31  6  1  0  0  0  0
M  RAD  2   2   2   3   2
M  END
