Coordinates from ORCA-job Ph-N2-OTs-B3LYPG-aug-cc-pVDZ-scan-d09-49-n400
 OpenBabel07022015303D

 31 30  0  0  0  0  0  0  0  0999 V2000
    0.1259   -0.2224   -2.4587 C   0  0  0  0  0  0  0  0  0  0  0  0
    1.0143    0.8697   -2.2577 C   0  0  0  0  0  0  0  0  0  0  0  0
    0.3486    2.0051   -2.4620 C   0  0  0  0  0  0  0  0  0  0  0  0
   -0.9025    2.4059   -2.8138 C   0  0  0  0  0  0  0  0  0  0  0  0
   -1.7225    1.2721   -3.0063 C   0  0  0  0  0  0  0  0  0  0  0  0
   -1.2079   -0.0183   -2.8269 C   0  0  0  0  0  0  0  0  0  0  0  0
    0.5277   -1.2268   -2.3247 H   0  0  0  0  0  0  0  0  0  0  0  0
    2.1193    0.7434   -2.0003 H   0  0  0  0  0  0  0  0  0  0  0  0
   -1.2437    3.4281   -2.9402 H   0  0  0  0  0  0  0  0  0  0  0  0
   -2.7606    1.4320   -3.2980 H   0  0  0  0  0  0  0  0  0  0  0  0
    1.4955    3.6980   -2.1220 N   0  0  0  0  0  0  0  0  0  0  0  0
    1.7941    4.7161   -1.8178 N   0  0  0  0  0  0  0  0  0  0  0  0
    5.7758    0.0862   -3.8651 C   0  0  0  0  0  0  0  0  0  0  0  0
    6.8813   -0.3157   -4.6149 C   0  0  0  0  0  0  0  0  0  0  0  0
    8.0094    0.5122   -4.7499 C   0  0  0  0  0  0  0  0  0  0  0  0
    8.0030    1.7549   -4.1022 C   0  0  0  0  0  0  0  0  0  0  0  0
    6.9029    2.1722   -3.3444 C   0  0  0  0  0  0  0  0  0  0  0  0
    5.7949    1.3335   -3.2354 C   0  0  0  0  0  0  0  0  0  0  0  0
    4.9099   -0.5636   -3.7513 H   0  0  0  0  0  0  0  0  0  0  0  0
    6.8730   -1.2926   -5.1018 H   0  0  0  0  0  0  0  0  0  0  0  0
    8.8716    2.4102   -4.1865 H   0  0  0  0  0  0  0  0  0  0  0  0
    6.9024    3.1327   -2.8323 H   0  0  0  0  0  0  0  0  0  0  0  0
    4.3405    1.9162   -2.3226 S   0  0  0  0  0  0  0  0  0  0  0  0
    3.3965    2.5002   -3.3616 O   0  0  0  0  0  0  0  0  0  0  0  0
    4.8178    2.9062   -1.3081 O   0  0  0  0  0  0  0  0  0  0  0  0
    3.7186    0.6506   -1.7045 O   0  0  0  0  0  0  0  0  0  0  0  0
    9.1954    0.0590   -5.5675 C   0  0  0  0  0  0  0  0  0  0  0  0
    9.6130   -0.8787   -5.1724 H   0  0  0  0  0  0  0  0  0  0  0  0
    8.9094   -0.1289   -6.6131 H   0  0  0  0  0  0  0  0  0  0  0  0
    9.9955    0.8108   -5.5670 H   0  0  0  0  0  0  0  0  0  0  0  0
   -1.8595   -0.8776   -2.9832 H   0  0  0  0  0  0  0  0  0  0  0  0
  1  7  1  0  0  0  0
  1  2  2  0  0  0  0
  2  8  1  0  0  0  0
  3  2  1  0  0  0  0
  4  3  2  0  0  0  0
  5  6  2  0  0  0  0
  5  4  1  0  0  0  0
  6  1  1  0  0  0  0
  9  4  1  0  0  0  0
 10  5  1  0  0  0  0
 11 12  3  0  0  0  0
 13 19  1  0  0  0  0
 13 18  2  0  0  0  0
 14 13  1  0  0  0  0
 15 14  2  0  0  0  0
 15 16  1  0  0  0  0
 16 17  2  0  0  0  0
 17 18  1  0  0  0  0
 17 22  1  0  0  0  0
 18 23  1  0  0  0  0
 20 14  1  0  0  0  0
 21 16  1  0  0  0  0
 23 26  2  0  0  0  0
 23 25  1  0  0  0  0
 24 23  2  0  0  0  0
 27 30  1  0  0  0  0
 27 28  1  0  0  0  0
 27 15  1  0  0  0  0
 29 27  1  0  0  0  0
 31  6  1  0  0  0  0
M  RAD  2   3   2  25   2
M  END
