Coordinates from ORCA-job Ph-N2-OTs-B3LYPG-aug-cc-pVDZ-scan-d09-49-n400
 OpenBabel07022015303D

 31 30  0  0  0  0  0  0  0  0999 V2000
    0.3503    0.8064   -3.6164 C   0  0  0  0  0  0  0  0  0  0  0  0
    1.1190    1.5026   -2.6637 C   0  0  0  0  0  0  0  0  0  0  0  0
    0.7028    1.6031   -1.4806 C   0  0  0  0  0  0  0  0  0  0  0  0
   -0.4284    1.1936   -0.8182 C   0  0  0  0  0  0  0  0  0  0  0  0
   -1.2373    0.4909   -1.7462 C   0  0  0  0  0  0  0  0  0  0  0  0
   -0.8594    0.3079   -3.0908 C   0  0  0  0  0  0  0  0  0  0  0  0
    0.6415    0.6726   -4.6563 H   0  0  0  0  0  0  0  0  0  0  0  0
    2.6652    2.5207   -3.5270 H   0  0  0  0  0  0  0  0  0  0  0  0
   -0.6937    1.3474    0.2239 H   0  0  0  0  0  0  0  0  0  0  0  0
   -2.1860    0.0821   -1.3936 H   0  0  0  0  0  0  0  0  0  0  0  0
    1.9869    2.9255    0.7518 N   0  0  0  0  0  0  0  0  0  0  0  0
    2.9402    3.4407    0.9636 N   0  0  0  0  0  0  0  0  0  0  0  0
    5.3548    0.2797   -4.4300 C   0  0  0  0  0  0  0  0  0  0  0  0
    6.5433   -0.3384   -4.0327 C   0  0  0  0  0  0  0  0  0  0  0  0
    7.7625    0.3544   -4.0482 C   0  0  0  0  0  0  0  0  0  0  0  0
    7.7696    1.6924   -4.4808 C   0  0  0  0  0  0  0  0  0  0  0  0
    6.5952    2.3285   -4.8811 C   0  0  0  0  0  0  0  0  0  0  0  0
    5.3979    1.6100   -4.8471 C   0  0  0  0  0  0  0  0  0  0  0  0
    4.4126   -0.2654   -4.4345 H   0  0  0  0  0  0  0  0  0  0  0  0
    6.5193   -1.3800   -3.7105 H   0  0  0  0  0  0  0  0  0  0  0  0
    8.7107    2.2434   -4.5070 H   0  0  0  0  0  0  0  0  0  0  0  0
    6.6012    3.3597   -5.2291 H   0  0  0  0  0  0  0  0  0  0  0  0
    3.8738    2.4282   -5.3419 S   0  0  0  0  0  0  0  0  0  0  0  0
    2.8805    1.3979   -5.7387 O   0  0  0  0  0  0  0  0  0  0  0  0
    4.2070    3.5650   -6.2213 O   0  0  0  0  0  0  0  0  0  0  0  0
    3.3540    3.1051   -3.9245 O   0  0  0  0  0  0  0  0  0  0  0  0
    9.0436   -0.3111   -3.6082 C   0  0  0  0  0  0  0  0  0  0  0  0
    8.9038   -1.3880   -3.4522 H   0  0  0  0  0  0  0  0  0  0  0  0
    9.8402   -0.1705   -4.3528 H   0  0  0  0  0  0  0  0  0  0  0  0
    9.4027    0.1218   -2.6629 H   0  0  0  0  0  0  0  0  0  0  0  0
   -1.5345   -0.2353   -3.7551 H   0  0  0  0  0  0  0  0  0  0  0  0
  1  6  2  0  0  0  0
  1  2  1  0  0  0  0
  2  3  2  0  0  0  0
  3  4  1  0  0  0  0
  4  9  1  0  0  0  0
  5 10  1  0  0  0  0
  5  4  2  0  0  0  0
  6  5  1  0  0  0  0
  7  1  1  0  0  0  0
 11 12  3  0  0  0  0
 13 14  2  0  0  0  0
 14 20  1  0  0  0  0
 15 14  1  0  0  0  0
 15 27  1  0  0  0  0
 16 15  2  0  0  0  0
 17 18  2  0  0  0  0
 17 16  1  0  0  0  0
 18 13  1  0  0  0  0
 19 13  1  0  0  0  0
 21 16  1  0  0  0  0
 22 17  1  0  0  0  0
 23 18  1  0  0  0  0
 23 26  1  0  0  0  0
 24 23  2  0  0  0  0
 25 23  2  0  0  0  0
 26  8  1  0  0  0  0
 27 28  1  0  0  0  0
 27 30  1  0  0  0  0
 29 27  1  0  0  0  0
 31  6  1  0  0  0  0
M  RAD  2   2   2   3   2
M  END
