Coordinates from ORCA-job Ph-N2-OTs-B3LYPG-aug-cc-pVDZ-scan-d09-49-n400
 OpenBabel07022015303D

 31 32  0  0  1  0  0  0  0  0999 V2000
    1.8392    0.4446   -1.8262 C   0  0  0  0  0  0  0  0  0  0  0  0
    1.8258    1.0888   -3.1579 C   0  0  1  0  0  0  0  0  0  0  0  0
    0.4684    1.5114   -3.4664 C   0  0  1  0  0  0  0  0  0  0  0  0
   -0.5891    1.7269   -2.5529 C   0  0  0  0  0  0  0  0  0  0  0  0
   -0.4026    1.2871   -1.2670 C   0  0  0  0  0  0  0  0  0  0  0  0
    0.8139    0.5953   -0.9392 C   0  0  0  0  0  0  0  0  0  0  0  0
    2.7313   -0.1187   -1.5576 H   0  0  0  0  0  0  0  0  0  0  0  0
    2.3326    0.5355   -3.9483 H   0  0  0  0  0  0  0  0  0  0  0  0
   -1.5080    2.2123   -2.8758 H   0  0  0  0  0  0  0  0  0  0  0  0
   -1.1806    1.4265   -0.5190 H   0  0  0  0  0  0  0  0  0  0  0  0
    0.1795    1.8851   -4.9233 N   0  0  0  0  0  0  0  0  0  0  0  0
   -0.0571    2.1516   -5.9857 N   0  0  0  0  0  0  0  0  0  0  0  0
    5.4261    0.8101   -5.0025 C   0  0  0  0  0  0  0  0  0  0  0  0
    6.5925    0.0533   -4.8751 C   0  0  0  0  0  0  0  0  0  0  0  0
    7.5355    0.3345   -3.8734 C   0  0  0  0  0  0  0  0  0  0  0  0
    7.2840    1.4033   -2.9981 C   0  0  0  0  0  0  0  0  0  0  0  0
    6.1244    2.1747   -3.1095 C   0  0  0  0  0  0  0  0  0  0  0  0
    5.2030    1.8617   -4.1109 C   0  0  0  0  0  0  0  0  0  0  0  0
    4.7034    0.6083   -5.7905 H   0  0  0  0  0  0  0  0  0  0  0  0
    6.7748   -0.7643   -5.5745 H   0  0  0  0  0  0  0  0  0  0  0  0
    8.0099    1.6403   -2.2193 H   0  0  0  0  0  0  0  0  0  0  0  0
    5.9432    3.0120   -2.4378 H   0  0  0  0  0  0  0  0  0  0  0  0
    3.7000    2.8485   -4.2649 S   0  0  0  0  0  0  0  0  0  0  0  0
    3.0101    2.4224   -5.5187 O   0  0  0  0  0  0  0  0  0  0  0  0
    4.0411    4.2714   -4.0456 O   0  0  0  0  0  0  0  0  0  0  0  0
    2.7963    2.3893   -2.9895 O   0  0  0  0  0  0  0  0  0  0  0  0
    8.7889   -0.4995   -3.7535 C   0  0  0  0  0  0  0  0  0  0  0  0
    8.5449   -1.5500   -3.5376 H   0  0  0  0  0  0  0  0  0  0  0  0
    9.3630   -0.4850   -4.6914 H   0  0  0  0  0  0  0  0  0  0  0  0
    9.4394   -0.1315   -2.9502 H   0  0  0  0  0  0  0  0  0  0  0  0
    0.9056    0.1451    0.0505 H   0  0  0  0  0  0  0  0  0  0  0  0
  1  7  1  0  0  0  0
  1  6  2  0  0  0  0
  2  8  1  6  0  0  0
  2 26  1  0  0  0  0
  2  1  1  0  0  0  0
  3 11  1  1  0  0  0
  3  2  1  0  0  0  0
  3  4  1  0  0  0  0
  4  5  2  0  0  0  0
  5  6  1  0  0  0  0
  5 10  1  0  0  0  0
  6 31  1  0  0  0  0
  9  4  1  0  0  0  0
 12 11  1  0  0  0  0
 13 14  2  0  0  0  0
 13 18  1  0  0  0  0
 14 15  1  0  0  0  0
 15 27  1  0  0  0  0
 15 16  2  0  0  0  0
 16 21  1  0  0  0  0
 17 16  1  0  0  0  0
 17 22  1  0  0  0  0
 18 17  2  0  0  0  0
 19 13  1  0  0  0  0
 20 14  1  0  0  0  0
 23 18  1  0  0  0  0
 23 25  2  0  0  0  0
 23 26  1  0  0  0  0
 24 23  2  0  0  0  0
 27 28  1  0  0  0  0
 27 30  1  0  0  0  0
 29 27  1  0  0  0  0
M  RAD  3   3   2  11   2  12   3
M  END
