Coordinates from ORCA-job Ph-N2-OTs-B3LYPG-aug-cc-pVDZ-scan-d09-49-n400
 OpenBabel07022015303D

 31 30  0  0  0  0  0  0  0  0999 V2000
    0.3556    0.8022   -3.6737 C   0  0  0  0  0  0  0  0  0  0  0  0
    1.1356    1.5083   -2.7412 C   0  0  0  0  0  0  0  0  0  0  0  0
    0.7527    1.6355   -1.5506 C   0  0  0  0  0  0  0  0  0  0  0  0
   -0.3710    1.2379   -0.8645 C   0  0  0  0  0  0  0  0  0  0  0  0
   -1.1985    0.5242   -1.7680 C   0  0  0  0  0  0  0  0  0  0  0  0
   -0.8462    0.3180   -3.1161 C   0  0  0  0  0  0  0  0  0  0  0  0
    0.6301    0.6486   -4.7153 H   0  0  0  0  0  0  0  0  0  0  0  0
    2.6839    2.5369   -3.6585 H   0  0  0  0  0  0  0  0  0  0  0  0
   -0.6210    1.4060    0.1792 H   0  0  0  0  0  0  0  0  0  0  0  0
   -2.1417    0.1230   -1.3927 H   0  0  0  0  0  0  0  0  0  0  0  0
    1.7902    3.0210    1.4759 N   0  0  0  0  0  0  0  0  0  0  0  0
    2.7021    3.5444    1.8125 N   0  0  0  0  0  0  0  0  0  0  0  0
    5.3711    0.2394   -4.5094 C   0  0  0  0  0  0  0  0  0  0  0  0
    6.5587   -0.3610   -4.0827 C   0  0  0  0  0  0  0  0  0  0  0  0
    7.7685    0.3480   -4.0726 C   0  0  0  0  0  0  0  0  0  0  0  0
    7.7674    1.6849   -4.5094 C   0  0  0  0  0  0  0  0  0  0  0  0
    6.5944    2.3030   -4.9402 C   0  0  0  0  0  0  0  0  0  0  0  0
    5.4060    1.5683   -4.9309 C   0  0  0  0  0  0  0  0  0  0  0  0
    4.4363   -0.3178   -4.5331 H   0  0  0  0  0  0  0  0  0  0  0  0
    6.5416   -1.4017   -3.7572 H   0  0  0  0  0  0  0  0  0  0  0  0
    8.7013    2.2486   -4.5156 H   0  0  0  0  0  0  0  0  0  0  0  0
    6.5955    3.3327   -5.2926 H   0  0  0  0  0  0  0  0  0  0  0  0
    3.8851    2.3648   -5.4700 S   0  0  0  0  0  0  0  0  0  0  0  0
    2.8900    1.3201   -5.8219 O   0  0  0  0  0  0  0  0  0  0  0  0
    4.2242    3.4594   -6.3989 O   0  0  0  0  0  0  0  0  0  0  0  0
    3.3585    3.1118   -4.0893 O   0  0  0  0  0  0  0  0  0  0  0  0
    9.0477   -0.2985   -3.5999 C   0  0  0  0  0  0  0  0  0  0  0  0
    8.9210   -1.3780   -3.4513 H   0  0  0  0  0  0  0  0  0  0  0  0
    9.8619   -0.1422   -4.3217 H   0  0  0  0  0  0  0  0  0  0  0  0
    9.3735    0.1365   -2.6435 H   0  0  0  0  0  0  0  0  0  0  0  0
   -1.5353   -0.2334   -3.7589 H   0  0  0  0  0  0  0  0  0  0  0  0
  1  6  2  0  0  0  0
  1  2  1  0  0  0  0
  2  3  2  0  0  0  0
  3  4  1  0  0  0  0
  4  9  1  0  0  0  0
  5 10  1  0  0  0  0
  5  4  2  0  0  0  0
  6  5  1  0  0  0  0
  7  1  1  0  0  0  0
 11 12  3  0  0  0  0
 13 14  2  0  0  0  0
 14 15  1  0  0  0  0
 14 20  1  0  0  0  0
 15 27  1  0  0  0  0
 16 15  2  0  0  0  0
 17 18  2  0  0  0  0
 17 16  1  0  0  0  0
 18 13  1  0  0  0  0
 19 13  1  0  0  0  0
 21 16  1  0  0  0  0
 22 17  1  0  0  0  0
 23 18  1  0  0  0  0
 23 26  1  0  0  0  0
 24 23  2  0  0  0  0
 25 23  2  0  0  0  0
 26  8  1  0  0  0  0
 27 28  1  0  0  0  0
 27 30  1  0  0  0  0
 29 27  1  0  0  0  0
 31  6  1  0  0  0  0
M  RAD  2   2   2   3   2
M  END
