Coordinates from ORCA-job Ph-N2-OTs-B3LYPG-aug-cc-pVDZ-scan-d09-49-n400
 OpenBabel07022015303D

 31 30  0  0  0  0  0  0  0  0999 V2000
    0.3873    0.8213   -3.7121 C   0  0  0  0  0  0  0  0  0  0  0  0
    1.1848    1.5497   -2.8115 C   0  0  0  0  0  0  0  0  0  0  0  0
    0.8275    1.6951   -1.6148 C   0  0  0  0  0  0  0  0  0  0  0  0
   -0.2769    1.3045   -0.8953 C   0  0  0  0  0  0  0  0  0  0  0  0
   -1.1210    0.5701   -1.7667 C   0  0  0  0  0  0  0  0  0  0  0  0
   -0.7991    0.3416   -3.1185 C   0  0  0  0  0  0  0  0  0  0  0  0
    0.6394    0.6480   -4.7563 H   0  0  0  0  0  0  0  0  0  0  0  0
    2.6994    2.5553   -3.7907 H   0  0  0  0  0  0  0  0  0  0  0  0
   -0.5042    1.4869    0.1509 H   0  0  0  0  0  0  0  0  0  0  0  0
   -2.0526    0.1697   -1.3625 H   0  0  0  0  0  0  0  0  0  0  0  0
    1.5612    2.9983    2.0386 N   0  0  0  0  0  0  0  0  0  0  0  0
    2.3832    3.5081    2.5709 N   0  0  0  0  0  0  0  0  0  0  0  0
    5.3743    0.2053   -4.5766 C   0  0  0  0  0  0  0  0  0  0  0  0
    6.5590   -0.3750   -4.1150 C   0  0  0  0  0  0  0  0  0  0  0  0
    7.7602    0.3478   -4.0894 C   0  0  0  0  0  0  0  0  0  0  0  0
    7.7539    1.6777   -4.5474 C   0  0  0  0  0  0  0  0  0  0  0  0
    6.5845    2.2753   -5.0143 C   0  0  0  0  0  0  0  0  0  0  0  0
    5.4041    1.5275   -5.0187 C   0  0  0  0  0  0  0  0  0  0  0  0
    4.4455   -0.3612   -4.6099 H   0  0  0  0  0  0  0  0  0  0  0  0
    6.5466   -1.4105   -3.7732 H   0  0  0  0  0  0  0  0  0  0  0  0
    8.6814    2.2520   -4.5413 H   0  0  0  0  0  0  0  0  0  0  0  0
    6.5827    3.2994   -5.3824 H   0  0  0  0  0  0  0  0  0  0  0  0
    3.8867    2.2996   -5.6009 S   0  0  0  0  0  0  0  0  0  0  0  0
    2.8907    1.2404   -5.9028 O   0  0  0  0  0  0  0  0  0  0  0  0
    4.2292    3.3472   -6.5812 O   0  0  0  0  0  0  0  0  0  0  0  0
    3.3597    3.1163   -4.2604 O   0  0  0  0  0  0  0  0  0  0  0  0
    9.0355   -0.2760   -3.5774 C   0  0  0  0  0  0  0  0  0  0  0  0
    8.9194   -1.3556   -3.4203 H   0  0  0  0  0  0  0  0  0  0  0  0
    9.8656   -0.1162   -4.2801 H   0  0  0  0  0  0  0  0  0  0  0  0
    9.3310    0.1733   -2.6178 H   0  0  0  0  0  0  0  0  0  0  0  0
   -1.4997   -0.2252   -3.7349 H   0  0  0  0  0  0  0  0  0  0  0  0
  1  6  2  0  0  0  0
  1  2  1  0  0  0  0
  2  3  2  0  0  0  0
  3  4  1  0  0  0  0
  4  9  1  0  0  0  0
  5 10  1  0  0  0  0
  5  4  2  0  0  0  0
  6  5  1  0  0  0  0
  7  1  1  0  0  0  0
 11 12  3  0  0  0  0
 13 14  2  0  0  0  0
 14 15  1  0  0  0  0
 14 20  1  0  0  0  0
 15 27  1  0  0  0  0
 16 21  1  0  0  0  0
 16 15  2  0  0  0  0
 17 16  1  0  0  0  0
 18 17  2  0  0  0  0
 18 13  1  0  0  0  0
 19 13  1  0  0  0  0
 22 17  1  0  0  0  0
 23 18  1  0  0  0  0
 23 26  1  0  0  0  0
 24 23  2  0  0  0  0
 25 23  2  0  0  0  0
 26  8  1  0  0  0  0
 27 28  1  0  0  0  0
 27 30  1  0  0  0  0
 29 27  1  0  0  0  0
 31  6  1  0  0  0  0
M  RAD  2   2   2   3   2
M  END
