Coordinates from ORCA-job Ph-N2-OTs-B3LYPG-aug-cc-pVDZ-scan-d09-49-n400
 OpenBabel07022015303D

 31 30  0  0  0  0  0  0  0  0999 V2000
    0.5877    0.8768   -3.5922 C   0  0  0  0  0  0  0  0  0  0  0  0
    1.3598    1.7681   -2.8270 C   0  0  0  0  0  0  0  0  0  0  0  0
    1.0508    2.0219   -1.6351 C   0  0  0  0  0  0  0  0  0  0  0  0
    0.0351    1.6108   -0.8046 C   0  0  0  0  0  0  0  0  0  0  0  0
   -0.7780    0.7072   -1.5354 C   0  0  0  0  0  0  0  0  0  0  0  0
   -0.5098    0.3581   -2.8730 C   0  0  0  0  0  0  0  0  0  0  0  0
    0.7987    0.6111   -4.6259 H   0  0  0  0  0  0  0  0  0  0  0  0
    2.8572    2.6649   -3.9388 H   0  0  0  0  0  0  0  0  0  0  0  0
   -0.1553    1.8891    0.2279 H   0  0  0  0  0  0  0  0  0  0  0  0
   -1.6414    0.2709   -1.0299 H   0  0  0  0  0  0  0  0  0  0  0  0
   -0.1438    2.8809    2.9335 N   0  0  0  0  0  0  0  0  0  0  0  0
   -0.0200    3.3278    3.9355 N   0  0  0  0  0  0  0  0  0  0  0  0
    5.4229    0.1606   -4.7227 C   0  0  0  0  0  0  0  0  0  0  0  0
    6.6079   -0.4298   -4.2742 C   0  0  0  0  0  0  0  0  0  0  0  0
    7.8233    0.2683   -4.3022 C   0  0  0  0  0  0  0  0  0  0  0  0
    7.8312    1.5833   -4.8020 C   0  0  0  0  0  0  0  0  0  0  0  0
    6.6622    2.1898   -5.2578 C   0  0  0  0  0  0  0  0  0  0  0  0
    5.4671    1.4670   -5.2081 C   0  0  0  0  0  0  0  0  0  0  0  0
    4.4823   -0.3866   -4.7138 H   0  0  0  0  0  0  0  0  0  0  0  0
    6.5839   -1.4538   -3.9001 H   0  0  0  0  0  0  0  0  0  0  0  0
    8.7695    2.1386   -4.8379 H   0  0  0  0  0  0  0  0  0  0  0  0
    6.6721    3.2019   -5.6579 H   0  0  0  0  0  0  0  0  0  0  0  0
    3.9515    2.2487   -5.7829 S   0  0  0  0  0  0  0  0  0  0  0  0
    2.9149    1.2030   -5.9766 O   0  0  0  0  0  0  0  0  0  0  0  0
    4.2857    3.2176   -6.8436 O   0  0  0  0  0  0  0  0  0  0  0  0
    3.5028    3.1720   -4.4843 O   0  0  0  0  0  0  0  0  0  0  0  0
    9.0985   -0.3653   -3.8023 C   0  0  0  0  0  0  0  0  0  0  0  0
    8.9689   -1.4396   -3.6220 H   0  0  0  0  0  0  0  0  0  0  0  0
    9.9176   -0.2321   -4.5231 H   0  0  0  0  0  0  0  0  0  0  0  0
    9.4187    0.0976   -2.8571 H   0  0  0  0  0  0  0  0  0  0  0  0
   -1.1827   -0.3375   -3.3782 H   0  0  0  0  0  0  0  0  0  0  0  0
  1  6  2  0  0  0  0
  1  2  1  0  0  0  0
  2  3  2  0  0  0  0
  3  4  1  0  0  0  0
  4  9  1  0  0  0  0
  5 10  1  0  0  0  0
  5  4  2  0  0  0  0
  6  5  1  0  0  0  0
  7  1  1  0  0  0  0
 11 12  3  0  0  0  0
 13 19  1  0  0  0  0
 13 14  2  0  0  0  0
 14 20  1  0  0  0  0
 15 14  1  0  0  0  0
 15 27  1  0  0  0  0
 16 15  2  0  0  0  0
 17 18  2  0  0  0  0
 17 16  1  0  0  0  0
 18 13  1  0  0  0  0
 21 16  1  0  0  0  0
 22 17  1  0  0  0  0
 23 18  1  0  0  0  0
 23 26  1  0  0  0  0
 24 23  2  0  0  0  0
 25 23  2  0  0  0  0
 26  8  1  0  0  0  0
 27 28  1  0  0  0  0
 27 30  1  0  0  0  0
 29 27  1  0  0  0  0
 31  6  1  0  0  0  0
M  RAD  2   2   2   3   2
M  END
