Coordinates from ORCA-job Ph-N2-OTs-B3LYPG-aug-cc-pVDZ-scan-d09-49-n400
 OpenBabel07022015303D

 31 30  0  0  0  0  0  0  0  0999 V2000
    0.4141    0.8426   -3.7048 C   0  0  0  0  0  0  0  0  0  0  0  0
    1.2204    1.5973   -2.8352 C   0  0  0  0  0  0  0  0  0  0  0  0
    0.8820    1.7760   -1.6377 C   0  0  0  0  0  0  0  0  0  0  0  0
   -0.2093    1.3978   -0.8909 C   0  0  0  0  0  0  0  0  0  0  0  0
   -1.0627    0.6367   -1.7296 C   0  0  0  0  0  0  0  0  0  0  0  0
   -0.7604    0.3734   -3.0798 C   0  0  0  0  0  0  0  0  0  0  0  0
    0.6515    0.6424   -4.7475 H   0  0  0  0  0  0  0  0  0  0  0  0
    2.7316    2.5688   -3.8660 H   0  0  0  0  0  0  0  0  0  0  0  0
   -0.4215    1.6065    0.1539 H   0  0  0  0  0  0  0  0  0  0  0  0
   -1.9855    0.2418   -1.3007 H   0  0  0  0  0  0  0  0  0  0  0  0
    1.1991    2.9257    2.3562 N   0  0  0  0  0  0  0  0  0  0  0  0
    1.9275    3.3725    3.0553 N   0  0  0  0  0  0  0  0  0  0  0  0
    5.3966    0.1774   -4.6184 C   0  0  0  0  0  0  0  0  0  0  0  0
    6.5840   -0.3881   -4.1451 C   0  0  0  0  0  0  0  0  0  0  0  0
    7.7800    0.3434   -4.1260 C   0  0  0  0  0  0  0  0  0  0  0  0
    7.7660    1.6665   -4.6034 C   0  0  0  0  0  0  0  0  0  0  0  0
    6.5941    2.2488   -5.0830 C   0  0  0  0  0  0  0  0  0  0  0  0
    5.4187    1.4930   -5.0800 C   0  0  0  0  0  0  0  0  0  0  0  0
    4.4714   -0.3953   -4.6458 H   0  0  0  0  0  0  0  0  0  0  0  0
    6.5780   -1.4185   -3.7883 H   0  0  0  0  0  0  0  0  0  0  0  0
    8.6893    2.2474   -4.6026 H   0  0  0  0  0  0  0  0  0  0  0  0
    6.5870    3.2674   -5.4663 H   0  0  0  0  0  0  0  0  0  0  0  0
    3.8984    2.2453   -5.6801 S   0  0  0  0  0  0  0  0  0  0  0  0
    2.8993    1.1769   -5.9359 O   0  0  0  0  0  0  0  0  0  0  0  0
    4.2347    3.2560   -6.7004 O   0  0  0  0  0  0  0  0  0  0  0  0
    3.3821    3.1131   -4.3676 O   0  0  0  0  0  0  0  0  0  0  0  0
    9.0575   -0.2635   -3.5996 C   0  0  0  0  0  0  0  0  0  0  0  0
    8.9521   -1.3436   -3.4384 H   0  0  0  0  0  0  0  0  0  0  0  0
    9.8922   -0.0974   -4.2951 H   0  0  0  0  0  0  0  0  0  0  0  0
    9.3389    0.1933   -2.6392 H   0  0  0  0  0  0  0  0  0  0  0  0
   -1.4674   -0.2130   -3.6699 H   0  0  0  0  0  0  0  0  0  0  0  0
  1  6  2  0  0  0  0
  1  2  1  0  0  0  0
  2  3  2  0  0  0  0
  3  4  1  0  0  0  0
  4  9  1  0  0  0  0
  5 10  1  0  0  0  0
  5  4  2  0  0  0  0
  6  5  1  0  0  0  0
  7  1  1  0  0  0  0
 11 12  3  0  0  0  0
 13 14  2  0  0  0  0
 14 15  1  0  0  0  0
 14 20  1  0  0  0  0
 15 27  1  0  0  0  0
 16 21  1  0  0  0  0
 16 15  2  0  0  0  0
 17 18  2  0  0  0  0
 17 16  1  0  0  0  0
 18 13  1  0  0  0  0
 19 13  1  0  0  0  0
 22 17  1  0  0  0  0
 23 18  1  0  0  0  0
 23 26  1  0  0  0  0
 24 23  2  0  0  0  0
 25 23  2  0  0  0  0
 26  8  1  0  0  0  0
 27 28  1  0  0  0  0
 27 30  1  0  0  0  0
 29 27  1  0  0  0  0
 31  6  1  0  0  0  0
M  RAD  2   2   2   3   2
M  END
