Coordinates from ORCA-job Ph-N2-OTs-B3LYPG-aug-cc-pVDZ-scan-d09-49-n400
 OpenBabel07022015303D

 31 32  0  0  1  0  0  0  0  0999 V2000
    2.0670    0.4948   -2.0474 C   0  0  0  0  0  0  0  0  0  0  0  0
    1.8841    1.2428   -3.3275 C   0  0  1  0  0  0  0  0  0  0  0  0
    0.4404    1.6069   -3.5452 C   0  0  0  0  0  0  0  0  0  0  0  0
   -0.4995    1.6672   -2.4492 C   0  0  0  0  0  0  0  0  0  0  0  0
   -0.1555    1.1510   -1.2399 C   0  0  0  0  0  0  0  0  0  0  0  0
    1.1298    0.5035   -1.0719 C   0  0  0  0  0  0  0  0  0  0  0  0
    3.0185   -0.0180   -1.9124 H   0  0  0  0  0  0  0  0  0  0  0  0
    2.2920    0.7091   -4.1911 H   0  0  0  0  0  0  0  0  0  0  0  0
   -1.4753    2.1194   -2.6244 H   0  0  0  0  0  0  0  0  0  0  0  0
   -0.8579    1.1855   -0.4085 H   0  0  0  0  0  0  0  0  0  0  0  0
    0.0639    1.9123   -4.7200 N   0  0  0  0  0  0  0  0  0  0  0  0
   -0.2711    2.1831   -5.7758 N   0  0  0  0  0  0  0  0  0  0  0  0
    5.4023    0.8355   -5.0392 C   0  0  0  0  0  0  0  0  0  0  0  0
    6.5283    0.0406   -4.8187 C   0  0  0  0  0  0  0  0  0  0  0  0
    7.4085    0.3052   -3.7567 C   0  0  0  0  0  0  0  0  0  0  0  0
    7.1370    1.3983   -2.9175 C   0  0  0  0  0  0  0  0  0  0  0  0
    6.0179    2.2086   -3.1208 C   0  0  0  0  0  0  0  0  0  0  0  0
    5.1579    1.9091   -4.1795 C   0  0  0  0  0  0  0  0  0  0  0  0
    4.7279    0.6466   -5.8718 H   0  0  0  0  0  0  0  0  0  0  0  0
    6.7290   -0.7936   -5.4927 H   0  0  0  0  0  0  0  0  0  0  0  0
    7.8177    1.6236   -2.0957 H   0  0  0  0  0  0  0  0  0  0  0  0
    5.8227    3.0631   -2.4754 H   0  0  0  0  0  0  0  0  0  0  0  0
    3.7050    2.9387   -4.4488 S   0  0  0  0  0  0  0  0  0  0  0  0
    3.0713    2.5193   -5.7256 O   0  0  0  0  0  0  0  0  0  0  0  0
    4.0454    4.3491   -4.1795 O   0  0  0  0  0  0  0  0  0  0  0  0
    2.7062    2.5107   -3.1947 O   0  0  0  0  0  0  0  0  0  0  0  0
    8.6138   -0.5747   -3.5300 C   0  0  0  0  0  0  0  0  0  0  0  0
    8.3094   -1.5875   -3.2272 H   0  0  0  0  0  0  0  0  0  0  0  0
    9.2086   -0.6755   -4.4488 H   0  0  0  0  0  0  0  0  0  0  0  0
    9.2632   -0.1702   -2.7435 H   0  0  0  0  0  0  0  0  0  0  0  0
    1.3309   -0.0136   -0.1325 H   0  0  0  0  0  0  0  0  0  0  0  0
  1  7  1  0  0  0  0
  1  6  2  0  0  0  0
  2  8  1  6  0  0  0
  2 26  1  0  0  0  0
  2  1  1  0  0  0  0
  3  2  1  0  0  0  0
  3  4  2  0  0  0  0
  4  5  1  0  0  0  0
  5  6  1  0  0  0  0
  5 10  1  0  0  0  0
  6 31  1  0  0  0  0
  9  4  1  0  0  0  0
 11  3  1  0  0  0  0
 12 11  1  0  0  0  0
 13 14  2  0  0  0  0
 13 18  1  0  0  0  0
 14 15  1  0  0  0  0
 15 27  1  0  0  0  0
 15 16  2  0  0  0  0
 16 21  1  0  0  0  0
 17 16  1  0  0  0  0
 17 22  1  0  0  0  0
 18 17  2  0  0  0  0
 19 13  1  0  0  0  0
 20 14  1  0  0  0  0
 23 25  2  0  0  0  0
 23 18  1  0  0  0  0
 23 26  1  0  0  0  0
 24 23  2  0  0  0  0
 27 28  1  0  0  0  0
 27 30  1  0  0  0  0
 29 27  1  0  0  0  0
M  RAD  3   5   2  11   2  12   3
M  END
