Coordinates from ORCA-job Ph-N2-OTs-B3LYPG-aug-cc-pVDZ-scan-d09-49-n400
 OpenBabel07022015303D

 31 30  0  0  0  0  0  0  0  0999 V2000
    0.3964    0.8419   -3.6989 C   0  0  0  0  0  0  0  0  0  0  0  0
    1.2024    1.5793   -2.8147 C   0  0  0  0  0  0  0  0  0  0  0  0
    0.8604    1.7444   -1.6164 C   0  0  0  0  0  0  0  0  0  0  0  0
   -0.2388    1.3641   -0.8812 C   0  0  0  0  0  0  0  0  0  0  0  0
   -1.0924    0.6199   -1.7343 C   0  0  0  0  0  0  0  0  0  0  0  0
   -0.7845    0.3725   -3.0862 C   0  0  0  0  0  0  0  0  0  0  0  0
    0.6375    0.6548   -4.7432 H   0  0  0  0  0  0  0  0  0  0  0  0
    2.7182    2.5646   -3.8301 H   0  0  0  0  0  0  0  0  0  0  0  0
   -0.4534    1.5623    0.1652 H   0  0  0  0  0  0  0  0  0  0  0  0
   -2.0203    0.2259   -1.3157 H   0  0  0  0  0  0  0  0  0  0  0  0
    1.3503    2.9180    2.1314 N   0  0  0  0  0  0  0  0  0  0  0  0
    2.1388    3.3698    2.7582 N   0  0  0  0  0  0  0  0  0  0  0  0
    5.3900    0.1875   -4.5939 C   0  0  0  0  0  0  0  0  0  0  0  0
    6.5779   -0.3814   -4.1260 C   0  0  0  0  0  0  0  0  0  0  0  0
    7.7748    0.3486   -4.1064 C   0  0  0  0  0  0  0  0  0  0  0  0
    7.7611    1.6740   -4.5775 C   0  0  0  0  0  0  0  0  0  0  0  0
    6.5887    2.2599   -5.0513 C   0  0  0  0  0  0  0  0  0  0  0  0
    5.4126    1.5053   -5.0492 C   0  0  0  0  0  0  0  0  0  0  0  0
    4.4644   -0.3843   -4.6221 H   0  0  0  0  0  0  0  0  0  0  0  0
    6.5715   -1.4135   -3.7741 H   0  0  0  0  0  0  0  0  0  0  0  0
    8.6852    2.2538   -4.5763 H   0  0  0  0  0  0  0  0  0  0  0  0
    6.5817    3.2803   -5.4299 H   0  0  0  0  0  0  0  0  0  0  0  0
    3.8917    2.2617   -5.6428 S   0  0  0  0  0  0  0  0  0  0  0  0
    2.8946    1.1945   -5.9114 O   0  0  0  0  0  0  0  0  0  0  0  0
    4.2277    3.2839   -6.6517 O   0  0  0  0  0  0  0  0  0  0  0  0
    3.3720    3.1141   -4.3214 O   0  0  0  0  0  0  0  0  0  0  0  0
    9.0529   -0.2624   -3.5863 C   0  0  0  0  0  0  0  0  0  0  0  0
    8.9468   -1.3432   -3.4305 H   0  0  0  0  0  0  0  0  0  0  0  0
    9.8862   -0.0935   -4.2830 H   0  0  0  0  0  0  0  0  0  0  0  0
    9.3371    0.1891   -2.6242 H   0  0  0  0  0  0  0  0  0  0  0  0
   -1.4922   -0.2011   -3.6881 H   0  0  0  0  0  0  0  0  0  0  0  0
  1  6  2  0  0  0  0
  1  2  1  0  0  0  0
  2  3  2  0  0  0  0
  3  4  1  0  0  0  0
  4  9  1  0  0  0  0
  5 10  1  0  0  0  0
  5  4  2  0  0  0  0
  6  5  1  0  0  0  0
  7  1  1  0  0  0  0
 11 12  3  0  0  0  0
 13 14  2  0  0  0  0
 14 15  1  0  0  0  0
 14 20  1  0  0  0  0
 15 27  1  0  0  0  0
 16 21  1  0  0  0  0
 16 15  2  0  0  0  0
 17 18  2  0  0  0  0
 17 16  1  0  0  0  0
 18 13  1  0  0  0  0
 19 13  1  0  0  0  0
 22 17  1  0  0  0  0
 23 18  1  0  0  0  0
 23 26  1  0  0  0  0
 24 23  2  0  0  0  0
 25 23  2  0  0  0  0
 26  8  1  0  0  0  0
 27 28  1  0  0  0  0
 27 30  1  0  0  0  0
 29 27  1  0  0  0  0
 31  6  1  0  0  0  0
M  RAD  2   2   2   3   2
M  END
