Coordinates from ORCA-job Ph-N2-OTs-B3LYPG-aug-cc-pVDZ-scan-d09-49-n400
 OpenBabel07022015303D

 31 30  0  0  0  0  0  0  0  0999 V2000
    0.3527    0.8152   -3.5928 C   0  0  0  0  0  0  0  0  0  0  0  0
    1.1222    1.5171   -2.6420 C   0  0  0  0  0  0  0  0  0  0  0  0
    0.6921    1.6099   -1.4619 C   0  0  0  0  0  0  0  0  0  0  0  0
   -0.4366    1.1963   -0.8003 C   0  0  0  0  0  0  0  0  0  0  0  0
   -1.2401    0.4898   -1.7302 C   0  0  0  0  0  0  0  0  0  0  0  0
   -0.8563    0.3095   -3.0735 C   0  0  0  0  0  0  0  0  0  0  0  0
    0.6486    0.6824   -4.6318 H   0  0  0  0  0  0  0  0  0  0  0  0
    2.6555    2.5164   -3.4976 H   0  0  0  0  0  0  0  0  0  0  0  0
   -0.7048    1.3495    0.2411 H   0  0  0  0  0  0  0  0  0  0  0  0
   -2.1879    0.0769   -1.3802 H   0  0  0  0  0  0  0  0  0  0  0  0
    1.9932    2.8976    0.5561 N   0  0  0  0  0  0  0  0  0  0  0  0
    2.9603    3.4017    0.7294 N   0  0  0  0  0  0  0  0  0  0  0  0
    5.3566    0.2771   -4.4261 C   0  0  0  0  0  0  0  0  0  0  0  0
    6.5478   -0.3423   -4.0383 C   0  0  0  0  0  0  0  0  0  0  0  0
    7.7645    0.3549   -4.0445 C   0  0  0  0  0  0  0  0  0  0  0  0
    7.7663    1.6992   -4.4573 C   0  0  0  0  0  0  0  0  0  0  0  0
    6.5893    2.3365   -4.8480 C   0  0  0  0  0  0  0  0  0  0  0  0
    5.3944    1.6132   -4.8240 C   0  0  0  0  0  0  0  0  0  0  0  0
    4.4166   -0.2717   -4.4386 H   0  0  0  0  0  0  0  0  0  0  0  0
    6.5274   -1.3886   -3.7312 H   0  0  0  0  0  0  0  0  0  0  0  0
    8.7054    2.2540   -4.4763 H   0  0  0  0  0  0  0  0  0  0  0  0
    6.5917    3.3722   -5.1821 H   0  0  0  0  0  0  0  0  0  0  0  0
    3.8686    2.4334   -5.3123 S   0  0  0  0  0  0  0  0  0  0  0  0
    2.8757    1.4058   -5.7175 O   0  0  0  0  0  0  0  0  0  0  0  0
    4.2031    3.5750   -6.1853 O   0  0  0  0  0  0  0  0  0  0  0  0
    3.3474    3.1015   -3.8925 O   0  0  0  0  0  0  0  0  0  0  0  0
    9.0484   -0.3126   -3.6156 C   0  0  0  0  0  0  0  0  0  0  0  0
    8.9120   -1.3917   -3.4730 H   0  0  0  0  0  0  0  0  0  0  0  0
    9.8431   -0.1601   -4.3597 H   0  0  0  0  0  0  0  0  0  0  0  0
    9.4082    0.1094   -2.6655 H   0  0  0  0  0  0  0  0  0  0  0  0
   -1.5260   -0.2368   -3.7405 H   0  0  0  0  0  0  0  0  0  0  0  0
  1  6  2  0  0  0  0
  1  2  1  0  0  0  0
  2  3  2  0  0  0  0
  3  4  1  0  0  0  0
  4  9  1  0  0  0  0
  5 10  1  0  0  0  0
  5  4  2  0  0  0  0
  6  5  1  0  0  0  0
  7  1  1  0  0  0  0
 11 12  3  0  0  0  0
 13 14  2  0  0  0  0
 14 20  1  0  0  0  0
 15 14  1  0  0  0  0
 15 27  1  0  0  0  0
 16 15  2  0  0  0  0
 17 18  2  0  0  0  0
 17 16  1  0  0  0  0
 18 13  1  0  0  0  0
 19 13  1  0  0  0  0
 21 16  1  0  0  0  0
 22 17  1  0  0  0  0
 23 18  1  0  0  0  0
 23 26  1  0  0  0  0
 24 23  2  0  0  0  0
 25 23  2  0  0  0  0
 26  8  1  0  0  0  0
 27 28  1  0  0  0  0
 27 30  1  0  0  0  0
 29 27  1  0  0  0  0
 31  6  1  0  0  0  0
M  RAD  2   2   2   3   2
M  END
