Coordinates from ORCA-job Ph-N2-OTs-B3LYPG-aug-cc-pVDZ-scan-d09-49-n400
 OpenBabel07022015303D

 31 30  0  0  0  0  0  0  0  0999 V2000
    0.3784    0.8136   -3.7028 C   0  0  0  0  0  0  0  0  0  0  0  0
    1.1710    1.5356   -2.7926 C   0  0  0  0  0  0  0  0  0  0  0  0
    0.8064    1.6726   -1.5971 C   0  0  0  0  0  0  0  0  0  0  0  0
   -0.3025    1.2776   -0.8869 C   0  0  0  0  0  0  0  0  0  0  0  0
   -1.1413    0.5489   -1.7681 C   0  0  0  0  0  0  0  0  0  0  0  0
   -0.8112    0.3293   -3.1194 C   0  0  0  0  0  0  0  0  0  0  0  0
    0.6361    0.6485   -4.7469 H   0  0  0  0  0  0  0  0  0  0  0  0
    2.6917    2.5531   -3.7522 H   0  0  0  0  0  0  0  0  0  0  0  0
   -0.5355    1.4533    0.1592 H   0  0  0  0  0  0  0  0  0  0  0  0
   -2.0752    0.1459   -1.3720 H   0  0  0  0  0  0  0  0  0  0  0  0
    1.6492    3.0171    1.8637 N   0  0  0  0  0  0  0  0  0  0  0  0
    2.4975    3.5433    2.3353 N   0  0  0  0  0  0  0  0  0  0  0  0
    5.3700    0.2164   -4.5593 C   0  0  0  0  0  0  0  0  0  0  0  0
    6.5549   -0.3719   -4.1080 C   0  0  0  0  0  0  0  0  0  0  0  0
    7.7586    0.3466   -4.0817 C   0  0  0  0  0  0  0  0  0  0  0  0
    7.7546    1.6806   -4.5278 C   0  0  0  0  0  0  0  0  0  0  0  0
    6.5850    2.2861   -4.9840 C   0  0  0  0  0  0  0  0  0  0  0  0
    5.4021    1.5423   -4.9899 C   0  0  0  0  0  0  0  0  0  0  0  0
    4.4396   -0.3474   -4.5944 H   0  0  0  0  0  0  0  0  0  0  0  0
    6.5404   -1.4104   -3.7755 H   0  0  0  0  0  0  0  0  0  0  0  0
    8.6840    2.2517   -4.5212 H   0  0  0  0  0  0  0  0  0  0  0  0
    6.5849    3.3133   -5.3438 H   0  0  0  0  0  0  0  0  0  0  0  0
    3.8856    2.3238   -5.5621 S   0  0  0  0  0  0  0  0  0  0  0  0
    2.8899    1.2697   -5.8829 O   0  0  0  0  0  0  0  0  0  0  0  0
    4.2304    3.3863   -6.5254 O   0  0  0  0  0  0  0  0  0  0  0  0
    3.3558    3.1195   -4.2102 O   0  0  0  0  0  0  0  0  0  0  0  0
    9.0343   -0.2860   -3.5817 C   0  0  0  0  0  0  0  0  0  0  0  0
    8.9145   -1.3660   -3.4307 H   0  0  0  0  0  0  0  0  0  0  0  0
    9.8606   -0.1254   -4.2886 H   0  0  0  0  0  0  0  0  0  0  0  0
    9.3378    0.1560   -2.6212 H   0  0  0  0  0  0  0  0  0  0  0  0
   -1.5082   -0.2331   -3.7438 H   0  0  0  0  0  0  0  0  0  0  0  0
  1  6  2  0  0  0  0
  1  2  1  0  0  0  0
  2  3  2  0  0  0  0
  3  4  1  0  0  0  0
  4  9  1  0  0  0  0
  5 10  1  0  0  0  0
  5  4  2  0  0  0  0
  6  5  1  0  0  0  0
  7  1  1  0  0  0  0
 11 12  3  0  0  0  0
 13 14  2  0  0  0  0
 14 15  1  0  0  0  0
 14 20  1  0  0  0  0
 15 27  1  0  0  0  0
 16 21  1  0  0  0  0
 16 15  2  0  0  0  0
 17 16  1  0  0  0  0
 18 17  2  0  0  0  0
 18 13  1  0  0  0  0
 19 13  1  0  0  0  0
 22 17  1  0  0  0  0
 23 18  1  0  0  0  0
 23 26  1  0  0  0  0
 24 23  2  0  0  0  0
 25 23  2  0  0  0  0
 26  8  1  0  0  0  0
 27 28  1  0  0  0  0
 27 30  1  0  0  0  0
 29 27  1  0  0  0  0
 31  6  1  0  0  0  0
M  RAD  2   2   2   3   2
M  END
