Coordinates from ORCA-job Ph-N2-OTs-B3LYPG-aug-cc-pVDZ-scan-d09-49-n400
 OpenBabel07022015303D

 31 30  0  0  0  0  0  0  0  0999 V2000
    0.1941   -0.2244   -2.5145 C   0  0  0  0  0  0  0  0  0  0  0  0
    1.0397    0.8975   -2.2667 C   0  0  0  0  0  0  0  0  0  0  0  0
    0.3213    1.9934   -2.4339 C   0  0  0  0  0  0  0  0  0  0  0  0
   -0.9353    2.3785   -2.7716 C   0  0  0  0  0  0  0  0  0  0  0  0
   -1.7102    1.2193   -3.0099 C   0  0  0  0  0  0  0  0  0  0  0  0
   -1.1461   -0.0566   -2.8785 C   0  0  0  0  0  0  0  0  0  0  0  0
    0.6362   -1.2166   -2.4210 H   0  0  0  0  0  0  0  0  0  0  0  0
    2.1757    0.7986   -2.0140 H   0  0  0  0  0  0  0  0  0  0  0  0
   -1.3124    3.3921   -2.8569 H   0  0  0  0  0  0  0  0  0  0  0  0
   -2.7538    1.3512   -3.2971 H   0  0  0  0  0  0  0  0  0  0  0  0
    1.4293    3.8100   -1.9923 N   0  0  0  0  0  0  0  0  0  0  0  0
    1.7862    4.8057   -1.6800 N   0  0  0  0  0  0  0  0  0  0  0  0
    5.7447    0.1069   -3.8750 C   0  0  0  0  0  0  0  0  0  0  0  0
    6.8497   -0.3220   -4.6108 C   0  0  0  0  0  0  0  0  0  0  0  0
    7.9940    0.4840   -4.7426 C   0  0  0  0  0  0  0  0  0  0  0  0
    8.0046    1.7324   -4.1059 C   0  0  0  0  0  0  0  0  0  0  0  0
    6.9066    2.1756   -3.3607 C   0  0  0  0  0  0  0  0  0  0  0  0
    5.7817    1.3588   -3.2551 C   0  0  0  0  0  0  0  0  0  0  0  0
    4.8659   -0.5258   -3.7653 H   0  0  0  0  0  0  0  0  0  0  0  0
    6.8282   -1.3028   -5.0893 H   0  0  0  0  0  0  0  0  0  0  0  0
    8.8855    2.3711   -4.1890 H   0  0  0  0  0  0  0  0  0  0  0  0
    6.9195    3.1398   -2.8560 H   0  0  0  0  0  0  0  0  0  0  0  0
    4.3334    1.9864   -2.3643 S   0  0  0  0  0  0  0  0  0  0  0  0
    3.4063    2.5858   -3.3989 O   0  0  0  0  0  0  0  0  0  0  0  0
    4.8307    2.9492   -1.3352 O   0  0  0  0  0  0  0  0  0  0  0  0
    3.6784    0.7246   -1.7440 O   0  0  0  0  0  0  0  0  0  0  0  0
    9.1795    0.0020   -5.5443 C   0  0  0  0  0  0  0  0  0  0  0  0
    9.5914   -0.9265   -5.1222 H   0  0  0  0  0  0  0  0  0  0  0  0
    8.8949   -0.2133   -6.5848 H   0  0  0  0  0  0  0  0  0  0  0  0
    9.9832    0.7497   -5.5627 H   0  0  0  0  0  0  0  0  0  0  0  0
   -1.7637   -0.9338   -3.0698 H   0  0  0  0  0  0  0  0  0  0  0  0
  1  7  1  0  0  0  0
  1  2  2  0  0  0  0
  2  8  1  0  0  0  0
  3  2  1  0  0  0  0
  4  3  2  0  0  0  0
  5  6  2  0  0  0  0
  5  4  1  0  0  0  0
  6  1  1  0  0  0  0
  9  4  1  0  0  0  0
 10  5  1  0  0  0  0
 11 12  3  0  0  0  0
 13 19  1  0  0  0  0
 13 18  2  0  0  0  0
 14 13  1  0  0  0  0
 15 14  2  0  0  0  0
 15 16  1  0  0  0  0
 16 17  2  0  0  0  0
 17 18  1  0  0  0  0
 17 22  1  0  0  0  0
 18 23  1  0  0  0  0
 20 14  1  0  0  0  0
 21 16  1  0  0  0  0
 23 26  2  0  0  0  0
 23 25  1  0  0  0  0
 24 23  2  0  0  0  0
 27 28  1  0  0  0  0
 27 15  1  0  0  0  0
 29 27  1  0  0  0  0
 30 27  1  0  0  0  0
 31  6  1  0  0  0  0
M  RAD  2   3   2  25   2
M  END
