Coordinates from ORCA-job Ph-N2-OTs-B3LYPG-aug-cc-pVDZ-scan-d09-49-n400
 OpenBabel07022015303D

 31 30  0  0  0  0  0  0  0  0999 V2000
    0.3713    0.8062   -3.6872 C   0  0  0  0  0  0  0  0  0  0  0  0
    1.1566    1.5166   -2.7625 C   0  0  0  0  0  0  0  0  0  0  0  0
    0.7849    1.6406   -1.5680 C   0  0  0  0  0  0  0  0  0  0  0  0
   -0.3289    1.2368   -0.8699 C   0  0  0  0  0  0  0  0  0  0  0  0
   -1.1614    0.5188   -1.7657 C   0  0  0  0  0  0  0  0  0  0  0  0
   -0.8222    0.3152   -3.1175 C   0  0  0  0  0  0  0  0  0  0  0  0
    0.6363    0.6540   -4.7315 H   0  0  0  0  0  0  0  0  0  0  0  0
    2.6812    2.5525   -3.6952 H   0  0  0  0  0  0  0  0  0  0  0  0
   -0.5710    1.4012    0.1763 H   0  0  0  0  0  0  0  0  0  0  0  0
   -2.0983    0.1117   -1.3810 H   0  0  0  0  0  0  0  0  0  0  0  0
    1.7937    3.0162    1.5529 N   0  0  0  0  0  0  0  0  0  0  0  0
    2.6905    3.5463    1.9183 N   0  0  0  0  0  0  0  0  0  0  0  0
    5.3560    0.2376   -4.5281 C   0  0  0  0  0  0  0  0  0  0  0  0
    6.5391   -0.3620   -4.0874 C   0  0  0  0  0  0  0  0  0  0  0  0
    7.7479    0.3481   -4.0626 C   0  0  0  0  0  0  0  0  0  0  0  0
    7.7506    1.6852   -4.4989 C   0  0  0  0  0  0  0  0  0  0  0  0
    6.5826    2.3022   -4.9439 C   0  0  0  0  0  0  0  0  0  0  0  0
    5.3948    1.5665   -4.9489 C   0  0  0  0  0  0  0  0  0  0  0  0
    4.4219   -0.3201   -4.5626 H   0  0  0  0  0  0  0  0  0  0  0  0
    6.5191   -1.4028   -3.7625 H   0  0  0  0  0  0  0  0  0  0  0  0
    8.6840    2.2499   -4.4936 H   0  0  0  0  0  0  0  0  0  0  0  0
    6.5872    3.3320   -5.2960 H   0  0  0  0  0  0  0  0  0  0  0  0
    3.8802    2.3625   -5.5058 S   0  0  0  0  0  0  0  0  0  0  0  0
    2.8838    1.3171   -5.8520 O   0  0  0  0  0  0  0  0  0  0  0  0
    4.2281    3.4460   -6.4444 O   0  0  0  0  0  0  0  0  0  0  0  0
    3.3487    3.1274   -4.1370 O   0  0  0  0  0  0  0  0  0  0  0  0
    9.0221   -0.2970   -3.5748 C   0  0  0  0  0  0  0  0  0  0  0  0
    8.8949   -1.3768   -3.4283 H   0  0  0  0  0  0  0  0  0  0  0  0
    9.8447   -0.1393   -4.2868 H   0  0  0  0  0  0  0  0  0  0  0  0
    9.3359    0.1379   -2.6144 H   0  0  0  0  0  0  0  0  0  0  0  0
   -1.5148   -0.2398   -3.7533 H   0  0  0  0  0  0  0  0  0  0  0  0
  1  6  2  0  0  0  0
  1  2  1  0  0  0  0
  2  3  2  0  0  0  0
  3  4  1  0  0  0  0
  4  9  1  0  0  0  0
  5 10  1  0  0  0  0
  5  4  2  0  0  0  0
  6  5  1  0  0  0  0
  7  1  1  0  0  0  0
 11 12  3  0  0  0  0
 13 14  2  0  0  0  0
 14 15  1  0  0  0  0
 14 20  1  0  0  0  0
 15 27  1  0  0  0  0
 16 21  1  0  0  0  0
 16 15  2  0  0  0  0
 17 16  1  0  0  0  0
 18 17  2  0  0  0  0
 18 13  1  0  0  0  0
 19 13  1  0  0  0  0
 22 17  1  0  0  0  0
 23 18  1  0  0  0  0
 23 26  1  0  0  0  0
 24 23  2  0  0  0  0
 25 23  2  0  0  0  0
 26  8  1  0  0  0  0
 27 28  1  0  0  0  0
 27 30  1  0  0  0  0
 29 27  1  0  0  0  0
 31  6  1  0  0  0  0
M  RAD  2   2   2   3   2
M  END
