Coordinates from ORCA-job Ph-N2-OTs-B3LYPG-aug-cc-pVDZ-scan-d09-49-n400
 OpenBabel07022015303D

 31 32  0  0  1  0  0  0  0  0999 V2000
    2.0598    0.4949   -2.0341 C   0  0  0  0  0  0  0  0  0  0  0  0
    1.8847    1.2374   -3.3181 C   0  0  1  0  0  0  0  0  0  0  0  0
    0.4447    1.6009   -3.5402 C   0  0  0  0  0  0  0  0  0  0  0  0
   -0.5034    1.6667   -2.4549 C   0  0  0  0  0  0  0  0  0  0  0  0
   -0.1667    1.1559   -1.2404 C   0  0  0  0  0  0  0  0  0  0  0  0
    1.1172    0.5092   -1.0632 C   0  0  0  0  0  0  0  0  0  0  0  0
    3.0097   -0.0188   -1.8916 H   0  0  0  0  0  0  0  0  0  0  0  0
    2.2984    0.7014   -4.1773 H   0  0  0  0  0  0  0  0  0  0  0  0
   -1.4781    2.1177   -2.6385 H   0  0  0  0  0  0  0  0  0  0  0  0
   -0.8740    1.1941   -0.4134 H   0  0  0  0  0  0  0  0  0  0  0  0
    0.0690    1.9108   -4.7358 N   0  0  0  0  0  0  0  0  0  0  0  0
   -0.2595    2.1811   -5.7921 N   0  0  0  0  0  0  0  0  0  0  0  0
    5.4029    0.8363   -5.0393 C   0  0  0  0  0  0  0  0  0  0  0  0
    6.5304    0.0423   -4.8229 C   0  0  0  0  0  0  0  0  0  0  0  0
    7.4128    0.3060   -3.7626 C   0  0  0  0  0  0  0  0  0  0  0  0
    7.1420    1.3973   -2.9207 C   0  0  0  0  0  0  0  0  0  0  0  0
    6.0215    2.2067   -3.1200 C   0  0  0  0  0  0  0  0  0  0  0  0
    5.1593    1.9081   -4.1771 C   0  0  0  0  0  0  0  0  0  0  0  0
    4.7268    0.6480   -5.8705 H   0  0  0  0  0  0  0  0  0  0  0  0
    6.7305   -0.7905   -5.4988 H   0  0  0  0  0  0  0  0  0  0  0  0
    7.8244    1.6219   -2.1001 H   0  0  0  0  0  0  0  0  0  0  0  0
    5.8268    3.0599   -2.4726 H   0  0  0  0  0  0  0  0  0  0  0  0
    3.7043    2.9363   -4.4405 S   0  0  0  0  0  0  0  0  0  0  0  0
    3.0670    2.5175   -5.7159 O   0  0  0  0  0  0  0  0  0  0  0  0
    4.0452    4.3471   -4.1727 O   0  0  0  0  0  0  0  0  0  0  0  0
    2.7106    2.5066   -3.1844 O   0  0  0  0  0  0  0  0  0  0  0  0
    8.6197   -0.5730   -3.5402 C   0  0  0  0  0  0  0  0  0  0  0  0
    8.3171   -1.5870   -3.2398 H   0  0  0  0  0  0  0  0  0  0  0  0
    9.2131   -0.6704   -4.4603 H   0  0  0  0  0  0  0  0  0  0  0  0
    9.2698   -0.1697   -2.7536 H   0  0  0  0  0  0  0  0  0  0  0  0
    1.3133   -0.0039   -0.1205 H   0  0  0  0  0  0  0  0  0  0  0  0
  1  7  1  0  0  0  0
  1  6  2  0  0  0  0
  2  8  1  6  0  0  0
  2 26  1  0  0  0  0
  2  1  1  0  0  0  0
  3  2  1  0  0  0  0
  3  4  2  0  0  0  0
  4  5  1  0  0  0  0
  5  6  1  0  0  0  0
  5 10  1  0  0  0  0
  6 31  1  0  0  0  0
  9  4  1  0  0  0  0
 11  3  1  0  0  0  0
 12 11  1  0  0  0  0
 13 14  2  0  0  0  0
 13 18  1  0  0  0  0
 14 15  1  0  0  0  0
 15 27  1  0  0  0  0
 15 16  2  0  0  0  0
 16 21  1  0  0  0  0
 17 16  1  0  0  0  0
 17 22  1  0  0  0  0
 18 17  2  0  0  0  0
 19 13  1  0  0  0  0
 20 14  1  0  0  0  0
 23 18  1  0  0  0  0
 23 25  2  0  0  0  0
 23 26  1  0  0  0  0
 24 23  2  0  0  0  0
 27 28  1  0  0  0  0
 27 30  1  0  0  0  0
 29 27  1  0  0  0  0
M  RAD  3   5   2  11   2  12   3
M  END
