Coordinates from ORCA-job Ph-N2-OTs-B3LYPG-aug-cc-pVDZ-scan-d09-49-n400
 OpenBabel07022015303D

 31 30  0  0  0  0  0  0  0  0999 V2000
    0.5417    0.8587   -3.6312 C   0  0  0  0  0  0  0  0  0  0  0  0
    1.3081    1.7252   -2.8327 C   0  0  0  0  0  0  0  0  0  0  0  0
    0.9848    1.9507   -1.6388 C   0  0  0  0  0  0  0  0  0  0  0  0
   -0.0462    1.5254   -0.8337 C   0  0  0  0  0  0  0  0  0  0  0  0
   -0.8552    0.6474   -1.5990 C   0  0  0  0  0  0  0  0  0  0  0  0
   -0.5700    0.3306   -2.9412 C   0  0  0  0  0  0  0  0  0  0  0  0
    0.7662    0.6171   -4.6680 H   0  0  0  0  0  0  0  0  0  0  0  0
    2.8126    2.6542   -3.9119 H   0  0  0  0  0  0  0  0  0  0  0  0
   -0.2451    1.7802    0.2034 H   0  0  0  0  0  0  0  0  0  0  0  0
   -1.7291    0.2048   -1.1176 H   0  0  0  0  0  0  0  0  0  0  0  0
    0.3235    2.9118    2.6959 N   0  0  0  0  0  0  0  0  0  0  0  0
    0.6857    3.4100    3.6121 N   0  0  0  0  0  0  0  0  0  0  0  0
    5.3989    0.1772   -4.6914 C   0  0  0  0  0  0  0  0  0  0  0  0
    6.5801   -0.4139   -4.2341 C   0  0  0  0  0  0  0  0  0  0  0  0
    7.7932    0.2887   -4.2387 C   0  0  0  0  0  0  0  0  0  0  0  0
    7.8028    1.6092   -4.7236 C   0  0  0  0  0  0  0  0  0  0  0  0
    6.6375    2.2167   -5.1877 C   0  0  0  0  0  0  0  0  0  0  0  0
    5.4446    1.4892   -5.1615 C   0  0  0  0  0  0  0  0  0  0  0  0
    4.4603   -0.3735   -4.7009 H   0  0  0  0  0  0  0  0  0  0  0  0
    6.5550   -1.4422   -3.8718 H   0  0  0  0  0  0  0  0  0  0  0  0
    8.7395    2.1681   -4.7411 H   0  0  0  0  0  0  0  0  0  0  0  0
    6.6486    3.2332   -5.5764 H   0  0  0  0  0  0  0  0  0  0  0  0
    3.9337    2.2725   -5.7463 S   0  0  0  0  0  0  0  0  0  0  0  0
    2.9046    1.2257   -5.9703 O   0  0  0  0  0  0  0  0  0  0  0  0
    4.2785    3.2589   -6.7872 O   0  0  0  0  0  0  0  0  0  0  0  0
    3.4622    3.1740   -4.4402 O   0  0  0  0  0  0  0  0  0  0  0  0
    9.0642   -0.3458   -3.7293 C   0  0  0  0  0  0  0  0  0  0  0  0
    8.9369   -1.4228   -3.5640 H   0  0  0  0  0  0  0  0  0  0  0  0
    9.8925   -0.1999   -4.4370 H   0  0  0  0  0  0  0  0  0  0  0  0
    9.3694    0.1065   -2.7740 H   0  0  0  0  0  0  0  0  0  0  0  0
   -1.2404   -0.3468   -3.4738 H   0  0  0  0  0  0  0  0  0  0  0  0
  1  6  2  0  0  0  0
  1  2  1  0  0  0  0
  2  3  2  0  0  0  0
  3  4  1  0  0  0  0
  4  9  1  0  0  0  0
  5 10  1  0  0  0  0
  5  4  2  0  0  0  0
  6  5  1  0  0  0  0
  7  1  1  0  0  0  0
 11 12  3  0  0  0  0
 13 14  2  0  0  0  0
 14 20  1  0  0  0  0
 15 14  1  0  0  0  0
 15 27  1  0  0  0  0
 16 15  2  0  0  0  0
 17 18  2  0  0  0  0
 17 16  1  0  0  0  0
 18 13  1  0  0  0  0
 19 13  1  0  0  0  0
 21 16  1  0  0  0  0
 22 17  1  0  0  0  0
 23 18  1  0  0  0  0
 23 26  1  0  0  0  0
 24 23  2  0  0  0  0
 25 23  2  0  0  0  0
 26  8  1  0  0  0  0
 27 28  1  0  0  0  0
 27 30  1  0  0  0  0
 29 27  1  0  0  0  0
 31  6  1  0  0  0  0
M  RAD  2   2   2   3   2
M  END
