Coordinates from ORCA-job Ph-N2-OTs-B3LYPG-aug-cc-pVDZ-scan-d09-49-n400
 OpenBabel07022015303D

 31 30  0  0  0  0  0  0  0  0999 V2000
   -0.3229    0.1642   -2.9737 C   0  0  0  0  0  0  0  0  0  0  0  0
    0.6119    1.0466   -2.3846 C   0  0  0  0  0  0  0  0  0  0  0  0
    0.1293    2.0062   -1.7175 C   0  0  0  0  0  0  0  0  0  0  0  0
   -1.1140    2.4720   -1.3848 C   0  0  0  0  0  0  0  0  0  0  0  0
   -2.0616    1.5942   -1.9671 C   0  0  0  0  0  0  0  0  0  0  0  0
   -1.6745    0.4795   -2.7356 C   0  0  0  0  0  0  0  0  0  0  0  0
   -0.0348   -0.6948   -3.5793 H   0  0  0  0  0  0  0  0  0  0  0  0
    2.5185    0.8123   -2.7785 H   0  0  0  0  0  0  0  0  0  0  0  0
   -1.3748    3.3443   -0.7925 H   0  0  0  0  0  0  0  0  0  0  0  0
   -3.1214    1.8013   -1.8086 H   0  0  0  0  0  0  0  0  0  0  0  0
    1.6813    3.6103   -0.6739 N   0  0  0  0  0  0  0  0  0  0  0  0
    2.7525    3.8304   -0.5203 N   0  0  0  0  0  0  0  0  0  0  0  0
    6.0920   -0.1018   -4.8717 C   0  0  0  0  0  0  0  0  0  0  0  0
    7.4590   -0.3763   -4.8907 C   0  0  0  0  0  0  0  0  0  0  0  0
    8.3946    0.5412   -4.3811 C   0  0  0  0  0  0  0  0  0  0  0  0
    7.9240    1.7464   -3.8380 C   0  0  0  0  0  0  0  0  0  0  0  0
    6.5588    2.0396   -3.8054 C   0  0  0  0  0  0  0  0  0  0  0  0
    5.6605    1.1092   -4.3265 C   0  0  0  0  0  0  0  0  0  0  0  0
    5.3714   -0.8069   -5.2824 H   0  0  0  0  0  0  0  0  0  0  0  0
    7.8097   -1.3184   -5.3140 H   0  0  0  0  0  0  0  0  0  0  0  0
    8.6329    2.4725   -3.4380 H   0  0  0  0  0  0  0  0  0  0  0  0
    6.1889    2.9774   -3.3957 H   0  0  0  0  0  0  0  0  0  0  0  0
    3.9055    1.4947   -4.3174 S   0  0  0  0  0  0  0  0  0  0  0  0
    3.2423    0.8507   -5.4768 O   0  0  0  0  0  0  0  0  0  0  0  0
    3.7146    2.9459   -4.0723 O   0  0  0  0  0  0  0  0  0  0  0  0
    3.4887    0.6663   -2.9466 O   0  0  0  0  0  0  0  0  0  0  0  0
    9.8728    0.2438   -4.4486 C   0  0  0  0  0  0  0  0  0  0  0  0
   10.0749   -0.8191   -4.2604 H   0  0  0  0  0  0  0  0  0  0  0  0
   10.2719    0.4798   -5.4472 H   0  0  0  0  0  0  0  0  0  0  0  0
   10.4358    0.8389   -3.7188 H   0  0  0  0  0  0  0  0  0  0  0  0
   -2.4485   -0.1596   -3.1640 H   0  0  0  0  0  0  0  0  0  0  0  0
  1  6  2  0  0  0  0
  1  2  1  0  0  0  0
  2  3  2  0  0  0  0
  3  4  1  0  0  0  0
  4  9  1  0  0  0  0
  5 10  1  0  0  0  0
  5  4  2  0  0  0  0
  6  5  1  0  0  0  0
  7  1  1  0  0  0  0
 11 12  3  0  0  0  0
 13 18  1  0  0  0  0
 14 13  2  0  0  0  0
 14 15  1  0  0  0  0
 15 16  2  0  0  0  0
 16 17  1  0  0  0  0
 16 21  1  0  0  0  0
 17 22  1  0  0  0  0
 18 23  1  0  0  0  0
 18 17  2  0  0  0  0
 19 13  1  0  0  0  0
 20 14  1  0  0  0  0
 23 25  2  0  0  0  0
 23 26  1  0  0  0  0
 24 23  2  0  0  0  0
 26  8  1  0  0  0  0
 27 15  1  0  0  0  0
 27 28  1  0  0  0  0
 27 30  1  0  0  0  0
 29 27  1  0  0  0  0
 31  6  1  0  0  0  0
M  RAD  2   2   2   3   2
M  END
