Coordinates from ORCA-job Ph-N2-OTs-B3LYPG-aug-cc-pVDZ-scan-d09-49-n400
 OpenBabel07022015303D

 31 30  0  0  0  0  0  0  0  0999 V2000
    0.3458    0.8027   -3.6416 C   0  0  0  0  0  0  0  0  0  0  0  0
    1.1189    1.4967   -2.6932 C   0  0  0  0  0  0  0  0  0  0  0  0
    0.7196    1.6064   -1.5059 C   0  0  0  0  0  0  0  0  0  0  0  0
   -0.4111    1.2023   -0.8365 C   0  0  0  0  0  0  0  0  0  0  0  0
   -1.2295    0.5012   -1.7577 C   0  0  0  0  0  0  0  0  0  0  0  0
   -0.8626    0.3122   -3.1045 C   0  0  0  0  0  0  0  0  0  0  0  0
    0.6310    0.6634   -4.6824 H   0  0  0  0  0  0  0  0  0  0  0  0
    2.6668    2.5286   -3.5763 H   0  0  0  0  0  0  0  0  0  0  0  0
   -0.6702    1.3589    0.2067 H   0  0  0  0  0  0  0  0  0  0  0  0
   -2.1774    0.0970   -1.3976 H   0  0  0  0  0  0  0  0  0  0  0  0
    1.9690    2.9710    1.0008 N   0  0  0  0  0  0  0  0  0  0  0  0
    2.9195    3.4845    1.2284 N   0  0  0  0  0  0  0  0  0  0  0  0
    5.3589    0.2628   -4.4612 C   0  0  0  0  0  0  0  0  0  0  0  0
    6.5473   -0.3483   -4.0523 C   0  0  0  0  0  0  0  0  0  0  0  0
    7.7616    0.3531   -4.0502 C   0  0  0  0  0  0  0  0  0  0  0  0
    7.7640    1.6933   -4.4763 C   0  0  0  0  0  0  0  0  0  0  0  0
    6.5900    2.3224   -4.8885 C   0  0  0  0  0  0  0  0  0  0  0  0
    5.3974    1.5950   -4.8721 C   0  0  0  0  0  0  0  0  0  0  0  0
    4.4208   -0.2890   -4.4794 H   0  0  0  0  0  0  0  0  0  0  0  0
    6.5270   -1.3915   -3.7350 H   0  0  0  0  0  0  0  0  0  0  0  0
    8.7013    2.2514   -4.4887 H   0  0  0  0  0  0  0  0  0  0  0  0
    6.5933    3.3548   -5.2327 H   0  0  0  0  0  0  0  0  0  0  0  0
    3.8755    2.4049   -5.3879 S   0  0  0  0  0  0  0  0  0  0  0  0
    2.8814    1.3695   -5.7695 O   0  0  0  0  0  0  0  0  0  0  0  0
    4.2140    3.5250   -6.2863 O   0  0  0  0  0  0  0  0  0  0  0  0
    3.3488    3.1108   -3.9864 O   0  0  0  0  0  0  0  0  0  0  0  0
    9.0421   -0.3052   -3.5977 C   0  0  0  0  0  0  0  0  0  0  0  0
    8.9091   -1.3844   -3.4515 H   0  0  0  0  0  0  0  0  0  0  0  0
    9.8475   -0.1524   -4.3302 H   0  0  0  0  0  0  0  0  0  0  0  0
    9.3846    0.1235   -2.6444 H   0  0  0  0  0  0  0  0  0  0  0  0
   -1.5451   -0.2298   -3.7621 H   0  0  0  0  0  0  0  0  0  0  0  0
  1  6  2  0  0  0  0
  1  2  1  0  0  0  0
  2  3  2  0  0  0  0
  3  4  1  0  0  0  0
  4  9  1  0  0  0  0
  5 10  1  0  0  0  0
  5  4  2  0  0  0  0
  6  5  1  0  0  0  0
  7  1  1  0  0  0  0
 11 12  3  0  0  0  0
 13 14  2  0  0  0  0
 14 15  1  0  0  0  0
 14 20  1  0  0  0  0
 15 27  1  0  0  0  0
 16 15  2  0  0  0  0
 17 18  2  0  0  0  0
 17 16  1  0  0  0  0
 18 13  1  0  0  0  0
 19 13  1  0  0  0  0
 21 16  1  0  0  0  0
 22 17  1  0  0  0  0
 23 18  1  0  0  0  0
 23 26  1  0  0  0  0
 24 23  2  0  0  0  0
 25 23  2  0  0  0  0
 26  8  1  0  0  0  0
 27 28  1  0  0  0  0
 27 30  1  0  0  0  0
 29 27  1  0  0  0  0
 31  6  1  0  0  0  0
M  RAD  2   2   2   3   2
M  END
