Coordinates from ORCA-job Ph-N2-OTs-B3LYPG-aug-cc-pVDZ-scan-d09-49-n400
 OpenBabel07022015303D

 31 30  0  0  0  0  0  0  0  0999 V2000
    0.4186    0.8437   -3.7044 C   0  0  0  0  0  0  0  0  0  0  0  0
    1.2249    1.6021   -2.8381 C   0  0  0  0  0  0  0  0  0  0  0  0
    0.8878    1.7838   -1.6407 C   0  0  0  0  0  0  0  0  0  0  0  0
   -0.2019    1.4061   -0.8913 C   0  0  0  0  0  0  0  0  0  0  0  0
   -1.0552    0.6412   -1.7266 C   0  0  0  0  0  0  0  0  0  0  0  0
   -0.7543    0.3744   -3.0764 C   0  0  0  0  0  0  0  0  0  0  0  0
    0.6549    0.6407   -4.7469 H   0  0  0  0  0  0  0  0  0  0  0  0
    2.7354    2.5703   -3.8730 H   0  0  0  0  0  0  0  0  0  0  0  0
   -0.4131    1.6174    0.1532 H   0  0  0  0  0  0  0  0  0  0  0  0
   -1.9768    0.2461   -1.2953 H   0  0  0  0  0  0  0  0  0  0  0  0
    1.1560    2.9255    2.4008 N   0  0  0  0  0  0  0  0  0  0  0  0
    1.8686    3.3713    3.1167 N   0  0  0  0  0  0  0  0  0  0  0  0
    5.3986    0.1750   -4.6236 C   0  0  0  0  0  0  0  0  0  0  0  0
    6.5861   -0.3898   -4.1498 C   0  0  0  0  0  0  0  0  0  0  0  0
    7.7820    0.3419   -4.1316 C   0  0  0  0  0  0  0  0  0  0  0  0
    7.7678    1.6644   -4.6104 C   0  0  0  0  0  0  0  0  0  0  0  0
    6.5959    2.2461   -5.0906 C   0  0  0  0  0  0  0  0  0  0  0  0
    5.4206    1.4901   -5.0867 C   0  0  0  0  0  0  0  0  0  0  0  0
    4.4735   -0.3977   -4.6503 H   0  0  0  0  0  0  0  0  0  0  0  0
    6.5803   -1.4198   -3.7919 H   0  0  0  0  0  0  0  0  0  0  0  0
    8.6911    2.2455   -4.6103 H   0  0  0  0  0  0  0  0  0  0  0  0
    6.5887    3.2643   -5.4749 H   0  0  0  0  0  0  0  0  0  0  0  0
    3.9001    2.2417   -5.6875 S   0  0  0  0  0  0  0  0  0  0  0  0
    2.9004    1.1730   -5.9399 O   0  0  0  0  0  0  0  0  0  0  0  0
    4.2361    3.2496   -6.7106 O   0  0  0  0  0  0  0  0  0  0  0  0
    3.3852    3.1131   -4.3769 O   0  0  0  0  0  0  0  0  0  0  0  0
    9.0596   -0.2644   -3.6045 C   0  0  0  0  0  0  0  0  0  0  0  0
    8.9544   -1.3443   -3.4423 H   0  0  0  0  0  0  0  0  0  0  0  0
    9.8944   -0.0988   -4.3002 H   0  0  0  0  0  0  0  0  0  0  0  0
    9.3409    0.1934   -2.6445 H   0  0  0  0  0  0  0  0  0  0  0  0
   -1.4612   -0.2148   -3.6638 H   0  0  0  0  0  0  0  0  0  0  0  0
  1  6  2  0  0  0  0
  1  2  1  0  0  0  0
  2  3  2  0  0  0  0
  3  4  1  0  0  0  0
  4  9  1  0  0  0  0
  5 10  1  0  0  0  0
  5  4  2  0  0  0  0
  6  5  1  0  0  0  0
  7  1  1  0  0  0  0
 11 12  3  0  0  0  0
 13 14  2  0  0  0  0
 14 15  1  0  0  0  0
 14 20  1  0  0  0  0
 15 27  1  0  0  0  0
 16 21  1  0  0  0  0
 16 15  2  0  0  0  0
 17 18  2  0  0  0  0
 17 16  1  0  0  0  0
 18 13  1  0  0  0  0
 19 13  1  0  0  0  0
 22 17  1  0  0  0  0
 23 18  1  0  0  0  0
 23 26  1  0  0  0  0
 24 23  2  0  0  0  0
 25 23  2  0  0  0  0
 26  8  1  0  0  0  0
 27 28  1  0  0  0  0
 27 30  1  0  0  0  0
 29 27  1  0  0  0  0
 31  6  1  0  0  0  0
M  RAD  2   2   2   3   2
M  END
