Coordinates from ORCA-job Ph-N2-OTs-B3LYPG-aug-cc-pVDZ-scan-d09-49-n400
 OpenBabel07022015303D

 31 30  0  0  0  0  0  0  0  0999 V2000
   -0.3028    0.1622   -2.9376 C   0  0  0  0  0  0  0  0  0  0  0  0
    0.6529    1.0502   -2.3833 C   0  0  0  0  0  0  0  0  0  0  0  0
    0.1577    2.0268   -1.7387 C   0  0  0  0  0  0  0  0  0  0  0  0
   -1.0839    2.4995   -1.4115 C   0  0  0  0  0  0  0  0  0  0  0  0
   -2.0379    1.6114   -1.9622 C   0  0  0  0  0  0  0  0  0  0  0  0
   -1.6533    0.4778   -2.7037 C   0  0  0  0  0  0  0  0  0  0  0  0
   -0.0191   -0.7127   -3.5229 H   0  0  0  0  0  0  0  0  0  0  0  0
    2.4945    0.7875   -2.7748 H   0  0  0  0  0  0  0  0  0  0  0  0
   -1.3366    3.3878   -0.8398 H   0  0  0  0  0  0  0  0  0  0  0  0
   -3.0961    1.8243   -1.8020 H   0  0  0  0  0  0  0  0  0  0  0  0
    1.6385    3.4886   -0.8480 N   0  0  0  0  0  0  0  0  0  0  0  0
    2.7133    3.6981   -0.7016 N   0  0  0  0  0  0  0  0  0  0  0  0
    6.0780   -0.0788   -4.8686 C   0  0  0  0  0  0  0  0  0  0  0  0
    7.4437   -0.3580   -4.8983 C   0  0  0  0  0  0  0  0  0  0  0  0
    8.3851    0.5469   -4.3763 C   0  0  0  0  0  0  0  0  0  0  0  0
    7.9212    1.7435   -3.8099 C   0  0  0  0  0  0  0  0  0  0  0  0
    6.5569    2.0410   -3.7660 C   0  0  0  0  0  0  0  0  0  0  0  0
    5.6529    1.1238   -4.2998 C   0  0  0  0  0  0  0  0  0  0  0  0
    5.3535   -0.7739   -5.2893 H   0  0  0  0  0  0  0  0  0  0  0  0
    7.7892   -1.2937   -5.3399 H   0  0  0  0  0  0  0  0  0  0  0  0
    8.6344    2.4601   -3.4002 H   0  0  0  0  0  0  0  0  0  0  0  0
    6.1921    2.9726   -3.3383 H   0  0  0  0  0  0  0  0  0  0  0  0
    3.8988    1.5163   -4.2797 S   0  0  0  0  0  0  0  0  0  0  0  0
    3.2395    0.9244   -5.4690 O   0  0  0  0  0  0  0  0  0  0  0  0
    3.7155    2.9594   -3.9807 O   0  0  0  0  0  0  0  0  0  0  0  0
    3.4705    0.6408   -2.9471 O   0  0  0  0  0  0  0  0  0  0  0  0
    9.8617    0.2441   -4.4553 C   0  0  0  0  0  0  0  0  0  0  0  0
   10.0625   -0.8167   -4.2536 H   0  0  0  0  0  0  0  0  0  0  0  0
   10.2508    0.4636   -5.4615 H   0  0  0  0  0  0  0  0  0  0  0  0
   10.4341    0.8474   -3.7399 H   0  0  0  0  0  0  0  0  0  0  0  0
   -2.4280   -0.1734   -3.1122 H   0  0  0  0  0  0  0  0  0  0  0  0
  1  6  2  0  0  0  0
  1  2  1  0  0  0  0
  2  3  2  0  0  0  0
  3  4  1  0  0  0  0
  4  9  1  0  0  0  0
  5 10  1  0  0  0  0
  5  4  2  0  0  0  0
  6  5  1  0  0  0  0
  7  1  1  0  0  0  0
 11 12  3  0  0  0  0
 13 18  1  0  0  0  0
 14 13  2  0  0  0  0
 14 15  1  0  0  0  0
 15 16  2  0  0  0  0
 16 17  1  0  0  0  0
 16 21  1  0  0  0  0
 17 22  1  0  0  0  0
 18 23  1  0  0  0  0
 18 17  2  0  0  0  0
 19 13  1  0  0  0  0
 20 14  1  0  0  0  0
 23 25  2  0  0  0  0
 23 26  1  0  0  0  0
 24 23  2  0  0  0  0
 26  8  1  0  0  0  0
 27 15  1  0  0  0  0
 27 28  1  0  0  0  0
 27 30  1  0  0  0  0
 29 27  1  0  0  0  0
 31  6  1  0  0  0  0
M  RAD  2   2   2   3   2
M  END
