Coordinates from ORCA-job Ph-N2-OTs-B3LYPG-aug-cc-pVDZ-scan-d09-49-n400
 OpenBabel07022015303D

 31 30  0  0  0  0  0  0  0  0999 V2000
    0.6034    0.8814   -3.5778 C   0  0  0  0  0  0  0  0  0  0  0  0
    1.3748    1.7808   -2.8215 C   0  0  0  0  0  0  0  0  0  0  0  0
    1.0682    2.0429   -1.6308 C   0  0  0  0  0  0  0  0  0  0  0  0
    0.0562    1.6348   -0.7943 C   0  0  0  0  0  0  0  0  0  0  0  0
   -0.7558    0.7228   -1.5158 C   0  0  0  0  0  0  0  0  0  0  0  0
   -0.4902    0.3643   -2.8515 C   0  0  0  0  0  0  0  0  0  0  0  0
    0.8121    0.6089   -4.6103 H   0  0  0  0  0  0  0  0  0  0  0  0
    2.8694    2.6696   -3.9434 H   0  0  0  0  0  0  0  0  0  0  0  0
   -0.1330    1.9203    0.2365 H   0  0  0  0  0  0  0  0  0  0  0  0
   -1.6162    0.2873   -1.0045 H   0  0  0  0  0  0  0  0  0  0  0  0
   -0.2692    2.8705    2.9781 N   0  0  0  0  0  0  0  0  0  0  0  0
   -0.2044    3.2975    3.9942 N   0  0  0  0  0  0  0  0  0  0  0  0
    5.4277    0.1574   -4.7296 C   0  0  0  0  0  0  0  0  0  0  0  0
    6.6134   -0.4335   -4.2840 C   0  0  0  0  0  0  0  0  0  0  0  0
    7.8299    0.2626   -4.3191 C   0  0  0  0  0  0  0  0  0  0  0  0
    7.8380    1.5759   -4.8231 C   0  0  0  0  0  0  0  0  0  0  0  0
    6.6680    2.1829   -5.2760 C   0  0  0  0  0  0  0  0  0  0  0  0
    5.4720    1.4623   -5.2193 C   0  0  0  0  0  0  0  0  0  0  0  0
    4.4862   -0.3882   -4.7152 H   0  0  0  0  0  0  0  0  0  0  0  0
    6.5893   -1.4563   -3.9067 H   0  0  0  0  0  0  0  0  0  0  0  0
    8.7769    2.1296   -4.8644 H   0  0  0  0  0  0  0  0  0  0  0  0
    6.6780    3.1937   -5.6793 H   0  0  0  0  0  0  0  0  0  0  0  0
    3.9553    2.2444   -5.7907 S   0  0  0  0  0  0  0  0  0  0  0  0
    2.9164    1.1996   -5.9763 O   0  0  0  0  0  0  0  0  0  0  0  0
    4.2867    3.2088   -6.8563 O   0  0  0  0  0  0  0  0  0  0  0  0
    3.5134    3.1733   -4.4938 O   0  0  0  0  0  0  0  0  0  0  0  0
    9.1061   -0.3717   -3.8224 C   0  0  0  0  0  0  0  0  0  0  0  0
    8.9752   -1.4451   -3.6376 H   0  0  0  0  0  0  0  0  0  0  0  0
    9.9223   -0.2428   -4.5474 H   0  0  0  0  0  0  0  0  0  0  0  0
    9.4313    0.0941   -2.8804 H   0  0  0  0  0  0  0  0  0  0  0  0
   -1.1621   -0.3374   -3.3493 H   0  0  0  0  0  0  0  0  0  0  0  0
  1  6  2  0  0  0  0
  1  2  1  0  0  0  0
  2  3  2  0  0  0  0
  3  4  1  0  0  0  0
  4  9  1  0  0  0  0
  5 10  1  0  0  0  0
  5  4  2  0  0  0  0
  6  5  1  0  0  0  0
  7  1  1  0  0  0  0
 11 12  3  0  0  0  0
 13 19  1  0  0  0  0
 13 14  2  0  0  0  0
 14 20  1  0  0  0  0
 15 14  1  0  0  0  0
 15 27  1  0  0  0  0
 16 15  2  0  0  0  0
 17 18  2  0  0  0  0
 17 16  1  0  0  0  0
 18 13  1  0  0  0  0
 21 16  1  0  0  0  0
 22 17  1  0  0  0  0
 23 18  1  0  0  0  0
 23 26  1  0  0  0  0
 24 23  2  0  0  0  0
 25 23  2  0  0  0  0
 26  8  1  0  0  0  0
 27 28  1  0  0  0  0
 27 30  1  0  0  0  0
 29 27  1  0  0  0  0
 31  6  1  0  0  0  0
M  RAD  2   2   2   3   2
M  END
