Coordinates from ORCA-job Ph-N2-OTs-B3LYPG-aug-cc-pVDZ-scan-d09-49-n400
 OpenBabel07022015303D

 31 30  0  0  0  0  0  0  0  0999 V2000
    0.3452    0.8030   -3.6344 C   0  0  0  0  0  0  0  0  0  0  0  0
    1.1168    1.4966   -2.6839 C   0  0  0  0  0  0  0  0  0  0  0  0
    0.7119    1.6043   -1.4981 C   0  0  0  0  0  0  0  0  0  0  0  0
   -0.4200    1.1999   -0.8318 C   0  0  0  0  0  0  0  0  0  0  0  0
   -1.2357    0.4993   -1.7557 C   0  0  0  0  0  0  0  0  0  0  0  0
   -0.8646    0.3116   -3.1016 C   0  0  0  0  0  0  0  0  0  0  0  0
    0.6329    0.6650   -4.6746 H   0  0  0  0  0  0  0  0  0  0  0  0
    2.6677    2.5234   -3.5597 H   0  0  0  0  0  0  0  0  0  0  0  0
   -0.6817    1.3559    0.2109 H   0  0  0  0  0  0  0  0  0  0  0  0
   -2.1847    0.0949   -1.3987 H   0  0  0  0  0  0  0  0  0  0  0  0
    1.9775    2.9591    0.9305 N   0  0  0  0  0  0  0  0  0  0  0  0
    2.9292    3.4724    1.1537 N   0  0  0  0  0  0  0  0  0  0  0  0
    5.3592    0.2676   -4.4522 C   0  0  0  0  0  0  0  0  0  0  0  0
    6.5478   -0.3452   -4.0465 C   0  0  0  0  0  0  0  0  0  0  0  0
    7.7634    0.3539   -4.0503 C   0  0  0  0  0  0  0  0  0  0  0  0
    7.7671    1.6930   -4.4798 C   0  0  0  0  0  0  0  0  0  0  0  0
    6.5929    2.3237   -4.8886 C   0  0  0  0  0  0  0  0  0  0  0  0
    5.3989    1.5989   -4.8659 C   0  0  0  0  0  0  0  0  0  0  0  0
    4.4198   -0.2821   -4.4653 H   0  0  0  0  0  0  0  0  0  0  0  0
    6.5265   -1.3876   -3.7267 H   0  0  0  0  0  0  0  0  0  0  0  0
    8.7056    2.2489   -4.4969 H   0  0  0  0  0  0  0  0  0  0  0  0
    6.5967    3.3556   -5.2344 H   0  0  0  0  0  0  0  0  0  0  0  0
    3.8754    2.4111   -5.3727 S   0  0  0  0  0  0  0  0  0  0  0  0
    2.8816    1.3770   -5.7583 O   0  0  0  0  0  0  0  0  0  0  0  0
    4.2104    3.5374   -6.2647 O   0  0  0  0  0  0  0  0  0  0  0  0
    3.3523    3.1062   -3.9647 O   0  0  0  0  0  0  0  0  0  0  0  0
    9.0442   -0.3060   -3.6011 C   0  0  0  0  0  0  0  0  0  0  0  0
    8.9093   -1.3844   -3.4510 H   0  0  0  0  0  0  0  0  0  0  0  0
    9.8470   -0.1574   -4.3373 H   0  0  0  0  0  0  0  0  0  0  0  0
    9.3917    0.1249   -2.6505 H   0  0  0  0  0  0  0  0  0  0  0  0
   -1.5450   -0.2299   -3.7617 H   0  0  0  0  0  0  0  0  0  0  0  0
  1  6  2  0  0  0  0
  1  2  1  0  0  0  0
  2  3  2  0  0  0  0
  3  4  1  0  0  0  0
  4  9  1  0  0  0  0
  5 10  1  0  0  0  0
  5  4  2  0  0  0  0
  6  5  1  0  0  0  0
  7  1  1  0  0  0  0
 11 12  3  0  0  0  0
 13 14  2  0  0  0  0
 14 20  1  0  0  0  0
 15 14  1  0  0  0  0
 15 27  1  0  0  0  0
 16 15  2  0  0  0  0
 17 18  2  0  0  0  0
 17 16  1  0  0  0  0
 18 13  1  0  0  0  0
 19 13  1  0  0  0  0
 21 16  1  0  0  0  0
 22 17  1  0  0  0  0
 23 18  1  0  0  0  0
 23 26  1  0  0  0  0
 24 23  2  0  0  0  0
 25 23  2  0  0  0  0
 26  8  1  0  0  0  0
 27 28  1  0  0  0  0
 27 30  1  0  0  0  0
 29 27  1  0  0  0  0
 31  6  1  0  0  0  0
M  RAD  2   2   2   3   2
M  END
