Coordinates from ORCA-job Ph-N2-OTs-B3LYPG-aug-cc-pVDZ-scan-d09-49-n400
 OpenBabel07022015303D

 31 30  0  0  0  0  0  0  0  0999 V2000
   -0.3194    0.1655   -2.9674 C   0  0  0  0  0  0  0  0  0  0  0  0
    0.6193    1.0481   -2.3829 C   0  0  0  0  0  0  0  0  0  0  0  0
    0.1340    2.0102   -1.7194 C   0  0  0  0  0  0  0  0  0  0  0  0
   -1.1088    2.4780   -1.3884 C   0  0  0  0  0  0  0  0  0  0  0  0
   -2.0575    1.5992   -1.9667 C   0  0  0  0  0  0  0  0  0  0  0  0
   -1.6708    0.4814   -2.7311 C   0  0  0  0  0  0  0  0  0  0  0  0
   -0.0319   -0.6959   -3.5700 H   0  0  0  0  0  0  0  0  0  0  0  0
    2.5150    0.8094   -2.7771 H   0  0  0  0  0  0  0  0  0  0  0  0
   -1.3682    3.3528   -0.7992 H   0  0  0  0  0  0  0  0  0  0  0  0
   -3.1171    1.8078   -1.8087 H   0  0  0  0  0  0  0  0  0  0  0  0
    1.6728    3.5825   -0.7024 N   0  0  0  0  0  0  0  0  0  0  0  0
    2.7445    3.7979   -0.5450 N   0  0  0  0  0  0  0  0  0  0  0  0
    6.0902   -0.0990   -4.8710 C   0  0  0  0  0  0  0  0  0  0  0  0
    7.4571   -0.3736   -4.8914 C   0  0  0  0  0  0  0  0  0  0  0  0
    8.3932    0.5428   -4.3804 C   0  0  0  0  0  0  0  0  0  0  0  0
    7.9230    1.7467   -3.8345 C   0  0  0  0  0  0  0  0  0  0  0  0
    6.5578    2.0401   -3.8004 C   0  0  0  0  0  0  0  0  0  0  0  0
    5.6591    1.1109   -4.3229 C   0  0  0  0  0  0  0  0  0  0  0  0
    5.3693   -0.8031   -5.2828 H   0  0  0  0  0  0  0  0  0  0  0  0
    7.8076   -1.3147   -5.3170 H   0  0  0  0  0  0  0  0  0  0  0  0
    8.6322    2.4720   -3.4333 H   0  0  0  0  0  0  0  0  0  0  0  0
    6.1883    2.9770   -3.3886 H   0  0  0  0  0  0  0  0  0  0  0  0
    3.9041    1.4967   -4.3125 S   0  0  0  0  0  0  0  0  0  0  0  0
    3.2412    0.8572   -5.4747 O   0  0  0  0  0  0  0  0  0  0  0  0
    3.7139    2.9474   -4.0631 O   0  0  0  0  0  0  0  0  0  0  0  0
    3.4864    0.6646   -2.9451 O   0  0  0  0  0  0  0  0  0  0  0  0
    9.8713    0.2452   -4.4494 C   0  0  0  0  0  0  0  0  0  0  0  0
   10.0738   -0.8167   -4.2556 H   0  0  0  0  0  0  0  0  0  0  0  0
   10.2683    0.4754   -5.4502 H   0  0  0  0  0  0  0  0  0  0  0  0
   10.4358    0.8442   -3.7240 H   0  0  0  0  0  0  0  0  0  0  0  0
   -2.4449   -0.1590   -3.1572 H   0  0  0  0  0  0  0  0  0  0  0  0
  1  6  2  0  0  0  0
  1  2  1  0  0  0  0
  2  3  2  0  0  0  0
  3  4  1  0  0  0  0
  4  9  1  0  0  0  0
  5 10  1  0  0  0  0
  5  4  2  0  0  0  0
  6  5  1  0  0  0  0
  7  1  1  0  0  0  0
 11 12  3  0  0  0  0
 13 18  1  0  0  0  0
 14 13  2  0  0  0  0
 14 15  1  0  0  0  0
 15 16  2  0  0  0  0
 16 17  1  0  0  0  0
 16 21  1  0  0  0  0
 17 22  1  0  0  0  0
 18 23  1  0  0  0  0
 18 17  2  0  0  0  0
 19 13  1  0  0  0  0
 20 14  1  0  0  0  0
 23 25  2  0  0  0  0
 23 26  1  0  0  0  0
 24 23  2  0  0  0  0
 26  8  1  0  0  0  0
 27 15  1  0  0  0  0
 27 28  1  0  0  0  0
 27 30  1  0  0  0  0
 29 27  1  0  0  0  0
 31  6  1  0  0  0  0
M  RAD  2   2   2   3   2
M  END
