Coordinates from ORCA-job Ph-N2-OTs-B3LYPG-aug-cc-pVDZ-scan-d09-49-n400
 OpenBabel07022015303D

 31 30  0  0  0  0  0  0  0  0999 V2000
   -0.3244    0.1627   -2.9763 C   0  0  0  0  0  0  0  0  0  0  0  0
    0.6086    1.0453   -2.3854 C   0  0  0  0  0  0  0  0  0  0  0  0
    0.1272    2.0041   -1.7170 C   0  0  0  0  0  0  0  0  0  0  0  0
   -1.1164    2.4692   -1.3841 C   0  0  0  0  0  0  0  0  0  0  0  0
   -2.0634    1.5916   -1.9679 C   0  0  0  0  0  0  0  0  0  0  0  0
   -1.6761    0.4779   -2.7379 C   0  0  0  0  0  0  0  0  0  0  0  0
   -0.0359   -0.6954   -3.5829 H   0  0  0  0  0  0  0  0  0  0  0  0
    2.5202    0.8135   -2.7785 H   0  0  0  0  0  0  0  0  0  0  0  0
   -1.3780    3.3405   -0.7908 H   0  0  0  0  0  0  0  0  0  0  0  0
   -3.1234    1.7981   -1.8095 H   0  0  0  0  0  0  0  0  0  0  0  0
    1.6855    3.6247   -0.6609 N   0  0  0  0  0  0  0  0  0  0  0  0
    2.7564    3.8473   -0.5091 N   0  0  0  0  0  0  0  0  0  0  0  0
    6.0925   -0.1027   -4.8719 C   0  0  0  0  0  0  0  0  0  0  0  0
    7.4594   -0.3774   -4.8906 C   0  0  0  0  0  0  0  0  0  0  0  0
    8.3951    0.5403   -4.3816 C   0  0  0  0  0  0  0  0  0  0  0  0
    7.9247    1.7460   -3.8395 C   0  0  0  0  0  0  0  0  0  0  0  0
    6.5595    2.0394   -3.8071 C   0  0  0  0  0  0  0  0  0  0  0  0
    5.6612    1.1088   -4.3276 C   0  0  0  0  0  0  0  0  0  0  0  0
    5.3718   -0.8080   -5.2821 H   0  0  0  0  0  0  0  0  0  0  0  0
    7.8101   -1.3199   -5.3131 H   0  0  0  0  0  0  0  0  0  0  0  0
    8.6336    2.4723   -3.4399 H   0  0  0  0  0  0  0  0  0  0  0  0
    6.1897    2.9775   -3.3980 H   0  0  0  0  0  0  0  0  0  0  0  0
    3.9063    1.4944   -4.3187 S   0  0  0  0  0  0  0  0  0  0  0  0
    3.2425    0.8489   -5.4769 O   0  0  0  0  0  0  0  0  0  0  0  0
    3.7153    2.9457   -4.0750 O   0  0  0  0  0  0  0  0  0  0  0  0
    3.4900    0.6673   -2.9466 O   0  0  0  0  0  0  0  0  0  0  0  0
    9.8734    0.2428   -4.4489 C   0  0  0  0  0  0  0  0  0  0  0  0
   10.0750   -0.8207   -4.2638 H   0  0  0  0  0  0  0  0  0  0  0  0
   10.2733    0.4819   -5.4464 H   0  0  0  0  0  0  0  0  0  0  0  0
   10.4359    0.8355   -3.7168 H   0  0  0  0  0  0  0  0  0  0  0  0
   -2.4500   -0.1607   -3.1671 H   0  0  0  0  0  0  0  0  0  0  0  0
  1  6  2  0  0  0  0
  1  2  1  0  0  0  0
  2  3  2  0  0  0  0
  3  4  1  0  0  0  0
  4  9  1  0  0  0  0
  5 10  1  0  0  0  0
  5  4  2  0  0  0  0
  6  5  1  0  0  0  0
  7  1  1  0  0  0  0
 11 12  3  0  0  0  0
 13 18  1  0  0  0  0
 14 13  2  0  0  0  0
 14 15  1  0  0  0  0
 15 16  2  0  0  0  0
 16 17  1  0  0  0  0
 16 21  1  0  0  0  0
 17 22  1  0  0  0  0
 18 23  1  0  0  0  0
 18 17  2  0  0  0  0
 19 13  1  0  0  0  0
 20 14  1  0  0  0  0
 23 25  2  0  0  0  0
 23 26  1  0  0  0  0
 24 23  2  0  0  0  0
 26  8  1  0  0  0  0
 27 15  1  0  0  0  0
 27 28  1  0  0  0  0
 27 30  1  0  0  0  0
 29 27  1  0  0  0  0
 31  6  1  0  0  0  0
M  RAD  2   2   2   3   2
M  END
