Coordinates from ORCA-job Ph-N2-OTs-B3LYPG-aug-cc-pVDZ-scan-d09-49-n400
 OpenBabel07022015303D

 31 30  0  0  0  0  0  0  0  0999 V2000
   -0.0138    0.9089   -3.4780 C   0  0  0  0  0  0  0  0  0  0  0  0
    0.7380    1.4856   -2.4308 C   0  0  0  0  0  0  0  0  0  0  0  0
    0.1247    1.8308   -1.3848 C   0  0  0  0  0  0  0  0  0  0  0  0
   -1.1755    1.8090   -0.9513 C   0  0  0  0  0  0  0  0  0  0  0  0
   -1.9568    1.2389   -1.9877 C   0  0  0  0  0  0  0  0  0  0  0  0
   -1.3925    0.8083   -3.2043 C   0  0  0  0  0  0  0  0  0  0  0  0
    0.4234    0.5714   -4.4166 H   0  0  0  0  0  0  0  0  0  0  0  0
    2.6507    1.7479   -2.8489 H   0  0  0  0  0  0  0  0  0  0  0  0
   -1.5776    2.1487   -0.0013 H   0  0  0  0  0  0  0  0  0  0  0  0
   -3.0312    1.1337   -1.8236 H   0  0  0  0  0  0  0  0  0  0  0  0
    1.3561    2.9232    0.6719 N   0  0  0  0  0  0  0  0  0  0  0  0
    2.3666    3.2421    0.9830 N   0  0  0  0  0  0  0  0  0  0  0  0
    5.9651   -0.1441   -4.1935 C   0  0  0  0  0  0  0  0  0  0  0  0
    7.3166   -0.4879   -4.1237 C   0  0  0  0  0  0  0  0  0  0  0  0
    8.3229    0.4546   -4.3889 C   0  0  0  0  0  0  0  0  0  0  0  0
    7.9413    1.7602   -4.7400 C   0  0  0  0  0  0  0  0  0  0  0  0
    6.5968    2.1249   -4.8168 C   0  0  0  0  0  0  0  0  0  0  0  0
    5.6238    1.1636   -4.5386 C   0  0  0  0  0  0  0  0  0  0  0  0
    5.1887   -0.8812   -3.9947 H   0  0  0  0  0  0  0  0  0  0  0  0
    7.5922   -1.5090   -3.8586 H   0  0  0  0  0  0  0  0  0  0  0  0
    8.7068    2.5059   -4.9607 H   0  0  0  0  0  0  0  0  0  0  0  0
    6.2983    3.1318   -5.1017 H   0  0  0  0  0  0  0  0  0  0  0  0
    3.8909    1.6254   -4.6382 S   0  0  0  0  0  0  0  0  0  0  0  0
    3.0646    0.4577   -5.0421 O   0  0  0  0  0  0  0  0  0  0  0  0
    3.7706    2.9025   -5.3766 O   0  0  0  0  0  0  0  0  0  0  0  0
    3.6138    1.9040   -3.0311 O   0  0  0  0  0  0  0  0  0  0  0  0
    9.7821    0.0819   -4.2898 C   0  0  0  0  0  0  0  0  0  0  0  0
    9.9125   -1.0047   -4.2118 H   0  0  0  0  0  0  0  0  0  0  0  0
   10.3454    0.4351   -5.1649 H   0  0  0  0  0  0  0  0  0  0  0  0
   10.2429    0.5412   -3.4025 H   0  0  0  0  0  0  0  0  0  0  0  0
   -2.0479    0.3808   -3.9655 H   0  0  0  0  0  0  0  0  0  0  0  0
  1  6  2  0  0  0  0
  1  2  1  0  0  0  0
  2  3  2  0  0  0  0
  3  4  1  0  0  0  0
  4  9  1  0  0  0  0
  5 10  1  0  0  0  0
  5  4  2  0  0  0  0
  6  5  1  0  0  0  0
  7  1  1  0  0  0  0
 11 12  3  0  0  0  0
 13 14  1  0  0  0  0
 13 19  1  0  0  0  0
 14 20  1  0  0  0  0
 15 27  1  0  0  0  0
 15 14  2  0  0  0  0
 16 15  1  0  0  0  0
 17 16  2  0  0  0  0
 17 18  1  0  0  0  0
 18 13  2  0  0  0  0
 21 16  1  0  0  0  0
 22 17  1  0  0  0  0
 23 18  1  0  0  0  0
 23 26  1  0  0  0  0
 24 23  2  0  0  0  0
 25 23  2  0  0  0  0
 26  8  1  0  0  0  0
 27 28  1  0  0  0  0
 27 30  1  0  0  0  0
 29 27  1  0  0  0  0
 31  6  1  0  0  0  0
M  RAD  2   2   2   3   2
M  END
