Coordinates from ORCA-job Ph-N2-OTs-B3LYPG-aug-cc-pVDZ-scan-d09-49-n400
 OpenBabel07022015303D

 31 30  0  0  0  0  0  0  0  0999 V2000
    0.3519    0.8003   -3.6482 C   0  0  0  0  0  0  0  0  0  0  0  0
    1.1238    1.4969   -2.7011 C   0  0  0  0  0  0  0  0  0  0  0  0
    0.7251    1.6106   -1.5140 C   0  0  0  0  0  0  0  0  0  0  0  0
   -0.4055    1.2077   -0.8437 C   0  0  0  0  0  0  0  0  0  0  0  0
   -1.2235    0.5037   -1.7631 C   0  0  0  0  0  0  0  0  0  0  0  0
   -0.8564    0.3110   -3.1093 C   0  0  0  0  0  0  0  0  0  0  0  0
    0.6369    0.6583   -4.6886 H   0  0  0  0  0  0  0  0  0  0  0  0
    2.6724    2.5296   -3.5902 H   0  0  0  0  0  0  0  0  0  0  0  0
   -0.6655    1.3671    0.1990 H   0  0  0  0  0  0  0  0  0  0  0  0
   -2.1714    0.1001   -1.4022 H   0  0  0  0  0  0  0  0  0  0  0  0
    1.9283    2.9943    1.1155 N   0  0  0  0  0  0  0  0  0  0  0  0
    2.8755    3.5095    1.3526 N   0  0  0  0  0  0  0  0  0  0  0  0
    5.3607    0.2588   -4.4719 C   0  0  0  0  0  0  0  0  0  0  0  0
    6.5485   -0.3512   -4.0597 C   0  0  0  0  0  0  0  0  0  0  0  0
    7.7624    0.3510   -4.0562 C   0  0  0  0  0  0  0  0  0  0  0  0
    7.7651    1.6904   -4.4847 C   0  0  0  0  0  0  0  0  0  0  0  0
    6.5917    2.3182   -4.9003 C   0  0  0  0  0  0  0  0  0  0  0  0
    5.3994    1.5903   -4.8849 C   0  0  0  0  0  0  0  0  0  0  0  0
    4.4228   -0.2933   -4.4909 H   0  0  0  0  0  0  0  0  0  0  0  0
    6.5282   -1.3938   -3.7408 H   0  0  0  0  0  0  0  0  0  0  0  0
    8.7022    2.2488   -4.4960 H   0  0  0  0  0  0  0  0  0  0  0  0
    6.5951    3.3502   -5.2460 H   0  0  0  0  0  0  0  0  0  0  0  0
    3.8775    2.3985   -5.4032 S   0  0  0  0  0  0  0  0  0  0  0  0
    2.8828    1.3615   -5.7786 O   0  0  0  0  0  0  0  0  0  0  0  0
    4.2151    3.5146   -6.3069 O   0  0  0  0  0  0  0  0  0  0  0  0
    3.3524    3.1110   -4.0041 O   0  0  0  0  0  0  0  0  0  0  0  0
    9.0421   -0.3060   -3.5998 C   0  0  0  0  0  0  0  0  0  0  0  0
    8.9096   -1.3851   -3.4532 H   0  0  0  0  0  0  0  0  0  0  0  0
    9.8494   -0.1531   -4.3302 H   0  0  0  0  0  0  0  0  0  0  0  0
    9.3817    0.1238   -2.6459 H   0  0  0  0  0  0  0  0  0  0  0  0
   -1.5388   -0.2331   -3.7654 H   0  0  0  0  0  0  0  0  0  0  0  0
  1  6  2  0  0  0  0
  1  2  1  0  0  0  0
  2  3  2  0  0  0  0
  3  4  1  0  0  0  0
  4  9  1  0  0  0  0
  5 10  1  0  0  0  0
  5  4  2  0  0  0  0
  6  5  1  0  0  0  0
  7  1  1  0  0  0  0
 11 12  3  0  0  0  0
 13 14  2  0  0  0  0
 14 15  1  0  0  0  0
 14 20  1  0  0  0  0
 15 27  1  0  0  0  0
 16 15  2  0  0  0  0
 17 18  2  0  0  0  0
 17 16  1  0  0  0  0
 18 13  1  0  0  0  0
 19 13  1  0  0  0  0
 21 16  1  0  0  0  0
 22 17  1  0  0  0  0
 23 18  1  0  0  0  0
 23 26  1  0  0  0  0
 24 23  2  0  0  0  0
 25 23  2  0  0  0  0
 26  8  1  0  0  0  0
 27 28  1  0  0  0  0
 27 30  1  0  0  0  0
 29 27  1  0  0  0  0
 31  6  1  0  0  0  0
M  RAD  2   2   2   3   2
M  END
