Coordinates from ORCA-job Ph-N2-OTs-B3LYPG-aug-cc-pVDZ-scan-d09-49-n400
 OpenBabel07022015303D

 31 32  0  0  1  0  0  0  0  0999 V2000
    1.9085    0.4854   -1.8388 C   0  0  0  0  0  0  0  0  0  0  0  0
    1.8703    1.1399   -3.1732 C   0  0  1  0  0  0  0  0  0  0  0  0
    0.4868    1.5167   -3.4805 C   0  0  1  0  0  0  0  0  0  0  0  0
   -0.5669    1.6901   -2.5483 C   0  0  0  0  0  0  0  0  0  0  0  0
   -0.3557    1.2564   -1.2664 C   0  0  0  0  0  0  0  0  0  0  0  0
    0.8857    0.5993   -0.9478 C   0  0  0  0  0  0  0  0  0  0  0  0
    2.8185   -0.0536   -1.5802 H   0  0  0  0  0  0  0  0  0  0  0  0
    2.3665    0.5730   -3.9632 H   0  0  0  0  0  0  0  0  0  0  0  0
   -1.5048    2.1458   -2.8605 H   0  0  0  0  0  0  0  0  0  0  0  0
   -1.1307    1.3710   -0.5109 H   0  0  0  0  0  0  0  0  0  0  0  0
    0.1746    1.8499   -4.9109 N   0  0  0  0  0  0  0  0  0  0  0  0
   -0.0745    2.0970   -5.9783 N   0  0  0  0  0  0  0  0  0  0  0  0
    5.4164    0.8375   -5.0251 C   0  0  0  0  0  0  0  0  0  0  0  0
    6.5714    0.0662   -4.8824 C   0  0  0  0  0  0  0  0  0  0  0  0
    7.4959    0.3242   -3.8574 C   0  0  0  0  0  0  0  0  0  0  0  0
    7.2387    1.3858   -2.9747 C   0  0  0  0  0  0  0  0  0  0  0  0
    6.0908    2.1719   -3.1007 C   0  0  0  0  0  0  0  0  0  0  0  0
    5.1873    1.8807   -4.1250 C   0  0  0  0  0  0  0  0  0  0  0  0
    4.7076    0.6532   -5.8298 H   0  0  0  0  0  0  0  0  0  0  0  0
    6.7595   -0.7445   -5.5881 H   0  0  0  0  0  0  0  0  0  0  0  0
    7.9509    1.6051   -2.1783 H   0  0  0  0  0  0  0  0  0  0  0  0
    5.9048    3.0028   -2.4225 H   0  0  0  0  0  0  0  0  0  0  0  0
    3.7001    2.8857   -4.2974 S   0  0  0  0  0  0  0  0  0  0  0  0
    3.0170    2.4719   -5.5561 O   0  0  0  0  0  0  0  0  0  0  0  0
    4.0455    4.3021   -4.0540 O   0  0  0  0  0  0  0  0  0  0  0  0
    2.7753    2.4300   -3.0219 O   0  0  0  0  0  0  0  0  0  0  0  0
    8.7344   -0.5285   -3.7189 C   0  0  0  0  0  0  0  0  0  0  0  0
    8.4709   -1.5715   -3.4896 H   0  0  0  0  0  0  0  0  0  0  0  0
    9.3137   -0.5373   -4.6534 H   0  0  0  0  0  0  0  0  0  0  0  0
    9.3861   -0.1610   -2.9164 H   0  0  0  0  0  0  0  0  0  0  0  0
    0.9945    0.1459    0.0387 H   0  0  0  0  0  0  0  0  0  0  0  0
  1  7  1  0  0  0  0
  1  6  2  0  0  0  0
  2  8  1  6  0  0  0
  2 26  1  0  0  0  0
  2  1  1  0  0  0  0
  3 11  1  1  0  0  0
  3  2  1  0  0  0  0
  3  4  1  0  0  0  0
  4  5  2  0  0  0  0
  5  6  1  0  0  0  0
  5 10  1  0  0  0  0
  6 31  1  0  0  0  0
  9  4  1  0  0  0  0
 12 11  1  0  0  0  0
 13 14  2  0  0  0  0
 13 18  1  0  0  0  0
 14 15  1  0  0  0  0
 15 27  1  0  0  0  0
 15 16  2  0  0  0  0
 16 21  1  0  0  0  0
 17 16  1  0  0  0  0
 17 22  1  0  0  0  0
 18 17  2  0  0  0  0
 19 13  1  0  0  0  0
 20 14  1  0  0  0  0
 23 18  1  0  0  0  0
 23 25  2  0  0  0  0
 23 26  1  0  0  0  0
 24 23  2  0  0  0  0
 27 28  1  0  0  0  0
 27 30  1  0  0  0  0
 29 27  1  0  0  0  0
M  RAD  3   3   2  11   2  12   3
M  END
