Coordinates from ORCA-job Ph-N2-OTs-B3LYPG-aug-cc-pVDZ-scan-d09-49-n400
 OpenBabel07022015303D

 31 30  0  0  0  0  0  0  0  0999 V2000
    0.3531    0.8113   -3.6028 C   0  0  0  0  0  0  0  0  0  0  0  0
    1.1213    1.5094   -2.6494 C   0  0  0  0  0  0  0  0  0  0  0  0
    0.6963    1.6049   -1.4683 C   0  0  0  0  0  0  0  0  0  0  0  0
   -0.4346    1.1929   -0.8083 C   0  0  0  0  0  0  0  0  0  0  0  0
   -1.2397    0.4893   -1.7389 C   0  0  0  0  0  0  0  0  0  0  0  0
   -0.8569    0.3089   -3.0825 C   0  0  0  0  0  0  0  0  0  0  0  0
    0.6479    0.6790   -4.6420 H   0  0  0  0  0  0  0  0  0  0  0  0
    2.6597    2.5172   -3.5083 H   0  0  0  0  0  0  0  0  0  0  0  0
   -0.7023    1.3459    0.2333 H   0  0  0  0  0  0  0  0  0  0  0  0
   -2.1884    0.0784   -1.3892 H   0  0  0  0  0  0  0  0  0  0  0  0
    1.9951    2.9051    0.6372 N   0  0  0  0  0  0  0  0  0  0  0  0
    2.9581    3.4114    0.8252 N   0  0  0  0  0  0  0  0  0  0  0  0
    5.3545    0.2810   -4.4222 C   0  0  0  0  0  0  0  0  0  0  0  0
    6.5445   -0.3379   -4.0304 C   0  0  0  0  0  0  0  0  0  0  0  0
    7.7631    0.3560   -4.0457 C   0  0  0  0  0  0  0  0  0  0  0  0
    7.7680    1.6960   -4.4721 C   0  0  0  0  0  0  0  0  0  0  0  0
    6.5921    2.3327   -4.8669 C   0  0  0  0  0  0  0  0  0  0  0  0
    5.3954    1.6130   -4.8335 C   0  0  0  0  0  0  0  0  0  0  0  0
    4.4129   -0.2652   -4.4274 H   0  0  0  0  0  0  0  0  0  0  0  0
    6.5220   -1.3809   -3.7128 H   0  0  0  0  0  0  0  0  0  0  0  0
    8.7086    2.2479   -4.4981 H   0  0  0  0  0  0  0  0  0  0  0  0
    6.5964    3.3653   -5.2107 H   0  0  0  0  0  0  0  0  0  0  0  0
    3.8700    2.4323   -5.3238 S   0  0  0  0  0  0  0  0  0  0  0  0
    2.8772    1.4034   -5.7257 O   0  0  0  0  0  0  0  0  0  0  0  0
    4.2031    3.5727   -6.1987 O   0  0  0  0  0  0  0  0  0  0  0  0
    3.3497    3.1028   -3.9042 O   0  0  0  0  0  0  0  0  0  0  0  0
    9.0459   -0.3106   -3.6120 C   0  0  0  0  0  0  0  0  0  0  0  0
    8.9069   -1.3880   -3.4589 H   0  0  0  0  0  0  0  0  0  0  0  0
    9.8399   -0.1676   -4.3588 H   0  0  0  0  0  0  0  0  0  0  0  0
    9.4081    0.1195   -2.6666 H   0  0  0  0  0  0  0  0  0  0  0  0
   -1.5284   -0.2351   -3.7496 H   0  0  0  0  0  0  0  0  0  0  0  0
  1  6  2  0  0  0  0
  1  2  1  0  0  0  0
  2  3  2  0  0  0  0
  3  4  1  0  0  0  0
  4  9  1  0  0  0  0
  5 10  1  0  0  0  0
  5  4  2  0  0  0  0
  6  5  1  0  0  0  0
  7  1  1  0  0  0  0
 11 12  3  0  0  0  0
 13 14  2  0  0  0  0
 14 20  1  0  0  0  0
 15 14  1  0  0  0  0
 15 27  1  0  0  0  0
 16 15  2  0  0  0  0
 17 18  2  0  0  0  0
 17 16  1  0  0  0  0
 18 13  1  0  0  0  0
 19 13  1  0  0  0  0
 21 16  1  0  0  0  0
 22 17  1  0  0  0  0
 23 18  1  0  0  0  0
 23 26  1  0  0  0  0
 24 23  2  0  0  0  0
 25 23  2  0  0  0  0
 26  8  1  0  0  0  0
 27 28  1  0  0  0  0
 27 30  1  0  0  0  0
 29 27  1  0  0  0  0
 31  6  1  0  0  0  0
M  RAD  2   2   2   3   2
M  END
