Coordinates from ORCA-job Ph-N2-OTs-B3LYPG-aug-cc-pVDZ-scan-d09-49-n400
 OpenBabel07022015303D

 31 30  0  0  0  0  0  0  0  0999 V2000
    0.3797    0.8137   -3.7042 C   0  0  0  0  0  0  0  0  0  0  0  0
    1.1733    1.5339   -2.7936 C   0  0  0  0  0  0  0  0  0  0  0  0
    0.8107    1.6680   -1.5972 C   0  0  0  0  0  0  0  0  0  0  0  0
   -0.2970    1.2712   -0.8860 C   0  0  0  0  0  0  0  0  0  0  0  0
   -1.1370    0.5445   -1.7677 C   0  0  0  0  0  0  0  0  0  0  0  0
   -0.8090    0.3282   -3.1202 C   0  0  0  0  0  0  0  0  0  0  0  0
    0.6362    0.6506   -4.7490 H   0  0  0  0  0  0  0  0  0  0  0  0
    2.6902    2.5543   -3.7520 H   0  0  0  0  0  0  0  0  0  0  0  0
   -0.5285    1.4444    0.1610 H   0  0  0  0  0  0  0  0  0  0  0  0
   -2.0703    0.1405   -1.3712 H   0  0  0  0  0  0  0  0  0  0  0  0
    1.6730    3.0123    1.8367 N   0  0  0  0  0  0  0  0  0  0  0  0
    2.5254    3.5397    2.2995 N   0  0  0  0  0  0  0  0  0  0  0  0
    5.3648    0.2195   -4.5580 C   0  0  0  0  0  0  0  0  0  0  0  0
    6.5483   -0.3697   -4.1043 C   0  0  0  0  0  0  0  0  0  0  0  0
    7.7526    0.3477   -4.0762 C   0  0  0  0  0  0  0  0  0  0  0  0
    7.7508    1.6813   -4.5233 C   0  0  0  0  0  0  0  0  0  0  0  0
    6.5825    2.2878   -4.9818 C   0  0  0  0  0  0  0  0  0  0  0  0
    5.3990    1.5451   -4.9892 C   0  0  0  0  0  0  0  0  0  0  0  0
    4.4339   -0.3433   -4.5941 H   0  0  0  0  0  0  0  0  0  0  0  0
    6.5321   -1.4080   -3.7711 H   0  0  0  0  0  0  0  0  0  0  0  0
    8.6808    2.2515   -4.5154 H   0  0  0  0  0  0  0  0  0  0  0  0
    6.5840    3.3148   -5.3419 H   0  0  0  0  0  0  0  0  0  0  0  0
    3.8837    2.3282   -5.5621 S   0  0  0  0  0  0  0  0  0  0  0  0
    2.8877    1.2751   -5.8850 O   0  0  0  0  0  0  0  0  0  0  0  0
    4.2299    3.3919   -6.5237 O   0  0  0  0  0  0  0  0  0  0  0  0
    3.3533    3.1222   -4.2095 O   0  0  0  0  0  0  0  0  0  0  0  0
    9.0268   -0.2859   -3.5736 C   0  0  0  0  0  0  0  0  0  0  0  0
    8.9056   -1.3656   -3.4218 H   0  0  0  0  0  0  0  0  0  0  0  0
    9.8545   -0.1269   -4.2793 H   0  0  0  0  0  0  0  0  0  0  0  0
    9.3293    0.1567   -2.6130 H   0  0  0  0  0  0  0  0  0  0  0  0
   -1.5069   -0.2330   -3.7448 H   0  0  0  0  0  0  0  0  0  0  0  0
  1  6  2  0  0  0  0
  1  2  1  0  0  0  0
  2  3  2  0  0  0  0
  3  4  1  0  0  0  0
  4  9  1  0  0  0  0
  5 10  1  0  0  0  0
  5  4  2  0  0  0  0
  6  5  1  0  0  0  0
  7  1  1  0  0  0  0
 11 12  3  0  0  0  0
 13 14  2  0  0  0  0
 14 15  1  0  0  0  0
 14 20  1  0  0  0  0
 15 27  1  0  0  0  0
 16 21  1  0  0  0  0
 16 15  2  0  0  0  0
 17 16  1  0  0  0  0
 18 17  2  0  0  0  0
 18 13  1  0  0  0  0
 19 13  1  0  0  0  0
 22 17  1  0  0  0  0
 23 18  1  0  0  0  0
 23 26  1  0  0  0  0
 24 23  2  0  0  0  0
 25 23  2  0  0  0  0
 26  8  1  0  0  0  0
 27 28  1  0  0  0  0
 27 30  1  0  0  0  0
 29 27  1  0  0  0  0
 31  6  1  0  0  0  0
M  RAD  2   2   2   3   2
M  END
