Coordinates from ORCA-job Ph-N2-OTs-B3LYPG-aug-cc-pVDZ-scan-d09-49-n400
 OpenBabel07022015303D

 31 30  0  0  0  0  0  0  0  0999 V2000
    0.5280    0.8555   -3.6473 C   0  0  0  0  0  0  0  0  0  0  0  0
    1.3017    1.7041   -2.8367 C   0  0  0  0  0  0  0  0  0  0  0  0
    0.9741    1.9239   -1.6429 C   0  0  0  0  0  0  0  0  0  0  0  0
   -0.0699    1.5095   -0.8490 C   0  0  0  0  0  0  0  0  0  0  0  0
   -0.8872    0.6506   -1.6272 C   0  0  0  0  0  0  0  0  0  0  0  0
   -0.5972    0.3401   -2.9698 C   0  0  0  0  0  0  0  0  0  0  0  0
    0.7561    0.6187   -4.6844 H   0  0  0  0  0  0  0  0  0  0  0  0
    2.8007    2.6387   -3.9143 H   0  0  0  0  0  0  0  0  0  0  0  0
   -0.2729    1.7582    0.1892 H   0  0  0  0  0  0  0  0  0  0  0  0
   -1.7715    0.2181   -1.1557 H   0  0  0  0  0  0  0  0  0  0  0  0
    0.4505    2.9258    2.6910 N   0  0  0  0  0  0  0  0  0  0  0  0
    0.8906    3.3901    3.5908 N   0  0  0  0  0  0  0  0  0  0  0  0
    5.3981    0.1738   -4.6850 C   0  0  0  0  0  0  0  0  0  0  0  0
    6.5801   -0.4107   -4.2213 C   0  0  0  0  0  0  0  0  0  0  0  0
    7.7893    0.2987   -4.2197 C   0  0  0  0  0  0  0  0  0  0  0  0
    7.7942    1.6190   -4.7051 C   0  0  0  0  0  0  0  0  0  0  0  0
    6.6281    2.2199   -5.1757 C   0  0  0  0  0  0  0  0  0  0  0  0
    5.4391    1.4858   -5.1553 C   0  0  0  0  0  0  0  0  0  0  0  0
    4.4624   -0.3819   -4.6989 H   0  0  0  0  0  0  0  0  0  0  0  0
    6.5589   -1.4388   -3.8584 H   0  0  0  0  0  0  0  0  0  0  0  0
    8.7279    2.1830   -4.7178 H   0  0  0  0  0  0  0  0  0  0  0  0
    6.6356    3.2363   -5.5647 H   0  0  0  0  0  0  0  0  0  0  0  0
    3.9267    2.2613   -5.7462 S   0  0  0  0  0  0  0  0  0  0  0  0
    2.9031    1.2095   -5.9718 O   0  0  0  0  0  0  0  0  0  0  0  0
    4.2699    3.2482   -6.7872 O   0  0  0  0  0  0  0  0  0  0  0  0
    3.4473    3.1622   -4.4425 O   0  0  0  0  0  0  0  0  0  0  0  0
    9.0610   -0.3284   -3.7030 C   0  0  0  0  0  0  0  0  0  0  0  0
    8.9387   -1.4060   -3.5374 H   0  0  0  0  0  0  0  0  0  0  0  0
    9.8922   -0.1787   -4.4065 H   0  0  0  0  0  0  0  0  0  0  0  0
    9.3587    0.1265   -2.7466 H   0  0  0  0  0  0  0  0  0  0  0  0
   -1.2746   -0.3221   -3.5126 H   0  0  0  0  0  0  0  0  0  0  0  0
  1  6  2  0  0  0  0
  1  2  1  0  0  0  0
  2  3  2  0  0  0  0
  3  4  1  0  0  0  0
  4  9  1  0  0  0  0
  5 10  1  0  0  0  0
  5  4  2  0  0  0  0
  6  5  1  0  0  0  0
  7  1  1  0  0  0  0
 11 12  3  0  0  0  0
 13 14  2  0  0  0  0
 14 15  1  0  0  0  0
 14 20  1  0  0  0  0
 15 27  1  0  0  0  0
 16 15  2  0  0  0  0
 17 18  2  0  0  0  0
 17 16  1  0  0  0  0
 18 13  1  0  0  0  0
 19 13  1  0  0  0  0
 21 16  1  0  0  0  0
 22 17  1  0  0  0  0
 23 18  1  0  0  0  0
 23 26  1  0  0  0  0
 24 23  2  0  0  0  0
 25 23  2  0  0  0  0
 26  8  1  0  0  0  0
 27 28  1  0  0  0  0
 27 30  1  0  0  0  0
 29 27  1  0  0  0  0
 31  6  1  0  0  0  0
M  RAD  2   2   2   3   2
M  END
