Coordinates from ORCA-job Ph-N2-OTs-B3LYPG-aug-cc-pVDZ-scan-d09-49-n400
 OpenBabel07022015303D

 31 32  0  0  1  0  0  0  0  0999 V2000
    1.8362    0.4427   -1.8242 C   0  0  0  0  0  0  0  0  0  0  0  0
    1.8252    1.0864   -3.1560 C   0  0  1  0  0  0  0  0  0  0  0  0
    0.4688    1.5084   -3.4628 C   0  0  1  0  0  0  0  0  0  0  0  0
   -0.5902    1.7265   -2.5536 C   0  0  0  0  0  0  0  0  0  0  0  0
   -0.4054    1.2870   -1.2667 C   0  0  0  0  0  0  0  0  0  0  0  0
    0.8101    0.5949   -0.9378 C   0  0  0  0  0  0  0  0  0  0  0  0
    2.7276   -0.1216   -1.5550 H   0  0  0  0  0  0  0  0  0  0  0  0
    2.3329    0.5333   -3.9459 H   0  0  0  0  0  0  0  0  0  0  0  0
   -1.5078    2.2129   -2.8782 H   0  0  0  0  0  0  0  0  0  0  0  0
   -1.1840    1.4280   -0.5196 H   0  0  0  0  0  0  0  0  0  0  0  0
    0.1805    1.8874   -4.9290 N   0  0  0  0  0  0  0  0  0  0  0  0
   -0.0544    2.1555   -5.9907 N   0  0  0  0  0  0  0  0  0  0  0  0
    5.4257    0.8093   -5.0010 C   0  0  0  0  0  0  0  0  0  0  0  0
    6.5922    0.0525   -4.8743 C   0  0  0  0  0  0  0  0  0  0  0  0
    7.5367    0.3349   -3.8744 C   0  0  0  0  0  0  0  0  0  0  0  0
    7.2866    1.4050   -3.0001 C   0  0  0  0  0  0  0  0  0  0  0  0
    6.1269    2.1763   -3.1108 C   0  0  0  0  0  0  0  0  0  0  0  0
    5.2040    1.8621   -4.1104 C   0  0  0  0  0  0  0  0  0  0  0  0
    4.7018    0.6066   -5.7877 H   0  0  0  0  0  0  0  0  0  0  0  0
    6.7733   -0.7661   -5.5728 H   0  0  0  0  0  0  0  0  0  0  0  0
    8.0138    1.6429   -2.2227 H   0  0  0  0  0  0  0  0  0  0  0  0
    5.9467    3.0145   -2.4400 H   0  0  0  0  0  0  0  0  0  0  0  0
    3.7003    2.8483   -4.2626 S   0  0  0  0  0  0  0  0  0  0  0  0
    3.0094    2.4219   -5.5159 O   0  0  0  0  0  0  0  0  0  0  0  0
    4.0414    4.2713   -4.0442 O   0  0  0  0  0  0  0  0  0  0  0  0
    2.7984    2.3882   -2.9867 O   0  0  0  0  0  0  0  0  0  0  0  0
    8.7903   -0.4990   -3.7554 C   0  0  0  0  0  0  0  0  0  0  0  0
    8.5466   -1.5496   -3.5402 H   0  0  0  0  0  0  0  0  0  0  0  0
    9.3640   -0.4836   -4.6935 H   0  0  0  0  0  0  0  0  0  0  0  0
    9.4410   -0.1313   -2.9521 H   0  0  0  0  0  0  0  0  0  0  0  0
    0.9006    0.1452    0.0522 H   0  0  0  0  0  0  0  0  0  0  0  0
  1  7  1  0  0  0  0
  1  6  2  0  0  0  0
  2  8  1  6  0  0  0
  2 26  1  0  0  0  0
  2  1  1  0  0  0  0
  3 11  1  1  0  0  0
  3  2  1  0  0  0  0
  3  4  1  0  0  0  0
  4  5  2  0  0  0  0
  5  6  1  0  0  0  0
  5 10  1  0  0  0  0
  6 31  1  0  0  0  0
  9  4  1  0  0  0  0
 12 11  1  0  0  0  0
 13 14  2  0  0  0  0
 13 18  1  0  0  0  0
 14 15  1  0  0  0  0
 15 27  1  0  0  0  0
 15 16  2  0  0  0  0
 16 21  1  0  0  0  0
 17 16  1  0  0  0  0
 17 22  1  0  0  0  0
 18 17  2  0  0  0  0
 19 13  1  0  0  0  0
 20 14  1  0  0  0  0
 23 18  1  0  0  0  0
 23 25  2  0  0  0  0
 23 26  1  0  0  0  0
 24 23  2  0  0  0  0
 27 28  1  0  0  0  0
 27 30  1  0  0  0  0
 29 27  1  0  0  0  0
M  RAD  3   3   2  11   2  12   3
M  END
