Coordinates from ORCA-job Ph-N2-OTs-B3LYPG-aug-cc-pVDZ-scan-d09-49-n400
 OpenBabel07022015303D

 31 30  0  0  0  0  0  0  0  0999 V2000
    0.3539    0.8000   -3.6586 C   0  0  0  0  0  0  0  0  0  0  0  0
    1.1273    1.5008   -2.7163 C   0  0  0  0  0  0  0  0  0  0  0  0
    0.7339    1.6203   -1.5282 C   0  0  0  0  0  0  0  0  0  0  0  0
   -0.3951    1.2192   -0.8533 C   0  0  0  0  0  0  0  0  0  0  0  0
   -1.2153    0.5107   -1.7672 C   0  0  0  0  0  0  0  0  0  0  0  0
   -0.8523    0.3125   -3.1137 C   0  0  0  0  0  0  0  0  0  0  0  0
    0.6362    0.6533   -4.6991 H   0  0  0  0  0  0  0  0  0  0  0  0
    2.6788    2.5322   -3.6151 H   0  0  0  0  0  0  0  0  0  0  0  0
   -0.6527    1.3822    0.1895 H   0  0  0  0  0  0  0  0  0  0  0  0
   -2.1617    0.1079   -1.4017 H   0  0  0  0  0  0  0  0  0  0  0  0
    1.8576    3.0173    1.2852 N   0  0  0  0  0  0  0  0  0  0  0  0
    2.7968    3.5358    1.5458 N   0  0  0  0  0  0  0  0  0  0  0  0
    5.3664    0.2509   -4.4866 C   0  0  0  0  0  0  0  0  0  0  0  0
    6.5544   -0.3558   -4.0701 C   0  0  0  0  0  0  0  0  0  0  0  0
    7.7670    0.3484   -4.0658 C   0  0  0  0  0  0  0  0  0  0  0  0
    7.7683    1.6868   -4.4979 C   0  0  0  0  0  0  0  0  0  0  0  0
    6.5948    2.3113   -4.9181 C   0  0  0  0  0  0  0  0  0  0  0  0
    5.4037    1.5813   -4.9034 C   0  0  0  0  0  0  0  0  0  0  0  0
    4.4294   -0.3027   -4.5060 H   0  0  0  0  0  0  0  0  0  0  0  0
    6.5352   -1.3976   -3.7482 H   0  0  0  0  0  0  0  0  0  0  0  0
    8.7044    2.2468   -4.5086 H   0  0  0  0  0  0  0  0  0  0  0  0
    6.5974    3.3423   -5.2666 H   0  0  0  0  0  0  0  0  0  0  0  0
    3.8819    2.3854   -5.4280 S   0  0  0  0  0  0  0  0  0  0  0  0
    2.8866    1.3457   -5.7942 O   0  0  0  0  0  0  0  0  0  0  0  0
    4.2195    3.4938   -6.3412 O   0  0  0  0  0  0  0  0  0  0  0  0
    3.3573    3.1106   -4.0352 O   0  0  0  0  0  0  0  0  0  0  0  0
    9.0469   -0.3050   -3.6046 C   0  0  0  0  0  0  0  0  0  0  0  0
    8.9161   -1.3841   -3.4563 H   0  0  0  0  0  0  0  0  0  0  0  0
    9.8559   -0.1517   -4.3330 H   0  0  0  0  0  0  0  0  0  0  0  0
    9.3828    0.1272   -2.6504 H   0  0  0  0  0  0  0  0  0  0  0  0
   -1.5362   -0.2349   -3.7653 H   0  0  0  0  0  0  0  0  0  0  0  0
  1  6  2  0  0  0  0
  1  2  1  0  0  0  0
  2  3  2  0  0  0  0
  3  4  1  0  0  0  0
  4  9  1  0  0  0  0
  5 10  1  0  0  0  0
  5  4  2  0  0  0  0
  6  5  1  0  0  0  0
  7  1  1  0  0  0  0
 11 12  3  0  0  0  0
 13 14  2  0  0  0  0
 14 15  1  0  0  0  0
 14 20  1  0  0  0  0
 15 27  1  0  0  0  0
 16 15  2  0  0  0  0
 17 18  2  0  0  0  0
 17 16  1  0  0  0  0
 18 13  1  0  0  0  0
 19 13  1  0  0  0  0
 21 16  1  0  0  0  0
 22 17  1  0  0  0  0
 23 18  1  0  0  0  0
 23 26  1  0  0  0  0
 24 23  2  0  0  0  0
 25 23  2  0  0  0  0
 26  8  1  0  0  0  0
 27 28  1  0  0  0  0
 27 30  1  0  0  0  0
 29 27  1  0  0  0  0
 31  6  1  0  0  0  0
M  RAD  2   2   2   3   2
M  END
