Coordinates from ORCA-job Ph-N2-OTs-B3LYPG-aug-cc-pVDZ-scan-d09-49-n400
 OpenBabel07022015303D

 31 30  0  0  0  0  0  0  0  0999 V2000
    0.3511    0.8002   -3.6525 C   0  0  0  0  0  0  0  0  0  0  0  0
    1.1243    1.4971   -2.7070 C   0  0  0  0  0  0  0  0  0  0  0  0
    0.7287    1.6130   -1.5192 C   0  0  0  0  0  0  0  0  0  0  0  0
   -0.4017    1.2112   -0.8472 C   0  0  0  0  0  0  0  0  0  0  0  0
   -1.2215    0.5068   -1.7646 C   0  0  0  0  0  0  0  0  0  0  0  0
   -0.8566    0.3123   -3.1112 C   0  0  0  0  0  0  0  0  0  0  0  0
    0.6347    0.6568   -4.6931 H   0  0  0  0  0  0  0  0  0  0  0  0
    2.6747    2.5311   -3.6007 H   0  0  0  0  0  0  0  0  0  0  0  0
   -0.6601    1.3719    0.1957 H   0  0  0  0  0  0  0  0  0  0  0  0
   -2.1690    0.1042   -1.4017 H   0  0  0  0  0  0  0  0  0  0  0  0
    1.9032    3.0028    1.1807 N   0  0  0  0  0  0  0  0  0  0  0  0
    2.8473    3.5195    1.4274 N   0  0  0  0  0  0  0  0  0  0  0  0
    5.3633    0.2556   -4.4776 C   0  0  0  0  0  0  0  0  0  0  0  0
    6.5512   -0.3530   -4.0635 C   0  0  0  0  0  0  0  0  0  0  0  0
    7.7645    0.3501   -4.0595 C   0  0  0  0  0  0  0  0  0  0  0  0
    7.7665    1.6892   -4.4891 C   0  0  0  0  0  0  0  0  0  0  0  0
    6.5931    2.3156   -4.9066 C   0  0  0  0  0  0  0  0  0  0  0  0
    5.4013    1.5867   -4.8918 C   0  0  0  0  0  0  0  0  0  0  0  0
    4.4259   -0.2973   -4.4970 H   0  0  0  0  0  0  0  0  0  0  0  0
    6.5314   -1.3953   -3.7436 H   0  0  0  0  0  0  0  0  0  0  0  0
    8.7031    2.2484   -4.5000 H   0  0  0  0  0  0  0  0  0  0  0  0
    6.5961    3.3472   -5.2533 H   0  0  0  0  0  0  0  0  0  0  0  0
    3.8796    2.3931   -5.4135 S   0  0  0  0  0  0  0  0  0  0  0  0
    2.8848    1.3551   -5.7856 O   0  0  0  0  0  0  0  0  0  0  0  0
    4.2178    3.5060   -6.3210 O   0  0  0  0  0  0  0  0  0  0  0  0
    3.3539    3.1113   -4.0175 O   0  0  0  0  0  0  0  0  0  0  0  0
    9.0444   -0.3053   -3.6012 C   0  0  0  0  0  0  0  0  0  0  0  0
    8.9126   -1.3845   -3.4538 H   0  0  0  0  0  0  0  0  0  0  0  0
    9.8523   -0.1524   -4.3309 H   0  0  0  0  0  0  0  0  0  0  0  0
    9.3826    0.1255   -2.6472 H   0  0  0  0  0  0  0  0  0  0  0  0
   -1.5402   -0.2321   -3.7656 H   0  0  0  0  0  0  0  0  0  0  0  0
  1  6  2  0  0  0  0
  1  2  1  0  0  0  0
  2  3  2  0  0  0  0
  3  4  1  0  0  0  0
  4  9  1  0  0  0  0
  5 10  1  0  0  0  0
  5  4  2  0  0  0  0
  6  5  1  0  0  0  0
  7  1  1  0  0  0  0
 11 12  3  0  0  0  0
 13 14  2  0  0  0  0
 14 15  1  0  0  0  0
 14 20  1  0  0  0  0
 15 27  1  0  0  0  0
 16 15  2  0  0  0  0
 17 18  2  0  0  0  0
 17 16  1  0  0  0  0
 18 13  1  0  0  0  0
 19 13  1  0  0  0  0
 21 16  1  0  0  0  0
 22 17  1  0  0  0  0
 23 18  1  0  0  0  0
 23 26  1  0  0  0  0
 24 23  2  0  0  0  0
 25 23  2  0  0  0  0
 26  8  1  0  0  0  0
 27 28  1  0  0  0  0
 27 30  1  0  0  0  0
 29 27  1  0  0  0  0
 31  6  1  0  0  0  0
M  RAD  2   2   2   3   2
M  END
