Coordinates from ORCA-job Ph-N2-OTs-B3LYPG-aug-cc-pVDZ-scan-d09-49-n400
 OpenBabel07022015303D

 31 30  0  0  0  0  0  0  0  0999 V2000
    0.3784    0.8126   -3.7019 C   0  0  0  0  0  0  0  0  0  0  0  0
    1.1704    1.5327   -2.7901 C   0  0  0  0  0  0  0  0  0  0  0  0
    0.8053    1.6671   -1.5946 C   0  0  0  0  0  0  0  0  0  0  0  0
   -0.3034    1.2712   -0.8839 C   0  0  0  0  0  0  0  0  0  0  0  0
   -1.1414    0.5440   -1.7675 C   0  0  0  0  0  0  0  0  0  0  0  0
   -0.8110    0.3271   -3.1194 C   0  0  0  0  0  0  0  0  0  0  0  0
    0.6364    0.6496   -4.7463 H   0  0  0  0  0  0  0  0  0  0  0  0
    2.6903    2.5536   -3.7464 H   0  0  0  0  0  0  0  0  0  0  0  0
   -0.5374    1.4445    0.1627 H   0  0  0  0  0  0  0  0  0  0  0  0
   -2.0754    0.1400   -1.3727 H   0  0  0  0  0  0  0  0  0  0  0  0
    1.6686    3.0179    1.8255 N   0  0  0  0  0  0  0  0  0  0  0  0
    2.5220    3.5468    2.2847 N   0  0  0  0  0  0  0  0  0  0  0  0
    5.3670    0.2196   -4.5561 C   0  0  0  0  0  0  0  0  0  0  0  0
    6.5512   -0.3704   -4.1054 C   0  0  0  0  0  0  0  0  0  0  0  0
    7.7558    0.3467   -4.0786 C   0  0  0  0  0  0  0  0  0  0  0  0
    7.7533    1.6810   -4.5235 C   0  0  0  0  0  0  0  0  0  0  0  0
    6.5843    2.2883   -4.9790 C   0  0  0  0  0  0  0  0  0  0  0  0
    5.4006    1.5459   -4.9854 C   0  0  0  0  0  0  0  0  0  0  0  0
    4.4360   -0.3431   -4.5916 H   0  0  0  0  0  0  0  0  0  0  0  0
    6.5356   -1.4092   -3.7738 H   0  0  0  0  0  0  0  0  0  0  0  0
    8.6834    2.2511   -4.5166 H   0  0  0  0  0  0  0  0  0  0  0  0
    6.5853    3.3158   -5.3378 H   0  0  0  0  0  0  0  0  0  0  0  0
    3.8848    2.3296   -5.5563 S   0  0  0  0  0  0  0  0  0  0  0  0
    2.8890    1.2769   -5.8808 O   0  0  0  0  0  0  0  0  0  0  0  0
    4.2307    3.3949   -6.5163 O   0  0  0  0  0  0  0  0  0  0  0  0
    3.3545    3.1215   -4.2024 O   0  0  0  0  0  0  0  0  0  0  0  0
    9.0308   -0.2879   -3.5794 C   0  0  0  0  0  0  0  0  0  0  0  0
    8.9097   -1.3678   -3.4287 H   0  0  0  0  0  0  0  0  0  0  0  0
    9.8571   -0.1281   -4.2866 H   0  0  0  0  0  0  0  0  0  0  0  0
    9.3354    0.1534   -2.6188 H   0  0  0  0  0  0  0  0  0  0  0  0
   -1.5079   -0.2343   -3.7449 H   0  0  0  0  0  0  0  0  0  0  0  0
  1  6  2  0  0  0  0
  1  2  1  0  0  0  0
  2  3  2  0  0  0  0
  3  4  1  0  0  0  0
  4  9  1  0  0  0  0
  5 10  1  0  0  0  0
  5  4  2  0  0  0  0
  6  5  1  0  0  0  0
  7  1  1  0  0  0  0
 11 12  3  0  0  0  0
 13 14  2  0  0  0  0
 14 15  1  0  0  0  0
 14 20  1  0  0  0  0
 15 27  1  0  0  0  0
 16 21  1  0  0  0  0
 16 15  2  0  0  0  0
 17 16  1  0  0  0  0
 18 17  2  0  0  0  0
 18 13  1  0  0  0  0
 19 13  1  0  0  0  0
 22 17  1  0  0  0  0
 23 18  1  0  0  0  0
 23 26  1  0  0  0  0
 24 23  2  0  0  0  0
 25 23  2  0  0  0  0
 26  8  1  0  0  0  0
 27 28  1  0  0  0  0
 27 30  1  0  0  0  0
 29 27  1  0  0  0  0
 31  6  1  0  0  0  0
M  RAD  2   2   2   3   2
M  END
