Coordinates from ORCA-job Ph-N2-OTs-B3LYPG-aug-cc-pVDZ-scan-d09-49-n400
 OpenBabel07022015303D

 31 30  0  0  0  0  0  0  0  0999 V2000
    0.3567    0.8005   -3.6663 C   0  0  0  0  0  0  0  0  0  0  0  0
    1.1330    1.5046   -2.7289 C   0  0  0  0  0  0  0  0  0  0  0  0
    0.7437    1.6280   -1.5399 C   0  0  0  0  0  0  0  0  0  0  0  0
   -0.3828    1.2287   -0.8597 C   0  0  0  0  0  0  0  0  0  0  0  0
   -1.2061    0.5170   -1.7687 C   0  0  0  0  0  0  0  0  0  0  0  0
   -0.8475    0.3145   -3.1156 C   0  0  0  0  0  0  0  0  0  0  0  0
    0.6357    0.6500   -4.7072 H   0  0  0  0  0  0  0  0  0  0  0  0
    2.6818    2.5337   -3.6361 H   0  0  0  0  0  0  0  0  0  0  0  0
   -0.6375    1.3944    0.1832 H   0  0  0  0  0  0  0  0  0  0  0  0
   -2.1510    0.1149   -1.3987 H   0  0  0  0  0  0  0  0  0  0  0  0
    1.8202    3.0230    1.3869 N   0  0  0  0  0  0  0  0  0  0  0  0
    2.7456    3.5441    1.6885 N   0  0  0  0  0  0  0  0  0  0  0  0
    5.3684    0.2454   -4.4984 C   0  0  0  0  0  0  0  0  0  0  0  0
    6.5560   -0.3584   -4.0768 C   0  0  0  0  0  0  0  0  0  0  0  0
    7.7674    0.3478   -4.0700 C   0  0  0  0  0  0  0  0  0  0  0  0
    7.7679    1.6853   -4.5050 C   0  0  0  0  0  0  0  0  0  0  0  0
    6.5948    2.3068   -4.9304 C   0  0  0  0  0  0  0  0  0  0  0  0
    5.4048    1.5748   -4.9179 C   0  0  0  0  0  0  0  0  0  0  0  0
    4.4323   -0.3098   -4.5196 H   0  0  0  0  0  0  0  0  0  0  0  0
    6.5376   -1.3996   -3.7527 H   0  0  0  0  0  0  0  0  0  0  0  0
    8.7031    2.2469   -4.5137 H   0  0  0  0  0  0  0  0  0  0  0  0
    6.5968    3.3371   -5.2811 H   0  0  0  0  0  0  0  0  0  0  0  0
    3.8833    2.3754   -5.4489 S   0  0  0  0  0  0  0  0  0  0  0  0
    2.8881    1.3332   -5.8079 O   0  0  0  0  0  0  0  0  0  0  0  0
    4.2212    3.4774   -6.3695 O   0  0  0  0  0  0  0  0  0  0  0  0
    3.3583    3.1105   -4.0613 O   0  0  0  0  0  0  0  0  0  0  0  0
    9.0468   -0.3023   -3.6030 C   0  0  0  0  0  0  0  0  0  0  0  0
    8.9177   -1.3815   -3.4539 H   0  0  0  0  0  0  0  0  0  0  0  0
    9.8583   -0.1483   -4.3284 H   0  0  0  0  0  0  0  0  0  0  0  0
    9.3782    0.1317   -2.6481 H   0  0  0  0  0  0  0  0  0  0  0  0
   -1.5335   -0.2353   -3.7631 H   0  0  0  0  0  0  0  0  0  0  0  0
  1  6  2  0  0  0  0
  1  2  1  0  0  0  0
  2  3  2  0  0  0  0
  3  4  1  0  0  0  0
  4  9  1  0  0  0  0
  5 10  1  0  0  0  0
  5  4  2  0  0  0  0
  6  5  1  0  0  0  0
  7  1  1  0  0  0  0
 11 12  3  0  0  0  0
 13 14  2  0  0  0  0
 14 15  1  0  0  0  0
 14 20  1  0  0  0  0
 15 27  1  0  0  0  0
 16 15  2  0  0  0  0
 17 18  2  0  0  0  0
 17 16  1  0  0  0  0
 18 13  1  0  0  0  0
 19 13  1  0  0  0  0
 21 16  1  0  0  0  0
 22 17  1  0  0  0  0
 23 18  1  0  0  0  0
 23 26  1  0  0  0  0
 24 23  2  0  0  0  0
 25 23  2  0  0  0  0
 26  8  1  0  0  0  0
 27 28  1  0  0  0  0
 27 30  1  0  0  0  0
 29 27  1  0  0  0  0
 31  6  1  0  0  0  0
M  RAD  2   2   2   3   2
M  END
