Coordinates from ORCA-job Ph-N2-OTs-B3LYPG-aug-cc-pVDZ-scan-d09-49-n400
 OpenBabel07022015303D

 31 30  0  0  0  0  0  0  0  0999 V2000
    0.3441    0.8045   -3.6232 C   0  0  0  0  0  0  0  0  0  0  0  0
    1.1152    1.4982   -2.6712 C   0  0  0  0  0  0  0  0  0  0  0  0
    0.7034    1.6023   -1.4871 C   0  0  0  0  0  0  0  0  0  0  0  0
   -0.4290    1.1970   -0.8234 C   0  0  0  0  0  0  0  0  0  0  0  0
   -1.2419    0.4968   -1.7499 C   0  0  0  0  0  0  0  0  0  0  0  0
   -0.8667    0.3112   -3.0950 C   0  0  0  0  0  0  0  0  0  0  0  0
    0.6339    0.6685   -4.6631 H   0  0  0  0  0  0  0  0  0  0  0  0
    2.6674    2.5187   -3.5380 H   0  0  0  0  0  0  0  0  0  0  0  0
   -0.6926    1.3521    0.2189 H   0  0  0  0  0  0  0  0  0  0  0  0
   -2.1916    0.0916   -1.3958 H   0  0  0  0  0  0  0  0  0  0  0  0
    1.9849    2.9344    0.8186 N   0  0  0  0  0  0  0  0  0  0  0  0
    2.9359    3.4493    1.0409 N   0  0  0  0  0  0  0  0  0  0  0  0
    5.3591    0.2750   -4.4378 C   0  0  0  0  0  0  0  0  0  0  0  0
    6.5480   -0.3405   -4.0373 C   0  0  0  0  0  0  0  0  0  0  0  0
    7.7656    0.3550   -4.0500 C   0  0  0  0  0  0  0  0  0  0  0  0
    7.7711    1.6929   -4.4833 C   0  0  0  0  0  0  0  0  0  0  0  0
    6.5964    2.3263   -4.8867 C   0  0  0  0  0  0  0  0  0  0  0  0
    5.4006    1.6052   -4.8552 C   0  0  0  0  0  0  0  0  0  0  0  0
    4.4180   -0.2719   -4.4441 H   0  0  0  0  0  0  0  0  0  0  0  0
    6.5254   -1.3819   -3.7146 H   0  0  0  0  0  0  0  0  0  0  0  0
    8.7112    2.2458   -4.5073 H   0  0  0  0  0  0  0  0  0  0  0  0
    6.6011    3.3574   -5.2349 H   0  0  0  0  0  0  0  0  0  0  0  0
    3.8755    2.4202   -5.3523 S   0  0  0  0  0  0  0  0  0  0  0  0
    2.8825    1.3878   -5.7443 O   0  0  0  0  0  0  0  0  0  0  0  0
    4.2075    3.5540   -6.2361 O   0  0  0  0  0  0  0  0  0  0  0  0
    3.3554    3.1022   -3.9372 O   0  0  0  0  0  0  0  0  0  0  0  0
    9.0470   -0.3076   -3.6062 C   0  0  0  0  0  0  0  0  0  0  0  0
    8.9093   -1.3848   -3.4510 H   0  0  0  0  0  0  0  0  0  0  0  0
    9.8456   -0.1647   -4.3481 H   0  0  0  0  0  0  0  0  0  0  0  0
    9.4020    0.1259   -2.6596 H   0  0  0  0  0  0  0  0  0  0  0  0
   -1.5448   -0.2299   -3.7578 H   0  0  0  0  0  0  0  0  0  0  0  0
  1  6  2  0  0  0  0
  1  2  1  0  0  0  0
  2  3  2  0  0  0  0
  3  4  1  0  0  0  0
  4  9  1  0  0  0  0
  5 10  1  0  0  0  0
  5  4  2  0  0  0  0
  6  5  1  0  0  0  0
  7  1  1  0  0  0  0
 11 12  3  0  0  0  0
 13 14  2  0  0  0  0
 14 20  1  0  0  0  0
 15 14  1  0  0  0  0
 15 27  1  0  0  0  0
 16 15  2  0  0  0  0
 17 18  2  0  0  0  0
 17 16  1  0  0  0  0
 18 13  1  0  0  0  0
 19 13  1  0  0  0  0
 21 16  1  0  0  0  0
 22 17  1  0  0  0  0
 23 18  1  0  0  0  0
 23 26  1  0  0  0  0
 24 23  2  0  0  0  0
 25 23  2  0  0  0  0
 26  8  1  0  0  0  0
 27 28  1  0  0  0  0
 27 30  1  0  0  0  0
 29 27  1  0  0  0  0
 31  6  1  0  0  0  0
M  RAD  2   2   2   3   2
M  END
