Coordinates from ORCA-job Ph-N2-OTs-B3LYPG-aug-cc-pVDZ-scan-d09-49-n400
 OpenBabel07022015303D

 31 30  0  0  0  0  0  0  0  0999 V2000
    0.5160    0.8526   -3.6551 C   0  0  0  0  0  0  0  0  0  0  0  0
    1.2916    1.6908   -2.8355 C   0  0  0  0  0  0  0  0  0  0  0  0
    0.9605    1.9049   -1.6417 C   0  0  0  0  0  0  0  0  0  0  0  0
   -0.0904    1.4931   -0.8556 C   0  0  0  0  0  0  0  0  0  0  0  0
   -0.9103    0.6452   -1.6430 C   0  0  0  0  0  0  0  0  0  0  0  0
   -0.6161    0.3411   -2.9863 C   0  0  0  0  0  0  0  0  0  0  0  0
    0.7472    0.6209   -4.6927 H   0  0  0  0  0  0  0  0  0  0  0  0
    2.7901    2.6317   -3.9082 H   0  0  0  0  0  0  0  0  0  0  0  0
   -0.2954    1.7366    0.1832 H   0  0  0  0  0  0  0  0  0  0  0  0
   -1.7998    0.2159   -1.1784 H   0  0  0  0  0  0  0  0  0  0  0  0
    0.5692    2.9271    2.6290 N   0  0  0  0  0  0  0  0  0  0  0  0
    1.0674    3.3828    3.5026 N   0  0  0  0  0  0  0  0  0  0  0  0
    5.3940    0.1755   -4.6761 C   0  0  0  0  0  0  0  0  0  0  0  0
    6.5759   -0.4068   -4.2094 C   0  0  0  0  0  0  0  0  0  0  0  0
    7.7834    0.3054   -4.2030 C   0  0  0  0  0  0  0  0  0  0  0  0
    7.7868    1.6263   -4.6868 C   0  0  0  0  0  0  0  0  0  0  0  0
    6.6208    2.2251   -5.1602 C   0  0  0  0  0  0  0  0  0  0  0  0
    5.4335    1.4883   -5.1444 C   0  0  0  0  0  0  0  0  0  0  0  0
    4.4597   -0.3823   -4.6936 H   0  0  0  0  0  0  0  0  0  0  0  0
    6.5560   -1.4355   -3.8479 H   0  0  0  0  0  0  0  0  0  0  0  0
    8.7192    2.1925   -4.6958 H   0  0  0  0  0  0  0  0  0  0  0  0
    6.6272    3.2420   -5.5479 H   0  0  0  0  0  0  0  0  0  0  0  0
    3.9210    2.2614   -5.7382 S   0  0  0  0  0  0  0  0  0  0  0  0
    2.9004    1.2076   -5.9685 O   0  0  0  0  0  0  0  0  0  0  0  0
    4.2647    3.2511   -6.7764 O   0  0  0  0  0  0  0  0  0  0  0  0
    3.4360    3.1585   -4.4340 O   0  0  0  0  0  0  0  0  0  0  0  0
    9.0550   -0.3193   -3.6831 C   0  0  0  0  0  0  0  0  0  0  0  0
    8.9347   -1.3973   -3.5189 H   0  0  0  0  0  0  0  0  0  0  0  0
    9.8879   -0.1670   -4.3840 H   0  0  0  0  0  0  0  0  0  0  0  0
    9.3488    0.1353   -2.7254 H   0  0  0  0  0  0  0  0  0  0  0  0
   -1.2958   -0.3126   -3.5364 H   0  0  0  0  0  0  0  0  0  0  0  0
  1  6  2  0  0  0  0
  1  2  1  0  0  0  0
  2  3  2  0  0  0  0
  3  4  1  0  0  0  0
  4  9  1  0  0  0  0
  5 10  1  0  0  0  0
  5  4  2  0  0  0  0
  6  5  1  0  0  0  0
  7  1  1  0  0  0  0
 11 12  3  0  0  0  0
 13 14  2  0  0  0  0
 14 15  1  0  0  0  0
 14 20  1  0  0  0  0
 15 27  1  0  0  0  0
 16 15  2  0  0  0  0
 17 18  2  0  0  0  0
 17 16  1  0  0  0  0
 18 13  1  0  0  0  0
 19 13  1  0  0  0  0
 21 16  1  0  0  0  0
 22 17  1  0  0  0  0
 23 18  1  0  0  0  0
 23 26  1  0  0  0  0
 24 23  2  0  0  0  0
 25 23  2  0  0  0  0
 26  8  1  0  0  0  0
 27 28  1  0  0  0  0
 27 30  1  0  0  0  0
 29 27  1  0  0  0  0
 31  6  1  0  0  0  0
M  RAD  2   2   2   3   2
M  END
