Coordinates from ORCA-job Ph-N2-OTs-B3LYPG-aug-cc-pVDZ-scan-d09-49-n400
 OpenBabel07022015303D

 31 32  0  0  1  0  0  0  0  0999 V2000
    2.0845    0.4824   -2.1140 C   0  0  0  0  0  0  0  0  0  0  0  0
    1.8737    1.2641   -3.3707 C   0  0  1  0  0  0  0  0  0  0  0  0
    0.4137    1.6435   -3.5695 C   0  0  0  0  0  0  0  0  0  0  0  0
   -0.4858    1.6797   -2.4214 C   0  0  0  0  0  0  0  0  0  0  0  0
   -0.1134    1.1283   -1.2409 C   0  0  0  0  0  0  0  0  0  0  0  0
    1.1720    0.4653   -1.1186 C   0  0  0  0  0  0  0  0  0  0  0  0
    3.0391   -0.0335   -2.0160 H   0  0  0  0  0  0  0  0  0  0  0  0
    2.2473    0.7414   -4.2573 H   0  0  0  0  0  0  0  0  0  0  0  0
   -1.4606    2.1484   -2.5566 H   0  0  0  0  0  0  0  0  0  0  0  0
   -0.7928    1.1478   -0.3898 H   0  0  0  0  0  0  0  0  0  0  0  0
    0.0411    1.9339   -4.6406 N   0  0  0  0  0  0  0  0  0  0  0  0
   -0.3224    2.2155   -5.6934 N   0  0  0  0  0  0  0  0  0  0  0  0
    5.3967    0.8193   -5.0267 C   0  0  0  0  0  0  0  0  0  0  0  0
    6.5185    0.0237   -4.7892 C   0  0  0  0  0  0  0  0  0  0  0  0
    7.3979    0.3043   -3.7306 C   0  0  0  0  0  0  0  0  0  0  0  0
    7.1290    1.4134   -2.9118 C   0  0  0  0  0  0  0  0  0  0  0  0
    6.0134    2.2242   -3.1316 C   0  0  0  0  0  0  0  0  0  0  0  0
    5.1549    1.9092   -4.1868 C   0  0  0  0  0  0  0  0  0  0  0  0
    4.7241    0.6189   -5.8580 H   0  0  0  0  0  0  0  0  0  0  0  0
    6.7168   -0.8232   -5.4478 H   0  0  0  0  0  0  0  0  0  0  0  0
    7.8095    1.6511   -2.0933 H   0  0  0  0  0  0  0  0  0  0  0  0
    5.8211    3.0913   -2.5023 H   0  0  0  0  0  0  0  0  0  0  0  0
    3.7092    2.9408   -4.4819 S   0  0  0  0  0  0  0  0  0  0  0  0
    3.0921    2.5186   -5.7640 O   0  0  0  0  0  0  0  0  0  0  0  0
    4.0439    4.3501   -4.2034 O   0  0  0  0  0  0  0  0  0  0  0  0
    2.6869    2.5175   -3.2360 O   0  0  0  0  0  0  0  0  0  0  0  0
    8.6003   -0.5749   -3.4864 C   0  0  0  0  0  0  0  0  0  0  0  0
    8.2923   -1.5838   -3.1748 H   0  0  0  0  0  0  0  0  0  0  0  0
    9.2005   -0.6866   -4.4004 H   0  0  0  0  0  0  0  0  0  0  0  0
    9.2454   -0.1626   -2.7005 H   0  0  0  0  0  0  0  0  0  0  0  0
    1.3905   -0.0772   -0.1977 H   0  0  0  0  0  0  0  0  0  0  0  0
  1  7  1  0  0  0  0
  1  6  2  0  0  0  0
  2  8  1  6  0  0  0
  2 26  1  0  0  0  0
  2  1  1  0  0  0  0
  3  2  1  0  0  0  0
  3  4  2  0  0  0  0
  4  5  1  0  0  0  0
  5  6  1  0  0  0  0
  5 10  1  0  0  0  0
  6 31  1  0  0  0  0
  9  4  1  0  0  0  0
 11  3  1  0  0  0  0
 12 11  1  0  0  0  0
 13 14  2  0  0  0  0
 13 18  1  0  0  0  0
 14 15  1  0  0  0  0
 15 27  1  0  0  0  0
 15 16  2  0  0  0  0
 16 21  1  0  0  0  0
 17 16  1  0  0  0  0
 17 22  1  0  0  0  0
 18 17  2  0  0  0  0
 19 13  1  0  0  0  0
 20 14  1  0  0  0  0
 23 25  2  0  0  0  0
 23 18  1  0  0  0  0
 23 26  1  0  0  0  0
 24 23  2  0  0  0  0
 27 28  1  0  0  0  0
 27 30  1  0  0  0  0
 29 27  1  0  0  0  0
M  RAD  3   5   2  11   2  12   3
M  END
