Coordinates from ORCA-job Ph-N2-OTs-B3LYPG-aug-cc-pVDZ-scan-d09-49-n400
 OpenBabel07022015303D

 31 30  0  0  0  0  0  0  0  0999 V2000
    0.3568    0.8015   -3.6709 C   0  0  0  0  0  0  0  0  0  0  0  0
    1.1349    1.5068   -2.7362 C   0  0  0  0  0  0  0  0  0  0  0  0
    0.7496    1.6325   -1.5461 C   0  0  0  0  0  0  0  0  0  0  0  0
   -0.3754    1.2339   -0.8627 C   0  0  0  0  0  0  0  0  0  0  0  0
   -1.2009    0.5209   -1.7684 C   0  0  0  0  0  0  0  0  0  0  0  0
   -0.8460    0.3164   -3.1161 C   0  0  0  0  0  0  0  0  0  0  0  0
    0.6331    0.6493   -4.7122 H   0  0  0  0  0  0  0  0  0  0  0  0
    2.6832    2.5355   -3.6490 H   0  0  0  0  0  0  0  0  0  0  0  0
   -0.6273    1.4010    0.1808 H   0  0  0  0  0  0  0  0  0  0  0  0
   -2.1448    0.1192   -1.3955 H   0  0  0  0  0  0  0  0  0  0  0  0
    1.8036    3.0214    1.4383 N   0  0  0  0  0  0  0  0  0  0  0  0
    2.7213    3.5437    1.7606 N   0  0  0  0  0  0  0  0  0  0  0  0
    5.3694    0.2422   -4.5049 C   0  0  0  0  0  0  0  0  0  0  0  0
    6.5569   -0.3597   -4.0799 C   0  0  0  0  0  0  0  0  0  0  0  0
    7.7674    0.3480   -4.0712 C   0  0  0  0  0  0  0  0  0  0  0  0
    7.7673    1.6850   -4.5078 C   0  0  0  0  0  0  0  0  0  0  0  0
    6.5944    2.3046   -4.9367 C   0  0  0  0  0  0  0  0  0  0  0  0
    5.4053    1.5712   -4.9260 C   0  0  0  0  0  0  0  0  0  0  0  0
    4.4340   -0.3139   -4.5274 H   0  0  0  0  0  0  0  0  0  0  0  0
    6.5390   -1.4005   -3.7547 H   0  0  0  0  0  0  0  0  0  0  0  0
    8.7018    2.2477   -4.5150 H   0  0  0  0  0  0  0  0  0  0  0  0
    6.5961    3.3344   -5.2886 H   0  0  0  0  0  0  0  0  0  0  0  0
    3.8841    2.3695   -5.4613 S   0  0  0  0  0  0  0  0  0  0  0  0
    2.8889    1.3258   -5.8159 O   0  0  0  0  0  0  0  0  0  0  0  0
    4.2224    3.4673   -6.3867 O   0  0  0  0  0  0  0  0  0  0  0  0
    3.3586    3.1113   -4.0774 O   0  0  0  0  0  0  0  0  0  0  0  0
    9.0465   -0.3001   -3.6005 C   0  0  0  0  0  0  0  0  0  0  0  0
    8.9186   -1.3794   -3.4513 H   0  0  0  0  0  0  0  0  0  0  0  0
    9.8598   -0.1450   -4.3237 H   0  0  0  0  0  0  0  0  0  0  0  0
    9.3745    0.1348   -2.6447 H   0  0  0  0  0  0  0  0  0  0  0  0
   -1.5337   -0.2344   -3.7609 H   0  0  0  0  0  0  0  0  0  0  0  0
  1  6  2  0  0  0  0
  1  2  1  0  0  0  0
  2  3  2  0  0  0  0
  3  4  1  0  0  0  0
  4  9  1  0  0  0  0
  5 10  1  0  0  0  0
  5  4  2  0  0  0  0
  6  5  1  0  0  0  0
  7  1  1  0  0  0  0
 11 12  3  0  0  0  0
 13 14  2  0  0  0  0
 14 15  1  0  0  0  0
 14 20  1  0  0  0  0
 15 27  1  0  0  0  0
 16 15  2  0  0  0  0
 17 18  2  0  0  0  0
 17 16  1  0  0  0  0
 18 13  1  0  0  0  0
 19 13  1  0  0  0  0
 21 16  1  0  0  0  0
 22 17  1  0  0  0  0
 23 18  1  0  0  0  0
 23 26  1  0  0  0  0
 24 23  2  0  0  0  0
 25 23  2  0  0  0  0
 26  8  1  0  0  0  0
 27 28  1  0  0  0  0
 27 30  1  0  0  0  0
 29 27  1  0  0  0  0
 31  6  1  0  0  0  0
M  RAD  2   2   2   3   2
M  END
