Coordinates from ORCA-job Ph-N2-OTs-B3LYPG-aug-cc-pVDZ-scan-d09-49-n400
 OpenBabel07022015303D

 31 32  0  0  1  0  0  0  0  0999 V2000
    2.0895    0.4736   -2.1476 C   0  0  0  0  0  0  0  0  0  0  0  0
    1.8679    1.2727   -3.3917 C   0  0  1  0  0  0  0  0  0  0  0  0
    0.3983    1.6631   -3.5841 C   0  0  0  0  0  0  0  0  0  0  0  0
   -0.4785    1.6909   -2.4068 C   0  0  0  0  0  0  0  0  0  0  0  0
   -0.0931    1.1210   -1.2418 C   0  0  0  0  0  0  0  0  0  0  0  0
    1.1893    0.4457   -1.1428 C   0  0  0  0  0  0  0  0  0  0  0  0
    3.0435   -0.0470   -2.0682 H   0  0  0  0  0  0  0  0  0  0  0  0
    2.2224    0.7555   -4.2899 H   0  0  0  0  0  0  0  0  0  0  0  0
   -1.4499    2.1720   -2.5220 H   0  0  0  0  0  0  0  0  0  0  0  0
   -0.7600    1.1363   -0.3806 H   0  0  0  0  0  0  0  0  0  0  0  0
    0.0330    1.9420   -4.5951 N   0  0  0  0  0  0  0  0  0  0  0  0
   -0.3458    2.2289   -5.6477 N   0  0  0  0  0  0  0  0  0  0  0  0
    5.3949    0.8104   -5.0206 C   0  0  0  0  0  0  0  0  0  0  0  0
    6.5154    0.0157   -4.7751 C   0  0  0  0  0  0  0  0  0  0  0  0
    7.3942    0.3045   -3.7180 C   0  0  0  0  0  0  0  0  0  0  0  0
    7.1253    1.4206   -2.9087 C   0  0  0  0  0  0  0  0  0  0  0  0
    6.0107    2.2307   -3.1365 C   0  0  0  0  0  0  0  0  0  0  0  0
    5.1534    1.9077   -4.1901 C   0  0  0  0  0  0  0  0  0  0  0  0
    4.7233    0.6039   -5.8513 H   0  0  0  0  0  0  0  0  0  0  0  0
    6.7135   -0.8369   -5.4264 H   0  0  0  0  0  0  0  0  0  0  0  0
    7.8052    1.6647   -2.0917 H   0  0  0  0  0  0  0  0  0  0  0  0
    5.8188    3.1034   -2.5149 H   0  0  0  0  0  0  0  0  0  0  0  0
    3.7108    2.9391   -4.4985 S   0  0  0  0  0  0  0  0  0  0  0  0
    3.1017    2.5139   -5.7825 O   0  0  0  0  0  0  0  0  0  0  0  0
    4.0414    4.3483   -4.2164 O   0  0  0  0  0  0  0  0  0  0  0  0
    2.6773    2.5177   -3.2559 O   0  0  0  0  0  0  0  0  0  0  0  0
    8.5963   -0.5727   -3.4661 C   0  0  0  0  0  0  0  0  0  0  0  0
    8.2881   -1.5820   -3.1560 H   0  0  0  0  0  0  0  0  0  0  0  0
    9.2020   -0.6838   -4.3766 H   0  0  0  0  0  0  0  0  0  0  0  0
    9.2363   -0.1587   -2.6769 H   0  0  0  0  0  0  0  0  0  0  0  0
    1.4143   -0.1103   -0.2317 H   0  0  0  0  0  0  0  0  0  0  0  0
  1  7  1  0  0  0  0
  1  6  2  0  0  0  0
  2  8  1  6  0  0  0
  2 26  1  0  0  0  0
  2  1  1  0  0  0  0
  3  2  1  0  0  0  0
  3  4  2  0  0  0  0
  4  5  1  0  0  0  0
  5  6  1  0  0  0  0
  5 10  1  0  0  0  0
  6 31  1  0  0  0  0
  9  4  1  0  0  0  0
 11  3  1  0  0  0  0
 12 11  1  0  0  0  0
 13 14  2  0  0  0  0
 13 18  1  0  0  0  0
 14 15  1  0  0  0  0
 15 27  1  0  0  0  0
 15 16  2  0  0  0  0
 16 21  1  0  0  0  0
 17 16  1  0  0  0  0
 17 22  1  0  0  0  0
 18 17  2  0  0  0  0
 19 13  1  0  0  0  0
 20 14  1  0  0  0  0
 23 25  2  0  0  0  0
 23 18  1  0  0  0  0
 23 26  1  0  0  0  0
 24 23  2  0  0  0  0
 27 28  1  0  0  0  0
 27 30  1  0  0  0  0
 29 27  1  0  0  0  0
M  RAD  3   5   2  11   2  12   3
M  END
