Coordinates from ORCA-job Ph-N2-OTs-B3LYPG-aug-cc-pVDZ-scan-d09-49-n400
 OpenBabel07022015303D

 31 30  0  0  0  0  0  0  0  0999 V2000
    0.1178   -0.2224   -2.4532 C   0  0  0  0  0  0  0  0  0  0  0  0
    1.0107    0.8661   -2.2568 C   0  0  0  0  0  0  0  0  0  0  0  0
    0.3513    2.0060   -2.4647 C   0  0  0  0  0  0  0  0  0  0  0  0
   -0.8993    2.4087   -2.8178 C   0  0  0  0  0  0  0  0  0  0  0  0
   -1.7242    1.2780   -3.0059 C   0  0  0  0  0  0  0  0  0  0  0  0
   -1.2152   -0.0139   -2.8218 C   0  0  0  0  0  0  0  0  0  0  0  0
    0.5149   -1.2281   -2.3152 H   0  0  0  0  0  0  0  0  0  0  0  0
    2.1126    0.7371   -1.9986 H   0  0  0  0  0  0  0  0  0  0  0  0
   -1.2362    3.4317   -2.9482 H   0  0  0  0  0  0  0  0  0  0  0  0
   -2.7617    1.4411   -3.2980 H   0  0  0  0  0  0  0  0  0  0  0  0
    1.5027    3.6856   -2.1346 N   0  0  0  0  0  0  0  0  0  0  0  0
    1.7977    4.7056   -1.8329 N   0  0  0  0  0  0  0  0  0  0  0  0
    5.7794    0.0838   -3.8639 C   0  0  0  0  0  0  0  0  0  0  0  0
    6.8850   -0.3151   -4.6151 C   0  0  0  0  0  0  0  0  0  0  0  0
    8.0112    0.5154   -4.7507 C   0  0  0  0  0  0  0  0  0  0  0  0
    8.0026    1.7577   -4.1024 C   0  0  0  0  0  0  0  0  0  0  0  0
    6.9023    2.1721   -3.3433 C   0  0  0  0  0  0  0  0  0  0  0  0
    5.7963    1.3308   -3.2335 C   0  0  0  0  0  0  0  0  0  0  0  0
    4.9151   -0.5679   -3.7494 H   0  0  0  0  0  0  0  0  0  0  0  0
    6.8783   -1.2917   -5.1027 H   0  0  0  0  0  0  0  0  0  0  0  0
    8.8698    2.4149   -4.1869 H   0  0  0  0  0  0  0  0  0  0  0  0
    6.9000    3.1324   -2.8306 H   0  0  0  0  0  0  0  0  0  0  0  0
    4.3417    1.9087   -2.3179 S   0  0  0  0  0  0  0  0  0  0  0  0
    3.3955    2.4906   -3.3577 O   0  0  0  0  0  0  0  0  0  0  0  0
    4.8169    2.9022   -1.3058 O   0  0  0  0  0  0  0  0  0  0  0  0
    3.7235    0.6432   -1.6993 O   0  0  0  0  0  0  0  0  0  0  0  0
    9.1974    0.0652   -5.5697 C   0  0  0  0  0  0  0  0  0  0  0  0
    9.6162   -0.8728   -5.1766 H   0  0  0  0  0  0  0  0  0  0  0  0
    8.9111   -0.1211   -6.6155 H   0  0  0  0  0  0  0  0  0  0  0  0
    9.9966    0.8180   -5.5682 H   0  0  0  0  0  0  0  0  0  0  0  0
   -1.8706   -0.8709   -2.9748 H   0  0  0  0  0  0  0  0  0  0  0  0
  1  7  1  0  0  0  0
  1  2  2  0  0  0  0
  2  8  1  0  0  0  0
  3  2  1  0  0  0  0
  4  3  2  0  0  0  0
  5  6  2  0  0  0  0
  5  4  1  0  0  0  0
  6  1  1  0  0  0  0
  9  4  1  0  0  0  0
 10  5  1  0  0  0  0
 11 12  3  0  0  0  0
 13 19  1  0  0  0  0
 13 18  2  0  0  0  0
 14 13  1  0  0  0  0
 15 14  2  0  0  0  0
 15 16  1  0  0  0  0
 16 17  2  0  0  0  0
 17 18  1  0  0  0  0
 17 22  1  0  0  0  0
 18 23  1  0  0  0  0
 20 14  1  0  0  0  0
 21 16  1  0  0  0  0
 23 26  2  0  0  0  0
 23 25  1  0  0  0  0
 24 23  2  0  0  0  0
 27 30  1  0  0  0  0
 27 28  1  0  0  0  0
 27 15  1  0  0  0  0
 29 27  1  0  0  0  0
 31  6  1  0  0  0  0
M  RAD  2   3   2  25   2
M  END
