Coordinates from ORCA-job Ph-N2-OTs-B3LYPG-aug-cc-pVDZ-scan-d09-49-n400
 OpenBabel07022015303D

 31 30  0  0  0  0  0  0  0  0999 V2000
    0.5835    0.8754   -3.5961 C   0  0  0  0  0  0  0  0  0  0  0  0
    1.3558    1.7645   -2.8286 C   0  0  0  0  0  0  0  0  0  0  0  0
    1.0462    2.0161   -1.6364 C   0  0  0  0  0  0  0  0  0  0  0  0
    0.0296    1.6042   -0.8074 C   0  0  0  0  0  0  0  0  0  0  0  0
   -0.7838    0.7029   -1.5407 C   0  0  0  0  0  0  0  0  0  0  0  0
   -0.5150    0.3563   -2.8788 C   0  0  0  0  0  0  0  0  0  0  0  0
    0.7951    0.6116   -4.6302 H   0  0  0  0  0  0  0  0  0  0  0  0
    2.8537    2.6637   -3.9377 H   0  0  0  0  0  0  0  0  0  0  0  0
   -0.1610    1.8805    0.2256 H   0  0  0  0  0  0  0  0  0  0  0  0
   -1.6480    0.2662   -1.0367 H   0  0  0  0  0  0  0  0  0  0  0  0
   -0.1080    2.8836    2.9200 N   0  0  0  0  0  0  0  0  0  0  0  0
    0.0321    3.3356    3.9175 N   0  0  0  0  0  0  0  0  0  0  0  0
    5.4214    0.1615   -4.7210 C   0  0  0  0  0  0  0  0  0  0  0  0
    6.6060   -0.4287   -4.2715 C   0  0  0  0  0  0  0  0  0  0  0  0
    7.8211    0.2700   -4.2973 C   0  0  0  0  0  0  0  0  0  0  0  0
    7.8291    1.5854   -4.7958 C   0  0  0  0  0  0  0  0  0  0  0  0
    6.6604    2.1918   -5.2525 C   0  0  0  0  0  0  0  0  0  0  0  0
    5.4656    1.4684   -5.2050 C   0  0  0  0  0  0  0  0  0  0  0  0
    4.4810   -0.3861   -4.7138 H   0  0  0  0  0  0  0  0  0  0  0  0
    6.5821   -1.4531   -3.8984 H   0  0  0  0  0  0  0  0  0  0  0  0
    8.7672    2.1412   -4.8299 H   0  0  0  0  0  0  0  0  0  0  0  0
    6.6703    3.2042   -5.6517 H   0  0  0  0  0  0  0  0  0  0  0  0
    3.9503    2.2500   -5.7809 S   0  0  0  0  0  0  0  0  0  0  0  0
    2.9144    1.2041   -5.9769 O   0  0  0  0  0  0  0  0  0  0  0  0
    4.2854    3.2201   -6.8402 O   0  0  0  0  0  0  0  0  0  0  0  0
    3.4996    3.1718   -4.4819 O   0  0  0  0  0  0  0  0  0  0  0  0
    9.0960   -0.3636   -3.7964 C   0  0  0  0  0  0  0  0  0  0  0  0
    8.9668   -1.4381   -3.6173 H   0  0  0  0  0  0  0  0  0  0  0  0
    9.9161   -0.2291   -4.5159 H   0  0  0  0  0  0  0  0  0  0  0  0
    9.4147    0.0985   -2.8502 H   0  0  0  0  0  0  0  0  0  0  0  0
   -1.1881   -0.3377   -3.3859 H   0  0  0  0  0  0  0  0  0  0  0  0
  1  6  2  0  0  0  0
  1  2  1  0  0  0  0
  2  3  2  0  0  0  0
  3  4  1  0  0  0  0
  4  9  1  0  0  0  0
  5 10  1  0  0  0  0
  5  4  2  0  0  0  0
  6  5  1  0  0  0  0
  7  1  1  0  0  0  0
 11 12  3  0  0  0  0
 13 19  1  0  0  0  0
 13 14  2  0  0  0  0
 14 20  1  0  0  0  0
 15 14  1  0  0  0  0
 15 27  1  0  0  0  0
 16 15  2  0  0  0  0
 17 18  2  0  0  0  0
 17 16  1  0  0  0  0
 18 13  1  0  0  0  0
 21 16  1  0  0  0  0
 22 17  1  0  0  0  0
 23 18  1  0  0  0  0
 23 26  1  0  0  0  0
 24 23  2  0  0  0  0
 25 23  2  0  0  0  0
 26  8  1  0  0  0  0
 27 28  1  0  0  0  0
 27 30  1  0  0  0  0
 29 27  1  0  0  0  0
 31  6  1  0  0  0  0
M  RAD  2   2   2   3   2
M  END
