Coordinates from ORCA-job Ph-N2-OTs-B3LYPG-aug-cc-pVDZ-scan-d09-49-n400
 OpenBabel07022015303D

 31 30  0  0  0  0  0  0  0  0999 V2000
    0.5741    0.8722   -3.6044 C   0  0  0  0  0  0  0  0  0  0  0  0
    1.3463    1.7565   -2.8312 C   0  0  0  0  0  0  0  0  0  0  0  0
    1.0347    2.0029   -1.6384 C   0  0  0  0  0  0  0  0  0  0  0  0
    0.0157    1.5888   -0.8133 C   0  0  0  0  0  0  0  0  0  0  0  0
   -0.7978    0.6925   -1.5526 C   0  0  0  0  0  0  0  0  0  0  0  0
   -0.5269    0.3517   -2.8918 C   0  0  0  0  0  0  0  0  0  0  0  0
    0.7875    0.6126   -4.6392 H   0  0  0  0  0  0  0  0  0  0  0  0
    2.8458    2.6610   -3.9338 H   0  0  0  0  0  0  0  0  0  0  0  0
   -0.1761    1.8606    0.2206 H   0  0  0  0  0  0  0  0  0  0  0  0
   -1.6638    0.2550   -1.0524 H   0  0  0  0  0  0  0  0  0  0  0  0
   -0.0242    2.8907    2.8848 N   0  0  0  0  0  0  0  0  0  0  0  0
    0.1521    3.3538    3.8714 N   0  0  0  0  0  0  0  0  0  0  0  0
    5.4179    0.1637   -4.7165 C   0  0  0  0  0  0  0  0  0  0  0  0
    6.6019   -0.4264   -4.2653 C   0  0  0  0  0  0  0  0  0  0  0  0
    7.8164    0.2736   -4.2863 C   0  0  0  0  0  0  0  0  0  0  0  0
    7.8244    1.5902   -4.7817 C   0  0  0  0  0  0  0  0  0  0  0  0
    6.6562    2.1965   -5.2400 C   0  0  0  0  0  0  0  0  0  0  0  0
    5.4621    1.4719   -5.1974 C   0  0  0  0  0  0  0  0  0  0  0  0
    4.4780   -0.3849   -4.7131 H   0  0  0  0  0  0  0  0  0  0  0  0
    6.5780   -1.4517   -3.8947 H   0  0  0  0  0  0  0  0  0  0  0  0
    8.7620    2.1470   -4.8120 H   0  0  0  0  0  0  0  0  0  0  0  0
    6.6662    3.2099   -5.6368 H   0  0  0  0  0  0  0  0  0  0  0  0
    3.9475    2.2534   -5.7752 S   0  0  0  0  0  0  0  0  0  0  0  0
    2.9131    1.2072   -5.9765 O   0  0  0  0  0  0  0  0  0  0  0  0
    4.2844    3.2267   -6.8310 O   0  0  0  0  0  0  0  0  0  0  0  0
    3.4926    3.1713   -4.4749 O   0  0  0  0  0  0  0  0  0  0  0  0
    9.0906   -0.3598   -3.7835 C   0  0  0  0  0  0  0  0  0  0  0  0
    8.9621   -1.4350   -3.6076 H   0  0  0  0  0  0  0  0  0  0  0  0
    9.9125   -0.2225   -4.5004 H   0  0  0  0  0  0  0  0  0  0  0  0
    9.4061    0.1001   -2.8352 H   0  0  0  0  0  0  0  0  0  0  0  0
   -1.2002   -0.3386   -3.4035 H   0  0  0  0  0  0  0  0  0  0  0  0
  1  6  2  0  0  0  0
  1  2  1  0  0  0  0
  2  3  2  0  0  0  0
  3  4  1  0  0  0  0
  4  9  1  0  0  0  0
  5 10  1  0  0  0  0
  5  4  2  0  0  0  0
  6  5  1  0  0  0  0
  7  1  1  0  0  0  0
 11 12  3  0  0  0  0
 13 19  1  0  0  0  0
 13 14  2  0  0  0  0
 14 20  1  0  0  0  0
 15 14  1  0  0  0  0
 15 27  1  0  0  0  0
 16 15  2  0  0  0  0
 17 18  2  0  0  0  0
 17 16  1  0  0  0  0
 18 13  1  0  0  0  0
 21 16  1  0  0  0  0
 22 17  1  0  0  0  0
 23 18  1  0  0  0  0
 23 26  1  0  0  0  0
 24 23  2  0  0  0  0
 25 23  2  0  0  0  0
 26  8  1  0  0  0  0
 27 28  1  0  0  0  0
 27 30  1  0  0  0  0
 29 27  1  0  0  0  0
 31  6  1  0  0  0  0
M  RAD  2   2   2   3   2
M  END
