Coordinates from ORCA-job Ph-N2-OTs-B3LYPG-aug-cc-pVDZ-scan-d09-49-n400
 OpenBabel07022015303D

 31 30  0  0  0  0  0  0  0  0999 V2000
    0.2312   -0.2223   -2.5442 C   0  0  0  0  0  0  0  0  0  0  0  0
    1.0504    0.9194   -2.2830 C   0  0  0  0  0  0  0  0  0  0  0  0
    0.3012    1.9891   -2.4253 C   0  0  0  0  0  0  0  0  0  0  0  0
   -0.9640    2.3600   -2.7429 C   0  0  0  0  0  0  0  0  0  0  0  0
   -1.7124    1.1853   -2.9954 C   0  0  0  0  0  0  0  0  0  0  0  0
   -1.1161   -0.0793   -2.8928 C   0  0  0  0  0  0  0  0  0  0  0  0
    0.6980   -1.2052   -2.4740 H   0  0  0  0  0  0  0  0  0  0  0  0
    2.2181    0.8368   -2.0400 H   0  0  0  0  0  0  0  0  0  0  0  0
   -1.3653    3.3660   -2.8043 H   0  0  0  0  0  0  0  0  0  0  0  0
   -2.7618    1.2968   -3.2702 H   0  0  0  0  0  0  0  0  0  0  0  0
    1.3851    3.8822   -1.9466 N   0  0  0  0  0  0  0  0  0  0  0  0
    1.7734    4.8674   -1.6390 N   0  0  0  0  0  0  0  0  0  0  0  0
    5.7274    0.1215   -3.8908 C   0  0  0  0  0  0  0  0  0  0  0  0
    6.8328   -0.3216   -4.6175 C   0  0  0  0  0  0  0  0  0  0  0  0
    7.9898    0.4680   -4.7369 C   0  0  0  0  0  0  0  0  0  0  0  0
    8.0130    1.7144   -4.0965 C   0  0  0  0  0  0  0  0  0  0  0  0
    6.9156    2.1712   -3.3591 C   0  0  0  0  0  0  0  0  0  0  0  0
    5.7778    1.3706   -3.2663 C   0  0  0  0  0  0  0  0  0  0  0  0
    4.8383   -0.4983   -3.7920 H   0  0  0  0  0  0  0  0  0  0  0  0
    6.8014   -1.3005   -5.0991 H   0  0  0  0  0  0  0  0  0  0  0  0
    8.9035    2.3407   -4.1706 H   0  0  0  0  0  0  0  0  0  0  0  0
    6.9389    3.1335   -2.8510 H   0  0  0  0  0  0  0  0  0  0  0  0
    4.3330    2.0236   -2.3894 S   0  0  0  0  0  0  0  0  0  0  0  0
    3.4246    2.6460   -3.4210 O   0  0  0  0  0  0  0  0  0  0  0  0
    4.8390    2.9553   -1.3379 O   0  0  0  0  0  0  0  0  0  0  0  0
    3.6478    0.7589   -1.7857 O   0  0  0  0  0  0  0  0  0  0  0  0
    9.1756   -0.0284   -5.5291 C   0  0  0  0  0  0  0  0  0  0  0  0
    9.5778   -0.9575   -5.0990 H   0  0  0  0  0  0  0  0  0  0  0  0
    8.8947   -0.2480   -6.5697 H   0  0  0  0  0  0  0  0  0  0  0  0
    9.9852    0.7128   -5.5478 H   0  0  0  0  0  0  0  0  0  0  0  0
   -1.7145   -0.9673   -3.0946 H   0  0  0  0  0  0  0  0  0  0  0  0
  1  7  1  0  0  0  0
  1  2  2  0  0  0  0
  2  8  1  0  0  0  0
  3  2  1  0  0  0  0
  4  3  2  0  0  0  0
  5  6  2  0  0  0  0
  5  4  1  0  0  0  0
  6  1  1  0  0  0  0
  9  4  1  0  0  0  0
 10  5  1  0  0  0  0
 11 12  3  0  0  0  0
 13 19  1  0  0  0  0
 13 18  2  0  0  0  0
 14 13  1  0  0  0  0
 15 14  2  0  0  0  0
 15 16  1  0  0  0  0
 16 17  2  0  0  0  0
 17 18  1  0  0  0  0
 17 22  1  0  0  0  0
 18 23  1  0  0  0  0
 20 14  1  0  0  0  0
 21 16  1  0  0  0  0
 23 26  2  0  0  0  0
 23 25  1  0  0  0  0
 24 23  2  0  0  0  0
 27 28  1  0  0  0  0
 27 15  1  0  0  0  0
 29 27  1  0  0  0  0
 30 27  1  0  0  0  0
 31  6  1  0  0  0  0
M  RAD  2   3   2  25   2
M  END
