Coordinates from ORCA-job Ph-N2-OTs-B3LYPG-aug-cc-pVDZ-scan-d09-49-n400
 OpenBabel07022015303D

 31 30  0  0  0  0  0  0  0  0999 V2000
   -0.0138    0.9120   -3.4746 C   0  0  0  0  0  0  0  0  0  0  0  0
    0.7397    1.4867   -2.4272 C   0  0  0  0  0  0  0  0  0  0  0  0
    0.1256    1.8312   -1.3811 C   0  0  0  0  0  0  0  0  0  0  0  0
   -1.1748    1.8098   -0.9480 C   0  0  0  0  0  0  0  0  0  0  0  0
   -1.9569    1.2418   -1.9846 C   0  0  0  0  0  0  0  0  0  0  0  0
   -1.3925    0.8121   -3.2017 C   0  0  0  0  0  0  0  0  0  0  0  0
    0.4232    0.5751   -4.4136 H   0  0  0  0  0  0  0  0  0  0  0  0
    2.6487    1.7455   -2.8470 H   0  0  0  0  0  0  0  0  0  0  0  0
   -1.5755    2.1493    0.0027 H   0  0  0  0  0  0  0  0  0  0  0  0
   -3.0313    1.1375   -1.8206 H   0  0  0  0  0  0  0  0  0  0  0  0
    1.3599    2.9077    0.6437 N   0  0  0  0  0  0  0  0  0  0  0  0
    2.3708    3.2327    0.9472 N   0  0  0  0  0  0  0  0  0  0  0  0
    5.9651   -0.1450   -4.1932 C   0  0  0  0  0  0  0  0  0  0  0  0
    7.3169   -0.4879   -4.1234 C   0  0  0  0  0  0  0  0  0  0  0  0
    8.3226    0.4557   -4.3872 C   0  0  0  0  0  0  0  0  0  0  0  0
    7.9401    1.7614   -4.7368 C   0  0  0  0  0  0  0  0  0  0  0  0
    6.5953    2.1251   -4.8136 C   0  0  0  0  0  0  0  0  0  0  0  0
    5.6229    1.1628   -4.5368 C   0  0  0  0  0  0  0  0  0  0  0  0
    5.1892   -0.8828   -3.9953 H   0  0  0  0  0  0  0  0  0  0  0  0
    7.5932   -1.5091   -3.8592 H   0  0  0  0  0  0  0  0  0  0  0  0
    8.7051    2.5079   -4.9565 H   0  0  0  0  0  0  0  0  0  0  0  0
    6.2961    3.1322   -5.0975 H   0  0  0  0  0  0  0  0  0  0  0  0
    3.8897    1.6235   -4.6362 S   0  0  0  0  0  0  0  0  0  0  0  0
    3.0644    0.4555   -5.0414 O   0  0  0  0  0  0  0  0  0  0  0  0
    3.7686    2.9011   -5.3737 O   0  0  0  0  0  0  0  0  0  0  0  0
    3.6124    1.9005   -3.0291 O   0  0  0  0  0  0  0  0  0  0  0  0
    9.7821    0.0839   -4.2885 C   0  0  0  0  0  0  0  0  0  0  0  0
    9.9131   -1.0025   -4.2093 H   0  0  0  0  0  0  0  0  0  0  0  0
   10.3446    0.4365   -5.1642 H   0  0  0  0  0  0  0  0  0  0  0  0
   10.2431    0.5446   -3.4019 H   0  0  0  0  0  0  0  0  0  0  0  0
   -2.0480    0.3859   -3.9636 H   0  0  0  0  0  0  0  0  0  0  0  0
  1  6  2  0  0  0  0
  1  2  1  0  0  0  0
  2  3  2  0  0  0  0
  3  4  1  0  0  0  0
  4  9  1  0  0  0  0
  5 10  1  0  0  0  0
  5  4  2  0  0  0  0
  6  5  1  0  0  0  0
  7  1  1  0  0  0  0
 11 12  3  0  0  0  0
 13 14  1  0  0  0  0
 13 19  1  0  0  0  0
 14 20  1  0  0  0  0
 15 27  1  0  0  0  0
 15 14  2  0  0  0  0
 16 15  1  0  0  0  0
 17 16  2  0  0  0  0
 17 18  1  0  0  0  0
 18 13  2  0  0  0  0
 21 16  1  0  0  0  0
 22 17  1  0  0  0  0
 23 18  1  0  0  0  0
 23 26  1  0  0  0  0
 24 23  2  0  0  0  0
 25 23  2  0  0  0  0
 26  8  1  0  0  0  0
 27 28  1  0  0  0  0
 27 30  1  0  0  0  0
 29 27  1  0  0  0  0
 31  6  1  0  0  0  0
M  RAD  2   2   2   3   2
M  END
