Coordinates from ORCA-job Ph-N2-OTs-B3LYPG-aug-cc-pVDZ-scan-d09-49-n400
 OpenBabel07022015303D

 31 30  0  0  0  0  0  0  0  0999 V2000
    0.3975    0.8418   -3.6994 C   0  0  0  0  0  0  0  0  0  0  0  0
    1.2034    1.5803   -2.8158 C   0  0  0  0  0  0  0  0  0  0  0  0
    0.8613    1.7459   -1.6176 C   0  0  0  0  0  0  0  0  0  0  0  0
   -0.2372    1.3655   -0.8819 C   0  0  0  0  0  0  0  0  0  0  0  0
   -1.0908    0.6204   -1.7344 C   0  0  0  0  0  0  0  0  0  0  0  0
   -0.7831    0.3722   -3.0863 C   0  0  0  0  0  0  0  0  0  0  0  0
    0.6386    0.6540   -4.7436 H   0  0  0  0  0  0  0  0  0  0  0  0
    2.7188    2.5647   -3.8316 H   0  0  0  0  0  0  0  0  0  0  0  0
   -0.4526    1.5635    0.1643 H   0  0  0  0  0  0  0  0  0  0  0  0
   -2.0183    0.2261   -1.3154 H   0  0  0  0  0  0  0  0  0  0  0  0
    1.3449    2.9188    2.1417 N   0  0  0  0  0  0  0  0  0  0  0  0
    2.1310    3.3703    2.7718 N   0  0  0  0  0  0  0  0  0  0  0  0
    5.3900    0.1873   -4.5950 C   0  0  0  0  0  0  0  0  0  0  0  0
    6.5778   -0.3816   -4.1266 C   0  0  0  0  0  0  0  0  0  0  0  0
    7.7747    0.3484   -4.1071 C   0  0  0  0  0  0  0  0  0  0  0  0
    7.7612    1.6736   -4.5787 C   0  0  0  0  0  0  0  0  0  0  0  0
    6.5888    2.2594   -5.0530 C   0  0  0  0  0  0  0  0  0  0  0  0
    5.4127    1.5049   -5.0508 C   0  0  0  0  0  0  0  0  0  0  0  0
    4.4643   -0.3844   -4.6231 H   0  0  0  0  0  0  0  0  0  0  0  0
    6.5712   -1.4136   -3.7744 H   0  0  0  0  0  0  0  0  0  0  0  0
    8.6853    2.2533   -4.5775 H   0  0  0  0  0  0  0  0  0  0  0  0
    6.5820    3.2797   -5.4319 H   0  0  0  0  0  0  0  0  0  0  0  0
    3.8919    2.2613   -5.6445 S   0  0  0  0  0  0  0  0  0  0  0  0
    2.8946    1.1942   -5.9126 O   0  0  0  0  0  0  0  0  0  0  0  0
    4.2279    3.2832   -6.6537 O   0  0  0  0  0  0  0  0  0  0  0  0
    3.3725    3.1140   -4.3232 O   0  0  0  0  0  0  0  0  0  0  0  0
    9.0527   -0.2625   -3.5865 C   0  0  0  0  0  0  0  0  0  0  0  0
    8.9464   -1.3432   -3.4301 H   0  0  0  0  0  0  0  0  0  0  0  0
    9.8860   -0.0940   -4.2831 H   0  0  0  0  0  0  0  0  0  0  0  0
    9.3367    0.1895   -2.6246 H   0  0  0  0  0  0  0  0  0  0  0  0
   -1.4908   -0.2021   -3.6875 H   0  0  0  0  0  0  0  0  0  0  0  0
  1  6  2  0  0  0  0
  1  2  1  0  0  0  0
  2  3  2  0  0  0  0
  3  4  1  0  0  0  0
  4  9  1  0  0  0  0
  5 10  1  0  0  0  0
  5  4  2  0  0  0  0
  6  5  1  0  0  0  0
  7  1  1  0  0  0  0
 11 12  3  0  0  0  0
 13 14  2  0  0  0  0
 14 15  1  0  0  0  0
 14 20  1  0  0  0  0
 15 27  1  0  0  0  0
 16 21  1  0  0  0  0
 16 15  2  0  0  0  0
 17 18  2  0  0  0  0
 17 16  1  0  0  0  0
 18 13  1  0  0  0  0
 19 13  1  0  0  0  0
 22 17  1  0  0  0  0
 23 18  1  0  0  0  0
 23 26  1  0  0  0  0
 24 23  2  0  0  0  0
 25 23  2  0  0  0  0
 26  8  1  0  0  0  0
 27 28  1  0  0  0  0
 27 30  1  0  0  0  0
 29 27  1  0  0  0  0
 31  6  1  0  0  0  0
M  RAD  2   2   2   3   2
M  END
