Coordinates from ORCA-job Ph-N2-OTs-B3LYPG-aug-cc-pVDZ-scan-d09-49-n400
 OpenBabel07022015303D

 31 30  0  0  0  0  0  0  0  0999 V2000
    0.3546    0.7999   -3.6629 C   0  0  0  0  0  0  0  0  0  0  0  0
    1.1296    1.5031   -2.7237 C   0  0  0  0  0  0  0  0  0  0  0  0
    0.7380    1.6251   -1.5353 C   0  0  0  0  0  0  0  0  0  0  0  0
   -0.3890    1.2259   -0.8564 C   0  0  0  0  0  0  0  0  0  0  0  0
   -1.2109    0.5149   -1.7674 C   0  0  0  0  0  0  0  0  0  0  0  0
   -0.8505    0.3135   -3.1142 C   0  0  0  0  0  0  0  0  0  0  0  0
    0.6349    0.6507   -4.7035 H   0  0  0  0  0  0  0  0  0  0  0  0
    2.6810    2.5335   -3.6281 H   0  0  0  0  0  0  0  0  0  0  0  0
   -0.6462    1.3902    0.1861 H   0  0  0  0  0  0  0  0  0  0  0  0
   -2.1564    0.1127   -1.3992 H   0  0  0  0  0  0  0  0  0  0  0  0
    1.8310    3.0222    1.3491 N   0  0  0  0  0  0  0  0  0  0  0  0
    2.7616    3.5424    1.6356 N   0  0  0  0  0  0  0  0  0  0  0  0
    5.3687    0.2472   -4.4939 C   0  0  0  0  0  0  0  0  0  0  0  0
    6.5568   -0.3578   -4.0749 C   0  0  0  0  0  0  0  0  0  0  0  0
    7.7687    0.3478   -4.0693 C   0  0  0  0  0  0  0  0  0  0  0  0
    7.7691    1.6857   -4.5026 C   0  0  0  0  0  0  0  0  0  0  0  0
    6.5956    2.3084   -4.9254 C   0  0  0  0  0  0  0  0  0  0  0  0
    5.4053    1.5771   -4.9119 C   0  0  0  0  0  0  0  0  0  0  0  0
    4.4324   -0.3075   -4.5143 H   0  0  0  0  0  0  0  0  0  0  0  0
    6.5382   -1.3993   -3.7520 H   0  0  0  0  0  0  0  0  0  0  0  0
    8.7046    2.2468   -4.5122 H   0  0  0  0  0  0  0  0  0  0  0  0
    6.5977    3.3391   -5.2750 H   0  0  0  0  0  0  0  0  0  0  0  0
    3.8837    2.3792   -5.4406 S   0  0  0  0  0  0  0  0  0  0  0  0
    2.8883    1.3382   -5.8028 O   0  0  0  0  0  0  0  0  0  0  0  0
    4.2219    3.4837   -6.3582 O   0  0  0  0  0  0  0  0  0  0  0  0
    3.3585    3.1107   -4.0512 O   0  0  0  0  0  0  0  0  0  0  0  0
    9.0484   -0.3037   -3.6052 C   0  0  0  0  0  0  0  0  0  0  0  0
    8.9189   -1.3829   -3.4567 H   0  0  0  0  0  0  0  0  0  0  0  0
    9.8587   -0.1497   -4.3321 H   0  0  0  0  0  0  0  0  0  0  0  0
    9.3819    0.1293   -2.6506 H   0  0  0  0  0  0  0  0  0  0  0  0
   -1.5357   -0.2357   -3.7630 H   0  0  0  0  0  0  0  0  0  0  0  0
  1  6  2  0  0  0  0
  1  2  1  0  0  0  0
  2  3  2  0  0  0  0
  3  4  1  0  0  0  0
  4  9  1  0  0  0  0
  5 10  1  0  0  0  0
  5  4  2  0  0  0  0
  6  5  1  0  0  0  0
  7  1  1  0  0  0  0
 11 12  3  0  0  0  0
 13 14  2  0  0  0  0
 14 15  1  0  0  0  0
 14 20  1  0  0  0  0
 15 27  1  0  0  0  0
 16 15  2  0  0  0  0
 17 18  2  0  0  0  0
 17 16  1  0  0  0  0
 18 13  1  0  0  0  0
 19 13  1  0  0  0  0
 21 16  1  0  0  0  0
 22 17  1  0  0  0  0
 23 18  1  0  0  0  0
 23 26  1  0  0  0  0
 24 23  2  0  0  0  0
 25 23  2  0  0  0  0
 26  8  1  0  0  0  0
 27 28  1  0  0  0  0
 27 30  1  0  0  0  0
 29 27  1  0  0  0  0
 31  6  1  0  0  0  0
M  RAD  2   2   2   3   2
M  END
