Coordinates from ORCA-job Ph-N2-OTs-B3LYPG-aug-cc-pVDZ-scan-d09-49-n400
 OpenBabel07022015303D

 31 30  0  0  0  0  0  0  0  0999 V2000
    0.5586    0.8662   -3.6178 C   0  0  0  0  0  0  0  0  0  0  0  0
    1.3281    1.7424   -2.8328 C   0  0  0  0  0  0  0  0  0  0  0  0
    1.0110    1.9786   -1.6393 C   0  0  0  0  0  0  0  0  0  0  0  0
   -0.0132    1.5586   -0.8232 C   0  0  0  0  0  0  0  0  0  0  0  0
   -0.8246    0.6707   -1.5748 C   0  0  0  0  0  0  0  0  0  0  0  0
   -0.5471    0.3416   -2.9156 C   0  0  0  0  0  0  0  0  0  0  0  0
    0.7773    0.6152   -4.6536 H   0  0  0  0  0  0  0  0  0  0  0  0
    2.8307    2.6578   -3.9233 H   0  0  0  0  0  0  0  0  0  0  0  0
   -0.2085    1.8219    0.2128 H   0  0  0  0  0  0  0  0  0  0  0  0
   -1.6940    0.2303   -1.0833 H   0  0  0  0  0  0  0  0  0  0  0  0
    0.1384    2.9025    2.8017 N   0  0  0  0  0  0  0  0  0  0  0  0
    0.3890    3.3850    3.7626 N   0  0  0  0  0  0  0  0  0  0  0  0
    5.4096    0.1702   -4.7046 C   0  0  0  0  0  0  0  0  0  0  0  0
    6.5923   -0.4206   -4.2508 C   0  0  0  0  0  0  0  0  0  0  0  0
    7.8064    0.2803   -4.2651 C   0  0  0  0  0  0  0  0  0  0  0  0
    7.8153    1.5985   -4.7563 C   0  0  0  0  0  0  0  0  0  0  0  0
    6.6484    2.2055   -5.2170 C   0  0  0  0  0  0  0  0  0  0  0  0
    5.4546    1.4799   -5.1810 C   0  0  0  0  0  0  0  0  0  0  0  0
    4.4701   -0.3792   -4.7065 H   0  0  0  0  0  0  0  0  0  0  0  0
    6.5677   -1.4470   -3.8836 H   0  0  0  0  0  0  0  0  0  0  0  0
    8.7526    2.1559   -4.7814 H   0  0  0  0  0  0  0  0  0  0  0  0
    6.6590    3.2202   -5.6105 H   0  0  0  0  0  0  0  0  0  0  0  0
    3.9416    2.2625   -5.7615 S   0  0  0  0  0  0  0  0  0  0  0  0
    2.9094    1.2160   -5.9732 O   0  0  0  0  0  0  0  0  0  0  0  0
    4.2819    3.2421   -6.8102 O   0  0  0  0  0  0  0  0  0  0  0  0
    3.4795    3.1723   -4.4579 O   0  0  0  0  0  0  0  0  0  0  0  0
    9.0792   -0.3537   -3.7596 C   0  0  0  0  0  0  0  0  0  0  0  0
    8.9509   -1.4297   -3.5880 H   0  0  0  0  0  0  0  0  0  0  0  0
    9.9037   -0.2131   -4.4727 H   0  0  0  0  0  0  0  0  0  0  0  0
    9.3905    0.1030   -2.8084 H   0  0  0  0  0  0  0  0  0  0  0  0
   -1.2189   -0.3429   -3.4371 H   0  0  0  0  0  0  0  0  0  0  0  0
  1  6  2  0  0  0  0
  1  2  1  0  0  0  0
  2  3  2  0  0  0  0
  3  4  1  0  0  0  0
  4  9  1  0  0  0  0
  5 10  1  0  0  0  0
  5  4  2  0  0  0  0
  6  5  1  0  0  0  0
  7  1  1  0  0  0  0
 11 12  3  0  0  0  0
 13 14  2  0  0  0  0
 14 20  1  0  0  0  0
 15 14  1  0  0  0  0
 15 27  1  0  0  0  0
 16 15  2  0  0  0  0
 17 18  2  0  0  0  0
 17 16  1  0  0  0  0
 18 13  1  0  0  0  0
 19 13  1  0  0  0  0
 21 16  1  0  0  0  0
 22 17  1  0  0  0  0
 23 18  1  0  0  0  0
 23 26  1  0  0  0  0
 24 23  2  0  0  0  0
 25 23  2  0  0  0  0
 26  8  1  0  0  0  0
 27 28  1  0  0  0  0
 27 30  1  0  0  0  0
 29 27  1  0  0  0  0
 31  6  1  0  0  0  0
M  RAD  2   2   2   3   2
M  END
