Coordinates from ORCA-job Ph-N2-OTs-B3LYPG-aug-cc-pVDZ-scan-d09-49-n400
 OpenBabel07022015303D

 31 31  0  0  0  0  0  0  0  0999 V2000
   -0.0363   -0.2152   -2.3526 C   0  0  0  0  0  0  0  0  0  0  0  0
    0.9428    0.7996   -2.2646 C   0  0  0  0  0  0  0  0  0  0  0  0
    0.4075    2.0133   -2.5288 C   0  0  0  0  0  0  0  0  0  0  0  0
   -0.8417    2.4560   -2.8703 C   0  0  0  0  0  0  0  0  0  0  0  0
   -1.7640    1.3961   -2.9551 C   0  0  0  0  0  0  0  0  0  0  0  0
   -1.3596    0.0808   -2.6962 C   0  0  0  0  0  0  0  0  0  0  0  0
    0.2726   -1.2404   -2.1501 H   0  0  0  0  0  0  0  0  0  0  0  0
    2.0092    0.6085   -2.0210 H   0  0  0  0  0  0  0  0  0  0  0  0
   -1.1041    3.4916   -3.0628 H   0  0  0  0  0  0  0  0  0  0  0  0
   -2.7939    1.6232   -3.2297 H   0  0  0  0  0  0  0  0  0  0  0  0
    1.6306    3.4633   -2.3835 N   0  0  0  0  0  0  0  0  0  0  0  0
    1.8436    4.5250   -2.1492 N   0  0  0  0  0  0  0  0  0  0  0  0
    5.8507    0.0391   -3.8609 C   0  0  0  0  0  0  0  0  0  0  0  0
    6.9648   -0.3024   -4.6266 C   0  0  0  0  0  0  0  0  0  0  0  0
    8.0560    0.5749   -4.7560 C   0  0  0  0  0  0  0  0  0  0  0  0
    8.0027    1.8053   -4.0868 C   0  0  0  0  0  0  0  0  0  0  0  0
    6.8913    2.1646   -3.3155 C   0  0  0  0  0  0  0  0  0  0  0  0
    5.8226    1.2761   -3.2114 C   0  0  0  0  0  0  0  0  0  0  0  0
    5.0138   -0.6481   -3.7492 H   0  0  0  0  0  0  0  0  0  0  0  0
    6.9916   -1.2703   -5.1306 H   0  0  0  0  0  0  0  0  0  0  0  0
    8.8430    2.4974   -4.1647 H   0  0  0  0  0  0  0  0  0  0  0  0
    6.8544    3.1171   -2.7896 H   0  0  0  0  0  0  0  0  0  0  0  0
    4.3516    1.7577   -2.2692 S   0  0  0  0  0  0  0  0  0  0  0  0
    3.3780    2.2878   -3.3397 O   0  0  0  0  0  0  0  0  0  0  0  0
    4.7571    2.8112   -1.2878 O   0  0  0  0  0  0  0  0  0  0  0  0
    3.8003    0.4811   -1.6544 O   0  0  0  0  0  0  0  0  0  0  0  0
    9.2515    0.1865   -5.5928 C   0  0  0  0  0  0  0  0  0  0  0  0
    9.6852   -0.7624   -5.2450 H   0  0  0  0  0  0  0  0  0  0  0  0
    8.9702    0.0469   -6.6473 H   0  0  0  0  0  0  0  0  0  0  0  0
   10.0378    0.9516   -5.5518 H   0  0  0  0  0  0  0  0  0  0  0  0
   -2.0898   -0.7251   -2.7688 H   0  0  0  0  0  0  0  0  0  0  0  0
  1  2  1  0  0  0  0
  1  7  1  0  0  0  0
  2  8  1  0  0  0  0
  3 11  1  0  0  0  0
  3  2  2  0  0  0  0
  4  3  1  0  0  0  0
  5  4  2  0  0  0  0
  5  6  1  0  0  0  0
  6  1  2  0  0  0  0
  9  4  1  0  0  0  0
 10  5  1  0  0  0  0
 11 12  2  0  0  0  0
 13 19  1  0  0  0  0
 13 18  2  0  0  0  0
 14 13  1  0  0  0  0
 15 14  2  0  0  0  0
 15 16  1  0  0  0  0
 16 17  2  0  0  0  0
 17 18  1  0  0  0  0
 17 22  1  0  0  0  0
 18 23  1  0  0  0  0
 20 14  1  0  0  0  0
 21 16  1  0  0  0  0
 23 26  2  0  0  0  0
 23 25  1  0  0  0  0
 24 23  2  0  0  0  0
 27 30  1  0  0  0  0
 27 28  1  0  0  0  0
 27 15  1  0  0  0  0
 29 27  1  0  0  0  0
 31  6  1  0  0  0  0
M  RAD  2  12   2  25   2
M  END
