Coordinates from ORCA-job Ph-N2-OTs-B3LYPG-aug-cc-pVDZ-scan-d09-49-n400
 OpenBabel07022015303D

 31 30  0  0  0  0  0  0  0  0999 V2000
    0.4104    0.8417   -3.7047 C   0  0  0  0  0  0  0  0  0  0  0  0
    1.2164    1.5932   -2.8321 C   0  0  0  0  0  0  0  0  0  0  0  0
    0.8769    1.7688   -1.6345 C   0  0  0  0  0  0  0  0  0  0  0  0
   -0.2158    1.3898   -0.8901 C   0  0  0  0  0  0  0  0  0  0  0  0
   -1.0690    0.6319   -1.7318 C   0  0  0  0  0  0  0  0  0  0  0  0
   -0.7653    0.3720   -3.0824 C   0  0  0  0  0  0  0  0  0  0  0  0
    0.6487    0.6442   -4.7478 H   0  0  0  0  0  0  0  0  0  0  0  0
    2.7281    2.5679   -3.8592 H   0  0  0  0  0  0  0  0  0  0  0  0
   -0.4289    1.5960    0.1550 H   0  0  0  0  0  0  0  0  0  0  0  0
   -1.9927    0.2368   -1.3051 H   0  0  0  0  0  0  0  0  0  0  0  0
    1.2382    2.9265    2.3114 N   0  0  0  0  0  0  0  0  0  0  0  0
    1.9807    3.3747    2.9946 N   0  0  0  0  0  0  0  0  0  0  0  0
    5.3944    0.1797   -4.6137 C   0  0  0  0  0  0  0  0  0  0  0  0
    6.5817   -0.3865   -4.1410 C   0  0  0  0  0  0  0  0  0  0  0  0
    7.7778    0.3446   -4.1209 C   0  0  0  0  0  0  0  0  0  0  0  0
    7.7641    1.6683   -4.5966 C   0  0  0  0  0  0  0  0  0  0  0  0
    6.5924    2.2516   -5.0755 C   0  0  0  0  0  0  0  0  0  0  0  0
    5.4169    1.4959   -5.0736 C   0  0  0  0  0  0  0  0  0  0  0  0
    4.4692   -0.3927   -4.6420 H   0  0  0  0  0  0  0  0  0  0  0  0
    6.5754   -1.4175   -3.7856 H   0  0  0  0  0  0  0  0  0  0  0  0
    8.6876    2.2491   -4.5950 H   0  0  0  0  0  0  0  0  0  0  0  0
    6.5855    3.2707   -5.4574 H   0  0  0  0  0  0  0  0  0  0  0  0
    3.8967    2.2494   -5.6728 S   0  0  0  0  0  0  0  0  0  0  0  0
    2.8981    1.1814   -5.9321 O   0  0  0  0  0  0  0  0  0  0  0  0
    4.2336    3.2628   -6.6902 O   0  0  0  0  0  0  0  0  0  0  0  0
    3.3792    3.1137   -4.3584 O   0  0  0  0  0  0  0  0  0  0  0  0
    9.0552   -0.2633   -3.5953 C   0  0  0  0  0  0  0  0  0  0  0  0
    8.9495   -1.3435   -3.4354 H   0  0  0  0  0  0  0  0  0  0  0  0
    9.8899   -0.0965   -4.2906 H   0  0  0  0  0  0  0  0  0  0  0  0
    9.3367    0.1923   -2.6343 H   0  0  0  0  0  0  0  0  0  0  0  0
   -1.4723   -0.2121   -3.6749 H   0  0  0  0  0  0  0  0  0  0  0  0
  1  6  2  0  0  0  0
  1  2  1  0  0  0  0
  2  3  2  0  0  0  0
  3  4  1  0  0  0  0
  4  9  1  0  0  0  0
  5 10  1  0  0  0  0
  5  4  2  0  0  0  0
  6  5  1  0  0  0  0
  7  1  1  0  0  0  0
 11 12  3  0  0  0  0
 13 14  2  0  0  0  0
 14 15  1  0  0  0  0
 14 20  1  0  0  0  0
 15 27  1  0  0  0  0
 16 21  1  0  0  0  0
 16 15  2  0  0  0  0
 17 18  2  0  0  0  0
 17 16  1  0  0  0  0
 18 13  1  0  0  0  0
 19 13  1  0  0  0  0
 22 17  1  0  0  0  0
 23 18  1  0  0  0  0
 23 26  1  0  0  0  0
 24 23  2  0  0  0  0
 25 23  2  0  0  0  0
 26  8  1  0  0  0  0
 27 28  1  0  0  0  0
 27 30  1  0  0  0  0
 29 27  1  0  0  0  0
 31  6  1  0  0  0  0
M  RAD  2   2   2   3   2
M  END
