Coordinates from ORCA-job Ph-N2-OTs-B3LYPG-aug-cc-pVDZ-scan-d09-49-n400
 OpenBabel07022015303D

 31 32  0  0  1  0  0  0  0  0999 V2000
    1.9064    0.2874   -2.3605 C   0  0  0  0  0  0  0  0  0  0  0  0
    1.7330    1.2625   -3.4797 C   0  0  1  0  0  0  0  0  0  0  0  0
    0.2948    1.8879   -3.5500 C   0  0  0  0  0  0  0  0  0  0  0  0
   -0.5025    1.8295   -2.2896 C   0  0  0  0  0  0  0  0  0  0  0  0
   -0.1432    1.0454   -1.2538 C   0  0  0  0  0  0  0  0  0  0  0  0
    1.0496    0.2140   -1.3231 C   0  0  0  0  0  0  0  0  0  0  0  0
    2.7955   -0.3423   -2.4048 H   0  0  0  0  0  0  0  0  0  0  0  0
    1.9351    0.8197   -4.4621 H   0  0  0  0  0  0  0  0  0  0  0  0
   -1.4025    2.4452   -2.2783 H   0  0  0  0  0  0  0  0  0  0  0  0
   -0.7639    1.0125   -0.3585 H   0  0  0  0  0  0  0  0  0  0  0  0
   -0.0182    2.3009   -4.3702 N   0  0  0  0  0  0  0  0  0  0  0  0
   -0.3965    2.7992   -5.3636 N   0  0  0  0  0  0  0  0  0  0  0  0
    5.3906    0.6162   -4.8530 C   0  0  0  0  0  0  0  0  0  0  0  0
    6.5444   -0.1190   -4.5831 C   0  0  0  0  0  0  0  0  0  0  0  0
    7.5047    0.3457   -3.6676 C   0  0  0  0  0  0  0  0  0  0  0  0
    7.2783    1.5733   -3.0255 C   0  0  0  0  0  0  0  0  0  0  0  0
    6.1285    2.3250   -3.2784 C   0  0  0  0  0  0  0  0  0  0  0  0
    5.1963    1.8315   -4.1910 C   0  0  0  0  0  0  0  0  0  0  0  0
    4.6599    0.2729   -5.5829 H   0  0  0  0  0  0  0  0  0  0  0  0
    6.7032   -1.0655   -5.1015 H   0  0  0  0  0  0  0  0  0  0  0  0
    8.0198    1.9529   -2.3217 H   0  0  0  0  0  0  0  0  0  0  0  0
    5.9699    3.2851   -2.7913 H   0  0  0  0  0  0  0  0  0  0  0  0
    3.7182    2.7932   -4.5401 S   0  0  0  0  0  0  0  0  0  0  0  0
    3.1263    2.3054   -5.8083 O   0  0  0  0  0  0  0  0  0  0  0  0
    3.9953    4.2194   -4.2936 O   0  0  0  0  0  0  0  0  0  0  0  0
    2.6875    2.3603   -3.2795 O   0  0  0  0  0  0  0  0  0  0  0  0
    8.7528   -0.4583   -3.3970 C   0  0  0  0  0  0  0  0  0  0  0  0
    8.5031   -1.4602   -3.0193 H   0  0  0  0  0  0  0  0  0  0  0  0
    9.3390   -0.5960   -4.3173 H   0  0  0  0  0  0  0  0  0  0  0  0
    9.3934    0.0355   -2.6560 H   0  0  0  0  0  0  0  0  0  0  0  0
    1.2408   -0.4883   -0.5107 H   0  0  0  0  0  0  0  0  0  0  0  0
  1  6  2  0  0  0  0
  2  8  1  6  0  0  0
  2 26  1  0  0  0  0
  2  1  1  0  0  0  0
  3  2  1  0  0  0  0
  3  4  2  0  0  0  0
  4  9  1  0  0  0  0
  4  5  1  0  0  0  0
  5 10  1  0  0  0  0
  6  5  1  0  0  0  0
  6 31  1  0  0  0  0
  7  1  1  0  0  0  0
 11  3  1  0  0  0  0
 12 11  1  0  0  0  0
 13 14  2  0  0  0  0
 13 18  1  0  0  0  0
 14 15  1  0  0  0  0
 15 27  1  0  0  0  0
 15 16  2  0  0  0  0
 16 21  1  0  0  0  0
 17 16  1  0  0  0  0
 17 22  1  0  0  0  0
 18 17  2  0  0  0  0
 19 13  1  0  0  0  0
 20 14  1  0  0  0  0
 23 25  2  0  0  0  0
 23 18  1  0  0  0  0
 23 26  1  0  0  0  0
 24 23  2  0  0  0  0
 27 28  1  0  0  0  0
 27 30  1  0  0  0  0
 29 27  1  0  0  0  0
M  RAD  3   5   2  11   2  12   3
M  END
