Coordinates from ORCA-job Ph-N2-OTs-B3LYPG-aug-cc-pVDZ-scan-d09-49-n400
 OpenBabel07022015303D

 31 30  0  0  0  0  0  0  0  0999 V2000
    0.3494    0.8034   -3.6314 C   0  0  0  0  0  0  0  0  0  0  0  0
    1.1211    1.5005   -2.6827 C   0  0  0  0  0  0  0  0  0  0  0  0
    0.7134    1.6053   -1.4973 C   0  0  0  0  0  0  0  0  0  0  0  0
   -0.4156    1.1980   -0.8289 C   0  0  0  0  0  0  0  0  0  0  0  0
   -1.2297    0.4944   -1.7522 C   0  0  0  0  0  0  0  0  0  0  0  0
   -0.8585    0.3079   -3.0982 C   0  0  0  0  0  0  0  0  0  0  0  0
    0.6368    0.6659   -4.6719 H   0  0  0  0  0  0  0  0  0  0  0  0
    2.6641    2.5259   -3.5557 H   0  0  0  0  0  0  0  0  0  0  0  0
   -0.6769    1.3534    0.2140 H   0  0  0  0  0  0  0  0  0  0  0  0
   -2.1770    0.0870   -1.3944 H   0  0  0  0  0  0  0  0  0  0  0  0
    1.9838    2.9601    0.8908 N   0  0  0  0  0  0  0  0  0  0  0  0
    2.9343    3.4770    1.1105 N   0  0  0  0  0  0  0  0  0  0  0  0
    5.3558    0.2685   -4.4526 C   0  0  0  0  0  0  0  0  0  0  0  0
    6.5439   -0.3460   -4.0483 C   0  0  0  0  0  0  0  0  0  0  0  0
    7.7597    0.3529   -4.0483 C   0  0  0  0  0  0  0  0  0  0  0  0
    7.7638    1.6938   -4.4720 C   0  0  0  0  0  0  0  0  0  0  0  0
    6.5899    2.3263   -4.8794 C   0  0  0  0  0  0  0  0  0  0  0  0
    5.3959    1.6014   -4.8608 C   0  0  0  0  0  0  0  0  0  0  0  0
    4.4165   -0.2813   -4.4691 H   0  0  0  0  0  0  0  0  0  0  0  0
    6.5223   -1.3898   -3.7330 H   0  0  0  0  0  0  0  0  0  0  0  0
    8.7023    2.2498   -4.4861 H   0  0  0  0  0  0  0  0  0  0  0  0
    6.5942    3.3594   -5.2214 H   0  0  0  0  0  0  0  0  0  0  0  0
    3.8734    2.4155   -5.3683 S   0  0  0  0  0  0  0  0  0  0  0  0
    2.8792    1.3828   -5.7568 O   0  0  0  0  0  0  0  0  0  0  0  0
    4.2108    3.5423   -6.2589 O   0  0  0  0  0  0  0  0  0  0  0  0
    3.3489    3.1095   -3.9606 O   0  0  0  0  0  0  0  0  0  0  0  0
    9.0400   -0.3091   -3.6010 C   0  0  0  0  0  0  0  0  0  0  0  0
    8.9048   -1.3880   -3.4552 H   0  0  0  0  0  0  0  0  0  0  0  0
    9.8432   -0.1578   -4.3362 H   0  0  0  0  0  0  0  0  0  0  0  0
    9.3871    0.1180   -2.6485 H   0  0  0  0  0  0  0  0  0  0  0  0
   -1.5374   -0.2361   -3.7578 H   0  0  0  0  0  0  0  0  0  0  0  0
  1  6  2  0  0  0  0
  1  2  1  0  0  0  0
  2  3  2  0  0  0  0
  3  4  1  0  0  0  0
  4  9  1  0  0  0  0
  5 10  1  0  0  0  0
  5  4  2  0  0  0  0
  6  5  1  0  0  0  0
  7  1  1  0  0  0  0
 11 12  3  0  0  0  0
 13 14  2  0  0  0  0
 14 20  1  0  0  0  0
 15 14  1  0  0  0  0
 15 27  1  0  0  0  0
 16 15  2  0  0  0  0
 17 18  2  0  0  0  0
 17 16  1  0  0  0  0
 18 13  1  0  0  0  0
 19 13  1  0  0  0  0
 21 16  1  0  0  0  0
 22 17  1  0  0  0  0
 23 18  1  0  0  0  0
 23 26  1  0  0  0  0
 24 23  2  0  0  0  0
 25 23  2  0  0  0  0
 26  8  1  0  0  0  0
 27 28  1  0  0  0  0
 27 30  1  0  0  0  0
 29 27  1  0  0  0  0
 31  6  1  0  0  0  0
M  RAD  2   2   2   3   2
M  END
