Coordinates from ORCA-job Ph-N2-OTs-B3LYPG-aug-cc-pVDZ-scan-d09-49-n400
 OpenBabel07022015303D

 31 31  0  0  0  0  0  0  0  0999 V2000
   -0.1411   -0.1982   -2.2861 C   0  0  0  0  0  0  0  0  0  0  0  0
    0.9028    0.7364   -2.2246 C   0  0  0  0  0  0  0  0  0  0  0  0
    0.5327    2.0215   -2.5455 C   0  0  0  0  0  0  0  0  0  0  0  0
   -0.7121    2.4915   -2.9285 C   0  0  0  0  0  0  0  0  0  0  0  0
   -1.7165    1.5190   -2.9945 C   0  0  0  0  0  0  0  0  0  0  0  0
   -1.4292    0.1867   -2.6739 C   0  0  0  0  0  0  0  0  0  0  0  0
    0.0711   -1.2363   -2.0330 H   0  0  0  0  0  0  0  0  0  0  0  0
    1.9296    0.4726   -1.9481 H   0  0  0  0  0  0  0  0  0  0  0  0
   -0.8955    3.5355   -3.1687 H   0  0  0  0  0  0  0  0  0  0  0  0
   -2.7191    1.8127   -3.3029 H   0  0  0  0  0  0  0  0  0  0  0  0
    1.6850    3.2013   -2.4512 N   0  0  0  0  0  0  0  0  0  0  0  0
    1.9074    4.2740   -2.2441 N   0  0  0  0  0  0  0  0  0  0  0  0
    5.9007   -0.0113   -3.8137 C   0  0  0  0  0  0  0  0  0  0  0  0
    7.0151   -0.3064   -4.5977 C   0  0  0  0  0  0  0  0  0  0  0  0
    8.0529    0.6271   -4.7686 C   0  0  0  0  0  0  0  0  0  0  0  0
    7.9444    1.8678   -4.1253 C   0  0  0  0  0  0  0  0  0  0  0  0
    6.8307    2.1826   -3.3381 C   0  0  0  0  0  0  0  0  0  0  0  0
    5.8181    1.2370   -3.1905 C   0  0  0  0  0  0  0  0  0  0  0  0
    5.1064   -0.7415   -3.6682 H   0  0  0  0  0  0  0  0  0  0  0  0
    7.0830   -1.2814   -5.0834 H   0  0  0  0  0  0  0  0  0  0  0  0
    8.7438    2.6028   -4.2344 H   0  0  0  0  0  0  0  0  0  0  0  0
    6.7511    3.1439   -2.8334 H   0  0  0  0  0  0  0  0  0  0  0  0
    4.3514    1.6420   -2.2129 S   0  0  0  0  0  0  0  0  0  0  0  0
    3.3143    2.0528   -3.3021 O   0  0  0  0  0  0  0  0  0  0  0  0
    4.6851    2.7894   -1.3132 O   0  0  0  0  0  0  0  0  0  0  0  0
    3.9052    0.3729   -1.5308 O   0  0  0  0  0  0  0  0  0  0  0  0
    9.2509    0.2858   -5.6219 C   0  0  0  0  0  0  0  0  0  0  0  0
    9.7400   -0.6325   -5.2657 H   0  0  0  0  0  0  0  0  0  0  0  0
    8.9564    0.1116   -6.6675 H   0  0  0  0  0  0  0  0  0  0  0  0
    9.9962    1.0917   -5.6115 H   0  0  0  0  0  0  0  0  0  0  0  0
   -2.2216   -0.5600   -2.7319 H   0  0  0  0  0  0  0  0  0  0  0  0
  1  2  1  0  0  0  0
  1  7  1  0  0  0  0
  2  8  1  0  0  0  0
  3 11  1  0  0  0  0
  3  2  2  0  0  0  0
  4  3  1  0  0  0  0
  5  4  2  0  0  0  0
  5  6  1  0  0  0  0
  6  1  2  0  0  0  0
  9  4  1  0  0  0  0
 10  5  1  0  0  0  0
 11 12  2  0  0  0  0
 13 19  1  0  0  0  0
 13 18  2  0  0  0  0
 14 13  1  0  0  0  0
 15 14  2  0  0  0  0
 15 16  1  0  0  0  0
 16 17  2  0  0  0  0
 17 18  1  0  0  0  0
 17 22  1  0  0  0  0
 18 23  1  0  0  0  0
 20 14  1  0  0  0  0
 21 16  1  0  0  0  0
 23 26  2  0  0  0  0
 23 25  1  0  0  0  0
 24 23  2  0  0  0  0
 27 30  1  0  0  0  0
 27 28  1  0  0  0  0
 27 15  1  0  0  0  0
 29 27  1  0  0  0  0
 31  6  1  0  0  0  0
M  RAD  2  12   2  25   2
M  END
