Coordinates from ORCA-job Ph-N2-OTs-B3LYPG-aug-cc-pVDZ-scan-d09-49-n400
 OpenBabel07022015303D

 31 31  0  0  0  0  0  0  0  0999 V2000
   -0.1241   -0.2037   -2.2945 C   0  0  0  0  0  0  0  0  0  0  0  0
    0.9050    0.7527   -2.2392 C   0  0  0  0  0  0  0  0  0  0  0  0
    0.4809    2.0150   -2.5473 C   0  0  0  0  0  0  0  0  0  0  0  0
   -0.7630    2.4834   -2.9097 C   0  0  0  0  0  0  0  0  0  0  0  0
   -1.7471    1.4853   -2.9660 C   0  0  0  0  0  0  0  0  0  0  0  0
   -1.4257    0.1577   -2.6591 C   0  0  0  0  0  0  0  0  0  0  0  0
    0.1161   -1.2385   -2.0528 H   0  0  0  0  0  0  0  0  0  0  0  0
    1.9457    0.5103   -1.9813 H   0  0  0  0  0  0  0  0  0  0  0  0
   -0.9680    3.5252   -3.1395 H   0  0  0  0  0  0  0  0  0  0  0  0
   -2.7604    1.7608   -3.2565 H   0  0  0  0  0  0  0  0  0  0  0  0
    1.6842    3.2854   -2.4577 N   0  0  0  0  0  0  0  0  0  0  0  0
    1.8907    4.3586   -2.2500 N   0  0  0  0  0  0  0  0  0  0  0  0
    5.8922    0.0018   -3.8392 C   0  0  0  0  0  0  0  0  0  0  0  0
    7.0104   -0.3034   -4.6141 C   0  0  0  0  0  0  0  0  0  0  0  0
    8.0655    0.6141   -4.7635 C   0  0  0  0  0  0  0  0  0  0  0  0
    7.9712    1.8490   -4.1068 C   0  0  0  0  0  0  0  0  0  0  0  0
    6.8541    2.1734   -3.3280 C   0  0  0  0  0  0  0  0  0  0  0  0
    5.8236    1.2440   -3.2023 C   0  0  0  0  0  0  0  0  0  0  0  0
    5.0842   -0.7163   -3.7106 H   0  0  0  0  0  0  0  0  0  0  0  0
    7.0677   -1.2742   -5.1097 H   0  0  0  0  0  0  0  0  0  0  0  0
    8.7836    2.5719   -4.1994 H   0  0  0  0  0  0  0  0  0  0  0  0
    6.7857    3.1299   -2.8124 H   0  0  0  0  0  0  0  0  0  0  0  0
    4.3511    1.6657   -2.2381 S   0  0  0  0  0  0  0  0  0  0  0  0
    3.3394    2.1261   -3.3252 O   0  0  0  0  0  0  0  0  0  0  0  0
    4.7046    2.7774   -1.3022 O   0  0  0  0  0  0  0  0  0  0  0  0
    3.8662    0.3889   -1.5913 O   0  0  0  0  0  0  0  0  0  0  0  0
    9.2665    0.2626   -5.6084 C   0  0  0  0  0  0  0  0  0  0  0  0
    9.7363   -0.6680   -5.2582 H   0  0  0  0  0  0  0  0  0  0  0  0
    8.9803    0.1057   -6.6592 H   0  0  0  0  0  0  0  0  0  0  0  0
   10.0254    1.0553   -5.5804 H   0  0  0  0  0  0  0  0  0  0  0  0
   -2.2029   -0.6050   -2.7094 H   0  0  0  0  0  0  0  0  0  0  0  0
  1  2  1  0  0  0  0
  1  7  1  0  0  0  0
  2  8  1  0  0  0  0
  3 11  1  0  0  0  0
  3  2  2  0  0  0  0
  4  3  1  0  0  0  0
  5  4  2  0  0  0  0
  5  6  1  0  0  0  0
  6  1  2  0  0  0  0
  9  4  1  0  0  0  0
 10  5  1  0  0  0  0
 11 12  2  0  0  0  0
 13 19  1  0  0  0  0
 13 18  2  0  0  0  0
 14 13  1  0  0  0  0
 15 14  2  0  0  0  0
 15 16  1  0  0  0  0
 16 17  2  0  0  0  0
 17 18  1  0  0  0  0
 17 22  1  0  0  0  0
 18 23  1  0  0  0  0
 20 14  1  0  0  0  0
 21 16  1  0  0  0  0
 23 26  2  0  0  0  0
 23 25  1  0  0  0  0
 24 23  2  0  0  0  0
 27 30  1  0  0  0  0
 27 28  1  0  0  0  0
 27 15  1  0  0  0  0
 29 27  1  0  0  0  0
 31  6  1  0  0  0  0
M  RAD  2  12   2  25   2
M  END
