Coordinates from ORCA-job Ph-N2-OTs-B3LYPG-aug-cc-pVDZ-scan-d09-49-n400
 OpenBabel07022015303D

 31 30  0  0  0  0  0  0  0  0999 V2000
    0.6056    0.8819   -3.5761 C   0  0  0  0  0  0  0  0  0  0  0  0
    1.3769    1.7826   -2.8212 C   0  0  0  0  0  0  0  0  0  0  0  0
    1.0709    2.0458   -1.6306 C   0  0  0  0  0  0  0  0  0  0  0  0
    0.0596    1.6380   -0.7930 C   0  0  0  0  0  0  0  0  0  0  0  0
   -0.7523    0.7248   -1.5131 C   0  0  0  0  0  0  0  0  0  0  0  0
   -0.4873    0.3651   -2.8486 C   0  0  0  0  0  0  0  0  0  0  0  0
    0.8139    0.6086   -4.6083 H   0  0  0  0  0  0  0  0  0  0  0  0
    2.8709    2.6704   -3.9445 H   0  0  0  0  0  0  0  0  0  0  0  0
   -0.1293    1.9245    0.2376 H   0  0  0  0  0  0  0  0  0  0  0  0
   -1.6123    0.2895   -1.0009 H   0  0  0  0  0  0  0  0  0  0  0  0
   -0.2854    2.8689    2.9843 N   0  0  0  0  0  0  0  0  0  0  0  0
   -0.2287    3.2931    4.0020 N   0  0  0  0  0  0  0  0  0  0  0  0
    5.4281    0.1570   -4.7308 C   0  0  0  0  0  0  0  0  0  0  0  0
    6.6139   -0.4340   -4.2854 C   0  0  0  0  0  0  0  0  0  0  0  0
    7.8304    0.2618   -4.3211 C   0  0  0  0  0  0  0  0  0  0  0  0
    7.8386    1.5750   -4.8255 C   0  0  0  0  0  0  0  0  0  0  0  0
    6.6686    2.1821   -5.2782 C   0  0  0  0  0  0  0  0  0  0  0  0
    5.4725    1.4617   -5.2209 C   0  0  0  0  0  0  0  0  0  0  0  0
    4.4865   -0.3884   -4.7159 H   0  0  0  0  0  0  0  0  0  0  0  0
    6.5897   -1.4566   -3.9077 H   0  0  0  0  0  0  0  0  0  0  0  0
    8.7776    2.1285   -4.8673 H   0  0  0  0  0  0  0  0  0  0  0  0
    6.6787    3.1928   -5.6818 H   0  0  0  0  0  0  0  0  0  0  0  0
    3.9558    2.2438   -5.7921 S   0  0  0  0  0  0  0  0  0  0  0  0
    2.9165    1.1992   -5.9767 O   0  0  0  0  0  0  0  0  0  0  0  0
    4.2870    3.2075   -6.8585 O   0  0  0  0  0  0  0  0  0  0  0  0
    3.5146    3.1737   -4.4957 O   0  0  0  0  0  0  0  0  0  0  0  0
    9.1067   -0.3725   -3.8247 C   0  0  0  0  0  0  0  0  0  0  0  0
    8.9756   -1.4458   -3.6393 H   0  0  0  0  0  0  0  0  0  0  0  0
    9.9226   -0.2441   -4.5500 H   0  0  0  0  0  0  0  0  0  0  0  0
    9.4324    0.0936   -2.8830 H   0  0  0  0  0  0  0  0  0  0  0  0
   -1.1591   -0.3376   -3.3453 H   0  0  0  0  0  0  0  0  0  0  0  0
  1  6  2  0  0  0  0
  1  2  1  0  0  0  0
  2  3  2  0  0  0  0
  3  4  1  0  0  0  0
  4  9  1  0  0  0  0
  5 10  1  0  0  0  0
  5  4  2  0  0  0  0
  6  5  1  0  0  0  0
  7  1  1  0  0  0  0
 11 12  3  0  0  0  0
 13 19  1  0  0  0  0
 13 14  2  0  0  0  0
 14 20  1  0  0  0  0
 15 14  1  0  0  0  0
 15 27  1  0  0  0  0
 16 15  2  0  0  0  0
 17 18  2  0  0  0  0
 17 16  1  0  0  0  0
 18 13  1  0  0  0  0
 21 16  1  0  0  0  0
 22 17  1  0  0  0  0
 23 18  1  0  0  0  0
 23 26  1  0  0  0  0
 24 23  2  0  0  0  0
 25 23  2  0  0  0  0
 26  8  1  0  0  0  0
 27 28  1  0  0  0  0
 27 30  1  0  0  0  0
 29 27  1  0  0  0  0
 31  6  1  0  0  0  0
M  RAD  2   2   2   3   2
M  END
