Coordinates from ORCA-job Ph-N2-OTs-B3LYPG-aug-cc-pVDZ-scan-d09-49-n400
 OpenBabel07022015303D

 31 30  0  0  0  0  0  0  0  0999 V2000
    0.2290   -0.2225   -2.5404 C   0  0  0  0  0  0  0  0  0  0  0  0
    1.0497    0.9180   -2.2805 C   0  0  0  0  0  0  0  0  0  0  0  0
    0.3033    1.9903   -2.4255 C   0  0  0  0  0  0  0  0  0  0  0  0
   -0.9618    2.3606   -2.7457 C   0  0  0  0  0  0  0  0  0  0  0  0
   -1.7118    1.1871   -2.9968 C   0  0  0  0  0  0  0  0  0  0  0  0
   -1.1177   -0.0782   -2.8910 C   0  0  0  0  0  0  0  0  0  0  0  0
    0.6939   -1.2061   -2.4677 H   0  0  0  0  0  0  0  0  0  0  0  0
    2.2155    0.8348   -2.0372 H   0  0  0  0  0  0  0  0  0  0  0  0
   -1.3616    3.3671   -2.8098 H   0  0  0  0  0  0  0  0  0  0  0  0
   -2.7607    1.2994   -3.2732 H   0  0  0  0  0  0  0  0  0  0  0  0
    1.3877    3.8726   -1.9520 N   0  0  0  0  0  0  0  0  0  0  0  0
    1.7753    4.8580   -1.6440 N   0  0  0  0  0  0  0  0  0  0  0  0
    5.7272    0.1227   -3.8912 C   0  0  0  0  0  0  0  0  0  0  0  0
    6.8323   -0.3201   -4.6185 C   0  0  0  0  0  0  0  0  0  0  0  0
    7.9897    0.4691   -4.7372 C   0  0  0  0  0  0  0  0  0  0  0  0
    8.0135    1.7148   -4.0954 C   0  0  0  0  0  0  0  0  0  0  0  0
    6.9163    2.1713   -3.3575 C   0  0  0  0  0  0  0  0  0  0  0  0
    5.7781    1.3712   -3.2655 C   0  0  0  0  0  0  0  0  0  0  0  0
    4.8378   -0.4969   -3.7929 H   0  0  0  0  0  0  0  0  0  0  0  0
    6.8005   -1.2986   -5.1010 H   0  0  0  0  0  0  0  0  0  0  0  0
    8.9042    2.3408   -4.1690 H   0  0  0  0  0  0  0  0  0  0  0  0
    6.9399    3.1331   -2.8485 H   0  0  0  0  0  0  0  0  0  0  0  0
    4.3333    2.0232   -2.3880 S   0  0  0  0  0  0  0  0  0  0  0  0
    3.4236    2.6438   -3.4199 O   0  0  0  0  0  0  0  0  0  0  0  0
    4.8385    2.9575   -1.3385 O   0  0  0  0  0  0  0  0  0  0  0  0
    3.6500    0.7585   -1.7828 O   0  0  0  0  0  0  0  0  0  0  0  0
    9.1750   -0.0269   -5.5302 C   0  0  0  0  0  0  0  0  0  0  0  0
    9.5765   -0.9569   -5.1015 H   0  0  0  0  0  0  0  0  0  0  0  0
    8.8940   -0.2447   -6.5711 H   0  0  0  0  0  0  0  0  0  0  0  0
    9.9852    0.7137   -5.5476 H   0  0  0  0  0  0  0  0  0  0  0  0
   -1.7171   -0.9658   -3.0917 H   0  0  0  0  0  0  0  0  0  0  0  0
  1  7  1  0  0  0  0
  1  2  2  0  0  0  0
  2  8  1  0  0  0  0
  3  2  1  0  0  0  0
  4  3  2  0  0  0  0
  5  6  2  0  0  0  0
  5  4  1  0  0  0  0
  6  1  1  0  0  0  0
  9  4  1  0  0  0  0
 10  5  1  0  0  0  0
 11 12  3  0  0  0  0
 13 19  1  0  0  0  0
 13 18  2  0  0  0  0
 14 13  1  0  0  0  0
 15 14  2  0  0  0  0
 15 16  1  0  0  0  0
 16 17  2  0  0  0  0
 17 18  1  0  0  0  0
 17 22  1  0  0  0  0
 18 23  1  0  0  0  0
 20 14  1  0  0  0  0
 21 16  1  0  0  0  0
 23 26  2  0  0  0  0
 23 25  1  0  0  0  0
 24 23  2  0  0  0  0
 27 28  1  0  0  0  0
 27 15  1  0  0  0  0
 29 27  1  0  0  0  0
 30 27  1  0  0  0  0
 31  6  1  0  0  0  0
M  RAD  2   3   2  25   2
M  END
