Coordinates from ORCA-job Ph-N2-OTs-B3LYPG-aug-cc-pVDZ-scan-d09-49-n400
 OpenBabel07022015303D

 31 30  0  0  0  0  0  0  0  0999 V2000
   -0.3217    0.1624   -2.9698 C   0  0  0  0  0  0  0  0  0  0  0  0
    0.6139    1.0465   -2.3840 C   0  0  0  0  0  0  0  0  0  0  0  0
    0.1303    2.0079   -1.7196 C   0  0  0  0  0  0  0  0  0  0  0  0
   -1.1129    2.4743   -1.3878 C   0  0  0  0  0  0  0  0  0  0  0  0
   -2.0605    1.5946   -1.9670 C   0  0  0  0  0  0  0  0  0  0  0  0
   -1.6732    0.4777   -2.7323 C   0  0  0  0  0  0  0  0  0  0  0  0
   -0.0335   -0.6983   -3.5730 H   0  0  0  0  0  0  0  0  0  0  0  0
    2.5176    0.8111   -2.7781 H   0  0  0  0  0  0  0  0  0  0  0  0
   -1.3736    3.3483   -0.7980 H   0  0  0  0  0  0  0  0  0  0  0  0
   -3.1203    1.8019   -1.8087 H   0  0  0  0  0  0  0  0  0  0  0  0
    1.6785    3.6069   -0.6864 N   0  0  0  0  0  0  0  0  0  0  0  0
    2.7498    3.8267   -0.5325 N   0  0  0  0  0  0  0  0  0  0  0  0
    6.0912   -0.0993   -4.8736 C   0  0  0  0  0  0  0  0  0  0  0  0
    7.4580   -0.3744   -4.8934 C   0  0  0  0  0  0  0  0  0  0  0  0
    8.3941    0.5411   -4.3810 C   0  0  0  0  0  0  0  0  0  0  0  0
    7.9241    1.7449   -3.8344 C   0  0  0  0  0  0  0  0  0  0  0  0
    6.5590    2.0388   -3.8010 C   0  0  0  0  0  0  0  0  0  0  0  0
    5.6603    1.1104   -4.3249 C   0  0  0  0  0  0  0  0  0  0  0  0
    5.3703   -0.8028   -5.2865 H   0  0  0  0  0  0  0  0  0  0  0  0
    7.8083   -1.3154   -5.3194 H   0  0  0  0  0  0  0  0  0  0  0  0
    8.6333    2.4695   -3.4321 H   0  0  0  0  0  0  0  0  0  0  0  0
    6.1896    2.9755   -3.3885 H   0  0  0  0  0  0  0  0  0  0  0  0
    3.9055    1.4968   -4.3148 S   0  0  0  0  0  0  0  0  0  0  0  0
    3.2421    0.8562   -5.4760 O   0  0  0  0  0  0  0  0  0  0  0  0
    3.7154    2.9475   -4.0662 O   0  0  0  0  0  0  0  0  0  0  0  0
    3.4881    0.6654   -2.9463 O   0  0  0  0  0  0  0  0  0  0  0  0
    9.8722    0.2431   -4.4493 C   0  0  0  0  0  0  0  0  0  0  0  0
   10.0738   -0.8201   -4.2621 H   0  0  0  0  0  0  0  0  0  0  0  0
   10.2711    0.4798   -5.4478 H   0  0  0  0  0  0  0  0  0  0  0  0
   10.4357    0.8371   -3.7190 H   0  0  0  0  0  0  0  0  0  0  0  0
   -2.4472   -0.1630   -3.1585 H   0  0  0  0  0  0  0  0  0  0  0  0
  1  6  2  0  0  0  0
  1  2  1  0  0  0  0
  2  3  2  0  0  0  0
  3  4  1  0  0  0  0
  4  9  1  0  0  0  0
  5 10  1  0  0  0  0
  5  4  2  0  0  0  0
  6  5  1  0  0  0  0
  7  1  1  0  0  0  0
 11 12  3  0  0  0  0
 13 18  1  0  0  0  0
 14 13  2  0  0  0  0
 14 15  1  0  0  0  0
 15 16  2  0  0  0  0
 16 17  1  0  0  0  0
 16 21  1  0  0  0  0
 17 22  1  0  0  0  0
 18 23  1  0  0  0  0
 18 17  2  0  0  0  0
 19 13  1  0  0  0  0
 20 14  1  0  0  0  0
 23 25  2  0  0  0  0
 23 26  1  0  0  0  0
 24 23  2  0  0  0  0
 26  8  1  0  0  0  0
 27 15  1  0  0  0  0
 27 28  1  0  0  0  0
 27 30  1  0  0  0  0
 29 27  1  0  0  0  0
 31  6  1  0  0  0  0
M  RAD  2   2   2   3   2
M  END
