35
Coordinates from ORCA-job 4-MeO-Ph-N2-OTs-B3LYPG-6-31G_dp-MTMO-d009-169-n800
  C   3.67986942280182     -3.75235931171971      0.52992103916790
  C   2.67959812536316     -3.76873266497169     -0.44625744737802
  C   2.90303726066890     -4.40850756811963     -1.66048170496058
  C   4.12204606565021     -5.04230723193861     -1.92092978830881
  C   5.11325987303130     -5.03506796730978     -0.94924708916365
  C   4.90101838772161     -4.39058156170440      0.28055118382417
  H   3.49483699499837     -3.24448851638285      1.46858305109335
  H   1.72935172051648     -3.27547909122453     -0.27212544508323
  H   4.27598312590873     -5.53622599156678     -2.87253380680561
  H   6.06881273538401     -5.51860768936275     -1.12112508807205
  N   -13.56917280371834     -7.90154442850863     -0.21999949078253
  N   -14.51573454644212     -8.42557994959495     -0.44594304849593
  C   0.26361434640509     -6.66435052366705     -0.55742424410493
  C   -0.60959708916614     -6.76197706687722      0.52640482570880
  C   -1.81838232819730     -6.05441098177624      0.55098328228328
  C   -2.14145519398860     -5.23984633367277     -0.54718890015735
  C   -1.28425273736908     -5.12689372002958     -1.63719225505778
  C   -0.08373256039086     -5.84357314993144     -1.63027465524435
  H   1.19092033748166     -7.22487976784909     -0.58274258191381
  H   -0.34796613503303     -7.40341921568322      1.36370373933826
  H   -3.08137658983446     -4.69435616502106     -0.55026177576564
  H   -1.54131261202085     -4.51124647318956     -2.49230463372175
  S   1.02294169179452     -5.69646004953577     -3.02050754855453
  O   1.91131312420699     -4.33173015666216     -2.64654179477578
  O   0.27124983380835     -5.28594416965615     -4.19695877542011
  O   1.91827569202260     -6.85003374185399     -3.03160942974912
  C   -2.75989619609134     -6.15909606259689      1.72639822187082
  H   -2.84054697265452     -5.20087850142101      2.25328145317555
  H   -3.76959802713282     -6.43207562440417      1.40166462370802
  H   -2.42192131746114     -6.90908768579594      2.44597051704500
  O   5.94294045690162     -4.44144225320687      1.15957256360036
  C   5.79513294463856     -3.79904966065172      2.41571966453240
  H   6.73270616112493     -3.96263107863544      2.94986367567676
  H   5.62796893757201     -2.72008656501945      2.30243141391181
  H   4.96976787149999     -4.23024908045923      2.99730024857901
