35
Coordinates from ORCA-job 4-MeO-Ph-N2-OTs-B3LYPG-6-31G_dp-MTMO-d009-169-n800
  C   4.40529698115235     -2.31887167545355     -0.08990385412416
  C   3.22522419758824     -1.86099839401336     -0.71155887052055
  C   2.45536694807604     -2.92296772684929     -1.04946797491803
  C   2.47110364743217     -4.24093071628501     -0.97514565773917
  C   3.67189921162006     -4.64378703469948     -0.35175977421707
  C   4.62406789485585     -3.70039355728383      0.08573289772066
  H   5.12472647534377     -1.58040373566354      0.24125786944555
  H   3.00105240029973     -0.81620238144451     -0.87563199423357
  H   1.64441777723860     -5.01435533952038     -1.33323313224925
  H   3.86449055364987     -5.70120780058216     -0.19827472749764
  N   0.73319050357066     -2.13047656721742     -2.08796740255636
  N   -0.01100239166465     -1.61217898067538     -2.71751342143844
  C   -2.03112693288473     -6.25404409231065      0.57247813832690
  C   -2.80371308688841     -7.18380288500022      1.27056836265605
  C   -3.32258131112071     -8.31796441468094      0.63438197534683
  C   -3.05754053304815     -8.49400375334333     -0.73282301159039
  C   -2.29185783681104     -7.57301467517494     -1.44252356046129
  C   -1.77540552845562     -6.45534922993301     -0.78231385525060
  H   -1.64115445343656     -5.36701090149846      1.05930570662457
  H   -3.01196398474154     -7.02141702684582      2.32545327558863
  H   -3.46328522904202     -9.36149198645035     -1.24819306022548
  H   -2.10589498151471     -7.70272472093023     -2.50348732828780
  S   -0.76113115435587     -5.28524078733507     -1.69227187607836
  O   -0.68954971358666     -4.04888487573676     -0.86749856134780
  O   -1.35694395529053     -5.14550874819882     -3.03161236043964
  O   0.61834611186664     -5.95845710850969     -1.74679083414546
  C   -4.13825276236698     -9.33629295705439      1.39612380134917
  H   -5.02322347733200     -9.64505984293731      0.83005902062002
  H   -3.55336612278059    -10.24248107550430      1.59702941965998
  H   -4.47385342290932     -8.94198316304110      2.35894727724855
  O   5.72867237154784     -4.22401403872555      0.66931986177718
  C   6.73898348462612     -3.34214420299163      1.14486605709105
  H   7.51542360435254     -3.97945905257917      1.56828082213317
  H   7.16593486165723     -2.74551946166780      0.32937080846592
  H   6.35334985335256     -2.67455708986252      1.92549596326679
