35
Coordinates from ORCA-job 4-MeO-Ph-N2-OTs-B3LYPG-6-31G_dp-MTMO-d009-169-n800
  C   4.23023929957457     -2.09407975408837     -0.29307261433506
  C   2.98805867865860     -2.13166016777589     -0.91083672422792
  C   2.35659275953538     -3.37032279613634     -1.07134671332015
  C   2.91870144258303     -4.58170807043313     -0.64800245720084
  C   4.16589120654670     -4.52444455557456     -0.05362121021555
  C   4.82631736185912     -3.29438315469774      0.13913652366681
  H   4.72100919876936     -1.13937768273534     -0.15424071719162
  H   2.51243486545531     -1.22067604452374     -1.25597641619898
  H   2.39373714506620     -5.52290575086222     -0.79626937877223
  H   4.65506427003215     -5.43029547021617      0.28545122476593
  N   1.08875816685792     -3.33158028272748     -1.75445823152514
  N   0.34962941929037     -2.89769120984968     -2.47747375507032
  C   -1.37379649101746     -7.85323607523396      0.32530802057910
  C   -2.48008118672482     -8.46592224462017      0.90900119976744
  C   -3.78230414856914     -8.17617435861707      0.47543114767369
  C   -3.94592727258085     -7.26096034384707     -0.57341353697103
  C   -2.84768391314627     -6.63933558650834     -1.16620526043072
  C   -1.56330300729862     -6.93536970799383     -0.70966409867013
  H   -0.36640360804580     -8.09348770438586      0.64726161430760
  H   -2.33153605077162     -9.18641261338294      1.71017105768878
  H   -4.94645467202052     -7.03750325929865     -0.93550668169031
  H   -2.97255327238792     -5.94553480025792     -1.99064512050024
  S   -0.14725941789579     -6.10816148343956     -1.43916231472435
  O   0.09045860984191     -4.90882956183783     -0.52289706026066
  O   -0.53644166879754     -5.67162228417763     -2.79969524437082
  O   0.99237287840553     -7.05818226349229     -1.36064958469395
  C   -4.97732877045043     -8.82255661076670      1.13617131054049
  H   -5.83997252590777     -8.85181002474615      0.46377501023776
  H   -4.75600744639939     -9.84730905559707      1.44934283242255
  H   -5.28086377072857     -8.26851341794599      2.03313298660530
  O   6.02591583868087     -3.36847089165330      0.74647892503429
  C   6.76230889977650     -2.17074682631303      0.98750152903807
  H   7.68199737143152     -2.48432881891226      1.48059480422593
  H   7.00869615899557     -1.65975106630515      0.04989065403485
  H   6.20943365138202     -1.48985606104650      1.64518827978138
