21
Coordinates from ORCA-job p-CH3O-Ph-N2-NO3-B3LYPG-aug-cc-pVDZ-scan-d09-49-n400
  C   -0.93529279179097     -0.33803908884860     -1.13247678464431
  C   0.10299758633870      0.03776317625386     -1.91868857120744
  C   1.08615892528405      0.95245504059982     -1.39803438198549
  C   1.13766085616107      1.32556270553177      0.04633089097091
  C   -0.14268448157033      1.05646026576566      0.74398115838787
  C   -1.07609941152122      0.22544220207875      0.20033248611662
  H   -1.69925664674684     -1.02713314179921     -1.48516649179943
  H   0.20814270906531     -0.32661485773897     -2.93969449169482
  H   1.51045882013891      2.33903869408043      0.21388504846379
  H   -0.26659801122632      1.51000268324892      1.72151553957680
  N   2.02797014682015      1.43081847004720     -2.19134397143307
  N   2.84276849086681      1.85119137935706     -2.86604786273633
  O   -2.23991128127023     -0.13937798534396      0.79693522851348
  C   -2.49590956704516      0.34206290866884      2.11603646261899
  H   -3.45440164364087     -0.09457306713349      2.41064342445545
  H   -2.56877210985009      1.43964303049790      2.12523355970120
  H   -1.70711427033893      0.01708940033145      2.81019370015447
  O   2.37257172541900      1.86378166874250      2.32920482289143
  N   2.79948708310833      0.83431325391654      1.83367517943540
  O   3.65534317813301      0.09642342331416      2.26221748976686
  O   2.27298069366563      0.42638983842937      0.60956756444763
