25
Coordinates from ORCA-job p-CH3O-Ph-N2-OTf-B3LYP-6-31G_dp-scan-d09-49-n400
  C   -2.17544170953772      0.13581907614784     -7.32456959508975
  C   -0.85265272186922      0.55678521718548     -7.34001717712214
  C   -0.23744483241406      0.89893440324812     -6.13478805293155
  C   -0.92418935586641      0.83925894516477     -4.92956213482759
  C   -2.25821997658455      0.42408942484983     -4.91419487674076
  C   -2.88760861394998      0.06609648995724     -6.11463477704182
  H   -2.68397313168070     -0.14318191940525     -8.24110582787401
  H   -0.29745246412900      0.61677495892301     -8.26916447353689
  H   -0.42101341405122      1.12191111614287     -4.01115435128095
  H   -2.78798528241764      0.38571953053693     -3.96985057010768
  N   -1.50373978983917      4.35297870987884     -6.59091792324896
  N   -2.60588811232096      4.43124266434777     -6.56129664604504
  S   2.36335236340166      0.42553159372344     -6.38133538762444
  C   2.65218004035756     -0.18556605241963     -4.63609499422266
  O   1.98494055090393     -0.72617593830896     -7.18399362602859
  O   3.46829078275594      1.30305682862541     -6.71380869092251
  O   1.07797568432484      1.41601734771735     -6.12480704247097
  F   1.63776521797659     -0.96636825905412     -4.25841174077842
  F   3.78563232550335     -0.88337717999023     -4.61613422820514
  F   2.74566058527049      0.85169757162553     -3.80545769725684
  O   -4.17753737908445     -0.35536021023662     -6.21645522630461
  C   -4.95303281185775     -0.45427397161455     -5.03045904802120
  H   -5.93585884351322     -0.80963873260319     -5.34318181968588
  H   -5.06149202697234      0.51975779768832     -4.53643532525161
  H   -4.51796708440571     -1.17152941213027     -4.32216876738017
