25
Coordinates from ORCA-job p-CH3O-Ph-N2-OTf-B3LYP-6-31G_dp-scan-d09-49-n400
  C   -1.85690619716707     -0.48722827530600     -6.03530024875779
  C   -0.90402482215550      0.44979382940880     -6.36890119370671
  C   -1.23150839319606      1.81182440939387     -6.18466317358790
  C   -2.47036346564119      2.23273524403656     -5.67682094208855
  C   -3.41303052252710      1.27687892482047     -5.33970625562865
  C   -3.11005680302859     -0.09092219545815     -5.51647042475119
  H   -1.65630305944158     -1.54656155824009     -6.15169781686022
  H   0.06886681206926      0.17776377014551     -6.75701614082637
  H   -2.67653094898437      3.28962205562697     -5.54526323034107
  H   -4.36924258050900      1.59075190279091     -4.94217225857363
  N   -0.29217349675011      2.75551253733378     -6.51212556578824
  N   0.62987471253146      3.30850333477860     -6.83764337926654
  S   2.68875809927601      1.22053588647087     -5.92143691114479
  C   2.98939737095103     -0.60952292192006     -6.09464663083725
  O   2.11239593721595      1.55031684646286     -7.27703876360643
  O   4.00930647426429      1.78742358850937     -5.63563489927539
  O   1.65933765391934      1.31273927768868     -4.85683611277680
  F   1.83030955924883     -1.25555291575679     -6.38692532350643
  F   3.85889892452312     -0.86836035008089     -7.07660985851628
  F   3.46282790072845     -1.12427774019584     -4.95363302468335
  O   -3.95100024346197     -1.09236306995929     -5.22178157662457
  C   -5.23943393627602     -0.79808487962502     -4.67370044466375
  H   -5.71701007052330     -1.76460319372044     -4.51629366378613
  H   -5.83833544041847     -0.20261512346379     -5.37198987758130
  H   -5.14975346464733     -0.27410938374095     -3.71569228282066
