Coordinates from ORCA-job 4-NO2-Ph-N2-OAc-B3LYPG-6-31G_dp-MTMO-d009-169-n750
 OpenBabel09051907563D

 22 21  0  0  0  0  0  0  0  0999 V2000
   15.7824    8.6075   -3.5144 C   0  0  0  0  0  0  0  0  0  0  0  0
   14.7398    7.6942   -3.4618 C   0  0  0  0  0  0  0  0  0  0  0  0
   14.9315    6.4405   -2.8640 C   0  0  0  0  0  0  0  0  0  0  0  0
   16.1696    6.0873   -2.3111 C   0  0  0  0  0  0  0  0  0  0  0  0
   17.2141    7.0082   -2.3664 C   0  0  0  0  0  0  0  0  0  0  0  0
   17.0131    8.2499   -2.9629 C   0  0  0  0  0  0  0  0  0  0  0  0
   15.6630    9.5821   -3.9695 H   0  0  0  0  0  0  0  0  0  0  0  0
   13.7668    7.9303   -3.8778 H   0  0  0  0  0  0  0  0  0  0  0  0
   16.3102    5.1198   -1.8559 H   0  0  0  0  0  0  0  0  0  0  0  0
   18.1853    6.7718   -1.9504 H   0  0  0  0  0  0  0  0  0  0  0  0
   18.1233    9.2082   -3.0146 N   0  0  0  0  0  0  0  0  0  0  0  0
   17.9105   10.2994   -3.5443 O   0  0  0  0  0  0  0  0  0  0  0  0
   19.1997    8.8644   -2.5267 O   0  0  0  0  0  0  0  0  0  0  0  0
    2.1414    2.9174    3.2661 N   0  0  0  0  0  0  0  0  0  0  0  0
    3.0826    3.1416    2.7318 N   0  0  0  0  0  0  0  0  0  0  0  0
   13.7147    4.3535   -2.4349 C   0  0  0  0  0  0  0  0  0  0  0  0
   14.6300    3.7263   -1.9630 O   0  0  0  0  0  0  0  0  0  0  0  0
   13.7942    5.6502   -2.8834 O   0  0  0  0  0  0  0  0  0  0  0  0
   12.3070    3.8511   -2.6299 C   0  0  0  0  0  0  0  0  0  0  0  0
   12.2429    2.8213   -2.2812 H   0  0  0  0  0  0  0  0  0  0  0  0
   11.6047    4.4786   -2.0738 H   0  0  0  0  0  0  0  0  0  0  0  0
   12.0305    3.9080   -3.6866 H   0  0  0  0  0  0  0  0  0  0  0  0
  1  2  2  0  0  0  0
  1  6  1  0  0  0  0
  2  3  1  0  0  0  0
  3  4  2  0  0  0  0
  4  9  1  0  0  0  0
  5  4  1  0  0  0  0
  5 10  1  0  0  0  0
  6  5  2  0  0  0  0
  7  1  1  0  0  0  0
  8  2  1  0  0  0  0
 11  6  1  0  0  0  0
 11 13  2  0  0  0  0
 12 11  2  0  0  0  0
 15 14  3  0  0  0  0
 16 17  2  0  0  0  0
 18  3  1  0  0  0  0
 18 16  1  0  0  0  0
 19 16  1  0  0  0  0
 19 20  1  0  0  0  0
 19 21  1  0  0  0  0
 22 19  1  0  0  0  0
M  END
