Coordinates from ORCA-job 4-NO2-Ph-N2-OAc-B3LYPG-6-31G_dp-MTMO-d009-169-n750
 OpenBabel09051907553D

 22 21  0  0  0  0  0  0  0  0999 V2000
   15.1214    8.1242   -3.4046 C   0  0  0  0  0  0  0  0  0  0  0  0
   14.0103    7.3119   -3.2336 C   0  0  0  0  0  0  0  0  0  0  0  0
   14.1372    6.0693   -2.5964 C   0  0  0  0  0  0  0  0  0  0  0  0
   15.3795    5.6266   -2.1224 C   0  0  0  0  0  0  0  0  0  0  0  0
   16.4931    6.4460   -2.2967 C   0  0  0  0  0  0  0  0  0  0  0  0
   16.3556    7.6776   -2.9312 C   0  0  0  0  0  0  0  0  0  0  0  0
   15.0524    9.0879   -3.8923 H   0  0  0  0  0  0  0  0  0  0  0  0
   13.0322    7.6195   -3.5862 H   0  0  0  0  0  0  0  0  0  0  0  0
   15.4705    4.6671   -1.6386 H   0  0  0  0  0  0  0  0  0  0  0  0
   17.4694    6.1382   -1.9440 H   0  0  0  0  0  0  0  0  0  0  0  0
   17.5378    8.5290   -3.1077 N   0  0  0  0  0  0  0  0  0  0  0  0
   17.3805    9.6139   -3.6687 O   0  0  0  0  0  0  0  0  0  0  0  0
   18.6146    8.1084   -2.6851 O   0  0  0  0  0  0  0  0  0  0  0  0
   10.3320    7.5020    0.9683 N   0  0  0  0  0  0  0  0  0  0  0  0
   10.5278    6.6028    0.3565 N   0  0  0  0  0  0  0  0  0  0  0  0
   12.7870    4.1047   -2.0174 C   0  0  0  0  0  0  0  0  0  0  0  0
   13.6874    3.4001   -1.6345 O   0  0  0  0  0  0  0  0  0  0  0  0
   12.9368    5.3882   -2.4889 O   0  0  0  0  0  0  0  0  0  0  0  0
   11.3272    3.7346   -2.0555 C   0  0  0  0  0  0  0  0  0  0  0  0
   11.2109    2.7021   -1.7283 H   0  0  0  0  0  0  0  0  0  0  0  0
   10.7610    4.4016   -1.3991 H   0  0  0  0  0  0  0  0  0  0  0  0
   10.9326    3.8556   -3.0684 H   0  0  0  0  0  0  0  0  0  0  0  0
  1  2  2  0  0  0  0
  1  6  1  0  0  0  0
  2  3  1  0  0  0  0
  3 18  1  0  0  0  0
  3  4  2  0  0  0  0
  4  9  1  0  0  0  0
  5  4  1  0  0  0  0
  5 10  1  0  0  0  0
  6  5  2  0  0  0  0
  7  1  1  0  0  0  0
  8  2  1  0  0  0  0
 11  6  1  0  0  0  0
 11 13  2  0  0  0  0
 12 11  2  0  0  0  0
 15 14  3  0  0  0  0
 16 17  2  0  0  0  0
 18 16  1  0  0  0  0
 19 16  1  0  0  0  0
 19 20  1  0  0  0  0
 19 21  1  0  0  0  0
 22 19  1  0  0  0  0
M  END
