Coordinates from ORCA-job 4-NO2-Ph-N2-OAc-B3LYPG-6-31G_dp-MTMO-d009-169-n750
 OpenBabel09051907563D

 22 21  0  0  0  0  0  0  0  0999 V2000
   15.8014    8.6127   -3.5232 C   0  0  0  0  0  0  0  0  0  0  0  0
   14.7586    7.6997   -3.4700 C   0  0  0  0  0  0  0  0  0  0  0  0
   14.9503    6.4460   -2.8722 C   0  0  0  0  0  0  0  0  0  0  0  0
   16.1885    6.0926   -2.3197 C   0  0  0  0  0  0  0  0  0  0  0  0
   17.2332    7.0132   -2.3755 C   0  0  0  0  0  0  0  0  0  0  0  0
   17.0323    8.2549   -2.9722 C   0  0  0  0  0  0  0  0  0  0  0  0
   15.6821    9.5873   -3.9784 H   0  0  0  0  0  0  0  0  0  0  0  0
   13.7856    7.9360   -3.8857 H   0  0  0  0  0  0  0  0  0  0  0  0
   16.3290    5.1251   -1.8645 H   0  0  0  0  0  0  0  0  0  0  0  0
   18.2045    6.7766   -1.9599 H   0  0  0  0  0  0  0  0  0  0  0  0
   18.1427    9.2129   -3.0245 N   0  0  0  0  0  0  0  0  0  0  0  0
   17.9300   10.3041   -3.5541 O   0  0  0  0  0  0  0  0  0  0  0  0
   19.2192    8.8690   -2.5368 O   0  0  0  0  0  0  0  0  0  0  0  0
    1.9526    2.8627    3.3504 N   0  0  0  0  0  0  0  0  0  0  0  0
    2.8940    3.0880    2.8169 N   0  0  0  0  0  0  0  0  0  0  0  0
   13.7333    4.3591   -2.4430 C   0  0  0  0  0  0  0  0  0  0  0  0
   14.6488    3.7316   -1.9719 O   0  0  0  0  0  0  0  0  0  0  0  0
   13.8128    5.6560   -2.8910 O   0  0  0  0  0  0  0  0  0  0  0  0
   12.3253    3.8572   -2.6370 C   0  0  0  0  0  0  0  0  0  0  0  0
   12.2612    2.8273   -2.2886 H   0  0  0  0  0  0  0  0  0  0  0  0
   11.6236    4.4847   -2.0802 H   0  0  0  0  0  0  0  0  0  0  0  0
   12.0481    3.9145   -3.6936 H   0  0  0  0  0  0  0  0  0  0  0  0
  1  2  2  0  0  0  0
  1  6  1  0  0  0  0
  2  3  1  0  0  0  0
  3  4  2  0  0  0  0
  4  9  1  0  0  0  0
  5  4  1  0  0  0  0
  5 10  1  0  0  0  0
  6  5  2  0  0  0  0
  7  1  1  0  0  0  0
  8  2  1  0  0  0  0
 11  6  1  0  0  0  0
 11 13  2  0  0  0  0
 12 11  2  0  0  0  0
 15 14  3  0  0  0  0
 16 17  2  0  0  0  0
 18  3  1  0  0  0  0
 18 16  1  0  0  0  0
 19 16  1  0  0  0  0
 19 20  1  0  0  0  0
 19 21  1  0  0  0  0
 22 19  1  0  0  0  0
M  END
