Coordinates from ORCA-job 4-NO2-Ph-N2-OAc-B3LYPG-6-31G_dp-MTMO-d009-169-n750
 OpenBabel09051907563D

 22 21  0  0  0  0  0  0  0  0999 V2000
   15.2000    8.1368   -3.4304 C   0  0  0  0  0  0  0  0  0  0  0  0
   14.0786    7.3452   -3.2315 C   0  0  0  0  0  0  0  0  0  0  0  0
   14.1998    6.0964   -2.6054 C   0  0  0  0  0  0  0  0  0  0  0  0
   15.4464    5.6269   -2.1702 C   0  0  0  0  0  0  0  0  0  0  0  0
   16.5702    6.4256   -2.3720 C   0  0  0  0  0  0  0  0  0  0  0  0
   16.4384    7.6636   -2.9954 C   0  0  0  0  0  0  0  0  0  0  0  0
   15.1358    9.1046   -3.9104 H   0  0  0  0  0  0  0  0  0  0  0  0
   13.0970    7.6740   -3.5536 H   0  0  0  0  0  0  0  0  0  0  0  0
   15.5327    4.6627   -1.6949 H   0  0  0  0  0  0  0  0  0  0  0  0
   17.5501    6.0969   -2.0494 H   0  0  0  0  0  0  0  0  0  0  0  0
   17.6313    8.4931   -3.2012 N   0  0  0  0  0  0  0  0  0  0  0  0
   17.4792    9.5837   -3.7525 O   0  0  0  0  0  0  0  0  0  0  0  0
   18.7113    8.0498   -2.8111 O   0  0  0  0  0  0  0  0  0  0  0  0
    9.6421    7.2633    1.1614 N   0  0  0  0  0  0  0  0  0  0  0  0
    9.9397    6.4261    0.5046 N   0  0  0  0  0  0  0  0  0  0  0  0
   12.8289    4.1547   -1.9985 C   0  0  0  0  0  0  0  0  0  0  0  0
   13.7266    3.4282   -1.6519 O   0  0  0  0  0  0  0  0  0  0  0  0
   12.9899    5.4382   -2.4661 O   0  0  0  0  0  0  0  0  0  0  0  0
   11.3609    3.8161   -1.9881 C   0  0  0  0  0  0  0  0  0  0  0  0
   11.2345    2.7828   -1.6672 H   0  0  0  0  0  0  0  0  0  0  0  0
   10.8303    4.4867   -1.3057 H   0  0  0  0  0  0  0  0  0  0  0  0
   10.9333    3.9557   -2.9851 H   0  0  0  0  0  0  0  0  0  0  0  0
  1  2  2  0  0  0  0
  1  6  1  0  0  0  0
  2  3  1  0  0  0  0
  3 18  1  0  0  0  0
  3  4  2  0  0  0  0
  4  9  1  0  0  0  0
  5  4  1  0  0  0  0
  5 10  1  0  0  0  0
  6  5  2  0  0  0  0
  7  1  1  0  0  0  0
  8  2  1  0  0  0  0
 11  6  1  0  0  0  0
 11 13  2  0  0  0  0
 12 11  2  0  0  0  0
 15 14  3  0  0  0  0
 16 19  1  0  0  0  0
 16 17  2  0  0  0  0
 18 16  1  0  0  0  0
 19 20  1  0  0  0  0
 19 21  1  0  0  0  0
 22 19  1  0  0  0  0
M  END
