Coordinates from ORCA-job 4-NO2-Ph-N2-OAc-B3LYPG-6-31G_dp-MTMO-d009-169-n750
 OpenBabel09051907563D

 22 21  0  0  0  0  0  0  0  0999 V2000
   15.9629    8.6585   -3.5968 C   0  0  0  0  0  0  0  0  0  0  0  0
   14.9203    7.7452   -3.5428 C   0  0  0  0  0  0  0  0  0  0  0  0
   15.1129    6.4913   -2.9456 C   0  0  0  0  0  0  0  0  0  0  0  0
   16.3519    6.1380   -2.3946 C   0  0  0  0  0  0  0  0  0  0  0  0
   17.3963    7.0588   -2.4513 C   0  0  0  0  0  0  0  0  0  0  0  0
   17.1944    8.3007   -3.0473 C   0  0  0  0  0  0  0  0  0  0  0  0
   15.8428    9.6332   -4.0515 H   0  0  0  0  0  0  0  0  0  0  0  0
   13.9468    7.9814   -3.9573 H   0  0  0  0  0  0  0  0  0  0  0  0
   16.4932    5.1703   -1.9402 H   0  0  0  0  0  0  0  0  0  0  0  0
   18.3681    6.8223   -2.0368 H   0  0  0  0  0  0  0  0  0  0  0  0
   18.3046    9.2590   -3.1005 N   0  0  0  0  0  0  0  0  0  0  0  0
   18.0910   10.3504   -3.6294 O   0  0  0  0  0  0  0  0  0  0  0  0
   19.3817    8.9151   -2.6141 O   0  0  0  0  0  0  0  0  0  0  0  0
    0.3230    2.4110    4.0900 N   0  0  0  0  0  0  0  0  0  0  0  0
    1.2665    2.6358    3.5598 N   0  0  0  0  0  0  0  0  0  0  0  0
   13.8977    4.4032   -2.5181 C   0  0  0  0  0  0  0  0  0  0  0  0
   14.8149    3.7745   -2.0517 O   0  0  0  0  0  0  0  0  0  0  0  0
   13.9755    5.7012   -2.9630 O   0  0  0  0  0  0  0  0  0  0  0  0
   12.4891    3.9015   -2.7087 C   0  0  0  0  0  0  0  0  0  0  0  0
   12.4264    2.8705   -2.3632 H   0  0  0  0  0  0  0  0  0  0  0  0
   11.7893    4.5272   -2.1475 H   0  0  0  0  0  0  0  0  0  0  0  0
   12.2081    3.9620   -3.7641 H   0  0  0  0  0  0  0  0  0  0  0  0
  1  2  2  0  0  0  0
  1  6  1  0  0  0  0
  2  3  1  0  0  0  0
  3  4  2  0  0  0  0
  4  9  1  0  0  0  0
  5  4  1  0  0  0  0
  5 10  1  0  0  0  0
  6  5  2  0  0  0  0
  7  1  1  0  0  0  0
  8  2  1  0  0  0  0
 11  6  1  0  0  0  0
 11 13  2  0  0  0  0
 12 11  2  0  0  0  0
 15 14  3  0  0  0  0
 16 17  2  0  0  0  0
 18  3  1  0  0  0  0
 18 16  1  0  0  0  0
 19 16  1  0  0  0  0
 19 20  1  0  0  0  0
 19 21  1  0  0  0  0
 22 19  1  0  0  0  0
M  END
