Coordinates from ORCA-job 4-NO2-Ph-N2-OAc-B3LYPG-6-31G_dp-MTMO-d009-169-n750
 OpenBabel09051907563D

 22 21  0  0  0  0  0  0  0  0999 V2000
   15.1919    8.1359   -3.4265 C   0  0  0  0  0  0  0  0  0  0  0  0
   14.0717    7.3418   -3.2306 C   0  0  0  0  0  0  0  0  0  0  0  0
   14.1940    6.0930   -2.6047 C   0  0  0  0  0  0  0  0  0  0  0  0
   15.4406    5.6259   -2.1668 C   0  0  0  0  0  0  0  0  0  0  0  0
   16.5632    6.4271   -2.3657 C   0  0  0  0  0  0  0  0  0  0  0  0
   16.4303    7.6650   -2.9889 C   0  0  0  0  0  0  0  0  0  0  0  0
   15.1267    9.1038   -3.9063 H   0  0  0  0  0  0  0  0  0  0  0  0
   13.0901    7.6687   -3.5548 H   0  0  0  0  0  0  0  0  0  0  0  0
   15.5278    4.6617   -1.6917 H   0  0  0  0  0  0  0  0  0  0  0  0
   17.5430    6.1004   -2.0409 H   0  0  0  0  0  0  0  0  0  0  0  0
   17.6219    8.4972   -3.1915 N   0  0  0  0  0  0  0  0  0  0  0  0
   17.4688    9.5878   -3.7427 O   0  0  0  0  0  0  0  0  0  0  0  0
   18.7019    8.0560   -2.7992 O   0  0  0  0  0  0  0  0  0  0  0  0
    9.7142    7.2963    1.1420 N   0  0  0  0  0  0  0  0  0  0  0  0
    9.9865    6.4451    0.4920 N   0  0  0  0  0  0  0  0  0  0  0  0
   12.8257    4.1484   -2.0012 C   0  0  0  0  0  0  0  0  0  0  0  0
   13.7240    3.4239   -1.6520 O   0  0  0  0  0  0  0  0  0  0  0  0
   12.9852    5.4322   -2.4685 O   0  0  0  0  0  0  0  0  0  0  0  0
   11.3584    3.8066   -1.9949 C   0  0  0  0  0  0  0  0  0  0  0  0
   11.2332    2.7737   -1.6724 H   0  0  0  0  0  0  0  0  0  0  0  0
   10.8241    4.4776   -1.3158 H   0  0  0  0  0  0  0  0  0  0  0  0
   10.9340    3.9432   -2.9937 H   0  0  0  0  0  0  0  0  0  0  0  0
  1  2  2  0  0  0  0
  1  6  1  0  0  0  0
  2  3  1  0  0  0  0
  3 18  1  0  0  0  0
  3  4  2  0  0  0  0
  4  9  1  0  0  0  0
  5  4  1  0  0  0  0
  5 10  1  0  0  0  0
  6  5  2  0  0  0  0
  7  1  1  0  0  0  0
  8  2  1  0  0  0  0
 11  6  1  0  0  0  0
 11 13  2  0  0  0  0
 12 11  2  0  0  0  0
 15 14  3  0  0  0  0
 16 19  1  0  0  0  0
 16 17  2  0  0  0  0
 18 16  1  0  0  0  0
 19 20  1  0  0  0  0
 19 21  1  0  0  0  0
 22 19  1  0  0  0  0
M  END
