Coordinates from ORCA-job 4-NO2-Ph-N2-OAc-B3LYPG-6-31G_dp-MTMO-d009-169-n750
 OpenBabel09051907563D

 22 21  0  0  0  0  0  0  0  0999 V2000
   15.2104    8.4049   -3.2959 C   0  0  0  0  0  0  0  0  0  0  0  0
   14.1640    7.4956   -3.2504 C   0  0  0  0  0  0  0  0  0  0  0  0
   14.3400    6.2493   -2.6322 C   0  0  0  0  0  0  0  0  0  0  0  0
   15.5667    5.9000   -2.0516 C   0  0  0  0  0  0  0  0  0  0  0  0
   16.6151    6.8168   -2.1001 C   0  0  0  0  0  0  0  0  0  0  0  0
   16.4295    8.0510   -2.7169 C   0  0  0  0  0  0  0  0  0  0  0  0
   15.1027    9.3737   -3.7662 H   0  0  0  0  0  0  0  0  0  0  0  0
   13.1998    7.7289   -3.6878 H   0  0  0  0  0  0  0  0  0  0  0  0
   15.6949    4.9387   -1.5799 H   0  0  0  0  0  0  0  0  0  0  0  0
   17.5778    6.5829   -1.6633 H   0  0  0  0  0  0  0  0  0  0  0  0
   17.5437    9.0049   -2.7612 N   0  0  0  0  0  0  0  0  0  0  0  0
   17.3443   10.0896   -3.3092 O   0  0  0  0  0  0  0  0  0  0  0  0
   18.6098    8.6647   -2.2486 O   0  0  0  0  0  0  0  0  0  0  0  0
    8.1487    4.9468    0.9403 N   0  0  0  0  0  0  0  0  0  0  0  0
    8.9624    4.8940    0.1944 N   0  0  0  0  0  0  0  0  0  0  0  0
   13.1000    4.1812   -2.1749 C   0  0  0  0  0  0  0  0  0  0  0  0
   13.9944    3.5715   -1.6432 O   0  0  0  0  0  0  0  0  0  0  0  0
   13.2021    5.4609   -2.6672 O   0  0  0  0  0  0  0  0  0  0  0  0
   11.6981    3.6762   -2.4000 C   0  0  0  0  0  0  0  0  0  0  0  0
   11.6453    2.6281   -2.1073 H   0  0  0  0  0  0  0  0  0  0  0  0
   10.9907    4.2603   -1.8035 H   0  0  0  0  0  0  0  0  0  0  0  0
   11.4168    3.7913   -3.4502 H   0  0  0  0  0  0  0  0  0  0  0  0
  1  2  2  0  0  0  0
  1  6  1  0  0  0  0
  2  3  1  0  0  0  0
  3  4  2  0  0  0  0
  4  9  1  0  0  0  0
  5  4  1  0  0  0  0
  5 10  1  0  0  0  0
  6  5  2  0  0  0  0
  7  1  1  0  0  0  0
  8  2  1  0  0  0  0
 11  6  1  0  0  0  0
 11 13  2  0  0  0  0
 12 11  2  0  0  0  0
 15 14  3  0  0  0  0
 16 17  2  0  0  0  0
 18  3  1  0  0  0  0
 18 16  1  0  0  0  0
 19 16  1  0  0  0  0
 19 20  1  0  0  0  0
 19 21  1  0  0  0  0
 22 19  1  0  0  0  0
M  END
