Coordinates from ORCA-job 4-NO2-Ph-N2-OAc-B3LYPG-6-31G_dp-MTMO-d009-169-n750
 OpenBabel09051907553D

 22 22  0  0  0  0  0  0  0  0999 V2000
   15.1501    8.6475   -3.0114 C   0  0  0  0  0  0  0  0  0  0  0  0
   13.9591    8.4986   -2.3082 C   0  0  0  0  0  0  0  0  0  0  0  0
   13.7426    7.3293   -1.5744 C   0  0  0  0  0  0  0  0  0  0  0  0
   14.7162    6.3279   -1.4761 C   0  0  0  0  0  0  0  0  0  0  0  0
   15.9167    6.4909   -2.1582 C   0  0  0  0  0  0  0  0  0  0  0  0
   16.1099    7.6413   -2.9223 C   0  0  0  0  0  0  0  0  0  0  0  0
   15.3526    9.5273   -3.6086 H   0  0  0  0  0  0  0  0  0  0  0  0
   13.1972    9.2702   -2.3314 H   0  0  0  0  0  0  0  0  0  0  0  0
   14.5299    5.4505   -0.8661 H   0  0  0  0  0  0  0  0  0  0  0  0
   16.7000    5.7444   -2.1115 H   0  0  0  0  0  0  0  0  0  0  0  0
   17.3797    7.8054   -3.6514 N   0  0  0  0  0  0  0  0  0  0  0  0
   17.5235    8.8296   -4.3167 O   0  0  0  0  0  0  0  0  0  0  0  0
   18.2136    6.9078   -3.5487 O   0  0  0  0  0  0  0  0  0  0  0  0
   12.5436    7.2448   -0.7923 N   0  0  0  0  0  0  0  0  0  0  0  0
   11.7319    6.3597   -0.7928 N   0  0  0  0  0  0  0  0  0  0  0  0
   12.1565    4.0787   -1.4830 C   0  0  0  0  0  0  0  0  0  0  0  0
   12.5588    3.8555   -0.3610 O   0  0  0  0  0  0  0  0  0  0  0  0
   11.9472    5.3256   -1.9652 O   0  0  0  0  0  0  0  0  0  0  0  0
   11.8484    3.0334   -2.5318 C   0  0  0  0  0  0  0  0  0  0  0  0
   10.7630    2.9446   -2.6430 H   0  0  0  0  0  0  0  0  0  0  0  0
   12.2558    3.3234   -3.5036 H   0  0  0  0  0  0  0  0  0  0  0  0
   12.2607    2.0749   -2.2171 H   0  0  0  0  0  0  0  0  0  0  0  0
  1  6  2  0  0  0  0
  1  2  1  0  0  0  0
  2  3  2  0  0  0  0
  3  4  1  0  0  0  0
  3 14  1  0  0  0  0
  4  9  1  0  0  0  0
  5 10  1  0  0  0  0
  5  4  2  0  0  0  0
  6  5  1  0  0  0  0
  7  1  1  0  0  0  0
  8  2  1  0  0  0  0
 11 13  2  0  0  0  0
 11  6  1  0  0  0  0
 12 11  2  0  0  0  0
 15 14  1  0  0  0  0
 16 17  2  0  0  0  0
 18 16  1  0  0  0  0
 18 15  1  0  0  0  0
 19 22  1  0  0  0  0
 19 16  1  0  0  0  0
 20 19  1  0  0  0  0
 21 19  1  0  0  0  0
M  RAD  2  14   2  15   2
M  END
