Coordinates from ORCA-job 4-NO2-Ph-N2-OAc-B3LYPG-6-31G_dp-MTMO-d009-169-n750
 OpenBabel09051907553D

 22 20  0  0  0  0  0  0  0  0999 V2000
   15.5807    8.9597   -2.7070 C   0  0  0  0  0  0  0  0  0  0  0  0
   14.2622    8.6483   -2.3222 C   0  0  0  0  0  0  0  0  0  0  0  0
   14.1734    7.2856   -2.1661 C   0  0  0  0  0  0  0  0  0  0  0  0
   14.9866    6.3403   -2.2942 C   0  0  0  0  0  0  0  0  0  0  0  0
   16.3071    6.5746   -2.6700 C   0  0  0  0  0  0  0  0  0  0  0  0
   16.5495    7.9498   -2.8691 C   0  0  0  0  0  0  0  0  0  0  0  0
   15.8715    9.9884   -2.8848 H   0  0  0  0  0  0  0  0  0  0  0  0
   13.4845    9.3869   -2.1820 H   0  0  0  0  0  0  0  0  0  0  0  0
   13.8317    4.4404   -2.0034 H   0  0  0  0  0  0  0  0  0  0  0  0
   17.0902    5.8409   -2.8104 H   0  0  0  0  0  0  0  0  0  0  0  0
   17.9094    8.3559   -3.2742 N   0  0  0  0  0  0  0  0  0  0  0  0
   18.1232    9.5541   -3.4502 O   0  0  0  0  0  0  0  0  0  0  0  0
   18.7462    7.4654   -3.4103 O   0  0  0  0  0  0  0  0  0  0  0  0
   11.2717    7.8077   -1.1404 N   0  0  0  0  0  0  0  0  0  0  0  0
   10.3318    7.4374   -0.6932 N   0  0  0  0  0  0  0  0  0  0  0  0
   12.0901    3.7190   -1.9245 C   0  0  0  0  0  0  0  0  0  0  0  0
   13.4291    3.5495   -1.9662 O   0  0  0  0  0  0  0  0  0  0  0  0
   11.5616    4.8114   -1.9262 O   0  0  0  0  0  0  0  0  0  0  0  0
   11.3649    2.3968   -1.8778 C   0  0  0  0  0  0  0  0  0  0  0  0
   11.6939    1.8203   -1.0077 H   0  0  0  0  0  0  0  0  0  0  0  0
   10.2907    2.5715   -1.8272 H   0  0  0  0  0  0  0  0  0  0  0  0
   11.6072    1.8074   -2.7678 H   0  0  0  0  0  0  0  0  0  0  0  0
  1  2  1  0  0  0  0
  2  8  1  0  0  0  0
  2  3  2  0  0  0  0
  4  3  1  0  0  0  0
  5  4  2  0  0  0  0
  6  1  2  0  0  0  0
  6  5  1  0  0  0  0
  7  1  1  0  0  0  0
  9 17  1  0  0  0  0
 10  5  1  0  0  0  0
 11  6  1  0  0  0  0
 12 11  2  0  0  0  0
 13 11  2  0  0  0  0
 14 15  3  0  0  0  0
 16 19  1  0  0  0  0
 17 16  1  0  0  0  0
 18 16  2  0  0  0  0
 19 21  1  0  0  0  0
 19 20  1  0  0  0  0
 22 19  1  0  0  0  0
M  RAD  2   3   2   4   2
M  END
