Coordinates from ORCA-job 4-NO2-Ph-N2-OAc-B3LYPG-6-31G_dp-MTMO-d009-169-n750
 OpenBabel09051907563D

 22 21  0  0  0  0  0  0  0  0999 V2000
   15.1893    8.1355   -3.4255 C   0  0  0  0  0  0  0  0  0  0  0  0
   14.0695    7.3405   -3.2308 C   0  0  0  0  0  0  0  0  0  0  0  0
   14.1921    6.0918   -2.6049 C   0  0  0  0  0  0  0  0  0  0  0  0
   15.4386    5.6256   -2.1658 C   0  0  0  0  0  0  0  0  0  0  0  0
   16.5608    6.4277   -2.3634 C   0  0  0  0  0  0  0  0  0  0  0  0
   16.4276    7.6656   -2.9866 C   0  0  0  0  0  0  0  0  0  0  0  0
   15.1239    9.1033   -3.9053 H   0  0  0  0  0  0  0  0  0  0  0  0
   13.0880    7.6667   -3.5561 H   0  0  0  0  0  0  0  0  0  0  0  0
   15.5261    4.6614   -1.6907 H   0  0  0  0  0  0  0  0  0  0  0  0
   17.5405    6.1017   -2.0377 H   0  0  0  0  0  0  0  0  0  0  0  0
   17.6187    8.4987   -3.1879 N   0  0  0  0  0  0  0  0  0  0  0  0
   17.4654    9.5892   -3.7392 O   0  0  0  0  0  0  0  0  0  0  0  0
   18.6986    8.0583   -2.7944 O   0  0  0  0  0  0  0  0  0  0  0  0
    9.7382    7.3060    1.1352 N   0  0  0  0  0  0  0  0  0  0  0  0
   10.0028    6.4507    0.4875 N   0  0  0  0  0  0  0  0  0  0  0  0
   12.8245    4.1463   -2.0025 C   0  0  0  0  0  0  0  0  0  0  0  0
   13.7231    3.4222   -1.6529 O   0  0  0  0  0  0  0  0  0  0  0  0
   12.9836    5.4301   -2.4699 O   0  0  0  0  0  0  0  0  0  0  0  0
   11.3574    3.8039   -1.9966 C   0  0  0  0  0  0  0  0  0  0  0  0
   11.2324    2.7712   -1.6732 H   0  0  0  0  0  0  0  0  0  0  0  0
   10.8227    4.4754   -1.3183 H   0  0  0  0  0  0  0  0  0  0  0  0
   10.9334    3.9395   -2.9957 H   0  0  0  0  0  0  0  0  0  0  0  0
  1  2  2  0  0  0  0
  1  6  1  0  0  0  0
  2  3  1  0  0  0  0
  3 18  1  0  0  0  0
  3  4  2  0  0  0  0
  4  9  1  0  0  0  0
  5  4  1  0  0  0  0
  5 10  1  0  0  0  0
  6  5  2  0  0  0  0
  7  1  1  0  0  0  0
  8  2  1  0  0  0  0
 11  6  1  0  0  0  0
 11 13  2  0  0  0  0
 12 11  2  0  0  0  0
 15 14  3  0  0  0  0
 16 19  1  0  0  0  0
 16 17  2  0  0  0  0
 18 16  1  0  0  0  0
 19 20  1  0  0  0  0
 19 21  1  0  0  0  0
 22 19  1  0  0  0  0
M  END
