Coordinates from ORCA-job 4-NO2-Ph-N2-OAc-B3LYPG-6-31G_dp-MTMO-d009-169-n750
 OpenBabel09051907563D

 22 21  0  0  0  0  0  0  0  0999 V2000
   15.2447    8.4225   -3.2977 C   0  0  0  0  0  0  0  0  0  0  0  0
   14.1875    7.5278   -3.2228 C   0  0  0  0  0  0  0  0  0  0  0  0
   14.3640    6.2785   -2.6110 C   0  0  0  0  0  0  0  0  0  0  0  0
   15.6019    5.9113   -2.0665 C   0  0  0  0  0  0  0  0  0  0  0  0
   16.6611    6.8135   -2.1443 C   0  0  0  0  0  0  0  0  0  0  0  0
   16.4750    8.0510   -2.7545 C   0  0  0  0  0  0  0  0  0  0  0  0
   15.1370    9.3933   -3.7639 H   0  0  0  0  0  0  0  0  0  0  0  0
   13.2144    7.7752   -3.6319 H   0  0  0  0  0  0  0  0  0  0  0  0
   15.7306    4.9473   -1.6006 H   0  0  0  0  0  0  0  0  0  0  0  0
   17.6325    6.5658   -1.7353 H   0  0  0  0  0  0  0  0  0  0  0  0
   17.6005    8.9895   -2.8297 N   0  0  0  0  0  0  0  0  0  0  0  0
   17.4007   10.0775   -3.3708 O   0  0  0  0  0  0  0  0  0  0  0  0
   18.6761    8.6337   -2.3484 O   0  0  0  0  0  0  0  0  0  0  0  0
    7.8328    4.6932    0.8146 N   0  0  0  0  0  0  0  0  0  0  0  0
    8.7126    4.6929    0.1459 N   0  0  0  0  0  0  0  0  0  0  0  0
   13.1153    4.2192   -2.1399 C   0  0  0  0  0  0  0  0  0  0  0  0
   14.0248    3.5850   -1.6657 O   0  0  0  0  0  0  0  0  0  0  0  0
   13.2134    5.5077   -2.6095 O   0  0  0  0  0  0  0  0  0  0  0  0
   11.6967    3.7393   -2.3068 C   0  0  0  0  0  0  0  0  0  0  0  0
   11.6451    2.6826   -2.0468 H   0  0  0  0  0  0  0  0  0  0  0  0
   11.0296    4.3101   -1.6534 H   0  0  0  0  0  0  0  0  0  0  0  0
   11.3608    3.8944   -3.3357 H   0  0  0  0  0  0  0  0  0  0  0  0
  1  2  2  0  0  0  0
  1  6  1  0  0  0  0
  2  3  1  0  0  0  0
  3 18  1  0  0  0  0
  3  4  2  0  0  0  0
  4  9  1  0  0  0  0
  5  4  1  0  0  0  0
  5 10  1  0  0  0  0
  6  5  2  0  0  0  0
  7  1  1  0  0  0  0
  8  2  1  0  0  0  0
 11  6  1  0  0  0  0
 11 13  2  0  0  0  0
 12 11  2  0  0  0  0
 15 14  3  0  0  0  0
 16 17  2  0  0  0  0
 18 16  1  0  0  0  0
 19 16  1  0  0  0  0
 19 20  1  0  0  0  0
 19 21  1  0  0  0  0
 22 19  1  0  0  0  0
M  END
