Coordinates from ORCA-job 4-NO2-Ph-N2-OAc-B3LYPG-6-31G_dp-MTMO-d009-169-n750
 OpenBabel09051907553D

 22 21  0  0  0  0  0  0  0  0999 V2000
   15.0436    8.1140   -3.3822 C   0  0  0  0  0  0  0  0  0  0  0  0
   13.9410    7.2855   -3.2356 C   0  0  0  0  0  0  0  0  0  0  0  0
   14.0680    6.0531   -2.5789 C   0  0  0  0  0  0  0  0  0  0  0  0
   15.3018    5.6370   -2.0607 C   0  0  0  0  0  0  0  0  0  0  0  0
   16.4069    6.4725   -2.2109 C   0  0  0  0  0  0  0  0  0  0  0  0
   16.2695    7.6937   -2.8652 C   0  0  0  0  0  0  0  0  0  0  0  0
   14.9744    9.0704   -3.8842 H   0  0  0  0  0  0  0  0  0  0  0  0
   12.9697    7.5723   -3.6226 H   0  0  0  0  0  0  0  0  0  0  0  0
   15.3931    4.6853   -1.5618 H   0  0  0  0  0  0  0  0  0  0  0  0
   17.3766    6.1852   -1.8242 H   0  0  0  0  0  0  0  0  0  0  0  0
   17.4428    8.5620   -3.0164 N   0  0  0  0  0  0  0  0  0  0  0  0
   17.2855    9.6373   -3.5956 O   0  0  0  0  0  0  0  0  0  0  0  0
   18.5128    8.1640   -2.5564 O   0  0  0  0  0  0  0  0  0  0  0  0
   11.1637    7.6590    0.6615 N   0  0  0  0  0  0  0  0  0  0  0  0
   11.1078    6.6743    0.1631 N   0  0  0  0  0  0  0  0  0  0  0  0
   12.7327    4.0723   -2.0200 C   0  0  0  0  0  0  0  0  0  0  0  0
   13.6314    3.3897   -1.5955 O   0  0  0  0  0  0  0  0  0  0  0  0
   12.8761    5.3531   -2.5014 O   0  0  0  0  0  0  0  0  0  0  0  0
   11.2825    3.6737   -2.1066 C   0  0  0  0  0  0  0  0  0  0  0  0
   11.1763    2.6375   -1.7878 H   0  0  0  0  0  0  0  0  0  0  0  0
   10.6845    4.3253   -1.4633 H   0  0  0  0  0  0  0  0  0  0  0  0
   10.9166    3.7940   -3.1301 H   0  0  0  0  0  0  0  0  0  0  0  0
  1  2  2  0  0  0  0
  1  6  1  0  0  0  0
  2  3  1  0  0  0  0
  3 18  1  0  0  0  0
  3  4  2  0  0  0  0
  4  9  1  0  0  0  0
  5  4  1  0  0  0  0
  5 10  1  0  0  0  0
  6  5  2  0  0  0  0
  7  1  1  0  0  0  0
  8  2  1  0  0  0  0
 11  6  1  0  0  0  0
 11 13  2  0  0  0  0
 12 11  2  0  0  0  0
 15 14  3  0  0  0  0
 16 17  2  0  0  0  0
 18 16  1  0  0  0  0
 19 16  1  0  0  0  0
 19 20  1  0  0  0  0
 19 21  1  0  0  0  0
 22 19  1  0  0  0  0
M  END
