Coordinates from ORCA-job 4-NO2-Ph-N2-OAc-B3LYPG-6-31G_dp-MTMO-d009-169-n750
 OpenBabel09051907563D

 22 21  0  0  0  0  0  0  0  0999 V2000
   15.8410    8.6238   -3.5414 C   0  0  0  0  0  0  0  0  0  0  0  0
   14.7979    7.7111   -3.4874 C   0  0  0  0  0  0  0  0  0  0  0  0
   14.9896    6.4574   -2.8896 C   0  0  0  0  0  0  0  0  0  0  0  0
   16.2281    6.1036   -2.3380 C   0  0  0  0  0  0  0  0  0  0  0  0
   17.2731    7.0238   -2.3947 C   0  0  0  0  0  0  0  0  0  0  0  0
   17.0722    8.2655   -2.9913 C   0  0  0  0  0  0  0  0  0  0  0  0
   15.7218    9.5984   -3.9966 H   0  0  0  0  0  0  0  0  0  0  0  0
   13.8247    7.9478   -3.9024 H   0  0  0  0  0  0  0  0  0  0  0  0
   16.3686    5.1360   -1.8830 H   0  0  0  0  0  0  0  0  0  0  0  0
   18.2446    6.7869   -1.9797 H   0  0  0  0  0  0  0  0  0  0  0  0
   18.1829    9.2232   -3.0444 N   0  0  0  0  0  0  0  0  0  0  0  0
   17.9702   10.3144   -3.5739 O   0  0  0  0  0  0  0  0  0  0  0  0
   19.2596    8.8789   -2.5574 O   0  0  0  0  0  0  0  0  0  0  0  0
    1.5577    2.7501    3.5271 N   0  0  0  0  0  0  0  0  0  0  0  0
    2.4997    2.9763    2.9950 N   0  0  0  0  0  0  0  0  0  0  0  0
   13.7725    4.3706   -2.4602 C   0  0  0  0  0  0  0  0  0  0  0  0
   14.6887    3.7423   -1.9914 O   0  0  0  0  0  0  0  0  0  0  0  0
   13.8517    5.6679   -2.9073 O   0  0  0  0  0  0  0  0  0  0  0  0
   12.3640    3.8695   -2.6521 C   0  0  0  0  0  0  0  0  0  0  0  0
   12.2999    2.8394   -2.3042 H   0  0  0  0  0  0  0  0  0  0  0  0
   11.6636    4.4971   -2.0938 H   0  0  0  0  0  0  0  0  0  0  0  0
   12.0850    3.9275   -3.7082 H   0  0  0  0  0  0  0  0  0  0  0  0
  1  2  2  0  0  0  0
  1  6  1  0  0  0  0
  2  3  1  0  0  0  0
  3  4  2  0  0  0  0
  4  9  1  0  0  0  0
  5  4  1  0  0  0  0
  5 10  1  0  0  0  0
  6  5  2  0  0  0  0
  7  1  1  0  0  0  0
  8  2  1  0  0  0  0
 11  6  1  0  0  0  0
 11 13  2  0  0  0  0
 12 11  2  0  0  0  0
 15 14  3  0  0  0  0
 16 17  2  0  0  0  0
 18  3  1  0  0  0  0
 18 16  1  0  0  0  0
 19 16  1  0  0  0  0
 19 20  1  0  0  0  0
 19 21  1  0  0  0  0
 22 19  1  0  0  0  0
M  END
