Coordinates from ORCA-job 4-NO2-Ph-N2-OAc-B3LYPG-6-31G_dp-MTMO-d009-169-n750
 OpenBabel09051907553D

 22 22  0  0  0  0  0  0  0  0999 V2000
   15.1087    8.5626   -3.0662 C   0  0  0  0  0  0  0  0  0  0  0  0
   13.9256    8.4322   -2.3386 C   0  0  0  0  0  0  0  0  0  0  0  0
   13.7858    7.3108   -1.5383 C   0  0  0  0  0  0  0  0  0  0  0  0
   14.7561    6.3347   -1.3683 C   0  0  0  0  0  0  0  0  0  0  0  0
   15.9406    6.4778   -2.0897 C   0  0  0  0  0  0  0  0  0  0  0  0
   16.0916    7.5839   -2.9263 C   0  0  0  0  0  0  0  0  0  0  0  0
   15.2838    9.4048   -3.7237 H   0  0  0  0  0  0  0  0  0  0  0  0
   13.1405    9.1774   -2.3997 H   0  0  0  0  0  0  0  0  0  0  0  0
   14.5860    5.4889   -0.7106 H   0  0  0  0  0  0  0  0  0  0  0  0
   16.7417    5.7526   -2.0148 H   0  0  0  0  0  0  0  0  0  0  0  0
   17.3460    7.7292   -3.6880 N   0  0  0  0  0  0  0  0  0  0  0  0
   17.4559    8.7130   -4.4172 O   0  0  0  0  0  0  0  0  0  0  0  0
   18.2010    6.8577   -3.5452 O   0  0  0  0  0  0  0  0  0  0  0  0
   12.4250    7.2391   -0.5746 N   0  0  0  0  0  0  0  0  0  0  0  0
   11.6309    6.3521   -0.6698 N   0  0  0  0  0  0  0  0  0  0  0  0
   12.1696    4.1434   -1.5040 C   0  0  0  0  0  0  0  0  0  0  0  0
   12.5971    3.8763   -0.4013 O   0  0  0  0  0  0  0  0  0  0  0  0
   11.8599    5.3988   -1.9045 O   0  0  0  0  0  0  0  0  0  0  0  0
   11.9316    3.1499   -2.6199 C   0  0  0  0  0  0  0  0  0  0  0  0
   10.8556    2.9795   -2.7253 H   0  0  0  0  0  0  0  0  0  0  0  0
   12.2992    3.5371   -3.5733 H   0  0  0  0  0  0  0  0  0  0  0  0
   12.4250    2.2095   -2.3752 H   0  0  0  0  0  0  0  0  0  0  0  0
  1  6  2  0  0  0  0
  1  2  1  0  0  0  0
  2  3  2  0  0  0  0
  3  4  1  0  0  0  0
  3 14  1  0  0  0  0
  4  9  1  0  0  0  0
  5 10  1  0  0  0  0
  5  4  2  0  0  0  0
  6  5  1  0  0  0  0
  7  1  1  0  0  0  0
  8  2  1  0  0  0  0
 11 13  2  0  0  0  0
 11  6  1  0  0  0  0
 12 11  2  0  0  0  0
 15 14  1  0  0  0  0
 16 17  2  0  0  0  0
 18 16  1  0  0  0  0
 18 15  1  0  0  0  0
 19 22  1  0  0  0  0
 19 16  1  0  0  0  0
 20 19  1  0  0  0  0
 21 19  1  0  0  0  0
M  RAD  2  14   2  15   2
M  END
