Coordinates from ORCA-job 4-NO2-Ph-N2-OAc-B3LYPG-6-31G_dp-MTMO-d009-169-n750
 OpenBabel09051907563D

 22 21  0  0  0  0  0  0  0  0999 V2000
   15.3190    8.4447   -3.3304 C   0  0  0  0  0  0  0  0  0  0  0  0
   14.2416    7.5783   -3.2195 C   0  0  0  0  0  0  0  0  0  0  0  0
   14.4014    6.3317   -2.5977 C   0  0  0  0  0  0  0  0  0  0  0  0
   15.6425    5.9388   -2.0792 C   0  0  0  0  0  0  0  0  0  0  0  0
   16.7221    6.8126   -2.1932 C   0  0  0  0  0  0  0  0  0  0  0  0
   16.5525    8.0477   -2.8129 C   0  0  0  0  0  0  0  0  0  0  0  0
   15.2245    9.4127   -3.8049 H   0  0  0  0  0  0  0  0  0  0  0  0
   13.2654    7.8460   -3.6078 H   0  0  0  0  0  0  0  0  0  0  0  0
   15.7581    4.9770   -1.6053 H   0  0  0  0  0  0  0  0  0  0  0  0
   17.6966    6.5445   -1.8049 H   0  0  0  0  0  0  0  0  0  0  0  0
   17.6993    8.9562   -2.9263 N   0  0  0  0  0  0  0  0  0  0  0  0
   17.5140   10.0427   -3.4755 O   0  0  0  0  0  0  0  0  0  0  0  0
   18.7769    8.5784   -2.4668 O   0  0  0  0  0  0  0  0  0  0  0  0
    7.3927    4.1385    0.7145 N   0  0  0  0  0  0  0  0  0  0  0  0
    8.3366    4.3569    0.1826 N   0  0  0  0  0  0  0  0  0  0  0  0
   13.1127    4.3105   -2.0723 C   0  0  0  0  0  0  0  0  0  0  0  0
   14.0165    3.6592   -1.6107 O   0  0  0  0  0  0  0  0  0  0  0  0
   13.2319    5.5905   -2.5595 O   0  0  0  0  0  0  0  0  0  0  0  0
   11.6795    3.8629   -2.2036 C   0  0  0  0  0  0  0  0  0  0  0  0
   11.6076    2.8119   -1.9259 H   0  0  0  0  0  0  0  0  0  0  0  0
   11.0385    4.4595   -1.5471 H   0  0  0  0  0  0  0  0  0  0  0  0
   11.3273    4.0100   -3.2282 H   0  0  0  0  0  0  0  0  0  0  0  0
  1  2  2  0  0  0  0
  1  6  1  0  0  0  0
  2  3  1  0  0  0  0
  3 18  1  0  0  0  0
  3  4  2  0  0  0  0
  4  9  1  0  0  0  0
  5  4  1  0  0  0  0
  5 10  1  0  0  0  0
  6  5  2  0  0  0  0
  7  1  1  0  0  0  0
  8  2  1  0  0  0  0
 11  6  1  0  0  0  0
 11 13  2  0  0  0  0
 12 11  2  0  0  0  0
 15 14  3  0  0  0  0
 16 17  2  0  0  0  0
 18 16  1  0  0  0  0
 19 16  1  0  0  0  0
 19 20  1  0  0  0  0
 19 21  1  0  0  0  0
 22 19  1  0  0  0  0
M  END
