Coordinates from ORCA-job 4-NO2-Ph-N2-OAc-B3LYPG-6-31G_dp-MTMO-d009-169-n750
 OpenBabel09051907563D

 22 21  0  0  0  0  0  0  0  0999 V2000
   15.4161    8.4855   -3.3581 C   0  0  0  0  0  0  0  0  0  0  0  0
   14.3325    7.6298   -3.2250 C   0  0  0  0  0  0  0  0  0  0  0  0
   14.4941    6.3790   -2.6125 C   0  0  0  0  0  0  0  0  0  0  0  0
   15.7431    5.9708   -2.1256 C   0  0  0  0  0  0  0  0  0  0  0  0
   16.8287    6.8339   -2.2616 C   0  0  0  0  0  0  0  0  0  0  0  0
   16.6572    8.0734   -2.8718 C   0  0  0  0  0  0  0  0  0  0  0  0
   15.3203    9.4566   -3.8261 H   0  0  0  0  0  0  0  0  0  0  0  0
   13.3502    7.9096   -3.5885 H   0  0  0  0  0  0  0  0  0  0  0  0
   15.8603    5.0054   -1.6595 H   0  0  0  0  0  0  0  0  0  0  0  0
   17.8093    6.5540   -1.8977 H   0  0  0  0  0  0  0  0  0  0  0  0
   17.8105    8.9708   -3.0082 N   0  0  0  0  0  0  0  0  0  0  0  0
   17.6236   10.0614   -3.5485 O   0  0  0  0  0  0  0  0  0  0  0  0
   18.8943    8.5800   -2.5752 O   0  0  0  0  0  0  0  0  0  0  0  0
    6.4415    3.6876    0.9556 N   0  0  0  0  0  0  0  0  0  0  0  0
    7.3849    3.9428    0.4393 N   0  0  0  0  0  0  0  0  0  0  0  0
   13.2004    4.3645   -2.0760 C   0  0  0  0  0  0  0  0  0  0  0  0
   14.1120    3.6931   -1.6609 O   0  0  0  0  0  0  0  0  0  0  0  0
   13.3178    5.6510   -2.5455 O   0  0  0  0  0  0  0  0  0  0  0  0
   11.7575    3.9379   -2.1647 C   0  0  0  0  0  0  0  0  0  0  0  0
   11.6671    2.9080   -1.8219 H   0  0  0  0  0  0  0  0  0  0  0  0
   11.1345    4.5918   -1.5474 H   0  0  0  0  0  0  0  0  0  0  0  0
   11.4014    4.0244   -3.1952 H   0  0  0  0  0  0  0  0  0  0  0  0
  1  2  2  0  0  0  0
  1  6  1  0  0  0  0
  2  3  1  0  0  0  0
  3 18  1  0  0  0  0
  3  4  2  0  0  0  0
  4  9  1  0  0  0  0
  5  4  1  0  0  0  0
  5 10  1  0  0  0  0
  6  5  2  0  0  0  0
  7  1  1  0  0  0  0
  8  2  1  0  0  0  0
 11  6  1  0  0  0  0
 11 13  2  0  0  0  0
 12 11  2  0  0  0  0
 15 14  3  0  0  0  0
 16 17  2  0  0  0  0
 18 16  1  0  0  0  0
 19 16  1  0  0  0  0
 19 20  1  0  0  0  0
 19 21  1  0  0  0  0
 22 19  1  0  0  0  0
M  END
