Coordinates from ORCA-job 4-NO2-Ph-N2-OAc-B3LYPG-6-31G_dp-MTMO-d009-169-n750
 OpenBabel09051907563D

 22 21  0  0  0  0  0  0  0  0999 V2000
   15.8959    8.6397   -3.5662 C   0  0  0  0  0  0  0  0  0  0  0  0
   14.8537    7.7260   -3.5133 C   0  0  0  0  0  0  0  0  0  0  0  0
   15.0462    6.4722   -2.9159 C   0  0  0  0  0  0  0  0  0  0  0  0
   16.2848    6.1194   -2.3638 C   0  0  0  0  0  0  0  0  0  0  0  0
   17.3289    7.0407   -2.4194 C   0  0  0  0  0  0  0  0  0  0  0  0
   17.1271    8.2825   -3.0155 C   0  0  0  0  0  0  0  0  0  0  0  0
   15.7759    9.6145   -4.0210 H   0  0  0  0  0  0  0  0  0  0  0  0
   13.8804    7.9619   -3.9287 H   0  0  0  0  0  0  0  0  0  0  0  0
   16.4261    5.1517   -1.9092 H   0  0  0  0  0  0  0  0  0  0  0  0
   18.3004    6.8045   -2.0040 H   0  0  0  0  0  0  0  0  0  0  0  0
   18.2369    9.2413   -3.0675 N   0  0  0  0  0  0  0  0  0  0  0  0
   18.0234   10.3326   -3.5967 O   0  0  0  0  0  0  0  0  0  0  0  0
   19.3137    8.8979   -2.5801 O   0  0  0  0  0  0  0  0  0  0  0  0
    0.9921    2.5996    3.7880 N   0  0  0  0  0  0  0  0  0  0  0  0
    1.9347    2.8241    3.2563 N   0  0  0  0  0  0  0  0  0  0  0  0
   13.8312    4.3837   -2.4889 C   0  0  0  0  0  0  0  0  0  0  0  0
   14.7481    3.7557   -2.0211 O   0  0  0  0  0  0  0  0  0  0  0  0
   13.9092    5.6816   -2.9345 O   0  0  0  0  0  0  0  0  0  0  0  0
   12.4230    3.8816   -2.6810 C   0  0  0  0  0  0  0  0  0  0  0  0
   12.3599    2.8508   -2.3350 H   0  0  0  0  0  0  0  0  0  0  0  0
   11.7228    4.5076   -2.1206 H   0  0  0  0  0  0  0  0  0  0  0  0
   12.1429    3.9416   -3.7366 H   0  0  0  0  0  0  0  0  0  0  0  0
  1  2  2  0  0  0  0
  1  6  1  0  0  0  0
  2  3  1  0  0  0  0
  3  4  2  0  0  0  0
  4  9  1  0  0  0  0
  5  4  1  0  0  0  0
  5 10  1  0  0  0  0
  6  5  2  0  0  0  0
  7  1  1  0  0  0  0
  8  2  1  0  0  0  0
 11  6  1  0  0  0  0
 11 13  2  0  0  0  0
 12 11  2  0  0  0  0
 15 14  3  0  0  0  0
 16 17  2  0  0  0  0
 18  3  1  0  0  0  0
 18 16  1  0  0  0  0
 19 16  1  0  0  0  0
 19 20  1  0  0  0  0
 19 21  1  0  0  0  0
 22 19  1  0  0  0  0
M  END
