Coordinates from ORCA-job 4-NO2-Ph-N2-OAc-B3LYPG-6-31G_dp-MTMO-d009-169-n750
 OpenBabel09051907563D

 22 21  0  0  0  0  0  0  0  0999 V2000
   15.6404    8.5642   -3.4521 C   0  0  0  0  0  0  0  0  0  0  0  0
   14.5950    7.6542   -3.3981 C   0  0  0  0  0  0  0  0  0  0  0  0
   14.7821    6.4016   -2.7964 C   0  0  0  0  0  0  0  0  0  0  0  0
   16.0185    6.0463   -2.2410 C   0  0  0  0  0  0  0  0  0  0  0  0
   17.0658    6.9638   -2.2978 C   0  0  0  0  0  0  0  0  0  0  0  0
   16.8694    8.2044   -2.8981 C   0  0  0  0  0  0  0  0  0  0  0  0
   15.5246    9.5378   -3.9102 H   0  0  0  0  0  0  0  0  0  0  0  0
   13.6233    7.8921   -3.8161 H   0  0  0  0  0  0  0  0  0  0  0  0
   16.1554    5.0797   -1.7827 H   0  0  0  0  0  0  0  0  0  0  0  0
   18.0359    6.7256   -1.8799 H   0  0  0  0  0  0  0  0  0  0  0  0
   17.9826    9.1592   -2.9514 N   0  0  0  0  0  0  0  0  0  0  0  0
   17.7737   10.2494   -3.4844 O   0  0  0  0  0  0  0  0  0  0  0  0
   19.0574    8.8135   -2.4611 O   0  0  0  0  0  0  0  0  0  0  0  0
    3.6377    3.3086    2.5837 N   0  0  0  0  0  0  0  0  0  0  0  0
    4.5758    3.5367    2.0456 N   0  0  0  0  0  0  0  0  0  0  0  0
   13.5569    4.3214   -2.3579 C   0  0  0  0  0  0  0  0  0  0  0  0
   14.4677    3.6953   -1.8759 O   0  0  0  0  0  0  0  0  0  0  0  0
   13.6427    5.6144   -2.8159 O   0  0  0  0  0  0  0  0  0  0  0  0
   12.1489    3.8216   -2.5573 C   0  0  0  0  0  0  0  0  0  0  0  0
   12.0788    2.7955   -2.1990 H   0  0  0  0  0  0  0  0  0  0  0  0
   11.4451    4.4570   -2.0122 H   0  0  0  0  0  0  0  0  0  0  0  0
   11.8796    3.8689   -3.6164 H   0  0  0  0  0  0  0  0  0  0  0  0
  1  2  2  0  0  0  0
  1  6  1  0  0  0  0
  2  3  1  0  0  0  0
  3  4  2  0  0  0  0
  4  9  1  0  0  0  0
  5  4  1  0  0  0  0
  5 10  1  0  0  0  0
  6  5  2  0  0  0  0
  7  1  1  0  0  0  0
  8  2  1  0  0  0  0
 11  6  1  0  0  0  0
 11 13  2  0  0  0  0
 12 11  2  0  0  0  0
 15 14  3  0  0  0  0
 16 17  2  0  0  0  0
 18  3  1  0  0  0  0
 18 16  1  0  0  0  0
 19 16  1  0  0  0  0
 19 20  1  0  0  0  0
 19 21  1  0  0  0  0
 22 19  1  0  0  0  0
M  END
