Coordinates from ORCA-job 4-NO2-Ph-N2-OAc-B3LYPG-6-31G_dp-MTMO-d009-169-n750
 OpenBabel09051907553D

 22 20  0  0  0  0  0  0  0  0999 V2000
   15.6216    9.0714   -2.6722 C   0  0  0  0  0  0  0  0  0  0  0  0
   14.2962    9.0148   -2.2036 C   0  0  0  0  0  0  0  0  0  0  0  0
   13.9732    7.6979   -2.0014 C   0  0  0  0  0  0  0  0  0  0  0  0
   14.5603    6.5917   -2.1321 C   0  0  0  0  0  0  0  0  0  0  0  0
   15.8822    6.5972   -2.5929 C   0  0  0  0  0  0  0  0  0  0  0  0
   16.3703    7.8925   -2.8529 C   0  0  0  0  0  0  0  0  0  0  0  0
   16.0847   10.0235   -2.9016 H   0  0  0  0  0  0  0  0  0  0  0  0
   13.6729    9.8850   -2.0443 H   0  0  0  0  0  0  0  0  0  0  0  0
   13.6802    4.7383   -1.7821 H   0  0  0  0  0  0  0  0  0  0  0  0
   16.5071    5.7271   -2.7513 H   0  0  0  0  0  0  0  0  0  0  0  0
   17.7550    8.0250   -3.3462 N   0  0  0  0  0  0  0  0  0  0  0  0
   18.1791    9.1578   -3.5699 O   0  0  0  0  0  0  0  0  0  0  0  0
   18.4000    6.9904   -3.5026 O   0  0  0  0  0  0  0  0  0  0  0  0
   11.6650    7.8186   -1.1611 N   0  0  0  0  0  0  0  0  0  0  0  0
   10.8583    7.1748   -0.7648 N   0  0  0  0  0  0  0  0  0  0  0  0
   12.1052    3.7170   -2.0211 C   0  0  0  0  0  0  0  0  0  0  0  0
   13.4168    3.7932   -1.7154 O   0  0  0  0  0  0  0  0  0  0  0  0
   11.4280    4.6874   -2.2911 O   0  0  0  0  0  0  0  0  0  0  0  0
   11.6088    2.2918   -1.9781 C   0  0  0  0  0  0  0  0  0  0  0  0
   11.7600    1.8755   -0.9773 H   0  0  0  0  0  0  0  0  0  0  0  0
   10.5509    2.2658   -2.2366 H   0  0  0  0  0  0  0  0  0  0  0  0
   12.1816    1.6744   -2.6760 H   0  0  0  0  0  0  0  0  0  0  0  0
  1  2  1  0  0  0  0
  2  8  1  0  0  0  0
  2  3  2  0  0  0  0
  4  3  1  0  0  0  0
  5  4  2  0  0  0  0
  6  1  2  0  0  0  0
  6  5  1  0  0  0  0
  7  1  1  0  0  0  0
  9 17  1  0  0  0  0
 10  5  1  0  0  0  0
 11  6  1  0  0  0  0
 12 11  2  0  0  0  0
 13 11  2  0  0  0  0
 14 15  3  0  0  0  0
 16 19  1  0  0  0  0
 16 17  1  0  0  0  0
 18 16  2  0  0  0  0
 19 20  1  0  0  0  0
 21 19  1  0  0  0  0
 22 19  1  0  0  0  0
M  RAD  2   3   2   4   2
M  END
