Coordinates from ORCA-job 4-NO2-Ph-N2-OAc-B3LYPG-6-31G_dp-MTMO-d009-169-n750
 OpenBabel09051907563D

 22 21  0  0  0  0  0  0  0  0999 V2000
   15.7528    8.5979   -3.5018 C   0  0  0  0  0  0  0  0  0  0  0  0
   14.7087    7.6865   -3.4471 C   0  0  0  0  0  0  0  0  0  0  0  0
   14.8987    6.4331   -2.8481 C   0  0  0  0  0  0  0  0  0  0  0  0
   16.1368    6.0784   -2.2959 C   0  0  0  0  0  0  0  0  0  0  0  0
   17.1828    6.9974   -2.3533 C   0  0  0  0  0  0  0  0  0  0  0  0
   16.9834    8.2388   -2.9511 C   0  0  0  0  0  0  0  0  0  0  0  0
   15.6347    9.5723   -3.9579 H   0  0  0  0  0  0  0  0  0  0  0  0
   13.7358    7.9239   -3.8625 H   0  0  0  0  0  0  0  0  0  0  0  0
   16.2761    5.1112   -1.8398 H   0  0  0  0  0  0  0  0  0  0  0  0
   18.1540    6.7598   -1.9379 H   0  0  0  0  0  0  0  0  0  0  0  0
   18.0953    9.1951   -3.0049 N   0  0  0  0  0  0  0  0  0  0  0  0
   17.8839   10.2861   -3.5356 O   0  0  0  0  0  0  0  0  0  0  0  0
   19.1716    8.8500   -2.5176 O   0  0  0  0  0  0  0  0  0  0  0  0
    2.4669    2.9945    3.1105 N   0  0  0  0  0  0  0  0  0  0  0  0
    3.4082    3.2203    2.5769 N   0  0  0  0  0  0  0  0  0  0  0  0
   13.6786    4.3489   -2.4152 C   0  0  0  0  0  0  0  0  0  0  0  0
   14.5932    3.7207   -1.9431 O   0  0  0  0  0  0  0  0  0  0  0  0
   13.7601    5.6449   -2.8656 O   0  0  0  0  0  0  0  0  0  0  0  0
   12.2699    3.8488   -2.6084 C   0  0  0  0  0  0  0  0  0  0  0  0
   12.2040    2.8197   -2.2579 H   0  0  0  0  0  0  0  0  0  0  0  0
   11.5690    4.4786   -2.0532 H   0  0  0  0  0  0  0  0  0  0  0  0
   11.9929    3.9042   -3.6652 H   0  0  0  0  0  0  0  0  0  0  0  0
  1  2  2  0  0  0  0
  1  6  1  0  0  0  0
  2  3  1  0  0  0  0
  3  4  2  0  0  0  0
  4  9  1  0  0  0  0
  5  4  1  0  0  0  0
  5 10  1  0  0  0  0
  6  5  2  0  0  0  0
  7  1  1  0  0  0  0
  8  2  1  0  0  0  0
 11  6  1  0  0  0  0
 11 13  2  0  0  0  0
 12 11  2  0  0  0  0
 15 14  3  0  0  0  0
 16 17  2  0  0  0  0
 18  3  1  0  0  0  0
 18 16  1  0  0  0  0
 19 16  1  0  0  0  0
 19 20  1  0  0  0  0
 19 21  1  0  0  0  0
 22 19  1  0  0  0  0
M  END
