Coordinates from ORCA-job 4-NO2-Ph-N2-OAc-B3LYPG-6-31G_dp-MTMO-d009-169-n750
 OpenBabel09051907563D

 22 21  0  0  0  0  0  0  0  0999 V2000
   15.5740    8.5434   -3.4233 C   0  0  0  0  0  0  0  0  0  0  0  0
   14.5273    7.6348   -3.3698 C   0  0  0  0  0  0  0  0  0  0  0  0
   14.7118    6.3830   -2.7657 C   0  0  0  0  0  0  0  0  0  0  0  0
   15.9467    6.0270   -2.2074 C   0  0  0  0  0  0  0  0  0  0  0  0
   16.9952    6.9432   -2.2637 C   0  0  0  0  0  0  0  0  0  0  0  0
   16.8015    8.1831   -2.8664 C   0  0  0  0  0  0  0  0  0  0  0  0
   15.4602    9.5165   -3.8831 H   0  0  0  0  0  0  0  0  0  0  0  0
   13.5567    7.8732   -3.7901 H   0  0  0  0  0  0  0  0  0  0  0  0
   16.0814    5.0612   -1.7470 H   0  0  0  0  0  0  0  0  0  0  0  0
   17.9642    6.7045   -1.8436 H   0  0  0  0  0  0  0  0  0  0  0  0
   17.9160    9.1364   -2.9191 N   0  0  0  0  0  0  0  0  0  0  0  0
   17.7094   10.2260   -3.4544 O   0  0  0  0  0  0  0  0  0  0  0  0
   18.9894    8.7902   -2.4264 O   0  0  0  0  0  0  0  0  0  0  0  0
    4.3479    3.4953    2.2726 N   0  0  0  0  0  0  0  0  0  0  0  0
    5.2783    3.7220    1.7207 N   0  0  0  0  0  0  0  0  0  0  0  0
   13.4815    4.3068   -2.3217 C   0  0  0  0  0  0  0  0  0  0  0  0
   14.3886    3.6828   -1.8299 O   0  0  0  0  0  0  0  0  0  0  0  0
   13.5717    5.5969   -2.7871 O   0  0  0  0  0  0  0  0  0  0  0  0
   12.0744    3.8072   -2.5271 C   0  0  0  0  0  0  0  0  0  0  0  0
   12.0007    2.7840   -2.1613 H   0  0  0  0  0  0  0  0  0  0  0  0
   11.3670    4.4475   -1.9925 H   0  0  0  0  0  0  0  0  0  0  0  0
   11.8133    3.8462   -3.5886 H   0  0  0  0  0  0  0  0  0  0  0  0
  1  2  2  0  0  0  0
  1  6  1  0  0  0  0
  2  3  1  0  0  0  0
  3  4  2  0  0  0  0
  4  9  1  0  0  0  0
  5  4  1  0  0  0  0
  5 10  1  0  0  0  0
  6  5  2  0  0  0  0
  7  1  1  0  0  0  0
  8  2  1  0  0  0  0
 11  6  1  0  0  0  0
 11 13  2  0  0  0  0
 12 11  2  0  0  0  0
 15 14  3  0  0  0  0
 16 17  2  0  0  0  0
 18  3  1  0  0  0  0
 18 16  1  0  0  0  0
 19 16  1  0  0  0  0
 19 20  1  0  0  0  0
 19 21  1  0  0  0  0
 22 19  1  0  0  0  0
M  END
