Coordinates from ORCA-job 4-NO2-Ph-N2-OAc-B3LYPG-6-31G_dp-MTMO-d009-169-n750
 OpenBabel09051907563D

 22 21  0  0  0  0  0  0  0  0999 V2000
   15.5153    8.5240   -3.3938 C   0  0  0  0  0  0  0  0  0  0  0  0
   14.4393    7.6576   -3.2690 C   0  0  0  0  0  0  0  0  0  0  0  0
   14.6107    6.4049   -2.6631 C   0  0  0  0  0  0  0  0  0  0  0  0
   15.8619    6.0056   -2.1745 C   0  0  0  0  0  0  0  0  0  0  0  0
   16.9398    6.8795   -2.3021 C   0  0  0  0  0  0  0  0  0  0  0  0
   16.7587    8.1208   -2.9059 C   0  0  0  0  0  0  0  0  0  0  0  0
   15.4120    9.4968   -3.8567 H   0  0  0  0  0  0  0  0  0  0  0  0
   13.4555    7.9304   -3.6338 H   0  0  0  0  0  0  0  0  0  0  0  0
   15.9868    5.0386   -1.7139 H   0  0  0  0  0  0  0  0  0  0  0  0
   17.9218    6.6067   -1.9367 H   0  0  0  0  0  0  0  0  0  0  0  0
   17.9040    9.0295   -3.0336 N   0  0  0  0  0  0  0  0  0  0  0  0
   17.7087   10.1215   -3.5683 O   0  0  0  0  0  0  0  0  0  0  0  0
   18.9901    8.6463   -2.5995 O   0  0  0  0  0  0  0  0  0  0  0  0
    5.2778    3.4219    1.4876 N   0  0  0  0  0  0  0  0  0  0  0  0
    6.2145    3.6565    0.9499 N   0  0  0  0  0  0  0  0  0  0  0  0
   13.3373    4.3708   -2.1539 C   0  0  0  0  0  0  0  0  0  0  0  0
   14.2568    3.7005   -1.7554 O   0  0  0  0  0  0  0  0  0  0  0  0
   13.4408    5.6662   -2.6018 O   0  0  0  0  0  0  0  0  0  0  0  0
   11.8979    3.9329   -2.2440 C   0  0  0  0  0  0  0  0  0  0  0  0
   11.8143    2.9038   -1.8970 H   0  0  0  0  0  0  0  0  0  0  0  0
   11.2680    4.5858   -1.6330 H   0  0  0  0  0  0  0  0  0  0  0  0
   11.5450    4.0108   -3.2764 H   0  0  0  0  0  0  0  0  0  0  0  0
  1  2  2  0  0  0  0
  1  6  1  0  0  0  0
  2  3  1  0  0  0  0
  3 18  1  0  0  0  0
  3  4  2  0  0  0  0
  4  9  1  0  0  0  0
  5  4  1  0  0  0  0
  5 10  1  0  0  0  0
  6  5  2  0  0  0  0
  7  1  1  0  0  0  0
  8  2  1  0  0  0  0
 11  6  1  0  0  0  0
 11 13  2  0  0  0  0
 12 11  2  0  0  0  0
 15 14  3  0  0  0  0
 16 17  2  0  0  0  0
 18 16  1  0  0  0  0
 19 16  1  0  0  0  0
 19 20  1  0  0  0  0
 19 21  1  0  0  0  0
 22 19  1  0  0  0  0
M  END
