Coordinates from ORCA-job 4-NO2-Ph-N2-OAc-B3LYPG-6-31G_dp-MTMO-d009-169-n750
 OpenBabel09051907563D

 22 21  0  0  0  0  0  0  0  0999 V2000
   15.5032    8.5196   -3.3890 C   0  0  0  0  0  0  0  0  0  0  0  0
   14.4263    7.6545   -3.2628 C   0  0  0  0  0  0  0  0  0  0  0  0
   14.5968    6.4019   -2.6564 C   0  0  0  0  0  0  0  0  0  0  0  0
   15.8479    6.0015   -2.1686 C   0  0  0  0  0  0  0  0  0  0  0  0
   16.9267    6.8740   -2.2977 C   0  0  0  0  0  0  0  0  0  0  0  0
   16.7465    8.1152   -2.9020 C   0  0  0  0  0  0  0  0  0  0  0  0
   15.4007    9.4923   -3.8523 H   0  0  0  0  0  0  0  0  0  0  0  0
   13.4425    7.9282   -3.6271 H   0  0  0  0  0  0  0  0  0  0  0  0
   15.9721    5.0345   -1.7077 H   0  0  0  0  0  0  0  0  0  0  0  0
   17.9087    6.6003   -1.9329 H   0  0  0  0  0  0  0  0  0  0  0  0
   17.8928    9.0225   -3.0311 N   0  0  0  0  0  0  0  0  0  0  0  0
   17.6983   10.1144   -3.5662 O   0  0  0  0  0  0  0  0  0  0  0  0
   18.9788    8.6383   -2.5978 O   0  0  0  0  0  0  0  0  0  0  0  0
    5.4161    3.4549    1.4243 N   0  0  0  0  0  0  0  0  0  0  0  0
    6.3528    3.6905    0.8870 N   0  0  0  0  0  0  0  0  0  0  0  0
   13.3213    4.3698   -2.1446 C   0  0  0  0  0  0  0  0  0  0  0  0
   14.2403    3.6989   -1.7455 O   0  0  0  0  0  0  0  0  0  0  0  0
   13.4261    5.6646   -2.5940 O   0  0  0  0  0  0  0  0  0  0  0  0
   11.8815    3.9331   -2.2341 C   0  0  0  0  0  0  0  0  0  0  0  0
   11.7970    2.9043   -1.8865 H   0  0  0  0  0  0  0  0  0  0  0  0
   11.2524    4.5870   -1.6233 H   0  0  0  0  0  0  0  0  0  0  0  0
   11.5284    4.0108   -3.2665 H   0  0  0  0  0  0  0  0  0  0  0  0
  1  2  2  0  0  0  0
  1  6  1  0  0  0  0
  2  3  1  0  0  0  0
  3 18  1  0  0  0  0
  3  4  2  0  0  0  0
  4  9  1  0  0  0  0
  5  4  1  0  0  0  0
  5 10  1  0  0  0  0
  6  5  2  0  0  0  0
  7  1  1  0  0  0  0
  8  2  1  0  0  0  0
 11  6  1  0  0  0  0
 11 13  2  0  0  0  0
 12 11  2  0  0  0  0
 15 14  3  0  0  0  0
 16 17  2  0  0  0  0
 18 16  1  0  0  0  0
 19 16  1  0  0  0  0
 19 20  1  0  0  0  0
 19 21  1  0  0  0  0
 22 19  1  0  0  0  0
M  END
