Coordinates from ORCA-job 4-NO2-Ph-N2-OAc-B3LYPG-6-31G_dp-MTMO-d009-169-n750
 OpenBabel09051907563D

 22 21  0  0  0  0  0  0  0  0999 V2000
   15.2243    8.1391   -3.4431 C   0  0  0  0  0  0  0  0  0  0  0  0
   14.0993    7.3547   -3.2359 C   0  0  0  0  0  0  0  0  0  0  0  0
   14.2168    6.1064   -2.6082 C   0  0  0  0  0  0  0  0  0  0  0  0
   15.4631    5.6300   -2.1797 C   0  0  0  0  0  0  0  0  0  0  0  0
   16.5905    6.4216   -2.3899 C   0  0  0  0  0  0  0  0  0  0  0  0
   16.4625    7.6591   -3.0147 C   0  0  0  0  0  0  0  0  0  0  0  0
   15.1630    9.1065   -3.9245 H   0  0  0  0  0  0  0  0  0  0  0  0
   13.1177    7.6890   -3.5524 H   0  0  0  0  0  0  0  0  0  0  0  0
   15.5465    4.6662   -1.7033 H   0  0  0  0  0  0  0  0  0  0  0  0
   17.5703    6.0876   -2.0725 H   0  0  0  0  0  0  0  0  0  0  0  0
   17.6590    8.4811   -3.2292 N   0  0  0  0  0  0  0  0  0  0  0  0
   17.5102    9.5716   -3.7818 O   0  0  0  0  0  0  0  0  0  0  0  0
   18.7386    8.0321   -2.8446 O   0  0  0  0  0  0  0  0  0  0  0  0
    9.4315    7.1623    1.2211 N   0  0  0  0  0  0  0  0  0  0  0  0
    9.8027    6.3722    0.5436 N   0  0  0  0  0  0  0  0  0  0  0  0
   12.8380    4.1736   -1.9909 C   0  0  0  0  0  0  0  0  0  0  0  0
   13.7337    3.4412   -1.6514 O   0  0  0  0  0  0  0  0  0  0  0  0
   13.0037    5.4559   -2.4598 O   0  0  0  0  0  0  0  0  0  0  0  0
   11.3680    3.8445   -1.9684 C   0  0  0  0  0  0  0  0  0  0  0  0
   11.2382    2.8099   -1.6528 H   0  0  0  0  0  0  0  0  0  0  0  0
   10.8479    4.5135   -1.2764 H   0  0  0  0  0  0  0  0  0  0  0  0
   10.9314    3.9933   -2.9601 H   0  0  0  0  0  0  0  0  0  0  0  0
  1  2  2  0  0  0  0
  1  6  1  0  0  0  0
  2  3  1  0  0  0  0
  3 18  1  0  0  0  0
  3  4  2  0  0  0  0
  4  9  1  0  0  0  0
  5  4  1  0  0  0  0
  5 10  1  0  0  0  0
  6  5  2  0  0  0  0
  7  1  1  0  0  0  0
  8  2  1  0  0  0  0
 11  6  1  0  0  0  0
 11 13  2  0  0  0  0
 12 11  2  0  0  0  0
 15 14  3  0  0  0  0
 16 19  1  0  0  0  0
 16 17  2  0  0  0  0
 18 16  1  0  0  0  0
 19 20  1  0  0  0  0
 19 21  1  0  0  0  0
 22 19  1  0  0  0  0
M  END
