Coordinates from ORCA-job 4-NO2-Ph-N2-OAc-B3LYPG-6-31G_dp-MTMO-d009-169-n750
 OpenBabel09051907563D

 22 21  0  0  0  0  0  0  0  0999 V2000
   15.6327    8.5617   -3.4487 C   0  0  0  0  0  0  0  0  0  0  0  0
   14.5868    7.6522   -3.3942 C   0  0  0  0  0  0  0  0  0  0  0  0
   14.7735    6.3997   -2.7923 C   0  0  0  0  0  0  0  0  0  0  0  0
   16.0099    6.0439   -2.2371 C   0  0  0  0  0  0  0  0  0  0  0  0
   17.0576    6.9609   -2.2944 C   0  0  0  0  0  0  0  0  0  0  0  0
   16.8616    8.2015   -2.8950 C   0  0  0  0  0  0  0  0  0  0  0  0
   15.5171    9.5353   -3.9070 H   0  0  0  0  0  0  0  0  0  0  0  0
   13.6151    7.8904   -3.8120 H   0  0  0  0  0  0  0  0  0  0  0  0
   16.1465    5.0774   -1.7786 H   0  0  0  0  0  0  0  0  0  0  0  0
   18.0277    6.7224   -1.8767 H   0  0  0  0  0  0  0  0  0  0  0  0
   17.9753    9.1557   -2.9487 N   0  0  0  0  0  0  0  0  0  0  0  0
   17.7668   10.2459   -3.4820 O   0  0  0  0  0  0  0  0  0  0  0  0
   19.0500    8.8097   -2.4587 O   0  0  0  0  0  0  0  0  0  0  0  0
    3.7238    3.3282    2.5431 N   0  0  0  0  0  0  0  0  0  0  0  0
    4.6613    3.5574    2.0045 N   0  0  0  0  0  0  0  0  0  0  0  0
   13.5472    4.3204   -2.3525 C   0  0  0  0  0  0  0  0  0  0  0  0
   14.4576    3.6942   -1.8699 O   0  0  0  0  0  0  0  0  0  0  0  0
   13.6337    5.6131   -2.8113 O   0  0  0  0  0  0  0  0  0  0  0  0
   12.1390    3.8211   -2.5518 C   0  0  0  0  0  0  0  0  0  0  0  0
   12.0685    2.7955   -2.1922 H   0  0  0  0  0  0  0  0  0  0  0  0
   11.4349    4.4574   -2.0082 H   0  0  0  0  0  0  0  0  0  0  0  0
   11.8706    3.8671   -3.6112 H   0  0  0  0  0  0  0  0  0  0  0  0
  1  2  2  0  0  0  0
  1  6  1  0  0  0  0
  2  3  1  0  0  0  0
  3  4  2  0  0  0  0
  4  9  1  0  0  0  0
  5  4  1  0  0  0  0
  5 10  1  0  0  0  0
  6  5  2  0  0  0  0
  7  1  1  0  0  0  0
  8  2  1  0  0  0  0
 11  6  1  0  0  0  0
 11 13  2  0  0  0  0
 12 11  2  0  0  0  0
 15 14  3  0  0  0  0
 16 17  2  0  0  0  0
 18  3  1  0  0  0  0
 18 16  1  0  0  0  0
 19 16  1  0  0  0  0
 19 20  1  0  0  0  0
 19 21  1  0  0  0  0
 22 19  1  0  0  0  0
M  END
