Coordinates from ORCA-job 4-NO2-Ph-N2-OAc-B3LYPG-6-31G_dp-MTMO-d009-169-n750
 OpenBabel09051907563D

 22 21  0  0  0  0  0  0  0  0999 V2000
   15.1390    8.3968   -3.2383 C   0  0  0  0  0  0  0  0  0  0  0  0
   14.1106    7.4666   -3.2074 C   0  0  0  0  0  0  0  0  0  0  0  0
   14.3154    6.2090   -2.6218 C   0  0  0  0  0  0  0  0  0  0  0  0
   15.5533    5.8693   -2.0597 C   0  0  0  0  0  0  0  0  0  0  0  0
   16.5835    6.8070   -2.0933 C   0  0  0  0  0  0  0  0  0  0  0  0
   16.3694    8.0523   -2.6777 C   0  0  0  0  0  0  0  0  0  0  0  0
   15.0091    9.3746   -3.6837 H   0  0  0  0  0  0  0  0  0  0  0  0
   13.1385    7.6921   -3.6312 H   0  0  0  0  0  0  0  0  0  0  0  0
   15.7041    4.8990   -1.6138 H   0  0  0  0  0  0  0  0  0  0  0  0
   17.5540    6.5810   -1.6697 H   0  0  0  0  0  0  0  0  0  0  0  0
   17.4645    9.0286   -2.7063 N   0  0  0  0  0  0  0  0  0  0  0  0
   17.2400   10.1226   -3.2251 O   0  0  0  0  0  0  0  0  0  0  0  0
   18.5411    8.6963   -2.2108 O   0  0  0  0  0  0  0  0  0  0  0  0
    8.4307    5.4406    0.8614 N   0  0  0  0  0  0  0  0  0  0  0  0
    9.1766    5.1253    0.1094 N   0  0  0  0  0  0  0  0  0  0  0  0
   13.1248    4.1006   -2.2228 C   0  0  0  0  0  0  0  0  0  0  0  0
   14.0435    3.4864   -1.7401 O   0  0  0  0  0  0  0  0  0  0  0  0
   13.1916    5.4014   -2.6640 O   0  0  0  0  0  0  0  0  0  0  0  0
   11.7265    3.5802   -2.4328 C   0  0  0  0  0  0  0  0  0  0  0  0
   11.6978    2.5214   -2.1777 H   0  0  0  0  0  0  0  0  0  0  0  0
   11.0259    4.1314   -1.7983 H   0  0  0  0  0  0  0  0  0  0  0  0
   11.4175    3.7290   -3.4710 H   0  0  0  0  0  0  0  0  0  0  0  0
  1  2  2  0  0  0  0
  1  6  1  0  0  0  0
  2  3  1  0  0  0  0
  3  4  2  0  0  0  0
  4  9  1  0  0  0  0
  5  4  1  0  0  0  0
  5 10  1  0  0  0  0
  6  5  2  0  0  0  0
  7  1  1  0  0  0  0
  8  2  1  0  0  0  0
 11  6  1  0  0  0  0
 11 13  2  0  0  0  0
 12 11  2  0  0  0  0
 15 14  3  0  0  0  0
 16 17  2  0  0  0  0
 18  3  1  0  0  0  0
 18 16  1  0  0  0  0
 19 16  1  0  0  0  0
 19 20  1  0  0  0  0
 19 21  1  0  0  0  0
 22 19  1  0  0  0  0
M  END
