Coordinates from ORCA-job 4-NO2-Ph-N2-OAc-B3LYPG-6-31G_dp-MTMO-d009-169-n750
 OpenBabel09051907563D

 22 21  0  0  0  0  0  0  0  0999 V2000
   15.0989    8.3675   -3.2278 C   0  0  0  0  0  0  0  0  0  0  0  0
   14.0747    7.4326   -3.2008 C   0  0  0  0  0  0  0  0  0  0  0  0
   14.2849    6.1739   -2.6197 C   0  0  0  0  0  0  0  0  0  0  0  0
   15.5238    5.8379   -2.0576 C   0  0  0  0  0  0  0  0  0  0  0  0
   16.5498    6.7804   -2.0871 C   0  0  0  0  0  0  0  0  0  0  0  0
   16.3304    8.0267   -2.6675 C   0  0  0  0  0  0  0  0  0  0  0  0
   14.9649    9.3462   -3.6700 H   0  0  0  0  0  0  0  0  0  0  0  0
   13.1019    7.6552   -3.6246 H   0  0  0  0  0  0  0  0  0  0  0  0
   15.6791    4.8664   -1.6159 H   0  0  0  0  0  0  0  0  0  0  0  0
   17.5209    6.5575   -1.6634 H   0  0  0  0  0  0  0  0  0  0  0  0
   17.4211    9.0080   -2.6918 N   0  0  0  0  0  0  0  0  0  0  0  0
   17.1921   10.1027   -3.2074 O   0  0  0  0  0  0  0  0  0  0  0  0
   18.4988    8.6790   -2.1964 O   0  0  0  0  0  0  0  0  0  0  0  0
    8.7916    5.8981    0.8781 N   0  0  0  0  0  0  0  0  0  0  0  0
    9.4023    5.3800    0.1167 N   0  0  0  0  0  0  0  0  0  0  0  0
   13.1101    4.0521   -2.2478 C   0  0  0  0  0  0  0  0  0  0  0  0
   14.0384    3.4333   -1.7900 O   0  0  0  0  0  0  0  0  0  0  0  0
   13.1642    5.3620   -2.6630 O   0  0  0  0  0  0  0  0  0  0  0  0
   11.7119    3.5283   -2.4497 C   0  0  0  0  0  0  0  0  0  0  0  0
   11.6953    2.4615   -2.2288 H   0  0  0  0  0  0  0  0  0  0  0  0
   11.0198    4.0530   -1.7839 H   0  0  0  0  0  0  0  0  0  0  0  0
   11.3821    3.7091   -3.4763 H   0  0  0  0  0  0  0  0  0  0  0  0
  1  2  2  0  0  0  0
  1  6  1  0  0  0  0
  2  3  1  0  0  0  0
  3  4  2  0  0  0  0
  4  9  1  0  0  0  0
  5  4  1  0  0  0  0
  5 10  1  0  0  0  0
  6  5  2  0  0  0  0
  7  1  1  0  0  0  0
  8  2  1  0  0  0  0
 11  6  1  0  0  0  0
 11 13  2  0  0  0  0
 12 11  2  0  0  0  0
 15 14  3  0  0  0  0
 16 17  2  0  0  0  0
 18  3  1  0  0  0  0
 18 16  1  0  0  0  0
 19 16  1  0  0  0  0
 19 20  1  0  0  0  0
 19 21  1  0  0  0  0
 22 19  1  0  0  0  0
M  END
