Coordinates from ORCA-job 4-NO2-Ph-N2-OAc-B3LYPG-6-31G_dp-MTMO-d009-169-n750
 OpenBabel09051907553D

 22 22  0  0  0  0  0  0  0  0999 V2000
   15.1126    8.5743   -3.0595 C   0  0  0  0  0  0  0  0  0  0  0  0
   13.9291    8.4407   -2.3346 C   0  0  0  0  0  0  0  0  0  0  0  0
   13.7791    7.3133   -1.5414 C   0  0  0  0  0  0  0  0  0  0  0  0
   14.7517    6.3351   -1.3811 C   0  0  0  0  0  0  0  0  0  0  0  0
   15.9380    6.4812   -2.0977 C   0  0  0  0  0  0  0  0  0  0  0  0
   16.0934    7.5929   -2.9259 C   0  0  0  0  0  0  0  0  0  0  0  0
   15.2904    9.4215   -3.7098 H   0  0  0  0  0  0  0  0  0  0  0  0
   13.1465    9.1890   -2.3910 H   0  0  0  0  0  0  0  0  0  0  0  0
   14.5810    5.4853   -0.7288 H   0  0  0  0  0  0  0  0  0  0  0  0
   16.7374    5.7538   -2.0262 H   0  0  0  0  0  0  0  0  0  0  0  0
   17.3495    7.7413   -3.6839 N   0  0  0  0  0  0  0  0  0  0  0  0
   17.4629    8.7304   -4.4055 O   0  0  0  0  0  0  0  0  0  0  0  0
   18.2026    6.8672   -3.5457 O   0  0  0  0  0  0  0  0  0  0  0  0
   12.4494    7.2410   -0.6079 N   0  0  0  0  0  0  0  0  0  0  0  0
   11.6536    6.3515   -0.6890 N   0  0  0  0  0  0  0  0  0  0  0  0
   12.1668    4.1309   -1.4993 C   0  0  0  0  0  0  0  0  0  0  0  0
   12.5824    3.8665   -0.3917 O   0  0  0  0  0  0  0  0  0  0  0  0
   11.8827    5.3893   -1.9118 O   0  0  0  0  0  0  0  0  0  0  0  0
   11.9177    3.1330   -2.6084 C   0  0  0  0  0  0  0  0  0  0  0  0
   10.8394    2.9844   -2.7225 H   0  0  0  0  0  0  0  0  0  0  0  0
   12.3020    3.5041   -3.5616 H   0  0  0  0  0  0  0  0  0  0  0  0
   12.3891    2.1846   -2.3513 H   0  0  0  0  0  0  0  0  0  0  0  0
  1  6  2  0  0  0  0
  1  2  1  0  0  0  0
  2  3  2  0  0  0  0
  3  4  1  0  0  0  0
  3 14  1  0  0  0  0
  4  9  1  0  0  0  0
  5 10  1  0  0  0  0
  5  4  2  0  0  0  0
  6  5  1  0  0  0  0
  7  1  1  0  0  0  0
  8  2  1  0  0  0  0
 11 13  2  0  0  0  0
 11  6  1  0  0  0  0
 12 11  2  0  0  0  0
 15 14  1  0  0  0  0
 16 17  2  0  0  0  0
 18 16  1  0  0  0  0
 18 15  1  0  0  0  0
 19 22  1  0  0  0  0
 19 16  1  0  0  0  0
 20 19  1  0  0  0  0
 21 19  1  0  0  0  0
M  RAD  2  14   2  15   2
M  END
