Coordinates from ORCA-job 4-NO2-Ph-N2-OAc-B3LYPG-6-31G_dp-MTMO-d009-169-n750
 OpenBabel09051907563D

 22 21  0  0  0  0  0  0  0  0999 V2000
   15.3974    8.4760   -3.3545 C   0  0  0  0  0  0  0  0  0  0  0  0
   14.3117    7.6231   -3.2209 C   0  0  0  0  0  0  0  0  0  0  0  0
   14.4693    6.3740   -2.6036 C   0  0  0  0  0  0  0  0  0  0  0  0
   15.7163    5.9650   -2.1124 C   0  0  0  0  0  0  0  0  0  0  0  0
   16.8040    6.8252   -2.2491 C   0  0  0  0  0  0  0  0  0  0  0  0
   16.6366    8.0630   -2.8640 C   0  0  0  0  0  0  0  0  0  0  0  0
   15.3048    9.4457   -3.8261 H   0  0  0  0  0  0  0  0  0  0  0  0
   13.3308    7.9036   -3.5876 H   0  0  0  0  0  0  0  0  0  0  0  0
   15.8303    5.0011   -1.6425 H   0  0  0  0  0  0  0  0  0  0  0  0
   17.7832    6.5446   -1.8820 H   0  0  0  0  0  0  0  0  0  0  0  0
   17.7920    8.9574   -3.0011 N   0  0  0  0  0  0  0  0  0  0  0  0
   17.6087   10.0465   -3.5457 O   0  0  0  0  0  0  0  0  0  0  0  0
   18.8741    8.5658   -2.5645 O   0  0  0  0  0  0  0  0  0  0  0  0
    6.6893    3.7390    0.8501 N   0  0  0  0  0  0  0  0  0  0  0  0
    7.6364    4.0011    0.3443 N   0  0  0  0  0  0  0  0  0  0  0  0
   13.1691    4.3656   -2.0594 C   0  0  0  0  0  0  0  0  0  0  0  0
   14.0771    3.6965   -1.6330 O   0  0  0  0  0  0  0  0  0  0  0  0
   13.2914    5.6484   -2.5379 O   0  0  0  0  0  0  0  0  0  0  0  0
   11.7263    3.9398   -2.1534 C   0  0  0  0  0  0  0  0  0  0  0  0
   11.6369    2.9051   -1.8248 H   0  0  0  0  0  0  0  0  0  0  0  0
   11.1034    4.5833   -1.5249 H   0  0  0  0  0  0  0  0  0  0  0  0
   11.3684    4.0415   -3.1818 H   0  0  0  0  0  0  0  0  0  0  0  0
  1  2  2  0  0  0  0
  1  6  1  0  0  0  0
  2  3  1  0  0  0  0
  3 18  1  0  0  0  0
  3  4  2  0  0  0  0
  4  9  1  0  0  0  0
  5  4  1  0  0  0  0
  5 10  1  0  0  0  0
  6  5  2  0  0  0  0
  7  1  1  0  0  0  0
  8  2  1  0  0  0  0
 11  6  1  0  0  0  0
 11 13  2  0  0  0  0
 12 11  2  0  0  0  0
 15 14  3  0  0  0  0
 16 17  2  0  0  0  0
 18 16  1  0  0  0  0
 19 16  1  0  0  0  0
 19 20  1  0  0  0  0
 19 21  1  0  0  0  0
 22 19  1  0  0  0  0
M  END
