Coordinates from ORCA-job 4-NO2-Ph-N2-OAc-B3LYPG-6-31G_dp-MTMO-d009-169-n750
 OpenBabel09051907553D

 22 21  0  0  0  0  0  0  0  0999 V2000
   14.9810    8.1456   -3.2564 C   0  0  0  0  0  0  0  0  0  0  0  0
   13.8859    7.3077   -3.1046 C   0  0  0  0  0  0  0  0  0  0  0  0
   14.0435    6.0411   -2.5240 C   0  0  0  0  0  0  0  0  0  0  0  0
   15.2998    5.5997   -2.0874 C   0  0  0  0  0  0  0  0  0  0  0  0
   16.3968    6.4449   -2.2422 C   0  0  0  0  0  0  0  0  0  0  0  0
   16.2293    7.7000   -2.8210 C   0  0  0  0  0  0  0  0  0  0  0  0
   14.8886    9.1279   -3.7009 H   0  0  0  0  0  0  0  0  0  0  0  0
   12.8980    7.6139   -3.4293 H   0  0  0  0  0  0  0  0  0  0  0  0
   15.4139    4.6223   -1.6465 H   0  0  0  0  0  0  0  0  0  0  0  0
   17.3833    6.1391   -1.9172 H   0  0  0  0  0  0  0  0  0  0  0  0
   17.3948    8.5782   -2.9779 N   0  0  0  0  0  0  0  0  0  0  0  0
   17.2119    9.6819   -3.4922 O   0  0  0  0  0  0  0  0  0  0  0  0
   18.4840    8.1590   -2.5870 O   0  0  0  0  0  0  0  0  0  0  0  0
   11.5777    7.8130    0.0098 N   0  0  0  0  0  0  0  0  0  0  0  0
   11.1637    6.7889   -0.0264 N   0  0  0  0  0  0  0  0  0  0  0  0
   12.7364    4.0262   -2.0197 C   0  0  0  0  0  0  0  0  0  0  0  0
   13.6558    3.3196   -1.6902 O   0  0  0  0  0  0  0  0  0  0  0  0
   12.8558    5.3353   -2.4277 O   0  0  0  0  0  0  0  0  0  0  0  0
   11.2826    3.6323   -2.0518 C   0  0  0  0  0  0  0  0  0  0  0  0
   11.1880    2.5877   -1.7579 H   0  0  0  0  0  0  0  0  0  0  0  0
   10.7124    4.2677   -1.3683 H   0  0  0  0  0  0  0  0  0  0  0  0
   10.8740    3.7793   -3.0558 H   0  0  0  0  0  0  0  0  0  0  0  0
  1  2  2  0  0  0  0
  1  6  1  0  0  0  0
  2  3  1  0  0  0  0
  3 18  1  0  0  0  0
  3  4  2  0  0  0  0
  4  9  1  0  0  0  0
  5  4  1  0  0  0  0
  5 10  1  0  0  0  0
  6  5  2  0  0  0  0
  7  1  1  0  0  0  0
  8  2  1  0  0  0  0
 11  6  1  0  0  0  0
 11 13  2  0  0  0  0
 12 11  2  0  0  0  0
 15 14  3  0  0  0  0
 16 17  2  0  0  0  0
 18 16  1  0  0  0  0
 19 16  1  0  0  0  0
 19 20  1  0  0  0  0
 19 21  1  0  0  0  0
 22 19  1  0  0  0  0
M  END
