Coordinates from ORCA-job 4-NO2-Ph-N2-OAc-B3LYPG-6-31G_dp-MTMO-d009-169-n750
 OpenBabel09051907563D

 22 21  0  0  0  0  0  0  0  0999 V2000
   15.9576    8.6570   -3.5945 C   0  0  0  0  0  0  0  0  0  0  0  0
   14.9152    7.7436   -3.5408 C   0  0  0  0  0  0  0  0  0  0  0  0
   15.1078    6.4897   -2.9436 C   0  0  0  0  0  0  0  0  0  0  0  0
   16.3466    6.1365   -2.3923 C   0  0  0  0  0  0  0  0  0  0  0  0
   17.3909    7.0576   -2.4486 C   0  0  0  0  0  0  0  0  0  0  0  0
   17.1891    8.2994   -3.0446 C   0  0  0  0  0  0  0  0  0  0  0  0
   15.8376    9.6317   -4.0492 H   0  0  0  0  0  0  0  0  0  0  0  0
   13.9417    7.9797   -3.9556 H   0  0  0  0  0  0  0  0  0  0  0  0
   16.4879    5.1688   -1.9377 H   0  0  0  0  0  0  0  0  0  0  0  0
   18.3627    6.8212   -2.0338 H   0  0  0  0  0  0  0  0  0  0  0  0
   18.2991    9.2579   -3.0973 N   0  0  0  0  0  0  0  0  0  0  0  0
   18.0855   10.3492   -3.6264 O   0  0  0  0  0  0  0  0  0  0  0  0
   19.3761    8.9142   -2.6107 O   0  0  0  0  0  0  0  0  0  0  0  0
    0.3747    2.4261    4.0672 N   0  0  0  0  0  0  0  0  0  0  0  0
    1.3180    2.6507    3.5368 N   0  0  0  0  0  0  0  0  0  0  0  0
   13.8927    4.4015   -2.5162 C   0  0  0  0  0  0  0  0  0  0  0  0
   14.8099    3.7729   -2.0497 O   0  0  0  0  0  0  0  0  0  0  0  0
   13.9705    5.6995   -2.9612 O   0  0  0  0  0  0  0  0  0  0  0  0
   12.4842    3.8997   -2.7070 C   0  0  0  0  0  0  0  0  0  0  0  0
   12.4215    2.8688   -2.3614 H   0  0  0  0  0  0  0  0  0  0  0  0
   11.7844    4.5254   -2.1458 H   0  0  0  0  0  0  0  0  0  0  0  0
   12.2032    3.9601   -3.7624 H   0  0  0  0  0  0  0  0  0  0  0  0
  1  2  2  0  0  0  0
  1  6  1  0  0  0  0
  2  3  1  0  0  0  0
  3  4  2  0  0  0  0
  4  9  1  0  0  0  0
  5  4  1  0  0  0  0
  5 10  1  0  0  0  0
  6  5  2  0  0  0  0
  7  1  1  0  0  0  0
  8  2  1  0  0  0  0
 11  6  1  0  0  0  0
 11 13  2  0  0  0  0
 12 11  2  0  0  0  0
 15 14  3  0  0  0  0
 16 17  2  0  0  0  0
 18  3  1  0  0  0  0
 18 16  1  0  0  0  0
 19 16  1  0  0  0  0
 19 20  1  0  0  0  0
 19 21  1  0  0  0  0
 22 19  1  0  0  0  0
M  END
