Coordinates from ORCA-job 4-NO2-Ph-N2-OAc-B3LYPG-6-31G_dp-MTMO-d009-169-n750
 OpenBabel09051907553D

 22 22  0  0  0  0  0  0  0  0999 V2000
   15.2497    8.7701   -2.9027 C   0  0  0  0  0  0  0  0  0  0  0  0
   14.0340    8.5790   -2.2724 C   0  0  0  0  0  0  0  0  0  0  0  0
   13.7094    7.3229   -1.6717 C   0  0  0  0  0  0  0  0  0  0  0  0
   14.7032    6.2912   -1.6841 C   0  0  0  0  0  0  0  0  0  0  0  0
   15.9356    6.5153   -2.2723 C   0  0  0  0  0  0  0  0  0  0  0  0
   16.1911    7.7404   -2.8877 C   0  0  0  0  0  0  0  0  0  0  0  0
   15.4933    9.7081   -3.3852 H   0  0  0  0  0  0  0  0  0  0  0  0
   13.2862    9.3650   -2.2574 H   0  0  0  0  0  0  0  0  0  0  0  0
   14.4697    5.3619   -1.1743 H   0  0  0  0  0  0  0  0  0  0  0  0
   16.7007    5.7485   -2.2750 H   0  0  0  0  0  0  0  0  0  0  0  0
   17.4957    7.9607   -3.5282 N   0  0  0  0  0  0  0  0  0  0  0  0
   17.6846    9.0501   -4.0683 O   0  0  0  0  0  0  0  0  0  0  0  0
   18.3121    7.0422   -3.4839 O   0  0  0  0  0  0  0  0  0  0  0  0
   12.6878    7.1659   -1.1532 N   0  0  0  0  0  0  0  0  0  0  0  0
   11.7531    6.4719   -0.9629 N   0  0  0  0  0  0  0  0  0  0  0  0
   12.1121    4.0514   -1.5752 C   0  0  0  0  0  0  0  0  0  0  0  0
   12.7721    3.9964   -0.5449 O   0  0  0  0  0  0  0  0  0  0  0  0
   11.7130    5.1751   -2.1511 O   0  0  0  0  0  0  0  0  0  0  0  0
   11.6576    2.8220   -2.3451 C   0  0  0  0  0  0  0  0  0  0  0  0
   10.5997    2.6397   -2.1295 H   0  0  0  0  0  0  0  0  0  0  0  0
   11.7539    2.9746   -3.4231 H   0  0  0  0  0  0  0  0  0  0  0  0
   12.2424    1.9587   -2.0263 H   0  0  0  0  0  0  0  0  0  0  0  0
  1  6  2  0  0  0  0
  1  2  1  0  0  0  0
  2  8  1  0  0  0  0
  2  3  2  0  0  0  0
  3 14  1  0  0  0  0
  4  3  1  0  0  0  0
  4  9  1  0  0  0  0
  5  4  2  0  0  0  0
  6  5  1  0  0  0  0
  7  1  1  0  0  0  0
 10  5  1  0  0  0  0
 11 13  2  0  0  0  0
 11  6  1  0  0  0  0
 12 11  2  0  0  0  0
 14 15  1  0  0  0  0
 16 17  2  0  0  0  0
 18 16  1  0  0  0  0
 18 15  1  0  0  0  0
 19 20  1  0  0  0  0
 19 22  1  0  0  0  0
 19 16  1  0  0  0  0
 21 19  1  0  0  0  0
M  RAD  2  14   2  15   2
M  END
