Coordinates from ORCA-job 4-NO2-Ph-N2-OAc-B3LYPG-6-31G_dp-MTMO-d009-169-n750
 OpenBabel09051907563D

 22 21  0  0  0  0  0  0  0  0999 V2000
   15.6198    8.5576   -3.4432 C   0  0  0  0  0  0  0  0  0  0  0  0
   14.5737    7.6484   -3.3889 C   0  0  0  0  0  0  0  0  0  0  0  0
   14.7598    6.3961   -2.7864 C   0  0  0  0  0  0  0  0  0  0  0  0
   15.9958    6.0402   -2.2304 C   0  0  0  0  0  0  0  0  0  0  0  0
   17.0438    6.9569   -2.2875 C   0  0  0  0  0  0  0  0  0  0  0  0
   16.8484    8.1973   -2.8888 C   0  0  0  0  0  0  0  0  0  0  0  0
   15.5047    9.5310   -3.9020 H   0  0  0  0  0  0  0  0  0  0  0  0
   13.6023    7.8867   -3.8073 H   0  0  0  0  0  0  0  0  0  0  0  0
   16.1319    5.0739   -1.7714 H   0  0  0  0  0  0  0  0  0  0  0  0
   18.0136    6.7183   -1.8694 H   0  0  0  0  0  0  0  0  0  0  0  0
   17.9623    9.1512   -2.9424 N   0  0  0  0  0  0  0  0  0  0  0  0
   17.7543   10.2413   -3.4761 O   0  0  0  0  0  0  0  0  0  0  0  0
   19.0367    8.8052   -2.4516 O   0  0  0  0  0  0  0  0  0  0  0  0
    3.8623    3.3641    2.4820 N   0  0  0  0  0  0  0  0  0  0  0  0
    4.7987    3.5936    1.9415 N   0  0  0  0  0  0  0  0  0  0  0  0
   13.5325    4.3175   -2.3456 C   0  0  0  0  0  0  0  0  0  0  0  0
   14.4423    3.6917   -1.8613 O   0  0  0  0  0  0  0  0  0  0  0  0
   13.6199    5.6097   -2.8058 O   0  0  0  0  0  0  0  0  0  0  0  0
   12.1244    3.8184   -2.5459 C   0  0  0  0  0  0  0  0  0  0  0  0
   12.0529    2.7934   -2.1847 H   0  0  0  0  0  0  0  0  0  0  0  0
   11.4201    4.4560   -2.0040 H   0  0  0  0  0  0  0  0  0  0  0  0
   11.8572    3.8628   -3.6056 H   0  0  0  0  0  0  0  0  0  0  0  0
  1  2  2  0  0  0  0
  1  6  1  0  0  0  0
  2  3  1  0  0  0  0
  3  4  2  0  0  0  0
  4  9  1  0  0  0  0
  5  4  1  0  0  0  0
  5 10  1  0  0  0  0
  6  5  2  0  0  0  0
  7  1  1  0  0  0  0
  8  2  1  0  0  0  0
 11  6  1  0  0  0  0
 11 13  2  0  0  0  0
 12 11  2  0  0  0  0
 15 14  3  0  0  0  0
 16 17  2  0  0  0  0
 18  3  1  0  0  0  0
 18 16  1  0  0  0  0
 19 16  1  0  0  0  0
 19 20  1  0  0  0  0
 19 21  1  0  0  0  0
 22 19  1  0  0  0  0
M  END
