Coordinates from ORCA-job 4-NO2-Ph-N2-OAc-B3LYPG-6-31G_dp-MTMO-d009-169-n750
 OpenBabel09051907553D

 22 22  0  0  0  0  0  0  0  0999 V2000
   15.1793    8.6926   -2.9740 C   0  0  0  0  0  0  0  0  0  0  0  0
   13.9820    8.5354   -2.2884 C   0  0  0  0  0  0  0  0  0  0  0  0
   13.7182    7.3365   -1.6017 C   0  0  0  0  0  0  0  0  0  0  0  0
   14.6909    6.3180   -1.5471 C   0  0  0  0  0  0  0  0  0  0  0  0
   15.9023    6.4931   -2.2019 C   0  0  0  0  0  0  0  0  0  0  0  0
   16.1238    7.6693   -2.9173 C   0  0  0  0  0  0  0  0  0  0  0  0
   15.4012    9.5938   -3.5309 H   0  0  0  0  0  0  0  0  0  0  0  0
   13.2341    9.3210   -2.2893 H   0  0  0  0  0  0  0  0  0  0  0  0
   14.4905    5.4234   -0.9675 H   0  0  0  0  0  0  0  0  0  0  0  0
   16.6740    5.7337   -2.1734 H   0  0  0  0  0  0  0  0  0  0  0  0
   17.4041    7.8436   -3.6231 N   0  0  0  0  0  0  0  0  0  0  0  0
   17.5713    8.8921   -4.2440 O   0  0  0  0  0  0  0  0  0  0  0  0
   18.2231    6.9296   -3.5478 O   0  0  0  0  0  0  0  0  0  0  0  0
   12.5875    7.2390   -0.9135 N   0  0  0  0  0  0  0  0  0  0  0  0
   11.7544    6.3756   -0.8623 N   0  0  0  0  0  0  0  0  0  0  0  0
   12.1567    4.0596   -1.4857 C   0  0  0  0  0  0  0  0  0  0  0  0
   12.5925    3.8783   -0.3670 O   0  0  0  0  0  0  0  0  0  0  0  0
   11.9434    5.2837   -2.0122 O   0  0  0  0  0  0  0  0  0  0  0  0
   11.8063    2.9704   -2.4759 C   0  0  0  0  0  0  0  0  0  0  0  0
   10.7171    2.8848   -2.5452 H   0  0  0  0  0  0  0  0  0  0  0  0
   12.1811    3.2139   -3.4733 H   0  0  0  0  0  0  0  0  0  0  0  0
   12.2235    2.0236   -2.1331 H   0  0  0  0  0  0  0  0  0  0  0  0
  1  6  2  0  0  0  0
  1  2  1  0  0  0  0
  2  3  2  0  0  0  0
  3  4  1  0  0  0  0
  3 14  1  0  0  0  0
  4  9  1  0  0  0  0
  5 10  1  0  0  0  0
  5  4  2  0  0  0  0
  6  5  1  0  0  0  0
  7  1  1  0  0  0  0
  8  2  1  0  0  0  0
 11 13  2  0  0  0  0
 11  6  1  0  0  0  0
 12 11  2  0  0  0  0
 14 15  1  0  0  0  0
 16 17  2  0  0  0  0
 18 16  1  0  0  0  0
 18 15  1  0  0  0  0
 19 22  1  0  0  0  0
 19 16  1  0  0  0  0
 20 19  1  0  0  0  0
 21 19  1  0  0  0  0
M  RAD  2  14   2  15   2
M  END
