Coordinates from ORCA-job 4-NO2-Ph-N2-OAc-B3LYPG-6-31G_dp-MTMO-d009-169-n750
 OpenBabel09051907563D

 22 21  0  0  0  0  0  0  0  0999 V2000
   15.3832    8.4688   -3.3519 C   0  0  0  0  0  0  0  0  0  0  0  0
   14.2968    7.6168   -3.2198 C   0  0  0  0  0  0  0  0  0  0  0  0
   14.4519    6.3689   -2.5994 C   0  0  0  0  0  0  0  0  0  0  0  0
   15.6972    5.9602   -2.1038 C   0  0  0  0  0  0  0  0  0  0  0  0
   16.7858    6.8197   -2.2391 C   0  0  0  0  0  0  0  0  0  0  0  0
   16.6208    8.0562   -2.8570 C   0  0  0  0  0  0  0  0  0  0  0  0
   15.2925    9.4376   -3.8258 H   0  0  0  0  0  0  0  0  0  0  0  0
   13.3171    7.8970   -3.5900 H   0  0  0  0  0  0  0  0  0  0  0  0
   15.8092    4.9973   -1.6313 H   0  0  0  0  0  0  0  0  0  0  0  0
   17.7638    6.5392   -1.8686 H   0  0  0  0  0  0  0  0  0  0  0  0
   17.7771    8.9497   -2.9926 N   0  0  0  0  0  0  0  0  0  0  0  0
   17.5958   10.0378   -3.5399 O   0  0  0  0  0  0  0  0  0  0  0  0
   18.8578    8.5584   -2.5522 O   0  0  0  0  0  0  0  0  0  0  0  0
    6.8680    3.7858    0.7845 N   0  0  0  0  0  0  0  0  0  0  0  0
    7.8159    4.0474    0.2798 N   0  0  0  0  0  0  0  0  0  0  0  0
   13.1476    4.3645   -2.0497 C   0  0  0  0  0  0  0  0  0  0  0  0
   14.0526    3.6985   -1.6120 O   0  0  0  0  0  0  0  0  0  0  0  0
   13.2735    5.6437   -2.5368 O   0  0  0  0  0  0  0  0  0  0  0  0
   11.7053    3.9384   -2.1492 C   0  0  0  0  0  0  0  0  0  0  0  0
   11.6170    2.8999   -1.8325 H   0  0  0  0  0  0  0  0  0  0  0  0
   11.0821    4.5727   -1.5116 H   0  0  0  0  0  0  0  0  0  0  0  0
   11.3463    4.0527   -3.1757 H   0  0  0  0  0  0  0  0  0  0  0  0
  1  2  2  0  0  0  0
  1  6  1  0  0  0  0
  2  3  1  0  0  0  0
  3 18  1  0  0  0  0
  3  4  2  0  0  0  0
  4  9  1  0  0  0  0
  5  4  1  0  0  0  0
  5 10  1  0  0  0  0
  6  5  2  0  0  0  0
  7  1  1  0  0  0  0
  8  2  1  0  0  0  0
 11  6  1  0  0  0  0
 11 13  2  0  0  0  0
 12 11  2  0  0  0  0
 15 14  3  0  0  0  0
 16 17  2  0  0  0  0
 18 16  1  0  0  0  0
 19 16  1  0  0  0  0
 19 20  1  0  0  0  0
 19 21  1  0  0  0  0
 22 19  1  0  0  0  0
M  END
