Coordinates from ORCA-job 4-NO2-Ph-N2-OAc-B3LYPG-6-31G_dp-MTMO-d009-169-n750
 OpenBabel09051907563D

 22 21  0  0  0  0  0  0  0  0999 V2000
   15.4421    8.4962   -3.3666 C   0  0  0  0  0  0  0  0  0  0  0  0
   14.3607    7.6376   -3.2352 C   0  0  0  0  0  0  0  0  0  0  0  0
   14.5254    6.3861   -2.6248 C   0  0  0  0  0  0  0  0  0  0  0  0
   15.7752    5.9804   -2.1383 C   0  0  0  0  0  0  0  0  0  0  0  0
   16.8587    6.8463   -2.2726 C   0  0  0  0  0  0  0  0  0  0  0  0
   16.6842    8.0864   -2.8808 C   0  0  0  0  0  0  0  0  0  0  0  0
   15.3441    9.4678   -3.8331 H   0  0  0  0  0  0  0  0  0  0  0  0
   13.3777    7.9156   -3.5983 H   0  0  0  0  0  0  0  0  0  0  0  0
   15.8948    5.0144   -1.6740 H   0  0  0  0  0  0  0  0  0  0  0  0
   17.8399    6.5683   -1.9090 H   0  0  0  0  0  0  0  0  0  0  0  0
   17.8353    8.9869   -3.0155 N   0  0  0  0  0  0  0  0  0  0  0  0
   17.6458   10.0779   -3.5541 O   0  0  0  0  0  0  0  0  0  0  0  0
   18.9200    8.5981   -2.5831 O   0  0  0  0  0  0  0  0  0  0  0  0
    6.1281    3.6207    1.1019 N   0  0  0  0  0  0  0  0  0  0  0  0
    7.0667    3.8662    0.5723 N   0  0  0  0  0  0  0  0  0  0  0  0
   13.2383    4.3649   -2.0984 C   0  0  0  0  0  0  0  0  0  0  0  0
   14.1531    3.6925   -1.6923 O   0  0  0  0  0  0  0  0  0  0  0  0
   13.3508    5.6554   -2.5582 O   0  0  0  0  0  0  0  0  0  0  0  0
   11.7962    3.9354   -2.1858 C   0  0  0  0  0  0  0  0  0  0  0  0
   11.7072    2.9070   -1.8382 H   0  0  0  0  0  0  0  0  0  0  0  0
   11.1714    4.5918   -1.5732 H   0  0  0  0  0  0  0  0  0  0  0  0
   11.4415    4.0155   -3.2174 H   0  0  0  0  0  0  0  0  0  0  0  0
  1  2  2  0  0  0  0
  1  6  1  0  0  0  0
  2  3  1  0  0  0  0
  3 18  1  0  0  0  0
  3  4  2  0  0  0  0
  4  9  1  0  0  0  0
  5  4  1  0  0  0  0
  5 10  1  0  0  0  0
  6  5  2  0  0  0  0
  7  1  1  0  0  0  0
  8  2  1  0  0  0  0
 11  6  1  0  0  0  0
 11 13  2  0  0  0  0
 12 11  2  0  0  0  0
 15 14  3  0  0  0  0
 16 17  2  0  0  0  0
 18 16  1  0  0  0  0
 19 16  1  0  0  0  0
 19 20  1  0  0  0  0
 19 21  1  0  0  0  0
 22 19  1  0  0  0  0
M  END
