Coordinates from ORCA-job 4-NO2-Ph-N2-OAc-B3LYPG-6-31G_dp-MTMO-d009-169-n750
 OpenBabel09051907563D

 22 21  0  0  0  0  0  0  0  0999 V2000
   15.5168    8.5246   -3.3944 C   0  0  0  0  0  0  0  0  0  0  0  0
   14.4410    7.6580   -3.2698 C   0  0  0  0  0  0  0  0  0  0  0  0
   14.6125    6.4052   -2.6639 C   0  0  0  0  0  0  0  0  0  0  0  0
   15.8636    6.0062   -2.1752 C   0  0  0  0  0  0  0  0  0  0  0  0
   16.9414    6.8801   -2.3027 C   0  0  0  0  0  0  0  0  0  0  0  0
   16.7602    8.1214   -2.9064 C   0  0  0  0  0  0  0  0  0  0  0  0
   15.4135    9.4974   -3.8572 H   0  0  0  0  0  0  0  0  0  0  0  0
   13.4571    7.9307   -3.6347 H   0  0  0  0  0  0  0  0  0  0  0  0
   15.9886    5.0391   -1.7147 H   0  0  0  0  0  0  0  0  0  0  0  0
   17.9234    6.6075   -1.9371 H   0  0  0  0  0  0  0  0  0  0  0  0
   17.9054    9.0304   -3.0339 N   0  0  0  0  0  0  0  0  0  0  0  0
   17.7100   10.1224   -3.5685 O   0  0  0  0  0  0  0  0  0  0  0  0
   18.9915    8.6473   -2.5997 O   0  0  0  0  0  0  0  0  0  0  0  0
    5.2605    3.4177    1.4956 N   0  0  0  0  0  0  0  0  0  0  0  0
    6.1972    3.6522    0.9577 N   0  0  0  0  0  0  0  0  0  0  0  0
   13.3393    4.3710   -2.1550 C   0  0  0  0  0  0  0  0  0  0  0  0
   14.2589    3.7007   -1.7566 O   0  0  0  0  0  0  0  0  0  0  0  0
   13.4426    5.6664   -2.6028 O   0  0  0  0  0  0  0  0  0  0  0  0
   11.9000    3.9328   -2.2452 C   0  0  0  0  0  0  0  0  0  0  0  0
   11.8165    2.9037   -1.8983 H   0  0  0  0  0  0  0  0  0  0  0  0
   11.2700    4.5857   -1.6342 H   0  0  0  0  0  0  0  0  0  0  0  0
   11.5471    4.0108   -3.2776 H   0  0  0  0  0  0  0  0  0  0  0  0
  1  2  2  0  0  0  0
  1  6  1  0  0  0  0
  2  3  1  0  0  0  0
  3 18  1  0  0  0  0
  3  4  2  0  0  0  0
  4  9  1  0  0  0  0
  5  4  1  0  0  0  0
  5 10  1  0  0  0  0
  6  5  2  0  0  0  0
  7  1  1  0  0  0  0
  8  2  1  0  0  0  0
 11  6  1  0  0  0  0
 11 13  2  0  0  0  0
 12 11  2  0  0  0  0
 15 14  3  0  0  0  0
 16 17  2  0  0  0  0
 18 16  1  0  0  0  0
 19 16  1  0  0  0  0
 19 20  1  0  0  0  0
 19 21  1  0  0  0  0
 22 19  1  0  0  0  0
M  END
