Coordinates from ORCA-job 4-NO2-Ph-N2-OAc-B3LYPG-6-31G_dp-MTMO-d009-169-n750
 OpenBabel09051907553D

 22 21  0  0  0  0  0  0  0  0999 V2000
   15.0661    8.1161   -3.3908 C   0  0  0  0  0  0  0  0  0  0  0  0
   13.9611    7.2919   -3.2377 C   0  0  0  0  0  0  0  0  0  0  0  0
   14.0879    6.0571   -2.5854 C   0  0  0  0  0  0  0  0  0  0  0  0
   15.3239    5.6344   -2.0779 C   0  0  0  0  0  0  0  0  0  0  0  0
   16.4314    6.4656   -2.2345 C   0  0  0  0  0  0  0  0  0  0  0  0
   16.2941    7.6892   -2.8844 C   0  0  0  0  0  0  0  0  0  0  0  0
   14.9970    9.0741   -3.8896 H   0  0  0  0  0  0  0  0  0  0  0  0
   12.9881    7.5839   -3.6165 H   0  0  0  0  0  0  0  0  0  0  0  0
   15.4150    4.6810   -1.5822 H   0  0  0  0  0  0  0  0  0  0  0  0
   17.4028    6.1732   -1.8561 H   0  0  0  0  0  0  0  0  0  0  0  0
   17.4699    8.5529   -3.0423 N   0  0  0  0  0  0  0  0  0  0  0  0
   17.3127    9.6304   -3.6175 O   0  0  0  0  0  0  0  0  0  0  0  0
   18.5417    8.1492   -2.5916 O   0  0  0  0  0  0  0  0  0  0  0  0
   10.9487    7.6233    0.7663 N   0  0  0  0  0  0  0  0  0  0  0  0
   10.9158    6.6569    0.2313 N   0  0  0  0  0  0  0  0  0  0  0  0
   12.7482    4.0814   -2.0192 C   0  0  0  0  0  0  0  0  0  0  0  0
   13.6467    3.3948   -1.6007 O   0  0  0  0  0  0  0  0  0  0  0  0
   12.8938    5.3618   -2.5007 O   0  0  0  0  0  0  0  0  0  0  0  0
   11.2959    3.6887   -2.0972 C   0  0  0  0  0  0  0  0  0  0  0  0
   11.1869    2.6545   -1.7729 H   0  0  0  0  0  0  0  0  0  0  0  0
   10.7026    4.3460   -1.4552 H   0  0  0  0  0  0  0  0  0  0  0  0
   10.9266    3.8049   -3.1200 H   0  0  0  0  0  0  0  0  0  0  0  0
  1  2  2  0  0  0  0
  1  6  1  0  0  0  0
  2  3  1  0  0  0  0
  3 18  1  0  0  0  0
  3  4  2  0  0  0  0
  4  9  1  0  0  0  0
  5  4  1  0  0  0  0
  5 10  1  0  0  0  0
  6  5  2  0  0  0  0
  7  1  1  0  0  0  0
  8  2  1  0  0  0  0
 11  6  1  0  0  0  0
 11 13  2  0  0  0  0
 12 11  2  0  0  0  0
 15 14  3  0  0  0  0
 16 17  2  0  0  0  0
 18 16  1  0  0  0  0
 19 16  1  0  0  0  0
 19 20  1  0  0  0  0
 19 21  1  0  0  0  0
 22 19  1  0  0  0  0
M  END
