Coordinates from ORCA-job 4-NO2-Ph-N2-OAc-B3LYPG-6-31G_dp-MTMO-d009-169-n750
 OpenBabel09051907563D

 22 21  0  0  0  0  0  0  0  0999 V2000
   15.8665    8.6311   -3.5529 C   0  0  0  0  0  0  0  0  0  0  0  0
   14.8234    7.7184   -3.4986 C   0  0  0  0  0  0  0  0  0  0  0  0
   15.0153    6.4646   -2.9010 C   0  0  0  0  0  0  0  0  0  0  0  0
   16.2541    6.1107   -2.3500 C   0  0  0  0  0  0  0  0  0  0  0  0
   17.2990    7.0309   -2.4070 C   0  0  0  0  0  0  0  0  0  0  0  0
   17.0979    8.2727   -3.0033 C   0  0  0  0  0  0  0  0  0  0  0  0
   15.7470    9.6057   -4.0079 H   0  0  0  0  0  0  0  0  0  0  0  0
   13.8500    7.9551   -3.9131 H   0  0  0  0  0  0  0  0  0  0  0  0
   16.3948    5.1431   -1.8951 H   0  0  0  0  0  0  0  0  0  0  0  0
   18.2707    6.7939   -1.9925 H   0  0  0  0  0  0  0  0  0  0  0  0
   18.2086    9.2304   -3.0568 N   0  0  0  0  0  0  0  0  0  0  0  0
   17.9956   10.3216   -3.5861 O   0  0  0  0  0  0  0  0  0  0  0  0
   19.2855    8.8860   -2.5705 O   0  0  0  0  0  0  0  0  0  0  0  0
    1.3001    2.6785    3.6432 N   0  0  0  0  0  0  0  0  0  0  0  0
    2.2425    2.9045    3.1117 N   0  0  0  0  0  0  0  0  0  0  0  0
   13.7985    4.3777   -2.4718 C   0  0  0  0  0  0  0  0  0  0  0  0
   14.7149    3.7490   -2.0040 O   0  0  0  0  0  0  0  0  0  0  0  0
   13.8774    5.6752   -2.9182 O   0  0  0  0  0  0  0  0  0  0  0  0
   12.3898    3.8767   -2.6629 C   0  0  0  0  0  0  0  0  0  0  0  0
   12.3260    2.8463   -2.3157 H   0  0  0  0  0  0  0  0  0  0  0  0
   11.6898    4.5038   -2.1035 H   0  0  0  0  0  0  0  0  0  0  0  0
   12.1098    3.9355   -3.7186 H   0  0  0  0  0  0  0  0  0  0  0  0
  1  2  2  0  0  0  0
  1  6  1  0  0  0  0
  2  3  1  0  0  0  0
  3  4  2  0  0  0  0
  4  9  1  0  0  0  0
  5  4  1  0  0  0  0
  5 10  1  0  0  0  0
  6  5  2  0  0  0  0
  7  1  1  0  0  0  0
  8  2  1  0  0  0  0
 11  6  1  0  0  0  0
 11 13  2  0  0  0  0
 12 11  2  0  0  0  0
 15 14  3  0  0  0  0
 16 17  2  0  0  0  0
 18  3  1  0  0  0  0
 18 16  1  0  0  0  0
 19 16  1  0  0  0  0
 19 20  1  0  0  0  0
 19 21  1  0  0  0  0
 22 19  1  0  0  0  0
M  END
