Coordinates from ORCA-job 4-NO2-Ph-N2-OAc-B3LYPG-6-31G_dp-MTMO-d009-169-n750
 OpenBabel09051907563D

 22 21  0  0  0  0  0  0  0  0999 V2000
   15.1787    8.1340   -3.4212 C   0  0  0  0  0  0  0  0  0  0  0  0
   14.0604    7.3361   -3.2302 C   0  0  0  0  0  0  0  0  0  0  0  0
   14.1842    6.0878   -2.6035 C   0  0  0  0  0  0  0  0  0  0  0  0
   15.4304    5.6251   -2.1600 C   0  0  0  0  0  0  0  0  0  0  0  0
   16.5511    6.4301   -2.3541 C   0  0  0  0  0  0  0  0  0  0  0  0
   16.4167    7.6675   -2.9780 C   0  0  0  0  0  0  0  0  0  0  0  0
   15.1123    9.1016   -3.9015 H   0  0  0  0  0  0  0  0  0  0  0  0
   13.0791    7.6595   -3.5589 H   0  0  0  0  0  0  0  0  0  0  0  0
   15.5189    4.6613   -1.6843 H   0  0  0  0  0  0  0  0  0  0  0  0
   17.5306    6.1068   -2.0249 H   0  0  0  0  0  0  0  0  0  0  0  0
   17.6063    8.5037   -3.1755 N   0  0  0  0  0  0  0  0  0  0  0  0
   17.4519    9.5937   -3.7274 O   0  0  0  0  0  0  0  0  0  0  0  0
   18.6861    8.0662   -2.7784 O   0  0  0  0  0  0  0  0  0  0  0  0
    9.8343    7.3465    1.1095 N   0  0  0  0  0  0  0  0  0  0  0  0
   10.0683    6.4747    0.4721 N   0  0  0  0  0  0  0  0  0  0  0  0
   12.8198    4.1386   -2.0057 C   0  0  0  0  0  0  0  0  0  0  0  0
   13.7191    3.4173   -1.6523 O   0  0  0  0  0  0  0  0  0  0  0  0
   12.9770    5.4229   -2.4725 O   0  0  0  0  0  0  0  0  0  0  0  0
   11.3537    3.7917   -2.0063 C   0  0  0  0  0  0  0  0  0  0  0  0
   11.2303    2.7591   -1.6819 H   0  0  0  0  0  0  0  0  0  0  0  0
   10.8137    4.4627   -1.3318 H   0  0  0  0  0  0  0  0  0  0  0  0
   10.9342    3.9243   -3.0077 H   0  0  0  0  0  0  0  0  0  0  0  0
  1  2  2  0  0  0  0
  1  6  1  0  0  0  0
  2  3  1  0  0  0  0
  3 18  1  0  0  0  0
  3  4  2  0  0  0  0
  4  9  1  0  0  0  0
  5  4  1  0  0  0  0
  5 10  1  0  0  0  0
  6  5  2  0  0  0  0
  7  1  1  0  0  0  0
  8  2  1  0  0  0  0
 11  6  1  0  0  0  0
 11 13  2  0  0  0  0
 12 11  2  0  0  0  0
 15 14  3  0  0  0  0
 16 17  2  0  0  0  0
 18 16  1  0  0  0  0
 19 16  1  0  0  0  0
 19 20  1  0  0  0  0
 19 21  1  0  0  0  0
 22 19  1  0  0  0  0
M  END
