Coordinates from ORCA-job 4-NO2-Ph-N2-OAc-B3LYPG-6-31G_dp-MTMO-d009-169-n750
 OpenBabel09051907553D

 22 20  0  0  0  0  0  0  0  0999 V2000
   15.6202    9.0561   -2.6939 C   0  0  0  0  0  0  0  0  0  0  0  0
   14.2957    8.9508   -2.2290 C   0  0  0  0  0  0  0  0  0  0  0  0
   14.0249    7.6228   -2.0164 C   0  0  0  0  0  0  0  0  0  0  0  0
   14.6675    6.5506   -2.1406 C   0  0  0  0  0  0  0  0  0  0  0  0
   15.9877    6.5938   -2.5955 C   0  0  0  0  0  0  0  0  0  0  0  0
   16.4193    7.9085   -2.8634 C   0  0  0  0  0  0  0  0  0  0  0  0
   16.0451   10.0245   -2.9292 H   0  0  0  0  0  0  0  0  0  0  0  0
   13.6392    9.7979   -2.0793 H   0  0  0  0  0  0  0  0  0  0  0  0
   13.7050    4.6800   -1.7855 H   0  0  0  0  0  0  0  0  0  0  0  0
   16.6481    5.7491   -2.7451 H   0  0  0  0  0  0  0  0  0  0  0  0
   17.7988    8.0955   -3.3537 N   0  0  0  0  0  0  0  0  0  0  0  0
   18.1751    9.2431   -3.5866 O   0  0  0  0  0  0  0  0  0  0  0  0
   18.4876    7.0877   -3.4986 O   0  0  0  0  0  0  0  0  0  0  0  0
   11.5398    7.7948   -1.1076 N   0  0  0  0  0  0  0  0  0  0  0  0
   10.7219    7.1825   -0.6864 N   0  0  0  0  0  0  0  0  0  0  0  0
   12.0951    3.7173   -2.0174 C   0  0  0  0  0  0  0  0  0  0  0  0
   13.4123    3.7455   -1.7229 O   0  0  0  0  0  0  0  0  0  0  0  0
   11.4528    4.7130   -2.2787 O   0  0  0  0  0  0  0  0  0  0  0  0
   11.5483    2.3111   -1.9727 C   0  0  0  0  0  0  0  0  0  0  0  0
   11.6856    1.8904   -0.9718 H   0  0  0  0  0  0  0  0  0  0  0  0
   10.4897    2.3234   -2.2294 H   0  0  0  0  0  0  0  0  0  0  0  0
   12.0975    1.6730   -2.6709 H   0  0  0  0  0  0  0  0  0  0  0  0
  1  2  1  0  0  0  0
  2  8  1  0  0  0  0
  2  3  2  0  0  0  0
  4  3  1  0  0  0  0
  5  4  2  0  0  0  0
  6  1  2  0  0  0  0
  6  5  1  0  0  0  0
  7  1  1  0  0  0  0
  9 17  1  0  0  0  0
 10  5  1  0  0  0  0
 11  6  1  0  0  0  0
 12 11  2  0  0  0  0
 13 11  2  0  0  0  0
 14 15  3  0  0  0  0
 16 19  1  0  0  0  0
 16 17  1  0  0  0  0
 18 16  2  0  0  0  0
 19 20  1  0  0  0  0
 21 19  1  0  0  0  0
 22 19  1  0  0  0  0
M  RAD  2   3   2   4   2
M  END
