Coordinates from ORCA-job 4-NO2-Ph-N2-OAc-B3LYPG-6-31G_dp-MTMO-d009-169-n750
 OpenBabel09051907563D

 22 21  0  0  0  0  0  0  0  0999 V2000
   15.8170    8.6171   -3.5303 C   0  0  0  0  0  0  0  0  0  0  0  0
   14.7740    7.7042   -3.4768 C   0  0  0  0  0  0  0  0  0  0  0  0
   14.9656    6.4505   -2.8789 C   0  0  0  0  0  0  0  0  0  0  0  0
   16.2040    6.0969   -2.3269 C   0  0  0  0  0  0  0  0  0  0  0  0
   17.2488    7.0173   -2.3831 C   0  0  0  0  0  0  0  0  0  0  0  0
   17.0480    8.2590   -2.9797 C   0  0  0  0  0  0  0  0  0  0  0  0
   15.6977    9.5917   -3.9855 H   0  0  0  0  0  0  0  0  0  0  0  0
   13.8009    7.9407   -3.8922 H   0  0  0  0  0  0  0  0  0  0  0  0
   16.3445    5.1294   -1.8718 H   0  0  0  0  0  0  0  0  0  0  0  0
   18.2203    6.7805   -1.9678 H   0  0  0  0  0  0  0  0  0  0  0  0
   18.1586    9.2168   -3.0324 N   0  0  0  0  0  0  0  0  0  0  0  0
   17.9459   10.3080   -3.5621 O   0  0  0  0  0  0  0  0  0  0  0  0
   19.2352    8.8727   -2.5452 O   0  0  0  0  0  0  0  0  0  0  0  0
    1.7980    2.8182    3.4192 N   0  0  0  0  0  0  0  0  0  0  0  0
    2.7396    3.0441    2.8864 N   0  0  0  0  0  0  0  0  0  0  0  0
   13.7486    4.3636   -2.4496 C   0  0  0  0  0  0  0  0  0  0  0  0
   14.6645    3.7358   -1.9796 O   0  0  0  0  0  0  0  0  0  0  0  0
   13.8280    5.6608   -2.8972 O   0  0  0  0  0  0  0  0  0  0  0  0
   12.3404    3.8621   -2.6428 C   0  0  0  0  0  0  0  0  0  0  0  0
   12.2760    2.8322   -2.2943 H   0  0  0  0  0  0  0  0  0  0  0  0
   11.6395    4.4900   -2.0853 H   0  0  0  0  0  0  0  0  0  0  0  0
   12.0623    3.9196   -3.6991 H   0  0  0  0  0  0  0  0  0  0  0  0
  1  2  2  0  0  0  0
  1  6  1  0  0  0  0
  2  3  1  0  0  0  0
  3  4  2  0  0  0  0
  4  9  1  0  0  0  0
  5  4  1  0  0  0  0
  5 10  1  0  0  0  0
  6  5  2  0  0  0  0
  7  1  1  0  0  0  0
  8  2  1  0  0  0  0
 11  6  1  0  0  0  0
 11 13  2  0  0  0  0
 12 11  2  0  0  0  0
 15 14  3  0  0  0  0
 16 17  2  0  0  0  0
 18  3  1  0  0  0  0
 18 16  1  0  0  0  0
 19 16  1  0  0  0  0
 19 20  1  0  0  0  0
 19 21  1  0  0  0  0
 22 19  1  0  0  0  0
M  END
