Coordinates from ORCA-job 4-NO2-Ph-N2-OAc-B3LYPG-6-31G_dp-MTMO-d009-169-n750
 OpenBabel09051907563D

 22 21  0  0  0  0  0  0  0  0999 V2000
   15.5987    8.5511   -3.4340 C   0  0  0  0  0  0  0  0  0  0  0  0
   14.5522    7.6423   -3.3797 C   0  0  0  0  0  0  0  0  0  0  0  0
   14.7375    6.3902   -2.7765 C   0  0  0  0  0  0  0  0  0  0  0  0
   15.9731    6.0341   -2.2199 C   0  0  0  0  0  0  0  0  0  0  0  0
   17.0215    6.9504   -2.2769 C   0  0  0  0  0  0  0  0  0  0  0  0
   16.8269    8.1905   -2.8788 C   0  0  0  0  0  0  0  0  0  0  0  0
   15.4842    9.5244   -3.8932 H   0  0  0  0  0  0  0  0  0  0  0  0
   13.5810    7.8808   -3.7986 H   0  0  0  0  0  0  0  0  0  0  0  0
   16.1085    5.0680   -1.7602 H   0  0  0  0  0  0  0  0  0  0  0  0
   17.9910    6.7115   -1.8582 H   0  0  0  0  0  0  0  0  0  0  0  0
   17.9412    9.1440   -2.9324 N   0  0  0  0  0  0  0  0  0  0  0  0
   17.7339   10.2339   -3.4667 O   0  0  0  0  0  0  0  0  0  0  0  0
   19.0153    8.7977   -2.4410 O   0  0  0  0  0  0  0  0  0  0  0  0
    4.0873    3.4232    2.3829 N   0  0  0  0  0  0  0  0  0  0  0  0
    5.0214    3.6523    1.8384 N   0  0  0  0  0  0  0  0  0  0  0  0
   13.5086    4.3130   -2.3339 C   0  0  0  0  0  0  0  0  0  0  0  0
   14.4172    3.6877   -1.8465 O   0  0  0  0  0  0  0  0  0  0  0  0
   13.5973    5.6042   -2.7964 O   0  0  0  0  0  0  0  0  0  0  0  0
   12.1008    3.8139   -2.5361 C   0  0  0  0  0  0  0  0  0  0  0  0
   12.0282    2.7898   -2.1726 H   0  0  0  0  0  0  0  0  0  0  0  0
   11.3952    4.4529   -1.9977 H   0  0  0  0  0  0  0  0  0  0  0  0
   11.8363    3.8556   -3.5967 H   0  0  0  0  0  0  0  0  0  0  0  0
  1  2  2  0  0  0  0
  1  6  1  0  0  0  0
  2  3  1  0  0  0  0
  3  4  2  0  0  0  0
  4  9  1  0  0  0  0
  5  4  1  0  0  0  0
  5 10  1  0  0  0  0
  6  5  2  0  0  0  0
  7  1  1  0  0  0  0
  8  2  1  0  0  0  0
 11  6  1  0  0  0  0
 11 13  2  0  0  0  0
 12 11  2  0  0  0  0
 15 14  3  0  0  0  0
 16 17  2  0  0  0  0
 18  3  1  0  0  0  0
 18 16  1  0  0  0  0
 19 16  1  0  0  0  0
 19 20  1  0  0  0  0
 19 21  1  0  0  0  0
 22 19  1  0  0  0  0
M  END
