Coordinates from ORCA-job 4-NO2-Ph-N2-OAc-B3LYPG-6-31G_dp-MTMO-d009-169-n750
 OpenBabel09051907563D

 22 21  0  0  0  0  0  0  0  0999 V2000
   15.8793    8.6349   -3.5586 C   0  0  0  0  0  0  0  0  0  0  0  0
   14.8368    7.7216   -3.5053 C   0  0  0  0  0  0  0  0  0  0  0  0
   15.0290    6.4678   -2.9078 C   0  0  0  0  0  0  0  0  0  0  0  0
   16.2676    6.1146   -2.3559 C   0  0  0  0  0  0  0  0  0  0  0  0
   17.3120    7.0355   -2.4119 C   0  0  0  0  0  0  0  0  0  0  0  0
   17.1105    8.2773   -3.0082 C   0  0  0  0  0  0  0  0  0  0  0  0
   15.7595    9.6096   -4.0136 H   0  0  0  0  0  0  0  0  0  0  0  0
   13.8635    7.9577   -3.9206 H   0  0  0  0  0  0  0  0  0  0  0  0
   16.4086    5.1470   -1.9011 H   0  0  0  0  0  0  0  0  0  0  0  0
   18.2835    6.7991   -1.9967 H   0  0  0  0  0  0  0  0  0  0  0  0
   18.2206    9.2357   -3.0607 N   0  0  0  0  0  0  0  0  0  0  0  0
   18.0074   10.3269   -3.5900 O   0  0  0  0  0  0  0  0  0  0  0  0
   19.2974    8.8919   -2.5736 O   0  0  0  0  0  0  0  0  0  0  0  0
    1.1633    2.6453    3.7089 N   0  0  0  0  0  0  0  0  0  0  0  0
    2.1058    2.8699    3.1770 N   0  0  0  0  0  0  0  0  0  0  0  0
   13.8134    4.3798   -2.4800 C   0  0  0  0  0  0  0  0  0  0  0  0
   14.7300    3.7518   -2.0116 O   0  0  0  0  0  0  0  0  0  0  0  0
   13.8917    5.6775   -2.9261 O   0  0  0  0  0  0  0  0  0  0  0  0
   12.4052    3.8779   -2.6723 C   0  0  0  0  0  0  0  0  0  0  0  0
   12.3419    2.8472   -2.3262 H   0  0  0  0  0  0  0  0  0  0  0  0
   11.7049    4.5041   -2.1122 H   0  0  0  0  0  0  0  0  0  0  0  0
   12.1253    3.9378   -3.7280 H   0  0  0  0  0  0  0  0  0  0  0  0
  1  2  2  0  0  0  0
  1  6  1  0  0  0  0
  2  3  1  0  0  0  0
  3  4  2  0  0  0  0
  4  9  1  0  0  0  0
  5  4  1  0  0  0  0
  5 10  1  0  0  0  0
  6  5  2  0  0  0  0
  7  1  1  0  0  0  0
  8  2  1  0  0  0  0
 11  6  1  0  0  0  0
 11 13  2  0  0  0  0
 12 11  2  0  0  0  0
 15 14  3  0  0  0  0
 16 17  2  0  0  0  0
 18  3  1  0  0  0  0
 18 16  1  0  0  0  0
 19 16  1  0  0  0  0
 19 20  1  0  0  0  0
 19 21  1  0  0  0  0
 22 19  1  0  0  0  0
M  END
