Coordinates from ORCA-job 4-NO2-Ph-N2-OAc-B3LYPG-6-31G_dp-MTMO-d009-169-n750
 OpenBabel09051907553D

 22 21  0  0  0  0  0  0  0  0999 V2000
   14.9947    8.1507   -3.2359 C   0  0  0  0  0  0  0  0  0  0  0  0
   13.8988    7.3156   -3.0762 C   0  0  0  0  0  0  0  0  0  0  0  0
   14.0612    6.0391   -2.5190 C   0  0  0  0  0  0  0  0  0  0  0  0
   15.3235    5.5853   -2.1135 C   0  0  0  0  0  0  0  0  0  0  0  0
   16.4214    6.4278   -2.2760 C   0  0  0  0  0  0  0  0  0  0  0  0
   16.2490    7.6927   -2.8316 C   0  0  0  0  0  0  0  0  0  0  0  0
   14.8987    9.1403   -3.6633 H   0  0  0  0  0  0  0  0  0  0  0  0
   12.9061    7.6313   -3.3768 H   0  0  0  0  0  0  0  0  0  0  0  0
   15.4410    4.6010   -1.6890 H   0  0  0  0  0  0  0  0  0  0  0  0
   17.4125    6.1125   -1.9745 H   0  0  0  0  0  0  0  0  0  0  0  0
   17.4154    8.5681   -2.9968 N   0  0  0  0  0  0  0  0  0  0  0  0
   17.2281    9.6804   -3.4909 O   0  0  0  0  0  0  0  0  0  0  0  0
   18.5097    8.1386   -2.6322 O   0  0  0  0  0  0  0  0  0  0  0  0
   11.3093    7.8763    0.0511 N   0  0  0  0  0  0  0  0  0  0  0  0
   11.0731    6.8001   -0.0348 N   0  0  0  0  0  0  0  0  0  0  0  0
   12.7522    4.0259   -2.0124 C   0  0  0  0  0  0  0  0  0  0  0  0
   13.6716    3.3160   -1.6899 O   0  0  0  0  0  0  0  0  0  0  0  0
   12.8724    5.3368   -2.4136 O   0  0  0  0  0  0  0  0  0  0  0  0
   11.2980    3.6337   -2.0428 C   0  0  0  0  0  0  0  0  0  0  0  0
   11.2022    2.5906   -1.7439 H   0  0  0  0  0  0  0  0  0  0  0  0
   10.7271    4.2735   -1.3642 H   0  0  0  0  0  0  0  0  0  0  0  0
   10.8912    3.7749   -3.0485 H   0  0  0  0  0  0  0  0  0  0  0  0
  1  2  2  0  0  0  0
  1  6  1  0  0  0  0
  2  3  1  0  0  0  0
  3 18  1  0  0  0  0
  3  4  2  0  0  0  0
  4  9  1  0  0  0  0
  5  4  1  0  0  0  0
  5 10  1  0  0  0  0
  6  5  2  0  0  0  0
  7  1  1  0  0  0  0
  8  2  1  0  0  0  0
 11  6  1  0  0  0  0
 11 13  2  0  0  0  0
 12 11  2  0  0  0  0
 15 14  3  0  0  0  0
 16 17  2  0  0  0  0
 18 16  1  0  0  0  0
 19 16  1  0  0  0  0
 19 20  1  0  0  0  0
 19 21  1  0  0  0  0
 22 19  1  0  0  0  0
M  END
