Coordinates from ORCA-job 4-NO2-Ph-N2-OAc-B3LYPG-6-31G_dp-MTMO-d009-169-n750
 OpenBabel09051907563D

 22 21  0  0  0  0  0  0  0  0999 V2000
   15.4943    8.5195   -3.3882 C   0  0  0  0  0  0  0  0  0  0  0  0
   14.4487    7.6093   -3.3400 C   0  0  0  0  0  0  0  0  0  0  0  0
   14.6318    6.3581   -2.7343 C   0  0  0  0  0  0  0  0  0  0  0  0
   15.8642    6.0043   -2.1691 C   0  0  0  0  0  0  0  0  0  0  0  0
   16.9117    6.9220   -2.2201 C   0  0  0  0  0  0  0  0  0  0  0  0
   16.7193    8.1613   -2.8245 C   0  0  0  0  0  0  0  0  0  0  0  0
   15.3815    9.4922   -3.8492 H   0  0  0  0  0  0  0  0  0  0  0  0
   13.4801    7.8459   -3.7657 H   0  0  0  0  0  0  0  0  0  0  0  0
   15.9977    5.0391   -1.7070 H   0  0  0  0  0  0  0  0  0  0  0  0
   17.8787    6.6850   -1.7948 H   0  0  0  0  0  0  0  0  0  0  0  0
   17.8326    9.1162   -2.8718 N   0  0  0  0  0  0  0  0  0  0  0  0
   17.6273   10.2052   -3.4088 O   0  0  0  0  0  0  0  0  0  0  0  0
   18.9039    8.7720   -2.3729 O   0  0  0  0  0  0  0  0  0  0  0  0
    5.1692    3.7433    1.9465 N   0  0  0  0  0  0  0  0  0  0  0  0
    6.0775    3.9475    1.3507 N   0  0  0  0  0  0  0  0  0  0  0  0
   13.3997    4.2834   -2.2878 C   0  0  0  0  0  0  0  0  0  0  0  0
   14.3016    3.6652   -1.7795 O   0  0  0  0  0  0  0  0  0  0  0  0
   13.4935    5.5696   -2.7631 O   0  0  0  0  0  0  0  0  0  0  0  0
   11.9960    3.7796   -2.5063 C   0  0  0  0  0  0  0  0  0  0  0  0
   11.9201    2.7583   -2.1356 H   0  0  0  0  0  0  0  0  0  0  0  0
   11.2817    4.4214   -1.9826 H   0  0  0  0  0  0  0  0  0  0  0  0
   11.7463    3.8126   -3.5707 H   0  0  0  0  0  0  0  0  0  0  0  0
  1  2  2  0  0  0  0
  1  6  1  0  0  0  0
  2  3  1  0  0  0  0
  3  4  2  0  0  0  0
  4  9  1  0  0  0  0
  5  4  1  0  0  0  0
  5 10  1  0  0  0  0
  6  5  2  0  0  0  0
  7  1  1  0  0  0  0
  8  2  1  0  0  0  0
 11  6  1  0  0  0  0
 11 13  2  0  0  0  0
 12 11  2  0  0  0  0
 15 14  3  0  0  0  0
 16 17  2  0  0  0  0
 18  3  1  0  0  0  0
 18 16  1  0  0  0  0
 19 16  1  0  0  0  0
 19 20  1  0  0  0  0
 19 21  1  0  0  0  0
 22 19  1  0  0  0  0
M  END
