Coordinates from ORCA-job 4-NO2-Ph-N2-OAc-B3LYPG-6-31G_dp-MTMO-d009-169-n750
 OpenBabel09051907563D

 22 21  0  0  0  0  0  0  0  0999 V2000
   15.4698    8.5073   -3.3762 C   0  0  0  0  0  0  0  0  0  0  0  0
   14.3907    7.6453   -3.2472 C   0  0  0  0  0  0  0  0  0  0  0  0
   14.5586    6.3931   -2.6393 C   0  0  0  0  0  0  0  0  0  0  0  0
   15.8093    5.9899   -2.1528 C   0  0  0  0  0  0  0  0  0  0  0  0
   16.8904    6.8592   -2.2847 C   0  0  0  0  0  0  0  0  0  0  0  0
   16.7127    8.1000   -2.8905 C   0  0  0  0  0  0  0  0  0  0  0  0
   15.3693    9.4795   -3.8408 H   0  0  0  0  0  0  0  0  0  0  0  0
   13.4072    7.9213   -3.6104 H   0  0  0  0  0  0  0  0  0  0  0  0
   15.9314    5.0233   -1.6905 H   0  0  0  0  0  0  0  0  0  0  0  0
   17.8721    6.5833   -1.9209 H   0  0  0  0  0  0  0  0  0  0  0  0
   17.8613    9.0041   -3.0225 N   0  0  0  0  0  0  0  0  0  0  0  0
   17.6691   10.0957   -3.5589 O   0  0  0  0  0  0  0  0  0  0  0  0
   18.9468    8.6175   -2.5900 O   0  0  0  0  0  0  0  0  0  0  0  0
    5.7972    3.5475    1.2522 N   0  0  0  0  0  0  0  0  0  0  0  0
    6.7343    3.7868    0.7171 N   0  0  0  0  0  0  0  0  0  0  0  0
   13.2776    4.3661   -2.1206 C   0  0  0  0  0  0  0  0  0  0  0  0
   14.1948    3.6940   -1.7194 O   0  0  0  0  0  0  0  0  0  0  0  0
   13.3860    5.6591   -2.5743 O   0  0  0  0  0  0  0  0  0  0  0  0
   11.8366    3.9332   -2.2082 C   0  0  0  0  0  0  0  0  0  0  0  0
   11.7496    2.9052   -1.8589 H   0  0  0  0  0  0  0  0  0  0  0  0
   11.2098    4.5896   -1.5977 H   0  0  0  0  0  0  0  0  0  0  0  0
   11.4827    4.0104   -3.2403 H   0  0  0  0  0  0  0  0  0  0  0  0
  1  2  2  0  0  0  0
  1  6  1  0  0  0  0
  2  3  1  0  0  0  0
  3 18  1  0  0  0  0
  3  4  2  0  0  0  0
  4  9  1  0  0  0  0
  5  4  1  0  0  0  0
  5 10  1  0  0  0  0
  6  5  2  0  0  0  0
  7  1  1  0  0  0  0
  8  2  1  0  0  0  0
 11  6  1  0  0  0  0
 11 13  2  0  0  0  0
 12 11  2  0  0  0  0
 15 14  3  0  0  0  0
 16 17  2  0  0  0  0
 18 16  1  0  0  0  0
 19 16  1  0  0  0  0
 19 20  1  0  0  0  0
 19 21  1  0  0  0  0
 22 19  1  0  0  0  0
M  END
