Coordinates from ORCA-job 4-NO2-Ph-N2-OAc-B3LYPG-6-31G_dp-MTMO-d009-169-n750
 OpenBabel09051907563D

 22 21  0  0  0  0  0  0  0  0999 V2000
   15.4477    8.4986   -3.3683 C   0  0  0  0  0  0  0  0  0  0  0  0
   14.3669    7.6392   -3.2374 C   0  0  0  0  0  0  0  0  0  0  0  0
   14.5324    6.3874   -2.6278 C   0  0  0  0  0  0  0  0  0  0  0  0
   15.7826    5.9822   -2.1417 C   0  0  0  0  0  0  0  0  0  0  0  0
   16.8655    6.8490   -2.2755 C   0  0  0  0  0  0  0  0  0  0  0  0
   16.6901    8.0894   -2.8829 C   0  0  0  0  0  0  0  0  0  0  0  0
   15.3490    9.4705   -3.8341 H   0  0  0  0  0  0  0  0  0  0  0  0
   13.3837    7.9168   -3.6003 H   0  0  0  0  0  0  0  0  0  0  0  0
   15.9029    5.0160   -1.6781 H   0  0  0  0  0  0  0  0  0  0  0  0
   17.8469    6.5714   -1.9121 H   0  0  0  0  0  0  0  0  0  0  0  0
   17.8405    8.9907   -3.0170 N   0  0  0  0  0  0  0  0  0  0  0  0
   17.6503   10.0820   -3.5548 O   0  0  0  0  0  0  0  0  0  0  0  0
   18.9256    8.6024   -2.5848 O   0  0  0  0  0  0  0  0  0  0  0  0
    6.0580    3.6062    1.1333 N   0  0  0  0  0  0  0  0  0  0  0  0
    6.9962    3.8501    0.6022 N   0  0  0  0  0  0  0  0  0  0  0  0
   13.2468    4.3649   -2.1030 C   0  0  0  0  0  0  0  0  0  0  0  0
   14.1622    3.6925   -1.6982 O   0  0  0  0  0  0  0  0  0  0  0  0
   13.3583    5.6559   -2.5615 O   0  0  0  0  0  0  0  0  0  0  0  0
   11.8050    3.9347   -2.1903 C   0  0  0  0  0  0  0  0  0  0  0  0
   11.7163    2.9066   -1.8417 H   0  0  0  0  0  0  0  0  0  0  0  0
   11.1797    4.5915   -1.5787 H   0  0  0  0  0  0  0  0  0  0  0  0
   11.4505    4.0135   -3.2221 H   0  0  0  0  0  0  0  0  0  0  0  0
  1  2  2  0  0  0  0
  1  6  1  0  0  0  0
  2  3  1  0  0  0  0
  3 18  1  0  0  0  0
  3  4  2  0  0  0  0
  4  9  1  0  0  0  0
  5  4  1  0  0  0  0
  5 10  1  0  0  0  0
  6  5  2  0  0  0  0
  7  1  1  0  0  0  0
  8  2  1  0  0  0  0
 11  6  1  0  0  0  0
 11 13  2  0  0  0  0
 12 11  2  0  0  0  0
 15 14  3  0  0  0  0
 16 17  2  0  0  0  0
 18 16  1  0  0  0  0
 19 16  1  0  0  0  0
 19 20  1  0  0  0  0
 19 21  1  0  0  0  0
 22 19  1  0  0  0  0
M  END
