Coordinates from ORCA-job 4-NO2-Ph-N2-OAc-B3LYPG-6-31G_dp-MTMO-d009-169-n750
 OpenBabel09051907553D

 22 21  0  0  0  0  0  0  0  0999 V2000
   14.9997    8.1498   -3.2421 C   0  0  0  0  0  0  0  0  0  0  0  0
   13.9030    7.3161   -3.0807 C   0  0  0  0  0  0  0  0  0  0  0  0
   14.0638    6.0412   -2.5196 C   0  0  0  0  0  0  0  0  0  0  0  0
   15.3253    5.5875   -2.1116 C   0  0  0  0  0  0  0  0  0  0  0  0
   16.4242    6.4286   -2.2757 C   0  0  0  0  0  0  0  0  0  0  0  0
   16.2533    7.6919   -2.8354 C   0  0  0  0  0  0  0  0  0  0  0  0
   14.9049    9.1382   -3.6726 H   0  0  0  0  0  0  0  0  0  0  0  0
   12.9109    7.6317   -3.3832 H   0  0  0  0  0  0  0  0  0  0  0  0
   15.4417    4.6043   -1.6842 H   0  0  0  0  0  0  0  0  0  0  0  0
   17.4146    6.1133   -1.9725 H   0  0  0  0  0  0  0  0  0  0  0  0
   17.4206    8.5657   -3.0022 N   0  0  0  0  0  0  0  0  0  0  0  0
   17.2347    9.6768   -3.4996 O   0  0  0  0  0  0  0  0  0  0  0  0
   18.5142    8.1362   -2.6357 O   0  0  0  0  0  0  0  0  0  0  0  0
   11.2704    7.8669    0.0837 N   0  0  0  0  0  0  0  0  0  0  0  0
   11.0508    6.7889   -0.0219 N   0  0  0  0  0  0  0  0  0  0  0  0
   12.7537    4.0291   -2.0131 C   0  0  0  0  0  0  0  0  0  0  0  0
   13.6730    3.3185   -1.6915 O   0  0  0  0  0  0  0  0  0  0  0  0
   12.8743    5.3404   -2.4128 O   0  0  0  0  0  0  0  0  0  0  0  0
   11.2994    3.6371   -2.0440 C   0  0  0  0  0  0  0  0  0  0  0  0
   11.2038    2.5932   -1.7478 H   0  0  0  0  0  0  0  0  0  0  0  0
   10.7288    4.2750   -1.3633 H   0  0  0  0  0  0  0  0  0  0  0  0
   10.8921    3.7811   -3.0490 H   0  0  0  0  0  0  0  0  0  0  0  0
  1  2  2  0  0  0  0
  1  6  1  0  0  0  0
  2  3  1  0  0  0  0
  3 18  1  0  0  0  0
  3  4  2  0  0  0  0
  4  9  1  0  0  0  0
  5  4  1  0  0  0  0
  5 10  1  0  0  0  0
  6  5  2  0  0  0  0
  7  1  1  0  0  0  0
  8  2  1  0  0  0  0
 11  6  1  0  0  0  0
 11 13  2  0  0  0  0
 12 11  2  0  0  0  0
 15 14  3  0  0  0  0
 16 17  2  0  0  0  0
 18 16  1  0  0  0  0
 19 16  1  0  0  0  0
 19 20  1  0  0  0  0
 19 21  1  0  0  0  0
 22 19  1  0  0  0  0
M  END
