Coordinates from ORCA-job 4-NO2-Ph-N2-OAc-B3LYPG-6-31G_dp-MTMO-d009-169-n750
 OpenBabel09051907563D

 22 21  0  0  0  0  0  0  0  0999 V2000
   15.8631    8.6300   -3.5514 C   0  0  0  0  0  0  0  0  0  0  0  0
   14.8200    7.7173   -3.4973 C   0  0  0  0  0  0  0  0  0  0  0  0
   15.0119    6.4635   -2.8996 C   0  0  0  0  0  0  0  0  0  0  0  0
   16.2505    6.1098   -2.3483 C   0  0  0  0  0  0  0  0  0  0  0  0
   17.2954    7.0301   -2.4051 C   0  0  0  0  0  0  0  0  0  0  0  0
   17.0943    8.2718   -3.0015 C   0  0  0  0  0  0  0  0  0  0  0  0
   15.7436    9.6047   -4.0065 H   0  0  0  0  0  0  0  0  0  0  0  0
   13.8467    7.9539   -3.9121 H   0  0  0  0  0  0  0  0  0  0  0  0
   16.3912    5.1422   -1.8933 H   0  0  0  0  0  0  0  0  0  0  0  0
   18.2670    6.7932   -1.9902 H   0  0  0  0  0  0  0  0  0  0  0  0
   18.2050    9.2296   -3.0547 N   0  0  0  0  0  0  0  0  0  0  0  0
   17.9921   10.3208   -3.5842 O   0  0  0  0  0  0  0  0  0  0  0  0
   19.2818    8.8853   -2.5681 O   0  0  0  0  0  0  0  0  0  0  0  0
    1.3346    2.6886    3.6283 N   0  0  0  0  0  0  0  0  0  0  0  0
    2.2770    2.9144    3.0966 N   0  0  0  0  0  0  0  0  0  0  0  0
   13.7951    4.3766   -2.4705 C   0  0  0  0  0  0  0  0  0  0  0  0
   14.7115    3.7481   -2.0023 O   0  0  0  0  0  0  0  0  0  0  0  0
   13.8741    5.6740   -2.9171 O   0  0  0  0  0  0  0  0  0  0  0  0
   12.3865    3.8755   -2.6620 C   0  0  0  0  0  0  0  0  0  0  0  0
   12.3228    2.8451   -2.3149 H   0  0  0  0  0  0  0  0  0  0  0  0
   11.6864    4.5024   -2.1026 H   0  0  0  0  0  0  0  0  0  0  0  0
   12.1067    3.9344   -3.7178 H   0  0  0  0  0  0  0  0  0  0  0  0
  1  2  2  0  0  0  0
  1  6  1  0  0  0  0
  2  3  1  0  0  0  0
  3  4  2  0  0  0  0
  4  9  1  0  0  0  0
  5  4  1  0  0  0  0
  5 10  1  0  0  0  0
  6  5  2  0  0  0  0
  7  1  1  0  0  0  0
  8  2  1  0  0  0  0
 11  6  1  0  0  0  0
 11 13  2  0  0  0  0
 12 11  2  0  0  0  0
 15 14  3  0  0  0  0
 16 17  2  0  0  0  0
 18  3  1  0  0  0  0
 18 16  1  0  0  0  0
 19 16  1  0  0  0  0
 19 20  1  0  0  0  0
 19 21  1  0  0  0  0
 22 19  1  0  0  0  0
M  END
