Coordinates from ORCA-job 4-NO2-Ph-N2-OAc-B3LYPG-6-31G_dp-MTMO-d009-169-n750
 OpenBabel09051907563D

 22 21  0  0  0  0  0  0  0  0999 V2000
   15.7476    8.5962   -3.4997 C   0  0  0  0  0  0  0  0  0  0  0  0
   14.7037    7.6844   -3.4460 C   0  0  0  0  0  0  0  0  0  0  0  0
   14.8936    6.4312   -2.8466 C   0  0  0  0  0  0  0  0  0  0  0  0
   16.1313    6.0771   -2.2931 C   0  0  0  0  0  0  0  0  0  0  0  0
   17.1770    6.9965   -2.3495 C   0  0  0  0  0  0  0  0  0  0  0  0
   16.9778    8.2377   -2.9477 C   0  0  0  0  0  0  0  0  0  0  0  0
   15.6296    9.5704   -3.9562 H   0  0  0  0  0  0  0  0  0  0  0  0
   13.7312    7.9214   -3.8625 H   0  0  0  0  0  0  0  0  0  0  0  0
   16.2705    5.1100   -1.8367 H   0  0  0  0  0  0  0  0  0  0  0  0
   18.1479    6.7593   -1.9331 H   0  0  0  0  0  0  0  0  0  0  0  0
   18.0893    9.1945   -3.0005 N   0  0  0  0  0  0  0  0  0  0  0  0
   17.8780   10.2853   -3.5316 O   0  0  0  0  0  0  0  0  0  0  0  0
   19.1651    8.8500   -2.5118 O   0  0  0  0  0  0  0  0  0  0  0  0
    2.5193    3.0116    3.0901 N   0  0  0  0  0  0  0  0  0  0  0  0
    3.4604    3.2366    2.5559 N   0  0  0  0  0  0  0  0  0  0  0  0
   13.6738    4.3465   -2.4145 C   0  0  0  0  0  0  0  0  0  0  0  0
   14.5883    3.7188   -1.9415 O   0  0  0  0  0  0  0  0  0  0  0  0
   13.7553    5.6425   -2.8650 O   0  0  0  0  0  0  0  0  0  0  0  0
   12.2653    3.8461   -2.6085 C   0  0  0  0  0  0  0  0  0  0  0  0
   12.1991    2.8171   -2.2577 H   0  0  0  0  0  0  0  0  0  0  0  0
   11.5647    4.4762   -2.0531 H   0  0  0  0  0  0  0  0  0  0  0  0
   11.9884    3.9017   -3.6652 H   0  0  0  0  0  0  0  0  0  0  0  0
  1  2  2  0  0  0  0
  1  6  1  0  0  0  0
  2  3  1  0  0  0  0
  3  4  2  0  0  0  0
  4  9  1  0  0  0  0
  5  4  1  0  0  0  0
  5 10  1  0  0  0  0
  6  5  2  0  0  0  0
  7  1  1  0  0  0  0
  8  2  1  0  0  0  0
 11  6  1  0  0  0  0
 11 13  2  0  0  0  0
 12 11  2  0  0  0  0
 15 14  3  0  0  0  0
 16 17  2  0  0  0  0
 18  3  1  0  0  0  0
 18 16  1  0  0  0  0
 19 16  1  0  0  0  0
 19 20  1  0  0  0  0
 19 21  1  0  0  0  0
 22 19  1  0  0  0  0
M  END
