Coordinates from ORCA-job 4-NO2-Ph-N2-OAc-B3LYPG-6-31G_dp-MTMO-d009-169-n750
 OpenBabel09051907563D

 22 21  0  0  0  0  0  0  0  0999 V2000
   15.5856    8.5470   -3.4283 C   0  0  0  0  0  0  0  0  0  0  0  0
   14.5389    7.6384   -3.3743 C   0  0  0  0  0  0  0  0  0  0  0  0
   14.7237    6.3865   -2.7706 C   0  0  0  0  0  0  0  0  0  0  0  0
   15.9590    6.0304   -2.2131 C   0  0  0  0  0  0  0  0  0  0  0  0
   17.0075    6.9465   -2.2699 C   0  0  0  0  0  0  0  0  0  0  0  0
   16.8134    8.1865   -2.8723 C   0  0  0  0  0  0  0  0  0  0  0  0
   15.4715    9.5202   -3.8879 H   0  0  0  0  0  0  0  0  0  0  0  0
   13.5681    7.8769   -3.7939 H   0  0  0  0  0  0  0  0  0  0  0  0
   16.0941    5.0644   -1.7531 H   0  0  0  0  0  0  0  0  0  0  0  0
   17.9767    6.7077   -1.8506 H   0  0  0  0  0  0  0  0  0  0  0  0
   17.9279    9.1398   -2.9256 N   0  0  0  0  0  0  0  0  0  0  0  0
   17.7210   10.2295   -3.4604 O   0  0  0  0  0  0  0  0  0  0  0  0
   19.0016    8.7935   -2.4335 O   0  0  0  0  0  0  0  0  0  0  0  0
    4.2261    3.4612    2.3237 N   0  0  0  0  0  0  0  0  0  0  0  0
    5.1584    3.6892    1.7756 N   0  0  0  0  0  0  0  0  0  0  0  0
   13.4941    4.3099   -2.3272 C   0  0  0  0  0  0  0  0  0  0  0  0
   14.4018    3.6852   -1.8375 O   0  0  0  0  0  0  0  0  0  0  0  0
   13.5836    5.6004   -2.7913 O   0  0  0  0  0  0  0  0  0  0  0  0
   12.0866    3.8104   -2.5312 C   0  0  0  0  0  0  0  0  0  0  0  0
   12.0135    2.7868   -2.1665 H   0  0  0  0  0  0  0  0  0  0  0  0
   11.3801    4.4501   -1.9947 H   0  0  0  0  0  0  0  0  0  0  0  0
   11.8239    3.8508   -3.5922 H   0  0  0  0  0  0  0  0  0  0  0  0
  1  2  2  0  0  0  0
  1  6  1  0  0  0  0
  2  3  1  0  0  0  0
  3  4  2  0  0  0  0
  4  9  1  0  0  0  0
  5  4  1  0  0  0  0
  5 10  1  0  0  0  0
  6  5  2  0  0  0  0
  7  1  1  0  0  0  0
  8  2  1  0  0  0  0
 11  6  1  0  0  0  0
 11 13  2  0  0  0  0
 12 11  2  0  0  0  0
 15 14  3  0  0  0  0
 16 17  2  0  0  0  0
 18  3  1  0  0  0  0
 18 16  1  0  0  0  0
 19 16  1  0  0  0  0
 19 20  1  0  0  0  0
 19 21  1  0  0  0  0
 22 19  1  0  0  0  0
M  END
