Coordinates from ORCA-job 4-NO2-Ph-N2-OAc-B3LYPG-6-31G_dp-MTMO-d009-169-n750
 OpenBabel09051907553D

 22 21  0  0  0  0  0  0  0  0999 V2000
   15.2183    8.6723   -3.0195 C   0  0  0  0  0  0  0  0  0  0  0  0
   14.0043    8.3940   -2.4278 C   0  0  0  0  0  0  0  0  0  0  0  0
   13.8252    7.1948   -1.6507 C   0  0  0  0  0  0  0  0  0  0  0  0
   14.9522    6.3059   -1.5096 C   0  0  0  0  0  0  0  0  0  0  0  0
   16.1621    6.6240   -2.0940 C   0  0  0  0  0  0  0  0  0  0  0  0
   16.2908    7.7957   -2.8407 C   0  0  0  0  0  0  0  0  0  0  0  0
   15.3569    9.5675   -3.6130 H   0  0  0  0  0  0  0  0  0  0  0  0
   13.1537    9.0557   -2.5504 H   0  0  0  0  0  0  0  0  0  0  0  0
   14.7888    5.3926   -0.9508 H   0  0  0  0  0  0  0  0  0  0  0  0
   17.0146    5.9634   -1.9911 H   0  0  0  0  0  0  0  0  0  0  0  0
   17.5813    8.1166   -3.4550 N   0  0  0  0  0  0  0  0  0  0  0  0
   17.6519    9.1515   -4.1188 O   0  0  0  0  0  0  0  0  0  0  0  0
   18.5106    7.3321   -3.2672 O   0  0  0  0  0  0  0  0  0  0  0  0
   12.8521    6.9606   -1.1626 N   0  0  0  0  0  0  0  0  0  0  0  0
   11.8451    6.5404   -0.7862 N   0  0  0  0  0  0  0  0  0  0  0  0
   11.9717    4.0845   -1.7414 C   0  0  0  0  0  0  0  0  0  0  0  0
   12.9874    4.0478   -1.0432 O   0  0  0  0  0  0  0  0  0  0  0  0
   11.2624    5.1471   -2.0087 O   0  0  0  0  0  0  0  0  0  0  0  0
   11.3942    2.8217   -2.3808 C   0  0  0  0  0  0  0  0  0  0  0  0
   10.5701    2.4589   -1.7579 H   0  0  0  0  0  0  0  0  0  0  0  0
   10.9942    3.0291   -3.3754 H   0  0  0  0  0  0  0  0  0  0  0  0
   12.1694    2.0552   -2.4299 H   0  0  0  0  0  0  0  0  0  0  0  0
  1  6  2  0  0  0  0
  1  2  1  0  0  0  0
  2  3  2  0  0  0  0
  3  4  1  0  0  0  0
  3 14  1  0  0  0  0
  4  9  1  0  0  0  0
  5 10  1  0  0  0  0
  5  4  2  0  0  0  0
  6  5  1  0  0  0  0
  7  1  1  0  0  0  0
  8  2  1  0  0  0  0
 11 13  2  0  0  0  0
 11  6  1  0  0  0  0
 12 11  2  0  0  0  0
 14 15  1  0  0  0  0
 16 17  1  0  0  0  0
 18 16  2  0  0  0  0
 19 20  1  0  0  0  0
 19 16  1  0  0  0  0
 21 19  1  0  0  0  0
 22 19  1  0  0  0  0
M  RAD  3  14   2  15   3  17   2
M  END
