Coordinates from ORCA-job 4-NO2-Ph-N2-OAc-B3LYPG-6-31G_dp-MTMO-d009-169-n750
 OpenBabel09051907563D

 22 21  0  0  0  0  0  0  0  0999 V2000
   15.2258    8.4198   -3.2844 C   0  0  0  0  0  0  0  0  0  0  0  0
   14.1735    7.5190   -3.2144 C   0  0  0  0  0  0  0  0  0  0  0  0
   14.3569    6.2670   -2.6101 C   0  0  0  0  0  0  0  0  0  0  0  0
   15.5970    5.9033   -2.0682 C   0  0  0  0  0  0  0  0  0  0  0  0
   16.6513    6.8116   -2.1411 C   0  0  0  0  0  0  0  0  0  0  0  0
   16.4583    8.0517   -2.7438 C   0  0  0  0  0  0  0  0  0  0  0  0
   15.1127    9.3927   -3.7447 H   0  0  0  0  0  0  0  0  0  0  0  0
   13.1989    7.7635   -3.6217 H   0  0  0  0  0  0  0  0  0  0  0  0
   15.7311    4.9372   -1.6082 H   0  0  0  0  0  0  0  0  0  0  0  0
   17.6242    6.5667   -1.7339 H   0  0  0  0  0  0  0  0  0  0  0  0
   17.5787    8.9967   -2.8137 N   0  0  0  0  0  0  0  0  0  0  0  0
   17.3728   10.0869   -3.3482 O   0  0  0  0  0  0  0  0  0  0  0  0
   18.6564    8.6438   -2.3350 O   0  0  0  0  0  0  0  0  0  0  0  0
    7.9102    4.8150    0.8010 N   0  0  0  0  0  0  0  0  0  0  0  0
    8.7860    4.7667    0.1288 N   0  0  0  0  0  0  0  0  0  0  0  0
   13.1197    4.1981   -2.1512 C   0  0  0  0  0  0  0  0  0  0  0  0
   14.0332    3.5655   -1.6827 O   0  0  0  0  0  0  0  0  0  0  0  0
   13.2105    5.4902   -2.6126 O   0  0  0  0  0  0  0  0  0  0  0  0
   11.7031    3.7126   -2.3187 C   0  0  0  0  0  0  0  0  0  0  0  0
   11.6562    2.6548   -2.0618 H   0  0  0  0  0  0  0  0  0  0  0  0
   11.0345    4.2790   -1.6632 H   0  0  0  0  0  0  0  0  0  0  0  0
   11.3660    3.8694   -3.3468 H   0  0  0  0  0  0  0  0  0  0  0  0
  1  2  2  0  0  0  0
  1  6  1  0  0  0  0
  2  3  1  0  0  0  0
  3  4  2  0  0  0  0
  4  9  1  0  0  0  0
  5  4  1  0  0  0  0
  5 10  1  0  0  0  0
  6  5  2  0  0  0  0
  7  1  1  0  0  0  0
  8  2  1  0  0  0  0
 11  6  1  0  0  0  0
 11 13  2  0  0  0  0
 12 11  2  0  0  0  0
 15 14  3  0  0  0  0
 16 17  2  0  0  0  0
 18  3  1  0  0  0  0
 18 16  1  0  0  0  0
 19 16  1  0  0  0  0
 19 20  1  0  0  0  0
 19 21  1  0  0  0  0
 22 19  1  0  0  0  0
M  END
