Coordinates from ORCA-job 4-NO2-Ph-N2-OAc-B3LYPG-6-31G_dp-MTMO-d009-169-n750
 OpenBabel09051907553D

 22 20  0  0  0  0  0  0  0  0999 V2000
   15.6278    9.0676   -2.6793 C   0  0  0  0  0  0  0  0  0  0  0  0
   14.3020    8.9949   -2.2125 C   0  0  0  0  0  0  0  0  0  0  0  0
   13.9954    7.6735   -2.0095 C   0  0  0  0  0  0  0  0  0  0  0  0
   14.6044    6.5815   -2.1416 C   0  0  0  0  0  0  0  0  0  0  0  0
   15.9253    6.5961   -2.5994 C   0  0  0  0  0  0  0  0  0  0  0  0
   16.3938    7.8995   -2.8588 C   0  0  0  0  0  0  0  0  0  0  0  0
   16.0786   10.0257   -2.9086 H   0  0  0  0  0  0  0  0  0  0  0  0
   13.6684    9.8579   -2.0552 H   0  0  0  0  0  0  0  0  0  0  0  0
   13.6825    4.7172   -1.7812 H   0  0  0  0  0  0  0  0  0  0  0  0
   16.5617    5.7344   -2.7564 H   0  0  0  0  0  0  0  0  0  0  0  0
   17.7772    8.0514   -3.3504 N   0  0  0  0  0  0  0  0  0  0  0  0
   18.1855    9.1900   -3.5742 O   0  0  0  0  0  0  0  0  0  0  0  0
   18.4369    7.0259   -3.5054 O   0  0  0  0  0  0  0  0  0  0  0  0
   11.5868    7.8211   -1.1365 N   0  0  0  0  0  0  0  0  0  0  0  0
   10.7818    7.1808   -0.7317 N   0  0  0  0  0  0  0  0  0  0  0  0
   12.0981    3.7128   -2.0173 C   0  0  0  0  0  0  0  0  0  0  0  0
   13.4127    3.7752   -1.7177 O   0  0  0  0  0  0  0  0  0  0  0  0
   11.4307    4.6912   -2.2815 O   0  0  0  0  0  0  0  0  0  0  0  0
   11.5879    2.2927   -1.9752 C   0  0  0  0  0  0  0  0  0  0  0  0
   11.7404    1.8722   -0.9764 H   0  0  0  0  0  0  0  0  0  0  0  0
   10.5284    2.2781   -2.2280 H   0  0  0  0  0  0  0  0  0  0  0  0
   12.1507    1.6716   -2.6779 H   0  0  0  0  0  0  0  0  0  0  0  0
  1  2  1  0  0  0  0
  2  8  1  0  0  0  0
  2  3  2  0  0  0  0
  4  3  1  0  0  0  0
  5  4  2  0  0  0  0
  6  1  2  0  0  0  0
  6  5  1  0  0  0  0
  7  1  1  0  0  0  0
  9 17  1  0  0  0  0
 10  5  1  0  0  0  0
 11  6  1  0  0  0  0
 12 11  2  0  0  0  0
 13 11  2  0  0  0  0
 14 15  3  0  0  0  0
 16 19  1  0  0  0  0
 16 17  1  0  0  0  0
 18 16  2  0  0  0  0
 19 20  1  0  0  0  0
 21 19  1  0  0  0  0
 22 19  1  0  0  0  0
M  RAD  2   3   2   4   2
M  END
