Coordinates from ORCA-job 4-NO2-Ph-N2-OAc-B3LYPG-6-31G_dp-MTMO-d009-169-n750
 OpenBabel09051907553D

 22 21  0  0  0  0  0  0  0  0999 V2000
   15.1410    8.1281   -3.4086 C   0  0  0  0  0  0  0  0  0  0  0  0
   14.0277    7.3202   -3.2312 C   0  0  0  0  0  0  0  0  0  0  0  0
   14.1544    6.0747   -2.5997 C   0  0  0  0  0  0  0  0  0  0  0  0
   15.3987    5.6246   -2.1379 C   0  0  0  0  0  0  0  0  0  0  0  0
   16.5144    6.4397   -2.3185 C   0  0  0  0  0  0  0  0  0  0  0  0
   16.3771    7.6742   -2.9473 C   0  0  0  0  0  0  0  0  0  0  0  0
   15.0723    9.0939   -3.8922 H   0  0  0  0  0  0  0  0  0  0  0  0
   13.0481    7.6336   -3.5743 H   0  0  0  0  0  0  0  0  0  0  0  0
   15.4894    4.6629   -1.6585 H   0  0  0  0  0  0  0  0  0  0  0  0
   17.4922    6.1262   -1.9751 H   0  0  0  0  0  0  0  0  0  0  0  0
   17.5616    8.5210   -3.1305 N   0  0  0  0  0  0  0  0  0  0  0  0
   17.4045    9.6085   -3.6866 O   0  0  0  0  0  0  0  0  0  0  0  0
   18.6399    8.0942   -2.7181 O   0  0  0  0  0  0  0  0  0  0  0  0
   10.1678    7.4600    1.0151 N   0  0  0  0  0  0  0  0  0  0  0  0
   10.3440    6.5584    0.4010 N   0  0  0  0  0  0  0  0  0  0  0  0
   12.8000    4.1146   -2.0149 C   0  0  0  0  0  0  0  0  0  0  0  0
   13.7006    3.4037   -1.6443 O   0  0  0  0  0  0  0  0  0  0  0  0
   12.9519    5.3986   -2.4842 O   0  0  0  0  0  0  0  0  0  0  0  0
   11.3377    3.7532   -2.0375 C   0  0  0  0  0  0  0  0  0  0  0  0
   11.2188    2.7215   -1.7089 H   0  0  0  0  0  0  0  0  0  0  0  0
   10.7814    4.4236   -1.3759 H   0  0  0  0  0  0  0  0  0  0  0  0
   10.9335    3.8760   -3.0465 H   0  0  0  0  0  0  0  0  0  0  0  0
  1  2  2  0  0  0  0
  1  6  1  0  0  0  0
  2  3  1  0  0  0  0
  3 18  1  0  0  0  0
  3  4  2  0  0  0  0
  4  9  1  0  0  0  0
  5  4  1  0  0  0  0
  5 10  1  0  0  0  0
  6  5  2  0  0  0  0
  7  1  1  0  0  0  0
  8  2  1  0  0  0  0
 11  6  1  0  0  0  0
 11 13  2  0  0  0  0
 12 11  2  0  0  0  0
 15 14  3  0  0  0  0
 16 17  2  0  0  0  0
 18 16  1  0  0  0  0
 19 16  1  0  0  0  0
 19 20  1  0  0  0  0
 19 21  1  0  0  0  0
 22 19  1  0  0  0  0
M  END
