Coordinates from ORCA-job 4-NO2-Ph-N2-OAc-B3LYPG-6-31G_dp-MTMO-d009-169-n750
 OpenBabel09051907563D

 22 21  0  0  0  0  0  0  0  0999 V2000
   15.5542    8.5372   -3.4148 C   0  0  0  0  0  0  0  0  0  0  0  0
   14.5075    7.6286   -3.3622 C   0  0  0  0  0  0  0  0  0  0  0  0
   14.6912    6.3771   -2.7573 C   0  0  0  0  0  0  0  0  0  0  0  0
   15.9254    6.0214   -2.1972 C   0  0  0  0  0  0  0  0  0  0  0  0
   16.9740    6.9376   -2.2526 C   0  0  0  0  0  0  0  0  0  0  0  0
   16.7810    8.1772   -2.8562 C   0  0  0  0  0  0  0  0  0  0  0  0
   15.4409    9.5101   -3.8752 H   0  0  0  0  0  0  0  0  0  0  0  0
   13.5374    7.8667   -3.7839 H   0  0  0  0  0  0  0  0  0  0  0  0
   16.0597    5.0559   -1.7361 H   0  0  0  0  0  0  0  0  0  0  0  0
   17.9425    6.6992   -1.8313 H   0  0  0  0  0  0  0  0  0  0  0  0
   17.8955    9.1305   -2.9080 N   0  0  0  0  0  0  0  0  0  0  0  0
   17.6896   10.2199   -3.4440 O   0  0  0  0  0  0  0  0  0  0  0  0
   18.9683    8.7847   -2.4137 O   0  0  0  0  0  0  0  0  0  0  0  0
    4.5570    3.5545    2.1863 N   0  0  0  0  0  0  0  0  0  0  0  0
    5.4835    3.7780    1.6266 N   0  0  0  0  0  0  0  0  0  0  0  0
   13.4600    4.3016   -2.3123 C   0  0  0  0  0  0  0  0  0  0  0  0
   14.3658    3.6787   -1.8167 O   0  0  0  0  0  0  0  0  0  0  0  0
   13.5513    5.5908   -2.7801 O   0  0  0  0  0  0  0  0  0  0  0  0
   12.0535    3.8014   -2.5206 C   0  0  0  0  0  0  0  0  0  0  0  0
   11.9789    2.7788   -2.1533 H   0  0  0  0  0  0  0  0  0  0  0  0
   11.3447    4.4425   -1.9889 H   0  0  0  0  0  0  0  0  0  0  0  0
   11.7951    3.8387   -3.5829 H   0  0  0  0  0  0  0  0  0  0  0  0
  1  2  2  0  0  0  0
  1  6  1  0  0  0  0
  2  3  1  0  0  0  0
  3  4  2  0  0  0  0
  4  9  1  0  0  0  0
  5  4  1  0  0  0  0
  5 10  1  0  0  0  0
  6  5  2  0  0  0  0
  7  1  1  0  0  0  0
  8  2  1  0  0  0  0
 11  6  1  0  0  0  0
 11 13  2  0  0  0  0
 12 11  2  0  0  0  0
 15 14  3  0  0  0  0
 16 17  2  0  0  0  0
 18  3  1  0  0  0  0
 18 16  1  0  0  0  0
 19 16  1  0  0  0  0
 19 20  1  0  0  0  0
 19 21  1  0  0  0  0
 22 19  1  0  0  0  0
M  END
