Coordinates from ORCA-job 4-NO2-Ph-N2-OAc-B3LYPG-6-31G_dp-MTMO-d009-169-n750
 OpenBabel09051907553D

 22 20  0  0  0  0  0  0  0  0999 V2000
   15.6173    9.0338   -2.7131 C   0  0  0  0  0  0  0  0  0  0  0  0
   14.2939    8.8735   -2.2593 C   0  0  0  0  0  0  0  0  0  0  0  0
   14.0783    7.5350   -2.0427 C   0  0  0  0  0  0  0  0  0  0  0  0
   14.7764    6.4993   -2.1606 C   0  0  0  0  0  0  0  0  0  0  0  0
   16.0963    6.5898   -2.6029 C   0  0  0  0  0  0  0  0  0  0  0  0
   16.4690    7.9230   -2.8716 C   0  0  0  0  0  0  0  0  0  0  0  0
   16.0018   10.0191   -2.9483 H   0  0  0  0  0  0  0  0  0  0  0  0
   13.6011    9.6928   -2.1191 H   0  0  0  0  0  0  0  0  0  0  0  0
   13.7333    4.6211   -1.8074 H   0  0  0  0  0  0  0  0  0  0  0  0
   16.7941    5.7745   -2.7440 H   0  0  0  0  0  0  0  0  0  0  0  0
   17.8428    8.1702   -3.3511 N   0  0  0  0  0  0  0  0  0  0  0  0
   18.1691    9.3325   -3.5860 O   0  0  0  0  0  0  0  0  0  0  0  0
   18.5773    7.1936   -3.4858 O   0  0  0  0  0  0  0  0  0  0  0  0
   11.4168    7.7701   -1.0686 N   0  0  0  0  0  0  0  0  0  0  0  0
   10.5687    7.2193   -0.6236 N   0  0  0  0  0  0  0  0  0  0  0  0
   12.0850    3.7204   -2.0033 C   0  0  0  0  0  0  0  0  0  0  0  0
   13.4122    3.6970   -1.7538 O   0  0  0  0  0  0  0  0  0  0  0  0
   11.4718    4.7430   -2.2270 O   0  0  0  0  0  0  0  0  0  0  0  0
   11.4898    2.3342   -1.9620 C   0  0  0  0  0  0  0  0  0  0  0  0
   11.6482    1.8903   -0.9741 H   0  0  0  0  0  0  0  0  0  0  0  0
   10.4238    2.3888   -2.1794 H   0  0  0  0  0  0  0  0  0  0  0  0
   11.9901    1.6900   -2.6909 H   0  0  0  0  0  0  0  0  0  0  0  0
  1  2  1  0  0  0  0
  2  8  1  0  0  0  0
  2  3  2  0  0  0  0
  4  3  1  0  0  0  0
  5  4  2  0  0  0  0
  6  1  2  0  0  0  0
  6  5  1  0  0  0  0
  7  1  1  0  0  0  0
  9 17  1  0  0  0  0
 10  5  1  0  0  0  0
 11  6  1  0  0  0  0
 12 11  2  0  0  0  0
 13 11  2  0  0  0  0
 14 15  3  0  0  0  0
 16 19  1  0  0  0  0
 16 17  1  0  0  0  0
 18 16  2  0  0  0  0
 19 20  1  0  0  0  0
 21 19  1  0  0  0  0
 22 19  1  0  0  0  0
M  RAD  2   3   2   4   2
M  END
