Coordinates from ORCA-job 4-NO2-Ph-N2-OAc-B3LYPG-6-31G_dp-MTMO-d009-169-n750
 OpenBabel09051907553D

 22 20  0  0  0  0  0  0  0  0999 V2000
   15.5901    8.9708   -2.7024 C   0  0  0  0  0  0  0  0  0  0  0  0
   14.2743    8.6848   -2.2896 C   0  0  0  0  0  0  0  0  0  0  0  0
   14.1676    7.3257   -2.1158 C   0  0  0  0  0  0  0  0  0  0  0  0
   14.9621    6.3651   -2.2479 C   0  0  0  0  0  0  0  0  0  0  0  0
   16.2791    6.5749   -2.6507 C   0  0  0  0  0  0  0  0  0  0  0  0
   16.5396    7.9436   -2.8702 C   0  0  0  0  0  0  0  0  0  0  0  0
   15.8936    9.9926   -2.8977 H   0  0  0  0  0  0  0  0  0  0  0  0
   13.5110    9.4375   -2.1448 H   0  0  0  0  0  0  0  0  0  0  0  0
   13.8275    4.4650   -1.9677 H   0  0  0  0  0  0  0  0  0  0  0  0
   17.0477    5.8273   -2.7973 H   0  0  0  0  0  0  0  0  0  0  0  0
   17.8978    8.3231   -3.3054 N   0  0  0  0  0  0  0  0  0  0  0  0
   18.1271    9.5157   -3.4994 O   0  0  0  0  0  0  0  0  0  0  0  0
   18.7177    7.4179   -3.4467 O   0  0  0  0  0  0  0  0  0  0  0  0
   11.2626    7.8045   -1.1445 N   0  0  0  0  0  0  0  0  0  0  0  0
   10.3177    7.4269   -0.7144 N   0  0  0  0  0  0  0  0  0  0  0  0
   12.0941    3.7188   -1.9307 C   0  0  0  0  0  0  0  0  0  0  0  0
   13.4361    3.5686   -1.9369 O   0  0  0  0  0  0  0  0  0  0  0  0
   11.5497    4.8031   -1.9507 O   0  0  0  0  0  0  0  0  0  0  0  0
   11.3876    2.3860   -1.8964 C   0  0  0  0  0  0  0  0  0  0  0  0
   11.6966    1.8220   -1.0108 H   0  0  0  0  0  0  0  0  0  0  0  0
   10.3099    2.5448   -1.8819 H   0  0  0  0  0  0  0  0  0  0  0  0
   11.6677    1.7927   -2.7725 H   0  0  0  0  0  0  0  0  0  0  0  0
  1  2  1  0  0  0  0
  2  8  1  0  0  0  0
  2  3  2  0  0  0  0
  4  3  1  0  0  0  0
  5  4  2  0  0  0  0
  6  1  2  0  0  0  0
  6  5  1  0  0  0  0
  7  1  1  0  0  0  0
  9 17  1  0  0  0  0
 10  5  1  0  0  0  0
 11  6  1  0  0  0  0
 12 11  2  0  0  0  0
 13 11  2  0  0  0  0
 14 15  3  0  0  0  0
 16 19  1  0  0  0  0
 17 16  1  0  0  0  0
 18 16  2  0  0  0  0
 19 21  1  0  0  0  0
 19 20  1  0  0  0  0
 22 19  1  0  0  0  0
M  RAD  2   3   2   4   2
M  END
