Coordinates from ORCA-job 4-NO2-Ph-N2-OAc-B3LYPG-6-31G_dp-MTMO-d009-169-n750
 OpenBabel09051907553D

 22 22  0  0  0  0  0  0  0  0999 V2000
   15.1601    8.4514   -3.1778 C   0  0  0  0  0  0  0  0  0  0  0  0
   13.9609    8.0121   -2.6940 C   0  0  0  0  0  0  0  0  0  0  0  0
   13.8637    6.8880   -1.6940 C   0  0  0  0  0  0  0  0  0  0  0  0
   15.2151    6.3140   -1.3515 C   0  0  0  0  0  0  0  0  0  0  0  0
   16.3659    6.8051   -1.8957 C   0  0  0  0  0  0  0  0  0  0  0  0
   16.3757    7.8728   -2.8012 C   0  0  0  0  0  0  0  0  0  0  0  0
   15.1699    9.2775   -3.8821 H   0  0  0  0  0  0  0  0  0  0  0  0
   13.0058    8.4474   -2.9606 H   0  0  0  0  0  0  0  0  0  0  0  0
   15.1669    5.4677   -0.6804 H   0  0  0  0  0  0  0  0  0  0  0  0
   17.3104    6.3504   -1.6147 H   0  0  0  0  0  0  0  0  0  0  0  0
   17.6112    8.3623   -3.3381 N   0  0  0  0  0  0  0  0  0  0  0  0
   17.5642    9.3057   -4.1401 O   0  0  0  0  0  0  0  0  0  0  0  0
   18.6613    7.8164   -2.9723 O   0  0  0  0  0  0  0  0  0  0  0  0
   13.0488    6.5821   -1.3318 N   0  0  0  0  0  0  0  0  0  0  0  0
   11.9933    6.2623   -0.8115 N   0  0  0  0  0  0  0  0  0  0  0  0
   11.9915    4.0416   -1.7656 C   0  0  0  0  0  0  0  0  0  0  0  0
   13.1292    3.8818   -1.4040 O   0  0  0  0  0  0  0  0  0  0  0  0
   11.3089    5.2387   -1.6298 O   0  0  0  0  0  0  0  0  0  0  0  0
   11.0844    3.0211   -2.3998 C   0  0  0  0  0  0  0  0  0  0  0  0
   10.3528    2.6818   -1.6596 H   0  0  0  0  0  0  0  0  0  0  0  0
   10.5339    3.4570   -3.2366 H   0  0  0  0  0  0  0  0  0  0  0  0
   11.6832    2.1741   -2.7336 H   0  0  0  0  0  0  0  0  0  0  0  0
  1  6  2  0  0  0  0
  1  2  1  0  0  0  0
  2  3  2  0  0  0  0
  3  4  1  0  0  0  0
  3 14  1  0  0  0  0
  4  9  1  0  0  0  0
  5 10  1  0  0  0  0
  5  4  2  0  0  0  0
  6  5  1  0  0  0  0
  7  1  1  0  0  0  0
  8  2  1  0  0  0  0
 11 13  2  0  0  0  0
 11  6  1  0  0  0  0
 12 11  2  0  0  0  0
 14 15  1  0  0  0  0
 16 18  1  0  0  0  0
 16 17  2  0  0  0  0
 18 15  1  0  0  0  0
 19 16  1  0  0  0  0
 19 20  1  0  0  0  0
 21 19  1  0  0  0  0
 22 19  1  0  0  0  0
M  RAD  2  14   2  15   2
M  END
