Coordinates from ORCA-job 4-NO2-Ph-N2-OAc-B3LYPG-6-31G_dp-MTMO-d009-169-n750
 OpenBabel09051907553D

 22 22  0  0  0  0  0  0  0  0999 V2000
   15.1349    8.6211   -3.0306 C   0  0  0  0  0  0  0  0  0  0  0  0
   13.9472    8.4771   -2.3185 C   0  0  0  0  0  0  0  0  0  0  0  0
   13.7563    7.3239   -1.5605 C   0  0  0  0  0  0  0  0  0  0  0  0
   14.7307    6.3320   -1.4388 C   0  0  0  0  0  0  0  0  0  0  0  0
   15.9255    6.4889   -2.1347 C   0  0  0  0  0  0  0  0  0  0  0  0
   16.1034    7.6247   -2.9241 C   0  0  0  0  0  0  0  0  0  0  0  0
   15.3271    9.4886   -3.6488 H   0  0  0  0  0  0  0  0  0  0  0  0
   13.1771    9.2398   -2.3544 H   0  0  0  0  0  0  0  0  0  0  0  0
   14.5514    5.4648   -0.8122 H   0  0  0  0  0  0  0  0  0  0  0  0
   16.7153    5.7500   -2.0782 H   0  0  0  0  0  0  0  0  0  0  0  0
   17.3676    7.7834   -3.6649 N   0  0  0  0  0  0  0  0  0  0  0  0
   17.4989    8.7942   -4.3528 O   0  0  0  0  0  0  0  0  0  0  0  0
   18.2095    6.8952   -3.5481 O   0  0  0  0  0  0  0  0  0  0  0  0
   12.5152    7.2448   -0.7252 N   0  0  0  0  0  0  0  0  0  0  0  0
   11.7111    6.3545   -0.7548 N   0  0  0  0  0  0  0  0  0  0  0  0
   12.1578    4.0938   -1.4862 C   0  0  0  0  0  0  0  0  0  0  0  0
   12.5546    3.8515   -0.3667 O   0  0  0  0  0  0  0  0  0  0  0  0
   11.9345    5.3490   -1.9431 O   0  0  0  0  0  0  0  0  0  0  0  0
   11.8721    3.0692   -2.5612 C   0  0  0  0  0  0  0  0  0  0  0  0
   10.7890    2.9684   -2.6831 H   0  0  0  0  0  0  0  0  0  0  0  0
   12.2832    3.3869   -3.5226 H   0  0  0  0  0  0  0  0  0  0  0  0
   12.2948    2.1094   -2.2651 H   0  0  0  0  0  0  0  0  0  0  0  0
  1  6  2  0  0  0  0
  1  2  1  0  0  0  0
  2  3  2  0  0  0  0
  3  4  1  0  0  0  0
  3 14  1  0  0  0  0
  4  9  1  0  0  0  0
  5 10  1  0  0  0  0
  5  4  2  0  0  0  0
  6  5  1  0  0  0  0
  7  1  1  0  0  0  0
  8  2  1  0  0  0  0
 11 13  2  0  0  0  0
 11  6  1  0  0  0  0
 12 11  2  0  0  0  0
 15 14  1  0  0  0  0
 16 17  2  0  0  0  0
 18 16  1  0  0  0  0
 18 15  1  0  0  0  0
 19 22  1  0  0  0  0
 19 16  1  0  0  0  0
 20 19  1  0  0  0  0
 21 19  1  0  0  0  0
M  RAD  2  14   2  15   2
M  END
