Coordinates from ORCA-job 4-NO2-Ph-N2-OAc-B3LYPG-6-31G_dp-MTMO-d009-169-n750
 OpenBabel09051907563D

 22 21  0  0  0  0  0  0  0  0999 V2000
   15.4267    8.4905   -3.3607 C   0  0  0  0  0  0  0  0  0  0  0  0
   14.3444    7.6332   -3.2282 C   0  0  0  0  0  0  0  0  0  0  0  0
   14.5081    6.3817   -2.6174 C   0  0  0  0  0  0  0  0  0  0  0  0
   15.7578    5.9748   -2.1316 C   0  0  0  0  0  0  0  0  0  0  0  0
   16.8421    6.8396   -2.2669 C   0  0  0  0  0  0  0  0  0  0  0  0
   16.6686    8.0796   -2.8755 C   0  0  0  0  0  0  0  0  0  0  0  0
   15.3294    9.4621   -3.8274 H   0  0  0  0  0  0  0  0  0  0  0  0
   13.3615    7.9120   -3.5909 H   0  0  0  0  0  0  0  0  0  0  0  0
   15.8767    5.0089   -1.6669 H   0  0  0  0  0  0  0  0  0  0  0  0
   17.8233    6.5607   -1.9038 H   0  0  0  0  0  0  0  0  0  0  0  0
   17.8205    8.9788   -3.0112 N   0  0  0  0  0  0  0  0  0  0  0  0
   17.6319   10.0698   -3.5501 O   0  0  0  0  0  0  0  0  0  0  0  0
   18.9051    8.5890   -2.5792 O   0  0  0  0  0  0  0  0  0  0  0  0
    6.3007    3.6636    1.0221 N   0  0  0  0  0  0  0  0  0  0  0  0
    7.2411    3.9131    0.4978 N   0  0  0  0  0  0  0  0  0  0  0  0
   13.2185    4.3631   -2.0869 C   0  0  0  0  0  0  0  0  0  0  0  0
   14.1322    3.6910   -1.6779 O   0  0  0  0  0  0  0  0  0  0  0  0
   13.3328    5.6522   -2.5503 O   0  0  0  0  0  0  0  0  0  0  0  0
   11.7762    3.9347   -2.1746 C   0  0  0  0  0  0  0  0  0  0  0  0
   11.6866    2.9060   -1.8280 H   0  0  0  0  0  0  0  0  0  0  0  0
   11.1518    4.5906   -1.5610 H   0  0  0  0  0  0  0  0  0  0  0  0
   11.4211    4.0162   -3.2060 H   0  0  0  0  0  0  0  0  0  0  0  0
  1  2  2  0  0  0  0
  1  6  1  0  0  0  0
  2  3  1  0  0  0  0
  3 18  1  0  0  0  0
  3  4  2  0  0  0  0
  4  9  1  0  0  0  0
  5  4  1  0  0  0  0
  5 10  1  0  0  0  0
  6  5  2  0  0  0  0
  7  1  1  0  0  0  0
  8  2  1  0  0  0  0
 11  6  1  0  0  0  0
 11 13  2  0  0  0  0
 12 11  2  0  0  0  0
 15 14  3  0  0  0  0
 16 17  2  0  0  0  0
 18 16  1  0  0  0  0
 19 16  1  0  0  0  0
 19 20  1  0  0  0  0
 19 21  1  0  0  0  0
 22 19  1  0  0  0  0
M  END
