Coordinates from ORCA-job 4-NO2-Ph-N2-OAc-B3LYPG-6-31G_dp-MTMO-d009-169-n750
 OpenBabel09051907553D

 22 20  0  0  0  0  0  0  0  0999 V2000
   15.2530    8.7198   -2.9694 C   0  0  0  0  0  0  0  0  0  0  0  0
   14.0371    8.6242   -2.2831 C   0  0  0  0  0  0  0  0  0  0  0  0
   13.8414    7.4277   -1.6406 C   0  0  0  0  0  0  0  0  0  0  0  0
   14.6615    6.3401   -1.5294 C   0  0  0  0  0  0  0  0  0  0  0  0
   15.8750    6.4651   -2.2186 C   0  0  0  0  0  0  0  0  0  0  0  0
   16.1399    7.6430   -2.9192 C   0  0  0  0  0  0  0  0  0  0  0  0
   15.5187    9.6083   -3.5281 H   0  0  0  0  0  0  0  0  0  0  0  0
   13.3118    9.4283   -2.2701 H   0  0  0  0  0  0  0  0  0  0  0  0
   14.3642    5.4447   -0.9800 H   0  0  0  0  0  0  0  0  0  0  0  0
   16.6070    5.6664   -2.2151 H   0  0  0  0  0  0  0  0  0  0  0  0
   17.4243    7.7609   -3.6393 N   0  0  0  0  0  0  0  0  0  0  0  0
   17.6368    8.8074   -4.2476 O   0  0  0  0  0  0  0  0  0  0  0  0
   18.1945    6.8060   -3.5820 O   0  0  0  0  0  0  0  0  0  0  0  0
   12.2226    7.3102   -0.6048 N   0  0  0  0  0  0  0  0  0  0  0  0
   11.4617    6.4473   -0.6582 N   0  0  0  0  0  0  0  0  0  0  0  0
   12.2129    4.1279   -1.6188 C   0  0  0  0  0  0  0  0  0  0  0  0
   12.9301    4.0286   -0.6233 O   0  0  0  0  0  0  0  0  0  0  0  0
   11.6628    5.2331   -2.0546 O   0  0  0  0  0  0  0  0  0  0  0  0
   11.8741    2.9248   -2.4952 C   0  0  0  0  0  0  0  0  0  0  0  0
   10.8641    2.5840   -2.2452 H   0  0  0  0  0  0  0  0  0  0  0  0
   11.8799    3.1933   -3.5542 H   0  0  0  0  0  0  0  0  0  0  0  0
   12.5838    2.1202   -2.2980 H   0  0  0  0  0  0  0  0  0  0  0  0
  1  6  2  0  0  0  0
  1  2  1  0  0  0  0
  2  8  1  0  0  0  0
  2  3  2  0  0  0  0
  3  4  1  0  0  0  0
  4  9  1  0  0  0  0
  5 10  1  0  0  0  0
  5  4  2  0  0  0  0
  6  5  1  0  0  0  0
  7  1  1  0  0  0  0
 11 13  2  0  0  0  0
 11  6  1  0  0  0  0
 12 11  2  0  0  0  0
 15 14  3  0  0  0  0
 16 17  1  0  0  0  0
 18 16  2  0  0  0  0
 19 22  1  0  0  0  0
 19 20  1  0  0  0  0
 19 16  1  0  0  0  0
 21 19  1  0  0  0  0
M  RAD  2   3   2  17   2
M  END
