Coordinates from ORCA-job 4-NO2-Ph-N2-OAc-B3LYPG-6-31G_dp-MTMO-d009-169-n750
 OpenBabel09051907563D

 22 21  0  0  0  0  0  0  0  0999 V2000
   15.9337    8.6502   -3.5837 C   0  0  0  0  0  0  0  0  0  0  0  0
   14.8914    7.7365   -3.5306 C   0  0  0  0  0  0  0  0  0  0  0  0
   15.0839    6.4828   -2.9331 C   0  0  0  0  0  0  0  0  0  0  0  0
   16.3224    6.1300   -2.3809 C   0  0  0  0  0  0  0  0  0  0  0  0
   17.3666    7.0512   -2.4367 C   0  0  0  0  0  0  0  0  0  0  0  0
   17.1648    8.2929   -3.0330 C   0  0  0  0  0  0  0  0  0  0  0  0
   15.8137    9.6248   -4.0386 H   0  0  0  0  0  0  0  0  0  0  0  0
   13.9182    7.9724   -3.9460 H   0  0  0  0  0  0  0  0  0  0  0  0
   16.4637    5.1624   -1.9262 H   0  0  0  0  0  0  0  0  0  0  0  0
   18.3381    6.8151   -2.0212 H   0  0  0  0  0  0  0  0  0  0  0  0
   18.2747    9.2517   -3.0851 N   0  0  0  0  0  0  0  0  0  0  0  0
   18.0612   10.3429   -3.6144 O   0  0  0  0  0  0  0  0  0  0  0  0
   19.3514    8.9083   -2.5976 O   0  0  0  0  0  0  0  0  0  0  0  0
    0.6151    2.4941    3.9594 N   0  0  0  0  0  0  0  0  0  0  0  0
    1.5581    2.7185    3.4284 N   0  0  0  0  0  0  0  0  0  0  0  0
   13.8689    4.3943   -2.5061 C   0  0  0  0  0  0  0  0  0  0  0  0
   14.7860    3.7661   -2.0390 O   0  0  0  0  0  0  0  0  0  0  0  0
   13.9467    5.6923   -2.9514 O   0  0  0  0  0  0  0  0  0  0  0  0
   12.4605    3.8924   -2.6976 C   0  0  0  0  0  0  0  0  0  0  0  0
   12.3976    2.8615   -2.3519 H   0  0  0  0  0  0  0  0  0  0  0  0
   11.7608    4.5182   -2.1364 H   0  0  0  0  0  0  0  0  0  0  0  0
   12.1797    3.9529   -3.7529 H   0  0  0  0  0  0  0  0  0  0  0  0
  1  2  2  0  0  0  0
  1  6  1  0  0  0  0
  2  3  1  0  0  0  0
  3  4  2  0  0  0  0
  4  9  1  0  0  0  0
  5  4  1  0  0  0  0
  5 10  1  0  0  0  0
  6  5  2  0  0  0  0
  7  1  1  0  0  0  0
  8  2  1  0  0  0  0
 11  6  1  0  0  0  0
 11 13  2  0  0  0  0
 12 11  2  0  0  0  0
 15 14  3  0  0  0  0
 16 17  2  0  0  0  0
 18  3  1  0  0  0  0
 18 16  1  0  0  0  0
 19 16  1  0  0  0  0
 19 20  1  0  0  0  0
 19 21  1  0  0  0  0
 22 19  1  0  0  0  0
M  END
