Coordinates from ORCA-job 4-NO2-Ph-N2-OAc-B3LYPG-6-31G_dp-MTMO-d009-169-n750
 OpenBabel09051907563D

 22 21  0  0  0  0  0  0  0  0999 V2000
   15.7449    8.5955   -3.4982 C   0  0  0  0  0  0  0  0  0  0  0  0
   14.7003    7.6846   -3.4430 C   0  0  0  0  0  0  0  0  0  0  0  0
   14.8901    6.4312   -2.8438 C   0  0  0  0  0  0  0  0  0  0  0  0
   16.1282    6.0760   -2.2921 C   0  0  0  0  0  0  0  0  0  0  0  0
   17.1746    6.9945   -2.3501 C   0  0  0  0  0  0  0  0  0  0  0  0
   16.9756    8.2359   -2.9480 C   0  0  0  0  0  0  0  0  0  0  0  0
   15.6270    9.5698   -3.9545 H   0  0  0  0  0  0  0  0  0  0  0  0
   13.7274    7.9223   -3.8581 H   0  0  0  0  0  0  0  0  0  0  0  0
   16.2673    5.1088   -1.8359 H   0  0  0  0  0  0  0  0  0  0  0  0
   18.1459    6.7566   -1.9350 H   0  0  0  0  0  0  0  0  0  0  0  0
   18.0878    9.1918   -3.0024 N   0  0  0  0  0  0  0  0  0  0  0  0
   17.8767   10.2827   -3.5332 O   0  0  0  0  0  0  0  0  0  0  0  0
   19.1641    8.8463   -2.5154 O   0  0  0  0  0  0  0  0  0  0  0  0
    2.5525    3.0147    3.0694 N   0  0  0  0  0  0  0  0  0  0  0  0
    3.4937    3.2418    2.5363 N   0  0  0  0  0  0  0  0  0  0  0  0
   13.6692    4.3476   -2.4100 C   0  0  0  0  0  0  0  0  0  0  0  0
   14.5836    3.7192   -1.9380 O   0  0  0  0  0  0  0  0  0  0  0  0
   13.7511    5.6434   -2.8607 O   0  0  0  0  0  0  0  0  0  0  0  0
   12.2602    3.8480   -2.6028 C   0  0  0  0  0  0  0  0  0  0  0  0
   12.1938    2.8193   -2.2512 H   0  0  0  0  0  0  0  0  0  0  0  0
   11.5596    4.4788   -2.0483 H   0  0  0  0  0  0  0  0  0  0  0  0
   11.9834    3.9025   -3.6596 H   0  0  0  0  0  0  0  0  0  0  0  0
  1  2  2  0  0  0  0
  1  6  1  0  0  0  0
  2  3  1  0  0  0  0
  3  4  2  0  0  0  0
  4  9  1  0  0  0  0
  5  4  1  0  0  0  0
  5 10  1  0  0  0  0
  6  5  2  0  0  0  0
  7  1  1  0  0  0  0
  8  2  1  0  0  0  0
 11  6  1  0  0  0  0
 11 13  2  0  0  0  0
 12 11  2  0  0  0  0
 15 14  3  0  0  0  0
 16 17  2  0  0  0  0
 18  3  1  0  0  0  0
 18 16  1  0  0  0  0
 19 16  1  0  0  0  0
 19 20  1  0  0  0  0
 19 21  1  0  0  0  0
 22 19  1  0  0  0  0
M  END
