Coordinates from ORCA-job 4-NO2-Ph-N2-OAc-B3LYPG-6-31G_dp-MTMO-d009-169-n750
 OpenBabel09051907563D

 22 21  0  0  0  0  0  0  0  0999 V2000
   15.7011    8.5827   -3.4787 C   0  0  0  0  0  0  0  0  0  0  0  0
   14.6565    7.6717   -3.4244 C   0  0  0  0  0  0  0  0  0  0  0  0
   14.8456    6.4186   -2.8245 C   0  0  0  0  0  0  0  0  0  0  0  0
   16.0830    6.0637   -2.2711 C   0  0  0  0  0  0  0  0  0  0  0  0
   17.1294    6.9822   -2.3281 C   0  0  0  0  0  0  0  0  0  0  0  0
   16.9311    8.2233   -2.9268 C   0  0  0  0  0  0  0  0  0  0  0  0
   15.5838    9.5568   -3.9355 H   0  0  0  0  0  0  0  0  0  0  0  0
   13.6841    7.9092   -3.8408 H   0  0  0  0  0  0  0  0  0  0  0  0
   16.2215    5.0967   -1.8143 H   0  0  0  0  0  0  0  0  0  0  0  0
   18.1002    6.7444   -1.9118 H   0  0  0  0  0  0  0  0  0  0  0  0
   18.0434    9.1792   -2.9802 N   0  0  0  0  0  0  0  0  0  0  0  0
   17.8329   10.2699   -3.5117 O   0  0  0  0  0  0  0  0  0  0  0  0
   19.1191    8.8340   -2.4917 O   0  0  0  0  0  0  0  0  0  0  0  0
    2.9999    3.1394    2.8699 N   0  0  0  0  0  0  0  0  0  0  0  0
    3.9405    3.3661    2.3355 N   0  0  0  0  0  0  0  0  0  0  0  0
   13.6237    4.3357   -2.3897 C   0  0  0  0  0  0  0  0  0  0  0  0
   14.5369    3.7084   -1.9139 O   0  0  0  0  0  0  0  0  0  0  0  0
   13.7067    5.6306   -2.8429 O   0  0  0  0  0  0  0  0  0  0  0  0
   12.2153    3.8356   -2.5853 C   0  0  0  0  0  0  0  0  0  0  0  0
   12.1479    2.8077   -2.2318 H   0  0  0  0  0  0  0  0  0  0  0  0
   11.5133    4.4675   -2.0339 H   0  0  0  0  0  0  0  0  0  0  0  0
   11.9413    3.8880   -3.6430 H   0  0  0  0  0  0  0  0  0  0  0  0
  1  2  2  0  0  0  0
  1  6  1  0  0  0  0
  2  3  1  0  0  0  0
  3  4  2  0  0  0  0
  4  9  1  0  0  0  0
  5  4  1  0  0  0  0
  5 10  1  0  0  0  0
  6  5  2  0  0  0  0
  7  1  1  0  0  0  0
  8  2  1  0  0  0  0
 11  6  1  0  0  0  0
 11 13  2  0  0  0  0
 12 11  2  0  0  0  0
 15 14  3  0  0  0  0
 16 17  2  0  0  0  0
 18  3  1  0  0  0  0
 18 16  1  0  0  0  0
 19 16  1  0  0  0  0
 19 20  1  0  0  0  0
 19 21  1  0  0  0  0
 22 19  1  0  0  0  0
M  END
