Coordinates from ORCA-job 4-NO2-Ph-N2-OAc-B3LYPG-6-31G_dp-MTMO-d009-169-n750
 OpenBabel09051907563D

 22 21  0  0  0  0  0  0  0  0999 V2000
   15.7627    8.6010   -3.5061 C   0  0  0  0  0  0  0  0  0  0  0  0
   14.7186    7.6895   -3.4513 C   0  0  0  0  0  0  0  0  0  0  0  0
   14.9090    6.4360   -2.8526 C   0  0  0  0  0  0  0  0  0  0  0  0
   16.1472    6.0813   -2.3008 C   0  0  0  0  0  0  0  0  0  0  0  0
   17.1932    7.0003   -2.3584 C   0  0  0  0  0  0  0  0  0  0  0  0
   16.9935    8.2418   -2.9558 C   0  0  0  0  0  0  0  0  0  0  0  0
   15.6444    9.5754   -3.9620 H   0  0  0  0  0  0  0  0  0  0  0  0
   13.7456    7.9269   -3.8664 H   0  0  0  0  0  0  0  0  0  0  0  0
   16.2867    5.1139   -1.8450 H   0  0  0  0  0  0  0  0  0  0  0  0
   18.1645    6.7627   -1.9433 H   0  0  0  0  0  0  0  0  0  0  0  0
   18.1053    9.1982   -3.0099 N   0  0  0  0  0  0  0  0  0  0  0  0
   17.8937   10.2892   -3.5402 O   0  0  0  0  0  0  0  0  0  0  0  0
   19.1818    8.8531   -2.5229 O   0  0  0  0  0  0  0  0  0  0  0  0
    2.3636    2.9664    3.1569 N   0  0  0  0  0  0  0  0  0  0  0  0
    3.3050    3.1923    2.6236 N   0  0  0  0  0  0  0  0  0  0  0  0
   13.6893    4.3513   -2.4201 C   0  0  0  0  0  0  0  0  0  0  0  0
   14.6043    3.7231   -1.9488 O   0  0  0  0  0  0  0  0  0  0  0  0
   13.7704    5.6476   -2.8698 O   0  0  0  0  0  0  0  0  0  0  0  0
   12.2805    3.8512   -2.6129 C   0  0  0  0  0  0  0  0  0  0  0  0
   12.2147    2.8221   -2.2625 H   0  0  0  0  0  0  0  0  0  0  0  0
   11.5802    4.4811   -2.0571 H   0  0  0  0  0  0  0  0  0  0  0  0
   12.0030    3.9069   -3.6695 H   0  0  0  0  0  0  0  0  0  0  0  0
  1  2  2  0  0  0  0
  1  6  1  0  0  0  0
  2  3  1  0  0  0  0
  3  4  2  0  0  0  0
  4  9  1  0  0  0  0
  5  4  1  0  0  0  0
  5 10  1  0  0  0  0
  6  5  2  0  0  0  0
  7  1  1  0  0  0  0
  8  2  1  0  0  0  0
 11  6  1  0  0  0  0
 11 13  2  0  0  0  0
 12 11  2  0  0  0  0
 15 14  3  0  0  0  0
 16 17  2  0  0  0  0
 18  3  1  0  0  0  0
 18 16  1  0  0  0  0
 19 16  1  0  0  0  0
 19 20  1  0  0  0  0
 19 21  1  0  0  0  0
 22 19  1  0  0  0  0
M  END
