Coordinates from ORCA-job 4-NO2-Ph-N2-OAc-B3LYPG-6-31G_dp-MTMO-d009-169-n750
 OpenBabel09051907563D

 22 21  0  0  0  0  0  0  0  0999 V2000
   15.6359    8.5627   -3.4501 C   0  0  0  0  0  0  0  0  0  0  0  0
   14.5901    7.6532   -3.3955 C   0  0  0  0  0  0  0  0  0  0  0  0
   14.7769    6.4007   -2.7937 C   0  0  0  0  0  0  0  0  0  0  0  0
   16.0134    6.0448   -2.2387 C   0  0  0  0  0  0  0  0  0  0  0  0
   17.0611    6.9619   -2.2961 C   0  0  0  0  0  0  0  0  0  0  0  0
   16.8650    8.2025   -2.8966 C   0  0  0  0  0  0  0  0  0  0  0  0
   15.5203    9.5364   -3.9083 H   0  0  0  0  0  0  0  0  0  0  0  0
   13.6184    7.8914   -3.8131 H   0  0  0  0  0  0  0  0  0  0  0  0
   16.1501    5.0783   -1.7803 H   0  0  0  0  0  0  0  0  0  0  0  0
   18.0312    6.7233   -1.8786 H   0  0  0  0  0  0  0  0  0  0  0  0
   17.9786    9.1567   -2.9504 N   0  0  0  0  0  0  0  0  0  0  0  0
   17.7701   10.2470   -3.4836 O   0  0  0  0  0  0  0  0  0  0  0  0
   19.0535    8.8107   -2.4606 O   0  0  0  0  0  0  0  0  0  0  0  0
    3.6892    3.3187    2.5582 N   0  0  0  0  0  0  0  0  0  0  0  0
    4.6270    3.5481    2.0201 N   0  0  0  0  0  0  0  0  0  0  0  0
   13.5508    4.3213   -2.3541 C   0  0  0  0  0  0  0  0  0  0  0  0
   14.4614    3.6949   -1.8720 O   0  0  0  0  0  0  0  0  0  0  0  0
   13.6372    5.6140   -2.8126 O   0  0  0  0  0  0  0  0  0  0  0  0
   12.1426    3.8220   -2.5531 C   0  0  0  0  0  0  0  0  0  0  0  0
   12.0721    2.7963   -2.1938 H   0  0  0  0  0  0  0  0  0  0  0  0
   11.4387    4.4582   -2.0091 H   0  0  0  0  0  0  0  0  0  0  0  0
   11.8738    3.8682   -3.6124 H   0  0  0  0  0  0  0  0  0  0  0  0
  1  2  2  0  0  0  0
  1  6  1  0  0  0  0
  2  3  1  0  0  0  0
  3  4  2  0  0  0  0
  4  9  1  0  0  0  0
  5  4  1  0  0  0  0
  5 10  1  0  0  0  0
  6  5  2  0  0  0  0
  7  1  1  0  0  0  0
  8  2  1  0  0  0  0
 11  6  1  0  0  0  0
 11 13  2  0  0  0  0
 12 11  2  0  0  0  0
 15 14  3  0  0  0  0
 16 17  2  0  0  0  0
 18  3  1  0  0  0  0
 18 16  1  0  0  0  0
 19 16  1  0  0  0  0
 19 20  1  0  0  0  0
 19 21  1  0  0  0  0
 22 19  1  0  0  0  0
M  END
