Coordinates from ORCA-job 4-NO2-Ph-N2-OAc-B3LYPG-6-31G_dp-MTMO-d009-169-n750
 OpenBabel09051907553D

 22 21  0  0  0  0  0  0  0  0999 V2000
   15.0775    8.1168   -3.3964 C   0  0  0  0  0  0  0  0  0  0  0  0
   13.9710    7.2953   -3.2395 C   0  0  0  0  0  0  0  0  0  0  0  0
   14.0971    6.0603   -2.5874 C   0  0  0  0  0  0  0  0  0  0  0  0
   15.3338    5.6347   -2.0840 C   0  0  0  0  0  0  0  0  0  0  0  0
   16.4427    6.4632   -2.2444 C   0  0  0  0  0  0  0  0  0  0  0  0
   16.3062    7.6869   -2.8941 C   0  0  0  0  0  0  0  0  0  0  0  0
   15.0091    9.0749   -3.8951 H   0  0  0  0  0  0  0  0  0  0  0  0
   12.9974    7.5896   -3.6149 H   0  0  0  0  0  0  0  0  0  0  0  0
   15.4242    4.6811   -1.5885 H   0  0  0  0  0  0  0  0  0  0  0  0
   17.4147    6.1685   -1.8692 H   0  0  0  0  0  0  0  0  0  0  0  0
   17.4836    8.5478   -3.0561 N   0  0  0  0  0  0  0  0  0  0  0  0
   17.3270    9.6257   -3.6307 O   0  0  0  0  0  0  0  0  0  0  0  0
   18.5559    8.1416   -2.6087 O   0  0  0  0  0  0  0  0  0  0  0  0
   10.8359    7.5973    0.8172 N   0  0  0  0  0  0  0  0  0  0  0  0
   10.8354    6.6434    0.2593 N   0  0  0  0  0  0  0  0  0  0  0  0
   12.7553    4.0869   -2.0190 C   0  0  0  0  0  0  0  0  0  0  0  0
   13.6541    3.3973   -1.6061 O   0  0  0  0  0  0  0  0  0  0  0  0
   12.9016    5.3680   -2.4982 O   0  0  0  0  0  0  0  0  0  0  0  0
   11.3018    3.6976   -2.0915 C   0  0  0  0  0  0  0  0  0  0  0  0
   11.1917    2.6632   -1.7681 H   0  0  0  0  0  0  0  0  0  0  0  0
   10.7124    4.3554   -1.4463 H   0  0  0  0  0  0  0  0  0  0  0  0
   10.9285    3.8159   -3.1126 H   0  0  0  0  0  0  0  0  0  0  0  0
  1  2  2  0  0  0  0
  1  6  1  0  0  0  0
  2  3  1  0  0  0  0
  3 18  1  0  0  0  0
  3  4  2  0  0  0  0
  4  9  1  0  0  0  0
  5  4  1  0  0  0  0
  5 10  1  0  0  0  0
  6  5  2  0  0  0  0
  7  1  1  0  0  0  0
  8  2  1  0  0  0  0
 11  6  1  0  0  0  0
 11 13  2  0  0  0  0
 12 11  2  0  0  0  0
 15 14  3  0  0  0  0
 16 17  2  0  0  0  0
 18 16  1  0  0  0  0
 19 16  1  0  0  0  0
 19 20  1  0  0  0  0
 19 21  1  0  0  0  0
 22 19  1  0  0  0  0
M  END
