Coordinates from ORCA-job 4-NO2-Ph-N2-OAc-B3LYPG-6-31G_dp-MTMO-d009-169-n750
 OpenBabel09051907553D

 22 20  0  0  0  0  0  0  0  0999 V2000
   15.6184    9.0761   -2.6591 C   0  0  0  0  0  0  0  0  0  0  0  0
   14.2907    9.0477   -2.1983 C   0  0  0  0  0  0  0  0  0  0  0  0
   13.9322    7.7393   -2.0031 C   0  0  0  0  0  0  0  0  0  0  0  0
   14.4834    6.6101   -2.1316 C   0  0  0  0  0  0  0  0  0  0  0  0
   15.8100    6.5984   -2.5871 C   0  0  0  0  0  0  0  0  0  0  0  0
   16.3360    7.8786   -2.8401 C   0  0  0  0  0  0  0  0  0  0  0  0
   16.1058   10.0175   -2.8819 H   0  0  0  0  0  0  0  0  0  0  0  0
   13.6861    9.9309   -2.0380 H   0  0  0  0  0  0  0  0  0  0  0  0
   13.6718    4.7758   -1.7981 H   0  0  0  0  0  0  0  0  0  0  0  0
   16.4140    5.7133   -2.7458 H   0  0  0  0  0  0  0  0  0  0  0  0
   17.7267    7.9761   -3.3252 N   0  0  0  0  0  0  0  0  0  0  0  0
   18.1816    9.0984   -3.5418 O   0  0  0  0  0  0  0  0  0  0  0  0
   18.3451    6.9257   -3.4828 O   0  0  0  0  0  0  0  0  0  0  0  0
   11.7585    7.8494   -1.2294 N   0  0  0  0  0  0  0  0  0  0  0  0
   10.9397    7.2119   -0.8464 N   0  0  0  0  0  0  0  0  0  0  0  0
   12.1117    3.7185   -1.9966 C   0  0  0  0  0  0  0  0  0  0  0  0
   13.4311    3.8212   -1.7448 O   0  0  0  0  0  0  0  0  0  0  0  0
   11.3954    4.6766   -2.2060 O   0  0  0  0  0  0  0  0  0  0  0  0
   11.6551    2.2792   -1.9833 C   0  0  0  0  0  0  0  0  0  0  0  0
   11.8952    1.8201   -1.0194 H   0  0  0  0  0  0  0  0  0  0  0  0
   10.5815    2.2342   -2.1628 H   0  0  0  0  0  0  0  0  0  0  0  0
   12.1872    1.7126   -2.7532 H   0  0  0  0  0  0  0  0  0  0  0  0
  1  2  1  0  0  0  0
  2  8  1  0  0  0  0
  2  3  2  0  0  0  0
  4  3  1  0  0  0  0
  5  4  2  0  0  0  0
  6  1  2  0  0  0  0
  6  5  1  0  0  0  0
  7  1  1  0  0  0  0
  9 17  1  0  0  0  0
 10  5  1  0  0  0  0
 11  6  1  0  0  0  0
 12 11  2  0  0  0  0
 13 11  2  0  0  0  0
 14 15  3  0  0  0  0
 16 19  1  0  0  0  0
 16 17  1  0  0  0  0
 18 16  2  0  0  0  0
 19 20  1  0  0  0  0
 21 19  1  0  0  0  0
 22 19  1  0  0  0  0
M  RAD  2   3   2   4   2
M  END
