Coordinates from ORCA-job 4-NO2-Ph-N2-OAc-B3LYPG-6-31G_dp-MTMO-d009-169-n750
 OpenBabel09051907563D

 22 21  0  0  0  0  0  0  0  0999 V2000
   15.6897    8.5792   -3.4736 C   0  0  0  0  0  0  0  0  0  0  0  0
   14.6449    7.6686   -3.4191 C   0  0  0  0  0  0  0  0  0  0  0  0
   14.8336    6.4156   -2.8189 C   0  0  0  0  0  0  0  0  0  0  0  0
   16.0709    6.0604   -2.2655 C   0  0  0  0  0  0  0  0  0  0  0  0
   17.1177    6.9786   -2.3228 C   0  0  0  0  0  0  0  0  0  0  0  0
   16.9197    8.2196   -2.9217 C   0  0  0  0  0  0  0  0  0  0  0  0
   15.5727    9.5533   -3.9306 H   0  0  0  0  0  0  0  0  0  0  0  0
   13.6725    7.9063   -3.8354 H   0  0  0  0  0  0  0  0  0  0  0  0
   16.2091    5.0934   -1.8085 H   0  0  0  0  0  0  0  0  0  0  0  0
   18.0884    6.7405   -1.9065 H   0  0  0  0  0  0  0  0  0  0  0  0
   18.0322    9.1751   -2.9755 N   0  0  0  0  0  0  0  0  0  0  0  0
   17.8220   10.2658   -3.5072 O   0  0  0  0  0  0  0  0  0  0  0  0
   19.1079    8.8296   -2.4871 O   0  0  0  0  0  0  0  0  0  0  0  0
    3.1201    3.1699    2.8141 N   0  0  0  0  0  0  0  0  0  0  0  0
    4.0606    3.3978    2.2800 N   0  0  0  0  0  0  0  0  0  0  0  0
   13.6109    4.3333   -2.3832 C   0  0  0  0  0  0  0  0  0  0  0  0
   14.5237    3.7060   -1.9067 O   0  0  0  0  0  0  0  0  0  0  0  0
   13.6944    5.6279   -2.8371 O   0  0  0  0  0  0  0  0  0  0  0  0
   12.2024    3.8335   -2.5791 C   0  0  0  0  0  0  0  0  0  0  0  0
   12.1346    2.8059   -2.2245 H   0  0  0  0  0  0  0  0  0  0  0  0
   11.5001    4.4662   -2.0288 H   0  0  0  0  0  0  0  0  0  0  0  0
   11.9292    3.8848   -3.6370 H   0  0  0  0  0  0  0  0  0  0  0  0
  1  2  2  0  0  0  0
  1  6  1  0  0  0  0
  2  3  1  0  0  0  0
  3  4  2  0  0  0  0
  4  9  1  0  0  0  0
  5  4  1  0  0  0  0
  5 10  1  0  0  0  0
  6  5  2  0  0  0  0
  7  1  1  0  0  0  0
  8  2  1  0  0  0  0
 11  6  1  0  0  0  0
 11 13  2  0  0  0  0
 12 11  2  0  0  0  0
 15 14  3  0  0  0  0
 16 17  2  0  0  0  0
 18  3  1  0  0  0  0
 18 16  1  0  0  0  0
 19 16  1  0  0  0  0
 19 20  1  0  0  0  0
 19 21  1  0  0  0  0
 22 19  1  0  0  0  0
M  END
