Coordinates from ORCA-job 4-NO2-Ph-N2-OAc-B3LYPG-6-31G_dp-MTMO-d009-169-n750
 OpenBabel09051907563D

 22 21  0  0  0  0  0  0  0  0999 V2000
   15.6814    8.5767   -3.4700 C   0  0  0  0  0  0  0  0  0  0  0  0
   14.6365    7.6661   -3.4156 C   0  0  0  0  0  0  0  0  0  0  0  0
   14.8250    6.4131   -2.8153 C   0  0  0  0  0  0  0  0  0  0  0  0
   16.0623    6.0579   -2.2616 C   0  0  0  0  0  0  0  0  0  0  0  0
   17.1090    6.9761   -2.3187 C   0  0  0  0  0  0  0  0  0  0  0  0
   16.9112    8.2171   -2.9177 C   0  0  0  0  0  0  0  0  0  0  0  0
   15.5644    9.5507   -3.9270 H   0  0  0  0  0  0  0  0  0  0  0  0
   13.6642    7.9038   -3.8322 H   0  0  0  0  0  0  0  0  0  0  0  0
   16.2003    5.0910   -1.8044 H   0  0  0  0  0  0  0  0  0  0  0  0
   18.0796    6.7381   -1.9021 H   0  0  0  0  0  0  0  0  0  0  0  0
   18.0238    9.1726   -2.9713 N   0  0  0  0  0  0  0  0  0  0  0  0
   17.8137   10.2633   -3.5030 O   0  0  0  0  0  0  0  0  0  0  0  0
   19.0993    8.8272   -2.4824 O   0  0  0  0  0  0  0  0  0  0  0  0
    3.2062    3.1934    2.7755 N   0  0  0  0  0  0  0  0  0  0  0  0
    4.1466    3.4217    2.2414 N   0  0  0  0  0  0  0  0  0  0  0  0
   13.6020    4.3311   -2.3792 C   0  0  0  0  0  0  0  0  0  0  0  0
   14.5146    3.7040   -1.9019 O   0  0  0  0  0  0  0  0  0  0  0  0
   13.6859    5.6255   -2.8337 O   0  0  0  0  0  0  0  0  0  0  0  0
   12.1936    3.8313   -2.5755 C   0  0  0  0  0  0  0  0  0  0  0  0
   12.1255    2.8039   -2.2204 H   0  0  0  0  0  0  0  0  0  0  0  0
   11.4911    4.4643   -2.0260 H   0  0  0  0  0  0  0  0  0  0  0  0
   11.9209    3.8820   -3.6336 H   0  0  0  0  0  0  0  0  0  0  0  0
  1  2  2  0  0  0  0
  1  6  1  0  0  0  0
  2  3  1  0  0  0  0
  3  4  2  0  0  0  0
  4  9  1  0  0  0  0
  5  4  1  0  0  0  0
  5 10  1  0  0  0  0
  6  5  2  0  0  0  0
  7  1  1  0  0  0  0
  8  2  1  0  0  0  0
 11  6  1  0  0  0  0
 11 13  2  0  0  0  0
 12 11  2  0  0  0  0
 15 14  3  0  0  0  0
 16 17  2  0  0  0  0
 18  3  1  0  0  0  0
 18 16  1  0  0  0  0
 19 16  1  0  0  0  0
 19 20  1  0  0  0  0
 19 21  1  0  0  0  0
 22 19  1  0  0  0  0
M  END
