Coordinates from ORCA-job 4-NO2-Ph-N2-OAc-B3LYPG-6-31G_dp-MTMO-d009-169-n750
 OpenBabel09051907563D

 22 21  0  0  0  0  0  0  0  0999 V2000
   15.2144    8.4050   -3.2997 C   0  0  0  0  0  0  0  0  0  0  0  0
   14.1670    7.4968   -3.2536 C   0  0  0  0  0  0  0  0  0  0  0  0
   14.3412    6.2515   -2.6329 C   0  0  0  0  0  0  0  0  0  0  0  0
   15.5668    5.9020   -2.0504 C   0  0  0  0  0  0  0  0  0  0  0  0
   16.6162    6.8177   -2.0994 C   0  0  0  0  0  0  0  0  0  0  0  0
   16.4326    8.0509   -2.7187 C   0  0  0  0  0  0  0  0  0  0  0  0
   15.1082    9.3730   -3.7719 H   0  0  0  0  0  0  0  0  0  0  0  0
   13.2036    7.7303   -3.6925 H   0  0  0  0  0  0  0  0  0  0  0  0
   15.6935    4.9415   -1.5767 H   0  0  0  0  0  0  0  0  0  0  0  0
   17.5782    6.5836   -1.6611 H   0  0  0  0  0  0  0  0  0  0  0  0
   17.5477    9.0037   -2.7635 N   0  0  0  0  0  0  0  0  0  0  0  0
   17.3501   10.0874   -3.3141 O   0  0  0  0  0  0  0  0  0  0  0  0
   18.6130    8.6632   -2.2493 O   0  0  0  0  0  0  0  0  0  0  0  0
    8.1343    4.9252    0.9474 N   0  0  0  0  0  0  0  0  0  0  0  0
    8.9496    4.8800    0.2028 N   0  0  0  0  0  0  0  0  0  0  0  0
   13.0988    4.1856   -2.1734 C   0  0  0  0  0  0  0  0  0  0  0  0
   13.9923    3.5759   -1.6402 O   0  0  0  0  0  0  0  0  0  0  0  0
   13.2024    5.4644   -2.6677 O   0  0  0  0  0  0  0  0  0  0  0  0
   11.6972    3.6808   -2.3995 C   0  0  0  0  0  0  0  0  0  0  0  0
   11.6447    2.6325   -2.1077 H   0  0  0  0  0  0  0  0  0  0  0  0
   10.9886    4.2635   -1.8029 H   0  0  0  0  0  0  0  0  0  0  0  0
   11.4165    3.7969   -3.4498 H   0  0  0  0  0  0  0  0  0  0  0  0
  1  2  2  0  0  0  0
  1  6  1  0  0  0  0
  2  3  1  0  0  0  0
  3  4  2  0  0  0  0
  4  9  1  0  0  0  0
  5  4  1  0  0  0  0
  5 10  1  0  0  0  0
  6  5  2  0  0  0  0
  7  1  1  0  0  0  0
  8  2  1  0  0  0  0
 11  6  1  0  0  0  0
 11 13  2  0  0  0  0
 12 11  2  0  0  0  0
 15 14  3  0  0  0  0
 16 17  2  0  0  0  0
 18  3  1  0  0  0  0
 18 16  1  0  0  0  0
 19 16  1  0  0  0  0
 19 20  1  0  0  0  0
 19 21  1  0  0  0  0
 22 19  1  0  0  0  0
M  END
