Coordinates from ORCA-job 4-NO2-Ph-N2-OAc-B3LYPG-6-31G_dp-MTMO-d009-169-n750
 OpenBabel09051907553D

 22 22  0  0  0  0  0  0  0  0999 V2000
   15.1925    8.7109   -2.9572 C   0  0  0  0  0  0  0  0  0  0  0  0
   13.9925    8.5498   -2.2796 C   0  0  0  0  0  0  0  0  0  0  0  0
   13.7088    7.3382   -1.6140 C   0  0  0  0  0  0  0  0  0  0  0  0
   14.6821    6.3130   -1.5786 C   0  0  0  0  0  0  0  0  0  0  0  0
   15.8982    6.4942   -2.2210 C   0  0  0  0  0  0  0  0  0  0  0  0
   16.1310    7.6813   -2.9145 C   0  0  0  0  0  0  0  0  0  0  0  0
   15.4222    9.6210   -3.4962 H   0  0  0  0  0  0  0  0  0  0  0  0
   13.2494    9.3402   -2.2715 H   0  0  0  0  0  0  0  0  0  0  0  0
   14.4757    5.4114   -1.0122 H   0  0  0  0  0  0  0  0  0  0  0  0
   16.6654    5.7300   -2.2008 H   0  0  0  0  0  0  0  0  0  0  0  0
   17.4158    7.8607   -3.6098 N   0  0  0  0  0  0  0  0  0  0  0  0
   17.5921    8.9190   -4.2115 O   0  0  0  0  0  0  0  0  0  0  0  0
   18.2294    6.9409   -3.5461 O   0  0  0  0  0  0  0  0  0  0  0  0
   12.6052    7.2335   -0.9651 N   0  0  0  0  0  0  0  0  0  0  0  0
   11.7592    6.3855   -0.8912 N   0  0  0  0  0  0  0  0  0  0  0  0
   12.1553    4.0538   -1.4899 C   0  0  0  0  0  0  0  0  0  0  0  0
   12.6120    3.8926   -0.3755 O   0  0  0  0  0  0  0  0  0  0  0  0
   11.9309    5.2653   -2.0348 O   0  0  0  0  0  0  0  0  0  0  0  0
   11.7874    2.9435   -2.4509 C   0  0  0  0  0  0  0  0  0  0  0  0
   10.6971    2.8548   -2.4964 H   0  0  0  0  0  0  0  0  0  0  0  0
   12.1415    3.1671   -3.4604 H   0  0  0  0  0  0  0  0  0  0  0  0
   12.2132    2.0046   -2.0973 H   0  0  0  0  0  0  0  0  0  0  0  0
  1  6  2  0  0  0  0
  1  2  1  0  0  0  0
  2  8  1  0  0  0  0
  2  3  2  0  0  0  0
  3  4  1  0  0  0  0
  3 14  1  0  0  0  0
  4  9  1  0  0  0  0
  5 10  1  0  0  0  0
  5  4  2  0  0  0  0
  6  5  1  0  0  0  0
  7  1  1  0  0  0  0
 11 13  2  0  0  0  0
 11  6  1  0  0  0  0
 12 11  2  0  0  0  0
 14 15  1  0  0  0  0
 16 17  2  0  0  0  0
 18 16  1  0  0  0  0
 18 15  1  0  0  0  0
 19 22  1  0  0  0  0
 19 16  1  0  0  0  0
 20 19  1  0  0  0  0
 21 19  1  0  0  0  0
M  RAD  2  14   2  15   2
M  END
