Coordinates from ORCA-job 4-NO2-Ph-N2-OAc-B3LYPG-6-31G_dp-MTMO-d009-169-n750
 OpenBabel09051907553D

 22 21  0  0  0  0  0  0  0  0999 V2000
   15.1013    8.1223   -3.3968 C   0  0  0  0  0  0  0  0  0  0  0  0
   13.9922    7.3062   -3.2306 C   0  0  0  0  0  0  0  0  0  0  0  0
   14.1199    6.0655   -2.5897 C   0  0  0  0  0  0  0  0  0  0  0  0
   15.3609    5.6288   -2.1070 C   0  0  0  0  0  0  0  0  0  0  0  0
   16.4725    6.4519   -2.2766 C   0  0  0  0  0  0  0  0  0  0  0  0
   16.3343    7.6814   -2.9150 C   0  0  0  0  0  0  0  0  0  0  0  0
   15.0317    9.0845   -3.8873 H   0  0  0  0  0  0  0  0  0  0  0  0
   13.0152    7.6092   -3.5901 H   0  0  0  0  0  0  0  0  0  0  0  0
   15.4525    4.6709   -1.6201 H   0  0  0  0  0  0  0  0  0  0  0  0
   17.4478    6.1486   -1.9172 H   0  0  0  0  0  0  0  0  0  0  0  0
   17.5144    8.5366   -3.0867 N   0  0  0  0  0  0  0  0  0  0  0  0
   17.3564    9.6196   -3.6511 O   0  0  0  0  0  0  0  0  0  0  0  0
   18.5903    8.1207   -2.6572 O   0  0  0  0  0  0  0  0  0  0  0  0
   10.5392    7.5468    0.9005 N   0  0  0  0  0  0  0  0  0  0  0  0
   10.6653    6.6268    0.3013 N   0  0  0  0  0  0  0  0  0  0  0  0
   12.7742    4.0960   -2.0171 C   0  0  0  0  0  0  0  0  0  0  0  0
   13.6745    3.3970   -1.6240 O   0  0  0  0  0  0  0  0  0  0  0  0
   12.9216    5.3797   -2.4888 O   0  0  0  0  0  0  0  0  0  0  0  0
   11.3170    3.7174   -2.0702 C   0  0  0  0  0  0  0  0  0  0  0  0
   11.2031    2.6851   -1.7414 H   0  0  0  0  0  0  0  0  0  0  0  0
   10.7400    4.3829   -1.4219 H   0  0  0  0  0  0  0  0  0  0  0  0
   10.9330    3.8334   -3.0877 H   0  0  0  0  0  0  0  0  0  0  0  0
  1  2  2  0  0  0  0
  1  6  1  0  0  0  0
  2  3  1  0  0  0  0
  3 18  1  0  0  0  0
  3  4  2  0  0  0  0
  4  9  1  0  0  0  0
  5  4  1  0  0  0  0
  5 10  1  0  0  0  0
  6  5  2  0  0  0  0
  7  1  1  0  0  0  0
  8  2  1  0  0  0  0
 11  6  1  0  0  0  0
 11 13  2  0  0  0  0
 12 11  2  0  0  0  0
 15 14  3  0  0  0  0
 16 17  2  0  0  0  0
 18 16  1  0  0  0  0
 19 16  1  0  0  0  0
 19 20  1  0  0  0  0
 19 21  1  0  0  0  0
 22 19  1  0  0  0  0
M  END
