Coordinates from ORCA-job 4-NO2-Ph-N2-OAc-B3LYPG-6-31G_dp-MTMO-d009-169-n750
 OpenBabel09051907563D

 22 21  0  0  0  0  0  0  0  0999 V2000
   15.3813    8.4671   -3.3527 C   0  0  0  0  0  0  0  0  0  0  0  0
   14.2943    7.6157   -3.2206 C   0  0  0  0  0  0  0  0  0  0  0  0
   14.4481    6.3686   -2.5985 C   0  0  0  0  0  0  0  0  0  0  0  0
   15.6927    5.9600   -2.1008 C   0  0  0  0  0  0  0  0  0  0  0  0
   16.7818    6.8187   -2.2360 C   0  0  0  0  0  0  0  0  0  0  0  0
   16.6181    8.0546   -2.8558 C   0  0  0  0  0  0  0  0  0  0  0  0
   15.2916    9.4353   -3.8279 H   0  0  0  0  0  0  0  0  0  0  0  0
   13.3152    7.8959   -3.5924 H   0  0  0  0  0  0  0  0  0  0  0  0
   15.8037    4.9977   -1.6269 H   0  0  0  0  0  0  0  0  0  0  0  0
   17.7592    6.5383   -1.8640 H   0  0  0  0  0  0  0  0  0  0  0  0
   17.7750    8.9473   -2.9913 N   0  0  0  0  0  0  0  0  0  0  0  0
   17.5949   10.0348   -3.5402 O   0  0  0  0  0  0  0  0  0  0  0  0
   18.8550    8.5561   -2.5492 O   0  0  0  0  0  0  0  0  0  0  0  0
    6.9055    3.7907    0.7722 N   0  0  0  0  0  0  0  0  0  0  0  0
    7.8533    4.0532    0.2677 N   0  0  0  0  0  0  0  0  0  0  0  0
   13.1423    4.3655   -2.0476 C   0  0  0  0  0  0  0  0  0  0  0  0
   14.0464    3.6999   -1.6075 O   0  0  0  0  0  0  0  0  0  0  0  0
   13.2693    5.6440   -2.5363 O   0  0  0  0  0  0  0  0  0  0  0  0
   11.7000    3.9395   -2.1486 C   0  0  0  0  0  0  0  0  0  0  0  0
   11.6122    2.8996   -1.8362 H   0  0  0  0  0  0  0  0  0  0  0  0
   11.0768    4.5706   -1.5078 H   0  0  0  0  0  0  0  0  0  0  0  0
   11.3404    4.0583   -3.1744 H   0  0  0  0  0  0  0  0  0  0  0  0
  1  2  2  0  0  0  0
  1  6  1  0  0  0  0
  2  3  1  0  0  0  0
  3 18  1  0  0  0  0
  3  4  2  0  0  0  0
  4  9  1  0  0  0  0
  5  4  1  0  0  0  0
  5 10  1  0  0  0  0
  6  5  2  0  0  0  0
  7  1  1  0  0  0  0
  8  2  1  0  0  0  0
 11  6  1  0  0  0  0
 11 13  2  0  0  0  0
 12 11  2  0  0  0  0
 15 14  3  0  0  0  0
 16 17  2  0  0  0  0
 18 16  1  0  0  0  0
 19 16  1  0  0  0  0
 19 20  1  0  0  0  0
 19 21  1  0  0  0  0
 22 19  1  0  0  0  0
M  END
