Coordinates from ORCA-job 4-NO2-Ph-N2-OAc-B3LYPG-6-31G_dp-MTMO-d009-169-n750
 OpenBabel09051907563D

 22 21  0  0  0  0  0  0  0  0999 V2000
   15.8323    8.6214   -3.5373 C   0  0  0  0  0  0  0  0  0  0  0  0
   14.7893    7.7085   -3.4837 C   0  0  0  0  0  0  0  0  0  0  0  0
   14.9811    6.4548   -2.8859 C   0  0  0  0  0  0  0  0  0  0  0  0
   16.2195    6.1011   -2.3341 C   0  0  0  0  0  0  0  0  0  0  0  0
   17.2643    7.0216   -2.3904 C   0  0  0  0  0  0  0  0  0  0  0  0
   17.0633    8.2633   -2.9869 C   0  0  0  0  0  0  0  0  0  0  0  0
   15.7129    9.5960   -3.9924 H   0  0  0  0  0  0  0  0  0  0  0  0
   13.8162    7.9450   -3.8989 H   0  0  0  0  0  0  0  0  0  0  0  0
   16.3601    5.1336   -1.8790 H   0  0  0  0  0  0  0  0  0  0  0  0
   18.2358    6.7848   -1.9752 H   0  0  0  0  0  0  0  0  0  0  0  0
   18.1739    9.2212   -3.0397 N   0  0  0  0  0  0  0  0  0  0  0  0
   17.9611   10.3124   -3.5692 O   0  0  0  0  0  0  0  0  0  0  0  0
   19.2506    8.8771   -2.5526 O   0  0  0  0  0  0  0  0  0  0  0  0
    1.6436    2.7754    3.4891 N   0  0  0  0  0  0  0  0  0  0  0  0
    2.5855    3.0012    2.9566 N   0  0  0  0  0  0  0  0  0  0  0  0
   13.7641    4.3679   -2.4567 C   0  0  0  0  0  0  0  0  0  0  0  0
   14.6801    3.7398   -1.9872 O   0  0  0  0  0  0  0  0  0  0  0  0
   13.8434    5.6651   -2.9040 O   0  0  0  0  0  0  0  0  0  0  0  0
   12.3558    3.8665   -2.6493 C   0  0  0  0  0  0  0  0  0  0  0  0
   12.2918    2.8363   -2.3014 H   0  0  0  0  0  0  0  0  0  0  0  0
   11.6550    4.4938   -2.0913 H   0  0  0  0  0  0  0  0  0  0  0  0
   12.0772    3.9244   -3.7054 H   0  0  0  0  0  0  0  0  0  0  0  0
  1  2  2  0  0  0  0
  1  6  1  0  0  0  0
  2  3  1  0  0  0  0
  3  4  2  0  0  0  0
  4  9  1  0  0  0  0
  5  4  1  0  0  0  0
  5 10  1  0  0  0  0
  6  5  2  0  0  0  0
  7  1  1  0  0  0  0
  8  2  1  0  0  0  0
 11  6  1  0  0  0  0
 11 13  2  0  0  0  0
 12 11  2  0  0  0  0
 15 14  3  0  0  0  0
 16 17  2  0  0  0  0
 18  3  1  0  0  0  0
 18 16  1  0  0  0  0
 19 16  1  0  0  0  0
 19 20  1  0  0  0  0
 19 21  1  0  0  0  0
 22 19  1  0  0  0  0
M  END
