Coordinates from ORCA-job 4-NO2-Ph-N2-OAc-B3LYPG-6-31G_dp-MTMO-d009-169-n750
 OpenBabel09051907563D

 22 21  0  0  0  0  0  0  0  0999 V2000
   15.8859    8.6368   -3.5617 C   0  0  0  0  0  0  0  0  0  0  0  0
   14.8436    7.7232   -3.5087 C   0  0  0  0  0  0  0  0  0  0  0  0
   15.0359    6.4694   -2.9112 C   0  0  0  0  0  0  0  0  0  0  0  0
   16.2744    6.1166   -2.3590 C   0  0  0  0  0  0  0  0  0  0  0  0
   17.3186    7.0377   -2.4146 C   0  0  0  0  0  0  0  0  0  0  0  0
   17.1170    8.2795   -3.0109 C   0  0  0  0  0  0  0  0  0  0  0  0
   15.7660    9.6115   -4.0166 H   0  0  0  0  0  0  0  0  0  0  0  0
   13.8704    7.9591   -3.9243 H   0  0  0  0  0  0  0  0  0  0  0  0
   16.4155    5.1489   -1.9042 H   0  0  0  0  0  0  0  0  0  0  0  0
   18.2901    6.8016   -1.9991 H   0  0  0  0  0  0  0  0  0  0  0  0
   18.2269    9.2382   -3.0629 N   0  0  0  0  0  0  0  0  0  0  0  0
   18.0135   10.3294   -3.5922 O   0  0  0  0  0  0  0  0  0  0  0  0
   19.3036    8.8947   -2.5754 O   0  0  0  0  0  0  0  0  0  0  0  0
    1.0950    2.6277    3.7412 N   0  0  0  0  0  0  0  0  0  0  0  0
    2.0375    2.8521    3.2092 N   0  0  0  0  0  0  0  0  0  0  0  0
   13.8206    4.3812   -2.4839 C   0  0  0  0  0  0  0  0  0  0  0  0
   14.7373    3.7533   -2.0156 O   0  0  0  0  0  0  0  0  0  0  0  0
   13.8988    5.6790   -2.9298 O   0  0  0  0  0  0  0  0  0  0  0  0
   12.4125    3.8791   -2.6764 C   0  0  0  0  0  0  0  0  0  0  0  0
   12.3494    2.8483   -2.3303 H   0  0  0  0  0  0  0  0  0  0  0  0
   11.7121    4.5049   -2.1161 H   0  0  0  0  0  0  0  0  0  0  0  0
   12.1326    3.9391   -3.7320 H   0  0  0  0  0  0  0  0  0  0  0  0
  1  2  2  0  0  0  0
  1  6  1  0  0  0  0
  2  3  1  0  0  0  0
  3  4  2  0  0  0  0
  4  9  1  0  0  0  0
  5  4  1  0  0  0  0
  5 10  1  0  0  0  0
  6  5  2  0  0  0  0
  7  1  1  0  0  0  0
  8  2  1  0  0  0  0
 11  6  1  0  0  0  0
 11 13  2  0  0  0  0
 12 11  2  0  0  0  0
 15 14  3  0  0  0  0
 16 17  2  0  0  0  0
 18  3  1  0  0  0  0
 18 16  1  0  0  0  0
 19 16  1  0  0  0  0
 19 20  1  0  0  0  0
 19 21  1  0  0  0  0
 22 19  1  0  0  0  0
M  END
