Coordinates from ORCA-job 4-NO2-Ph-N2-OAc-B3LYPG-6-31G_dp-MTMO-d009-169-n750
 OpenBabel09051907553D

 22 20  0  0  0  0  0  0  0  0999 V2000
   15.6197    9.0717   -2.6710 C   0  0  0  0  0  0  0  0  0  0  0  0
   14.2944    9.0172   -2.2023 C   0  0  0  0  0  0  0  0  0  0  0  0
   13.9690    7.7009   -2.0000 C   0  0  0  0  0  0  0  0  0  0  0  0
   14.5527    6.5923   -2.1304 C   0  0  0  0  0  0  0  0  0  0  0  0
   15.8748    6.5973   -2.5917 C   0  0  0  0  0  0  0  0  0  0  0  0
   16.3658    7.8913   -2.8519 C   0  0  0  0  0  0  0  0  0  0  0  0
   16.0845   10.0229   -2.9004 H   0  0  0  0  0  0  0  0  0  0  0  0
   13.6729    9.8886   -2.0428 H   0  0  0  0  0  0  0  0  0  0  0  0
   13.6810    4.7417   -1.7828 H   0  0  0  0  0  0  0  0  0  0  0  0
   16.4982    5.7262   -2.7503 H   0  0  0  0  0  0  0  0  0  0  0  0
   17.7508    8.0209   -3.3453 N   0  0  0  0  0  0  0  0  0  0  0  0
   18.1772    9.1528   -3.5690 O   0  0  0  0  0  0  0  0  0  0  0  0
   18.3937    6.9850   -3.5019 O   0  0  0  0  0  0  0  0  0  0  0  0
   11.6812    7.8158   -1.1652 N   0  0  0  0  0  0  0  0  0  0  0  0
   10.8731    7.1729   -0.7702 N   0  0  0  0  0  0  0  0  0  0  0  0
   12.1070    3.7185   -2.0222 C   0  0  0  0  0  0  0  0  0  0  0  0
   13.4178    3.7964   -1.7146 O   0  0  0  0  0  0  0  0  0  0  0  0
   11.4288    4.6877   -2.2942 O   0  0  0  0  0  0  0  0  0  0  0  0
   11.6119    2.2928   -1.9784 C   0  0  0  0  0  0  0  0  0  0  0  0
   11.7610    1.8781   -0.9767 H   0  0  0  0  0  0  0  0  0  0  0  0
   10.5546    2.2654   -2.2394 H   0  0  0  0  0  0  0  0  0  0  0  0
   12.1870    1.6750   -2.6740 H   0  0  0  0  0  0  0  0  0  0  0  0
  1  2  1  0  0  0  0
  2  8  1  0  0  0  0
  2  3  2  0  0  0  0
  4  3  1  0  0  0  0
  5  4  2  0  0  0  0
  6  1  2  0  0  0  0
  6  5  1  0  0  0  0
  7  1  1  0  0  0  0
  9 17  1  0  0  0  0
 10  5  1  0  0  0  0
 11  6  1  0  0  0  0
 12 11  2  0  0  0  0
 13 11  2  0  0  0  0
 14 15  3  0  0  0  0
 16 19  1  0  0  0  0
 16 17  1  0  0  0  0
 18 16  2  0  0  0  0
 19 20  1  0  0  0  0
 21 19  1  0  0  0  0
 22 19  1  0  0  0  0
M  RAD  2   3   2   4   2
M  END
