Coordinates from ORCA-job 4-NO2-Ph-N2-OAc-B3LYPG-6-31G_dp-MTMO-d009-169-n750
 OpenBabel09051907553D

 22 20  0  0  0  0  0  0  0  0999 V2000
   15.5519    8.9178   -2.7372 C   0  0  0  0  0  0  0  0  0  0  0  0
   14.2433    8.5511   -2.3675 C   0  0  0  0  0  0  0  0  0  0  0  0
   14.2165    7.1889   -2.1831 C   0  0  0  0  0  0  0  0  0  0  0  0
   15.0766    6.2828   -2.2841 C   0  0  0  0  0  0  0  0  0  0  0  0
   16.3905    6.5712   -2.6433 C   0  0  0  0  0  0  0  0  0  0  0  0
   16.5703    7.9525   -2.8648 C   0  0  0  0  0  0  0  0  0  0  0  0
   15.7967    9.9558   -2.9295 H   0  0  0  0  0  0  0  0  0  0  0  0
   13.4301    9.2552   -2.2535 H   0  0  0  0  0  0  0  0  0  0  0  0
   13.8751    4.3735   -2.0595 H   0  0  0  0  0  0  0  0  0  0  0  0
   17.2095    5.8733   -2.7589 H   0  0  0  0  0  0  0  0  0  0  0  0
   17.9159    8.4154   -3.2568 N   0  0  0  0  0  0  0  0  0  0  0  0
   18.0763    9.6196   -3.4486 O   0  0  0  0  0  0  0  0  0  0  0  0
   18.7950    7.5630   -3.3674 O   0  0  0  0  0  0  0  0  0  0  0  0
   11.2141    7.8302   -1.1172 N   0  0  0  0  0  0  0  0  0  0  0  0
   10.2990    7.4549   -0.6252 N   0  0  0  0  0  0  0  0  0  0  0  0
   12.1055    3.7339   -1.9143 C   0  0  0  0  0  0  0  0  0  0  0  0
   13.4307    3.5029   -2.0300 O   0  0  0  0  0  0  0  0  0  0  0  0
   11.6305    4.8492   -1.8521 O   0  0  0  0  0  0  0  0  0  0  0  0
   11.3196    2.4467   -1.8759 C   0  0  0  0  0  0  0  0  0  0  0  0
   11.6638    1.8226   -1.0455 H   0  0  0  0  0  0  0  0  0  0  0  0
   10.2593    2.6697   -1.7624 H   0  0  0  0  0  0  0  0  0  0  0  0
   11.4870    1.8812   -2.7980 H   0  0  0  0  0  0  0  0  0  0  0  0
  1  2  1  0  0  0  0
  2  8  1  0  0  0  0
  2  3  2  0  0  0  0
  4  3  1  0  0  0  0
  5  4  2  0  0  0  0
  6  1  2  0  0  0  0
  6  5  1  0  0  0  0
  7  1  1  0  0  0  0
  9 17  1  0  0  0  0
 10  5  1  0  0  0  0
 11  6  1  0  0  0  0
 12 11  2  0  0  0  0
 13 11  2  0  0  0  0
 14 15  3  0  0  0  0
 16 19  1  0  0  0  0
 16 18  2  0  0  0  0
 17 16  1  0  0  0  0
 19 21  1  0  0  0  0
 19 20  1  0  0  0  0
 22 19  1  0  0  0  0
M  RAD  2   3   2   4   2
M  END
