Coordinates from ORCA-job 4-NO2-Ph-N2-OAc-B3LYPG-6-31G_dp-MTMO-d009-169-n750
 OpenBabel09051907553D

 22 21  0  0  0  0  0  0  0  0999 V2000
   14.9901    8.1514   -3.2340 C   0  0  0  0  0  0  0  0  0  0  0  0
   13.8949    7.3153   -3.0752 C   0  0  0  0  0  0  0  0  0  0  0  0
   14.0579    6.0387   -2.5184 C   0  0  0  0  0  0  0  0  0  0  0  0
   15.3203    5.5858   -2.1123 C   0  0  0  0  0  0  0  0  0  0  0  0
   16.4176    6.4292   -2.2739 C   0  0  0  0  0  0  0  0  0  0  0  0
   16.2446    7.6941   -2.8292 C   0  0  0  0  0  0  0  0  0  0  0  0
   14.8936    9.1411   -3.6610 H   0  0  0  0  0  0  0  0  0  0  0  0
   12.9020    7.6303   -3.3761 H   0  0  0  0  0  0  0  0  0  0  0  0
   15.4383    4.6016   -1.6877 H   0  0  0  0  0  0  0  0  0  0  0  0
   17.4087    6.1146   -1.9720 H   0  0  0  0  0  0  0  0  0  0  0  0
   17.4104    8.5705   -2.9934 N   0  0  0  0  0  0  0  0  0  0  0  0
   17.2226    9.6827   -3.4873 O   0  0  0  0  0  0  0  0  0  0  0  0
   18.5048    8.1417   -2.6282 O   0  0  0  0  0  0  0  0  0  0  0  0
   11.3844    7.8643    0.0390 N   0  0  0  0  0  0  0  0  0  0  0  0
   11.0708    6.8085   -0.0511 N   0  0  0  0  0  0  0  0  0  0  0  0
   12.7491    4.0262   -2.0081 C   0  0  0  0  0  0  0  0  0  0  0  0
   13.6676    3.3193   -1.6765 O   0  0  0  0  0  0  0  0  0  0  0  0
   12.8695    5.3352   -2.4152 O   0  0  0  0  0  0  0  0  0  0  0  0
   11.2957    3.6313   -2.0452 C   0  0  0  0  0  0  0  0  0  0  0  0
   11.2001    2.5896   -1.7415 H   0  0  0  0  0  0  0  0  0  0  0  0
   10.7193    4.2734   -1.3735 H   0  0  0  0  0  0  0  0  0  0  0  0
   10.8948    3.7666   -3.0540 H   0  0  0  0  0  0  0  0  0  0  0  0
  1  2  2  0  0  0  0
  1  6  1  0  0  0  0
  2  3  1  0  0  0  0
  3 18  1  0  0  0  0
  3  4  2  0  0  0  0
  4  9  1  0  0  0  0
  5  4  1  0  0  0  0
  5 10  1  0  0  0  0
  6  5  2  0  0  0  0
  7  1  1  0  0  0  0
  8  2  1  0  0  0  0
 11  6  1  0  0  0  0
 11 13  2  0  0  0  0
 12 11  2  0  0  0  0
 15 14  3  0  0  0  0
 16 17  2  0  0  0  0
 18 16  1  0  0  0  0
 19 16  1  0  0  0  0
 19 20  1  0  0  0  0
 19 21  1  0  0  0  0
 22 19  1  0  0  0  0
M  END
