Coordinates from ORCA-job 4-NO2-Ph-N2-OAc-B3LYPG-6-31G_dp-MTMO-d009-169-n750
 OpenBabel09051907553D

 22 21  0  0  0  0  0  0  0  0999 V2000
   14.9769    8.1443   -3.2604 C   0  0  0  0  0  0  0  0  0  0  0  0
   13.8816    7.3070   -3.1075 C   0  0  0  0  0  0  0  0  0  0  0  0
   14.0377    6.0436   -2.5196 C   0  0  0  0  0  0  0  0  0  0  0  0
   15.2926    5.6051   -2.0764 C   0  0  0  0  0  0  0  0  0  0  0  0
   16.3899    6.4496   -2.2324 C   0  0  0  0  0  0  0  0  0  0  0  0
   16.2239    7.7014   -2.8187 C   0  0  0  0  0  0  0  0  0  0  0  0
   14.8858    9.1243   -3.7105 H   0  0  0  0  0  0  0  0  0  0  0  0
   12.8945    7.6110   -3.4370 H   0  0  0  0  0  0  0  0  0  0  0  0
   15.4057    4.6301   -1.6298 H   0  0  0  0  0  0  0  0  0  0  0  0
   17.3755    6.1459   -1.9025 H   0  0  0  0  0  0  0  0  0  0  0  0
   17.3898    8.5789   -2.9769 N   0  0  0  0  0  0  0  0  0  0  0  0
   17.2082    9.6799   -3.4975 O   0  0  0  0  0  0  0  0  0  0  0  0
   18.4779    8.1621   -2.5806 O   0  0  0  0  0  0  0  0  0  0  0  0
   11.6424    7.7988   -0.0057 N   0  0  0  0  0  0  0  0  0  0  0  0
   11.1993    6.7866   -0.0253 N   0  0  0  0  0  0  0  0  0  0  0  0
   12.7316    4.0272   -2.0197 C   0  0  0  0  0  0  0  0  0  0  0  0
   13.6514    3.3212   -1.6900 O   0  0  0  0  0  0  0  0  0  0  0  0
   12.8501    5.3380   -2.4224 O   0  0  0  0  0  0  0  0  0  0  0  0
   11.2789    3.6303   -2.0577 C   0  0  0  0  0  0  0  0  0  0  0  0
   11.1861    2.5837   -1.7704 H   0  0  0  0  0  0  0  0  0  0  0  0
   10.7050    4.2600   -1.3719 H   0  0  0  0  0  0  0  0  0  0  0  0
   10.8725    3.7824   -3.0619 H   0  0  0  0  0  0  0  0  0  0  0  0
  1  2  2  0  0  0  0
  1  6  1  0  0  0  0
  2  3  1  0  0  0  0
  3 18  1  0  0  0  0
  3  4  2  0  0  0  0
  4  9  1  0  0  0  0
  5  4  1  0  0  0  0
  5 10  1  0  0  0  0
  6  5  2  0  0  0  0
  7  1  1  0  0  0  0
  8  2  1  0  0  0  0
 11  6  1  0  0  0  0
 11 13  2  0  0  0  0
 12 11  2  0  0  0  0
 15 14  3  0  0  0  0
 16 17  2  0  0  0  0
 18 16  1  0  0  0  0
 19 16  1  0  0  0  0
 19 20  1  0  0  0  0
 19 21  1  0  0  0  0
 22 19  1  0  0  0  0
M  END
