Coordinates from ORCA-job 4-NO2-Ph-N2-OAc-B3LYPG-6-31G_dp-MTMO-d009-169-n750
 OpenBabel09051907553D

 22 22  0  0  0  0  0  0  0  0999 V2000
   15.1077    8.5441   -3.0760 C   0  0  0  0  0  0  0  0  0  0  0  0
   13.9238    8.4224   -2.3454 C   0  0  0  0  0  0  0  0  0  0  0  0
   13.8020    7.3090   -1.5378 C   0  0  0  0  0  0  0  0  0  0  0  0
   14.7605    6.3314   -1.3501 C   0  0  0  0  0  0  0  0  0  0  0  0
   15.9433    6.4679   -2.0790 C   0  0  0  0  0  0  0  0  0  0  0  0
   16.0907    7.5664   -2.9267 C   0  0  0  0  0  0  0  0  0  0  0  0
   15.2818    9.3787   -3.7435 H   0  0  0  0  0  0  0  0  0  0  0  0
   13.1364    9.1641   -2.4132 H   0  0  0  0  0  0  0  0  0  0  0  0
   14.5859    5.4911   -0.6863 H   0  0  0  0  0  0  0  0  0  0  0  0
   16.7448    5.7435   -1.9999 H   0  0  0  0  0  0  0  0  0  0  0  0
   17.3436    7.7043   -3.6931 N   0  0  0  0  0  0  0  0  0  0  0  0
   17.4513    8.6806   -4.4324 O   0  0  0  0  0  0  0  0  0  0  0  0
   18.1991    6.8346   -3.5432 O   0  0  0  0  0  0  0  0  0  0  0  0
   12.3595    7.2354   -0.5046 N   0  0  0  0  0  0  0  0  0  0  0  0
   11.5684    6.3589   -0.6250 N   0  0  0  0  0  0  0  0  0  0  0  0
   12.1787    4.1747   -1.5205 C   0  0  0  0  0  0  0  0  0  0  0  0
   12.6527    3.9143   -0.4335 O   0  0  0  0  0  0  0  0  0  0  0  0
   11.7917    5.4107   -1.8976 O   0  0  0  0  0  0  0  0  0  0  0  0
   11.9594    3.1771   -2.6388 C   0  0  0  0  0  0  0  0  0  0  0  0
   10.8927    2.9407   -2.7029 H   0  0  0  0  0  0  0  0  0  0  0  0
   12.2638    3.5942   -3.6018 H   0  0  0  0  0  0  0  0  0  0  0  0
   12.5193    2.2672   -2.4236 H   0  0  0  0  0  0  0  0  0  0  0  0
  1  6  2  0  0  0  0
  1  2  1  0  0  0  0
  2  3  2  0  0  0  0
  3  4  1  0  0  0  0
  3 14  1  0  0  0  0
  4  9  1  0  0  0  0
  5 10  1  0  0  0  0
  5  4  2  0  0  0  0
  6  5  1  0  0  0  0
  7  1  1  0  0  0  0
  8  2  1  0  0  0  0
 11 13  2  0  0  0  0
 11  6  1  0  0  0  0
 12 11  2  0  0  0  0
 15 14  2  0  0  0  0
 16 17  2  0  0  0  0
 18 16  1  0  0  0  0
 18 15  1  0  0  0  0
 19 22  1  0  0  0  0
 19 16  1  0  0  0  0
 20 19  1  0  0  0  0
 21 19  1  0  0  0  0
M  END
