Coordinates from ORCA-job 4-NO2-Ph-N2-OAc-B3LYPG-6-31G_dp-MTMO-d009-169-n750
 OpenBabel09051907563D

 22 21  0  0  0  0  0  0  0  0999 V2000
   15.9031    8.6417   -3.5695 C   0  0  0  0  0  0  0  0  0  0  0  0
   14.8606    7.7283   -3.5160 C   0  0  0  0  0  0  0  0  0  0  0  0
   15.0531    6.4745   -2.9187 C   0  0  0  0  0  0  0  0  0  0  0  0
   16.2918    6.1212   -2.3672 C   0  0  0  0  0  0  0  0  0  0  0  0
   17.3362    7.0421   -2.4235 C   0  0  0  0  0  0  0  0  0  0  0  0
   17.1345    8.2840   -3.0195 C   0  0  0  0  0  0  0  0  0  0  0  0
   15.7832    9.6164   -4.0243 H   0  0  0  0  0  0  0  0  0  0  0  0
   13.8872    7.9645   -3.9308 H   0  0  0  0  0  0  0  0  0  0  0  0
   16.4330    5.1535   -1.9127 H   0  0  0  0  0  0  0  0  0  0  0  0
   18.3079    6.8057   -2.0086 H   0  0  0  0  0  0  0  0  0  0  0  0
   18.2446    9.2424   -3.0721 N   0  0  0  0  0  0  0  0  0  0  0  0
   18.0311   10.3338   -3.6011 O   0  0  0  0  0  0  0  0  0  0  0  0
   19.3215    8.8987   -2.5853 O   0  0  0  0  0  0  0  0  0  0  0  0
    0.9232    2.5781    3.8173 N   0  0  0  0  0  0  0  0  0  0  0  0
    1.8659    2.8033    3.2861 N   0  0  0  0  0  0  0  0  0  0  0  0
   13.8376    4.3865   -2.4910 C   0  0  0  0  0  0  0  0  0  0  0  0
   14.7545    3.7580   -2.0239 O   0  0  0  0  0  0  0  0  0  0  0  0
   13.9157    5.6843   -2.9365 O   0  0  0  0  0  0  0  0  0  0  0  0
   12.4291    3.8848   -2.6821 C   0  0  0  0  0  0  0  0  0  0  0  0
   12.3661    2.8541   -2.3359 H   0  0  0  0  0  0  0  0  0  0  0  0
   11.7290    4.5110   -2.1218 H   0  0  0  0  0  0  0  0  0  0  0  0
   12.1486    3.9446   -3.7377 H   0  0  0  0  0  0  0  0  0  0  0  0
  1  2  2  0  0  0  0
  1  6  1  0  0  0  0
  2  3  1  0  0  0  0
  3  4  2  0  0  0  0
  4  9  1  0  0  0  0
  5  4  1  0  0  0  0
  5 10  1  0  0  0  0
  6  5  2  0  0  0  0
  7  1  1  0  0  0  0
  8  2  1  0  0  0  0
 11  6  1  0  0  0  0
 11 13  2  0  0  0  0
 12 11  2  0  0  0  0
 15 14  3  0  0  0  0
 16 17  2  0  0  0  0
 18  3  1  0  0  0  0
 18 16  1  0  0  0  0
 19 16  1  0  0  0  0
 19 20  1  0  0  0  0
 19 21  1  0  0  0  0
 22 19  1  0  0  0  0
M  END
