Coordinates from ORCA-job 4-NO2-Ph-N2-OAc-B3LYPG-6-31G_dp-MTMO-d009-169-n750
 OpenBabel09051907553D

 22 20  0  0  0  0  0  0  0  0999 V2000
   15.6024    9.0742   -2.6363 C   0  0  0  0  0  0  0  0  0  0  0  0
   14.2792    9.0579   -2.1721 C   0  0  0  0  0  0  0  0  0  0  0  0
   13.8870    7.7568   -1.9835 C   0  0  0  0  0  0  0  0  0  0  0  0
   14.4051    6.5993   -2.1157 C   0  0  0  0  0  0  0  0  0  0  0  0
   15.7346    6.5986   -2.5793 C   0  0  0  0  0  0  0  0  0  0  0  0
   16.2919    7.8632   -2.8272 C   0  0  0  0  0  0  0  0  0  0  0  0
   16.1053   10.0083   -2.8531 H   0  0  0  0  0  0  0  0  0  0  0  0
   13.6876    9.9484   -2.0014 H   0  0  0  0  0  0  0  0  0  0  0  0
   13.6810    4.8260   -1.8114 H   0  0  0  0  0  0  0  0  0  0  0  0
   16.3233    5.7042   -2.7468 H   0  0  0  0  0  0  0  0  0  0  0  0
   17.6836    7.9340   -3.3157 N   0  0  0  0  0  0  0  0  0  0  0  0
   18.1609    9.0482   -3.5262 O   0  0  0  0  0  0  0  0  0  0  0  0
   18.2797    6.8723   -3.4820 O   0  0  0  0  0  0  0  0  0  0  0  0
   11.9294    7.8259   -1.2993 N   0  0  0  0  0  0  0  0  0  0  0  0
   11.0548    7.2124   -1.0073 N   0  0  0  0  0  0  0  0  0  0  0  0
   12.1282    3.7399   -1.9793 C   0  0  0  0  0  0  0  0  0  0  0  0
   13.4458    3.8624   -1.7556 O   0  0  0  0  0  0  0  0  0  0  0  0
   11.3839    4.6852   -2.1590 O   0  0  0  0  0  0  0  0  0  0  0  0
   11.6940    2.2926   -1.9808 C   0  0  0  0  0  0  0  0  0  0  0  0
   11.9784    1.8161   -1.0378 H   0  0  0  0  0  0  0  0  0  0  0  0
   10.6153    2.2329   -2.1217 H   0  0  0  0  0  0  0  0  0  0  0  0
   12.2057    1.7526   -2.7832 H   0  0  0  0  0  0  0  0  0  0  0  0
  1  2  1  0  0  0  0
  2  8  1  0  0  0  0
  2  3  2  0  0  0  0
  4  3  1  0  0  0  0
  5  4  2  0  0  0  0
  6  1  2  0  0  0  0
  6  5  1  0  0  0  0
  7  1  1  0  0  0  0
  9 17  1  0  0  0  0
 10  5  1  0  0  0  0
 11  6  1  0  0  0  0
 12 11  2  0  0  0  0
 13 11  2  0  0  0  0
 14 15  3  0  0  0  0
 16 17  1  0  0  0  0
 18 16  2  0  0  0  0
 19 16  1  0  0  0  0
 19 20  1  0  0  0  0
 21 19  1  0  0  0  0
 22 19  1  0  0  0  0
M  RAD  2   3   2   4   2
M  END
