Coordinates from ORCA-job 4-NO2-Ph-N2-OAc-B3LYPG-6-31G_dp-MTMO-d009-169-n750
 OpenBabel09051907563D

 22 21  0  0  0  0  0  0  0  0999 V2000
   15.6653    8.5717   -3.4629 C   0  0  0  0  0  0  0  0  0  0  0  0
   14.6199    7.6617   -3.4082 C   0  0  0  0  0  0  0  0  0  0  0  0
   14.8078    6.4088   -2.8073 C   0  0  0  0  0  0  0  0  0  0  0  0
   16.0448    6.0533   -2.2534 C   0  0  0  0  0  0  0  0  0  0  0  0
   17.0921    6.9709   -2.3109 C   0  0  0  0  0  0  0  0  0  0  0  0
   16.8949    8.2118   -2.9105 C   0  0  0  0  0  0  0  0  0  0  0  0
   15.5489    9.5456   -3.9204 H   0  0  0  0  0  0  0  0  0  0  0  0
   13.6478    7.8997   -3.8250 H   0  0  0  0  0  0  0  0  0  0  0  0
   16.1824    5.0865   -1.7958 H   0  0  0  0  0  0  0  0  0  0  0  0
   18.0625    6.7326   -1.8942 H   0  0  0  0  0  0  0  0  0  0  0  0
   18.0080    9.1667   -2.9644 N   0  0  0  0  0  0  0  0  0  0  0  0
   17.7985   10.2572   -3.4967 O   0  0  0  0  0  0  0  0  0  0  0  0
   19.0833    8.8209   -2.4755 O   0  0  0  0  0  0  0  0  0  0  0  0
    3.3784    3.2369    2.6968 N   0  0  0  0  0  0  0  0  0  0  0  0
    4.3181    3.4662    2.1619 N   0  0  0  0  0  0  0  0  0  0  0  0
   13.5836    4.3279   -2.3699 C   0  0  0  0  0  0  0  0  0  0  0  0
   14.4955    3.7008   -1.8912 O   0  0  0  0  0  0  0  0  0  0  0  0
   13.6684    5.6217   -2.8257 O   0  0  0  0  0  0  0  0  0  0  0  0
   12.1751    3.8285   -2.5668 C   0  0  0  0  0  0  0  0  0  0  0  0
   12.1061    2.8017   -2.2101 H   0  0  0  0  0  0  0  0  0  0  0  0
   11.4723    4.4628   -2.0193 H   0  0  0  0  0  0  0  0  0  0  0  0
   11.9037    3.8774   -3.6253 H   0  0  0  0  0  0  0  0  0  0  0  0
  1  2  2  0  0  0  0
  1  6  1  0  0  0  0
  2  3  1  0  0  0  0
  3  4  2  0  0  0  0
  4  9  1  0  0  0  0
  5  4  1  0  0  0  0
  5 10  1  0  0  0  0
  6  5  2  0  0  0  0
  7  1  1  0  0  0  0
  8  2  1  0  0  0  0
 11  6  1  0  0  0  0
 11 13  2  0  0  0  0
 12 11  2  0  0  0  0
 15 14  3  0  0  0  0
 16 17  2  0  0  0  0
 18  3  1  0  0  0  0
 18 16  1  0  0  0  0
 19 16  1  0  0  0  0
 19 20  1  0  0  0  0
 19 21  1  0  0  0  0
 22 19  1  0  0  0  0
M  END
