Coordinates from ORCA-job 4-NO2-Ph-N2-OAc-B3LYPG-6-31G_dp-MTMO-d009-169-n750
 OpenBabel09051907553D

 22 20  0  0  0  0  0  0  0  0999 V2000
   15.6204    9.0437   -2.7073 C   0  0  0  0  0  0  0  0  0  0  0  0
   14.2968    8.9069   -2.2474 C   0  0  0  0  0  0  0  0  0  0  0  0
   14.0584    7.5727   -2.0303 C   0  0  0  0  0  0  0  0  0  0  0  0
   14.7342    6.5220   -2.1503 C   0  0  0  0  0  0  0  0  0  0  0  0
   16.0539    6.5916   -2.5990 C   0  0  0  0  0  0  0  0  0  0  0  0
   16.4506    7.9172   -2.8696 C   0  0  0  0  0  0  0  0  0  0  0  0
   16.0215   10.0218   -2.9442 H   0  0  0  0  0  0  0  0  0  0  0  0
   13.6190    9.7381   -2.1037 H   0  0  0  0  0  0  0  0  0  0  0  0
   13.7182    4.6485   -1.7914 H   0  0  0  0  0  0  0  0  0  0  0  0
   16.7362    5.7637   -2.7431 H   0  0  0  0  0  0  0  0  0  0  0  0
   17.8266    8.1388   -3.3552 N   0  0  0  0  0  0  0  0  0  0  0  0
   18.1733    9.2951   -3.5912 O   0  0  0  0  0  0  0  0  0  0  0  0
   18.5424    7.1490   -3.4932 O   0  0  0  0  0  0  0  0  0  0  0  0
   11.4554    7.7784   -1.0767 N   0  0  0  0  0  0  0  0  0  0  0  0
   10.6253    7.1946   -0.6397 N   0  0  0  0  0  0  0  0  0  0  0  0
   12.0881    3.7199   -2.0107 C   0  0  0  0  0  0  0  0  0  0  0  0
   13.4099    3.7198   -1.7338 O   0  0  0  0  0  0  0  0  0  0  0  0
   11.4632    4.7304   -2.2562 O   0  0  0  0  0  0  0  0  0  0  0  0
   11.5140    2.3247   -1.9687 C   0  0  0  0  0  0  0  0  0  0  0  0
   11.6568    1.8934   -0.9729 H   0  0  0  0  0  0  0  0  0  0  0  0
   10.4524    2.3601   -2.2105 H   0  0  0  0  0  0  0  0  0  0  0  0
   12.0407    1.6813   -2.6794 H   0  0  0  0  0  0  0  0  0  0  0  0
  1  2  1  0  0  0  0
  2  8  1  0  0  0  0
  2  3  2  0  0  0  0
  4  3  1  0  0  0  0
  5  4  2  0  0  0  0
  6  1  2  0  0  0  0
  6  5  1  0  0  0  0
  7  1  1  0  0  0  0
  9 17  1  0  0  0  0
 10  5  1  0  0  0  0
 11  6  1  0  0  0  0
 12 11  2  0  0  0  0
 13 11  2  0  0  0  0
 14 15  3  0  0  0  0
 16 19  1  0  0  0  0
 16 17  1  0  0  0  0
 18 16  2  0  0  0  0
 19 20  1  0  0  0  0
 21 19  1  0  0  0  0
 22 19  1  0  0  0  0
M  RAD  2   3   2   4   2
M  END
