Coordinates from ORCA-job 4-NO2-Ph-N2-OAc-B3LYPG-6-31G_dp-MTMO-d009-169-n750
 OpenBabel09051907553D

 22 22  0  0  0  0  0  0  0  0999 V2000
   15.1064    8.5490   -3.0732 C   0  0  0  0  0  0  0  0  0  0  0  0
   13.9232    8.4239   -2.3433 C   0  0  0  0  0  0  0  0  0  0  0  0
   13.7955    7.3087   -1.5365 C   0  0  0  0  0  0  0  0  0  0  0  0
   14.7596    6.3329   -1.3545 C   0  0  0  0  0  0  0  0  0  0  0  0
   15.9428    6.4718   -2.0811 C   0  0  0  0  0  0  0  0  0  0  0  0
   16.0903    7.5720   -2.9263 C   0  0  0  0  0  0  0  0  0  0  0  0
   15.2800    9.3856   -3.7383 H   0  0  0  0  0  0  0  0  0  0  0  0
   13.1360    9.1662   -2.4095 H   0  0  0  0  0  0  0  0  0  0  0  0
   14.5878    5.4914   -0.6917 H   0  0  0  0  0  0  0  0  0  0  0  0
   16.7448    5.7479   -2.0028 H   0  0  0  0  0  0  0  0  0  0  0  0
   17.3434    7.7127   -3.6915 N   0  0  0  0  0  0  0  0  0  0  0  0
   17.4509    8.6908   -4.4285 O   0  0  0  0  0  0  0  0  0  0  0  0
   18.1995    6.8432   -3.5433 O   0  0  0  0  0  0  0  0  0  0  0  0
   12.3863    7.2366   -0.5302 N   0  0  0  0  0  0  0  0  0  0  0  0
   11.5935    6.3560   -0.6424 N   0  0  0  0  0  0  0  0  0  0  0  0
   12.1757    4.1635   -1.5142 C   0  0  0  0  0  0  0  0  0  0  0  0
   12.6304    3.8988   -0.4210 O   0  0  0  0  0  0  0  0  0  0  0  0
   11.8192    5.4086   -1.8993 O   0  0  0  0  0  0  0  0  0  0  0  0
   11.9497    3.1694   -2.6333 C   0  0  0  0  0  0  0  0  0  0  0  0
   10.8789    2.9573   -2.7129 H   0  0  0  0  0  0  0  0  0  0  0  0
   12.2777    3.5776   -3.5923 H   0  0  0  0  0  0  0  0  0  0  0  0
   12.4854    2.2473   -2.4085 H   0  0  0  0  0  0  0  0  0  0  0  0
  1  6  2  0  0  0  0
  1  2  1  0  0  0  0
  2  3  2  0  0  0  0
  3  4  1  0  0  0  0
  3 14  1  0  0  0  0
  4  9  1  0  0  0  0
  5 10  1  0  0  0  0
  5  4  2  0  0  0  0
  6  5  1  0  0  0  0
  7  1  1  0  0  0  0
  8  2  1  0  0  0  0
 11 13  2  0  0  0  0
 11  6  1  0  0  0  0
 12 11  2  0  0  0  0
 15 14  1  0  0  0  0
 16 17  2  0  0  0  0
 18 16  1  0  0  0  0
 18 15  1  0  0  0  0
 19 22  1  0  0  0  0
 19 16  1  0  0  0  0
 20 19  1  0  0  0  0
 21 19  1  0  0  0  0
M  RAD  2  14   2  15   2
M  END
