Coordinates from ORCA-job 4-NO2-Ph-N2-OAc-B3LYPG-6-31G_dp-MTMO-d009-169-n750
 OpenBabel09051907563D

 22 21  0  0  0  0  0  0  0  0999 V2000
   15.6310    8.5612   -3.4479 C   0  0  0  0  0  0  0  0  0  0  0  0
   14.5851    7.6518   -3.3934 C   0  0  0  0  0  0  0  0  0  0  0  0
   14.7718    6.3993   -2.7914 C   0  0  0  0  0  0  0  0  0  0  0  0
   16.0081    6.0435   -2.2362 C   0  0  0  0  0  0  0  0  0  0  0  0
   17.0560    6.9604   -2.2936 C   0  0  0  0  0  0  0  0  0  0  0  0
   16.8600    8.2009   -2.8943 C   0  0  0  0  0  0  0  0  0  0  0  0
   15.5156    9.5348   -3.9063 H   0  0  0  0  0  0  0  0  0  0  0  0
   13.6134    7.8901   -3.8111 H   0  0  0  0  0  0  0  0  0  0  0  0
   16.1447    5.0770   -1.7777 H   0  0  0  0  0  0  0  0  0  0  0  0
   18.0260    6.7218   -1.8760 H   0  0  0  0  0  0  0  0  0  0  0  0
   17.9737    9.1551   -2.9482 N   0  0  0  0  0  0  0  0  0  0  0  0
   17.7653   10.2453   -3.4814 O   0  0  0  0  0  0  0  0  0  0  0  0
   19.0485    8.8090   -2.4582 O   0  0  0  0  0  0  0  0  0  0  0  0
    3.7409    3.3326    2.5353 N   0  0  0  0  0  0  0  0  0  0  0  0
    4.6784    3.5617    1.9965 N   0  0  0  0  0  0  0  0  0  0  0  0
   13.5453    4.3202   -2.3514 C   0  0  0  0  0  0  0  0  0  0  0  0
   14.4556    3.6940   -1.8686 O   0  0  0  0  0  0  0  0  0  0  0  0
   13.6320    5.6127   -2.8105 O   0  0  0  0  0  0  0  0  0  0  0  0
   12.1372    3.8208   -2.5510 C   0  0  0  0  0  0  0  0  0  0  0  0
   12.0666    2.7952   -2.1914 H   0  0  0  0  0  0  0  0  0  0  0  0
   11.4330    4.4571   -2.0075 H   0  0  0  0  0  0  0  0  0  0  0  0
   11.8690    3.8667   -3.6104 H   0  0  0  0  0  0  0  0  0  0  0  0
  1  2  2  0  0  0  0
  1  6  1  0  0  0  0
  2  3  1  0  0  0  0
  3  4  2  0  0  0  0
  4  9  1  0  0  0  0
  5  4  1  0  0  0  0
  5 10  1  0  0  0  0
  6  5  2  0  0  0  0
  7  1  1  0  0  0  0
  8  2  1  0  0  0  0
 11  6  1  0  0  0  0
 11 13  2  0  0  0  0
 12 11  2  0  0  0  0
 15 14  3  0  0  0  0
 16 17  2  0  0  0  0
 18  3  1  0  0  0  0
 18 16  1  0  0  0  0
 19 16  1  0  0  0  0
 19 20  1  0  0  0  0
 19 21  1  0  0  0  0
 22 19  1  0  0  0  0
M  END
