Coordinates from ORCA-job 4-NO2-Ph-N2-OAc-B3LYPG-6-31G_dp-MTMO-d009-169-n750
 OpenBabel09051907563D

 22 21  0  0  0  0  0  0  0  0999 V2000
   15.4548    8.5016   -3.3706 C   0  0  0  0  0  0  0  0  0  0  0  0
   14.3747    7.6413   -3.2403 C   0  0  0  0  0  0  0  0  0  0  0  0
   14.5412    6.3892   -2.6316 C   0  0  0  0  0  0  0  0  0  0  0  0
   15.7916    5.9846   -2.1456 C   0  0  0  0  0  0  0  0  0  0  0  0
   16.8738    6.8524   -2.2788 C   0  0  0  0  0  0  0  0  0  0  0  0
   16.6975    8.0930   -2.8854 C   0  0  0  0  0  0  0  0  0  0  0  0
   15.3554    9.4737   -3.8358 H   0  0  0  0  0  0  0  0  0  0  0  0
   13.3913    7.9183   -3.6031 H   0  0  0  0  0  0  0  0  0  0  0  0
   15.9127    5.0182   -1.6827 H   0  0  0  0  0  0  0  0  0  0  0  0
   17.8554    6.5754   -1.9155 H   0  0  0  0  0  0  0  0  0  0  0  0
   17.8472    8.9953   -3.0188 N   0  0  0  0  0  0  0  0  0  0  0  0
   17.6562   10.0868   -3.5559 O   0  0  0  0  0  0  0  0  0  0  0  0
   18.9326    8.6076   -2.5868 O   0  0  0  0  0  0  0  0  0  0  0  0
    5.9707    3.5877    1.1729 N   0  0  0  0  0  0  0  0  0  0  0  0
    6.9084    3.8297    0.6402 N   0  0  0  0  0  0  0  0  0  0  0  0
   13.2574    4.3650   -2.1090 C   0  0  0  0  0  0  0  0  0  0  0  0
   14.1735    3.6927   -1.7056 O   0  0  0  0  0  0  0  0  0  0  0  0
   13.3676    5.6568   -2.5657 O   0  0  0  0  0  0  0  0  0  0  0  0
   11.8158    3.9338   -2.1962 C   0  0  0  0  0  0  0  0  0  0  0  0
   11.7277    2.9059   -1.8469 H   0  0  0  0  0  0  0  0  0  0  0  0
   11.1899    4.5908   -1.5854 H   0  0  0  0  0  0  0  0  0  0  0  0
   11.4616    4.0115   -3.2282 H   0  0  0  0  0  0  0  0  0  0  0  0
  1  2  2  0  0  0  0
  1  6  1  0  0  0  0
  2  3  1  0  0  0  0
  3 18  1  0  0  0  0
  3  4  2  0  0  0  0
  4  9  1  0  0  0  0
  5  4  1  0  0  0  0
  5 10  1  0  0  0  0
  6  5  2  0  0  0  0
  7  1  1  0  0  0  0
  8  2  1  0  0  0  0
 11  6  1  0  0  0  0
 11 13  2  0  0  0  0
 12 11  2  0  0  0  0
 15 14  3  0  0  0  0
 16 17  2  0  0  0  0
 18 16  1  0  0  0  0
 19 16  1  0  0  0  0
 19 20  1  0  0  0  0
 19 21  1  0  0  0  0
 22 19  1  0  0  0  0
M  END
