Coordinates from ORCA-job 4-NO2-Ph-N2-OAc-B3LYPG-6-31G_dp-MTMO-d009-169-n750
 OpenBabel09051907553D

 22 20  0  0  0  0  0  0  0  0999 V2000
   15.6066    9.0754   -2.6431 C   0  0  0  0  0  0  0  0  0  0  0  0
   14.2815    9.0580   -2.1806 C   0  0  0  0  0  0  0  0  0  0  0  0
   13.8990    7.7551   -1.9905 C   0  0  0  0  0  0  0  0  0  0  0  0
   14.4235    6.6049   -2.1207 C   0  0  0  0  0  0  0  0  0  0  0  0
   15.7526    6.5987   -2.5811 C   0  0  0  0  0  0  0  0  0  0  0  0
   16.3028    7.8672   -2.8304 C   0  0  0  0  0  0  0  0  0  0  0  0
   16.1065   10.0109   -2.8616 H   0  0  0  0  0  0  0  0  0  0  0  0
   13.6871    9.9471   -2.0135 H   0  0  0  0  0  0  0  0  0  0  0  0
   13.6790    4.8111   -1.8090 H   0  0  0  0  0  0  0  0  0  0  0  0
   16.3445    5.7060   -2.7454 H   0  0  0  0  0  0  0  0  0  0  0  0
   17.6945    7.9437   -3.3171 N   0  0  0  0  0  0  0  0  0  0  0  0
   18.1671    9.0596   -3.5292 O   0  0  0  0  0  0  0  0  0  0  0  0
   18.2957    6.8843   -3.4805 O   0  0  0  0  0  0  0  0  0  0  0  0
   11.8826    7.8341   -1.2810 N   0  0  0  0  0  0  0  0  0  0  0  0
   11.0291    7.2112   -0.9510 N   0  0  0  0  0  0  0  0  0  0  0  0
   12.1246    3.7333   -1.9870 C   0  0  0  0  0  0  0  0  0  0  0  0
   13.4426    3.8506   -1.7526 O   0  0  0  0  0  0  0  0  0  0  0  0
   11.3891    4.6821   -2.1794 O   0  0  0  0  0  0  0  0  0  0  0  0
   11.6842    2.2882   -1.9817 C   0  0  0  0  0  0  0  0  0  0  0  0
   11.9542    1.8187   -1.0309 H   0  0  0  0  0  0  0  0  0  0  0  0
   10.6071    2.2325   -2.1355 H   0  0  0  0  0  0  0  0  0  0  0  0
   12.2034    1.7387   -2.7727 H   0  0  0  0  0  0  0  0  0  0  0  0
  1  2  1  0  0  0  0
  2  8  1  0  0  0  0
  2  3  2  0  0  0  0
  4  3  1  0  0  0  0
  5  4  2  0  0  0  0
  6  1  2  0  0  0  0
  6  5  1  0  0  0  0
  7  1  1  0  0  0  0
  9 17  1  0  0  0  0
 10  5  1  0  0  0  0
 11  6  1  0  0  0  0
 12 11  2  0  0  0  0
 13 11  2  0  0  0  0
 14 15  3  0  0  0  0
 16 19  1  0  0  0  0
 16 17  1  0  0  0  0
 18 16  2  0  0  0  0
 19 20  1  0  0  0  0
 21 19  1  0  0  0  0
 22 19  1  0  0  0  0
M  RAD  2   3   2   4   2
M  END
