Coordinates from ORCA-job 4-NO2-Ph-N2-OAc-B3LYPG-6-31G_dp-MTMO-d009-169-n750
 OpenBabel09051907563D

 22 21  0  0  0  0  0  0  0  0999 V2000
   15.9523    8.6555   -3.5921 C   0  0  0  0  0  0  0  0  0  0  0  0
   14.9101    7.7418   -3.5389 C   0  0  0  0  0  0  0  0  0  0  0  0
   15.1027    6.4880   -2.9416 C   0  0  0  0  0  0  0  0  0  0  0  0
   16.3414    6.1351   -2.3898 C   0  0  0  0  0  0  0  0  0  0  0  0
   17.3855    7.0564   -2.4457 C   0  0  0  0  0  0  0  0  0  0  0  0
   17.1836    8.2982   -3.0417 C   0  0  0  0  0  0  0  0  0  0  0  0
   15.8323    9.6302   -4.0469 H   0  0  0  0  0  0  0  0  0  0  0  0
   13.9367    7.9777   -3.9541 H   0  0  0  0  0  0  0  0  0  0  0  0
   16.4828    5.1675   -1.9352 H   0  0  0  0  0  0  0  0  0  0  0  0
   18.3572    6.8202   -2.0305 H   0  0  0  0  0  0  0  0  0  0  0  0
   18.2934    9.2570   -3.0940 N   0  0  0  0  0  0  0  0  0  0  0  0
   18.0798   10.3483   -3.6230 O   0  0  0  0  0  0  0  0  0  0  0  0
   19.3703    8.9135   -2.6068 O   0  0  0  0  0  0  0  0  0  0  0  0
    0.4264    2.4418    4.0450 N   0  0  0  0  0  0  0  0  0  0  0  0
    1.3697    2.6661    3.5143 N   0  0  0  0  0  0  0  0  0  0  0  0
   13.8878    4.3996   -2.5146 C   0  0  0  0  0  0  0  0  0  0  0  0
   14.8049    3.7712   -2.0476 O   0  0  0  0  0  0  0  0  0  0  0  0
   13.9656    5.6976   -2.9597 O   0  0  0  0  0  0  0  0  0  0  0  0
   12.4795    3.8976   -2.7058 C   0  0  0  0  0  0  0  0  0  0  0  0
   12.4169    2.8665   -2.3604 H   0  0  0  0  0  0  0  0  0  0  0  0
   11.7794    4.5230   -2.1446 H   0  0  0  0  0  0  0  0  0  0  0  0
   12.1987    3.9582   -3.7612 H   0  0  0  0  0  0  0  0  0  0  0  0
  1  2  2  0  0  0  0
  1  6  1  0  0  0  0
  2  3  1  0  0  0  0
  3  4  2  0  0  0  0
  4  9  1  0  0  0  0
  5  4  1  0  0  0  0
  5 10  1  0  0  0  0
  6  5  2  0  0  0  0
  7  1  1  0  0  0  0
  8  2  1  0  0  0  0
 11  6  1  0  0  0  0
 11 13  2  0  0  0  0
 12 11  2  0  0  0  0
 15 14  3  0  0  0  0
 16 17  2  0  0  0  0
 18  3  1  0  0  0  0
 18 16  1  0  0  0  0
 19 16  1  0  0  0  0
 19 20  1  0  0  0  0
 19 21  1  0  0  0  0
 22 19  1  0  0  0  0
M  END
