Coordinates from ORCA-job 4-NO2-Ph-N2-OAc-B3LYPG-6-31G_dp-MTMO-d009-169-n750
 OpenBabel09051907553D

 22 21  0  0  0  0  0  0  0  0999 V2000
   15.1261    8.1251   -3.4056 C   0  0  0  0  0  0  0  0  0  0  0  0
   14.0145    7.3137   -3.2332 C   0  0  0  0  0  0  0  0  0  0  0  0
   14.1415    6.0702   -2.5976 C   0  0  0  0  0  0  0  0  0  0  0  0
   15.3843    5.6258   -2.1267 C   0  0  0  0  0  0  0  0  0  0  0  0
   16.4983    6.4442   -2.3023 C   0  0  0  0  0  0  0  0  0  0  0  0
   16.3608    7.6767   -2.9351 C   0  0  0  0  0  0  0  0  0  0  0  0
   15.0571    9.0893   -3.8921 H   0  0  0  0  0  0  0  0  0  0  0  0
   13.0361    7.6227   -3.5835 H   0  0  0  0  0  0  0  0  0  0  0  0
   15.4753    4.6657   -1.6441 H   0  0  0  0  0  0  0  0  0  0  0  0
   17.4750    6.1351   -1.9518 H   0  0  0  0  0  0  0  0  0  0  0  0
   17.5434    8.5271   -3.1129 N   0  0  0  0  0  0  0  0  0  0  0  0
   17.3861    9.6128   -3.6726 O   0  0  0  0  0  0  0  0  0  0  0  0
   18.6206    8.1051   -2.6928 O   0  0  0  0  0  0  0  0  0  0  0  0
   10.2852    7.4931    0.9811 N   0  0  0  0  0  0  0  0  0  0  0  0
   10.4892    6.5955    0.3696 N   0  0  0  0  0  0  0  0  0  0  0  0
   12.7903    4.1069   -2.0169 C   0  0  0  0  0  0  0  0  0  0  0  0
   13.6907    3.4009   -1.6365 O   0  0  0  0  0  0  0  0  0  0  0  0
   12.9406    5.3903   -2.4884 O   0  0  0  0  0  0  0  0  0  0  0  0
   11.3299    3.7386   -2.0516 C   0  0  0  0  0  0  0  0  0  0  0  0
   11.2132    2.7062   -1.7245 H   0  0  0  0  0  0  0  0  0  0  0  0
   10.7657    4.4059   -1.3937 H   0  0  0  0  0  0  0  0  0  0  0  0
   10.9331    3.8605   -3.0635 H   0  0  0  0  0  0  0  0  0  0  0  0
  1  2  2  0  0  0  0
  1  6  1  0  0  0  0
  2  3  1  0  0  0  0
  3 18  1  0  0  0  0
  3  4  2  0  0  0  0
  4  9  1  0  0  0  0
  5  4  1  0  0  0  0
  5 10  1  0  0  0  0
  6  5  2  0  0  0  0
  7  1  1  0  0  0  0
  8  2  1  0  0  0  0
 11  6  1  0  0  0  0
 11 13  2  0  0  0  0
 12 11  2  0  0  0  0
 15 14  3  0  0  0  0
 16 17  2  0  0  0  0
 18 16  1  0  0  0  0
 19 16  1  0  0  0  0
 19 20  1  0  0  0  0
 19 21  1  0  0  0  0
 22 19  1  0  0  0  0
M  END
