Coordinates from ORCA-job 4-NO2-Ph-N2-OAc-B3LYPG-6-31G_dp-MTMO-d009-169-n750
 OpenBabel09051907563D

 22 21  0  0  0  0  0  0  0  0999 V2000
   15.2189    8.1387   -3.4399 C   0  0  0  0  0  0  0  0  0  0  0  0
   14.0947    7.3527   -3.2346 C   0  0  0  0  0  0  0  0  0  0  0  0
   14.2131    6.1041   -2.6074 C   0  0  0  0  0  0  0  0  0  0  0  0
   15.4595    5.6292   -2.1778 C   0  0  0  0  0  0  0  0  0  0  0  0
   16.5861    6.4224   -2.3861 C   0  0  0  0  0  0  0  0  0  0  0  0
   16.4571    7.6601   -3.0105 C   0  0  0  0  0  0  0  0  0  0  0  0
   15.1569    9.1062   -3.9209 H   0  0  0  0  0  0  0  0  0  0  0  0
   13.1130    7.6858   -3.5521 H   0  0  0  0  0  0  0  0  0  0  0  0
   15.5436    4.6652   -1.7017 H   0  0  0  0  0  0  0  0  0  0  0  0
   17.5660    6.0895   -2.0678 H   0  0  0  0  0  0  0  0  0  0  0  0
   17.6529    8.4838   -3.2231 N   0  0  0  0  0  0  0  0  0  0  0  0
   17.5033    9.5744   -3.7752 O   0  0  0  0  0  0  0  0  0  0  0  0
   18.7326    8.0359   -2.8375 O   0  0  0  0  0  0  0  0  0  0  0  0
    9.4774    7.1854    1.2073 N   0  0  0  0  0  0  0  0  0  0  0  0
    9.8331    6.3841    0.5346 N   0  0  0  0  0  0  0  0  0  0  0  0
   12.8361    4.1692   -1.9926 C   0  0  0  0  0  0  0  0  0  0  0  0
   13.7323    3.4381   -1.6519 O   0  0  0  0  0  0  0  0  0  0  0  0
   13.0007    5.4520   -2.4610 O   0  0  0  0  0  0  0  0  0  0  0  0
   11.3665    3.8381   -1.9726 C   0  0  0  0  0  0  0  0  0  0  0  0
   11.2374    2.8039   -1.6557 H   0  0  0  0  0  0  0  0  0  0  0  0
   10.8442    4.5077   -1.2828 H   0  0  0  0  0  0  0  0  0  0  0  0
   10.9317    3.9848   -2.9655 H   0  0  0  0  0  0  0  0  0  0  0  0
  1  2  2  0  0  0  0
  1  6  1  0  0  0  0
  2  3  1  0  0  0  0
  3 18  1  0  0  0  0
  3  4  2  0  0  0  0
  4  9  1  0  0  0  0
  5  4  1  0  0  0  0
  5 10  1  0  0  0  0
  6  5  2  0  0  0  0
  7  1  1  0  0  0  0
  8  2  1  0  0  0  0
 11  6  1  0  0  0  0
 11 13  2  0  0  0  0
 12 11  2  0  0  0  0
 15 14  3  0  0  0  0
 16 19  1  0  0  0  0
 16 17  2  0  0  0  0
 18 16  1  0  0  0  0
 19 20  1  0  0  0  0
 19 21  1  0  0  0  0
 22 19  1  0  0  0  0
M  END
