Coordinates from ORCA-job 4-NO2-Ph-N2-OAc-B3LYPG-6-31G_dp-MTMO-d009-169-n750
 OpenBabel09051907553D

 22 22  0  0  0  0  0  0  0  0999 V2000
   15.2197    8.7440   -2.9246 C   0  0  0  0  0  0  0  0  0  0  0  0
   14.0140    8.5723   -2.2657 C   0  0  0  0  0  0  0  0  0  0  0  0
   13.6962    7.3351   -1.6394 C   0  0  0  0  0  0  0  0  0  0  0  0
   14.6776    6.3012   -1.6391 C   0  0  0  0  0  0  0  0  0  0  0  0
   15.9022    6.5001   -2.2545 C   0  0  0  0  0  0  0  0  0  0  0  0
   16.1528    7.7078   -2.9051 C   0  0  0  0  0  0  0  0  0  0  0  0
   15.4612    9.6701   -3.4302 H   0  0  0  0  0  0  0  0  0  0  0  0
   13.2747    9.3661   -2.2463 H   0  0  0  0  0  0  0  0  0  0  0  0
   14.4589    5.3862   -1.0989 H   0  0  0  0  0  0  0  0  0  0  0  0
   16.6643    5.7303   -2.2493 H   0  0  0  0  0  0  0  0  0  0  0  0
   17.4468    7.9028   -3.5760 N   0  0  0  0  0  0  0  0  0  0  0  0
   17.6354    8.9788   -4.1421 O   0  0  0  0  0  0  0  0  0  0  0  0
   18.2558    6.9778   -3.5296 O   0  0  0  0  0  0  0  0  0  0  0  0
   12.6484    7.2092   -1.0703 N   0  0  0  0  0  0  0  0  0  0  0  0
   11.7622    6.4181   -0.9421 N   0  0  0  0  0  0  0  0  0  0  0  0
   12.1450    4.0486   -1.5151 C   0  0  0  0  0  0  0  0  0  0  0  0
   12.6756    3.9350   -0.4242 O   0  0  0  0  0  0  0  0  0  0  0  0
   11.8635    5.2248   -2.0899 O   0  0  0  0  0  0  0  0  0  0  0  0
   11.7361    2.8863   -2.3981 C   0  0  0  0  0  0  0  0  0  0  0  0
   10.6476    2.7727   -2.3597 H   0  0  0  0  0  0  0  0  0  0  0  0
   12.0113    3.0704   -3.4398 H   0  0  0  0  0  0  0  0  0  0  0  0
   12.2081    1.9735   -2.0348 H   0  0  0  0  0  0  0  0  0  0  0  0
  1  6  2  0  0  0  0
  1  2  1  0  0  0  0
  2  8  1  0  0  0  0
  2  3  2  0  0  0  0
  3  4  1  0  0  0  0
  3 14  1  0  0  0  0
  4  9  1  0  0  0  0
  5 10  1  0  0  0  0
  5  4  2  0  0  0  0
  6  5  1  0  0  0  0
  7  1  1  0  0  0  0
 11 13  2  0  0  0  0
 11  6  1  0  0  0  0
 12 11  2  0  0  0  0
 14 15  1  0  0  0  0
 16 17  2  0  0  0  0
 18 16  1  0  0  0  0
 18 15  1  0  0  0  0
 19 20  1  0  0  0  0
 19 22  1  0  0  0  0
 19 16  1  0  0  0  0
 21 19  1  0  0  0  0
M  RAD  2  14   2  15   2
M  END
