Coordinates from ORCA-job 4-NO2-Ph-N2-OAc-B3LYPG-6-31G_dp-MTMO-d009-169-n750
 OpenBabel09051907563D

 22 21  0  0  0  0  0  0  0  0999 V2000
   15.8764    8.6340   -3.5573 C   0  0  0  0  0  0  0  0  0  0  0  0
   14.8335    7.7211   -3.5033 C   0  0  0  0  0  0  0  0  0  0  0  0
   15.0256    6.4672   -2.9059 C   0  0  0  0  0  0  0  0  0  0  0  0
   16.2644    6.1135   -2.3547 C   0  0  0  0  0  0  0  0  0  0  0  0
   17.3091    7.0340   -2.4114 C   0  0  0  0  0  0  0  0  0  0  0  0
   17.1078    8.2759   -3.0076 C   0  0  0  0  0  0  0  0  0  0  0  0
   15.7568    9.6087   -4.0122 H   0  0  0  0  0  0  0  0  0  0  0  0
   13.8601    7.9576   -3.9180 H   0  0  0  0  0  0  0  0  0  0  0  0
   16.4052    5.1459   -1.9000 H   0  0  0  0  0  0  0  0  0  0  0  0
   18.2808    6.7972   -1.9968 H   0  0  0  0  0  0  0  0  0  0  0  0
   18.2183    9.2338   -3.0608 N   0  0  0  0  0  0  0  0  0  0  0  0
   18.0051   10.3251   -3.5900 O   0  0  0  0  0  0  0  0  0  0  0  0
   19.2952    8.8896   -2.5743 O   0  0  0  0  0  0  0  0  0  0  0  0
    1.1973    2.6515    3.6908 N   0  0  0  0  0  0  0  0  0  0  0  0
    2.1398    2.8771    3.1594 N   0  0  0  0  0  0  0  0  0  0  0  0
   13.8093    4.3799   -2.4772 C   0  0  0  0  0  0  0  0  0  0  0  0
   14.7259    3.7514   -2.0097 O   0  0  0  0  0  0  0  0  0  0  0  0
   13.8879    5.6775   -2.9233 O   0  0  0  0  0  0  0  0  0  0  0  0
   12.4006    3.8787   -2.6683 C   0  0  0  0  0  0  0  0  0  0  0  0
   12.3370    2.8482   -2.3213 H   0  0  0  0  0  0  0  0  0  0  0  0
   11.7008    4.5056   -2.1085 H   0  0  0  0  0  0  0  0  0  0  0  0
   12.1204    3.9378   -3.7240 H   0  0  0  0  0  0  0  0  0  0  0  0
  1  2  2  0  0  0  0
  1  6  1  0  0  0  0
  2  3  1  0  0  0  0
  3  4  2  0  0  0  0
  4  9  1  0  0  0  0
  5  4  1  0  0  0  0
  5 10  1  0  0  0  0
  6  5  2  0  0  0  0
  7  1  1  0  0  0  0
  8  2  1  0  0  0  0
 11  6  1  0  0  0  0
 11 13  2  0  0  0  0
 12 11  2  0  0  0  0
 15 14  3  0  0  0  0
 16 17  2  0  0  0  0
 18  3  1  0  0  0  0
 18 16  1  0  0  0  0
 19 16  1  0  0  0  0
 19 20  1  0  0  0  0
 19 21  1  0  0  0  0
 22 19  1  0  0  0  0
M  END
