Coordinates from ORCA-job 4-NO2-Ph-N2-OAc-B3LYPG-6-31G_dp-MTMO-d009-169-n750
 OpenBabel09051907563D

 22 21  0  0  0  0  0  0  0  0999 V2000
   15.6245    8.5590   -3.4453 C   0  0  0  0  0  0  0  0  0  0  0  0
   14.5786    7.6496   -3.3913 C   0  0  0  0  0  0  0  0  0  0  0  0
   14.7649    6.3973   -2.7888 C   0  0  0  0  0  0  0  0  0  0  0  0
   16.0009    6.0417   -2.2327 C   0  0  0  0  0  0  0  0  0  0  0  0
   17.0487    6.9587   -2.2895 C   0  0  0  0  0  0  0  0  0  0  0  0
   16.8531    8.1990   -2.8907 C   0  0  0  0  0  0  0  0  0  0  0  0
   15.5093    9.5325   -3.9040 H   0  0  0  0  0  0  0  0  0  0  0  0
   13.6072    7.8877   -3.8098 H   0  0  0  0  0  0  0  0  0  0  0  0
   16.1372    5.0753   -1.7738 H   0  0  0  0  0  0  0  0  0  0  0  0
   18.0185    6.7203   -1.8712 H   0  0  0  0  0  0  0  0  0  0  0  0
   17.9668    9.1533   -2.9440 N   0  0  0  0  0  0  0  0  0  0  0  0
   17.7586   10.2433   -3.4777 O   0  0  0  0  0  0  0  0  0  0  0  0
   19.0412    8.8074   -2.4531 O   0  0  0  0  0  0  0  0  0  0  0  0
    3.8106    3.3523    2.5063 N   0  0  0  0  0  0  0  0  0  0  0  0
    4.7475    3.5810    1.9663 N   0  0  0  0  0  0  0  0  0  0  0  0
   13.5382    4.3182   -2.3488 C   0  0  0  0  0  0  0  0  0  0  0  0
   14.4482    3.6924   -1.8648 O   0  0  0  0  0  0  0  0  0  0  0  0
   13.6252    5.6106   -2.8085 O   0  0  0  0  0  0  0  0  0  0  0  0
   12.1302    3.8188   -2.5492 C   0  0  0  0  0  0  0  0  0  0  0  0
   12.0592    2.7934   -2.1890 H   0  0  0  0  0  0  0  0  0  0  0  0
   11.4260    4.4555   -2.0062 H   0  0  0  0  0  0  0  0  0  0  0  0
   11.8626    3.8642   -3.6087 H   0  0  0  0  0  0  0  0  0  0  0  0
  1  2  2  0  0  0  0
  1  6  1  0  0  0  0
  2  3  1  0  0  0  0
  3  4  2  0  0  0  0
  4  9  1  0  0  0  0
  5  4  1  0  0  0  0
  5 10  1  0  0  0  0
  6  5  2  0  0  0  0
  7  1  1  0  0  0  0
  8  2  1  0  0  0  0
 11  6  1  0  0  0  0
 11 13  2  0  0  0  0
 12 11  2  0  0  0  0
 15 14  3  0  0  0  0
 16 17  2  0  0  0  0
 18  3  1  0  0  0  0
 18 16  1  0  0  0  0
 19 16  1  0  0  0  0
 19 20  1  0  0  0  0
 19 21  1  0  0  0  0
 22 19  1  0  0  0  0
M  END
