Coordinates from ORCA-job 4-NO2-Ph-N2-OAc-B3LYPG-6-31G_dp-MTMO-d009-169-n750
 OpenBabel09051907563D

 22 21  0  0  0  0  0  0  0  0999 V2000
   15.4492    8.4993   -3.3687 C   0  0  0  0  0  0  0  0  0  0  0  0
   14.3684    7.6398   -3.2377 C   0  0  0  0  0  0  0  0  0  0  0  0
   14.5342    6.3879   -2.6284 C   0  0  0  0  0  0  0  0  0  0  0  0
   15.7844    5.9827   -2.1424 C   0  0  0  0  0  0  0  0  0  0  0  0
   16.8672    6.8496   -2.2763 C   0  0  0  0  0  0  0  0  0  0  0  0
   16.6917    8.0901   -2.8835 C   0  0  0  0  0  0  0  0  0  0  0  0
   15.3503    9.4712   -3.8343 H   0  0  0  0  0  0  0  0  0  0  0  0
   13.3851    7.9173   -3.6005 H   0  0  0  0  0  0  0  0  0  0  0  0
   15.9049    5.0164   -1.6790 H   0  0  0  0  0  0  0  0  0  0  0  0
   17.8487    6.5721   -1.9131 H   0  0  0  0  0  0  0  0  0  0  0  0
   17.8420    8.9915   -3.0177 N   0  0  0  0  0  0  0  0  0  0  0  0
   17.6516   10.0828   -3.5553 O   0  0  0  0  0  0  0  0  0  0  0  0
   18.9271    8.6032   -2.5857 O   0  0  0  0  0  0  0  0  0  0  0  0
    6.0404    3.6020    1.1407 N   0  0  0  0  0  0  0  0  0  0  0  0
    6.9785    3.8456    0.6094 N   0  0  0  0  0  0  0  0  0  0  0  0
   13.2489    4.3651   -2.1039 C   0  0  0  0  0  0  0  0  0  0  0  0
   14.1644    3.6927   -1.6994 O   0  0  0  0  0  0  0  0  0  0  0  0
   13.3601    5.6563   -2.5620 O   0  0  0  0  0  0  0  0  0  0  0  0
   11.8071    3.9346   -2.1913 C   0  0  0  0  0  0  0  0  0  0  0  0
   11.7186    2.9066   -1.8425 H   0  0  0  0  0  0  0  0  0  0  0  0
   11.1816    4.5915   -1.5799 H   0  0  0  0  0  0  0  0  0  0  0  0
   11.4528    4.0132   -3.2231 H   0  0  0  0  0  0  0  0  0  0  0  0
  1  2  2  0  0  0  0
  1  6  1  0  0  0  0
  2  3  1  0  0  0  0
  3 18  1  0  0  0  0
  3  4  2  0  0  0  0
  4  9  1  0  0  0  0
  5  4  1  0  0  0  0
  5 10  1  0  0  0  0
  6  5  2  0  0  0  0
  7  1  1  0  0  0  0
  8  2  1  0  0  0  0
 11  6  1  0  0  0  0
 11 13  2  0  0  0  0
 12 11  2  0  0  0  0
 15 14  3  0  0  0  0
 16 17  2  0  0  0  0
 18 16  1  0  0  0  0
 19 16  1  0  0  0  0
 19 20  1  0  0  0  0
 19 21  1  0  0  0  0
 22 19  1  0  0  0  0
M  END
