Coordinates from ORCA-job 4-NO2-Ph-N2-OAc-B3LYPG-6-31G_dp-MTMO-d009-169-n750
 OpenBabel09051907563D

 22 21  0  0  0  0  0  0  0  0999 V2000
   15.4956    8.5168   -3.3862 C   0  0  0  0  0  0  0  0  0  0  0  0
   14.4183    7.6524   -3.2594 C   0  0  0  0  0  0  0  0  0  0  0  0
   14.5881    6.3999   -2.6527 C   0  0  0  0  0  0  0  0  0  0  0  0
   15.8391    5.9988   -2.1651 C   0  0  0  0  0  0  0  0  0  0  0  0
   16.9184    6.8706   -2.2947 C   0  0  0  0  0  0  0  0  0  0  0  0
   16.7389    8.1117   -2.8993 C   0  0  0  0  0  0  0  0  0  0  0  0
   15.3936    9.4894   -3.8498 H   0  0  0  0  0  0  0  0  0  0  0  0
   13.4346    7.9266   -3.6235 H   0  0  0  0  0  0  0  0  0  0  0  0
   15.9628    5.0320   -1.7038 H   0  0  0  0  0  0  0  0  0  0  0  0
   17.9004    6.5965   -1.9300 H   0  0  0  0  0  0  0  0  0  0  0  0
   17.8856    9.0184   -3.0290 N   0  0  0  0  0  0  0  0  0  0  0  0
   17.6917   10.1102   -3.5644 O   0  0  0  0  0  0  0  0  0  0  0  0
   18.9715    8.6336   -2.5957 O   0  0  0  0  0  0  0  0  0  0  0  0
    5.5028    3.4759    1.3853 N   0  0  0  0  0  0  0  0  0  0  0  0
    6.4396    3.7123    0.8484 N   0  0  0  0  0  0  0  0  0  0  0  0
   13.3114    4.3689   -2.1393 C   0  0  0  0  0  0  0  0  0  0  0  0
   14.2299    3.6977   -1.7399 O   0  0  0  0  0  0  0  0  0  0  0  0
   13.4170    5.6633   -2.5896 O   0  0  0  0  0  0  0  0  0  0  0  0
   11.8712    3.9332   -2.2281 C   0  0  0  0  0  0  0  0  0  0  0  0
   11.7861    2.9047   -1.8800 H   0  0  0  0  0  0  0  0  0  0  0  0
   11.2428    4.5878   -1.6174 H   0  0  0  0  0  0  0  0  0  0  0  0
   11.5178    4.0107   -3.2604 H   0  0  0  0  0  0  0  0  0  0  0  0
  1  2  2  0  0  0  0
  1  6  1  0  0  0  0
  2  3  1  0  0  0  0
  3 18  1  0  0  0  0
  3  4  2  0  0  0  0
  4  9  1  0  0  0  0
  5  4  1  0  0  0  0
  5 10  1  0  0  0  0
  6  5  2  0  0  0  0
  7  1  1  0  0  0  0
  8  2  1  0  0  0  0
 11  6  1  0  0  0  0
 11 13  2  0  0  0  0
 12 11  2  0  0  0  0
 15 14  3  0  0  0  0
 16 17  2  0  0  0  0
 18 16  1  0  0  0  0
 19 16  1  0  0  0  0
 19 20  1  0  0  0  0
 19 21  1  0  0  0  0
 22 19  1  0  0  0  0
M  END
