Coordinates from ORCA-job 4-NO2-Ph-N2-OAc-B3LYPG-6-31G_dp-MTMO-d009-169-n750
 OpenBabel09051907553D

 22 21  0  0  0  0  0  0  0  0999 V2000
   14.9751    8.1436   -3.2617 C   0  0  0  0  0  0  0  0  0  0  0  0
   13.8801    7.3056   -3.1107 C   0  0  0  0  0  0  0  0  0  0  0  0
   14.0356    6.0430   -2.5214 C   0  0  0  0  0  0  0  0  0  0  0  0
   15.2899    5.6060   -2.0748 C   0  0  0  0  0  0  0  0  0  0  0  0
   16.3870    6.4510   -2.2287 C   0  0  0  0  0  0  0  0  0  0  0  0
   16.2214    7.7022   -2.8166 C   0  0  0  0  0  0  0  0  0  0  0  0
   14.8843    9.1231   -3.7129 H   0  0  0  0  0  0  0  0  0  0  0  0
   12.8935    7.6087   -3.4427 H   0  0  0  0  0  0  0  0  0  0  0  0
   15.4028    4.6312   -1.6274 H   0  0  0  0  0  0  0  0  0  0  0  0
   17.3720    6.1484   -1.8961 H   0  0  0  0  0  0  0  0  0  0  0  0
   17.3868    8.5806   -2.9727 N   0  0  0  0  0  0  0  0  0  0  0  0
   17.2056    9.6809   -3.4949 O   0  0  0  0  0  0  0  0  0  0  0  0
   18.4743    8.1651   -2.5732 O   0  0  0  0  0  0  0  0  0  0  0  0
   11.6669    7.7970   -0.0147 N   0  0  0  0  0  0  0  0  0  0  0  0
   11.2172    6.7876   -0.0281 N   0  0  0  0  0  0  0  0  0  0  0  0
   12.7303    4.0256   -2.0231 C   0  0  0  0  0  0  0  0  0  0  0  0
   13.6508    3.3188   -1.6969 O   0  0  0  0  0  0  0  0  0  0  0  0
   12.8484    5.3364   -2.4258 O   0  0  0  0  0  0  0  0  0  0  0  0
   11.2771    3.6301   -2.0562 C   0  0  0  0  0  0  0  0  0  0  0  0
   11.1842    2.5836   -1.7684 H   0  0  0  0  0  0  0  0  0  0  0  0
   10.7063    4.2605   -1.3686 H   0  0  0  0  0  0  0  0  0  0  0  0
   10.8674    3.7822   -3.0591 H   0  0  0  0  0  0  0  0  0  0  0  0
  1  2  2  0  0  0  0
  1  6  1  0  0  0  0
  2  3  1  0  0  0  0
  3 18  1  0  0  0  0
  3  4  2  0  0  0  0
  4  9  1  0  0  0  0
  5  4  1  0  0  0  0
  5 10  1  0  0  0  0
  6  5  2  0  0  0  0
  7  1  1  0  0  0  0
  8  2  1  0  0  0  0
 11  6  1  0  0  0  0
 11 13  2  0  0  0  0
 12 11  2  0  0  0  0
 15 14  3  0  0  0  0
 16 17  2  0  0  0  0
 18 16  1  0  0  0  0
 19 16  1  0  0  0  0
 19 20  1  0  0  0  0
 19 21  1  0  0  0  0
 22 19  1  0  0  0  0
M  END
