Coordinates from ORCA-job 4-NO2-Ph-N2-OAc-B3LYPG-6-31G_dp-MTMO-d009-169-n750
 OpenBabel09051907553D

 22 21  0  0  0  0  0  0  0  0999 V2000
   15.0316    8.1387   -3.2951 C   0  0  0  0  0  0  0  0  0  0  0  0
   13.9297    7.3129   -3.1282 C   0  0  0  0  0  0  0  0  0  0  0  0
   14.0778    6.0529   -2.5311 C   0  0  0  0  0  0  0  0  0  0  0  0
   15.3315    5.6066   -2.0921 C   0  0  0  0  0  0  0  0  0  0  0  0
   16.4356    6.4394   -2.2621 C   0  0  0  0  0  0  0  0  0  0  0  0
   16.2774    7.6879   -2.8577 C   0  0  0  0  0  0  0  0  0  0  0  0
   14.9466    9.1157   -3.7528 H   0  0  0  0  0  0  0  0  0  0  0  0
   12.9432    7.6233   -3.4536 H   0  0  0  0  0  0  0  0  0  0  0  0
   15.4386    4.6340   -1.6389 H   0  0  0  0  0  0  0  0  0  0  0  0
   17.4204    6.1294   -1.9359 H   0  0  0  0  0  0  0  0  0  0  0  0
   17.4501    8.5534   -3.0303 N   0  0  0  0  0  0  0  0  0  0  0  0
   17.2750    9.6523   -3.5577 O   0  0  0  0  0  0  0  0  0  0  0  0
   18.5370    8.1296   -2.6382 O   0  0  0  0  0  0  0  0  0  0  0  0
   11.0496    7.7961    0.3207 N   0  0  0  0  0  0  0  0  0  0  0  0
   10.9411    6.7232    0.0792 N   0  0  0  0  0  0  0  0  0  0  0  0
   12.7613    4.0453   -2.0298 C   0  0  0  0  0  0  0  0  0  0  0  0
   13.6803    3.3283   -1.7221 O   0  0  0  0  0  0  0  0  0  0  0  0
   12.8844    5.3600   -2.4178 O   0  0  0  0  0  0  0  0  0  0  0  0
   11.3052    3.6597   -2.0528 C   0  0  0  0  0  0  0  0  0  0  0  0
   11.2082    2.6108   -1.7752 H   0  0  0  0  0  0  0  0  0  0  0  0
   10.7456    4.2869   -1.3533 H   0  0  0  0  0  0  0  0  0  0  0  0
   10.8872    3.8251   -3.0501 H   0  0  0  0  0  0  0  0  0  0  0  0
  1  2  2  0  0  0  0
  1  6  1  0  0  0  0
  2  3  1  0  0  0  0
  3 18  1  0  0  0  0
  3  4  2  0  0  0  0
  4  9  1  0  0  0  0
  5  4  1  0  0  0  0
  5 10  1  0  0  0  0
  6  5  2  0  0  0  0
  7  1  1  0  0  0  0
  8  2  1  0  0  0  0
 11  6  1  0  0  0  0
 11 13  2  0  0  0  0
 12 11  2  0  0  0  0
 15 14  3  0  0  0  0
 16 17  2  0  0  0  0
 18 16  1  0  0  0  0
 19 16  1  0  0  0  0
 19 20  1  0  0  0  0
 19 21  1  0  0  0  0
 22 19  1  0  0  0  0
M  END
