Coordinates from ORCA-job 4-NO2-Ph-N2-OAc-B3LYPG-6-31G_dp-MTMO-d009-169-n750
 OpenBabel09051907563D

 22 21  0  0  0  0  0  0  0  0999 V2000
   15.3117    8.4431   -3.3263 C   0  0  0  0  0  0  0  0  0  0  0  0
   14.2354    7.5751   -3.2168 C   0  0  0  0  0  0  0  0  0  0  0  0
   14.3966    6.3279   -2.5966 C   0  0  0  0  0  0  0  0  0  0  0  0
   15.6381    5.9360   -2.0782 C   0  0  0  0  0  0  0  0  0  0  0  0
   16.7165    6.8113   -2.1908 C   0  0  0  0  0  0  0  0  0  0  0  0
   16.5455    8.0470   -2.8090 C   0  0  0  0  0  0  0  0  0  0  0  0
   15.2160    9.4116   -3.7995 H   0  0  0  0  0  0  0  0  0  0  0  0
   13.2590    7.8421   -3.6050 H   0  0  0  0  0  0  0  0  0  0  0  0
   15.7548    4.9737   -1.6056 H   0  0  0  0  0  0  0  0  0  0  0  0
   17.6913    6.5440   -1.8026 H   0  0  0  0  0  0  0  0  0  0  0  0
   17.6912    8.9571   -2.9208 N   0  0  0  0  0  0  0  0  0  0  0  0
   17.5046   10.0441   -3.4686 O   0  0  0  0  0  0  0  0  0  0  0  0
   18.7691    8.5801   -2.4615 O   0  0  0  0  0  0  0  0  0  0  0  0
    7.4425    4.1754    0.7021 N   0  0  0  0  0  0  0  0  0  0  0  0
    8.3854    4.3857    0.1651 N   0  0  0  0  0  0  0  0  0  0  0  0
   13.1102    4.3047   -2.0735 C   0  0  0  0  0  0  0  0  0  0  0  0
   14.0146    3.6542   -1.6118 O   0  0  0  0  0  0  0  0  0  0  0  0
   13.2281    5.5852   -2.5598 O   0  0  0  0  0  0  0  0  0  0  0  0
   11.6778    3.8555   -2.2059 C   0  0  0  0  0  0  0  0  0  0  0  0
   11.6068    2.8047   -1.9273 H   0  0  0  0  0  0  0  0  0  0  0  0
   11.0351    4.4520   -1.5511 H   0  0  0  0  0  0  0  0  0  0  0  0
   11.3268    4.0010   -3.2311 H   0  0  0  0  0  0  0  0  0  0  0  0
  1  2  2  0  0  0  0
  1  6  1  0  0  0  0
  2  3  1  0  0  0  0
  3 18  1  0  0  0  0
  3  4  2  0  0  0  0
  4  9  1  0  0  0  0
  5  4  1  0  0  0  0
  5 10  1  0  0  0  0
  6  5  2  0  0  0  0
  7  1  1  0  0  0  0
  8  2  1  0  0  0  0
 11  6  1  0  0  0  0
 11 13  2  0  0  0  0
 12 11  2  0  0  0  0
 15 14  3  0  0  0  0
 16 17  2  0  0  0  0
 18 16  1  0  0  0  0
 19 16  1  0  0  0  0
 19 20  1  0  0  0  0
 19 21  1  0  0  0  0
 22 19  1  0  0  0  0
M  END
