Coordinates from ORCA-job 4-NO2-Ph-N2-OAc-B3LYPG-6-31G_dp-MTMO-d009-169-n750
 OpenBabel09051907553D

 22 22  0  0  0  0  0  0  0  0999 V2000
   15.1224    8.5965   -3.0465 C   0  0  0  0  0  0  0  0  0  0  0  0
   13.9371    8.4577   -2.3272 C   0  0  0  0  0  0  0  0  0  0  0  0
   13.7684    7.3185   -1.5495 C   0  0  0  0  0  0  0  0  0  0  0  0
   14.7426    6.3345   -1.4071 C   0  0  0  0  0  0  0  0  0  0  0  0
   15.9326    6.4856   -2.1144 C   0  0  0  0  0  0  0  0  0  0  0  0
   16.0979    7.6085   -2.9252 C   0  0  0  0  0  0  0  0  0  0  0  0
   15.3064    9.4531   -3.6824 H   0  0  0  0  0  0  0  0  0  0  0  0
   13.1601    9.2126   -2.3742 H   0  0  0  0  0  0  0  0  0  0  0  0
   14.5685    5.4766   -0.7664 H   0  0  0  0  0  0  0  0  0  0  0  0
   16.7278    5.7532   -2.0497 H   0  0  0  0  0  0  0  0  0  0  0  0
   17.3575    7.7619   -3.6756 N   0  0  0  0  0  0  0  0  0  0  0  0
   17.4787    8.7609   -4.3822 O   0  0  0  0  0  0  0  0  0  0  0  0
   18.2058    6.8815   -3.5472 O   0  0  0  0  0  0  0  0  0  0  0  0
   12.4838    7.2434   -0.6638 N   0  0  0  0  0  0  0  0  0  0  0  0
   11.6847    6.3519   -0.7204 N   0  0  0  0  0  0  0  0  0  0  0  0
   12.1614    4.1115   -1.4920 C   0  0  0  0  0  0  0  0  0  0  0  0
   12.5634    3.8555   -0.3775 O   0  0  0  0  0  0  0  0  0  0  0  0
   11.9123    5.3705   -1.9256 O   0  0  0  0  0  0  0  0  0  0  0  0
   11.8952    3.1025   -2.5867 C   0  0  0  0  0  0  0  0  0  0  0  0
   10.8143    2.9813   -2.7090 H   0  0  0  0  0  0  0  0  0  0  0  0
   12.2981    3.4475   -3.5421 H   0  0  0  0  0  0  0  0  0  0  0  0
   12.3384    2.1461   -2.3099 H   0  0  0  0  0  0  0  0  0  0  0  0
  1  6  2  0  0  0  0
  1  2  1  0  0  0  0
  2  3  2  0  0  0  0
  3  4  1  0  0  0  0
  3 14  1  0  0  0  0
  4  9  1  0  0  0  0
  5 10  1  0  0  0  0
  5  4  2  0  0  0  0
  6  5  1  0  0  0  0
  7  1  1  0  0  0  0
  8  2  1  0  0  0  0
 11 13  2  0  0  0  0
 11  6  1  0  0  0  0
 12 11  2  0  0  0  0
 15 14  1  0  0  0  0
 16 17  2  0  0  0  0
 18 16  1  0  0  0  0
 18 15  1  0  0  0  0
 19 22  1  0  0  0  0
 19 16  1  0  0  0  0
 20 19  1  0  0  0  0
 21 19  1  0  0  0  0
M  RAD  2  14   2  15   2
M  END
