Coordinates from ORCA-job 4-NO2-Ph-N2-OAc-B3LYPG-6-31G_dp-MTMO-d009-169-n750
 OpenBabel09051907563D

 22 21  0  0  0  0  0  0  0  0999 V2000
   15.1524    8.1311   -3.4095 C   0  0  0  0  0  0  0  0  0  0  0  0
   14.0377    7.3261   -3.2274 C   0  0  0  0  0  0  0  0  0  0  0  0
   14.1644    6.0785   -2.6001 C   0  0  0  0  0  0  0  0  0  0  0  0
   15.4100    5.6234   -2.1471 C   0  0  0  0  0  0  0  0  0  0  0  0
   16.5272    6.4355   -2.3323 C   0  0  0  0  0  0  0  0  0  0  0  0
   16.3899    7.6722   -2.9569 C   0  0  0  0  0  0  0  0  0  0  0  0
   15.0837    9.0984   -3.8900 H   0  0  0  0  0  0  0  0  0  0  0  0
   13.0570    7.6435   -3.5638 H   0  0  0  0  0  0  0  0  0  0  0  0
   15.5008    4.6600   -1.6710 H   0  0  0  0  0  0  0  0  0  0  0  0
   17.5061    6.1181   -1.9956 H   0  0  0  0  0  0  0  0  0  0  0  0
   17.5758    8.5158   -3.1449 N   0  0  0  0  0  0  0  0  0  0  0  0
   17.4188    9.6052   -3.6974 O   0  0  0  0  0  0  0  0  0  0  0  0
   18.6552    8.0848   -2.7400 O   0  0  0  0  0  0  0  0  0  0  0  0
   10.0670    7.4335    1.0346 N   0  0  0  0  0  0  0  0  0  0  0  0
   10.2405    6.5293    0.4234 N   0  0  0  0  0  0  0  0  0  0  0  0
   12.8075    4.1210   -2.0122 C   0  0  0  0  0  0  0  0  0  0  0  0
   13.7082    3.4060   -1.6498 O   0  0  0  0  0  0  0  0  0  0  0  0
   12.9605    5.4058   -2.4790 O   0  0  0  0  0  0  0  0  0  0  0  0
   11.3438    3.7646   -2.0258 C   0  0  0  0  0  0  0  0  0  0  0  0
   11.2235    2.7332   -1.6969 H   0  0  0  0  0  0  0  0  0  0  0  0
   10.7934    4.4365   -1.3608 H   0  0  0  0  0  0  0  0  0  0  0  0
   10.9339    3.8890   -3.0322 H   0  0  0  0  0  0  0  0  0  0  0  0
  1  2  2  0  0  0  0
  1  6  1  0  0  0  0
  2  3  1  0  0  0  0
  3 18  1  0  0  0  0
  3  4  2  0  0  0  0
  4  9  1  0  0  0  0
  5  4  1  0  0  0  0
  5 10  1  0  0  0  0
  6  5  2  0  0  0  0
  7  1  1  0  0  0  0
  8  2  1  0  0  0  0
 11  6  1  0  0  0  0
 11 13  2  0  0  0  0
 12 11  2  0  0  0  0
 15 14  3  0  0  0  0
 16 17  2  0  0  0  0
 18 16  1  0  0  0  0
 19 16  1  0  0  0  0
 19 20  1  0  0  0  0
 19 21  1  0  0  0  0
 22 19  1  0  0  0  0
M  END
