Coordinates from ORCA-job 4-NO2-Ph-N2-OAc-B3LYPG-6-31G_dp-MTMO-d009-169-n750
 OpenBabel09051907563D

 22 21  0  0  0  0  0  0  0  0999 V2000
   15.1175    8.3958   -3.2170 C   0  0  0  0  0  0  0  0  0  0  0  0
   14.0936    7.4606   -3.1870 C   0  0  0  0  0  0  0  0  0  0  0  0
   14.3085    6.1989   -2.6140 C   0  0  0  0  0  0  0  0  0  0  0  0
   15.5519    5.8601   -2.0636 C   0  0  0  0  0  0  0  0  0  0  0  0
   16.5775    6.8030   -2.0961 C   0  0  0  0  0  0  0  0  0  0  0  0
   16.3534    8.0523   -2.6681 C   0  0  0  0  0  0  0  0  0  0  0  0
   14.9798    9.3768   -3.6530 H   0  0  0  0  0  0  0  0  0  0  0  0
   13.1175    7.6852   -3.6020 H   0  0  0  0  0  0  0  0  0  0  0  0
   15.7107    4.8865   -1.6279 H   0  0  0  0  0  0  0  0  0  0  0  0
   17.5519    6.5780   -1.6813 H   0  0  0  0  0  0  0  0  0  0  0  0
   17.4437    9.0340   -2.6958 N   0  0  0  0  0  0  0  0  0  0  0  0
   17.2105   10.1313   -3.2038 O   0  0  0  0  0  0  0  0  0  0  0  0
   18.5252    8.7027   -2.2104 O   0  0  0  0  0  0  0  0  0  0  0  0
    8.4981    5.5641    0.8109 N   0  0  0  0  0  0  0  0  0  0  0  0
    9.2313    5.1961    0.0705 N   0  0  0  0  0  0  0  0  0  0  0  0
   13.1341    4.0778   -2.2353 C   0  0  0  0  0  0  0  0  0  0  0  0
   14.0635    3.4591   -1.7794 O   0  0  0  0  0  0  0  0  0  0  0  0
   13.1879    5.3868   -2.6536 O   0  0  0  0  0  0  0  0  0  0  0  0
   11.7348    3.5553   -2.4320 C   0  0  0  0  0  0  0  0  0  0  0  0
   11.7116    2.4945   -2.1848 H   0  0  0  0  0  0  0  0  0  0  0  0
   11.0410    4.1011   -1.7854 H   0  0  0  0  0  0  0  0  0  0  0  0
   11.4132    3.7112   -3.4654 H   0  0  0  0  0  0  0  0  0  0  0  0
  1  2  2  0  0  0  0
  1  6  1  0  0  0  0
  2  3  1  0  0  0  0
  3  4  2  0  0  0  0
  4  9  1  0  0  0  0
  5  4  1  0  0  0  0
  5 10  1  0  0  0  0
  6  5  2  0  0  0  0
  7  1  1  0  0  0  0
  8  2  1  0  0  0  0
 11  6  1  0  0  0  0
 11 13  2  0  0  0  0
 12 11  2  0  0  0  0
 15 14  3  0  0  0  0
 16 17  2  0  0  0  0
 18  3  1  0  0  0  0
 18 16  1  0  0  0  0
 19 16  1  0  0  0  0
 19 20  1  0  0  0  0
 19 21  1  0  0  0  0
 22 19  1  0  0  0  0
M  END
