Coordinates from ORCA-job 4-NO2-Ph-N2-OAc-B3LYPG-6-31G_dp-MTMO-d009-169-n750
 OpenBabel09051907563D

 22 21  0  0  0  0  0  0  0  0999 V2000
   15.7806    8.6070   -3.5136 C   0  0  0  0  0  0  0  0  0  0  0  0
   14.7380    7.6936   -3.4612 C   0  0  0  0  0  0  0  0  0  0  0  0
   14.9298    6.4398   -2.8634 C   0  0  0  0  0  0  0  0  0  0  0  0
   16.1679    6.0868   -2.3103 C   0  0  0  0  0  0  0  0  0  0  0  0
   17.2123    7.0078   -2.3654 C   0  0  0  0  0  0  0  0  0  0  0  0
   17.0112    8.2495   -2.9620 C   0  0  0  0  0  0  0  0  0  0  0  0
   15.6611    9.5816   -3.9687 H   0  0  0  0  0  0  0  0  0  0  0  0
   13.7652    7.9296   -3.8774 H   0  0  0  0  0  0  0  0  0  0  0  0
   16.3085    5.1192   -1.8552 H   0  0  0  0  0  0  0  0  0  0  0  0
   18.1834    6.7715   -1.9493 H   0  0  0  0  0  0  0  0  0  0  0  0
   18.1214    9.2080   -3.0134 N   0  0  0  0  0  0  0  0  0  0  0  0
   17.9085   10.2992   -3.5429 O   0  0  0  0  0  0  0  0  0  0  0  0
   19.1977    8.8644   -2.5252 O   0  0  0  0  0  0  0  0  0  0  0  0
    2.1586    2.9230    3.2589 N   0  0  0  0  0  0  0  0  0  0  0  0
    3.0998    3.1469    2.7243 N   0  0  0  0  0  0  0  0  0  0  0  0
   13.7131    4.3527   -2.4345 C   0  0  0  0  0  0  0  0  0  0  0  0
   14.6284    3.7257   -1.9623 O   0  0  0  0  0  0  0  0  0  0  0  0
   13.7926    5.6494   -2.8830 O   0  0  0  0  0  0  0  0  0  0  0  0
   12.3055    3.8503   -2.6295 C   0  0  0  0  0  0  0  0  0  0  0  0
   12.2414    2.8205   -2.2809 H   0  0  0  0  0  0  0  0  0  0  0  0
   11.6031    4.4777   -2.0735 H   0  0  0  0  0  0  0  0  0  0  0  0
   12.0290    3.9072   -3.6863 H   0  0  0  0  0  0  0  0  0  0  0  0
  1  2  2  0  0  0  0
  1  6  1  0  0  0  0
  2  3  1  0  0  0  0
  3  4  2  0  0  0  0
  4  9  1  0  0  0  0
  5  4  1  0  0  0  0
  5 10  1  0  0  0  0
  6  5  2  0  0  0  0
  7  1  1  0  0  0  0
  8  2  1  0  0  0  0
 11  6  1  0  0  0  0
 11 13  2  0  0  0  0
 12 11  2  0  0  0  0
 15 14  3  0  0  0  0
 16 17  2  0  0  0  0
 18  3  1  0  0  0  0
 18 16  1  0  0  0  0
 19 16  1  0  0  0  0
 19 20  1  0  0  0  0
 19 21  1  0  0  0  0
 22 19  1  0  0  0  0
M  END
