Coordinates from ORCA-job 4-NO2-Ph-N2-OAc-B3LYPG-6-31G_dp-MTMO-d009-169-n750
 OpenBabel09051907553D

 22 21  0  0  0  0  0  0  0  0999 V2000
   15.1290    8.1250   -3.4077 C   0  0  0  0  0  0  0  0  0  0  0  0
   14.0170    7.3141   -3.2349 C   0  0  0  0  0  0  0  0  0  0  0  0
   14.1436    6.0708   -2.5990 C   0  0  0  0  0  0  0  0  0  0  0  0
   15.3863    5.6260   -2.1280 C   0  0  0  0  0  0  0  0  0  0  0  0
   16.5006    6.4440   -2.3040 C   0  0  0  0  0  0  0  0  0  0  0  0
   16.3635    7.6763   -2.9372 C   0  0  0  0  0  0  0  0  0  0  0  0
   15.0603    9.0892   -3.8944 H   0  0  0  0  0  0  0  0  0  0  0  0
   13.0387    7.6234   -3.5852 H   0  0  0  0  0  0  0  0  0  0  0  0
   15.4770    4.6660   -1.6452 H   0  0  0  0  0  0  0  0  0  0  0  0
   17.4772    6.1346   -1.9535 H   0  0  0  0  0  0  0  0  0  0  0  0
   17.5465    8.5263   -3.1154 N   0  0  0  0  0  0  0  0  0  0  0  0
   17.3895    9.6118   -3.6754 O   0  0  0  0  0  0  0  0  0  0  0  0
   18.6235    8.1039   -2.6953 O   0  0  0  0  0  0  0  0  0  0  0  0
   10.2629    7.4844    0.9897 N   0  0  0  0  0  0  0  0  0  0  0  0
   10.4710    6.5885    0.3771 N   0  0  0  0  0  0  0  0  0  0  0  0
   12.7915    4.1084   -2.0170 C   0  0  0  0  0  0  0  0  0  0  0  0
   13.6917    3.4018   -1.6372 O   0  0  0  0  0  0  0  0  0  0  0  0
   12.9425    5.3914   -2.4893 O   0  0  0  0  0  0  0  0  0  0  0  0
   11.3306    3.7417   -2.0495 C   0  0  0  0  0  0  0  0  0  0  0  0
   11.2132    2.7091   -1.7230 H   0  0  0  0  0  0  0  0  0  0  0  0
   10.7689    4.4093   -1.3898 H   0  0  0  0  0  0  0  0  0  0  0  0
   10.9320    3.8651   -3.0605 H   0  0  0  0  0  0  0  0  0  0  0  0
  1  2  2  0  0  0  0
  1  6  1  0  0  0  0
  2  3  1  0  0  0  0
  3 18  1  0  0  0  0
  3  4  2  0  0  0  0
  4  9  1  0  0  0  0
  5  4  1  0  0  0  0
  5 10  1  0  0  0  0
  6  5  2  0  0  0  0
  7  1  1  0  0  0  0
  8  2  1  0  0  0  0
 11  6  1  0  0  0  0
 11 13  2  0  0  0  0
 12 11  2  0  0  0  0
 15 14  3  0  0  0  0
 16 17  2  0  0  0  0
 18 16  1  0  0  0  0
 19 16  1  0  0  0  0
 19 20  1  0  0  0  0
 19 21  1  0  0  0  0
 22 19  1  0  0  0  0
M  END
