Coordinates from ORCA-job 4-NO2-Ph-N2-OAc-B3LYPG-6-31G_dp-MTMO-d009-169-n750
 OpenBabel09051907563D

 22 21  0  0  0  0  0  0  0  0999 V2000
   15.7630    8.6021   -3.5057 C   0  0  0  0  0  0  0  0  0  0  0  0
   14.7210    7.6880   -3.4547 C   0  0  0  0  0  0  0  0  0  0  0  0
   14.9128    6.4343   -2.8568 C   0  0  0  0  0  0  0  0  0  0  0  0
   16.1504    6.0820   -2.3022 C   0  0  0  0  0  0  0  0  0  0  0  0
   17.1943    7.0037   -2.3559 C   0  0  0  0  0  0  0  0  0  0  0  0
   16.9932    8.2453   -2.9526 C   0  0  0  0  0  0  0  0  0  0  0  0
   15.6435    9.5767   -3.9609 H   0  0  0  0  0  0  0  0  0  0  0  0
   13.7485    7.9234   -3.8721 H   0  0  0  0  0  0  0  0  0  0  0  0
   16.2911    5.1145   -1.8469 H   0  0  0  0  0  0  0  0  0  0  0  0
   18.1651    6.7679   -1.9386 H   0  0  0  0  0  0  0  0  0  0  0  0
   18.1028    9.2045   -3.0027 N   0  0  0  0  0  0  0  0  0  0  0  0
   17.8899   10.2955   -3.5325 O   0  0  0  0  0  0  0  0  0  0  0  0
   19.1788    8.8615   -2.5133 O   0  0  0  0  0  0  0  0  0  0  0  0
    2.3310    2.9763    3.1852 N   0  0  0  0  0  0  0  0  0  0  0  0
    3.2721    3.1966    2.6489 N   0  0  0  0  0  0  0  0  0  0  0  0
   13.6965    4.3469   -2.4279 C   0  0  0  0  0  0  0  0  0  0  0  0
   14.6110    3.7212   -1.9524 O   0  0  0  0  0  0  0  0  0  0  0  0
   13.7763    5.6431   -2.8782 O   0  0  0  0  0  0  0  0  0  0  0  0
   12.2896    3.8434   -2.6255 C   0  0  0  0  0  0  0  0  0  0  0  0
   12.2259    2.8131   -2.2784 H   0  0  0  0  0  0  0  0  0  0  0  0
   11.5863    4.4694   -2.0690 H   0  0  0  0  0  0  0  0  0  0  0  0
   12.0140    3.9019   -3.6824 H   0  0  0  0  0  0  0  0  0  0  0  0
  1  2  2  0  0  0  0
  1  6  1  0  0  0  0
  2  3  1  0  0  0  0
  3  4  2  0  0  0  0
  4  9  1  0  0  0  0
  5  4  1  0  0  0  0
  5 10  1  0  0  0  0
  6  5  2  0  0  0  0
  7  1  1  0  0  0  0
  8  2  1  0  0  0  0
 11  6  1  0  0  0  0
 11 13  2  0  0  0  0
 12 11  2  0  0  0  0
 15 14  3  0  0  0  0
 16 17  2  0  0  0  0
 18  3  1  0  0  0  0
 18 16  1  0  0  0  0
 19 16  1  0  0  0  0
 19 20  1  0  0  0  0
 19 21  1  0  0  0  0
 22 19  1  0  0  0  0
M  END
