Coordinates from ORCA-job 4-NO2-Ph-N2-OAc-B3LYPG-6-31G_dp-MTMO-d009-169-n750
 OpenBabel09051907553D

 22 20  0  0  0  0  0  0  0  0999 V2000
   15.6166    9.0453   -2.7045 C   0  0  0  0  0  0  0  0  0  0  0  0
   14.2929    8.9128   -2.2437 C   0  0  0  0  0  0  0  0  0  0  0  0
   14.0504    7.5796   -2.0266 C   0  0  0  0  0  0  0  0  0  0  0  0
   14.7209    6.5251   -2.1463 C   0  0  0  0  0  0  0  0  0  0  0  0
   16.0408    6.5919   -2.5963 C   0  0  0  0  0  0  0  0  0  0  0  0
   16.4424    7.9158   -2.8673 C   0  0  0  0  0  0  0  0  0  0  0  0
   16.0207   10.0221   -2.9417 H   0  0  0  0  0  0  0  0  0  0  0  0
   13.6178    9.7460   -2.0993 H   0  0  0  0  0  0  0  0  0  0  0  0
   13.7211    4.6498   -1.7937 H   0  0  0  0  0  0  0  0  0  0  0  0
   16.7202    5.7617   -2.7408 H   0  0  0  0  0  0  0  0  0  0  0  0
   17.8189    8.1324   -3.3538 N   0  0  0  0  0  0  0  0  0  0  0  0
   18.1696    9.2874   -3.5901 O   0  0  0  0  0  0  0  0  0  0  0  0
   18.5310    7.1400   -3.4924 O   0  0  0  0  0  0  0  0  0  0  0  0
   11.4877    7.7792   -1.0863 N   0  0  0  0  0  0  0  0  0  0  0  0
   10.6577    7.1932   -0.6521 N   0  0  0  0  0  0  0  0  0  0  0  0
   12.0913    3.7198   -2.0137 C   0  0  0  0  0  0  0  0  0  0  0  0
   13.4123    3.7211   -1.7339 O   0  0  0  0  0  0  0  0  0  0  0  0
   11.4663    4.7292   -2.2637 O   0  0  0  0  0  0  0  0  0  0  0  0
   11.5176    2.3245   -1.9686 C   0  0  0  0  0  0  0  0  0  0  0  0
   11.6565    1.8973   -0.9705 H   0  0  0  0  0  0  0  0  0  0  0  0
   10.4570    2.3585   -2.2147 H   0  0  0  0  0  0  0  0  0  0  0  0
   12.0475    1.6784   -2.6745 H   0  0  0  0  0  0  0  0  0  0  0  0
  1  2  1  0  0  0  0
  2  8  1  0  0  0  0
  2  3  2  0  0  0  0
  4  3  1  0  0  0  0
  5  4  2  0  0  0  0
  6  1  2  0  0  0  0
  6  5  1  0  0  0  0
  7  1  1  0  0  0  0
  9 17  1  0  0  0  0
 10  5  1  0  0  0  0
 11  6  1  0  0  0  0
 12 11  2  0  0  0  0
 13 11  2  0  0  0  0
 14 15  3  0  0  0  0
 16 19  1  0  0  0  0
 16 17  1  0  0  0  0
 18 16  2  0  0  0  0
 19 20  1  0  0  0  0
 21 19  1  0  0  0  0
 22 19  1  0  0  0  0
M  RAD  2   3   2   4   2
M  END
