Coordinates from ORCA-job 4-NO2-Ph-N2-OAc-B3LYPG-6-31G_dp-MTMO-d009-169-n750
 OpenBabel09051907563D

 22 21  0  0  0  0  0  0  0  0999 V2000
   15.9234    8.6475   -3.5787 C   0  0  0  0  0  0  0  0  0  0  0  0
   14.8810    7.7340   -3.5252 C   0  0  0  0  0  0  0  0  0  0  0  0
   15.0735    6.4801   -2.9280 C   0  0  0  0  0  0  0  0  0  0  0  0
   16.3123    6.1270   -2.3765 C   0  0  0  0  0  0  0  0  0  0  0  0
   17.3566    7.0480   -2.4327 C   0  0  0  0  0  0  0  0  0  0  0  0
   17.1548    8.2899   -3.0287 C   0  0  0  0  0  0  0  0  0  0  0  0
   15.8034    9.6222   -4.0334 H   0  0  0  0  0  0  0  0  0  0  0  0
   13.9076    7.9701   -3.9401 H   0  0  0  0  0  0  0  0  0  0  0  0
   16.4536    5.1593   -1.9220 H   0  0  0  0  0  0  0  0  0  0  0  0
   18.3283    6.8117   -2.0178 H   0  0  0  0  0  0  0  0  0  0  0  0
   18.2648    9.2484   -3.0813 N   0  0  0  0  0  0  0  0  0  0  0  0
   18.0513   10.3397   -3.6104 O   0  0  0  0  0  0  0  0  0  0  0  0
   19.3418    8.9047   -2.5946 O   0  0  0  0  0  0  0  0  0  0  0  0
    0.7175    2.5218    3.9114 N   0  0  0  0  0  0  0  0  0  0  0  0
    1.6604    2.7465    3.3805 N   0  0  0  0  0  0  0  0  0  0  0  0
   13.8584    4.3918   -2.5006 C   0  0  0  0  0  0  0  0  0  0  0  0
   14.7755    3.7636   -2.0335 O   0  0  0  0  0  0  0  0  0  0  0  0
   13.9363    5.6898   -2.9459 O   0  0  0  0  0  0  0  0  0  0  0  0
   12.4501    3.8900   -2.6920 C   0  0  0  0  0  0  0  0  0  0  0  0
   12.3870    2.8591   -2.3462 H   0  0  0  0  0  0  0  0  0  0  0  0
   11.7502    4.5159   -2.1312 H   0  0  0  0  0  0  0  0  0  0  0  0
   12.1694    3.9502   -3.7475 H   0  0  0  0  0  0  0  0  0  0  0  0
  1  2  2  0  0  0  0
  1  6  1  0  0  0  0
  2  3  1  0  0  0  0
  3  4  2  0  0  0  0
  4  9  1  0  0  0  0
  5  4  1  0  0  0  0
  5 10  1  0  0  0  0
  6  5  2  0  0  0  0
  7  1  1  0  0  0  0
  8  2  1  0  0  0  0
 11  6  1  0  0  0  0
 11 13  2  0  0  0  0
 12 11  2  0  0  0  0
 15 14  3  0  0  0  0
 16 17  2  0  0  0  0
 18  3  1  0  0  0  0
 18 16  1  0  0  0  0
 19 16  1  0  0  0  0
 19 20  1  0  0  0  0
 19 21  1  0  0  0  0
 22 19  1  0  0  0  0
M  END
