Coordinates from ORCA-job 4-NO2-Ph-N2-OAc-B3LYPG-6-31G_dp-MTMO-d009-169-n750
 OpenBabel09051907563D

 22 21  0  0  0  0  0  0  0  0999 V2000
   15.6669    8.5723   -3.4635 C   0  0  0  0  0  0  0  0  0  0  0  0
   14.6216    7.6623   -3.4086 C   0  0  0  0  0  0  0  0  0  0  0  0
   14.8095    6.4094   -2.8079 C   0  0  0  0  0  0  0  0  0  0  0  0
   16.0466    6.0538   -2.2543 C   0  0  0  0  0  0  0  0  0  0  0  0
   17.0939    6.9713   -2.3119 C   0  0  0  0  0  0  0  0  0  0  0  0
   16.8967    8.2122   -2.9114 C   0  0  0  0  0  0  0  0  0  0  0  0
   15.5505    9.5462   -3.9210 H   0  0  0  0  0  0  0  0  0  0  0  0
   13.6493    7.9004   -3.8252 H   0  0  0  0  0  0  0  0  0  0  0  0
   16.1842    5.0870   -1.7967 H   0  0  0  0  0  0  0  0  0  0  0  0
   18.0645    6.7329   -1.8955 H   0  0  0  0  0  0  0  0  0  0  0  0
   18.0098    9.1670   -2.9656 N   0  0  0  0  0  0  0  0  0  0  0  0
   17.8003   10.2576   -3.4978 O   0  0  0  0  0  0  0  0  0  0  0  0
   19.0852    8.8211   -2.4770 O   0  0  0  0  0  0  0  0  0  0  0  0
    3.3610    3.2318    2.7040 N   0  0  0  0  0  0  0  0  0  0  0  0
    4.3007    3.4612    2.1693 N   0  0  0  0  0  0  0  0  0  0  0  0
   13.5853    4.3285   -2.3704 C   0  0  0  0  0  0  0  0  0  0  0  0
   14.4973    3.7013   -1.8920 O   0  0  0  0  0  0  0  0  0  0  0  0
   13.6700    5.6224   -2.8260 O   0  0  0  0  0  0  0  0  0  0  0  0
   12.1768    3.8290   -2.5673 C   0  0  0  0  0  0  0  0  0  0  0  0
   12.1078    2.8022   -2.2107 H   0  0  0  0  0  0  0  0  0  0  0  0
   11.4740    4.4632   -2.0195 H   0  0  0  0  0  0  0  0  0  0  0  0
   11.9053    3.8781   -3.6257 H   0  0  0  0  0  0  0  0  0  0  0  0
  1  2  2  0  0  0  0
  1  6  1  0  0  0  0
  2  3  1  0  0  0  0
  3  4  2  0  0  0  0
  4  9  1  0  0  0  0
  5  4  1  0  0  0  0
  5 10  1  0  0  0  0
  6  5  2  0  0  0  0
  7  1  1  0  0  0  0
  8  2  1  0  0  0  0
 11  6  1  0  0  0  0
 11 13  2  0  0  0  0
 12 11  2  0  0  0  0
 15 14  3  0  0  0  0
 16 17  2  0  0  0  0
 18  3  1  0  0  0  0
 18 16  1  0  0  0  0
 19 16  1  0  0  0  0
 19 20  1  0  0  0  0
 19 21  1  0  0  0  0
 22 19  1  0  0  0  0
M  END
