Coordinates from ORCA-job 4-NO2-Ph-N2-OAc-B3LYPG-6-31G_dp-MTMO-d009-169-n750
 OpenBabel09051907563D

 22 21  0  0  0  0  0  0  0  0999 V2000
   15.8341    8.6219   -3.5381 C   0  0  0  0  0  0  0  0  0  0  0  0
   14.7910    7.7091   -3.4843 C   0  0  0  0  0  0  0  0  0  0  0  0
   14.9828    6.4554   -2.8865 C   0  0  0  0  0  0  0  0  0  0  0  0
   16.2213    6.1016   -2.3349 C   0  0  0  0  0  0  0  0  0  0  0  0
   17.2661    7.0220   -2.3914 C   0  0  0  0  0  0  0  0  0  0  0  0
   17.0652    8.2637   -2.9879 C   0  0  0  0  0  0  0  0  0  0  0  0
   15.7147    9.5965   -3.9932 H   0  0  0  0  0  0  0  0  0  0  0  0
   13.8178    7.9457   -3.8994 H   0  0  0  0  0  0  0  0  0  0  0  0
   16.3619    5.1341   -1.8798 H   0  0  0  0  0  0  0  0  0  0  0  0
   18.2377    6.7852   -1.9763 H   0  0  0  0  0  0  0  0  0  0  0  0
   18.1758    9.2215   -3.0409 N   0  0  0  0  0  0  0  0  0  0  0  0
   17.9630   10.3127   -3.5703 O   0  0  0  0  0  0  0  0  0  0  0  0
   19.2525    8.8773   -2.5539 O   0  0  0  0  0  0  0  0  0  0  0  0
    1.6263    2.7701    3.4965 N   0  0  0  0  0  0  0  0  0  0  0  0
    2.5682    2.9960    2.9641 N   0  0  0  0  0  0  0  0  0  0  0  0
   13.7658    4.3685   -2.4572 C   0  0  0  0  0  0  0  0  0  0  0  0
   14.6818    3.7404   -1.9879 O   0  0  0  0  0  0  0  0  0  0  0  0
   13.8450    5.6657   -2.9045 O   0  0  0  0  0  0  0  0  0  0  0  0
   12.3574    3.8672   -2.6497 C   0  0  0  0  0  0  0  0  0  0  0  0
   12.2934    2.8371   -2.3018 H   0  0  0  0  0  0  0  0  0  0  0  0
   11.6566    4.4946   -2.0916 H   0  0  0  0  0  0  0  0  0  0  0  0
   12.0787    3.9251   -3.7058 H   0  0  0  0  0  0  0  0  0  0  0  0
  1  2  2  0  0  0  0
  1  6  1  0  0  0  0
  2  3  1  0  0  0  0
  3  4  2  0  0  0  0
  4  9  1  0  0  0  0
  5  4  1  0  0  0  0
  5 10  1  0  0  0  0
  6  5  2  0  0  0  0
  7  1  1  0  0  0  0
  8  2  1  0  0  0  0
 11  6  1  0  0  0  0
 11 13  2  0  0  0  0
 12 11  2  0  0  0  0
 15 14  3  0  0  0  0
 16 17  2  0  0  0  0
 18  3  1  0  0  0  0
 18 16  1  0  0  0  0
 19 16  1  0  0  0  0
 19 20  1  0  0  0  0
 19 21  1  0  0  0  0
 22 19  1  0  0  0  0
M  END
