Coordinates from ORCA-job 4-NO2-Ph-N2-OAc-B3LYPG-6-31G_dp-MTMO-d009-169-n750
 OpenBabel09051907553D

 22 21  0  0  0  0  0  0  0  0999 V2000
   14.9561    8.1215   -3.3396 C   0  0  0  0  0  0  0  0  0  0  0  0
   13.8634    7.2767   -3.2102 C   0  0  0  0  0  0  0  0  0  0  0  0
   13.9994    6.0453   -2.5539 C   0  0  0  0  0  0  0  0  0  0  0  0
   15.2314    5.6462   -2.0187 C   0  0  0  0  0  0  0  0  0  0  0  0
   16.3262    6.4980   -2.1511 C   0  0  0  0  0  0  0  0  0  0  0  0
   16.1802    7.7182   -2.8056 C   0  0  0  0  0  0  0  0  0  0  0  0
   14.8800    9.0776   -3.8409 H   0  0  0  0  0  0  0  0  0  0  0  0
   12.8940    7.5504   -3.6110 H   0  0  0  0  0  0  0  0  0  0  0  0
   15.3299    4.6945   -1.5209 H   0  0  0  0  0  0  0  0  0  0  0  0
   17.2942    6.2243   -1.7509 H   0  0  0  0  0  0  0  0  0  0  0  0
   17.3430    8.6037   -2.9388 N   0  0  0  0  0  0  0  0  0  0  0  0
   17.1786    9.6769   -3.5197 O   0  0  0  0  0  0  0  0  0  0  0  0
   18.4117    8.2206   -2.4633 O   0  0  0  0  0  0  0  0  0  0  0  0
   12.1994    7.6082    0.1325 N   0  0  0  0  0  0  0  0  0  0  0  0
   11.4854    6.7692    0.0447 N   0  0  0  0  0  0  0  0  0  0  0  0
   12.6862    4.0413   -2.0214 C   0  0  0  0  0  0  0  0  0  0  0  0
   13.5916    3.3650   -1.6019 O   0  0  0  0  0  0  0  0  0  0  0  0
   12.8169    5.3273   -2.4939 O   0  0  0  0  0  0  0  0  0  0  0  0
   11.2397    3.6301   -2.1112 C   0  0  0  0  0  0  0  0  0  0  0  0
   11.1403    2.5952   -1.7859 H   0  0  0  0  0  0  0  0  0  0  0  0
   10.6320    4.2810   -1.4758 H   0  0  0  0  0  0  0  0  0  0  0  0
   10.8775    3.7402   -3.1372 H   0  0  0  0  0  0  0  0  0  0  0  0
  1  2  2  0  0  0  0
  1  6  1  0  0  0  0
  2  3  1  0  0  0  0
  3 18  1  0  0  0  0
  3  4  2  0  0  0  0
  4  9  1  0  0  0  0
  5  4  1  0  0  0  0
  5 10  1  0  0  0  0
  6  5  2  0  0  0  0
  7  1  1  0  0  0  0
  8  2  1  0  0  0  0
 11  6  1  0  0  0  0
 11 13  2  0  0  0  0
 12 11  2  0  0  0  0
 15 14  3  0  0  0  0
 16 17  2  0  0  0  0
 18 16  1  0  0  0  0
 19 16  1  0  0  0  0
 19 20  1  0  0  0  0
 19 21  1  0  0  0  0
 22 19  1  0  0  0  0
M  END
