Coordinates from ORCA-job 4-NO2-Ph-N2-OAc-B3LYPG-6-31G_dp-MTMO-d009-169-n750
 OpenBabel09051907563D

 22 21  0  0  0  0  0  0  0  0999 V2000
   15.8238    8.6190   -3.5335 C   0  0  0  0  0  0  0  0  0  0  0  0
   14.7809    7.7061   -3.4799 C   0  0  0  0  0  0  0  0  0  0  0  0
   14.9725    6.4524   -2.8821 C   0  0  0  0  0  0  0  0  0  0  0  0
   16.2109    6.0988   -2.3300 C   0  0  0  0  0  0  0  0  0  0  0  0
   17.2557    7.0192   -2.3863 C   0  0  0  0  0  0  0  0  0  0  0  0
   17.0548    8.2609   -2.9829 C   0  0  0  0  0  0  0  0  0  0  0  0
   15.7045    9.5936   -3.9887 H   0  0  0  0  0  0  0  0  0  0  0  0
   13.8077    7.9426   -3.8953 H   0  0  0  0  0  0  0  0  0  0  0  0
   16.3514    5.1313   -1.8749 H   0  0  0  0  0  0  0  0  0  0  0  0
   18.2271    6.7825   -1.9710 H   0  0  0  0  0  0  0  0  0  0  0  0
   18.1654    9.2188   -3.0356 N   0  0  0  0  0  0  0  0  0  0  0  0
   17.9527   10.3099   -3.5652 O   0  0  0  0  0  0  0  0  0  0  0  0
   19.2420    8.8746   -2.5484 O   0  0  0  0  0  0  0  0  0  0  0  0
    1.7294    2.7991    3.4503 N   0  0  0  0  0  0  0  0  0  0  0  0
    2.6711    3.0249    2.9177 N   0  0  0  0  0  0  0  0  0  0  0  0
   13.7555    4.3655   -2.4528 C   0  0  0  0  0  0  0  0  0  0  0  0
   14.6715    3.7376   -1.9830 O   0  0  0  0  0  0  0  0  0  0  0  0
   13.8348    5.6627   -2.9002 O   0  0  0  0  0  0  0  0  0  0  0  0
   12.3472    3.8641   -2.6457 C   0  0  0  0  0  0  0  0  0  0  0  0
   12.2829    2.8341   -2.2974 H   0  0  0  0  0  0  0  0  0  0  0  0
   11.6465    4.4918   -2.0879 H   0  0  0  0  0  0  0  0  0  0  0  0
   12.0688    3.9218   -3.7019 H   0  0  0  0  0  0  0  0  0  0  0  0
  1  2  2  0  0  0  0
  1  6  1  0  0  0  0
  2  3  1  0  0  0  0
  3  4  2  0  0  0  0
  4  9  1  0  0  0  0
  5  4  1  0  0  0  0
  5 10  1  0  0  0  0
  6  5  2  0  0  0  0
  7  1  1  0  0  0  0
  8  2  1  0  0  0  0
 11  6  1  0  0  0  0
 11 13  2  0  0  0  0
 12 11  2  0  0  0  0
 15 14  3  0  0  0  0
 16 17  2  0  0  0  0
 18  3  1  0  0  0  0
 18 16  1  0  0  0  0
 19 16  1  0  0  0  0
 19 20  1  0  0  0  0
 19 21  1  0  0  0  0
 22 19  1  0  0  0  0
M  END
