Coordinates from ORCA-job 4-NO2-Ph-N2-OAc-B3LYPG-6-31G_dp-MTMO-d009-169-n750
 OpenBabel09051907563D

 22 21  0  0  0  0  0  0  0  0999 V2000
   15.7128    8.5862   -3.4837 C   0  0  0  0  0  0  0  0  0  0  0  0
   14.6682    7.6753   -3.4290 C   0  0  0  0  0  0  0  0  0  0  0  0
   14.8576    6.4221   -2.8294 C   0  0  0  0  0  0  0  0  0  0  0  0
   16.0953    6.0670   -2.2769 C   0  0  0  0  0  0  0  0  0  0  0  0
   17.1418    6.9855   -2.3343 C   0  0  0  0  0  0  0  0  0  0  0  0
   16.9431    8.2267   -2.9326 C   0  0  0  0  0  0  0  0  0  0  0  0
   15.5952    9.5604   -3.9402 H   0  0  0  0  0  0  0  0  0  0  0  0
   13.6955    7.9129   -3.8447 H   0  0  0  0  0  0  0  0  0  0  0  0
   16.2340    5.0998   -1.8203 H   0  0  0  0  0  0  0  0  0  0  0  0
   18.1128    6.7475   -1.9187 H   0  0  0  0  0  0  0  0  0  0  0  0
   18.0554    9.1825   -2.9866 N   0  0  0  0  0  0  0  0  0  0  0  0
   17.8446   10.2734   -3.5177 O   0  0  0  0  0  0  0  0  0  0  0  0
   19.1314    8.8371   -2.4989 O   0  0  0  0  0  0  0  0  0  0  0  0
    2.8791    3.1057    2.9231 N   0  0  0  0  0  0  0  0  0  0  0  0
    3.8199    3.3326    2.3891 N   0  0  0  0  0  0  0  0  0  0  0  0
   13.6360    4.3389   -2.3949 C   0  0  0  0  0  0  0  0  0  0  0  0
   14.5496    3.7113   -1.9203 O   0  0  0  0  0  0  0  0  0  0  0  0
   13.7186    5.6342   -2.8472 O   0  0  0  0  0  0  0  0  0  0  0  0
   12.2274    3.8390   -2.5897 C   0  0  0  0  0  0  0  0  0  0  0  0
   12.1604    2.8108   -2.2366 H   0  0  0  0  0  0  0  0  0  0  0  0
   11.5257    4.4706   -2.0377 H   0  0  0  0  0  0  0  0  0  0  0  0
   11.9528    3.8917   -3.6472 H   0  0  0  0  0  0  0  0  0  0  0  0
  1  2  2  0  0  0  0
  1  6  1  0  0  0  0
  2  3  1  0  0  0  0
  3  4  2  0  0  0  0
  4  9  1  0  0  0  0
  5  4  1  0  0  0  0
  5 10  1  0  0  0  0
  6  5  2  0  0  0  0
  7  1  1  0  0  0  0
  8  2  1  0  0  0  0
 11  6  1  0  0  0  0
 11 13  2  0  0  0  0
 12 11  2  0  0  0  0
 15 14  3  0  0  0  0
 16 17  2  0  0  0  0
 18  3  1  0  0  0  0
 18 16  1  0  0  0  0
 19 16  1  0  0  0  0
 19 20  1  0  0  0  0
 19 21  1  0  0  0  0
 22 19  1  0  0  0  0
M  END
