Coordinates from ORCA-job 4-NO2-Ph-N2-OAc-B3LYPG-6-31G_dp-MTMO-d009-169-n750
 OpenBabel09051907553D

 22 20  0  0  0  0  0  0  0  0999 V2000
   15.6285    9.0664   -2.6809 C   0  0  0  0  0  0  0  0  0  0  0  0
   14.3028    8.9892   -2.2145 C   0  0  0  0  0  0  0  0  0  0  0  0
   14.0008    7.6668   -2.0114 C   0  0  0  0  0  0  0  0  0  0  0  0
   14.6140    6.5775   -2.1433 C   0  0  0  0  0  0  0  0  0  0  0  0
   15.9349    6.5960   -2.6006 C   0  0  0  0  0  0  0  0  0  0  0  0
   16.3988    7.9009   -2.8600 C   0  0  0  0  0  0  0  0  0  0  0  0
   16.0759   10.0261   -2.9102 H   0  0  0  0  0  0  0  0  0  0  0  0
   13.6662    9.8500   -2.0575 H   0  0  0  0  0  0  0  0  0  0  0  0
   13.6840    4.7127   -1.7812 H   0  0  0  0  0  0  0  0  0  0  0  0
   16.5744    5.7365   -2.7573 H   0  0  0  0  0  0  0  0  0  0  0  0
   17.7817    8.0577   -3.3513 N   0  0  0  0  0  0  0  0  0  0  0  0
   18.1859    9.1976   -3.5753 O   0  0  0  0  0  0  0  0  0  0  0  0
   18.4452    7.0345   -3.5056 O   0  0  0  0  0  0  0  0  0  0  0  0
   11.5722    7.8194   -1.1317 N   0  0  0  0  0  0  0  0  0  0  0  0
   10.7670    7.1807   -0.7251 N   0  0  0  0  0  0  0  0  0  0  0  0
   12.0968    3.7130   -2.0164 C   0  0  0  0  0  0  0  0  0  0  0  0
   13.4118    3.7716   -1.7177 O   0  0  0  0  0  0  0  0  0  0  0  0
   11.4319    4.6933   -2.2798 O   0  0  0  0  0  0  0  0  0  0  0  0
   11.5828    2.2942   -1.9744 C   0  0  0  0  0  0  0  0  0  0  0  0
   11.7345    1.8730   -0.9758 H   0  0  0  0  0  0  0  0  0  0  0  0
   10.5232    2.2825   -2.2269 H   0  0  0  0  0  0  0  0  0  0  0  0
   12.1437    1.6718   -2.6775 H   0  0  0  0  0  0  0  0  0  0  0  0
  1  2  1  0  0  0  0
  2  8  1  0  0  0  0
  2  3  2  0  0  0  0
  4  3  1  0  0  0  0
  5  4  2  0  0  0  0
  6  1  2  0  0  0  0
  6  5  1  0  0  0  0
  7  1  1  0  0  0  0
  9 17  1  0  0  0  0
 10  5  1  0  0  0  0
 11  6  1  0  0  0  0
 12 11  2  0  0  0  0
 13 11  2  0  0  0  0
 14 15  3  0  0  0  0
 16 19  1  0  0  0  0
 16 17  1  0  0  0  0
 18 16  2  0  0  0  0
 19 20  1  0  0  0  0
 21 19  1  0  0  0  0
 22 19  1  0  0  0  0
M  RAD  2   3   2   4   2
M  END
