Coordinates from ORCA-job 4-NO2-Ph-N2-OAc-B3LYPG-6-31G_dp-MTMO-d009-169-n750
 OpenBabel09051907563D

 22 21  0  0  0  0  0  0  0  0999 V2000
   15.0985    8.3893   -3.2098 C   0  0  0  0  0  0  0  0  0  0  0  0
   14.0794    7.4487   -3.1855 C   0  0  0  0  0  0  0  0  0  0  0  0
   14.2980    6.1878   -2.6123 C   0  0  0  0  0  0  0  0  0  0  0  0
   15.5403    5.8554   -2.0554 C   0  0  0  0  0  0  0  0  0  0  0  0
   16.5610    6.8037   -2.0820 C   0  0  0  0  0  0  0  0  0  0  0  0
   16.3333    8.0521   -2.6546 C   0  0  0  0  0  0  0  0  0  0  0  0
   14.9579    9.3698   -3.6460 H   0  0  0  0  0  0  0  0  0  0  0  0
   13.1043    7.6684   -3.6053 H   0  0  0  0  0  0  0  0  0  0  0  0
   15.7022    4.8821   -1.6200 H   0  0  0  0  0  0  0  0  0  0  0  0
   17.5344    6.5836   -1.6622 H   0  0  0  0  0  0  0  0  0  0  0  0
   17.4185    9.0396   -2.6760 N   0  0  0  0  0  0  0  0  0  0  0  0
   17.1821   10.1360   -3.1844 O   0  0  0  0  0  0  0  0  0  0  0  0
   18.4993    8.7136   -2.1853 O   0  0  0  0  0  0  0  0  0  0  0  0
    8.6224    5.6959    0.8109 N   0  0  0  0  0  0  0  0  0  0  0  0
    9.3096    5.2754    0.0546 N   0  0  0  0  0  0  0  0  0  0  0  0
   13.1376    4.0557   -2.2546 C   0  0  0  0  0  0  0  0  0  0  0  0
   14.0732    3.4367   -1.8123 O   0  0  0  0  0  0  0  0  0  0  0  0
   13.1814    5.3705   -2.6558 O   0  0  0  0  0  0  0  0  0  0  0  0
   11.7402    3.5276   -2.4502 C   0  0  0  0  0  0  0  0  0  0  0  0
   11.7256    2.4627   -2.2203 H   0  0  0  0  0  0  0  0  0  0  0  0
   11.0479    4.0582   -1.7896 H   0  0  0  0  0  0  0  0  0  0  0  0
   11.4100    3.6985   -3.4785 H   0  0  0  0  0  0  0  0  0  0  0  0
  1  2  2  0  0  0  0
  1  6  1  0  0  0  0
  2  3  1  0  0  0  0
  3  4  2  0  0  0  0
  4  9  1  0  0  0  0
  5  4  1  0  0  0  0
  5 10  1  0  0  0  0
  6  5  2  0  0  0  0
  7  1  1  0  0  0  0
  8  2  1  0  0  0  0
 11  6  1  0  0  0  0
 11 13  2  0  0  0  0
 12 11  2  0  0  0  0
 15 14  3  0  0  0  0
 16 17  2  0  0  0  0
 18  3  1  0  0  0  0
 18 16  1  0  0  0  0
 19 16  1  0  0  0  0
 19 20  1  0  0  0  0
 19 21  1  0  0  0  0
 22 19  1  0  0  0  0
M  END
