Coordinates from ORCA-job 4-NO2-Ph-N2-OAc-B3LYPG-6-31G_dp-MTMO-d009-169-n750
 OpenBabel09051907563D

 22 21  0  0  0  0  0  0  0  0999 V2000
   15.2352    8.1400   -3.4491 C   0  0  0  0  0  0  0  0  0  0  0  0
   14.1087    7.3588   -3.2383 C   0  0  0  0  0  0  0  0  0  0  0  0
   14.2244    6.1108   -2.6096 C   0  0  0  0  0  0  0  0  0  0  0  0
   15.4705    5.6316   -2.1838 C   0  0  0  0  0  0  0  0  0  0  0  0
   16.5995    6.4199   -2.3975 C   0  0  0  0  0  0  0  0  0  0  0  0
   16.4731    7.6572   -3.0234 C   0  0  0  0  0  0  0  0  0  0  0  0
   15.1753    9.1070   -3.9313 H   0  0  0  0  0  0  0  0  0  0  0  0
   13.1272    7.6954   -3.5526 H   0  0  0  0  0  0  0  0  0  0  0  0
   15.5526    4.6680   -1.7065 H   0  0  0  0  0  0  0  0  0  0  0  0
   17.5792    6.0837   -2.0823 H   0  0  0  0  0  0  0  0  0  0  0  0
   17.6714    8.4758   -3.2417 N   0  0  0  0  0  0  0  0  0  0  0  0
   17.5240    9.5661   -3.7949 O   0  0  0  0  0  0  0  0  0  0  0  0
   18.7507    8.0244   -2.8591 O   0  0  0  0  0  0  0  0  0  0  0  0
    9.3398    7.1152    1.2478 N   0  0  0  0  0  0  0  0  0  0  0  0
    9.7418    6.3482    0.5614 N   0  0  0  0  0  0  0  0  0  0  0  0
   12.8418    4.1823   -1.9874 C   0  0  0  0  0  0  0  0  0  0  0  0
   13.7363    3.4476   -1.6497 O   0  0  0  0  0  0  0  0  0  0  0  0
   13.0098    5.4639   -2.4574 O   0  0  0  0  0  0  0  0  0  0  0  0
   11.3709    3.8574   -1.9598 C   0  0  0  0  0  0  0  0  0  0  0  0
   11.2395    2.8222   -1.6469 H   0  0  0  0  0  0  0  0  0  0  0  0
   10.8551    4.5253   -1.2634 H   0  0  0  0  0  0  0  0  0  0  0  0
   10.9304    4.0106   -2.9492 H   0  0  0  0  0  0  0  0  0  0  0  0
  1  2  2  0  0  0  0
  1  6  1  0  0  0  0
  2  3  1  0  0  0  0
  3 18  1  0  0  0  0
  3  4  2  0  0  0  0
  4  9  1  0  0  0  0
  5  4  1  0  0  0  0
  5 10  1  0  0  0  0
  6  5  2  0  0  0  0
  7  1  1  0  0  0  0
  8  2  1  0  0  0  0
 11  6  1  0  0  0  0
 11 13  2  0  0  0  0
 12 11  2  0  0  0  0
 15 14  3  0  0  0  0
 16 19  1  0  0  0  0
 16 17  2  0  0  0  0
 18 16  1  0  0  0  0
 19 20  1  0  0  0  0
 19 21  1  0  0  0  0
 22 19  1  0  0  0  0
M  END
