Coordinates from ORCA-job 4-NO2-Ph-N2-OAc-B3LYPG-6-31G_dp-MTMO-d009-169-n750
 OpenBabel09051907563D

 22 21  0  0  0  0  0  0  0  0999 V2000
   15.4774    8.5101   -3.3792 C   0  0  0  0  0  0  0  0  0  0  0  0
   14.3988    7.6474   -3.2508 C   0  0  0  0  0  0  0  0  0  0  0  0
   14.5673    6.3951   -2.6432 C   0  0  0  0  0  0  0  0  0  0  0  0
   15.8180    5.9926   -2.1563 C   0  0  0  0  0  0  0  0  0  0  0  0
   16.8986    6.8626   -2.2876 C   0  0  0  0  0  0  0  0  0  0  0  0
   16.7204    8.1035   -2.8931 C   0  0  0  0  0  0  0  0  0  0  0  0
   15.3765    9.4824   -3.8435 H   0  0  0  0  0  0  0  0  0  0  0  0
   13.4152    7.9229   -3.6143 H   0  0  0  0  0  0  0  0  0  0  0  0
   15.9406    5.0259   -1.6943 H   0  0  0  0  0  0  0  0  0  0  0  0
   17.8804    6.5872   -1.9236 H   0  0  0  0  0  0  0  0  0  0  0  0
   17.8685    9.0082   -3.0245 N   0  0  0  0  0  0  0  0  0  0  0  0
   17.6758   10.0999   -3.5606 O   0  0  0  0  0  0  0  0  0  0  0  0
   18.9541    8.6222   -2.5918 O   0  0  0  0  0  0  0  0  0  0  0  0
    5.7106    3.5264    1.2914 N   0  0  0  0  0  0  0  0  0  0  0  0
    6.6475    3.7647    0.7556 N   0  0  0  0  0  0  0  0  0  0  0  0
   13.2875    4.3670   -2.1261 C   0  0  0  0  0  0  0  0  0  0  0  0
   14.2051    3.6951   -1.7255 O   0  0  0  0  0  0  0  0  0  0  0  0
   13.3950    5.6604   -2.5787 O   0  0  0  0  0  0  0  0  0  0  0  0
   11.8468    3.9332   -2.2140 C   0  0  0  0  0  0  0  0  0  0  0  0
   11.7604    2.9051   -1.8651 H   0  0  0  0  0  0  0  0  0  0  0  0
   11.2194    4.5891   -1.6034 H   0  0  0  0  0  0  0  0  0  0  0  0
   11.4930    4.0105   -3.2462 H   0  0  0  0  0  0  0  0  0  0  0  0
  1  2  2  0  0  0  0
  1  6  1  0  0  0  0
  2  3  1  0  0  0  0
  3 18  1  0  0  0  0
  3  4  2  0  0  0  0
  4  9  1  0  0  0  0
  5  4  1  0  0  0  0
  5 10  1  0  0  0  0
  6  5  2  0  0  0  0
  7  1  1  0  0  0  0
  8  2  1  0  0  0  0
 11  6  1  0  0  0  0
 11 13  2  0  0  0  0
 12 11  2  0  0  0  0
 15 14  3  0  0  0  0
 16 17  2  0  0  0  0
 18 16  1  0  0  0  0
 19 16  1  0  0  0  0
 19 20  1  0  0  0  0
 19 21  1  0  0  0  0
 22 19  1  0  0  0  0
M  END
