Coordinates from ORCA-job 4-NO2-Ph-N2-OAc-B3LYPG-6-31G_dp-MTMO-d009-169-n750
 OpenBabel09051907553D

 22 22  0  0  0  0  0  0  0  0999 V2000
   15.1543    8.6550   -3.0060 C   0  0  0  0  0  0  0  0  0  0  0  0
   13.9625    8.5045   -2.3054 C   0  0  0  0  0  0  0  0  0  0  0  0
   13.7383    7.3305   -1.5783 C   0  0  0  0  0  0  0  0  0  0  0  0
   14.7126    6.3268   -1.4872 C   0  0  0  0  0  0  0  0  0  0  0  0
   15.9149    6.4920   -2.1648 C   0  0  0  0  0  0  0  0  0  0  0  0
   16.1122    7.6465   -2.9217 C   0  0  0  0  0  0  0  0  0  0  0  0
   15.3595    9.5383   -3.5971 H   0  0  0  0  0  0  0  0  0  0  0  0
   13.2027    9.2782   -2.3254 H   0  0  0  0  0  0  0  0  0  0  0  0
   14.5247    5.4468   -0.8817 H   0  0  0  0  0  0  0  0  0  0  0  0
   16.6967    5.7438   -2.1206 H   0  0  0  0  0  0  0  0  0  0  0  0
   17.3836    7.8126   -3.6471 N   0  0  0  0  0  0  0  0  0  0  0  0
   17.5306    8.8405   -4.3060 O   0  0  0  0  0  0  0  0  0  0  0  0
   18.2157    6.9129   -3.5481 O   0  0  0  0  0  0  0  0  0  0  0  0
   12.5538    7.2437   -0.8135 N   0  0  0  0  0  0  0  0  0  0  0  0
   11.7392    6.3607   -0.8044 N   0  0  0  0  0  0  0  0  0  0  0  0
   12.1557    4.0737   -1.4819 C   0  0  0  0  0  0  0  0  0  0  0  0
   12.5596    3.8559   -0.3593 O   0  0  0  0  0  0  0  0  0  0  0  0
   11.9510    5.3183   -1.9714 O   0  0  0  0  0  0  0  0  0  0  0  0
   11.8402    3.0229   -2.5230 C   0  0  0  0  0  0  0  0  0  0  0  0
   10.7541    2.9382   -2.6308 H   0  0  0  0  0  0  0  0  0  0  0  0
   12.2463    3.3048   -3.4977 H   0  0  0  0  0  0  0  0  0  0  0  0
   12.2490    2.0647   -2.2031 H   0  0  0  0  0  0  0  0  0  0  0  0
  1  6  2  0  0  0  0
  1  2  1  0  0  0  0
  2  3  2  0  0  0  0
  3  4  1  0  0  0  0
  3 14  1  0  0  0  0
  4  9  1  0  0  0  0
  5 10  1  0  0  0  0
  5  4  2  0  0  0  0
  6  5  1  0  0  0  0
  7  1  1  0  0  0  0
  8  2  1  0  0  0  0
 11 13  2  0  0  0  0
 11  6  1  0  0  0  0
 12 11  2  0  0  0  0
 14 15  1  0  0  0  0
 16 17  2  0  0  0  0
 18 16  1  0  0  0  0
 18 15  1  0  0  0  0
 19 22  1  0  0  0  0
 19 16  1  0  0  0  0
 20 19  1  0  0  0  0
 21 19  1  0  0  0  0
M  RAD  2  14   2  15   2
M  END
