Coordinates from ORCA-job 4-NO2-Ph-N2-OAc-B3LYPG-6-31G_dp-MTMO-d009-169-n750
 OpenBabel09051907563D

 22 21  0  0  0  0  0  0  0  0999 V2000
   15.4623    8.5044   -3.3734 C   0  0  0  0  0  0  0  0  0  0  0  0
   14.3827    7.6433   -3.2437 C   0  0  0  0  0  0  0  0  0  0  0  0
   14.5499    6.3912   -2.6354 C   0  0  0  0  0  0  0  0  0  0  0  0
   15.8005    5.9873   -2.1492 C   0  0  0  0  0  0  0  0  0  0  0  0
   16.8821    6.8558   -2.2817 C   0  0  0  0  0  0  0  0  0  0  0  0
   16.7051    8.0965   -2.8879 C   0  0  0  0  0  0  0  0  0  0  0  0
   15.3623    9.4766   -3.8382 H   0  0  0  0  0  0  0  0  0  0  0  0
   13.3992    7.9198   -3.6066 H   0  0  0  0  0  0  0  0  0  0  0  0
   15.9221    5.0208   -1.6866 H   0  0  0  0  0  0  0  0  0  0  0  0
   17.8638    6.5793   -1.9182 H   0  0  0  0  0  0  0  0  0  0  0  0
   17.8543    8.9997   -3.0207 N   0  0  0  0  0  0  0  0  0  0  0  0
   17.6626   10.0913   -3.5575 O   0  0  0  0  0  0  0  0  0  0  0  0
   18.9397    8.6125   -2.5885 O   0  0  0  0  0  0  0  0  0  0  0  0
    5.8839    3.5678    1.2126 N   0  0  0  0  0  0  0  0  0  0  0  0
    6.8212    3.8083    0.6786 N   0  0  0  0  0  0  0  0  0  0  0  0
   13.2675    4.3655   -2.1148 C   0  0  0  0  0  0  0  0  0  0  0  0
   14.1842    3.6933   -1.7127 O   0  0  0  0  0  0  0  0  0  0  0  0
   13.3768    5.6579   -2.5699 O   0  0  0  0  0  0  0  0  0  0  0  0
   11.8262    3.9335   -2.2022 C   0  0  0  0  0  0  0  0  0  0  0  0
   11.7388    2.9055   -1.8528 H   0  0  0  0  0  0  0  0  0  0  0  0
   11.1999    4.5902   -1.5916 H   0  0  0  0  0  0  0  0  0  0  0  0
   11.4722    4.0108   -3.2342 H   0  0  0  0  0  0  0  0  0  0  0  0
  1  2  2  0  0  0  0
  1  6  1  0  0  0  0
  2  3  1  0  0  0  0
  3 18  1  0  0  0  0
  3  4  2  0  0  0  0
  4  9  1  0  0  0  0
  5  4  1  0  0  0  0
  5 10  1  0  0  0  0
  6  5  2  0  0  0  0
  7  1  1  0  0  0  0
  8  2  1  0  0  0  0
 11  6  1  0  0  0  0
 11 13  2  0  0  0  0
 12 11  2  0  0  0  0
 15 14  3  0  0  0  0
 16 17  2  0  0  0  0
 18 16  1  0  0  0  0
 19 16  1  0  0  0  0
 19 20  1  0  0  0  0
 19 21  1  0  0  0  0
 22 19  1  0  0  0  0
M  END
