Coordinates from ORCA-job 4-NO2-Ph-N2-OAc-B3LYPG-6-31G_dp-MTMO-d009-169-n750
 OpenBabel09051907553D

 22 21  0  0  0  0  0  0  0  0999 V2000
   14.9921    8.1511   -3.2332 C   0  0  0  0  0  0  0  0  0  0  0  0
   13.8967    7.3152   -3.0742 C   0  0  0  0  0  0  0  0  0  0  0  0
   14.0598    6.0381   -2.5186 C   0  0  0  0  0  0  0  0  0  0  0  0
   15.3224    5.5844   -2.1139 C   0  0  0  0  0  0  0  0  0  0  0  0
   16.4199    6.4277   -2.2756 C   0  0  0  0  0  0  0  0  0  0  0  0
   16.2467    7.6931   -2.8297 C   0  0  0  0  0  0  0  0  0  0  0  0
   14.8956    9.1411   -3.6593 H   0  0  0  0  0  0  0  0  0  0  0  0
   12.9038    7.6309   -3.3742 H   0  0  0  0  0  0  0  0  0  0  0  0
   15.4405    4.5997   -1.6907 H   0  0  0  0  0  0  0  0  0  0  0  0
   17.4111    6.1124   -1.9748 H   0  0  0  0  0  0  0  0  0  0  0  0
   17.4127    8.5692   -2.9940 N   0  0  0  0  0  0  0  0  0  0  0  0
   17.2249    9.6819   -3.4869 O   0  0  0  0  0  0  0  0  0  0  0  0
   18.5073    8.1397   -2.6302 O   0  0  0  0  0  0  0  0  0  0  0  0
   11.3295    7.8809    0.0357 N   0  0  0  0  0  0  0  0  0  0  0  0
   11.0847    6.8060   -0.0405 N   0  0  0  0  0  0  0  0  0  0  0  0
   12.7514    4.0245   -2.0125 C   0  0  0  0  0  0  0  0  0  0  0  0
   13.6711    3.3147   -1.6902 O   0  0  0  0  0  0  0  0  0  0  0  0
   12.8712    5.3353   -2.4140 O   0  0  0  0  0  0  0  0  0  0  0  0
   11.2973    3.6319   -2.0425 C   0  0  0  0  0  0  0  0  0  0  0  0
   11.2017    2.5892   -1.7423 H   0  0  0  0  0  0  0  0  0  0  0  0
   10.7263    4.2725   -1.3647 H   0  0  0  0  0  0  0  0  0  0  0  0
   10.8905    3.7718   -3.0484 H   0  0  0  0  0  0  0  0  0  0  0  0
  1  2  2  0  0  0  0
  1  6  1  0  0  0  0
  2  3  1  0  0  0  0
  3 18  1  0  0  0  0
  3  4  2  0  0  0  0
  4  9  1  0  0  0  0
  5  4  1  0  0  0  0
  5 10  1  0  0  0  0
  6  5  2  0  0  0  0
  7  1  1  0  0  0  0
  8  2  1  0  0  0  0
 11  6  1  0  0  0  0
 11 13  2  0  0  0  0
 12 11  2  0  0  0  0
 15 14  3  0  0  0  0
 16 17  2  0  0  0  0
 18 16  1  0  0  0  0
 19 16  1  0  0  0  0
 19 20  1  0  0  0  0
 19 21  1  0  0  0  0
 22 19  1  0  0  0  0
M  END
