Coordinates from ORCA-job 4-NO2-Ph-N2-OAc-B3LYPG-6-31G_dp-MTMO-d009-169-n750
 OpenBabel09051907563D

 22 21  0  0  0  0  0  0  0  0999 V2000
   15.1037    8.3915   -3.2108 C   0  0  0  0  0  0  0  0  0  0  0  0
   14.0833    7.4523   -3.1842 C   0  0  0  0  0  0  0  0  0  0  0  0
   14.3015    6.1910   -2.6118 C   0  0  0  0  0  0  0  0  0  0  0  0
   15.5447    5.8565   -2.0583 C   0  0  0  0  0  0  0  0  0  0  0  0
   16.5667    6.8033   -2.0873 C   0  0  0  0  0  0  0  0  0  0  0  0
   16.3394    8.0522   -2.6589 C   0  0  0  0  0  0  0  0  0  0  0  0
   14.9635    9.3723   -3.6464 H   0  0  0  0  0  0  0  0  0  0  0  0
   13.1074    7.6736   -3.6015 H   0  0  0  0  0  0  0  0  0  0  0  0
   15.7062    4.8830   -1.6234 H   0  0  0  0  0  0  0  0  0  0  0  0
   17.5409    6.5817   -1.6699 H   0  0  0  0  0  0  0  0  0  0  0  0
   17.4260    9.0381   -2.6828 N   0  0  0  0  0  0  0  0  0  0  0  0
   17.1900   10.1350   -3.1903 O   0  0  0  0  0  0  0  0  0  0  0  0
   18.5075    8.7104   -2.1949 O   0  0  0  0  0  0  0  0  0  0  0  0
    8.5768    5.6615    0.8074 N   0  0  0  0  0  0  0  0  0  0  0  0
    9.2824    5.2554    0.0602 N   0  0  0  0  0  0  0  0  0  0  0  0
   13.1381    4.0613   -2.2495 C   0  0  0  0  0  0  0  0  0  0  0  0
   14.0728    3.4418   -1.8060 O   0  0  0  0  0  0  0  0  0  0  0  0
   13.1836    5.3752   -2.6531 O   0  0  0  0  0  0  0  0  0  0  0  0
   11.7401    3.5345   -2.4441 C   0  0  0  0  0  0  0  0  0  0  0  0
   11.7249    2.4695   -2.2146 H   0  0  0  0  0  0  0  0  0  0  0  0
   11.0485    4.0652   -1.7826 H   0  0  0  0  0  0  0  0  0  0  0  0
   11.4091    3.7061   -3.4720 H   0  0  0  0  0  0  0  0  0  0  0  0
  1  2  2  0  0  0  0
  1  6  1  0  0  0  0
  2  3  1  0  0  0  0
  3  4  2  0  0  0  0
  4  9  1  0  0  0  0
  5  4  1  0  0  0  0
  5 10  1  0  0  0  0
  6  5  2  0  0  0  0
  7  1  1  0  0  0  0
  8  2  1  0  0  0  0
 11  6  1  0  0  0  0
 11 13  2  0  0  0  0
 12 11  2  0  0  0  0
 15 14  3  0  0  0  0
 16 17  2  0  0  0  0
 18  3  1  0  0  0  0
 18 16  1  0  0  0  0
 19 16  1  0  0  0  0
 19 20  1  0  0  0  0
 19 21  1  0  0  0  0
 22 19  1  0  0  0  0
M  END
