Coordinates from ORCA-job 4-NO2-Ph-N2-OAc-B3LYPG-6-31G_dp-MTMO-d009-169-n750
 OpenBabel09051907563D

 22 21  0  0  0  0  0  0  0  0999 V2000
   15.4820    8.5117   -3.3809 C   0  0  0  0  0  0  0  0  0  0  0  0
   14.4037    7.6487   -3.2529 C   0  0  0  0  0  0  0  0  0  0  0  0
   14.5725    6.3963   -2.6455 C   0  0  0  0  0  0  0  0  0  0  0  0
   15.8233    5.9942   -2.1585 C   0  0  0  0  0  0  0  0  0  0  0  0
   16.9036    6.8646   -2.2893 C   0  0  0  0  0  0  0  0  0  0  0  0
   16.7251    8.1055   -2.8947 C   0  0  0  0  0  0  0  0  0  0  0  0
   15.3807    9.4841   -3.8450 H   0  0  0  0  0  0  0  0  0  0  0  0
   13.4201    7.9238   -3.6165 H   0  0  0  0  0  0  0  0  0  0  0  0
   15.9462    5.0274   -1.6967 H   0  0  0  0  0  0  0  0  0  0  0  0
   17.8854    6.5895   -1.9252 H   0  0  0  0  0  0  0  0  0  0  0  0
   17.8728    9.0108   -3.0256 N   0  0  0  0  0  0  0  0  0  0  0  0
   17.6797   10.1025   -3.5616 O   0  0  0  0  0  0  0  0  0  0  0  0
   18.9585    8.6251   -2.5928 O   0  0  0  0  0  0  0  0  0  0  0  0
    5.6587    3.5139    1.3150 N   0  0  0  0  0  0  0  0  0  0  0  0
    6.5955    3.7516    0.7788 N   0  0  0  0  0  0  0  0  0  0  0  0
   13.2935    4.3674   -2.1294 C   0  0  0  0  0  0  0  0  0  0  0  0
   14.2114    3.6957   -1.7291 O   0  0  0  0  0  0  0  0  0  0  0  0
   13.4005    5.6611   -2.5814 O   0  0  0  0  0  0  0  0  0  0  0  0
   11.8529    3.9332   -2.2176 C   0  0  0  0  0  0  0  0  0  0  0  0
   11.7667    2.9049   -1.8690 H   0  0  0  0  0  0  0  0  0  0  0  0
   11.2254    4.5888   -1.6069 H   0  0  0  0  0  0  0  0  0  0  0  0
   11.4992    4.0106   -3.2498 H   0  0  0  0  0  0  0  0  0  0  0  0
  1  2  2  0  0  0  0
  1  6  1  0  0  0  0
  2  3  1  0  0  0  0
  3 18  1  0  0  0  0
  3  4  2  0  0  0  0
  4  9  1  0  0  0  0
  5  4  1  0  0  0  0
  5 10  1  0  0  0  0
  6  5  2  0  0  0  0
  7  1  1  0  0  0  0
  8  2  1  0  0  0  0
 11  6  1  0  0  0  0
 11 13  2  0  0  0  0
 12 11  2  0  0  0  0
 15 14  3  0  0  0  0
 16 17  2  0  0  0  0
 18 16  1  0  0  0  0
 19 16  1  0  0  0  0
 19 20  1  0  0  0  0
 19 21  1  0  0  0  0
 22 19  1  0  0  0  0
M  END
