Coordinates from ORCA-job 4-NO2-Ph-N2-OAc-B3LYPG-6-31G_dp-MTMO-d009-169-n750
 OpenBabel09051907553D

 22 21  0  0  0  0  0  0  0  0999 V2000
   14.9856    8.1492   -3.2410 C   0  0  0  0  0  0  0  0  0  0  0  0
   13.8904    7.3125   -3.0843 C   0  0  0  0  0  0  0  0  0  0  0  0
   14.0516    6.0396   -2.5188 C   0  0  0  0  0  0  0  0  0  0  0  0
   15.3120    5.5909   -2.1018 C   0  0  0  0  0  0  0  0  0  0  0  0
   16.4093    6.4348   -2.2614 C   0  0  0  0  0  0  0  0  0  0  0  0
   16.2380    7.6961   -2.8254 C   0  0  0  0  0  0  0  0  0  0  0  0
   14.8904    9.1362   -3.6745 H   0  0  0  0  0  0  0  0  0  0  0  0
   12.8992    7.6244   -3.3938 H   0  0  0  0  0  0  0  0  0  0  0  0
   15.4287    4.6091   -1.6713 H   0  0  0  0  0  0  0  0  0  0  0  0
   17.3988    6.1234   -1.9513 H   0  0  0  0  0  0  0  0  0  0  0  0
   17.4037    8.5731   -2.9874 N   0  0  0  0  0  0  0  0  0  0  0  0
   17.2175    9.6822   -3.4889 O   0  0  0  0  0  0  0  0  0  0  0  0
   18.4963    8.1478   -2.6133 O   0  0  0  0  0  0  0  0  0  0  0  0
   11.4549    7.8533    0.0236 N   0  0  0  0  0  0  0  0  0  0  0  0
   11.1191    6.8027   -0.0466 N   0  0  0  0  0  0  0  0  0  0  0  0
   12.7442    4.0253   -2.0130 C   0  0  0  0  0  0  0  0  0  0  0  0
   13.6636    3.3180   -1.6848 O   0  0  0  0  0  0  0  0  0  0  0  0
   12.8636    5.3354   -2.4172 O   0  0  0  0  0  0  0  0  0  0  0  0
   11.2908    3.6303   -2.0482 C   0  0  0  0  0  0  0  0  0  0  0  0
   11.1962    2.5869   -1.7501 H   0  0  0  0  0  0  0  0  0  0  0  0
   10.7168    4.2684   -1.3704 H   0  0  0  0  0  0  0  0  0  0  0  0
   10.8864    3.7717   -3.0548 H   0  0  0  0  0  0  0  0  0  0  0  0
  1  2  2  0  0  0  0
  1  6  1  0  0  0  0
  2  3  1  0  0  0  0
  3 18  1  0  0  0  0
  3  4  2  0  0  0  0
  4  9  1  0  0  0  0
  5  4  1  0  0  0  0
  5 10  1  0  0  0  0
  6  5  2  0  0  0  0
  7  1  1  0  0  0  0
  8  2  1  0  0  0  0
 11  6  1  0  0  0  0
 11 13  2  0  0  0  0
 12 11  2  0  0  0  0
 15 14  3  0  0  0  0
 16 17  2  0  0  0  0
 18 16  1  0  0  0  0
 19 16  1  0  0  0  0
 19 20  1  0  0  0  0
 19 21  1  0  0  0  0
 22 19  1  0  0  0  0
M  END
