Coordinates from ORCA-job 4-NO2-Ph-N2-OAc-B3LYPG-6-31G_dp-MTMO-d009-169-n750
 OpenBabel09051907563D

 22 21  0  0  0  0  0  0  0  0999 V2000
   15.1307    8.3962   -3.2306 C   0  0  0  0  0  0  0  0  0  0  0  0
   14.1041    7.4640   -3.2002 C   0  0  0  0  0  0  0  0  0  0  0  0
   14.3125    6.2051   -2.6189 C   0  0  0  0  0  0  0  0  0  0  0  0
   15.5523    5.8659   -2.0605 C   0  0  0  0  0  0  0  0  0  0  0  0
   16.5807    6.8057   -2.0935 C   0  0  0  0  0  0  0  0  0  0  0  0
   16.3629    8.0523   -2.6737 C   0  0  0  0  0  0  0  0  0  0  0  0
   14.9980    9.3750   -3.6729 H   0  0  0  0  0  0  0  0  0  0  0  0
   13.1307    7.6890   -3.6213 H   0  0  0  0  0  0  0  0  0  0  0  0
   15.7060    4.8945   -1.6181 H   0  0  0  0  0  0  0  0  0  0  0  0
   17.5525    6.5803   -1.6726 H   0  0  0  0  0  0  0  0  0  0  0  0
   17.4562    9.0307   -2.7018 N   0  0  0  0  0  0  0  0  0  0  0  0
   17.2286   10.1258   -3.2171 O   0  0  0  0  0  0  0  0  0  0  0  0
   18.5344    8.6991   -2.2094 O   0  0  0  0  0  0  0  0  0  0  0  0
    8.4587    5.4899    0.8433 N   0  0  0  0  0  0  0  0  0  0  0  0
    9.1991    5.1530    0.0954 N   0  0  0  0  0  0  0  0  0  0  0  0
   13.1285    4.0914   -2.2287 C   0  0  0  0  0  0  0  0  0  0  0  0
   14.0516    3.4750   -1.7573 O   0  0  0  0  0  0  0  0  0  0  0  0
   13.1899    5.3957   -2.6601 O   0  0  0  0  0  0  0  0  0  0  0  0
   11.7296    3.5704   -2.4330 C   0  0  0  0  0  0  0  0  0  0  0  0
   11.7033    2.5106   -2.1815 H   0  0  0  0  0  0  0  0  0  0  0  0
   11.0319    4.1190   -1.7931 H   0  0  0  0  0  0  0  0  0  0  0  0
   11.4152    3.7225   -3.4691 H   0  0  0  0  0  0  0  0  0  0  0  0
  1  2  2  0  0  0  0
  1  6  1  0  0  0  0
  2  3  1  0  0  0  0
  3  4  2  0  0  0  0
  4  9  1  0  0  0  0
  5  4  1  0  0  0  0
  5 10  1  0  0  0  0
  6  5  2  0  0  0  0
  7  1  1  0  0  0  0
  8  2  1  0  0  0  0
 11  6  1  0  0  0  0
 11 13  2  0  0  0  0
 12 11  2  0  0  0  0
 15 14  3  0  0  0  0
 16 17  2  0  0  0  0
 18  3  1  0  0  0  0
 18 16  1  0  0  0  0
 19 16  1  0  0  0  0
 19 20  1  0  0  0  0
 19 21  1  0  0  0  0
 22 19  1  0  0  0  0
M  END
