Coordinates from ORCA-job 4-NO2-Ph-N2-OAc-B3LYPG-6-31G_dp-MTMO-d009-169-n750
 OpenBabel09051907563D

 22 21  0  0  0  0  0  0  0  0999 V2000
   15.9541    8.6560   -3.5928 C   0  0  0  0  0  0  0  0  0  0  0  0
   14.9118    7.7425   -3.5394 C   0  0  0  0  0  0  0  0  0  0  0  0
   15.1044    6.4886   -2.9422 C   0  0  0  0  0  0  0  0  0  0  0  0
   16.3432    6.1356   -2.3906 C   0  0  0  0  0  0  0  0  0  0  0  0
   17.3874    7.0568   -2.4467 C   0  0  0  0  0  0  0  0  0  0  0  0
   17.1855    8.2986   -3.0427 C   0  0  0  0  0  0  0  0  0  0  0  0
   15.8340    9.6308   -4.0476 H   0  0  0  0  0  0  0  0  0  0  0  0
   13.9384    7.9785   -3.9544 H   0  0  0  0  0  0  0  0  0  0  0  0
   16.4845    5.1679   -1.9361 H   0  0  0  0  0  0  0  0  0  0  0  0
   18.3591    6.8205   -2.0318 H   0  0  0  0  0  0  0  0  0  0  0  0
   18.2954    9.2573   -3.0953 N   0  0  0  0  0  0  0  0  0  0  0  0
   18.0818   10.3485   -3.6243 O   0  0  0  0  0  0  0  0  0  0  0  0
   19.3724    8.9136   -2.6084 O   0  0  0  0  0  0  0  0  0  0  0  0
    0.4091    2.4364    4.0522 N   0  0  0  0  0  0  0  0  0  0  0  0
    1.3524    2.6608    3.5217 N   0  0  0  0  0  0  0  0  0  0  0  0
   13.8894    4.4003   -2.5150 C   0  0  0  0  0  0  0  0  0  0  0  0
   14.8065    3.7718   -2.0482 O   0  0  0  0  0  0  0  0  0  0  0  0
   13.9672    5.6983   -2.9600 O   0  0  0  0  0  0  0  0  0  0  0  0
   12.4810    3.8984   -2.7060 C   0  0  0  0  0  0  0  0  0  0  0  0
   12.4184    2.8674   -2.3606 H   0  0  0  0  0  0  0  0  0  0  0  0
   11.7810    4.5239   -2.1449 H   0  0  0  0  0  0  0  0  0  0  0  0
   12.2002    3.9589   -3.7614 H   0  0  0  0  0  0  0  0  0  0  0  0
  1  2  2  0  0  0  0
  1  6  1  0  0  0  0
  2  3  1  0  0  0  0
  3  4  2  0  0  0  0
  4  9  1  0  0  0  0
  5  4  1  0  0  0  0
  5 10  1  0  0  0  0
  6  5  2  0  0  0  0
  7  1  1  0  0  0  0
  8  2  1  0  0  0  0
 11  6  1  0  0  0  0
 11 13  2  0  0  0  0
 12 11  2  0  0  0  0
 15 14  3  0  0  0  0
 16 17  2  0  0  0  0
 18  3  1  0  0  0  0
 18 16  1  0  0  0  0
 19 16  1  0  0  0  0
 19 20  1  0  0  0  0
 19 21  1  0  0  0  0
 22 19  1  0  0  0  0
M  END
