Coordinates from ORCA-job 4-NO2-Ph-N2-OAc-B3LYPG-6-31G_dp-MTMO-d009-169-n750
 OpenBabel09051907563D

 22 21  0  0  0  0  0  0  0  0999 V2000
   15.0785    8.3646   -3.2142 C   0  0  0  0  0  0  0  0  0  0  0  0
   14.0585    7.4248   -3.1940 C   0  0  0  0  0  0  0  0  0  0  0  0
   14.2736    6.1637   -2.6198 C   0  0  0  0  0  0  0  0  0  0  0  0
   15.5134    5.8302   -2.0581 C   0  0  0  0  0  0  0  0  0  0  0  0
   16.5351    6.7776   -2.0807 C   0  0  0  0  0  0  0  0  0  0  0  0
   16.3108    8.0262   -2.6541 C   0  0  0  0  0  0  0  0  0  0  0  0
   14.9406    9.3452   -3.6509 H   0  0  0  0  0  0  0  0  0  0  0  0
   13.0853    7.6454   -3.6179 H   0  0  0  0  0  0  0  0  0  0  0  0
   15.6724    4.8570   -1.6215 H   0  0  0  0  0  0  0  0  0  0  0  0
   17.5066    6.5566   -1.6571 H   0  0  0  0  0  0  0  0  0  0  0  0
   17.3969    9.0126   -2.6713 N   0  0  0  0  0  0  0  0  0  0  0  0
   17.1635   10.1093   -3.1806 O   0  0  0  0  0  0  0  0  0  0  0  0
   18.4754    8.6857   -2.1762 O   0  0  0  0  0  0  0  0  0  0  0  0
    8.9478    5.9887    0.8679 N   0  0  0  0  0  0  0  0  0  0  0  0
    9.4959    5.4458    0.0767 N   0  0  0  0  0  0  0  0  0  0  0  0
   13.1051    4.0374   -2.2527 C   0  0  0  0  0  0  0  0  0  0  0  0
   14.0327    3.4228   -1.7878 O   0  0  0  0  0  0  0  0  0  0  0  0
   13.1571    5.3468   -2.6702 O   0  0  0  0  0  0  0  0  0  0  0  0
   11.7104    3.5086   -2.4647 C   0  0  0  0  0  0  0  0  0  0  0  0
   11.6855    2.4515   -2.2022 H   0  0  0  0  0  0  0  0  0  0  0  0
   11.0050    4.0634   -1.8392 H   0  0  0  0  0  0  0  0  0  0  0  0
   11.4069    3.6475   -3.5061 H   0  0  0  0  0  0  0  0  0  0  0  0
  1  2  2  0  0  0  0
  1  6  1  0  0  0  0
  2  3  1  0  0  0  0
  3  4  2  0  0  0  0
  4  9  1  0  0  0  0
  5  4  1  0  0  0  0
  5 10  1  0  0  0  0
  6  5  2  0  0  0  0
  7  1  1  0  0  0  0
  8  2  1  0  0  0  0
 11  6  1  0  0  0  0
 11 13  2  0  0  0  0
 12 11  2  0  0  0  0
 15 14  3  0  0  0  0
 16 17  2  0  0  0  0
 18  3  1  0  0  0  0
 18 16  1  0  0  0  0
 19 16  1  0  0  0  0
 19 20  1  0  0  0  0
 19 21  1  0  0  0  0
 22 19  1  0  0  0  0
M  END
