Coordinates from ORCA-job 4-NO2-Ph-N2-OAc-B3LYPG-6-31G_dp-MTMO-d009-169-n750
 OpenBabel09051907563D

 22 21  0  0  0  0  0  0  0  0999 V2000
   15.6262    8.5596   -3.4460 C   0  0  0  0  0  0  0  0  0  0  0  0
   14.5803    7.6502   -3.3918 C   0  0  0  0  0  0  0  0  0  0  0  0
   14.7667    6.3978   -2.7894 C   0  0  0  0  0  0  0  0  0  0  0  0
   16.0028    6.0421   -2.2336 C   0  0  0  0  0  0  0  0  0  0  0  0
   17.0506    6.9591   -2.2907 C   0  0  0  0  0  0  0  0  0  0  0  0
   16.8549    8.1995   -2.8917 C   0  0  0  0  0  0  0  0  0  0  0  0
   15.5109    9.5331   -3.9046 H   0  0  0  0  0  0  0  0  0  0  0  0
   13.6088    7.8883   -3.8101 H   0  0  0  0  0  0  0  0  0  0  0  0
   16.1391    5.0757   -1.7748 H   0  0  0  0  0  0  0  0  0  0  0  0
   18.0204    6.7206   -1.8726 H   0  0  0  0  0  0  0  0  0  0  0  0
   17.9686    9.1536   -2.9452 N   0  0  0  0  0  0  0  0  0  0  0  0
   17.7604   10.2437   -3.4788 O   0  0  0  0  0  0  0  0  0  0  0  0
   19.0431    8.8077   -2.4546 O   0  0  0  0  0  0  0  0  0  0  0  0
    3.7932    3.3470    2.5133 N   0  0  0  0  0  0  0  0  0  0  0  0
    4.7302    3.5758    1.9736 N   0  0  0  0  0  0  0  0  0  0  0  0
   13.5399    4.3188   -2.3493 C   0  0  0  0  0  0  0  0  0  0  0  0
   14.4499    3.6929   -1.8656 O   0  0  0  0  0  0  0  0  0  0  0  0
   13.6269    5.6112   -2.8089 O   0  0  0  0  0  0  0  0  0  0  0  0
   12.1319    3.8195   -2.5493 C   0  0  0  0  0  0  0  0  0  0  0  0
   12.0610    2.7940   -2.1894 H   0  0  0  0  0  0  0  0  0  0  0  0
   11.4275    4.4560   -2.0063 H   0  0  0  0  0  0  0  0  0  0  0  0
   11.8640    3.8651   -3.6089 H   0  0  0  0  0  0  0  0  0  0  0  0
  1  2  2  0  0  0  0
  1  6  1  0  0  0  0
  2  3  1  0  0  0  0
  3  4  2  0  0  0  0
  4  9  1  0  0  0  0
  5  4  1  0  0  0  0
  5 10  1  0  0  0  0
  6  5  2  0  0  0  0
  7  1  1  0  0  0  0
  8  2  1  0  0  0  0
 11  6  1  0  0  0  0
 11 13  2  0  0  0  0
 12 11  2  0  0  0  0
 15 14  3  0  0  0  0
 16 17  2  0  0  0  0
 18  3  1  0  0  0  0
 18 16  1  0  0  0  0
 19 16  1  0  0  0  0
 19 20  1  0  0  0  0
 19 21  1  0  0  0  0
 22 19  1  0  0  0  0
M  END
