Coordinates from ORCA-job 4-NO2-Ph-N2-OAc-B3LYPG-6-31G_dp-MTMO-d009-169-n750
 OpenBabel09051907553D

 22 22  0  0  0  0  0  0  0  0999 V2000
   15.1367    8.5693   -3.0629 C   0  0  0  0  0  0  0  0  0  0  0  0
   13.9463    8.4596   -2.3379 C   0  0  0  0  0  0  0  0  0  0  0  0
   13.8227    7.3327   -1.5574 C   0  0  0  0  0  0  0  0  0  0  0  0
   14.7447    6.3287   -1.3718 C   0  0  0  0  0  0  0  0  0  0  0  0
   15.9321    6.4589   -2.0987 C   0  0  0  0  0  0  0  0  0  0  0  0
   16.1005    7.5701   -2.9260 C   0  0  0  0  0  0  0  0  0  0  0  0
   15.3280    9.4111   -3.7167 H   0  0  0  0  0  0  0  0  0  0  0  0
   13.1699    9.2134   -2.3939 H   0  0  0  0  0  0  0  0  0  0  0  0
   14.5422    5.4790   -0.7271 H   0  0  0  0  0  0  0  0  0  0  0  0
   16.7197    5.7181   -2.0313 H   0  0  0  0  0  0  0  0  0  0  0  0
   17.3587    7.6989   -3.6868 N   0  0  0  0  0  0  0  0  0  0  0  0
   17.4845    8.6848   -4.4099 O   0  0  0  0  0  0  0  0  0  0  0  0
   18.1984    6.8128   -3.5474 O   0  0  0  0  0  0  0  0  0  0  0  0
   12.2866    7.2469   -0.4723 N   0  0  0  0  0  0  0  0  0  0  0  0
   11.5017    6.3843   -0.5878 N   0  0  0  0  0  0  0  0  0  0  0  0
   12.1898    4.1912   -1.5517 C   0  0  0  0  0  0  0  0  0  0  0  0
   12.7491    3.9735   -0.4905 O   0  0  0  0  0  0  0  0  0  0  0  0
   11.7102    5.3789   -1.9274 O   0  0  0  0  0  0  0  0  0  0  0  0
   11.9615    3.1418   -2.6259 C   0  0  0  0  0  0  0  0  0  0  0  0
   10.9100    2.8379   -2.6085 H   0  0  0  0  0  0  0  0  0  0  0  0
   12.1722    3.5435   -3.6200 H   0  0  0  0  0  0  0  0  0  0  0  0
   12.5917    2.2758   -2.4226 H   0  0  0  0  0  0  0  0  0  0  0  0
  1  6  2  0  0  0  0
  1  2  1  0  0  0  0
  2  3  2  0  0  0  0
  3  4  1  0  0  0  0
  3 14  1  0  0  0  0
  4  9  1  0  0  0  0
  5 10  1  0  0  0  0
  5  4  2  0  0  0  0
  6  5  1  0  0  0  0
  7  1  1  0  0  0  0
  8  2  1  0  0  0  0
 11 13  2  0  0  0  0
 11  6  1  0  0  0  0
 12 11  2  0  0  0  0
 15 14  2  0  0  0  0
 16 17  2  0  0  0  0
 18 16  1  0  0  0  0
 18 15  1  0  0  0  0
 19 20  1  0  0  0  0
 19 22  1  0  0  0  0
 19 16  1  0  0  0  0
 21 19  1  0  0  0  0
M  END
