Coordinates from ORCA-job 4-NO2-Ph-N2-OAc-B3LYPG-6-31G_dp-MTMO-d009-169-n750
 OpenBabel09051907563D

 22 21  0  0  0  0  0  0  0  0999 V2000
   15.8393    8.6233   -3.5405 C   0  0  0  0  0  0  0  0  0  0  0  0
   14.7962    7.7106   -3.4866 C   0  0  0  0  0  0  0  0  0  0  0  0
   14.9879    6.4569   -2.8888 C   0  0  0  0  0  0  0  0  0  0  0  0
   16.2264    6.1031   -2.3373 C   0  0  0  0  0  0  0  0  0  0  0  0
   17.2714    7.0233   -2.3940 C   0  0  0  0  0  0  0  0  0  0  0  0
   17.0705    8.2650   -2.9905 C   0  0  0  0  0  0  0  0  0  0  0  0
   15.7200    9.5979   -3.9957 H   0  0  0  0  0  0  0  0  0  0  0  0
   13.8229    7.9473   -3.9015 H   0  0  0  0  0  0  0  0  0  0  0  0
   16.3670    5.1355   -1.8823 H   0  0  0  0  0  0  0  0  0  0  0  0
   18.2430    6.7864   -1.9790 H   0  0  0  0  0  0  0  0  0  0  0  0
   18.1812    9.2227   -3.0436 N   0  0  0  0  0  0  0  0  0  0  0  0
   17.9684   10.3139   -3.5732 O   0  0  0  0  0  0  0  0  0  0  0  0
   19.2580    8.8784   -2.5568 O   0  0  0  0  0  0  0  0  0  0  0  0
    1.5748    2.7549    3.5192 N   0  0  0  0  0  0  0  0  0  0  0  0
    2.5168    2.9811    2.9871 N   0  0  0  0  0  0  0  0  0  0  0  0
   13.7708    4.3702   -2.4593 C   0  0  0  0  0  0  0  0  0  0  0  0
   14.6869    3.7418   -1.9905 O   0  0  0  0  0  0  0  0  0  0  0  0
   13.8500    5.6674   -2.9064 O   0  0  0  0  0  0  0  0  0  0  0  0
   12.3623    3.8690   -2.6513 C   0  0  0  0  0  0  0  0  0  0  0  0
   12.2982    2.8389   -2.3034 H   0  0  0  0  0  0  0  0  0  0  0  0
   11.6618    4.4966   -2.0931 H   0  0  0  0  0  0  0  0  0  0  0  0
   12.0833    3.9270   -3.7074 H   0  0  0  0  0  0  0  0  0  0  0  0
  1  2  2  0  0  0  0
  1  6  1  0  0  0  0
  2  3  1  0  0  0  0
  3  4  2  0  0  0  0
  4  9  1  0  0  0  0
  5  4  1  0  0  0  0
  5 10  1  0  0  0  0
  6  5  2  0  0  0  0
  7  1  1  0  0  0  0
  8  2  1  0  0  0  0
 11  6  1  0  0  0  0
 11 13  2  0  0  0  0
 12 11  2  0  0  0  0
 15 14  3  0  0  0  0
 16 17  2  0  0  0  0
 18  3  1  0  0  0  0
 18 16  1  0  0  0  0
 19 16  1  0  0  0  0
 19 20  1  0  0  0  0
 19 21  1  0  0  0  0
 22 19  1  0  0  0  0
M  END
