Coordinates from ORCA-job 4-NO2-Ph-N2-OAc-B3LYPG-6-31G_dp-MTMO-d009-169-n750
 OpenBabel09051907553D

 22 21  0  0  0  0  0  0  0  0999 V2000
   15.0187    8.1429   -3.2762 C   0  0  0  0  0  0  0  0  0  0  0  0
   13.9185    7.3144   -3.1109 C   0  0  0  0  0  0  0  0  0  0  0  0
   14.0709    6.0497   -2.5251 C   0  0  0  0  0  0  0  0  0  0  0  0
   15.3272    5.6011   -2.0960 C   0  0  0  0  0  0  0  0  0  0  0  0
   16.4295    6.4367   -2.2643 C   0  0  0  0  0  0  0  0  0  0  0  0
   16.2671    7.6899   -2.8486 C   0  0  0  0  0  0  0  0  0  0  0  0
   14.9304    9.1236   -3.7254 H   0  0  0  0  0  0  0  0  0  0  0  0
   12.9302    7.6264   -3.4291 H   0  0  0  0  0  0  0  0  0  0  0  0
   15.4374    4.6251   -1.6510 H   0  0  0  0  0  0  0  0  0  0  0  0
   17.4162    6.1250   -1.9454 H   0  0  0  0  0  0  0  0  0  0  0  0
   17.4379    8.5582   -3.0196 N   0  0  0  0  0  0  0  0  0  0  0  0
   17.2593    9.6609   -3.5377 O   0  0  0  0  0  0  0  0  0  0  0  0
   18.5271    8.1326   -2.6356 O   0  0  0  0  0  0  0  0  0  0  0  0
   11.1519    7.8183    0.2232 N   0  0  0  0  0  0  0  0  0  0  0  0
   10.9899    6.7407    0.0397 N   0  0  0  0  0  0  0  0  0  0  0  0
   12.7570    4.0398   -2.0236 C   0  0  0  0  0  0  0  0  0  0  0  0
   13.6763    3.3249   -1.7117 O   0  0  0  0  0  0  0  0  0  0  0  0
   12.8789    5.3538   -2.4142 O   0  0  0  0  0  0  0  0  0  0  0  0
   11.3017    3.6514   -2.0500 C   0  0  0  0  0  0  0  0  0  0  0  0
   11.2056    2.6038   -1.7676 H   0  0  0  0  0  0  0  0  0  0  0  0
   10.7381    4.2811   -1.3560 H   0  0  0  0  0  0  0  0  0  0  0  0
   10.8874    3.8109   -3.0498 H   0  0  0  0  0  0  0  0  0  0  0  0
  1  2  2  0  0  0  0
  1  6  1  0  0  0  0
  2  3  1  0  0  0  0
  3 18  1  0  0  0  0
  3  4  2  0  0  0  0
  4  9  1  0  0  0  0
  5  4  1  0  0  0  0
  5 10  1  0  0  0  0
  6  5  2  0  0  0  0
  7  1  1  0  0  0  0
  8  2  1  0  0  0  0
 11  6  1  0  0  0  0
 11 13  2  0  0  0  0
 12 11  2  0  0  0  0
 15 14  3  0  0  0  0
 16 17  2  0  0  0  0
 18 16  1  0  0  0  0
 19 16  1  0  0  0  0
 19 20  1  0  0  0  0
 19 21  1  0  0  0  0
 22 19  1  0  0  0  0
M  END
