Coordinates from ORCA-job 4-NO2-Ph-N2-OAc-B3LYPG-6-31G_dp-MTMO-d009-169-n750
 OpenBabel09051907563D

 22 21  0  0  0  0  0  0  0  0999 V2000
   15.4505    8.4998   -3.3692 C   0  0  0  0  0  0  0  0  0  0  0  0
   14.3700    7.6400   -3.2385 C   0  0  0  0  0  0  0  0  0  0  0  0
   14.5360    6.3881   -2.6293 C   0  0  0  0  0  0  0  0  0  0  0  0
   15.7863    5.9831   -2.1433 C   0  0  0  0  0  0  0  0  0  0  0  0
   16.8688    6.8503   -2.2769 C   0  0  0  0  0  0  0  0  0  0  0  0
   16.6931    8.0908   -2.8839 C   0  0  0  0  0  0  0  0  0  0  0  0
   15.3514    9.4718   -3.8346 H   0  0  0  0  0  0  0  0  0  0  0  0
   13.3866    7.9174   -3.6012 H   0  0  0  0  0  0  0  0  0  0  0  0
   15.9069    5.0168   -1.6801 H   0  0  0  0  0  0  0  0  0  0  0  0
   17.8504    6.5730   -1.9136 H   0  0  0  0  0  0  0  0  0  0  0  0
   17.8432    8.9926   -3.0177 N   0  0  0  0  0  0  0  0  0  0  0  0
   17.6525   10.0840   -3.5551 O   0  0  0  0  0  0  0  0  0  0  0  0
   18.9283    8.6045   -2.5857 O   0  0  0  0  0  0  0  0  0  0  0  0
    6.0230    3.5991    1.1491 N   0  0  0  0  0  0  0  0  0  0  0  0
    6.9610    3.8422    0.6174 N   0  0  0  0  0  0  0  0  0  0  0  0
   13.2511    4.3648   -2.1054 C   0  0  0  0  0  0  0  0  0  0  0  0
   14.1668    3.6925   -1.7011 O   0  0  0  0  0  0  0  0  0  0  0  0
   13.3621    5.6562   -2.5632 O   0  0  0  0  0  0  0  0  0  0  0  0
   11.8094    3.9342   -2.1926 C   0  0  0  0  0  0  0  0  0  0  0  0
   11.7209    2.9062   -1.8437 H   0  0  0  0  0  0  0  0  0  0  0  0
   11.1839    4.5912   -1.5814 H   0  0  0  0  0  0  0  0  0  0  0  0
   11.4551    4.0125   -3.2245 H   0  0  0  0  0  0  0  0  0  0  0  0
  1  2  2  0  0  0  0
  1  6  1  0  0  0  0
  2  3  1  0  0  0  0
  3 18  1  0  0  0  0
  3  4  2  0  0  0  0
  4  9  1  0  0  0  0
  5  4  1  0  0  0  0
  5 10  1  0  0  0  0
  6  5  2  0  0  0  0
  7  1  1  0  0  0  0
  8  2  1  0  0  0  0
 11  6  1  0  0  0  0
 11 13  2  0  0  0  0
 12 11  2  0  0  0  0
 15 14  3  0  0  0  0
 16 17  2  0  0  0  0
 18 16  1  0  0  0  0
 19 16  1  0  0  0  0
 19 20  1  0  0  0  0
 19 21  1  0  0  0  0
 22 19  1  0  0  0  0
M  END
