Coordinates from ORCA-job 4-NO2-Ph-N2-OAc-B3LYPG-6-31G_dp-MTMO-d009-169-n750
 OpenBabel09051907563D

 22 21  0  0  0  0  0  0  0  0999 V2000
   15.5790    8.5450   -3.4254 C   0  0  0  0  0  0  0  0  0  0  0  0
   14.5323    7.6365   -3.3716 C   0  0  0  0  0  0  0  0  0  0  0  0
   14.7169    6.3846   -2.7677 C   0  0  0  0  0  0  0  0  0  0  0  0
   15.9519    6.0285   -2.2098 C   0  0  0  0  0  0  0  0  0  0  0  0
   17.0006    6.9446   -2.2664 C   0  0  0  0  0  0  0  0  0  0  0  0
   16.8066    8.1845   -2.8690 C   0  0  0  0  0  0  0  0  0  0  0  0
   15.4651    9.5181   -3.8851 H   0  0  0  0  0  0  0  0  0  0  0  0
   13.5616    7.8749   -3.7915 H   0  0  0  0  0  0  0  0  0  0  0  0
   16.0869    5.0626   -1.7496 H   0  0  0  0  0  0  0  0  0  0  0  0
   17.9697    6.7058   -1.8468 H   0  0  0  0  0  0  0  0  0  0  0  0
   17.9212    9.1377   -2.9222 N   0  0  0  0  0  0  0  0  0  0  0  0
   17.7145   10.2274   -3.4572 O   0  0  0  0  0  0  0  0  0  0  0  0
   18.9948    8.7915   -2.4298 O   0  0  0  0  0  0  0  0  0  0  0  0
    4.2956    3.4803    2.2941 N   0  0  0  0  0  0  0  0  0  0  0  0
    5.2269    3.7077    1.7440 N   0  0  0  0  0  0  0  0  0  0  0  0
   13.4869    4.3083   -2.3238 C   0  0  0  0  0  0  0  0  0  0  0  0
   14.3942    3.6839   -1.8330 O   0  0  0  0  0  0  0  0  0  0  0  0
   13.5767    5.5986   -2.7887 O   0  0  0  0  0  0  0  0  0  0  0  0
   12.0796    3.8087   -2.5287 C   0  0  0  0  0  0  0  0  0  0  0  0
   12.0061    2.7853   -2.1634 H   0  0  0  0  0  0  0  0  0  0  0  0
   11.3725    4.4487   -1.9933 H   0  0  0  0  0  0  0  0  0  0  0  0
   11.8178    3.8483   -3.5900 H   0  0  0  0  0  0  0  0  0  0  0  0
  1  2  2  0  0  0  0
  1  6  1  0  0  0  0
  2  3  1  0  0  0  0
  3  4  2  0  0  0  0
  4  9  1  0  0  0  0
  5  4  1  0  0  0  0
  5 10  1  0  0  0  0
  6  5  2  0  0  0  0
  7  1  1  0  0  0  0
  8  2  1  0  0  0  0
 11  6  1  0  0  0  0
 11 13  2  0  0  0  0
 12 11  2  0  0  0  0
 15 14  3  0  0  0  0
 16 17  2  0  0  0  0
 18  3  1  0  0  0  0
 18 16  1  0  0  0  0
 19 16  1  0  0  0  0
 19 20  1  0  0  0  0
 19 21  1  0  0  0  0
 22 19  1  0  0  0  0
M  END
