Coordinates from ORCA-job 4-NO2-Ph-N2-OAc-B3LYPG-6-31G_dp-MTMO-d009-169-n750
 OpenBabel09051907563D

 22 21  0  0  0  0  0  0  0  0999 V2000
   15.3603    8.4591   -3.3454 C   0  0  0  0  0  0  0  0  0  0  0  0
   14.2740    7.6065   -3.2159 C   0  0  0  0  0  0  0  0  0  0  0  0
   14.4276    6.3598   -2.5927 C   0  0  0  0  0  0  0  0  0  0  0  0
   15.6713    5.9531   -2.0914 C   0  0  0  0  0  0  0  0  0  0  0  0
   16.7598    6.8131   -2.2240 C   0  0  0  0  0  0  0  0  0  0  0  0
   16.5963    8.0484   -2.8449 C   0  0  0  0  0  0  0  0  0  0  0  0
   15.2707    9.4270   -3.8213 H   0  0  0  0  0  0  0  0  0  0  0  0
   13.2956    7.8852   -3.5905 H   0  0  0  0  0  0  0  0  0  0  0  0
   15.7821    4.9912   -1.6164 H   0  0  0  0  0  0  0  0  0  0  0  0
   17.7365    6.5340   -1.8493 H   0  0  0  0  0  0  0  0  0  0  0  0
   17.7524    8.9424   -2.9777 N   0  0  0  0  0  0  0  0  0  0  0  0
   17.5725   10.0295   -3.5276 O   0  0  0  0  0  0  0  0  0  0  0  0
   18.8318    8.5527   -2.5326 O   0  0  0  0  0  0  0  0  0  0  0  0
    7.1131    3.8815    0.7061 N   0  0  0  0  0  0  0  0  0  0  0  0
    8.0615    4.1299    0.1957 N   0  0  0  0  0  0  0  0  0  0  0  0
   13.1220    4.3564   -2.0420 C   0  0  0  0  0  0  0  0  0  0  0  0
   14.0247    3.6944   -1.5938 O   0  0  0  0  0  0  0  0  0  0  0  0
   13.2496    5.6336   -2.5343 O   0  0  0  0  0  0  0  0  0  0  0  0
   11.6813    3.9268   -2.1500 C   0  0  0  0  0  0  0  0  0  0  0  0
   11.5967    2.8835   -1.8484 H   0  0  0  0  0  0  0  0  0  0  0  0
   11.0544    4.5482   -1.5032 H   0  0  0  0  0  0  0  0  0  0  0  0
   11.3229    4.0552   -3.1751 H   0  0  0  0  0  0  0  0  0  0  0  0
  1  2  2  0  0  0  0
  1  6  1  0  0  0  0
  2  3  1  0  0  0  0
  3 18  1  0  0  0  0
  3  4  2  0  0  0  0
  4  9  1  0  0  0  0
  5  4  1  0  0  0  0
  5 10  1  0  0  0  0
  6  5  2  0  0  0  0
  7  1  1  0  0  0  0
  8  2  1  0  0  0  0
 11  6  1  0  0  0  0
 11 13  2  0  0  0  0
 12 11  2  0  0  0  0
 15 14  3  0  0  0  0
 16 17  2  0  0  0  0
 18 16  1  0  0  0  0
 19 16  1  0  0  0  0
 19 20  1  0  0  0  0
 19 21  1  0  0  0  0
 22 19  1  0  0  0  0
M  END
