Coordinates from ORCA-job 4-NO2-Ph-N2-OAc-B3LYPG-6-31G_dp-MTMO-d009-169-n750
 OpenBabel09051907563D

 22 21  0  0  0  0  0  0  0  0999 V2000
   15.9506    8.6550   -3.5913 C   0  0  0  0  0  0  0  0  0  0  0  0
   14.9084    7.7413   -3.5382 C   0  0  0  0  0  0  0  0  0  0  0  0
   15.1010    6.4875   -2.9408 C   0  0  0  0  0  0  0  0  0  0  0  0
   16.3397    6.1347   -2.3889 C   0  0  0  0  0  0  0  0  0  0  0  0
   17.3837    7.0560   -2.4447 C   0  0  0  0  0  0  0  0  0  0  0  0
   17.1819    8.2978   -3.0408 C   0  0  0  0  0  0  0  0  0  0  0  0
   15.8306    9.6297   -4.0461 H   0  0  0  0  0  0  0  0  0  0  0  0
   13.9351    7.9772   -3.9534 H   0  0  0  0  0  0  0  0  0  0  0  0
   16.4810    5.1671   -1.9342 H   0  0  0  0  0  0  0  0  0  0  0  0
   18.3553    6.8199   -2.0294 H   0  0  0  0  0  0  0  0  0  0  0  0
   18.2917    9.2566   -3.0930 N   0  0  0  0  0  0  0  0  0  0  0  0
   18.0781   10.3478   -3.6222 O   0  0  0  0  0  0  0  0  0  0  0  0
   19.3686    8.9131   -2.6059 O   0  0  0  0  0  0  0  0  0  0  0  0
    0.4436    2.4468    4.0374 N   0  0  0  0  0  0  0  0  0  0  0  0
    1.3869    2.6710    3.5067 N   0  0  0  0  0  0  0  0  0  0  0  0
   13.8861    4.3991   -2.5138 C   0  0  0  0  0  0  0  0  0  0  0  0
   14.8032    3.7708   -2.0466 O   0  0  0  0  0  0  0  0  0  0  0  0
   13.9639    5.6970   -2.9590 O   0  0  0  0  0  0  0  0  0  0  0  0
   12.4779    3.8970   -2.7053 C   0  0  0  0  0  0  0  0  0  0  0  0
   12.4153    2.8659   -2.3601 H   0  0  0  0  0  0  0  0  0  0  0  0
   11.7777    4.5223   -2.1441 H   0  0  0  0  0  0  0  0  0  0  0  0
   12.1971    3.9578   -3.7607 H   0  0  0  0  0  0  0  0  0  0  0  0
  1  2  2  0  0  0  0
  1  6  1  0  0  0  0
  2  3  1  0  0  0  0
  3  4  2  0  0  0  0
  4  9  1  0  0  0  0
  5  4  1  0  0  0  0
  5 10  1  0  0  0  0
  6  5  2  0  0  0  0
  7  1  1  0  0  0  0
  8  2  1  0  0  0  0
 11  6  1  0  0  0  0
 11 13  2  0  0  0  0
 12 11  2  0  0  0  0
 15 14  3  0  0  0  0
 16 17  2  0  0  0  0
 18  3  1  0  0  0  0
 18 16  1  0  0  0  0
 19 16  1  0  0  0  0
 19 20  1  0  0  0  0
 19 21  1  0  0  0  0
 22 19  1  0  0  0  0
M  END
