Coordinates from ORCA-job 4-NO2-Ph-N2-OAc-B3LYPG-6-31G_dp-MTMO-d009-169-n750
 OpenBabel09051907563D

 22 21  0  0  0  0  0  0  0  0999 V2000
   15.1498    8.1314   -3.4070 C   0  0  0  0  0  0  0  0  0  0  0  0
   14.0353    7.3259   -3.2253 C   0  0  0  0  0  0  0  0  0  0  0  0
   14.1626    6.0779   -2.5989 C   0  0  0  0  0  0  0  0  0  0  0  0
   15.4085    5.6228   -2.1465 C   0  0  0  0  0  0  0  0  0  0  0  0
   16.5253    6.4354   -2.3313 C   0  0  0  0  0  0  0  0  0  0  0  0
   16.3875    7.6725   -2.9550 C   0  0  0  0  0  0  0  0  0  0  0  0
   15.0807    9.0990   -3.8868 H   0  0  0  0  0  0  0  0  0  0  0  0
   13.0545    7.6432   -3.5612 H   0  0  0  0  0  0  0  0  0  0  0  0
   15.4996    4.6592   -1.6710 H   0  0  0  0  0  0  0  0  0  0  0  0
   17.5044    6.1181   -1.9951 H   0  0  0  0  0  0  0  0  0  0  0  0
   17.5731    8.5167   -3.1427 N   0  0  0  0  0  0  0  0  0  0  0  0
   17.4157    9.6063   -3.6946 O   0  0  0  0  0  0  0  0  0  0  0  0
   18.6527    8.0857   -2.7383 O   0  0  0  0  0  0  0  0  0  0  0  0
   10.0879    7.4423    1.0247 N   0  0  0  0  0  0  0  0  0  0  0  0
   10.2538    6.5350    0.4163 N   0  0  0  0  0  0  0  0  0  0  0  0
   12.8065    4.1197   -2.0117 C   0  0  0  0  0  0  0  0  0  0  0  0
   13.7076    3.4050   -1.6498 O   0  0  0  0  0  0  0  0  0  0  0  0
   12.9589    5.4047   -2.4782 O   0  0  0  0  0  0  0  0  0  0  0  0
   11.3432    3.7619   -2.0270 C   0  0  0  0  0  0  0  0  0  0  0  0
   11.2237    2.7306   -1.6971 H   0  0  0  0  0  0  0  0  0  0  0  0
   10.7906    4.4337   -1.3639 H   0  0  0  0  0  0  0  0  0  0  0  0
   10.9350    3.8844   -3.0344 H   0  0  0  0  0  0  0  0  0  0  0  0
  1  2  2  0  0  0  0
  1  6  1  0  0  0  0
  2  3  1  0  0  0  0
  3 18  1  0  0  0  0
  3  4  2  0  0  0  0
  4  9  1  0  0  0  0
  5  4  1  0  0  0  0
  5 10  1  0  0  0  0
  6  5  2  0  0  0  0
  7  1  1  0  0  0  0
  8  2  1  0  0  0  0
 11  6  1  0  0  0  0
 11 13  2  0  0  0  0
 12 11  2  0  0  0  0
 15 14  3  0  0  0  0
 16 17  2  0  0  0  0
 18 16  1  0  0  0  0
 19 16  1  0  0  0  0
 19 20  1  0  0  0  0
 19 21  1  0  0  0  0
 22 19  1  0  0  0  0
M  END
