Coordinates from ORCA-job 4-NO2-Ph-N2-OAc-B3LYPG-6-31G_dp-MTMO-d009-169-n750
 OpenBabel09051907563D

 22 21  0  0  0  0  0  0  0  0999 V2000
   15.2685    8.4276   -3.3116 C   0  0  0  0  0  0  0  0  0  0  0  0
   14.2051    7.5410   -3.2287 C   0  0  0  0  0  0  0  0  0  0  0  0
   14.3744    6.2938   -2.6105 C   0  0  0  0  0  0  0  0  0  0  0  0
   15.6112    5.9208   -2.0674 C   0  0  0  0  0  0  0  0  0  0  0  0
   16.6767    6.8148   -2.1534 C   0  0  0  0  0  0  0  0  0  0  0  0
   16.4977    8.0501   -2.7699 C   0  0  0  0  0  0  0  0  0  0  0  0
   15.1664    9.3965   -3.7828 H   0  0  0  0  0  0  0  0  0  0  0  0
   13.2327    7.7931   -3.6364 H   0  0  0  0  0  0  0  0  0  0  0  0
   15.7343    4.9585   -1.5964 H   0  0  0  0  0  0  0  0  0  0  0  0
   17.6474    6.5623   -1.7458 H   0  0  0  0  0  0  0  0  0  0  0  0
   17.6298    8.9801   -2.8537 N   0  0  0  0  0  0  0  0  0  0  0  0
   17.4362   10.0664   -3.4004 O   0  0  0  0  0  0  0  0  0  0  0  0
   18.7042    8.6192   -2.3736 O   0  0  0  0  0  0  0  0  0  0  0  0
    7.7163    4.5286    0.8155 N   0  0  0  0  0  0  0  0  0  0  0  0
    8.6080    4.5966    0.1661 N   0  0  0  0  0  0  0  0  0  0  0  0
   13.1115    4.2469   -2.1226 C   0  0  0  0  0  0  0  0  0  0  0  0
   14.0168    3.6101   -1.6438 O   0  0  0  0  0  0  0  0  0  0  0  0
   13.2183    5.5312   -2.6018 O   0  0  0  0  0  0  0  0  0  0  0  0
   11.6897    3.7748   -2.2861 C   0  0  0  0  0  0  0  0  0  0  0  0
   11.6312    2.7205   -2.0177 H   0  0  0  0  0  0  0  0  0  0  0  0
   11.0256    4.3546   -1.6376 H   0  0  0  0  0  0  0  0  0  0  0  0
   11.3551    3.9238   -3.3162 H   0  0  0  0  0  0  0  0  0  0  0  0
  1  2  2  0  0  0  0
  1  6  1  0  0  0  0
  2  3  1  0  0  0  0
  3 18  1  0  0  0  0
  3  4  2  0  0  0  0
  4  9  1  0  0  0  0
  5  4  1  0  0  0  0
  5 10  1  0  0  0  0
  6  5  2  0  0  0  0
  7  1  1  0  0  0  0
  8  2  1  0  0  0  0
 11  6  1  0  0  0  0
 11 13  2  0  0  0  0
 12 11  2  0  0  0  0
 15 14  3  0  0  0  0
 16 17  2  0  0  0  0
 18 16  1  0  0  0  0
 19 16  1  0  0  0  0
 19 20  1  0  0  0  0
 19 21  1  0  0  0  0
 22 19  1  0  0  0  0
M  END
