Coordinates from ORCA-job 4-NO2-Ph-N2-OAc-B3LYPG-6-31G_dp-MTMO-d009-169-n750
 OpenBabel09051907553D

 22 20  0  0  0  0  0  0  0  0999 V2000
   15.5490    8.9201   -2.7310 C   0  0  0  0  0  0  0  0  0  0  0  0
   14.2405    8.5540   -2.3603 C   0  0  0  0  0  0  0  0  0  0  0  0
   14.2122    7.1912   -2.1803 C   0  0  0  0  0  0  0  0  0  0  0  0
   15.0711    6.2844   -2.2850 C   0  0  0  0  0  0  0  0  0  0  0  0
   16.3849    6.5723   -2.6455 C   0  0  0  0  0  0  0  0  0  0  0  0
   16.5660    7.9540   -2.8632 C   0  0  0  0  0  0  0  0  0  0  0  0
   15.7947    9.9584   -2.9205 H   0  0  0  0  0  0  0  0  0  0  0  0
   13.4279    9.2579   -2.2426 H   0  0  0  0  0  0  0  0  0  0  0  0
   13.8739    4.3698   -2.0635 H   0  0  0  0  0  0  0  0  0  0  0  0
   17.2029    5.8738   -2.7642 H   0  0  0  0  0  0  0  0  0  0  0  0
   17.9115    8.4165   -3.2558 N   0  0  0  0  0  0  0  0  0  0  0  0
   18.0732    9.6211   -3.4442 O   0  0  0  0  0  0  0  0  0  0  0  0
   18.7895    7.5634   -3.3700 O   0  0  0  0  0  0  0  0  0  0  0  0
   11.2473    7.8243   -1.1344 N   0  0  0  0  0  0  0  0  0  0  0  0
   10.3272    7.4516   -0.6498 N   0  0  0  0  0  0  0  0  0  0  0  0
   12.1048    3.7319   -1.9165 C   0  0  0  0  0  0  0  0  0  0  0  0
   13.4295    3.4992   -2.0340 O   0  0  0  0  0  0  0  0  0  0  0  0
   11.6322    4.8484   -1.8583 O   0  0  0  0  0  0  0  0  0  0  0  0
   11.3172    2.4461   -1.8708 C   0  0  0  0  0  0  0  0  0  0  0  0
   11.6604    1.8266   -1.0365 H   0  0  0  0  0  0  0  0  0  0  0  0
   10.2572    2.6711   -1.7588 H   0  0  0  0  0  0  0  0  0  0  0  0
   11.4842    1.8749   -2.7894 H   0  0  0  0  0  0  0  0  0  0  0  0
  1  2  1  0  0  0  0
  2  8  1  0  0  0  0
  2  3  2  0  0  0  0
  4  3  1  0  0  0  0
  5  4  2  0  0  0  0
  6  1  2  0  0  0  0
  6  5  1  0  0  0  0
  7  1  1  0  0  0  0
  9 17  1  0  0  0  0
 10  5  1  0  0  0  0
 11  6  1  0  0  0  0
 12 11  2  0  0  0  0
 13 11  2  0  0  0  0
 14 15  3  0  0  0  0
 16 19  1  0  0  0  0
 16 18  2  0  0  0  0
 17 16  1  0  0  0  0
 19 21  1  0  0  0  0
 19 20  1  0  0  0  0
 22 19  1  0  0  0  0
M  RAD  2   3   2   4   2
M  END
