Coordinates from ORCA-job 4-NO2-Ph-N2-OAc-B3LYPG-6-31G_dp-MTMO-d009-169-n750
 OpenBabel09051907563D

 22 21  0  0  0  0  0  0  0  0999 V2000
   15.1087    8.3939   -3.2110 C   0  0  0  0  0  0  0  0  0  0  0  0
   14.0870    7.4563   -3.1820 C   0  0  0  0  0  0  0  0  0  0  0  0
   14.3051    6.1942   -2.6112 C   0  0  0  0  0  0  0  0  0  0  0  0
   15.5495    5.8574   -2.0618 C   0  0  0  0  0  0  0  0  0  0  0  0
   16.5729    6.8026   -2.0934 C   0  0  0  0  0  0  0  0  0  0  0  0
   16.3457    8.0523   -2.6633 C   0  0  0  0  0  0  0  0  0  0  0  0
   14.9687    9.3752   -3.6454 H   0  0  0  0  0  0  0  0  0  0  0  0
   13.1102    7.6794   -3.5960 H   0  0  0  0  0  0  0  0  0  0  0  0
   15.7108    4.8833   -1.6281 H   0  0  0  0  0  0  0  0  0  0  0  0
   17.5480    6.5792   -1.6793 H   0  0  0  0  0  0  0  0  0  0  0  0
   17.4337    9.0365   -2.6899 N   0  0  0  0  0  0  0  0  0  0  0  0
   17.1978   10.1342   -3.1958 O   0  0  0  0  0  0  0  0  0  0  0  0
   18.5163    8.7068   -2.2057 O   0  0  0  0  0  0  0  0  0  0  0  0
    8.5291    5.6268    0.7996 N   0  0  0  0  0  0  0  0  0  0  0  0
    9.2542    5.2341    0.0640 N   0  0  0  0  0  0  0  0  0  0  0  0
   13.1390    4.0669   -2.2443 C   0  0  0  0  0  0  0  0  0  0  0  0
   14.0733    3.4467   -1.8009 O   0  0  0  0  0  0  0  0  0  0  0  0
   13.1860    5.3800   -2.6499 O   0  0  0  0  0  0  0  0  0  0  0  0
   11.7400    3.5418   -2.4363 C   0  0  0  0  0  0  0  0  0  0  0  0
   11.7239    2.4768   -2.2067 H   0  0  0  0  0  0  0  0  0  0  0  0
   11.0501    4.0731   -1.7737 H   0  0  0  0  0  0  0  0  0  0  0  0
   11.4074    3.7136   -3.4637 H   0  0  0  0  0  0  0  0  0  0  0  0
  1  2  2  0  0  0  0
  1  6  1  0  0  0  0
  2  3  1  0  0  0  0
  3  4  2  0  0  0  0
  4  9  1  0  0  0  0
  5  4  1  0  0  0  0
  5 10  1  0  0  0  0
  6  5  2  0  0  0  0
  7  1  1  0  0  0  0
  8  2  1  0  0  0  0
 11  6  1  0  0  0  0
 11 13  2  0  0  0  0
 12 11  2  0  0  0  0
 15 14  3  0  0  0  0
 16 17  2  0  0  0  0
 18  3  1  0  0  0  0
 18 16  1  0  0  0  0
 19 16  1  0  0  0  0
 19 20  1  0  0  0  0
 19 21  1  0  0  0  0
 22 19  1  0  0  0  0
M  END
