Coordinates from ORCA-job 4-NO2-Ph-N2-OAc-B3LYPG-6-31G_dp-MTMO-d009-169-n750
 OpenBabel09051907563D

 22 21  0  0  0  0  0  0  0  0999 V2000
   15.5035    8.5220   -3.3926 C   0  0  0  0  0  0  0  0  0  0  0  0
   14.4574    7.6125   -3.3431 C   0  0  0  0  0  0  0  0  0  0  0  0
   14.6401    6.3615   -2.7368 C   0  0  0  0  0  0  0  0  0  0  0  0
   15.8727    6.0071   -2.1724 C   0  0  0  0  0  0  0  0  0  0  0  0
   16.9207    6.9241   -2.2247 C   0  0  0  0  0  0  0  0  0  0  0  0
   16.7287    8.1632   -2.8296 C   0  0  0  0  0  0  0  0  0  0  0  0
   15.3910    9.4945   -3.8539 H   0  0  0  0  0  0  0  0  0  0  0  0
   13.4886    7.8495   -3.7682 H   0  0  0  0  0  0  0  0  0  0  0  0
   16.0060    5.0420   -1.7100 H   0  0  0  0  0  0  0  0  0  0  0  0
   17.8879    6.6867   -1.8000 H   0  0  0  0  0  0  0  0  0  0  0  0
   17.8426    9.1174   -2.8783 N   0  0  0  0  0  0  0  0  0  0  0  0
   17.6377   10.2063   -3.4156 O   0  0  0  0  0  0  0  0  0  0  0  0
   18.9141    8.7726   -2.3802 O   0  0  0  0  0  0  0  0  0  0  0  0
    5.0817    3.7118    1.9788 N   0  0  0  0  0  0  0  0  0  0  0  0
    5.9929    3.9207    1.3891 N   0  0  0  0  0  0  0  0  0  0  0  0
   13.4076    4.2871   -2.2904 C   0  0  0  0  0  0  0  0  0  0  0  0
   14.3101    3.6677   -1.7847 O   0  0  0  0  0  0  0  0  0  0  0  0
   13.5011    5.5739   -2.7641 O   0  0  0  0  0  0  0  0  0  0  0  0
   12.0032    3.7842   -2.5071 C   0  0  0  0  0  0  0  0  0  0  0  0
   11.9275    2.7628   -2.1368 H   0  0  0  0  0  0  0  0  0  0  0  0
   11.2897    4.4261   -1.9827 H   0  0  0  0  0  0  0  0  0  0  0  0
   11.7525    3.8175   -3.5713 H   0  0  0  0  0  0  0  0  0  0  0  0
  1  2  2  0  0  0  0
  1  6  1  0  0  0  0
  2  3  1  0  0  0  0
  3  4  2  0  0  0  0
  4  9  1  0  0  0  0
  5  4  1  0  0  0  0
  5 10  1  0  0  0  0
  6  5  2  0  0  0  0
  7  1  1  0  0  0  0
  8  2  1  0  0  0  0
 11  6  1  0  0  0  0
 11 13  2  0  0  0  0
 12 11  2  0  0  0  0
 15 14  3  0  0  0  0
 16 17  2  0  0  0  0
 18  3  1  0  0  0  0
 18 16  1  0  0  0  0
 19 16  1  0  0  0  0
 19 20  1  0  0  0  0
 19 21  1  0  0  0  0
 22 19  1  0  0  0  0
M  END
