Coordinates from ORCA-job 4-NO2-Ph-N2-OAc-B3LYPG-6-31G_dp-MTMO-d009-169-n750
 OpenBabel09051907563D

 22 21  0  0  0  0  0  0  0  0999 V2000
   15.1780    8.3998   -3.2726 C   0  0  0  0  0  0  0  0  0  0  0  0
   14.1392    7.4814   -3.2340 C   0  0  0  0  0  0  0  0  0  0  0  0
   14.3264    6.2312   -2.6271 C   0  0  0  0  0  0  0  0  0  0  0  0
   15.5565    5.8871   -2.0510 C   0  0  0  0  0  0  0  0  0  0  0  0
   16.5972    6.8129   -2.0924 C   0  0  0  0  0  0  0  0  0  0  0  0
   16.4007    8.0510   -2.6981 C   0  0  0  0  0  0  0  0  0  0  0  0
   15.0618    9.3717   -3.7343 H   0  0  0  0  0  0  0  0  0  0  0  0
   13.1726    7.7106   -3.6682 H   0  0  0  0  0  0  0  0  0  0  0  0
   15.6936    4.9225   -1.5886 H   0  0  0  0  0  0  0  0  0  0  0  0
   17.5623    6.5833   -1.6586 H   0  0  0  0  0  0  0  0  0  0  0  0
   17.5067    9.0146   -2.7349 N   0  0  0  0  0  0  0  0  0  0  0  0
   17.2978   10.1023   -3.2732 O   0  0  0  0  0  0  0  0  0  0  0  0
   18.5763    8.6786   -2.2267 O   0  0  0  0  0  0  0  0  0  0  0  0
    8.2963    5.1417    0.9065 N   0  0  0  0  0  0  0  0  0  0  0  0
    9.0872    5.0270    0.1432 N   0  0  0  0  0  0  0  0  0  0  0  0
   13.1080    4.1449   -2.1972 C   0  0  0  0  0  0  0  0  0  0  0  0
   14.0135    3.5318   -1.6888 O   0  0  0  0  0  0  0  0  0  0  0  0
   13.1944    5.4347   -2.6658 O   0  0  0  0  0  0  0  0  0  0  0  0
   11.7072    3.6341   -2.4146 C   0  0  0  0  0  0  0  0  0  0  0  0
   11.6652    2.5808   -2.1393 H   0  0  0  0  0  0  0  0  0  0  0  0
   11.0037    4.2036   -1.7997 H   0  0  0  0  0  0  0  0  0  0  0  0
   11.4125    3.7656   -3.4592 H   0  0  0  0  0  0  0  0  0  0  0  0
  1  2  2  0  0  0  0
  1  6  1  0  0  0  0
  2  3  1  0  0  0  0
  3  4  2  0  0  0  0
  4  9  1  0  0  0  0
  5  4  1  0  0  0  0
  5 10  1  0  0  0  0
  6  5  2  0  0  0  0
  7  1  1  0  0  0  0
  8  2  1  0  0  0  0
 11  6  1  0  0  0  0
 11 13  2  0  0  0  0
 12 11  2  0  0  0  0
 15 14  3  0  0  0  0
 16 17  2  0  0  0  0
 18  3  1  0  0  0  0
 18 16  1  0  0  0  0
 19 16  1  0  0  0  0
 19 20  1  0  0  0  0
 19 21  1  0  0  0  0
 22 19  1  0  0  0  0
M  END
