Coordinates from ORCA-job 4-NO2-Ph-N2-OAc-B3LYPG-6-31G_dp-MTMO-d009-169-n750
 OpenBabel09051907563D

 22 21  0  0  0  0  0  0  0  0999 V2000
   15.2578    8.4247   -3.3064 C   0  0  0  0  0  0  0  0  0  0  0  0
   14.1966    7.5351   -3.2267 C   0  0  0  0  0  0  0  0  0  0  0  0
   14.3681    6.2875   -2.6101 C   0  0  0  0  0  0  0  0  0  0  0  0
   15.6048    5.9169   -2.0653 C   0  0  0  0  0  0  0  0  0  0  0  0
   16.6681    6.8139   -2.1480 C   0  0  0  0  0  0  0  0  0  0  0  0
   16.4870    8.0497   -2.7629 C   0  0  0  0  0  0  0  0  0  0  0  0
   15.1540    9.3941   -3.7763 H   0  0  0  0  0  0  0  0  0  0  0  0
   13.2243    7.7853   -3.6358 H   0  0  0  0  0  0  0  0  0  0  0  0
   15.7297    4.9542   -1.5956 H   0  0  0  0  0  0  0  0  0  0  0  0
   17.6388    6.5634   -1.7390 H   0  0  0  0  0  0  0  0  0  0  0  0
   17.6168    8.9828   -2.8432 N   0  0  0  0  0  0  0  0  0  0  0  0
   17.4213   10.0694   -3.3887 O   0  0  0  0  0  0  0  0  0  0  0  0
   18.6912    8.6240   -2.3617 O   0  0  0  0  0  0  0  0  0  0  0  0
    7.7854    4.5947    0.8074 N   0  0  0  0  0  0  0  0  0  0  0  0
    8.6704    4.6359    0.1467 N   0  0  0  0  0  0  0  0  0  0  0  0
   13.1103    4.2362   -2.1284 C   0  0  0  0  0  0  0  0  0  0  0  0
   14.0170    3.6002   -1.6514 O   0  0  0  0  0  0  0  0  0  0  0  0
   13.2140    5.5220   -2.6044 O   0  0  0  0  0  0  0  0  0  0  0  0
   11.6894    3.7619   -2.2928 C   0  0  0  0  0  0  0  0  0  0  0  0
   11.6330    2.7066   -2.0281 H   0  0  0  0  0  0  0  0  0  0  0  0
   11.0252    4.3385   -1.6416 H   0  0  0  0  0  0  0  0  0  0  0  0
   11.3539    3.9143   -3.3221 H   0  0  0  0  0  0  0  0  0  0  0  0
  1  2  2  0  0  0  0
  1  6  1  0  0  0  0
  2  3  1  0  0  0  0
  3 18  1  0  0  0  0
  3  4  2  0  0  0  0
  4  9  1  0  0  0  0
  5  4  1  0  0  0  0
  5 10  1  0  0  0  0
  6  5  2  0  0  0  0
  7  1  1  0  0  0  0
  8  2  1  0  0  0  0
 11  6  1  0  0  0  0
 11 13  2  0  0  0  0
 12 11  2  0  0  0  0
 15 14  3  0  0  0  0
 16 17  2  0  0  0  0
 18 16  1  0  0  0  0
 19 16  1  0  0  0  0
 19 20  1  0  0  0  0
 19 21  1  0  0  0  0
 22 19  1  0  0  0  0
M  END
