Coordinates from ORCA-job 4-NO2-Ph-N2-OAc-B3LYPG-6-31G_dp-MTMO-d009-169-n750
 OpenBabel09051907563D

 22 21  0  0  0  0  0  0  0  0999 V2000
   15.4881    8.5140   -3.3834 C   0  0  0  0  0  0  0  0  0  0  0  0
   14.4102    7.6503   -3.2559 C   0  0  0  0  0  0  0  0  0  0  0  0
   14.5794    6.3979   -2.6487 C   0  0  0  0  0  0  0  0  0  0  0  0
   15.8303    5.9962   -2.1614 C   0  0  0  0  0  0  0  0  0  0  0  0
   16.9102    6.8673   -2.2917 C   0  0  0  0  0  0  0  0  0  0  0  0
   16.7312    8.1083   -2.8968 C   0  0  0  0  0  0  0  0  0  0  0  0
   15.3865    9.4864   -3.8473 H   0  0  0  0  0  0  0  0  0  0  0  0
   13.4266    7.9250   -3.6198 H   0  0  0  0  0  0  0  0  0  0  0  0
   15.9535    5.0295   -1.6998 H   0  0  0  0  0  0  0  0  0  0  0  0
   17.8920    6.5926   -1.9272 H   0  0  0  0  0  0  0  0  0  0  0  0
   17.8785    9.0141   -3.0271 N   0  0  0  0  0  0  0  0  0  0  0  0
   17.6851   10.1059   -3.5629 O   0  0  0  0  0  0  0  0  0  0  0  0
   18.9643    8.6288   -2.5940 O   0  0  0  0  0  0  0  0  0  0  0  0
    5.5895    3.4967    1.3462 N   0  0  0  0  0  0  0  0  0  0  0  0
    6.5263    3.7339    0.8097 N   0  0  0  0  0  0  0  0  0  0  0  0
   13.3014    4.3681   -2.1338 C   0  0  0  0  0  0  0  0  0  0  0  0
   14.2195    3.6966   -1.7339 O   0  0  0  0  0  0  0  0  0  0  0  0
   13.4078    5.6621   -2.5851 O   0  0  0  0  0  0  0  0  0  0  0  0
   11.8610    3.9333   -2.2222 C   0  0  0  0  0  0  0  0  0  0  0  0
   11.7753    2.9049   -1.8738 H   0  0  0  0  0  0  0  0  0  0  0  0
   11.2330    4.5885   -1.6115 H   0  0  0  0  0  0  0  0  0  0  0  0
   11.5074    4.0107   -3.2544 H   0  0  0  0  0  0  0  0  0  0  0  0
  1  2  2  0  0  0  0
  1  6  1  0  0  0  0
  2  3  1  0  0  0  0
  3 18  1  0  0  0  0
  3  4  2  0  0  0  0
  4  9  1  0  0  0  0
  5  4  1  0  0  0  0
  5 10  1  0  0  0  0
  6  5  2  0  0  0  0
  7  1  1  0  0  0  0
  8  2  1  0  0  0  0
 11  6  1  0  0  0  0
 11 13  2  0  0  0  0
 12 11  2  0  0  0  0
 15 14  3  0  0  0  0
 16 17  2  0  0  0  0
 18 16  1  0  0  0  0
 19 16  1  0  0  0  0
 19 20  1  0  0  0  0
 19 21  1  0  0  0  0
 22 19  1  0  0  0  0
M  END
