Coordinates from ORCA-job 4-NO2-Ph-N2-OAc-B3LYPG-6-31G_dp-MTMO-d009-169-n750
 OpenBabel09051907563D

 22 21  0  0  0  0  0  0  0  0999 V2000
   15.6995    8.5823   -3.4777 C   0  0  0  0  0  0  0  0  0  0  0  0
   14.6547    7.6715   -3.4230 C   0  0  0  0  0  0  0  0  0  0  0  0
   14.8438    6.4184   -2.8232 C   0  0  0  0  0  0  0  0  0  0  0  0
   16.0814    6.0633   -2.2703 C   0  0  0  0  0  0  0  0  0  0  0  0
   17.1280    6.9816   -2.3277 C   0  0  0  0  0  0  0  0  0  0  0  0
   16.9296    8.2227   -2.9263 C   0  0  0  0  0  0  0  0  0  0  0  0
   15.5821    9.5564   -3.9345 H   0  0  0  0  0  0  0  0  0  0  0  0
   13.6822    7.9092   -3.8391 H   0  0  0  0  0  0  0  0  0  0  0  0
   16.2198    5.0962   -1.8135 H   0  0  0  0  0  0  0  0  0  0  0  0
   18.0989    6.7436   -1.9119 H   0  0  0  0  0  0  0  0  0  0  0  0
   18.0421    9.1783   -2.9804 N   0  0  0  0  0  0  0  0  0  0  0  0
   17.8316   10.2691   -3.5117 O   0  0  0  0  0  0  0  0  0  0  0  0
   19.1180    8.8328   -2.4925 O   0  0  0  0  0  0  0  0  0  0  0  0
    3.0166    3.1431    2.8611 N   0  0  0  0  0  0  0  0  0  0  0  0
    3.9572    3.3700    2.3269 N   0  0  0  0  0  0  0  0  0  0  0  0
   13.6217    4.3356   -2.3881 C   0  0  0  0  0  0  0  0  0  0  0  0
   14.5349    3.7084   -1.9120 O   0  0  0  0  0  0  0  0  0  0  0  0
   13.7048    5.6306   -2.8413 O   0  0  0  0  0  0  0  0  0  0  0  0
   12.2134    3.8355   -2.5842 C   0  0  0  0  0  0  0  0  0  0  0  0
   12.1460    2.8075   -2.2306 H   0  0  0  0  0  0  0  0  0  0  0  0
   11.5112    4.4673   -2.0329 H   0  0  0  0  0  0  0  0  0  0  0  0
   11.9397    3.8878   -3.6419 H   0  0  0  0  0  0  0  0  0  0  0  0
  1  2  2  0  0  0  0
  1  6  1  0  0  0  0
  2  3  1  0  0  0  0
  3  4  2  0  0  0  0
  4  9  1  0  0  0  0
  5  4  1  0  0  0  0
  5 10  1  0  0  0  0
  6  5  2  0  0  0  0
  7  1  1  0  0  0  0
  8  2  1  0  0  0  0
 11  6  1  0  0  0  0
 11 13  2  0  0  0  0
 12 11  2  0  0  0  0
 15 14  3  0  0  0  0
 16 17  2  0  0  0  0
 18  3  1  0  0  0  0
 18 16  1  0  0  0  0
 19 16  1  0  0  0  0
 19 20  1  0  0  0  0
 19 21  1  0  0  0  0
 22 19  1  0  0  0  0
M  END
