Coordinates from ORCA-job 4-NO2-Ph-N2-OAc-B3LYPG-6-31G_dp-MTMO-d009-169-n750
 OpenBabel09051907553D

 22 21  0  0  0  0  0  0  0  0999 V2000
   15.0355    8.1374   -3.3005 C   0  0  0  0  0  0  0  0  0  0  0  0
   13.9333    7.3121   -3.1335 C   0  0  0  0  0  0  0  0  0  0  0  0
   14.0802    6.0534   -2.5336 C   0  0  0  0  0  0  0  0  0  0  0  0
   15.3332    5.6077   -2.0921 C   0  0  0  0  0  0  0  0  0  0  0  0
   16.4378    6.4399   -2.2622 C   0  0  0  0  0  0  0  0  0  0  0  0
   16.2807    7.6873   -2.8605 C   0  0  0  0  0  0  0  0  0  0  0  0
   14.9514    9.1135   -3.7603 H   0  0  0  0  0  0  0  0  0  0  0  0
   12.9472    7.6221   -3.4608 H   0  0  0  0  0  0  0  0  0  0  0  0
   15.4396    4.6359   -1.6369 H   0  0  0  0  0  0  0  0  0  0  0  0
   17.4220    6.1303   -1.9340 H   0  0  0  0  0  0  0  0  0  0  0  0
   17.4537    8.5522   -3.0332 N   0  0  0  0  0  0  0  0  0  0  0  0
   17.2795    9.6502   -3.5628 O   0  0  0  0  0  0  0  0  0  0  0  0
   18.5401    8.1289   -2.6388 O   0  0  0  0  0  0  0  0  0  0  0  0
   11.0172    7.7906    0.3523 N   0  0  0  0  0  0  0  0  0  0  0  0
   10.9236    6.7208    0.0916 N   0  0  0  0  0  0  0  0  0  0  0  0
   12.7628    4.0467   -2.0315 C   0  0  0  0  0  0  0  0  0  0  0  0
   13.6816    3.3292   -1.7240 O   0  0  0  0  0  0  0  0  0  0  0  0
   12.8865    5.3611   -2.4201 O   0  0  0  0  0  0  0  0  0  0  0  0
   11.3065    3.6619   -2.0536 C   0  0  0  0  0  0  0  0  0  0  0  0
   11.2092    2.6129   -1.7766 H   0  0  0  0  0  0  0  0  0  0  0  0
   10.7479    4.2889   -1.3531 H   0  0  0  0  0  0  0  0  0  0  0  0
   10.8877    3.8283   -3.0504 H   0  0  0  0  0  0  0  0  0  0  0  0
  1  2  2  0  0  0  0
  1  6  1  0  0  0  0
  2  3  1  0  0  0  0
  3 18  1  0  0  0  0
  3  4  2  0  0  0  0
  4  9  1  0  0  0  0
  5  4  1  0  0  0  0
  5 10  1  0  0  0  0
  6  5  2  0  0  0  0
  7  1  1  0  0  0  0
  8  2  1  0  0  0  0
 11  6  1  0  0  0  0
 11 13  2  0  0  0  0
 12 11  2  0  0  0  0
 15 14  3  0  0  0  0
 16 17  2  0  0  0  0
 18 16  1  0  0  0  0
 19 16  1  0  0  0  0
 19 20  1  0  0  0  0
 19 21  1  0  0  0  0
 22 19  1  0  0  0  0
M  END
