Coordinates from ORCA-job 4-NO2-Ph-N2-OAc-B3LYPG-6-31G_dp-MTMO-d009-169-n750
 OpenBabel09051907553D

 22 22  0  0  0  0  0  0  0  0999 V2000
   15.1571    8.4528   -3.1750 C   0  0  0  0  0  0  0  0  0  0  0  0
   13.9586    8.0211   -2.6774 C   0  0  0  0  0  0  0  0  0  0  0  0
   13.8695    6.9050   -1.6831 C   0  0  0  0  0  0  0  0  0  0  0  0
   15.2059    6.3198   -1.3453 C   0  0  0  0  0  0  0  0  0  0  0  0
   16.3607    6.8001   -1.8957 C   0  0  0  0  0  0  0  0  0  0  0  0
   16.3696    7.8652   -2.8036 C   0  0  0  0  0  0  0  0  0  0  0  0
   15.1687    9.2760   -3.8821 H   0  0  0  0  0  0  0  0  0  0  0  0
   13.0072    8.4643   -2.9446 H   0  0  0  0  0  0  0  0  0  0  0  0
   15.1622    5.4770   -0.6692 H   0  0  0  0  0  0  0  0  0  0  0  0
   17.3038    6.3401   -1.6200 H   0  0  0  0  0  0  0  0  0  0  0  0
   17.6071    8.3456   -3.3507 N   0  0  0  0  0  0  0  0  0  0  0  0
   17.5608    9.2864   -4.1548 O   0  0  0  0  0  0  0  0  0  0  0  0
   18.6549    7.7937   -2.9895 O   0  0  0  0  0  0  0  0  0  0  0  0
   13.0367    6.5985   -1.3064 N   0  0  0  0  0  0  0  0  0  0  0  0
   11.9846    6.2740   -0.7981 N   0  0  0  0  0  0  0  0  0  0  0  0
   11.9915    4.0475   -1.7653 C   0  0  0  0  0  0  0  0  0  0  0  0
   13.1269    3.8913   -1.3914 O   0  0  0  0  0  0  0  0  0  0  0  0
   11.3006    5.2355   -1.6368 O   0  0  0  0  0  0  0  0  0  0  0  0
   11.1005    3.0185   -2.4115 C   0  0  0  0  0  0  0  0  0  0  0  0
   10.3601    2.6754   -1.6820 H   0  0  0  0  0  0  0  0  0  0  0  0
   10.5598    3.4485   -3.2576 H   0  0  0  0  0  0  0  0  0  0  0  0
   11.7105    2.1751   -2.7346 H   0  0  0  0  0  0  0  0  0  0  0  0
  1  6  2  0  0  0  0
  1  2  1  0  0  0  0
  2  3  2  0  0  0  0
  3  4  1  0  0  0  0
  3 14  1  0  0  0  0
  4  9  1  0  0  0  0
  5 10  1  0  0  0  0
  5  4  2  0  0  0  0
  6  5  1  0  0  0  0
  7  1  1  0  0  0  0
  8  2  1  0  0  0  0
 11 13  2  0  0  0  0
 11  6  1  0  0  0  0
 12 11  2  0  0  0  0
 14 15  1  0  0  0  0
 16 18  1  0  0  0  0
 16 17  2  0  0  0  0
 18 15  1  0  0  0  0
 19 16  1  0  0  0  0
 19 20  1  0  0  0  0
 21 19  1  0  0  0  0
 22 19  1  0  0  0  0
M  RAD  2  14   2  15   2
M  END
