Coordinates from ORCA-job 4-NO2-Ph-N2-OAc-B3LYPG-6-31G_dp-MTMO-d009-169-n750
 OpenBabel09051907563D

 22 21  0  0  0  0  0  0  0  0999 V2000
   15.6389    8.5637   -3.4514 C   0  0  0  0  0  0  0  0  0  0  0  0
   14.5933    7.6539   -3.3972 C   0  0  0  0  0  0  0  0  0  0  0  0
   14.7804    6.4013   -2.7954 C   0  0  0  0  0  0  0  0  0  0  0  0
   16.0168    6.0458   -2.2402 C   0  0  0  0  0  0  0  0  0  0  0  0
   17.0643    6.9632   -2.2972 C   0  0  0  0  0  0  0  0  0  0  0  0
   16.8680    8.2037   -2.8977 C   0  0  0  0  0  0  0  0  0  0  0  0
   15.5232    9.5373   -3.9095 H   0  0  0  0  0  0  0  0  0  0  0  0
   13.6216    7.8919   -3.8150 H   0  0  0  0  0  0  0  0  0  0  0  0
   16.1537    5.0793   -1.7819 H   0  0  0  0  0  0  0  0  0  0  0  0
   18.0343    6.7248   -1.8796 H   0  0  0  0  0  0  0  0  0  0  0  0
   17.9813    9.1583   -2.9512 N   0  0  0  0  0  0  0  0  0  0  0  0
   17.7726   10.2485   -3.4843 O   0  0  0  0  0  0  0  0  0  0  0  0
   19.0562    8.8125   -2.4612 O   0  0  0  0  0  0  0  0  0  0  0  0
    3.6548    3.3118    2.5751 N   0  0  0  0  0  0  0  0  0  0  0  0
    4.5928    3.5404    2.0370 N   0  0  0  0  0  0  0  0  0  0  0  0
   13.5548    4.3214   -2.3566 C   0  0  0  0  0  0  0  0  0  0  0  0
   14.4655    3.6952   -1.8745 O   0  0  0  0  0  0  0  0  0  0  0  0
   13.6408    5.6144   -2.8147 O   0  0  0  0  0  0  0  0  0  0  0  0
   12.1467    3.8218   -2.5559 C   0  0  0  0  0  0  0  0  0  0  0  0
   12.0765    2.7958   -2.1971 H   0  0  0  0  0  0  0  0  0  0  0  0
   11.4430    4.4575   -2.0111 H   0  0  0  0  0  0  0  0  0  0  0  0
   11.8777    3.8687   -3.6151 H   0  0  0  0  0  0  0  0  0  0  0  0
  1  2  2  0  0  0  0
  1  6  1  0  0  0  0
  2  3  1  0  0  0  0
  3  4  2  0  0  0  0
  4  9  1  0  0  0  0
  5  4  1  0  0  0  0
  5 10  1  0  0  0  0
  6  5  2  0  0  0  0
  7  1  1  0  0  0  0
  8  2  1  0  0  0  0
 11  6  1  0  0  0  0
 11 13  2  0  0  0  0
 12 11  2  0  0  0  0
 15 14  3  0  0  0  0
 16 17  2  0  0  0  0
 18  3  1  0  0  0  0
 18 16  1  0  0  0  0
 19 16  1  0  0  0  0
 19 20  1  0  0  0  0
 19 21  1  0  0  0  0
 22 19  1  0  0  0  0
M  END
