Coordinates from ORCA-job 4-NO2-Ph-N2-OAc-B3LYPG-6-31G_dp-MTMO-d009-169-n750
 OpenBabel09051907563D

 22 21  0  0  0  0  0  0  0  0999 V2000
   15.3537    8.4563   -3.3436 C   0  0  0  0  0  0  0  0  0  0  0  0
   14.2676    7.6033   -3.2151 C   0  0  0  0  0  0  0  0  0  0  0  0
   14.4207    6.3571   -2.5910 C   0  0  0  0  0  0  0  0  0  0  0  0
   15.6638    5.9510   -2.0877 C   0  0  0  0  0  0  0  0  0  0  0  0
   16.7522    6.8113   -2.2193 C   0  0  0  0  0  0  0  0  0  0  0  0
   16.5891    8.0462   -2.8412 C   0  0  0  0  0  0  0  0  0  0  0  0
   15.2645    9.4238   -3.8202 H   0  0  0  0  0  0  0  0  0  0  0  0
   13.2895    7.8816   -3.5913 H   0  0  0  0  0  0  0  0  0  0  0  0
   15.7743    4.9895   -1.6120 H   0  0  0  0  0  0  0  0  0  0  0  0
   17.7285    6.5328   -1.8431 H   0  0  0  0  0  0  0  0  0  0  0  0
   17.7452    8.9406   -2.9729 N   0  0  0  0  0  0  0  0  0  0  0  0
   17.5656   10.0273   -3.5236 O   0  0  0  0  0  0  0  0  0  0  0  0
   18.8240    8.5515   -2.5261 O   0  0  0  0  0  0  0  0  0  0  0  0
    7.1836    3.9103    0.6856 N   0  0  0  0  0  0  0  0  0  0  0  0
    8.1316    4.1526    0.1716 N   0  0  0  0  0  0  0  0  0  0  0  0
   13.1150    4.3535   -2.0410 C   0  0  0  0  0  0  0  0  0  0  0  0
   14.0173    3.6920   -1.5914 O   0  0  0  0  0  0  0  0  0  0  0  0
   13.2428    5.6305   -2.5337 O   0  0  0  0  0  0  0  0  0  0  0  0
   11.6745    3.9235   -2.1504 C   0  0  0  0  0  0  0  0  0  0  0  0
   11.5903    2.8795   -1.8511 H   0  0  0  0  0  0  0  0  0  0  0  0
   11.0472    4.5429   -1.5021 H   0  0  0  0  0  0  0  0  0  0  0  0
   11.3161    4.0541   -3.1751 H   0  0  0  0  0  0  0  0  0  0  0  0
  1  2  2  0  0  0  0
  1  6  1  0  0  0  0
  2  3  1  0  0  0  0
  3 18  1  0  0  0  0
  3  4  2  0  0  0  0
  4  9  1  0  0  0  0
  5  4  1  0  0  0  0
  5 10  1  0  0  0  0
  6  5  2  0  0  0  0
  7  1  1  0  0  0  0
  8  2  1  0  0  0  0
 11  6  1  0  0  0  0
 11 13  2  0  0  0  0
 12 11  2  0  0  0  0
 15 14  3  0  0  0  0
 16 17  2  0  0  0  0
 18 16  1  0  0  0  0
 19 16  1  0  0  0  0
 19 20  1  0  0  0  0
 19 21  1  0  0  0  0
 22 19  1  0  0  0  0
M  END
