Coordinates from ORCA-job 4-NO2-Ph-N2-OAc-B3LYPG-6-31G_dp-MTMO-d009-169-n750
 OpenBabel09051907553D

 22 21  0  0  0  0  0  0  0  0999 V2000
   15.0276    8.1400   -3.2897 C   0  0  0  0  0  0  0  0  0  0  0  0
   13.9262    7.3134   -3.1231 C   0  0  0  0  0  0  0  0  0  0  0  0
   14.0754    6.0523   -2.5288 C   0  0  0  0  0  0  0  0  0  0  0  0
   15.3297    5.6055   -2.0924 C   0  0  0  0  0  0  0  0  0  0  0  0
   16.4334    6.4390   -2.2621 C   0  0  0  0  0  0  0  0  0  0  0  0
   16.2741    7.6886   -2.8549 C   0  0  0  0  0  0  0  0  0  0  0  0
   14.9418    9.1179   -3.7453 H   0  0  0  0  0  0  0  0  0  0  0  0
   12.9391    7.6242   -3.4467 H   0  0  0  0  0  0  0  0  0  0  0  0
   15.4377    4.6320   -1.6412 H   0  0  0  0  0  0  0  0  0  0  0  0
   17.4187    6.1285   -1.9377 H   0  0  0  0  0  0  0  0  0  0  0  0
   17.4463    8.5548   -3.0273 N   0  0  0  0  0  0  0  0  0  0  0  0
   17.2703    9.6546   -3.5523 O   0  0  0  0  0  0  0  0  0  0  0  0
   18.5339    8.1305   -2.6372 O   0  0  0  0  0  0  0  0  0  0  0  0
   11.0832    7.8015    0.2899 N   0  0  0  0  0  0  0  0  0  0  0  0
   10.9578    6.7264    0.0671 N   0  0  0  0  0  0  0  0  0  0  0  0
   12.7597    4.0439   -2.0280 C   0  0  0  0  0  0  0  0  0  0  0  0
   13.6789    3.3274   -1.7195 O   0  0  0  0  0  0  0  0  0  0  0  0
   12.8823    5.3586   -2.4161 O   0  0  0  0  0  0  0  0  0  0  0  0
   11.3039    3.6573   -2.0520 C   0  0  0  0  0  0  0  0  0  0  0  0
   11.2073    2.6086   -1.7736 H   0  0  0  0  0  0  0  0  0  0  0  0
   10.7431    4.2849   -1.3538 H   0  0  0  0  0  0  0  0  0  0  0  0
   10.8868    3.8215   -3.0500 H   0  0  0  0  0  0  0  0  0  0  0  0
  1  2  2  0  0  0  0
  1  6  1  0  0  0  0
  2  3  1  0  0  0  0
  3 18  1  0  0  0  0
  3  4  2  0  0  0  0
  4  9  1  0  0  0  0
  5  4  1  0  0  0  0
  5 10  1  0  0  0  0
  6  5  2  0  0  0  0
  7  1  1  0  0  0  0
  8  2  1  0  0  0  0
 11  6  1  0  0  0  0
 11 13  2  0  0  0  0
 12 11  2  0  0  0  0
 15 14  3  0  0  0  0
 16 17  2  0  0  0  0
 18 16  1  0  0  0  0
 19 16  1  0  0  0  0
 19 20  1  0  0  0  0
 19 21  1  0  0  0  0
 22 19  1  0  0  0  0
M  END
