Coordinates from ORCA-job 4-NO2-Ph-N2-OAc-B3LYPG-6-31G_dp-MTMO-d009-169-n750
 OpenBabel09051907563D

 22 21  0  0  0  0  0  0  0  0999 V2000
   15.5410    8.5332   -3.4091 C   0  0  0  0  0  0  0  0  0  0  0  0
   14.4943    7.6246   -3.3570 C   0  0  0  0  0  0  0  0  0  0  0  0
   14.6776    6.3732   -2.7517 C   0  0  0  0  0  0  0  0  0  0  0  0
   15.9114    6.0176   -2.1907 C   0  0  0  0  0  0  0  0  0  0  0  0
   16.9600    6.9338   -2.2456 C   0  0  0  0  0  0  0  0  0  0  0  0
   16.7674    8.1732   -2.8496 C   0  0  0  0  0  0  0  0  0  0  0  0
   15.4281    9.5059   -3.8698 H   0  0  0  0  0  0  0  0  0  0  0  0
   13.5245    7.8626   -3.7793 H   0  0  0  0  0  0  0  0  0  0  0  0
   16.0452    5.0522   -1.7292 H   0  0  0  0  0  0  0  0  0  0  0  0
   17.9282    6.6954   -1.8235 H   0  0  0  0  0  0  0  0  0  0  0  0
   17.8820    9.1265   -2.9009 N   0  0  0  0  0  0  0  0  0  0  0  0
   17.6765   10.2158   -3.4372 O   0  0  0  0  0  0  0  0  0  0  0  0
   18.9545    8.7808   -2.4057 O   0  0  0  0  0  0  0  0  0  0  0  0
    4.6968    3.5933    2.1291 N   0  0  0  0  0  0  0  0  0  0  0  0
    5.6196    3.8149    1.5625 N   0  0  0  0  0  0  0  0  0  0  0  0
   13.4456    4.2984   -2.3058 C   0  0  0  0  0  0  0  0  0  0  0  0
   14.3505    3.6762   -1.8077 O   0  0  0  0  0  0  0  0  0  0  0  0
   13.5377    5.5869   -2.7753 O   0  0  0  0  0  0  0  0  0  0  0  0
   12.0395    3.7978   -2.5159 C   0  0  0  0  0  0  0  0  0  0  0  0
   11.9643    2.7759   -2.1470 H   0  0  0  0  0  0  0  0  0  0  0  0
   11.3295    4.4398   -1.9867 H   0  0  0  0  0  0  0  0  0  0  0  0
   11.7832    3.8333   -3.5787 H   0  0  0  0  0  0  0  0  0  0  0  0
  1  2  2  0  0  0  0
  1  6  1  0  0  0  0
  2  3  1  0  0  0  0
  3  4  2  0  0  0  0
  4  9  1  0  0  0  0
  5  4  1  0  0  0  0
  5 10  1  0  0  0  0
  6  5  2  0  0  0  0
  7  1  1  0  0  0  0
  8  2  1  0  0  0  0
 11  6  1  0  0  0  0
 11 13  2  0  0  0  0
 12 11  2  0  0  0  0
 15 14  3  0  0  0  0
 16 17  2  0  0  0  0
 18  3  1  0  0  0  0
 18 16  1  0  0  0  0
 19 16  1  0  0  0  0
 19 20  1  0  0  0  0
 19 21  1  0  0  0  0
 22 19  1  0  0  0  0
M  END
