Coordinates from ORCA-job 4-NO2-Ph-N2-OAc-B3LYPG-6-31G_dp-MTMO-d009-169-n750
 OpenBabel09051907563D

 22 21  0  0  0  0  0  0  0  0999 V2000
   15.2134    8.1384   -3.4367 C   0  0  0  0  0  0  0  0  0  0  0  0
   14.0900    7.3507   -3.2331 C   0  0  0  0  0  0  0  0  0  0  0  0
   14.2093    6.1019   -2.6068 C   0  0  0  0  0  0  0  0  0  0  0  0
   15.4560    5.6283   -2.1760 C   0  0  0  0  0  0  0  0  0  0  0  0
   16.5817    6.4231   -2.3825 C   0  0  0  0  0  0  0  0  0  0  0  0
   16.4518    7.6611   -3.0061 C   0  0  0  0  0  0  0  0  0  0  0  0
   15.1507    9.1061   -3.9171 H   0  0  0  0  0  0  0  0  0  0  0  0
   13.1083    7.6827   -3.5516 H   0  0  0  0  0  0  0  0  0  0  0  0
   15.5408    4.6641   -1.7005 H   0  0  0  0  0  0  0  0  0  0  0  0
   17.5617    6.0913   -2.0633 H   0  0  0  0  0  0  0  0  0  0  0  0
   17.6467    8.4865   -3.2169 N   0  0  0  0  0  0  0  0  0  0  0  0
   17.4963    9.5773   -3.7683 O   0  0  0  0  0  0  0  0  0  0  0  0
   18.7266    8.0398   -2.8304 O   0  0  0  0  0  0  0  0  0  0  0  0
    9.5232    7.2085    1.1929 N   0  0  0  0  0  0  0  0  0  0  0  0
    9.8634    6.3962    0.5254 N   0  0  0  0  0  0  0  0  0  0  0  0
   12.8342    4.1649   -1.9944 C   0  0  0  0  0  0  0  0  0  0  0  0
   13.7309    3.4349   -1.6525 O   0  0  0  0  0  0  0  0  0  0  0  0
   12.9977    5.4479   -2.4623 O   0  0  0  0  0  0  0  0  0  0  0  0
   11.3651    3.8317   -1.9766 C   0  0  0  0  0  0  0  0  0  0  0  0
   11.2367    2.7979   -1.6581 H   0  0  0  0  0  0  0  0  0  0  0  0
   10.8407    4.5020   -1.2890 H   0  0  0  0  0  0  0  0  0  0  0  0
   10.9321    3.9761   -2.9706 H   0  0  0  0  0  0  0  0  0  0  0  0
  1  2  2  0  0  0  0
  1  6  1  0  0  0  0
  2  3  1  0  0  0  0
  3 18  1  0  0  0  0
  3  4  2  0  0  0  0
  4  9  1  0  0  0  0
  5  4  1  0  0  0  0
  5 10  1  0  0  0  0
  6  5  2  0  0  0  0
  7  1  1  0  0  0  0
  8  2  1  0  0  0  0
 11  6  1  0  0  0  0
 11 13  2  0  0  0  0
 12 11  2  0  0  0  0
 15 14  3  0  0  0  0
 16 19  1  0  0  0  0
 16 17  2  0  0  0  0
 18 16  1  0  0  0  0
 19 20  1  0  0  0  0
 19 21  1  0  0  0  0
 22 19  1  0  0  0  0
M  END
