Coordinates from ORCA-job 4-NO2-Ph-N2-OAc-B3LYPG-6-31G_dp-MTMO-d009-169-n750
 OpenBabel09051907563D

 22 21  0  0  0  0  0  0  0  0999 V2000
   15.2931    8.4377   -3.3177 C   0  0  0  0  0  0  0  0  0  0  0  0
   14.2214    7.5632   -3.2153 C   0  0  0  0  0  0  0  0  0  0  0  0
   14.3870    6.3155   -2.5973 C   0  0  0  0  0  0  0  0  0  0  0  0
   15.6283    5.9297   -2.0739 C   0  0  0  0  0  0  0  0  0  0  0  0
   16.7022    6.8116   -2.1794 C   0  0  0  0  0  0  0  0  0  0  0  0
   16.5268    8.0476   -2.7956 C   0  0  0  0  0  0  0  0  0  0  0  0
   15.1940    9.4068   -3.7892 H   0  0  0  0  0  0  0  0  0  0  0  0
   13.2452    7.8254   -3.6074 H   0  0  0  0  0  0  0  0  0  0  0  0
   15.7486    4.9670   -1.6031 H   0  0  0  0  0  0  0  0  0  0  0  0
   17.6766    6.5491   -1.7873 H   0  0  0  0  0  0  0  0  0  0  0  0
   17.6677    8.9647   -2.9001 N   0  0  0  0  0  0  0  0  0  0  0  0
   17.4773   10.0520   -3.4460 O   0  0  0  0  0  0  0  0  0  0  0  0
   18.7457    8.5929   -2.4367 O   0  0  0  0  0  0  0  0  0  0  0  0
    7.5435    4.2984    0.7102 N   0  0  0  0  0  0  0  0  0  0  0  0
    8.4829    4.4796    0.1569 N   0  0  0  0  0  0  0  0  0  0  0  0
   13.1114    4.2816   -2.0898 C   0  0  0  0  0  0  0  0  0  0  0  0
   14.0189    3.6330   -1.6316 O   0  0  0  0  0  0  0  0  0  0  0  0
   13.2227    5.5662   -2.5670 O   0  0  0  0  0  0  0  0  0  0  0  0
   11.6816    3.8256   -2.2273 C   0  0  0  0  0  0  0  0  0  0  0  0
   11.6155    2.7729   -1.9548 H   0  0  0  0  0  0  0  0  0  0  0  0
   11.0353    4.4154   -1.5700 H   0  0  0  0  0  0  0  0  0  0  0  0
   11.3315    3.9753   -3.2522 H   0  0  0  0  0  0  0  0  0  0  0  0
  1  2  2  0  0  0  0
  1  6  1  0  0  0  0
  2  3  1  0  0  0  0
  3 18  1  0  0  0  0
  3  4  2  0  0  0  0
  4  9  1  0  0  0  0
  5  4  1  0  0  0  0
  5 10  1  0  0  0  0
  6  5  2  0  0  0  0
  7  1  1  0  0  0  0
  8  2  1  0  0  0  0
 11  6  1  0  0  0  0
 11 13  2  0  0  0  0
 12 11  2  0  0  0  0
 15 14  3  0  0  0  0
 16 17  2  0  0  0  0
 18 16  1  0  0  0  0
 19 16  1  0  0  0  0
 19 20  1  0  0  0  0
 19 21  1  0  0  0  0
 22 19  1  0  0  0  0
M  END
