Coordinates from ORCA-job 4-NO2-Ph-N2-OAc-B3LYPG-6-31G_dp-MTMO-d009-169-n750
 OpenBabel09051907553D

 22 21  0  0  0  0  0  0  0  0999 V2000
   15.0233    8.1414   -3.2836 C   0  0  0  0  0  0  0  0  0  0  0  0
   13.9225    7.3140   -3.1175 C   0  0  0  0  0  0  0  0  0  0  0  0
   14.0730    6.0513   -2.5269 C   0  0  0  0  0  0  0  0  0  0  0  0
   15.3283    5.6037   -2.0936 C   0  0  0  0  0  0  0  0  0  0  0  0
   16.4314    6.4381   -2.2627 C   0  0  0  0  0  0  0  0  0  0  0  0
   16.2707    7.6893   -2.8518 C   0  0  0  0  0  0  0  0  0  0  0  0
   14.9365    9.1204   -3.7365 H   0  0  0  0  0  0  0  0  0  0  0  0
   12.9349    7.6252   -3.4388 H   0  0  0  0  0  0  0  0  0  0  0  0
   15.4372    4.6291   -1.6450 H   0  0  0  0  0  0  0  0  0  0  0  0
   17.4172    6.1271   -1.9407 H   0  0  0  0  0  0  0  0  0  0  0  0
   17.4423    8.5563   -3.0237 N   0  0  0  0  0  0  0  0  0  0  0  0
   17.2651    9.6574   -3.5458 O   0  0  0  0  0  0  0  0  0  0  0  0
   18.5306    8.1315   -2.6363 O   0  0  0  0  0  0  0  0  0  0  0  0
   11.1175    7.8086    0.2578 N   0  0  0  0  0  0  0  0  0  0  0  0
   10.9739    6.7320    0.0542 N   0  0  0  0  0  0  0  0  0  0  0  0
   12.7583    4.0421   -2.0259 C   0  0  0  0  0  0  0  0  0  0  0  0
   13.6775    3.3263   -1.7161 O   0  0  0  0  0  0  0  0  0  0  0  0
   12.8805    5.3566   -2.4149 O   0  0  0  0  0  0  0  0  0  0  0  0
   11.3027    3.6547   -2.0512 C   0  0  0  0  0  0  0  0  0  0  0  0
   11.2064    2.6063   -1.7712 H   0  0  0  0  0  0  0  0  0  0  0  0
   10.7406    4.2830   -1.3546 H   0  0  0  0  0  0  0  0  0  0  0  0
   10.8868    3.8169   -3.0499 H   0  0  0  0  0  0  0  0  0  0  0  0
  1  2  2  0  0  0  0
  1  6  1  0  0  0  0
  2  3  1  0  0  0  0
  3 18  1  0  0  0  0
  3  4  2  0  0  0  0
  4  9  1  0  0  0  0
  5  4  1  0  0  0  0
  5 10  1  0  0  0  0
  6  5  2  0  0  0  0
  7  1  1  0  0  0  0
  8  2  1  0  0  0  0
 11  6  1  0  0  0  0
 11 13  2  0  0  0  0
 12 11  2  0  0  0  0
 15 14  3  0  0  0  0
 16 17  2  0  0  0  0
 18 16  1  0  0  0  0
 19 16  1  0  0  0  0
 19 20  1  0  0  0  0
 19 21  1  0  0  0  0
 22 19  1  0  0  0  0
M  END
