Coordinates from ORCA-job 4-NO2-Ph-N2-OAc-B3LYPG-6-31G_dp-MTMO-d009-169-n750
 OpenBabel09051907563D

 22 21  0  0  0  0  0  0  0  0999 V2000
   15.5002    8.5185   -3.3879 C   0  0  0  0  0  0  0  0  0  0  0  0
   14.4231    7.6536   -3.2617 C   0  0  0  0  0  0  0  0  0  0  0  0
   14.5934    6.4010   -2.6551 C   0  0  0  0  0  0  0  0  0  0  0  0
   15.8444    6.0004   -2.1673 C   0  0  0  0  0  0  0  0  0  0  0  0
   16.9234    6.8727   -2.2964 C   0  0  0  0  0  0  0  0  0  0  0  0
   16.7434    8.1138   -2.9009 C   0  0  0  0  0  0  0  0  0  0  0  0
   15.3978    9.4911   -3.8514 H   0  0  0  0  0  0  0  0  0  0  0  0
   13.4394    7.9274   -3.6259 H   0  0  0  0  0  0  0  0  0  0  0  0
   15.9683    5.0335   -1.7061 H   0  0  0  0  0  0  0  0  0  0  0  0
   17.9053    6.5989   -1.9315 H   0  0  0  0  0  0  0  0  0  0  0  0
   17.8898    9.0210   -3.0300 N   0  0  0  0  0  0  0  0  0  0  0  0
   17.6956   10.1128   -3.5653 O   0  0  0  0  0  0  0  0  0  0  0  0
   18.9758    8.6366   -2.5965 O   0  0  0  0  0  0  0  0  0  0  0  0
    5.4509    3.4635    1.4090 N   0  0  0  0  0  0  0  0  0  0  0  0
    6.3876    3.6994    0.8718 N   0  0  0  0  0  0  0  0  0  0  0  0
   13.3174    4.3693   -2.1427 C   0  0  0  0  0  0  0  0  0  0  0  0
   14.2362    3.6983   -1.7435 O   0  0  0  0  0  0  0  0  0  0  0  0
   13.4225    5.6639   -2.5925 O   0  0  0  0  0  0  0  0  0  0  0  0
   11.8774    3.9331   -2.2318 C   0  0  0  0  0  0  0  0  0  0  0  0
   11.7926    2.9044   -1.8839 H   0  0  0  0  0  0  0  0  0  0  0  0
   11.2487    4.5874   -1.6210 H   0  0  0  0  0  0  0  0  0  0  0  0
   11.5241    4.0107   -3.2641 H   0  0  0  0  0  0  0  0  0  0  0  0
  1  2  2  0  0  0  0
  1  6  1  0  0  0  0
  2  3  1  0  0  0  0
  3 18  1  0  0  0  0
  3  4  2  0  0  0  0
  4  9  1  0  0  0  0
  5  4  1  0  0  0  0
  5 10  1  0  0  0  0
  6  5  2  0  0  0  0
  7  1  1  0  0  0  0
  8  2  1  0  0  0  0
 11  6  1  0  0  0  0
 11 13  2  0  0  0  0
 12 11  2  0  0  0  0
 15 14  3  0  0  0  0
 16 17  2  0  0  0  0
 18 16  1  0  0  0  0
 19 16  1  0  0  0  0
 19 20  1  0  0  0  0
 19 21  1  0  0  0  0
 22 19  1  0  0  0  0
M  END
