Coordinates from ORCA-job 4-NO2-Ph-N2-OAc-B3LYPG-6-31G_dp-MTMO-d009-169-n750
 OpenBabel09051907563D

 22 21  0  0  0  0  0  0  0  0999 V2000
   15.4920    8.5193   -3.3865 C   0  0  0  0  0  0  0  0  0  0  0  0
   14.4466    7.6089   -3.3384 C   0  0  0  0  0  0  0  0  0  0  0  0
   14.6302    6.3573   -2.7336 C   0  0  0  0  0  0  0  0  0  0  0  0
   15.8630    6.0033   -2.1693 C   0  0  0  0  0  0  0  0  0  0  0  0
   16.9103    6.9213   -2.2203 C   0  0  0  0  0  0  0  0  0  0  0  0
   16.7173    8.1609   -2.8238 C   0  0  0  0  0  0  0  0  0  0  0  0
   15.3788    9.4923   -3.8468 H   0  0  0  0  0  0  0  0  0  0  0  0
   13.4777    7.8456   -3.7634 H   0  0  0  0  0  0  0  0  0  0  0  0
   15.9970    5.0378   -1.7079 H   0  0  0  0  0  0  0  0  0  0  0  0
   17.8776    6.6841   -1.7957 H   0  0  0  0  0  0  0  0  0  0  0  0
   17.8305    9.1161   -2.8710 N   0  0  0  0  0  0  0  0  0  0  0  0
   17.6247   10.2055   -3.4070 O   0  0  0  0  0  0  0  0  0  0  0  0
   18.9021    8.7718   -2.3729 O   0  0  0  0  0  0  0  0  0  0  0  0
    5.1859    3.7500    1.9386 N   0  0  0  0  0  0  0  0  0  0  0  0
    6.0935    3.9533    1.3414 N   0  0  0  0  0  0  0  0  0  0  0  0
   13.3983    4.2827   -2.2865 C   0  0  0  0  0  0  0  0  0  0  0  0
   14.3001    3.6649   -1.7774 O   0  0  0  0  0  0  0  0  0  0  0  0
   13.4921    5.5686   -2.7626 O   0  0  0  0  0  0  0  0  0  0  0  0
   11.9948    3.7786   -2.5052 C   0  0  0  0  0  0  0  0  0  0  0  0
   11.9190    2.7575   -2.1341 H   0  0  0  0  0  0  0  0  0  0  0  0
   11.2800    4.4205   -1.9825 H   0  0  0  0  0  0  0  0  0  0  0  0
   11.7456    3.8108   -3.5698 H   0  0  0  0  0  0  0  0  0  0  0  0
  1  2  2  0  0  0  0
  1  6  1  0  0  0  0
  2  3  1  0  0  0  0
  3  4  2  0  0  0  0
  4  9  1  0  0  0  0
  5  4  1  0  0  0  0
  5 10  1  0  0  0  0
  6  5  2  0  0  0  0
  7  1  1  0  0  0  0
  8  2  1  0  0  0  0
 11  6  1  0  0  0  0
 11 13  2  0  0  0  0
 12 11  2  0  0  0  0
 15 14  3  0  0  0  0
 16 17  2  0  0  0  0
 18  3  1  0  0  0  0
 18 16  1  0  0  0  0
 19 16  1  0  0  0  0
 19 20  1  0  0  0  0
 19 21  1  0  0  0  0
 22 19  1  0  0  0  0
M  END
