Coordinates from ORCA-job 4-NO2-Ph-N2-OAc-B3LYPG-6-31G_dp-MTMO-d009-169-n750
 OpenBabel09051907553D

 22 21  0  0  0  0  0  0  0  0999 V2000
   15.0052    8.1479   -3.2518 C   0  0  0  0  0  0  0  0  0  0  0  0
   13.9075    7.3157   -3.0894 C   0  0  0  0  0  0  0  0  0  0  0  0
   14.0658    6.0436   -2.5213 C   0  0  0  0  0  0  0  0  0  0  0  0
   15.3259    5.5913   -2.1074 C   0  0  0  0  0  0  0  0  0  0  0  0
   16.4258    6.4308   -2.2726 C   0  0  0  0  0  0  0  0  0  0  0  0
   16.2573    7.6913   -2.8391 C   0  0  0  0  0  0  0  0  0  0  0  0
   14.9122    9.1342   -3.6875 H   0  0  0  0  0  0  0  0  0  0  0  0
   12.9164    7.6303   -3.3964 H   0  0  0  0  0  0  0  0  0  0  0  0
   15.4405    4.6100   -1.6751 H   0  0  0  0  0  0  0  0  0  0  0  0
   17.4152    6.1164   -1.9650 H   0  0  0  0  0  0  0  0  0  0  0  0
   17.4256    8.5636   -3.0071 N   0  0  0  0  0  0  0  0  0  0  0  0
   17.2417    9.6724   -3.5102 O   0  0  0  0  0  0  0  0  0  0  0  0
   18.5180    8.1352   -2.6355 O   0  0  0  0  0  0  0  0  0  0  0  0
   11.2360    7.8533    0.1232 N   0  0  0  0  0  0  0  0  0  0  0  0
   11.0325    6.7747   -0.0044 N   0  0  0  0  0  0  0  0  0  0  0  0
   12.7548    4.0320   -2.0161 C   0  0  0  0  0  0  0  0  0  0  0  0
   13.6741    3.3202   -1.6974 O   0  0  0  0  0  0  0  0  0  0  0  0
   12.8758    5.3440   -2.4135 O   0  0  0  0  0  0  0  0  0  0  0  0
   11.3002    3.6413   -2.0454 C   0  0  0  0  0  0  0  0  0  0  0  0
   11.2042    2.5964   -1.7530 H   0  0  0  0  0  0  0  0  0  0  0  0
   10.7320    4.2771   -1.3608 H   0  0  0  0  0  0  0  0  0  0  0  0
   10.8906    3.7898   -3.0489 H   0  0  0  0  0  0  0  0  0  0  0  0
  1  2  2  0  0  0  0
  1  6  1  0  0  0  0
  2  3  1  0  0  0  0
  3 18  1  0  0  0  0
  3  4  2  0  0  0  0
  4  9  1  0  0  0  0
  5  4  1  0  0  0  0
  5 10  1  0  0  0  0
  6  5  2  0  0  0  0
  7  1  1  0  0  0  0
  8  2  1  0  0  0  0
 11  6  1  0  0  0  0
 11 13  2  0  0  0  0
 12 11  2  0  0  0  0
 15 14  3  0  0  0  0
 16 17  2  0  0  0  0
 18 16  1  0  0  0  0
 19 16  1  0  0  0  0
 19 20  1  0  0  0  0
 19 21  1  0  0  0  0
 22 19  1  0  0  0  0
M  END
