Coordinates from ORCA-job 4-NO2-Ph-N2-OAc-B3LYPG-6-31G_dp-MTMO-d009-169-n750
 OpenBabel09051907553D

 22 22  0  0  0  0  0  0  0  0999 V2000
   15.1156    8.5816   -3.0554 C   0  0  0  0  0  0  0  0  0  0  0  0
   13.9316    8.4462   -2.3322 C   0  0  0  0  0  0  0  0  0  0  0  0
   13.7757    7.3151   -1.5438 C   0  0  0  0  0  0  0  0  0  0  0  0
   14.7490    6.3351   -1.3893 C   0  0  0  0  0  0  0  0  0  0  0  0
   15.9364    6.4828   -2.1030 C   0  0  0  0  0  0  0  0  0  0  0  0
   16.0948    7.5981   -2.9257 C   0  0  0  0  0  0  0  0  0  0  0  0
   15.2953    9.4317   -3.7013 H   0  0  0  0  0  0  0  0  0  0  0  0
   13.1508    9.1966   -2.3856 H   0  0  0  0  0  0  0  0  0  0  0  0
   14.5773    5.4826   -0.7407 H   0  0  0  0  0  0  0  0  0  0  0  0
   16.7345    5.7539   -2.0336 H   0  0  0  0  0  0  0  0  0  0  0  0
   17.3520    7.7482   -3.6814 N   0  0  0  0  0  0  0  0  0  0  0  0
   17.4677    8.7403   -4.3984 O   0  0  0  0  0  0  0  0  0  0  0  0
   18.2036    6.8721   -3.5463 O   0  0  0  0  0  0  0  0  0  0  0  0
   12.4611    7.2419   -0.6260 N   0  0  0  0  0  0  0  0  0  0  0  0
   11.6644    6.3514   -0.6992 N   0  0  0  0  0  0  0  0  0  0  0  0
   12.1645    4.1241   -1.4965 C   0  0  0  0  0  0  0  0  0  0  0  0
   12.5745    3.8619   -0.3864 O   0  0  0  0  0  0  0  0  0  0  0  0
   11.8934    5.3833   -1.9159 O   0  0  0  0  0  0  0  0  0  0  0  0
   11.9103    3.1231   -2.6015 C   0  0  0  0  0  0  0  0  0  0  0  0
   10.8311    2.9845   -2.7196 H   0  0  0  0  0  0  0  0  0  0  0  0
   12.3023    3.4857   -3.5549 H   0  0  0  0  0  0  0  0  0  0  0  0
   12.3713    2.1715   -2.3377 H   0  0  0  0  0  0  0  0  0  0  0  0
  1  6  2  0  0  0  0
  1  2  1  0  0  0  0
  2  3  2  0  0  0  0
  3  4  1  0  0  0  0
  3 14  1  0  0  0  0
  4  9  1  0  0  0  0
  5 10  1  0  0  0  0
  5  4  2  0  0  0  0
  6  5  1  0  0  0  0
  7  1  1  0  0  0  0
  8  2  1  0  0  0  0
 11 13  2  0  0  0  0
 11  6  1  0  0  0  0
 12 11  2  0  0  0  0
 15 14  1  0  0  0  0
 16 17  2  0  0  0  0
 18 16  1  0  0  0  0
 18 15  1  0  0  0  0
 19 22  1  0  0  0  0
 19 16  1  0  0  0  0
 20 19  1  0  0  0  0
 21 19  1  0  0  0  0
M  RAD  2  14   2  15   2
M  END
