Coordinates from ORCA-job 4-NO2-Ph-N2-OAc-B3LYPG-6-31G_dp-MTMO-d009-169-n750
 OpenBabel09051907563D

 22 21  0  0  0  0  0  0  0  0999 V2000
   15.8582    8.6287   -3.5490 C   0  0  0  0  0  0  0  0  0  0  0  0
   14.8149    7.7162   -3.4945 C   0  0  0  0  0  0  0  0  0  0  0  0
   15.0067    6.4624   -2.8969 C   0  0  0  0  0  0  0  0  0  0  0  0
   16.2455    6.1083   -2.3462 C   0  0  0  0  0  0  0  0  0  0  0  0
   17.2906    7.0283   -2.4034 C   0  0  0  0  0  0  0  0  0  0  0  0
   17.0896    8.2701   -2.9997 C   0  0  0  0  0  0  0  0  0  0  0  0
   15.7387    9.6034   -4.0040 H   0  0  0  0  0  0  0  0  0  0  0  0
   13.8414    7.9531   -3.9088 H   0  0  0  0  0  0  0  0  0  0  0  0
   16.3862    5.1407   -1.8913 H   0  0  0  0  0  0  0  0  0  0  0  0
   18.2624    6.7912   -1.9891 H   0  0  0  0  0  0  0  0  0  0  0  0
   18.2005    9.2276   -3.0535 N   0  0  0  0  0  0  0  0  0  0  0  0
   17.9876   10.3189   -3.5827 O   0  0  0  0  0  0  0  0  0  0  0  0
   19.2775    8.8830   -2.5674 O   0  0  0  0  0  0  0  0  0  0  0  0
    1.3857    2.7011    3.6034 N   0  0  0  0  0  0  0  0  0  0  0  0
    2.3280    2.9276    3.0720 N   0  0  0  0  0  0  0  0  0  0  0  0
   13.7896    4.3756   -2.4674 C   0  0  0  0  0  0  0  0  0  0  0  0
   14.7060    3.7470   -1.9995 O   0  0  0  0  0  0  0  0  0  0  0  0
   13.8687    5.6731   -2.9139 O   0  0  0  0  0  0  0  0  0  0  0  0
   12.3808    3.8748   -2.6584 C   0  0  0  0  0  0  0  0  0  0  0  0
   12.3168    2.8446   -2.3107 H   0  0  0  0  0  0  0  0  0  0  0  0
   11.6810    4.5024   -2.0994 H   0  0  0  0  0  0  0  0  0  0  0  0
   12.1010    3.9331   -3.7142 H   0  0  0  0  0  0  0  0  0  0  0  0
  1  2  2  0  0  0  0
  1  6  1  0  0  0  0
  2  3  1  0  0  0  0
  3  4  2  0  0  0  0
  4  9  1  0  0  0  0
  5  4  1  0  0  0  0
  5 10  1  0  0  0  0
  6  5  2  0  0  0  0
  7  1  1  0  0  0  0
  8  2  1  0  0  0  0
 11  6  1  0  0  0  0
 11 13  2  0  0  0  0
 12 11  2  0  0  0  0
 15 14  3  0  0  0  0
 16 17  2  0  0  0  0
 18  3  1  0  0  0  0
 18 16  1  0  0  0  0
 19 16  1  0  0  0  0
 19 20  1  0  0  0  0
 19 21  1  0  0  0  0
 22 19  1  0  0  0  0
M  END
