Coordinates from ORCA-job 4-NO2-Ph-N2-OAc-B3LYPG-6-31G_dp-MTMO-d009-169-n750
 OpenBabel09051907563D

 22 21  0  0  0  0  0  0  0  0999 V2000
   15.7466    8.5960   -3.4990 C   0  0  0  0  0  0  0  0  0  0  0  0
   14.7021    7.6850   -3.4438 C   0  0  0  0  0  0  0  0  0  0  0  0
   14.8919    6.4316   -2.8447 C   0  0  0  0  0  0  0  0  0  0  0  0
   16.1299    6.0765   -2.2930 C   0  0  0  0  0  0  0  0  0  0  0  0
   17.1763    6.9950   -2.3509 C   0  0  0  0  0  0  0  0  0  0  0  0
   16.9773    8.2364   -2.9488 C   0  0  0  0  0  0  0  0  0  0  0  0
   15.6287    9.5703   -3.9552 H   0  0  0  0  0  0  0  0  0  0  0  0
   13.7291    7.9227   -3.8589 H   0  0  0  0  0  0  0  0  0  0  0  0
   16.2690    5.1092   -1.8368 H   0  0  0  0  0  0  0  0  0  0  0  0
   18.1476    6.7571   -1.9358 H   0  0  0  0  0  0  0  0  0  0  0  0
   18.0895    9.1923   -3.0032 N   0  0  0  0  0  0  0  0  0  0  0  0
   17.8783   10.2833   -3.5338 O   0  0  0  0  0  0  0  0  0  0  0  0
   19.1657    8.8469   -2.5161 O   0  0  0  0  0  0  0  0  0  0  0  0
    2.5354    3.0101    3.0772 N   0  0  0  0  0  0  0  0  0  0  0  0
    3.4766    3.2371    2.5441 N   0  0  0  0  0  0  0  0  0  0  0  0
   13.6710    4.3480   -2.4109 C   0  0  0  0  0  0  0  0  0  0  0  0
   14.5855    3.7195   -1.9390 O   0  0  0  0  0  0  0  0  0  0  0  0
   13.7528    5.6438   -2.8615 O   0  0  0  0  0  0  0  0  0  0  0  0
   12.2620    3.8485   -2.6035 C   0  0  0  0  0  0  0  0  0  0  0  0
   12.1955    2.8198   -2.2519 H   0  0  0  0  0  0  0  0  0  0  0  0
   11.5615    4.4793   -2.0489 H   0  0  0  0  0  0  0  0  0  0  0  0
   11.9850    3.9029   -3.6603 H   0  0  0  0  0  0  0  0  0  0  0  0
  1  2  2  0  0  0  0
  1  6  1  0  0  0  0
  2  3  1  0  0  0  0
  3  4  2  0  0  0  0
  4  9  1  0  0  0  0
  5  4  1  0  0  0  0
  5 10  1  0  0  0  0
  6  5  2  0  0  0  0
  7  1  1  0  0  0  0
  8  2  1  0  0  0  0
 11  6  1  0  0  0  0
 11 13  2  0  0  0  0
 12 11  2  0  0  0  0
 15 14  3  0  0  0  0
 16 17  2  0  0  0  0
 18  3  1  0  0  0  0
 18 16  1  0  0  0  0
 19 16  1  0  0  0  0
 19 20  1  0  0  0  0
 19 21  1  0  0  0  0
 22 19  1  0  0  0  0
M  END
