Coordinates from ORCA-job 4-NO2-Ph-N2-OAc-B3LYPG-6-31G_dp-MTMO-d009-169-n750
 OpenBabel09051907563D

 22 21  0  0  0  0  0  0  0  0999 V2000
   15.6294    8.5607   -3.4473 C   0  0  0  0  0  0  0  0  0  0  0  0
   14.5835    7.6512   -3.3929 C   0  0  0  0  0  0  0  0  0  0  0  0
   14.7701    6.3988   -2.7908 C   0  0  0  0  0  0  0  0  0  0  0  0
   16.0063    6.0430   -2.2354 C   0  0  0  0  0  0  0  0  0  0  0  0
   17.0541    6.9600   -2.2925 C   0  0  0  0  0  0  0  0  0  0  0  0
   16.8582    8.2005   -2.8933 C   0  0  0  0  0  0  0  0  0  0  0  0
   15.5140    9.5342   -3.9057 H   0  0  0  0  0  0  0  0  0  0  0  0
   13.6119    7.8894   -3.8109 H   0  0  0  0  0  0  0  0  0  0  0  0
   16.1428    5.0766   -1.7767 H   0  0  0  0  0  0  0  0  0  0  0  0
   18.0241    6.7215   -1.8747 H   0  0  0  0  0  0  0  0  0  0  0  0
   17.9719    9.1547   -2.9470 N   0  0  0  0  0  0  0  0  0  0  0  0
   17.7636   10.2448   -3.4804 O   0  0  0  0  0  0  0  0  0  0  0  0
   19.0466    8.8087   -2.4567 O   0  0  0  0  0  0  0  0  0  0  0  0
    3.7584    3.3376    2.5281 N   0  0  0  0  0  0  0  0  0  0  0  0
    4.6957    3.5666    1.9890 N   0  0  0  0  0  0  0  0  0  0  0  0
   13.5435    4.3196   -2.3509 C   0  0  0  0  0  0  0  0  0  0  0  0
   14.4538    3.6935   -1.8677 O   0  0  0  0  0  0  0  0  0  0  0  0
   13.6303    5.6121   -2.8101 O   0  0  0  0  0  0  0  0  0  0  0  0
   12.1355    3.8203   -2.5505 C   0  0  0  0  0  0  0  0  0  0  0  0
   12.0648    2.7947   -2.1908 H   0  0  0  0  0  0  0  0  0  0  0  0
   11.4312    4.4567   -2.0072 H   0  0  0  0  0  0  0  0  0  0  0  0
   11.8673    3.8661   -3.6100 H   0  0  0  0  0  0  0  0  0  0  0  0
  1  2  2  0  0  0  0
  1  6  1  0  0  0  0
  2  3  1  0  0  0  0
  3  4  2  0  0  0  0
  4  9  1  0  0  0  0
  5  4  1  0  0  0  0
  5 10  1  0  0  0  0
  6  5  2  0  0  0  0
  7  1  1  0  0  0  0
  8  2  1  0  0  0  0
 11  6  1  0  0  0  0
 11 13  2  0  0  0  0
 12 11  2  0  0  0  0
 15 14  3  0  0  0  0
 16 17  2  0  0  0  0
 18  3  1  0  0  0  0
 18 16  1  0  0  0  0
 19 16  1  0  0  0  0
 19 20  1  0  0  0  0
 19 21  1  0  0  0  0
 22 19  1  0  0  0  0
M  END
