Coordinates from ORCA-job 4-NO2-Ph-N2-OAc-B3LYPG-6-31G_dp-MTMO-d009-169-n750
 OpenBabel09051907563D

 22 21  0  0  0  0  0  0  0  0999 V2000
   15.1519    8.3975   -3.2505 C   0  0  0  0  0  0  0  0  0  0  0  0
   14.1207    7.4705   -3.2189 C   0  0  0  0  0  0  0  0  0  0  0  0
   14.3197    6.2152   -2.6266 C   0  0  0  0  0  0  0  0  0  0  0  0
   15.5545    5.8744   -2.0583 C   0  0  0  0  0  0  0  0  0  0  0  0
   16.5876    6.8090   -2.0925 C   0  0  0  0  0  0  0  0  0  0  0  0
   16.3792    8.0522   -2.6836 C   0  0  0  0  0  0  0  0  0  0  0  0
   15.0265    9.3736   -3.7010 H   0  0  0  0  0  0  0  0  0  0  0  0
   13.1509    7.6968   -3.6475 H   0  0  0  0  0  0  0  0  0  0  0  0
   15.7007    4.9059   -1.6070 H   0  0  0  0  0  0  0  0  0  0  0  0
   17.5558    6.5823   -1.6643 H   0  0  0  0  0  0  0  0  0  0  0  0
   17.4773    9.0251   -2.7128 N   0  0  0  0  0  0  0  0  0  0  0  0
   17.2579   10.1172   -3.2380 O   0  0  0  0  0  0  0  0  0  0  0  0
   18.5511    8.6921   -2.2116 O   0  0  0  0  0  0  0  0  0  0  0  0
    8.3902    5.3604    0.8876 N   0  0  0  0  0  0  0  0  0  0  0  0
    9.1446    5.0829    0.1292 N   0  0  0  0  0  0  0  0  0  0  0  0
   13.1187    4.1151   -2.2144 C   0  0  0  0  0  0  0  0  0  0  0  0
   14.0308    3.5037   -1.7158 O   0  0  0  0  0  0  0  0  0  0  0  0
   13.1939    5.4102   -2.6704 O   0  0  0  0  0  0  0  0  0  0  0  0
   11.7209    3.5964   -2.4312 C   0  0  0  0  0  0  0  0  0  0  0  0
   11.6881    2.5395   -2.1686 H   0  0  0  0  0  0  0  0  0  0  0  0
   11.0165    4.1529   -1.8056 H   0  0  0  0  0  0  0  0  0  0  0  0
   11.4197    3.7385   -3.4726 H   0  0  0  0  0  0  0  0  0  0  0  0
  1  2  2  0  0  0  0
  1  6  1  0  0  0  0
  2  3  1  0  0  0  0
  3  4  2  0  0  0  0
  4  9  1  0  0  0  0
  5  4  1  0  0  0  0
  5 10  1  0  0  0  0
  6  5  2  0  0  0  0
  7  1  1  0  0  0  0
  8  2  1  0  0  0  0
 11  6  1  0  0  0  0
 11 13  2  0  0  0  0
 12 11  2  0  0  0  0
 15 14  3  0  0  0  0
 16 17  2  0  0  0  0
 18  3  1  0  0  0  0
 18 16  1  0  0  0  0
 19 16  1  0  0  0  0
 19 20  1  0  0  0  0
 19 21  1  0  0  0  0
 22 19  1  0  0  0  0
M  END
