Coordinates from ORCA-job 4-NO2-Ph-N2-OAc-B3LYPG-6-31G_dp-MTMO-d009-169-n750
 OpenBabel09051907563D

 22 21  0  0  0  0  0  0  0  0999 V2000
   15.3476    8.4536   -3.3418 C   0  0  0  0  0  0  0  0  0  0  0  0
   14.2612    7.6009   -3.2137 C   0  0  0  0  0  0  0  0  0  0  0  0
   14.4136    6.3551   -2.5884 C   0  0  0  0  0  0  0  0  0  0  0  0
   15.6562    5.9494   -2.0835 C   0  0  0  0  0  0  0  0  0  0  0  0
   16.7448    6.8094   -2.2149 C   0  0  0  0  0  0  0  0  0  0  0  0
   16.5824    8.0438   -2.8379 C   0  0  0  0  0  0  0  0  0  0  0  0
   15.2588    9.4207   -3.8194 H   0  0  0  0  0  0  0  0  0  0  0  0
   13.2835    7.8788   -3.5910 H   0  0  0  0  0  0  0  0  0  0  0  0
   15.7661    4.9882   -1.6070 H   0  0  0  0  0  0  0  0  0  0  0  0
   17.7207    6.5312   -1.8374 H   0  0  0  0  0  0  0  0  0  0  0  0
   17.7387    8.9379   -2.9694 N   0  0  0  0  0  0  0  0  0  0  0  0
   17.5597   10.0242   -3.5212 O   0  0  0  0  0  0  0  0  0  0  0  0
   18.8171    8.5491   -2.5213 O   0  0  0  0  0  0  0  0  0  0  0  0
    7.2541    3.9350    0.6627 N   0  0  0  0  0  0  0  0  0  0  0  0
    8.2015    4.1716    0.1451 N   0  0  0  0  0  0  0  0  0  0  0  0
   13.1074    4.3517   -2.0391 C   0  0  0  0  0  0  0  0  0  0  0  0
   14.0096    3.6901   -1.5889 O   0  0  0  0  0  0  0  0  0  0  0  0
   13.2356    5.6287   -2.5316 O   0  0  0  0  0  0  0  0  0  0  0  0
   11.6671    3.9216   -2.1495 C   0  0  0  0  0  0  0  0  0  0  0  0
   11.5831    2.8771   -1.8516 H   0  0  0  0  0  0  0  0  0  0  0  0
   11.0392    4.5397   -1.5005 H   0  0  0  0  0  0  0  0  0  0  0  0
   11.3091    4.0535   -3.1742 H   0  0  0  0  0  0  0  0  0  0  0  0
  1  2  2  0  0  0  0
  1  6  1  0  0  0  0
  2  3  1  0  0  0  0
  3 18  1  0  0  0  0
  3  4  2  0  0  0  0
  4  9  1  0  0  0  0
  5  4  1  0  0  0  0
  5 10  1  0  0  0  0
  6  5  2  0  0  0  0
  7  1  1  0  0  0  0
  8  2  1  0  0  0  0
 11  6  1  0  0  0  0
 11 13  2  0  0  0  0
 12 11  2  0  0  0  0
 15 14  3  0  0  0  0
 16 17  2  0  0  0  0
 18 16  1  0  0  0  0
 19 16  1  0  0  0  0
 19 20  1  0  0  0  0
 19 21  1  0  0  0  0
 22 19  1  0  0  0  0
M  END
