Coordinates from ORCA-job 4-NO2-Ph-N2-OAc-B3LYPG-6-31G_dp-MTMO-d009-169-n750
 OpenBabel09051907563D

 22 21  0  0  0  0  0  0  0  0999 V2000
   15.4728    8.5084   -3.3774 C   0  0  0  0  0  0  0  0  0  0  0  0
   14.3940    7.6461   -3.2487 C   0  0  0  0  0  0  0  0  0  0  0  0
   14.5621    6.3939   -2.6408 C   0  0  0  0  0  0  0  0  0  0  0  0
   15.8128    5.9910   -2.1542 C   0  0  0  0  0  0  0  0  0  0  0  0
   16.8937    6.8606   -2.2858 C   0  0  0  0  0  0  0  0  0  0  0  0
   16.7158    8.1014   -2.8915 C   0  0  0  0  0  0  0  0  0  0  0  0
   15.3721    9.4807   -3.8418 H   0  0  0  0  0  0  0  0  0  0  0  0
   13.4104    7.9219   -3.6120 H   0  0  0  0  0  0  0  0  0  0  0  0
   15.9351    5.0243   -1.6921 H   0  0  0  0  0  0  0  0  0  0  0  0
   17.8754    6.5849   -1.9220 H   0  0  0  0  0  0  0  0  0  0  0  0
   17.8641    9.0058   -3.0232 N   0  0  0  0  0  0  0  0  0  0  0  0
   17.6717   10.0974   -3.5595 O   0  0  0  0  0  0  0  0  0  0  0  0
   18.9497    8.6194   -2.5907 O   0  0  0  0  0  0  0  0  0  0  0  0
    5.7626    3.5392    1.2679 N   0  0  0  0  0  0  0  0  0  0  0  0
    6.6996    3.7781    0.7325 N   0  0  0  0  0  0  0  0  0  0  0  0
   13.2816    4.3664   -2.1228 C   0  0  0  0  0  0  0  0  0  0  0  0
   14.1990    3.6944   -1.7219 O   0  0  0  0  0  0  0  0  0  0  0  0
   13.3896    5.6595   -2.5761 O   0  0  0  0  0  0  0  0  0  0  0  0
   11.8407    3.9332   -2.2105 C   0  0  0  0  0  0  0  0  0  0  0  0
   11.7539    2.9051   -1.8614 H   0  0  0  0  0  0  0  0  0  0  0  0
   11.2137    4.5894   -1.6000 H   0  0  0  0  0  0  0  0  0  0  0  0
   11.4868    4.0104   -3.2427 H   0  0  0  0  0  0  0  0  0  0  0  0
  1  2  2  0  0  0  0
  1  6  1  0  0  0  0
  2  3  1  0  0  0  0
  3 18  1  0  0  0  0
  3  4  2  0  0  0  0
  4  9  1  0  0  0  0
  5  4  1  0  0  0  0
  5 10  1  0  0  0  0
  6  5  2  0  0  0  0
  7  1  1  0  0  0  0
  8  2  1  0  0  0  0
 11  6  1  0  0  0  0
 11 13  2  0  0  0  0
 12 11  2  0  0  0  0
 15 14  3  0  0  0  0
 16 17  2  0  0  0  0
 18 16  1  0  0  0  0
 19 16  1  0  0  0  0
 19 20  1  0  0  0  0
 19 21  1  0  0  0  0
 22 19  1  0  0  0  0
M  END
