Coordinates from ORCA-job 4-NO2-Ph-N2-OAc-B3LYPG-6-31G_dp-MTMO-d009-169-n750
 OpenBabel09051907563D

 22 21  0  0  0  0  0  0  0  0999 V2000
   15.8877    8.6374   -3.5625 C   0  0  0  0  0  0  0  0  0  0  0  0
   14.8453    7.7239   -3.5091 C   0  0  0  0  0  0  0  0  0  0  0  0
   15.0376    6.4701   -2.9117 C   0  0  0  0  0  0  0  0  0  0  0  0
   16.2763    6.1170   -2.3599 C   0  0  0  0  0  0  0  0  0  0  0  0
   17.3206    7.0379   -2.4160 C   0  0  0  0  0  0  0  0  0  0  0  0
   17.1190    8.2797   -3.0122 C   0  0  0  0  0  0  0  0  0  0  0  0
   15.7679    9.6121   -4.0173 H   0  0  0  0  0  0  0  0  0  0  0  0
   13.8719    7.9601   -3.9242 H   0  0  0  0  0  0  0  0  0  0  0  0
   16.4174    5.1493   -1.9052 H   0  0  0  0  0  0  0  0  0  0  0  0
   18.2922    6.8016   -2.0009 H   0  0  0  0  0  0  0  0  0  0  0  0
   18.2291    9.2382   -3.0647 N   0  0  0  0  0  0  0  0  0  0  0  0
   18.0157   10.3295   -3.5939 O   0  0  0  0  0  0  0  0  0  0  0  0
   19.3059    8.8945   -2.5777 O   0  0  0  0  0  0  0  0  0  0  0  0
    1.0776    2.6216    3.7478 N   0  0  0  0  0  0  0  0  0  0  0  0
    2.0202    2.8463    3.2161 N   0  0  0  0  0  0  0  0  0  0  0  0
   13.8220    4.3822   -2.4840 C   0  0  0  0  0  0  0  0  0  0  0  0
   14.7387    3.7540   -2.0159 O   0  0  0  0  0  0  0  0  0  0  0  0
   13.9003    5.6799   -2.9298 O   0  0  0  0  0  0  0  0  0  0  0  0
   12.4138    3.8803   -2.6760 C   0  0  0  0  0  0  0  0  0  0  0  0
   12.3508    2.8494   -2.3301 H   0  0  0  0  0  0  0  0  0  0  0  0
   11.7133    4.5061   -2.1158 H   0  0  0  0  0  0  0  0  0  0  0  0
   12.1339    3.9402   -3.7317 H   0  0  0  0  0  0  0  0  0  0  0  0
  1  2  2  0  0  0  0
  1  6  1  0  0  0  0
  2  3  1  0  0  0  0
  3  4  2  0  0  0  0
  4  9  1  0  0  0  0
  5  4  1  0  0  0  0
  5 10  1  0  0  0  0
  6  5  2  0  0  0  0
  7  1  1  0  0  0  0
  8  2  1  0  0  0  0
 11  6  1  0  0  0  0
 11 13  2  0  0  0  0
 12 11  2  0  0  0  0
 15 14  3  0  0  0  0
 16 17  2  0  0  0  0
 18  3  1  0  0  0  0
 18 16  1  0  0  0  0
 19 16  1  0  0  0  0
 19 20  1  0  0  0  0
 19 21  1  0  0  0  0
 22 19  1  0  0  0  0
M  END
