Coordinates from ORCA-job 4-NO2-Ph-N2-OAc-B3LYPG-6-31G_dp-MTMO-d009-169-n750
 OpenBabel09051907563D

 22 21  0  0  0  0  0  0  0  0999 V2000
   15.4139    8.4840   -3.3581 C   0  0  0  0  0  0  0  0  0  0  0  0
   14.3299    7.6291   -3.2248 C   0  0  0  0  0  0  0  0  0  0  0  0
   14.4905    6.3786   -2.6113 C   0  0  0  0  0  0  0  0  0  0  0  0
   15.7390    5.9702   -2.1235 C   0  0  0  0  0  0  0  0  0  0  0  0
   16.8251    6.8325   -2.2597 C   0  0  0  0  0  0  0  0  0  0  0  0
   16.6546    8.0717   -2.8709 C   0  0  0  0  0  0  0  0  0  0  0  0
   15.3189    9.4548   -3.8269 H   0  0  0  0  0  0  0  0  0  0  0  0
   13.3478    7.9091   -3.5890 H   0  0  0  0  0  0  0  0  0  0  0  0
   15.8555    5.0051   -1.6566 H   0  0  0  0  0  0  0  0  0  0  0  0
   17.8054    6.5524   -1.8951 H   0  0  0  0  0  0  0  0  0  0  0  0
   17.8084    8.9683   -3.0075 N   0  0  0  0  0  0  0  0  0  0  0  0
   17.6224   10.0586   -3.5488 O   0  0  0  0  0  0  0  0  0  0  0  0
   18.8919    8.5773   -2.5738 O   0  0  0  0  0  0  0  0  0  0  0  0
    6.4776    3.6912    0.9392 N   0  0  0  0  0  0  0  0  0  0  0  0
    7.4218    3.9484    0.4254 N   0  0  0  0  0  0  0  0  0  0  0  0
   13.1953    4.3654   -2.0731 C   0  0  0  0  0  0  0  0  0  0  0  0
   14.1062    3.6943   -1.6562 O   0  0  0  0  0  0  0  0  0  0  0  0
   13.3138    5.6513   -2.5444 O   0  0  0  0  0  0  0  0  0  0  0  0
   11.7523    3.9395   -2.1623 C   0  0  0  0  0  0  0  0  0  0  0  0
   11.6616    2.9089   -1.8216 H   0  0  0  0  0  0  0  0  0  0  0  0
   11.1298    4.5921   -1.5431 H   0  0  0  0  0  0  0  0  0  0  0  0
   11.3956    4.0284   -3.1924 H   0  0  0  0  0  0  0  0  0  0  0  0
  1  2  2  0  0  0  0
  1  6  1  0  0  0  0
  2  3  1  0  0  0  0
  3 18  1  0  0  0  0
  3  4  2  0  0  0  0
  4  9  1  0  0  0  0
  5  4  1  0  0  0  0
  5 10  1  0  0  0  0
  6  5  2  0  0  0  0
  7  1  1  0  0  0  0
  8  2  1  0  0  0  0
 11  6  1  0  0  0  0
 11 13  2  0  0  0  0
 12 11  2  0  0  0  0
 15 14  3  0  0  0  0
 16 17  2  0  0  0  0
 18 16  1  0  0  0  0
 19 16  1  0  0  0  0
 19 20  1  0  0  0  0
 19 21  1  0  0  0  0
 22 19  1  0  0  0  0
M  END
