Coordinates from ORCA-job 4-NO2-Ph-N2-OAc-B3LYPG-6-31G_dp-MTMO-d009-169-n750
 OpenBabel09051907563D

 22 21  0  0  0  0  0  0  0  0999 V2000
   15.8084    8.6146   -3.5264 C   0  0  0  0  0  0  0  0  0  0  0  0
   14.7655    7.7017   -3.4731 C   0  0  0  0  0  0  0  0  0  0  0  0
   14.9571    6.4480   -2.8753 C   0  0  0  0  0  0  0  0  0  0  0  0
   16.1954    6.0944   -2.3230 C   0  0  0  0  0  0  0  0  0  0  0  0
   17.2402    7.0150   -2.3790 C   0  0  0  0  0  0  0  0  0  0  0  0
   17.0393    8.2567   -2.9756 C   0  0  0  0  0  0  0  0  0  0  0  0
   15.6891    9.5892   -3.9816 H   0  0  0  0  0  0  0  0  0  0  0  0
   13.7924    7.9381   -3.8887 H   0  0  0  0  0  0  0  0  0  0  0  0
   16.3359    5.1269   -1.8679 H   0  0  0  0  0  0  0  0  0  0  0  0
   18.2115    6.7783   -1.9635 H   0  0  0  0  0  0  0  0  0  0  0  0
   18.1498    9.2147   -3.0280 N   0  0  0  0  0  0  0  0  0  0  0  0
   17.9371   10.3059   -3.5575 O   0  0  0  0  0  0  0  0  0  0  0  0
   19.2263    8.8706   -2.5404 O   0  0  0  0  0  0  0  0  0  0  0  0
    1.8839    2.8427    3.3808 N   0  0  0  0  0  0  0  0  0  0  0  0
    2.8254    3.0685    2.8477 N   0  0  0  0  0  0  0  0  0  0  0  0
   13.7401    4.3612   -2.4460 C   0  0  0  0  0  0  0  0  0  0  0  0
   14.6558    3.7334   -1.9756 O   0  0  0  0  0  0  0  0  0  0  0  0
   13.8195    5.6581   -2.8938 O   0  0  0  0  0  0  0  0  0  0  0  0
   12.3319    3.8596   -2.6393 C   0  0  0  0  0  0  0  0  0  0  0  0
   12.2676    2.8297   -2.2906 H   0  0  0  0  0  0  0  0  0  0  0  0
   11.6306    4.4874   -2.0823 H   0  0  0  0  0  0  0  0  0  0  0  0
   12.0542    3.9167   -3.6957 H   0  0  0  0  0  0  0  0  0  0  0  0
  1  2  2  0  0  0  0
  1  6  1  0  0  0  0
  2  3  1  0  0  0  0
  3  4  2  0  0  0  0
  4  9  1  0  0  0  0
  5  4  1  0  0  0  0
  5 10  1  0  0  0  0
  6  5  2  0  0  0  0
  7  1  1  0  0  0  0
  8  2  1  0  0  0  0
 11  6  1  0  0  0  0
 11 13  2  0  0  0  0
 12 11  2  0  0  0  0
 15 14  3  0  0  0  0
 16 17  2  0  0  0  0
 18  3  1  0  0  0  0
 18 16  1  0  0  0  0
 19 16  1  0  0  0  0
 19 20  1  0  0  0  0
 19 21  1  0  0  0  0
 22 19  1  0  0  0  0
M  END
