Coordinates from ORCA-job 4-NO2-Ph-N2-OAc-B3LYPG-6-31G_dp-MTMO-d009-169-n750
 OpenBabel09051907553D

 22 21  0  0  0  0  0  0  0  0999 V2000
   15.0255    8.1406   -3.2868 C   0  0  0  0  0  0  0  0  0  0  0  0
   13.9244    7.3137   -3.1204 C   0  0  0  0  0  0  0  0  0  0  0  0
   14.0742    6.0518   -2.5278 C   0  0  0  0  0  0  0  0  0  0  0  0
   15.3290    5.6047   -2.0928 C   0  0  0  0  0  0  0  0  0  0  0  0
   16.4324    6.4386   -2.2623 C   0  0  0  0  0  0  0  0  0  0  0  0
   16.2724    7.6890   -2.8534 C   0  0  0  0  0  0  0  0  0  0  0  0
   14.9392    9.1191   -3.7411 H   0  0  0  0  0  0  0  0  0  0  0  0
   12.9371    7.6247   -3.4429 H   0  0  0  0  0  0  0  0  0  0  0  0
   15.4374    4.6307   -1.6429 H   0  0  0  0  0  0  0  0  0  0  0  0
   17.4179    6.1279   -1.9390 H   0  0  0  0  0  0  0  0  0  0  0  0
   17.4444    8.5555   -3.0256 N   0  0  0  0  0  0  0  0  0  0  0  0
   17.2678    9.6559   -3.5493 O   0  0  0  0  0  0  0  0  0  0  0  0
   18.5322    8.1310   -2.6368 O   0  0  0  0  0  0  0  0  0  0  0  0
   11.1003    7.8048    0.2741 N   0  0  0  0  0  0  0  0  0  0  0  0
   10.9658    6.7288    0.0608 N   0  0  0  0  0  0  0  0  0  0  0  0
   12.7589    4.0430   -2.0270 C   0  0  0  0  0  0  0  0  0  0  0  0
   13.6782    3.3269   -1.7179 O   0  0  0  0  0  0  0  0  0  0  0  0
   12.8814    5.3577   -2.4154 O   0  0  0  0  0  0  0  0  0  0  0  0
   11.3033    3.6561   -2.0516 C   0  0  0  0  0  0  0  0  0  0  0  0
   11.2068    2.6075   -1.7725 H   0  0  0  0  0  0  0  0  0  0  0  0
   10.7418    4.2839   -1.3542 H   0  0  0  0  0  0  0  0  0  0  0  0
   10.8868    3.8194   -3.0500 H   0  0  0  0  0  0  0  0  0  0  0  0
  1  2  2  0  0  0  0
  1  6  1  0  0  0  0
  2  3  1  0  0  0  0
  3 18  1  0  0  0  0
  3  4  2  0  0  0  0
  4  9  1  0  0  0  0
  5  4  1  0  0  0  0
  5 10  1  0  0  0  0
  6  5  2  0  0  0  0
  7  1  1  0  0  0  0
  8  2  1  0  0  0  0
 11  6  1  0  0  0  0
 11 13  2  0  0  0  0
 12 11  2  0  0  0  0
 15 14  3  0  0  0  0
 16 17  2  0  0  0  0
 18 16  1  0  0  0  0
 19 16  1  0  0  0  0
 19 20  1  0  0  0  0
 19 21  1  0  0  0  0
 22 19  1  0  0  0  0
M  END
