Coordinates from ORCA-job 4-NO2-Ph-N2-OAc-B3LYPG-6-31G_dp-MTMO-d009-169-n750
 OpenBabel09051907563D

 22 21  0  0  0  0  0  0  0  0999 V2000
   15.7788    8.6065   -3.5127 C   0  0  0  0  0  0  0  0  0  0  0  0
   14.7363    7.6931   -3.4604 C   0  0  0  0  0  0  0  0  0  0  0  0
   14.9281    6.4393   -2.8626 C   0  0  0  0  0  0  0  0  0  0  0  0
   16.1662    6.0863   -2.3095 C   0  0  0  0  0  0  0  0  0  0  0  0
   17.2105    7.0073   -2.3646 C   0  0  0  0  0  0  0  0  0  0  0  0
   17.0095    8.2491   -2.9611 C   0  0  0  0  0  0  0  0  0  0  0  0
   15.6594    9.5812   -3.9678 H   0  0  0  0  0  0  0  0  0  0  0  0
   13.7634    7.9291   -3.8766 H   0  0  0  0  0  0  0  0  0  0  0  0
   16.3068    5.1188   -1.8544 H   0  0  0  0  0  0  0  0  0  0  0  0
   18.1817    6.7711   -1.9484 H   0  0  0  0  0  0  0  0  0  0  0  0
   18.1196    9.2076   -3.0125 N   0  0  0  0  0  0  0  0  0  0  0  0
   17.9067   10.2987   -3.5421 O   0  0  0  0  0  0  0  0  0  0  0  0
   19.1959    8.8640   -2.5243 O   0  0  0  0  0  0  0  0  0  0  0  0
    2.1758    2.9282    3.2513 N   0  0  0  0  0  0  0  0  0  0  0  0
    3.1169    3.1518    2.7166 N   0  0  0  0  0  0  0  0  0  0  0  0
   13.7114    4.3522   -2.4337 C   0  0  0  0  0  0  0  0  0  0  0  0
   14.6267    3.7252   -1.9614 O   0  0  0  0  0  0  0  0  0  0  0  0
   13.7910    5.6489   -2.8824 O   0  0  0  0  0  0  0  0  0  0  0  0
   12.3039    3.8497   -2.6290 C   0  0  0  0  0  0  0  0  0  0  0  0
   12.2398    2.8198   -2.2805 H   0  0  0  0  0  0  0  0  0  0  0  0
   11.6014    4.4770   -2.0730 H   0  0  0  0  0  0  0  0  0  0  0  0
   12.0275    3.9067   -3.6858 H   0  0  0  0  0  0  0  0  0  0  0  0
  1  2  2  0  0  0  0
  1  6  1  0  0  0  0
  2  3  1  0  0  0  0
  3  4  2  0  0  0  0
  4  9  1  0  0  0  0
  5  4  1  0  0  0  0
  5 10  1  0  0  0  0
  6  5  2  0  0  0  0
  7  1  1  0  0  0  0
  8  2  1  0  0  0  0
 11  6  1  0  0  0  0
 11 13  2  0  0  0  0
 12 11  2  0  0  0  0
 15 14  3  0  0  0  0
 16 17  2  0  0  0  0
 18  3  1  0  0  0  0
 18 16  1  0  0  0  0
 19 16  1  0  0  0  0
 19 20  1  0  0  0  0
 19 21  1  0  0  0  0
 22 19  1  0  0  0  0
M  END
