Coordinates from ORCA-job 4-NO2-Ph-N2-OAc-B3LYPG-6-31G_dp-MTMO-d009-169-n750
 OpenBabel09051907553D

 22 21  0  0  0  0  0  0  0  0999 V2000
   14.9670    8.1293   -3.3217 C   0  0  0  0  0  0  0  0  0  0  0  0
   13.8736    7.2867   -3.1861 C   0  0  0  0  0  0  0  0  0  0  0  0
   14.0163    6.0440   -2.5523 C   0  0  0  0  0  0  0  0  0  0  0  0
   15.2562    5.6315   -2.0463 C   0  0  0  0  0  0  0  0  0  0  0  0
   16.3519    6.4813   -2.1853 C   0  0  0  0  0  0  0  0  0  0  0  0
   16.1990    7.7125   -2.8168 C   0  0  0  0  0  0  0  0  0  0  0  0
   14.8858    9.0939   -3.8058 H   0  0  0  0  0  0  0  0  0  0  0  0
   12.8981    7.5701   -3.5650 H   0  0  0  0  0  0  0  0  0  0  0  0
   15.3593    4.6721   -1.5647 H   0  0  0  0  0  0  0  0  0  0  0  0
   17.3260    6.1975   -1.8074 H   0  0  0  0  0  0  0  0  0  0  0  0
   17.3629    8.5957   -2.9566 N   0  0  0  0  0  0  0  0  0  0  0  0
   17.1924    9.6789   -3.5169 O   0  0  0  0  0  0  0  0  0  0  0  0
   18.4383    8.2010   -2.5067 O   0  0  0  0  0  0  0  0  0  0  0  0
   11.9923    7.6533    0.1808 N   0  0  0  0  0  0  0  0  0  0  0  0
   11.3578    6.7617    0.0259 N   0  0  0  0  0  0  0  0  0  0  0  0
   12.6997    4.0448   -2.0091 C   0  0  0  0  0  0  0  0  0  0  0  0
   13.6038    3.3687   -1.5861 O   0  0  0  0  0  0  0  0  0  0  0  0
   12.8321    5.3293   -2.4846 O   0  0  0  0  0  0  0  0  0  0  0  0
   11.2533    3.6335   -2.1004 C   0  0  0  0  0  0  0  0  0  0  0  0
   11.1529    2.6013   -1.7674 H   0  0  0  0  0  0  0  0  0  0  0  0
   10.6429    4.2896   -1.4733 H   0  0  0  0  0  0  0  0  0  0  0  0
   10.8956    3.7346   -3.1290 H   0  0  0  0  0  0  0  0  0  0  0  0
  1  2  2  0  0  0  0
  1  6  1  0  0  0  0
  2  3  1  0  0  0  0
  3 18  1  0  0  0  0
  3  4  2  0  0  0  0
  4  9  1  0  0  0  0
  5  4  1  0  0  0  0
  5 10  1  0  0  0  0
  6  5  2  0  0  0  0
  7  1  1  0  0  0  0
  8  2  1  0  0  0  0
 11  6  1  0  0  0  0
 11 13  2  0  0  0  0
 12 11  2  0  0  0  0
 15 14  3  0  0  0  0
 16 17  2  0  0  0  0
 18 16  1  0  0  0  0
 19 16  1  0  0  0  0
 19 20  1  0  0  0  0
 19 21  1  0  0  0  0
 22 19  1  0  0  0  0
M  END
