Coordinates from ORCA-job 4-NO2-Ph-N2-OAc-B3LYPG-6-31G_dp-MTMO-d009-169-n750
 OpenBabel09051907563D

 22 21  0  0  0  0  0  0  0  0999 V2000
   15.6571    8.5692   -3.4593 C   0  0  0  0  0  0  0  0  0  0  0  0
   14.6116    7.6593   -3.4047 C   0  0  0  0  0  0  0  0  0  0  0  0
   14.7993    6.4065   -2.8036 C   0  0  0  0  0  0  0  0  0  0  0  0
   16.0361    6.0509   -2.2494 C   0  0  0  0  0  0  0  0  0  0  0  0
   17.0834    6.9684   -2.3068 C   0  0  0  0  0  0  0  0  0  0  0  0
   16.8865    8.2092   -2.9066 C   0  0  0  0  0  0  0  0  0  0  0  0
   15.5408    9.5431   -3.9170 H   0  0  0  0  0  0  0  0  0  0  0  0
   13.6396    7.8973   -3.8217 H   0  0  0  0  0  0  0  0  0  0  0  0
   16.1734    5.0842   -1.7916 H   0  0  0  0  0  0  0  0  0  0  0  0
   18.0538    6.7301   -1.8899 H   0  0  0  0  0  0  0  0  0  0  0  0
   17.9997    9.1640   -2.9604 N   0  0  0  0  0  0  0  0  0  0  0  0
   17.7904   10.2545   -3.4928 O   0  0  0  0  0  0  0  0  0  0  0  0
   19.0749    8.8182   -2.4712 O   0  0  0  0  0  0  0  0  0  0  0  0
    3.4647    3.2600    2.6584 N   0  0  0  0  0  0  0  0  0  0  0  0
    4.4039    3.4892    2.1226 N   0  0  0  0  0  0  0  0  0  0  0  0
   13.5745    4.3259   -2.3656 C   0  0  0  0  0  0  0  0  0  0  0  0
   14.4861    3.6991   -1.8861 O   0  0  0  0  0  0  0  0  0  0  0  0
   13.6597    5.6195   -2.8221 O   0  0  0  0  0  0  0  0  0  0  0  0
   12.1662    3.8265   -2.5631 C   0  0  0  0  0  0  0  0  0  0  0  0
   12.0968    2.8001   -2.2057 H   0  0  0  0  0  0  0  0  0  0  0  0
   11.4630    4.4613   -2.0165 H   0  0  0  0  0  0  0  0  0  0  0  0
   11.8954    3.8747   -3.6218 H   0  0  0  0  0  0  0  0  0  0  0  0
  1  2  2  0  0  0  0
  1  6  1  0  0  0  0
  2  3  1  0  0  0  0
  3  4  2  0  0  0  0
  4  9  1  0  0  0  0
  5  4  1  0  0  0  0
  5 10  1  0  0  0  0
  6  5  2  0  0  0  0
  7  1  1  0  0  0  0
  8  2  1  0  0  0  0
 11  6  1  0  0  0  0
 11 13  2  0  0  0  0
 12 11  2  0  0  0  0
 15 14  3  0  0  0  0
 16 17  2  0  0  0  0
 18  3  1  0  0  0  0
 18 16  1  0  0  0  0
 19 16  1  0  0  0  0
 19 20  1  0  0  0  0
 19 21  1  0  0  0  0
 22 19  1  0  0  0  0
M  END
