Coordinates from ORCA-job 4-NO2-Ph-N2-OAc-B3LYPG-6-31G_dp-MTMO-d009-169-n750
 OpenBabel09051907563D

 22 21  0  0  0  0  0  0  0  0999 V2000
   15.9391    8.6517   -3.5860 C   0  0  0  0  0  0  0  0  0  0  0  0
   14.8965    7.7384   -3.5322 C   0  0  0  0  0  0  0  0  0  0  0  0
   15.0890    6.4846   -2.9349 C   0  0  0  0  0  0  0  0  0  0  0  0
   16.3278    6.1313   -2.3836 C   0  0  0  0  0  0  0  0  0  0  0  0
   17.3722    7.0521   -2.4402 C   0  0  0  0  0  0  0  0  0  0  0  0
   17.1705    8.2939   -3.0363 C   0  0  0  0  0  0  0  0  0  0  0  0
   15.8192    9.6264   -4.0408 H   0  0  0  0  0  0  0  0  0  0  0  0
   13.9231    7.9747   -3.9469 H   0  0  0  0  0  0  0  0  0  0  0  0
   16.4690    5.1636   -1.9290 H   0  0  0  0  0  0  0  0  0  0  0  0
   18.3440    6.8156   -2.0254 H   0  0  0  0  0  0  0  0  0  0  0  0
   18.2807    9.2523   -3.0892 N   0  0  0  0  0  0  0  0  0  0  0  0
   18.0673   10.3435   -3.6183 O   0  0  0  0  0  0  0  0  0  0  0  0
   19.3577    8.9084   -2.6027 O   0  0  0  0  0  0  0  0  0  0  0  0
    0.5632    2.4774    3.9807 N   0  0  0  0  0  0  0  0  0  0  0  0
    1.5063    2.7023    3.4501 N   0  0  0  0  0  0  0  0  0  0  0  0
   13.8735    4.3966   -2.5071 C   0  0  0  0  0  0  0  0  0  0  0  0
   14.7906    3.7680   -2.0405 O   0  0  0  0  0  0  0  0  0  0  0  0
   13.9515    5.6946   -2.9523 O   0  0  0  0  0  0  0  0  0  0  0  0
   12.4649    3.8951   -2.6978 C   0  0  0  0  0  0  0  0  0  0  0  0
   12.4020    2.8642   -2.3521 H   0  0  0  0  0  0  0  0  0  0  0  0
   11.7651    4.5210   -2.1369 H   0  0  0  0  0  0  0  0  0  0  0  0
   12.1840    3.9553   -3.7532 H   0  0  0  0  0  0  0  0  0  0  0  0
  1  2  2  0  0  0  0
  1  6  1  0  0  0  0
  2  3  1  0  0  0  0
  3  4  2  0  0  0  0
  4  9  1  0  0  0  0
  5  4  1  0  0  0  0
  5 10  1  0  0  0  0
  6  5  2  0  0  0  0
  7  1  1  0  0  0  0
  8  2  1  0  0  0  0
 11  6  1  0  0  0  0
 11 13  2  0  0  0  0
 12 11  2  0  0  0  0
 15 14  3  0  0  0  0
 16 17  2  0  0  0  0
 18  3  1  0  0  0  0
 18 16  1  0  0  0  0
 19 16  1  0  0  0  0
 19 20  1  0  0  0  0
 19 21  1  0  0  0  0
 22 19  1  0  0  0  0
M  END
