Coordinates from ORCA-job 4-NO2-Ph-N2-OAc-B3LYPG-6-31G_dp-MTMO-d009-169-n750
 OpenBabel09051907553D

 22 20  0  0  0  0  0  0  0  0999 V2000
   15.6124    9.0214   -2.7170 C   0  0  0  0  0  0  0  0  0  0  0  0
   14.2897    8.8342   -2.2717 C   0  0  0  0  0  0  0  0  0  0  0  0
   14.0991    7.4912   -2.0590 C   0  0  0  0  0  0  0  0  0  0  0  0
   14.8190    6.4708   -2.1751 C   0  0  0  0  0  0  0  0  0  0  0  0
   16.1393    6.5871   -2.6090 C   0  0  0  0  0  0  0  0  0  0  0  0
   16.4870    7.9279   -2.8727 C   0  0  0  0  0  0  0  0  0  0  0  0
   15.9787   10.0147   -2.9475 H   0  0  0  0  0  0  0  0  0  0  0  0
   13.5801    9.6393   -2.1337 H   0  0  0  0  0  0  0  0  0  0  0  0
   13.7528    4.5904   -1.8328 H   0  0  0  0  0  0  0  0  0  0  0  0
   16.8537    5.7859   -2.7477 H   0  0  0  0  0  0  0  0  0  0  0  0
   17.8586    8.2031   -3.3433 N   0  0  0  0  0  0  0  0  0  0  0  0
   18.1631    9.3721   -3.5742 O   0  0  0  0  0  0  0  0  0  0  0  0
   18.6131    7.2415   -3.4748 O   0  0  0  0  0  0  0  0  0  0  0  0
   11.3789    7.7693   -1.0692 N   0  0  0  0  0  0  0  0  0  0  0  0
   10.5048    7.2643   -0.6203 N   0  0  0  0  0  0  0  0  0  0  0  0
   12.0838    3.7208   -1.9896 C   0  0  0  0  0  0  0  0  0  0  0  0
   13.4179    3.6711   -1.7848 O   0  0  0  0  0  0  0  0  0  0  0  0
   11.4810    4.7572   -2.1755 O   0  0  0  0  0  0  0  0  0  0  0  0
   11.4668    2.3442   -1.9530 C   0  0  0  0  0  0  0  0  0  0  0  0
   11.6557    1.8767   -0.9815 H   0  0  0  0  0  0  0  0  0  0  0  0
   10.3942    2.4207   -2.1281 H   0  0  0  0  0  0  0  0  0  0  0  0
   11.9275    1.7076   -2.7142 H   0  0  0  0  0  0  0  0  0  0  0  0
  1  2  1  0  0  0  0
  2  8  1  0  0  0  0
  2  3  2  0  0  0  0
  4  3  1  0  0  0  0
  5  4  2  0  0  0  0
  6  1  2  0  0  0  0
  6  5  1  0  0  0  0
  7  1  1  0  0  0  0
  9 17  1  0  0  0  0
 10  5  1  0  0  0  0
 11  6  1  0  0  0  0
 12 11  2  0  0  0  0
 13 11  2  0  0  0  0
 14 15  3  0  0  0  0
 16 19  1  0  0  0  0
 16 17  1  0  0  0  0
 18 16  2  0  0  0  0
 19 20  1  0  0  0  0
 21 19  1  0  0  0  0
 22 19  1  0  0  0  0
M  RAD  2   3   2   4   2
M  END
