Coordinates from ORCA-job 4-NO2-Ph-N2-OAc-B3LYPG-6-31G_dp-MTMO-d009-169-n750
 OpenBabel09051907563D

 22 21  0  0  0  0  0  0  0  0999 V2000
   15.5591    8.5389   -3.4168 C   0  0  0  0  0  0  0  0  0  0  0  0
   14.5124    7.6303   -3.3638 C   0  0  0  0  0  0  0  0  0  0  0  0
   14.6964    6.3787   -2.7592 C   0  0  0  0  0  0  0  0  0  0  0  0
   15.9308    6.0228   -2.1998 C   0  0  0  0  0  0  0  0  0  0  0  0
   16.9795    6.9389   -2.2557 C   0  0  0  0  0  0  0  0  0  0  0  0
   16.7862    8.1786   -2.8590 C   0  0  0  0  0  0  0  0  0  0  0  0
   15.4457    9.5118   -3.8771 H   0  0  0  0  0  0  0  0  0  0  0  0
   13.5421    7.8686   -3.7849 H   0  0  0  0  0  0  0  0  0  0  0  0
   16.0652    5.0572   -1.7390 H   0  0  0  0  0  0  0  0  0  0  0  0
   17.9481    6.7003   -1.8349 H   0  0  0  0  0  0  0  0  0  0  0  0
   17.9008    9.1318   -2.9112 N   0  0  0  0  0  0  0  0  0  0  0  0
   17.6947   10.2213   -3.4469 O   0  0  0  0  0  0  0  0  0  0  0  0
   18.9739    8.7858   -2.4176 O   0  0  0  0  0  0  0  0  0  0  0  0
    4.5045    3.5390    2.2071 N   0  0  0  0  0  0  0  0  0  0  0  0
    5.4321    3.7636    1.6496 N   0  0  0  0  0  0  0  0  0  0  0  0
   13.4653    4.3032   -2.3142 C   0  0  0  0  0  0  0  0  0  0  0  0
   14.3714    3.6799   -1.8197 O   0  0  0  0  0  0  0  0  0  0  0  0
   13.5563    5.5925   -2.7815 O   0  0  0  0  0  0  0  0  0  0  0  0
   12.0586    3.8031   -2.5218 C   0  0  0  0  0  0  0  0  0  0  0  0
   11.9843    2.7804   -2.1549 H   0  0  0  0  0  0  0  0  0  0  0  0
   11.3501    4.4440   -1.9895 H   0  0  0  0  0  0  0  0  0  0  0  0
   11.7996    3.8407   -3.5839 H   0  0  0  0  0  0  0  0  0  0  0  0
  1  2  2  0  0  0  0
  1  6  1  0  0  0  0
  2  3  1  0  0  0  0
  3  4  2  0  0  0  0
  4  9  1  0  0  0  0
  5  4  1  0  0  0  0
  5 10  1  0  0  0  0
  6  5  2  0  0  0  0
  7  1  1  0  0  0  0
  8  2  1  0  0  0  0
 11  6  1  0  0  0  0
 11 13  2  0  0  0  0
 12 11  2  0  0  0  0
 15 14  3  0  0  0  0
 16 17  2  0  0  0  0
 18  3  1  0  0  0  0
 18 16  1  0  0  0  0
 19 16  1  0  0  0  0
 19 20  1  0  0  0  0
 19 21  1  0  0  0  0
 22 19  1  0  0  0  0
M  END
