Coordinates from ORCA-job 4-NO2-Ph-N2-OAc-B3LYPG-6-31G_dp-MTMO-d009-169-n750
 OpenBabel09051907563D

 22 21  0  0  0  0  0  0  0  0999 V2000
   15.5092    8.5218   -3.3914 C   0  0  0  0  0  0  0  0  0  0  0  0
   14.4328    7.6560   -3.2660 C   0  0  0  0  0  0  0  0  0  0  0  0
   14.6038    6.4033   -2.6599 C   0  0  0  0  0  0  0  0  0  0  0  0
   15.8549    6.0036   -2.1716 C   0  0  0  0  0  0  0  0  0  0  0  0
   16.9332    6.8768   -2.2998 C   0  0  0  0  0  0  0  0  0  0  0  0
   16.7525    8.1180   -2.9039 C   0  0  0  0  0  0  0  0  0  0  0  0
   15.4063    9.4945   -3.8545 H   0  0  0  0  0  0  0  0  0  0  0  0
   13.4490    7.9292   -3.6307 H   0  0  0  0  0  0  0  0  0  0  0  0
   15.9794    5.0365   -1.7108 H   0  0  0  0  0  0  0  0  0  0  0  0
   17.9152    6.6036   -1.9346 H   0  0  0  0  0  0  0  0  0  0  0  0
   17.8983    9.0262   -3.0321 N   0  0  0  0  0  0  0  0  0  0  0  0
   17.7034   10.1181   -3.5670 O   0  0  0  0  0  0  0  0  0  0  0  0
   18.9843    8.6425   -2.5983 O   0  0  0  0  0  0  0  0  0  0  0  0
    5.3470    3.4389    1.4564 N   0  0  0  0  0  0  0  0  0  0  0  0
    6.2837    3.6738    0.9187 N   0  0  0  0  0  0  0  0  0  0  0  0
   13.3294    4.3701   -2.1495 C   0  0  0  0  0  0  0  0  0  0  0  0
   14.2487    3.6995   -1.7507 O   0  0  0  0  0  0  0  0  0  0  0  0
   13.4335    5.6652   -2.5981 O   0  0  0  0  0  0  0  0  0  0  0  0
   11.8898    3.9328   -2.2392 C   0  0  0  0  0  0  0  0  0  0  0  0
   11.8057    2.9040   -1.8919 H   0  0  0  0  0  0  0  0  0  0  0  0
   11.2604    4.5864   -1.6283 H   0  0  0  0  0  0  0  0  0  0  0  0
   11.5367    4.0106   -3.2716 H   0  0  0  0  0  0  0  0  0  0  0  0
  1  2  2  0  0  0  0
  1  6  1  0  0  0  0
  2  3  1  0  0  0  0
  3 18  1  0  0  0  0
  3  4  2  0  0  0  0
  4  9  1  0  0  0  0
  5  4  1  0  0  0  0
  5 10  1  0  0  0  0
  6  5  2  0  0  0  0
  7  1  1  0  0  0  0
  8  2  1  0  0  0  0
 11  6  1  0  0  0  0
 11 13  2  0  0  0  0
 12 11  2  0  0  0  0
 15 14  3  0  0  0  0
 16 17  2  0  0  0  0
 18 16  1  0  0  0  0
 19 16  1  0  0  0  0
 19 20  1  0  0  0  0
 19 21  1  0  0  0  0
 22 19  1  0  0  0  0
M  END
