Coordinates from ORCA-job 4-NO2-Ph-N2-OAc-B3LYPG-6-31G_dp-MTMO-d009-169-n750
 OpenBabel09051907553D

 22 20  0  0  0  0  0  0  0  0999 V2000
   15.6263    9.0750   -2.6655 C   0  0  0  0  0  0  0  0  0  0  0  0
   14.2981    9.0352   -2.2045 C   0  0  0  0  0  0  0  0  0  0  0  0
   13.9541    7.7226   -2.0090 C   0  0  0  0  0  0  0  0  0  0  0  0
   14.5234    6.6060   -2.1398 C   0  0  0  0  0  0  0  0  0  0  0  0
   15.8483    6.5978   -2.5940 C   0  0  0  0  0  0  0  0  0  0  0  0
   16.3580    7.8857   -2.8466 C   0  0  0  0  0  0  0  0  0  0  0  0
   16.1042   10.0212   -2.8887 H   0  0  0  0  0  0  0  0  0  0  0  0
   13.6860    9.9133   -2.0451 H   0  0  0  0  0  0  0  0  0  0  0  0
   13.6710    4.7551   -1.7944 H   0  0  0  0  0  0  0  0  0  0  0  0
   16.4612    5.7190   -2.7523 H   0  0  0  0  0  0  0  0  0  0  0  0
   17.7474    7.9990   -3.3317 N   0  0  0  0  0  0  0  0  0  0  0  0
   18.1897    9.1262   -3.5486 O   0  0  0  0  0  0  0  0  0  0  0  0
   18.3775    6.9554   -3.4890 O   0  0  0  0  0  0  0  0  0  0  0  0
   11.6811    7.8545   -1.1986 N   0  0  0  0  0  0  0  0  0  0  0  0
   10.8669    7.2161   -0.8086 N   0  0  0  0  0  0  0  0  0  0  0  0
   12.1048    3.7116   -1.9982 C   0  0  0  0  0  0  0  0  0  0  0  0
   13.4254    3.8037   -1.7421 O   0  0  0  0  0  0  0  0  0  0  0  0
   11.3995    4.6760   -2.2130 O   0  0  0  0  0  0  0  0  0  0  0  0
   11.6363    2.2764   -1.9809 C   0  0  0  0  0  0  0  0  0  0  0  0
   11.8642    1.8210   -1.0123 H   0  0  0  0  0  0  0  0  0  0  0  0
   10.5638    2.2397   -2.1689 H   0  0  0  0  0  0  0  0  0  0  0  0
   12.1700    1.7009   -2.7430 H   0  0  0  0  0  0  0  0  0  0  0  0
  1  2  1  0  0  0  0
  2  8  1  0  0  0  0
  2  3  2  0  0  0  0
  4  3  1  0  0  0  0
  5  4  2  0  0  0  0
  6  1  2  0  0  0  0
  6  5  1  0  0  0  0
  7  1  1  0  0  0  0
  9 17  1  0  0  0  0
 10  5  1  0  0  0  0
 11  6  1  0  0  0  0
 12 11  2  0  0  0  0
 13 11  2  0  0  0  0
 14 15  3  0  0  0  0
 16 19  1  0  0  0  0
 16 17  1  0  0  0  0
 18 16  2  0  0  0  0
 19 20  1  0  0  0  0
 21 19  1  0  0  0  0
 22 19  1  0  0  0  0
M  RAD  2   3   2   4   2
M  END
