Coordinates from ORCA-job 4-NO2-Ph-N2-OAc-B3LYPG-6-31G_dp-MTMO-d009-169-n750
 OpenBabel09051907563D

 22 21  0  0  0  0  0  0  0  0999 V2000
   15.6438    8.5652   -3.4535 C   0  0  0  0  0  0  0  0  0  0  0  0
   14.5983    7.6554   -3.3990 C   0  0  0  0  0  0  0  0  0  0  0  0
   14.7855    6.4028   -2.7976 C   0  0  0  0  0  0  0  0  0  0  0  0
   16.0221    6.0472   -2.2427 C   0  0  0  0  0  0  0  0  0  0  0  0
   17.0696    6.9646   -2.2999 C   0  0  0  0  0  0  0  0  0  0  0  0
   16.8730    8.2052   -2.9001 C   0  0  0  0  0  0  0  0  0  0  0  0
   15.5279    9.5390   -3.9114 H   0  0  0  0  0  0  0  0  0  0  0  0
   13.6264    7.8934   -3.8165 H   0  0  0  0  0  0  0  0  0  0  0  0
   16.1591    5.0806   -1.7846 H   0  0  0  0  0  0  0  0  0  0  0  0
   18.0397    6.7262   -1.8826 H   0  0  0  0  0  0  0  0  0  0  0  0
   17.9863    9.1599   -2.9538 N   0  0  0  0  0  0  0  0  0  0  0  0
   17.7774   10.2502   -3.4867 O   0  0  0  0  0  0  0  0  0  0  0  0
   19.0613    8.8140   -2.4642 O   0  0  0  0  0  0  0  0  0  0  0  0
    3.6028    3.2979    2.5977 N   0  0  0  0  0  0  0  0  0  0  0  0
    4.5412    3.5264    2.0603 N   0  0  0  0  0  0  0  0  0  0  0  0
   13.5602    4.3226   -2.3589 C   0  0  0  0  0  0  0  0  0  0  0  0
   14.4712    3.6963   -1.8775 O   0  0  0  0  0  0  0  0  0  0  0  0
   13.6460    5.6158   -2.8166 O   0  0  0  0  0  0  0  0  0  0  0  0
   12.1521    3.8230   -2.5578 C   0  0  0  0  0  0  0  0  0  0  0  0
   12.0823    2.7968   -2.1997 H   0  0  0  0  0  0  0  0  0  0  0  0
   11.4483    4.4582   -2.0125 H   0  0  0  0  0  0  0  0  0  0  0  0
   11.8827    3.8705   -3.6169 H   0  0  0  0  0  0  0  0  0  0  0  0
  1  2  2  0  0  0  0
  1  6  1  0  0  0  0
  2  3  1  0  0  0  0
  3  4  2  0  0  0  0
  4  9  1  0  0  0  0
  5  4  1  0  0  0  0
  5 10  1  0  0  0  0
  6  5  2  0  0  0  0
  7  1  1  0  0  0  0
  8  2  1  0  0  0  0
 11  6  1  0  0  0  0
 11 13  2  0  0  0  0
 12 11  2  0  0  0  0
 15 14  3  0  0  0  0
 16 17  2  0  0  0  0
 18  3  1  0  0  0  0
 18 16  1  0  0  0  0
 19 16  1  0  0  0  0
 19 20  1  0  0  0  0
 19 21  1  0  0  0  0
 22 19  1  0  0  0  0
M  END
