Coordinates from ORCA-job 4-NO2-Ph-N2-OAc-B3LYPG-6-31G_dp-MTMO-d009-169-n750
 OpenBabel09051907563D

 22 21  0  0  0  0  0  0  0  0999 V2000
   15.2032    8.4177   -3.2661 C   0  0  0  0  0  0  0  0  0  0  0  0
   14.1571    7.5092   -3.2016 C   0  0  0  0  0  0  0  0  0  0  0  0
   14.3504    6.2531   -2.6091 C   0  0  0  0  0  0  0  0  0  0  0  0
   15.5943    5.8929   -2.0737 C   0  0  0  0  0  0  0  0  0  0  0  0
   16.6423    6.8089   -2.1410 C   0  0  0  0  0  0  0  0  0  0  0  0
   16.4395    8.0530   -2.7320 C   0  0  0  0  0  0  0  0  0  0  0  0
   15.0824    9.3938   -3.7175 H   0  0  0  0  0  0  0  0  0  0  0  0
   13.1799    7.7508   -3.6043 H   0  0  0  0  0  0  0  0  0  0  0  0
   15.7361    4.9238   -1.6224 H   0  0  0  0  0  0  0  0  0  0  0  0
   17.6179    6.5668   -1.7385 H   0  0  0  0  0  0  0  0  0  0  0  0
   17.5534    9.0061   -2.7963 N   0  0  0  0  0  0  0  0  0  0  0  0
   17.3389   10.0996   -3.3205 O   0  0  0  0  0  0  0  0  0  0  0  0
   18.6346    8.6562   -2.3234 O   0  0  0  0  0  0  0  0  0  0  0  0
    7.9831    4.9664    0.7863 N   0  0  0  0  0  0  0  0  0  0  0  0
    8.8544    4.8540    0.1159 N   0  0  0  0  0  0  0  0  0  0  0  0
   13.1274    4.1730   -2.1626 C   0  0  0  0  0  0  0  0  0  0  0  0
   14.0450    3.5441   -1.6970 O   0  0  0  0  0  0  0  0  0  0  0  0
   13.2096    5.4683   -2.6166 O   0  0  0  0  0  0  0  0  0  0  0  0
   11.7144    3.6787   -2.3339 C   0  0  0  0  0  0  0  0  0  0  0  0
   11.6745    2.6192   -2.0828 H   0  0  0  0  0  0  0  0  0  0  0  0
   11.0415    4.2372   -1.6761 H   0  0  0  0  0  0  0  0  0  0  0  0
   11.3772    3.8385   -3.3616 H   0  0  0  0  0  0  0  0  0  0  0  0
  1  2  2  0  0  0  0
  1  6  1  0  0  0  0
  2  3  1  0  0  0  0
  3  4  2  0  0  0  0
  4  9  1  0  0  0  0
  5  4  1  0  0  0  0
  5 10  1  0  0  0  0
  6  5  2  0  0  0  0
  7  1  1  0  0  0  0
  8  2  1  0  0  0  0
 11  6  1  0  0  0  0
 11 13  2  0  0  0  0
 12 11  2  0  0  0  0
 15 14  3  0  0  0  0
 16 17  2  0  0  0  0
 18  3  1  0  0  0  0
 18 16  1  0  0  0  0
 19 16  1  0  0  0  0
 19 20  1  0  0  0  0
 19 21  1  0  0  0  0
 22 19  1  0  0  0  0
M  END
