Coordinates from ORCA-job 4-NO2-Ph-N2-OAc-B3LYPG-6-31G_dp-MTMO-d009-169-n750
 OpenBabel09051907563D

 22 21  0  0  0  0  0  0  0  0999 V2000
   15.5839    8.5465   -3.4276 C   0  0  0  0  0  0  0  0  0  0  0  0
   14.5373    7.6379   -3.3738 C   0  0  0  0  0  0  0  0  0  0  0  0
   14.7220    6.3859   -2.7700 C   0  0  0  0  0  0  0  0  0  0  0  0
   15.9572    6.0299   -2.2123 C   0  0  0  0  0  0  0  0  0  0  0  0
   17.0057    6.9461   -2.2690 C   0  0  0  0  0  0  0  0  0  0  0  0
   16.8116    8.1860   -2.8714 C   0  0  0  0  0  0  0  0  0  0  0  0
   15.4698    9.5196   -3.8872 H   0  0  0  0  0  0  0  0  0  0  0  0
   13.5665    7.8762   -3.7935 H   0  0  0  0  0  0  0  0  0  0  0  0
   16.0922    5.0639   -1.7522 H   0  0  0  0  0  0  0  0  0  0  0  0
   17.9749    6.7073   -1.8494 H   0  0  0  0  0  0  0  0  0  0  0  0
   17.9261    9.1394   -2.9245 N   0  0  0  0  0  0  0  0  0  0  0  0
   17.7193   10.2291   -3.4594 O   0  0  0  0  0  0  0  0  0  0  0  0
   18.9998    8.7931   -2.4323 O   0  0  0  0  0  0  0  0  0  0  0  0
    4.2436    3.4663    2.3165 N   0  0  0  0  0  0  0  0  0  0  0  0
    5.1756    3.6941    1.7679 N   0  0  0  0  0  0  0  0  0  0  0  0
   13.4923    4.3094   -2.3265 C   0  0  0  0  0  0  0  0  0  0  0  0
   14.4000    3.6848   -1.8366 O   0  0  0  0  0  0  0  0  0  0  0  0
   13.5819    5.5999   -2.7908 O   0  0  0  0  0  0  0  0  0  0  0  0
   12.0849    3.8099   -2.5306 C   0  0  0  0  0  0  0  0  0  0  0  0
   12.0117    2.7863   -2.1658 H   0  0  0  0  0  0  0  0  0  0  0  0
   11.3782    4.4497   -1.9945 H   0  0  0  0  0  0  0  0  0  0  0  0
   11.8224    3.8501   -3.5918 H   0  0  0  0  0  0  0  0  0  0  0  0
  1  2  2  0  0  0  0
  1  6  1  0  0  0  0
  2  3  1  0  0  0  0
  3  4  2  0  0  0  0
  4  9  1  0  0  0  0
  5  4  1  0  0  0  0
  5 10  1  0  0  0  0
  6  5  2  0  0  0  0
  7  1  1  0  0  0  0
  8  2  1  0  0  0  0
 11  6  1  0  0  0  0
 11 13  2  0  0  0  0
 12 11  2  0  0  0  0
 15 14  3  0  0  0  0
 16 17  2  0  0  0  0
 18  3  1  0  0  0  0
 18 16  1  0  0  0  0
 19 16  1  0  0  0  0
 19 20  1  0  0  0  0
 19 21  1  0  0  0  0
 22 19  1  0  0  0  0
M  END
