Coordinates from ORCA-job 4-NO2-Ph-N2-OAc-B3LYPG-6-31G_dp-MTMO-d009-169-n750
 OpenBabel09051907563D

 22 21  0  0  0  0  0  0  0  0999 V2000
   15.5921    8.5491   -3.4310 C   0  0  0  0  0  0  0  0  0  0  0  0
   14.5455    7.6405   -3.3767 C   0  0  0  0  0  0  0  0  0  0  0  0
   14.7306    6.3885   -2.7734 C   0  0  0  0  0  0  0  0  0  0  0  0
   15.9661    6.0322   -2.2165 C   0  0  0  0  0  0  0  0  0  0  0  0
   17.0146    6.9484   -2.2736 C   0  0  0  0  0  0  0  0  0  0  0  0
   16.8202    8.1885   -2.8757 C   0  0  0  0  0  0  0  0  0  0  0  0
   15.4779    9.5224   -3.8904 H   0  0  0  0  0  0  0  0  0  0  0  0
   13.5745    7.8791   -3.7958 H   0  0  0  0  0  0  0  0  0  0  0  0
   16.1014    5.0662   -1.7567 H   0  0  0  0  0  0  0  0  0  0  0  0
   17.9840    6.7095   -1.8548 H   0  0  0  0  0  0  0  0  0  0  0  0
   17.9347    9.1417   -2.9294 N   0  0  0  0  0  0  0  0  0  0  0  0
   17.7277   10.2316   -3.4639 O   0  0  0  0  0  0  0  0  0  0  0  0
   19.0087    8.7953   -2.4379 O   0  0  0  0  0  0  0  0  0  0  0  0
    4.1565    3.4416    2.3527 N   0  0  0  0  0  0  0  0  0  0  0  0
    5.0898    3.6704    1.8066 N   0  0  0  0  0  0  0  0  0  0  0  0
   13.5013    4.3116   -2.3302 C   0  0  0  0  0  0  0  0  0  0  0  0
   14.4094    3.6866   -1.8419 O   0  0  0  0  0  0  0  0  0  0  0  0
   13.5903    5.6025   -2.7935 O   0  0  0  0  0  0  0  0  0  0  0  0
   12.0936    3.8123   -2.5333 C   0  0  0  0  0  0  0  0  0  0  0  0
   12.0208    2.7885   -2.1692 H   0  0  0  0  0  0  0  0  0  0  0  0
   11.3875    4.4517   -1.9960 H   0  0  0  0  0  0  0  0  0  0  0  0
   11.8301    3.8533   -3.5941 H   0  0  0  0  0  0  0  0  0  0  0  0
  1  2  2  0  0  0  0
  1  6  1  0  0  0  0
  2  3  1  0  0  0  0
  3  4  2  0  0  0  0
  4  9  1  0  0  0  0
  5  4  1  0  0  0  0
  5 10  1  0  0  0  0
  6  5  2  0  0  0  0
  7  1  1  0  0  0  0
  8  2  1  0  0  0  0
 11  6  1  0  0  0  0
 11 13  2  0  0  0  0
 12 11  2  0  0  0  0
 15 14  3  0  0  0  0
 16 17  2  0  0  0  0
 18  3  1  0  0  0  0
 18 16  1  0  0  0  0
 19 16  1  0  0  0  0
 19 20  1  0  0  0  0
 19 21  1  0  0  0  0
 22 19  1  0  0  0  0
M  END
