Coordinates from ORCA-job 4-NO2-Ph-N2-OAc-B3LYPG-6-31G_dp-MTMO-d009-169-n750
 OpenBabel09051907553D

 22 21  0  0  0  0  0  0  0  0999 V2000
   14.9802    8.1454   -3.2579 C   0  0  0  0  0  0  0  0  0  0  0  0
   13.8847    7.3085   -3.1038 C   0  0  0  0  0  0  0  0  0  0  0  0
   14.0415    6.0433   -2.5199 C   0  0  0  0  0  0  0  0  0  0  0  0
   15.2975    5.6025   -2.0820 C   0  0  0  0  0  0  0  0  0  0  0  0
   16.3951    6.4466   -2.2392 C   0  0  0  0  0  0  0  0  0  0  0  0
   16.2282    7.7001   -2.8215 C   0  0  0  0  0  0  0  0  0  0  0  0
   14.8884    9.1266   -3.7050 H   0  0  0  0  0  0  0  0  0  0  0  0
   12.8968    7.6142   -3.4293 H   0  0  0  0  0  0  0  0  0  0  0  0
   15.4112    4.6264   -1.6381 H   0  0  0  0  0  0  0  0  0  0  0  0
   17.3814    6.1412   -1.9134 H   0  0  0  0  0  0  0  0  0  0  0  0
   17.3943    8.5772   -2.9809 N   0  0  0  0  0  0  0  0  0  0  0  0
   17.2119    9.6797   -3.4981 O   0  0  0  0  0  0  0  0  0  0  0  0
   18.4833    8.1585   -2.5890 O   0  0  0  0  0  0  0  0  0  0  0  0
   11.5969    7.8051    0.0082 N   0  0  0  0  0  0  0  0  0  0  0  0
   11.1699    6.7863   -0.0229 N   0  0  0  0  0  0  0  0  0  0  0  0
   12.7345    4.0283   -2.0169 C   0  0  0  0  0  0  0  0  0  0  0  0
   13.6536    3.3228   -1.6841 O   0  0  0  0  0  0  0  0  0  0  0  0
   12.8537    5.3383   -2.4217 O   0  0  0  0  0  0  0  0  0  0  0  0
   11.2818    3.6314   -2.0567 C   0  0  0  0  0  0  0  0  0  0  0  0
   11.1885    2.5853   -1.7674 H   0  0  0  0  0  0  0  0  0  0  0  0
   10.7066    4.2623   -1.3732 H   0  0  0  0  0  0  0  0  0  0  0  0
   10.8773    3.7814   -3.0619 H   0  0  0  0  0  0  0  0  0  0  0  0
  1  2  2  0  0  0  0
  1  6  1  0  0  0  0
  2  3  1  0  0  0  0
  3 18  1  0  0  0  0
  3  4  2  0  0  0  0
  4  9  1  0  0  0  0
  5  4  1  0  0  0  0
  5 10  1  0  0  0  0
  6  5  2  0  0  0  0
  7  1  1  0  0  0  0
  8  2  1  0  0  0  0
 11  6  1  0  0  0  0
 11 13  2  0  0  0  0
 12 11  2  0  0  0  0
 15 14  3  0  0  0  0
 16 17  2  0  0  0  0
 18 16  1  0  0  0  0
 19 16  1  0  0  0  0
 19 20  1  0  0  0  0
 19 21  1  0  0  0  0
 22 19  1  0  0  0  0
M  END
