Coordinates from ORCA-job 4-NO2-Ph-N2-OAc-B3LYPG-6-31G_dp-MTMO-d009-169-n750
 OpenBabel09051907563D

 22 21  0  0  0  0  0  0  0  0999 V2000
   15.3097    8.4425   -3.3254 C   0  0  0  0  0  0  0  0  0  0  0  0
   14.2336    7.5742   -3.2165 C   0  0  0  0  0  0  0  0  0  0  0  0
   14.3950    6.3269   -2.5965 C   0  0  0  0  0  0  0  0  0  0  0  0
   15.6364    5.9352   -2.0777 C   0  0  0  0  0  0  0  0  0  0  0  0
   16.7146    6.8109   -2.1898 C   0  0  0  0  0  0  0  0  0  0  0  0
   16.5435    8.0466   -2.8077 C   0  0  0  0  0  0  0  0  0  0  0  0
   15.2140    9.4111   -3.7985 H   0  0  0  0  0  0  0  0  0  0  0  0
   13.2573    7.8409   -3.6051 H   0  0  0  0  0  0  0  0  0  0  0  0
   15.7533    4.9729   -1.6052 H   0  0  0  0  0  0  0  0  0  0  0  0
   17.6893    6.5438   -1.8013 H   0  0  0  0  0  0  0  0  0  0  0  0
   17.6890    8.9572   -2.9190 N   0  0  0  0  0  0  0  0  0  0  0  0
   17.5022   10.0442   -3.4666 O   0  0  0  0  0  0  0  0  0  0  0  0
   18.7668    8.5803   -2.4594 O   0  0  0  0  0  0  0  0  0  0  0  0
    7.4601    4.1850    0.6978 N   0  0  0  0  0  0  0  0  0  0  0  0
    8.4024    4.3930    0.1590 N   0  0  0  0  0  0  0  0  0  0  0  0
   13.1089    4.3033   -2.0740 C   0  0  0  0  0  0  0  0  0  0  0  0
   14.0133    3.6532   -1.6117 O   0  0  0  0  0  0  0  0  0  0  0  0
   13.2267    5.5838   -2.5603 O   0  0  0  0  0  0  0  0  0  0  0  0
   11.6764    3.8538   -2.2063 C   0  0  0  0  0  0  0  0  0  0  0  0
   11.6055    2.8031   -1.9272 H   0  0  0  0  0  0  0  0  0  0  0  0
   11.0337    4.4505   -1.5516 H   0  0  0  0  0  0  0  0  0  0  0  0
   11.3254    3.9989   -3.2316 H   0  0  0  0  0  0  0  0  0  0  0  0
  1  2  2  0  0  0  0
  1  6  1  0  0  0  0
  2  3  1  0  0  0  0
  3 18  1  0  0  0  0
  3  4  2  0  0  0  0
  4  9  1  0  0  0  0
  5  4  1  0  0  0  0
  5 10  1  0  0  0  0
  6  5  2  0  0  0  0
  7  1  1  0  0  0  0
  8  2  1  0  0  0  0
 11  6  1  0  0  0  0
 11 13  2  0  0  0  0
 12 11  2  0  0  0  0
 15 14  3  0  0  0  0
 16 17  2  0  0  0  0
 18 16  1  0  0  0  0
 19 16  1  0  0  0  0
 19 20  1  0  0  0  0
 19 21  1  0  0  0  0
 22 19  1  0  0  0  0
M  END
