Coordinates from ORCA-job 4-NO2-Ph-N2-OAc-B3LYPG-6-31G_dp-MTMO-d009-169-n750
 OpenBabel09051907563D

 22 21  0  0  0  0  0  0  0  0999 V2000
   15.7331    8.5920   -3.4930 C   0  0  0  0  0  0  0  0  0  0  0  0
   14.6886    7.6811   -3.4381 C   0  0  0  0  0  0  0  0  0  0  0  0
   14.8782    6.4278   -2.8387 C   0  0  0  0  0  0  0  0  0  0  0  0
   16.1160    6.0727   -2.2865 C   0  0  0  0  0  0  0  0  0  0  0  0
   17.1624    6.9912   -2.3441 C   0  0  0  0  0  0  0  0  0  0  0  0
   16.9636    8.2325   -2.9423 C   0  0  0  0  0  0  0  0  0  0  0  0
   15.6154    9.5663   -3.9494 H   0  0  0  0  0  0  0  0  0  0  0  0
   13.7158    7.9187   -3.8535 H   0  0  0  0  0  0  0  0  0  0  0  0
   16.2549    5.1055   -1.8300 H   0  0  0  0  0  0  0  0  0  0  0  0
   18.1336    6.7533   -1.9287 H   0  0  0  0  0  0  0  0  0  0  0  0
   18.0758    9.1884   -2.9964 N   0  0  0  0  0  0  0  0  0  0  0  0
   17.8649   10.2793   -3.5273 O   0  0  0  0  0  0  0  0  0  0  0  0
   19.1520    8.8430   -2.5089 O   0  0  0  0  0  0  0  0  0  0  0  0
    2.6730    3.0482    3.0157 N   0  0  0  0  0  0  0  0  0  0  0  0
    3.6141    3.2753    2.4823 N   0  0  0  0  0  0  0  0  0  0  0  0
   13.6569    4.3444   -2.4047 C   0  0  0  0  0  0  0  0  0  0  0  0
   14.5711    3.7162   -1.9316 O   0  0  0  0  0  0  0  0  0  0  0  0
   13.7392    5.6400   -2.8559 O   0  0  0  0  0  0  0  0  0  0  0  0
   12.2481    3.8447   -2.5981 C   0  0  0  0  0  0  0  0  0  0  0  0
   12.1814    2.8163   -2.2459 H   0  0  0  0  0  0  0  0  0  0  0  0
   11.5472    4.4759   -2.0444 H   0  0  0  0  0  0  0  0  0  0  0  0
   11.9720    3.8986   -3.6551 H   0  0  0  0  0  0  0  0  0  0  0  0
  1  2  2  0  0  0  0
  1  6  1  0  0  0  0
  2  3  1  0  0  0  0
  3  4  2  0  0  0  0
  4  9  1  0  0  0  0
  5  4  1  0  0  0  0
  5 10  1  0  0  0  0
  6  5  2  0  0  0  0
  7  1  1  0  0  0  0
  8  2  1  0  0  0  0
 11  6  1  0  0  0  0
 11 13  2  0  0  0  0
 12 11  2  0  0  0  0
 15 14  3  0  0  0  0
 16 17  2  0  0  0  0
 18  3  1  0  0  0  0
 18 16  1  0  0  0  0
 19 16  1  0  0  0  0
 19 20  1  0  0  0  0
 19 21  1  0  0  0  0
 22 19  1  0  0  0  0
M  END
