Coordinates from ORCA-job 4-NO2-Ph-N2-OAc-B3LYPG-6-31G_dp-MTMO-d009-169-n750
 OpenBabel09051907553D

 22 21  0  0  0  0  0  0  0  0999 V2000
   15.0419    8.1349   -3.3109 C   0  0  0  0  0  0  0  0  0  0  0  0
   13.9389    7.3106   -3.1440 C   0  0  0  0  0  0  0  0  0  0  0  0
   14.0836    6.0544   -2.5383 C   0  0  0  0  0  0  0  0  0  0  0  0
   15.3351    5.6103   -2.0908 C   0  0  0  0  0  0  0  0  0  0  0  0
   16.4404    6.4416   -2.2608 C   0  0  0  0  0  0  0  0  0  0  0  0
   16.2855    7.6864   -2.8649 C   0  0  0  0  0  0  0  0  0  0  0  0
   14.9595    9.1091   -3.7751 H   0  0  0  0  0  0  0  0  0  0  0  0
   12.9540    7.6193   -3.4760 H   0  0  0  0  0  0  0  0  0  0  0  0
   15.4398    4.6403   -1.6314 H   0  0  0  0  0  0  0  0  0  0  0  0
   17.4235    6.1332   -1.9281 H   0  0  0  0  0  0  0  0  0  0  0  0
   17.4592    8.5504   -3.0373 N   0  0  0  0  0  0  0  0  0  0  0  0
   17.2870    9.6463   -3.5718 O   0  0  0  0  0  0  0  0  0  0  0  0
   18.5443    8.1285   -2.6378 O   0  0  0  0  0  0  0  0  0  0  0  0
   10.9728    7.7787    0.4054 N   0  0  0  0  0  0  0  0  0  0  0  0
   10.8968    6.7156    0.1134 N   0  0  0  0  0  0  0  0  0  0  0  0
   12.7648    4.0491   -2.0348 C   0  0  0  0  0  0  0  0  0  0  0  0
   13.6831    3.3312   -1.7270 O   0  0  0  0  0  0  0  0  0  0  0  0
   12.8894    5.3630   -2.4248 O   0  0  0  0  0  0  0  0  0  0  0  0
   11.3082    3.6657   -2.0554 C   0  0  0  0  0  0  0  0  0  0  0  0
   11.2101    2.6163   -1.7801 H   0  0  0  0  0  0  0  0  0  0  0  0
   10.7513    4.2920   -1.3529 H   0  0  0  0  0  0  0  0  0  0  0  0
   10.8878    3.8344   -3.0512 H   0  0  0  0  0  0  0  0  0  0  0  0
  1  2  2  0  0  0  0
  1  6  1  0  0  0  0
  2  3  1  0  0  0  0
  3 18  1  0  0  0  0
  3  4  2  0  0  0  0
  4  9  1  0  0  0  0
  5  4  1  0  0  0  0
  5 10  1  0  0  0  0
  6  5  2  0  0  0  0
  7  1  1  0  0  0  0
  8  2  1  0  0  0  0
 11  6  1  0  0  0  0
 11 13  2  0  0  0  0
 12 11  2  0  0  0  0
 15 14  3  0  0  0  0
 16 17  2  0  0  0  0
 18 16  1  0  0  0  0
 19 16  1  0  0  0  0
 19 20  1  0  0  0  0
 19 21  1  0  0  0  0
 22 19  1  0  0  0  0
M  END
