Coordinates from ORCA-job 4-NO2-Ph-N2-OAc-B3LYPG-6-31G_dp-MTMO-d009-169-n750
 OpenBabel09051907563D

 22 21  0  0  0  0  0  0  0  0999 V2000
   15.6471    8.5663   -3.4549 C   0  0  0  0  0  0  0  0  0  0  0  0
   14.6016    7.6564   -3.4004 C   0  0  0  0  0  0  0  0  0  0  0  0
   14.7890    6.4037   -2.7990 C   0  0  0  0  0  0  0  0  0  0  0  0
   16.0256    6.0481   -2.2444 C   0  0  0  0  0  0  0  0  0  0  0  0
   17.0731    6.9655   -2.3017 C   0  0  0  0  0  0  0  0  0  0  0  0
   16.8764    8.2062   -2.9018 C   0  0  0  0  0  0  0  0  0  0  0  0
   15.5311    9.5400   -3.9127 H   0  0  0  0  0  0  0  0  0  0  0  0
   13.6297    7.8945   -3.8177 H   0  0  0  0  0  0  0  0  0  0  0  0
   16.1628    5.0815   -1.7864 H   0  0  0  0  0  0  0  0  0  0  0  0
   18.0433    6.7272   -1.8845 H   0  0  0  0  0  0  0  0  0  0  0  0
   17.9897    9.1609   -2.9556 N   0  0  0  0  0  0  0  0  0  0  0  0
   17.7806   10.2513   -3.4883 O   0  0  0  0  0  0  0  0  0  0  0  0
   19.0648    8.8150   -2.4661 O   0  0  0  0  0  0  0  0  0  0  0  0
    3.5682    3.2884    2.6128 N   0  0  0  0  0  0  0  0  0  0  0  0
    4.5068    3.5172    2.0758 N   0  0  0  0  0  0  0  0  0  0  0  0
   13.5638    4.3235   -2.3606 C   0  0  0  0  0  0  0  0  0  0  0  0
   14.4749    3.6970   -1.8797 O   0  0  0  0  0  0  0  0  0  0  0  0
   13.6494    5.6167   -2.8179 O   0  0  0  0  0  0  0  0  0  0  0  0
   12.1556    3.8239   -2.5591 C   0  0  0  0  0  0  0  0  0  0  0  0
   12.0860    2.7976   -2.2011 H   0  0  0  0  0  0  0  0  0  0  0  0
   11.4519    4.4590   -2.0135 H   0  0  0  0  0  0  0  0  0  0  0  0
   11.8859    3.8715   -3.6181 H   0  0  0  0  0  0  0  0  0  0  0  0
  1  2  2  0  0  0  0
  1  6  1  0  0  0  0
  2  3  1  0  0  0  0
  3  4  2  0  0  0  0
  4  9  1  0  0  0  0
  5  4  1  0  0  0  0
  5 10  1  0  0  0  0
  6  5  2  0  0  0  0
  7  1  1  0  0  0  0
  8  2  1  0  0  0  0
 11  6  1  0  0  0  0
 11 13  2  0  0  0  0
 12 11  2  0  0  0  0
 15 14  3  0  0  0  0
 16 17  2  0  0  0  0
 18  3  1  0  0  0  0
 18 16  1  0  0  0  0
 19 16  1  0  0  0  0
 19 20  1  0  0  0  0
 19 21  1  0  0  0  0
 22 19  1  0  0  0  0
M  END
