Coordinates from ORCA-job 4-NO2-Ph-N2-OAc-B3LYPG-6-31G_dp-MTMO-d009-169-n750
 OpenBabel09051907553D

 22 21  0  0  0  0  0  0  0  0999 V2000
   15.0108    8.1459   -3.2619 C   0  0  0  0  0  0  0  0  0  0  0  0
   13.9120    7.3153   -3.0982 C   0  0  0  0  0  0  0  0  0  0  0  0
   14.0679    6.0463   -2.5226 C   0  0  0  0  0  0  0  0  0  0  0  0
   15.3264    5.5955   -2.1024 C   0  0  0  0  0  0  0  0  0  0  0  0
   16.4273    6.4333   -2.2691 C   0  0  0  0  0  0  0  0  0  0  0  0
   16.2614    7.6908   -2.8431 C   0  0  0  0  0  0  0  0  0  0  0  0
   14.9198    9.1298   -3.7033 H   0  0  0  0  0  0  0  0  0  0  0  0
   12.9221    7.6289   -3.4098 H   0  0  0  0  0  0  0  0  0  0  0  0
   15.4392    4.6164   -1.6648 H   0  0  0  0  0  0  0  0  0  0  0  0
   17.4156    6.1200   -1.9568 H   0  0  0  0  0  0  0  0  0  0  0  0
   17.4308    8.5613   -3.0125 N   0  0  0  0  0  0  0  0  0  0  0  0
   17.2491    9.6676   -3.5219 O   0  0  0  0  0  0  0  0  0  0  0  0
   18.5218    8.1340   -2.6358 O   0  0  0  0  0  0  0  0  0  0  0  0
   11.2021    7.8384    0.1643 N   0  0  0  0  0  0  0  0  0  0  0  0
   11.0143    6.7598    0.0139 N   0  0  0  0  0  0  0  0  0  0  0  0
   12.7556    4.0354   -2.0190 C   0  0  0  0  0  0  0  0  0  0  0  0
   13.6749    3.3223   -1.7030 O   0  0  0  0  0  0  0  0  0  0  0  0
   12.8769    5.3483   -2.4134 O   0  0  0  0  0  0  0  0  0  0  0  0
   11.3008    3.6455   -2.0474 C   0  0  0  0  0  0  0  0  0  0  0  0
   11.2048    2.5994   -1.7594 H   0  0  0  0  0  0  0  0  0  0  0  0
   10.7342    4.2785   -1.3588 H   0  0  0  0  0  0  0  0  0  0  0  0
   10.8894    3.7987   -3.0495 H   0  0  0  0  0  0  0  0  0  0  0  0
  1  2  2  0  0  0  0
  1  6  1  0  0  0  0
  2  3  1  0  0  0  0
  3 18  1  0  0  0  0
  3  4  2  0  0  0  0
  4  9  1  0  0  0  0
  5  4  1  0  0  0  0
  5 10  1  0  0  0  0
  6  5  2  0  0  0  0
  7  1  1  0  0  0  0
  8  2  1  0  0  0  0
 11  6  1  0  0  0  0
 11 13  2  0  0  0  0
 12 11  2  0  0  0  0
 15 14  3  0  0  0  0
 16 17  2  0  0  0  0
 18 16  1  0  0  0  0
 19 16  1  0  0  0  0
 19 20  1  0  0  0  0
 19 21  1  0  0  0  0
 22 19  1  0  0  0  0
M  END
