Coordinates from ORCA-job 4-NO2-Ph-N2-OAc-B3LYPG-6-31G_dp-MTMO-d009-169-n750
 OpenBabel09051907553D

 22 22  0  0  0  0  0  0  0  0999 V2000
   15.1432    8.6366   -3.0200 C   0  0  0  0  0  0  0  0  0  0  0  0
   13.9538    8.4894   -2.3130 C   0  0  0  0  0  0  0  0  0  0  0  0
   13.7479    7.3269   -1.5681 C   0  0  0  0  0  0  0  0  0  0  0  0
   14.7233    6.3303   -1.4603 C   0  0  0  0  0  0  0  0  0  0  0  0
   15.9214    6.4912   -2.1479 C   0  0  0  0  0  0  0  0  0  0  0  0
   16.1075    7.6353   -2.9233 C   0  0  0  0  0  0  0  0  0  0  0  0
   15.3408    9.5113   -3.6265 H   0  0  0  0  0  0  0  0  0  0  0  0
   13.1882    9.2569   -2.3420 H   0  0  0  0  0  0  0  0  0  0  0  0
   14.5408    5.4574   -0.8427 H   0  0  0  0  0  0  0  0  0  0  0  0
   16.7079    5.7485   -2.0966 H   0  0  0  0  0  0  0  0  0  0  0  0
   17.3748    7.7978   -3.6573 N   0  0  0  0  0  0  0  0  0  0  0  0
   17.5127    8.8163   -4.3325 O   0  0  0  0  0  0  0  0  0  0  0  0
   18.2127    6.9048   -3.5482 O   0  0  0  0  0  0  0  0  0  0  0  0
   12.5359    7.2443   -0.7667 N   0  0  0  0  0  0  0  0  0  0  0  0
   11.7277    6.3558   -0.7775 N   0  0  0  0  0  0  0  0  0  0  0  0
   12.1555    4.0827   -1.4827 C   0  0  0  0  0  0  0  0  0  0  0  0
   12.5510    3.8498   -0.3606 O   0  0  0  0  0  0  0  0  0  0  0  0
   11.9465    5.3345   -1.9546 O   0  0  0  0  0  0  0  0  0  0  0  0
   11.8562    3.0479   -2.5442 C   0  0  0  0  0  0  0  0  0  0  0  0
   10.7718    2.9584   -2.6637 H   0  0  0  0  0  0  0  0  0  0  0  0
   12.2698    3.3484   -3.5100 H   0  0  0  0  0  0  0  0  0  0  0  0
   12.2680    2.0869   -2.2364 H   0  0  0  0  0  0  0  0  0  0  0  0
  1  6  2  0  0  0  0
  1  2  1  0  0  0  0
  2  3  2  0  0  0  0
  3  4  1  0  0  0  0
  3 14  1  0  0  0  0
  4  9  1  0  0  0  0
  5 10  1  0  0  0  0
  5  4  2  0  0  0  0
  6  5  1  0  0  0  0
  7  1  1  0  0  0  0
  8  2  1  0  0  0  0
 11 13  2  0  0  0  0
 11  6  1  0  0  0  0
 12 11  2  0  0  0  0
 15 14  1  0  0  0  0
 16 17  2  0  0  0  0
 18 16  1  0  0  0  0
 18 15  1  0  0  0  0
 19 22  1  0  0  0  0
 19 16  1  0  0  0  0
 20 19  1  0  0  0  0
 21 19  1  0  0  0  0
M  RAD  2  14   2  15   2
M  END
