Coordinates from ORCA-job 4-NO2-Ph-N2-OAc-B3LYPG-6-31G_dp-MTMO-d009-169-n750
 OpenBabel09051907563D

 22 21  0  0  0  0  0  0  0  0999 V2000
   15.6183    8.5571   -3.4425 C   0  0  0  0  0  0  0  0  0  0  0  0
   14.5720    7.6482   -3.3879 C   0  0  0  0  0  0  0  0  0  0  0  0
   14.7580    6.3959   -2.7853 C   0  0  0  0  0  0  0  0  0  0  0  0
   15.9941    6.0397   -2.2297 C   0  0  0  0  0  0  0  0  0  0  0  0
   17.0423    6.9562   -2.2871 C   0  0  0  0  0  0  0  0  0  0  0  0
   16.8470    8.1966   -2.8884 C   0  0  0  0  0  0  0  0  0  0  0  0
   15.5034    9.5306   -3.9013 H   0  0  0  0  0  0  0  0  0  0  0  0
   13.6006    7.8867   -3.8060 H   0  0  0  0  0  0  0  0  0  0  0  0
   16.1301    5.0734   -1.7706 H   0  0  0  0  0  0  0  0  0  0  0  0
   18.0121    6.7174   -1.8692 H   0  0  0  0  0  0  0  0  0  0  0  0
   17.9611    9.1503   -2.9424 N   0  0  0  0  0  0  0  0  0  0  0  0
   17.7533   10.2403   -3.4762 O   0  0  0  0  0  0  0  0  0  0  0  0
   19.0356    8.8040   -2.4520 O   0  0  0  0  0  0  0  0  0  0  0  0
    3.8794    3.3670    2.4732 N   0  0  0  0  0  0  0  0  0  0  0  0
    4.8157    3.5969    1.9326 N   0  0  0  0  0  0  0  0  0  0  0  0
   13.5303    4.3177   -2.3440 C   0  0  0  0  0  0  0  0  0  0  0  0
   14.4400    3.6917   -1.8596 O   0  0  0  0  0  0  0  0  0  0  0  0
   13.6179    5.6097   -2.8044 O   0  0  0  0  0  0  0  0  0  0  0  0
   12.1222    3.8187   -2.5442 C   0  0  0  0  0  0  0  0  0  0  0  0
   12.0507    2.7938   -2.1828 H   0  0  0  0  0  0  0  0  0  0  0  0
   11.4177    4.4564   -2.0027 H   0  0  0  0  0  0  0  0  0  0  0  0
   11.8552    3.8628   -3.6041 H   0  0  0  0  0  0  0  0  0  0  0  0
  1  2  2  0  0  0  0
  1  6  1  0  0  0  0
  2  3  1  0  0  0  0
  3  4  2  0  0  0  0
  4  9  1  0  0  0  0
  5  4  1  0  0  0  0
  5 10  1  0  0  0  0
  6  5  2  0  0  0  0
  7  1  1  0  0  0  0
  8  2  1  0  0  0  0
 11  6  1  0  0  0  0
 11 13  2  0  0  0  0
 12 11  2  0  0  0  0
 15 14  3  0  0  0  0
 16 17  2  0  0  0  0
 18  3  1  0  0  0  0
 18 16  1  0  0  0  0
 19 16  1  0  0  0  0
 19 20  1  0  0  0  0
 19 21  1  0  0  0  0
 22 19  1  0  0  0  0
M  END
