Coordinates from ORCA-job 4-NO2-Ph-N2-OAc-B3LYPG-6-31G_dp-MTMO-d009-169-n750
 OpenBabel09051907553D

 22 22  0  0  0  0  0  0  0  0999 V2000
   15.1614    8.4481   -3.1811 C   0  0  0  0  0  0  0  0  0  0  0  0
   13.9615    8.0037   -2.7087 C   0  0  0  0  0  0  0  0  0  0  0  0
   13.8557    6.8756   -1.6989 C   0  0  0  0  0  0  0  0  0  0  0  0
   15.2216    6.3115   -1.3520 C   0  0  0  0  0  0  0  0  0  0  0  0
   16.3686    6.8086   -1.8941 C   0  0  0  0  0  0  0  0  0  0  0  0
   16.3794    7.8769   -2.7995 C   0  0  0  0  0  0  0  0  0  0  0  0
   15.1702    9.2752   -3.8846 H   0  0  0  0  0  0  0  0  0  0  0  0
   13.0035    8.4338   -2.9726 H   0  0  0  0  0  0  0  0  0  0  0  0
   15.1681    5.4616   -0.6859 H   0  0  0  0  0  0  0  0  0  0  0  0
   17.3140    6.3577   -1.6089 H   0  0  0  0  0  0  0  0  0  0  0  0
   17.6132    8.3719   -3.3297 N   0  0  0  0  0  0  0  0  0  0  0  0
   17.5659    9.3162   -4.1314 O   0  0  0  0  0  0  0  0  0  0  0  0
   18.6648    7.8306   -2.9598 O   0  0  0  0  0  0  0  0  0  0  0  0
   13.0591    6.5733   -1.3482 N   0  0  0  0  0  0  0  0  0  0  0  0
   12.0005    6.2550   -0.8189 N   0  0  0  0  0  0  0  0  0  0  0  0
   11.9922    4.0394   -1.7655 C   0  0  0  0  0  0  0  0  0  0  0  0
   13.1304    3.8758   -1.4091 O   0  0  0  0  0  0  0  0  0  0  0  0
   11.3169    5.2433   -1.6276 O   0  0  0  0  0  0  0  0  0  0  0  0
   11.0751    3.0252   -2.3936 C   0  0  0  0  0  0  0  0  0  0  0  0
   10.3584    2.6772   -1.6429 H   0  0  0  0  0  0  0  0  0  0  0  0
   10.5085    3.4688   -3.2153 H   0  0  0  0  0  0  0  0  0  0  0  0
   11.6682    2.1819   -2.7465 H   0  0  0  0  0  0  0  0  0  0  0  0
  1  6  2  0  0  0  0
  1  2  1  0  0  0  0
  2  3  2  0  0  0  0
  3  4  1  0  0  0  0
  3 14  1  0  0  0  0
  4  9  1  0  0  0  0
  5 10  1  0  0  0  0
  5  4  2  0  0  0  0
  6  5  1  0  0  0  0
  7  1  1  0  0  0  0
  8  2  1  0  0  0  0
 11 13  2  0  0  0  0
 11  6  1  0  0  0  0
 12 11  2  0  0  0  0
 14 15  1  0  0  0  0
 16 18  1  0  0  0  0
 16 17  2  0  0  0  0
 18 15  1  0  0  0  0
 19 16  1  0  0  0  0
 19 20  1  0  0  0  0
 21 19  1  0  0  0  0
 22 19  1  0  0  0  0
M  RAD  2  14   2  15   2
M  END
