Coordinates from ORCA-job 4-NO2-Ph-N2-OAc-B3LYPG-6-31G_dp-MTMO-d009-169-n750
 OpenBabel09051907563D

 22 21  0  0  0  0  0  0  0  0999 V2000
   15.5394    8.5327   -3.4083 C   0  0  0  0  0  0  0  0  0  0  0  0
   14.4926    7.6241   -3.3563 C   0  0  0  0  0  0  0  0  0  0  0  0
   14.6758    6.3727   -2.7509 C   0  0  0  0  0  0  0  0  0  0  0  0
   15.9096    6.0172   -2.1898 C   0  0  0  0  0  0  0  0  0  0  0  0
   16.9583    6.9333   -2.2446 C   0  0  0  0  0  0  0  0  0  0  0  0
   16.7657    8.1727   -2.8487 C   0  0  0  0  0  0  0  0  0  0  0  0
   15.4265    9.5054   -3.8692 H   0  0  0  0  0  0  0  0  0  0  0  0
   13.5229    7.8621   -3.7788 H   0  0  0  0  0  0  0  0  0  0  0  0
   16.0434    5.0518   -1.7282 H   0  0  0  0  0  0  0  0  0  0  0  0
   17.9264    6.6950   -1.8225 H   0  0  0  0  0  0  0  0  0  0  0  0
   17.8803    9.1260   -2.9000 N   0  0  0  0  0  0  0  0  0  0  0  0
   17.6749   10.2152   -3.4365 O   0  0  0  0  0  0  0  0  0  0  0  0
   18.9528    8.7802   -2.4048 O   0  0  0  0  0  0  0  0  0  0  0  0
    4.7142    3.5982    2.1220 N   0  0  0  0  0  0  0  0  0  0  0  0
    5.6366    3.8194    1.5545 N   0  0  0  0  0  0  0  0  0  0  0  0
   13.4438    4.2981   -2.3049 C   0  0  0  0  0  0  0  0  0  0  0  0
   14.3485    3.6759   -1.8066 O   0  0  0  0  0  0  0  0  0  0  0  0
   13.5359    5.5864   -2.7746 O   0  0  0  0  0  0  0  0  0  0  0  0
   12.0377    3.7974   -2.5154 C   0  0  0  0  0  0  0  0  0  0  0  0
   11.9625    2.7754   -2.1464 H   0  0  0  0  0  0  0  0  0  0  0  0
   11.3276    4.4393   -1.9864 H   0  0  0  0  0  0  0  0  0  0  0  0
   11.7817    3.8327   -3.5782 H   0  0  0  0  0  0  0  0  0  0  0  0
  1  2  2  0  0  0  0
  1  6  1  0  0  0  0
  2  3  1  0  0  0  0
  3  4  2  0  0  0  0
  4  9  1  0  0  0  0
  5  4  1  0  0  0  0
  5 10  1  0  0  0  0
  6  5  2  0  0  0  0
  7  1  1  0  0  0  0
  8  2  1  0  0  0  0
 11  6  1  0  0  0  0
 11 13  2  0  0  0  0
 12 11  2  0  0  0  0
 15 14  3  0  0  0  0
 16 17  2  0  0  0  0
 18  3  1  0  0  0  0
 18 16  1  0  0  0  0
 19 16  1  0  0  0  0
 19 20  1  0  0  0  0
 19 21  1  0  0  0  0
 22 19  1  0  0  0  0
M  END
