Coordinates from ORCA-job 4-NO2-Ph-N2-OAc-B3LYPG-6-31G_dp-MTMO-d009-169-n750
 OpenBabel09051907553D

 22 21  0  0  0  0  0  0  0  0999 V2000
   14.9972    8.1504   -3.2388 C   0  0  0  0  0  0  0  0  0  0  0  0
   13.9009    7.3159   -3.0782 C   0  0  0  0  0  0  0  0  0  0  0  0
   14.0625    6.0401   -2.5192 C   0  0  0  0  0  0  0  0  0  0  0  0
   15.3245    5.5863   -2.1127 C   0  0  0  0  0  0  0  0  0  0  0  0
   16.4229    6.4281   -2.2761 C   0  0  0  0  0  0  0  0  0  0  0  0
   16.2512    7.6922   -2.8335 C   0  0  0  0  0  0  0  0  0  0  0  0
   14.9017    9.1394   -3.6675 H   0  0  0  0  0  0  0  0  0  0  0  0
   12.9084    7.6317   -3.3795 H   0  0  0  0  0  0  0  0  0  0  0  0
   15.4414    4.6025   -1.6870 H   0  0  0  0  0  0  0  0  0  0  0  0
   17.4136    6.1127   -1.9740 H   0  0  0  0  0  0  0  0  0  0  0  0
   17.4180    8.5669   -2.9995 N   0  0  0  0  0  0  0  0  0  0  0  0
   17.2314    9.6786   -3.4950 O   0  0  0  0  0  0  0  0  0  0  0  0
   18.5120    8.1372   -2.6342 O   0  0  0  0  0  0  0  0  0  0  0  0
   11.2894    7.8719    0.0669 N   0  0  0  0  0  0  0  0  0  0  0  0
   11.0617    6.7948   -0.0287 N   0  0  0  0  0  0  0  0  0  0  0  0
   12.7530    4.0276   -2.0125 C   0  0  0  0  0  0  0  0  0  0  0  0
   13.6724    3.3174   -1.6904 O   0  0  0  0  0  0  0  0  0  0  0  0
   12.8733    5.3386   -2.4131 O   0  0  0  0  0  0  0  0  0  0  0  0
   11.2988    3.6353   -2.0434 C   0  0  0  0  0  0  0  0  0  0  0  0
   11.2032    2.5918   -1.7457 H   0  0  0  0  0  0  0  0  0  0  0  0
   10.7279    4.2742   -1.3638 H   0  0  0  0  0  0  0  0  0  0  0  0
   10.8918    3.7778   -3.0488 H   0  0  0  0  0  0  0  0  0  0  0  0
  1  2  2  0  0  0  0
  1  6  1  0  0  0  0
  2  3  1  0  0  0  0
  3 18  1  0  0  0  0
  3  4  2  0  0  0  0
  4  9  1  0  0  0  0
  5  4  1  0  0  0  0
  5 10  1  0  0  0  0
  6  5  2  0  0  0  0
  7  1  1  0  0  0  0
  8  2  1  0  0  0  0
 11  6  1  0  0  0  0
 11 13  2  0  0  0  0
 12 11  2  0  0  0  0
 15 14  3  0  0  0  0
 16 17  2  0  0  0  0
 18 16  1  0  0  0  0
 19 16  1  0  0  0  0
 19 20  1  0  0  0  0
 19 21  1  0  0  0  0
 22 19  1  0  0  0  0
M  END
