Coordinates from ORCA-job 4-NO2-Ph-N2-OAc-B3LYPG-6-31G_dp-MTMO-d009-169-n750
 OpenBabel09051907563D

 22 21  0  0  0  0  0  0  0  0999 V2000
   15.2751    8.4320   -3.3105 C   0  0  0  0  0  0  0  0  0  0  0  0
   14.2087    7.5497   -3.2202 C   0  0  0  0  0  0  0  0  0  0  0  0
   14.3777    6.3011   -2.6049 C   0  0  0  0  0  0  0  0  0  0  0  0
   15.6172    5.9222   -2.0722 C   0  0  0  0  0  0  0  0  0  0  0  0
   16.6857    6.8119   -2.1655 C   0  0  0  0  0  0  0  0  0  0  0  0
   16.5069    8.0488   -2.7790 C   0  0  0  0  0  0  0  0  0  0  0  0
   15.1732    9.4019   -3.7797 H   0  0  0  0  0  0  0  0  0  0  0  0
   13.2341    7.8063   -3.6200 H   0  0  0  0  0  0  0  0  0  0  0  0
   15.7400    4.9589   -1.6032 H   0  0  0  0  0  0  0  0  0  0  0  0
   17.6586    6.5549   -1.7660 H   0  0  0  0  0  0  0  0  0  0  0  0
   17.6422    8.9742   -2.8706 N   0  0  0  0  0  0  0  0  0  0  0  0
   17.4488   10.0619   -3.4146 O   0  0  0  0  0  0  0  0  0  0  0  0
   18.7188    8.6082   -2.3994 O   0  0  0  0  0  0  0  0  0  0  0  0
    7.6652    4.4524    0.7666 N   0  0  0  0  0  0  0  0  0  0  0  0
    8.5776    4.5524    0.1510 N   0  0  0  0  0  0  0  0  0  0  0  0
   13.1098    4.2600   -2.1067 C   0  0  0  0  0  0  0  0  0  0  0  0
   14.0152    3.6203   -1.6321 O   0  0  0  0  0  0  0  0  0  0  0  0
   13.2188    5.5430   -2.5886 O   0  0  0  0  0  0  0  0  0  0  0  0
   11.6855    3.7932   -2.2624 C   0  0  0  0  0  0  0  0  0  0  0  0
   11.6224    2.7420   -1.9833 H   0  0  0  0  0  0  0  0  0  0  0  0
   11.0252    4.3833   -1.6195 H   0  0  0  0  0  0  0  0  0  0  0  0
   11.3503    3.9328   -3.2938 H   0  0  0  0  0  0  0  0  0  0  0  0
  1  2  2  0  0  0  0
  1  6  1  0  0  0  0
  2  3  1  0  0  0  0
  3 18  1  0  0  0  0
  3  4  2  0  0  0  0
  4  9  1  0  0  0  0
  5  4  1  0  0  0  0
  5 10  1  0  0  0  0
  6  5  2  0  0  0  0
  7  1  1  0  0  0  0
  8  2  1  0  0  0  0
 11  6  1  0  0  0  0
 11 13  2  0  0  0  0
 12 11  2  0  0  0  0
 15 14  3  0  0  0  0
 16 17  2  0  0  0  0
 18 16  1  0  0  0  0
 19 16  1  0  0  0  0
 19 20  1  0  0  0  0
 19 21  1  0  0  0  0
 22 19  1  0  0  0  0
M  END
