Coordinates from ORCA-job 4-NO2-Ph-N2-OAc-B3LYPG-6-31G_dp-MTMO-d009-169-n750
 OpenBabel09051907563D

 22 21  0  0  0  0  0  0  0  0999 V2000
   15.1732    8.1337   -3.4178 C   0  0  0  0  0  0  0  0  0  0  0  0
   14.0557    7.3343   -3.2285 C   0  0  0  0  0  0  0  0  0  0  0  0
   14.1804    6.0857   -2.6026 C   0  0  0  0  0  0  0  0  0  0  0  0
   15.4268    5.6242   -2.1583 C   0  0  0  0  0  0  0  0  0  0  0  0
   16.5467    6.4308   -2.3506 C   0  0  0  0  0  0  0  0  0  0  0  0
   16.4114    7.6684   -2.9737 C   0  0  0  0  0  0  0  0  0  0  0  0
   15.1061    9.1015   -3.8975 H   0  0  0  0  0  0  0  0  0  0  0  0
   13.0744    7.6567   -3.5580 H   0  0  0  0  0  0  0  0  0  0  0  0
   15.5159    4.6601   -1.6832 H   0  0  0  0  0  0  0  0  0  0  0  0
   17.5262    6.1084   -2.0207 H   0  0  0  0  0  0  0  0  0  0  0  0
   17.6001    8.5063   -3.1693 N   0  0  0  0  0  0  0  0  0  0  0  0
   17.4449    9.5965   -3.7205 O   0  0  0  0  0  0  0  0  0  0  0  0
   18.6800    8.0698   -2.7715 O   0  0  0  0  0  0  0  0  0  0  0  0
    9.8797    7.3667    1.0928 N   0  0  0  0  0  0  0  0  0  0  0  0
   10.1001    6.4871    0.4613 N   0  0  0  0  0  0  0  0  0  0  0  0
   12.8178    4.1345   -2.0074 C   0  0  0  0  0  0  0  0  0  0  0  0
   13.7176    3.4140   -1.6536 O   0  0  0  0  0  0  0  0  0  0  0  0
   12.9740    5.4192   -2.4733 O   0  0  0  0  0  0  0  0  0  0  0  0
   11.3522    3.7859   -2.0096 C   0  0  0  0  0  0  0  0  0  0  0  0
   11.2294    2.7538   -1.6834 H   0  0  0  0  0  0  0  0  0  0  0  0
   10.8104    4.4578   -1.3375 H   0  0  0  0  0  0  0  0  0  0  0  0
   10.9343    3.9159   -3.0120 H   0  0  0  0  0  0  0  0  0  0  0  0
  1  2  2  0  0  0  0
  1  6  1  0  0  0  0
  2  3  1  0  0  0  0
  3 18  1  0  0  0  0
  3  4  2  0  0  0  0
  4  9  1  0  0  0  0
  5  4  1  0  0  0  0
  5 10  1  0  0  0  0
  6  5  2  0  0  0  0
  7  1  1  0  0  0  0
  8  2  1  0  0  0  0
 11  6  1  0  0  0  0
 11 13  2  0  0  0  0
 12 11  2  0  0  0  0
 15 14  3  0  0  0  0
 16 17  2  0  0  0  0
 18 16  1  0  0  0  0
 19 16  1  0  0  0  0
 19 20  1  0  0  0  0
 19 21  1  0  0  0  0
 22 19  1  0  0  0  0
M  END
