Coordinates from ORCA-job 4-NO2-Ph-N2-OAc-B3LYPG-6-31G_dp-MTMO-d009-169-n750
 OpenBabel09051907553D

 22 21  0  0  0  0  0  0  0  0999 V2000
   15.0860    8.1207   -3.3911 C   0  0  0  0  0  0  0  0  0  0  0  0
   13.9788    7.3009   -3.2301 C   0  0  0  0  0  0  0  0  0  0  0  0
   14.1073    6.0614   -2.5872 C   0  0  0  0  0  0  0  0  0  0  0  0
   15.3471    5.6294   -2.0972 C   0  0  0  0  0  0  0  0  0  0  0  0
   16.4567    6.4561   -2.2616 C   0  0  0  0  0  0  0  0  0  0  0  0
   16.3178    7.6845   -2.9021 C   0  0  0  0  0  0  0  0  0  0  0  0
   15.0158    9.0821   -3.8830 H   0  0  0  0  0  0  0  0  0  0  0  0
   13.0028    7.6002   -3.5952 H   0  0  0  0  0  0  0  0  0  0  0  0
   15.4393    4.6723   -1.6088 H   0  0  0  0  0  0  0  0  0  0  0  0
   17.4311    6.1565   -1.8966 H   0  0  0  0  0  0  0  0  0  0  0  0
   17.4960    8.5435   -3.0684 N   0  0  0  0  0  0  0  0  0  0  0  0
   17.3374    9.6253   -3.6350 O   0  0  0  0  0  0  0  0  0  0  0  0
   18.5709    8.1317   -2.6326 O   0  0  0  0  0  0  0  0  0  0  0  0
   10.7052    7.5857    0.8424 N   0  0  0  0  0  0  0  0  0  0  0  0
   10.7603    6.6442    0.2667 N   0  0  0  0  0  0  0  0  0  0  0  0
   12.7648    4.0883   -2.0186 C   0  0  0  0  0  0  0  0  0  0  0  0
   13.6652    3.3936   -1.6180 O   0  0  0  0  0  0  0  0  0  0  0  0
   12.9107    5.3715   -2.4925 O   0  0  0  0  0  0  0  0  0  0  0  0
   11.3094    3.7044   -2.0800 C   0  0  0  0  0  0  0  0  0  0  0  0
   11.1970    2.6724   -1.7499 H   0  0  0  0  0  0  0  0  0  0  0  0
   10.7266    4.3692   -1.4362 H   0  0  0  0  0  0  0  0  0  0  0  0
   10.9311    3.8174   -3.0999 H   0  0  0  0  0  0  0  0  0  0  0  0
  1  2  2  0  0  0  0
  1  6  1  0  0  0  0
  2  3  1  0  0  0  0
  3 18  1  0  0  0  0
  3  4  2  0  0  0  0
  4  9  1  0  0  0  0
  5  4  1  0  0  0  0
  5 10  1  0  0  0  0
  6  5  2  0  0  0  0
  7  1  1  0  0  0  0
  8  2  1  0  0  0  0
 11  6  1  0  0  0  0
 11 13  2  0  0  0  0
 12 11  2  0  0  0  0
 15 14  3  0  0  0  0
 16 17  2  0  0  0  0
 18 16  1  0  0  0  0
 19 16  1  0  0  0  0
 19 20  1  0  0  0  0
 19 21  1  0  0  0  0
 22 19  1  0  0  0  0
M  END
