Coordinates from ORCA-job 4-NO2-Ph-N2-OAc-B3LYPG-6-31G_dp-MTMO-d009-169-n750
 OpenBabel09051907563D

 22 21  0  0  0  0  0  0  0  0999 V2000
   15.1814    8.1342   -3.4229 C   0  0  0  0  0  0  0  0  0  0  0  0
   14.0627    7.3370   -3.2311 C   0  0  0  0  0  0  0  0  0  0  0  0
   14.1861    6.0888   -2.6042 C   0  0  0  0  0  0  0  0  0  0  0  0
   15.4323    5.6254   -2.1613 C   0  0  0  0  0  0  0  0  0  0  0  0
   16.5534    6.4297   -2.3560 C   0  0  0  0  0  0  0  0  0  0  0  0
   16.4194    7.6670   -2.9802 C   0  0  0  0  0  0  0  0  0  0  0  0
   15.1154    9.1017   -3.9033 H   0  0  0  0  0  0  0  0  0  0  0  0
   13.0815    7.6609   -3.5593 H   0  0  0  0  0  0  0  0  0  0  0  0
   15.5204    4.6616   -1.6854 H   0  0  0  0  0  0  0  0  0  0  0  0
   17.5329    6.1058   -2.0273 H   0  0  0  0  0  0  0  0  0  0  0  0
   17.6094    8.5025   -3.1784 N   0  0  0  0  0  0  0  0  0  0  0  0
   17.4554    9.5925   -3.7304 O   0  0  0  0  0  0  0  0  0  0  0  0
   18.6891    8.0644   -2.7818 O   0  0  0  0  0  0  0  0  0  0  0  0
    9.8110    7.3357    1.1169 N   0  0  0  0  0  0  0  0  0  0  0  0
   10.0524    6.4680    0.4766 N   0  0  0  0  0  0  0  0  0  0  0  0
   12.8209    4.1406   -2.0050 C   0  0  0  0  0  0  0  0  0  0  0  0
   13.7199    3.4188   -1.6521 O   0  0  0  0  0  0  0  0  0  0  0  0
   12.9786    5.4246   -2.4724 O   0  0  0  0  0  0  0  0  0  0  0  0
   11.3545    3.7949   -2.0040 C   0  0  0  0  0  0  0  0  0  0  0  0
   11.2306    2.7623   -1.6802 H   0  0  0  0  0  0  0  0  0  0  0  0
   10.8161    4.4660   -1.3283 H   0  0  0  0  0  0  0  0  0  0  0  0
   10.9337    3.9287   -3.0048 H   0  0  0  0  0  0  0  0  0  0  0  0
  1  2  2  0  0  0  0
  1  6  1  0  0  0  0
  2  3  1  0  0  0  0
  3 18  1  0  0  0  0
  3  4  2  0  0  0  0
  4  9  1  0  0  0  0
  5  4  1  0  0  0  0
  5 10  1  0  0  0  0
  6  5  2  0  0  0  0
  7  1  1  0  0  0  0
  8  2  1  0  0  0  0
 11  6  1  0  0  0  0
 11 13  2  0  0  0  0
 12 11  2  0  0  0  0
 15 14  3  0  0  0  0
 16 19  1  0  0  0  0
 16 17  2  0  0  0  0
 18 16  1  0  0  0  0
 19 20  1  0  0  0  0
 19 21  1  0  0  0  0
 22 19  1  0  0  0  0
M  END
