Coordinates from ORCA-job 4-NO2-Ph-N2-OAc-B3LYPG-6-31G_dp-MTMO-d009-169-n750
 OpenBabel09051907563D

 22 21  0  0  0  0  0  0  0  0999 V2000
   15.5970    8.5506   -3.4333 C   0  0  0  0  0  0  0  0  0  0  0  0
   14.5505    7.6419   -3.3790 C   0  0  0  0  0  0  0  0  0  0  0  0
   14.7358    6.3898   -2.7758 C   0  0  0  0  0  0  0  0  0  0  0  0
   15.9713    6.0336   -2.2190 C   0  0  0  0  0  0  0  0  0  0  0  0
   17.0198    6.9499   -2.2761 C   0  0  0  0  0  0  0  0  0  0  0  0
   16.8252    8.1900   -2.8780 C   0  0  0  0  0  0  0  0  0  0  0  0
   15.4826    9.5239   -3.8925 H   0  0  0  0  0  0  0  0  0  0  0  0
   13.5794    7.8804   -3.7980 H   0  0  0  0  0  0  0  0  0  0  0  0
   16.1067    5.0675   -1.7593 H   0  0  0  0  0  0  0  0  0  0  0  0
   17.9892    6.7110   -1.8573 H   0  0  0  0  0  0  0  0  0  0  0  0
   17.9396    9.1434   -2.9315 N   0  0  0  0  0  0  0  0  0  0  0  0
   17.7324   10.2333   -3.4660 O   0  0  0  0  0  0  0  0  0  0  0  0
   19.0136    8.7971   -2.4402 O   0  0  0  0  0  0  0  0  0  0  0  0
    4.1046    3.4278    2.3754 N   0  0  0  0  0  0  0  0  0  0  0  0
    5.0385    3.6569    1.8305 N   0  0  0  0  0  0  0  0  0  0  0  0
   13.5068    4.3126   -2.3330 C   0  0  0  0  0  0  0  0  0  0  0  0
   14.4152    3.6874   -1.8454 O   0  0  0  0  0  0  0  0  0  0  0  0
   13.5956    5.6037   -2.7957 O   0  0  0  0  0  0  0  0  0  0  0  0
   12.0990    3.8135   -2.5354 C   0  0  0  0  0  0  0  0  0  0  0  0
   12.0263    2.7895   -2.1718 H   0  0  0  0  0  0  0  0  0  0  0  0
   11.3933    4.4526   -1.9973 H   0  0  0  0  0  0  0  0  0  0  0  0
   11.8347    3.8550   -3.5960 H   0  0  0  0  0  0  0  0  0  0  0  0
  1  2  2  0  0  0  0
  1  6  1  0  0  0  0
  2  3  1  0  0  0  0
  3  4  2  0  0  0  0
  4  9  1  0  0  0  0
  5  4  1  0  0  0  0
  5 10  1  0  0  0  0
  6  5  2  0  0  0  0
  7  1  1  0  0  0  0
  8  2  1  0  0  0  0
 11  6  1  0  0  0  0
 11 13  2  0  0  0  0
 12 11  2  0  0  0  0
 15 14  3  0  0  0  0
 16 17  2  0  0  0  0
 18  3  1  0  0  0  0
 18 16  1  0  0  0  0
 19 16  1  0  0  0  0
 19 20  1  0  0  0  0
 19 21  1  0  0  0  0
 22 19  1  0  0  0  0
M  END
