Coordinates from ORCA-job 4-NO2-Ph-N2-OAc-B3LYPG-6-31G_dp-MTMO-d009-169-n750
 OpenBabel09051907563D

 22 21  0  0  0  0  0  0  0  0999 V2000
   15.4563    8.5022   -3.3712 C   0  0  0  0  0  0  0  0  0  0  0  0
   14.3763    7.6416   -3.2410 C   0  0  0  0  0  0  0  0  0  0  0  0
   14.5430    6.3896   -2.6324 C   0  0  0  0  0  0  0  0  0  0  0  0
   15.7934    5.9851   -2.1464 C   0  0  0  0  0  0  0  0  0  0  0  0
   16.8755    6.8531   -2.2794 C   0  0  0  0  0  0  0  0  0  0  0  0
   16.6990    8.0937   -2.8859 C   0  0  0  0  0  0  0  0  0  0  0  0
   15.3567    9.4743   -3.8362 H   0  0  0  0  0  0  0  0  0  0  0  0
   13.3928    7.9185   -3.6038 H   0  0  0  0  0  0  0  0  0  0  0  0
   15.9146    5.0187   -1.6835 H   0  0  0  0  0  0  0  0  0  0  0  0
   17.8571    6.5762   -1.9161 H   0  0  0  0  0  0  0  0  0  0  0  0
   17.8486    8.9963   -3.0191 N   0  0  0  0  0  0  0  0  0  0  0  0
   17.6574   10.0878   -3.5561 O   0  0  0  0  0  0  0  0  0  0  0  0
   18.9339    8.6087   -2.5870 O   0  0  0  0  0  0  0  0  0  0  0  0
    5.9533    3.5840    1.1809 N   0  0  0  0  0  0  0  0  0  0  0  0
    6.8909    3.8257    0.6479 N   0  0  0  0  0  0  0  0  0  0  0  0
   13.2595    4.3650   -2.1102 C   0  0  0  0  0  0  0  0  0  0  0  0
   14.1757    3.6927   -1.7071 O   0  0  0  0  0  0  0  0  0  0  0  0
   13.3695    5.6569   -2.5666 O   0  0  0  0  0  0  0  0  0  0  0  0
   11.8179    3.9336   -2.1974 C   0  0  0  0  0  0  0  0  0  0  0  0
   11.7300    2.9057   -1.8481 H   0  0  0  0  0  0  0  0  0  0  0  0
   11.1920    4.5906   -1.5867 H   0  0  0  0  0  0  0  0  0  0  0  0
   11.4638    4.0112   -3.2294 H   0  0  0  0  0  0  0  0  0  0  0  0
  1  2  2  0  0  0  0
  1  6  1  0  0  0  0
  2  3  1  0  0  0  0
  3 18  1  0  0  0  0
  3  4  2  0  0  0  0
  4  9  1  0  0  0  0
  5  4  1  0  0  0  0
  5 10  1  0  0  0  0
  6  5  2  0  0  0  0
  7  1  1  0  0  0  0
  8  2  1  0  0  0  0
 11  6  1  0  0  0  0
 11 13  2  0  0  0  0
 12 11  2  0  0  0  0
 15 14  3  0  0  0  0
 16 17  2  0  0  0  0
 18 16  1  0  0  0  0
 19 16  1  0  0  0  0
 19 20  1  0  0  0  0
 19 21  1  0  0  0  0
 22 19  1  0  0  0  0
M  END
