Coordinates from ORCA-job 4-NO2-Ph-N2-OAc-B3LYPG-6-31G_dp-MTMO-d009-169-n750
 OpenBabel09051907563D

 22 21  0  0  0  0  0  0  0  0999 V2000
   15.6070    8.5536   -3.4376 C   0  0  0  0  0  0  0  0  0  0  0  0
   14.5605    7.6448   -3.3831 C   0  0  0  0  0  0  0  0  0  0  0  0
   14.7460    6.3927   -2.7801 C   0  0  0  0  0  0  0  0  0  0  0  0
   15.9818    6.0365   -2.2239 C   0  0  0  0  0  0  0  0  0  0  0  0
   17.0302    6.9528   -2.2813 C   0  0  0  0  0  0  0  0  0  0  0  0
   16.8353    8.1930   -2.8829 C   0  0  0  0  0  0  0  0  0  0  0  0
   15.4923    9.5270   -3.8966 H   0  0  0  0  0  0  0  0  0  0  0  0
   13.5892    7.8834   -3.8016 H   0  0  0  0  0  0  0  0  0  0  0  0
   16.1175    5.0703   -1.7645 H   0  0  0  0  0  0  0  0  0  0  0  0
   17.9998    6.7139   -1.8629 H   0  0  0  0  0  0  0  0  0  0  0  0
   17.9497    9.1465   -2.9367 N   0  0  0  0  0  0  0  0  0  0  0  0
   17.7422   10.2364   -3.4709 O   0  0  0  0  0  0  0  0  0  0  0  0
   19.0239    8.8001   -2.4459 O   0  0  0  0  0  0  0  0  0  0  0  0
    4.0006    3.3992    2.4201 N   0  0  0  0  0  0  0  0  0  0  0  0
    4.9357    3.6289    1.8774 N   0  0  0  0  0  0  0  0  0  0  0  0
   13.5176    4.3151   -2.3379 C   0  0  0  0  0  0  0  0  0  0  0  0
   14.4266    3.6895   -1.8519 O   0  0  0  0  0  0  0  0  0  0  0  0
   13.6058    5.6066   -2.7996 O   0  0  0  0  0  0  0  0  0  0  0  0
   12.1096    3.8161   -2.5392 C   0  0  0  0  0  0  0  0  0  0  0  0
   12.0374    2.7917   -2.1766 H   0  0  0  0  0  0  0  0  0  0  0  0
   11.4045    4.4546   -1.9995 H   0  0  0  0  0  0  0  0  0  0  0  0
   11.8440    3.8588   -3.5995 H   0  0  0  0  0  0  0  0  0  0  0  0
  1  2  2  0  0  0  0
  1  6  1  0  0  0  0
  2  3  1  0  0  0  0
  3  4  2  0  0  0  0
  4  9  1  0  0  0  0
  5  4  1  0  0  0  0
  5 10  1  0  0  0  0
  6  5  2  0  0  0  0
  7  1  1  0  0  0  0
  8  2  1  0  0  0  0
 11  6  1  0  0  0  0
 11 13  2  0  0  0  0
 12 11  2  0  0  0  0
 15 14  3  0  0  0  0
 16 17  2  0  0  0  0
 18  3  1  0  0  0  0
 18 16  1  0  0  0  0
 19 16  1  0  0  0  0
 19 20  1  0  0  0  0
 19 21  1  0  0  0  0
 22 19  1  0  0  0  0
M  END
