Coordinates from ORCA-job 4-NO2-Ph-N2-OAc-B3LYPG-6-31G_dp-MTMO-d009-169-n750
 OpenBabel09051907553D

 22 21  0  0  0  0  0  0  0  0999 V2000
   15.1439    8.5090   -3.1168 C   0  0  0  0  0  0  0  0  0  0  0  0
   13.9472    8.1890   -2.5230 C   0  0  0  0  0  0  0  0  0  0  0  0
   13.8390    7.0826   -1.5696 C   0  0  0  0  0  0  0  0  0  0  0  0
   15.0799    6.3439   -1.3174 C   0  0  0  0  0  0  0  0  0  0  0  0
   16.2568    6.7055   -1.9283 C   0  0  0  0  0  0  0  0  0  0  0  0
   16.2983    7.7809   -2.8187 C   0  0  0  0  0  0  0  0  0  0  0  0
   15.2033    9.3323   -3.8192 H   0  0  0  0  0  0  0  0  0  0  0  0
   13.0341    8.7320   -2.7393 H   0  0  0  0  0  0  0  0  0  0  0  0
   14.9961    5.4957   -0.6522 H   0  0  0  0  0  0  0  0  0  0  0  0
   17.1646    6.1485   -1.7283 H   0  0  0  0  0  0  0  0  0  0  0  0
   17.5589    8.1479   -3.4479 N   0  0  0  0  0  0  0  0  0  0  0  0
   17.5486    9.0967   -4.2356 O   0  0  0  0  0  0  0  0  0  0  0  0
   18.5577    7.4888   -3.1524 O   0  0  0  0  0  0  0  0  0  0  0  0
   12.9702    6.8414   -1.1216 N   0  0  0  0  0  0  0  0  0  0  0  0
   11.9507    6.5063   -0.6644 N   0  0  0  0  0  0  0  0  0  0  0  0
   11.9873    4.1391   -1.8208 C   0  0  0  0  0  0  0  0  0  0  0  0
   13.1284    4.0773   -1.3714 O   0  0  0  0  0  0  0  0  0  0  0  0
   11.2019    5.1926   -1.7969 O   0  0  0  0  0  0  0  0  0  0  0  0
   11.3017    2.9435   -2.4783 C   0  0  0  0  0  0  0  0  0  0  0  0
   10.5794    2.5172   -1.7746 H   0  0  0  0  0  0  0  0  0  0  0  0
   10.7542    3.2475   -3.3732 H   0  0  0  0  0  0  0  0  0  0  0  0
   12.0547    2.1938   -2.7249 H   0  0  0  0  0  0  0  0  0  0  0  0
  1  6  2  0  0  0  0
  1  2  1  0  0  0  0
  2  3  2  0  0  0  0
  3  4  1  0  0  0  0
  3 14  1  0  0  0  0
  4  9  1  0  0  0  0
  5 10  1  0  0  0  0
  5  4  2  0  0  0  0
  6  5  1  0  0  0  0
  7  1  1  0  0  0  0
  8  2  1  0  0  0  0
 11 13  2  0  0  0  0
 11  6  1  0  0  0  0
 12 11  2  0  0  0  0
 14 15  1  0  0  0  0
 16 18  2  0  0  0  0
 16 17  1  0  0  0  0
 19 16  1  0  0  0  0
 19 20  1  0  0  0  0
 21 19  1  0  0  0  0
 22 19  1  0  0  0  0
M  RAD  3  14   2  15   3  17   2
M  END
