Coordinates from ORCA-job 4-NO2-Ph-N2-OAc-B3LYPG-6-31G_dp-MTMO-d009-169-n750
 OpenBabel09051907553D

 22 21  0  0  0  0  0  0  0  0999 V2000
   14.9571    8.1224   -3.3377 C   0  0  0  0  0  0  0  0  0  0  0  0
   13.8645    7.2776   -3.2081 C   0  0  0  0  0  0  0  0  0  0  0  0
   14.0013    6.0446   -2.5545 C   0  0  0  0  0  0  0  0  0  0  0  0
   15.2342    5.6440   -2.0224 C   0  0  0  0  0  0  0  0  0  0  0  0
   16.3290    6.4959   -2.1555 C   0  0  0  0  0  0  0  0  0  0  0  0
   16.1820    7.7174   -2.8069 C   0  0  0  0  0  0  0  0  0  0  0  0
   14.8803    9.0798   -3.8366 H   0  0  0  0  0  0  0  0  0  0  0  0
   12.8943    7.5520   -3.6065 H   0  0  0  0  0  0  0  0  0  0  0  0
   15.3332    4.6913   -1.5268 H   0  0  0  0  0  0  0  0  0  0  0  0
   17.2978    6.2211   -1.7579 H   0  0  0  0  0  0  0  0  0  0  0  0
   17.3449    8.6029   -2.9404 N   0  0  0  0  0  0  0  0  0  0  0  0
   17.1796    9.6776   -3.5184 O   0  0  0  0  0  0  0  0  0  0  0  0
   18.4144    8.2185   -2.4679 O   0  0  0  0  0  0  0  0  0  0  0  0
   12.1791    7.6157    0.1408 N   0  0  0  0  0  0  0  0  0  0  0  0
   11.4723    6.7715    0.0444 N   0  0  0  0  0  0  0  0  0  0  0  0
   12.6872    4.0420   -2.0189 C   0  0  0  0  0  0  0  0  0  0  0  0
   13.5919    3.3666   -1.5963 O   0  0  0  0  0  0  0  0  0  0  0  0
   12.8184    5.3272   -2.4930 O   0  0  0  0  0  0  0  0  0  0  0  0
   11.2411    3.6296   -2.1111 C   0  0  0  0  0  0  0  0  0  0  0  0
   11.1421    2.5951   -1.7847 H   0  0  0  0  0  0  0  0  0  0  0  0
   10.6312    4.2806   -1.4781 H   0  0  0  0  0  0  0  0  0  0  0  0
   10.8812    3.7379   -3.1381 H   0  0  0  0  0  0  0  0  0  0  0  0
  1  2  2  0  0  0  0
  1  6  1  0  0  0  0
  2  3  1  0  0  0  0
  3 18  1  0  0  0  0
  3  4  2  0  0  0  0
  4  9  1  0  0  0  0
  5  4  1  0  0  0  0
  5 10  1  0  0  0  0
  6  5  2  0  0  0  0
  7  1  1  0  0  0  0
  8  2  1  0  0  0  0
 11  6  1  0  0  0  0
 11 13  2  0  0  0  0
 12 11  2  0  0  0  0
 15 14  3  0  0  0  0
 16 17  2  0  0  0  0
 18 16  1  0  0  0  0
 19 16  1  0  0  0  0
 19 20  1  0  0  0  0
 19 21  1  0  0  0  0
 22 19  1  0  0  0  0
M  END
