Coordinates from ORCA-job 4-NO2-Ph-N2-OAc-B3LYPG-6-31G_dp-MTMO-d009-169-n750
 OpenBabel09051907563D

 22 21  0  0  0  0  0  0  0  0999 V2000
   15.9253    8.6479   -3.5797 C   0  0  0  0  0  0  0  0  0  0  0  0
   14.8828    7.7345   -3.5261 C   0  0  0  0  0  0  0  0  0  0  0  0
   15.0753    6.4807   -2.9289 C   0  0  0  0  0  0  0  0  0  0  0  0
   16.3140    6.1275   -2.3774 C   0  0  0  0  0  0  0  0  0  0  0  0
   17.3583    7.0484   -2.4336 C   0  0  0  0  0  0  0  0  0  0  0  0
   17.1566    8.2903   -3.0296 C   0  0  0  0  0  0  0  0  0  0  0  0
   15.8053    9.6226   -4.0345 H   0  0  0  0  0  0  0  0  0  0  0  0
   13.9094    7.9707   -3.9411 H   0  0  0  0  0  0  0  0  0  0  0  0
   16.4552    5.1598   -1.9228 H   0  0  0  0  0  0  0  0  0  0  0  0
   18.3300    6.8120   -2.0186 H   0  0  0  0  0  0  0  0  0  0  0  0
   18.2667    9.2487   -3.0823 N   0  0  0  0  0  0  0  0  0  0  0  0
   18.0532   10.3400   -3.6113 O   0  0  0  0  0  0  0  0  0  0  0  0
   19.3436    8.9050   -2.5954 O   0  0  0  0  0  0  0  0  0  0  0  0
    0.7004    2.5165    3.9190 N   0  0  0  0  0  0  0  0  0  0  0  0
    1.6434    2.7413    3.3881 N   0  0  0  0  0  0  0  0  0  0  0  0
   13.8600    4.3925   -2.5013 C   0  0  0  0  0  0  0  0  0  0  0  0
   14.7770    3.7642   -2.0342 O   0  0  0  0  0  0  0  0  0  0  0  0
   13.9379    5.6905   -2.9466 O   0  0  0  0  0  0  0  0  0  0  0  0
   12.4516    3.8908   -2.6924 C   0  0  0  0  0  0  0  0  0  0  0  0
   12.3886    2.8599   -2.3466 H   0  0  0  0  0  0  0  0  0  0  0  0
   11.7516    4.5167   -2.1316 H   0  0  0  0  0  0  0  0  0  0  0  0
   12.1709    3.9509   -3.7479 H   0  0  0  0  0  0  0  0  0  0  0  0
  1  2  2  0  0  0  0
  1  6  1  0  0  0  0
  2  3  1  0  0  0  0
  3  4  2  0  0  0  0
  4  9  1  0  0  0  0
  5  4  1  0  0  0  0
  5 10  1  0  0  0  0
  6  5  2  0  0  0  0
  7  1  1  0  0  0  0
  8  2  1  0  0  0  0
 11  6  1  0  0  0  0
 11 13  2  0  0  0  0
 12 11  2  0  0  0  0
 15 14  3  0  0  0  0
 16 17  2  0  0  0  0
 18  3  1  0  0  0  0
 18 16  1  0  0  0  0
 19 16  1  0  0  0  0
 19 20  1  0  0  0  0
 19 21  1  0  0  0  0
 22 19  1  0  0  0  0
M  END
