Coordinates from ORCA-job 4-NO2-Ph-N2-OAc-B3LYPG-6-31G_dp-MTMO-d009-169-n750
 OpenBabel09051907563D

 22 21  0  0  0  0  0  0  0  0999 V2000
   15.3240    8.4458   -3.3331 C   0  0  0  0  0  0  0  0  0  0  0  0
   14.2458    7.5806   -3.2210 C   0  0  0  0  0  0  0  0  0  0  0  0
   14.4046    6.3343   -2.5984 C   0  0  0  0  0  0  0  0  0  0  0  0
   15.6456    5.9406   -2.0801 C   0  0  0  0  0  0  0  0  0  0  0  0
   16.7260    6.8132   -2.1953 C   0  0  0  0  0  0  0  0  0  0  0  0
   16.5573    8.0480   -2.8159 C   0  0  0  0  0  0  0  0  0  0  0  0
   15.2302    9.4137   -3.8083 H   0  0  0  0  0  0  0  0  0  0  0  0
   13.2697    7.8490   -3.6091 H   0  0  0  0  0  0  0  0  0  0  0  0
   15.7605    4.9791   -1.6055 H   0  0  0  0  0  0  0  0  0  0  0  0
   17.7004    6.5445   -1.8072 H   0  0  0  0  0  0  0  0  0  0  0  0
   17.7050    8.9553   -2.9304 N   0  0  0  0  0  0  0  0  0  0  0  0
   17.5205   10.0416   -3.4803 O   0  0  0  0  0  0  0  0  0  0  0  0
   18.7824    8.5768   -2.4712 O   0  0  0  0  0  0  0  0  0  0  0  0
    7.3593    4.1118    0.7208 N   0  0  0  0  0  0  0  0  0  0  0  0
    8.3040    4.3358    0.1925 N   0  0  0  0  0  0  0  0  0  0  0  0
   13.1141    4.3150   -2.0707 C   0  0  0  0  0  0  0  0  0  0  0  0
   14.0175    3.6630   -1.6091 O   0  0  0  0  0  0  0  0  0  0  0  0
   13.2344    5.5944   -2.5590 O   0  0  0  0  0  0  0  0  0  0  0  0
   11.6804    3.8688   -2.2010 C   0  0  0  0  0  0  0  0  0  0  0  0
   11.6078    2.8178   -1.9234 H   0  0  0  0  0  0  0  0  0  0  0  0
   11.0405    4.4658   -1.5438 H   0  0  0  0  0  0  0  0  0  0  0  0
   11.3274    4.0164   -3.2252 H   0  0  0  0  0  0  0  0  0  0  0  0
  1  2  2  0  0  0  0
  1  6  1  0  0  0  0
  2  3  1  0  0  0  0
  3 18  1  0  0  0  0
  3  4  2  0  0  0  0
  4  9  1  0  0  0  0
  5  4  1  0  0  0  0
  5 10  1  0  0  0  0
  6  5  2  0  0  0  0
  7  1  1  0  0  0  0
  8  2  1  0  0  0  0
 11  6  1  0  0  0  0
 11 13  2  0  0  0  0
 12 11  2  0  0  0  0
 15 14  3  0  0  0  0
 16 17  2  0  0  0  0
 18 16  1  0  0  0  0
 19 16  1  0  0  0  0
 19 20  1  0  0  0  0
 19 21  1  0  0  0  0
 22 19  1  0  0  0  0
M  END
