Coordinates from ORCA-job 4-NO2-Ph-N2-OAc-B3LYPG-6-31G_dp-MTMO-d009-169-n750
 OpenBabel09051907553D

 22 21  0  0  0  0  0  0  0  0999 V2000
   14.9543    8.1206   -3.3410 C   0  0  0  0  0  0  0  0  0  0  0  0
   13.8620    7.2752   -3.2132 C   0  0  0  0  0  0  0  0  0  0  0  0
   13.9972    6.0448   -2.5547 C   0  0  0  0  0  0  0  0  0  0  0  0
   15.2282    5.6473   -2.0160 C   0  0  0  0  0  0  0  0  0  0  0  0
   16.3227    6.4997   -2.1471 C   0  0  0  0  0  0  0  0  0  0  0  0
   16.1774    7.7188   -2.8036 C   0  0  0  0  0  0  0  0  0  0  0  0
   14.8787    9.0762   -3.8435 H   0  0  0  0  0  0  0  0  0  0  0  0
   12.8933    7.5476   -3.6168 H   0  0  0  0  0  0  0  0  0  0  0  0
   15.3262    4.6962   -1.5171 H   0  0  0  0  0  0  0  0  0  0  0  0
   17.2901    6.2270   -1.7445 H   0  0  0  0  0  0  0  0  0  0  0  0
   17.3400    8.6049   -2.9353 N   0  0  0  0  0  0  0  0  0  0  0  0
   17.1758    9.6779   -3.5165 O   0  0  0  0  0  0  0  0  0  0  0  0
   18.4082    8.2225   -2.4581 O   0  0  0  0  0  0  0  0  0  0  0  0
   12.2267    7.6068    0.1234 N   0  0  0  0  0  0  0  0  0  0  0  0
   11.5038    6.7746    0.0446 N   0  0  0  0  0  0  0  0  0  0  0  0
   12.6845    4.0403   -2.0233 C   0  0  0  0  0  0  0  0  0  0  0  0
   13.5904    3.3635   -1.6055 O   0  0  0  0  0  0  0  0  0  0  0  0
   12.8148    5.3265   -2.4951 O   0  0  0  0  0  0  0  0  0  0  0  0
   11.2380    3.6288   -2.1117 C   0  0  0  0  0  0  0  0  0  0  0  0
   11.1394    2.5935   -1.7877 H   0  0  0  0  0  0  0  0  0  0  0  0
   10.6305    4.2786   -1.4750 H   0  0  0  0  0  0  0  0  0  0  0  0
   10.8748    3.7399   -3.1372 H   0  0  0  0  0  0  0  0  0  0  0  0
  1  2  2  0  0  0  0
  1  6  1  0  0  0  0
  2  3  1  0  0  0  0
  3 18  1  0  0  0  0
  3  4  2  0  0  0  0
  4  9  1  0  0  0  0
  5  4  1  0  0  0  0
  5 10  1  0  0  0  0
  6  5  2  0  0  0  0
  7  1  1  0  0  0  0
  8  2  1  0  0  0  0
 11  6  1  0  0  0  0
 11 13  2  0  0  0  0
 12 11  2  0  0  0  0
 15 14  3  0  0  0  0
 16 17  2  0  0  0  0
 18 16  1  0  0  0  0
 19 16  1  0  0  0  0
 19 20  1  0  0  0  0
 19 21  1  0  0  0  0
 22 19  1  0  0  0  0
M  END
