Coordinates from ORCA-job 4-NO2-Ph-N2-OAc-B3LYPG-6-31G_dp-MTMO-d009-169-n750
 OpenBabel09051907563D

 22 21  0  0  0  0  0  0  0  0999 V2000
   15.3441    8.4525   -3.3402 C   0  0  0  0  0  0  0  0  0  0  0  0
   14.2577    7.5997   -3.2122 C   0  0  0  0  0  0  0  0  0  0  0  0
   14.4102    6.3539   -2.5870 C   0  0  0  0  0  0  0  0  0  0  0  0
   15.6528    5.9481   -2.0823 C   0  0  0  0  0  0  0  0  0  0  0  0
   16.7414    6.8082   -2.2135 C   0  0  0  0  0  0  0  0  0  0  0  0
   16.5790    8.0427   -2.8364 C   0  0  0  0  0  0  0  0  0  0  0  0
   15.2553    9.4197   -3.8177 H   0  0  0  0  0  0  0  0  0  0  0  0
   13.2801    7.8777   -3.5895 H   0  0  0  0  0  0  0  0  0  0  0  0
   15.7628    4.9869   -1.6059 H   0  0  0  0  0  0  0  0  0  0  0  0
   17.7173    6.5300   -1.8362 H   0  0  0  0  0  0  0  0  0  0  0  0
   17.7352    8.9369   -2.9677 N   0  0  0  0  0  0  0  0  0  0  0  0
   17.5562   10.0232   -3.5195 O   0  0  0  0  0  0  0  0  0  0  0  0
   18.8136    8.5480   -2.5197 O   0  0  0  0  0  0  0  0  0  0  0  0
    7.2882    3.9489    0.6499 N   0  0  0  0  0  0  0  0  0  0  0  0
    8.2355    4.1818    0.1303 N   0  0  0  0  0  0  0  0  0  0  0  0
   13.1041    4.3504   -2.0377 C   0  0  0  0  0  0  0  0  0  0  0  0
   14.0062    3.6891   -1.5873 O   0  0  0  0  0  0  0  0  0  0  0  0
   13.2323    5.6274   -2.5305 O   0  0  0  0  0  0  0  0  0  0  0  0
   11.6638    3.9202   -2.1484 C   0  0  0  0  0  0  0  0  0  0  0  0
   11.5797    2.8760   -1.8497 H   0  0  0  0  0  0  0  0  0  0  0  0
   11.0355    4.5388   -1.5003 H   0  0  0  0  0  0  0  0  0  0  0  0
   11.3063    4.0512   -3.1734 H   0  0  0  0  0  0  0  0  0  0  0  0
  1  2  2  0  0  0  0
  1  6  1  0  0  0  0
  2  3  1  0  0  0  0
  3 18  1  0  0  0  0
  3  4  2  0  0  0  0
  4  9  1  0  0  0  0
  5  4  1  0  0  0  0
  5 10  1  0  0  0  0
  6  5  2  0  0  0  0
  7  1  1  0  0  0  0
  8  2  1  0  0  0  0
 11  6  1  0  0  0  0
 11 13  2  0  0  0  0
 12 11  2  0  0  0  0
 15 14  3  0  0  0  0
 16 17  2  0  0  0  0
 18 16  1  0  0  0  0
 19 16  1  0  0  0  0
 19 20  1  0  0  0  0
 19 21  1  0  0  0  0
 22 19  1  0  0  0  0
M  END
