Coordinates from ORCA-job 4-NO2-Ph-N2-OAc-B3LYPG-6-31G_dp-MTMO-d009-169-n750
 OpenBabel09051907563D

 22 21  0  0  0  0  0  0  0  0999 V2000
   15.2626    8.4262   -3.3083 C   0  0  0  0  0  0  0  0  0  0  0  0
   14.2005    7.5379   -3.2270 C   0  0  0  0  0  0  0  0  0  0  0  0
   14.3712    6.2904   -2.6100 C   0  0  0  0  0  0  0  0  0  0  0  0
   15.6082    5.9186   -2.0666 C   0  0  0  0  0  0  0  0  0  0  0  0
   16.6724    6.8143   -2.1509 C   0  0  0  0  0  0  0  0  0  0  0  0
   16.4920    8.0501   -2.7662 C   0  0  0  0  0  0  0  0  0  0  0  0
   15.1593    9.3955   -3.7785 H   0  0  0  0  0  0  0  0  0  0  0  0
   13.2279    7.7890   -3.6351 H   0  0  0  0  0  0  0  0  0  0  0  0
   15.7325    4.9559   -1.5967 H   0  0  0  0  0  0  0  0  0  0  0  0
   17.6433    6.5628   -1.7430 H   0  0  0  0  0  0  0  0  0  0  0  0
   17.6227    8.9818   -2.8482 N   0  0  0  0  0  0  0  0  0  0  0  0
   17.4278   10.0684   -3.3938 O   0  0  0  0  0  0  0  0  0  0  0  0
   18.6973    8.6220   -2.3678 O   0  0  0  0  0  0  0  0  0  0  0  0
    7.7501    4.5663    0.8128 N   0  0  0  0  0  0  0  0  0  0  0  0
    8.6379    4.6193    0.1568 N   0  0  0  0  0  0  0  0  0  0  0  0
   13.1116    4.2409   -2.1259 C   0  0  0  0  0  0  0  0  0  0  0  0
   14.0178    3.6044   -1.6485 O   0  0  0  0  0  0  0  0  0  0  0  0
   13.2163    5.5261   -2.6029 O   0  0  0  0  0  0  0  0  0  0  0  0
   11.6905    3.7670   -2.2902 C   0  0  0  0  0  0  0  0  0  0  0  0
   11.6337    2.7122   -2.0237 H   0  0  0  0  0  0  0  0  0  0  0  0
   11.0257    4.3448   -1.6408 H   0  0  0  0  0  0  0  0  0  0  0  0
   11.3558    3.9174   -3.3201 H   0  0  0  0  0  0  0  0  0  0  0  0
  1  2  2  0  0  0  0
  1  6  1  0  0  0  0
  2  3  1  0  0  0  0
  3 18  1  0  0  0  0
  3  4  2  0  0  0  0
  4  9  1  0  0  0  0
  5  4  1  0  0  0  0
  5 10  1  0  0  0  0
  6  5  2  0  0  0  0
  7  1  1  0  0  0  0
  8  2  1  0  0  0  0
 11  6  1  0  0  0  0
 11 13  2  0  0  0  0
 12 11  2  0  0  0  0
 15 14  3  0  0  0  0
 16 17  2  0  0  0  0
 18 16  1  0  0  0  0
 19 16  1  0  0  0  0
 19 20  1  0  0  0  0
 19 21  1  0  0  0  0
 22 19  1  0  0  0  0
M  END
