Coordinates from ORCA-job 4-NO2-Ph-N2-OAc-B3LYPG-6-31G_dp-MTMO-d009-169-n750
 OpenBabel09051907563D

 22 21  0  0  0  0  0  0  0  0999 V2000
   15.4024    8.4778   -3.3564 C   0  0  0  0  0  0  0  0  0  0  0  0
   14.3168    7.6250   -3.2225 C   0  0  0  0  0  0  0  0  0  0  0  0
   14.4744    6.3760   -2.6052 C   0  0  0  0  0  0  0  0  0  0  0  0
   15.7215    5.9668   -2.1144 C   0  0  0  0  0  0  0  0  0  0  0  0
   16.8092    6.8270   -2.2513 C   0  0  0  0  0  0  0  0  0  0  0  0
   16.6417    8.0647   -2.8663 C   0  0  0  0  0  0  0  0  0  0  0  0
   15.3098    9.4475   -3.8280 H   0  0  0  0  0  0  0  0  0  0  0  0
   13.3358    7.9057   -3.5889 H   0  0  0  0  0  0  0  0  0  0  0  0
   15.8355    5.0029   -1.6445 H   0  0  0  0  0  0  0  0  0  0  0  0
   17.7885    6.5462   -1.8845 H   0  0  0  0  0  0  0  0  0  0  0  0
   17.7972    8.9590   -3.0036 N   0  0  0  0  0  0  0  0  0  0  0  0
   17.6138   10.0481   -3.5482 O   0  0  0  0  0  0  0  0  0  0  0  0
   18.8794    8.5673   -2.5673 O   0  0  0  0  0  0  0  0  0  0  0  0
    6.6375    3.7206    0.8703 N   0  0  0  0  0  0  0  0  0  0  0  0
    7.5843    3.9834    0.3642 N   0  0  0  0  0  0  0  0  0  0  0  0
   13.1745    4.3672   -2.0619 C   0  0  0  0  0  0  0  0  0  0  0  0
   14.0829    3.6972   -1.6378 O   0  0  0  0  0  0  0  0  0  0  0  0
   13.2964    5.6506   -2.5388 O   0  0  0  0  0  0  0  0  0  0  0  0
   11.7314    3.9418   -2.1547 C   0  0  0  0  0  0  0  0  0  0  0  0
   11.6416    2.9078   -1.8241 H   0  0  0  0  0  0  0  0  0  0  0  0
   11.1090    4.5870   -1.5275 H   0  0  0  0  0  0  0  0  0  0  0  0
   11.3735    4.0415   -3.1833 H   0  0  0  0  0  0  0  0  0  0  0  0
  1  2  2  0  0  0  0
  1  6  1  0  0  0  0
  2  3  1  0  0  0  0
  3 18  1  0  0  0  0
  3  4  2  0  0  0  0
  4  9  1  0  0  0  0
  5  4  1  0  0  0  0
  5 10  1  0  0  0  0
  6  5  2  0  0  0  0
  7  1  1  0  0  0  0
  8  2  1  0  0  0  0
 11  6  1  0  0  0  0
 11 13  2  0  0  0  0
 12 11  2  0  0  0  0
 15 14  3  0  0  0  0
 16 17  2  0  0  0  0
 18 16  1  0  0  0  0
 19 16  1  0  0  0  0
 19 20  1  0  0  0  0
 19 21  1  0  0  0  0
 22 19  1  0  0  0  0
M  END
