Coordinates from ORCA-job 4-NO2-Ph-N2-OAc-B3LYPG-6-31G_dp-MTMO-d009-169-n750
 OpenBabel09051907563D

 22 21  0  0  0  0  0  0  0  0999 V2000
   15.4986    8.5179   -3.3874 C   0  0  0  0  0  0  0  0  0  0  0  0
   14.4215    7.6531   -3.2610 C   0  0  0  0  0  0  0  0  0  0  0  0
   14.5916    6.4006   -2.6543 C   0  0  0  0  0  0  0  0  0  0  0  0
   15.8426    5.9999   -2.1665 C   0  0  0  0  0  0  0  0  0  0  0  0
   16.9217    6.8720   -2.2958 C   0  0  0  0  0  0  0  0  0  0  0  0
   16.7419    8.1132   -2.9003 C   0  0  0  0  0  0  0  0  0  0  0  0
   15.3964    9.4905   -3.8508 H   0  0  0  0  0  0  0  0  0  0  0  0
   13.4378    7.9271   -3.6252 H   0  0  0  0  0  0  0  0  0  0  0  0
   15.9665    5.0330   -1.7054 H   0  0  0  0  0  0  0  0  0  0  0  0
   17.9036    6.5981   -1.9309 H   0  0  0  0  0  0  0  0  0  0  0  0
   17.8884    9.0202   -3.0296 N   0  0  0  0  0  0  0  0  0  0  0  0
   17.6942   10.1120   -3.5649 O   0  0  0  0  0  0  0  0  0  0  0  0
   18.9743    8.6357   -2.5961 O   0  0  0  0  0  0  0  0  0  0  0  0
    5.4682    3.4679    1.4013 N   0  0  0  0  0  0  0  0  0  0  0  0
    6.4049    3.7039    0.8641 N   0  0  0  0  0  0  0  0  0  0  0  0
   13.3154    4.3691   -2.1417 C   0  0  0  0  0  0  0  0  0  0  0  0
   14.2342    3.6980   -1.7424 O   0  0  0  0  0  0  0  0  0  0  0  0
   13.4207    5.6636   -2.5916 O   0  0  0  0  0  0  0  0  0  0  0  0
   11.8754    3.9331   -2.2307 C   0  0  0  0  0  0  0  0  0  0  0  0
   11.7905    2.9044   -1.8827 H   0  0  0  0  0  0  0  0  0  0  0  0
   11.2468    4.5875   -1.6199 H   0  0  0  0  0  0  0  0  0  0  0  0
   11.5220    4.0106   -3.2630 H   0  0  0  0  0  0  0  0  0  0  0  0
  1  2  2  0  0  0  0
  1  6  1  0  0  0  0
  2  3  1  0  0  0  0
  3 18  1  0  0  0  0
  3  4  2  0  0  0  0
  4  9  1  0  0  0  0
  5  4  1  0  0  0  0
  5 10  1  0  0  0  0
  6  5  2  0  0  0  0
  7  1  1  0  0  0  0
  8  2  1  0  0  0  0
 11  6  1  0  0  0  0
 11 13  2  0  0  0  0
 12 11  2  0  0  0  0
 15 14  3  0  0  0  0
 16 17  2  0  0  0  0
 18 16  1  0  0  0  0
 19 16  1  0  0  0  0
 19 20  1  0  0  0  0
 19 21  1  0  0  0  0
 22 19  1  0  0  0  0
M  END
