Coordinates from ORCA-job 4-NO2-Ph-N2-OAc-B3LYPG-6-31G_dp-MTMO-d009-169-n750
 OpenBabel09051907563D

 22 21  0  0  0  0  0  0  0  0999 V2000
   15.2424    8.4218   -3.2968 C   0  0  0  0  0  0  0  0  0  0  0  0
   14.1856    7.5265   -3.2226 C   0  0  0  0  0  0  0  0  0  0  0  0
   14.3624    6.2772   -2.6109 C   0  0  0  0  0  0  0  0  0  0  0  0
   15.6001    5.9106   -2.0658 C   0  0  0  0  0  0  0  0  0  0  0  0
   16.6590    6.8133   -2.1429 C   0  0  0  0  0  0  0  0  0  0  0  0
   16.4726    8.0508   -2.7530 C   0  0  0  0  0  0  0  0  0  0  0  0
   15.1345    9.3926   -3.7629 H   0  0  0  0  0  0  0  0  0  0  0  0
   13.2126    7.7735   -3.6322 H   0  0  0  0  0  0  0  0  0  0  0  0
   15.7291    4.9466   -1.6000 H   0  0  0  0  0  0  0  0  0  0  0  0
   17.6303    6.5660   -1.7334 H   0  0  0  0  0  0  0  0  0  0  0  0
   17.5977    8.9899   -2.8274 N   0  0  0  0  0  0  0  0  0  0  0  0
   17.3976   10.0779   -3.3685 O   0  0  0  0  0  0  0  0  0  0  0  0
   18.6732    8.6345   -2.3457 O   0  0  0  0  0  0  0  0  0  0  0  0
    7.8502    4.7063    0.8106 N   0  0  0  0  0  0  0  0  0  0  0  0
    8.7292    4.7002    0.1408 N   0  0  0  0  0  0  0  0  0  0  0  0
   13.1145    4.2172   -2.1408 C   0  0  0  0  0  0  0  0  0  0  0  0
   14.0243    3.5832   -1.6670 O   0  0  0  0  0  0  0  0  0  0  0  0
   13.2122    5.5060   -2.6100 O   0  0  0  0  0  0  0  0  0  0  0  0
   11.6960    3.7371   -2.3078 C   0  0  0  0  0  0  0  0  0  0  0  0
   11.6448    2.6800   -2.0489 H   0  0  0  0  0  0  0  0  0  0  0  0
   11.0293    4.3070   -1.6533 H   0  0  0  0  0  0  0  0  0  0  0  0
   11.3596    3.8934   -3.3362 H   0  0  0  0  0  0  0  0  0  0  0  0
  1  2  2  0  0  0  0
  1  6  1  0  0  0  0
  2  3  1  0  0  0  0
  3 18  1  0  0  0  0
  3  4  2  0  0  0  0
  4  9  1  0  0  0  0
  5  4  1  0  0  0  0
  5 10  1  0  0  0  0
  6  5  2  0  0  0  0
  7  1  1  0  0  0  0
  8  2  1  0  0  0  0
 11  6  1  0  0  0  0
 11 13  2  0  0  0  0
 12 11  2  0  0  0  0
 15 14  3  0  0  0  0
 16 17  2  0  0  0  0
 18 16  1  0  0  0  0
 19 16  1  0  0  0  0
 19 20  1  0  0  0  0
 19 21  1  0  0  0  0
 22 19  1  0  0  0  0
M  END
