Coordinates from ORCA-job 4-NO2-Ph-N2-OAc-B3LYPG-6-31G_dp-MTMO-d009-169-n750
 OpenBabel09051907563D

 22 21  0  0  0  0  0  0  0  0999 V2000
   15.4683    8.5067   -3.3757 C   0  0  0  0  0  0  0  0  0  0  0  0
   14.3891    7.6449   -3.2465 C   0  0  0  0  0  0  0  0  0  0  0  0
   14.5568    6.3927   -2.6385 C   0  0  0  0  0  0  0  0  0  0  0  0
   15.8075    5.9894   -2.1520 C   0  0  0  0  0  0  0  0  0  0  0  0
   16.8887    6.8585   -2.2841 C   0  0  0  0  0  0  0  0  0  0  0  0
   16.7112    8.0993   -2.8899 C   0  0  0  0  0  0  0  0  0  0  0  0
   15.3679    9.4790   -3.8403 H   0  0  0  0  0  0  0  0  0  0  0  0
   13.4056    7.9210   -3.6097 H   0  0  0  0  0  0  0  0  0  0  0  0
   15.9295    5.0228   -1.6897 H   0  0  0  0  0  0  0  0  0  0  0  0
   17.8704    6.5825   -1.9204 H   0  0  0  0  0  0  0  0  0  0  0  0
   17.8599    9.0032   -3.0221 N   0  0  0  0  0  0  0  0  0  0  0  0
   17.6678   10.0948   -3.5587 O   0  0  0  0  0  0  0  0  0  0  0  0
   18.9454    8.6165   -2.5898 O   0  0  0  0  0  0  0  0  0  0  0  0
    5.8145    3.5515    1.2443 N   0  0  0  0  0  0  0  0  0  0  0  0
    6.7516    3.7910    0.7094 N   0  0  0  0  0  0  0  0  0  0  0  0
   13.2756    4.3660   -2.1194 C   0  0  0  0  0  0  0  0  0  0  0  0
   14.1927    3.6939   -1.7180 O   0  0  0  0  0  0  0  0  0  0  0  0
   13.3841    5.6589   -2.5734 O   0  0  0  0  0  0  0  0  0  0  0  0
   11.8345    3.9333   -2.2070 C   0  0  0  0  0  0  0  0  0  0  0  0
   11.7475    2.9053   -1.8577 H   0  0  0  0  0  0  0  0  0  0  0  0
   11.2078    4.5897   -1.5964 H   0  0  0  0  0  0  0  0  0  0  0  0
   11.4806    4.0105   -3.2391 H   0  0  0  0  0  0  0  0  0  0  0  0
  1  2  2  0  0  0  0
  1  6  1  0  0  0  0
  2  3  1  0  0  0  0
  3 18  1  0  0  0  0
  3  4  2  0  0  0  0
  4  9  1  0  0  0  0
  5  4  1  0  0  0  0
  5 10  1  0  0  0  0
  6  5  2  0  0  0  0
  7  1  1  0  0  0  0
  8  2  1  0  0  0  0
 11  6  1  0  0  0  0
 11 13  2  0  0  0  0
 12 11  2  0  0  0  0
 15 14  3  0  0  0  0
 16 17  2  0  0  0  0
 18 16  1  0  0  0  0
 19 16  1  0  0  0  0
 19 20  1  0  0  0  0
 19 21  1  0  0  0  0
 22 19  1  0  0  0  0
M  END
