Coordinates from ORCA-job 4-NO2-Ph-N2-OAc-B3LYPG-6-31G_dp-MTMO-d009-169-n750
 OpenBabel09051907563D

 22 21  0  0  0  0  0  0  0  0999 V2000
   15.3264    8.4464   -3.3344 C   0  0  0  0  0  0  0  0  0  0  0  0
   14.2478    7.5817   -3.2218 C   0  0  0  0  0  0  0  0  0  0  0  0
   14.4062    6.3356   -2.5987 C   0  0  0  0  0  0  0  0  0  0  0  0
   15.6471    5.9415   -2.0805 C   0  0  0  0  0  0  0  0  0  0  0  0
   16.7278    6.8136   -2.1963 C   0  0  0  0  0  0  0  0  0  0  0  0
   16.5596    8.0482   -2.8172 C   0  0  0  0  0  0  0  0  0  0  0  0
   15.2330    9.4141   -3.8099 H   0  0  0  0  0  0  0  0  0  0  0  0
   13.2718    7.8504   -3.6098 H   0  0  0  0  0  0  0  0  0  0  0  0
   15.7616    4.9801   -1.6056 H   0  0  0  0  0  0  0  0  0  0  0  0
   17.7022    6.5445   -1.8083 H   0  0  0  0  0  0  0  0  0  0  0  0
   17.7077    8.9550   -2.9324 N   0  0  0  0  0  0  0  0  0  0  0  0
   17.5236   10.0412   -3.4825 O   0  0  0  0  0  0  0  0  0  0  0  0
   18.7850    8.5761   -2.4731 O   0  0  0  0  0  0  0  0  0  0  0  0
    7.3428    4.0994    0.7248 N   0  0  0  0  0  0  0  0  0  0  0  0
    8.2875    4.3263    0.1980 N   0  0  0  0  0  0  0  0  0  0  0  0
   13.1149    4.3171   -2.0701 C   0  0  0  0  0  0  0  0  0  0  0  0
   14.0179    3.6649   -1.6082 O   0  0  0  0  0  0  0  0  0  0  0  0
   13.2357    5.5962   -2.5589 O   0  0  0  0  0  0  0  0  0  0  0  0
   11.6810    3.8712   -2.2001 C   0  0  0  0  0  0  0  0  0  0  0  0
   11.6083    2.8202   -1.9229 H   0  0  0  0  0  0  0  0  0  0  0  0
   11.0413    4.4682   -1.5427 H   0  0  0  0  0  0  0  0  0  0  0  0
   11.3279    4.0192   -3.2242 H   0  0  0  0  0  0  0  0  0  0  0  0
  1  2  2  0  0  0  0
  1  6  1  0  0  0  0
  2  3  1  0  0  0  0
  3 18  1  0  0  0  0
  3  4  2  0  0  0  0
  4  9  1  0  0  0  0
  5  4  1  0  0  0  0
  5 10  1  0  0  0  0
  6  5  2  0  0  0  0
  7  1  1  0  0  0  0
  8  2  1  0  0  0  0
 11  6  1  0  0  0  0
 11 13  2  0  0  0  0
 12 11  2  0  0  0  0
 15 14  3  0  0  0  0
 16 17  2  0  0  0  0
 18 16  1  0  0  0  0
 19 16  1  0  0  0  0
 19 20  1  0  0  0  0
 19 21  1  0  0  0  0
 22 19  1  0  0  0  0
M  END
