Coordinates from ORCA-job 4-NO2-Ph-N2-OAc-B3LYPG-6-31G_dp-MTMO-d009-169-n750
 OpenBabel09051907563D

 22 21  0  0  0  0  0  0  0  0999 V2000
   15.8930    8.6388   -3.5648 C   0  0  0  0  0  0  0  0  0  0  0  0
   14.8503    7.7256   -3.5111 C   0  0  0  0  0  0  0  0  0  0  0  0
   15.0427    6.4717   -2.9138 C   0  0  0  0  0  0  0  0  0  0  0  0
   16.2815    6.1183   -2.3625 C   0  0  0  0  0  0  0  0  0  0  0  0
   17.3260    7.0392   -2.4189 C   0  0  0  0  0  0  0  0  0  0  0  0
   17.1243    8.2810   -3.0149 C   0  0  0  0  0  0  0  0  0  0  0  0
   15.7731    9.6136   -4.0196 H   0  0  0  0  0  0  0  0  0  0  0  0
   13.8769    7.9619   -3.9259 H   0  0  0  0  0  0  0  0  0  0  0  0
   16.4226    5.1507   -1.9079 H   0  0  0  0  0  0  0  0  0  0  0  0
   18.2977    6.8027   -2.0041 H   0  0  0  0  0  0  0  0  0  0  0  0
   18.2345    9.2393   -3.0678 N   0  0  0  0  0  0  0  0  0  0  0  0
   18.0211   10.3307   -3.5968 O   0  0  0  0  0  0  0  0  0  0  0  0
   19.3115    8.8954   -2.5811 O   0  0  0  0  0  0  0  0  0  0  0  0
    1.0259    2.6063    3.7702 N   0  0  0  0  0  0  0  0  0  0  0  0
    1.9686    2.8314    3.2388 N   0  0  0  0  0  0  0  0  0  0  0  0
   13.8271    4.3839   -2.4859 C   0  0  0  0  0  0  0  0  0  0  0  0
   14.7439    3.7555   -2.0184 O   0  0  0  0  0  0  0  0  0  0  0  0
   13.9053    5.6817   -2.9316 O   0  0  0  0  0  0  0  0  0  0  0  0
   12.4187    3.8822   -2.6774 C   0  0  0  0  0  0  0  0  0  0  0  0
   12.3556    2.8514   -2.3312 H   0  0  0  0  0  0  0  0  0  0  0  0
   11.7184    4.5083   -2.1172 H   0  0  0  0  0  0  0  0  0  0  0  0
   12.1385    3.9419   -3.7330 H   0  0  0  0  0  0  0  0  0  0  0  0
  1  2  2  0  0  0  0
  1  6  1  0  0  0  0
  2  3  1  0  0  0  0
  3  4  2  0  0  0  0
  4  9  1  0  0  0  0
  5  4  1  0  0  0  0
  5 10  1  0  0  0  0
  6  5  2  0  0  0  0
  7  1  1  0  0  0  0
  8  2  1  0  0  0  0
 11  6  1  0  0  0  0
 11 13  2  0  0  0  0
 12 11  2  0  0  0  0
 15 14  3  0  0  0  0
 16 17  2  0  0  0  0
 18  3  1  0  0  0  0
 18 16  1  0  0  0  0
 19 16  1  0  0  0  0
 19 20  1  0  0  0  0
 19 21  1  0  0  0  0
 22 19  1  0  0  0  0
M  END
