Coordinates from ORCA-job 4-NO2-Ph-N2-OAc-B3LYPG-6-31G_dp-MTMO-d009-169-n750
 OpenBabel09051907563D

 22 21  0  0  0  0  0  0  0  0999 V2000
   15.1455    8.3975   -3.2435 C   0  0  0  0  0  0  0  0  0  0  0  0
   14.1158    7.4688   -3.2115 C   0  0  0  0  0  0  0  0  0  0  0  0
   14.3184    6.2121   -2.6232 C   0  0  0  0  0  0  0  0  0  0  0  0
   15.5553    5.8719   -2.0592 C   0  0  0  0  0  0  0  0  0  0  0  0
   16.5869    6.8082   -2.0939 C   0  0  0  0  0  0  0  0  0  0  0  0
   16.3749    8.0525   -2.6810 C   0  0  0  0  0  0  0  0  0  0  0  0
   15.0173    9.3745   -3.6910 H   0  0  0  0  0  0  0  0  0  0  0  0
   13.1444    7.6947   -3.6368 H   0  0  0  0  0  0  0  0  0  0  0  0
   15.7044    4.9024   -1.6110 H   0  0  0  0  0  0  0  0  0  0  0  0
   17.5566    6.5818   -1.6689 H   0  0  0  0  0  0  0  0  0  0  0  0
   17.4714    9.0273   -2.7107 N   0  0  0  0  0  0  0  0  0  0  0  0
   17.2488   10.1204   -3.2322 O   0  0  0  0  0  0  0  0  0  0  0  0
   18.5471    8.6946   -2.2135 O   0  0  0  0  0  0  0  0  0  0  0  0
    8.3996    5.4059    0.8783 N   0  0  0  0  0  0  0  0  0  0  0  0
    9.1501    5.1068    0.1244 N   0  0  0  0  0  0  0  0  0  0  0  0
   13.1234    4.1069   -2.2194 C   0  0  0  0  0  0  0  0  0  0  0  0
   14.0393    3.4934   -1.7304 O   0  0  0  0  0  0  0  0  0  0  0  0
   13.1935    5.4058   -2.6652 O   0  0  0  0  0  0  0  0  0  0  0  0
   11.7257    3.5864   -2.4335 C   0  0  0  0  0  0  0  0  0  0  0  0
   11.6962    2.5280   -2.1768 H   0  0  0  0  0  0  0  0  0  0  0  0
   11.0218    4.1379   -1.8027 H   0  0  0  0  0  0  0  0  0  0  0  0
   11.4207    3.7333   -3.4732 H   0  0  0  0  0  0  0  0  0  0  0  0
  1  2  2  0  0  0  0
  1  6  1  0  0  0  0
  2  3  1  0  0  0  0
  3  4  2  0  0  0  0
  4  9  1  0  0  0  0
  5  4  1  0  0  0  0
  5 10  1  0  0  0  0
  6  5  2  0  0  0  0
  7  1  1  0  0  0  0
  8  2  1  0  0  0  0
 11  6  1  0  0  0  0
 11 13  2  0  0  0  0
 12 11  2  0  0  0  0
 15 14  3  0  0  0  0
 16 17  2  0  0  0  0
 18  3  1  0  0  0  0
 18 16  1  0  0  0  0
 19 16  1  0  0  0  0
 19 20  1  0  0  0  0
 19 21  1  0  0  0  0
 22 19  1  0  0  0  0
M  END
