Coordinates from ORCA-job 4-NO2-Ph-N2-OAc-B3LYPG-6-31G_dp-MTMO-d009-169-n750
 OpenBabel09051907563D

 22 21  0  0  0  0  0  0  0  0999 V2000
   15.4911    8.5151   -3.3845 C   0  0  0  0  0  0  0  0  0  0  0  0
   14.4134    7.6511   -3.2574 C   0  0  0  0  0  0  0  0  0  0  0  0
   14.5829    6.3987   -2.6503 C   0  0  0  0  0  0  0  0  0  0  0  0
   15.8338    5.9973   -2.1629 C   0  0  0  0  0  0  0  0  0  0  0  0
   16.9135    6.8686   -2.2929 C   0  0  0  0  0  0  0  0  0  0  0  0
   16.7343    8.1097   -2.8978 C   0  0  0  0  0  0  0  0  0  0  0  0
   15.3893    9.4876   -3.8482 H   0  0  0  0  0  0  0  0  0  0  0  0
   13.4297    7.9256   -3.6213 H   0  0  0  0  0  0  0  0  0  0  0  0
   15.9572    5.0304   -1.7014 H   0  0  0  0  0  0  0  0  0  0  0  0
   17.8954    6.5942   -1.9284 H   0  0  0  0  0  0  0  0  0  0  0  0
   17.8813    9.0159   -3.0278 N   0  0  0  0  0  0  0  0  0  0  0  0
   17.6877   10.1077   -3.5634 O   0  0  0  0  0  0  0  0  0  0  0  0
   18.9671    8.6308   -2.5946 O   0  0  0  0  0  0  0  0  0  0  0  0
    5.5548    3.4885    1.3619 N   0  0  0  0  0  0  0  0  0  0  0  0
    6.4916    3.7254    0.8252 N   0  0  0  0  0  0  0  0  0  0  0  0
   13.3054    4.3684   -2.1360 C   0  0  0  0  0  0  0  0  0  0  0  0
   14.2237    3.6970   -1.7364 O   0  0  0  0  0  0  0  0  0  0  0  0
   13.4115    5.6625   -2.5870 O   0  0  0  0  0  0  0  0  0  0  0  0
   11.8651    3.9333   -2.2246 C   0  0  0  0  0  0  0  0  0  0  0  0
   11.7797    2.9048   -1.8762 H   0  0  0  0  0  0  0  0  0  0  0  0
   11.2370    4.5882   -1.6139 H   0  0  0  0  0  0  0  0  0  0  0  0
   11.5116    4.0107   -3.2568 H   0  0  0  0  0  0  0  0  0  0  0  0
  1  2  2  0  0  0  0
  1  6  1  0  0  0  0
  2  3  1  0  0  0  0
  3 18  1  0  0  0  0
  3  4  2  0  0  0  0
  4  9  1  0  0  0  0
  5  4  1  0  0  0  0
  5 10  1  0  0  0  0
  6  5  2  0  0  0  0
  7  1  1  0  0  0  0
  8  2  1  0  0  0  0
 11  6  1  0  0  0  0
 11 13  2  0  0  0  0
 12 11  2  0  0  0  0
 15 14  3  0  0  0  0
 16 17  2  0  0  0  0
 18 16  1  0  0  0  0
 19 16  1  0  0  0  0
 19 20  1  0  0  0  0
 19 21  1  0  0  0  0
 22 19  1  0  0  0  0
M  END
