Coordinates from ORCA-job 4-NO2-Ph-N2-OAc-B3LYPG-6-31G_dp-MTMO-d009-169-n750
 OpenBabel09051907563D

 22 21  0  0  0  0  0  0  0  0999 V2000
   15.2500    8.4232   -3.3014 C   0  0  0  0  0  0  0  0  0  0  0  0
   14.1911    7.5307   -3.2247 C   0  0  0  0  0  0  0  0  0  0  0  0
   14.3653    6.2821   -2.6107 C   0  0  0  0  0  0  0  0  0  0  0  0
   15.6026    5.9136   -2.0658 C   0  0  0  0  0  0  0  0  0  0  0  0
   16.6635    6.8136   -2.1455 C   0  0  0  0  0  0  0  0  0  0  0  0
   16.4797    8.0503   -2.7578 C   0  0  0  0  0  0  0  0  0  0  0  0
   15.1440    9.3934   -3.7693 H   0  0  0  0  0  0  0  0  0  0  0  0
   13.2184    7.7792   -3.6340 H   0  0  0  0  0  0  0  0  0  0  0  0
   15.7296    4.9502   -1.5982 H   0  0  0  0  0  0  0  0  0  0  0  0
   17.6346    6.5647   -1.7363 H   0  0  0  0  0  0  0  0  0  0  0  0
   17.6070    8.9866   -2.8349 N   0  0  0  0  0  0  0  0  0  0  0  0
   17.4091   10.0740   -3.3780 O   0  0  0  0  0  0  0  0  0  0  0  0
   18.6820    8.6296   -2.3533 O   0  0  0  0  0  0  0  0  0  0  0  0
    7.8181    4.6524    0.8107 N   0  0  0  0  0  0  0  0  0  0  0  0
    8.6990    4.6689    0.1435 N   0  0  0  0  0  0  0  0  0  0  0  0
   13.1126    4.2264   -2.1349 C   0  0  0  0  0  0  0  0  0  0  0  0
   14.0208    3.5914   -1.6593 O   0  0  0  0  0  0  0  0  0  0  0  0
   13.2133    5.5136   -2.6076 O   0  0  0  0  0  0  0  0  0  0  0  0
   11.6930    3.7490   -2.3007 C   0  0  0  0  0  0  0  0  0  0  0  0
   11.6392    2.6929   -2.0385 H   0  0  0  0  0  0  0  0  0  0  0  0
   11.0273    4.3225   -1.6482 H   0  0  0  0  0  0  0  0  0  0  0  0
   11.3572    3.9030   -3.3297 H   0  0  0  0  0  0  0  0  0  0  0  0
  1  2  2  0  0  0  0
  1  6  1  0  0  0  0
  2  3  1  0  0  0  0
  3 18  1  0  0  0  0
  3  4  2  0  0  0  0
  4  9  1  0  0  0  0
  5  4  1  0  0  0  0
  5 10  1  0  0  0  0
  6  5  2  0  0  0  0
  7  1  1  0  0  0  0
  8  2  1  0  0  0  0
 11  6  1  0  0  0  0
 11 13  2  0  0  0  0
 12 11  2  0  0  0  0
 15 14  3  0  0  0  0
 16 17  2  0  0  0  0
 18 16  1  0  0  0  0
 19 16  1  0  0  0  0
 19 20  1  0  0  0  0
 19 21  1  0  0  0  0
 22 19  1  0  0  0  0
M  END
