Coordinates from ORCA-job 4-NO2-Ph-N2-OAc-B3LYPG-6-31G_dp-MTMO-d009-169-n750
 OpenBabel09051907553D

 22 21  0  0  0  0  0  0  0  0999 V2000
   15.0834    8.1208   -3.3887 C   0  0  0  0  0  0  0  0  0  0  0  0
   13.9766    7.3003   -3.2287 C   0  0  0  0  0  0  0  0  0  0  0  0
   14.1056    6.0602   -2.5870 C   0  0  0  0  0  0  0  0  0  0  0  0
   15.3457    5.6284   -2.0973 C   0  0  0  0  0  0  0  0  0  0  0  0
   16.4548    6.4560   -2.2606 C   0  0  0  0  0  0  0  0  0  0  0  0
   16.3153    7.6849   -2.8998 C   0  0  0  0  0  0  0  0  0  0  0  0
   15.0127    9.0827   -3.8797 H   0  0  0  0  0  0  0  0  0  0  0  0
   13.0005    7.5993   -3.5938 H   0  0  0  0  0  0  0  0  0  0  0  0
   15.4383    4.6709   -1.6099 H   0  0  0  0  0  0  0  0  0  0  0  0
   17.4293    6.1566   -1.8958 H   0  0  0  0  0  0  0  0  0  0  0  0
   17.4930    8.5448   -3.0651 N   0  0  0  0  0  0  0  0  0  0  0  0
   17.3339    9.6271   -3.6306 O   0  0  0  0  0  0  0  0  0  0  0  0
   18.5681    8.1333   -2.6294 O   0  0  0  0  0  0  0  0  0  0  0  0
   10.7279    7.5946    0.8306 N   0  0  0  0  0  0  0  0  0  0  0  0
   10.7733    6.6497    0.2595 N   0  0  0  0  0  0  0  0  0  0  0  0
   12.7639    4.0864   -2.0192 C   0  0  0  0  0  0  0  0  0  0  0  0
   13.6645    3.3919   -1.6185 O   0  0  0  0  0  0  0  0  0  0  0  0
   12.9095    5.3695   -2.4933 O   0  0  0  0  0  0  0  0  0  0  0  0
   11.3086    3.7020   -2.0803 C   0  0  0  0  0  0  0  0  0  0  0  0
   11.1964    2.6706   -1.7486 H   0  0  0  0  0  0  0  0  0  0  0  0
   10.7253    4.3678   -1.4380 H   0  0  0  0  0  0  0  0  0  0  0  0
   10.9307    3.8134   -3.1006 H   0  0  0  0  0  0  0  0  0  0  0  0
  1  2  2  0  0  0  0
  1  6  1  0  0  0  0
  2  3  1  0  0  0  0
  3 18  1  0  0  0  0
  3  4  2  0  0  0  0
  4  9  1  0  0  0  0
  5  4  1  0  0  0  0
  5 10  1  0  0  0  0
  6  5  2  0  0  0  0
  7  1  1  0  0  0  0
  8  2  1  0  0  0  0
 11  6  1  0  0  0  0
 11 13  2  0  0  0  0
 12 11  2  0  0  0  0
 15 14  3  0  0  0  0
 16 17  2  0  0  0  0
 18 16  1  0  0  0  0
 19 16  1  0  0  0  0
 19 20  1  0  0  0  0
 19 21  1  0  0  0  0
 22 19  1  0  0  0  0
M  END
