Coordinates from ORCA-job 4-NO2-Ph-N2-OAc-B3LYPG-6-31G_dp-MTMO-d009-169-n750
 OpenBabel09051907563D

 22 21  0  0  0  0  0  0  0  0999 V2000
   15.1961    8.4072   -3.2781 C   0  0  0  0  0  0  0  0  0  0  0  0
   14.1523    7.4949   -3.2320 C   0  0  0  0  0  0  0  0  0  0  0  0
   14.3368    6.2434   -2.6270 C   0  0  0  0  0  0  0  0  0  0  0  0
   15.5693    5.8917   -2.0604 C   0  0  0  0  0  0  0  0  0  0  0  0
   16.6150    6.8116   -2.1094 C   0  0  0  0  0  0  0  0  0  0  0  0
   16.4211    8.0510   -2.7130 C   0  0  0  0  0  0  0  0  0  0  0  0
   15.0820    9.3800   -3.7385 H   0  0  0  0  0  0  0  0  0  0  0  0
   13.1839    7.7297   -3.6591 H   0  0  0  0  0  0  0  0  0  0  0  0
   15.7038    4.9267   -1.5984 H   0  0  0  0  0  0  0  0  0  0  0  0
   17.5820    6.5761   -1.6830 H   0  0  0  0  0  0  0  0  0  0  0  0
   17.5324    9.0082   -2.7580 N   0  0  0  0  0  0  0  0  0  0  0  0
   17.3258   10.0972   -3.2944 O   0  0  0  0  0  0  0  0  0  0  0  0
   18.6037    8.6659   -2.2578 O   0  0  0  0  0  0  0  0  0  0  0  0
    8.1805    5.0120    0.9013 N   0  0  0  0  0  0  0  0  0  0  0  0
    8.9914    4.9353    0.1545 N   0  0  0  0  0  0  0  0  0  0  0  0
   13.1045    4.1701   -2.1731 C   0  0  0  0  0  0  0  0  0  0  0  0
   14.0033    3.5602   -1.6491 O   0  0  0  0  0  0  0  0  0  0  0  0
   13.2008    5.4522   -2.6605 O   0  0  0  0  0  0  0  0  0  0  0  0
   11.7032    3.6623   -2.3945 C   0  0  0  0  0  0  0  0  0  0  0  0
   11.6511    2.6168   -2.0928 H   0  0  0  0  0  0  0  0  0  0  0  0
   10.9946    4.2516   -1.8048 H   0  0  0  0  0  0  0  0  0  0  0  0
   11.4236    3.7674   -3.4463 H   0  0  0  0  0  0  0  0  0  0  0  0
  1  2  2  0  0  0  0
  1  6  1  0  0  0  0
  2  3  1  0  0  0  0
  3  4  2  0  0  0  0
  4  9  1  0  0  0  0
  5  4  1  0  0  0  0
  5 10  1  0  0  0  0
  6  5  2  0  0  0  0
  7  1  1  0  0  0  0
  8  2  1  0  0  0  0
 11  6  1  0  0  0  0
 11 13  2  0  0  0  0
 12 11  2  0  0  0  0
 15 14  3  0  0  0  0
 16 17  2  0  0  0  0
 18  3  1  0  0  0  0
 18 16  1  0  0  0  0
 19 16  1  0  0  0  0
 19 20  1  0  0  0  0
 19 21  1  0  0  0  0
 22 19  1  0  0  0  0
M  END
