Coordinates from ORCA-job 4-NO2-Ph-N2-OAc-B3LYPG-6-31G_dp-MTMO-d009-169-n750
 OpenBabel09051907563D

 22 21  0  0  0  0  0  0  0  0999 V2000
   15.5156    8.5256   -3.3979 C   0  0  0  0  0  0  0  0  0  0  0  0
   14.4692    7.6166   -3.3473 C   0  0  0  0  0  0  0  0  0  0  0  0
   14.6519    6.3655   -2.7413 C   0  0  0  0  0  0  0  0  0  0  0  0
   15.8849    6.0106   -2.1780 C   0  0  0  0  0  0  0  0  0  0  0  0
   16.9333    6.9271   -2.2315 C   0  0  0  0  0  0  0  0  0  0  0  0
   16.7412    8.1663   -2.8362 C   0  0  0  0  0  0  0  0  0  0  0  0
   15.4031    9.4981   -3.8592 H   0  0  0  0  0  0  0  0  0  0  0  0
   13.5001    7.8540   -3.7714 H   0  0  0  0  0  0  0  0  0  0  0  0
   16.0183    5.0454   -1.7159 H   0  0  0  0  0  0  0  0  0  0  0  0
   17.9009    6.6892   -1.8077 H   0  0  0  0  0  0  0  0  0  0  0  0
   17.8556    9.1199   -2.8861 N   0  0  0  0  0  0  0  0  0  0  0  0
   17.6506   10.2089   -3.4232 O   0  0  0  0  0  0  0  0  0  0  0  0
   18.9274    8.7747   -2.3891 O   0  0  0  0  0  0  0  0  0  0  0  0
    4.9590    3.6722    2.0256 N   0  0  0  0  0  0  0  0  0  0  0  0
    5.8742    3.8862    1.4439 N   0  0  0  0  0  0  0  0  0  0  0  0
   13.4194    4.2911   -2.2949 C   0  0  0  0  0  0  0  0  0  0  0  0
   14.3227    3.6706   -1.7919 O   0  0  0  0  0  0  0  0  0  0  0  0
   13.5125    5.5785   -2.7671 O   0  0  0  0  0  0  0  0  0  0  0  0
   12.0144    3.7891   -2.5094 C   0  0  0  0  0  0  0  0  0  0  0  0
   11.9387    2.7676   -2.1392 H   0  0  0  0  0  0  0  0  0  0  0  0
   11.3021    4.4313   -1.9837 H   0  0  0  0  0  0  0  0  0  0  0  0
   11.7620    3.8227   -3.5732 H   0  0  0  0  0  0  0  0  0  0  0  0
  1  2  2  0  0  0  0
  1  6  1  0  0  0  0
  2  3  1  0  0  0  0
  3  4  2  0  0  0  0
  4  9  1  0  0  0  0
  5  4  1  0  0  0  0
  5 10  1  0  0  0  0
  6  5  2  0  0  0  0
  7  1  1  0  0  0  0
  8  2  1  0  0  0  0
 11  6  1  0  0  0  0
 11 13  2  0  0  0  0
 12 11  2  0  0  0  0
 15 14  3  0  0  0  0
 16 17  2  0  0  0  0
 18  3  1  0  0  0  0
 18 16  1  0  0  0  0
 19 16  1  0  0  0  0
 19 20  1  0  0  0  0
 19 21  1  0  0  0  0
 22 19  1  0  0  0  0
M  END
