Coordinates from ORCA-job 4-NO2-Ph-N2-OAc-B3LYPG-6-31G_dp-MTMO-d009-169-n750
 OpenBabel09051907563D

 22 21  0  0  0  0  0  0  0  0999 V2000
   15.4638    8.5050   -3.3740 C   0  0  0  0  0  0  0  0  0  0  0  0
   14.3843    7.6436   -3.2446 C   0  0  0  0  0  0  0  0  0  0  0  0
   14.5516    6.3915   -2.6363 C   0  0  0  0  0  0  0  0  0  0  0  0
   15.8022    5.9878   -2.1498 C   0  0  0  0  0  0  0  0  0  0  0  0
   16.8837    6.8566   -2.2821 C   0  0  0  0  0  0  0  0  0  0  0  0
   16.7066    8.0973   -2.8883 C   0  0  0  0  0  0  0  0  0  0  0  0
   15.3637    9.4772   -3.8388 H   0  0  0  0  0  0  0  0  0  0  0  0
   13.4008    7.9199   -3.6078 H   0  0  0  0  0  0  0  0  0  0  0  0
   15.9239    5.0213   -1.6873 H   0  0  0  0  0  0  0  0  0  0  0  0
   17.8653    6.5803   -1.9184 H   0  0  0  0  0  0  0  0  0  0  0  0
   17.8556    9.0007   -3.0208 N   0  0  0  0  0  0  0  0  0  0  0  0
   17.6639   10.0922   -3.5576 O   0  0  0  0  0  0  0  0  0  0  0  0
   18.9410    8.6137   -2.5883 O   0  0  0  0  0  0  0  0  0  0  0  0
    5.8667    3.5642    1.2211 N   0  0  0  0  0  0  0  0  0  0  0  0
    6.8039    3.8042    0.6867 N   0  0  0  0  0  0  0  0  0  0  0  0
   13.2696    4.3655   -2.1162 C   0  0  0  0  0  0  0  0  0  0  0  0
   14.1864    3.6933   -1.7143 O   0  0  0  0  0  0  0  0  0  0  0  0
   13.3786    5.6580   -2.5711 O   0  0  0  0  0  0  0  0  0  0  0  0
   11.8283    3.9333   -2.2036 C   0  0  0  0  0  0  0  0  0  0  0  0
   11.7409    2.9053   -1.8543 H   0  0  0  0  0  0  0  0  0  0  0  0
   11.2019    4.5900   -1.5930 H   0  0  0  0  0  0  0  0  0  0  0  0
   11.4743    4.0106   -3.2357 H   0  0  0  0  0  0  0  0  0  0  0  0
  1  2  2  0  0  0  0
  1  6  1  0  0  0  0
  2  3  1  0  0  0  0
  3 18  1  0  0  0  0
  3  4  2  0  0  0  0
  4  9  1  0  0  0  0
  5  4  1  0  0  0  0
  5 10  1  0  0  0  0
  6  5  2  0  0  0  0
  7  1  1  0  0  0  0
  8  2  1  0  0  0  0
 11  6  1  0  0  0  0
 11 13  2  0  0  0  0
 12 11  2  0  0  0  0
 15 14  3  0  0  0  0
 16 17  2  0  0  0  0
 18 16  1  0  0  0  0
 19 16  1  0  0  0  0
 19 20  1  0  0  0  0
 19 21  1  0  0  0  0
 22 19  1  0  0  0  0
M  END
