Coordinates from ORCA-job 4-NO2-Ph-N2-OAc-B3LYPG-6-31G_dp-MTMO-d009-169-n750
 OpenBabel09051907563D

 22 21  0  0  0  0  0  0  0  0999 V2000
   15.6216    8.5581   -3.4440 C   0  0  0  0  0  0  0  0  0  0  0  0
   14.5754    7.6490   -3.3895 C   0  0  0  0  0  0  0  0  0  0  0  0
   14.7615    6.3967   -2.7870 C   0  0  0  0  0  0  0  0  0  0  0  0
   15.9975    6.0407   -2.2312 C   0  0  0  0  0  0  0  0  0  0  0  0
   17.0456    6.9573   -2.2886 C   0  0  0  0  0  0  0  0  0  0  0  0
   16.8502    8.1977   -2.8898 C   0  0  0  0  0  0  0  0  0  0  0  0
   15.5065    9.5316   -3.9027 H   0  0  0  0  0  0  0  0  0  0  0  0
   13.6039    7.8874   -3.8076 H   0  0  0  0  0  0  0  0  0  0  0  0
   16.1337    5.0744   -1.7722 H   0  0  0  0  0  0  0  0  0  0  0  0
   18.0154    6.7186   -1.8706 H   0  0  0  0  0  0  0  0  0  0  0  0
   17.9642    9.1515   -2.9436 N   0  0  0  0  0  0  0  0  0  0  0  0
   17.7563   10.2416   -3.4774 O   0  0  0  0  0  0  0  0  0  0  0  0
   19.0387    8.8053   -2.4531 O   0  0  0  0  0  0  0  0  0  0  0  0
    3.8449    3.3586    2.4890 N   0  0  0  0  0  0  0  0  0  0  0  0
    4.7815    3.5882    1.9489 N   0  0  0  0  0  0  0  0  0  0  0  0
   13.5341    4.3183   -2.3460 C   0  0  0  0  0  0  0  0  0  0  0  0
   14.4439    3.6922   -1.8620 O   0  0  0  0  0  0  0  0  0  0  0  0
   13.6215    5.6104   -2.8062 O   0  0  0  0  0  0  0  0  0  0  0  0
   12.1259    3.8192   -2.5461 C   0  0  0  0  0  0  0  0  0  0  0  0
   12.0546    2.7941   -2.1852 H   0  0  0  0  0  0  0  0  0  0  0  0
   11.4216    4.4565   -2.0040 H   0  0  0  0  0  0  0  0  0  0  0  0
   11.8586    3.8638   -3.6058 H   0  0  0  0  0  0  0  0  0  0  0  0
  1  2  2  0  0  0  0
  1  6  1  0  0  0  0
  2  3  1  0  0  0  0
  3  4  2  0  0  0  0
  4  9  1  0  0  0  0
  5  4  1  0  0  0  0
  5 10  1  0  0  0  0
  6  5  2  0  0  0  0
  7  1  1  0  0  0  0
  8  2  1  0  0  0  0
 11  6  1  0  0  0  0
 11 13  2  0  0  0  0
 12 11  2  0  0  0  0
 15 14  3  0  0  0  0
 16 17  2  0  0  0  0
 18  3  1  0  0  0  0
 18 16  1  0  0  0  0
 19 16  1  0  0  0  0
 19 20  1  0  0  0  0
 19 21  1  0  0  0  0
 22 19  1  0  0  0  0
M  END
