Coordinates from ORCA-job 4-NO2-Ph-N2-OAc-B3LYPG-6-31G_dp-MTMO-d009-169-n750
 OpenBabel09051907553D

 22 21  0  0  0  0  0  0  0  0999 V2000
   14.9886    8.1506   -3.2365 C   0  0  0  0  0  0  0  0  0  0  0  0
   13.8933    7.3142   -3.0786 C   0  0  0  0  0  0  0  0  0  0  0  0
   14.0558    6.0389   -2.5189 C   0  0  0  0  0  0  0  0  0  0  0  0
   15.3175    5.5874   -2.1089 C   0  0  0  0  0  0  0  0  0  0  0  0
   16.4148    6.4311   -2.2695 C   0  0  0  0  0  0  0  0  0  0  0  0
   16.2423    7.6949   -2.8277 C   0  0  0  0  0  0  0  0  0  0  0  0
   14.8925    9.1394   -3.6656 H   0  0  0  0  0  0  0  0  0  0  0  0
   12.9011    7.6282   -3.3826 H   0  0  0  0  0  0  0  0  0  0  0  0
   15.4350    4.6040   -1.6825 H   0  0  0  0  0  0  0  0  0  0  0  0
   17.4053    6.1176   -1.9647 H   0  0  0  0  0  0  0  0  0  0  0  0
   17.4080    8.5715   -2.9910 N   0  0  0  0  0  0  0  0  0  0  0  0
   17.2208    9.6827   -3.4876 O   0  0  0  0  0  0  0  0  0  0  0  0
   18.5018    8.1439   -2.6227 O   0  0  0  0  0  0  0  0  0  0  0  0
   11.4084    7.8609    0.0339 N   0  0  0  0  0  0  0  0  0  0  0  0
   11.0875    6.8067   -0.0497 N   0  0  0  0  0  0  0  0  0  0  0  0
   12.7475    4.0256   -2.0101 C   0  0  0  0  0  0  0  0  0  0  0  0
   13.6664    3.3186   -1.6798 O   0  0  0  0  0  0  0  0  0  0  0  0
   12.8676    5.3349   -2.4165 O   0  0  0  0  0  0  0  0  0  0  0  0
   11.2940    3.6310   -2.0459 C   0  0  0  0  0  0  0  0  0  0  0  0
   11.1986    2.5888   -1.7439 H   0  0  0  0  0  0  0  0  0  0  0  0
   10.7190    4.2721   -1.3721 H   0  0  0  0  0  0  0  0  0  0  0  0
   10.8915    3.7683   -3.0539 H   0  0  0  0  0  0  0  0  0  0  0  0
  1  2  2  0  0  0  0
  1  6  1  0  0  0  0
  2  3  1  0  0  0  0
  3 18  1  0  0  0  0
  3  4  2  0  0  0  0
  4  9  1  0  0  0  0
  5  4  1  0  0  0  0
  5 10  1  0  0  0  0
  6  5  2  0  0  0  0
  7  1  1  0  0  0  0
  8  2  1  0  0  0  0
 11  6  1  0  0  0  0
 11 13  2  0  0  0  0
 12 11  2  0  0  0  0
 15 14  3  0  0  0  0
 16 17  2  0  0  0  0
 18 16  1  0  0  0  0
 19 16  1  0  0  0  0
 19 20  1  0  0  0  0
 19 21  1  0  0  0  0
 22 19  1  0  0  0  0
M  END
