Coordinates from ORCA-job 4-NO2-Ph-N2-OAc-B3LYPG-6-31G_dp-MTMO-d009-169-n750
 OpenBabel09051907563D

 22 21  0  0  0  0  0  0  0  0999 V2000
   15.4391    8.4950   -3.3656 C   0  0  0  0  0  0  0  0  0  0  0  0
   14.3575    7.6367   -3.2339 C   0  0  0  0  0  0  0  0  0  0  0  0
   14.5219    6.3853   -2.6232 C   0  0  0  0  0  0  0  0  0  0  0  0
   15.7717    5.9793   -2.1368 C   0  0  0  0  0  0  0  0  0  0  0  0
   16.8554    6.8450   -2.2714 C   0  0  0  0  0  0  0  0  0  0  0  0
   16.6812    8.0850   -2.8798 C   0  0  0  0  0  0  0  0  0  0  0  0
   15.3413    9.4666   -3.8322 H   0  0  0  0  0  0  0  0  0  0  0  0
   13.3745    7.9149   -3.5970 H   0  0  0  0  0  0  0  0  0  0  0  0
   15.8911    5.0134   -1.6723 H   0  0  0  0  0  0  0  0  0  0  0  0
   17.8365    6.5668   -1.9077 H   0  0  0  0  0  0  0  0  0  0  0  0
   17.8324    8.9851   -3.0147 N   0  0  0  0  0  0  0  0  0  0  0  0
   17.6432   10.0762   -3.5535 O   0  0  0  0  0  0  0  0  0  0  0  0
   18.9171    8.5962   -2.5822 O   0  0  0  0  0  0  0  0  0  0  0  0
    6.1628    3.6289    1.0861 N   0  0  0  0  0  0  0  0  0  0  0  0
    7.1016    3.8752    0.5574 N   0  0  0  0  0  0  0  0  0  0  0  0
   13.2342    4.3646   -2.0961 C   0  0  0  0  0  0  0  0  0  0  0  0
   14.1488    3.6922   -1.6896 O   0  0  0  0  0  0  0  0  0  0  0  0
   13.3471    5.6549   -2.5565 O   0  0  0  0  0  0  0  0  0  0  0  0
   11.7921    3.9354   -2.1836 C   0  0  0  0  0  0  0  0  0  0  0  0
   11.7030    2.9069   -1.8363 H   0  0  0  0  0  0  0  0  0  0  0  0
   11.1674    4.5916   -1.5707 H   0  0  0  0  0  0  0  0  0  0  0  0
   11.4373    4.0159   -3.2151 H   0  0  0  0  0  0  0  0  0  0  0  0
  1  2  2  0  0  0  0
  1  6  1  0  0  0  0
  2  3  1  0  0  0  0
  3 18  1  0  0  0  0
  3  4  2  0  0  0  0
  4  9  1  0  0  0  0
  5  4  1  0  0  0  0
  5 10  1  0  0  0  0
  6  5  2  0  0  0  0
  7  1  1  0  0  0  0
  8  2  1  0  0  0  0
 11  6  1  0  0  0  0
 11 13  2  0  0  0  0
 12 11  2  0  0  0  0
 15 14  3  0  0  0  0
 16 17  2  0  0  0  0
 18 16  1  0  0  0  0
 19 16  1  0  0  0  0
 19 20  1  0  0  0  0
 19 21  1  0  0  0  0
 22 19  1  0  0  0  0
M  END
