Coordinates from ORCA-job 4-NO2-Ph-N2-OAc-B3LYPG-6-31G_dp-MTMO-d009-169-n750
 OpenBabel09051907563D

 22 21  0  0  0  0  0  0  0  0999 V2000
   15.6422    8.5647   -3.4528 C   0  0  0  0  0  0  0  0  0  0  0  0
   14.5966    7.6549   -3.3985 C   0  0  0  0  0  0  0  0  0  0  0  0
   14.7838    6.4023   -2.7969 C   0  0  0  0  0  0  0  0  0  0  0  0
   16.0203    6.0467   -2.2419 C   0  0  0  0  0  0  0  0  0  0  0  0
   17.0678    6.9641   -2.2990 C   0  0  0  0  0  0  0  0  0  0  0  0
   16.8713    8.2048   -2.8993 C   0  0  0  0  0  0  0  0  0  0  0  0
   15.5263    9.5384   -3.9108 H   0  0  0  0  0  0  0  0  0  0  0  0
   13.6249    7.8929   -3.8162 H   0  0  0  0  0  0  0  0  0  0  0  0
   16.1573    5.0802   -1.7836 H   0  0  0  0  0  0  0  0  0  0  0  0
   18.0379    6.7258   -1.8814 H   0  0  0  0  0  0  0  0  0  0  0  0
   17.9846    9.1594   -2.9528 N   0  0  0  0  0  0  0  0  0  0  0  0
   17.7758   10.2497   -3.4858 O   0  0  0  0  0  0  0  0  0  0  0  0
   19.0595    8.8136   -2.4630 O   0  0  0  0  0  0  0  0  0  0  0  0
    3.6202    3.3027    2.5903 N   0  0  0  0  0  0  0  0  0  0  0  0
    4.5585    3.5311    2.0526 N   0  0  0  0  0  0  0  0  0  0  0  0
   13.5584    4.3222   -2.3582 C   0  0  0  0  0  0  0  0  0  0  0  0
   14.4692    3.6959   -1.8765 O   0  0  0  0  0  0  0  0  0  0  0  0
   13.6443    5.6153   -2.8161 O   0  0  0  0  0  0  0  0  0  0  0  0
   12.1503    3.8226   -2.5573 C   0  0  0  0  0  0  0  0  0  0  0  0
   12.0805    2.7964   -2.1991 H   0  0  0  0  0  0  0  0  0  0  0  0
   11.4464    4.4578   -2.0121 H   0  0  0  0  0  0  0  0  0  0  0  0
   11.8810    3.8700   -3.6164 H   0  0  0  0  0  0  0  0  0  0  0  0
  1  2  2  0  0  0  0
  1  6  1  0  0  0  0
  2  3  1  0  0  0  0
  3  4  2  0  0  0  0
  4  9  1  0  0  0  0
  5  4  1  0  0  0  0
  5 10  1  0  0  0  0
  6  5  2  0  0  0  0
  7  1  1  0  0  0  0
  8  2  1  0  0  0  0
 11  6  1  0  0  0  0
 11 13  2  0  0  0  0
 12 11  2  0  0  0  0
 15 14  3  0  0  0  0
 16 17  2  0  0  0  0
 18  3  1  0  0  0  0
 18 16  1  0  0  0  0
 19 16  1  0  0  0  0
 19 20  1  0  0  0  0
 19 21  1  0  0  0  0
 22 19  1  0  0  0  0
M  END
