Coordinates from ORCA-job 4-NO2-Ph-N2-OAc-B3LYPG-6-31G_dp-MTMO-d009-169-n750
 OpenBabel09051907563D

 22 21  0  0  0  0  0  0  0  0999 V2000
   15.6620    8.5707   -3.4615 C   0  0  0  0  0  0  0  0  0  0  0  0
   14.6166    7.6607   -3.4069 C   0  0  0  0  0  0  0  0  0  0  0  0
   14.8044    6.4079   -2.8059 C   0  0  0  0  0  0  0  0  0  0  0  0
   16.0413    6.0524   -2.2517 C   0  0  0  0  0  0  0  0  0  0  0  0
   17.0885    6.9700   -2.3091 C   0  0  0  0  0  0  0  0  0  0  0  0
   16.8915    8.2108   -2.9088 C   0  0  0  0  0  0  0  0  0  0  0  0
   15.5456    9.5446   -3.9190 H   0  0  0  0  0  0  0  0  0  0  0  0
   13.6445    7.8986   -3.8238 H   0  0  0  0  0  0  0  0  0  0  0  0
   16.1788    5.0856   -1.7940 H   0  0  0  0  0  0  0  0  0  0  0  0
   18.0590    6.7317   -1.8923 H   0  0  0  0  0  0  0  0  0  0  0  0
   18.0046    9.1657   -2.9626 N   0  0  0  0  0  0  0  0  0  0  0  0
   17.7952   10.2561   -3.4951 O   0  0  0  0  0  0  0  0  0  0  0  0
   19.0798    8.8199   -2.4736 O   0  0  0  0  0  0  0  0  0  0  0  0
    3.4130    3.2465    2.6818 N   0  0  0  0  0  0  0  0  0  0  0  0
    4.3525    3.4756    2.1464 N   0  0  0  0  0  0  0  0  0  0  0  0
   13.5800    4.3270   -2.3683 C   0  0  0  0  0  0  0  0  0  0  0  0
   14.4918    3.7001   -1.8892 O   0  0  0  0  0  0  0  0  0  0  0  0
   13.6649    5.6208   -2.8244 O   0  0  0  0  0  0  0  0  0  0  0  0
   12.1716    3.8275   -2.5656 C   0  0  0  0  0  0  0  0  0  0  0  0
   12.1025    2.8009   -2.2087 H   0  0  0  0  0  0  0  0  0  0  0  0
   11.4686    4.4619   -2.0183 H   0  0  0  0  0  0  0  0  0  0  0  0
   11.9005    3.8764   -3.6241 H   0  0  0  0  0  0  0  0  0  0  0  0
  1  2  2  0  0  0  0
  1  6  1  0  0  0  0
  2  3  1  0  0  0  0
  3  4  2  0  0  0  0
  4  9  1  0  0  0  0
  5  4  1  0  0  0  0
  5 10  1  0  0  0  0
  6  5  2  0  0  0  0
  7  1  1  0  0  0  0
  8  2  1  0  0  0  0
 11  6  1  0  0  0  0
 11 13  2  0  0  0  0
 12 11  2  0  0  0  0
 15 14  3  0  0  0  0
 16 17  2  0  0  0  0
 18  3  1  0  0  0  0
 18 16  1  0  0  0  0
 19 16  1  0  0  0  0
 19 20  1  0  0  0  0
 19 21  1  0  0  0  0
 22 19  1  0  0  0  0
M  END
