Coordinates from ORCA-job 4-NO2-Ph-N2-OAc-B3LYPG-6-31G_dp-MTMO-d009-169-n750
 OpenBabel09051907563D

 22 21  0  0  0  0  0  0  0  0999 V2000
   15.3865    8.4713   -3.3514 C   0  0  0  0  0  0  0  0  0  0  0  0
   14.3007    7.6185   -3.2189 C   0  0  0  0  0  0  0  0  0  0  0  0
   14.4573    6.3698   -2.6007 C   0  0  0  0  0  0  0  0  0  0  0  0
   15.7036    5.9610   -2.1075 C   0  0  0  0  0  0  0  0  0  0  0  0
   16.7916    6.8211   -2.2432 C   0  0  0  0  0  0  0  0  0  0  0  0
   16.6251    8.0586   -2.8590 C   0  0  0  0  0  0  0  0  0  0  0  0
   15.2946    9.4407   -3.8237 H   0  0  0  0  0  0  0  0  0  0  0  0
   13.3203    7.8989   -3.5872 H   0  0  0  0  0  0  0  0  0  0  0  0
   15.8168    4.9974   -1.6367 H   0  0  0  0  0  0  0  0  0  0  0  0
   17.7703    6.5406   -1.8746 H   0  0  0  0  0  0  0  0  0  0  0  0
   17.7807    8.9528   -2.9950 N   0  0  0  0  0  0  0  0  0  0  0  0
   17.5981   10.0417   -3.5404 O   0  0  0  0  0  0  0  0  0  0  0  0
   18.8623    8.5614   -2.5567 O   0  0  0  0  0  0  0  0  0  0  0  0
    6.8125    3.7763    0.8033 N   0  0  0  0  0  0  0  0  0  0  0  0
    7.7604    4.0372    0.2983 N   0  0  0  0  0  0  0  0  0  0  0  0
   13.1551    4.3637   -2.0526 C   0  0  0  0  0  0  0  0  0  0  0  0
   14.0612    3.6969   -1.6186 O   0  0  0  0  0  0  0  0  0  0  0  0
   13.2794    5.6441   -2.5371 O   0  0  0  0  0  0  0  0  0  0  0  0
   11.7127    3.9373   -2.1502 C   0  0  0  0  0  0  0  0  0  0  0  0
   11.6241    2.9004   -1.8283 H   0  0  0  0  0  0  0  0  0  0  0  0
   11.0893    4.5755   -1.5168 H   0  0  0  0  0  0  0  0  0  0  0  0
   11.3545    4.0459   -3.1777 H   0  0  0  0  0  0  0  0  0  0  0  0
  1  2  2  0  0  0  0
  1  6  1  0  0  0  0
  2  3  1  0  0  0  0
  3 18  1  0  0  0  0
  3  4  2  0  0  0  0
  4  9  1  0  0  0  0
  5  4  1  0  0  0  0
  5 10  1  0  0  0  0
  6  5  2  0  0  0  0
  7  1  1  0  0  0  0
  8  2  1  0  0  0  0
 11  6  1  0  0  0  0
 11 13  2  0  0  0  0
 12 11  2  0  0  0  0
 15 14  3  0  0  0  0
 16 17  2  0  0  0  0
 18 16  1  0  0  0  0
 19 16  1  0  0  0  0
 19 20  1  0  0  0  0
 19 21  1  0  0  0  0
 22 19  1  0  0  0  0
M  END
