Coordinates from ORCA-job 4-NO2-Ph-N2-OAc-B3LYPG-6-31G_dp-MTMO-d009-169-n750
 OpenBabel09051907563D

 22 21  0  0  0  0  0  0  0  0999 V2000
   15.8846    8.6364   -3.5611 C   0  0  0  0  0  0  0  0  0  0  0  0
   14.8419    7.7232   -3.5075 C   0  0  0  0  0  0  0  0  0  0  0  0
   15.0342    6.4693   -2.9101 C   0  0  0  0  0  0  0  0  0  0  0  0
   16.2729    6.1159   -2.3585 C   0  0  0  0  0  0  0  0  0  0  0  0
   17.3174    7.0367   -2.4149 C   0  0  0  0  0  0  0  0  0  0  0  0
   17.1159    8.2785   -3.0110 C   0  0  0  0  0  0  0  0  0  0  0  0
   15.7648    9.6111   -4.0160 H   0  0  0  0  0  0  0  0  0  0  0  0
   13.8686    7.9595   -3.9224 H   0  0  0  0  0  0  0  0  0  0  0  0
   16.4139    5.1483   -1.9038 H   0  0  0  0  0  0  0  0  0  0  0  0
   18.2890    6.8002   -1.9999 H   0  0  0  0  0  0  0  0  0  0  0  0
   18.2261    9.2368   -3.0638 N   0  0  0  0  0  0  0  0  0  0  0  0
   18.0129   10.3281   -3.5929 O   0  0  0  0  0  0  0  0  0  0  0  0
   19.3030    8.8929   -2.5769 O   0  0  0  0  0  0  0  0  0  0  0  0
    1.1118    2.6296    3.7312 N   0  0  0  0  0  0  0  0  0  0  0  0
    2.0544    2.8548    3.1996 N   0  0  0  0  0  0  0  0  0  0  0  0
   13.8183    4.3817   -2.4819 C   0  0  0  0  0  0  0  0  0  0  0  0
   14.7350    3.7533   -2.0142 O   0  0  0  0  0  0  0  0  0  0  0  0
   13.8967    5.6794   -2.9279 O   0  0  0  0  0  0  0  0  0  0  0  0
   12.4099    3.8801   -2.6734 C   0  0  0  0  0  0  0  0  0  0  0  0
   12.3466    2.8494   -2.3270 H   0  0  0  0  0  0  0  0  0  0  0  0
   11.7096    4.5064   -2.1133 H   0  0  0  0  0  0  0  0  0  0  0  0
   12.1297    3.9397   -3.7290 H   0  0  0  0  0  0  0  0  0  0  0  0
  1  2  2  0  0  0  0
  1  6  1  0  0  0  0
  2  3  1  0  0  0  0
  3  4  2  0  0  0  0
  4  9  1  0  0  0  0
  5  4  1  0  0  0  0
  5 10  1  0  0  0  0
  6  5  2  0  0  0  0
  7  1  1  0  0  0  0
  8  2  1  0  0  0  0
 11  6  1  0  0  0  0
 11 13  2  0  0  0  0
 12 11  2  0  0  0  0
 15 14  3  0  0  0  0
 16 17  2  0  0  0  0
 18  3  1  0  0  0  0
 18 16  1  0  0  0  0
 19 16  1  0  0  0  0
 19 20  1  0  0  0  0
 19 21  1  0  0  0  0
 22 19  1  0  0  0  0
M  END
