Coordinates from ORCA-job 4-NO2-Ph-N2-OAc-B3LYPG-6-31G_dp-MTMO-d009-169-n750
 OpenBabel09051907563D

 22 21  0  0  0  0  0  0  0  0999 V2000
   15.6766    8.5752   -3.4680 C   0  0  0  0  0  0  0  0  0  0  0  0
   14.6316    7.6646   -3.4137 C   0  0  0  0  0  0  0  0  0  0  0  0
   14.8199    6.4118   -2.8130 C   0  0  0  0  0  0  0  0  0  0  0  0
   16.0569    6.0566   -2.2589 C   0  0  0  0  0  0  0  0  0  0  0  0
   17.1037    6.9747   -2.3159 C   0  0  0  0  0  0  0  0  0  0  0  0
   16.9062    8.2156   -2.9153 C   0  0  0  0  0  0  0  0  0  0  0  0
   15.5598    9.5491   -3.9253 H   0  0  0  0  0  0  0  0  0  0  0  0
   13.6594    7.9023   -3.8306 H   0  0  0  0  0  0  0  0  0  0  0  0
   16.1947    5.0898   -1.8014 H   0  0  0  0  0  0  0  0  0  0  0  0
   18.0742    6.7367   -1.8991 H   0  0  0  0  0  0  0  0  0  0  0  0
   18.0189    9.1710   -2.9688 N   0  0  0  0  0  0  0  0  0  0  0  0
   17.8091   10.2615   -3.5009 O   0  0  0  0  0  0  0  0  0  0  0  0
   19.0942    8.8255   -2.4797 O   0  0  0  0  0  0  0  0  0  0  0  0
    3.2581    3.2071    2.7527 N   0  0  0  0  0  0  0  0  0  0  0  0
    4.1983    3.4354    2.2182 N   0  0  0  0  0  0  0  0  0  0  0  0
   13.5965    4.3300   -2.3767 C   0  0  0  0  0  0  0  0  0  0  0  0
   14.5088    3.7031   -1.8985 O   0  0  0  0  0  0  0  0  0  0  0  0
   13.6807    5.6242   -2.8317 O   0  0  0  0  0  0  0  0  0  0  0  0
   12.1882    3.8302   -2.5736 C   0  0  0  0  0  0  0  0  0  0  0  0
   12.1200    2.8028   -2.2186 H   0  0  0  0  0  0  0  0  0  0  0  0
   11.4855    4.4631   -2.0243 H   0  0  0  0  0  0  0  0  0  0  0  0
   11.9159    3.8809   -3.6318 H   0  0  0  0  0  0  0  0  0  0  0  0
  1  2  2  0  0  0  0
  1  6  1  0  0  0  0
  2  3  1  0  0  0  0
  3  4  2  0  0  0  0
  4  9  1  0  0  0  0
  5  4  1  0  0  0  0
  5 10  1  0  0  0  0
  6  5  2  0  0  0  0
  7  1  1  0  0  0  0
  8  2  1  0  0  0  0
 11  6  1  0  0  0  0
 11 13  2  0  0  0  0
 12 11  2  0  0  0  0
 15 14  3  0  0  0  0
 16 17  2  0  0  0  0
 18  3  1  0  0  0  0
 18 16  1  0  0  0  0
 19 16  1  0  0  0  0
 19 20  1  0  0  0  0
 19 21  1  0  0  0  0
 22 19  1  0  0  0  0
M  END
