Coordinates from ORCA-job 4-NO2-Ph-N2-OAc-B3LYPG-6-31G_dp-MTMO-d009-169-n750
 OpenBabel09051907563D

 22 21  0  0  0  0  0  0  0  0999 V2000
   15.3878    8.4721   -3.3515 C   0  0  0  0  0  0  0  0  0  0  0  0
   14.3021    7.6191   -3.2189 C   0  0  0  0  0  0  0  0  0  0  0  0
   14.4591    6.3702   -2.6012 C   0  0  0  0  0  0  0  0  0  0  0  0
   15.7056    5.9614   -2.1086 C   0  0  0  0  0  0  0  0  0  0  0  0
   16.7934    6.8217   -2.2442 C   0  0  0  0  0  0  0  0  0  0  0  0
   16.6265    8.0593   -2.8596 C   0  0  0  0  0  0  0  0  0  0  0  0
   15.2956    9.4416   -3.8234 H   0  0  0  0  0  0  0  0  0  0  0  0
   13.3216    7.8994   -3.5868 H   0  0  0  0  0  0  0  0  0  0  0  0
   15.8191    4.9977   -1.6381 H   0  0  0  0  0  0  0  0  0  0  0  0
   17.7722    6.5412   -1.8761 H   0  0  0  0  0  0  0  0  0  0  0  0
   17.7820    8.9538   -2.9956 N   0  0  0  0  0  0  0  0  0  0  0  0
   17.5991   10.0428   -3.5406 O   0  0  0  0  0  0  0  0  0  0  0  0
   18.8637    8.5625   -2.5578 O   0  0  0  0  0  0  0  0  0  0  0  0
    6.7943    3.7728    0.8102 N   0  0  0  0  0  0  0  0  0  0  0  0
    7.7422    4.0335    0.3049 N   0  0  0  0  0  0  0  0  0  0  0  0
   13.1575    4.3634   -2.0539 C   0  0  0  0  0  0  0  0  0  0  0  0
   14.0640    3.6964   -1.6212 O   0  0  0  0  0  0  0  0  0  0  0  0
   13.2813    5.6442   -2.5373 O   0  0  0  0  0  0  0  0  0  0  0  0
   11.7151    3.9370   -2.1508 C   0  0  0  0  0  0  0  0  0  0  0  0
   11.6263    2.9007   -1.8273 H   0  0  0  0  0  0  0  0  0  0  0  0
   11.0917    4.5765   -1.5185 H   0  0  0  0  0  0  0  0  0  0  0  0
   11.3569    4.0441   -3.1785 H   0  0  0  0  0  0  0  0  0  0  0  0
  1  2  2  0  0  0  0
  1  6  1  0  0  0  0
  2  3  1  0  0  0  0
  3 18  1  0  0  0  0
  3  4  2  0  0  0  0
  4  9  1  0  0  0  0
  5  4  1  0  0  0  0
  5 10  1  0  0  0  0
  6  5  2  0  0  0  0
  7  1  1  0  0  0  0
  8  2  1  0  0  0  0
 11  6  1  0  0  0  0
 11 13  2  0  0  0  0
 12 11  2  0  0  0  0
 15 14  3  0  0  0  0
 16 17  2  0  0  0  0
 18 16  1  0  0  0  0
 19 16  1  0  0  0  0
 19 20  1  0  0  0  0
 19 21  1  0  0  0  0
 22 19  1  0  0  0  0
M  END
