Coordinates from ORCA-job 4-NO2-Ph-N2-OAc-B3LYPG-6-31G_dp-MTMO-d009-169-n750
 OpenBabel09051907563D

 22 21  0  0  0  0  0  0  0  0999 V2000
   15.4008    8.4772   -3.3558 C   0  0  0  0  0  0  0  0  0  0  0  0
   14.3151    7.6244   -3.2220 C   0  0  0  0  0  0  0  0  0  0  0  0
   14.4727    6.3753   -2.6047 C   0  0  0  0  0  0  0  0  0  0  0  0
   15.7197    5.9662   -2.1137 C   0  0  0  0  0  0  0  0  0  0  0  0
   16.8075    6.8264   -2.2506 C   0  0  0  0  0  0  0  0  0  0  0  0
   16.6400    8.0641   -2.8655 C   0  0  0  0  0  0  0  0  0  0  0  0
   15.3082    9.4468   -3.8274 H   0  0  0  0  0  0  0  0  0  0  0  0
   13.3341    7.9050   -3.5886 H   0  0  0  0  0  0  0  0  0  0  0  0
   15.8337    5.0023   -1.6438 H   0  0  0  0  0  0  0  0  0  0  0  0
   17.7867    6.5457   -1.8836 H   0  0  0  0  0  0  0  0  0  0  0  0
   17.7955    8.9585   -3.0027 N   0  0  0  0  0  0  0  0  0  0  0  0
   17.6121   10.0476   -3.5473 O   0  0  0  0  0  0  0  0  0  0  0  0
   18.8777    8.5668   -2.5663 O   0  0  0  0  0  0  0  0  0  0  0  0
    6.6549    3.7267    0.8637 N   0  0  0  0  0  0  0  0  0  0  0  0
    7.6018    3.9893    0.3576 N   0  0  0  0  0  0  0  0  0  0  0  0
   13.1726    4.3667   -2.0611 C   0  0  0  0  0  0  0  0  0  0  0  0
   14.0809    3.6970   -1.6363 O   0  0  0  0  0  0  0  0  0  0  0  0
   13.2947    5.6499   -2.5386 O   0  0  0  0  0  0  0  0  0  0  0  0
   11.7297    3.9412   -2.1543 C   0  0  0  0  0  0  0  0  0  0  0  0
   11.6400    2.9070   -1.8244 H   0  0  0  0  0  0  0  0  0  0  0  0
   11.1071    4.5857   -1.5266 H   0  0  0  0  0  0  0  0  0  0  0  0
   11.3717    4.0416   -3.1828 H   0  0  0  0  0  0  0  0  0  0  0  0
  1  2  2  0  0  0  0
  1  6  1  0  0  0  0
  2  3  1  0  0  0  0
  3 18  1  0  0  0  0
  3  4  2  0  0  0  0
  4  9  1  0  0  0  0
  5  4  1  0  0  0  0
  5 10  1  0  0  0  0
  6  5  2  0  0  0  0
  7  1  1  0  0  0  0
  8  2  1  0  0  0  0
 11  6  1  0  0  0  0
 11 13  2  0  0  0  0
 12 11  2  0  0  0  0
 15 14  3  0  0  0  0
 16 17  2  0  0  0  0
 18 16  1  0  0  0  0
 19 16  1  0  0  0  0
 19 20  1  0  0  0  0
 19 21  1  0  0  0  0
 22 19  1  0  0  0  0
M  END
