Coordinates from ORCA-job 4-NO2-Ph-N2-OAc-B3LYPG-6-31G_dp-MTMO-d009-169-n750
 OpenBabel09051907553D

 22 20  0  0  0  0  0  0  0  0999 V2000
   15.6042    9.0748   -2.6378 C   0  0  0  0  0  0  0  0  0  0  0  0
   14.2805    9.0586   -2.1738 C   0  0  0  0  0  0  0  0  0  0  0  0
   13.8914    7.7569   -1.9855 C   0  0  0  0  0  0  0  0  0  0  0  0
   14.4103    6.6013   -2.1172 C   0  0  0  0  0  0  0  0  0  0  0  0
   15.7397    6.5987   -2.5802 C   0  0  0  0  0  0  0  0  0  0  0  0
   16.2952    7.8644   -2.8282 C   0  0  0  0  0  0  0  0  0  0  0  0
   16.1065   10.0092   -2.8549 H   0  0  0  0  0  0  0  0  0  0  0  0
   13.6882    9.9487   -2.0037 H   0  0  0  0  0  0  0  0  0  0  0  0
   13.6808    4.8209   -1.8110 H   0  0  0  0  0  0  0  0  0  0  0  0
   16.3290    5.7046   -2.7471 H   0  0  0  0  0  0  0  0  0  0  0  0
   17.6868    7.9366   -3.3165 N   0  0  0  0  0  0  0  0  0  0  0  0
   18.1631    9.0513   -3.5272 O   0  0  0  0  0  0  0  0  0  0  0  0
   18.2841    6.8755   -3.4824 O   0  0  0  0  0  0  0  0  0  0  0  0
   11.9138    7.8292   -1.2938 N   0  0  0  0  0  0  0  0  0  0  0  0
   11.0438    7.2140   -0.9927 N   0  0  0  0  0  0  0  0  0  0  0  0
   12.1274    3.7374   -1.9814 C   0  0  0  0  0  0  0  0  0  0  0  0
   13.4453    3.8583   -1.7551 O   0  0  0  0  0  0  0  0  0  0  0  0
   11.3857    4.6838   -2.1649 O   0  0  0  0  0  0  0  0  0  0  0  0
   11.6915    2.2907   -1.9808 C   0  0  0  0  0  0  0  0  0  0  0  0
   11.9722    1.8162   -1.0356 H   0  0  0  0  0  0  0  0  0  0  0  0
   10.6131    2.2323   -2.1248 H   0  0  0  0  0  0  0  0  0  0  0  0
   12.2048    1.7480   -2.7802 H   0  0  0  0  0  0  0  0  0  0  0  0
  1  2  1  0  0  0  0
  2  8  1  0  0  0  0
  2  3  2  0  0  0  0
  4  3  1  0  0  0  0
  5  4  2  0  0  0  0
  6  1  2  0  0  0  0
  6  5  1  0  0  0  0
  7  1  1  0  0  0  0
  9 17  1  0  0  0  0
 10  5  1  0  0  0  0
 11  6  1  0  0  0  0
 12 11  2  0  0  0  0
 13 11  2  0  0  0  0
 14 15  3  0  0  0  0
 16 19  1  0  0  0  0
 16 17  1  0  0  0  0
 18 16  2  0  0  0  0
 19 20  1  0  0  0  0
 21 19  1  0  0  0  0
 22 19  1  0  0  0  0
M  RAD  2   3   2   4   2
M  END
