Coordinates from ORCA-job 4-NO2-Ph-N2-OAc-B3LYPG-6-31G_dp-MTMO-d009-169-n750
 OpenBabel09051907563D

 22 21  0  0  0  0  0  0  0  0999 V2000
   15.9014    8.6412   -3.5687 C   0  0  0  0  0  0  0  0  0  0  0  0
   14.8589    7.7279   -3.5150 C   0  0  0  0  0  0  0  0  0  0  0  0
   15.0513    6.4740   -2.9178 C   0  0  0  0  0  0  0  0  0  0  0  0
   16.2901    6.1207   -2.3664 C   0  0  0  0  0  0  0  0  0  0  0  0
   17.3345    7.0417   -2.4227 C   0  0  0  0  0  0  0  0  0  0  0  0
   17.1328    8.2835   -3.0187 C   0  0  0  0  0  0  0  0  0  0  0  0
   15.7815    9.6160   -4.0234 H   0  0  0  0  0  0  0  0  0  0  0  0
   13.8854    7.9641   -3.9299 H   0  0  0  0  0  0  0  0  0  0  0  0
   16.4313    5.1530   -1.9118 H   0  0  0  0  0  0  0  0  0  0  0  0
   18.3062    6.8052   -2.0079 H   0  0  0  0  0  0  0  0  0  0  0  0
   18.2429    9.2419   -3.0714 N   0  0  0  0  0  0  0  0  0  0  0  0
   18.0295   10.3332   -3.6005 O   0  0  0  0  0  0  0  0  0  0  0  0
   19.3199    8.8981   -2.5848 O   0  0  0  0  0  0  0  0  0  0  0  0
    0.9402    2.5828    3.8095 N   0  0  0  0  0  0  0  0  0  0  0  0
    1.8830    2.8080    3.2782 N   0  0  0  0  0  0  0  0  0  0  0  0
   13.8358    4.3860   -2.4901 C   0  0  0  0  0  0  0  0  0  0  0  0
   14.7527    3.7576   -2.0228 O   0  0  0  0  0  0  0  0  0  0  0  0
   13.9139    5.6839   -2.9356 O   0  0  0  0  0  0  0  0  0  0  0  0
   12.4274    3.8843   -2.6814 C   0  0  0  0  0  0  0  0  0  0  0  0
   12.3644    2.8536   -2.3353 H   0  0  0  0  0  0  0  0  0  0  0  0
   11.7272    4.5104   -2.1211 H   0  0  0  0  0  0  0  0  0  0  0  0
   12.1471    3.9442   -3.7370 H   0  0  0  0  0  0  0  0  0  0  0  0
  1  2  2  0  0  0  0
  1  6  1  0  0  0  0
  2  3  1  0  0  0  0
  3  4  2  0  0  0  0
  4  9  1  0  0  0  0
  5  4  1  0  0  0  0
  5 10  1  0  0  0  0
  6  5  2  0  0  0  0
  7  1  1  0  0  0  0
  8  2  1  0  0  0  0
 11  6  1  0  0  0  0
 11 13  2  0  0  0  0
 12 11  2  0  0  0  0
 15 14  3  0  0  0  0
 16 17  2  0  0  0  0
 18  3  1  0  0  0  0
 18 16  1  0  0  0  0
 19 16  1  0  0  0  0
 19 20  1  0  0  0  0
 19 21  1  0  0  0  0
 22 19  1  0  0  0  0
M  END
