Coordinates from ORCA-job 4-NO2-Ph-N2-OAc-B3LYPG-6-31G_dp-MTMO-d009-169-n750
 OpenBabel09051907563D

 22 21  0  0  0  0  0  0  0  0999 V2000
   15.8697    8.6320   -3.5544 C   0  0  0  0  0  0  0  0  0  0  0  0
   14.8268    7.7191   -3.5005 C   0  0  0  0  0  0  0  0  0  0  0  0
   15.0187    6.4653   -2.9029 C   0  0  0  0  0  0  0  0  0  0  0  0
   16.2573    6.1117   -2.3514 C   0  0  0  0  0  0  0  0  0  0  0  0
   17.3021    7.0322   -2.4080 C   0  0  0  0  0  0  0  0  0  0  0  0
   17.1009    8.2739   -3.0044 C   0  0  0  0  0  0  0  0  0  0  0  0
   15.7502    9.6066   -4.0095 H   0  0  0  0  0  0  0  0  0  0  0  0
   13.8535    7.9556   -3.9155 H   0  0  0  0  0  0  0  0  0  0  0  0
   16.3981    5.1441   -1.8965 H   0  0  0  0  0  0  0  0  0  0  0  0
   18.2737    6.7954   -1.9930 H   0  0  0  0  0  0  0  0  0  0  0  0
   18.2115    9.2318   -3.0574 N   0  0  0  0  0  0  0  0  0  0  0  0
   17.9985   10.3231   -3.5868 O   0  0  0  0  0  0  0  0  0  0  0  0
   19.2883    8.8877   -2.5706 O   0  0  0  0  0  0  0  0  0  0  0  0
    1.2661    2.6706    3.6601 N   0  0  0  0  0  0  0  0  0  0  0  0
    2.2085    2.8961    3.1285 N   0  0  0  0  0  0  0  0  0  0  0  0
   13.8023    4.3781   -2.4741 C   0  0  0  0  0  0  0  0  0  0  0  0
   14.7188    3.7497   -2.0061 O   0  0  0  0  0  0  0  0  0  0  0  0
   13.8810    5.6756   -2.9205 O   0  0  0  0  0  0  0  0  0  0  0  0
   12.3937    3.8768   -2.6656 C   0  0  0  0  0  0  0  0  0  0  0  0
   12.3301    2.8463   -2.3188 H   0  0  0  0  0  0  0  0  0  0  0  0
   11.6937    4.5036   -2.1060 H   0  0  0  0  0  0  0  0  0  0  0  0
   12.1138    3.9360   -3.7214 H   0  0  0  0  0  0  0  0  0  0  0  0
  1  2  2  0  0  0  0
  1  6  1  0  0  0  0
  2  3  1  0  0  0  0
  3  4  2  0  0  0  0
  4  9  1  0  0  0  0
  5  4  1  0  0  0  0
  5 10  1  0  0  0  0
  6  5  2  0  0  0  0
  7  1  1  0  0  0  0
  8  2  1  0  0  0  0
 11  6  1  0  0  0  0
 11 13  2  0  0  0  0
 12 11  2  0  0  0  0
 15 14  3  0  0  0  0
 16 17  2  0  0  0  0
 18  3  1  0  0  0  0
 18 16  1  0  0  0  0
 19 16  1  0  0  0  0
 19 20  1  0  0  0  0
 19 21  1  0  0  0  0
 22 19  1  0  0  0  0
M  END
