Coordinates from ORCA-job 4-NO2-Ph-N2-OAc-B3LYPG-6-31G_dp-MTMO-d009-169-n750
 OpenBabel09051907563D

 22 21  0  0  0  0  0  0  0  0999 V2000
   15.1644    8.3981   -3.2623 C   0  0  0  0  0  0  0  0  0  0  0  0
   14.1302    7.4745   -3.2292 C   0  0  0  0  0  0  0  0  0  0  0  0
   14.3234    6.2217   -2.6294 C   0  0  0  0  0  0  0  0  0  0  0  0
   15.5551    5.8803   -2.0551 C   0  0  0  0  0  0  0  0  0  0  0  0
   16.5913    6.8115   -2.0910 C   0  0  0  0  0  0  0  0  0  0  0  0
   16.3887    8.0520   -2.6895 C   0  0  0  0  0  0  0  0  0  0  0  0
   15.0435    9.3721   -3.7184 H   0  0  0  0  0  0  0  0  0  0  0  0
   13.1625    7.7014   -3.6623 H   0  0  0  0  0  0  0  0  0  0  0  0
   15.6967    4.9139   -1.5979 H   0  0  0  0  0  0  0  0  0  0  0  0
   17.5574    6.5840   -1.6583 H   0  0  0  0  0  0  0  0  0  0  0  0
   17.4900    9.0213   -2.7204 N   0  0  0  0  0  0  0  0  0  0  0  0
   17.2758   10.1111   -3.2523 O   0  0  0  0  0  0  0  0  0  0  0  0
   18.5611    8.6877   -2.2138 O   0  0  0  0  0  0  0  0  0  0  0  0
    8.3485    5.2844    0.9139 N   0  0  0  0  0  0  0  0  0  0  0  0
    9.1107    5.0444    0.1507 N   0  0  0  0  0  0  0  0  0  0  0  0
   13.1138    4.1286   -2.2075 C   0  0  0  0  0  0  0  0  0  0  0  0
   14.0207    3.5192   -1.6970 O   0  0  0  0  0  0  0  0  0  0  0  0
   13.1955    5.4197   -2.6734 O   0  0  0  0  0  0  0  0  0  0  0  0
   11.7166    3.6109   -2.4309 C   0  0  0  0  0  0  0  0  0  0  0  0
   11.6809    2.5551   -2.1644 H   0  0  0  0  0  0  0  0  0  0  0  0
   11.0086    4.1701   -1.8117 H   0  0  0  0  0  0  0  0  0  0  0  0
   11.4219    3.7494   -3.4746 H   0  0  0  0  0  0  0  0  0  0  0  0
  1  2  2  0  0  0  0
  1  6  1  0  0  0  0
  2  3  1  0  0  0  0
  3  4  2  0  0  0  0
  4  9  1  0  0  0  0
  5  4  1  0  0  0  0
  5 10  1  0  0  0  0
  6  5  2  0  0  0  0
  7  1  1  0  0  0  0
  8  2  1  0  0  0  0
 11  6  1  0  0  0  0
 11 13  2  0  0  0  0
 12 11  2  0  0  0  0
 15 14  3  0  0  0  0
 16 17  2  0  0  0  0
 18  3  1  0  0  0  0
 18 16  1  0  0  0  0
 19 16  1  0  0  0  0
 19 20  1  0  0  0  0
 19 21  1  0  0  0  0
 22 19  1  0  0  0  0
M  END
