Coordinates from ORCA-job 4-NO2-Ph-N2-OAc-B3LYPG-6-31G_dp-MTMO-d009-169-n750
 OpenBabel09051907553D

 22 20  0  0  0  0  0  0  0  0999 V2000
   15.5976    8.9962   -2.7188 C   0  0  0  0  0  0  0  0  0  0  0  0
   14.2755    8.7594   -2.2957 C   0  0  0  0  0  0  0  0  0  0  0  0
   14.1284    7.4086   -2.0954 C   0  0  0  0  0  0  0  0  0  0  0  0
   14.8874    6.4171   -2.2093 C   0  0  0  0  0  0  0  0  0  0  0  0
   16.2090    6.5810   -2.6215 C   0  0  0  0  0  0  0  0  0  0  0  0
   16.5128    7.9355   -2.8694 C   0  0  0  0  0  0  0  0  0  0  0  0
   15.9323   10.0037   -2.9354 H   0  0  0  0  0  0  0  0  0  0  0  0
   13.5364    9.5382   -2.1623 H   0  0  0  0  0  0  0  0  0  0  0  0
   13.7963    4.5236   -1.9121 H   0  0  0  0  0  0  0  0  0  0  0  0
   16.9531    5.8065   -2.7558 H   0  0  0  0  0  0  0  0  0  0  0  0
   17.8808    8.2626   -3.3165 N   0  0  0  0  0  0  0  0  0  0  0  0
   18.1470    9.4433   -3.5350 O   0  0  0  0  0  0  0  0  0  0  0  0
   18.6709    7.3293   -3.4424 O   0  0  0  0  0  0  0  0  0  0  0  0
   11.3327    7.7861   -1.0942 N   0  0  0  0  0  0  0  0  0  0  0  0
   10.4125    7.3674   -0.6487 N   0  0  0  0  0  0  0  0  0  0  0  0
   12.0891    3.7184   -1.9558 C   0  0  0  0  0  0  0  0  0  0  0  0
   13.4334    3.6147   -1.8806 O   0  0  0  0  0  0  0  0  0  0  0  0
   11.5107    4.7823   -2.0334 O   0  0  0  0  0  0  0  0  0  0  0  0
   11.4268    2.3629   -1.9289 C   0  0  0  0  0  0  0  0  0  0  0  0
   11.6913    1.8367   -1.0063 H   0  0  0  0  0  0  0  0  0  0  0  0
   10.3459    2.4837   -1.9934 H   0  0  0  0  0  0  0  0  0  0  0  0
   11.7875    1.7542   -2.7638 H   0  0  0  0  0  0  0  0  0  0  0  0
  1  2  1  0  0  0  0
  2  8  1  0  0  0  0
  2  3  2  0  0  0  0
  4  3  1  0  0  0  0
  5  4  2  0  0  0  0
  6  1  2  0  0  0  0
  6  5  1  0  0  0  0
  7  1  1  0  0  0  0
  9 17  1  0  0  0  0
 10  5  1  0  0  0  0
 11  6  1  0  0  0  0
 12 11  2  0  0  0  0
 13 11  2  0  0  0  0
 14 15  3  0  0  0  0
 16 19  1  0  0  0  0
 16 17  1  0  0  0  0
 18 16  2  0  0  0  0
 19 20  1  0  0  0  0
 21 19  1  0  0  0  0
 22 19  1  0  0  0  0
M  RAD  2   3   2   4   2
M  END
