Coordinates from ORCA-job 4-NO2-Ph-N2-OAc-B3LYPG-6-31G_dp-MTMO-d009-169-n750
 OpenBabel09051907563D

 22 21  0  0  0  0  0  0  0  0999 V2000
   15.4926    8.5157   -3.3850 C   0  0  0  0  0  0  0  0  0  0  0  0
   14.4151    7.6516   -3.2580 C   0  0  0  0  0  0  0  0  0  0  0  0
   14.5847    6.3991   -2.6511 C   0  0  0  0  0  0  0  0  0  0  0  0
   15.8356    5.9978   -2.1636 C   0  0  0  0  0  0  0  0  0  0  0  0
   16.9151    6.8693   -2.2935 C   0  0  0  0  0  0  0  0  0  0  0  0
   16.7358    8.1104   -2.8983 C   0  0  0  0  0  0  0  0  0  0  0  0
   15.3908    9.4882   -3.8487 H   0  0  0  0  0  0  0  0  0  0  0  0
   13.4313    7.9260   -3.6220 H   0  0  0  0  0  0  0  0  0  0  0  0
   15.9591    5.0309   -1.7022 H   0  0  0  0  0  0  0  0  0  0  0  0
   17.8970    6.5949   -1.9290 H   0  0  0  0  0  0  0  0  0  0  0  0
   17.8828    9.0167   -3.0283 N   0  0  0  0  0  0  0  0  0  0  0  0
   17.6891   10.1085   -3.5638 O   0  0  0  0  0  0  0  0  0  0  0  0
   18.9686    8.6317   -2.5951 O   0  0  0  0  0  0  0  0  0  0  0  0
    5.5375    3.4842    1.3696 N   0  0  0  0  0  0  0  0  0  0  0  0
    6.4742    3.7209    0.8328 N   0  0  0  0  0  0  0  0  0  0  0  0
   13.3074    4.3686   -2.1371 C   0  0  0  0  0  0  0  0  0  0  0  0
   14.2258    3.6973   -1.7375 O   0  0  0  0  0  0  0  0  0  0  0  0
   13.4133    5.6628   -2.5878 O   0  0  0  0  0  0  0  0  0  0  0  0
   11.8671    3.9333   -2.2257 C   0  0  0  0  0  0  0  0  0  0  0  0
   11.7818    2.9048   -1.8775 H   0  0  0  0  0  0  0  0  0  0  0  0
   11.2389    4.5881   -1.6150 H   0  0  0  0  0  0  0  0  0  0  0  0
   11.5137    4.0107   -3.2580 H   0  0  0  0  0  0  0  0  0  0  0  0
  1  2  2  0  0  0  0
  1  6  1  0  0  0  0
  2  3  1  0  0  0  0
  3 18  1  0  0  0  0
  3  4  2  0  0  0  0
  4  9  1  0  0  0  0
  5  4  1  0  0  0  0
  5 10  1  0  0  0  0
  6  5  2  0  0  0  0
  7  1  1  0  0  0  0
  8  2  1  0  0  0  0
 11  6  1  0  0  0  0
 11 13  2  0  0  0  0
 12 11  2  0  0  0  0
 15 14  3  0  0  0  0
 16 17  2  0  0  0  0
 18 16  1  0  0  0  0
 19 16  1  0  0  0  0
 19 20  1  0  0  0  0
 19 21  1  0  0  0  0
 22 19  1  0  0  0  0
M  END
