Coordinates from ORCA-job 4-NO2-Ph-N2-OAc-B3LYPG-6-31G_dp-MTMO-d009-169-n750
 OpenBabel09051907563D

 22 21  0  0  0  0  0  0  0  0999 V2000
   15.2844    8.4356   -3.3131 C   0  0  0  0  0  0  0  0  0  0  0  0
   14.2145    7.5587   -3.2129 C   0  0  0  0  0  0  0  0  0  0  0  0
   14.3822    6.3106   -2.5963 C   0  0  0  0  0  0  0  0  0  0  0  0
   15.6238    5.9268   -2.0721 C   0  0  0  0  0  0  0  0  0  0  0  0
   16.6958    6.8112   -2.1754 C   0  0  0  0  0  0  0  0  0  0  0  0
   16.5184    8.0476   -2.7902 C   0  0  0  0  0  0  0  0  0  0  0  0
   15.1837    9.4051   -3.7836 H   0  0  0  0  0  0  0  0  0  0  0  0
   13.2382    7.8193   -3.6058 H   0  0  0  0  0  0  0  0  0  0  0  0
   15.7457    4.9637   -1.6025 H   0  0  0  0  0  0  0  0  0  0  0  0
   17.6704    6.5503   -1.7825 H   0  0  0  0  0  0  0  0  0  0  0  0
   17.6574    8.9673   -2.8923 N   0  0  0  0  0  0  0  0  0  0  0  0
   17.4652   10.0548   -3.4371 O   0  0  0  0  0  0  0  0  0  0  0  0
   18.7357    8.5971   -2.4283 O   0  0  0  0  0  0  0  0  0  0  0  0
    7.5917    4.3520    0.7040 N   0  0  0  0  0  0  0  0  0  0  0  0
    8.5315    4.5159    0.1459 N   0  0  0  0  0  0  0  0  0  0  0  0
   13.1113    4.2721   -2.0955 C   0  0  0  0  0  0  0  0  0  0  0  0
   14.0206    3.6236   -1.6408 O   0  0  0  0  0  0  0  0  0  0  0  0
   13.2194    5.5588   -2.5678 O   0  0  0  0  0  0  0  0  0  0  0  0
   11.6822    3.8139   -2.2332 C   0  0  0  0  0  0  0  0  0  0  0  0
   11.6180    2.7607   -1.9622 H   0  0  0  0  0  0  0  0  0  0  0  0
   11.0352    4.4019   -1.5750 H   0  0  0  0  0  0  0  0  0  0  0  0
   11.3318    3.9643   -3.2579 H   0  0  0  0  0  0  0  0  0  0  0  0
  1  2  2  0  0  0  0
  1  6  1  0  0  0  0
  2  3  1  0  0  0  0
  3 18  1  0  0  0  0
  3  4  2  0  0  0  0
  4  9  1  0  0  0  0
  5  4  1  0  0  0  0
  5 10  1  0  0  0  0
  6  5  2  0  0  0  0
  7  1  1  0  0  0  0
  8  2  1  0  0  0  0
 11  6  1  0  0  0  0
 11 13  2  0  0  0  0
 12 11  2  0  0  0  0
 15 14  3  0  0  0  0
 16 17  2  0  0  0  0
 18 16  1  0  0  0  0
 19 16  1  0  0  0  0
 19 20  1  0  0  0  0
 19 21  1  0  0  0  0
 22 19  1  0  0  0  0
M  END
