Coordinates from ORCA-job 4-NO2-Ph-N2-OAc-B3LYPG-6-31G_dp-MTMO-d009-169-n750
 OpenBabel09051907563D

 22 21  0  0  0  0  0  0  0  0999 V2000
   15.6053    8.5531   -3.4368 C   0  0  0  0  0  0  0  0  0  0  0  0
   14.5588    7.6444   -3.3823 C   0  0  0  0  0  0  0  0  0  0  0  0
   14.7443    6.3922   -2.7793 C   0  0  0  0  0  0  0  0  0  0  0  0
   15.9801    6.0360   -2.2231 C   0  0  0  0  0  0  0  0  0  0  0  0
   17.0285    6.9523   -2.2805 C   0  0  0  0  0  0  0  0  0  0  0  0
   16.8337    8.1925   -2.8822 C   0  0  0  0  0  0  0  0  0  0  0  0
   15.4907    9.5265   -3.8959 H   0  0  0  0  0  0  0  0  0  0  0  0
   13.5875    7.8830   -3.8008 H   0  0  0  0  0  0  0  0  0  0  0  0
   16.1157    5.0698   -1.7636 H   0  0  0  0  0  0  0  0  0  0  0  0
   17.9981    6.7134   -1.8621 H   0  0  0  0  0  0  0  0  0  0  0  0
   17.9481    9.1459   -2.9361 N   0  0  0  0  0  0  0  0  0  0  0  0
   17.7407   10.2358   -3.4703 O   0  0  0  0  0  0  0  0  0  0  0  0
   19.0223    8.7995   -2.4452 O   0  0  0  0  0  0  0  0  0  0  0  0
    4.0178    3.4037    2.4125 N   0  0  0  0  0  0  0  0  0  0  0  0
    4.9528    3.6333    1.8694 N   0  0  0  0  0  0  0  0  0  0  0  0
   13.5157    4.3148   -2.3370 C   0  0  0  0  0  0  0  0  0  0  0  0
   14.4246    3.6892   -1.8507 O   0  0  0  0  0  0  0  0  0  0  0  0
   13.6041    5.6063   -2.7988 O   0  0  0  0  0  0  0  0  0  0  0  0
   12.1078    3.8158   -2.5385 C   0  0  0  0  0  0  0  0  0  0  0  0
   12.0355    2.7914   -2.1757 H   0  0  0  0  0  0  0  0  0  0  0  0
   11.4025    4.4543   -1.9990 H   0  0  0  0  0  0  0  0  0  0  0  0
   11.8424    3.8583   -3.5988 H   0  0  0  0  0  0  0  0  0  0  0  0
  1  2  2  0  0  0  0
  1  6  1  0  0  0  0
  2  3  1  0  0  0  0
  3  4  2  0  0  0  0
  4  9  1  0  0  0  0
  5  4  1  0  0  0  0
  5 10  1  0  0  0  0
  6  5  2  0  0  0  0
  7  1  1  0  0  0  0
  8  2  1  0  0  0  0
 11  6  1  0  0  0  0
 11 13  2  0  0  0  0
 12 11  2  0  0  0  0
 15 14  3  0  0  0  0
 16 17  2  0  0  0  0
 18  3  1  0  0  0  0
 18 16  1  0  0  0  0
 19 16  1  0  0  0  0
 19 20  1  0  0  0  0
 19 21  1  0  0  0  0
 22 19  1  0  0  0  0
M  END
