Coordinates from ORCA-job 4-NO2-Ph-N2-OAc-B3LYPG-6-31G_dp-MTMO-d009-169-n750
 OpenBabel09051907553D

 22 21  0  0  0  0  0  0  0  0999 V2000
   14.9678    8.1434   -3.2589 C   0  0  0  0  0  0  0  0  0  0  0  0
   13.8739    7.3033   -3.1108 C   0  0  0  0  0  0  0  0  0  0  0  0
   14.0302    6.0409   -2.5211 C   0  0  0  0  0  0  0  0  0  0  0  0
   15.2843    5.6058   -2.0720 C   0  0  0  0  0  0  0  0  0  0  0  0
   16.3802    6.4529   -2.2231 C   0  0  0  0  0  0  0  0  0  0  0  0
   16.2138    7.7040   -2.8109 C   0  0  0  0  0  0  0  0  0  0  0  0
   14.8760    9.1228   -3.7101 H   0  0  0  0  0  0  0  0  0  0  0  0
   12.8877    7.6047   -3.4452 H   0  0  0  0  0  0  0  0  0  0  0  0
   15.3978    4.6311   -1.6248 H   0  0  0  0  0  0  0  0  0  0  0  0
   17.3650    6.1520   -1.8885 H   0  0  0  0  0  0  0  0  0  0  0  0
   17.3780    8.5846   -2.9640 N   0  0  0  0  0  0  0  0  0  0  0  0
   17.1960    9.6849   -3.4859 O   0  0  0  0  0  0  0  0  0  0  0  0
   18.4653    8.1707   -2.5623 O   0  0  0  0  0  0  0  0  0  0  0  0
   11.7508    7.7924   -0.0607 N   0  0  0  0  0  0  0  0  0  0  0  0
   11.2533    6.8058   -0.0398 N   0  0  0  0  0  0  0  0  0  0  0  0
   12.7264    4.0224   -2.0223 C   0  0  0  0  0  0  0  0  0  0  0  0
   13.6465    3.3175   -1.6912 O   0  0  0  0  0  0  0  0  0  0  0  0
   12.8443    5.3321   -2.4290 O   0  0  0  0  0  0  0  0  0  0  0  0
   11.2734    3.6260   -2.0570 C   0  0  0  0  0  0  0  0  0  0  0  0
   11.1816    2.5770   -1.7778 H   0  0  0  0  0  0  0  0  0  0  0  0
   10.7038    4.2495   -1.3620 H   0  0  0  0  0  0  0  0  0  0  0  0
   10.8611    3.7876   -3.0571 H   0  0  0  0  0  0  0  0  0  0  0  0
  1  2  2  0  0  0  0
  1  6  1  0  0  0  0
  2  3  1  0  0  0  0
  3 18  1  0  0  0  0
  3  4  2  0  0  0  0
  4  9  1  0  0  0  0
  5  4  1  0  0  0  0
  5 10  1  0  0  0  0
  6  5  2  0  0  0  0
  7  1  1  0  0  0  0
  8  2  1  0  0  0  0
 11  6  1  0  0  0  0
 11 13  2  0  0  0  0
 12 11  2  0  0  0  0
 14 15  3  0  0  0  0
 16 17  2  0  0  0  0
 18 16  1  0  0  0  0
 19 16  1  0  0  0  0
 19 20  1  0  0  0  0
 19 21  1  0  0  0  0
 22 19  1  0  0  0  0
M  END
