Coordinates from ORCA-job 4-NO2-Ph-N2-OAc-B3LYPG-6-31G_dp-MTMO-d009-169-n750
 OpenBabel09051907553D

 22 22  0  0  0  0  0  0  0  0999 V2000
   15.1188    8.5887   -3.0512 C   0  0  0  0  0  0  0  0  0  0  0  0
   13.9342    8.4517   -2.3298 C   0  0  0  0  0  0  0  0  0  0  0  0
   13.7722    7.3167   -1.5464 C   0  0  0  0  0  0  0  0  0  0  0  0
   14.7460    6.3349   -1.3977 C   0  0  0  0  0  0  0  0  0  0  0  0
   15.9347    6.4843   -2.1084 C   0  0  0  0  0  0  0  0  0  0  0  0
   16.0963    7.6032   -2.9255 C   0  0  0  0  0  0  0  0  0  0  0  0
   15.3004    9.4419   -3.6924 H   0  0  0  0  0  0  0  0  0  0  0  0
   13.1551    9.2041   -2.3802 H   0  0  0  0  0  0  0  0  0  0  0  0
   14.5733    5.4799   -0.7528 H   0  0  0  0  0  0  0  0  0  0  0  0
   16.7314    5.7538   -2.0412 H   0  0  0  0  0  0  0  0  0  0  0  0
   17.3546    7.7549   -3.6787 N   0  0  0  0  0  0  0  0  0  0  0  0
   17.4728    8.7503   -4.3908 O   0  0  0  0  0  0  0  0  0  0  0  0
   18.2047    6.8768   -3.5467 O   0  0  0  0  0  0  0  0  0  0  0  0
   12.4726    7.2427   -0.6445 N   0  0  0  0  0  0  0  0  0  0  0  0
   11.6748    6.3516   -0.7096 N   0  0  0  0  0  0  0  0  0  0  0  0
   12.1629    4.1178   -1.4943 C   0  0  0  0  0  0  0  0  0  0  0  0
   12.5687    3.8583   -0.3819 O   0  0  0  0  0  0  0  0  0  0  0  0
   11.9031    5.3771   -1.9206 O   0  0  0  0  0  0  0  0  0  0  0  0
   11.9028    3.1131   -2.5944 C   0  0  0  0  0  0  0  0  0  0  0  0
   10.8227    2.9835   -2.7149 H   0  0  0  0  0  0  0  0  0  0  0  0
   12.3006    3.4671   -3.5487 H   0  0  0  0  0  0  0  0  0  0  0  0
   12.3546    2.1588   -2.3242 H   0  0  0  0  0  0  0  0  0  0  0  0
  1  6  2  0  0  0  0
  1  2  1  0  0  0  0
  2  3  2  0  0  0  0
  3  4  1  0  0  0  0
  3 14  1  0  0  0  0
  4  9  1  0  0  0  0
  5 10  1  0  0  0  0
  5  4  2  0  0  0  0
  6  5  1  0  0  0  0
  7  1  1  0  0  0  0
  8  2  1  0  0  0  0
 11 13  2  0  0  0  0
 11  6  1  0  0  0  0
 12 11  2  0  0  0  0
 15 14  1  0  0  0  0
 16 17  2  0  0  0  0
 18 16  1  0  0  0  0
 18 15  1  0  0  0  0
 19 22  1  0  0  0  0
 19 16  1  0  0  0  0
 20 19  1  0  0  0  0
 21 19  1  0  0  0  0
M  RAD  2  14   2  15   2
M  END
