Coordinates from ORCA-job 4-NO2-Ph-N2-OAc-B3LYPG-6-31G_dp-MTMO-d009-169-n750
 OpenBabel09051907563D

 22 21  0  0  0  0  0  0  0  0999 V2000
   15.8548    8.6276   -3.5476 C   0  0  0  0  0  0  0  0  0  0  0  0
   14.8116    7.7151   -3.4933 C   0  0  0  0  0  0  0  0  0  0  0  0
   15.0033    6.4613   -2.8956 C   0  0  0  0  0  0  0  0  0  0  0  0
   16.2420    6.1073   -2.3445 C   0  0  0  0  0  0  0  0  0  0  0  0
   17.2871    7.0274   -2.4016 C   0  0  0  0  0  0  0  0  0  0  0  0
   17.0861    8.2692   -2.9980 C   0  0  0  0  0  0  0  0  0  0  0  0
   15.7354    9.6023   -4.0027 H   0  0  0  0  0  0  0  0  0  0  0  0
   13.8382    7.9519   -3.9078 H   0  0  0  0  0  0  0  0  0  0  0  0
   16.3826    5.1397   -1.8896 H   0  0  0  0  0  0  0  0  0  0  0  0
   18.2587    6.7904   -1.9870 H   0  0  0  0  0  0  0  0  0  0  0  0
   18.1969    9.2268   -3.0515 N   0  0  0  0  0  0  0  0  0  0  0  0
   17.9841   10.3180   -3.5808 O   0  0  0  0  0  0  0  0  0  0  0  0
   19.2738    8.8823   -2.5650 O   0  0  0  0  0  0  0  0  0  0  0  0
    1.4202    2.7109    3.5882 N   0  0  0  0  0  0  0  0  0  0  0  0
    2.3625    2.9373    3.0567 N   0  0  0  0  0  0  0  0  0  0  0  0
   13.7862    4.3746   -2.4661 C   0  0  0  0  0  0  0  0  0  0  0  0
   14.7025    3.7459   -1.9981 O   0  0  0  0  0  0  0  0  0  0  0  0
   13.8653    5.6720   -2.9127 O   0  0  0  0  0  0  0  0  0  0  0  0
   12.3774    3.8739   -2.6571 C   0  0  0  0  0  0  0  0  0  0  0  0
   12.3133    2.8437   -2.3093 H   0  0  0  0  0  0  0  0  0  0  0  0
   11.6775    4.5015   -2.0982 H   0  0  0  0  0  0  0  0  0  0  0  0
   12.0977    3.9321   -3.7130 H   0  0  0  0  0  0  0  0  0  0  0  0
  1  2  2  0  0  0  0
  1  6  1  0  0  0  0
  2  3  1  0  0  0  0
  3  4  2  0  0  0  0
  4  9  1  0  0  0  0
  5  4  1  0  0  0  0
  5 10  1  0  0  0  0
  6  5  2  0  0  0  0
  7  1  1  0  0  0  0
  8  2  1  0  0  0  0
 11  6  1  0  0  0  0
 11 13  2  0  0  0  0
 12 11  2  0  0  0  0
 15 14  3  0  0  0  0
 16 17  2  0  0  0  0
 18  3  1  0  0  0  0
 18 16  1  0  0  0  0
 19 16  1  0  0  0  0
 19 20  1  0  0  0  0
 19 21  1  0  0  0  0
 22 19  1  0  0  0  0
M  END
