Coordinates from ORCA-job 4-NO2-Ph-N2-OAc-B3LYPG-6-31G_dp-MTMO-d009-169-n750
 OpenBabel09051907563D

 22 21  0  0  0  0  0  0  0  0999 V2000
   15.3991    8.4766   -3.3552 C   0  0  0  0  0  0  0  0  0  0  0  0
   14.3134    7.6238   -3.2214 C   0  0  0  0  0  0  0  0  0  0  0  0
   14.4710    6.3747   -2.6041 C   0  0  0  0  0  0  0  0  0  0  0  0
   15.7180    5.9656   -2.1130 C   0  0  0  0  0  0  0  0  0  0  0  0
   16.8058    6.8258   -2.2498 C   0  0  0  0  0  0  0  0  0  0  0  0
   16.6383    8.0635   -2.8648 C   0  0  0  0  0  0  0  0  0  0  0  0
   15.3065    9.4463   -3.8268 H   0  0  0  0  0  0  0  0  0  0  0  0
   13.3325    7.9044   -3.5880 H   0  0  0  0  0  0  0  0  0  0  0  0
   15.8320    5.0017   -1.6431 H   0  0  0  0  0  0  0  0  0  0  0  0
   17.7850    6.5451   -1.8829 H   0  0  0  0  0  0  0  0  0  0  0  0
   17.7938    8.9578   -3.0020 N   0  0  0  0  0  0  0  0  0  0  0  0
   17.6105   10.0470   -3.5466 O   0  0  0  0  0  0  0  0  0  0  0  0
   18.8760    8.5662   -2.5655 O   0  0  0  0  0  0  0  0  0  0  0  0
    6.6721    3.7325    0.8567 N   0  0  0  0  0  0  0  0  0  0  0  0
    7.6191    3.9950    0.3508 N   0  0  0  0  0  0  0  0  0  0  0  0
   13.1708    4.3663   -2.0602 C   0  0  0  0  0  0  0  0  0  0  0  0
   14.0789    3.6968   -1.6346 O   0  0  0  0  0  0  0  0  0  0  0  0
   13.2930    5.6493   -2.5382 O   0  0  0  0  0  0  0  0  0  0  0  0
   11.7279    3.9406   -2.1537 C   0  0  0  0  0  0  0  0  0  0  0  0
   11.6385    2.9061   -1.8246 H   0  0  0  0  0  0  0  0  0  0  0  0
   11.1051    4.5845   -1.5256 H   0  0  0  0  0  0  0  0  0  0  0  0
   11.3700    4.0416   -3.1822 H   0  0  0  0  0  0  0  0  0  0  0  0
  1  2  2  0  0  0  0
  1  6  1  0  0  0  0
  2  3  1  0  0  0  0
  3 18  1  0  0  0  0
  3  4  2  0  0  0  0
  4  9  1  0  0  0  0
  5  4  1  0  0  0  0
  5 10  1  0  0  0  0
  6  5  2  0  0  0  0
  7  1  1  0  0  0  0
  8  2  1  0  0  0  0
 11  6  1  0  0  0  0
 11 13  2  0  0  0  0
 12 11  2  0  0  0  0
 15 14  3  0  0  0  0
 16 17  2  0  0  0  0
 18 16  1  0  0  0  0
 19 16  1  0  0  0  0
 19 20  1  0  0  0  0
 19 21  1  0  0  0  0
 22 19  1  0  0  0  0
M  END
