Coordinates from ORCA-job 4-NO2-Ph-N2-OAc-B3LYPG-6-31G_dp-MTMO-d009-169-n750
 OpenBabel09051907563D

 22 21  0  0  0  0  0  0  0  0999 V2000
   15.5608    8.5393   -3.4176 C   0  0  0  0  0  0  0  0  0  0  0  0
   14.5141    7.6307   -3.3646 C   0  0  0  0  0  0  0  0  0  0  0  0
   14.6981    6.3791   -2.7601 C   0  0  0  0  0  0  0  0  0  0  0  0
   15.9326    6.0233   -2.2007 C   0  0  0  0  0  0  0  0  0  0  0  0
   16.9812    6.9394   -2.2564 C   0  0  0  0  0  0  0  0  0  0  0  0
   16.7878    8.1791   -2.8597 C   0  0  0  0  0  0  0  0  0  0  0  0
   15.4473    9.5123   -3.8778 H   0  0  0  0  0  0  0  0  0  0  0  0
   13.5438    7.8689   -3.7857 H   0  0  0  0  0  0  0  0  0  0  0  0
   16.0670    5.0576   -1.7399 H   0  0  0  0  0  0  0  0  0  0  0  0
   17.9498    6.7009   -1.8356 H   0  0  0  0  0  0  0  0  0  0  0  0
   17.9024    9.1324   -2.9119 N   0  0  0  0  0  0  0  0  0  0  0  0
   17.6962   10.2219   -3.4476 O   0  0  0  0  0  0  0  0  0  0  0  0
   18.9755    8.7864   -2.4182 O   0  0  0  0  0  0  0  0  0  0  0  0
    4.4872    3.5345    2.2146 N   0  0  0  0  0  0  0  0  0  0  0  0
    5.4151    3.7592    1.6578 N   0  0  0  0  0  0  0  0  0  0  0  0
   13.4672    4.3035   -2.3153 C   0  0  0  0  0  0  0  0  0  0  0  0
   14.3734    3.6801   -1.8211 O   0  0  0  0  0  0  0  0  0  0  0  0
   13.5581    5.5929   -2.7823 O   0  0  0  0  0  0  0  0  0  0  0  0
   12.0604    3.8035   -2.5226 C   0  0  0  0  0  0  0  0  0  0  0  0
   11.9862    2.7807   -2.1556 H   0  0  0  0  0  0  0  0  0  0  0  0
   11.3521    4.4444   -1.9900 H   0  0  0  0  0  0  0  0  0  0  0  0
   11.8011    3.8412   -3.5845 H   0  0  0  0  0  0  0  0  0  0  0  0
  1  2  2  0  0  0  0
  1  6  1  0  0  0  0
  2  3  1  0  0  0  0
  3  4  2  0  0  0  0
  4  9  1  0  0  0  0
  5  4  1  0  0  0  0
  5 10  1  0  0  0  0
  6  5  2  0  0  0  0
  7  1  1  0  0  0  0
  8  2  1  0  0  0  0
 11  6  1  0  0  0  0
 11 13  2  0  0  0  0
 12 11  2  0  0  0  0
 15 14  3  0  0  0  0
 16 17  2  0  0  0  0
 18  3  1  0  0  0  0
 18 16  1  0  0  0  0
 19 16  1  0  0  0  0
 19 20  1  0  0  0  0
 19 21  1  0  0  0  0
 22 19  1  0  0  0  0
M  END
