Coordinates from ORCA-job 4-NO2-Ph-N2-OAc-B3LYPG-6-31G_dp-MTMO-d009-169-n750
 OpenBabel09051907553D

 22 21  0  0  0  0  0  0  0  0999 V2000
   15.1120    8.1236   -3.4001 C   0  0  0  0  0  0  0  0  0  0  0  0
   14.0019    7.3095   -3.2311 C   0  0  0  0  0  0  0  0  0  0  0  0
   14.1295    6.0674   -2.5931 C   0  0  0  0  0  0  0  0  0  0  0  0
   15.3714    5.6271   -2.1160 C   0  0  0  0  0  0  0  0  0  0  0  0
   16.4840    6.4482   -2.2883 C   0  0  0  0  0  0  0  0  0  0  0  0
   16.3459    7.6793   -2.9238 C   0  0  0  0  0  0  0  0  0  0  0  0
   15.0425    9.0869   -3.8884 H   0  0  0  0  0  0  0  0  0  0  0  0
   13.0241    7.6153   -3.5861 H   0  0  0  0  0  0  0  0  0  0  0  0
   15.4629    4.6680   -1.6314 H   0  0  0  0  0  0  0  0  0  0  0  0
   17.4600    6.1422   -1.9332 H   0  0  0  0  0  0  0  0  0  0  0  0
   17.5271    8.5325   -3.0982 N   0  0  0  0  0  0  0  0  0  0  0  0
   17.3692    9.6168   -3.6601 O   0  0  0  0  0  0  0  0  0  0  0  0
   18.6037    8.1138   -2.6732 O   0  0  0  0  0  0  0  0  0  0  0  0
   10.4225    7.5236    0.9368 N   0  0  0  0  0  0  0  0  0  0  0  0
   10.5919    6.6163    0.3292 N   0  0  0  0  0  0  0  0  0  0  0  0
   12.7815    4.1003   -2.0173 C   0  0  0  0  0  0  0  0  0  0  0  0
   13.6820    3.3981   -1.6305 O   0  0  0  0  0  0  0  0  0  0  0  0
   12.9300    5.3841   -2.4883 O   0  0  0  0  0  0  0  0  0  0  0  0
   11.3228    3.7264   -2.0618 C   0  0  0  0  0  0  0  0  0  0  0  0
   11.2076    2.6942   -1.7331 H   0  0  0  0  0  0  0  0  0  0  0  0
   10.7517    4.3933   -1.4097 H   0  0  0  0  0  0  0  0  0  0  0  0
   10.9330    3.8444   -3.0769 H   0  0  0  0  0  0  0  0  0  0  0  0
  1  2  2  0  0  0  0
  1  6  1  0  0  0  0
  2  3  1  0  0  0  0
  3 18  1  0  0  0  0
  3  4  2  0  0  0  0
  4  9  1  0  0  0  0
  5  4  1  0  0  0  0
  5 10  1  0  0  0  0
  6  5  2  0  0  0  0
  7  1  1  0  0  0  0
  8  2  1  0  0  0  0
 11  6  1  0  0  0  0
 11 13  2  0  0  0  0
 12 11  2  0  0  0  0
 15 14  3  0  0  0  0
 16 17  2  0  0  0  0
 18 16  1  0  0  0  0
 19 16  1  0  0  0  0
 19 20  1  0  0  0  0
 19 21  1  0  0  0  0
 22 19  1  0  0  0  0
M  END
