Coordinates from ORCA-job 4-NO2-Ph-N2-OAc-B3LYPG-6-31G_dp-MTMO-d009-169-n750
 OpenBabel09051907563D

 22 21  0  0  0  0  0  0  0  0999 V2000
   15.4251    8.4899   -3.3601 C   0  0  0  0  0  0  0  0  0  0  0  0
   14.3428    7.6327   -3.2276 C   0  0  0  0  0  0  0  0  0  0  0  0
   14.5064    6.3812   -2.6168 C   0  0  0  0  0  0  0  0  0  0  0  0
   15.7561    5.9742   -2.1310 C   0  0  0  0  0  0  0  0  0  0  0  0
   16.8405    6.8389   -2.2664 C   0  0  0  0  0  0  0  0  0  0  0  0
   16.6671    8.0789   -2.8749 C   0  0  0  0  0  0  0  0  0  0  0  0
   15.3279    9.4615   -3.8269 H   0  0  0  0  0  0  0  0  0  0  0  0
   13.3599    7.9116   -3.5903 H   0  0  0  0  0  0  0  0  0  0  0  0
   15.8748    5.0083   -1.6663 H   0  0  0  0  0  0  0  0  0  0  0  0
   17.8216    6.5599   -1.9032 H   0  0  0  0  0  0  0  0  0  0  0  0
   17.8190    8.9780   -3.0107 N   0  0  0  0  0  0  0  0  0  0  0  0
   17.6305   10.0691   -3.5496 O   0  0  0  0  0  0  0  0  0  0  0  0
   18.9036    8.5882   -2.5786 O   0  0  0  0  0  0  0  0  0  0  0  0
    6.3180    3.6679    1.0141 N   0  0  0  0  0  0  0  0  0  0  0  0
    7.2587    3.9177    0.4905 N   0  0  0  0  0  0  0  0  0  0  0  0
   13.2165    4.3629   -2.0858 C   0  0  0  0  0  0  0  0  0  0  0  0
   14.1300    3.6909   -1.6762 O   0  0  0  0  0  0  0  0  0  0  0  0
   13.3310    5.6518   -2.5497 O   0  0  0  0  0  0  0  0  0  0  0  0
   11.7741    3.9347   -2.1735 C   0  0  0  0  0  0  0  0  0  0  0  0
   11.6845    2.9060   -1.8270 H   0  0  0  0  0  0  0  0  0  0  0  0
   11.1499    4.5906   -1.5598 H   0  0  0  0  0  0  0  0  0  0  0  0
   11.4190    4.0164   -3.2048 H   0  0  0  0  0  0  0  0  0  0  0  0
  1  2  2  0  0  0  0
  1  6  1  0  0  0  0
  2  3  1  0  0  0  0
  3 18  1  0  0  0  0
  3  4  2  0  0  0  0
  4  9  1  0  0  0  0
  5  4  1  0  0  0  0
  5 10  1  0  0  0  0
  6  5  2  0  0  0  0
  7  1  1  0  0  0  0
  8  2  1  0  0  0  0
 11  6  1  0  0  0  0
 11 13  2  0  0  0  0
 12 11  2  0  0  0  0
 15 14  3  0  0  0  0
 16 17  2  0  0  0  0
 18 16  1  0  0  0  0
 19 16  1  0  0  0  0
 19 20  1  0  0  0  0
 19 21  1  0  0  0  0
 22 19  1  0  0  0  0
M  END
