Coordinates from ORCA-job 4-NO2-Ph-N2-OAc-B3LYPG-6-31G_dp-MTMO-d009-169-n750
 OpenBabel09051907563D

 22 21  0  0  0  0  0  0  0  0999 V2000
   15.3940    8.4748   -3.3532 C   0  0  0  0  0  0  0  0  0  0  0  0
   14.3084    7.6218   -3.2199 C   0  0  0  0  0  0  0  0  0  0  0  0
   14.4659    6.3727   -2.6027 C   0  0  0  0  0  0  0  0  0  0  0  0
   15.7128    5.9637   -2.1113 C   0  0  0  0  0  0  0  0  0  0  0  0
   16.8005    6.8241   -2.2476 C   0  0  0  0  0  0  0  0  0  0  0  0
   16.6331    8.0618   -2.8625 C   0  0  0  0  0  0  0  0  0  0  0  0
   15.3014    9.4445   -3.8248 H   0  0  0  0  0  0  0  0  0  0  0  0
   13.3275    7.9022   -3.5869 H   0  0  0  0  0  0  0  0  0  0  0  0
   15.8268    4.9998   -1.6413 H   0  0  0  0  0  0  0  0  0  0  0  0
   17.7797    6.5434   -1.8804 H   0  0  0  0  0  0  0  0  0  0  0  0
   17.7885    8.9563   -2.9992 N   0  0  0  0  0  0  0  0  0  0  0  0
   17.6052   10.0455   -3.5438 O   0  0  0  0  0  0  0  0  0  0  0  0
   18.8706    8.5648   -2.5625 O   0  0  0  0  0  0  0  0  0  0  0  0
    6.7239    3.7513    0.8367 N   0  0  0  0  0  0  0  0  0  0  0  0
    7.6713    4.0128    0.3310 N   0  0  0  0  0  0  0  0  0  0  0  0
   13.1654    4.3646   -2.0576 C   0  0  0  0  0  0  0  0  0  0  0  0
   14.0731    3.6962   -1.6295 O   0  0  0  0  0  0  0  0  0  0  0  0
   13.2881    5.6469   -2.5376 O   0  0  0  0  0  0  0  0  0  0  0  0
   11.7228    3.9385   -2.1525 C   0  0  0  0  0  0  0  0  0  0  0  0
   11.6337    2.9034   -1.8252 H   0  0  0  0  0  0  0  0  0  0  0  0
   11.0996    4.5808   -1.5231 H   0  0  0  0  0  0  0  0  0  0  0  0
   11.3650    4.0415   -3.1808 H   0  0  0  0  0  0  0  0  0  0  0  0
  1  2  2  0  0  0  0
  1  6  1  0  0  0  0
  2  3  1  0  0  0  0
  3 18  1  0  0  0  0
  3  4  2  0  0  0  0
  4  9  1  0  0  0  0
  5  4  1  0  0  0  0
  5 10  1  0  0  0  0
  6  5  2  0  0  0  0
  7  1  1  0  0  0  0
  8  2  1  0  0  0  0
 11  6  1  0  0  0  0
 11 13  2  0  0  0  0
 12 11  2  0  0  0  0
 15 14  3  0  0  0  0
 16 17  2  0  0  0  0
 18 16  1  0  0  0  0
 19 16  1  0  0  0  0
 19 20  1  0  0  0  0
 19 21  1  0  0  0  0
 22 19  1  0  0  0  0
M  END
