Coordinates from ORCA-job 4-NO2-Ph-N2-OAc-B3LYPG-6-31G_dp-MTMO-d009-169-n750
 OpenBabel09051907563D

 22 21  0  0  0  0  0  0  0  0999 V2000
   15.6948    8.5808   -3.4758 C   0  0  0  0  0  0  0  0  0  0  0  0
   14.6499    7.6702   -3.4210 C   0  0  0  0  0  0  0  0  0  0  0  0
   14.8387    6.4171   -2.8210 C   0  0  0  0  0  0  0  0  0  0  0  0
   16.0762    6.0618   -2.2680 C   0  0  0  0  0  0  0  0  0  0  0  0
   17.1230    6.9799   -2.3256 C   0  0  0  0  0  0  0  0  0  0  0  0
   16.9249    8.2210   -2.9243 C   0  0  0  0  0  0  0  0  0  0  0  0
   15.5776    9.5548   -3.9327 H   0  0  0  0  0  0  0  0  0  0  0  0
   13.6773    7.9080   -3.8370 H   0  0  0  0  0  0  0  0  0  0  0  0
   16.2145    5.0948   -1.8111 H   0  0  0  0  0  0  0  0  0  0  0  0
   18.0938    6.7418   -1.9096 H   0  0  0  0  0  0  0  0  0  0  0  0
   18.0375    9.1764   -2.9784 N   0  0  0  0  0  0  0  0  0  0  0  0
   17.8272   10.2672   -3.5099 O   0  0  0  0  0  0  0  0  0  0  0  0
   19.1133    8.8309   -2.4903 O   0  0  0  0  0  0  0  0  0  0  0  0
    3.0683    3.1552    2.8367 N   0  0  0  0  0  0  0  0  0  0  0  0
    4.0088    3.3832    2.3029 N   0  0  0  0  0  0  0  0  0  0  0  0
   13.6161    4.3348   -2.3854 C   0  0  0  0  0  0  0  0  0  0  0  0
   14.5292    3.7072   -1.9094 O   0  0  0  0  0  0  0  0  0  0  0  0
   13.6995    5.6295   -2.8388 O   0  0  0  0  0  0  0  0  0  0  0  0
   12.2076    3.8351   -2.5808 C   0  0  0  0  0  0  0  0  0  0  0  0
   12.1398    2.8074   -2.2265 H   0  0  0  0  0  0  0  0  0  0  0  0
   11.5055    4.4676   -2.0303 H   0  0  0  0  0  0  0  0  0  0  0  0
   11.9340    3.8865   -3.6386 H   0  0  0  0  0  0  0  0  0  0  0  0
  1  2  2  0  0  0  0
  1  6  1  0  0  0  0
  2  3  1  0  0  0  0
  3  4  2  0  0  0  0
  4  9  1  0  0  0  0
  5  4  1  0  0  0  0
  5 10  1  0  0  0  0
  6  5  2  0  0  0  0
  7  1  1  0  0  0  0
  8  2  1  0  0  0  0
 11  6  1  0  0  0  0
 11 13  2  0  0  0  0
 12 11  2  0  0  0  0
 15 14  3  0  0  0  0
 16 17  2  0  0  0  0
 18  3  1  0  0  0  0
 18 16  1  0  0  0  0
 19 16  1  0  0  0  0
 19 20  1  0  0  0  0
 19 21  1  0  0  0  0
 22 19  1  0  0  0  0
M  END
