Coordinates from ORCA-job 4-NO2-Ph-N2-OAc-B3LYPG-6-31G_dp-MTMO-d009-169-n750
 OpenBabel09051907563D

 22 21  0  0  0  0  0  0  0  0999 V2000
   15.8050    8.6137   -3.5247 C   0  0  0  0  0  0  0  0  0  0  0  0
   14.7620    7.7008   -3.4713 C   0  0  0  0  0  0  0  0  0  0  0  0
   14.9537    6.4471   -2.8735 C   0  0  0  0  0  0  0  0  0  0  0  0
   16.1920    6.0935   -2.3214 C   0  0  0  0  0  0  0  0  0  0  0  0
   17.2368    7.0140   -2.3775 C   0  0  0  0  0  0  0  0  0  0  0  0
   17.0359    8.2557   -2.9741 C   0  0  0  0  0  0  0  0  0  0  0  0
   15.6856    9.5884   -3.9799 H   0  0  0  0  0  0  0  0  0  0  0  0
   13.7889    7.9373   -3.8867 H   0  0  0  0  0  0  0  0  0  0  0  0
   16.3325    5.1260   -1.8663 H   0  0  0  0  0  0  0  0  0  0  0  0
   18.2082    6.7773   -1.9621 H   0  0  0  0  0  0  0  0  0  0  0  0
   18.1465    9.2136   -3.0267 N   0  0  0  0  0  0  0  0  0  0  0  0
   17.9337   10.3048   -3.5562 O   0  0  0  0  0  0  0  0  0  0  0  0
   19.2231    8.8695   -2.5394 O   0  0  0  0  0  0  0  0  0  0  0  0
    1.9180    2.8522    3.3651 N   0  0  0  0  0  0  0  0  0  0  0  0
    2.8595    3.0778    2.8319 N   0  0  0  0  0  0  0  0  0  0  0  0
   13.7366    4.3604   -2.4441 C   0  0  0  0  0  0  0  0  0  0  0  0
   14.6522    3.7326   -1.9734 O   0  0  0  0  0  0  0  0  0  0  0  0
   13.8161    5.6573   -2.8920 O   0  0  0  0  0  0  0  0  0  0  0  0
   12.3285    3.8586   -2.6378 C   0  0  0  0  0  0  0  0  0  0  0  0
   12.2643    2.8287   -2.2893 H   0  0  0  0  0  0  0  0  0  0  0  0
   11.6270    4.4862   -2.0810 H   0  0  0  0  0  0  0  0  0  0  0  0
   12.0511    3.9158   -3.6943 H   0  0  0  0  0  0  0  0  0  0  0  0
  1  2  2  0  0  0  0
  1  6  1  0  0  0  0
  2  3  1  0  0  0  0
  3  4  2  0  0  0  0
  4  9  1  0  0  0  0
  5  4  1  0  0  0  0
  5 10  1  0  0  0  0
  6  5  2  0  0  0  0
  7  1  1  0  0  0  0
  8  2  1  0  0  0  0
 11  6  1  0  0  0  0
 11 13  2  0  0  0  0
 12 11  2  0  0  0  0
 15 14  3  0  0  0  0
 16 17  2  0  0  0  0
 18  3  1  0  0  0  0
 18 16  1  0  0  0  0
 19 16  1  0  0  0  0
 19 20  1  0  0  0  0
 19 21  1  0  0  0  0
 22 19  1  0  0  0  0
M  END
