Coordinates from ORCA-job 4-NO2-Ph-N2-OAc-B3LYPG-6-31G_dp-MTMO-d009-169-n750
 OpenBabel09051907553D

 22 21  0  0  0  0  0  0  0  0999 V2000
   15.0752    8.1165   -3.3954 C   0  0  0  0  0  0  0  0  0  0  0  0
   13.9690    7.2944   -3.2394 C   0  0  0  0  0  0  0  0  0  0  0  0
   14.0953    6.0595   -2.5871 C   0  0  0  0  0  0  0  0  0  0  0  0
   15.3318    5.6346   -2.0827 C   0  0  0  0  0  0  0  0  0  0  0  0
   16.4404    6.4637   -2.2423 C   0  0  0  0  0  0  0  0  0  0  0  0
   16.3037    7.6874   -2.8921 C   0  0  0  0  0  0  0  0  0  0  0  0
   15.0066    9.0746   -3.8942 H   0  0  0  0  0  0  0  0  0  0  0  0
   12.9956    7.5882   -3.6156 H   0  0  0  0  0  0  0  0  0  0  0  0
   15.4223    4.6811   -1.5871 H   0  0  0  0  0  0  0  0  0  0  0  0
   17.4122    6.1696   -1.8663 H   0  0  0  0  0  0  0  0  0  0  0  0
   17.4807    8.5490   -3.0532 N   0  0  0  0  0  0  0  0  0  0  0  0
   17.3240    9.6267   -3.6280 O   0  0  0  0  0  0  0  0  0  0  0  0
   18.5529    8.1433   -2.6049 O   0  0  0  0  0  0  0  0  0  0  0  0
   10.8596    7.6031    0.8078 N   0  0  0  0  0  0  0  0  0  0  0  0
   10.8517    6.6467    0.2541 N   0  0  0  0  0  0  0  0  0  0  0  0
   12.7538    4.0857   -2.0191 C   0  0  0  0  0  0  0  0  0  0  0  0
   13.6525    3.3968   -1.6049 O   0  0  0  0  0  0  0  0  0  0  0  0
   12.9000    5.3666   -2.4990 O   0  0  0  0  0  0  0  0  0  0  0  0
   11.3006    3.6956   -2.0929 C   0  0  0  0  0  0  0  0  0  0  0  0
   11.1908    2.6613   -1.7694 H   0  0  0  0  0  0  0  0  0  0  0  0
   10.7103    4.3533   -1.4484 H   0  0  0  0  0  0  0  0  0  0  0  0
   10.9282    3.8135   -3.1144 H   0  0  0  0  0  0  0  0  0  0  0  0
  1  2  2  0  0  0  0
  1  6  1  0  0  0  0
  2  3  1  0  0  0  0
  3 18  1  0  0  0  0
  3  4  2  0  0  0  0
  4  9  1  0  0  0  0
  5  4  1  0  0  0  0
  5 10  1  0  0  0  0
  6  5  2  0  0  0  0
  7  1  1  0  0  0  0
  8  2  1  0  0  0  0
 11  6  1  0  0  0  0
 11 13  2  0  0  0  0
 12 11  2  0  0  0  0
 15 14  3  0  0  0  0
 16 17  2  0  0  0  0
 18 16  1  0  0  0  0
 19 16  1  0  0  0  0
 19 20  1  0  0  0  0
 19 21  1  0  0  0  0
 22 19  1  0  0  0  0
M  END
