Coordinates from ORCA-job 4-NO2-Ph-N2-OAc-B3LYPG-6-31G_dp-MTMO-d009-169-n750
 OpenBabel09051907563D

 22 21  0  0  0  0  0  0  0  0999 V2000
   15.0916    8.3656   -3.2251 C   0  0  0  0  0  0  0  0  0  0  0  0
   14.0691    7.4288   -3.2019 C   0  0  0  0  0  0  0  0  0  0  0  0
   14.2800    6.1698   -2.6216 C   0  0  0  0  0  0  0  0  0  0  0  0
   15.5180    5.8354   -2.0566 C   0  0  0  0  0  0  0  0  0  0  0  0
   16.5423    6.7799   -2.0822 C   0  0  0  0  0  0  0  0  0  0  0  0
   16.3222    8.0265   -2.6618 C   0  0  0  0  0  0  0  0  0  0  0  0
   14.9570    9.3445   -3.6665 H   0  0  0  0  0  0  0  0  0  0  0  0
   13.0970    7.6500   -3.6282 H   0  0  0  0  0  0  0  0  0  0  0  0
   15.6739    4.8638   -1.6154 H   0  0  0  0  0  0  0  0  0  0  0  0
   17.5127    6.5583   -1.6562 H   0  0  0  0  0  0  0  0  0  0  0  0
   17.4111    9.0099   -2.6821 N   0  0  0  0  0  0  0  0  0  0  0  0
   17.1814   10.1047   -3.1970 O   0  0  0  0  0  0  0  0  0  0  0  0
   18.4881    8.6823   -2.1842 O   0  0  0  0  0  0  0  0  0  0  0  0
    8.8631    5.9302    0.8792 N   0  0  0  0  0  0  0  0  0  0  0  0
    9.4466    5.4030    0.1028 N   0  0  0  0  0  0  0  0  0  0  0  0
   13.1064    4.0472   -2.2497 C   0  0  0  0  0  0  0  0  0  0  0  0
   14.0329    3.4312   -1.7845 O   0  0  0  0  0  0  0  0  0  0  0  0
   13.1612    5.3557   -2.6694 O   0  0  0  0  0  0  0  0  0  0  0  0
   11.7098    3.5215   -2.4572 C   0  0  0  0  0  0  0  0  0  0  0  0
   11.6897    2.4583   -2.2199 H   0  0  0  0  0  0  0  0  0  0  0  0
   11.0121    4.0582   -1.8072 H   0  0  0  0  0  0  0  0  0  0  0  0
   11.3909    3.6864   -3.4900 H   0  0  0  0  0  0  0  0  0  0  0  0
  1  2  2  0  0  0  0
  1  6  1  0  0  0  0
  2  3  1  0  0  0  0
  3  4  2  0  0  0  0
  4  9  1  0  0  0  0
  5  4  1  0  0  0  0
  5 10  1  0  0  0  0
  6  5  2  0  0  0  0
  7  1  1  0  0  0  0
  8  2  1  0  0  0  0
 11  6  1  0  0  0  0
 11 13  2  0  0  0  0
 12 11  2  0  0  0  0
 15 14  3  0  0  0  0
 16 17  2  0  0  0  0
 18  3  1  0  0  0  0
 18 16  1  0  0  0  0
 19 16  1  0  0  0  0
 19 20  1  0  0  0  0
 19 21  1  0  0  0  0
 22 19  1  0  0  0  0
M  END
