Coordinates from ORCA-job 4-NO2-Ph-N2-OAc-B3LYPG-6-31G_dp-MTMO-d009-169-n750
 OpenBabel09051907563D

 22 21  0  0  0  0  0  0  0  0999 V2000
   15.1973    8.1365   -3.4292 C   0  0  0  0  0  0  0  0  0  0  0  0
   14.0763    7.3440   -3.2314 C   0  0  0  0  0  0  0  0  0  0  0  0
   14.1979    6.0953   -2.6052 C   0  0  0  0  0  0  0  0  0  0  0  0
   15.4444    5.6266   -2.1690 C   0  0  0  0  0  0  0  0  0  0  0  0
   16.5678    6.4262   -2.3698 C   0  0  0  0  0  0  0  0  0  0  0  0
   16.4357    7.6641   -2.9932 C   0  0  0  0  0  0  0  0  0  0  0  0
   15.1328    9.1043   -3.9092 H   0  0  0  0  0  0  0  0  0  0  0  0
   13.0947    7.6722   -3.5542 H   0  0  0  0  0  0  0  0  0  0  0  0
   15.5310    4.6625   -1.6937 H   0  0  0  0  0  0  0  0  0  0  0  0
   17.5477    6.0982   -2.0464 H   0  0  0  0  0  0  0  0  0  0  0  0
   17.6282    8.4945   -3.1979 N   0  0  0  0  0  0  0  0  0  0  0  0
   17.4758    9.5851   -3.7493 O   0  0  0  0  0  0  0  0  0  0  0  0
   18.7081    8.0519   -2.8070 O   0  0  0  0  0  0  0  0  0  0  0  0
    9.6664    7.2743    1.1553 N   0  0  0  0  0  0  0  0  0  0  0  0
    9.9553    6.4323    0.5006 N   0  0  0  0  0  0  0  0  0  0  0  0
   12.8278    4.1526   -1.9995 C   0  0  0  0  0  0  0  0  0  0  0  0
   13.7257    3.4268   -1.6519 O   0  0  0  0  0  0  0  0  0  0  0  0
   12.9883    5.4362   -2.4670 O   0  0  0  0  0  0  0  0  0  0  0  0
   11.3601    3.8130   -1.9904 C   0  0  0  0  0  0  0  0  0  0  0  0
   11.2340    2.7797   -1.6691 H   0  0  0  0  0  0  0  0  0  0  0  0
   10.8282    4.4837   -1.3091 H   0  0  0  0  0  0  0  0  0  0  0  0
   10.9335    3.9516   -2.9880 H   0  0  0  0  0  0  0  0  0  0  0  0
  1  2  2  0  0  0  0
  1  6  1  0  0  0  0
  2  3  1  0  0  0  0
  3 18  1  0  0  0  0
  3  4  2  0  0  0  0
  4  9  1  0  0  0  0
  5  4  1  0  0  0  0
  5 10  1  0  0  0  0
  6  5  2  0  0  0  0
  7  1  1  0  0  0  0
  8  2  1  0  0  0  0
 11  6  1  0  0  0  0
 11 13  2  0  0  0  0
 12 11  2  0  0  0  0
 15 14  3  0  0  0  0
 16 19  1  0  0  0  0
 16 17  2  0  0  0  0
 18 16  1  0  0  0  0
 19 20  1  0  0  0  0
 19 21  1  0  0  0  0
 22 19  1  0  0  0  0
M  END
