Coordinates from ORCA-job 4-NO2-Ph-N2-OAc-B3LYPG-6-31G_dp-MTMO-d009-169-n750
 OpenBabel09051907563D

 22 21  0  0  0  0  0  0  0  0999 V2000
   15.7349    8.5925   -3.4938 C   0  0  0  0  0  0  0  0  0  0  0  0
   14.6903    7.6816   -3.4387 C   0  0  0  0  0  0  0  0  0  0  0  0
   14.8798    6.4284   -2.8393 C   0  0  0  0  0  0  0  0  0  0  0  0
   16.1178    6.0732   -2.2872 C   0  0  0  0  0  0  0  0  0  0  0  0
   17.1642    6.9917   -2.3450 C   0  0  0  0  0  0  0  0  0  0  0  0
   16.9654    8.2330   -2.9432 C   0  0  0  0  0  0  0  0  0  0  0  0
   15.6171    9.5668   -3.9502 H   0  0  0  0  0  0  0  0  0  0  0  0
   13.7174    7.9193   -3.8540 H   0  0  0  0  0  0  0  0  0  0  0  0
   16.2567    5.1060   -1.8309 H   0  0  0  0  0  0  0  0  0  0  0  0
   18.1354    6.7537   -1.9298 H   0  0  0  0  0  0  0  0  0  0  0  0
   18.0777    9.1888   -2.9975 N   0  0  0  0  0  0  0  0  0  0  0  0
   17.8668   10.2796   -3.5285 O   0  0  0  0  0  0  0  0  0  0  0  0
   19.1539    8.8433   -2.5102 O   0  0  0  0  0  0  0  0  0  0  0  0
    2.6557    3.0431    3.0231 N   0  0  0  0  0  0  0  0  0  0  0  0
    3.5968    3.2702    2.4898 N   0  0  0  0  0  0  0  0  0  0  0  0
   13.6586    4.3450   -2.4052 C   0  0  0  0  0  0  0  0  0  0  0  0
   14.5728    3.7167   -1.9324 O   0  0  0  0  0  0  0  0  0  0  0  0
   13.7408    5.6406   -2.8564 O   0  0  0  0  0  0  0  0  0  0  0  0
   12.2497    3.8454   -2.5986 C   0  0  0  0  0  0  0  0  0  0  0  0
   12.1831    2.8168   -2.2465 H   0  0  0  0  0  0  0  0  0  0  0  0
   11.5489    4.4764   -2.0448 H   0  0  0  0  0  0  0  0  0  0  0  0
   11.9736    3.8993   -3.6556 H   0  0  0  0  0  0  0  0  0  0  0  0
  1  2  2  0  0  0  0
  1  6  1  0  0  0  0
  2  3  1  0  0  0  0
  3  4  2  0  0  0  0
  4  9  1  0  0  0  0
  5  4  1  0  0  0  0
  5 10  1  0  0  0  0
  6  5  2  0  0  0  0
  7  1  1  0  0  0  0
  8  2  1  0  0  0  0
 11  6  1  0  0  0  0
 11 13  2  0  0  0  0
 12 11  2  0  0  0  0
 15 14  3  0  0  0  0
 16 17  2  0  0  0  0
 18  3  1  0  0  0  0
 18 16  1  0  0  0  0
 19 16  1  0  0  0  0
 19 20  1  0  0  0  0
 19 21  1  0  0  0  0
 22 19  1  0  0  0  0
M  END
