Coordinates from ORCA-job 4-NO2-Ph-N2-OAc-B3LYPG-6-31G_dp-MTMO-d009-169-n750
 OpenBabel09051907563D

 22 21  0  0  0  0  0  0  0  0999 V2000
   15.9374    8.6512   -3.5853 C   0  0  0  0  0  0  0  0  0  0  0  0
   14.8948    7.7378   -3.5317 C   0  0  0  0  0  0  0  0  0  0  0  0
   15.0873    6.4840   -2.9343 C   0  0  0  0  0  0  0  0  0  0  0  0
   16.3260    6.1308   -2.3828 C   0  0  0  0  0  0  0  0  0  0  0  0
   17.3704    7.0518   -2.4391 C   0  0  0  0  0  0  0  0  0  0  0  0
   17.1687    8.2936   -3.0352 C   0  0  0  0  0  0  0  0  0  0  0  0
   15.8174    9.6259   -4.0402 H   0  0  0  0  0  0  0  0  0  0  0  0
   13.9214    7.9740   -3.9466 H   0  0  0  0  0  0  0  0  0  0  0  0
   16.4672    5.1632   -1.9281 H   0  0  0  0  0  0  0  0  0  0  0  0
   18.3421    6.8154   -2.0242 H   0  0  0  0  0  0  0  0  0  0  0  0
   18.2788    9.2520   -3.0879 N   0  0  0  0  0  0  0  0  0  0  0  0
   18.0653   10.3433   -3.6171 O   0  0  0  0  0  0  0  0  0  0  0  0
   19.3557    8.9083   -2.6011 O   0  0  0  0  0  0  0  0  0  0  0  0
    0.5805    2.4828    3.9735 N   0  0  0  0  0  0  0  0  0  0  0  0
    1.5236    2.7076    3.4428 N   0  0  0  0  0  0  0  0  0  0  0  0
   13.8719    4.3959   -2.5067 C   0  0  0  0  0  0  0  0  0  0  0  0
   14.7889    3.7674   -2.0399 O   0  0  0  0  0  0  0  0  0  0  0  0
   13.9499    5.6939   -2.9520 O   0  0  0  0  0  0  0  0  0  0  0  0
   12.4634    3.8944   -2.6976 C   0  0  0  0  0  0  0  0  0  0  0  0
   12.4005    2.8634   -2.3518 H   0  0  0  0  0  0  0  0  0  0  0  0
   11.7635    4.5202   -2.1366 H   0  0  0  0  0  0  0  0  0  0  0  0
   12.1825    3.9547   -3.7530 H   0  0  0  0  0  0  0  0  0  0  0  0
  1  2  2  0  0  0  0
  1  6  1  0  0  0  0
  2  3  1  0  0  0  0
  3  4  2  0  0  0  0
  4  9  1  0  0  0  0
  5  4  1  0  0  0  0
  5 10  1  0  0  0  0
  6  5  2  0  0  0  0
  7  1  1  0  0  0  0
  8  2  1  0  0  0  0
 11  6  1  0  0  0  0
 11 13  2  0  0  0  0
 12 11  2  0  0  0  0
 15 14  3  0  0  0  0
 16 17  2  0  0  0  0
 18  3  1  0  0  0  0
 18 16  1  0  0  0  0
 19 16  1  0  0  0  0
 19 20  1  0  0  0  0
 19 21  1  0  0  0  0
 22 19  1  0  0  0  0
M  END
