Coordinates from ORCA-job 4-NO2-Ph-N2-OAc-B3LYPG-6-31G_dp-MTMO-d009-169-n750
 OpenBabel09051907563D

 22 21  0  0  0  0  0  0  0  0999 V2000
   15.8912    8.6383   -3.5640 C   0  0  0  0  0  0  0  0  0  0  0  0
   14.8487    7.7250   -3.5105 C   0  0  0  0  0  0  0  0  0  0  0  0
   15.0411    6.4711   -2.9132 C   0  0  0  0  0  0  0  0  0  0  0  0
   16.2797    6.1179   -2.3616 C   0  0  0  0  0  0  0  0  0  0  0  0
   17.3241    7.0388   -2.4178 C   0  0  0  0  0  0  0  0  0  0  0  0
   17.1225    8.2807   -3.0139 C   0  0  0  0  0  0  0  0  0  0  0  0
   15.7713    9.6130   -4.0188 H   0  0  0  0  0  0  0  0  0  0  0  0
   13.8753    7.9611   -3.9255 H   0  0  0  0  0  0  0  0  0  0  0  0
   16.4209    5.1502   -1.9070 H   0  0  0  0  0  0  0  0  0  0  0  0
   18.2958    6.8024   -2.0028 H   0  0  0  0  0  0  0  0  0  0  0  0
   18.2326    9.2391   -3.0665 N   0  0  0  0  0  0  0  0  0  0  0  0
   18.0192   10.3304   -3.5956 O   0  0  0  0  0  0  0  0  0  0  0  0
   19.3095    8.8953   -2.5796 O   0  0  0  0  0  0  0  0  0  0  0  0
    1.0432    2.6117    3.7630 N   0  0  0  0  0  0  0  0  0  0  0  0
    1.9858    2.8366    3.2314 N   0  0  0  0  0  0  0  0  0  0  0  0
   13.8255    4.3832   -2.4855 C   0  0  0  0  0  0  0  0  0  0  0  0
   14.7422    3.7549   -2.0178 O   0  0  0  0  0  0  0  0  0  0  0  0
   13.9037    5.6810   -2.9312 O   0  0  0  0  0  0  0  0  0  0  0  0
   12.4171    3.8814   -2.6771 C   0  0  0  0  0  0  0  0  0  0  0  0
   12.3541    2.8506   -2.3310 H   0  0  0  0  0  0  0  0  0  0  0  0
   11.7168    4.5074   -2.1169 H   0  0  0  0  0  0  0  0  0  0  0  0
   12.1370    3.9412   -3.7328 H   0  0  0  0  0  0  0  0  0  0  0  0
  1  2  2  0  0  0  0
  1  6  1  0  0  0  0
  2  3  1  0  0  0  0
  3  4  2  0  0  0  0
  4  9  1  0  0  0  0
  5  4  1  0  0  0  0
  5 10  1  0  0  0  0
  6  5  2  0  0  0  0
  7  1  1  0  0  0  0
  8  2  1  0  0  0  0
 11  6  1  0  0  0  0
 11 13  2  0  0  0  0
 12 11  2  0  0  0  0
 15 14  3  0  0  0  0
 16 17  2  0  0  0  0
 18  3  1  0  0  0  0
 18 16  1  0  0  0  0
 19 16  1  0  0  0  0
 19 20  1  0  0  0  0
 19 21  1  0  0  0  0
 22 19  1  0  0  0  0
M  END
