Coordinates from ORCA-job 4-NO2-Ph-N2-OAc-B3LYPG-6-31G_dp-MTMO-d009-169-n750
 OpenBabel09051907553D

 22 21  0  0  0  0  0  0  0  0999 V2000
   14.9558    8.1066   -3.3911 C   0  0  0  0  0  0  0  0  0  0  0  0
   13.8620    7.2621   -3.2692 C   0  0  0  0  0  0  0  0  0  0  0  0
   13.9794    6.0556   -2.5648 C   0  0  0  0  0  0  0  0  0  0  0  0
   15.1934    5.6813   -1.9738 C   0  0  0  0  0  0  0  0  0  0  0  0
   16.2895    6.5326   -2.0991 C   0  0  0  0  0  0  0  0  0  0  0  0
   16.1620    7.7279   -2.8014 C   0  0  0  0  0  0  0  0  0  0  0  0
   14.8940    9.0442   -3.9283 H   0  0  0  0  0  0  0  0  0  0  0  0
   12.9056    7.5172   -3.7115 H   0  0  0  0  0  0  0  0  0  0  0  0
   15.2786    4.7472   -1.4413 H   0  0  0  0  0  0  0  0  0  0  0  0
   17.2443    6.2776   -1.6568 H   0  0  0  0  0  0  0  0  0  0  0  0
   17.3260    8.6132   -2.9267 N   0  0  0  0  0  0  0  0  0  0  0  0
   17.1781    9.6641   -3.5512 O   0  0  0  0  0  0  0  0  0  0  0  0
   18.3789    8.2522   -2.4015 O   0  0  0  0  0  0  0  0  0  0  0  0
   12.4462    7.4586    0.1522 N   0  0  0  0  0  0  0  0  0  0  0  0
   11.6308    6.7126    0.1347 N   0  0  0  0  0  0  0  0  0  0  0  0
   12.6639    4.0539   -2.0338 C   0  0  0  0  0  0  0  0  0  0  0  0
   13.5670    3.3815   -1.6033 O   0  0  0  0  0  0  0  0  0  0  0  0
   12.7968    5.3370   -2.5134 O   0  0  0  0  0  0  0  0  0  0  0  0
   11.2185    3.6403   -2.1312 C   0  0  0  0  0  0  0  0  0  0  0  0
   11.1191    2.6054   -1.8064 H   0  0  0  0  0  0  0  0  0  0  0  0
   10.6067    4.2897   -1.4981 H   0  0  0  0  0  0  0  0  0  0  0  0
   10.8608    3.7504   -3.1587 H   0  0  0  0  0  0  0  0  0  0  0  0
  1  2  2  0  0  0  0
  1  6  1  0  0  0  0
  2  3  1  0  0  0  0
  3 18  1  0  0  0  0
  3  4  2  0  0  0  0
  4  9  1  0  0  0  0
  5  4  1  0  0  0  0
  5 10  1  0  0  0  0
  6  5  2  0  0  0  0
  7  1  1  0  0  0  0
  8  2  1  0  0  0  0
 11  6  1  0  0  0  0
 11 13  2  0  0  0  0
 12 11  2  0  0  0  0
 15 14  3  0  0  0  0
 16 17  2  0  0  0  0
 18 16  1  0  0  0  0
 19 16  1  0  0  0  0
 19 20  1  0  0  0  0
 19 21  1  0  0  0  0
 22 19  1  0  0  0  0
M  END
