Coordinates from ORCA-job 4-NO2-Ph-N2-OAc-B3LYPG-6-31G_dp-MTMO-d009-169-n750
 OpenBabel09051907563D

 22 21  0  0  0  0  0  0  0  0999 V2000
   15.7094    8.5852   -3.4822 C   0  0  0  0  0  0  0  0  0  0  0  0
   14.6648    7.6743   -3.4276 C   0  0  0  0  0  0  0  0  0  0  0  0
   14.8541    6.4211   -2.8280 C   0  0  0  0  0  0  0  0  0  0  0  0
   16.0918    6.0660   -2.2752 C   0  0  0  0  0  0  0  0  0  0  0  0
   17.1383    6.9845   -2.3326 C   0  0  0  0  0  0  0  0  0  0  0  0
   16.9397    8.2258   -2.9310 C   0  0  0  0  0  0  0  0  0  0  0  0
   15.5919    9.5594   -3.9388 H   0  0  0  0  0  0  0  0  0  0  0  0
   13.6922    7.9119   -3.8434 H   0  0  0  0  0  0  0  0  0  0  0  0
   16.2305    5.0989   -1.8187 H   0  0  0  0  0  0  0  0  0  0  0  0
   18.1092    6.7466   -1.9169 H   0  0  0  0  0  0  0  0  0  0  0  0
   18.0520    9.1816   -2.9849 N   0  0  0  0  0  0  0  0  0  0  0  0
   17.8412   10.2724   -3.5160 O   0  0  0  0  0  0  0  0  0  0  0  0
   19.1279    8.8362   -2.4970 O   0  0  0  0  0  0  0  0  0  0  0  0
    2.9135    3.1154    2.9078 N   0  0  0  0  0  0  0  0  0  0  0  0
    3.8543    3.3422    2.3737 N   0  0  0  0  0  0  0  0  0  0  0  0
   13.6325    4.3380   -2.3934 C   0  0  0  0  0  0  0  0  0  0  0  0
   14.5460    3.7104   -1.9184 O   0  0  0  0  0  0  0  0  0  0  0  0
   13.7152    5.6332   -2.8459 O   0  0  0  0  0  0  0  0  0  0  0  0
   12.2240    3.8380   -2.5885 C   0  0  0  0  0  0  0  0  0  0  0  0
   12.1569    2.8098   -2.2354 H   0  0  0  0  0  0  0  0  0  0  0  0
   11.5221    4.4695   -2.0366 H   0  0  0  0  0  0  0  0  0  0  0  0
   11.9496    3.8907   -3.6460 H   0  0  0  0  0  0  0  0  0  0  0  0
  1  2  2  0  0  0  0
  1  6  1  0  0  0  0
  2  3  1  0  0  0  0
  3  4  2  0  0  0  0
  4  9  1  0  0  0  0
  5  4  1  0  0  0  0
  5 10  1  0  0  0  0
  6  5  2  0  0  0  0
  7  1  1  0  0  0  0
  8  2  1  0  0  0  0
 11  6  1  0  0  0  0
 11 13  2  0  0  0  0
 12 11  2  0  0  0  0
 15 14  3  0  0  0  0
 16 17  2  0  0  0  0
 18  3  1  0  0  0  0
 18 16  1  0  0  0  0
 19 16  1  0  0  0  0
 19 20  1  0  0  0  0
 19 21  1  0  0  0  0
 22 19  1  0  0  0  0
M  END
