Coordinates from ORCA-job 4-NO2-Ph-N2-OAc-B3LYPG-6-31G_dp-MTMO-d009-169-n750
 OpenBabel09051907553D

 22 20  0  0  0  0  0  0  0  0999 V2000
   15.6134    9.0357   -2.7108 C   0  0  0  0  0  0  0  0  0  0  0  0
   14.2901    8.8804   -2.2555 C   0  0  0  0  0  0  0  0  0  0  0  0
   14.0702    7.5430   -2.0381 C   0  0  0  0  0  0  0  0  0  0  0  0
   14.7621    6.5027   -2.1552 C   0  0  0  0  0  0  0  0  0  0  0  0
   16.0821    6.5902   -2.5994 C   0  0  0  0  0  0  0  0  0  0  0  0
   16.4603    7.9213   -2.8695 C   0  0  0  0  0  0  0  0  0  0  0  0
   16.0012   10.0195   -2.9469 H   0  0  0  0  0  0  0  0  0  0  0  0
   13.5999    9.7017   -2.1145 H   0  0  0  0  0  0  0  0  0  0  0  0
   13.7356    4.6238   -1.8074 H   0  0  0  0  0  0  0  0  0  0  0  0
   16.7767    5.7720   -2.7407 H   0  0  0  0  0  0  0  0  0  0  0  0
   17.8346    8.1625   -3.3506 N   0  0  0  0  0  0  0  0  0  0  0  0
   18.1653    9.3234   -3.5865 O   0  0  0  0  0  0  0  0  0  0  0  0
   18.5650    7.1830   -3.4854 O   0  0  0  0  0  0  0  0  0  0  0  0
   11.4492    7.7706   -1.0763 N   0  0  0  0  0  0  0  0  0  0  0  0
   10.6029    7.2151   -0.6336 N   0  0  0  0  0  0  0  0  0  0  0  0
   12.0887    3.7209   -2.0074 C   0  0  0  0  0  0  0  0  0  0  0  0
   13.4145    3.6996   -1.7513 O   0  0  0  0  0  0  0  0  0  0  0  0
   11.4755    4.7419   -2.2385 O   0  0  0  0  0  0  0  0  0  0  0  0
   11.4942    2.3344   -1.9629 C   0  0  0  0  0  0  0  0  0  0  0  0
   11.6455    1.8963   -0.9714 H   0  0  0  0  0  0  0  0  0  0  0  0
   10.4298    2.3870   -2.1884 H   0  0  0  0  0  0  0  0  0  0  0  0
   12.0004    1.6864   -2.6844 H   0  0  0  0  0  0  0  0  0  0  0  0
  1  2  1  0  0  0  0
  2  8  1  0  0  0  0
  2  3  2  0  0  0  0
  4  3  1  0  0  0  0
  5  4  2  0  0  0  0
  6  1  2  0  0  0  0
  6  5  1  0  0  0  0
  7  1  1  0  0  0  0
  9 17  1  0  0  0  0
 10  5  1  0  0  0  0
 11  6  1  0  0  0  0
 12 11  2  0  0  0  0
 13 11  2  0  0  0  0
 14 15  3  0  0  0  0
 16 19  1  0  0  0  0
 16 17  1  0  0  0  0
 18 16  2  0  0  0  0
 19 20  1  0  0  0  0
 21 19  1  0  0  0  0
 22 19  1  0  0  0  0
M  RAD  2   3   2   4   2
M  END
