Coordinates from ORCA-job 4-NO2-Ph-N2-OAc-B3LYPG-6-31G_dp-MTMO-d009-169-n750
 OpenBabel09051907563D

 22 21  0  0  0  0  0  0  0  0999 V2000
   15.1067    8.3927   -3.2115 C   0  0  0  0  0  0  0  0  0  0  0  0
   14.0856    7.4544   -3.1839 C   0  0  0  0  0  0  0  0  0  0  0  0
   14.3034    6.1928   -2.6120 C   0  0  0  0  0  0  0  0  0  0  0  0
   15.5470    5.8571   -2.0601 C   0  0  0  0  0  0  0  0  0  0  0  0
   16.5699    6.8030   -2.0902 C   0  0  0  0  0  0  0  0  0  0  0  0
   16.3429    8.0522   -2.6613 C   0  0  0  0  0  0  0  0  0  0  0  0
   14.9668    9.3737   -3.6467 H   0  0  0  0  0  0  0  0  0  0  0  0
   13.1094    7.6766   -3.5999 H   0  0  0  0  0  0  0  0  0  0  0  0
   15.7082    4.8834   -1.6256 H   0  0  0  0  0  0  0  0  0  0  0  0
   17.5443    6.5805   -1.6742 H   0  0  0  0  0  0  0  0  0  0  0  0
   17.4303    9.0372   -2.6863 N   0  0  0  0  0  0  0  0  0  0  0  0
   17.1946   10.1344   -3.1933 O   0  0  0  0  0  0  0  0  0  0  0  0
   18.5122    8.7084   -2.1999 O   0  0  0  0  0  0  0  0  0  0  0  0
    8.5527    5.6393    0.8015 N   0  0  0  0  0  0  0  0  0  0  0  0
    9.2701    5.2414    0.0613 N   0  0  0  0  0  0  0  0  0  0  0  0
   13.1380    4.0646   -2.2467 C   0  0  0  0  0  0  0  0  0  0  0  0
   14.0723    3.4447   -1.8029 O   0  0  0  0  0  0  0  0  0  0  0  0
   13.1849    5.3779   -2.6523 O   0  0  0  0  0  0  0  0  0  0  0  0
   11.7391    3.5395   -2.4389 C   0  0  0  0  0  0  0  0  0  0  0  0
   11.7227    2.4747   -2.2089 H   0  0  0  0  0  0  0  0  0  0  0  0
   11.0495    4.0714   -1.7764 H   0  0  0  0  0  0  0  0  0  0  0  0
   11.4065    3.7113   -3.4663 H   0  0  0  0  0  0  0  0  0  0  0  0
  1  2  2  0  0  0  0
  1  6  1  0  0  0  0
  2  3  1  0  0  0  0
  3  4  2  0  0  0  0
  4  9  1  0  0  0  0
  5  4  1  0  0  0  0
  5 10  1  0  0  0  0
  6  5  2  0  0  0  0
  7  1  1  0  0  0  0
  8  2  1  0  0  0  0
 11  6  1  0  0  0  0
 11 13  2  0  0  0  0
 12 11  2  0  0  0  0
 15 14  3  0  0  0  0
 16 17  2  0  0  0  0
 18  3  1  0  0  0  0
 18 16  1  0  0  0  0
 19 16  1  0  0  0  0
 19 20  1  0  0  0  0
 19 21  1  0  0  0  0
 22 19  1  0  0  0  0
M  END
