Coordinates from ORCA-job 4-NO2-Ph-N2-OAc-B3LYPG-6-31G_dp-MTMO-d009-169-n750
 OpenBabel09051907563D

 22 21  0  0  0  0  0  0  0  0999 V2000
   15.6117    8.5551   -3.4396 C   0  0  0  0  0  0  0  0  0  0  0  0
   14.5654    7.6462   -3.3852 C   0  0  0  0  0  0  0  0  0  0  0  0
   14.7512    6.3939   -2.7825 C   0  0  0  0  0  0  0  0  0  0  0  0
   15.9871    6.0378   -2.2264 C   0  0  0  0  0  0  0  0  0  0  0  0
   17.0353    6.9544   -2.2836 C   0  0  0  0  0  0  0  0  0  0  0  0
   16.8402    8.1947   -2.8850 C   0  0  0  0  0  0  0  0  0  0  0  0
   15.4968    9.5285   -3.8985 H   0  0  0  0  0  0  0  0  0  0  0  0
   13.5940    7.8846   -3.8037 H   0  0  0  0  0  0  0  0  0  0  0  0
   16.1230    5.0716   -1.7672 H   0  0  0  0  0  0  0  0  0  0  0  0
   18.0050    6.7156   -1.8653 H   0  0  0  0  0  0  0  0  0  0  0  0
   17.9543    9.1483   -2.9387 N   0  0  0  0  0  0  0  0  0  0  0  0
   17.7466   10.2384   -3.4727 O   0  0  0  0  0  0  0  0  0  0  0  0
   19.0286    8.8021   -2.4479 O   0  0  0  0  0  0  0  0  0  0  0  0
    3.9487    3.3864    2.4434 N   0  0  0  0  0  0  0  0  0  0  0  0
    4.8843    3.6160    1.9016 N   0  0  0  0  0  0  0  0  0  0  0  0
   13.5233    4.3158   -2.3410 C   0  0  0  0  0  0  0  0  0  0  0  0
   14.4326    3.6902   -1.8556 O   0  0  0  0  0  0  0  0  0  0  0  0
   13.6111    5.6077   -2.8020 O   0  0  0  0  0  0  0  0  0  0  0  0
   12.1153    3.8168   -2.5418 C   0  0  0  0  0  0  0  0  0  0  0  0
   12.0433    2.7922   -2.1797 H   0  0  0  0  0  0  0  0  0  0  0  0
   11.4106    4.4550   -2.0012 H   0  0  0  0  0  0  0  0  0  0  0  0
   11.8490    3.8601   -3.6019 H   0  0  0  0  0  0  0  0  0  0  0  0
  1  2  2  0  0  0  0
  1  6  1  0  0  0  0
  2  3  1  0  0  0  0
  3  4  2  0  0  0  0
  4  9  1  0  0  0  0
  5  4  1  0  0  0  0
  5 10  1  0  0  0  0
  6  5  2  0  0  0  0
  7  1  1  0  0  0  0
  8  2  1  0  0  0  0
 11  6  1  0  0  0  0
 11 13  2  0  0  0  0
 12 11  2  0  0  0  0
 15 14  3  0  0  0  0
 16 17  2  0  0  0  0
 18  3  1  0  0  0  0
 18 16  1  0  0  0  0
 19 16  1  0  0  0  0
 19 20  1  0  0  0  0
 19 21  1  0  0  0  0
 22 19  1  0  0  0  0
M  END
