Coordinates from ORCA-job 4-NO2-Ph-N2-OAc-B3LYPG-6-31G_dp-MTMO-d009-169-n750
 OpenBabel09051907553D

 22 21  0  0  0  0  0  0  0  0999 V2000
   15.0613    8.1160   -3.3877 C   0  0  0  0  0  0  0  0  0  0  0  0
   13.9570    7.2905   -3.2365 C   0  0  0  0  0  0  0  0  0  0  0  0
   14.0844    6.0555   -2.5848 C   0  0  0  0  0  0  0  0  0  0  0  0
   15.3203    5.6338   -2.0763 C   0  0  0  0  0  0  0  0  0  0  0  0
   16.4271    6.4662   -2.2310 C   0  0  0  0  0  0  0  0  0  0  0  0
   16.2892    7.6901   -2.8802 C   0  0  0  0  0  0  0  0  0  0  0  0
   14.9918    9.0743   -3.8860 H   0  0  0  0  0  0  0  0  0  0  0  0
   12.9841    7.5818   -3.6161 H   0  0  0  0  0  0  0  0  0  0  0  0
   15.4118    4.6801   -1.5812 H   0  0  0  0  0  0  0  0  0  0  0  0
   17.3984    6.1745   -1.8518 H   0  0  0  0  0  0  0  0  0  0  0  0
   17.4643    8.5552   -3.0363 N   0  0  0  0  0  0  0  0  0  0  0  0
   17.3065    9.6329   -3.6108 O   0  0  0  0  0  0  0  0  0  0  0  0
   18.5360    8.1523   -2.5847 O   0  0  0  0  0  0  0  0  0  0  0  0
   10.9922    7.6342    0.7431 N   0  0  0  0  0  0  0  0  0  0  0  0
   10.9487    6.6629    0.2178 N   0  0  0  0  0  0  0  0  0  0  0  0
   12.7457    4.0786   -2.0197 C   0  0  0  0  0  0  0  0  0  0  0  0
   13.6443    3.3929   -1.6001 O   0  0  0  0  0  0  0  0  0  0  0  0
   12.8909    5.3588   -2.5021 O   0  0  0  0  0  0  0  0  0  0  0  0
   11.2936    3.6853   -2.0984 C   0  0  0  0  0  0  0  0  0  0  0  0
   11.1845    2.6516   -1.7726 H   0  0  0  0  0  0  0  0  0  0  0  0
   10.6999    4.3437   -1.4578 H   0  0  0  0  0  0  0  0  0  0  0  0
   10.9250    3.8000   -3.1216 H   0  0  0  0  0  0  0  0  0  0  0  0
  1  2  2  0  0  0  0
  1  6  1  0  0  0  0
  2  3  1  0  0  0  0
  3 18  1  0  0  0  0
  3  4  2  0  0  0  0
  4  9  1  0  0  0  0
  5  4  1  0  0  0  0
  5 10  1  0  0  0  0
  6  5  2  0  0  0  0
  7  1  1  0  0  0  0
  8  2  1  0  0  0  0
 11  6  1  0  0  0  0
 11 13  2  0  0  0  0
 12 11  2  0  0  0  0
 15 14  3  0  0  0  0
 16 17  2  0  0  0  0
 18 16  1  0  0  0  0
 19 16  1  0  0  0  0
 19 20  1  0  0  0  0
 19 21  1  0  0  0  0
 22 19  1  0  0  0  0
M  END
