Coordinates from ORCA-job 4-NO2-Ph-N2-OAc-B3LYPG-6-31G_dp-MTMO-d009-169-n750
 OpenBabel09051907553D

 22 21  0  0  0  0  0  0  0  0999 V2000
   14.9870    8.1497   -3.2389 C   0  0  0  0  0  0  0  0  0  0  0  0
   13.8918    7.3131   -3.0819 C   0  0  0  0  0  0  0  0  0  0  0  0
   14.0538    6.0389   -2.5194 C   0  0  0  0  0  0  0  0  0  0  0  0
   15.3148    5.5891   -2.1056 C   0  0  0  0  0  0  0  0  0  0  0  0
   16.4120    6.4330   -2.2653 C   0  0  0  0  0  0  0  0  0  0  0  0
   16.2400    7.6956   -2.8264 C   0  0  0  0  0  0  0  0  0  0  0  0
   14.8913    9.1376   -3.6702 H   0  0  0  0  0  0  0  0  0  0  0  0
   12.9003    7.6260   -3.3889 H   0  0  0  0  0  0  0  0  0  0  0  0
   15.4320    4.6064   -1.6772 H   0  0  0  0  0  0  0  0  0  0  0  0
   17.4020    6.1207   -1.9576 H   0  0  0  0  0  0  0  0  0  0  0  0
   17.4056    8.5726   -2.9887 N   0  0  0  0  0  0  0  0  0  0  0  0
   17.2189    9.6827   -3.4878 O   0  0  0  0  0  0  0  0  0  0  0  0
   18.4988    8.1463   -2.6171 O   0  0  0  0  0  0  0  0  0  0  0  0
   11.4323    7.8570    0.0286 N   0  0  0  0  0  0  0  0  0  0  0  0
   11.1040    6.8046   -0.0483 N   0  0  0  0  0  0  0  0  0  0  0  0
   12.7458    4.0251   -2.0121 C   0  0  0  0  0  0  0  0  0  0  0  0
   13.6650    3.3178   -1.6832 O   0  0  0  0  0  0  0  0  0  0  0  0
   12.8657    5.3347   -2.4178 O   0  0  0  0  0  0  0  0  0  0  0  0
   11.2923    3.6309   -2.0466 C   0  0  0  0  0  0  0  0  0  0  0  0
   11.1969    2.5882   -1.7462 H   0  0  0  0  0  0  0  0  0  0  0  0
   10.7186    4.2711   -1.3706 H   0  0  0  0  0  0  0  0  0  0  0  0
   10.8882    3.7701   -3.0537 H   0  0  0  0  0  0  0  0  0  0  0  0
  1  2  2  0  0  0  0
  1  6  1  0  0  0  0
  2  3  1  0  0  0  0
  3 18  1  0  0  0  0
  3  4  2  0  0  0  0
  4  9  1  0  0  0  0
  5  4  1  0  0  0  0
  5 10  1  0  0  0  0
  6  5  2  0  0  0  0
  7  1  1  0  0  0  0
  8  2  1  0  0  0  0
 11  6  1  0  0  0  0
 11 13  2  0  0  0  0
 12 11  2  0  0  0  0
 15 14  3  0  0  0  0
 16 17  2  0  0  0  0
 18 16  1  0  0  0  0
 19 16  1  0  0  0  0
 19 20  1  0  0  0  0
 19 21  1  0  0  0  0
 22 19  1  0  0  0  0
M  END
