Coordinates from ORCA-job 4-NO2-Ph-N2-OAc-B3LYPG-6-31G_dp-MTMO-d009-169-n750
 OpenBabel09051907563D

 22 21  0  0  0  0  0  0  0  0999 V2000
   15.7562    8.5990   -3.5032 C   0  0  0  0  0  0  0  0  0  0  0  0
   14.7120    7.6876   -3.4484 C   0  0  0  0  0  0  0  0  0  0  0  0
   14.9022    6.4341   -2.8495 C   0  0  0  0  0  0  0  0  0  0  0  0
   16.1403    6.0793   -2.2977 C   0  0  0  0  0  0  0  0  0  0  0  0
   17.1863    6.9983   -2.3552 C   0  0  0  0  0  0  0  0  0  0  0  0
   16.9869    8.2397   -2.9528 C   0  0  0  0  0  0  0  0  0  0  0  0
   15.6380    9.5733   -3.9592 H   0  0  0  0  0  0  0  0  0  0  0  0
   13.7390    7.9250   -3.8636 H   0  0  0  0  0  0  0  0  0  0  0  0
   16.2797    5.1121   -1.8417 H   0  0  0  0  0  0  0  0  0  0  0  0
   18.1576    6.7606   -1.9400 H   0  0  0  0  0  0  0  0  0  0  0  0
   18.0988    9.1961   -3.0068 N   0  0  0  0  0  0  0  0  0  0  0  0
   17.8873   10.2870   -3.5374 O   0  0  0  0  0  0  0  0  0  0  0  0
   19.1751    8.8509   -2.5197 O   0  0  0  0  0  0  0  0  0  0  0  0
    2.4324    2.9847    3.1256 N   0  0  0  0  0  0  0  0  0  0  0  0
    3.3737    3.2107    2.5922 N   0  0  0  0  0  0  0  0  0  0  0  0
   13.6821    4.3498   -2.4167 C   0  0  0  0  0  0  0  0  0  0  0  0
   14.5968    3.7216   -1.9449 O   0  0  0  0  0  0  0  0  0  0  0  0
   13.7635    5.6459   -2.8668 O   0  0  0  0  0  0  0  0  0  0  0  0
   12.2733    3.8498   -2.6095 C   0  0  0  0  0  0  0  0  0  0  0  0
   12.2074    2.8208   -2.2589 H   0  0  0  0  0  0  0  0  0  0  0  0
   11.5726    4.4797   -2.0542 H   0  0  0  0  0  0  0  0  0  0  0  0
   11.9961    3.9052   -3.6662 H   0  0  0  0  0  0  0  0  0  0  0  0
  1  2  2  0  0  0  0
  1  6  1  0  0  0  0
  2  3  1  0  0  0  0
  3  4  2  0  0  0  0
  4  9  1  0  0  0  0
  5  4  1  0  0  0  0
  5 10  1  0  0  0  0
  6  5  2  0  0  0  0
  7  1  1  0  0  0  0
  8  2  1  0  0  0  0
 11  6  1  0  0  0  0
 11 13  2  0  0  0  0
 12 11  2  0  0  0  0
 15 14  3  0  0  0  0
 16 17  2  0  0  0  0
 18  3  1  0  0  0  0
 18 16  1  0  0  0  0
 19 16  1  0  0  0  0
 19 20  1  0  0  0  0
 19 21  1  0  0  0  0
 22 19  1  0  0  0  0
M  END
