Coordinates from ORCA-job 4-NO2-Ph-N2-OAc-B3LYPG-6-31G_dp-MTMO-d009-169-n750
 OpenBabel09051907563D

 22 21  0  0  0  0  0  0  0  0999 V2000
   15.3491    8.4542   -3.3424 C   0  0  0  0  0  0  0  0  0  0  0  0
   14.2628    7.6014   -3.2142 C   0  0  0  0  0  0  0  0  0  0  0  0
   14.4153    6.3556   -2.5891 C   0  0  0  0  0  0  0  0  0  0  0  0
   15.6580    5.9499   -2.0844 C   0  0  0  0  0  0  0  0  0  0  0  0
   16.7466    6.8100   -2.2158 C   0  0  0  0  0  0  0  0  0  0  0  0
   16.5841    8.0444   -2.8387 C   0  0  0  0  0  0  0  0  0  0  0  0
   15.2603    9.4214   -3.8198 H   0  0  0  0  0  0  0  0  0  0  0  0
   13.2851    7.8794   -3.5914 H   0  0  0  0  0  0  0  0  0  0  0  0
   15.7680    4.9886   -1.6081 H   0  0  0  0  0  0  0  0  0  0  0  0
   17.7225    6.5317   -1.8385 H   0  0  0  0  0  0  0  0  0  0  0  0
   17.7403    8.9386   -2.9701 N   0  0  0  0  0  0  0  0  0  0  0  0
   17.5612   10.0249   -3.5218 O   0  0  0  0  0  0  0  0  0  0  0  0
   18.8188    8.5498   -2.5222 O   0  0  0  0  0  0  0  0  0  0  0  0
    7.2366    3.9289    0.6689 N   0  0  0  0  0  0  0  0  0  0  0  0
    8.1842    4.1669    0.1522 N   0  0  0  0  0  0  0  0  0  0  0  0
   13.1093    4.3521   -2.0398 C   0  0  0  0  0  0  0  0  0  0  0  0
   14.0115    3.6905   -1.5897 O   0  0  0  0  0  0  0  0  0  0  0  0
   13.2374    5.6291   -2.5323 O   0  0  0  0  0  0  0  0  0  0  0  0
   11.6689    3.9220   -2.1500 C   0  0  0  0  0  0  0  0  0  0  0  0
   11.5849    2.8776   -1.8520 H   0  0  0  0  0  0  0  0  0  0  0  0
   11.0413    4.5403   -1.5009 H   0  0  0  0  0  0  0  0  0  0  0  0
   11.3107    4.0539   -3.1746 H   0  0  0  0  0  0  0  0  0  0  0  0
  1  2  2  0  0  0  0
  1  6  1  0  0  0  0
  2  3  1  0  0  0  0
  3 18  1  0  0  0  0
  3  4  2  0  0  0  0
  4  9  1  0  0  0  0
  5  4  1  0  0  0  0
  5 10  1  0  0  0  0
  6  5  2  0  0  0  0
  7  1  1  0  0  0  0
  8  2  1  0  0  0  0
 11  6  1  0  0  0  0
 11 13  2  0  0  0  0
 12 11  2  0  0  0  0
 15 14  3  0  0  0  0
 16 17  2  0  0  0  0
 18 16  1  0  0  0  0
 19 16  1  0  0  0  0
 19 20  1  0  0  0  0
 19 21  1  0  0  0  0
 22 19  1  0  0  0  0
M  END
