Coordinates from ORCA-job 4-NO2-Ph-N2-OAc-B3LYPG-6-31G_dp-MTMO-d009-169-n750
 OpenBabel09051907563D

 22 21  0  0  0  0  0  0  0  0999 V2000
   15.1868    8.1349   -3.4253 C   0  0  0  0  0  0  0  0  0  0  0  0
   14.0673    7.3392   -3.2317 C   0  0  0  0  0  0  0  0  0  0  0  0
   14.1901    6.0908   -2.6049 C   0  0  0  0  0  0  0  0  0  0  0  0
   15.4363    5.6258   -2.1640 C   0  0  0  0  0  0  0  0  0  0  0  0
   16.5582    6.4286   -2.3605 C   0  0  0  0  0  0  0  0  0  0  0  0
   16.4249    7.6661   -2.9845 C   0  0  0  0  0  0  0  0  0  0  0  0
   15.1213    9.1024   -3.9056 H   0  0  0  0  0  0  0  0  0  0  0  0
   13.0860    7.6644   -3.5583 H   0  0  0  0  0  0  0  0  0  0  0  0
   15.5239    4.6619   -1.6882 H   0  0  0  0  0  0  0  0  0  0  0  0
   17.5377    6.1034   -2.0333 H   0  0  0  0  0  0  0  0  0  0  0  0
   17.6157    8.5000   -3.1847 N   0  0  0  0  0  0  0  0  0  0  0  0
   17.4622    9.5901   -3.7365 O   0  0  0  0  0  0  0  0  0  0  0  0
   18.6954    8.0605   -2.7896 O   0  0  0  0  0  0  0  0  0  0  0  0
    9.7631    7.3148    1.1302 N   0  0  0  0  0  0  0  0  0  0  0  0
   10.0199    6.4555    0.4846 N   0  0  0  0  0  0  0  0  0  0  0  0
   12.8231    4.1446   -2.0034 C   0  0  0  0  0  0  0  0  0  0  0  0
   13.7217    3.4214   -1.6521 O   0  0  0  0  0  0  0  0  0  0  0  0
   12.9819    5.4283   -2.4712 O   0  0  0  0  0  0  0  0  0  0  0  0
   11.3562    3.8012   -1.9993 C   0  0  0  0  0  0  0  0  0  0  0  0
   11.2315    2.7684   -1.6761 H   0  0  0  0  0  0  0  0  0  0  0  0
   10.8205    4.4723   -1.3215 H   0  0  0  0  0  0  0  0  0  0  0  0
   10.9332    3.9367   -2.9988 H   0  0  0  0  0  0  0  0  0  0  0  0
  1  2  2  0  0  0  0
  1  6  1  0  0  0  0
  2  3  1  0  0  0  0
  3 18  1  0  0  0  0
  3  4  2  0  0  0  0
  4  9  1  0  0  0  0
  5  4  1  0  0  0  0
  5 10  1  0  0  0  0
  6  5  2  0  0  0  0
  7  1  1  0  0  0  0
  8  2  1  0  0  0  0
 11  6  1  0  0  0  0
 11 13  2  0  0  0  0
 12 11  2  0  0  0  0
 15 14  3  0  0  0  0
 16 19  1  0  0  0  0
 16 17  2  0  0  0  0
 18 16  1  0  0  0  0
 19 20  1  0  0  0  0
 19 21  1  0  0  0  0
 22 19  1  0  0  0  0
M  END
