Coordinates from ORCA-job 4-NO2-Ph-N2-OAc-B3LYPG-6-31G_dp-MTMO-d009-169-n750
 OpenBabel09051907563D

 22 21  0  0  0  0  0  0  0  0999 V2000
   15.7145    8.5867   -3.4845 C   0  0  0  0  0  0  0  0  0  0  0  0
   14.6699    7.6757   -3.4298 C   0  0  0  0  0  0  0  0  0  0  0  0
   14.8593    6.4225   -2.8303 C   0  0  0  0  0  0  0  0  0  0  0  0
   16.0970    6.0674   -2.2777 C   0  0  0  0  0  0  0  0  0  0  0  0
   17.1435    6.9860   -2.3351 C   0  0  0  0  0  0  0  0  0  0  0  0
   16.9448    8.2272   -2.9334 C   0  0  0  0  0  0  0  0  0  0  0  0
   15.5969    9.5609   -3.9410 H   0  0  0  0  0  0  0  0  0  0  0  0
   13.6972    7.9134   -3.8455 H   0  0  0  0  0  0  0  0  0  0  0  0
   16.2358    5.1003   -1.8212 H   0  0  0  0  0  0  0  0  0  0  0  0
   18.1145    6.7480   -1.9195 H   0  0  0  0  0  0  0  0  0  0  0  0
   18.0571    9.1831   -2.9873 N   0  0  0  0  0  0  0  0  0  0  0  0
   17.8463   10.2739   -3.5184 O   0  0  0  0  0  0  0  0  0  0  0  0
   19.1331    8.8377   -2.4996 O   0  0  0  0  0  0  0  0  0  0  0  0
    2.8620    3.1010    2.9308 N   0  0  0  0  0  0  0  0  0  0  0  0
    3.8028    3.3280    2.3969 N   0  0  0  0  0  0  0  0  0  0  0  0
   13.6378    4.3394   -2.3958 C   0  0  0  0  0  0  0  0  0  0  0  0
   14.5514    3.7116   -1.9214 O   0  0  0  0  0  0  0  0  0  0  0  0
   13.7204    5.6346   -2.8480 O   0  0  0  0  0  0  0  0  0  0  0  0
   12.2292    3.8394   -2.5904 C   0  0  0  0  0  0  0  0  0  0  0  0
   12.1621    2.8113   -2.2374 H   0  0  0  0  0  0  0  0  0  0  0  0
   11.5275    4.4710   -2.0383 H   0  0  0  0  0  0  0  0  0  0  0  0
   11.9544    3.8922   -3.6479 H   0  0  0  0  0  0  0  0  0  0  0  0
  1  2  2  0  0  0  0
  1  6  1  0  0  0  0
  2  3  1  0  0  0  0
  3  4  2  0  0  0  0
  4  9  1  0  0  0  0
  5  4  1  0  0  0  0
  5 10  1  0  0  0  0
  6  5  2  0  0  0  0
  7  1  1  0  0  0  0
  8  2  1  0  0  0  0
 11  6  1  0  0  0  0
 11 13  2  0  0  0  0
 12 11  2  0  0  0  0
 15 14  3  0  0  0  0
 16 17  2  0  0  0  0
 18  3  1  0  0  0  0
 18 16  1  0  0  0  0
 19 16  1  0  0  0  0
 19 20  1  0  0  0  0
 19 21  1  0  0  0  0
 22 19  1  0  0  0  0
M  END
