Coordinates from ORCA-job 4-NO2-Ph-N2-OAc-B3LYPG-6-31G_dp-MTMO-d009-169-n750
 OpenBabel09051907563D

 22 21  0  0  0  0  0  0  0  0999 V2000
   15.7842    8.6079   -3.5153 C   0  0  0  0  0  0  0  0  0  0  0  0
   14.7415    7.6947   -3.4626 C   0  0  0  0  0  0  0  0  0  0  0  0
   14.9332    6.4410   -2.8647 C   0  0  0  0  0  0  0  0  0  0  0  0
   16.1713    6.0878   -2.3118 C   0  0  0  0  0  0  0  0  0  0  0  0
   17.2158    7.0086   -2.3672 C   0  0  0  0  0  0  0  0  0  0  0  0
   17.0149    8.2503   -2.9638 C   0  0  0  0  0  0  0  0  0  0  0  0
   15.6648    9.5825   -3.9704 H   0  0  0  0  0  0  0  0  0  0  0  0
   13.7686    7.9308   -3.8786 H   0  0  0  0  0  0  0  0  0  0  0  0
   16.3118    5.1202   -1.8567 H   0  0  0  0  0  0  0  0  0  0  0  0
   18.1870    6.7722   -1.9512 H   0  0  0  0  0  0  0  0  0  0  0  0
   18.1252    9.2086   -3.0156 N   0  0  0  0  0  0  0  0  0  0  0  0
   17.9124   10.2998   -3.5452 O   0  0  0  0  0  0  0  0  0  0  0  0
   19.2015    8.8648   -2.5275 O   0  0  0  0  0  0  0  0  0  0  0  0
    2.1242    2.9122    3.2737 N   0  0  0  0  0  0  0  0  0  0  0  0
    3.0654    3.1366    2.7394 N   0  0  0  0  0  0  0  0  0  0  0  0
   13.7163    4.3540   -2.4356 C   0  0  0  0  0  0  0  0  0  0  0  0
   14.6317    3.7268   -1.9638 O   0  0  0  0  0  0  0  0  0  0  0  0
   13.7959    5.6508   -2.8841 O   0  0  0  0  0  0  0  0  0  0  0  0
   12.3086    3.8518   -2.6304 C   0  0  0  0  0  0  0  0  0  0  0  0
   12.2444    2.8220   -2.2817 H   0  0  0  0  0  0  0  0  0  0  0  0
   11.6064    4.4793   -2.0742 H   0  0  0  0  0  0  0  0  0  0  0  0
   12.0320    3.9087   -3.6871 H   0  0  0  0  0  0  0  0  0  0  0  0
  1  2  2  0  0  0  0
  1  6  1  0  0  0  0
  2  3  1  0  0  0  0
  3  4  2  0  0  0  0
  4  9  1  0  0  0  0
  5  4  1  0  0  0  0
  5 10  1  0  0  0  0
  6  5  2  0  0  0  0
  7  1  1  0  0  0  0
  8  2  1  0  0  0  0
 11  6  1  0  0  0  0
 11 13  2  0  0  0  0
 12 11  2  0  0  0  0
 15 14  3  0  0  0  0
 16 17  2  0  0  0  0
 18  3  1  0  0  0  0
 18 16  1  0  0  0  0
 19 16  1  0  0  0  0
 19 20  1  0  0  0  0
 19 21  1  0  0  0  0
 22 19  1  0  0  0  0
M  END
