Coordinates from ORCA-job 4-NO2-Ph-N2-OAc-B3LYPG-6-31G_dp-MTMO-d009-169-n750
 OpenBabel09051907563D

 22 21  0  0  0  0  0  0  0  0999 V2000
   15.4183    8.4868   -3.3582 C   0  0  0  0  0  0  0  0  0  0  0  0
   14.3353    7.6305   -3.2254 C   0  0  0  0  0  0  0  0  0  0  0  0
   14.4977    6.3794   -2.6137 C   0  0  0  0  0  0  0  0  0  0  0  0
   15.7470    5.9716   -2.1274 C   0  0  0  0  0  0  0  0  0  0  0  0
   16.8321    6.8353   -2.2632 C   0  0  0  0  0  0  0  0  0  0  0  0
   16.6598    8.0751   -2.8726 C   0  0  0  0  0  0  0  0  0  0  0  0
   15.3219    9.4582   -3.8256 H   0  0  0  0  0  0  0  0  0  0  0  0
   13.3526    7.9100   -3.5884 H   0  0  0  0  0  0  0  0  0  0  0  0
   15.8648    5.0060   -1.6620 H   0  0  0  0  0  0  0  0  0  0  0  0
   17.8129    6.5557   -1.8997 H   0  0  0  0  0  0  0  0  0  0  0  0
   17.8125    8.9732   -3.0087 N   0  0  0  0  0  0  0  0  0  0  0  0
   17.6250   10.0641   -3.5483 O   0  0  0  0  0  0  0  0  0  0  0  0
   18.8967    8.5827   -2.5762 O   0  0  0  0  0  0  0  0  0  0  0  0
    6.4057    3.6839    0.9726 N   0  0  0  0  0  0  0  0  0  0  0  0
    7.3482    3.9371    0.4538 N   0  0  0  0  0  0  0  0  0  0  0  0
   13.2054    4.3635   -2.0791 C   0  0  0  0  0  0  0  0  0  0  0  0
   14.1177    3.6919   -1.6659 O   0  0  0  0  0  0  0  0  0  0  0  0
   13.3218    5.6508   -2.5467 O   0  0  0  0  0  0  0  0  0  0  0  0
   11.7627    3.9364   -2.1673 C   0  0  0  0  0  0  0  0  0  0  0  0
   11.6725    2.9070   -1.8228 H   0  0  0  0  0  0  0  0  0  0  0  0
   11.1394    4.5913   -1.5516 H   0  0  0  0  0  0  0  0  0  0  0  0
   11.4070    4.0207   -3.1982 H   0  0  0  0  0  0  0  0  0  0  0  0
  1  2  2  0  0  0  0
  1  6  1  0  0  0  0
  2  3  1  0  0  0  0
  3 18  1  0  0  0  0
  3  4  2  0  0  0  0
  4  9  1  0  0  0  0
  5  4  1  0  0  0  0
  5 10  1  0  0  0  0
  6  5  2  0  0  0  0
  7  1  1  0  0  0  0
  8  2  1  0  0  0  0
 11  6  1  0  0  0  0
 11 13  2  0  0  0  0
 12 11  2  0  0  0  0
 15 14  3  0  0  0  0
 16 17  2  0  0  0  0
 18 16  1  0  0  0  0
 19 16  1  0  0  0  0
 19 20  1  0  0  0  0
 19 21  1  0  0  0  0
 22 19  1  0  0  0  0
M  END
