Coordinates from ORCA-job 4-NO2-Ph-N2-OAc-B3LYPG-6-31G_dp-MTMO-d009-169-n750
 OpenBabel09051907553D

 22 20  0  0  0  0  0  0  0  0999 V2000
   15.6202    9.0761   -2.6603 C   0  0  0  0  0  0  0  0  0  0  0  0
   14.2923    9.0458   -2.1995 C   0  0  0  0  0  0  0  0  0  0  0  0
   13.9364    7.7366   -2.0043 C   0  0  0  0  0  0  0  0  0  0  0  0
   14.4908    6.6098   -2.1332 C   0  0  0  0  0  0  0  0  0  0  0  0
   15.8171    6.5983   -2.5883 C   0  0  0  0  0  0  0  0  0  0  0  0
   16.3402    7.8799   -2.8413 C   0  0  0  0  0  0  0  0  0  0  0  0
   16.1060   10.0182   -2.8833 H   0  0  0  0  0  0  0  0  0  0  0  0
   13.6865    9.9282   -2.0395 H   0  0  0  0  0  0  0  0  0  0  0  0
   13.6713    4.7718   -1.7973 H   0  0  0  0  0  0  0  0  0  0  0  0
   16.4227    5.7143   -2.7469 H   0  0  0  0  0  0  0  0  0  0  0  0
   17.7307    7.9801   -3.3265 N   0  0  0  0  0  0  0  0  0  0  0  0
   18.1835    9.1033   -3.5432 O   0  0  0  0  0  0  0  0  0  0  0  0
   18.3511    6.9309   -3.4840 O   0  0  0  0  0  0  0  0  0  0  0  0
   11.7428    7.8513   -1.2234 N   0  0  0  0  0  0  0  0  0  0  0  0
   10.9251    7.2134   -0.8390 N   0  0  0  0  0  0  0  0  0  0  0  0
   12.1103    3.7168   -1.9967 C   0  0  0  0  0  0  0  0  0  0  0  0
   13.4300    3.8178   -1.7445 O   0  0  0  0  0  0  0  0  0  0  0  0
   11.3958    4.6761   -2.2066 O   0  0  0  0  0  0  0  0  0  0  0  0
   11.6519    2.2781   -1.9830 C   0  0  0  0  0  0  0  0  0  0  0  0
   11.8902    1.8195   -1.0185 H   0  0  0  0  0  0  0  0  0  0  0  0
   10.5784    2.2345   -2.1637 H   0  0  0  0  0  0  0  0  0  0  0  0
   12.1841    1.7103   -2.7519 H   0  0  0  0  0  0  0  0  0  0  0  0
  1  2  1  0  0  0  0
  2  8  1  0  0  0  0
  2  3  2  0  0  0  0
  4  3  1  0  0  0  0
  5  4  2  0  0  0  0
  6  1  2  0  0  0  0
  6  5  1  0  0  0  0
  7  1  1  0  0  0  0
  9 17  1  0  0  0  0
 10  5  1  0  0  0  0
 11  6  1  0  0  0  0
 12 11  2  0  0  0  0
 13 11  2  0  0  0  0
 14 15  3  0  0  0  0
 16 19  1  0  0  0  0
 16 17  1  0  0  0  0
 18 16  2  0  0  0  0
 19 20  1  0  0  0  0
 21 19  1  0  0  0  0
 22 19  1  0  0  0  0
M  RAD  2   3   2   4   2
M  END
