Coordinates from ORCA-job 4-NO2-Ph-N2-OAc-B3LYPG-6-31G_dp-MTMO-d009-169-n750
 OpenBabel09051907563D

 22 21  0  0  0  0  0  0  0  0999 V2000
   15.4534    8.5010   -3.3702 C   0  0  0  0  0  0  0  0  0  0  0  0
   14.3731    7.6408   -3.2397 C   0  0  0  0  0  0  0  0  0  0  0  0
   14.5395    6.3888   -2.6309 C   0  0  0  0  0  0  0  0  0  0  0  0
   15.7899    5.9841   -2.1449 C   0  0  0  0  0  0  0  0  0  0  0  0
   16.8722    6.8517   -2.2782 C   0  0  0  0  0  0  0  0  0  0  0  0
   16.6960    8.0923   -2.8849 C   0  0  0  0  0  0  0  0  0  0  0  0
   15.3541    9.4731   -3.8354 H   0  0  0  0  0  0  0  0  0  0  0  0
   13.3897    7.9179   -3.6025 H   0  0  0  0  0  0  0  0  0  0  0  0
   15.9108    5.0177   -1.6818 H   0  0  0  0  0  0  0  0  0  0  0  0
   17.8537    6.5746   -1.9149 H   0  0  0  0  0  0  0  0  0  0  0  0
   17.8459    8.9944   -3.0184 N   0  0  0  0  0  0  0  0  0  0  0  0
   17.6550   10.0859   -3.5556 O   0  0  0  0  0  0  0  0  0  0  0  0
   18.9311    8.6066   -2.5864 O   0  0  0  0  0  0  0  0  0  0  0  0
    5.9881    3.5916    1.1650 N   0  0  0  0  0  0  0  0  0  0  0  0
    6.9259    3.8339    0.6326 N   0  0  0  0  0  0  0  0  0  0  0  0
   13.2553    4.3649   -2.1078 C   0  0  0  0  0  0  0  0  0  0  0  0
   14.1712    3.6926   -1.7042 O   0  0  0  0  0  0  0  0  0  0  0  0
   13.3658    5.6566   -2.5649 O   0  0  0  0  0  0  0  0  0  0  0  0
   11.8137    3.9339   -2.1950 C   0  0  0  0  0  0  0  0  0  0  0  0
   11.7255    2.9060   -1.8458 H   0  0  0  0  0  0  0  0  0  0  0  0
   11.1879    4.5909   -1.5841 H   0  0  0  0  0  0  0  0  0  0  0  0
   11.4594    4.0118   -3.2269 H   0  0  0  0  0  0  0  0  0  0  0  0
  1  2  2  0  0  0  0
  1  6  1  0  0  0  0
  2  3  1  0  0  0  0
  3 18  1  0  0  0  0
  3  4  2  0  0  0  0
  4  9  1  0  0  0  0
  5  4  1  0  0  0  0
  5 10  1  0  0  0  0
  6  5  2  0  0  0  0
  7  1  1  0  0  0  0
  8  2  1  0  0  0  0
 11  6  1  0  0  0  0
 11 13  2  0  0  0  0
 12 11  2  0  0  0  0
 15 14  3  0  0  0  0
 16 17  2  0  0  0  0
 18 16  1  0  0  0  0
 19 16  1  0  0  0  0
 19 20  1  0  0  0  0
 19 21  1  0  0  0  0
 22 19  1  0  0  0  0
M  END
