Coordinates from ORCA-job 4-NO2-Ph-N2-OAc-B3LYPG-6-31G_dp-MTMO-d009-169-n750
 OpenBabel09051907563D

 22 21  0  0  0  0  0  0  0  0999 V2000
   15.4608    8.5039   -3.3728 C   0  0  0  0  0  0  0  0  0  0  0  0
   14.3811    7.6429   -3.2429 C   0  0  0  0  0  0  0  0  0  0  0  0
   14.5481    6.3908   -2.6345 C   0  0  0  0  0  0  0  0  0  0  0  0
   15.7987    5.9868   -2.1484 C   0  0  0  0  0  0  0  0  0  0  0  0
   16.8805    6.8551   -2.2812 C   0  0  0  0  0  0  0  0  0  0  0  0
   16.7036    8.0958   -2.8874 C   0  0  0  0  0  0  0  0  0  0  0  0
   15.3609    9.4761   -3.8377 H   0  0  0  0  0  0  0  0  0  0  0  0
   13.3976    7.9195   -3.6058 H   0  0  0  0  0  0  0  0  0  0  0  0
   15.9202    5.0202   -1.6858 H   0  0  0  0  0  0  0  0  0  0  0  0
   17.8622    6.5785   -1.9177 H   0  0  0  0  0  0  0  0  0  0  0  0
   17.8528    8.9988   -3.0204 N   0  0  0  0  0  0  0  0  0  0  0  0
   17.6613   10.0904   -3.5572 O   0  0  0  0  0  0  0  0  0  0  0  0
   18.9383    8.6115   -2.5882 O   0  0  0  0  0  0  0  0  0  0  0  0
    5.9012    3.5719    1.2046 N   0  0  0  0  0  0  0  0  0  0  0  0
    6.8386    3.8127    0.6709 N   0  0  0  0  0  0  0  0  0  0  0  0
   13.2655    4.3653   -2.1136 C   0  0  0  0  0  0  0  0  0  0  0  0
   14.1821    3.6931   -1.7113 O   0  0  0  0  0  0  0  0  0  0  0  0
   13.3750    5.6577   -2.5690 O   0  0  0  0  0  0  0  0  0  0  0  0
   11.8242    3.9335   -2.2010 C   0  0  0  0  0  0  0  0  0  0  0  0
   11.7366    2.9055   -1.8517 H   0  0  0  0  0  0  0  0  0  0  0  0
   11.1979    4.5903   -1.5904 H   0  0  0  0  0  0  0  0  0  0  0  0
   11.4702    4.0108   -3.2331 H   0  0  0  0  0  0  0  0  0  0  0  0
  1  2  2  0  0  0  0
  1  6  1  0  0  0  0
  2  3  1  0  0  0  0
  3 18  1  0  0  0  0
  3  4  2  0  0  0  0
  4  9  1  0  0  0  0
  5  4  1  0  0  0  0
  5 10  1  0  0  0  0
  6  5  2  0  0  0  0
  7  1  1  0  0  0  0
  8  2  1  0  0  0  0
 11  6  1  0  0  0  0
 11 13  2  0  0  0  0
 12 11  2  0  0  0  0
 15 14  3  0  0  0  0
 16 17  2  0  0  0  0
 18 16  1  0  0  0  0
 19 16  1  0  0  0  0
 19 20  1  0  0  0  0
 19 21  1  0  0  0  0
 22 19  1  0  0  0  0
M  END
