Coordinates from ORCA-job 4-NO2-Ph-N2-OAc-B3LYPG-6-31G_dp-MTMO-d009-169-n750
 OpenBabel09051907563D

 22 21  0  0  0  0  0  0  0  0999 V2000
   15.3049    8.4409   -3.3234 C   0  0  0  0  0  0  0  0  0  0  0  0
   14.2296    7.5715   -3.2158 C   0  0  0  0  0  0  0  0  0  0  0  0
   14.3917    6.3241   -2.5962 C   0  0  0  0  0  0  0  0  0  0  0  0
   15.6330    5.9335   -2.0764 C   0  0  0  0  0  0  0  0  0  0  0  0
   16.7105    6.8104   -2.1871 C   0  0  0  0  0  0  0  0  0  0  0  0
   16.5386    8.0462   -2.8047 C   0  0  0  0  0  0  0  0  0  0  0  0
   15.2086    9.4097   -3.7962 H   0  0  0  0  0  0  0  0  0  0  0  0
   13.2533    7.8374   -3.6052 H   0  0  0  0  0  0  0  0  0  0  0  0
   15.7505    4.9711   -1.6043 H   0  0  0  0  0  0  0  0  0  0  0  0
   17.6851    6.5441   -1.7979 H   0  0  0  0  0  0  0  0  0  0  0  0
   17.6832    8.9579   -2.9146 N   0  0  0  0  0  0  0  0  0  0  0  0
   17.4959   10.0450   -3.4619 O   0  0  0  0  0  0  0  0  0  0  0  0
   18.7611    8.5820   -2.4542 O   0  0  0  0  0  0  0  0  0  0  0  0
    7.4941    4.2113    0.6922 N   0  0  0  0  0  0  0  0  0  0  0  0
    8.4358    4.4129    0.1499 N   0  0  0  0  0  0  0  0  0  0  0  0
   13.1073    4.2991   -2.0756 C   0  0  0  0  0  0  0  0  0  0  0  0
   14.0120    3.6495   -1.6131 O   0  0  0  0  0  0  0  0  0  0  0  0
   13.2242    5.5798   -2.5615 O   0  0  0  0  0  0  0  0  0  0  0  0
   11.6754    3.8485   -2.2092 C   0  0  0  0  0  0  0  0  0  0  0  0
   11.6052    2.7973   -1.9319 H   0  0  0  0  0  0  0  0  0  0  0  0
   11.0324    4.4437   -1.5535 H   0  0  0  0  0  0  0  0  0  0  0  0
   11.3244    3.9952   -3.2342 H   0  0  0  0  0  0  0  0  0  0  0  0
  1  2  2  0  0  0  0
  1  6  1  0  0  0  0
  2  3  1  0  0  0  0
  3 18  1  0  0  0  0
  3  4  2  0  0  0  0
  4  9  1  0  0  0  0
  5  4  1  0  0  0  0
  5 10  1  0  0  0  0
  6  5  2  0  0  0  0
  7  1  1  0  0  0  0
  8  2  1  0  0  0  0
 11  6  1  0  0  0  0
 11 13  2  0  0  0  0
 12 11  2  0  0  0  0
 15 14  3  0  0  0  0
 16 17  2  0  0  0  0
 18 16  1  0  0  0  0
 19 16  1  0  0  0  0
 19 20  1  0  0  0  0
 19 21  1  0  0  0  0
 22 19  1  0  0  0  0
M  END
