Coordinates from ORCA-job 4-NO2-Ph-N2-OAc-B3LYPG-6-31G_dp-MTMO-d009-169-n750
 OpenBabel09051907563D

 22 21  0  0  0  0  0  0  0  0999 V2000
   15.1549    8.1312   -3.4109 C   0  0  0  0  0  0  0  0  0  0  0  0
   14.0399    7.3268   -3.2282 C   0  0  0  0  0  0  0  0  0  0  0  0
   14.1663    6.0791   -2.6008 C   0  0  0  0  0  0  0  0  0  0  0  0
   15.4119    5.6235   -2.1485 C   0  0  0  0  0  0  0  0  0  0  0  0
   16.5294    6.4350   -2.3342 C   0  0  0  0  0  0  0  0  0  0  0  0
   16.3924    7.6718   -2.9588 C   0  0  0  0  0  0  0  0  0  0  0  0
   15.0865    9.0985   -3.8914 H   0  0  0  0  0  0  0  0  0  0  0  0
   13.0592    7.6446   -3.5641 H   0  0  0  0  0  0  0  0  0  0  0  0
   15.5024    4.6601   -1.6723 H   0  0  0  0  0  0  0  0  0  0  0  0
   17.5083    6.1172   -1.9980 H   0  0  0  0  0  0  0  0  0  0  0  0
   17.5786    8.5149   -3.1475 N   0  0  0  0  0  0  0  0  0  0  0  0
   17.4218    9.6042   -3.6999 O   0  0  0  0  0  0  0  0  0  0  0  0
   18.6580    8.0833   -2.7430 O   0  0  0  0  0  0  0  0  0  0  0  0
   10.0444    7.4260    1.0423 N   0  0  0  0  0  0  0  0  0  0  0  0
   10.2251    6.5246    0.4293 N   0  0  0  0  0  0  0  0  0  0  0  0
   12.8087    4.1225   -2.0119 C   0  0  0  0  0  0  0  0  0  0  0  0
   13.7092    3.4069   -1.6503 O   0  0  0  0  0  0  0  0  0  0  0  0
   12.9621    5.4072   -2.4791 O   0  0  0  0  0  0  0  0  0  0  0  0
   11.3447    3.7671   -2.0241 C   0  0  0  0  0  0  0  0  0  0  0  0
   11.2241    2.7355   -1.6957 H   0  0  0  0  0  0  0  0  0  0  0  0
   10.7955    4.4388   -1.3579 H   0  0  0  0  0  0  0  0  0  0  0  0
   10.9337    3.8925   -3.0299 H   0  0  0  0  0  0  0  0  0  0  0  0
  1  2  2  0  0  0  0
  1  6  1  0  0  0  0
  2  3  1  0  0  0  0
  3 18  1  0  0  0  0
  3  4  2  0  0  0  0
  4  9  1  0  0  0  0
  5  4  1  0  0  0  0
  5 10  1  0  0  0  0
  6  5  2  0  0  0  0
  7  1  1  0  0  0  0
  8  2  1  0  0  0  0
 11  6  1  0  0  0  0
 11 13  2  0  0  0  0
 12 11  2  0  0  0  0
 15 14  3  0  0  0  0
 16 17  2  0  0  0  0
 18 16  1  0  0  0  0
 19 16  1  0  0  0  0
 19 20  1  0  0  0  0
 19 21  1  0  0  0  0
 22 19  1  0  0  0  0
M  END
