Coordinates from ORCA-job 4-NO2-Ph-N2-OAc-B3LYPG-6-31G_dp-MTMO-d009-169-n750
 OpenBabel09051907563D

 22 21  0  0  0  0  0  0  0  0999 V2000
   15.9324    8.6498   -3.5830 C   0  0  0  0  0  0  0  0  0  0  0  0
   14.8897    7.7366   -3.5290 C   0  0  0  0  0  0  0  0  0  0  0  0
   15.0821    6.4828   -2.9317 C   0  0  0  0  0  0  0  0  0  0  0  0
   16.3210    6.1293   -2.3806 C   0  0  0  0  0  0  0  0  0  0  0  0
   17.3655    7.0500   -2.4373 C   0  0  0  0  0  0  0  0  0  0  0  0
   17.1639    8.2919   -3.0334 C   0  0  0  0  0  0  0  0  0  0  0  0
   15.8126    9.6245   -4.0378 H   0  0  0  0  0  0  0  0  0  0  0  0
   13.9162    7.9730   -3.9435 H   0  0  0  0  0  0  0  0  0  0  0  0
   16.4621    5.1616   -1.9260 H   0  0  0  0  0  0  0  0  0  0  0  0
   18.3373    6.8134   -2.0227 H   0  0  0  0  0  0  0  0  0  0  0  0
   18.2742    9.2501   -3.0865 N   0  0  0  0  0  0  0  0  0  0  0  0
   18.0608   10.3414   -3.6155 O   0  0  0  0  0  0  0  0  0  0  0  0
   19.3512    8.9061   -2.6000 O   0  0  0  0  0  0  0  0  0  0  0  0
    0.6317    2.4956    3.9489 N   0  0  0  0  0  0  0  0  0  0  0  0
    1.5748    2.7208    3.4183 N   0  0  0  0  0  0  0  0  0  0  0  0
   13.8664    4.3950   -2.5037 C   0  0  0  0  0  0  0  0  0  0  0  0
   14.7835    3.7663   -2.0372 O   0  0  0  0  0  0  0  0  0  0  0  0
   13.9445    5.6929   -2.9489 O   0  0  0  0  0  0  0  0  0  0  0  0
   12.4577    3.8937   -2.6941 C   0  0  0  0  0  0  0  0  0  0  0  0
   12.3947    2.8629   -2.3480 H   0  0  0  0  0  0  0  0  0  0  0  0
   11.7581    4.5199   -2.1333 H   0  0  0  0  0  0  0  0  0  0  0  0
   12.1767    3.9537   -3.7495 H   0  0  0  0  0  0  0  0  0  0  0  0
  1  2  2  0  0  0  0
  1  6  1  0  0  0  0
  2  3  1  0  0  0  0
  3  4  2  0  0  0  0
  4  9  1  0  0  0  0
  5  4  1  0  0  0  0
  5 10  1  0  0  0  0
  6  5  2  0  0  0  0
  7  1  1  0  0  0  0
  8  2  1  0  0  0  0
 11  6  1  0  0  0  0
 11 13  2  0  0  0  0
 12 11  2  0  0  0  0
 15 14  3  0  0  0  0
 16 17  2  0  0  0  0
 18  3  1  0  0  0  0
 18 16  1  0  0  0  0
 19 16  1  0  0  0  0
 19 20  1  0  0  0  0
 19 21  1  0  0  0  0
 22 19  1  0  0  0  0
M  END
