Coordinates from ORCA-job 4-NO2-Ph-N2-OAc-B3LYPG-6-31G_dp-MTMO-d009-169-n750
 OpenBabel09051907553D

 22 20  0  0  0  0  0  0  0  0999 V2000
   15.6110    9.0228   -2.7161 C   0  0  0  0  0  0  0  0  0  0  0  0
   14.2879    8.8387   -2.2705 C   0  0  0  0  0  0  0  0  0  0  0  0
   14.0943    7.4961   -2.0572 C   0  0  0  0  0  0  0  0  0  0  0  0
   14.8124    6.4742   -2.1733 C   0  0  0  0  0  0  0  0  0  0  0  0
   16.1329    6.5875   -2.6074 C   0  0  0  0  0  0  0  0  0  0  0  0
   16.4833    7.9277   -2.8715 C   0  0  0  0  0  0  0  0  0  0  0  0
   15.9798   10.0152   -2.9470 H   0  0  0  0  0  0  0  0  0  0  0  0
   13.5803    9.6456   -2.1329 H   0  0  0  0  0  0  0  0  0  0  0  0
   13.7533    4.5905   -1.8344 H   0  0  0  0  0  0  0  0  0  0  0  0
   16.8458    5.7850   -2.7460 H   0  0  0  0  0  0  0  0  0  0  0  0
   17.8554    8.2001   -3.3424 N   0  0  0  0  0  0  0  0  0  0  0  0
   18.1624    9.3683   -3.5736 O   0  0  0  0  0  0  0  0  0  0  0  0
   18.6078    7.2368   -3.4738 O   0  0  0  0  0  0  0  0  0  0  0  0
   11.3945    7.7676   -1.0723 N   0  0  0  0  0  0  0  0  0  0  0  0
   10.5210    7.2607   -0.6243 N   0  0  0  0  0  0  0  0  0  0  0  0
   12.0849    3.7203   -1.9921 C   0  0  0  0  0  0  0  0  0  0  0  0
   13.4187    3.6712   -1.7860 O   0  0  0  0  0  0  0  0  0  0  0  0
   11.4822    4.7562   -2.1811 O   0  0  0  0  0  0  0  0  0  0  0  0
   11.4680    2.3435   -1.9526 C   0  0  0  0  0  0  0  0  0  0  0  0
   11.6550    1.8792   -0.9793 H   0  0  0  0  0  0  0  0  0  0  0  0
   10.3958    2.4193   -2.1301 H   0  0  0  0  0  0  0  0  0  0  0  0
   11.9305    1.7046   -2.7107 H   0  0  0  0  0  0  0  0  0  0  0  0
  1  2  1  0  0  0  0
  2  8  1  0  0  0  0
  2  3  2  0  0  0  0
  4  3  1  0  0  0  0
  5  4  2  0  0  0  0
  6  1  2  0  0  0  0
  6  5  1  0  0  0  0
  7  1  1  0  0  0  0
  9 17  1  0  0  0  0
 10  5  1  0  0  0  0
 11  6  1  0  0  0  0
 12 11  2  0  0  0  0
 13 11  2  0  0  0  0
 14 15  3  0  0  0  0
 16 19  1  0  0  0  0
 16 17  1  0  0  0  0
 18 16  2  0  0  0  0
 19 20  1  0  0  0  0
 21 19  1  0  0  0  0
 22 19  1  0  0  0  0
M  RAD  2   3   2   4   2
M  END
