Coordinates from ORCA-job 4-NO2-Ph-N2-OAc-B3LYPG-6-31G_dp-MTMO-d009-169-n750
 OpenBabel09051907563D

 22 21  0  0  0  0  0  0  0  0999 V2000
   15.5309    8.5301   -3.4046 C   0  0  0  0  0  0  0  0  0  0  0  0
   14.4842    7.6214   -3.3531 C   0  0  0  0  0  0  0  0  0  0  0  0
   14.6673    6.3701   -2.7475 C   0  0  0  0  0  0  0  0  0  0  0  0
   15.9008    6.0148   -2.1856 C   0  0  0  0  0  0  0  0  0  0  0  0
   16.9494    6.9311   -2.2400 C   0  0  0  0  0  0  0  0  0  0  0  0
   16.7570    8.1704   -2.8443 C   0  0  0  0  0  0  0  0  0  0  0  0
   15.4182    9.5028   -3.8656 H   0  0  0  0  0  0  0  0  0  0  0  0
   13.5147    7.8593   -3.7761 H   0  0  0  0  0  0  0  0  0  0  0  0
   16.0344    5.0495   -1.7239 H   0  0  0  0  0  0  0  0  0  0  0  0
   17.9173    6.6929   -1.8173 H   0  0  0  0  0  0  0  0  0  0  0  0
   17.8715    9.1238   -2.8951 N   0  0  0  0  0  0  0  0  0  0  0  0
   17.6662   10.2129   -3.4318 O   0  0  0  0  0  0  0  0  0  0  0  0
   18.9438    8.7782   -2.3993 O   0  0  0  0  0  0  0  0  0  0  0  0
    4.8016    3.6243    2.0871 N   0  0  0  0  0  0  0  0  0  0  0  0
    5.7216    3.8432    1.5150 N   0  0  0  0  0  0  0  0  0  0  0  0
   13.4350    4.2956   -2.3013 C   0  0  0  0  0  0  0  0  0  0  0  0
   14.3393    3.6741   -1.8013 O   0  0  0  0  0  0  0  0  0  0  0  0
   13.5276    5.5836   -2.7719 O   0  0  0  0  0  0  0  0  0  0  0  0
   12.0293    3.7945   -2.5131 C   0  0  0  0  0  0  0  0  0  0  0  0
   11.9538    2.7728   -2.1435 H   0  0  0  0  0  0  0  0  0  0  0  0
   11.3185    4.4367   -1.9854 H   0  0  0  0  0  0  0  0  0  0  0  0
   11.7746    3.8291   -3.5763 H   0  0  0  0  0  0  0  0  0  0  0  0
  1  2  2  0  0  0  0
  1  6  1  0  0  0  0
  2  3  1  0  0  0  0
  3  4  2  0  0  0  0
  4  9  1  0  0  0  0
  5  4  1  0  0  0  0
  5 10  1  0  0  0  0
  6  5  2  0  0  0  0
  7  1  1  0  0  0  0
  8  2  1  0  0  0  0
 11  6  1  0  0  0  0
 11 13  2  0  0  0  0
 12 11  2  0  0  0  0
 15 14  3  0  0  0  0
 16 17  2  0  0  0  0
 18  3  1  0  0  0  0
 18 16  1  0  0  0  0
 19 16  1  0  0  0  0
 19 20  1  0  0  0  0
 19 21  1  0  0  0  0
 22 19  1  0  0  0  0
M  END
