Coordinates from ORCA-job 4-NO2-Ph-N2-OAc-B3LYPG-6-31G_dp-MTMO-d009-169-n750
 OpenBabel09051907563D

 22 21  0  0  0  0  0  0  0  0999 V2000
   15.3287    8.4470   -3.3355 C   0  0  0  0  0  0  0  0  0  0  0  0
   14.2498    7.5827   -3.2226 C   0  0  0  0  0  0  0  0  0  0  0  0
   14.4079    6.3367   -2.5993 C   0  0  0  0  0  0  0  0  0  0  0  0
   15.6487    5.9423   -2.0811 C   0  0  0  0  0  0  0  0  0  0  0  0
   16.7297    6.8140   -2.1972 C   0  0  0  0  0  0  0  0  0  0  0  0
   16.5618    8.0485   -2.8185 C   0  0  0  0  0  0  0  0  0  0  0  0
   15.2355    9.4146   -3.8112 H   0  0  0  0  0  0  0  0  0  0  0  0
   13.2738    7.8516   -3.6105 H   0  0  0  0  0  0  0  0  0  0  0  0
   15.7630    4.9809   -1.6061 H   0  0  0  0  0  0  0  0  0  0  0  0
   17.7041    6.5447   -1.8094 H   0  0  0  0  0  0  0  0  0  0  0  0
   17.7102    8.9549   -2.9339 N   0  0  0  0  0  0  0  0  0  0  0  0
   17.5263   10.0410   -3.4844 O   0  0  0  0  0  0  0  0  0  0  0  0
   18.7874    8.5757   -2.4748 O   0  0  0  0  0  0  0  0  0  0  0  0
    7.3261    4.0881    0.7293 N   0  0  0  0  0  0  0  0  0  0  0  0
    8.2710    4.3175    0.2036 N   0  0  0  0  0  0  0  0  0  0  0  0
   13.1159    4.3188   -2.0697 C   0  0  0  0  0  0  0  0  0  0  0  0
   14.0187    3.6665   -1.6075 O   0  0  0  0  0  0  0  0  0  0  0  0
   13.2371    5.5977   -2.5591 O   0  0  0  0  0  0  0  0  0  0  0  0
   11.6818    3.8735   -2.1994 C   0  0  0  0  0  0  0  0  0  0  0  0
   11.6087    2.8225   -1.9220 H   0  0  0  0  0  0  0  0  0  0  0  0
   11.0425    4.4708   -1.5419 H   0  0  0  0  0  0  0  0  0  0  0  0
   11.3285    4.0215   -3.2234 H   0  0  0  0  0  0  0  0  0  0  0  0
  1  2  2  0  0  0  0
  1  6  1  0  0  0  0
  2  3  1  0  0  0  0
  3 18  1  0  0  0  0
  3  4  2  0  0  0  0
  4  9  1  0  0  0  0
  5  4  1  0  0  0  0
  5 10  1  0  0  0  0
  6  5  2  0  0  0  0
  7  1  1  0  0  0  0
  8  2  1  0  0  0  0
 11  6  1  0  0  0  0
 11 13  2  0  0  0  0
 12 11  2  0  0  0  0
 15 14  3  0  0  0  0
 16 17  2  0  0  0  0
 18 16  1  0  0  0  0
 19 16  1  0  0  0  0
 19 20  1  0  0  0  0
 19 21  1  0  0  0  0
 22 19  1  0  0  0  0
M  END
