Coordinates from ORCA-job 4-NO2-Ph-N2-OAc-B3LYPG-6-31G_dp-MTMO-d009-169-n750
 OpenBabel09051907563D

 22 21  0  0  0  0  0  0  0  0999 V2000
   15.6831    8.5773   -3.4706 C   0  0  0  0  0  0  0  0  0  0  0  0
   14.6381    7.6667   -3.4161 C   0  0  0  0  0  0  0  0  0  0  0  0
   14.8267    6.4137   -2.8158 C   0  0  0  0  0  0  0  0  0  0  0  0
   16.0640    6.0584   -2.2624 C   0  0  0  0  0  0  0  0  0  0  0  0
   17.1108    6.9766   -2.3196 C   0  0  0  0  0  0  0  0  0  0  0  0
   16.9129    8.2176   -2.9186 C   0  0  0  0  0  0  0  0  0  0  0  0
   15.5661    9.5513   -3.9277 H   0  0  0  0  0  0  0  0  0  0  0  0
   13.6658    7.9045   -3.8326 H   0  0  0  0  0  0  0  0  0  0  0  0
   16.2021    5.0915   -1.8052 H   0  0  0  0  0  0  0  0  0  0  0  0
   18.0815    6.7385   -1.9033 H   0  0  0  0  0  0  0  0  0  0  0  0
   18.0256    9.1730   -2.9724 N   0  0  0  0  0  0  0  0  0  0  0  0
   17.8155   10.2636   -3.5042 O   0  0  0  0  0  0  0  0  0  0  0  0
   19.1012    8.8275   -2.4839 O   0  0  0  0  0  0  0  0  0  0  0  0
    3.1889    3.1883    2.7829 N   0  0  0  0  0  0  0  0  0  0  0  0
    4.1292    3.4166    2.2488 N   0  0  0  0  0  0  0  0  0  0  0  0
   13.6037    4.3317   -2.3798 C   0  0  0  0  0  0  0  0  0  0  0  0
   14.5164    3.7045   -1.9027 O   0  0  0  0  0  0  0  0  0  0  0  0
   13.6876    5.6261   -2.8341 O   0  0  0  0  0  0  0  0  0  0  0  0
   12.1953    3.8319   -2.5760 C   0  0  0  0  0  0  0  0  0  0  0  0
   12.1272    2.8045   -2.2210 H   0  0  0  0  0  0  0  0  0  0  0  0
   11.4928    4.4649   -2.0264 H   0  0  0  0  0  0  0  0  0  0  0  0
   11.9225    3.8827   -3.6340 H   0  0  0  0  0  0  0  0  0  0  0  0
  1  2  2  0  0  0  0
  1  6  1  0  0  0  0
  2  3  1  0  0  0  0
  3  4  2  0  0  0  0
  4  9  1  0  0  0  0
  5  4  1  0  0  0  0
  5 10  1  0  0  0  0
  6  5  2  0  0  0  0
  7  1  1  0  0  0  0
  8  2  1  0  0  0  0
 11  6  1  0  0  0  0
 11 13  2  0  0  0  0
 12 11  2  0  0  0  0
 15 14  3  0  0  0  0
 16 17  2  0  0  0  0
 18  3  1  0  0  0  0
 18 16  1  0  0  0  0
 19 16  1  0  0  0  0
 19 20  1  0  0  0  0
 19 21  1  0  0  0  0
 22 19  1  0  0  0  0
M  END
