Coordinates from ORCA-job 4-NO2-Ph-N2-OAc-B3LYPG-6-31G_dp-MTMO-d009-169-n750
 OpenBabel09051907563D

 22 21  0  0  0  0  0  0  0  0999 V2000
   15.7545    8.5985   -3.5024 C   0  0  0  0  0  0  0  0  0  0  0  0
   14.7103    7.6871   -3.4476 C   0  0  0  0  0  0  0  0  0  0  0  0
   14.9004    6.4337   -2.8487 C   0  0  0  0  0  0  0  0  0  0  0  0
   16.1386    6.0789   -2.2968 C   0  0  0  0  0  0  0  0  0  0  0  0
   17.1846    6.9978   -2.3544 C   0  0  0  0  0  0  0  0  0  0  0  0
   16.9852    8.2392   -2.9521 C   0  0  0  0  0  0  0  0  0  0  0  0
   15.6363    9.5728   -3.9585 H   0  0  0  0  0  0  0  0  0  0  0  0
   13.7373    7.9246   -3.8628 H   0  0  0  0  0  0  0  0  0  0  0  0
   16.2779    5.1116   -1.8408 H   0  0  0  0  0  0  0  0  0  0  0  0
   18.1559    6.7601   -1.9393 H   0  0  0  0  0  0  0  0  0  0  0  0
   18.0971    9.1955   -3.0062 N   0  0  0  0  0  0  0  0  0  0  0  0
   17.8857   10.2865   -3.5367 O   0  0  0  0  0  0  0  0  0  0  0  0
   19.1735    8.8503   -2.5190 O   0  0  0  0  0  0  0  0  0  0  0  0
    2.4495    2.9894    3.1178 N   0  0  0  0  0  0  0  0  0  0  0  0
    3.3908    3.2153    2.5843 N   0  0  0  0  0  0  0  0  0  0  0  0
   13.6803    4.3495   -2.4157 C   0  0  0  0  0  0  0  0  0  0  0  0
   14.5949    3.7213   -1.9438 O   0  0  0  0  0  0  0  0  0  0  0  0
   13.7617    5.6455   -2.8659 O   0  0  0  0  0  0  0  0  0  0  0  0
   12.2715    3.8494   -2.6088 C   0  0  0  0  0  0  0  0  0  0  0  0
   12.2057    2.8203   -2.2582 H   0  0  0  0  0  0  0  0  0  0  0  0
   11.5707    4.4792   -2.0535 H   0  0  0  0  0  0  0  0  0  0  0  0
   11.9945    3.9048   -3.6655 H   0  0  0  0  0  0  0  0  0  0  0  0
  1  2  2  0  0  0  0
  1  6  1  0  0  0  0
  2  3  1  0  0  0  0
  3  4  2  0  0  0  0
  4  9  1  0  0  0  0
  5  4  1  0  0  0  0
  5 10  1  0  0  0  0
  6  5  2  0  0  0  0
  7  1  1  0  0  0  0
  8  2  1  0  0  0  0
 11  6  1  0  0  0  0
 11 13  2  0  0  0  0
 12 11  2  0  0  0  0
 15 14  3  0  0  0  0
 16 17  2  0  0  0  0
 18  3  1  0  0  0  0
 18 16  1  0  0  0  0
 19 16  1  0  0  0  0
 19 20  1  0  0  0  0
 19 21  1  0  0  0  0
 22 19  1  0  0  0  0
M  END
