Coordinates from ORCA-job 4-NO2-Ph-N2-OAc-B3LYPG-6-31G_dp-MTMO-d009-169-n750
 OpenBabel09051907553D

 22 22  0  0  0  0  0  0  0  0999 V2000
   15.1616    8.6659   -2.9968 C   0  0  0  0  0  0  0  0  0  0  0  0
   13.9681    8.5137   -2.3006 C   0  0  0  0  0  0  0  0  0  0  0  0
   13.7328    7.3327   -1.5852 C   0  0  0  0  0  0  0  0  0  0  0  0
   14.7056    6.3242   -1.5039 C   0  0  0  0  0  0  0  0  0  0  0  0
   15.9105    6.4917   -2.1755 C   0  0  0  0  0  0  0  0  0  0  0  0
   16.1151    7.6525   -2.9205 C   0  0  0  0  0  0  0  0  0  0  0  0
   15.3719    9.5544   -3.5782 H   0  0  0  0  0  0  0  0  0  0  0  0
   13.2120    9.2913   -2.3147 H   0  0  0  0  0  0  0  0  0  0  0  0
   14.5137    5.4399   -0.9059 H   0  0  0  0  0  0  0  0  0  0  0  0
   16.6890    5.7399   -2.1358 H   0  0  0  0  0  0  0  0  0  0  0  0
   17.3891    7.8204   -3.6406 N   0  0  0  0  0  0  0  0  0  0  0  0
   17.5424    8.8545   -4.2884 O   0  0  0  0  0  0  0  0  0  0  0  0
   18.2169    6.9160   -3.5486 O   0  0  0  0  0  0  0  0  0  0  0  0
   12.5612    7.2436   -0.8401 N   0  0  0  0  0  0  0  0  0  0  0  0
   11.7423    6.3652   -0.8204 N   0  0  0  0  0  0  0  0  0  0  0  0
   12.1570    4.0704   -1.4833 C   0  0  0  0  0  0  0  0  0  0  0  0
   12.5708    3.8633   -0.3618 O   0  0  0  0  0  0  0  0  0  0  0  0
   11.9487    5.3090   -1.9832 O   0  0  0  0  0  0  0  0  0  0  0  0
   11.8318    3.0081   -2.5099 C   0  0  0  0  0  0  0  0  0  0  0  0
   10.7447    2.9221   -2.6062 H   0  0  0  0  0  0  0  0  0  0  0  0
   12.2283    3.2793   -3.4916 H   0  0  0  0  0  0  0  0  0  0  0  0
   12.2439    2.0533   -2.1836 H   0  0  0  0  0  0  0  0  0  0  0  0
  1  6  2  0  0  0  0
  1  2  1  0  0  0  0
  2  3  2  0  0  0  0
  3  4  1  0  0  0  0
  3 14  1  0  0  0  0
  4  9  1  0  0  0  0
  5 10  1  0  0  0  0
  5  4  2  0  0  0  0
  6  5  1  0  0  0  0
  7  1  1  0  0  0  0
  8  2  1  0  0  0  0
 11 13  2  0  0  0  0
 11  6  1  0  0  0  0
 12 11  2  0  0  0  0
 14 15  1  0  0  0  0
 16 17  2  0  0  0  0
 18 16  1  0  0  0  0
 18 15  1  0  0  0  0
 19 22  1  0  0  0  0
 19 16  1  0  0  0  0
 20 19  1  0  0  0  0
 21 19  1  0  0  0  0
M  RAD  2  14   2  15   2
M  END
