Coordinates from ORCA-job 4-NO2-Ph-N2-OAc-B3LYPG-6-31G_dp-MTMO-d009-169-n750
 OpenBabel09051907563D

 22 21  0  0  0  0  0  0  0  0999 V2000
   15.6964    8.5812   -3.4766 C   0  0  0  0  0  0  0  0  0  0  0  0
   14.6516    7.6706   -3.4218 C   0  0  0  0  0  0  0  0  0  0  0  0
   14.8404    6.4175   -2.8218 C   0  0  0  0  0  0  0  0  0  0  0  0
   16.0779    6.0622   -2.2688 C   0  0  0  0  0  0  0  0  0  0  0  0
   17.1247    6.9804   -2.3263 C   0  0  0  0  0  0  0  0  0  0  0  0
   16.9265    8.2215   -2.9250 C   0  0  0  0  0  0  0  0  0  0  0  0
   15.5793    9.5553   -3.9334 H   0  0  0  0  0  0  0  0  0  0  0  0
   13.6791    7.9084   -3.8379 H   0  0  0  0  0  0  0  0  0  0  0  0
   16.2162    5.0953   -1.8119 H   0  0  0  0  0  0  0  0  0  0  0  0
   18.0955    6.7423   -1.9103 H   0  0  0  0  0  0  0  0  0  0  0  0
   18.0391    9.1770   -2.9790 N   0  0  0  0  0  0  0  0  0  0  0  0
   17.8288   10.2677   -3.5106 O   0  0  0  0  0  0  0  0  0  0  0  0
   19.1149    8.8314   -2.4910 O   0  0  0  0  0  0  0  0  0  0  0  0
    3.0512    3.1506    2.8446 N   0  0  0  0  0  0  0  0  0  0  0  0
    3.9917    3.3786    2.3107 N   0  0  0  0  0  0  0  0  0  0  0  0
   13.6179    4.3352   -2.3863 C   0  0  0  0  0  0  0  0  0  0  0  0
   14.5310    3.7076   -1.9105 O   0  0  0  0  0  0  0  0  0  0  0  0
   13.7013    5.6300   -2.8396 O   0  0  0  0  0  0  0  0  0  0  0  0
   12.2093    3.8355   -2.5816 C   0  0  0  0  0  0  0  0  0  0  0  0
   12.1416    2.8078   -2.2273 H   0  0  0  0  0  0  0  0  0  0  0  0
   11.5073    4.4680   -2.0309 H   0  0  0  0  0  0  0  0  0  0  0  0
   11.9356    3.8870   -3.6393 H   0  0  0  0  0  0  0  0  0  0  0  0
  1  2  2  0  0  0  0
  1  6  1  0  0  0  0
  2  3  1  0  0  0  0
  3  4  2  0  0  0  0
  4  9  1  0  0  0  0
  5  4  1  0  0  0  0
  5 10  1  0  0  0  0
  6  5  2  0  0  0  0
  7  1  1  0  0  0  0
  8  2  1  0  0  0  0
 11  6  1  0  0  0  0
 11 13  2  0  0  0  0
 12 11  2  0  0  0  0
 15 14  3  0  0  0  0
 16 17  2  0  0  0  0
 18  3  1  0  0  0  0
 18 16  1  0  0  0  0
 19 16  1  0  0  0  0
 19 20  1  0  0  0  0
 19 21  1  0  0  0  0
 22 19  1  0  0  0  0
M  END
