Coordinates from ORCA-job 4-NO2-Ph-N2-OAc-B3LYPG-6-31G_dp-MTMO-d009-169-n750
 OpenBabel09051907563D

 22 21  0  0  0  0  0  0  0  0999 V2000
   15.6797    8.5762   -3.4692 C   0  0  0  0  0  0  0  0  0  0  0  0
   14.6348    7.6657   -3.4148 C   0  0  0  0  0  0  0  0  0  0  0  0
   14.8233    6.4127   -2.8144 C   0  0  0  0  0  0  0  0  0  0  0  0
   16.0605    6.0575   -2.2607 C   0  0  0  0  0  0  0  0  0  0  0  0
   17.1073    6.9756   -2.3179 C   0  0  0  0  0  0  0  0  0  0  0  0
   16.9095    8.2166   -2.9170 C   0  0  0  0  0  0  0  0  0  0  0  0
   15.5629    9.5502   -3.9263 H   0  0  0  0  0  0  0  0  0  0  0  0
   13.6625    7.9034   -3.8314 H   0  0  0  0  0  0  0  0  0  0  0  0
   16.1985    5.0906   -1.8035 H   0  0  0  0  0  0  0  0  0  0  0  0
   18.0779    6.7376   -1.9013 H   0  0  0  0  0  0  0  0  0  0  0  0
   18.0222    9.1720   -2.9706 N   0  0  0  0  0  0  0  0  0  0  0  0
   17.8122   10.2626   -3.5025 O   0  0  0  0  0  0  0  0  0  0  0  0
   19.0977    8.8265   -2.4819 O   0  0  0  0  0  0  0  0  0  0  0  0
    3.2234    3.1978    2.7677 N   0  0  0  0  0  0  0  0  0  0  0  0
    4.1637    3.4262    2.2335 N   0  0  0  0  0  0  0  0  0  0  0  0
   13.6002    4.3308   -2.3782 C   0  0  0  0  0  0  0  0  0  0  0  0
   14.5127    3.7037   -1.9007 O   0  0  0  0  0  0  0  0  0  0  0  0
   13.6842    5.6251   -2.8329 O   0  0  0  0  0  0  0  0  0  0  0  0
   12.1918    3.8310   -2.5747 C   0  0  0  0  0  0  0  0  0  0  0  0
   12.1237    2.8036   -2.2197 H   0  0  0  0  0  0  0  0  0  0  0  0
   11.4892    4.4640   -2.0253 H   0  0  0  0  0  0  0  0  0  0  0  0
   11.9193    3.8817   -3.6328 H   0  0  0  0  0  0  0  0  0  0  0  0
  1  2  2  0  0  0  0
  1  6  1  0  0  0  0
  2  3  1  0  0  0  0
  3  4  2  0  0  0  0
  4  9  1  0  0  0  0
  5  4  1  0  0  0  0
  5 10  1  0  0  0  0
  6  5  2  0  0  0  0
  7  1  1  0  0  0  0
  8  2  1  0  0  0  0
 11  6  1  0  0  0  0
 11 13  2  0  0  0  0
 12 11  2  0  0  0  0
 15 14  3  0  0  0  0
 16 17  2  0  0  0  0
 18  3  1  0  0  0  0
 18 16  1  0  0  0  0
 19 16  1  0  0  0  0
 19 20  1  0  0  0  0
 19 21  1  0  0  0  0
 22 19  1  0  0  0  0
M  END
