Coordinates from ORCA-job 4-NO2-Ph-N2-OAc-B3LYPG-6-31G_dp-MTMO-d009-169-n750
 OpenBabel09051907563D

 22 21  0  0  0  0  0  0  0  0999 V2000
   15.4282    8.4911   -3.3613 C   0  0  0  0  0  0  0  0  0  0  0  0
   14.3460    7.6336   -3.2289 C   0  0  0  0  0  0  0  0  0  0  0  0
   14.5098    6.3821   -2.6182 C   0  0  0  0  0  0  0  0  0  0  0  0
   15.7596    5.9754   -2.1322 C   0  0  0  0  0  0  0  0  0  0  0  0
   16.8438    6.8403   -2.2675 C   0  0  0  0  0  0  0  0  0  0  0  0
   16.6702    8.0803   -2.8760 C   0  0  0  0  0  0  0  0  0  0  0  0
   15.3308    9.4627   -3.8280 H   0  0  0  0  0  0  0  0  0  0  0  0
   13.3631    7.9123   -3.5916 H   0  0  0  0  0  0  0  0  0  0  0  0
   15.8785    5.0095   -1.6676 H   0  0  0  0  0  0  0  0  0  0  0  0
   17.8249    6.5615   -1.9043 H   0  0  0  0  0  0  0  0  0  0  0  0
   17.8220    8.9796   -3.0116 N   0  0  0  0  0  0  0  0  0  0  0  0
   17.6332   10.0707   -3.5504 O   0  0  0  0  0  0  0  0  0  0  0  0
   18.9066    8.5900   -2.5795 O   0  0  0  0  0  0  0  0  0  0  0  0
    6.2834    3.6596    1.0303 N   0  0  0  0  0  0  0  0  0  0  0  0
    7.2236    3.9086    0.5053 N   0  0  0  0  0  0  0  0  0  0  0  0
   13.2206    4.3632   -2.0882 C   0  0  0  0  0  0  0  0  0  0  0  0
   14.1344    3.6910   -1.6796 O   0  0  0  0  0  0  0  0  0  0  0  0
   13.3346    5.6525   -2.5511 O   0  0  0  0  0  0  0  0  0  0  0  0
   11.7782    3.9347   -2.1758 C   0  0  0  0  0  0  0  0  0  0  0  0
   11.6887    2.9060   -1.8291 H   0  0  0  0  0  0  0  0  0  0  0  0
   11.1538    4.5907   -1.5623 H   0  0  0  0  0  0  0  0  0  0  0  0
   11.4232    4.0160   -3.2072 H   0  0  0  0  0  0  0  0  0  0  0  0
  1  2  2  0  0  0  0
  1  6  1  0  0  0  0
  2  3  1  0  0  0  0
  3 18  1  0  0  0  0
  3  4  2  0  0  0  0
  4  9  1  0  0  0  0
  5  4  1  0  0  0  0
  5 10  1  0  0  0  0
  6  5  2  0  0  0  0
  7  1  1  0  0  0  0
  8  2  1  0  0  0  0
 11  6  1  0  0  0  0
 11 13  2  0  0  0  0
 12 11  2  0  0  0  0
 15 14  3  0  0  0  0
 16 17  2  0  0  0  0
 18 16  1  0  0  0  0
 19 16  1  0  0  0  0
 19 20  1  0  0  0  0
 19 21  1  0  0  0  0
 22 19  1  0  0  0  0
M  END
