Coordinates from ORCA-job 4-NO2-Ph-N2-OAc-B3LYPG-6-31G_dp-MTMO-d009-169-n750
 OpenBabel09051907563D

 22 21  0  0  0  0  0  0  0  0999 V2000
   15.5122    8.5245   -3.3964 C   0  0  0  0  0  0  0  0  0  0  0  0
   14.4658    7.6154   -3.3462 C   0  0  0  0  0  0  0  0  0  0  0  0
   14.6485    6.3643   -2.7400 C   0  0  0  0  0  0  0  0  0  0  0  0
   15.8814    6.0096   -2.1764 C   0  0  0  0  0  0  0  0  0  0  0  0
   16.9297    6.9263   -2.2295 C   0  0  0  0  0  0  0  0  0  0  0  0
   16.7377    8.1654   -2.8343 C   0  0  0  0  0  0  0  0  0  0  0  0
   15.3997    9.4970   -3.8578 H   0  0  0  0  0  0  0  0  0  0  0  0
   13.4968    7.8527   -3.7706 H   0  0  0  0  0  0  0  0  0  0  0  0
   16.0147    5.0444   -1.7141 H   0  0  0  0  0  0  0  0  0  0  0  0
   17.8971    6.6885   -1.8054 H   0  0  0  0  0  0  0  0  0  0  0  0
   17.8519    9.1192   -2.8838 N   0  0  0  0  0  0  0  0  0  0  0  0
   17.6469   10.2081   -3.4210 O   0  0  0  0  0  0  0  0  0  0  0  0
   18.9236    8.7741   -2.3864 O   0  0  0  0  0  0  0  0  0  0  0  0
    4.9941    3.6835    2.0123 N   0  0  0  0  0  0  0  0  0  0  0  0
    5.9082    3.8962    1.4284 N   0  0  0  0  0  0  0  0  0  0  0  0
   13.4160    4.2899   -2.2937 C   0  0  0  0  0  0  0  0  0  0  0  0
   14.3191    3.6698   -1.7899 O   0  0  0  0  0  0  0  0  0  0  0  0
   13.5093    5.5772   -2.7663 O   0  0  0  0  0  0  0  0  0  0  0  0
   12.0112    3.7877   -2.5088 C   0  0  0  0  0  0  0  0  0  0  0  0
   11.9355    2.7663   -2.1385 H   0  0  0  0  0  0  0  0  0  0  0  0
   11.2985    4.4298   -1.9835 H   0  0  0  0  0  0  0  0  0  0  0  0
   11.7593    3.8212   -3.5727 H   0  0  0  0  0  0  0  0  0  0  0  0
  1  2  2  0  0  0  0
  1  6  1  0  0  0  0
  2  3  1  0  0  0  0
  3  4  2  0  0  0  0
  4  9  1  0  0  0  0
  5  4  1  0  0  0  0
  5 10  1  0  0  0  0
  6  5  2  0  0  0  0
  7  1  1  0  0  0  0
  8  2  1  0  0  0  0
 11  6  1  0  0  0  0
 11 13  2  0  0  0  0
 12 11  2  0  0  0  0
 15 14  3  0  0  0  0
 16 17  2  0  0  0  0
 18  3  1  0  0  0  0
 18 16  1  0  0  0  0
 19 16  1  0  0  0  0
 19 20  1  0  0  0  0
 19 21  1  0  0  0  0
 22 19  1  0  0  0  0
M  END
