Coordinates from ORCA-job 4-NO2-Ph-N2-OAc-B3LYPG-6-31G_dp-MTMO-d009-169-n750
 OpenBabel09051907563D

 22 21  0  0  0  0  0  0  0  0999 V2000
   15.8207    8.6180   -3.5321 C   0  0  0  0  0  0  0  0  0  0  0  0
   14.7775    7.7053   -3.4783 C   0  0  0  0  0  0  0  0  0  0  0  0
   14.9691    6.4516   -2.8804 C   0  0  0  0  0  0  0  0  0  0  0  0
   16.2075    6.0978   -2.3285 C   0  0  0  0  0  0  0  0  0  0  0  0
   17.2524    7.0181   -2.3850 C   0  0  0  0  0  0  0  0  0  0  0  0
   17.0517    8.2598   -2.9817 C   0  0  0  0  0  0  0  0  0  0  0  0
   15.7015    9.5926   -3.9873 H   0  0  0  0  0  0  0  0  0  0  0  0
   13.8044    7.9419   -3.8935 H   0  0  0  0  0  0  0  0  0  0  0  0
   16.3479    5.1303   -1.8733 H   0  0  0  0  0  0  0  0  0  0  0  0
   18.2239    6.7812   -1.9698 H   0  0  0  0  0  0  0  0  0  0  0  0
   18.1624    9.2174   -3.0346 N   0  0  0  0  0  0  0  0  0  0  0  0
   17.9498   10.3086   -3.5643 O   0  0  0  0  0  0  0  0  0  0  0  0
   19.2391    8.8731   -2.5475 O   0  0  0  0  0  0  0  0  0  0  0  0
    1.7636    2.8073    3.4339 N   0  0  0  0  0  0  0  0  0  0  0  0
    2.7054    3.0335    2.9014 N   0  0  0  0  0  0  0  0  0  0  0  0
   13.7517    4.3651   -2.4507 C   0  0  0  0  0  0  0  0  0  0  0  0
   14.6676    3.7369   -1.9810 O   0  0  0  0  0  0  0  0  0  0  0  0
   13.8312    5.6621   -2.8983 O   0  0  0  0  0  0  0  0  0  0  0  0
   12.3433    3.8638   -2.6434 C   0  0  0  0  0  0  0  0  0  0  0  0
   12.2791    2.8339   -2.2950 H   0  0  0  0  0  0  0  0  0  0  0  0
   11.6425    4.4916   -2.0858 H   0  0  0  0  0  0  0  0  0  0  0  0
   12.0650    3.9213   -3.6996 H   0  0  0  0  0  0  0  0  0  0  0  0
  1  2  2  0  0  0  0
  1  6  1  0  0  0  0
  2  3  1  0  0  0  0
  3  4  2  0  0  0  0
  4  9  1  0  0  0  0
  5  4  1  0  0  0  0
  5 10  1  0  0  0  0
  6  5  2  0  0  0  0
  7  1  1  0  0  0  0
  8  2  1  0  0  0  0
 11  6  1  0  0  0  0
 11 13  2  0  0  0  0
 12 11  2  0  0  0  0
 15 14  3  0  0  0  0
 16 17  2  0  0  0  0
 18  3  1  0  0  0  0
 18 16  1  0  0  0  0
 19 16  1  0  0  0  0
 19 20  1  0  0  0  0
 19 21  1  0  0  0  0
 22 19  1  0  0  0  0
M  END
