Coordinates from ORCA-job 4-NO2-Ph-N2-OAc-B3LYPG-6-31G_dp-MTMO-d009-169-n750
 OpenBabel09051907553D

 22 21  0  0  0  0  0  0  0  0999 V2000
   15.1144    8.1237   -3.4013 C   0  0  0  0  0  0  0  0  0  0  0  0
   14.0039    7.3101   -3.2317 C   0  0  0  0  0  0  0  0  0  0  0  0
   14.1314    6.0679   -2.5937 C   0  0  0  0  0  0  0  0  0  0  0  0
   15.3734    5.6270   -2.1174 C   0  0  0  0  0  0  0  0  0  0  0  0
   16.4862    6.4477   -2.2903 C   0  0  0  0  0  0  0  0  0  0  0  0
   16.3483    7.6788   -2.9256 C   0  0  0  0  0  0  0  0  0  0  0  0
   15.0450    9.0871   -3.8895 H   0  0  0  0  0  0  0  0  0  0  0  0
   13.0261    7.6163   -3.5861 H   0  0  0  0  0  0  0  0  0  0  0  0
   15.4647    4.6679   -1.6329 H   0  0  0  0  0  0  0  0  0  0  0  0
   17.4623    6.1413   -1.9358 H   0  0  0  0  0  0  0  0  0  0  0  0
   17.5297    8.5315   -3.1007 N   0  0  0  0  0  0  0  0  0  0  0  0
   17.3720    9.6159   -3.6626 O   0  0  0  0  0  0  0  0  0  0  0  0
   18.6064    8.1124   -2.6763 O   0  0  0  0  0  0  0  0  0  0  0  0
   10.3999    7.5182    0.9452 N   0  0  0  0  0  0  0  0  0  0  0  0
   10.5766    6.6132    0.3362 N   0  0  0  0  0  0  0  0  0  0  0  0
   12.7828    4.1015   -2.0172 C   0  0  0  0  0  0  0  0  0  0  0  0
   13.6832    3.3988   -1.6310 O   0  0  0  0  0  0  0  0  0  0  0  0
   12.9316    5.3853   -2.4882 O   0  0  0  0  0  0  0  0  0  0  0  0
   11.3239    3.7283   -2.0606 C   0  0  0  0  0  0  0  0  0  0  0  0
   11.2085    2.6960   -1.7325 H   0  0  0  0  0  0  0  0  0  0  0  0
   10.7536    4.3950   -1.4074 H   0  0  0  0  0  0  0  0  0  0  0  0
   10.9332    3.8472   -3.0752 H   0  0  0  0  0  0  0  0  0  0  0  0
  1  2  2  0  0  0  0
  1  6  1  0  0  0  0
  2  3  1  0  0  0  0
  3 18  1  0  0  0  0
  3  4  2  0  0  0  0
  4  9  1  0  0  0  0
  5  4  1  0  0  0  0
  5 10  1  0  0  0  0
  6  5  2  0  0  0  0
  7  1  1  0  0  0  0
  8  2  1  0  0  0  0
 11  6  1  0  0  0  0
 11 13  2  0  0  0  0
 12 11  2  0  0  0  0
 15 14  3  0  0  0  0
 16 17  2  0  0  0  0
 18 16  1  0  0  0  0
 19 16  1  0  0  0  0
 19 20  1  0  0  0  0
 19 21  1  0  0  0  0
 22 19  1  0  0  0  0
M  END
