Coordinates from ORCA-job 4-NO2-Ph-N2-OAc-B3LYPG-6-31G_dp-MTMO-d009-169-n750
 OpenBabel09051907553D

 22 20  0  0  0  0  0  0  0  0999 V2000
   15.5947    8.9825   -2.7116 C   0  0  0  0  0  0  0  0  0  0  0  0
   14.2762    8.7184   -2.2930 C   0  0  0  0  0  0  0  0  0  0  0  0
   14.1518    7.3629   -2.1052 C   0  0  0  0  0  0  0  0  0  0  0  0
   14.9320    6.3895   -2.2287 C   0  0  0  0  0  0  0  0  0  0  0  0
   16.2509    6.5781   -2.6365 C   0  0  0  0  0  0  0  0  0  0  0  0
   16.5296    7.9407   -2.8708 C   0  0  0  0  0  0  0  0  0  0  0  0
   15.9116    9.9980   -2.9182 H   0  0  0  0  0  0  0  0  0  0  0  0
   13.5233    9.4828   -2.1540 H   0  0  0  0  0  0  0  0  0  0  0  0
   13.8089    4.4941   -1.9345 H   0  0  0  0  0  0  0  0  0  0  0  0
   17.0090    5.8186   -2.7769 H   0  0  0  0  0  0  0  0  0  0  0  0
   17.8919    8.2972   -3.3127 N   0  0  0  0  0  0  0  0  0  0  0  0
   18.1369    9.4845   -3.5197 O   0  0  0  0  0  0  0  0  0  0  0  0
   18.6992    7.3796   -3.4462 O   0  0  0  0  0  0  0  0  0  0  0  0
   11.2907    7.7968   -1.1181 N   0  0  0  0  0  0  0  0  0  0  0  0
   10.3589    7.3982   -0.6785 N   0  0  0  0  0  0  0  0  0  0  0  0
   12.0884    3.7181   -1.9417 C   0  0  0  0  0  0  0  0  0  0  0  0
   13.4323    3.5913   -1.9045 O   0  0  0  0  0  0  0  0  0  0  0  0
   11.5263    4.7924   -1.9912 O   0  0  0  0  0  0  0  0  0  0  0  0
   11.4042    2.3736   -1.9135 C   0  0  0  0  0  0  0  0  0  0  0  0
   11.6918    1.8269   -1.0100 H   0  0  0  0  0  0  0  0  0  0  0  0
   10.3240    2.5134   -1.9382 H   0  0  0  0  0  0  0  0  0  0  0  0
   11.7246    1.7737   -2.7710 H   0  0  0  0  0  0  0  0  0  0  0  0
  1  2  1  0  0  0  0
  2  8  1  0  0  0  0
  2  3  2  0  0  0  0
  4  3  1  0  0  0  0
  5  4  2  0  0  0  0
  6  1  2  0  0  0  0
  6  5  1  0  0  0  0
  7  1  1  0  0  0  0
  9 17  1  0  0  0  0
 10  5  1  0  0  0  0
 11  6  1  0  0  0  0
 12 11  2  0  0  0  0
 13 11  2  0  0  0  0
 14 15  3  0  0  0  0
 16 19  1  0  0  0  0
 16 17  1  0  0  0  0
 18 16  2  0  0  0  0
 19 20  1  0  0  0  0
 21 19  1  0  0  0  0
 22 19  1  0  0  0  0
M  RAD  2   3   2   4   2
M  END
