Coordinates from ORCA-job 4-NO2-Ph-N2-OAc-B3LYPG-6-31G_dp-MTMO-d009-169-n750
 OpenBabel09051907563D

 22 21  0  0  0  0  0  0  0  0999 V2000
   15.7911    8.6098   -3.5185 C   0  0  0  0  0  0  0  0  0  0  0  0
   14.7484    7.6967   -3.4657 C   0  0  0  0  0  0  0  0  0  0  0  0
   14.9400    6.4430   -2.8678 C   0  0  0  0  0  0  0  0  0  0  0  0
   16.1782    6.0897   -2.3150 C   0  0  0  0  0  0  0  0  0  0  0  0
   17.2228    7.0104   -2.3705 C   0  0  0  0  0  0  0  0  0  0  0  0
   17.0219    8.2521   -2.9672 C   0  0  0  0  0  0  0  0  0  0  0  0
   15.6718    9.5844   -3.9737 H   0  0  0  0  0  0  0  0  0  0  0  0
   13.7755    7.9329   -3.8816 H   0  0  0  0  0  0  0  0  0  0  0  0
   16.3187    5.1222   -1.8598 H   0  0  0  0  0  0  0  0  0  0  0  0
   18.1940    6.7739   -1.9546 H   0  0  0  0  0  0  0  0  0  0  0  0
   18.1322    9.2103   -3.0191 N   0  0  0  0  0  0  0  0  0  0  0  0
   17.9195   10.3015   -3.5487 O   0  0  0  0  0  0  0  0  0  0  0  0
   19.2086    8.8665   -2.5311 O   0  0  0  0  0  0  0  0  0  0  0  0
    2.0556    2.8922    3.3044 N   0  0  0  0  0  0  0  0  0  0  0  0
    2.9969    3.1171    2.7704 N   0  0  0  0  0  0  0  0  0  0  0  0
   13.7231    4.3561   -2.4386 C   0  0  0  0  0  0  0  0  0  0  0  0
   14.6386    3.7287   -1.9672 O   0  0  0  0  0  0  0  0  0  0  0  0
   13.8026    5.6529   -2.8869 O   0  0  0  0  0  0  0  0  0  0  0  0
   12.3152    3.8540   -2.6330 C   0  0  0  0  0  0  0  0  0  0  0  0
   12.2510    2.8242   -2.2843 H   0  0  0  0  0  0  0  0  0  0  0  0
   11.6133    4.4817   -2.0766 H   0  0  0  0  0  0  0  0  0  0  0  0
   12.0383    3.9110   -3.6896 H   0  0  0  0  0  0  0  0  0  0  0  0
  1  2  2  0  0  0  0
  1  6  1  0  0  0  0
  2  3  1  0  0  0  0
  3  4  2  0  0  0  0
  4  9  1  0  0  0  0
  5  4  1  0  0  0  0
  5 10  1  0  0  0  0
  6  5  2  0  0  0  0
  7  1  1  0  0  0  0
  8  2  1  0  0  0  0
 11  6  1  0  0  0  0
 11 13  2  0  0  0  0
 12 11  2  0  0  0  0
 15 14  3  0  0  0  0
 16 17  2  0  0  0  0
 18  3  1  0  0  0  0
 18 16  1  0  0  0  0
 19 16  1  0  0  0  0
 19 20  1  0  0  0  0
 19 21  1  0  0  0  0
 22 19  1  0  0  0  0
M  END
