Coordinates from ORCA-job 4-NO2-Ph-N2-OAc-B3LYPG-6-31G_dp-MTMO-d009-169-n750
 OpenBabel09051907563D

 22 21  0  0  0  0  0  0  0  0999 V2000
   15.6538    8.5683   -3.4578 C   0  0  0  0  0  0  0  0  0  0  0  0
   14.6082    7.6584   -3.4031 C   0  0  0  0  0  0  0  0  0  0  0  0
   14.7958    6.4056   -2.8020 C   0  0  0  0  0  0  0  0  0  0  0  0
   16.0326    6.0500   -2.2477 C   0  0  0  0  0  0  0  0  0  0  0  0
   17.0800    6.9674   -2.3052 C   0  0  0  0  0  0  0  0  0  0  0  0
   16.8832    8.2082   -2.9050 C   0  0  0  0  0  0  0  0  0  0  0  0
   15.5376    9.5421   -3.9155 H   0  0  0  0  0  0  0  0  0  0  0  0
   13.6362    7.8965   -3.8202 H   0  0  0  0  0  0  0  0  0  0  0  0
   16.1699    5.0833   -1.7898 H   0  0  0  0  0  0  0  0  0  0  0  0
   18.0504    6.7290   -1.8882 H   0  0  0  0  0  0  0  0  0  0  0  0
   17.9965    9.1629   -2.9590 N   0  0  0  0  0  0  0  0  0  0  0  0
   17.7872   10.2533   -3.4915 O   0  0  0  0  0  0  0  0  0  0  0  0
   19.0716    8.8170   -2.4697 O   0  0  0  0  0  0  0  0  0  0  0  0
    3.4991    3.2693    2.6430 N   0  0  0  0  0  0  0  0  0  0  0  0
    4.4381    3.4984    2.1069 N   0  0  0  0  0  0  0  0  0  0  0  0
   13.5709    4.3252   -2.3638 C   0  0  0  0  0  0  0  0  0  0  0  0
   14.4824    3.6984   -1.8838 O   0  0  0  0  0  0  0  0  0  0  0  0
   13.6562    5.6187   -2.8205 O   0  0  0  0  0  0  0  0  0  0  0  0
   12.1626    3.8257   -2.5617 C   0  0  0  0  0  0  0  0  0  0  0  0
   12.0931    2.7993   -2.2041 H   0  0  0  0  0  0  0  0  0  0  0  0
   11.4593    4.4606   -2.0154 H   0  0  0  0  0  0  0  0  0  0  0  0
   11.8923    3.8737   -3.6205 H   0  0  0  0  0  0  0  0  0  0  0  0
  1  2  2  0  0  0  0
  1  6  1  0  0  0  0
  2  3  1  0  0  0  0
  3  4  2  0  0  0  0
  4  9  1  0  0  0  0
  5  4  1  0  0  0  0
  5 10  1  0  0  0  0
  6  5  2  0  0  0  0
  7  1  1  0  0  0  0
  8  2  1  0  0  0  0
 11  6  1  0  0  0  0
 11 13  2  0  0  0  0
 12 11  2  0  0  0  0
 15 14  3  0  0  0  0
 16 17  2  0  0  0  0
 18  3  1  0  0  0  0
 18 16  1  0  0  0  0
 19 16  1  0  0  0  0
 19 20  1  0  0  0  0
 19 21  1  0  0  0  0
 22 19  1  0  0  0  0
M  END
