Coordinates from ORCA-job 4-NO2-Ph-N2-OAc-B3LYPG-6-31G_dp-MTMO-d009-169-n750
 OpenBabel09051907563D

 22 21  0  0  0  0  0  0  0  0999 V2000
   15.8425    8.6243   -3.5420 C   0  0  0  0  0  0  0  0  0  0  0  0
   14.7995    7.7114   -3.4883 C   0  0  0  0  0  0  0  0  0  0  0  0
   14.9913    6.4577   -2.8906 C   0  0  0  0  0  0  0  0  0  0  0  0
   16.2298    6.1041   -2.3387 C   0  0  0  0  0  0  0  0  0  0  0  0
   17.2746    7.0245   -2.3951 C   0  0  0  0  0  0  0  0  0  0  0  0
   17.0736    8.2662   -2.9916 C   0  0  0  0  0  0  0  0  0  0  0  0
   15.7231    9.5989   -3.9971 H   0  0  0  0  0  0  0  0  0  0  0  0
   13.8263    7.9479   -3.9035 H   0  0  0  0  0  0  0  0  0  0  0  0
   16.3704    5.1365   -1.8838 H   0  0  0  0  0  0  0  0  0  0  0  0
   18.2461    6.7878   -1.9800 H   0  0  0  0  0  0  0  0  0  0  0  0
   18.1841    9.2241   -3.0444 N   0  0  0  0  0  0  0  0  0  0  0  0
   17.9713   10.3153   -3.5739 O   0  0  0  0  0  0  0  0  0  0  0  0
   19.2608    8.8800   -2.5574 O   0  0  0  0  0  0  0  0  0  0  0  0
    1.5406    2.7468    3.5358 N   0  0  0  0  0  0  0  0  0  0  0  0
    2.4826    2.9727    3.0036 N   0  0  0  0  0  0  0  0  0  0  0  0
   13.7746    4.3705   -2.4615 C   0  0  0  0  0  0  0  0  0  0  0  0
   14.6908    3.7425   -1.9925 O   0  0  0  0  0  0  0  0  0  0  0  0
   13.8537    5.6679   -2.9085 O   0  0  0  0  0  0  0  0  0  0  0  0
   12.3662    3.8692   -2.6539 C   0  0  0  0  0  0  0  0  0  0  0  0
   12.3021    2.8390   -2.3061 H   0  0  0  0  0  0  0  0  0  0  0  0
   11.6659    4.4967   -2.0953 H   0  0  0  0  0  0  0  0  0  0  0  0
   12.0872    3.9274   -3.7099 H   0  0  0  0  0  0  0  0  0  0  0  0
  1  2  2  0  0  0  0
  1  6  1  0  0  0  0
  2  3  1  0  0  0  0
  3  4  2  0  0  0  0
  4  9  1  0  0  0  0
  5  4  1  0  0  0  0
  5 10  1  0  0  0  0
  6  5  2  0  0  0  0
  7  1  1  0  0  0  0
  8  2  1  0  0  0  0
 11  6  1  0  0  0  0
 11 13  2  0  0  0  0
 12 11  2  0  0  0  0
 15 14  3  0  0  0  0
 16 17  2  0  0  0  0
 18  3  1  0  0  0  0
 18 16  1  0  0  0  0
 19 16  1  0  0  0  0
 19 20  1  0  0  0  0
 19 21  1  0  0  0  0
 22 19  1  0  0  0  0
M  END
