Coordinates from ORCA-job 4-NO2-Ph-N2-OAc-B3LYPG-6-31G_dp-MTMO-d009-169-n750
 OpenBabel09051907563D

 22 21  0  0  0  0  0  0  0  0999 V2000
   15.5123    8.5229   -3.3926 C   0  0  0  0  0  0  0  0  0  0  0  0
   14.4361    7.6569   -3.2674 C   0  0  0  0  0  0  0  0  0  0  0  0
   14.6073    6.4041   -2.6614 C   0  0  0  0  0  0  0  0  0  0  0  0
   15.8584    6.0046   -2.1730 C   0  0  0  0  0  0  0  0  0  0  0  0
   16.9366    6.8781   -2.3010 C   0  0  0  0  0  0  0  0  0  0  0  0
   16.7557    8.1194   -2.9050 C   0  0  0  0  0  0  0  0  0  0  0  0
   15.4092    9.4957   -3.8556 H   0  0  0  0  0  0  0  0  0  0  0  0
   13.4523    7.9299   -3.6321 H   0  0  0  0  0  0  0  0  0  0  0  0
   15.9831    5.0376   -1.7124 H   0  0  0  0  0  0  0  0  0  0  0  0
   17.9186    6.6051   -1.9357 H   0  0  0  0  0  0  0  0  0  0  0  0
   17.9012    9.0278   -3.0330 N   0  0  0  0  0  0  0  0  0  0  0  0
   17.7061   10.1197   -3.5678 O   0  0  0  0  0  0  0  0  0  0  0  0
   18.9873    8.6443   -2.5991 O   0  0  0  0  0  0  0  0  0  0  0  0
    5.3124    3.4301    1.4718 N   0  0  0  0  0  0  0  0  0  0  0  0
    6.2491    3.6649    0.9341 N   0  0  0  0  0  0  0  0  0  0  0  0
   13.3333    4.3706   -2.1515 C   0  0  0  0  0  0  0  0  0  0  0  0
   14.2527    3.7001   -1.7529 O   0  0  0  0  0  0  0  0  0  0  0  0
   13.4371    5.6658   -2.5998 O   0  0  0  0  0  0  0  0  0  0  0  0
   11.8938    3.9330   -2.2415 C   0  0  0  0  0  0  0  0  0  0  0  0
   11.8100    2.9040   -1.8943 H   0  0  0  0  0  0  0  0  0  0  0  0
   11.2641    4.5862   -1.6305 H   0  0  0  0  0  0  0  0  0  0  0  0
   11.5409    4.0108   -3.2739 H   0  0  0  0  0  0  0  0  0  0  0  0
  1  2  2  0  0  0  0
  1  6  1  0  0  0  0
  2  3  1  0  0  0  0
  3 18  1  0  0  0  0
  3  4  2  0  0  0  0
  4  9  1  0  0  0  0
  5  4  1  0  0  0  0
  5 10  1  0  0  0  0
  6  5  2  0  0  0  0
  7  1  1  0  0  0  0
  8  2  1  0  0  0  0
 11  6  1  0  0  0  0
 11 13  2  0  0  0  0
 12 11  2  0  0  0  0
 15 14  3  0  0  0  0
 16 17  2  0  0  0  0
 18 16  1  0  0  0  0
 19 16  1  0  0  0  0
 19 20  1  0  0  0  0
 19 21  1  0  0  0  0
 22 19  1  0  0  0  0
M  END
