Coordinates from ORCA-job 4-NO2-Ph-N2-OAc-B3LYPG-6-31G_dp-MTMO-d009-169-n750
 OpenBabel09051907563D

 22 21  0  0  0  0  0  0  0  0999 V2000
   15.1651    8.1321   -3.4159 C   0  0  0  0  0  0  0  0  0  0  0  0
   14.0487    7.3303   -3.2300 C   0  0  0  0  0  0  0  0  0  0  0  0
   14.1740    6.0825   -2.6026 C   0  0  0  0  0  0  0  0  0  0  0  0
   15.4198    5.6241   -2.1535 C   0  0  0  0  0  0  0  0  0  0  0  0
   16.5386    6.4330   -2.3425 C   0  0  0  0  0  0  0  0  0  0  0  0
   16.4027    7.6699   -2.9670 C   0  0  0  0  0  0  0  0  0  0  0  0
   15.0976    9.0995   -3.8965 H   0  0  0  0  0  0  0  0  0  0  0  0
   13.0679    7.6503   -3.5632 H   0  0  0  0  0  0  0  0  0  0  0  0
   15.5093    4.6607   -1.6773 H   0  0  0  0  0  0  0  0  0  0  0  0
   17.5177    6.1131   -2.0089 H   0  0  0  0  0  0  0  0  0  0  0  0
   17.5903    8.5103   -3.1591 N   0  0  0  0  0  0  0  0  0  0  0  0
   17.4346    9.5998   -3.7115 O   0  0  0  0  0  0  0  0  0  0  0  0
   18.6698    8.0764   -2.7573 O   0  0  0  0  0  0  0  0  0  0  0  0
    9.9523    7.3934    1.0732 N   0  0  0  0  0  0  0  0  0  0  0  0
   10.1612    6.5044    0.4509 N   0  0  0  0  0  0  0  0  0  0  0  0
   12.8134    4.1293   -2.0093 C   0  0  0  0  0  0  0  0  0  0  0  0
   13.7132    3.4119   -1.6496 O   0  0  0  0  0  0  0  0  0  0  0  0
   12.9686    5.4134   -2.4774 O   0  0  0  0  0  0  0  0  0  0  0  0
   11.3485    3.7773   -2.0173 C   0  0  0  0  0  0  0  0  0  0  0  0
   11.2268    2.7449   -1.6916 H   0  0  0  0  0  0  0  0  0  0  0  0
   10.8030    4.4479   -1.3470 H   0  0  0  0  0  0  0  0  0  0  0  0
   10.9341    3.9066   -3.0213 H   0  0  0  0  0  0  0  0  0  0  0  0
  1  2  2  0  0  0  0
  1  6  1  0  0  0  0
  2  3  1  0  0  0  0
  3 18  1  0  0  0  0
  3  4  2  0  0  0  0
  4  9  1  0  0  0  0
  5  4  1  0  0  0  0
  5 10  1  0  0  0  0
  6  5  2  0  0  0  0
  7  1  1  0  0  0  0
  8  2  1  0  0  0  0
 11  6  1  0  0  0  0
 11 13  2  0  0  0  0
 12 11  2  0  0  0  0
 15 14  3  0  0  0  0
 16 17  2  0  0  0  0
 18 16  1  0  0  0  0
 19 16  1  0  0  0  0
 19 20  1  0  0  0  0
 19 21  1  0  0  0  0
 22 19  1  0  0  0  0
M  END
