Coordinates from ORCA-job 4-NO2-Ph-N2-OAc-B3LYPG-6-31G_dp-MTMO-d009-169-n750
 OpenBabel09051907563D

 22 21  0  0  0  0  0  0  0  0999 V2000
   15.1982    8.4009   -3.2908 C   0  0  0  0  0  0  0  0  0  0  0  0
   14.1549    7.4878   -3.2500 C   0  0  0  0  0  0  0  0  0  0  0  0
   14.3332    6.2416   -2.6324 C   0  0  0  0  0  0  0  0  0  0  0  0
   15.5590    5.8960   -2.0478 C   0  0  0  0  0  0  0  0  0  0  0  0
   16.6043    6.8166   -2.0916 C   0  0  0  0  0  0  0  0  0  0  0  0
   16.4165    8.0507   -2.7078 C   0  0  0  0  0  0  0  0  0  0  0  0
   15.0888    9.3697   -3.7606 H   0  0  0  0  0  0  0  0  0  0  0  0
   13.1914    7.7181   -3.6905 H   0  0  0  0  0  0  0  0  0  0  0  0
   15.6891    4.9346   -1.5768 H   0  0  0  0  0  0  0  0  0  0  0  0
   17.5662    6.5857   -1.6515 H   0  0  0  0  0  0  0  0  0  0  0  0
   17.5274    9.0087   -2.7471 N   0  0  0  0  0  0  0  0  0  0  0  0
   17.3262   10.0931   -3.2950 O   0  0  0  0  0  0  0  0  0  0  0  0
   18.5928    8.6718   -2.2311 O   0  0  0  0  0  0  0  0  0  0  0  0
    8.2234    5.0240    0.9378 N   0  0  0  0  0  0  0  0  0  0  0  0
    9.0285    4.9552    0.1838 N   0  0  0  0  0  0  0  0  0  0  0  0
   13.1008    4.1669   -2.1861 C   0  0  0  0  0  0  0  0  0  0  0  0
   13.9980    3.5571   -1.6592 O   0  0  0  0  0  0  0  0  0  0  0  0
   13.1979    5.4496   -2.6714 O   0  0  0  0  0  0  0  0  0  0  0  0
   11.7003    3.6586   -2.4117 C   0  0  0  0  0  0  0  0  0  0  0  0
   11.6537    2.6066   -2.1322 H   0  0  0  0  0  0  0  0  0  0  0  0
   10.9934    4.2314   -1.8038 H   0  0  0  0  0  0  0  0  0  0  0  0
   11.4132    3.7866   -3.4588 H   0  0  0  0  0  0  0  0  0  0  0  0
  1  2  2  0  0  0  0
  1  6  1  0  0  0  0
  2  3  1  0  0  0  0
  3  4  2  0  0  0  0
  4  9  1  0  0  0  0
  5  4  1  0  0  0  0
  5 10  1  0  0  0  0
  6  5  2  0  0  0  0
  7  1  1  0  0  0  0
  8  2  1  0  0  0  0
 11  6  1  0  0  0  0
 11 13  2  0  0  0  0
 12 11  2  0  0  0  0
 15 14  3  0  0  0  0
 16 17  2  0  0  0  0
 18  3  1  0  0  0  0
 18 16  1  0  0  0  0
 19 16  1  0  0  0  0
 19 20  1  0  0  0  0
 19 21  1  0  0  0  0
 22 19  1  0  0  0  0
M  END
