Coordinates from ORCA-job 4-NO2-Ph-N2-OAc-B3LYPG-6-31G_dp-MTMO-d009-169-n750
 OpenBabel09051907563D

 22 21  0  0  0  0  0  0  0  0999 V2000
   15.1696    8.3990   -3.2654 C   0  0  0  0  0  0  0  0  0  0  0  0
   14.1327    7.4785   -3.2276 C   0  0  0  0  0  0  0  0  0  0  0  0
   14.3233    6.2272   -2.6242 C   0  0  0  0  0  0  0  0  0  0  0  0
   15.5550    5.8839   -2.0509 C   0  0  0  0  0  0  0  0  0  0  0  0
   16.5938    6.8119   -2.0916 C   0  0  0  0  0  0  0  0  0  0  0  0
   16.3939    8.0511   -2.6938 C   0  0  0  0  0  0  0  0  0  0  0  0
   15.0507    9.3719   -3.7245 H   0  0  0  0  0  0  0  0  0  0  0  0
   13.1649    7.7070   -3.6595 H   0  0  0  0  0  0  0  0  0  0  0  0
   15.6949    4.9183   -1.5915 H   0  0  0  0  0  0  0  0  0  0  0  0
   17.5600    6.5830   -1.6599 H   0  0  0  0  0  0  0  0  0  0  0  0
   17.4980    9.0170   -2.7299 N   0  0  0  0  0  0  0  0  0  0  0  0
   17.2861   10.1058   -3.2648 O   0  0  0  0  0  0  0  0  0  0  0  0
   18.5691    8.6818   -2.2243 O   0  0  0  0  0  0  0  0  0  0  0  0
    8.3258    5.1936    0.8965 N   0  0  0  0  0  0  0  0  0  0  0  0
    9.1094    5.0587    0.1291 N   0  0  0  0  0  0  0  0  0  0  0  0
   13.1119    4.1348   -2.2040 C   0  0  0  0  0  0  0  0  0  0  0  0
   14.0223    3.5191   -1.7077 O   0  0  0  0  0  0  0  0  0  0  0  0
   13.1925    5.4289   -2.6618 O   0  0  0  0  0  0  0  0  0  0  0  0
   11.7108    3.6231   -2.4167 C   0  0  0  0  0  0  0  0  0  0  0  0
   11.6707    2.5692   -2.1436 H   0  0  0  0  0  0  0  0  0  0  0  0
   11.0092    4.1913   -1.7985 H   0  0  0  0  0  0  0  0  0  0  0  0
   11.4123    3.7562   -3.4601 H   0  0  0  0  0  0  0  0  0  0  0  0
  1  2  2  0  0  0  0
  1  6  1  0  0  0  0
  2  3  1  0  0  0  0
  3  4  2  0  0  0  0
  4  9  1  0  0  0  0
  5  4  1  0  0  0  0
  5 10  1  0  0  0  0
  6  5  2  0  0  0  0
  7  1  1  0  0  0  0
  8  2  1  0  0  0  0
 11  6  1  0  0  0  0
 11 13  2  0  0  0  0
 12 11  2  0  0  0  0
 15 14  3  0  0  0  0
 16 17  2  0  0  0  0
 18  3  1  0  0  0  0
 18 16  1  0  0  0  0
 19 16  1  0  0  0  0
 19 20  1  0  0  0  0
 19 21  1  0  0  0  0
 22 19  1  0  0  0  0
M  END
