Coordinates from ORCA-job 4-NO2-Ph-N2-OAc-B3LYPG-6-31G_dp-MTMO-d009-169-n750
 OpenBabel09051907563D

 22 21  0  0  0  0  0  0  0  0999 V2000
   15.7179    8.5877   -3.4860 C   0  0  0  0  0  0  0  0  0  0  0  0
   14.6733    7.6767   -3.4312 C   0  0  0  0  0  0  0  0  0  0  0  0
   14.8627    6.4235   -2.8318 C   0  0  0  0  0  0  0  0  0  0  0  0
   16.1005    6.0684   -2.2793 C   0  0  0  0  0  0  0  0  0  0  0  0
   17.1470    6.9869   -2.3369 C   0  0  0  0  0  0  0  0  0  0  0  0
   16.9482    8.2282   -2.9351 C   0  0  0  0  0  0  0  0  0  0  0  0
   15.6002    9.5619   -3.9425 H   0  0  0  0  0  0  0  0  0  0  0  0
   13.7006    7.9144   -3.8469 H   0  0  0  0  0  0  0  0  0  0  0  0
   16.2393    5.1012   -1.8229 H   0  0  0  0  0  0  0  0  0  0  0  0
   18.1180    6.7489   -1.9213 H   0  0  0  0  0  0  0  0  0  0  0  0
   18.0605    9.1840   -2.9891 N   0  0  0  0  0  0  0  0  0  0  0  0
   17.8497   10.2748   -3.5201 O   0  0  0  0  0  0  0  0  0  0  0  0
   19.1366    8.8386   -2.5015 O   0  0  0  0  0  0  0  0  0  0  0  0
    2.8276    3.0912    2.9460 N   0  0  0  0  0  0  0  0  0  0  0  0
    3.7684    3.3183    2.4123 N   0  0  0  0  0  0  0  0  0  0  0  0
   13.6412    4.3403   -2.3974 C   0  0  0  0  0  0  0  0  0  0  0  0
   14.5550    3.7124   -1.9233 O   0  0  0  0  0  0  0  0  0  0  0  0
   13.7238    5.6356   -2.8493 O   0  0  0  0  0  0  0  0  0  0  0  0
   12.2326    3.8405   -2.5917 C   0  0  0  0  0  0  0  0  0  0  0  0
   12.1655    2.8123   -2.2387 H   0  0  0  0  0  0  0  0  0  0  0  0
   11.5311    4.4721   -2.0393 H   0  0  0  0  0  0  0  0  0  0  0  0
   11.9575    3.8934   -3.6490 H   0  0  0  0  0  0  0  0  0  0  0  0
  1  2  2  0  0  0  0
  1  6  1  0  0  0  0
  2  3  1  0  0  0  0
  3  4  2  0  0  0  0
  4  9  1  0  0  0  0
  5  4  1  0  0  0  0
  5 10  1  0  0  0  0
  6  5  2  0  0  0  0
  7  1  1  0  0  0  0
  8  2  1  0  0  0  0
 11  6  1  0  0  0  0
 11 13  2  0  0  0  0
 12 11  2  0  0  0  0
 15 14  3  0  0  0  0
 16 17  2  0  0  0  0
 18  3  1  0  0  0  0
 18 16  1  0  0  0  0
 19 16  1  0  0  0  0
 19 20  1  0  0  0  0
 19 21  1  0  0  0  0
 22 19  1  0  0  0  0
M  END
