Coordinates from ORCA-job p-CH3O-Ph-N2-HSO4-B3LYPG-aug-cc-pVDZ-scan-d09-49-n400
 OpenBabel12261916563D

 23 22  0  0  0  0  0  0  0  0999 V2000
   -0.2525    0.0191   -0.3348 C   0  0  0  0  0  0  0  0  0  0  0  0
    0.2571    0.4396   -1.5325 C   0  0  0  0  0  0  0  0  0  0  0  0
    0.7330    1.7832   -1.6761 C   0  0  0  0  0  0  0  0  0  0  0  0
    0.6730    2.6873   -0.5633 C   0  0  0  0  0  0  0  0  0  0  0  0
    0.1586    2.2558    0.6244 C   0  0  0  0  0  0  0  0  0  0  0  0
   -0.2782    0.9081    0.7740 C   0  0  0  0  0  0  0  0  0  0  0  0
   -0.5744   -1.0113   -0.2253 H   0  0  0  0  0  0  0  0  0  0  0  0
    0.3337   -0.2383   -2.3802 H   0  0  0  0  0  0  0  0  0  0  0  0
    1.0660    3.6958   -0.6785 H   0  0  0  0  0  0  0  0  0  0  0  0
    0.1288    2.9068    1.4949 H   0  0  0  0  0  0  0  0  0  0  0  0
    1.2666    2.1402   -2.7379 N   0  0  0  0  0  0  0  0  0  0  0  0
    1.7585    2.4639   -3.7045 N   0  0  0  0  0  0  0  0  0  0  0  0
   -0.7495    0.5976    1.9660 O   0  0  0  0  0  0  0  0  0  0  0  0
   -0.9803   -0.7889    2.3038 C   0  0  0  0  0  0  0  0  0  0  0  0
   -1.8177   -1.1890    1.7167 H   0  0  0  0  0  0  0  0  0  0  0  0
   -1.2421   -0.7784    3.3642 H   0  0  0  0  0  0  0  0  0  0  0  0
   -0.0544   -1.3507    2.1382 H   0  0  0  0  0  0  0  0  0  0  0  0
    3.2627    0.0472    0.8019 S   0  0  0  0  0  0  0  0  0  0  0  0
    3.0118    0.4737   -0.6183 O   0  0  0  0  0  0  0  0  0  0  0  0
    1.9939   -0.3624    1.5106 O   0  0  0  0  0  0  0  0  0  0  0  0
    4.4333   -0.8492    1.0233 O   0  0  0  0  0  0  0  0  0  0  0  0
    3.6978    1.5013    1.5774 O   0  0  0  0  0  0  0  0  0  0  0  0
    4.5591    1.3091    1.9769 H   0  0  0  0  0  0  0  0  0  0  0  0
  1  7  1  0  0  0  0
  1  6  2  0  0  0  0
  2  1  1  0  0  0  0
  3  2  2  0  0  0  0
  3  4  1  0  0  0  0
  4  5  2  0  0  0  0
  5  6  1  0  0  0  0
  5 10  1  0  0  0  0
  6 13  1  0  0  0  0
  8  2  1  0  0  0  0
  9  4  1  0  0  0  0
 11  3  1  0  0  0  0
 12 11  1  0  0  0  0
 13 14  1  0  0  0  0
 14 16  1  0  0  0  0
 15 14  1  0  0  0  0
 17 14  1  0  0  0  0
 18 21  2  0  0  0  0
 18 20  1  0  0  0  0
 18 22  1  0  0  0  0
 19 18  2  0  0  0  0
 22 23  1  0  0  0  0
M  RAD  3  11   2  12   3  20   2
M  END
