Coordinates from ORCA-job p-CH3O-Ph-N2-HSO4-B3LYPG-aug-cc-pVDZ-scan-d09-49-n400
 OpenBabel12261916563D

 23 21  0  0  0  0  0  0  0  0999 V2000
    0.0262    0.2063    1.0333 C   0  0  0  0  0  0  0  0  0  0  0  0
    1.2001    0.7226    0.4325 C   0  0  0  0  0  0  0  0  0  0  0  0
    0.9334    1.8983   -0.1476 C   0  0  0  0  0  0  0  0  0  0  0  0
   -0.1528    2.7065   -0.3215 C   0  0  0  0  0  0  0  0  0  0  0  0
   -1.2810    2.1430    0.2879 C   0  0  0  0  0  0  0  0  0  0  0  0
   -1.1944    0.9030    0.9604 C   0  0  0  0  0  0  0  0  0  0  0  0
    0.1135   -0.7527    1.5378 H   0  0  0  0  0  0  0  0  0  0  0  0
    2.1863    0.1785    0.4475 H   0  0  0  0  0  0  0  0  0  0  0  0
   -0.1696    3.6528   -0.8523 H   0  0  0  0  0  0  0  0  0  0  0  0
   -2.2356    2.6645    0.2417 H   0  0  0  0  0  0  0  0  0  0  0  0
    2.5484    2.7692   -0.9992 N   0  0  0  0  0  0  0  0  0  0  0  0
    3.3269    3.4419   -1.3957 N   0  0  0  0  0  0  0  0  0  0  0  0
   -2.3534    0.4659    1.5044 O   0  0  0  0  0  0  0  0  0  0  0  0
   -2.3567   -0.7914    2.1907 C   0  0  0  0  0  0  0  0  0  0  0  0
   -2.0765   -1.6089    1.5111 H   0  0  0  0  0  0  0  0  0  0  0  0
   -3.3848   -0.9329    2.5340 H   0  0  0  0  0  0  0  0  0  0  0  0
   -1.6771   -0.7678    3.0547 H   0  0  0  0  0  0  0  0  0  0  0  0
    4.2794   -0.2761   -0.9606 S   0  0  0  0  0  0  0  0  0  0  0  0
    3.2595    0.3640   -1.8580 O   0  0  0  0  0  0  0  0  0  0  0  0
    3.6912   -0.5956    0.4059 O   0  0  0  0  0  0  0  0  0  0  0  0
    5.1307   -1.3506   -1.5329 O   0  0  0  0  0  0  0  0  0  0  0  0
    5.3469    1.0135   -0.6590 O   0  0  0  0  0  0  0  0  0  0  0  0
    6.2240    0.6067   -0.5941 H   0  0  0  0  0  0  0  0  0  0  0  0
  1  7  1  0  0  0  0
  2  8  1  0  0  0  0
  2  1  2  0  0  0  0
  3  2  1  0  0  0  0
  4  3  2  0  0  0  0
  4  5  1  0  0  0  0
  5  6  2  0  0  0  0
  6  1  1  0  0  0  0
  6 13  1  0  0  0  0
  9  4  1  0  0  0  0
 10  5  1  0  0  0  0
 12 11  3  0  0  0  0
 13 14  1  0  0  0  0
 14 16  1  0  0  0  0
 14 17  1  0  0  0  0
 15 14  1  0  0  0  0
 18 22  1  0  0  0  0
 18 20  1  0  0  0  0
 19 18  2  0  0  0  0
 21 18  2  0  0  0  0
 22 23  1  0  0  0  0
M  RAD  2   3   2  20   2
M  END
