Coordinates from ORCA-job p-CH3O-Ph-N2-HSO4-B3LYPG-aug-cc-pVDZ-scan-d09-49-n400
 OpenBabel12261916563D

 23 21  0  0  0  0  0  0  0  0999 V2000
   -0.0174    0.1955    0.8874 C   0  0  0  0  0  0  0  0  0  0  0  0
    0.9961    0.8565    0.1518 C   0  0  0  0  0  0  0  0  0  0  0  0
    0.7003    2.0108   -0.2657 C   0  0  0  0  0  0  0  0  0  0  0  0
   -0.3655    2.8698   -0.2299 C   0  0  0  0  0  0  0  0  0  0  0  0
   -1.3849    2.2286    0.4971 C   0  0  0  0  0  0  0  0  0  0  0  0
   -1.2193    0.9265    1.0426 C   0  0  0  0  0  0  0  0  0  0  0  0
    0.1116   -0.8016    1.2999 H   0  0  0  0  0  0  0  0  0  0  0  0
    2.5472   -0.1570   -0.0820 H   0  0  0  0  0  0  0  0  0  0  0  0
   -0.4563    3.8616   -0.6617 H   0  0  0  0  0  0  0  0  0  0  0  0
   -2.3367    2.7360    0.6531 H   0  0  0  0  0  0  0  0  0  0  0  0
    2.4076    3.5381   -1.6845 N   0  0  0  0  0  0  0  0  0  0  0  0
    3.3794    3.7993   -2.1379 N   0  0  0  0  0  0  0  0  0  0  0  0
   -2.3097    0.4575    1.7157 O   0  0  0  0  0  0  0  0  0  0  0  0
   -2.2381   -0.8444    2.2935 C   0  0  0  0  0  0  0  0  0  0  0  0
   -2.0731   -1.6120    1.5223 H   0  0  0  0  0  0  0  0  0  0  0  0
   -3.2079   -1.0087    2.7721 H   0  0  0  0  0  0  0  0  0  0  0  0
   -1.4402   -0.8995    3.0495 H   0  0  0  0  0  0  0  0  0  0  0  0
    4.4991   -0.3756   -1.0351 S   0  0  0  0  0  0  0  0  0  0  0  0
    3.9999    0.4493   -2.1420 O   0  0  0  0  0  0  0  0  0  0  0  0
    3.2704   -0.8542   -0.0899 O   0  0  0  0  0  0  0  0  0  0  0  0
    5.3491   -1.5598   -1.2182 O   0  0  0  0  0  0  0  0  0  0  0  0
    5.2997    0.6863   -0.0484 O   0  0  0  0  0  0  0  0  0  0  0  0
    5.8737    0.1579    0.5314 H   0  0  0  0  0  0  0  0  0  0  0  0
  1  6  1  0  0  0  0
  1  7  1  0  0  0  0
  2  1  2  0  0  0  0
  3  4  2  0  0  0  0
  3  2  1  0  0  0  0
  4  5  1  0  0  0  0
  5 10  1  0  0  0  0
  5  6  2  0  0  0  0
  6 13  1  0  0  0  0
  9  4  1  0  0  0  0
 12 11  3  0  0  0  0
 13 14  1  0  0  0  0
 14 16  1  0  0  0  0
 14 17  1  0  0  0  0
 15 14  1  0  0  0  0
 18 20  1  0  0  0  0
 18 22  1  0  0  0  0
 19 18  2  0  0  0  0
 20  8  1  0  0  0  0
 21 18  2  0  0  0  0
 22 23  1  0  0  0  0
M  RAD  2   2   2   3   2
M  END
