Coordinates from ORCA-job p-CH3O-Ph-N2-HSO4-B3LYPG-aug-cc-pVDZ-scan-d09-49-n400
 OpenBabel12261916563D

 23 22  0  0  0  0  0  0  0  0999 V2000
   -0.2462   -0.6228    0.8329 C   0  0  0  0  0  0  0  0  0  0  0  0
    0.8848   -0.6958    0.0116 C   0  0  0  0  0  0  0  0  0  0  0  0
    1.4583    0.4751   -0.4694 C   0  0  0  0  0  0  0  0  0  0  0  0
    0.9257    1.7290   -0.1549 C   0  0  0  0  0  0  0  0  0  0  0  0
   -0.2002    1.8023    0.6589 C   0  0  0  0  0  0  0  0  0  0  0  0
   -0.7909    0.6284    1.1589 C   0  0  0  0  0  0  0  0  0  0  0  0
   -0.6876   -1.5444    1.2032 H   0  0  0  0  0  0  0  0  0  0  0  0
    1.3179   -1.6589   -0.2504 H   0  0  0  0  0  0  0  0  0  0  0  0
    1.3856    2.6309   -0.5554 H   0  0  0  0  0  0  0  0  0  0  0  0
   -0.6437    2.7632    0.9160 H   0  0  0  0  0  0  0  0  0  0  0  0
    2.9453    4.5548   -2.6742 N   0  0  0  0  0  0  0  0  0  0  0  0
    3.5943    4.8781   -3.5069 N   0  0  0  0  0  0  0  0  0  0  0  0
   -1.8894    0.8106    1.9464 O   0  0  0  0  0  0  0  0  0  0  0  0
   -2.5409   -0.3411    2.4756 C   0  0  0  0  0  0  0  0  0  0  0  0
   -2.9186   -0.9896    1.6705 H   0  0  0  0  0  0  0  0  0  0  0  0
   -3.3820    0.0383    3.0633 H   0  0  0  0  0  0  0  0  0  0  0  0
   -1.8663   -0.9155    3.1287 H   0  0  0  0  0  0  0  0  0  0  0  0
    4.0688    0.2219   -0.7374 S   0  0  0  0  0  0  0  0  0  0  0  0
    2.5453    0.4167   -1.3677 O   0  0  0  0  0  0  0  0  0  0  0  0
    4.0730   -0.8642    0.2597 O   0  0  0  0  0  0  0  0  0  0  0  0
    4.9526    0.2624   -1.8987 O   0  0  0  0  0  0  0  0  0  0  0  0
    4.2700    1.6419    0.0850 O   0  0  0  0  0  0  0  0  0  0  0  0
    4.1289    1.4392    1.0254 H   0  0  0  0  0  0  0  0  0  0  0  0
  1  6  1  0  0  0  0
  1  7  1  0  0  0  0
  2  1  2  0  0  0  0
  3  4  2  0  0  0  0
  3  2  1  0  0  0  0
  4  5  1  0  0  0  0
  5 10  1  0  0  0  0
  5  6  2  0  0  0  0
  6 13  1  0  0  0  0
  8  2  1  0  0  0  0
  9  4  1  0  0  0  0
 12 11  3  0  0  0  0
 13 14  1  0  0  0  0
 14 16  1  0  0  0  0
 14 17  1  0  0  0  0
 15 14  1  0  0  0  0
 18 22  1  0  0  0  0
 18 20  2  0  0  0  0
 19 18  1  0  0  0  0
 19  3  1  0  0  0  0
 21 18  2  0  0  0  0
 22 23  1  0  0  0  0
M  END
