Coordinates from ORCA-job p-CH3O-Ph-N2-HSO4-B3LYPG-aug-cc-pVDZ-scan-d09-49-n400
 OpenBabel12261916563D

 23 22  0  0  0  0  0  0  0  0999 V2000
   -0.2391    0.0117   -0.3469 C   0  0  0  0  0  0  0  0  0  0  0  0
    0.2524    0.4325   -1.5458 C   0  0  0  0  0  0  0  0  0  0  0  0
    0.7628    1.7820   -1.7214 C   0  0  0  0  0  0  0  0  0  0  0  0
    0.7291    2.6639   -0.5637 C   0  0  0  0  0  0  0  0  0  0  0  0
    0.2290    2.2334    0.6244 C   0  0  0  0  0  0  0  0  0  0  0  0
   -0.2337    0.8923    0.7725 C   0  0  0  0  0  0  0  0  0  0  0  0
   -0.5792   -1.0134   -0.2415 H   0  0  0  0  0  0  0  0  0  0  0  0
    0.2967   -0.2367   -2.4034 H   0  0  0  0  0  0  0  0  0  0  0  0
    1.1388    3.6662   -0.6791 H   0  0  0  0  0  0  0  0  0  0  0  0
    0.2281    2.8776    1.5007 H   0  0  0  0  0  0  0  0  0  0  0  0
    1.1967    2.1092   -2.6784 N   0  0  0  0  0  0  0  0  0  0  0  0
    1.6496    2.4492   -3.6727 N   0  0  0  0  0  0  0  0  0  0  0  0
   -0.7155    0.5903    1.9585 O   0  0  0  0  0  0  0  0  0  0  0  0
   -0.9889   -0.7900    2.2925 C   0  0  0  0  0  0  0  0  0  0  0  0
   -1.8340   -1.1637    1.6995 H   0  0  0  0  0  0  0  0  0  0  0  0
   -1.2557   -0.7735    3.3514 H   0  0  0  0  0  0  0  0  0  0  0  0
   -0.0789   -1.3778    2.1305 H   0  0  0  0  0  0  0  0  0  0  0  0
    3.2482    0.0775    0.8102 S   0  0  0  0  0  0  0  0  0  0  0  0
    3.0185    0.5174   -0.6087 O   0  0  0  0  0  0  0  0  0  0  0  0
    1.9679   -0.3537    1.4886 O   0  0  0  0  0  0  0  0  0  0  0  0
    4.4210   -0.8107    1.0446 O   0  0  0  0  0  0  0  0  0  0  0  0
    3.6466    1.5228    1.6177 O   0  0  0  0  0  0  0  0  0  0  0  0
    4.5244    1.3543    1.9915 H   0  0  0  0  0  0  0  0  0  0  0  0
  1  7  1  0  0  0  0
  1  6  2  0  0  0  0
  2  1  1  0  0  0  0
  3  2  2  0  0  0  0
  3  4  1  0  0  0  0
  4  5  2  0  0  0  0
  5  6  1  0  0  0  0
  5 10  1  0  0  0  0
  6 13  1  0  0  0  0
  8  2  1  0  0  0  0
  9  4  1  0  0  0  0
 11  3  1  0  0  0  0
 12 11  1  0  0  0  0
 13 14  1  0  0  0  0
 14 16  1  0  0  0  0
 15 14  1  0  0  0  0
 17 14  1  0  0  0  0
 18 21  2  0  0  0  0
 18 20  1  0  0  0  0
 18 22  1  0  0  0  0
 19 18  2  0  0  0  0
 22 23  1  0  0  0  0
M  RAD  3  11   2  12   3  20   2
M  END
