Coordinates from ORCA-job p-CH3O-Ph-N2-HSO4-B3LYPG-aug-cc-pVDZ-scan-d09-49-n400
 OpenBabel12261916563D

 23 22  0  0  0  0  0  0  0  0999 V2000
   -0.2459   -0.6247    0.8357 C   0  0  0  0  0  0  0  0  0  0  0  0
    0.8851   -0.6997    0.0147 C   0  0  0  0  0  0  0  0  0  0  0  0
    1.4581    0.4699   -0.4700 C   0  0  0  0  0  0  0  0  0  0  0  0
    0.9249    1.7245   -0.1596 C   0  0  0  0  0  0  0  0  0  0  0  0
   -0.2011    1.7999    0.6539 C   0  0  0  0  0  0  0  0  0  0  0  0
   -0.7914    0.6273    1.1576 C   0  0  0  0  0  0  0  0  0  0  0  0
   -0.6870   -1.5452    1.2088 H   0  0  0  0  0  0  0  0  0  0  0  0
    1.3188   -1.6635   -0.2441 H   0  0  0  0  0  0  0  0  0  0  0  0
    1.3845    2.6253   -0.5629 H   0  0  0  0  0  0  0  0  0  0  0  0
   -0.6452    2.7614    0.9079 H   0  0  0  0  0  0  0  0  0  0  0  0
    2.9466    4.5741   -2.6726 N   0  0  0  0  0  0  0  0  0  0  0  0
    3.5970    4.9025   -3.5022 N   0  0  0  0  0  0  0  0  0  0  0  0
   -1.8900    0.8115    1.9443 O   0  0  0  0  0  0  0  0  0  0  0  0
   -2.5410   -0.3389    2.4772 C   0  0  0  0  0  0  0  0  0  0  0  0
   -2.9183   -0.9902    1.6741 H   0  0  0  0  0  0  0  0  0  0  0  0
   -3.3824    0.0421    3.0635 H   0  0  0  0  0  0  0  0  0  0  0  0
   -1.8662   -0.9107    3.1322 H   0  0  0  0  0  0  0  0  0  0  0  0
    4.0687    0.2173   -0.7372 S   0  0  0  0  0  0  0  0  0  0  0  0
    2.5451    0.4092   -1.3681 O   0  0  0  0  0  0  0  0  0  0  0  0
    4.0738   -0.8657    0.2632 O   0  0  0  0  0  0  0  0  0  0  0  0
    4.9526    0.2549   -1.8986 O   0  0  0  0  0  0  0  0  0  0  0  0
    4.2687    1.6399    0.0811 O   0  0  0  0  0  0  0  0  0  0  0  0
    4.1294    1.4393    1.0222 H   0  0  0  0  0  0  0  0  0  0  0  0
  1  6  1  0  0  0  0
  1  7  1  0  0  0  0
  2  1  2  0  0  0  0
  3  4  2  0  0  0  0
  3  2  1  0  0  0  0
  4  5  1  0  0  0  0
  5 10  1  0  0  0  0
  5  6  2  0  0  0  0
  6 13  1  0  0  0  0
  8  2  1  0  0  0  0
  9  4  1  0  0  0  0
 12 11  3  0  0  0  0
 13 14  1  0  0  0  0
 14 16  1  0  0  0  0
 14 17  1  0  0  0  0
 15 14  1  0  0  0  0
 18 22  1  0  0  0  0
 18 20  2  0  0  0  0
 19 18  1  0  0  0  0
 19  3  1  0  0  0  0
 21 18  2  0  0  0  0
 22 23  1  0  0  0  0
M  END
