Coordinates from ORCA-job p-CH3O-Ph-N2-HSO4-B3LYPG-aug-cc-pVDZ-scan-d09-49-n400
 OpenBabel12261916563D

 23 21  0  0  0  0  0  0  0  0999 V2000
   -0.0817    0.0883    0.9478 C   0  0  0  0  0  0  0  0  0  0  0  0
    0.9476    0.7111    0.2079 C   0  0  0  0  0  0  0  0  0  0  0  0
    0.7194    1.8688   -0.2319 C   0  0  0  0  0  0  0  0  0  0  0  0
   -0.3163    2.7691   -0.2100 C   0  0  0  0  0  0  0  0  0  0  0  0
   -1.3611    2.1751    0.5211 C   0  0  0  0  0  0  0  0  0  0  0  0
   -1.2520    0.8737    1.0849 C   0  0  0  0  0  0  0  0  0  0  0  0
    0.0057   -0.9076    1.3730 H   0  0  0  0  0  0  0  0  0  0  0  0
    2.5673   -0.2629   -0.1071 H   0  0  0  0  0  0  0  0  0  0  0  0
   -0.3679    3.7585   -0.6537 H   0  0  0  0  0  0  0  0  0  0  0  0
   -2.2931    2.7208    0.6678 H   0  0  0  0  0  0  0  0  0  0  0  0
    2.6358    3.8459   -1.9695 N   0  0  0  0  0  0  0  0  0  0  0  0
    3.5990    4.1441   -2.4185 N   0  0  0  0  0  0  0  0  0  0  0  0
   -2.3648    0.4602    1.7582 O   0  0  0  0  0  0  0  0  0  0  0  0
   -2.3509   -0.8348    2.3548 C   0  0  0  0  0  0  0  0  0  0  0  0
   -2.2146   -1.6199    1.5957 H   0  0  0  0  0  0  0  0  0  0  0  0
   -3.3290   -0.9513    2.8305 H   0  0  0  0  0  0  0  0  0  0  0  0
   -1.5597   -0.9123    3.1160 H   0  0  0  0  0  0  0  0  0  0  0  0
    4.5283   -0.3181   -1.0542 S   0  0  0  0  0  0  0  0  0  0  0  0
    3.9982    0.5611   -2.1025 O   0  0  0  0  0  0  0  0  0  0  0  0
    3.3132   -0.9253   -0.1614 O   0  0  0  0  0  0  0  0  0  0  0  0
    5.4336   -1.4458   -1.3119 O   0  0  0  0  0  0  0  0  0  0  0  0
    5.2665    0.7023    0.0194 O   0  0  0  0  0  0  0  0  0  0  0  0
    5.8613    0.1600    0.5645 H   0  0  0  0  0  0  0  0  0  0  0  0
  1  6  1  0  0  0  0
  1  7  1  0  0  0  0
  2  1  2  0  0  0  0
  3  4  2  0  0  0  0
  3  2  1  0  0  0  0
  4  5  1  0  0  0  0
  5 10  1  0  0  0  0
  5  6  2  0  0  0  0
  6 13  1  0  0  0  0
  9  4  1  0  0  0  0
 12 11  3  0  0  0  0
 13 14  1  0  0  0  0
 14 16  1  0  0  0  0
 14 17  1  0  0  0  0
 15 14  1  0  0  0  0
 18 20  1  0  0  0  0
 18 22  1  0  0  0  0
 19 18  2  0  0  0  0
 20  8  1  0  0  0  0
 21 18  2  0  0  0  0
 22 23  1  0  0  0  0
M  RAD  2   2   2   3   2
M  END
