Coordinates from ORCA-job p-CH3O-Ph-N2-HSO4-B3LYPG-aug-cc-pVDZ-scan-d09-49-n400
 OpenBabel12261916563D

 23 21  0  0  0  0  0  0  0  0999 V2000
   -0.0645    0.1222    0.9317 C   0  0  0  0  0  0  0  0  0  0  0  0
    0.9581    0.7603    0.1942 C   0  0  0  0  0  0  0  0  0  0  0  0
    0.7112    1.9168   -0.2400 C   0  0  0  0  0  0  0  0  0  0  0  0
   -0.3366    2.8025   -0.2142 C   0  0  0  0  0  0  0  0  0  0  0  0
   -1.3733    2.1919    0.5145 C   0  0  0  0  0  0  0  0  0  0  0  0
   -1.2458    0.8899    1.0728 C   0  0  0  0  0  0  0  0  0  0  0  0
    0.0367   -0.8742    1.3528 H   0  0  0  0  0  0  0  0  0  0  0  0
    2.5675   -0.2241   -0.0976 H   0  0  0  0  0  0  0  0  0  0  0  0
   -0.4013    3.7928   -0.6541 H   0  0  0  0  0  0  0  0  0  0  0  0
   -2.3125    2.7243    0.6633 H   0  0  0  0  0  0  0  0  0  0  0  0
    2.5704    3.7545   -1.8790 N   0  0  0  0  0  0  0  0  0  0  0  0
    3.5418    4.0264   -2.3270 N   0  0  0  0  0  0  0  0  0  0  0  0
   -2.3523    0.4579    1.7447 O   0  0  0  0  0  0  0  0  0  0  0  0
   -2.3199   -0.8394    2.3356 C   0  0  0  0  0  0  0  0  0  0  0  0
   -2.1728   -1.6191    1.5730 H   0  0  0  0  0  0  0  0  0  0  0  0
   -3.2961   -0.9719    2.8110 H   0  0  0  0  0  0  0  0  0  0  0  0
   -1.5274   -0.9092    3.0961 H   0  0  0  0  0  0  0  0  0  0  0  0
    4.5238   -0.3385   -1.0511 S   0  0  0  0  0  0  0  0  0  0  0  0
    4.0014    0.5181   -2.1218 O   0  0  0  0  0  0  0  0  0  0  0  0
    3.3050   -0.8982   -0.1335 O   0  0  0  0  0  0  0  0  0  0  0  0
    5.4090   -1.4881   -1.2809 O   0  0  0  0  0  0  0  0  0  0  0  0
    5.2863    0.7008   -0.0131 O   0  0  0  0  0  0  0  0  0  0  0  0
    5.8761    0.1650    0.5438 H   0  0  0  0  0  0  0  0  0  0  0  0
  1  6  1  0  0  0  0
  1  7  1  0  0  0  0
  2  1  2  0  0  0  0
  3  4  2  0  0  0  0
  3  2  1  0  0  0  0
  4  5  1  0  0  0  0
  5 10  1  0  0  0  0
  5  6  2  0  0  0  0
  6 13  1  0  0  0  0
  9  4  1  0  0  0  0
 12 11  3  0  0  0  0
 13 14  1  0  0  0  0
 14 16  1  0  0  0  0
 14 17  1  0  0  0  0
 15 14  1  0  0  0  0
 18 20  1  0  0  0  0
 18 22  1  0  0  0  0
 19 18  2  0  0  0  0
 20  8  1  0  0  0  0
 21 18  2  0  0  0  0
 22 23  1  0  0  0  0
M  RAD  2   2   2   3   2
M  END
