Coordinates from ORCA-job p-CH3O-Ph-N2-HSO4-B3LYPG-aug-cc-pVDZ-scan-d09-49-n400
 OpenBabel12261916563D

 23 22  0  0  0  0  0  0  0  0999 V2000
    0.0151    0.1712    1.0277 C   0  0  0  0  0  0  0  0  0  0  0  0
    1.1852    0.6377    0.4180 C   0  0  0  0  0  0  0  0  0  0  0  0
    1.0525    1.8520   -0.2084 C   0  0  0  0  0  0  0  0  0  0  0  0
   -0.0694    2.6594   -0.3248 C   0  0  0  0  0  0  0  0  0  0  0  0
   -1.2128    2.1585    0.2846 C   0  0  0  0  0  0  0  0  0  0  0  0
   -1.1769    0.9176    0.9603 C   0  0  0  0  0  0  0  0  0  0  0  0
    0.0577   -0.7844    1.5427 H   0  0  0  0  0  0  0  0  0  0  0  0
    2.1289    0.0743    0.4388 H   0  0  0  0  0  0  0  0  0  0  0  0
   -0.0659    3.6085   -0.8544 H   0  0  0  0  0  0  0  0  0  0  0  0
   -2.1481    2.7136    0.2461 H   0  0  0  0  0  0  0  0  0  0  0  0
    2.4243    2.5023   -0.9326 N   0  0  0  0  0  0  0  0  0  0  0  0
    3.1752    3.2090   -1.3334 N   0  0  0  0  0  0  0  0  0  0  0  0
   -2.3469    0.5324    1.5110 O   0  0  0  0  0  0  0  0  0  0  0  0
   -2.4053   -0.7203    2.2058 C   0  0  0  0  0  0  0  0  0  0  0  0
   -2.1641   -1.5529    1.5303 H   0  0  0  0  0  0  0  0  0  0  0  0
   -3.4381   -0.8118    2.5518 H   0  0  0  0  0  0  0  0  0  0  0  0
   -1.7231   -0.7213    3.0676 H   0  0  0  0  0  0  0  0  0  0  0  0
    4.3409   -0.2560   -0.9816 S   0  0  0  0  0  0  0  0  0  0  0  0
    3.2141    0.3449   -1.7945 O   0  0  0  0  0  0  0  0  0  0  0  0
    3.8548   -0.7877    0.3392 O   0  0  0  0  0  0  0  0  0  0  0  0
    5.3032   -1.1129   -1.7204 O   0  0  0  0  0  0  0  0  0  0  0  0
    5.2274    1.1516   -0.5796 O   0  0  0  0  0  0  0  0  0  0  0  0
    6.1559    0.8750   -0.5732 H   0  0  0  0  0  0  0  0  0  0  0  0
  1  7  1  0  0  0  0
  2  8  1  0  0  0  0
  2  1  2  0  0  0  0
  3  2  1  0  0  0  0
  4  3  2  0  0  0  0
  4  5  1  0  0  0  0
  5  6  2  0  0  0  0
  6  1  1  0  0  0  0
  6 13  1  0  0  0  0
  9  4  1  0  0  0  0
 10  5  1  0  0  0  0
 11  3  1  0  0  0  0
 12 11  1  0  0  0  0
 13 14  1  0  0  0  0
 14 16  1  0  0  0  0
 14 17  1  0  0  0  0
 15 14  1  0  0  0  0
 18 22  1  0  0  0  0
 18 20  1  0  0  0  0
 19 18  2  0  0  0  0
 21 18  2  0  0  0  0
 22 23  1  0  0  0  0
M  RAD  3  11   2  12   3  20   2
M  END
