Coordinates from ORCA-job p-CH3O-Ph-N2-HSO4-B3LYPG-aug-cc-pVDZ-scan-d09-49-n400
 OpenBabel12261916563D

 23 22  0  0  0  0  0  0  0  0999 V2000
   -0.2454   -0.5876    0.7892 C   0  0  0  0  0  0  0  0  0  0  0  0
    0.8849   -0.6289   -0.0352 C   0  0  0  0  0  0  0  0  0  0  0  0
    1.4668    0.5603   -0.4588 C   0  0  0  0  0  0  0  0  0  0  0  0
    0.9422    1.8002   -0.0838 C   0  0  0  0  0  0  0  0  0  0  0  0
   -0.1833    1.8427    0.7326 C   0  0  0  0  0  0  0  0  0  0  0  0
   -0.7817    0.6500    1.1755 C   0  0  0  0  0  0  0  0  0  0  0  0
   -0.6932   -1.5229    1.1147 H   0  0  0  0  0  0  0  0  0  0  0  0
    1.3110   -1.5815   -0.3432 H   0  0  0  0  0  0  0  0  0  0  0  0
    1.4109    2.7140   -0.4439 H   0  0  0  0  0  0  0  0  0  0  0  0
   -0.6204    2.7930    1.0357 H   0  0  0  0  0  0  0  0  0  0  0  0
    2.8939    4.2414   -2.6781 N   0  0  0  0  0  0  0  0  0  0  0  0
    3.5010    4.4886   -3.5664 N   0  0  0  0  0  0  0  0  0  0  0  0
   -1.8791    0.8011    1.9712 O   0  0  0  0  0  0  0  0  0  0  0  0
   -2.5386   -0.3705    2.4438 C   0  0  0  0  0  0  0  0  0  0  0  0
   -2.9204   -0.9765    1.6081 H   0  0  0  0  0  0  0  0  0  0  0  0
   -3.3773   -0.0143    3.0492 H   0  0  0  0  0  0  0  0  0  0  0  0
   -1.8682   -0.9805    3.0682 H   0  0  0  0  0  0  0  0  0  0  0  0
    4.0739    0.2884   -0.7395 S   0  0  0  0  0  0  0  0  0  0  0  0
    2.5533    0.5369   -1.3584 O   0  0  0  0  0  0  0  0  0  0  0  0
    4.0646   -0.8503    0.1967 O   0  0  0  0  0  0  0  0  0  0  0  0
    4.9581    0.3812   -1.8976 O   0  0  0  0  0  0  0  0  0  0  0  0
    4.2938    1.6589    0.1563 O   0  0  0  0  0  0  0  0  0  0  0  0
    4.1379    1.4171    1.0849 H   0  0  0  0  0  0  0  0  0  0  0  0
  1  7  1  0  0  0  0
  1  6  1  0  0  0  0
  2  1  2  0  0  0  0
  3  4  2  0  0  0  0
  3  2  1  0  0  0  0
  4  5  1  0  0  0  0
  5 10  1  0  0  0  0
  5  6  2  0  0  0  0
  6 13  1  0  0  0  0
  8  2  1  0  0  0  0
  9  4  1  0  0  0  0
 12 11  3  0  0  0  0
 13 14  1  0  0  0  0
 14 16  1  0  0  0  0
 14 17  1  0  0  0  0
 15 14  1  0  0  0  0
 18 22  1  0  0  0  0
 18 20  2  0  0  0  0
 19 18  1  0  0  0  0
 19  3  1  0  0  0  0
 21 18  2  0  0  0  0
 22 23  1  0  0  0  0
M  END
