Coordinates from ORCA-job p-CH3O-Ph-N2-HSO4-B3LYPG-aug-cc-pVDZ-scan-d09-49-n400
 OpenBabel12261916563D

 23 21  0  0  0  0  0  0  0  0999 V2000
   -0.1540   -0.0846    1.0211 C   0  0  0  0  0  0  0  0  0  0  0  0
    0.9177    0.4320    0.2644 C   0  0  0  0  0  0  0  0  0  0  0  0
    0.7918    1.5843   -0.2228 C   0  0  0  0  0  0  0  0  0  0  0  0
   -0.1705    2.5645   -0.2409 C   0  0  0  0  0  0  0  0  0  0  0  0
   -1.2601    2.0819    0.5067 C   0  0  0  0  0  0  0  0  0  0  0  0
   -1.2575    0.7981    1.1204 C   0  0  0  0  0  0  0  0  0  0  0  0
   -0.1470   -1.0672    1.4844 H   0  0  0  0  0  0  0  0  0  0  0  0
    2.5902   -0.4804   -0.1439 H   0  0  0  0  0  0  0  0  0  0  0  0
   -0.1432    3.5379   -0.7212 H   0  0  0  0  0  0  0  0  0  0  0  0
   -2.1465    2.7044    0.6279 H   0  0  0  0  0  0  0  0  0  0  0  0
    2.7232    4.3983   -2.3427 N   0  0  0  0  0  0  0  0  0  0  0  0
    3.6522    4.8452   -2.7377 N   0  0  0  0  0  0  0  0  0  0  0  0
   -2.4025    0.5018    1.8020 O   0  0  0  0  0  0  0  0  0  0  0  0
   -2.4946   -0.7654    2.4486 C   0  0  0  0  0  0  0  0  0  0  0  0
   -2.4198   -1.5882    1.7215 H   0  0  0  0  0  0  0  0  0  0  0  0
   -3.4804   -0.7842    2.9224 H   0  0  0  0  0  0  0  0  0  0  0  0
   -1.7146   -0.8764    3.2171 H   0  0  0  0  0  0  0  0  0  0  0  0
    4.5550   -0.2458   -1.0468 S   0  0  0  0  0  0  0  0  0  0  0  0
    3.9710    0.7585   -1.9437 O   0  0  0  0  0  0  0  0  0  0  0  0
    3.3795   -1.0727   -0.2853 O   0  0  0  0  0  0  0  0  0  0  0  0
    5.5351   -1.2528   -1.4737 O   0  0  0  0  0  0  0  0  0  0  0  0
    5.2173    0.6286    0.1918 O   0  0  0  0  0  0  0  0  0  0  0  0
    5.8424    0.0429    0.6514 H   0  0  0  0  0  0  0  0  0  0  0  0
  1  6  1  0  0  0  0
  1  7  1  0  0  0  0
  2  1  2  0  0  0  0
  3  2  1  0  0  0  0
  4  3  2  0  0  0  0
  4  5  1  0  0  0  0
  5 10  1  0  0  0  0
  5  6  2  0  0  0  0
  6 13  1  0  0  0  0
  9  4  1  0  0  0  0
 12 11  3  0  0  0  0
 13 14  1  0  0  0  0
 14 16  1  0  0  0  0
 14 17  1  0  0  0  0
 15 14  1  0  0  0  0
 18 20  1  0  0  0  0
 18 22  1  0  0  0  0
 19 18  2  0  0  0  0
 20  8  1  0  0  0  0
 21 18  2  0  0  0  0
 22 23  1  0  0  0  0
M  RAD  2   2   2   3   2
M  END
