Coordinates from ORCA-job p-CH3O-Ph-N2-HSO4-B3LYPG-aug-cc-pVDZ-scan-d09-49-n400
 OpenBabel12261916563D

 23 21  0  0  0  0  0  0  0  0999 V2000
    0.0299    0.2124    1.0336 C   0  0  0  0  0  0  0  0  0  0  0  0
    1.2023    0.7382    0.4329 C   0  0  0  0  0  0  0  0  0  0  0  0
    0.9188    1.9070   -0.1420 C   0  0  0  0  0  0  0  0  0  0  0  0
   -0.1655    2.7135   -0.3208 C   0  0  0  0  0  0  0  0  0  0  0  0
   -1.2903    2.1409    0.2888 C   0  0  0  0  0  0  0  0  0  0  0  0
   -1.1952    0.9011    0.9608 C   0  0  0  0  0  0  0  0  0  0  0  0
    0.1246   -0.7471    1.5359 H   0  0  0  0  0  0  0  0  0  0  0  0
    2.1957    0.1934    0.4457 H   0  0  0  0  0  0  0  0  0  0  0  0
   -0.1863    3.6598   -0.8513 H   0  0  0  0  0  0  0  0  0  0  0  0
   -2.2481    2.6567    0.2424 H   0  0  0  0  0  0  0  0  0  0  0  0
    2.5647    2.8196   -1.0110 N   0  0  0  0  0  0  0  0  0  0  0  0
    3.3571    3.4713   -1.4146 N   0  0  0  0  0  0  0  0  0  0  0  0
   -2.3517    0.4557    1.5045 O   0  0  0  0  0  0  0  0  0  0  0  0
   -2.3458   -0.8019    2.1898 C   0  0  0  0  0  0  0  0  0  0  0  0
   -2.0600   -1.6170    1.5096 H   0  0  0  0  0  0  0  0  0  0  0  0
   -3.3727   -0.9511    2.5335 H   0  0  0  0  0  0  0  0  0  0  0  0
   -1.6661   -0.7742    3.0536 H   0  0  0  0  0  0  0  0  0  0  0  0
    4.2675   -0.2820   -0.9633 S   0  0  0  0  0  0  0  0  0  0  0  0
    3.2655    0.3632   -1.8731 O   0  0  0  0  0  0  0  0  0  0  0  0
    3.6629   -0.5789    0.4050 O   0  0  0  0  0  0  0  0  0  0  0  0
    5.1054   -1.3801   -1.5091 O   0  0  0  0  0  0  0  0  0  0  0  0
    5.3527    0.9912   -0.6643 O   0  0  0  0  0  0  0  0  0  0  0  0
    6.2194    0.5690   -0.5655 H   0  0  0  0  0  0  0  0  0  0  0  0
  1  7  1  0  0  0  0
  2  8  1  0  0  0  0
  2  1  2  0  0  0  0
  3  2  1  0  0  0  0
  4  3  2  0  0  0  0
  4  5  1  0  0  0  0
  5  6  2  0  0  0  0
  6  1  1  0  0  0  0
  6 13  1  0  0  0  0
  9  4  1  0  0  0  0
 10  5  1  0  0  0  0
 12 11  3  0  0  0  0
 13 14  1  0  0  0  0
 14 16  1  0  0  0  0
 14 17  1  0  0  0  0
 15 14  1  0  0  0  0
 18 22  1  0  0  0  0
 18 20  1  0  0  0  0
 19 18  2  0  0  0  0
 21 18  2  0  0  0  0
 22 23  1  0  0  0  0
M  RAD  2   3   2  20   2
M  END
