Coordinates from ORCA-job p-CH3O-Ph-N2-HSO4-B3LYPG-aug-cc-pVDZ-scan-d09-49-n400
 OpenBabel12261916563D

 23 21  0  0  0  0  0  0  0  0999 V2000
   -0.0150    0.1992    0.8851 C   0  0  0  0  0  0  0  0  0  0  0  0
    0.9978    0.8614    0.1495 C   0  0  0  0  0  0  0  0  0  0  0  0
    0.7004    2.0158   -0.2674 C   0  0  0  0  0  0  0  0  0  0  0  0
   -0.3669    2.8729   -0.2305 C   0  0  0  0  0  0  0  0  0  0  0  0
   -1.3854    2.2304    0.4963 C   0  0  0  0  0  0  0  0  0  0  0  0
   -1.2179    0.9282    1.0411 C   0  0  0  0  0  0  0  0  0  0  0  0
    0.1154   -0.7980    1.2970 H   0  0  0  0  0  0  0  0  0  0  0  0
    2.5457   -0.1539   -0.0810 H   0  0  0  0  0  0  0  0  0  0  0  0
   -0.4589    3.8648   -0.6619 H   0  0  0  0  0  0  0  0  0  0  0  0
   -2.3378    2.7366    0.6527 H   0  0  0  0  0  0  0  0  0  0  0  0
    2.4010    3.5255   -1.6750 N   0  0  0  0  0  0  0  0  0  0  0  0
    3.3726    3.7863   -2.1290 N   0  0  0  0  0  0  0  0  0  0  0  0
   -2.3074    0.4574    1.7143 O   0  0  0  0  0  0  0  0  0  0  0  0
   -2.2338   -0.8447    2.2913 C   0  0  0  0  0  0  0  0  0  0  0  0
   -2.0680   -1.6117    1.5197 H   0  0  0  0  0  0  0  0  0  0  0  0
   -3.2032   -1.0106    2.7701 H   0  0  0  0  0  0  0  0  0  0  0  0
   -1.4356   -0.8992    3.0470 H   0  0  0  0  0  0  0  0  0  0  0  0
    4.4970   -0.3766   -1.0339 S   0  0  0  0  0  0  0  0  0  0  0  0
    3.9979    0.4470   -2.1419 O   0  0  0  0  0  0  0  0  0  0  0  0
    3.2683   -0.8521   -0.0875 O   0  0  0  0  0  0  0  0  0  0  0  0
    5.3459   -1.5619   -1.2158 O   0  0  0  0  0  0  0  0  0  0  0  0
    5.2995    0.6860   -0.0495 O   0  0  0  0  0  0  0  0  0  0  0  0
    5.8736    0.1578    0.5304 H   0  0  0  0  0  0  0  0  0  0  0  0
  1  6  1  0  0  0  0
  1  7  1  0  0  0  0
  2  1  2  0  0  0  0
  3  4  2  0  0  0  0
  3  2  1  0  0  0  0
  4  5  1  0  0  0  0
  5 10  1  0  0  0  0
  5  6  2  0  0  0  0
  6 13  1  0  0  0  0
  9  4  1  0  0  0  0
 12 11  3  0  0  0  0
 13 14  1  0  0  0  0
 14 16  1  0  0  0  0
 14 17  1  0  0  0  0
 15 14  1  0  0  0  0
 18 20  1  0  0  0  0
 18 22  1  0  0  0  0
 19 18  2  0  0  0  0
 20  8  1  0  0  0  0
 21 18  2  0  0  0  0
 22 23  1  0  0  0  0
M  RAD  2   2   2   3   2
M  END
