Coordinates from ORCA-job p-CH3O-Ph-N2-HSO4-B3LYPG-aug-cc-pVDZ-scan-d09-49-n400
 OpenBabel12261916563D

 23 21  0  0  0  0  0  0  0  0999 V2000
    0.0236    0.2031    1.0316 C   0  0  0  0  0  0  0  0  0  0  0  0
    1.1974    0.7156    0.4283 C   0  0  0  0  0  0  0  0  0  0  0  0
    0.9352    1.8935   -0.1518 C   0  0  0  0  0  0  0  0  0  0  0  0
   -0.1504    2.7039   -0.3221 C   0  0  0  0  0  0  0  0  0  0  0  0
   -1.2791    2.1440    0.2892 C   0  0  0  0  0  0  0  0  0  0  0  0
   -1.1950    0.9036    0.9612 C   0  0  0  0  0  0  0  0  0  0  0  0
    0.1089   -0.7559    1.5362 H   0  0  0  0  0  0  0  0  0  0  0  0
    2.1812    0.1702    0.4420 H   0  0  0  0  0  0  0  0  0  0  0  0
   -0.1658    3.6504   -0.8525 H   0  0  0  0  0  0  0  0  0  0  0  0
   -2.2322    2.6683    0.2450 H   0  0  0  0  0  0  0  0  0  0  0  0
    2.5435    2.7541   -1.0028 N   0  0  0  0  0  0  0  0  0  0  0  0
    3.3163    3.4344   -1.3979 N   0  0  0  0  0  0  0  0  0  0  0  0
   -2.3542    0.4700    1.5075 O   0  0  0  0  0  0  0  0  0  0  0  0
   -2.3600   -0.7873    2.1937 C   0  0  0  0  0  0  0  0  0  0  0  0
   -2.0837   -1.6056    1.5136 H   0  0  0  0  0  0  0  0  0  0  0  0
   -3.3879   -0.9256    2.5391 H   0  0  0  0  0  0  0  0  0  0  0  0
   -1.6788   -0.7659    3.0564 H   0  0  0  0  0  0  0  0  0  0  0  0
    4.2857   -0.2722   -0.9608 S   0  0  0  0  0  0  0  0  0  0  0  0
    3.2655    0.3744   -1.8543 O   0  0  0  0  0  0  0  0  0  0  0  0
    3.6959   -0.6070    0.4004 O   0  0  0  0  0  0  0  0  0  0  0  0
    5.1414   -1.3370   -1.5446 O   0  0  0  0  0  0  0  0  0  0  0  0
    5.3490    1.0178   -0.6441 O   0  0  0  0  0  0  0  0  0  0  0  0
    6.2283    0.6140   -0.5920 H   0  0  0  0  0  0  0  0  0  0  0  0
  1  7  1  0  0  0  0
  2  8  1  0  0  0  0
  2  1  2  0  0  0  0
  3  2  1  0  0  0  0
  4  3  2  0  0  0  0
  4  5  1  0  0  0  0
  5  6  2  0  0  0  0
  6  1  1  0  0  0  0
  6 13  1  0  0  0  0
  9  4  1  0  0  0  0
 10  5  1  0  0  0  0
 12 11  3  0  0  0  0
 13 14  1  0  0  0  0
 14 16  1  0  0  0  0
 14 17  1  0  0  0  0
 15 14  1  0  0  0  0
 18 22  1  0  0  0  0
 18 20  1  0  0  0  0
 19 18  2  0  0  0  0
 21 18  2  0  0  0  0
 22 23  1  0  0  0  0
M  RAD  2   3   2  20   2
M  END
