Coordinates from ORCA-job p-CH3O-Ph-N2-HSO4-B3LYPG-aug-cc-pVDZ-scan-d09-49-n400
 OpenBabel12261916563D

 23 21  0  0  0  0  0  0  0  0999 V2000
   -0.0218    0.1894    0.8911 C   0  0  0  0  0  0  0  0  0  0  0  0
    0.9927    0.8484    0.1552 C   0  0  0  0  0  0  0  0  0  0  0  0
    0.6997    2.0029   -0.2628 C   0  0  0  0  0  0  0  0  0  0  0  0
   -0.3635    2.8650   -0.2284 C   0  0  0  0  0  0  0  0  0  0  0  0
   -1.3844    2.2261    0.4990 C   0  0  0  0  0  0  0  0  0  0  0  0
   -1.2220    0.9237    1.0453 C   0  0  0  0  0  0  0  0  0  0  0  0
    0.1047   -0.8077    1.3042 H   0  0  0  0  0  0  0  0  0  0  0  0
    2.5496   -0.1611   -0.0851 H   0  0  0  0  0  0  0  0  0  0  0  0
   -0.4520    3.8566   -0.6608 H   0  0  0  0  0  0  0  0  0  0  0  0
   -2.3352    2.7355    0.6547 H   0  0  0  0  0  0  0  0  0  0  0  0
    2.4187    3.5542   -1.6986 N   0  0  0  0  0  0  0  0  0  0  0  0
    3.3907    3.8159   -2.1516 N   0  0  0  0  0  0  0  0  0  0  0  0
   -2.3137    0.4579    1.7185 O   0  0  0  0  0  0  0  0  0  0  0  0
   -2.2455   -0.8437    2.2972 C   0  0  0  0  0  0  0  0  0  0  0  0
   -2.0822   -1.6123    1.5266 H   0  0  0  0  0  0  0  0  0  0  0  0
   -3.2158   -1.0053    2.7757 H   0  0  0  0  0  0  0  0  0  0  0  0
   -1.4479   -0.9003    3.0534 H   0  0  0  0  0  0  0  0  0  0  0  0
    4.5037   -0.3730   -1.0377 S   0  0  0  0  0  0  0  0  0  0  0  0
    4.0057    0.4533   -2.1441 O   0  0  0  0  0  0  0  0  0  0  0  0
    3.2738   -0.8566   -0.0959 O   0  0  0  0  0  0  0  0  0  0  0  0
    5.3559   -1.5556   -1.2214 O   0  0  0  0  0  0  0  0  0  0  0  0
    5.3002    0.6879   -0.0468 O   0  0  0  0  0  0  0  0  0  0  0  0
    5.8733    0.1592    0.5335 H   0  0  0  0  0  0  0  0  0  0  0  0
  1  6  1  0  0  0  0
  1  7  1  0  0  0  0
  2  1  2  0  0  0  0
  3  4  2  0  0  0  0
  3  2  1  0  0  0  0
  4  5  1  0  0  0  0
  5 10  1  0  0  0  0
  5  6  2  0  0  0  0
  6 13  1  0  0  0  0
  9  4  1  0  0  0  0
 12 11  3  0  0  0  0
 13 14  1  0  0  0  0
 14 16  1  0  0  0  0
 14 17  1  0  0  0  0
 15 14  1  0  0  0  0
 18 20  1  0  0  0  0
 18 22  1  0  0  0  0
 19 18  2  0  0  0  0
 20  8  1  0  0  0  0
 21 18  2  0  0  0  0
 22 23  1  0  0  0  0
M  RAD  2   2   2   3   2
M  END
