Coordinates from ORCA-job p-CH3O-Ph-N2-HSO4-B3LYPG-aug-cc-pVDZ-scan-d09-49-n400
 OpenBabel12261916563D

 23 21  0  0  0  0  0  0  0  0999 V2000
   -0.1424   -0.0497    1.0085 C   0  0  0  0  0  0  0  0  0  0  0  0
    0.9214    0.4918    0.2574 C   0  0  0  0  0  0  0  0  0  0  0  0
    0.7768    1.6474   -0.2185 C   0  0  0  0  0  0  0  0  0  0  0  0
   -0.2030    2.6103   -0.2247 C   0  0  0  0  0  0  0  0  0  0  0  0
   -1.2847    2.1025    0.5173 C   0  0  0  0  0  0  0  0  0  0  0  0
   -1.2607    0.8129    1.1172 C   0  0  0  0  0  0  0  0  0  0  0  0
   -0.1191   -1.0368    1.4614 H   0  0  0  0  0  0  0  0  0  0  0  0
    2.5870   -0.4308   -0.1344 H   0  0  0  0  0  0  0  0  0  0  0  0
   -0.1924    3.5890   -0.6947 H   0  0  0  0  0  0  0  0  0  0  0  0
   -2.1812    2.7092    0.6448 H   0  0  0  0  0  0  0  0  0  0  0  0
    2.7296    4.2736   -2.2792 N   0  0  0  0  0  0  0  0  0  0  0  0
    3.6640    4.6885   -2.6959 N   0  0  0  0  0  0  0  0  0  0  0  0
   -2.4003    0.4900    1.7954 O   0  0  0  0  0  0  0  0  0  0  0  0
   -2.4711   -0.7857    2.4281 C   0  0  0  0  0  0  0  0  0  0  0  0
   -2.3824   -1.5990    1.6919 H   0  0  0  0  0  0  0  0  0  0  0  0
   -3.4565   -0.8263    2.9014 H   0  0  0  0  0  0  0  0  0  0  0  0
   -1.6894   -0.8920    3.1955 H   0  0  0  0  0  0  0  0  0  0  0  0
    4.5514   -0.2567   -1.0514 S   0  0  0  0  0  0  0  0  0  0  0  0
    3.9774    0.7206   -1.9833 O   0  0  0  0  0  0  0  0  0  0  0  0
    3.3675   -1.0390   -0.2574 O   0  0  0  0  0  0  0  0  0  0  0  0
    5.5174   -1.2915   -1.4426 O   0  0  0  0  0  0  0  0  0  0  0  0
    5.2282    0.6544    0.1524 O   0  0  0  0  0  0  0  0  0  0  0  0
    5.8473    0.0782    0.6318 H   0  0  0  0  0  0  0  0  0  0  0  0
  1  6  1  0  0  0  0
  1  7  1  0  0  0  0
  2  1  2  0  0  0  0
  3  2  1  0  0  0  0
  4  3  2  0  0  0  0
  4  5  1  0  0  0  0
  5 10  1  0  0  0  0
  5  6  2  0  0  0  0
  6 13  1  0  0  0  0
  9  4  1  0  0  0  0
 12 11  3  0  0  0  0
 13 14  1  0  0  0  0
 14 16  1  0  0  0  0
 14 17  1  0  0  0  0
 15 14  1  0  0  0  0
 18 20  1  0  0  0  0
 18 22  1  0  0  0  0
 19 18  2  0  0  0  0
 20  8  1  0  0  0  0
 21 18  2  0  0  0  0
 22 23  1  0  0  0  0
M  RAD  2   2   2   3   2
M  END
