Coordinates from ORCA-job p-CH3O-Ph-N2-HSO4-B3LYPG-aug-cc-pVDZ-scan-d09-49-n400
 OpenBabel12261916563D

 23 21  0  0  0  0  0  0  0  0999 V2000
    0.0393    0.2118    1.0243 C   0  0  0  0  0  0  0  0  0  0  0  0
    1.1982    0.7727    0.4041 C   0  0  0  0  0  0  0  0  0  0  0  0
    0.8485    1.9131   -0.1339 C   0  0  0  0  0  0  0  0  0  0  0  0
   -0.2143    2.7330   -0.3160 C   0  0  0  0  0  0  0  0  0  0  0  0
   -1.3217    2.1292    0.3098 C   0  0  0  0  0  0  0  0  0  0  0  0
   -1.1965    0.8849    0.9722 C   0  0  0  0  0  0  0  0  0  0  0  0
    0.1588   -0.7516    1.5144 H   0  0  0  0  0  0  0  0  0  0  0  0
    2.2371    0.2003    0.3882 H   0  0  0  0  0  0  0  0  0  0  0  0
   -0.2507    3.6832   -0.8376 H   0  0  0  0  0  0  0  0  0  0  0  0
   -2.2882    2.6310    0.2828 H   0  0  0  0  0  0  0  0  0  0  0  0
    2.6738    3.1259   -1.1458 N   0  0  0  0  0  0  0  0  0  0  0  0
    3.4933    3.7050   -1.6031 N   0  0  0  0  0  0  0  0  0  0  0  0
   -2.3407    0.4186    1.5301 O   0  0  0  0  0  0  0  0  0  0  0  0
   -2.3035   -0.8426    2.2057 C   0  0  0  0  0  0  0  0  0  0  0  0
   -2.0154   -1.6489    1.5156 H   0  0  0  0  0  0  0  0  0  0  0  0
   -3.3221   -1.0115    2.5650 H   0  0  0  0  0  0  0  0  0  0  0  0
   -1.6104   -0.8105    3.0589 H   0  0  0  0  0  0  0  0  0  0  0  0
    4.2264   -0.3073   -0.9751 S   0  0  0  0  0  0  0  0  0  0  0  0
    3.3386    0.3801   -1.9534 O   0  0  0  0  0  0  0  0  0  0  0  0
    3.4900   -0.5633    0.3586 O   0  0  0  0  0  0  0  0  0  0  0  0
    5.0216   -1.4819   -1.4080 O   0  0  0  0  0  0  0  0  0  0  0  0
    5.3554    0.8832   -0.5832 O   0  0  0  0  0  0  0  0  0  0  0  0
    6.1675    0.4061   -0.3525 H   0  0  0  0  0  0  0  0  0  0  0  0
  1  7  1  0  0  0  0
  2  1  2  0  0  0  0
  3  2  1  0  0  0  0
  4  3  2  0  0  0  0
  4  5  1  0  0  0  0
  5  6  2  0  0  0  0
  6  1  1  0  0  0  0
  6 13  1  0  0  0  0
  8  2  1  0  0  0  0
  9  4  1  0  0  0  0
 10  5  1  0  0  0  0
 12 11  3  0  0  0  0
 13 14  1  0  0  0  0
 14 16  1  0  0  0  0
 14 17  1  0  0  0  0
 15 14  1  0  0  0  0
 18 22  1  0  0  0  0
 18 20  1  0  0  0  0
 19 18  2  0  0  0  0
 21 18  2  0  0  0  0
 22 23  1  0  0  0  0
M  RAD  2   3   2  20   2
M  END
