Coordinates from ORCA-job p-CH3O-Ph-N2-HSO4-B3LYPG-aug-cc-pVDZ-scan-d09-49-n400
 OpenBabel12261916563D

 23 22  0  0  0  0  0  0  0  0999 V2000
    0.0037    0.1680    1.0357 C   0  0  0  0  0  0  0  0  0  0  0  0
    1.1804    0.6347    0.4262 C   0  0  0  0  0  0  0  0  0  0  0  0
    1.0159    1.8376   -0.1905 C   0  0  0  0  0  0  0  0  0  0  0  0
   -0.0852    2.6540   -0.3336 C   0  0  0  0  0  0  0  0  0  0  0  0
   -1.2301    2.1456    0.2781 C   0  0  0  0  0  0  0  0  0  0  0  0
   -1.1904    0.9094    0.9600 C   0  0  0  0  0  0  0  0  0  0  0  0
    0.0509   -0.7848    1.5559 H   0  0  0  0  0  0  0  0  0  0  0  0
    2.1320    0.0784    0.4528 H   0  0  0  0  0  0  0  0  0  0  0  0
   -0.0797    3.5988   -0.8691 H   0  0  0  0  0  0  0  0  0  0  0  0
   -2.1667    2.6984    0.2319 H   0  0  0  0  0  0  0  0  0  0  0  0
    2.4785    2.5319   -0.9593 N   0  0  0  0  0  0  0  0  0  0  0  0
    3.1709    3.3154   -1.3204 N   0  0  0  0  0  0  0  0  0  0  0  0
   -2.3626    0.5215    1.5100 O   0  0  0  0  0  0  0  0  0  0  0  0
   -2.4150   -0.7276    2.2096 C   0  0  0  0  0  0  0  0  0  0  0  0
   -2.1674   -1.5625    1.5389 H   0  0  0  0  0  0  0  0  0  0  0  0
   -3.4478   -0.8246    2.5541 H   0  0  0  0  0  0  0  0  0  0  0  0
   -1.7349   -0.7216    3.0733 H   0  0  0  0  0  0  0  0  0  0  0  0
    4.3488   -0.2391   -0.9635 S   0  0  0  0  0  0  0  0  0  0  0  0
    3.2490    0.4152   -1.7774 O   0  0  0  0  0  0  0  0  0  0  0  0
    3.8329   -0.7408    0.3585 O   0  0  0  0  0  0  0  0  0  0  0  0
    5.2536   -1.1522   -1.7085 O   0  0  0  0  0  0  0  0  0  0  0  0
    5.3175    1.1044   -0.5630 O   0  0  0  0  0  0  0  0  0  0  0  0
    6.2303    0.8007   -0.6785 H   0  0  0  0  0  0  0  0  0  0  0  0
  1  7  1  0  0  0  0
  2  8  1  0  0  0  0
  2  1  2  0  0  0  0
  3  2  1  0  0  0  0
  4  3  2  0  0  0  0
  4  5  1  0  0  0  0
  5  6  2  0  0  0  0
  6  1  1  0  0  0  0
  6 13  1  0  0  0  0
  9  4  1  0  0  0  0
 10  5  1  0  0  0  0
 11  3  1  0  0  0  0
 12 11  1  0  0  0  0
 13 14  1  0  0  0  0
 14 16  1  0  0  0  0
 14 17  1  0  0  0  0
 15 14  1  0  0  0  0
 18 22  1  0  0  0  0
 18 20  1  0  0  0  0
 19 18  2  0  0  0  0
 21 18  2  0  0  0  0
 23 22  1  0  0  0  0
M  RAD  3  11   2  12   3  20   2
M  END
