Coordinates from ORCA-job p-CH3O-Ph-N2-HSO4-B3LYPG-aug-cc-pVDZ-scan-d09-49-n400
 OpenBabel12261916563D

 23 21  0  0  0  0  0  0  0  0999 V2000
   -0.1394   -0.0403    1.0046 C   0  0  0  0  0  0  0  0  0  0  0  0
    0.9219    0.5077    0.2545 C   0  0  0  0  0  0  0  0  0  0  0  0
    0.7717    1.6640   -0.2181 C   0  0  0  0  0  0  0  0  0  0  0  0
   -0.2125    2.6225   -0.2213 C   0  0  0  0  0  0  0  0  0  0  0  0
   -1.2916    2.1080    0.5198 C   0  0  0  0  0  0  0  0  0  0  0  0
   -1.2615    0.8168    1.1162 C   0  0  0  0  0  0  0  0  0  0  0  0
   -0.1114   -1.0286    1.4548 H   0  0  0  0  0  0  0  0  0  0  0  0
    2.5857   -0.4169   -0.1330 H   0  0  0  0  0  0  0  0  0  0  0  0
   -0.2064    3.6024   -0.6886 H   0  0  0  0  0  0  0  0  0  0  0  0
   -2.1907    2.7103    0.6493 H   0  0  0  0  0  0  0  0  0  0  0  0
    2.7319    4.2395   -2.2607 N   0  0  0  0  0  0  0  0  0  0  0  0
    3.6679    4.6457   -2.6824 N   0  0  0  0  0  0  0  0  0  0  0  0
   -2.3993    0.4869    1.7940 O   0  0  0  0  0  0  0  0  0  0  0  0
   -2.4641   -0.7909    2.4231 C   0  0  0  0  0  0  0  0  0  0  0  0
   -2.3720   -1.6017    1.6846 H   0  0  0  0  0  0  0  0  0  0  0  0
   -3.4490   -0.8373    2.8967 H   0  0  0  0  0  0  0  0  0  0  0  0
   -1.6815   -0.8958    3.1899 H   0  0  0  0  0  0  0  0  0  0  0  0
    4.5505   -0.2596   -1.0527 S   0  0  0  0  0  0  0  0  0  0  0  0
    3.9802    0.7103   -1.9945 O   0  0  0  0  0  0  0  0  0  0  0  0
    3.3637   -1.0294   -0.2510 O   0  0  0  0  0  0  0  0  0  0  0  0
    5.5127   -1.3019   -1.4333 O   0  0  0  0  0  0  0  0  0  0  0  0
    5.2306    0.6612    0.1419 O   0  0  0  0  0  0  0  0  0  0  0  0
    5.8476    0.0876    0.6271 H   0  0  0  0  0  0  0  0  0  0  0  0
  1  6  1  0  0  0  0
  1  7  1  0  0  0  0
  2  1  2  0  0  0  0
  3  2  1  0  0  0  0
  4  3  2  0  0  0  0
  4  5  1  0  0  0  0
  5 10  1  0  0  0  0
  5  6  2  0  0  0  0
  6 13  1  0  0  0  0
  9  4  1  0  0  0  0
 12 11  3  0  0  0  0
 13 14  1  0  0  0  0
 14 16  1  0  0  0  0
 14 17  1  0  0  0  0
 15 14  1  0  0  0  0
 18 20  1  0  0  0  0
 18 22  1  0  0  0  0
 19 18  2  0  0  0  0
 20  8  1  0  0  0  0
 21 18  2  0  0  0  0
 22 23  1  0  0  0  0
M  RAD  2   2   2   3   2
M  END
