Coordinates from ORCA-job p-CH3O-Ph-N2-HSO4-B3LYPG-aug-cc-pVDZ-scan-d09-49-n400
 OpenBabel12261916563D

 23 21  0  0  0  0  0  0  0  0999 V2000
   -0.0061    0.2127    0.8760 C   0  0  0  0  0  0  0  0  0  0  0  0
    1.0056    0.8781    0.1405 C   0  0  0  0  0  0  0  0  0  0  0  0
    0.7028    2.0331   -0.2746 C   0  0  0  0  0  0  0  0  0  0  0  0
   -0.3714    2.8836   -0.2323 C   0  0  0  0  0  0  0  0  0  0  0  0
   -1.3865    2.2369    0.4939 C   0  0  0  0  0  0  0  0  0  0  0  0
   -1.2121    0.9347    1.0356 C   0  0  0  0  0  0  0  0  0  0  0  0
    0.1292   -0.7847    1.2859 H   0  0  0  0  0  0  0  0  0  0  0  0
    2.5388   -0.1443   -0.0769 H   0  0  0  0  0  0  0  0  0  0  0  0
   -0.4675    3.8760   -0.6619 H   0  0  0  0  0  0  0  0  0  0  0  0
   -2.3406    2.7391    0.6520 H   0  0  0  0  0  0  0  0  0  0  0  0
    2.3775    3.4829   -1.6440 N   0  0  0  0  0  0  0  0  0  0  0  0
    3.3485    3.7425   -2.1003 N   0  0  0  0  0  0  0  0  0  0  0  0
   -2.2981    0.4569    1.7094 O   0  0  0  0  0  0  0  0  0  0  0  0
   -2.2174   -0.8462    2.2832 C   0  0  0  0  0  0  0  0  0  0  0  0
   -2.0488   -1.6105    1.5095 H   0  0  0  0  0  0  0  0  0  0  0  0
   -3.1853   -1.0180    2.7630 H   0  0  0  0  0  0  0  0  0  0  0  0
   -1.4179   -0.8986    3.0377 H   0  0  0  0  0  0  0  0  0  0  0  0
    4.4876   -0.3804   -1.0288 S   0  0  0  0  0  0  0  0  0  0  0  0
    3.9878    0.4394   -2.1390 O   0  0  0  0  0  0  0  0  0  0  0  0
    3.2591   -0.8468   -0.0790 O   0  0  0  0  0  0  0  0  0  0  0  0
    5.3342   -1.5678   -1.2074 O   0  0  0  0  0  0  0  0  0  0  0  0
    5.2950    0.6846   -0.0505 O   0  0  0  0  0  0  0  0  0  0  0  0
    5.8703    0.1575    0.5291 H   0  0  0  0  0  0  0  0  0  0  0  0
  1  6  1  0  0  0  0
  1  7  1  0  0  0  0
  2  1  2  0  0  0  0
  3  4  2  0  0  0  0
  3  2  1  0  0  0  0
  4  5  1  0  0  0  0
  5 10  1  0  0  0  0
  5  6  2  0  0  0  0
  6 13  1  0  0  0  0
  9  4  1  0  0  0  0
 12 11  3  0  0  0  0
 13 14  1  0  0  0  0
 14 16  1  0  0  0  0
 14 17  1  0  0  0  0
 15 14  1  0  0  0  0
 18 20  1  0  0  0  0
 18 22  1  0  0  0  0
 19 18  2  0  0  0  0
 20  8  1  0  0  0  0
 21 18  2  0  0  0  0
 22 23  1  0  0  0  0
M  RAD  2   2   2   3   2
M  END
