Coordinates from ORCA-job p-CH3O-Ph-N2-HSO4-B3LYPG-aug-cc-pVDZ-scan-d09-49-n400
 OpenBabel12261916563D

 23 22  0  0  0  0  0  0  0  0999 V2000
   -0.2445   -0.5791    0.7775 C   0  0  0  0  0  0  0  0  0  0  0  0
    0.8858   -0.6155   -0.0469 C   0  0  0  0  0  0  0  0  0  0  0  0
    1.4719    0.5760   -0.4590 C   0  0  0  0  0  0  0  0  0  0  0  0
    0.9506    1.8137   -0.0721 C   0  0  0  0  0  0  0  0  0  0  0  0
   -0.1749    1.8514    0.7445 C   0  0  0  0  0  0  0  0  0  0  0  0
   -0.7772    0.6564    1.1758 C   0  0  0  0  0  0  0  0  0  0  0  0
   -0.6953   -1.5162    1.0936 H   0  0  0  0  0  0  0  0  0  0  0  0
    1.3091   -1.5664   -0.3640 H   0  0  0  0  0  0  0  0  0  0  0  0
    1.4215    2.7299   -0.4239 H   0  0  0  0  0  0  0  0  0  0  0  0
   -0.6093    2.8001    1.0565 H   0  0  0  0  0  0  0  0  0  0  0  0
    2.8574    4.1627   -2.6568 N   0  0  0  0  0  0  0  0  0  0  0  0
    3.4533    4.3999   -3.5554 N   0  0  0  0  0  0  0  0  0  0  0  0
   -1.8741    0.8031    1.9728 O   0  0  0  0  0  0  0  0  0  0  0  0
   -2.5372   -0.3711    2.4340 C   0  0  0  0  0  0  0  0  0  0  0  0
   -2.9208   -0.9678    1.5924 H   0  0  0  0  0  0  0  0  0  0  0  0
   -3.3749   -0.0182    3.0427 H   0  0  0  0  0  0  0  0  0  0  0  0
   -1.8687   -0.9891    3.0525 H   0  0  0  0  0  0  0  0  0  0  0  0
    4.0789    0.3004   -0.7391 S   0  0  0  0  0  0  0  0  0  0  0  0
    2.5591    0.5563   -1.3573 O   0  0  0  0  0  0  0  0  0  0  0  0
    4.0666   -0.8453    0.1885 O   0  0  0  0  0  0  0  0  0  0  0  0
    4.9639    0.4000   -1.8960 O   0  0  0  0  0  0  0  0  0  0  0  0
    4.3007    1.6638    0.1670 O   0  0  0  0  0  0  0  0  0  0  0  0
    4.1430    1.4155    1.0936 H   0  0  0  0  0  0  0  0  0  0  0  0
  1  7  1  0  0  0  0
  1  6  1  0  0  0  0
  2  1  2  0  0  0  0
  3  4  2  0  0  0  0
  3  2  1  0  0  0  0
  4  5  1  0  0  0  0
  5 10  1  0  0  0  0
  5  6  2  0  0  0  0
  6 13  1  0  0  0  0
  8  2  1  0  0  0  0
  9  4  1  0  0  0  0
 12 11  3  0  0  0  0
 13 14  1  0  0  0  0
 14 16  1  0  0  0  0
 14 17  1  0  0  0  0
 15 14  1  0  0  0  0
 18 22  1  0  0  0  0
 18 20  2  0  0  0  0
 19 18  1  0  0  0  0
 19  3  1  0  0  0  0
 21 18  2  0  0  0  0
 22 23  1  0  0  0  0
M  END
