Coordinates from ORCA-job p-CH3O-Ph-N2-HSO4-B3LYPG-aug-cc-pVDZ-scan-d09-49-n400
 OpenBabel12261916563D

 23 22  0  0  0  0  0  0  0  0999 V2000
   -0.2380    0.0482   -0.2061 C   0  0  0  0  0  0  0  0  0  0  0  0
    0.4432    0.4529   -1.3352 C   0  0  0  0  0  0  0  0  0  0  0  0
    0.7481    1.8191   -1.4477 C   0  0  0  0  0  0  0  0  0  0  0  0
    0.3939    2.7992   -0.5010 C   0  0  0  0  0  0  0  0  0  0  0  0
   -0.2876    2.3702    0.6157 C   0  0  0  0  0  0  0  0  0  0  0  0
   -0.5498    0.9877    0.8016 C   0  0  0  0  0  0  0  0  0  0  0  0
   -0.4356   -1.0084   -0.0638 H   0  0  0  0  0  0  0  0  0  0  0  0
    0.7843   -0.2593   -2.0789 H   0  0  0  0  0  0  0  0  0  0  0  0
    0.6801    3.8402   -0.6323 H   0  0  0  0  0  0  0  0  0  0  0  0
   -0.5653    3.0655    1.4048 H   0  0  0  0  0  0  0  0  0  0  0  0
    1.6660    2.1994   -2.5056 N   0  0  0  0  0  0  0  0  0  0  0  0
    2.3856    2.4745   -3.3117 N   0  0  0  0  0  0  0  0  0  0  0  0
   -1.0811    0.6610    1.9782 O   0  0  0  0  0  0  0  0  0  0  0  0
   -1.0792   -0.7276    2.3798 C   0  0  0  0  0  0  0  0  0  0  0  0
   -1.7997   -1.3000    1.7798 H   0  0  0  0  0  0  0  0  0  0  0  0
   -1.3961   -0.7185    3.4255 H   0  0  0  0  0  0  0  0  0  0  0  0
   -0.0642   -1.1330    2.2845 H   0  0  0  0  0  0  0  0  0  0  0  0
    3.4007   -0.1577    0.5012 S   0  0  0  0  0  0  0  0  0  0  0  0
    3.0795    0.0842   -0.9541 O   0  0  0  0  0  0  0  0  0  0  0  0
    2.1826   -0.4716    1.3268 O   0  0  0  0  0  0  0  0  0  0  0  0
    4.5934   -1.0114    0.7690 O   0  0  0  0  0  0  0  0  0  0  0  0
    3.8748    1.4020    1.0153 O   0  0  0  0  0  0  0  0  0  0  0  0
    4.6493    1.2442    1.5754 H   0  0  0  0  0  0  0  0  0  0  0  0
  1  7  1  0  0  0  0
  1  6  2  0  0  0  0
  2  1  1  0  0  0  0
  3  2  2  0  0  0  0
  3  4  1  0  0  0  0
  4  5  2  0  0  0  0
  5  6  1  0  0  0  0
  5 10  1  0  0  0  0
  6 13  1  0  0  0  0
  8  2  1  0  0  0  0
  9  4  1  0  0  0  0
 11  3  1  0  0  0  0
 12 11  1  0  0  0  0
 13 14  1  0  0  0  0
 14 16  1  0  0  0  0
 15 14  1  0  0  0  0
 17 14  1  0  0  0  0
 18 21  2  0  0  0  0
 18 22  1  0  0  0  0
 18 20  1  0  0  0  0
 19 18  2  0  0  0  0
 22 23  1  0  0  0  0
M  RAD  3  11   2  12   3  20   2
M  END
