Coordinates from ORCA-job p-CH3O-Ph-N2-HSO4-B3LYPG-aug-cc-pVDZ-scan-d09-49-n400
 OpenBabel12261916563D

 23 22  0  0  0  0  0  0  0  0999 V2000
   -0.2466   -0.6085    0.8155 C   0  0  0  0  0  0  0  0  0  0  0  0
    0.8836   -0.6659   -0.0080 C   0  0  0  0  0  0  0  0  0  0  0  0
    1.4594    0.5142   -0.4642 C   0  0  0  0  0  0  0  0  0  0  0  0
    0.9285    1.7611   -0.1225 C   0  0  0  0  0  0  0  0  0  0  0  0
   -0.1968    1.8195    0.6933 C   0  0  0  0  0  0  0  0  0  0  0  0
   -0.7891    0.6363    1.1686 C   0  0  0  0  0  0  0  0  0  0  0  0
   -0.6894   -1.5371    1.1662 H   0  0  0  0  0  0  0  0  0  0  0  0
    1.3146   -1.6242   -0.2905 H   0  0  0  0  0  0  0  0  0  0  0  0
    1.3907    2.6688   -0.5063 H   0  0  0  0  0  0  0  0  0  0  0  0
   -0.6386    2.7755    0.9707 H   0  0  0  0  0  0  0  0  0  0  0  0
    2.9409    4.4346   -2.6992 N   0  0  0  0  0  0  0  0  0  0  0  0
    3.5794    4.7194   -3.5537 N   0  0  0  0  0  0  0  0  0  0  0  0
   -1.8867    0.8033    1.9606 O   0  0  0  0  0  0  0  0  0  0  0  0
   -2.5399   -0.3585    2.4654 C   0  0  0  0  0  0  0  0  0  0  0  0
   -2.9191   -0.9889    1.6467 H   0  0  0  0  0  0  0  0  0  0  0  0
   -3.3801    0.0097    3.0615 H   0  0  0  0  0  0  0  0  0  0  0  0
   -1.8659   -0.9478    3.1056 H   0  0  0  0  0  0  0  0  0  0  0  0
    4.0686    0.2507   -0.7374 S   0  0  0  0  0  0  0  0  0  0  0  0
    2.5461    0.4713   -1.3629 O   0  0  0  0  0  0  0  0  0  0  0  0
    4.0674   -0.8631    0.2284 O   0  0  0  0  0  0  0  0  0  0  0  0
    4.9523    0.3195   -1.8975 O   0  0  0  0  0  0  0  0  0  0  0  0
    4.2777    1.6457    0.1230 O   0  0  0  0  0  0  0  0  0  0  0  0
    4.1277    1.4248    1.0577 H   0  0  0  0  0  0  0  0  0  0  0  0
  1  7  1  0  0  0  0
  1  6  1  0  0  0  0
  2  1  2  0  0  0  0
  3  4  2  0  0  0  0
  3  2  1  0  0  0  0
  4  5  1  0  0  0  0
  5 10  1  0  0  0  0
  5  6  2  0  0  0  0
  6 13  1  0  0  0  0
  8  2  1  0  0  0  0
  9  4  1  0  0  0  0
 12 11  3  0  0  0  0
 13 14  1  0  0  0  0
 14 16  1  0  0  0  0
 14 17  1  0  0  0  0
 15 14  1  0  0  0  0
 18 22  1  0  0  0  0
 18 20  2  0  0  0  0
 19 18  1  0  0  0  0
 19  3  1  0  0  0  0
 21 18  2  0  0  0  0
 22 23  1  0  0  0  0
M  END
