Coordinates from ORCA-job p-CH3O-Ph-N2-HSO4-B3LYPG-aug-cc-pVDZ-scan-d09-49-n400
 OpenBabel12261916563D

 23 21  0  0  0  0  0  0  0  0999 V2000
   -0.0186    0.1936    0.8886 C   0  0  0  0  0  0  0  0  0  0  0  0
    0.9952    0.8540    0.1529 C   0  0  0  0  0  0  0  0  0  0  0  0
    0.7004    2.0084   -0.2649 C   0  0  0  0  0  0  0  0  0  0  0  0
   -0.3647    2.8682   -0.2296 C   0  0  0  0  0  0  0  0  0  0  0  0
   -1.3846    2.2277    0.4975 C   0  0  0  0  0  0  0  0  0  0  0  0
   -1.2200    0.9255    1.0433 C   0  0  0  0  0  0  0  0  0  0  0  0
    0.1097   -0.8035    1.3013 H   0  0  0  0  0  0  0  0  0  0  0  0
    2.5479   -0.1586   -0.0825 H   0  0  0  0  0  0  0  0  0  0  0  0
   -0.4550    3.8599   -0.6616 H   0  0  0  0  0  0  0  0  0  0  0  0
   -2.3361    2.7357    0.6533 H   0  0  0  0  0  0  0  0  0  0  0  0
    2.4109    3.5444   -1.6893 N   0  0  0  0  0  0  0  0  0  0  0  0
    3.3828    3.8058   -2.1425 N   0  0  0  0  0  0  0  0  0  0  0  0
   -2.3108    0.4575    1.7165 O   0  0  0  0  0  0  0  0  0  0  0  0
   -2.2403   -0.8442    2.2945 C   0  0  0  0  0  0  0  0  0  0  0  0
   -2.0757   -1.6122    1.5237 H   0  0  0  0  0  0  0  0  0  0  0  0
   -3.2102   -1.0077    2.7731 H   0  0  0  0  0  0  0  0  0  0  0  0
   -1.4425   -0.8997    3.0507 H   0  0  0  0  0  0  0  0  0  0  0  0
    4.5001   -0.3750   -1.0356 S   0  0  0  0  0  0  0  0  0  0  0  0
    4.0007    0.4505   -2.1419 O   0  0  0  0  0  0  0  0  0  0  0  0
    3.2714   -0.8553   -0.0911 O   0  0  0  0  0  0  0  0  0  0  0  0
    5.3508   -1.5587   -1.2195 O   0  0  0  0  0  0  0  0  0  0  0  0
    5.2998    0.6865   -0.0477 O   0  0  0  0  0  0  0  0  0  0  0  0
    5.8737    0.1579    0.5319 H   0  0  0  0  0  0  0  0  0  0  0  0
  1  6  1  0  0  0  0
  1  7  1  0  0  0  0
  2  1  2  0  0  0  0
  3  4  2  0  0  0  0
  3  2  1  0  0  0  0
  4  5  1  0  0  0  0
  5 10  1  0  0  0  0
  5  6  2  0  0  0  0
  6 13  1  0  0  0  0
  9  4  1  0  0  0  0
 12 11  3  0  0  0  0
 13 14  1  0  0  0  0
 14 16  1  0  0  0  0
 14 17  1  0  0  0  0
 15 14  1  0  0  0  0
 18 20  1  0  0  0  0
 18 22  1  0  0  0  0
 19 18  2  0  0  0  0
 20  8  1  0  0  0  0
 21 18  2  0  0  0  0
 22 23  1  0  0  0  0
M  RAD  2   2   2   3   2
M  END
