Coordinates from ORCA-job p-CH3O-Ph-N2-HSO4-B3LYPG-aug-cc-pVDZ-scan-d09-49-n400
 OpenBabel12261916563D

 23 21  0  0  0  0  0  0  0  0999 V2000
    0.0324    0.2161    1.0333 C   0  0  0  0  0  0  0  0  0  0  0  0
    1.2038    0.7469    0.4325 C   0  0  0  0  0  0  0  0  0  0  0  0
    0.9119    1.9124   -0.1400 C   0  0  0  0  0  0  0  0  0  0  0  0
   -0.1720    2.7176   -0.3208 C   0  0  0  0  0  0  0  0  0  0  0  0
   -1.2949    2.1402    0.2889 C   0  0  0  0  0  0  0  0  0  0  0  0
   -1.1952    0.9004    0.9606 C   0  0  0  0  0  0  0  0  0  0  0  0
    0.1309   -0.7437    1.5346 H   0  0  0  0  0  0  0  0  0  0  0  0
    2.2010    0.2015    0.4441 H   0  0  0  0  0  0  0  0  0  0  0  0
   -0.1954    3.6639   -0.8510 H   0  0  0  0  0  0  0  0  0  0  0  0
   -2.2546    2.6526    0.2427 H   0  0  0  0  0  0  0  0  0  0  0  0
    2.5688    2.8447   -1.0152 N   0  0  0  0  0  0  0  0  0  0  0  0
    3.3686    3.4848   -1.4226 N   0  0  0  0  0  0  0  0  0  0  0  0
   -2.3502    0.4507    1.5044 O   0  0  0  0  0  0  0  0  0  0  0  0
   -2.3394   -0.8071    2.1892 C   0  0  0  0  0  0  0  0  0  0  0  0
   -2.0508   -1.6209    1.5087 H   0  0  0  0  0  0  0  0  0  0  0  0
   -3.3656   -0.9602    2.5332 H   0  0  0  0  0  0  0  0  0  0  0  0
   -1.6595   -0.7772    3.0528 H   0  0  0  0  0  0  0  0  0  0  0  0
    4.2619   -0.2854   -0.9643 S   0  0  0  0  0  0  0  0  0  0  0  0
    3.2698    0.3629   -1.8809 O   0  0  0  0  0  0  0  0  0  0  0  0
    3.6477   -0.5710    0.4041 O   0  0  0  0  0  0  0  0  0  0  0  0
    5.0923   -1.3955   -1.4968 O   0  0  0  0  0  0  0  0  0  0  0  0
    5.3562    0.9785   -0.6653 O   0  0  0  0  0  0  0  0  0  0  0  0
    6.2172    0.5486   -0.5510 H   0  0  0  0  0  0  0  0  0  0  0  0
  1  7  1  0  0  0  0
  2  8  1  0  0  0  0
  2  1  2  0  0  0  0
  3  2  1  0  0  0  0
  4  3  2  0  0  0  0
  4  5  1  0  0  0  0
  5  6  2  0  0  0  0
  6  1  1  0  0  0  0
  6 13  1  0  0  0  0
  9  4  1  0  0  0  0
 10  5  1  0  0  0  0
 12 11  3  0  0  0  0
 13 14  1  0  0  0  0
 14 16  1  0  0  0  0
 14 17  1  0  0  0  0
 15 14  1  0  0  0  0
 18 22  1  0  0  0  0
 18 20  1  0  0  0  0
 19 18  2  0  0  0  0
 21 18  2  0  0  0  0
 22 23  1  0  0  0  0
M  RAD  2   3   2  20   2
M  END
