Coordinates from ORCA-job p-CH3O-Ph-N2-HSO4-B3LYPG-aug-cc-pVDZ-scan-d09-49-n400
 OpenBabel12261916563D

 23 21  0  0  0  0  0  0  0  0999 V2000
   -0.0936    0.0649    0.9587 C   0  0  0  0  0  0  0  0  0  0  0  0
    0.9406    0.6766    0.2170 C   0  0  0  0  0  0  0  0  0  0  0  0
    0.7249    1.8348   -0.2267 C   0  0  0  0  0  0  0  0  0  0  0  0
   -0.3022    2.7453   -0.2074 C   0  0  0  0  0  0  0  0  0  0  0  0
   -1.3526    2.1632    0.5253 C   0  0  0  0  0  0  0  0  0  0  0  0
   -1.2561    0.8624    1.0930 C   0  0  0  0  0  0  0  0  0  0  0  0
   -0.0158   -0.9305    1.3869 H   0  0  0  0  0  0  0  0  0  0  0  0
    2.5675   -0.2891   -0.1130 H   0  0  0  0  0  0  0  0  0  0  0  0
   -0.3444    3.7340   -0.6539 H   0  0  0  0  0  0  0  0  0  0  0  0
   -2.2793    2.7182    0.6704 H   0  0  0  0  0  0  0  0  0  0  0  0
    2.6772    3.9125   -2.0352 N   0  0  0  0  0  0  0  0  0  0  0  0
    3.6352    4.2285   -2.4831 N   0  0  0  0  0  0  0  0  0  0  0  0
   -2.3732    0.4619    1.7673 O   0  0  0  0  0  0  0  0  0  0  0  0
   -2.3720   -0.8312    2.3680 C   0  0  0  0  0  0  0  0  0  0  0  0
   -2.2434   -1.6200    1.6113 H   0  0  0  0  0  0  0  0  0  0  0  0
   -3.3513   -0.9367    2.8438 H   0  0  0  0  0  0  0  0  0  0  0  0
   -1.5818   -0.9142    3.1296 H   0  0  0  0  0  0  0  0  0  0  0  0
    4.5313   -0.3038   -1.0546 S   0  0  0  0  0  0  0  0  0  0  0  0
    3.9956    0.5936   -2.0845 O   0  0  0  0  0  0  0  0  0  0  0  0
    3.3195   -0.9430   -0.1795 O   0  0  0  0  0  0  0  0  0  0  0  0
    5.4482   -1.4165   -1.3348 O   0  0  0  0  0  0  0  0  0  0  0  0
    5.2562    0.6992    0.0440 O   0  0  0  0  0  0  0  0  0  0  0  0
    5.8546    0.1505    0.5787 H   0  0  0  0  0  0  0  0  0  0  0  0
  1  6  1  0  0  0  0
  1  7  1  0  0  0  0
  2  1  2  0  0  0  0
  3  4  2  0  0  0  0
  3  2  1  0  0  0  0
  4  5  1  0  0  0  0
  5 10  1  0  0  0  0
  5  6  2  0  0  0  0
  6 13  1  0  0  0  0
  9  4  1  0  0  0  0
 12 11  3  0  0  0  0
 13 14  1  0  0  0  0
 14 16  1  0  0  0  0
 14 17  1  0  0  0  0
 15 14  1  0  0  0  0
 18 20  1  0  0  0  0
 18 22  1  0  0  0  0
 19 18  2  0  0  0  0
 20  8  1  0  0  0  0
 21 18  2  0  0  0  0
 22 23  1  0  0  0  0
M  RAD  2   2   2   3   2
M  END
