Coordinates from ORCA-job p-CH3O-Ph-N2-HSO4-B3LYPG-aug-cc-pVDZ-scan-d09-49-n400
 OpenBabel12261916563D

 23 22  0  0  0  0  0  0  0  0999 V2000
   -0.2466   -0.6008    0.8056 C   0  0  0  0  0  0  0  0  0  0  0  0
    0.8836   -0.6511   -0.0185 C   0  0  0  0  0  0  0  0  0  0  0  0
    1.4612    0.5331   -0.4610 C   0  0  0  0  0  0  0  0  0  0  0  0
    0.9326    1.7770   -0.1053 C   0  0  0  0  0  0  0  0  0  0  0  0
   -0.1928    1.8285    0.7108 C   0  0  0  0  0  0  0  0  0  0  0  0
   -0.7871    0.6409    1.1726 C   0  0  0  0  0  0  0  0  0  0  0  0
   -0.6912   -1.5324    1.1459 H   0  0  0  0  0  0  0  0  0  0  0  0
    1.3128   -1.6070   -0.3116 H   0  0  0  0  0  0  0  0  0  0  0  0
    1.3976    2.6871   -0.4793 H   0  0  0  0  0  0  0  0  0  0  0  0
   -0.6331    2.7819    0.9990 H   0  0  0  0  0  0  0  0  0  0  0  0
    2.9307    4.3603   -2.6963 N   0  0  0  0  0  0  0  0  0  0  0  0
    3.5588    4.6288   -3.5637 N   0  0  0  0  0  0  0  0  0  0  0  0
   -1.8847    0.8008    1.9662 O   0  0  0  0  0  0  0  0  0  0  0  0
   -2.5400   -0.3655    2.4576 C   0  0  0  0  0  0  0  0  0  0  0  0
   -2.9201   -0.9860    1.6317 H   0  0  0  0  0  0  0  0  0  0  0  0
   -3.3797   -0.0027    3.0576 H   0  0  0  0  0  0  0  0  0  0  0  0
   -1.8672   -0.9633    3.0912 H   0  0  0  0  0  0  0  0  0  0  0  0
    4.0693    0.2664   -0.7386 S   0  0  0  0  0  0  0  0  0  0  0  0
    2.5473    0.4993   -1.3606 O   0  0  0  0  0  0  0  0  0  0  0  0
    4.0642   -0.8559    0.2172 O   0  0  0  0  0  0  0  0  0  0  0  0
    4.9524    0.3418   -1.8988 O   0  0  0  0  0  0  0  0  0  0  0  0
    4.2852    1.6529    0.1332 O   0  0  0  0  0  0  0  0  0  0  0  0
    4.1317    1.4263    1.0660 H   0  0  0  0  0  0  0  0  0  0  0  0
  1  7  1  0  0  0  0
  1  6  1  0  0  0  0
  2  1  2  0  0  0  0
  3  4  2  0  0  0  0
  3  2  1  0  0  0  0
  4  5  1  0  0  0  0
  5 10  1  0  0  0  0
  5  6  2  0  0  0  0
  6 13  1  0  0  0  0
  8  2  1  0  0  0  0
  9  4  1  0  0  0  0
 12 11  3  0  0  0  0
 13 14  1  0  0  0  0
 14 16  1  0  0  0  0
 14 17  1  0  0  0  0
 15 14  1  0  0  0  0
 18 22  1  0  0  0  0
 18 20  2  0  0  0  0
 19 18  1  0  0  0  0
 19  3  1  0  0  0  0
 21 18  2  0  0  0  0
 22 23  1  0  0  0  0
M  END
