Coordinates from ORCA-job p-CH3O-Ph-N2-HSO4-B3LYPG-aug-cc-pVDZ-scan-d09-49-n400
 OpenBabel12261916563D

 23 22  0  0  0  0  0  0  0  0999 V2000
   -0.2471   -0.6172    0.8243 C   0  0  0  0  0  0  0  0  0  0  0  0
    0.8834   -0.6837    0.0018 C   0  0  0  0  0  0  0  0  0  0  0  0
    1.4589    0.4911   -0.4674 C   0  0  0  0  0  0  0  0  0  0  0  0
    0.9285    1.7425   -0.1399 C   0  0  0  0  0  0  0  0  0  0  0  0
   -0.1970    1.8094    0.6751 C   0  0  0  0  0  0  0  0  0  0  0  0
   -0.7896    0.6315    1.1633 C   0  0  0  0  0  0  0  0  0  0  0  0
   -0.6900   -1.5417    1.1852 H   0  0  0  0  0  0  0  0  0  0  0  0
    1.3148   -1.6449   -0.2700 H   0  0  0  0  0  0  0  0  0  0  0  0
    1.3895    2.6477   -0.5317 H   0  0  0  0  0  0  0  0  0  0  0  0
   -0.6388    2.7684    0.9420 H   0  0  0  0  0  0  0  0  0  0  0  0
    2.9421    4.4961   -2.6796 N   0  0  0  0  0  0  0  0  0  0  0  0
    3.5868    4.8031   -3.5217 N   0  0  0  0  0  0  0  0  0  0  0  0
   -1.8874    0.8076    1.9530 O   0  0  0  0  0  0  0  0  0  0  0  0
   -2.5408   -0.3484    2.4706 C   0  0  0  0  0  0  0  0  0  0  0  0
   -2.9199   -0.9879    1.6590 H   0  0  0  0  0  0  0  0  0  0  0  0
   -3.3810    0.0265    3.0624 H   0  0  0  0  0  0  0  0  0  0  0  0
   -1.8670   -0.9305    3.1176 H   0  0  0  0  0  0  0  0  0  0  0  0
    4.0689    0.2359   -0.7378 S   0  0  0  0  0  0  0  0  0  0  0  0
    2.5456    0.4395   -1.3663 O   0  0  0  0  0  0  0  0  0  0  0  0
    4.0705   -0.8584    0.2502 O   0  0  0  0  0  0  0  0  0  0  0  0
    4.9527    0.2841   -1.8988 O   0  0  0  0  0  0  0  0  0  0  0  0
    4.2741    1.6487    0.0956 O   0  0  0  0  0  0  0  0  0  0  0  0
    4.1272    1.4411    1.0340 H   0  0  0  0  0  0  0  0  0  0  0  0
  1  6  1  0  0  0  0
  1  7  1  0  0  0  0
  2  1  2  0  0  0  0
  3  4  2  0  0  0  0
  3  2  1  0  0  0  0
  4  5  1  0  0  0  0
  5 10  1  0  0  0  0
  5  6  2  0  0  0  0
  6 13  1  0  0  0  0
  8  2  1  0  0  0  0
  9  4  1  0  0  0  0
 12 11  3  0  0  0  0
 13 14  1  0  0  0  0
 14 16  1  0  0  0  0
 14 17  1  0  0  0  0
 15 14  1  0  0  0  0
 18 22  1  0  0  0  0
 18 20  2  0  0  0  0
 19 18  1  0  0  0  0
 19  3  1  0  0  0  0
 21 18  2  0  0  0  0
 22 23  1  0  0  0  0
M  END
