Coordinates from ORCA-job p-CH3O-Ph-N2-HSO4-B3LYPG-aug-cc-pVDZ-scan-d09-49-n400
 OpenBabel12261916563D

 23 22  0  0  0  0  0  0  0  0999 V2000
    0.0040    0.1638    1.0373 C   0  0  0  0  0  0  0  0  0  0  0  0
    1.1795    0.6241    0.4279 C   0  0  0  0  0  0  0  0  0  0  0  0
    1.0416    1.8318   -0.2007 C   0  0  0  0  0  0  0  0  0  0  0  0
   -0.0701    2.6441   -0.3350 C   0  0  0  0  0  0  0  0  0  0  0  0
   -1.2179    2.1461    0.2740 C   0  0  0  0  0  0  0  0  0  0  0  0
   -1.1863    0.9109    0.9586 C   0  0  0  0  0  0  0  0  0  0  0  0
    0.0443   -0.7876    1.5605 H   0  0  0  0  0  0  0  0  0  0  0  0
    2.1253    0.0638    0.4586 H   0  0  0  0  0  0  0  0  0  0  0  0
   -0.0625    3.5889   -0.8713 H   0  0  0  0  0  0  0  0  0  0  0  0
   -2.1519    2.7027    0.2262 H   0  0  0  0  0  0  0  0  0  0  0  0
    2.4508    2.4924   -0.9378 N   0  0  0  0  0  0  0  0  0  0  0  0
    3.1399    3.2795   -1.3012 N   0  0  0  0  0  0  0  0  0  0  0  0
   -2.3607    0.5307    1.5075 O   0  0  0  0  0  0  0  0  0  0  0  0
   -2.4219   -0.7164    2.2104 C   0  0  0  0  0  0  0  0  0  0  0  0
   -2.1780   -1.5544    1.5423 H   0  0  0  0  0  0  0  0  0  0  0  0
   -3.4560   -0.8061    2.5532 H   0  0  0  0  0  0  0  0  0  0  0  0
   -1.7434   -0.7121    3.0753 H   0  0  0  0  0  0  0  0  0  0  0  0
    4.3566   -0.2341   -0.9712 S   0  0  0  0  0  0  0  0  0  0  0  0
    3.2371    0.4133   -1.7670 O   0  0  0  0  0  0  0  0  0  0  0  0
    3.8640   -0.7618    0.3474 O   0  0  0  0  0  0  0  0  0  0  0  0
    5.2680   -1.1191   -1.7409 O   0  0  0  0  0  0  0  0  0  0  0  0
    5.3016    1.1259   -0.5683 O   0  0  0  0  0  0  0  0  0  0  0  0
    6.2206    0.8345   -0.6646 H   0  0  0  0  0  0  0  0  0  0  0  0
  1  7  1  0  0  0  0
  2  8  1  0  0  0  0
  2  1  2  0  0  0  0
  3  2  1  0  0  0  0
  4  3  2  0  0  0  0
  4  5  1  0  0  0  0
  5  6  2  0  0  0  0
  6  1  1  0  0  0  0
  6 13  1  0  0  0  0
  9  4  1  0  0  0  0
 10  5  1  0  0  0  0
 11  3  1  0  0  0  0
 12 11  1  0  0  0  0
 13 14  1  0  0  0  0
 14 16  1  0  0  0  0
 14 17  1  0  0  0  0
 15 14  1  0  0  0  0
 18 22  1  0  0  0  0
 18 20  1  0  0  0  0
 19 18  2  0  0  0  0
 21 18  2  0  0  0  0
 23 22  1  0  0  0  0
M  RAD  3  11   2  12   3  20   2
M  END
