Coordinates from ORCA-job p-CH3O-Ph-N2-HSO4-B3LYPG-aug-cc-pVDZ-scan-d09-49-n400
 OpenBabel12261916563D

 23 21  0  0  0  0  0  0  0  0999 V2000
   -0.1663   -0.1360    1.0362 C   0  0  0  0  0  0  0  0  0  0  0  0
    0.9179    0.3388    0.2704 C   0  0  0  0  0  0  0  0  0  0  0  0
    0.8230    1.4852   -0.2373 C   0  0  0  0  0  0  0  0  0  0  0  0
   -0.1124    2.4909   -0.2717 C   0  0  0  0  0  0  0  0  0  0  0  0
   -1.2138    2.0506    0.4848 C   0  0  0  0  0  0  0  0  0  0  0  0
   -1.2453    0.7779    1.1207 C   0  0  0  0  0  0  0  0  0  0  0  0
   -0.1853   -1.1099    1.5169 H   0  0  0  0  0  0  0  0  0  0  0  0
    2.5956   -0.5681   -0.1550 H   0  0  0  0  0  0  0  0  0  0  0  0
   -0.0595    3.4550   -0.7684 H   0  0  0  0  0  0  0  0  0  0  0  0
   -2.0830    2.6987    0.5956 H   0  0  0  0  0  0  0  0  0  0  0  0
    2.6714    4.6290   -2.4359 N   0  0  0  0  0  0  0  0  0  0  0  0
    3.5857    5.1328   -2.7953 N   0  0  0  0  0  0  0  0  0  0  0  0
   -2.3973    0.5248    1.8079 O   0  0  0  0  0  0  0  0  0  0  0  0
   -2.5232   -0.7279    2.4766 C   0  0  0  0  0  0  0  0  0  0  0  0
   -2.4713   -1.5650    1.7640 H   0  0  0  0  0  0  0  0  0  0  0  0
   -3.5087   -0.7117    2.9511 H   0  0  0  0  0  0  0  0  0  0  0  0
   -1.7458   -0.8466    3.2466 H   0  0  0  0  0  0  0  0  0  0  0  0
    4.5582   -0.2477   -1.0300 S   0  0  0  0  0  0  0  0  0  0  0  0
    3.9567    0.7922   -1.8735 O   0  0  0  0  0  0  0  0  0  0  0  0
    3.3967   -1.1376   -0.3201 O   0  0  0  0  0  0  0  0  0  0  0  0
    5.5601   -1.2097   -1.5069 O   0  0  0  0  0  0  0  0  0  0  0  0
    5.1982    0.5712    0.2571 O   0  0  0  0  0  0  0  0  0  0  0  0
    5.8332   -0.0261    0.6874 H   0  0  0  0  0  0  0  0  0  0  0  0
  1  6  1  0  0  0  0
  1  7  1  0  0  0  0
  2  1  2  0  0  0  0
  3  2  1  0  0  0  0
  4  3  2  0  0  0  0
  4  5  1  0  0  0  0
  5 10  1  0  0  0  0
  5  6  2  0  0  0  0
  6 13  1  0  0  0  0
  9  4  1  0  0  0  0
 12 11  3  0  0  0  0
 13 14  1  0  0  0  0
 14 16  1  0  0  0  0
 14 17  1  0  0  0  0
 15 14  1  0  0  0  0
 18 20  1  0  0  0  0
 18 22  1  0  0  0  0
 19 18  2  0  0  0  0
 20  8  1  0  0  0  0
 21 18  2  0  0  0  0
 22 23  1  0  0  0  0
M  RAD  2   2   2   3   2
M  END
