Coordinates from ORCA-job p-CH3O-Ph-N2-HSO4-B3LYPG-aug-cc-pVDZ-scan-d09-49-n400
 OpenBabel12261916563D

 23 21  0  0  0  0  0  0  0  0999 V2000
    0.0031    0.2267    0.8733 C   0  0  0  0  0  0  0  0  0  0  0  0
    1.0204    0.8952    0.1472 C   0  0  0  0  0  0  0  0  0  0  0  0
    0.7098    2.0512   -0.2644 C   0  0  0  0  0  0  0  0  0  0  0  0
   -0.3663    2.8973   -0.2253 C   0  0  0  0  0  0  0  0  0  0  0  0
   -1.3840    2.2447    0.4917 C   0  0  0  0  0  0  0  0  0  0  0  0
   -1.2073    0.9413    1.0292 C   0  0  0  0  0  0  0  0  0  0  0  0
    0.1401   -0.7717    1.2807 H   0  0  0  0  0  0  0  0  0  0  0  0
    2.5400   -0.1223   -0.0496 H   0  0  0  0  0  0  0  0  0  0  0  0
   -0.4640    3.8910   -0.6515 H   0  0  0  0  0  0  0  0  0  0  0  0
   -2.3409    2.7427    0.6454 H   0  0  0  0  0  0  0  0  0  0  0  0
    2.3609    3.4224   -1.5736 N   0  0  0  0  0  0  0  0  0  0  0  0
    3.3366    3.6499   -2.0368 N   0  0  0  0  0  0  0  0  0  0  0  0
   -2.2949    0.4560    1.6946 O   0  0  0  0  0  0  0  0  0  0  0  0
   -2.2119   -0.8495    2.2631 C   0  0  0  0  0  0  0  0  0  0  0  0
   -2.0352   -1.6094    1.4870 H   0  0  0  0  0  0  0  0  0  0  0  0
   -3.1820   -1.0277    2.7361 H   0  0  0  0  0  0  0  0  0  0  0  0
   -1.4168   -0.9017    3.0221 H   0  0  0  0  0  0  0  0  0  0  0  0
    4.4715   -0.3924   -1.0302 S   0  0  0  0  0  0  0  0  0  0  0  0
    3.9459    0.3740   -2.1667 O   0  0  0  0  0  0  0  0  0  0  0  0
    3.2660   -0.8222   -0.0369 O   0  0  0  0  0  0  0  0  0  0  0  0
    5.3238   -1.5808   -1.1727 O   0  0  0  0  0  0  0  0  0  0  0  0
    5.2910    0.7214   -0.1175 O   0  0  0  0  0  0  0  0  0  0  0  0
    5.8791    0.2247    0.4759 H   0  0  0  0  0  0  0  0  0  0  0  0
  1  6  1  0  0  0  0
  1  7  1  0  0  0  0
  2  1  2  0  0  0  0
  3  4  2  0  0  0  0
  3  2  1  0  0  0  0
  4  5  1  0  0  0  0
  5 10  1  0  0  0  0
  5  6  2  0  0  0  0
  6 13  1  0  0  0  0
  8 20  1  0  0  0  0
  9  4  1  0  0  0  0
 12 11  3  0  0  0  0
 13 14  1  0  0  0  0
 14 16  1  0  0  0  0
 14 17  1  0  0  0  0
 15 14  1  0  0  0  0
 18 22  1  0  0  0  0
 18 20  1  0  0  0  0
 19 18  2  0  0  0  0
 21 18  2  0  0  0  0
 22 23  1  0  0  0  0
M  RAD  2   2   2   3   2
M  END
