Coordinates from ORCA-job p-CH3O-Ph-N2-HSO4-B3LYPG-aug-cc-pVDZ-scan-d09-49-n400
 OpenBabel12261916563D

 23 21  0  0  0  0  0  0  0  0999 V2000
   -0.0755    0.1002    0.9424 C   0  0  0  0  0  0  0  0  0  0  0  0
    0.9513    0.7285    0.2033 C   0  0  0  0  0  0  0  0  0  0  0  0
    0.7167    1.8859   -0.2345 C   0  0  0  0  0  0  0  0  0  0  0  0
   -0.3235    2.7809   -0.2114 C   0  0  0  0  0  0  0  0  0  0  0  0
   -1.3654    2.1809    0.5188 C   0  0  0  0  0  0  0  0  0  0  0  0
   -1.2498    0.8794    1.0807 C   0  0  0  0  0  0  0  0  0  0  0  0
    0.0167   -0.8959    1.3661 H   0  0  0  0  0  0  0  0  0  0  0  0
    2.5672   -0.2492   -0.1040 H   0  0  0  0  0  0  0  0  0  0  0  0
   -0.3797    3.7707   -0.6538 H   0  0  0  0  0  0  0  0  0  0  0  0
   -2.3000    2.7219    0.6662 H   0  0  0  0  0  0  0  0  0  0  0  0
    2.6138    3.8133   -1.9371 N   0  0  0  0  0  0  0  0  0  0  0  0
    3.5798    4.1023   -2.3862 N   0  0  0  0  0  0  0  0  0  0  0  0
   -2.3605    0.4593    1.7534 O   0  0  0  0  0  0  0  0  0  0  0  0
   -2.3400   -0.8365    2.3481 C   0  0  0  0  0  0  0  0  0  0  0  0
   -2.1998   -1.6197    1.5878 H   0  0  0  0  0  0  0  0  0  0  0  0
   -3.3175   -0.9587    2.8236 H   0  0  0  0  0  0  0  0  0  0  0  0
   -1.5485   -0.9112    3.1091 H   0  0  0  0  0  0  0  0  0  0  0  0
    4.5267   -0.3254   -1.0535 S   0  0  0  0  0  0  0  0  0  0  0  0
    3.9994    0.5455   -2.1102 O   0  0  0  0  0  0  0  0  0  0  0  0
    3.3100   -0.9160   -0.1519 O   0  0  0  0  0  0  0  0  0  0  0  0
    5.4252   -1.4607   -1.3007 O   0  0  0  0  0  0  0  0  0  0  0  0
    5.2727    0.7025    0.0076 O   0  0  0  0  0  0  0  0  0  0  0  0
    5.8657    0.1628    0.5572 H   0  0  0  0  0  0  0  0  0  0  0  0
  1  6  1  0  0  0  0
  1  7  1  0  0  0  0
  2  1  2  0  0  0  0
  3  4  2  0  0  0  0
  3  2  1  0  0  0  0
  4  5  1  0  0  0  0
  5 10  1  0  0  0  0
  5  6  2  0  0  0  0
  6 13  1  0  0  0  0
  9  4  1  0  0  0  0
 12 11  3  0  0  0  0
 13 14  1  0  0  0  0
 14 16  1  0  0  0  0
 14 17  1  0  0  0  0
 15 14  1  0  0  0  0
 18 20  1  0  0  0  0
 18 22  1  0  0  0  0
 19 18  2  0  0  0  0
 20  8  1  0  0  0  0
 21 18  2  0  0  0  0
 22 23  1  0  0  0  0
M  RAD  2   2   2   3   2
M  END
