Coordinates from ORCA-job p-CH3O-Ph-N2-HSO4-B3LYPG-aug-cc-pVDZ-scan-d09-49-n400
 OpenBabel12261916563D

 23 22  0  0  0  0  0  0  0  0999 V2000
   -0.2436   -0.5693    0.7626 C   0  0  0  0  0  0  0  0  0  0  0  0
    0.8865   -0.6015   -0.0622 C   0  0  0  0  0  0  0  0  0  0  0  0
    1.4781    0.5917   -0.4607 C   0  0  0  0  0  0  0  0  0  0  0  0
    0.9632    1.8274   -0.0595 C   0  0  0  0  0  0  0  0  0  0  0  0
   -0.1622    1.8610    0.7577 C   0  0  0  0  0  0  0  0  0  0  0  0
   -0.7701    0.6641    1.1753 C   0  0  0  0  0  0  0  0  0  0  0  0
   -0.6988   -1.5078    1.0681 H   0  0  0  0  0  0  0  0  0  0  0  0
    1.3056   -1.5505   -0.3903 H   0  0  0  0  0  0  0  0  0  0  0  0
    1.4372    2.7452   -0.4015 H   0  0  0  0  0  0  0  0  0  0  0  0
   -0.5920    2.8081    1.0805 H   0  0  0  0  0  0  0  0  0  0  0  0
    2.7971    4.0550   -2.6186 N   0  0  0  0  0  0  0  0  0  0  0  0
    3.4001    4.2875   -3.5137 N   0  0  0  0  0  0  0  0  0  0  0  0
   -1.8662    0.8069    1.9743 O   0  0  0  0  0  0  0  0  0  0  0  0
   -2.5355   -0.3693    2.4211 C   0  0  0  0  0  0  0  0  0  0  0  0
   -2.9217   -0.9540    1.5723 H   0  0  0  0  0  0  0  0  0  0  0  0
   -3.3717   -0.0194    3.0337 H   0  0  0  0  0  0  0  0  0  0  0  0
   -1.8705   -0.9981    3.0325 H   0  0  0  0  0  0  0  0  0  0  0  0
    4.0847    0.3161   -0.7407 S   0  0  0  0  0  0  0  0  0  0  0  0
    2.5656    0.5761   -1.3593 O   0  0  0  0  0  0  0  0  0  0  0  0
    4.0697   -0.8307    0.1855 O   0  0  0  0  0  0  0  0  0  0  0  0
    4.9704    0.4158   -1.8970 O   0  0  0  0  0  0  0  0  0  0  0  0
    4.3090    1.6779    0.1673 O   0  0  0  0  0  0  0  0  0  0  0  0
    4.1500    1.4287    1.0934 H   0  0  0  0  0  0  0  0  0  0  0  0
  1  7  1  0  0  0  0
  1  6  2  0  0  0  0
  2  1  1  0  0  0  0
  3  2  2  0  0  0  0
  3  4  1  0  0  0  0
  4  5  2  0  0  0  0
  5 10  1  0  0  0  0
  5  6  1  0  0  0  0
  6 13  1  0  0  0  0
  8  2  1  0  0  0  0
  9  4  1  0  0  0  0
 12 11  3  0  0  0  0
 13 14  1  0  0  0  0
 14 17  1  0  0  0  0
 14 16  1  0  0  0  0
 15 14  1  0  0  0  0
 18 22  1  0  0  0  0
 18 20  2  0  0  0  0
 19 18  1  0  0  0  0
 19  3  1  0  0  0  0
 21 18  2  0  0  0  0
 22 23  1  0  0  0  0
M  END
