Coordinates from ORCA-job p-CH3O-Ph-N2-HSO4-B3LYPG-aug-cc-pVDZ-scan-d09-49-n400
 OpenBabel12261916563D

 23 22  0  0  0  0  0  0  0  0999 V2000
   -0.2475   -0.6038    0.8080 C   0  0  0  0  0  0  0  0  0  0  0  0
    0.8827   -0.6566   -0.0161 C   0  0  0  0  0  0  0  0  0  0  0  0
    1.4598    0.5266   -0.4609 C   0  0  0  0  0  0  0  0  0  0  0  0
    0.9323    1.7723   -0.1083 C   0  0  0  0  0  0  0  0  0  0  0  0
   -0.1930    1.8257    0.7077 C   0  0  0  0  0  0  0  0  0  0  0  0
   -0.7875    0.6391    1.1721 C   0  0  0  0  0  0  0  0  0  0  0  0
   -0.6924   -1.5343    1.1505 H   0  0  0  0  0  0  0  0  0  0  0  0
    1.3117   -1.6131   -0.3073 H   0  0  0  0  0  0  0  0  0  0  0  0
    1.3978    2.6818   -0.4843 H   0  0  0  0  0  0  0  0  0  0  0  0
   -0.6331    2.7799    0.9940 H   0  0  0  0  0  0  0  0  0  0  0  0
    2.9370    4.3744   -2.6976 N   0  0  0  0  0  0  0  0  0  0  0  0
    3.5678    4.6458   -3.5622 N   0  0  0  0  0  0  0  0  0  0  0  0
   -1.8849    0.8011    1.9656 O   0  0  0  0  0  0  0  0  0  0  0  0
   -2.5404   -0.3639    2.4597 C   0  0  0  0  0  0  0  0  0  0  0  0
   -2.9209   -0.9861    1.6354 H   0  0  0  0  0  0  0  0  0  0  0  0
   -3.3798    0.0006    3.0592 H   0  0  0  0  0  0  0  0  0  0  0  0
   -1.8677   -0.9604    3.0946 H   0  0  0  0  0  0  0  0  0  0  0  0
    4.0686    0.2663   -0.7395 S   0  0  0  0  0  0  0  0  0  0  0  0
    2.5464    0.4958   -1.3621 O   0  0  0  0  0  0  0  0  0  0  0  0
    4.0654   -0.8550    0.2176 O   0  0  0  0  0  0  0  0  0  0  0  0
    4.9519    0.3422   -1.8996 O   0  0  0  0  0  0  0  0  0  0  0  0
    4.2819    1.6542    0.1309 O   0  0  0  0  0  0  0  0  0  0  0  0
    4.1287    1.4283    1.0638 H   0  0  0  0  0  0  0  0  0  0  0  0
  1  7  1  0  0  0  0
  1  6  1  0  0  0  0
  2  1  2  0  0  0  0
  3  4  2  0  0  0  0
  3  2  1  0  0  0  0
  4  5  1  0  0  0  0
  5 10  1  0  0  0  0
  5  6  2  0  0  0  0
  6 13  1  0  0  0  0
  8  2  1  0  0  0  0
  9  4  1  0  0  0  0
 12 11  3  0  0  0  0
 13 14  1  0  0  0  0
 14 16  1  0  0  0  0
 14 17  1  0  0  0  0
 15 14  1  0  0  0  0
 18 22  1  0  0  0  0
 18 20  2  0  0  0  0
 19 18  1  0  0  0  0
 19  3  1  0  0  0  0
 21 18  2  0  0  0  0
 22 23  1  0  0  0  0
M  END
