Coordinates from ORCA-job p-CH3O-Ph-N2-HSO4-B3LYPG-aug-cc-pVDZ-scan-d09-49-n400
 OpenBabel12261916563D

 23 21  0  0  0  0  0  0  0  0999 V2000
   -0.0202    0.1915    0.8899 C   0  0  0  0  0  0  0  0  0  0  0  0
    0.9939    0.8512    0.1541 C   0  0  0  0  0  0  0  0  0  0  0  0
    0.7000    2.0056   -0.2638 C   0  0  0  0  0  0  0  0  0  0  0  0
   -0.3641    2.8666   -0.2290 C   0  0  0  0  0  0  0  0  0  0  0  0
   -1.3845    2.2269    0.4982 C   0  0  0  0  0  0  0  0  0  0  0  0
   -1.2210    0.9246    1.0444 C   0  0  0  0  0  0  0  0  0  0  0  0
    0.1071   -0.8057    1.3028 H   0  0  0  0  0  0  0  0  0  0  0  0
    2.5487   -0.1598   -0.0838 H   0  0  0  0  0  0  0  0  0  0  0  0
   -0.4535    3.8583   -0.6612 H   0  0  0  0  0  0  0  0  0  0  0  0
   -2.3357    2.7356    0.6540 H   0  0  0  0  0  0  0  0  0  0  0  0
    2.4148    3.5492   -1.6939 N   0  0  0  0  0  0  0  0  0  0  0  0
    3.3867    3.8108   -2.1470 N   0  0  0  0  0  0  0  0  0  0  0  0
   -2.3123    0.4577    1.7175 O   0  0  0  0  0  0  0  0  0  0  0  0
   -2.2429   -0.8439    2.2959 C   0  0  0  0  0  0  0  0  0  0  0  0
   -2.0790   -1.6122    1.5252 H   0  0  0  0  0  0  0  0  0  0  0  0
   -3.2131   -1.0065    2.7744 H   0  0  0  0  0  0  0  0  0  0  0  0
   -1.4453   -0.9000    3.0521 H   0  0  0  0  0  0  0  0  0  0  0  0
    4.5020   -0.3739   -1.0367 S   0  0  0  0  0  0  0  0  0  0  0  0
    4.0033    0.4520   -2.1431 O   0  0  0  0  0  0  0  0  0  0  0  0
    3.2726   -0.8559   -0.0935 O   0  0  0  0  0  0  0  0  0  0  0  0
    5.3534   -1.5571   -1.2205 O   0  0  0  0  0  0  0  0  0  0  0  0
    5.3001    0.6872   -0.0473 O   0  0  0  0  0  0  0  0  0  0  0  0
    5.8737    0.1585    0.5326 H   0  0  0  0  0  0  0  0  0  0  0  0
  1  6  1  0  0  0  0
  1  7  1  0  0  0  0
  2  1  2  0  0  0  0
  3  4  2  0  0  0  0
  3  2  1  0  0  0  0
  4  5  1  0  0  0  0
  5 10  1  0  0  0  0
  5  6  2  0  0  0  0
  6 13  1  0  0  0  0
  9  4  1  0  0  0  0
 12 11  3  0  0  0  0
 13 14  1  0  0  0  0
 14 16  1  0  0  0  0
 14 17  1  0  0  0  0
 15 14  1  0  0  0  0
 18 20  1  0  0  0  0
 18 22  1  0  0  0  0
 19 18  2  0  0  0  0
 20  8  1  0  0  0  0
 21 18  2  0  0  0  0
 22 23  1  0  0  0  0
M  RAD  2   2   2   3   2
M  END
