Coordinates from ORCA-job p-CH3O-Ph-N2-HSO4-B3LYPG-aug-cc-pVDZ-scan-d09-49-n400
 OpenBabel12261916563D

 23 22  0  0  0  0  0  0  0  0999 V2000
   -0.2565    0.0202   -0.3324 C   0  0  0  0  0  0  0  0  0  0  0  0
    0.2556    0.4405   -1.5305 C   0  0  0  0  0  0  0  0  0  0  0  0
    0.7256    1.7826   -1.6671 C   0  0  0  0  0  0  0  0  0  0  0  0
    0.6638    2.6908   -0.5629 C   0  0  0  0  0  0  0  0  0  0  0  0
    0.1469    2.2589    0.6250 C   0  0  0  0  0  0  0  0  0  0  0  0
   -0.2863    0.9106    0.7747 C   0  0  0  0  0  0  0  0  0  0  0  0
   -0.5757   -1.0108   -0.2220 H   0  0  0  0  0  0  0  0  0  0  0  0
    0.3370   -0.2383   -2.3767 H   0  0  0  0  0  0  0  0  0  0  0  0
    1.0553    3.6997   -0.6782 H   0  0  0  0  0  0  0  0  0  0  0  0
    0.1134    2.9107    1.4948 H   0  0  0  0  0  0  0  0  0  0  0  0
    1.2813    2.1455   -2.7510 N   0  0  0  0  0  0  0  0  0  0  0  0
    1.7808    2.4659   -3.7121 N   0  0  0  0  0  0  0  0  0  0  0  0
   -0.7553    0.5985    1.9681 O   0  0  0  0  0  0  0  0  0  0  0  0
   -0.9792   -0.7887    2.3062 C   0  0  0  0  0  0  0  0  0  0  0  0
   -1.8156   -1.1930    1.7204 H   0  0  0  0  0  0  0  0  0  0  0  0
   -1.2396   -0.7796    3.3670 H   0  0  0  0  0  0  0  0  0  0  0  0
   -0.0511   -1.3467    2.1395 H   0  0  0  0  0  0  0  0  0  0  0  0
    3.2663    0.0431    0.7997 S   0  0  0  0  0  0  0  0  0  0  0  0
    3.0120    0.4691   -0.6202 O   0  0  0  0  0  0  0  0  0  0  0  0
    1.9996   -0.3652    1.5122 O   0  0  0  0  0  0  0  0  0  0  0  0
    4.4375   -0.8536    1.0182 O   0  0  0  0  0  0  0  0  0  0  0  0
    3.7055    1.4981    1.5719 O   0  0  0  0  0  0  0  0  0  0  0  0
    4.5635    1.3023    1.9766 H   0  0  0  0  0  0  0  0  0  0  0  0
  1  7  1  0  0  0  0
  1  6  2  0  0  0  0
  2  1  1  0  0  0  0
  3  2  2  0  0  0  0
  3  4  1  0  0  0  0
  4  5  2  0  0  0  0
  5  6  1  0  0  0  0
  5 10  1  0  0  0  0
  6 13  1  0  0  0  0
  8  2  1  0  0  0  0
  9  4  1  0  0  0  0
 11  3  1  0  0  0  0
 12 11  1  0  0  0  0
 13 14  1  0  0  0  0
 14 16  1  0  0  0  0
 15 14  1  0  0  0  0
 17 14  1  0  0  0  0
 18 21  2  0  0  0  0
 18 20  1  0  0  0  0
 18 22  1  0  0  0  0
 19 18  2  0  0  0  0
 22 23  1  0  0  0  0
M  RAD  3  11   2  12   3  20   2
M  END
