Coordinates from ORCA-job p-CH3O-Ph-N2-HSO4-B3LYPG-aug-cc-pVDZ-scan-d09-49-n400
 OpenBabel12261916563D

 23 21  0  0  0  0  0  0  0  0999 V2000
   -0.0708    0.1103    0.9380 C   0  0  0  0  0  0  0  0  0  0  0  0
    0.9542    0.7433    0.1999 C   0  0  0  0  0  0  0  0  0  0  0  0
    0.7140    1.9001   -0.2366 C   0  0  0  0  0  0  0  0  0  0  0  0
   -0.3298    2.7908   -0.2127 C   0  0  0  0  0  0  0  0  0  0  0  0
   -1.3695    2.1858    0.5166 C   0  0  0  0  0  0  0  0  0  0  0  0
   -1.2484    0.8841    1.0771 C   0  0  0  0  0  0  0  0  0  0  0  0
    0.0256   -0.8858    1.3607 H   0  0  0  0  0  0  0  0  0  0  0  0
    2.5680   -0.2373   -0.1002 H   0  0  0  0  0  0  0  0  0  0  0  0
   -0.3900    3.7807   -0.6540 H   0  0  0  0  0  0  0  0  0  0  0  0
   -2.3064    2.7228    0.6643 H   0  0  0  0  0  0  0  0  0  0  0  0
    2.5947    3.7863   -1.9099 N   0  0  0  0  0  0  0  0  0  0  0  0
    3.5631    4.0675   -2.3587 N   0  0  0  0  0  0  0  0  0  0  0  0
   -2.3574    0.4585    1.7491 O   0  0  0  0  0  0  0  0  0  0  0  0
   -2.3314   -0.8379    2.3423 C   0  0  0  0  0  0  0  0  0  0  0  0
   -2.1877   -1.6196    1.5811 H   0  0  0  0  0  0  0  0  0  0  0  0
   -3.3085   -0.9649    2.8175 H   0  0  0  0  0  0  0  0  0  0  0  0
   -1.5397   -0.9101    3.1034 H   0  0  0  0  0  0  0  0  0  0  0  0
    4.5256   -0.3314   -1.0526 S   0  0  0  0  0  0  0  0  0  0  0  0
    3.9997    0.5327   -2.1155 O   0  0  0  0  0  0  0  0  0  0  0  0
    3.3087   -0.9071   -0.1421 O   0  0  0  0  0  0  0  0  0  0  0  0
    5.4174   -1.4737   -1.2924 O   0  0  0  0  0  0  0  0  0  0  0  0
    5.2807    0.7019   -0.0033 O   0  0  0  0  0  0  0  0  0  0  0  0
    5.8728    0.1640    0.5491 H   0  0  0  0  0  0  0  0  0  0  0  0
  1  6  1  0  0  0  0
  1  7  1  0  0  0  0
  2  1  2  0  0  0  0
  3  4  2  0  0  0  0
  3  2  1  0  0  0  0
  4  5  1  0  0  0  0
  5 10  1  0  0  0  0
  5  6  2  0  0  0  0
  6 13  1  0  0  0  0
  9  4  1  0  0  0  0
 12 11  3  0  0  0  0
 13 14  1  0  0  0  0
 14 16  1  0  0  0  0
 14 17  1  0  0  0  0
 15 14  1  0  0  0  0
 18 20  1  0  0  0  0
 18 22  1  0  0  0  0
 19 18  2  0  0  0  0
 20  8  1  0  0  0  0
 21 18  2  0  0  0  0
 22 23  1  0  0  0  0
M  RAD  2   2   2   3   2
M  END
