Coordinates from ORCA-job p-CH3O-Ph-N2-HSO4-B3LYPG-aug-cc-pVDZ-scan-d09-49-n400
 OpenBabel12261916563D

 23 22  0  0  0  0  0  0  0  0999 V2000
   -0.2459    0.0472   -0.2036 C   0  0  0  0  0  0  0  0  0  0  0  0
    0.4385    0.4498   -1.3329 C   0  0  0  0  0  0  0  0  0  0  0  0
    0.7464    1.8131   -1.4368 C   0  0  0  0  0  0  0  0  0  0  0  0
    0.4045    2.7957   -0.4921 C   0  0  0  0  0  0  0  0  0  0  0  0
   -0.2821    2.3673    0.6235 C   0  0  0  0  0  0  0  0  0  0  0  0
   -0.5534    0.9867    0.8053 C   0  0  0  0  0  0  0  0  0  0  0  0
   -0.4492   -1.0086   -0.0634 H   0  0  0  0  0  0  0  0  0  0  0  0
    0.7780   -0.2625   -2.0769 H   0  0  0  0  0  0  0  0  0  0  0  0
    0.7000    3.8342   -0.6197 H   0  0  0  0  0  0  0  0  0  0  0  0
   -0.5551    3.0625    1.4142 H   0  0  0  0  0  0  0  0  0  0  0  0
    1.6867    2.1934   -2.5029 N   0  0  0  0  0  0  0  0  0  0  0  0
    2.4114    2.4655   -3.3037 N   0  0  0  0  0  0  0  0  0  0  0  0
   -1.0881    0.6600    1.9816 O   0  0  0  0  0  0  0  0  0  0  0  0
   -1.0895   -0.7289    2.3806 C   0  0  0  0  0  0  0  0  0  0  0  0
   -1.8109   -1.2993    1.7795 H   0  0  0  0  0  0  0  0  0  0  0  0
   -1.4068   -0.7213    3.4262 H   0  0  0  0  0  0  0  0  0  0  0  0
   -0.0756   -1.1372    2.2854 H   0  0  0  0  0  0  0  0  0  0  0  0
    3.4052   -0.1544    0.4906 S   0  0  0  0  0  0  0  0  0  0  0  0
    3.0798    0.0726   -0.9659 O   0  0  0  0  0  0  0  0  0  0  0  0
    2.1920   -0.4797    1.3187 O   0  0  0  0  0  0  0  0  0  0  0  0
    4.6113   -0.9870    0.7642 O   0  0  0  0  0  0  0  0  0  0  0  0
    3.8564    1.4170    0.9928 O   0  0  0  0  0  0  0  0  0  0  0  0
    4.6313    1.2746    1.5564 H   0  0  0  0  0  0  0  0  0  0  0  0
  1  7  1  0  0  0  0
  1  6  2  0  0  0  0
  2  1  1  0  0  0  0
  3  2  2  0  0  0  0
  3  4  1  0  0  0  0
  4  5  2  0  0  0  0
  5  6  1  0  0  0  0
  5 10  1  0  0  0  0
  6 13  1  0  0  0  0
  8  2  1  0  0  0  0
  9  4  1  0  0  0  0
 11  3  1  0  0  0  0
 12 11  1  0  0  0  0
 13 14  1  0  0  0  0
 14 16  1  0  0  0  0
 15 14  1  0  0  0  0
 17 14  1  0  0  0  0
 18 21  2  0  0  0  0
 18 22  1  0  0  0  0
 18 20  1  0  0  0  0
 19 18  2  0  0  0  0
 22 23  1  0  0  0  0
M  RAD  3  11   2  12   3  20   2
M  END
