Coordinates from ORCA-job p-CH3O-Ph-N2-HSO4-B3LYPG-aug-cc-pVDZ-scan-d09-49-n400
 OpenBabel12261916563D

 23 21  0  0  0  0  0  0  0  0999 V2000
    0.0404    0.2184    1.0263 C   0  0  0  0  0  0  0  0  0  0  0  0
    1.2019    0.7765    0.4125 C   0  0  0  0  0  0  0  0  0  0  0  0
    0.8592    1.9203   -0.1334 C   0  0  0  0  0  0  0  0  0  0  0  0
   -0.2092    2.7339   -0.3179 C   0  0  0  0  0  0  0  0  0  0  0  0
   -1.3191    2.1322    0.3031 C   0  0  0  0  0  0  0  0  0  0  0  0
   -1.1959    0.8895    0.9679 C   0  0  0  0  0  0  0  0  0  0  0  0
    0.1585   -0.7441    1.5186 H   0  0  0  0  0  0  0  0  0  0  0  0
    2.2312    0.2135    0.4040 H   0  0  0  0  0  0  0  0  0  0  0  0
   -0.2449    3.6830   -0.8419 H   0  0  0  0  0  0  0  0  0  0  0  0
   -2.2858    2.6330    0.2702 H   0  0  0  0  0  0  0  0  0  0  0  0
    2.6448    3.0642   -1.1074 N   0  0  0  0  0  0  0  0  0  0  0  0
    3.4644    3.6537   -1.5508 N   0  0  0  0  0  0  0  0  0  0  0  0
   -2.3416    0.4227    1.5213 O   0  0  0  0  0  0  0  0  0  0  0  0
   -2.3064   -0.8376    2.1991 C   0  0  0  0  0  0  0  0  0  0  0  0
   -2.0144   -1.6445    1.5115 H   0  0  0  0  0  0  0  0  0  0  0  0
   -3.3265   -1.0068    2.5538 H   0  0  0  0  0  0  0  0  0  0  0  0
   -1.6173   -0.8034    3.0554 H   0  0  0  0  0  0  0  0  0  0  0  0
    4.2309   -0.3064   -0.9719 S   0  0  0  0  0  0  0  0  0  0  0  0
    3.3213    0.3700   -1.9402 O   0  0  0  0  0  0  0  0  0  0  0  0
    3.5226   -0.5557    0.3739 O   0  0  0  0  0  0  0  0  0  0  0  0
    5.0283   -1.4750   -1.4185 O   0  0  0  0  0  0  0  0  0  0  0  0
    5.3606    0.8969   -0.6120 O   0  0  0  0  0  0  0  0  0  0  0  0
    6.1823    0.4267   -0.4025 H   0  0  0  0  0  0  0  0  0  0  0  0
  1  7  1  0  0  0  0
  2  1  2  0  0  0  0
  3  2  1  0  0  0  0
  4  3  2  0  0  0  0
  4  5  1  0  0  0  0
  5  6  2  0  0  0  0
  6  1  1  0  0  0  0
  6 13  1  0  0  0  0
  8  2  1  0  0  0  0
  9  4  1  0  0  0  0
 10  5  1  0  0  0  0
 12 11  3  0  0  0  0
 13 14  1  0  0  0  0
 14 16  1  0  0  0  0
 14 17  1  0  0  0  0
 15 14  1  0  0  0  0
 18 22  1  0  0  0  0
 18 20  1  0  0  0  0
 19 18  2  0  0  0  0
 21 18  2  0  0  0  0
 22 23  1  0  0  0  0
M  RAD  2   3   2  20   2
M  END
