Coordinates from ORCA-job p-CH3O-Ph-N2-HSO4-B3LYPG-aug-cc-pVDZ-scan-d09-49-n400
 OpenBabel12261916563D

 23 21  0  0  0  0  0  0  0  0999 V2000
    0.0390    0.2099    1.0235 C   0  0  0  0  0  0  0  0  0  0  0  0
    1.1971    0.7713    0.4013 C   0  0  0  0  0  0  0  0  0  0  0  0
    0.8460    1.9110   -0.1347 C   0  0  0  0  0  0  0  0  0  0  0  0
   -0.2155    2.7325   -0.3158 C   0  0  0  0  0  0  0  0  0  0  0  0
   -1.3221    2.1285    0.3115 C   0  0  0  0  0  0  0  0  0  0  0  0
   -1.1964    0.8838    0.9732 C   0  0  0  0  0  0  0  0  0  0  0  0
    0.1588   -0.7537    1.5131 H   0  0  0  0  0  0  0  0  0  0  0  0
    2.2387    0.1958    0.3834 H   0  0  0  0  0  0  0  0  0  0  0  0
   -0.2520    3.6831   -0.8368 H   0  0  0  0  0  0  0  0  0  0  0  0
   -2.2885    2.6307    0.2863 H   0  0  0  0  0  0  0  0  0  0  0  0
    2.6807    3.1415   -1.1561 N   0  0  0  0  0  0  0  0  0  0  0  0
    3.5006    3.7182   -1.6159 N   0  0  0  0  0  0  0  0  0  0  0  0
   -2.3403    0.4178    1.5326 O   0  0  0  0  0  0  0  0  0  0  0  0
   -2.3027   -0.8436    2.2077 C   0  0  0  0  0  0  0  0  0  0  0  0
   -2.0159   -1.6498    1.5171 H   0  0  0  0  0  0  0  0  0  0  0  0
   -3.3208   -1.0122    2.5685 H   0  0  0  0  0  0  0  0  0  0  0  0
   -1.6083   -0.8121    3.0600 H   0  0  0  0  0  0  0  0  0  0  0  0
    4.2253   -0.3074   -0.9762 S   0  0  0  0  0  0  0  0  0  0  0  0
    3.3434    0.3833   -1.9568 O   0  0  0  0  0  0  0  0  0  0  0  0
    3.4810   -0.5665    0.3538 O   0  0  0  0  0  0  0  0  0  0  0  0
    5.0206   -1.4827   -1.4061 O   0  0  0  0  0  0  0  0  0  0  0  0
    5.3531    0.8800   -0.5743 O   0  0  0  0  0  0  0  0  0  0  0  0
    6.1628    0.4013   -0.3383 H   0  0  0  0  0  0  0  0  0  0  0  0
  1  7  1  0  0  0  0
  2  1  2  0  0  0  0
  3  2  1  0  0  0  0
  4  3  2  0  0  0  0
  4  5  1  0  0  0  0
  5  6  2  0  0  0  0
  6  1  1  0  0  0  0
  6 13  1  0  0  0  0
  8  2  1  0  0  0  0
  9  4  1  0  0  0  0
 10  5  1  0  0  0  0
 12 11  3  0  0  0  0
 13 14  1  0  0  0  0
 14 16  1  0  0  0  0
 14 17  1  0  0  0  0
 15 14  1  0  0  0  0
 18 22  1  0  0  0  0
 18 20  1  0  0  0  0
 19 18  2  0  0  0  0
 21 18  2  0  0  0  0
 22 23  1  0  0  0  0
M  RAD  2   3   2  20   2
M  END
