Coordinates from ORCA-job p-CH3O-Ph-N2-HSO4-B3LYPG-aug-cc-pVDZ-scan-d09-49-n400
 OpenBabel12261916563D

 23 22  0  0  0  0  0  0  0  0999 V2000
   -0.2329    0.0057   -0.3546 C   0  0  0  0  0  0  0  0  0  0  0  0
    0.2480    0.4257   -1.5538 C   0  0  0  0  0  0  0  0  0  0  0  0
    0.7801    1.7811   -1.7514 C   0  0  0  0  0  0  0  0  0  0  0  0
    0.7664    2.6467   -0.5613 C   0  0  0  0  0  0  0  0  0  0  0  0
    0.2726    2.2165    0.6256 C   0  0  0  0  0  0  0  0  0  0  0  0
   -0.2081    0.8802    0.7720 C   0  0  0  0  0  0  0  0  0  0  0  0
   -0.5858   -1.0158   -0.2522 H   0  0  0  0  0  0  0  0  0  0  0  0
    0.2740   -0.2347   -2.4196 H   0  0  0  0  0  0  0  0  0  0  0  0
    1.1918    3.6426   -0.6793 H   0  0  0  0  0  0  0  0  0  0  0  0
    0.2919    2.8550    1.5060 H   0  0  0  0  0  0  0  0  0  0  0  0
    1.1570    2.0881   -2.6371 N   0  0  0  0  0  0  0  0  0  0  0  0
    1.5866    2.4399   -3.6493 N   0  0  0  0  0  0  0  0  0  0  0  0
   -0.6999    0.5845    1.9533 O   0  0  0  0  0  0  0  0  0  0  0  0
   -0.9974   -0.7915    2.2865 C   0  0  0  0  0  0  0  0  0  0  0  0
   -1.8457   -1.1511    1.6897 H   0  0  0  0  0  0  0  0  0  0  0  0
   -1.2681   -0.7702    3.3442 H   0  0  0  0  0  0  0  0  0  0  0  0
   -0.0965   -1.3940    2.1283 H   0  0  0  0  0  0  0  0  0  0  0  0
    3.2396    0.1017    0.8131 S   0  0  0  0  0  0  0  0  0  0  0  0
    3.0210    0.5513   -0.6039 O   0  0  0  0  0  0  0  0  0  0  0  0
    1.9524   -0.3400    1.4748 O   0  0  0  0  0  0  0  0  0  0  0  0
    4.4109   -0.7853    1.0527 O   0  0  0  0  0  0  0  0  0  0  0  0
    3.6198    1.5393    1.6399 O   0  0  0  0  0  0  0  0  0  0  0  0
    4.5069    1.3850    1.9975 H   0  0  0  0  0  0  0  0  0  0  0  0
  1  7  1  0  0  0  0
  1  6  2  0  0  0  0
  2  1  1  0  0  0  0
  3  2  2  0  0  0  0
  3  4  1  0  0  0  0
  4  5  2  0  0  0  0
  5  6  1  0  0  0  0
  5 10  1  0  0  0  0
  6 13  1  0  0  0  0
  8  2  1  0  0  0  0
  9  4  1  0  0  0  0
 11  3  1  0  0  0  0
 12 11  1  0  0  0  0
 13 14  1  0  0  0  0
 14 16  1  0  0  0  0
 15 14  1  0  0  0  0
 17 14  1  0  0  0  0
 18 21  2  0  0  0  0
 18 20  1  0  0  0  0
 18 22  1  0  0  0  0
 19 18  2  0  0  0  0
 22 23  1  0  0  0  0
M  RAD  3  11   2  12   3  20   2
M  END
