Coordinates from ORCA-job p-CH3O-Ph-N2-HSO4-B3LYPG-aug-cc-pVDZ-scan-d09-49-n400
 OpenBabel12261916563D

 23 21  0  0  0  0  0  0  0  0999 V2000
   -0.0634    0.1241    0.9306 C   0  0  0  0  0  0  0  0  0  0  0  0
    0.9587    0.7631    0.1933 C   0  0  0  0  0  0  0  0  0  0  0  0
    0.7107    1.9196   -0.2406 C   0  0  0  0  0  0  0  0  0  0  0  0
   -0.3377    2.8045   -0.2145 C   0  0  0  0  0  0  0  0  0  0  0  0
   -1.3739    2.1929    0.5142 C   0  0  0  0  0  0  0  0  0  0  0  0
   -1.2453    0.8909    1.0721 C   0  0  0  0  0  0  0  0  0  0  0  0
    0.0385   -0.8723    1.3515 H   0  0  0  0  0  0  0  0  0  0  0  0
    2.5674   -0.2219   -0.0972 H   0  0  0  0  0  0  0  0  0  0  0  0
   -0.4032    3.7948   -0.6541 H   0  0  0  0  0  0  0  0  0  0  0  0
   -2.3135    2.7245    0.6632 H   0  0  0  0  0  0  0  0  0  0  0  0
    2.5661    3.7494   -1.8739 N   0  0  0  0  0  0  0  0  0  0  0  0
    3.5380    4.0197   -2.3218 N   0  0  0  0  0  0  0  0  0  0  0  0
   -2.3515    0.4578    1.7439 O   0  0  0  0  0  0  0  0  0  0  0  0
   -2.3179   -0.8397    2.3345 C   0  0  0  0  0  0  0  0  0  0  0  0
   -2.1703   -1.6190    1.5716 H   0  0  0  0  0  0  0  0  0  0  0  0
   -3.2940   -0.9730    2.8099 H   0  0  0  0  0  0  0  0  0  0  0  0
   -1.5253   -0.9090    3.0949 H   0  0  0  0  0  0  0  0  0  0  0  0
    4.5236   -0.3397   -1.0509 S   0  0  0  0  0  0  0  0  0  0  0  0
    4.0018    0.5157   -2.1228 O   0  0  0  0  0  0  0  0  0  0  0  0
    3.3044   -0.8967   -0.1320 O   0  0  0  0  0  0  0  0  0  0  0  0
    5.4076   -1.4905   -1.2790 O   0  0  0  0  0  0  0  0  0  0  0  0
    5.2873    0.7005   -0.0147 O   0  0  0  0  0  0  0  0  0  0  0  0
    5.8766    0.1651    0.5429 H   0  0  0  0  0  0  0  0  0  0  0  0
  1  6  1  0  0  0  0
  1  7  1  0  0  0  0
  2  1  2  0  0  0  0
  3  4  2  0  0  0  0
  3  2  1  0  0  0  0
  4  5  1  0  0  0  0
  5 10  1  0  0  0  0
  5  6  2  0  0  0  0
  6 13  1  0  0  0  0
  9  4  1  0  0  0  0
 12 11  3  0  0  0  0
 13 14  1  0  0  0  0
 14 16  1  0  0  0  0
 14 17  1  0  0  0  0
 15 14  1  0  0  0  0
 18 20  1  0  0  0  0
 18 22  1  0  0  0  0
 19 18  2  0  0  0  0
 20  8  1  0  0  0  0
 21 18  2  0  0  0  0
 22 23  1  0  0  0  0
M  RAD  2   2   2   3   2
M  END
