Coordinates from ORCA-job p-CH3O-Ph-N2-HSO4-B3LYPG-aug-cc-pVDZ-scan-d09-49-n400
 OpenBabel12261916563D

 23 21  0  0  0  0  0  0  0  0999 V2000
   -0.1073    0.0393    0.9701 C   0  0  0  0  0  0  0  0  0  0  0  0
    0.9341    0.6361    0.2271 C   0  0  0  0  0  0  0  0  0  0  0  0
    0.7355    1.7953   -0.2217 C   0  0  0  0  0  0  0  0  0  0  0  0
   -0.2821    2.7172   -0.2054 C   0  0  0  0  0  0  0  0  0  0  0  0
   -1.3397    2.1511    0.5292 C   0  0  0  0  0  0  0  0  0  0  0  0
   -1.2599    0.8516    1.1014 C   0  0  0  0  0  0  0  0  0  0  0  0
   -0.0420   -0.9555    1.4017 H   0  0  0  0  0  0  0  0  0  0  0  0
    2.5732   -0.3159   -0.1210 H   0  0  0  0  0  0  0  0  0  0  0  0
   -0.3132    3.7049   -0.6549 H   0  0  0  0  0  0  0  0  0  0  0  0
   -2.2595    2.7181    0.6719 H   0  0  0  0  0  0  0  0  0  0  0  0
    2.7020    3.9815   -2.0949 N   0  0  0  0  0  0  0  0  0  0  0  0
    3.6540    4.3180   -2.5412 N   0  0  0  0  0  0  0  0  0  0  0  0
   -2.3822    0.4670    1.7763 O   0  0  0  0  0  0  0  0  0  0  0  0
   -2.3973   -0.8241    2.3811 C   0  0  0  0  0  0  0  0  0  0  0  0
   -2.2779   -1.6168    1.6271 H   0  0  0  0  0  0  0  0  0  0  0  0
   -3.3781   -0.9159    2.8567 H   0  0  0  0  0  0  0  0  0  0  0  0
   -1.6086   -0.9143    3.1434 H   0  0  0  0  0  0  0  0  0  0  0  0
    4.5391   -0.2908   -1.0569 S   0  0  0  0  0  0  0  0  0  0  0  0
    3.9983    0.6215   -2.0707 O   0  0  0  0  0  0  0  0  0  0  0  0
    3.3310   -0.9607   -0.2003 O   0  0  0  0  0  0  0  0  0  0  0  0
    5.4686   -1.3881   -1.3559 O   0  0  0  0  0  0  0  0  0  0  0  0
    5.2485    0.6974    0.0649 O   0  0  0  0  0  0  0  0  0  0  0  0
    5.8482    0.1438    0.5931 H   0  0  0  0  0  0  0  0  0  0  0  0
  1  6  1  0  0  0  0
  1  7  1  0  0  0  0
  2  1  2  0  0  0  0
  3  4  2  0  0  0  0
  3  2  1  0  0  0  0
  4  5  1  0  0  0  0
  5 10  1  0  0  0  0
  5  6  2  0  0  0  0
  6 13  1  0  0  0  0
  9  4  1  0  0  0  0
 12 11  3  0  0  0  0
 13 14  1  0  0  0  0
 14 16  1  0  0  0  0
 14 17  1  0  0  0  0
 15 14  1  0  0  0  0
 18 20  1  0  0  0  0
 18 22  1  0  0  0  0
 19 18  2  0  0  0  0
 20  8  1  0  0  0  0
 21 18  2  0  0  0  0
 22 23  1  0  0  0  0
M  RAD  2   2   2   3   2
M  END
