Coordinates from ORCA-job p-CH3O-Ph-N2-HSO4-B3LYPG-aug-cc-pVDZ-scan-d09-49-n400
 OpenBabel12261916563D

 23 22  0  0  0  0  0  0  0  0999 V2000
    0.0188    0.1724    1.0280 C   0  0  0  0  0  0  0  0  0  0  0  0
    1.1876    0.6386    0.4205 C   0  0  0  0  0  0  0  0  0  0  0  0
    1.0691    1.8566   -0.2124 C   0  0  0  0  0  0  0  0  0  0  0  0
   -0.0623    2.6587   -0.3233 C   0  0  0  0  0  0  0  0  0  0  0  0
   -1.2066    2.1606    0.2827 C   0  0  0  0  0  0  0  0  0  0  0  0
   -1.1730    0.9193    0.9586 C   0  0  0  0  0  0  0  0  0  0  0  0
    0.0591   -0.7832    1.5432 H   0  0  0  0  0  0  0  0  0  0  0  0
    2.1292    0.0736    0.4439 H   0  0  0  0  0  0  0  0  0  0  0  0
   -0.0594    3.6084   -0.8523 H   0  0  0  0  0  0  0  0  0  0  0  0
   -2.1416    2.7158    0.2429 H   0  0  0  0  0  0  0  0  0  0  0  0
    2.4010    2.4883   -0.9124 N   0  0  0  0  0  0  0  0  0  0  0  0
    3.1613    3.1825   -1.3194 N   0  0  0  0  0  0  0  0  0  0  0  0
   -2.3434    0.5352    1.5068 O   0  0  0  0  0  0  0  0  0  0  0  0
   -2.4052   -0.7175    2.2021 C   0  0  0  0  0  0  0  0  0  0  0  0
   -2.1637   -1.5504    1.5273 H   0  0  0  0  0  0  0  0  0  0  0  0
   -3.4389   -0.8071    2.5457 H   0  0  0  0  0  0  0  0  0  0  0  0
   -1.7250   -0.7188    3.0652 H   0  0  0  0  0  0  0  0  0  0  0  0
    4.3404   -0.2587   -0.9838 S   0  0  0  0  0  0  0  0  0  0  0  0
    3.2036    0.3291   -1.7916 O   0  0  0  0  0  0  0  0  0  0  0  0
    3.8683   -0.7916    0.3413 O   0  0  0  0  0  0  0  0  0  0  0  0
    5.3087   -1.1063   -1.7255 O   0  0  0  0  0  0  0  0  0  0  0  0
    5.2130    1.1615   -0.5908 O   0  0  0  0  0  0  0  0  0  0  0  0
    6.1439    0.8937   -0.5756 H   0  0  0  0  0  0  0  0  0  0  0  0
  1  7  1  0  0  0  0
  2  8  1  0  0  0  0
  2  1  2  0  0  0  0
  3  2  1  0  0  0  0
  4  3  2  0  0  0  0
  4  5  1  0  0  0  0
  5  6  2  0  0  0  0
  6  1  1  0  0  0  0
  6 13  1  0  0  0  0
  9  4  1  0  0  0  0
 10  5  1  0  0  0  0
 11  3  1  0  0  0  0
 12 11  1  0  0  0  0
 13 14  1  0  0  0  0
 14 16  1  0  0  0  0
 14 17  1  0  0  0  0
 15 14  1  0  0  0  0
 18 22  1  0  0  0  0
 18 20  1  0  0  0  0
 19 18  2  0  0  0  0
 21 18  2  0  0  0  0
 22 23  1  0  0  0  0
M  RAD  3  11   2  12   3  20   2
M  END
