Coordinates from ORCA-job p-CH3O-Ph-N2-HSO4-B3LYPG-aug-cc-pVDZ-scan-d09-49-n400
 OpenBabel12261916563D

 23 22  0  0  0  0  0  0  0  0999 V2000
    0.0092    0.1822    1.0319 C   0  0  0  0  0  0  0  0  0  0  0  0
    1.1851    0.6679    0.4243 C   0  0  0  0  0  0  0  0  0  0  0  0
    0.9740    1.8615   -0.1725 C   0  0  0  0  0  0  0  0  0  0  0  0
   -0.1169    2.6778   -0.3271 C   0  0  0  0  0  0  0  0  0  0  0  0
   -1.2545    2.1463    0.2860 C   0  0  0  0  0  0  0  0  0  0  0  0
   -1.1952    0.9071    0.9616 C   0  0  0  0  0  0  0  0  0  0  0  0
    0.0733   -0.7742    1.5442 H   0  0  0  0  0  0  0  0  0  0  0  0
    2.1499    0.1183    0.4431 H   0  0  0  0  0  0  0  0  0  0  0  0
   -0.1199    3.6238   -0.8595 H   0  0  0  0  0  0  0  0  0  0  0  0
   -2.1978    2.6878    0.2427 H   0  0  0  0  0  0  0  0  0  0  0  0
    2.5142    2.6264   -0.9865 N   0  0  0  0  0  0  0  0  0  0  0  0
    3.2372    3.3732   -1.3590 N   0  0  0  0  0  0  0  0  0  0  0  0
   -2.3614    0.4993    1.5113 O   0  0  0  0  0  0  0  0  0  0  0  0
   -2.3934   -0.7547    2.2031 C   0  0  0  0  0  0  0  0  0  0  0  0
   -2.1349   -1.5816    1.5265 H   0  0  0  0  0  0  0  0  0  0  0  0
   -3.4238   -0.8694    2.5495 H   0  0  0  0  0  0  0  0  0  0  0  0
   -1.7114   -0.7438    3.0653 H   0  0  0  0  0  0  0  0  0  0  0  0
    4.3247   -0.2531   -0.9539 S   0  0  0  0  0  0  0  0  0  0  0  0
    3.2636    0.4033   -1.8056 O   0  0  0  0  0  0  0  0  0  0  0  0
    3.7697   -0.6821    0.3845 O   0  0  0  0  0  0  0  0  0  0  0  0
    5.2103   -1.2352   -1.6319 O   0  0  0  0  0  0  0  0  0  0  0  0
    5.3412    1.0629   -0.5833 O   0  0  0  0  0  0  0  0  0  0  0  0
    6.2417    0.7171   -0.6737 H   0  0  0  0  0  0  0  0  0  0  0  0
  1  7  1  0  0  0  0
  2  8  1  0  0  0  0
  2  1  2  0  0  0  0
  3  2  1  0  0  0  0
  4  3  2  0  0  0  0
  4  5  1  0  0  0  0
  5  6  2  0  0  0  0
  6  1  1  0  0  0  0
  6 13  1  0  0  0  0
  9  4  1  0  0  0  0
 10  5  1  0  0  0  0
 11  3  1  0  0  0  0
 12 11  1  0  0  0  0
 13 14  1  0  0  0  0
 14 16  1  0  0  0  0
 14 17  1  0  0  0  0
 15 14  1  0  0  0  0
 18 22  1  0  0  0  0
 18 20  1  0  0  0  0
 19 18  2  0  0  0  0
 21 18  2  0  0  0  0
 23 22  1  0  0  0  0
M  RAD  3  11   2  12   3  20   2
M  END
