Coordinates from ORCA-job p-CH3O-Ph-N2-HSO4-B3LYPG-aug-cc-pVDZ-scan-d09-49-n400
 OpenBabel12261916563D

 23 22  0  0  0  0  0  0  0  0999 V2000
   -0.2467   -0.6191    0.8273 C   0  0  0  0  0  0  0  0  0  0  0  0
    0.8840   -0.6878    0.0052 C   0  0  0  0  0  0  0  0  0  0  0  0
    1.4588    0.4857   -0.4681 C   0  0  0  0  0  0  0  0  0  0  0  0
    0.9276    1.7379   -0.1452 C   0  0  0  0  0  0  0  0  0  0  0  0
   -0.1981    1.8071    0.6694 C   0  0  0  0  0  0  0  0  0  0  0  0
   -0.7900    0.6305    1.1617 C   0  0  0  0  0  0  0  0  0  0  0  0
   -0.6891   -1.5426    1.1914 H   0  0  0  0  0  0  0  0  0  0  0  0
    1.3160   -1.6497   -0.2632 H   0  0  0  0  0  0  0  0  0  0  0  0
    1.3881    2.6420   -0.5399 H   0  0  0  0  0  0  0  0  0  0  0  0
   -0.6405    2.7667    0.9329 H   0  0  0  0  0  0  0  0  0  0  0  0
    2.9429    4.5159   -2.6776 N   0  0  0  0  0  0  0  0  0  0  0  0
    3.5891    4.8285   -3.5165 N   0  0  0  0  0  0  0  0  0  0  0  0
   -1.8881    0.8087    1.9507 O   0  0  0  0  0  0  0  0  0  0  0  0
   -2.5408   -0.3458    2.4724 C   0  0  0  0  0  0  0  0  0  0  0  0
   -2.9193   -0.9885    1.6630 H   0  0  0  0  0  0  0  0  0  0  0  0
   -3.3813    0.0307    3.0627 H   0  0  0  0  0  0  0  0  0  0  0  0
   -1.8667   -0.9253    3.1214 H   0  0  0  0  0  0  0  0  0  0  0  0
    4.0689    0.2312   -0.7377 S   0  0  0  0  0  0  0  0  0  0  0  0
    2.5455    0.4318   -1.3669 O   0  0  0  0  0  0  0  0  0  0  0  0
    4.0714   -0.8605    0.2531 O   0  0  0  0  0  0  0  0  0  0  0  0
    4.9528    0.2771   -1.8988 O   0  0  0  0  0  0  0  0  0  0  0  0
    4.2726    1.6462    0.0924 O   0  0  0  0  0  0  0  0  0  0  0  0
    4.1277    1.4399    1.0313 H   0  0  0  0  0  0  0  0  0  0  0  0
  1  6  1  0  0  0  0
  1  7  1  0  0  0  0
  2  1  2  0  0  0  0
  3  4  2  0  0  0  0
  3  2  1  0  0  0  0
  4  5  1  0  0  0  0
  5 10  1  0  0  0  0
  5  6  2  0  0  0  0
  6 13  1  0  0  0  0
  8  2  1  0  0  0  0
  9  4  1  0  0  0  0
 12 11  3  0  0  0  0
 13 14  1  0  0  0  0
 14 16  1  0  0  0  0
 14 17  1  0  0  0  0
 15 14  1  0  0  0  0
 18 22  1  0  0  0  0
 18 20  2  0  0  0  0
 19 18  1  0  0  0  0
 19  3  1  0  0  0  0
 21 18  2  0  0  0  0
 22 23  1  0  0  0  0
M  END
