Coordinates from ORCA-job p-CH3O-Ph-N2-HSO4-B3LYPG-aug-cc-pVDZ-scan-d09-49-n400
 OpenBabel12261916563D

 23 21  0  0  0  0  0  0  0  0999 V2000
   -0.0043    0.2141    0.8748 C   0  0  0  0  0  0  0  0  0  0  0  0
    1.0076    0.8796    0.1396 C   0  0  0  0  0  0  0  0  0  0  0  0
    0.7031    2.0344   -0.2749 C   0  0  0  0  0  0  0  0  0  0  0  0
   -0.3703    2.8847   -0.2329 C   0  0  0  0  0  0  0  0  0  0  0  0
   -1.3854    2.2376    0.4931 C   0  0  0  0  0  0  0  0  0  0  0  0
   -1.2106    0.9353    1.0346 C   0  0  0  0  0  0  0  0  0  0  0  0
    0.1315   -0.7833    1.2846 H   0  0  0  0  0  0  0  0  0  0  0  0
    2.5368   -0.1428   -0.0748 H   0  0  0  0  0  0  0  0  0  0  0  0
   -0.4673    3.8772   -0.6621 H   0  0  0  0  0  0  0  0  0  0  0  0
   -2.3396    2.7396    0.6511 H   0  0  0  0  0  0  0  0  0  0  0  0
    2.3741    3.4752   -1.6393 N   0  0  0  0  0  0  0  0  0  0  0  0
    3.3453    3.7336   -2.0959 N   0  0  0  0  0  0  0  0  0  0  0  0
   -2.2964    0.4570    1.7083 O   0  0  0  0  0  0  0  0  0  0  0  0
   -2.2152   -0.8463    2.2817 C   0  0  0  0  0  0  0  0  0  0  0  0
   -2.0463   -1.6103    1.5079 H   0  0  0  0  0  0  0  0  0  0  0  0
   -3.1831   -1.0186    2.7614 H   0  0  0  0  0  0  0  0  0  0  0  0
   -1.4157   -0.8986    3.0362 H   0  0  0  0  0  0  0  0  0  0  0  0
    4.4846   -0.3795   -1.0278 S   0  0  0  0  0  0  0  0  0  0  0  0
    3.9837    0.4404   -2.1375 O   0  0  0  0  0  0  0  0  0  0  0  0
    3.2574   -0.8455   -0.0764 O   0  0  0  0  0  0  0  0  0  0  0  0
    5.3311   -1.5669   -1.2074 O   0  0  0  0  0  0  0  0  0  0  0  0
    5.2937    0.6855   -0.0508 O   0  0  0  0  0  0  0  0  0  0  0  0
    5.8703    0.1584    0.5275 H   0  0  0  0  0  0  0  0  0  0  0  0
  1  6  1  0  0  0  0
  1  7  1  0  0  0  0
  2  1  2  0  0  0  0
  3  4  2  0  0  0  0
  3  2  1  0  0  0  0
  4  5  1  0  0  0  0
  5 10  1  0  0  0  0
  5  6  2  0  0  0  0
  6 13  1  0  0  0  0
  9  4  1  0  0  0  0
 12 11  3  0  0  0  0
 13 14  1  0  0  0  0
 14 16  1  0  0  0  0
 14 17  1  0  0  0  0
 15 14  1  0  0  0  0
 18 20  1  0  0  0  0
 18 22  1  0  0  0  0
 19 18  2  0  0  0  0
 20  8  1  0  0  0  0
 21 18  2  0  0  0  0
 22 23  1  0  0  0  0
M  RAD  2   2   2   3   2
M  END
