Coordinates from ORCA-job p-CH3O-Ph-N2-HSO4-B3LYPG-aug-cc-pVDZ-scan-d09-49-n400
 OpenBabel12261916563D

 23 21  0  0  0  0  0  0  0  0999 V2000
   -0.1020    0.0496    0.9658 C   0  0  0  0  0  0  0  0  0  0  0  0
    0.9368    0.6522    0.2235 C   0  0  0  0  0  0  0  0  0  0  0  0
    0.7315    1.8112   -0.2232 C   0  0  0  0  0  0  0  0  0  0  0  0
   -0.2901    2.7285   -0.2051 C   0  0  0  0  0  0  0  0  0  0  0  0
   -1.3450    2.1556    0.5282 C   0  0  0  0  0  0  0  0  0  0  0  0
   -1.2587    0.8557    1.0983 C   0  0  0  0  0  0  0  0  0  0  0  0
   -0.0317   -0.9455    1.3960 H   0  0  0  0  0  0  0  0  0  0  0  0
    2.5705   -0.3054   -0.1182 H   0  0  0  0  0  0  0  0  0  0  0  0
   -0.3259    3.7167   -0.6531 H   0  0  0  0  0  0  0  0  0  0  0  0
   -2.2676    2.7179    0.6719 H   0  0  0  0  0  0  0  0  0  0  0  0
    2.6948    3.9550   -2.0744 N   0  0  0  0  0  0  0  0  0  0  0  0
    3.6491    4.2833   -2.5218 N   0  0  0  0  0  0  0  0  0  0  0  0
   -2.3789    0.4645    1.7729 O   0  0  0  0  0  0  0  0  0  0  0  0
   -2.3873   -0.8275    2.3759 C   0  0  0  0  0  0  0  0  0  0  0  0
   -2.2640   -1.6185    1.6208 H   0  0  0  0  0  0  0  0  0  0  0  0
   -3.3675   -0.9251    2.8516 H   0  0  0  0  0  0  0  0  0  0  0  0
   -1.5980   -0.9148    3.1380 H   0  0  0  0  0  0  0  0  0  0  0  0
    4.5357   -0.2956   -1.0560 S   0  0  0  0  0  0  0  0  0  0  0  0
    3.9975    0.6112   -2.0760 O   0  0  0  0  0  0  0  0  0  0  0  0
    3.3259   -0.9539   -0.1931 O   0  0  0  0  0  0  0  0  0  0  0  0
    5.4605   -1.3988   -1.3475 O   0  0  0  0  0  0  0  0  0  0  0  0
    5.2504    0.6981    0.0576 O   0  0  0  0  0  0  0  0  0  0  0  0
    5.8488    0.1463    0.5889 H   0  0  0  0  0  0  0  0  0  0  0  0
  1  6  1  0  0  0  0
  1  7  1  0  0  0  0
  2  1  2  0  0  0  0
  3  4  2  0  0  0  0
  3  2  1  0  0  0  0
  4  5  1  0  0  0  0
  5 10  1  0  0  0  0
  5  6  2  0  0  0  0
  6 13  1  0  0  0  0
  9  4  1  0  0  0  0
 12 11  3  0  0  0  0
 13 14  1  0  0  0  0
 14 16  1  0  0  0  0
 14 17  1  0  0  0  0
 15 14  1  0  0  0  0
 18 20  1  0  0  0  0
 18 22  1  0  0  0  0
 19 18  2  0  0  0  0
 20  8  1  0  0  0  0
 21 18  2  0  0  0  0
 22 23  1  0  0  0  0
M  RAD  2   2   2   3   2
M  END
