Coordinates from ORCA-job p-CH3O-Ph-N2-HSO4-B3LYPG-aug-cc-pVDZ-scan-d09-49-n400
 OpenBabel12261916563D

 23 22  0  0  0  0  0  0  0  0999 V2000
   -0.2460   -0.6237    0.8343 C   0  0  0  0  0  0  0  0  0  0  0  0
    0.8850   -0.6977    0.0131 C   0  0  0  0  0  0  0  0  0  0  0  0
    1.4582    0.4725   -0.4697 C   0  0  0  0  0  0  0  0  0  0  0  0
    0.9253    1.7267   -0.1572 C   0  0  0  0  0  0  0  0  0  0  0  0
   -0.2006    1.8011    0.6564 C   0  0  0  0  0  0  0  0  0  0  0  0
   -0.7911    0.6279    1.1582 C   0  0  0  0  0  0  0  0  0  0  0  0
   -0.6873   -1.5448    1.2060 H   0  0  0  0  0  0  0  0  0  0  0  0
    1.3184   -1.6612   -0.2472 H   0  0  0  0  0  0  0  0  0  0  0  0
    1.3850    2.6281   -0.5592 H   0  0  0  0  0  0  0  0  0  0  0  0
   -0.6444    2.7623    0.9119 H   0  0  0  0  0  0  0  0  0  0  0  0
    2.9460    4.5645   -2.6734 N   0  0  0  0  0  0  0  0  0  0  0  0
    3.5956    4.8903   -3.5046 N   0  0  0  0  0  0  0  0  0  0  0  0
   -1.8897    0.8111    1.9454 O   0  0  0  0  0  0  0  0  0  0  0  0
   -2.5410   -0.3400    2.4764 C   0  0  0  0  0  0  0  0  0  0  0  0
   -2.9184   -0.9899    1.6723 H   0  0  0  0  0  0  0  0  0  0  0  0
   -3.3822    0.0402    3.0634 H   0  0  0  0  0  0  0  0  0  0  0  0
   -1.8662   -0.9131    3.1305 H   0  0  0  0  0  0  0  0  0  0  0  0
    4.0688    0.2196   -0.7373 S   0  0  0  0  0  0  0  0  0  0  0  0
    2.5452    0.4130   -1.3679 O   0  0  0  0  0  0  0  0  0  0  0  0
    4.0734   -0.8650    0.2614 O   0  0  0  0  0  0  0  0  0  0  0  0
    4.9526    0.2587   -1.8986 O   0  0  0  0  0  0  0  0  0  0  0  0
    4.2693    1.6409    0.0831 O   0  0  0  0  0  0  0  0  0  0  0  0
    4.1292    1.4392    1.0238 H   0  0  0  0  0  0  0  0  0  0  0  0
  1  6  1  0  0  0  0
  1  7  1  0  0  0  0
  2  1  2  0  0  0  0
  3  4  2  0  0  0  0
  3  2  1  0  0  0  0
  4  5  1  0  0  0  0
  5 10  1  0  0  0  0
  5  6  2  0  0  0  0
  6 13  1  0  0  0  0
  8  2  1  0  0  0  0
  9  4  1  0  0  0  0
 12 11  3  0  0  0  0
 13 14  1  0  0  0  0
 14 16  1  0  0  0  0
 14 17  1  0  0  0  0
 15 14  1  0  0  0  0
 18 22  1  0  0  0  0
 18 20  2  0  0  0  0
 19 18  1  0  0  0  0
 19  3  1  0  0  0  0
 21 18  2  0  0  0  0
 22 23  1  0  0  0  0
M  END
