Coordinates from ORCA-job p-CH3O-Ph-N2-HSO4-B3LYPG-aug-cc-pVDZ-scan-d09-49-n400
 OpenBabel12261916563D

 23 21  0  0  0  0  0  0  0  0999 V2000
   -0.0309    0.1777    0.8987 C   0  0  0  0  0  0  0  0  0  0  0  0
    0.9856    0.8327    0.1625 C   0  0  0  0  0  0  0  0  0  0  0  0
    0.6990    1.9876   -0.2571 C   0  0  0  0  0  0  0  0  0  0  0  0
   -0.3600    2.8551   -0.2251 C   0  0  0  0  0  0  0  0  0  0  0  0
   -1.3839    2.2208    0.5027 C   0  0  0  0  0  0  0  0  0  0  0  0
   -1.2277    0.9183    1.0508 C   0  0  0  0  0  0  0  0  0  0  0  0
    0.0909   -0.8195    1.3129 H   0  0  0  0  0  0  0  0  0  0  0  0
    2.5559   -0.1684   -0.0903 H   0  0  0  0  0  0  0  0  0  0  0  0
   -0.4440    3.8466   -0.6587 H   0  0  0  0  0  0  0  0  0  0  0  0
   -2.3326    2.7344    0.6575 H   0  0  0  0  0  0  0  0  0  0  0  0
    2.4421    3.5864   -1.7268 N   0  0  0  0  0  0  0  0  0  0  0  0
    3.4144    3.8485   -2.1787 N   0  0  0  0  0  0  0  0  0  0  0  0
   -2.3223    0.4585    1.7237 O   0  0  0  0  0  0  0  0  0  0  0  0
   -2.2607   -0.8425    2.3043 C   0  0  0  0  0  0  0  0  0  0  0  0
   -2.1005   -1.6130    1.5350 H   0  0  0  0  0  0  0  0  0  0  0  0
   -3.2321   -0.9988    2.7823 H   0  0  0  0  0  0  0  0  0  0  0  0
   -1.4640   -0.9018    3.0613 H   0  0  0  0  0  0  0  0  0  0  0  0
    4.5126   -0.3680   -1.0427 S   0  0  0  0  0  0  0  0  0  0  0  0
    4.0152    0.4608   -2.1473 O   0  0  0  0  0  0  0  0  0  0  0  0
    3.2819   -0.8606   -0.1056 O   0  0  0  0  0  0  0  0  0  0  0  0
    5.3685   -1.5476   -1.2284 O   0  0  0  0  0  0  0  0  0  0  0  0
    5.3027    0.6915   -0.0454 O   0  0  0  0  0  0  0  0  0  0  0  0
    5.8749    0.1622    0.5354 H   0  0  0  0  0  0  0  0  0  0  0  0
  1  6  1  0  0  0  0
  1  7  1  0  0  0  0
  2  1  2  0  0  0  0
  3  4  2  0  0  0  0
  3  2  1  0  0  0  0
  4  5  1  0  0  0  0
  5 10  1  0  0  0  0
  5  6  2  0  0  0  0
  6 13  1  0  0  0  0
  9  4  1  0  0  0  0
 12 11  3  0  0  0  0
 13 14  1  0  0  0  0
 14 16  1  0  0  0  0
 14 17  1  0  0  0  0
 15 14  1  0  0  0  0
 18 20  1  0  0  0  0
 18 22  1  0  0  0  0
 19 18  2  0  0  0  0
 20  8  1  0  0  0  0
 21 18  2  0  0  0  0
 22 23  1  0  0  0  0
M  RAD  2   2   2   3   2
M  END
