Coordinates from ORCA-job p-CH3O-Ph-N2-HSO4-B3LYPG-aug-cc-pVDZ-scan-d09-49-n400
 OpenBabel12261916563D

 23 21  0  0  0  0  0  0  0  0999 V2000
   -0.1567   -0.0935    1.0238 C   0  0  0  0  0  0  0  0  0  0  0  0
    0.9169    0.4162    0.2651 C   0  0  0  0  0  0  0  0  0  0  0  0
    0.7960    1.5676   -0.2255 C   0  0  0  0  0  0  0  0  0  0  0  0
   -0.1620    2.5521   -0.2461 C   0  0  0  0  0  0  0  0  0  0  0  0
   -1.2534    2.0765    0.5033 C   0  0  0  0  0  0  0  0  0  0  0  0
   -1.2562    0.7944    1.1209 C   0  0  0  0  0  0  0  0  0  0  0  0
   -0.1539   -1.0746    1.4901 H   0  0  0  0  0  0  0  0  0  0  0  0
    2.5912   -0.4946   -0.1471 H   0  0  0  0  0  0  0  0  0  0  0  0
   -0.1306    3.5240   -0.7292 H   0  0  0  0  0  0  0  0  0  0  0  0
   -2.1370    2.7032    0.6231 H   0  0  0  0  0  0  0  0  0  0  0  0
    2.7189    4.4342   -2.3590 N   0  0  0  0  0  0  0  0  0  0  0  0
    3.6463    4.8902   -2.7473 N   0  0  0  0  0  0  0  0  0  0  0  0
   -2.4023    0.5053    1.8038 O   0  0  0  0  0  0  0  0  0  0  0  0
   -2.4998   -0.7595    2.4542 C   0  0  0  0  0  0  0  0  0  0  0  0
   -2.4289   -1.5848    1.7296 H   0  0  0  0  0  0  0  0  0  0  0  0
   -3.4855   -0.7725    2.9284 H   0  0  0  0  0  0  0  0  0  0  0  0
   -1.7200   -0.8717    3.2228 H   0  0  0  0  0  0  0  0  0  0  0  0
    4.5560   -0.2444   -1.0448 S   0  0  0  0  0  0  0  0  0  0  0  0
    3.9693    0.7667   -1.9323 O   0  0  0  0  0  0  0  0  0  0  0  0
    3.3826   -1.0829   -0.2930 O   0  0  0  0  0  0  0  0  0  0  0  0
    5.5402   -1.2435   -1.4807 O   0  0  0  0  0  0  0  0  0  0  0  0
    5.2136    0.6200    0.2031 O   0  0  0  0  0  0  0  0  0  0  0  0
    5.8402    0.0320    0.6578 H   0  0  0  0  0  0  0  0  0  0  0  0
  1  6  1  0  0  0  0
  1  7  1  0  0  0  0
  2  1  2  0  0  0  0
  3  2  1  0  0  0  0
  4  3  2  0  0  0  0
  4  5  1  0  0  0  0
  5 10  1  0  0  0  0
  5  6  2  0  0  0  0
  6 13  1  0  0  0  0
  9  4  1  0  0  0  0
 12 11  3  0  0  0  0
 13 14  1  0  0  0  0
 14 16  1  0  0  0  0
 14 17  1  0  0  0  0
 15 14  1  0  0  0  0
 18 20  1  0  0  0  0
 18 22  1  0  0  0  0
 19 18  2  0  0  0  0
 20  8  1  0  0  0  0
 21 18  2  0  0  0  0
 22 23  1  0  0  0  0
M  RAD  2   2   2   3   2
M  END
