Coordinates from ORCA-job p-CH3O-Ph-N2-HSO4-B3LYPG-aug-cc-pVDZ-scan-d09-49-n400
 OpenBabel12261916563D

 23 22  0  0  0  0  0  0  0  0999 V2000
   -0.2356    0.0084   -0.3519 C   0  0  0  0  0  0  0  0  0  0  0  0
    0.2495    0.4292   -1.5513 C   0  0  0  0  0  0  0  0  0  0  0  0
    0.7713    1.7814   -1.7382 C   0  0  0  0  0  0  0  0  0  0  0  0
    0.7504    2.6540   -0.5634 C   0  0  0  0  0  0  0  0  0  0  0  0
    0.2547    2.2236    0.6246 C   0  0  0  0  0  0  0  0  0  0  0  0
   -0.2189    0.8854    0.7716 C   0  0  0  0  0  0  0  0  0  0  0  0
   -0.5825   -1.0148   -0.2482 H   0  0  0  0  0  0  0  0  0  0  0  0
    0.2830   -0.2355   -2.4133 H   0  0  0  0  0  0  0  0  0  0  0  0
    1.1696    3.6525   -0.6795 H   0  0  0  0  0  0  0  0  0  0  0  0
    0.2665    2.8642    1.5034 H   0  0  0  0  0  0  0  0  0  0  0  0
    1.1722    2.0977   -2.6561 N   0  0  0  0  0  0  0  0  0  0  0  0
    1.6110    2.4443   -3.6603 N   0  0  0  0  0  0  0  0  0  0  0  0
   -0.7059    0.5870    1.9551 O   0  0  0  0  0  0  0  0  0  0  0  0
   -0.9935   -0.7908    2.2890 C   0  0  0  0  0  0  0  0  0  0  0  0
   -1.8406   -1.1563    1.6939 H   0  0  0  0  0  0  0  0  0  0  0  0
   -1.2626   -0.7712    3.3472 H   0  0  0  0  0  0  0  0  0  0  0  0
   -0.0889   -1.3874    2.1294 H   0  0  0  0  0  0  0  0  0  0  0  0
    3.2437    0.0911    0.8130 S   0  0  0  0  0  0  0  0  0  0  0  0
    3.0210    0.5370   -0.6048 O   0  0  0  0  0  0  0  0  0  0  0  0
    1.9592   -0.3463    1.4810 O   0  0  0  0  0  0  0  0  0  0  0  0
    4.4158   -0.7962    1.0506 O   0  0  0  0  0  0  0  0  0  0  0  0
    3.6312    1.5319    1.6323 O   0  0  0  0  0  0  0  0  0  0  0  0
    4.5145    1.3714    1.9967 H   0  0  0  0  0  0  0  0  0  0  0  0
  1  7  1  0  0  0  0
  1  6  2  0  0  0  0
  2  1  1  0  0  0  0
  3  2  2  0  0  0  0
  3  4  1  0  0  0  0
  4  5  2  0  0  0  0
  5  6  1  0  0  0  0
  5 10  1  0  0  0  0
  6 13  1  0  0  0  0
  8  2  1  0  0  0  0
  9  4  1  0  0  0  0
 11  3  1  0  0  0  0
 12 11  1  0  0  0  0
 13 14  1  0  0  0  0
 14 16  1  0  0  0  0
 15 14  1  0  0  0  0
 17 14  1  0  0  0  0
 18 21  2  0  0  0  0
 18 20  1  0  0  0  0
 18 22  1  0  0  0  0
 19 18  2  0  0  0  0
 22 23  1  0  0  0  0
M  RAD  3  11   2  12   3  20   2
M  END
