Coordinates from ORCA-job p-CH3O-Ph-N2-HSO4-B3LYPG-aug-cc-pVDZ-scan-d09-49-n400
 OpenBabel12261916563D

 23 22  0  0  0  0  0  0  0  0999 V2000
   -0.2436   -0.5741    0.7714 C   0  0  0  0  0  0  0  0  0  0  0  0
    0.8869   -0.6083   -0.0530 C   0  0  0  0  0  0  0  0  0  0  0  0
    1.4744    0.5843   -0.4588 C   0  0  0  0  0  0  0  0  0  0  0  0
    0.9554    1.8210   -0.0658 C   0  0  0  0  0  0  0  0  0  0  0  0
   -0.1704    1.8564    0.7507 C   0  0  0  0  0  0  0  0  0  0  0  0
   -0.7745    0.6600    1.1757 C   0  0  0  0  0  0  0  0  0  0  0  0
   -0.6958   -1.5121    1.0829 H   0  0  0  0  0  0  0  0  0  0  0  0
    1.3089   -1.5582   -0.3747 H   0  0  0  0  0  0  0  0  0  0  0  0
    1.4281    2.7375   -0.4131 H   0  0  0  0  0  0  0  0  0  0  0  0
   -0.6035    2.8041    1.0674 H   0  0  0  0  0  0  0  0  0  0  0  0
    2.8350    4.1152   -2.6421 N   0  0  0  0  0  0  0  0  0  0  0  0
    3.4291    4.3479   -3.5431 N   0  0  0  0  0  0  0  0  0  0  0  0
   -1.8714    0.8044    1.9732 O   0  0  0  0  0  0  0  0  0  0  0  0
   -2.5365   -0.3710    2.4282 C   0  0  0  0  0  0  0  0  0  0  0  0
   -2.9207   -0.9629    1.5836 H   0  0  0  0  0  0  0  0  0  0  0  0
   -3.3738   -0.0200    3.0385 H   0  0  0  0  0  0  0  0  0  0  0  0
   -1.8691   -0.9932    3.0438 H   0  0  0  0  0  0  0  0  0  0  0  0
    4.0809    0.3080   -0.7402 S   0  0  0  0  0  0  0  0  0  0  0  0
    2.5616    0.5682   -1.3577 O   0  0  0  0  0  0  0  0  0  0  0  0
    4.0671   -0.8412    0.1831 O   0  0  0  0  0  0  0  0  0  0  0  0
    4.9664    0.4110   -1.8965 O   0  0  0  0  0  0  0  0  0  0  0  0
    4.3044    1.6677    0.1710 O   0  0  0  0  0  0  0  0  0  0  0  0
    4.1458    1.4162    1.0965 H   0  0  0  0  0  0  0  0  0  0  0  0
  1  7  1  0  0  0  0
  1  6  1  0  0  0  0
  2  1  2  0  0  0  0
  3  4  2  0  0  0  0
  3  2  1  0  0  0  0
  4  5  1  0  0  0  0
  5 10  1  0  0  0  0
  5  6  2  0  0  0  0
  6 13  1  0  0  0  0
  8  2  1  0  0  0  0
  9  4  1  0  0  0  0
 12 11  3  0  0  0  0
 13 14  1  0  0  0  0
 14 16  1  0  0  0  0
 14 17  1  0  0  0  0
 15 14  1  0  0  0  0
 18 22  1  0  0  0  0
 18 20  2  0  0  0  0
 19 18  1  0  0  0  0
 19  3  1  0  0  0  0
 21 18  2  0  0  0  0
 22 23  1  0  0  0  0
M  END
