Coordinates from ORCA-job p-CH3O-Ph-N2-HSO4-B3LYPG-aug-cc-pVDZ-scan-d09-49-n400
 OpenBabel12261916563D

 23 22  0  0  0  0  0  0  0  0999 V2000
   -0.2625    0.0219   -0.3290 C   0  0  0  0  0  0  0  0  0  0  0  0
    0.2533    0.4416   -1.5276 C   0  0  0  0  0  0  0  0  0  0  0  0
    0.7156    1.7817   -1.6548 C   0  0  0  0  0  0  0  0  0  0  0  0
    0.6513    2.6954   -0.5620 C   0  0  0  0  0  0  0  0  0  0  0  0
    0.1303    2.2632    0.6259 C   0  0  0  0  0  0  0  0  0  0  0  0
   -0.2979    0.9140    0.7757 C   0  0  0  0  0  0  0  0  0  0  0  0
   -0.5783   -1.0100   -0.2175 H   0  0  0  0  0  0  0  0  0  0  0  0
    0.3417   -0.2385   -2.3717 H   0  0  0  0  0  0  0  0  0  0  0  0
    1.0412    3.7047   -0.6776 H   0  0  0  0  0  0  0  0  0  0  0  0
    0.0916    2.9161    1.4946 H   0  0  0  0  0  0  0  0  0  0  0  0
    1.3028    2.1519   -2.7670 N   0  0  0  0  0  0  0  0  0  0  0  0
    1.8138    2.4674   -3.7204 N   0  0  0  0  0  0  0  0  0  0  0  0
   -0.7638    0.5998    1.9711 O   0  0  0  0  0  0  0  0  0  0  0  0
   -0.9777   -0.7885    2.3097 C   0  0  0  0  0  0  0  0  0  0  0  0
   -1.8128   -1.1986    1.7259 H   0  0  0  0  0  0  0  0  0  0  0  0
   -1.2362   -0.7812    3.3710 H   0  0  0  0  0  0  0  0  0  0  0  0
   -0.0465   -1.3409    2.1413 H   0  0  0  0  0  0  0  0  0  0  0  0
    3.2712    0.0378    0.7954 S   0  0  0  0  0  0  0  0  0  0  0  0
    3.0119    0.4635   -0.6239 O   0  0  0  0  0  0  0  0  0  0  0  0
    2.0078   -0.3696    1.5134 O   0  0  0  0  0  0  0  0  0  0  0  0
    4.4435   -0.8588    1.0096 O   0  0  0  0  0  0  0  0  0  0  0  0
    3.7155    1.4941    1.5632 O   0  0  0  0  0  0  0  0  0  0  0  0
    4.5688    1.2936    1.9756 H   0  0  0  0  0  0  0  0  0  0  0  0
  1  7  1  0  0  0  0
  1  6  2  0  0  0  0
  2  1  1  0  0  0  0
  3  2  2  0  0  0  0
  3  4  1  0  0  0  0
  4  5  2  0  0  0  0
  5  6  1  0  0  0  0
  5 10  1  0  0  0  0
  6 13  1  0  0  0  0
  8  2  1  0  0  0  0
  9  4  1  0  0  0  0
 11  3  1  0  0  0  0
 12 11  1  0  0  0  0
 13 14  1  0  0  0  0
 14 16  1  0  0  0  0
 15 14  1  0  0  0  0
 17 14  1  0  0  0  0
 18 21  2  0  0  0  0
 18 20  1  0  0  0  0
 18 22  1  0  0  0  0
 19 18  2  0  0  0  0
 22 23  1  0  0  0  0
M  RAD  3  11   2  12   3  20   2
M  END
