Coordinates from ORCA-job p-CH3O-Ph-N2-HSO4-B3LYPG-aug-cc-pVDZ-scan-d09-49-n400
 OpenBabel12261916563D

 23 21  0  0  0  0  0  0  0  0999 V2000
   -0.0339    0.1738    0.9012 C   0  0  0  0  0  0  0  0  0  0  0  0
    0.9832    0.8276    0.1651 C   0  0  0  0  0  0  0  0  0  0  0  0
    0.6990    1.9825   -0.2552 C   0  0  0  0  0  0  0  0  0  0  0  0
   -0.3588    2.8517   -0.2241 C   0  0  0  0  0  0  0  0  0  0  0  0
   -1.3836    2.2190    0.5038 C   0  0  0  0  0  0  0  0  0  0  0  0
   -1.2296    0.9164    1.0525 C   0  0  0  0  0  0  0  0  0  0  0  0
    0.0863   -0.8234    1.3160 H   0  0  0  0  0  0  0  0  0  0  0  0
    2.5581   -0.1710   -0.0914 H   0  0  0  0  0  0  0  0  0  0  0  0
   -0.4413    3.8431   -0.6580 H   0  0  0  0  0  0  0  0  0  0  0  0
   -2.3317    2.7339    0.6581 H   0  0  0  0  0  0  0  0  0  0  0  0
    2.4498    3.5976   -1.7361 N   0  0  0  0  0  0  0  0  0  0  0  0
    3.4223    3.8597   -2.1877 N   0  0  0  0  0  0  0  0  0  0  0  0
   -2.3251    0.4587    1.7253 O   0  0  0  0  0  0  0  0  0  0  0  0
   -2.2658   -0.8422    2.3066 C   0  0  0  0  0  0  0  0  0  0  0  0
   -2.1064   -1.6133    1.5377 H   0  0  0  0  0  0  0  0  0  0  0  0
   -3.2376   -0.9967    2.7843 H   0  0  0  0  0  0  0  0  0  0  0  0
   -1.4694   -0.9022    3.0639 H   0  0  0  0  0  0  0  0  0  0  0  0
    4.5152   -0.3665   -1.0441 S   0  0  0  0  0  0  0  0  0  0  0  0
    4.0172    0.4633   -2.1478 O   0  0  0  0  0  0  0  0  0  0  0  0
    3.2848   -0.8619   -0.1080 O   0  0  0  0  0  0  0  0  0  0  0  0
    5.3723   -1.5449   -1.2311 O   0  0  0  0  0  0  0  0  0  0  0  0
    5.3036    0.6925   -0.0451 O   0  0  0  0  0  0  0  0  0  0  0  0
    5.8761    0.1631    0.5354 H   0  0  0  0  0  0  0  0  0  0  0  0
  1  6  1  0  0  0  0
  1  7  1  0  0  0  0
  2  1  2  0  0  0  0
  3  4  2  0  0  0  0
  3  2  1  0  0  0  0
  4  5  1  0  0  0  0
  5 10  1  0  0  0  0
  5  6  2  0  0  0  0
  6 13  1  0  0  0  0
  9  4  1  0  0  0  0
 12 11  3  0  0  0  0
 13 14  1  0  0  0  0
 14 16  1  0  0  0  0
 14 17  1  0  0  0  0
 15 14  1  0  0  0  0
 18 20  1  0  0  0  0
 18 22  1  0  0  0  0
 19 18  2  0  0  0  0
 20  8  1  0  0  0  0
 21 18  2  0  0  0  0
 22 23  1  0  0  0  0
M  RAD  2   2   2   3   2
M  END
