Coordinates from ORCA-job p-CH3O-Ph-N2-HSO4-B3LYPG-aug-cc-pVDZ-scan-d09-49-n400
 OpenBabel12261916563D

 23 21  0  0  0  0  0  0  0  0999 V2000
   -0.0847    0.0824    0.9506 C   0  0  0  0  0  0  0  0  0  0  0  0
    0.9458    0.7024    0.2101 C   0  0  0  0  0  0  0  0  0  0  0  0
    0.7208    1.8603   -0.2306 C   0  0  0  0  0  0  0  0  0  0  0  0
   -0.3128    2.7632   -0.2093 C   0  0  0  0  0  0  0  0  0  0  0  0
   -1.3590    2.1721    0.5222 C   0  0  0  0  0  0  0  0  0  0  0  0
   -1.2531    0.8708    1.0870 C   0  0  0  0  0  0  0  0  0  0  0  0
    0.0003   -0.9134    1.3765 H   0  0  0  0  0  0  0  0  0  0  0  0
    2.5673   -0.2695   -0.1086 H   0  0  0  0  0  0  0  0  0  0  0  0
   -0.3620    3.7524   -0.6537 H   0  0  0  0  0  0  0  0  0  0  0  0
   -2.2896    2.7201    0.6685 H   0  0  0  0  0  0  0  0  0  0  0  0
    2.6465    3.8624   -1.9858 N   0  0  0  0  0  0  0  0  0  0  0  0
    3.6084    4.1651   -2.4347 N   0  0  0  0  0  0  0  0  0  0  0  0
   -2.3670    0.4606    1.7605 O   0  0  0  0  0  0  0  0  0  0  0  0
   -2.3563   -0.8339    2.3582 C   0  0  0  0  0  0  0  0  0  0  0  0
   -2.2219   -1.6199    1.5997 H   0  0  0  0  0  0  0  0  0  0  0  0
   -3.3347   -0.9476    2.8338 H   0  0  0  0  0  0  0  0  0  0  0  0
   -1.5653   -0.9128    3.1194 H   0  0  0  0  0  0  0  0  0  0  0  0
    4.5291   -0.3145   -1.0544 S   0  0  0  0  0  0  0  0  0  0  0  0
    3.9975    0.5691   -2.0982 O   0  0  0  0  0  0  0  0  0  0  0  0
    3.3148   -0.9298   -0.1659 O   0  0  0  0  0  0  0  0  0  0  0  0
    5.4374   -1.4384   -1.3176 O   0  0  0  0  0  0  0  0  0  0  0  0
    5.2638    0.7018    0.0254 O   0  0  0  0  0  0  0  0  0  0  0  0
    5.8595    0.1580    0.5680 H   0  0  0  0  0  0  0  0  0  0  0  0
  1  6  1  0  0  0  0
  1  7  1  0  0  0  0
  2  1  2  0  0  0  0
  3  4  2  0  0  0  0
  3  2  1  0  0  0  0
  4  5  1  0  0  0  0
  5 10  1  0  0  0  0
  5  6  2  0  0  0  0
  6 13  1  0  0  0  0
  9  4  1  0  0  0  0
 12 11  3  0  0  0  0
 13 14  1  0  0  0  0
 14 16  1  0  0  0  0
 14 17  1  0  0  0  0
 15 14  1  0  0  0  0
 18 20  1  0  0  0  0
 18 22  1  0  0  0  0
 19 18  2  0  0  0  0
 20  8  1  0  0  0  0
 21 18  2  0  0  0  0
 22 23  1  0  0  0  0
M  RAD  2   2   2   3   2
M  END
