Coordinates from ORCA-job p-CH3O-Ph-N2-HSO4-B3LYPG-aug-cc-pVDZ-scan-d09-49-n400
 OpenBabel12261916563D

 23 22  0  0  0  0  0  0  0  0999 V2000
    0.0259    0.1751    1.0278 C   0  0  0  0  0  0  0  0  0  0  0  0
    1.1923    0.6415    0.4231 C   0  0  0  0  0  0  0  0  0  0  0  0
    1.0950    1.8654   -0.2199 C   0  0  0  0  0  0  0  0  0  0  0  0
   -0.0528    2.6578   -0.3228 C   0  0  0  0  0  0  0  0  0  0  0  0
   -1.1976    2.1632    0.2780 C   0  0  0  0  0  0  0  0  0  0  0  0
   -1.1664    0.9216    0.9551 C   0  0  0  0  0  0  0  0  0  0  0  0
    0.0640   -0.7803    1.5434 H   0  0  0  0  0  0  0  0  0  0  0  0
    2.1310    0.0738    0.4507 H   0  0  0  0  0  0  0  0  0  0  0  0
   -0.0520    3.6085   -0.8511 H   0  0  0  0  0  0  0  0  0  0  0  0
   -2.1329    2.7177    0.2358 H   0  0  0  0  0  0  0  0  0  0  0  0
    2.3620    2.4703   -0.8806 N   0  0  0  0  0  0  0  0  0  0  0  0
    3.1321    3.1529   -1.2936 N   0  0  0  0  0  0  0  0  0  0  0  0
   -2.3367    0.5382    1.4994 O   0  0  0  0  0  0  0  0  0  0  0  0
   -2.4025   -0.7139    2.1969 C   0  0  0  0  0  0  0  0  0  0  0  0
   -2.1601   -1.5477    1.5236 H   0  0  0  0  0  0  0  0  0  0  0  0
   -3.4374   -0.8010    2.5373 H   0  0  0  0  0  0  0  0  0  0  0  0
   -1.7247   -0.7145    3.0617 H   0  0  0  0  0  0  0  0  0  0  0  0
    4.3380   -0.2629   -0.9877 S   0  0  0  0  0  0  0  0  0  0  0  0
    3.1885    0.3100   -1.7867 O   0  0  0  0  0  0  0  0  0  0  0  0
    3.8849   -0.7944    0.3447 O   0  0  0  0  0  0  0  0  0  0  0  0
    5.3099   -1.1029   -1.7331 O   0  0  0  0  0  0  0  0  0  0  0  0
    5.1961    1.1715   -0.6101 O   0  0  0  0  0  0  0  0  0  0  0  0
    6.1283    0.9109   -0.5708 H   0  0  0  0  0  0  0  0  0  0  0  0
  1  7  1  0  0  0  0
  2  8  1  0  0  0  0
  2  1  2  0  0  0  0
  3  2  1  0  0  0  0
  4  3  2  0  0  0  0
  4  5  1  0  0  0  0
  5  6  2  0  0  0  0
  6  1  1  0  0  0  0
  6 13  1  0  0  0  0
  9  4  1  0  0  0  0
 10  5  1  0  0  0  0
 11  3  1  0  0  0  0
 12 11  1  0  0  0  0
 13 14  1  0  0  0  0
 14 16  1  0  0  0  0
 14 17  1  0  0  0  0
 15 14  1  0  0  0  0
 18 22  1  0  0  0  0
 18 20  1  0  0  0  0
 19 18  2  0  0  0  0
 21 18  2  0  0  0  0
 22 23  1  0  0  0  0
M  RAD  3  11   2  12   3  20   2
M  END
