Coordinates from ORCA-job p-CH3O-Ph-N2-HSO4-B3LYPG-aug-cc-pVDZ-scan-d09-49-n400
 OpenBabel12261916563D

 23 22  0  0  0  0  0  0  0  0999 V2000
   -0.2513    0.0187   -0.3356 C   0  0  0  0  0  0  0  0  0  0  0  0
    0.2575    0.4393   -1.5331 C   0  0  0  0  0  0  0  0  0  0  0  0
    0.7354    1.7834   -1.6790 C   0  0  0  0  0  0  0  0  0  0  0  0
    0.6761    2.6862   -0.5634 C   0  0  0  0  0  0  0  0  0  0  0  0
    0.1623    2.2548    0.6242 C   0  0  0  0  0  0  0  0  0  0  0  0
   -0.2756    0.9074    0.7738 C   0  0  0  0  0  0  0  0  0  0  0  0
   -0.5741   -1.0114   -0.2263 H   0  0  0  0  0  0  0  0  0  0  0  0
    0.3325   -0.2382   -2.3813 H   0  0  0  0  0  0  0  0  0  0  0  0
    1.0696    3.6945   -0.6785 H   0  0  0  0  0  0  0  0  0  0  0  0
    0.1337    2.9056    1.4950 H   0  0  0  0  0  0  0  0  0  0  0  0
    1.2621    2.1382   -2.7333 N   0  0  0  0  0  0  0  0  0  0  0  0
    1.7516    2.4630   -3.7017 N   0  0  0  0  0  0  0  0  0  0  0  0
   -0.7477    0.5973    1.9653 O   0  0  0  0  0  0  0  0  0  0  0  0
   -0.9807   -0.7889    2.3030 C   0  0  0  0  0  0  0  0  0  0  0  0
   -1.8184   -1.1877    1.7156 H   0  0  0  0  0  0  0  0  0  0  0  0
   -1.2428   -0.7781    3.3633 H   0  0  0  0  0  0  0  0  0  0  0  0
   -0.0555   -1.3520    2.1377 H   0  0  0  0  0  0  0  0  0  0  0  0
    3.2616    0.0486    0.8025 S   0  0  0  0  0  0  0  0  0  0  0  0
    3.0118    0.4753   -0.6178 O   0  0  0  0  0  0  0  0  0  0  0  0
    1.9921   -0.3615    1.5099 O   0  0  0  0  0  0  0  0  0  0  0  0
    4.4320   -0.8476    1.0247 O   0  0  0  0  0  0  0  0  0  0  0  0
    3.6952    1.5024    1.5791 O   0  0  0  0  0  0  0  0  0  0  0  0
    4.5576    1.3114    1.9769 H   0  0  0  0  0  0  0  0  0  0  0  0
  1  7  1  0  0  0  0
  1  6  2  0  0  0  0
  2  1  1  0  0  0  0
  3  2  2  0  0  0  0
  3  4  1  0  0  0  0
  4  5  2  0  0  0  0
  5  6  1  0  0  0  0
  5 10  1  0  0  0  0
  6 13  1  0  0  0  0
  8  2  1  0  0  0  0
  9  4  1  0  0  0  0
 11  3  1  0  0  0  0
 12 11  1  0  0  0  0
 13 14  1  0  0  0  0
 14 16  1  0  0  0  0
 15 14  1  0  0  0  0
 17 14  1  0  0  0  0
 18 21  2  0  0  0  0
 18 20  1  0  0  0  0
 18 22  1  0  0  0  0
 19 18  2  0  0  0  0
 22 23  1  0  0  0  0
M  RAD  3  11   2  12   3  20   2
M  END
