Coordinates from ORCA-job p-CH3O-Ph-N2-HSO4-B3LYPG-aug-cc-pVDZ-scan-d09-49-n400
 OpenBabel12261916563D

 23 21  0  0  0  0  0  0  0  0999 V2000
   -0.0887    0.0746    0.9542 C   0  0  0  0  0  0  0  0  0  0  0  0
    0.9435    0.6909    0.2132 C   0  0  0  0  0  0  0  0  0  0  0  0
    0.7226    1.8489   -0.2288 C   0  0  0  0  0  0  0  0  0  0  0  0
   -0.3081    2.7552   -0.2085 C   0  0  0  0  0  0  0  0  0  0  0  0
   -1.3561    2.1681    0.5236 C   0  0  0  0  0  0  0  0  0  0  0  0
   -1.2544    0.8671    1.0897 C   0  0  0  0  0  0  0  0  0  0  0  0
   -0.0069   -0.9211    1.3811 H   0  0  0  0  0  0  0  0  0  0  0  0
    2.5674   -0.2783   -0.1106 H   0  0  0  0  0  0  0  0  0  0  0  0
   -0.3541    3.7442   -0.6538 H   0  0  0  0  0  0  0  0  0  0  0  0
   -2.2850    2.7193    0.6694 H   0  0  0  0  0  0  0  0  0  0  0  0
    2.6602    3.8846   -2.0076 N   0  0  0  0  0  0  0  0  0  0  0  0
    3.6204    4.1933   -2.4562 N   0  0  0  0  0  0  0  0  0  0  0  0
   -2.3697    0.4612    1.7635 O   0  0  0  0  0  0  0  0  0  0  0  0
   -2.3633   -0.8327    2.3625 C   0  0  0  0  0  0  0  0  0  0  0  0
   -2.2315   -1.6200    1.6049 H   0  0  0  0  0  0  0  0  0  0  0  0
   -3.3422   -0.9427    2.8383 H   0  0  0  0  0  0  0  0  0  0  0  0
   -1.5727   -0.9134    3.1240 H   0  0  0  0  0  0  0  0  0  0  0  0
    4.5301   -0.3098   -1.0545 S   0  0  0  0  0  0  0  0  0  0  0  0
    3.9967    0.5798   -2.0924 O   0  0  0  0  0  0  0  0  0  0  0  0
    3.3169   -0.9358   -0.1720 O   0  0  0  0  0  0  0  0  0  0  0  0
    5.4423   -1.4287   -1.3252 O   0  0  0  0  0  0  0  0  0  0  0  0
    5.2603    0.7009    0.0336 O   0  0  0  0  0  0  0  0  0  0  0  0
    5.8572    0.1550    0.5727 H   0  0  0  0  0  0  0  0  0  0  0  0
  1  6  1  0  0  0  0
  1  7  1  0  0  0  0
  2  1  2  0  0  0  0
  3  4  2  0  0  0  0
  3  2  1  0  0  0  0
  4  5  1  0  0  0  0
  5 10  1  0  0  0  0
  5  6  2  0  0  0  0
  6 13  1  0  0  0  0
  9  4  1  0  0  0  0
 12 11  3  0  0  0  0
 13 14  1  0  0  0  0
 14 16  1  0  0  0  0
 14 17  1  0  0  0  0
 15 14  1  0  0  0  0
 18 20  1  0  0  0  0
 18 22  1  0  0  0  0
 19 18  2  0  0  0  0
 20  8  1  0  0  0  0
 21 18  2  0  0  0  0
 22 23  1  0  0  0  0
M  RAD  2   2   2   3   2
M  END
