Coordinates from ORCA-job p-CH3O-Ph-N2-HSO4-B3LYPG-aug-cc-pVDZ-scan-d09-49-n400
 OpenBabel12261916563D

 23 21  0  0  0  0  0  0  0  0999 V2000
    0.0378    0.2230    1.0296 C   0  0  0  0  0  0  0  0  0  0  0  0
    1.2048    0.7686    0.4254 C   0  0  0  0  0  0  0  0  0  0  0  0
    0.8884    1.9241   -0.1367 C   0  0  0  0  0  0  0  0  0  0  0  0
   -0.1925    2.7286   -0.3198 C   0  0  0  0  0  0  0  0  0  0  0  0
   -1.3086    2.1380    0.2934 C   0  0  0  0  0  0  0  0  0  0  0  0
   -1.1956    0.8972    0.9621 C   0  0  0  0  0  0  0  0  0  0  0  0
    0.1478   -0.7379    1.5265 H   0  0  0  0  0  0  0  0  0  0  0  0
    2.2138    0.2184    0.4308 H   0  0  0  0  0  0  0  0  0  0  0  0
   -0.2228    3.6760   -0.8475 H   0  0  0  0  0  0  0  0  0  0  0  0
   -2.2726    2.6429    0.2516 H   0  0  0  0  0  0  0  0  0  0  0  0
    2.5984    2.9322   -1.0456 N   0  0  0  0  0  0  0  0  0  0  0  0
    3.4129    3.5468   -1.4630 N   0  0  0  0  0  0  0  0  0  0  0  0
   -2.3455    0.4362    1.5087 O   0  0  0  0  0  0  0  0  0  0  0  0
   -2.3207   -0.8228    2.1904 C   0  0  0  0  0  0  0  0  0  0  0  0
   -2.0272   -1.6325    1.5069 H   0  0  0  0  0  0  0  0  0  0  0  0
   -3.3442   -0.9863    2.5379 H   0  0  0  0  0  0  0  0  0  0  0  0
   -1.6378   -0.7889    3.0515 H   0  0  0  0  0  0  0  0  0  0  0  0
    4.2452   -0.2982   -0.9658 S   0  0  0  0  0  0  0  0  0  0  0  0
    3.2859    0.3573   -1.9064 O   0  0  0  0  0  0  0  0  0  0  0  0
    3.5953   -0.5575    0.3976 O   0  0  0  0  0  0  0  0  0  0  0  0
    5.0598   -1.4383   -1.4563 O   0  0  0  0  0  0  0  0  0  0  0  0
    5.3588    0.9410   -0.6544 O   0  0  0  0  0  0  0  0  0  0  0  0
    6.2036    0.4929   -0.4959 H   0  0  0  0  0  0  0  0  0  0  0  0
  1  7  1  0  0  0  0
  2  8  1  0  0  0  0
  2  1  2  0  0  0  0
  3  2  1  0  0  0  0
  4  3  2  0  0  0  0
  4  5  1  0  0  0  0
  5  6  2  0  0  0  0
  6  1  1  0  0  0  0
  6 13  1  0  0  0  0
  9  4  1  0  0  0  0
 10  5  1  0  0  0  0
 12 11  3  0  0  0  0
 13 14  1  0  0  0  0
 14 16  1  0  0  0  0
 14 17  1  0  0  0  0
 15 14  1  0  0  0  0
 18 22  1  0  0  0  0
 18 20  1  0  0  0  0
 19 18  2  0  0  0  0
 21 18  2  0  0  0  0
 22 23  1  0  0  0  0
M  RAD  2   3   2  20   2
M  END
