Coordinates from ORCA-job p-CH3O-Ph-N2-HSO4-B3LYPG-aug-cc-pVDZ-scan-d09-49-n400
 OpenBabel12261916563D

 23 22  0  0  0  0  0  0  0  0999 V2000
   -0.2492    0.0180   -0.3371 C   0  0  0  0  0  0  0  0  0  0  0  0
    0.2582    0.4386   -1.5344 C   0  0  0  0  0  0  0  0  0  0  0  0
    0.7402    1.7837   -1.6847 C   0  0  0  0  0  0  0  0  0  0  0  0
    0.6819    2.6840   -0.5635 C   0  0  0  0  0  0  0  0  0  0  0  0
    0.1695    2.2529    0.6239 C   0  0  0  0  0  0  0  0  0  0  0  0
   -0.2709    0.9059    0.7734 C   0  0  0  0  0  0  0  0  0  0  0  0
   -0.5738   -1.0116   -0.2283 H   0  0  0  0  0  0  0  0  0  0  0  0
    0.3302   -0.2383   -2.3834 H   0  0  0  0  0  0  0  0  0  0  0  0
    1.0767    3.6919   -0.6785 H   0  0  0  0  0  0  0  0  0  0  0  0
    0.1432    2.9031    1.4952 H   0  0  0  0  0  0  0  0  0  0  0  0
    1.2536    2.1341   -2.7238 N   0  0  0  0  0  0  0  0  0  0  0  0
    1.7390    2.4609   -3.6954 N   0  0  0  0  0  0  0  0  0  0  0  0
   -0.7443    0.5967    1.9640 O   0  0  0  0  0  0  0  0  0  0  0  0
   -0.9814   -0.7890    2.3016 C   0  0  0  0  0  0  0  0  0  0  0  0
   -1.8198   -1.1853    1.7135 H   0  0  0  0  0  0  0  0  0  0  0  0
   -1.2441   -0.7774    3.3617 H   0  0  0  0  0  0  0  0  0  0  0  0
   -0.0576   -1.3545    2.1368 H   0  0  0  0  0  0  0  0  0  0  0  0
    3.2593    0.0515    0.8033 S   0  0  0  0  0  0  0  0  0  0  0  0
    3.0115    0.4788   -0.6171 O   0  0  0  0  0  0  0  0  0  0  0  0
    1.9886   -0.3598    1.5082 O   0  0  0  0  0  0  0  0  0  0  0  0
    4.4296   -0.8443    1.0270 O   0  0  0  0  0  0  0  0  0  0  0  0
    3.6901    1.5047    1.5821 O   0  0  0  0  0  0  0  0  0  0  0  0
    4.5544    1.3160    1.9768 H   0  0  0  0  0  0  0  0  0  0  0  0
  1  7  1  0  0  0  0
  1  6  2  0  0  0  0
  2  1  1  0  0  0  0
  3  2  2  0  0  0  0
  3  4  1  0  0  0  0
  4  5  2  0  0  0  0
  5  6  1  0  0  0  0
  5 10  1  0  0  0  0
  6 13  1  0  0  0  0
  8  2  1  0  0  0  0
  9  4  1  0  0  0  0
 11  3  1  0  0  0  0
 12 11  1  0  0  0  0
 13 14  1  0  0  0  0
 14 16  1  0  0  0  0
 15 14  1  0  0  0  0
 17 14  1  0  0  0  0
 18 21  2  0  0  0  0
 18 20  1  0  0  0  0
 18 22  1  0  0  0  0
 19 18  2  0  0  0  0
 22 23  1  0  0  0  0
M  RAD  3  11   2  12   3  20   2
M  END
