Coordinates from ORCA-job p-CH3O-Ph-N2-HSO4-B3LYPG-aug-cc-pVDZ-scan-d09-49-n400
 OpenBabel12261916563D

 23 21  0  0  0  0  0  0  0  0999 V2000
   -0.0115    0.2052    0.8813 C   0  0  0  0  0  0  0  0  0  0  0  0
    1.0006    0.8690    0.1458 C   0  0  0  0  0  0  0  0  0  0  0  0
    0.7013    2.0235   -0.2706 C   0  0  0  0  0  0  0  0  0  0  0  0
   -0.3693    2.8774   -0.2312 C   0  0  0  0  0  0  0  0  0  0  0  0
   -1.3863    2.2332    0.4952 C   0  0  0  0  0  0  0  0  0  0  0  0
   -1.2158    0.9310    1.0387 C   0  0  0  0  0  0  0  0  0  0  0  0
    0.1211   -0.7921    1.2924 H   0  0  0  0  0  0  0  0  0  0  0  0
    2.5433   -0.1495   -0.0793 H   0  0  0  0  0  0  0  0  0  0  0  0
   -0.4629    3.8695   -0.6620 H   0  0  0  0  0  0  0  0  0  0  0  0
   -2.3394    2.7376    0.6522 H   0  0  0  0  0  0  0  0  0  0  0  0
    2.3914    3.5073   -1.6613 N   0  0  0  0  0  0  0  0  0  0  0  0
    3.3628    3.7676   -2.1163 N   0  0  0  0  0  0  0  0  0  0  0  0
   -2.3037    0.4570    1.7122 O   0  0  0  0  0  0  0  0  0  0  0  0
   -2.2270   -0.8455    2.2879 C   0  0  0  0  0  0  0  0  0  0  0  0
   -2.0599   -1.6113    1.5156 H   0  0  0  0  0  0  0  0  0  0  0  0
   -3.1958   -1.0139    2.7672 H   0  0  0  0  0  0  0  0  0  0  0  0
   -1.4283   -0.8989    3.0432 H   0  0  0  0  0  0  0  0  0  0  0  0
    4.4933   -0.3784   -1.0319 S   0  0  0  0  0  0  0  0  0  0  0  0
    3.9938    0.4435   -2.1408 O   0  0  0  0  0  0  0  0  0  0  0  0
    3.2647   -0.8496   -0.0836 O   0  0  0  0  0  0  0  0  0  0  0  0
    5.3409   -1.5648   -1.2123 O   0  0  0  0  0  0  0  0  0  0  0  0
    5.2984    0.6852   -0.0505 O   0  0  0  0  0  0  0  0  0  0  0  0
    5.8731    0.1575    0.5292 H   0  0  0  0  0  0  0  0  0  0  0  0
  1  6  1  0  0  0  0
  1  7  1  0  0  0  0
  2  1  2  0  0  0  0
  3  4  2  0  0  0  0
  3  2  1  0  0  0  0
  4  5  1  0  0  0  0
  5 10  1  0  0  0  0
  5  6  2  0  0  0  0
  6 13  1  0  0  0  0
  9  4  1  0  0  0  0
 12 11  3  0  0  0  0
 13 14  1  0  0  0  0
 14 16  1  0  0  0  0
 14 17  1  0  0  0  0
 15 14  1  0  0  0  0
 18 20  1  0  0  0  0
 18 22  1  0  0  0  0
 19 18  2  0  0  0  0
 20  8  1  0  0  0  0
 21 18  2  0  0  0  0
 22 23  1  0  0  0  0
M  RAD  2   2   2   3   2
M  END
