Coordinates from ORCA-job p-CH3O-Ph-N2-HSO4-B3LYPG-aug-cc-pVDZ-scan-d09-49-n400
 OpenBabel12261916563D

 23 21  0  0  0  0  0  0  0  0999 V2000
   -0.1162    0.0206    0.9794 C   0  0  0  0  0  0  0  0  0  0  0  0
    0.9293    0.6087    0.2360 C   0  0  0  0  0  0  0  0  0  0  0  0
    0.7391    1.7670   -0.2159 C   0  0  0  0  0  0  0  0  0  0  0  0
   -0.2682    2.6994   -0.2061 C   0  0  0  0  0  0  0  0  0  0  0  0
   -1.3310    2.1424    0.5291 C   0  0  0  0  0  0  0  0  0  0  0  0
   -1.2625    0.8435    1.1058 C   0  0  0  0  0  0  0  0  0  0  0  0
   -0.0592   -0.9732    1.4143 H   0  0  0  0  0  0  0  0  0  0  0  0
    2.5777   -0.3323   -0.1233 H   0  0  0  0  0  0  0  0  0  0  0  0
   -0.2905    3.6858   -0.6588 H   0  0  0  0  0  0  0  0  0  0  0  0
   -2.2468    2.7167    0.6690 H   0  0  0  0  0  0  0  0  0  0  0  0
    2.7158    4.0241   -2.1259 N   0  0  0  0  0  0  0  0  0  0  0  0
    3.6641    4.3729   -2.5704 N   0  0  0  0  0  0  0  0  0  0  0  0
   -2.3889    0.4708    1.7803 O   0  0  0  0  0  0  0  0  0  0  0  0
   -2.4157   -0.8179    2.3897 C   0  0  0  0  0  0  0  0  0  0  0  0
   -2.3020   -1.6143    1.6387 H   0  0  0  0  0  0  0  0  0  0  0  0
   -3.3979   -0.8998    2.8643 H   0  0  0  0  0  0  0  0  0  0  0  0
   -1.6288   -0.9120    3.1535 H   0  0  0  0  0  0  0  0  0  0  0  0
    4.5451   -0.2813   -1.0603 S   0  0  0  0  0  0  0  0  0  0  0  0
    3.9999    0.6401   -2.0641 O   0  0  0  0  0  0  0  0  0  0  0  0
    3.3409   -0.9693   -0.2107 O   0  0  0  0  0  0  0  0  0  0  0  0
    5.4804   -1.3701   -1.3719 O   0  0  0  0  0  0  0  0  0  0  0  0
    5.2489    0.6976    0.0730 O   0  0  0  0  0  0  0  0  0  0  0  0
    5.8514    0.1413    0.5951 H   0  0  0  0  0  0  0  0  0  0  0  0
  1  6  1  0  0  0  0
  1  7  1  0  0  0  0
  2  1  2  0  0  0  0
  3  4  2  0  0  0  0
  3  2  1  0  0  0  0
  4  5  1  0  0  0  0
  5 10  1  0  0  0  0
  5  6  2  0  0  0  0
  6 13  1  0  0  0  0
  9  4  1  0  0  0  0
 12 11  3  0  0  0  0
 13 14  1  0  0  0  0
 14 16  1  0  0  0  0
 14 17  1  0  0  0  0
 15 14  1  0  0  0  0
 18 20  1  0  0  0  0
 18 22  1  0  0  0  0
 19 18  2  0  0  0  0
 20  8  1  0  0  0  0
 21 18  2  0  0  0  0
 22 23  1  0  0  0  0
M  RAD  2   2   2   3   2
M  END
