Coordinates from ORCA-job p-CH3O-Ph-N2-HSO4-B3LYPG-aug-cc-pVDZ-scan-d09-49-n400
 OpenBabel12261916563D

 23 22  0  0  0  0  0  0  0  0999 V2000
    0.0050    0.1747    1.0343 C   0  0  0  0  0  0  0  0  0  0  0  0
    1.1814    0.6505    0.4254 C   0  0  0  0  0  0  0  0  0  0  0  0
    0.9929    1.8488   -0.1811 C   0  0  0  0  0  0  0  0  0  0  0  0
   -0.1022    2.6653   -0.3310 C   0  0  0  0  0  0  0  0  0  0  0  0
   -1.2436    2.1454    0.2818 C   0  0  0  0  0  0  0  0  0  0  0  0
   -1.1942    0.9079    0.9610 C   0  0  0  0  0  0  0  0  0  0  0  0
    0.0607   -0.7796    1.5512 H   0  0  0  0  0  0  0  0  0  0  0  0
    2.1396    0.0986    0.4484 H   0  0  0  0  0  0  0  0  0  0  0  0
   -0.1008    3.6105   -0.8653 H   0  0  0  0  0  0  0  0  0  0  0  0
   -2.1835    2.6927    0.2369 H   0  0  0  0  0  0  0  0  0  0  0  0
    2.4995    2.5773   -0.9753 N   0  0  0  0  0  0  0  0  0  0  0  0
    3.2020    3.3486   -1.3400 N   0  0  0  0  0  0  0  0  0  0  0  0
   -2.3635    0.5104    1.5110 O   0  0  0  0  0  0  0  0  0  0  0  0
   -2.4057   -0.7409    2.2072 C   0  0  0  0  0  0  0  0  0  0  0  0
   -2.1527   -1.5722    1.5338 H   0  0  0  0  0  0  0  0  0  0  0  0
   -3.4373   -0.8467    2.5527 H   0  0  0  0  0  0  0  0  0  0  0  0
   -1.7246   -0.7323    3.0701 H   0  0  0  0  0  0  0  0  0  0  0  0
    4.3394   -0.2452   -0.9570 S   0  0  0  0  0  0  0  0  0  0  0  0
    3.2606    0.4152   -1.7894 O   0  0  0  0  0  0  0  0  0  0  0  0
    3.8017   -0.7129    0.3716 O   0  0  0  0  0  0  0  0  0  0  0  0
    5.2326   -1.1932   -1.6723 O   0  0  0  0  0  0  0  0  0  0  0  0
    5.3359    1.0807   -0.5675 O   0  0  0  0  0  0  0  0  0  0  0  0
    6.2415    0.7572   -0.6853 H   0  0  0  0  0  0  0  0  0  0  0  0
  1  7  1  0  0  0  0
  2  8  1  0  0  0  0
  2  1  2  0  0  0  0
  3  2  1  0  0  0  0
  4  3  2  0  0  0  0
  4  5  1  0  0  0  0
  5  6  2  0  0  0  0
  6  1  1  0  0  0  0
  6 13  1  0  0  0  0
  9  4  1  0  0  0  0
 10  5  1  0  0  0  0
 11  3  1  0  0  0  0
 12 11  1  0  0  0  0
 13 14  1  0  0  0  0
 14 16  1  0  0  0  0
 14 17  1  0  0  0  0
 15 14  1  0  0  0  0
 18 22  1  0  0  0  0
 18 20  1  0  0  0  0
 19 18  2  0  0  0  0
 21 18  2  0  0  0  0
 23 22  1  0  0  0  0
M  RAD  3  11   2  12   3  20   2
M  END
