Coordinates from ORCA-job p-CH3O-Ph-N2-HSO4-B3LYPG-aug-cc-pVDZ-scan-d09-49-n400
 OpenBabel12261916563D

 23 21  0  0  0  0  0  0  0  0999 V2000
   -0.0008    0.2221    0.8736 C   0  0  0  0  0  0  0  0  0  0  0  0
    1.0136    0.8896    0.1424 C   0  0  0  0  0  0  0  0  0  0  0  0
    0.7059    2.0446   -0.2710 C   0  0  0  0  0  0  0  0  0  0  0  0
   -0.3714    2.8914   -0.2296 C   0  0  0  0  0  0  0  0  0  0  0  0
   -1.3873    2.2414    0.4920 C   0  0  0  0  0  0  0  0  0  0  0  0
   -1.2100    0.9389    1.0316 C   0  0  0  0  0  0  0  0  0  0  0  0
    0.1364   -0.7756    1.2824 H   0  0  0  0  0  0  0  0  0  0  0  0
    2.5392   -0.1320   -0.0626 H   0  0  0  0  0  0  0  0  0  0  0  0
   -0.4690    3.8841   -0.6577 H   0  0  0  0  0  0  0  0  0  0  0  0
   -2.3432    2.7406    0.6479 H   0  0  0  0  0  0  0  0  0  0  0  0
    2.3665    3.4517   -1.6075 N   0  0  0  0  0  0  0  0  0  0  0  0
    3.3417    3.6985   -2.0616 N   0  0  0  0  0  0  0  0  0  0  0  0
   -2.2961    0.4559    1.7015 O   0  0  0  0  0  0  0  0  0  0  0  0
   -2.2122   -0.8482    2.2727 C   0  0  0  0  0  0  0  0  0  0  0  0
   -2.0387   -1.6101    1.4978 H   0  0  0  0  0  0  0  0  0  0  0  0
   -3.1809   -1.0245    2.7494 H   0  0  0  0  0  0  0  0  0  0  0  0
   -1.4147   -0.8994    3.0293 H   0  0  0  0  0  0  0  0  0  0  0  0
    4.4789   -0.3888   -1.0287 S   0  0  0  0  0  0  0  0  0  0  0  0
    3.9667    0.4037   -2.1532 O   0  0  0  0  0  0  0  0  0  0  0  0
    3.2616   -0.8341   -0.0557 O   0  0  0  0  0  0  0  0  0  0  0  0
    5.3265   -1.5784   -1.1882 O   0  0  0  0  0  0  0  0  0  0  0  0
    5.2949    0.7008   -0.0848 O   0  0  0  0  0  0  0  0  0  0  0  0
    5.8773    0.1885    0.5010 H   0  0  0  0  0  0  0  0  0  0  0  0
  1  6  1  0  0  0  0
  1  7  1  0  0  0  0
  2  1  2  0  0  0  0
  3  4  2  0  0  0  0
  3  2  1  0  0  0  0
  4  5  1  0  0  0  0
  5 10  1  0  0  0  0
  5  6  2  0  0  0  0
  6 13  1  0  0  0  0
  8 20  1  0  0  0  0
  9  4  1  0  0  0  0
 12 11  3  0  0  0  0
 13 14  1  0  0  0  0
 14 16  1  0  0  0  0
 14 17  1  0  0  0  0
 15 14  1  0  0  0  0
 18 22  1  0  0  0  0
 18 20  1  0  0  0  0
 19 18  2  0  0  0  0
 21 18  2  0  0  0  0
 22 23  1  0  0  0  0
M  RAD  2   2   2   3   2
M  END
