Coordinates from ORCA-job p-CH3O-Ph-N2-HSO4-B3LYPG-aug-cc-pVDZ-scan-d09-49-n400
 OpenBabel12261916563D

 23 22  0  0  0  0  0  0  0  0999 V2000
    0.0084    0.1795    1.0334 C   0  0  0  0  0  0  0  0  0  0  0  0
    1.1848    0.6615    0.4260 C   0  0  0  0  0  0  0  0  0  0  0  0
    0.9823    1.8567   -0.1751 C   0  0  0  0  0  0  0  0  0  0  0  0
   -0.1103    2.6728   -0.3289 C   0  0  0  0  0  0  0  0  0  0  0  0
   -1.2496    2.1456    0.2835 C   0  0  0  0  0  0  0  0  0  0  0  0
   -1.1942    0.9072    0.9609 C   0  0  0  0  0  0  0  0  0  0  0  0
    0.0692   -0.7760    1.5477 H   0  0  0  0  0  0  0  0  0  0  0  0
    2.1472    0.1113    0.4469 H   0  0  0  0  0  0  0  0  0  0  0  0
   -0.1116    3.6183   -0.8624 H   0  0  0  0  0  0  0  0  0  0  0  0
   -2.1917    2.6890    0.2388 H   0  0  0  0  0  0  0  0  0  0  0  0
    2.5095    2.6077   -0.9797 N   0  0  0  0  0  0  0  0  0  0  0  0
    3.2257    3.3633   -1.3488 N   0  0  0  0  0  0  0  0  0  0  0  0
   -2.3618    0.5032    1.5101 O   0  0  0  0  0  0  0  0  0  0  0  0
   -2.3978   -0.7496    2.2039 C   0  0  0  0  0  0  0  0  0  0  0  0
   -2.1408   -1.5783    1.5290 H   0  0  0  0  0  0  0  0  0  0  0  0
   -3.4289   -0.8611    2.5493 H   0  0  0  0  0  0  0  0  0  0  0  0
   -1.7168   -0.7392    3.0669 H   0  0  0  0  0  0  0  0  0  0  0  0
    4.3283   -0.2502   -0.9543 S   0  0  0  0  0  0  0  0  0  0  0  0
    3.2592    0.4056   -1.7988 O   0  0  0  0  0  0  0  0  0  0  0  0
    3.7808   -0.6925    0.3814 O   0  0  0  0  0  0  0  0  0  0  0  0
    5.2173   -1.2196   -1.6458 O   0  0  0  0  0  0  0  0  0  0  0  0
    5.3365    1.0707   -0.5785 O   0  0  0  0  0  0  0  0  0  0  0  0
    6.2391    0.7349   -0.6842 H   0  0  0  0  0  0  0  0  0  0  0  0
  1  7  1  0  0  0  0
  2  8  1  0  0  0  0
  2  1  2  0  0  0  0
  3  2  1  0  0  0  0
  4  3  2  0  0  0  0
  4  5  1  0  0  0  0
  5  6  2  0  0  0  0
  6  1  1  0  0  0  0
  6 13  1  0  0  0  0
  9  4  1  0  0  0  0
 10  5  1  0  0  0  0
 11  3  1  0  0  0  0
 12 11  1  0  0  0  0
 13 14  1  0  0  0  0
 14 16  1  0  0  0  0
 14 17  1  0  0  0  0
 15 14  1  0  0  0  0
 18 22  1  0  0  0  0
 18 20  1  0  0  0  0
 19 18  2  0  0  0  0
 21 18  2  0  0  0  0
 23 22  1  0  0  0  0
M  RAD  3  11   2  12   3  20   2
M  END
