Coordinates from ORCA-job p-CH3O-Ph-N2-HSO4-B3LYPG-aug-cc-pVDZ-scan-d09-49-n400
 OpenBabel12261916563D

 23 22  0  0  0  0  0  0  0  0999 V2000
   -0.2463   -0.5905    0.7914 C   0  0  0  0  0  0  0  0  0  0  0  0
    0.8840   -0.6340   -0.0331 C   0  0  0  0  0  0  0  0  0  0  0  0
    1.4652    0.5543   -0.4585 C   0  0  0  0  0  0  0  0  0  0  0  0
    0.9419    1.7959   -0.0864 C   0  0  0  0  0  0  0  0  0  0  0  0
   -0.1836    1.8401    0.7300 C   0  0  0  0  0  0  0  0  0  0  0  0
   -0.7822    0.6482    1.1752 C   0  0  0  0  0  0  0  0  0  0  0  0
   -0.6945   -1.5249    1.1189 H   0  0  0  0  0  0  0  0  0  0  0  0
    1.3099   -1.5872   -0.3394 H   0  0  0  0  0  0  0  0  0  0  0  0
    1.4108    2.7092   -0.4483 H   0  0  0  0  0  0  0  0  0  0  0  0
   -0.6206    2.7910    1.0313 H   0  0  0  0  0  0  0  0  0  0  0  0
    2.9012    4.2549   -2.6806 N   0  0  0  0  0  0  0  0  0  0  0  0
    3.5106    4.5046   -3.5667 N   0  0  0  0  0  0  0  0  0  0  0  0
   -1.8793    0.8012    1.9709 O   0  0  0  0  0  0  0  0  0  0  0  0
   -2.5391   -0.3693    2.4460 C   0  0  0  0  0  0  0  0  0  0  0  0
   -2.9213   -0.9769    1.6116 H   0  0  0  0  0  0  0  0  0  0  0  0
   -3.3775   -0.0116    3.0509 H   0  0  0  0  0  0  0  0  0  0  0  0
   -1.8686   -0.9782    3.0714 H   0  0  0  0  0  0  0  0  0  0  0  0
    4.0732    0.2886   -0.7403 S   0  0  0  0  0  0  0  0  0  0  0  0
    2.5523    0.5341   -1.3598 O   0  0  0  0  0  0  0  0  0  0  0  0
    4.0656   -0.8495    0.1967 O   0  0  0  0  0  0  0  0  0  0  0  0
    4.9575    0.3821   -1.8982 O   0  0  0  0  0  0  0  0  0  0  0  0
    4.2907    1.6601    0.1547 O   0  0  0  0  0  0  0  0  0  0  0  0
    4.1349    1.4185    1.0833 H   0  0  0  0  0  0  0  0  0  0  0  0
  1  7  1  0  0  0  0
  1  6  1  0  0  0  0
  2  1  2  0  0  0  0
  3  4  2  0  0  0  0
  3  2  1  0  0  0  0
  4  5  1  0  0  0  0
  5 10  1  0  0  0  0
  5  6  2  0  0  0  0
  6 13  1  0  0  0  0
  8  2  1  0  0  0  0
  9  4  1  0  0  0  0
 12 11  3  0  0  0  0
 13 14  1  0  0  0  0
 14 16  1  0  0  0  0
 14 17  1  0  0  0  0
 15 14  1  0  0  0  0
 18 22  1  0  0  0  0
 18 20  2  0  0  0  0
 19 18  1  0  0  0  0
 19  3  1  0  0  0  0
 21 18  2  0  0  0  0
 22 23  1  0  0  0  0
M  END
