Coordinates from ORCA-job p-CH3O-Ph-N2-HSO4-B3LYPG-aug-cc-pVDZ-scan-d09-49-n400
 OpenBabel12261916563D

 23 22  0  0  0  0  0  0  0  0999 V2000
   -0.2433   -0.5688    0.7606 C   0  0  0  0  0  0  0  0  0  0  0  0
    0.8862   -0.6005   -0.0647 C   0  0  0  0  0  0  0  0  0  0  0  0
    1.4791    0.5926   -0.4623 C   0  0  0  0  0  0  0  0  0  0  0  0
    0.9659    1.8282   -0.0587 C   0  0  0  0  0  0  0  0  0  0  0  0
   -0.1590    1.8615    0.7593 C   0  0  0  0  0  0  0  0  0  0  0  0
   -0.7682    0.6648    1.1755 C   0  0  0  0  0  0  0  0  0  0  0  0
   -0.6993   -1.5071    1.0655 H   0  0  0  0  0  0  0  0  0  0  0  0
    1.3039   -1.5491   -0.3954 H   0  0  0  0  0  0  0  0  0  0  0  0
    1.4388    2.7471   -0.4001 H   0  0  0  0  0  0  0  0  0  0  0  0
   -0.5877    2.8085    1.0839 H   0  0  0  0  0  0  0  0  0  0  0  0
    2.7825    4.0410   -2.6138 N   0  0  0  0  0  0  0  0  0  0  0  0
    3.3951    4.2769   -3.5014 N   0  0  0  0  0  0  0  0  0  0  0  0
   -1.8633    0.8077    1.9757 O   0  0  0  0  0  0  0  0  0  0  0  0
   -2.5352   -0.3682    2.4193 C   0  0  0  0  0  0  0  0  0  0  0  0
   -2.9212   -0.9508    1.5689 H   0  0  0  0  0  0  0  0  0  0  0  0
   -3.3718   -0.0184    3.0313 H   0  0  0  0  0  0  0  0  0  0  0  0
   -1.8722   -0.9994    3.0304 H   0  0  0  0  0  0  0  0  0  0  0  0
    4.0856    0.3170   -0.7401 S   0  0  0  0  0  0  0  0  0  0  0  0
    2.5668    0.5754   -1.3604 O   0  0  0  0  0  0  0  0  0  0  0  0
    4.0692   -0.8268    0.1898 O   0  0  0  0  0  0  0  0  0  0  0  0
    4.9718    0.4128   -1.8965 O   0  0  0  0  0  0  0  0  0  0  0  0
    4.3095    1.6816    0.1636 O   0  0  0  0  0  0  0  0  0  0  0  0
    4.1518    1.4347    1.0906 H   0  0  0  0  0  0  0  0  0  0  0  0
  1  7  1  0  0  0  0
  1  6  2  0  0  0  0
  2  1  1  0  0  0  0
  3  2  2  0  0  0  0
  3  4  1  0  0  0  0
  4  5  2  0  0  0  0
  5 10  1  0  0  0  0
  5  6  1  0  0  0  0
  6 13  1  0  0  0  0
  8  2  1  0  0  0  0
  9  4  1  0  0  0  0
 12 11  3  0  0  0  0
 13 14  1  0  0  0  0
 14 17  1  0  0  0  0
 14 16  1  0  0  0  0
 15 14  1  0  0  0  0
 18 22  1  0  0  0  0
 18 20  2  0  0  0  0
 19 18  1  0  0  0  0
 19  3  1  0  0  0  0
 21 18  2  0  0  0  0
 22 23  1  0  0  0  0
M  END
