Coordinates from ORCA-job p-CH3O-Ph-N2-HSO4-B3LYPG-aug-cc-pVDZ-scan-d09-49-n400
 OpenBabel12261916563D

 23 21  0  0  0  0  0  0  0  0999 V2000
   -0.0716    0.1083    0.9388 C   0  0  0  0  0  0  0  0  0  0  0  0
    0.9537    0.7403    0.2005 C   0  0  0  0  0  0  0  0  0  0  0  0
    0.7146    1.8973   -0.2362 C   0  0  0  0  0  0  0  0  0  0  0  0
   -0.3285    2.7888   -0.2124 C   0  0  0  0  0  0  0  0  0  0  0  0
   -1.3686    2.1848    0.5171 C   0  0  0  0  0  0  0  0  0  0  0  0
   -1.2485    0.8832    1.0778 C   0  0  0  0  0  0  0  0  0  0  0  0
    0.0240   -0.8879    1.3617 H   0  0  0  0  0  0  0  0  0  0  0  0
    2.5675   -0.2395   -0.1011 H   0  0  0  0  0  0  0  0  0  0  0  0
   -0.3879    3.7787   -0.6540 H   0  0  0  0  0  0  0  0  0  0  0  0
   -2.3050    2.7226    0.6647 H   0  0  0  0  0  0  0  0  0  0  0  0
    2.5987    3.7916   -1.9154 N   0  0  0  0  0  0  0  0  0  0  0  0
    3.5666    4.0744   -2.3643 N   0  0  0  0  0  0  0  0  0  0  0  0
   -2.3578    0.4586    1.7500 O   0  0  0  0  0  0  0  0  0  0  0  0
   -2.3330   -0.8377    2.3435 C   0  0  0  0  0  0  0  0  0  0  0  0
   -2.1900   -1.6197    1.5824 H   0  0  0  0  0  0  0  0  0  0  0  0
   -3.3101   -0.9637    2.8187 H   0  0  0  0  0  0  0  0  0  0  0  0
   -1.5412   -0.9104    3.1045 H   0  0  0  0  0  0  0  0  0  0  0  0
    4.5256   -0.3302   -1.0527 S   0  0  0  0  0  0  0  0  0  0  0  0
    3.9996    0.5353   -2.1146 O   0  0  0  0  0  0  0  0  0  0  0  0
    3.3085   -0.9088   -0.1443 O   0  0  0  0  0  0  0  0  0  0  0  0
    5.4188   -1.4711   -1.2938 O   0  0  0  0  0  0  0  0  0  0  0  0
    5.2785    0.7020   -0.0009 O   0  0  0  0  0  0  0  0  0  0  0  0
    5.8707    0.1638    0.5511 H   0  0  0  0  0  0  0  0  0  0  0  0
  1  6  1  0  0  0  0
  1  7  1  0  0  0  0
  2  1  2  0  0  0  0
  3  4  2  0  0  0  0
  3  2  1  0  0  0  0
  4  5  1  0  0  0  0
  5 10  1  0  0  0  0
  5  6  2  0  0  0  0
  6 13  1  0  0  0  0
  9  4  1  0  0  0  0
 12 11  3  0  0  0  0
 13 14  1  0  0  0  0
 14 16  1  0  0  0  0
 14 17  1  0  0  0  0
 15 14  1  0  0  0  0
 18 20  1  0  0  0  0
 18 22  1  0  0  0  0
 19 18  2  0  0  0  0
 20  8  1  0  0  0  0
 21 18  2  0  0  0  0
 22 23  1  0  0  0  0
M  RAD  2   2   2   3   2
M  END
