Coordinates from ORCA-job p-CH3O-Ph-N2-HSO4-B3LYPG-aug-cc-pVDZ-scan-d09-49-n400
 OpenBabel12261916563D

 23 22  0  0  0  0  0  0  0  0999 V2000
   -0.2747    0.0259   -0.3213 C   0  0  0  0  0  0  0  0  0  0  0  0
    0.2528    0.4430   -1.5188 C   0  0  0  0  0  0  0  0  0  0  0  0
    0.7005    1.7812   -1.6313 C   0  0  0  0  0  0  0  0  0  0  0  0
    0.6242    2.7059   -0.5587 C   0  0  0  0  0  0  0  0  0  0  0  0
    0.0909    2.2737    0.6270 C   0  0  0  0  0  0  0  0  0  0  0  0
   -0.3253    0.9222    0.7775 C   0  0  0  0  0  0  0  0  0  0  0  0
   -0.5830   -1.0079   -0.2074 H   0  0  0  0  0  0  0  0  0  0  0  0
    0.3597   -0.2409   -2.3572 H   0  0  0  0  0  0  0  0  0  0  0  0
    1.0107    3.7161   -0.6744 H   0  0  0  0  0  0  0  0  0  0  0  0
    0.0377    2.9301    1.4924 H   0  0  0  0  0  0  0  0  0  0  0  0
    1.3515    2.1573   -2.7780 N   0  0  0  0  0  0  0  0  0  0  0  0
    1.8920    2.4615   -3.7138 N   0  0  0  0  0  0  0  0  0  0  0  0
   -0.7858    0.6039    1.9764 O   0  0  0  0  0  0  0  0  0  0  0  0
   -0.9756   -0.7868    2.3174 C   0  0  0  0  0  0  0  0  0  0  0  0
   -1.8069   -1.2116    1.7383 H   0  0  0  0  0  0  0  0  0  0  0  0
   -1.2294   -0.7829    3.3799 H   0  0  0  0  0  0  0  0  0  0  0  0
   -0.0367   -1.3253    2.1454 H   0  0  0  0  0  0  0  0  0  0  0  0
    3.2804    0.0274    0.7775 S   0  0  0  0  0  0  0  0  0  0  0  0
    3.0092    0.4523   -0.6404 O   0  0  0  0  0  0  0  0  0  0  0  0
    2.0250   -0.3789    1.5083 O   0  0  0  0  0  0  0  0  0  0  0  0
    4.4553   -0.8690    0.9812 O   0  0  0  0  0  0  0  0  0  0  0  0
    3.7354    1.4869    1.5347 O   0  0  0  0  0  0  0  0  0  0  0  0
    4.5767    1.2765    1.9664 H   0  0  0  0  0  0  0  0  0  0  0  0
  1  7  1  0  0  0  0
  1  6  2  0  0  0  0
  2  1  1  0  0  0  0
  3  2  2  0  0  0  0
  3  4  1  0  0  0  0
  4  5  2  0  0  0  0
  5  6  1  0  0  0  0
  5 10  1  0  0  0  0
  6 13  1  0  0  0  0
  8  2  1  0  0  0  0
  9  4  1  0  0  0  0
 11  3  1  0  0  0  0
 12 11  1  0  0  0  0
 13 14  1  0  0  0  0
 14 16  1  0  0  0  0
 15 14  1  0  0  0  0
 17 14  1  0  0  0  0
 18 21  2  0  0  0  0
 18 20  1  0  0  0  0
 18 22  1  0  0  0  0
 19 18  2  0  0  0  0
 22 23  1  0  0  0  0
M  RAD  3  11   2  12   3  20   2
M  END
