Coordinates from ORCA-job p-CH3O-Ph-N2-HSO4-B3LYPG-aug-cc-pVDZ-scan-d09-49-n400
 OpenBabel12261916563D

 23 21  0  0  0  0  0  0  0  0999 V2000
    0.0406    0.2192    1.0264 C   0  0  0  0  0  0  0  0  0  0  0  0
    1.2024    0.7769    0.4132 C   0  0  0  0  0  0  0  0  0  0  0  0
    0.8606    1.9211   -0.1337 C   0  0  0  0  0  0  0  0  0  0  0  0
   -0.2086    2.7340   -0.3184 C   0  0  0  0  0  0  0  0  0  0  0  0
   -1.3187    2.1326    0.3022 C   0  0  0  0  0  0  0  0  0  0  0  0
   -1.1958    0.8900    0.9674 C   0  0  0  0  0  0  0  0  0  0  0  0
    0.1586   -0.7432    1.5189 H   0  0  0  0  0  0  0  0  0  0  0  0
    2.2305    0.2147    0.4056 H   0  0  0  0  0  0  0  0  0  0  0  0
   -0.2443    3.6829   -0.8426 H   0  0  0  0  0  0  0  0  0  0  0  0
   -2.2854    2.6333    0.2687 H   0  0  0  0  0  0  0  0  0  0  0  0
    2.6410    3.0568   -1.1029 N   0  0  0  0  0  0  0  0  0  0  0  0
    3.4609    3.6476   -1.5439 N   0  0  0  0  0  0  0  0  0  0  0  0
   -2.3416    0.4232    1.5203 O   0  0  0  0  0  0  0  0  0  0  0  0
   -2.3066   -0.8369    2.1984 C   0  0  0  0  0  0  0  0  0  0  0  0
   -2.0141   -1.6439    1.5112 H   0  0  0  0  0  0  0  0  0  0  0  0
   -3.3268   -1.0061    2.5528 H   0  0  0  0  0  0  0  0  0  0  0  0
   -1.6178   -0.8024    3.0550 H   0  0  0  0  0  0  0  0  0  0  0  0
    4.2313   -0.3063   -0.9715 S   0  0  0  0  0  0  0  0  0  0  0  0
    3.3191    0.3689   -1.9385 O   0  0  0  0  0  0  0  0  0  0  0  0
    3.5261   -0.5554    0.3755 O   0  0  0  0  0  0  0  0  0  0  0  0
    5.0292   -1.4740   -1.4200 O   0  0  0  0  0  0  0  0  0  0  0  0
    5.3607    0.8986   -0.6148 O   0  0  0  0  0  0  0  0  0  0  0  0
    6.1836    0.4292   -0.4080 H   0  0  0  0  0  0  0  0  0  0  0  0
  1  7  1  0  0  0  0
  2  1  2  0  0  0  0
  3  2  1  0  0  0  0
  4  3  2  0  0  0  0
  4  5  1  0  0  0  0
  5  6  2  0  0  0  0
  6  1  1  0  0  0  0
  6 13  1  0  0  0  0
  8  2  1  0  0  0  0
  9  4  1  0  0  0  0
 10  5  1  0  0  0  0
 12 11  3  0  0  0  0
 13 14  1  0  0  0  0
 14 16  1  0  0  0  0
 14 17  1  0  0  0  0
 15 14  1  0  0  0  0
 18 22  1  0  0  0  0
 18 20  1  0  0  0  0
 19 18  2  0  0  0  0
 21 18  2  0  0  0  0
 22 23  1  0  0  0  0
M  RAD  2   3   2  20   2
M  END
