Coordinates from ORCA-job p-CH3O-Ph-N2-HSO4-B3LYPG-aug-cc-pVDZ-scan-d09-49-n400
 OpenBabel12261916563D

 23 22  0  0  0  0  0  0  0  0999 V2000
   -0.2328    0.0022   -0.3577 C   0  0  0  0  0  0  0  0  0  0  0  0
    0.2426    0.4198   -1.5567 C   0  0  0  0  0  0  0  0  0  0  0  0
    0.7955    1.7797   -1.7717 C   0  0  0  0  0  0  0  0  0  0  0  0
    0.7927    2.6345   -0.5554 C   0  0  0  0  0  0  0  0  0  0  0  0
    0.2974    2.2059    0.6284 C   0  0  0  0  0  0  0  0  0  0  0  0
   -0.1951    0.8728    0.7736 C   0  0  0  0  0  0  0  0  0  0  0  0
   -0.5948   -1.0165   -0.2566 H   0  0  0  0  0  0  0  0  0  0  0  0
    0.2592   -0.2338   -2.4282 H   0  0  0  0  0  0  0  0  0  0  0  0
    1.2296    3.6251   -0.6772 H   0  0  0  0  0  0  0  0  0  0  0  0
    0.3270    2.8411    1.5111 H   0  0  0  0  0  0  0  0  0  0  0  0
    1.1412    2.0721   -2.6070 N   0  0  0  0  0  0  0  0  0  0  0  0
    1.5627    2.4314   -3.6306 N   0  0  0  0  0  0  0  0  0  0  0  0
   -0.6931    0.5807    1.9516 O   0  0  0  0  0  0  0  0  0  0  0  0
   -1.0028   -0.7935    2.2837 C   0  0  0  0  0  0  0  0  0  0  0  0
   -1.8523   -1.1460    1.6846 H   0  0  0  0  0  0  0  0  0  0  0  0
   -1.2759   -0.7702    3.3408 H   0  0  0  0  0  0  0  0  0  0  0  0
   -0.1061   -1.4024    2.1273 H   0  0  0  0  0  0  0  0  0  0  0  0
    3.2325    0.1195    0.8092 S   0  0  0  0  0  0  0  0  0  0  0  0
    3.0163    0.5748   -0.6061 O   0  0  0  0  0  0  0  0  0  0  0  0
    1.9438   -0.3313    1.4646 O   0  0  0  0  0  0  0  0  0  0  0  0
    4.4047   -0.7651    1.0492 O   0  0  0  0  0  0  0  0  0  0  0  0
    3.6013    1.5535    1.6451 O   0  0  0  0  0  0  0  0  0  0  0  0
    4.4913    1.4064    1.9989 H   0  0  0  0  0  0  0  0  0  0  0  0
  1  7  1  0  0  0  0
  1  6  2  0  0  0  0
  2  1  1  0  0  0  0
  3  2  2  0  0  0  0
  3  4  1  0  0  0  0
  4  5  2  0  0  0  0
  5  6  1  0  0  0  0
  5 10  1  0  0  0  0
  6 13  1  0  0  0  0
  8  2  1  0  0  0  0
  9  4  1  0  0  0  0
 11  3  1  0  0  0  0
 12 11  1  0  0  0  0
 13 14  1  0  0  0  0
 14 16  1  0  0  0  0
 15 14  1  0  0  0  0
 17 14  1  0  0  0  0
 18 21  2  0  0  0  0
 18 20  1  0  0  0  0
 18 22  1  0  0  0  0
 19 18  2  0  0  0  0
 22 23  1  0  0  0  0
M  RAD  3  11   2  12   3  20   2
M  END
