Coordinates from ORCA-job p-CH3O-Ph-N2-HSO4-B3LYPG-aug-cc-pVDZ-scan-d09-49-n400
 OpenBabel12261916563D

 23 21  0  0  0  0  0  0  0  0999 V2000
   -0.0013    0.2195    0.8728 C   0  0  0  0  0  0  0  0  0  0  0  0
    1.0116    0.8863    0.1395 C   0  0  0  0  0  0  0  0  0  0  0  0
    0.7039    2.0412   -0.2737 C   0  0  0  0  0  0  0  0  0  0  0  0
   -0.3709    2.8896   -0.2317 C   0  0  0  0  0  0  0  0  0  0  0  0
   -1.3858    2.2404    0.4923 C   0  0  0  0  0  0  0  0  0  0  0  0
   -1.2092    0.9379    1.0325 C   0  0  0  0  0  0  0  0  0  0  0  0
    0.1357   -0.7781    1.2818 H   0  0  0  0  0  0  0  0  0  0  0  0
    2.5366   -0.1354   -0.0691 H   0  0  0  0  0  0  0  0  0  0  0  0
   -0.4689    3.8824   -0.6600 H   0  0  0  0  0  0  0  0  0  0  0  0
   -2.3410    2.7407    0.6498 H   0  0  0  0  0  0  0  0  0  0  0  0
    2.3657    3.4562   -1.6195 N   0  0  0  0  0  0  0  0  0  0  0  0
    3.3394    3.7052   -2.0758 N   0  0  0  0  0  0  0  0  0  0  0  0
   -2.2947    0.4567    1.7045 O   0  0  0  0  0  0  0  0  0  0  0  0
   -2.2116   -0.8473    2.2763 C   0  0  0  0  0  0  0  0  0  0  0  0
   -2.0404   -1.6099    1.5016 H   0  0  0  0  0  0  0  0  0  0  0  0
   -3.1796   -1.0220    2.7548 H   0  0  0  0  0  0  0  0  0  0  0  0
   -1.4127   -0.8990    3.0316 H   0  0  0  0  0  0  0  0  0  0  0  0
    4.4808   -0.3830   -1.0277 S   0  0  0  0  0  0  0  0  0  0  0  0
    3.9757    0.4249   -2.1445 O   0  0  0  0  0  0  0  0  0  0  0  0
    3.2578   -0.8383   -0.0665 O   0  0  0  0  0  0  0  0  0  0  0  0
    5.3269   -1.5721   -1.1982 O   0  0  0  0  0  0  0  0  0  0  0  0
    5.2942    0.6928   -0.0659 O   0  0  0  0  0  0  0  0  0  0  0  0
    5.8727    0.1719    0.5161 H   0  0  0  0  0  0  0  0  0  0  0  0
  1  6  1  0  0  0  0
  1  7  1  0  0  0  0
  2  1  2  0  0  0  0
  3  4  2  0  0  0  0
  3  2  1  0  0  0  0
  4  5  1  0  0  0  0
  5 10  1  0  0  0  0
  5  6  2  0  0  0  0
  6 13  1  0  0  0  0
  8 20  1  0  0  0  0
  9  4  1  0  0  0  0
 12 11  3  0  0  0  0
 13 14  1  0  0  0  0
 14 16  1  0  0  0  0
 14 17  1  0  0  0  0
 15 14  1  0  0  0  0
 18 20  1  0  0  0  0
 18 22  1  0  0  0  0
 19 18  2  0  0  0  0
 21 18  2  0  0  0  0
 22 23  1  0  0  0  0
M  RAD  2   2   2   3   2
M  END
