Coordinates from ORCA-job p-CH3O-Ph-N2-HSO4-B3LYPG-aug-cc-pVDZ-scan-d09-49-n400
 OpenBabel12261916563D

 23 22  0  0  0  0  0  0  0  0999 V2000
    0.0017    0.1650    1.0369 C   0  0  0  0  0  0  0  0  0  0  0  0
    1.1774    0.6291    0.4273 C   0  0  0  0  0  0  0  0  0  0  0  0
    1.0256    1.8343   -0.1944 C   0  0  0  0  0  0  0  0  0  0  0  0
   -0.0799    2.6489   -0.3327 C   0  0  0  0  0  0  0  0  0  0  0  0
   -1.2261    2.1457    0.2780 C   0  0  0  0  0  0  0  0  0  0  0  0
   -1.1905    0.9096    0.9606 C   0  0  0  0  0  0  0  0  0  0  0  0
    0.0455   -0.7872    1.5582 H   0  0  0  0  0  0  0  0  0  0  0  0
    2.1265    0.0717    0.4555 H   0  0  0  0  0  0  0  0  0  0  0  0
   -0.0730    3.5938   -0.8685 H   0  0  0  0  0  0  0  0  0  0  0  0
   -2.1613    2.7007    0.2316 H   0  0  0  0  0  0  0  0  0  0  0  0
    2.4744    2.5148   -0.9550 N   0  0  0  0  0  0  0  0  0  0  0  0
    3.1655    3.2991   -1.3183 N   0  0  0  0  0  0  0  0  0  0  0  0
   -2.3636    0.5254    1.5103 O   0  0  0  0  0  0  0  0  0  0  0  0
   -2.4202   -0.7229    2.2111 C   0  0  0  0  0  0  0  0  0  0  0  0
   -2.1748   -1.5591    1.5411 H   0  0  0  0  0  0  0  0  0  0  0  0
   -3.4535   -0.8163    2.5551 H   0  0  0  0  0  0  0  0  0  0  0  0
   -1.7406   -0.7182    3.0751 H   0  0  0  0  0  0  0  0  0  0  0  0
    4.3545   -0.2361   -0.9678 S   0  0  0  0  0  0  0  0  0  0  0  0
    3.2465    0.4152   -1.7751 O   0  0  0  0  0  0  0  0  0  0  0  0
    3.8484   -0.7500    0.3521 O   0  0  0  0  0  0  0  0  0  0  0  0
    5.2631   -1.1360   -1.7238 O   0  0  0  0  0  0  0  0  0  0  0  0
    5.3116    1.1158   -0.5661 O   0  0  0  0  0  0  0  0  0  0  0  0
    6.2276    0.8175   -0.6698 H   0  0  0  0  0  0  0  0  0  0  0  0
  1  7  1  0  0  0  0
  2  8  1  0  0  0  0
  2  1  2  0  0  0  0
  3  2  1  0  0  0  0
  4  3  2  0  0  0  0
  4  5  1  0  0  0  0
  5  6  2  0  0  0  0
  6  1  1  0  0  0  0
  6 13  1  0  0  0  0
  9  4  1  0  0  0  0
 10  5  1  0  0  0  0
 11  3  1  0  0  0  0
 12 11  1  0  0  0  0
 13 14  1  0  0  0  0
 14 16  1  0  0  0  0
 14 17  1  0  0  0  0
 15 14  1  0  0  0  0
 18 22  1  0  0  0  0
 18 20  1  0  0  0  0
 19 18  2  0  0  0  0
 21 18  2  0  0  0  0
 23 22  1  0  0  0  0
M  RAD  3  11   2  12   3  20   2
M  END
