Coordinates from ORCA-job p-CH3O-Ph-N2-HSO4-B3LYPG-aug-cc-pVDZ-scan-d09-49-n400
 OpenBabel12261916563D

 23 21  0  0  0  0  0  0  0  0999 V2000
   -0.1456   -0.0588    1.0124 C   0  0  0  0  0  0  0  0  0  0  0  0
    0.9208    0.4761    0.2603 C   0  0  0  0  0  0  0  0  0  0  0  0
    0.7817    1.6310   -0.2187 C   0  0  0  0  0  0  0  0  0  0  0  0
   -0.1938    2.5983   -0.2281 C   0  0  0  0  0  0  0  0  0  0  0  0
   -1.2781    2.0972    0.5148 C   0  0  0  0  0  0  0  0  0  0  0  0
   -1.2600    0.8090    1.1182 C   0  0  0  0  0  0  0  0  0  0  0  0
   -0.1268   -1.0448    1.4680 H   0  0  0  0  0  0  0  0  0  0  0  0
    2.5888   -0.4444   -0.1361 H   0  0  0  0  0  0  0  0  0  0  0  0
   -0.1786    3.5756   -0.7006 H   0  0  0  0  0  0  0  0  0  0  0  0
   -2.1719    2.7082    0.6403 H   0  0  0  0  0  0  0  0  0  0  0  0
    2.7267    4.3076   -2.2974 N   0  0  0  0  0  0  0  0  0  0  0  0
    3.6596    4.7311   -2.7089 N   0  0  0  0  0  0  0  0  0  0  0  0
   -2.4014    0.4931    1.7968 O   0  0  0  0  0  0  0  0  0  0  0  0
   -2.4781   -0.7805    2.4329 C   0  0  0  0  0  0  0  0  0  0  0  0
   -2.3927   -1.5963    1.6991 H   0  0  0  0  0  0  0  0  0  0  0  0
   -3.4639   -0.8154    2.9060 H   0  0  0  0  0  0  0  0  0  0  0  0
   -1.6972   -0.8881    3.2010 H   0  0  0  0  0  0  0  0  0  0  0  0
    4.5527   -0.2543   -1.0501 S   0  0  0  0  0  0  0  0  0  0  0  0
    3.9752    0.7301   -1.9723 O   0  0  0  0  0  0  0  0  0  0  0  0
    3.3715   -1.0486   -0.2640 O   0  0  0  0  0  0  0  0  0  0  0  0
    5.5225   -1.2816   -1.4515 O   0  0  0  0  0  0  0  0  0  0  0  0
    5.2262    0.6473    0.1627 O   0  0  0  0  0  0  0  0  0  0  0  0
    5.8473    0.0686    0.6364 H   0  0  0  0  0  0  0  0  0  0  0  0
  1  6  1  0  0  0  0
  1  7  1  0  0  0  0
  2  1  2  0  0  0  0
  3  2  1  0  0  0  0
  4  3  2  0  0  0  0
  4  5  1  0  0  0  0
  5 10  1  0  0  0  0
  5  6  2  0  0  0  0
  6 13  1  0  0  0  0
  9  4  1  0  0  0  0
 12 11  3  0  0  0  0
 13 14  1  0  0  0  0
 14 16  1  0  0  0  0
 14 17  1  0  0  0  0
 15 14  1  0  0  0  0
 18 20  1  0  0  0  0
 18 22  1  0  0  0  0
 19 18  2  0  0  0  0
 20  8  1  0  0  0  0
 21 18  2  0  0  0  0
 22 23  1  0  0  0  0
M  RAD  2   2   2   3   2
M  END
