Coordinates from ORCA-job p-CH3O-Ph-N2-HSO4-B3LYPG-aug-cc-pVDZ-scan-d09-49-n400
 OpenBabel12261916563D

 23 21  0  0  0  0  0  0  0  0999 V2000
   -0.0294    0.1796    0.8973 C   0  0  0  0  0  0  0  0  0  0  0  0
    0.9867    0.8353    0.1611 C   0  0  0  0  0  0  0  0  0  0  0  0
    0.6990    1.9901   -0.2581 C   0  0  0  0  0  0  0  0  0  0  0  0
   -0.3607    2.8568   -0.2256 C   0  0  0  0  0  0  0  0  0  0  0  0
   -1.3840    2.2217    0.5022 C   0  0  0  0  0  0  0  0  0  0  0  0
   -1.2268    0.9192    1.0499 C   0  0  0  0  0  0  0  0  0  0  0  0
    0.0931   -0.8176    1.3114 H   0  0  0  0  0  0  0  0  0  0  0  0
    2.5547   -0.1672   -0.0897 H   0  0  0  0  0  0  0  0  0  0  0  0
   -0.4453    3.8483   -0.6590 H   0  0  0  0  0  0  0  0  0  0  0  0
   -2.3330    2.7347    0.6572 H   0  0  0  0  0  0  0  0  0  0  0  0
    2.4382    3.5809   -1.7222 N   0  0  0  0  0  0  0  0  0  0  0  0
    3.4104    3.8430   -2.1743 N   0  0  0  0  0  0  0  0  0  0  0  0
   -2.3208    0.4585    1.7230 O   0  0  0  0  0  0  0  0  0  0  0  0
   -2.2581   -0.8427    2.3032 C   0  0  0  0  0  0  0  0  0  0  0  0
   -2.0974   -1.6128    1.5336 H   0  0  0  0  0  0  0  0  0  0  0  0
   -3.2293   -0.9999    2.7813 H   0  0  0  0  0  0  0  0  0  0  0  0
   -1.4611   -0.9016    3.0599 H   0  0  0  0  0  0  0  0  0  0  0  0
    4.5112   -0.3689   -1.0419 S   0  0  0  0  0  0  0  0  0  0  0  0
    4.0142    0.4595   -2.1470 O   0  0  0  0  0  0  0  0  0  0  0  0
    3.2804   -0.8600   -0.1044 O   0  0  0  0  0  0  0  0  0  0  0  0
    5.3666   -1.5489   -1.2270 O   0  0  0  0  0  0  0  0  0  0  0  0
    5.3020    0.6909   -0.0454 O   0  0  0  0  0  0  0  0  0  0  0  0
    5.8741    0.1617    0.5355 H   0  0  0  0  0  0  0  0  0  0  0  0
  1  6  1  0  0  0  0
  1  7  1  0  0  0  0
  2  1  2  0  0  0  0
  3  4  2  0  0  0  0
  3  2  1  0  0  0  0
  4  5  1  0  0  0  0
  5 10  1  0  0  0  0
  5  6  2  0  0  0  0
  6 13  1  0  0  0  0
  9  4  1  0  0  0  0
 12 11  3  0  0  0  0
 13 14  1  0  0  0  0
 14 16  1  0  0  0  0
 14 17  1  0  0  0  0
 15 14  1  0  0  0  0
 18 20  1  0  0  0  0
 18 22  1  0  0  0  0
 19 18  2  0  0  0  0
 20  8  1  0  0  0  0
 21 18  2  0  0  0  0
 22 23  1  0  0  0  0
M  RAD  2   2   2   3   2
M  END
