Coordinates from ORCA-job p-CH3O-Ph-N2-HSO4-B3LYPG-aug-cc-pVDZ-scan-d09-49-n400
 OpenBabel12261916563D

 23 22  0  0  0  0  0  0  0  0999 V2000
   -0.2399    0.0481   -0.2054 C   0  0  0  0  0  0  0  0  0  0  0  0
    0.4417    0.4526   -1.3346 C   0  0  0  0  0  0  0  0  0  0  0  0
    0.7464    1.8182   -1.4453 C   0  0  0  0  0  0  0  0  0  0  0  0
    0.3943    2.7986   -0.4993 C   0  0  0  0  0  0  0  0  0  0  0  0
   -0.2877    2.3697    0.6173 C   0  0  0  0  0  0  0  0  0  0  0  0
   -0.5509    0.9875    0.8027 C   0  0  0  0  0  0  0  0  0  0  0  0
   -0.4381   -1.0084   -0.0634 H   0  0  0  0  0  0  0  0  0  0  0  0
    0.7825   -0.2595   -2.0785 H   0  0  0  0  0  0  0  0  0  0  0  0
    0.6816    3.8393   -0.6304 H   0  0  0  0  0  0  0  0  0  0  0  0
   -0.5647    3.0650    1.4067 H   0  0  0  0  0  0  0  0  0  0  0  0
    1.6721    2.1998   -2.5098 N   0  0  0  0  0  0  0  0  0  0  0  0
    2.3935    2.4746   -3.3137 N   0  0  0  0  0  0  0  0  0  0  0  0
   -1.0824    0.6606    1.9794 O   0  0  0  0  0  0  0  0  0  0  0  0
   -1.0807   -0.7281    2.3805 C   0  0  0  0  0  0  0  0  0  0  0  0
   -1.8013   -1.3003    1.7804 H   0  0  0  0  0  0  0  0  0  0  0  0
   -1.3973   -0.7194    3.4262 H   0  0  0  0  0  0  0  0  0  0  0  0
   -0.0658   -1.1337    2.2849 H   0  0  0  0  0  0  0  0  0  0  0  0
    3.4015   -0.1574    0.4999 S   0  0  0  0  0  0  0  0  0  0  0  0
    3.0800    0.0825   -0.9559 O   0  0  0  0  0  0  0  0  0  0  0  0
    2.1843   -0.4729    1.3261 O   0  0  0  0  0  0  0  0  0  0  0  0
    4.5959   -1.0084    0.7686 O   0  0  0  0  0  0  0  0  0  0  0  0
    3.8726    1.4039    1.0121 O   0  0  0  0  0  0  0  0  0  0  0  0
    4.6471    1.2483    1.5727 H   0  0  0  0  0  0  0  0  0  0  0  0
  1  7  1  0  0  0  0
  1  6  2  0  0  0  0
  2  1  1  0  0  0  0
  3  2  2  0  0  0  0
  3  4  1  0  0  0  0
  4  5  2  0  0  0  0
  5  6  1  0  0  0  0
  5 10  1  0  0  0  0
  6 13  1  0  0  0  0
  8  2  1  0  0  0  0
  9  4  1  0  0  0  0
 11  3  1  0  0  0  0
 12 11  1  0  0  0  0
 13 14  1  0  0  0  0
 14 16  1  0  0  0  0
 15 14  1  0  0  0  0
 17 14  1  0  0  0  0
 18 21  2  0  0  0  0
 18 22  1  0  0  0  0
 18 20  1  0  0  0  0
 19 18  2  0  0  0  0
 22 23  1  0  0  0  0
M  RAD  3  11   2  12   3  20   2
M  END
