Coordinates from ORCA-job p-CH3O-Ph-N2-HSO4-B3LYPG-aug-cc-pVDZ-scan-d09-49-n400
 OpenBabel12261916563D

 23 21  0  0  0  0  0  0  0  0999 V2000
    0.0423    0.2228    1.0259 C   0  0  0  0  0  0  0  0  0  0  0  0
    1.2046    0.7796    0.4146 C   0  0  0  0  0  0  0  0  0  0  0  0
    0.8667    1.9253   -0.1359 C   0  0  0  0  0  0  0  0  0  0  0  0
   -0.2067    2.7344   -0.3207 C   0  0  0  0  0  0  0  0  0  0  0  0
   -1.3172    2.1341    0.2984 C   0  0  0  0  0  0  0  0  0  0  0  0
   -1.1944    0.8923    0.9649 C   0  0  0  0  0  0  0  0  0  0  0  0
    0.1602   -0.7391    1.5192 H   0  0  0  0  0  0  0  0  0  0  0  0
    2.2287    0.2184    0.4106 H   0  0  0  0  0  0  0  0  0  0  0  0
   -0.2424    3.6827   -0.8461 H   0  0  0  0  0  0  0  0  0  0  0  0
   -2.2840    2.6343    0.2628 H   0  0  0  0  0  0  0  0  0  0  0  0
    2.6259    3.0287   -1.0855 N   0  0  0  0  0  0  0  0  0  0  0  0
    3.4474    3.6249   -1.5161 N   0  0  0  0  0  0  0  0  0  0  0  0
   -2.3405    0.4252    1.5166 O   0  0  0  0  0  0  0  0  0  0  0  0
   -2.3057   -0.8344    2.1959 C   0  0  0  0  0  0  0  0  0  0  0  0
   -2.0118   -1.6417    1.5098 H   0  0  0  0  0  0  0  0  0  0  0  0
   -3.3263   -1.0038    2.5490 H   0  0  0  0  0  0  0  0  0  0  0  0
   -1.6181   -0.7986    3.0534 H   0  0  0  0  0  0  0  0  0  0  0  0
    4.2315   -0.3065   -0.9695 S   0  0  0  0  0  0  0  0  0  0  0  0
    3.3097    0.3647   -1.9312 O   0  0  0  0  0  0  0  0  0  0  0  0
    3.5374   -0.5555    0.3817 O   0  0  0  0  0  0  0  0  0  0  0  0
    5.0316   -1.4699   -1.4254 O   0  0  0  0  0  0  0  0  0  0  0  0
    5.3592    0.9042   -0.6231 O   0  0  0  0  0  0  0  0  0  0  0  0
    6.1869    0.4384   -0.4281 H   0  0  0  0  0  0  0  0  0  0  0  0
  1  7  1  0  0  0  0
  2  1  2  0  0  0  0
  3  2  1  0  0  0  0
  4  3  2  0  0  0  0
  4  5  1  0  0  0  0
  5  6  2  0  0  0  0
  6  1  1  0  0  0  0
  6 13  1  0  0  0  0
  8  2  1  0  0  0  0
  9  4  1  0  0  0  0
 10  5  1  0  0  0  0
 12 11  3  0  0  0  0
 13 14  1  0  0  0  0
 14 16  1  0  0  0  0
 14 17  1  0  0  0  0
 15 14  1  0  0  0  0
 18 22  1  0  0  0  0
 18 20  1  0  0  0  0
 19 18  2  0  0  0  0
 21 18  2  0  0  0  0
 22 23  1  0  0  0  0
M  RAD  2   3   2  20   2
M  END
