Coordinates from ORCA-job p-CH3O-Ph-N2-HSO4-B3LYPG-aug-cc-pVDZ-scan-d09-49-n400
 OpenBabel12261916563D

 23 21  0  0  0  0  0  0  0  0999 V2000
   -0.0433    0.1600    0.9099 C   0  0  0  0  0  0  0  0  0  0  0  0
    0.9759    0.8092    0.1737 C   0  0  0  0  0  0  0  0  0  0  0  0
    0.7003    1.9646   -0.2493 C   0  0  0  0  0  0  0  0  0  0  0  0
   -0.3531    2.8394   -0.2207 C   0  0  0  0  0  0  0  0  0  0  0  0
   -1.3816    2.2124    0.5073 C   0  0  0  0  0  0  0  0  0  0  0  0
   -1.2351    0.9098    1.0583 C   0  0  0  0  0  0  0  0  0  0  0  0
    0.0713   -0.8372    1.3262 H   0  0  0  0  0  0  0  0  0  0  0  0
    2.5639   -0.1806   -0.0950 H   0  0  0  0  0  0  0  0  0  0  0  0
   -0.4306    3.8306   -0.6561 H   0  0  0  0  0  0  0  0  0  0  0  0
   -2.3272    2.7322    0.6600 H   0  0  0  0  0  0  0  0  0  0  0  0
    2.4765    3.6374   -1.7698 N   0  0  0  0  0  0  0  0  0  0  0  0
    3.4496    3.8996   -2.2200 N   0  0  0  0  0  0  0  0  0  0  0  0
   -2.3339    0.4592    1.7306 O   0  0  0  0  0  0  0  0  0  0  0  0
   -2.2823   -0.8409    2.3142 C   0  0  0  0  0  0  0  0  0  0  0  0
   -2.1264   -1.6143    1.5469 H   0  0  0  0  0  0  0  0  0  0  0  0
   -3.2555   -0.9893    2.7911 H   0  0  0  0  0  0  0  0  0  0  0  0
   -1.4872   -0.9040    3.0725 H   0  0  0  0  0  0  0  0  0  0  0  0
    4.5222   -0.3606   -1.0483 S   0  0  0  0  0  0  0  0  0  0  0  0
    4.0217    0.4730   -2.1478 O   0  0  0  0  0  0  0  0  0  0  0  0
    3.2929   -0.8676   -0.1160 O   0  0  0  0  0  0  0  0  0  0  0  0
    5.3844   -1.5343   -1.2407 O   0  0  0  0  0  0  0  0  0  0  0  0
    5.3043    0.6961   -0.0422 O   0  0  0  0  0  0  0  0  0  0  0  0
    5.8781    0.1661    0.5364 H   0  0  0  0  0  0  0  0  0  0  0  0
  1  6  1  0  0  0  0
  1  7  1  0  0  0  0
  2  1  2  0  0  0  0
  3  4  2  0  0  0  0
  3  2  1  0  0  0  0
  4  5  1  0  0  0  0
  5 10  1  0  0  0  0
  5  6  2  0  0  0  0
  6 13  1  0  0  0  0
  9  4  1  0  0  0  0
 12 11  3  0  0  0  0
 13 14  1  0  0  0  0
 14 16  1  0  0  0  0
 14 17  1  0  0  0  0
 15 14  1  0  0  0  0
 18 20  1  0  0  0  0
 18 22  1  0  0  0  0
 19 18  2  0  0  0  0
 20  8  1  0  0  0  0
 21 18  2  0  0  0  0
 22 23  1  0  0  0  0
M  RAD  2   2   2   3   2
M  END
