Coordinates from ORCA-job p-CH3O-Ph-N2-HSO4-B3LYPG-aug-cc-pVDZ-scan-d09-49-n400
 OpenBabel12261916563D

 23 21  0  0  0  0  0  0  0  0999 V2000
   -0.0566    0.1371    0.9237 C   0  0  0  0  0  0  0  0  0  0  0  0
    0.9634    0.7810    0.1870 C   0  0  0  0  0  0  0  0  0  0  0  0
    0.7080    1.9372   -0.2443 C   0  0  0  0  0  0  0  0  0  0  0  0
   -0.3444    2.8170   -0.2163 C   0  0  0  0  0  0  0  0  0  0  0  0
   -1.3775    2.1997    0.5116 C   0  0  0  0  0  0  0  0  0  0  0  0
   -1.2423    0.8975    1.0672 C   0  0  0  0  0  0  0  0  0  0  0  0
    0.0503   -0.8596    1.3429 H   0  0  0  0  0  0  0  0  0  0  0  0
    2.5676   -0.2065   -0.0950 H   0  0  0  0  0  0  0  0  0  0  0  0
   -0.4144    3.8078   -0.6545 H   0  0  0  0  0  0  0  0  0  0  0  0
   -2.3196    2.7267    0.6617 H   0  0  0  0  0  0  0  0  0  0  0  0
    2.5361    3.7122   -1.8379 N   0  0  0  0  0  0  0  0  0  0  0  0
    3.5099    3.9760   -2.2856 N   0  0  0  0  0  0  0  0  0  0  0  0
   -2.3458    0.4576    1.7388 O   0  0  0  0  0  0  0  0  0  0  0  0
   -2.3056   -0.8407    2.3270 C   0  0  0  0  0  0  0  0  0  0  0  0
   -2.1545   -1.6179    1.5626 H   0  0  0  0  0  0  0  0  0  0  0  0
   -3.2808   -0.9798    2.8027 H   0  0  0  0  0  0  0  0  0  0  0  0
   -1.5123   -0.9076    3.0869 H   0  0  0  0  0  0  0  0  0  0  0  0
    4.5225   -0.3478   -1.0494 S   0  0  0  0  0  0  0  0  0  0  0  0
    4.0052    0.4992   -2.1302 O   0  0  0  0  0  0  0  0  0  0  0  0
    3.3010   -0.8861   -0.1230 O   0  0  0  0  0  0  0  0  0  0  0  0
    5.3986   -1.5068   -1.2659 O   0  0  0  0  0  0  0  0  0  0  0  0
    5.2947    0.6989   -0.0259 O   0  0  0  0  0  0  0  0  0  0  0  0
    5.8810    0.1657    0.5371 H   0  0  0  0  0  0  0  0  0  0  0  0
  1  6  1  0  0  0  0
  1  7  1  0  0  0  0
  2  1  2  0  0  0  0
  3  4  2  0  0  0  0
  3  2  1  0  0  0  0
  4  5  1  0  0  0  0
  5 10  1  0  0  0  0
  5  6  2  0  0  0  0
  6 13  1  0  0  0  0
  9  4  1  0  0  0  0
 12 11  3  0  0  0  0
 13 14  1  0  0  0  0
 14 16  1  0  0  0  0
 14 17  1  0  0  0  0
 15 14  1  0  0  0  0
 18 20  1  0  0  0  0
 18 22  1  0  0  0  0
 19 18  2  0  0  0  0
 20  8  1  0  0  0  0
 21 18  2  0  0  0  0
 22 23  1  0  0  0  0
M  RAD  2   2   2   3   2
M  END
