Coordinates from ORCA-job p-CH3O-Ph-N2-HSO4-B3LYPG-aug-cc-pVDZ-scan-d09-49-n400
 OpenBabel12261916563D

 23 21  0  0  0  0  0  0  0  0999 V2000
   -0.1556   -0.0905    1.0223 C   0  0  0  0  0  0  0  0  0  0  0  0
    0.9176    0.4205    0.2637 C   0  0  0  0  0  0  0  0  0  0  0  0
    0.7961    1.5726   -0.2268 C   0  0  0  0  0  0  0  0  0  0  0  0
   -0.1642    2.5547   -0.2453 C   0  0  0  0  0  0  0  0  0  0  0  0
   -1.2551    2.0777    0.5038 C   0  0  0  0  0  0  0  0  0  0  0  0
   -1.2562    0.7956    1.1204 C   0  0  0  0  0  0  0  0  0  0  0  0
   -0.1515   -1.0719    1.4880 H   0  0  0  0  0  0  0  0  0  0  0  0
    2.5908   -0.4923   -0.1470 H   0  0  0  0  0  0  0  0  0  0  0  0
   -0.1344    3.5269   -0.7277 H   0  0  0  0  0  0  0  0  0  0  0  0
   -2.1393    2.7035    0.6240 H   0  0  0  0  0  0  0  0  0  0  0  0
    2.7181    4.4287   -2.3562 N   0  0  0  0  0  0  0  0  0  0  0  0
    3.6458    4.8833   -2.7454 N   0  0  0  0  0  0  0  0  0  0  0  0
   -2.4017    0.5046    1.8034 O   0  0  0  0  0  0  0  0  0  0  0  0
   -2.4973   -0.7608    2.4531 C   0  0  0  0  0  0  0  0  0  0  0  0
   -2.4255   -1.5856    1.7279 H   0  0  0  0  0  0  0  0  0  0  0  0
   -3.4828   -0.7755    2.9276 H   0  0  0  0  0  0  0  0  0  0  0  0
   -1.7171   -0.8724    3.2213 H   0  0  0  0  0  0  0  0  0  0  0  0
    4.5553   -0.2459   -1.0441 S   0  0  0  0  0  0  0  0  0  0  0  0
    3.9688    0.7640   -1.9327 O   0  0  0  0  0  0  0  0  0  0  0  0
    3.3812   -1.0823   -0.2917 O   0  0  0  0  0  0  0  0  0  0  0  0
    5.5391   -1.2461   -1.4785 O   0  0  0  0  0  0  0  0  0  0  0  0
    5.2132    0.6198    0.2027 O   0  0  0  0  0  0  0  0  0  0  0  0
    5.8394    0.0320    0.6583 H   0  0  0  0  0  0  0  0  0  0  0  0
  1  6  1  0  0  0  0
  1  7  1  0  0  0  0
  2  1  2  0  0  0  0
  3  2  1  0  0  0  0
  4  3  2  0  0  0  0
  4  5  1  0  0  0  0
  5 10  1  0  0  0  0
  5  6  2  0  0  0  0
  6 13  1  0  0  0  0
  9  4  1  0  0  0  0
 12 11  3  0  0  0  0
 13 14  1  0  0  0  0
 14 16  1  0  0  0  0
 14 17  1  0  0  0  0
 15 14  1  0  0  0  0
 18 20  1  0  0  0  0
 18 22  1  0  0  0  0
 19 18  2  0  0  0  0
 20  8  1  0  0  0  0
 21 18  2  0  0  0  0
 22 23  1  0  0  0  0
M  RAD  2   2   2   3   2
M  END
