Coordinates from ORCA-job p-CH3O-Ph-N2-HSO4-B3LYPG-aug-cc-pVDZ-scan-d09-49-n400
 OpenBabel12261916563D

 23 22  0  0  0  0  0  0  0  0999 V2000
    0.0024    0.1687    1.0356 C   0  0  0  0  0  0  0  0  0  0  0  0
    1.1787    0.6374    0.4259 C   0  0  0  0  0  0  0  0  0  0  0  0
    1.0099    1.8395   -0.1887 C   0  0  0  0  0  0  0  0  0  0  0  0
   -0.0900    2.6558   -0.3323 C   0  0  0  0  0  0  0  0  0  0  0  0
   -1.2341    2.1455    0.2799 C   0  0  0  0  0  0  0  0  0  0  0  0
   -1.1926    0.9088    0.9610 C   0  0  0  0  0  0  0  0  0  0  0  0
    0.0513   -0.7845    1.5549 H   0  0  0  0  0  0  0  0  0  0  0  0
    2.1316    0.0822    0.4514 H   0  0  0  0  0  0  0  0  0  0  0  0
   -0.0853    3.6007   -0.8676 H   0  0  0  0  0  0  0  0  0  0  0  0
   -2.1712    2.6973    0.2344 H   0  0  0  0  0  0  0  0  0  0  0  0
    2.4885    2.5418   -0.9663 N   0  0  0  0  0  0  0  0  0  0  0  0
    3.1827    3.3232   -1.3280 N   0  0  0  0  0  0  0  0  0  0  0  0
   -2.3640    0.5192    1.5114 O   0  0  0  0  0  0  0  0  0  0  0  0
   -2.4144   -0.7304    2.2102 C   0  0  0  0  0  0  0  0  0  0  0  0
   -2.1662   -1.5646    1.5387 H   0  0  0  0  0  0  0  0  0  0  0  0
   -3.4469   -0.8290    2.5553 H   0  0  0  0  0  0  0  0  0  0  0  0
   -1.7338   -0.7242    3.0735 H   0  0  0  0  0  0  0  0  0  0  0  0
    4.3487   -0.2400   -0.9627 S   0  0  0  0  0  0  0  0  0  0  0  0
    3.2541    0.4162   -1.7815 O   0  0  0  0  0  0  0  0  0  0  0  0
    3.8270   -0.7360    0.3596 O   0  0  0  0  0  0  0  0  0  0  0  0
    5.2520   -1.1595   -1.7017 O   0  0  0  0  0  0  0  0  0  0  0  0
    5.3225    1.1000   -0.5630 O   0  0  0  0  0  0  0  0  0  0  0  0
    6.2340    0.7927   -0.6787 H   0  0  0  0  0  0  0  0  0  0  0  0
  1  7  1  0  0  0  0
  2  8  1  0  0  0  0
  2  1  2  0  0  0  0
  3  2  1  0  0  0  0
  4  3  2  0  0  0  0
  4  5  1  0  0  0  0
  5  6  2  0  0  0  0
  6  1  1  0  0  0  0
  6 13  1  0  0  0  0
  9  4  1  0  0  0  0
 10  5  1  0  0  0  0
 11  3  1  0  0  0  0
 12 11  1  0  0  0  0
 13 14  1  0  0  0  0
 14 16  1  0  0  0  0
 14 17  1  0  0  0  0
 15 14  1  0  0  0  0
 18 22  1  0  0  0  0
 18 20  1  0  0  0  0
 19 18  2  0  0  0  0
 21 18  2  0  0  0  0
 23 22  1  0  0  0  0
M  RAD  3  11   2  12   3  20   2
M  END
