Coordinates from ORCA-job p-CH3O-Ph-N2-HSO4-B3LYPG-aug-cc-pVDZ-scan-d09-49-n400
 OpenBabel12261916563D

 23 21  0  0  0  0  0  0  0  0999 V2000
   -0.1421   -0.0481    1.0082 C   0  0  0  0  0  0  0  0  0  0  0  0
    0.9208    0.4955    0.2577 C   0  0  0  0  0  0  0  0  0  0  0  0
    0.7742    1.6508   -0.2166 C   0  0  0  0  0  0  0  0  0  0  0  0
   -0.2053    2.6139   -0.2234 C   0  0  0  0  0  0  0  0  0  0  0  0
   -1.2866    2.1040    0.5181 C   0  0  0  0  0  0  0  0  0  0  0  0
   -1.2613    0.8135    1.1172 C   0  0  0  0  0  0  0  0  0  0  0  0
   -0.1178   -1.0355    1.4603 H   0  0  0  0  0  0  0  0  0  0  0  0
    2.5868   -0.4261   -0.1336 H   0  0  0  0  0  0  0  0  0  0  0  0
   -0.1954    3.5929   -0.6926 H   0  0  0  0  0  0  0  0  0  0  0  0
   -2.1837    2.7095    0.6460 H   0  0  0  0  0  0  0  0  0  0  0  0
    2.7320    4.2618   -2.2731 N   0  0  0  0  0  0  0  0  0  0  0  0
    3.6668    4.6737   -2.6917 N   0  0  0  0  0  0  0  0  0  0  0  0
   -2.4007    0.4891    1.7950 O   0  0  0  0  0  0  0  0  0  0  0  0
   -2.4704   -0.7871    2.4267 C   0  0  0  0  0  0  0  0  0  0  0  0
   -2.3808   -1.5998    1.6900 H   0  0  0  0  0  0  0  0  0  0  0  0
   -3.4558   -0.8290    2.8999 H   0  0  0  0  0  0  0  0  0  0  0  0
   -1.6886   -0.8932    3.1941 H   0  0  0  0  0  0  0  0  0  0  0  0
    4.5518   -0.2564   -1.0529 S   0  0  0  0  0  0  0  0  0  0  0  0
    3.9794    0.7184   -1.9887 O   0  0  0  0  0  0  0  0  0  0  0  0
    3.3671   -1.0349   -0.2555 O   0  0  0  0  0  0  0  0  0  0  0  0
    5.5163   -1.2939   -1.4404 O   0  0  0  0  0  0  0  0  0  0  0  0
    5.2299    0.6584    0.1475 O   0  0  0  0  0  0  0  0  0  0  0  0
    5.8484    0.0832    0.6288 H   0  0  0  0  0  0  0  0  0  0  0  0
  1  6  1  0  0  0  0
  1  7  1  0  0  0  0
  2  1  2  0  0  0  0
  3  2  1  0  0  0  0
  4  3  2  0  0  0  0
  4  5  1  0  0  0  0
  5 10  1  0  0  0  0
  5  6  2  0  0  0  0
  6 13  1  0  0  0  0
  9  4  1  0  0  0  0
 12 11  3  0  0  0  0
 13 14  1  0  0  0  0
 14 16  1  0  0  0  0
 14 17  1  0  0  0  0
 15 14  1  0  0  0  0
 18 20  1  0  0  0  0
 18 22  1  0  0  0  0
 19 18  2  0  0  0  0
 20  8  1  0  0  0  0
 21 18  2  0  0  0  0
 22 23  1  0  0  0  0
M  RAD  2   2   2   3   2
M  END
