Coordinates from ORCA-job p-CH3O-Ph-N2-HSO4-B3LYPG-aug-cc-pVDZ-scan-d09-49-n400
 OpenBabel12261916563D

 23 21  0  0  0  0  0  0  0  0999 V2000
   -0.1123    0.0294    0.9747 C   0  0  0  0  0  0  0  0  0  0  0  0
    0.9316    0.6206    0.2310 C   0  0  0  0  0  0  0  0  0  0  0  0
    0.7392    1.7797   -0.2202 C   0  0  0  0  0  0  0  0  0  0  0  0
   -0.2744    2.7063   -0.2060 C   0  0  0  0  0  0  0  0  0  0  0  0
   -1.3348    2.1461    0.5291 C   0  0  0  0  0  0  0  0  0  0  0  0
   -1.2612    0.8473    1.1037 C   0  0  0  0  0  0  0  0  0  0  0  0
   -0.0517   -0.9649    1.4082 H   0  0  0  0  0  0  0  0  0  0  0  0
    2.5759   -0.3264   -0.1229 H   0  0  0  0  0  0  0  0  0  0  0  0
   -0.3008    3.6933   -0.6573 H   0  0  0  0  0  0  0  0  0  0  0  0
   -2.2521    2.7175    0.6704 H   0  0  0  0  0  0  0  0  0  0  0  0
    2.7092    4.0088   -2.1142 N   0  0  0  0  0  0  0  0  0  0  0  0
    3.6589    4.3533   -2.5592 N   0  0  0  0  0  0  0  0  0  0  0  0
   -2.3856    0.4692    1.7789 O   0  0  0  0  0  0  0  0  0  0  0  0
   -2.4068   -0.8206    2.3863 C   0  0  0  0  0  0  0  0  0  0  0  0
   -2.2907   -1.6154    1.6339 H   0  0  0  0  0  0  0  0  0  0  0  0
   -3.3882   -0.9070    2.8616 H   0  0  0  0  0  0  0  0  0  0  0  0
   -1.6189   -0.9129    3.1491 H   0  0  0  0  0  0  0  0  0  0  0  0
    4.5419   -0.2863   -1.0577 S   0  0  0  0  0  0  0  0  0  0  0  0
    3.9977    0.6319   -2.0644 O   0  0  0  0  0  0  0  0  0  0  0  0
    3.3362   -0.9675   -0.2065 O   0  0  0  0  0  0  0  0  0  0  0  0
    5.4754   -1.3777   -1.3651 O   0  0  0  0  0  0  0  0  0  0  0  0
    5.2474    0.6957    0.0719 O   0  0  0  0  0  0  0  0  0  0  0  0
    5.8489    0.1403    0.5960 H   0  0  0  0  0  0  0  0  0  0  0  0
  1  6  1  0  0  0  0
  1  7  1  0  0  0  0
  2  1  2  0  0  0  0
  3  4  2  0  0  0  0
  3  2  1  0  0  0  0
  4  5  1  0  0  0  0
  5 10  1  0  0  0  0
  5  6  2  0  0  0  0
  6 13  1  0  0  0  0
  9  4  1  0  0  0  0
 12 11  3  0  0  0  0
 13 14  1  0  0  0  0
 14 16  1  0  0  0  0
 14 17  1  0  0  0  0
 15 14  1  0  0  0  0
 18 20  1  0  0  0  0
 18 22  1  0  0  0  0
 19 18  2  0  0  0  0
 20  8  1  0  0  0  0
 21 18  2  0  0  0  0
 22 23  1  0  0  0  0
M  RAD  2   2   2   3   2
M  END
