Coordinates from ORCA-job p-CH3O-Ph-N2-HSO4-B3LYPG-aug-cc-pVDZ-scan-d09-49-n400
 OpenBabel12261916563D

 23 22  0  0  0  0  0  0  0  0999 V2000
   -0.1319   -0.0446    0.4236 C   0  0  0  0  0  0  0  0  0  0  0  0
    0.8641    0.3130   -0.4800 C   0  0  0  0  0  0  0  0  0  0  0  0
    1.0130    1.6699   -0.7439 C   0  0  0  0  0  0  0  0  0  0  0  0
    0.2493    2.6972   -0.1677 C   0  0  0  0  0  0  0  0  0  0  0  0
   -0.7280    2.3156    0.7307 C   0  0  0  0  0  0  0  0  0  0  0  0
   -0.9218    0.9459    1.0365 C   0  0  0  0  0  0  0  0  0  0  0  0
   -0.2544   -1.0961    0.6648 H   0  0  0  0  0  0  0  0  0  0  0  0
    1.5327   -0.4072   -0.9440 H   0  0  0  0  0  0  0  0  0  0  0  0
    0.4233    3.7431   -0.4100 H   0  0  0  0  0  0  0  0  0  0  0  0
   -1.3540    3.0572    1.2228 H   0  0  0  0  0  0  0  0  0  0  0  0
    2.0629    2.1227   -1.7171 N   0  0  0  0  0  0  0  0  0  0  0  0
    2.7104    2.6730   -2.4305 N   0  0  0  0  0  0  0  0  0  0  0  0
   -1.8916    0.6952    1.9340 O   0  0  0  0  0  0  0  0  0  0  0  0
   -2.1361   -0.6612    2.3353 C   0  0  0  0  0  0  0  0  0  0  0  0
   -2.4510   -1.2702    1.4766 H   0  0  0  0  0  0  0  0  0  0  0  0
   -2.9468   -0.6039    3.0660 H   0  0  0  0  0  0  0  0  0  0  0  0
   -1.2414   -1.0945    2.8026 H   0  0  0  0  0  0  0  0  0  0  0  0
    4.2791   -0.1358   -0.5084 S   0  0  0  0  0  0  0  0  0  0  0  0
    3.4838    0.0056   -1.7914 O   0  0  0  0  0  0  0  0  0  0  0  0
    3.4701   -0.7384    0.5989 O   0  0  0  0  0  0  0  0  0  0  0  0
    5.6743   -0.6241   -0.6555 O   0  0  0  0  0  0  0  0  0  0  0  0
    4.4395    1.5259   -0.0833 O   0  0  0  0  0  0  0  0  0  0  0  0
    5.2394    1.5726    0.4611 H   0  0  0  0  0  0  0  0  0  0  0  0
  1  7  1  0  0  0  0
  1  6  2  0  0  0  0
  2  1  1  0  0  0  0
  3  2  2  0  0  0  0
  3  4  1  0  0  0  0
  4  5  2  0  0  0  0
  5  6  1  0  0  0  0
  5 10  1  0  0  0  0
  6 13  1  0  0  0  0
  8  2  1  0  0  0  0
  9  4  1  0  0  0  0
 11  3  1  0  0  0  0
 12 11  1  0  0  0  0
 13 14  1  0  0  0  0
 14 17  1  0  0  0  0
 14 16  1  0  0  0  0
 15 14  1  0  0  0  0
 18 22  1  0  0  0  0
 18 20  1  0  0  0  0
 19 18  2  0  0  0  0
 21 18  2  0  0  0  0
 22 23  1  0  0  0  0
M  RAD  3  11   2  12   3  20   2
M  END
