Coordinates from ORCA-job p-CH3O-Ph-N2-HSO4-B3LYPG-aug-cc-pVDZ-scan-d09-49-n400
 OpenBabel12261916563D

 23 21  0  0  0  0  0  0  0  0999 V2000
   -0.0726    0.1063    0.9397 C   0  0  0  0  0  0  0  0  0  0  0  0
    0.9531    0.7374    0.2011 C   0  0  0  0  0  0  0  0  0  0  0  0
    0.7151    1.8945   -0.2358 C   0  0  0  0  0  0  0  0  0  0  0  0
   -0.3272    2.7869   -0.2122 C   0  0  0  0  0  0  0  0  0  0  0  0
   -1.3678    2.1839    0.5176 C   0  0  0  0  0  0  0  0  0  0  0  0
   -1.2488    0.8822    1.0786 C   0  0  0  0  0  0  0  0  0  0  0  0
    0.0222   -0.8899    1.3628 H   0  0  0  0  0  0  0  0  0  0  0  0
    2.5674   -0.2420   -0.1020 H   0  0  0  0  0  0  0  0  0  0  0  0
   -0.3858    3.7767   -0.6539 H   0  0  0  0  0  0  0  0  0  0  0  0
   -2.3037    2.7224    0.6652 H   0  0  0  0  0  0  0  0  0  0  0  0
    2.6024    3.7971   -1.9209 N   0  0  0  0  0  0  0  0  0  0  0  0
    3.5699    4.0815   -2.3698 N   0  0  0  0  0  0  0  0  0  0  0  0
   -2.3585    0.4588    1.7509 O   0  0  0  0  0  0  0  0  0  0  0  0
   -2.3347   -0.8374    2.3447 C   0  0  0  0  0  0  0  0  0  0  0  0
   -2.1924   -1.6197    1.5838 H   0  0  0  0  0  0  0  0  0  0  0  0
   -3.3119   -0.9624    2.8200 H   0  0  0  0  0  0  0  0  0  0  0  0
   -1.5430   -0.9106    3.1057 H   0  0  0  0  0  0  0  0  0  0  0  0
    4.5259   -0.3290   -1.0529 S   0  0  0  0  0  0  0  0  0  0  0  0
    3.9998    0.5377   -2.1136 O   0  0  0  0  0  0  0  0  0  0  0  0
    3.3088   -0.9108   -0.1465 O   0  0  0  0  0  0  0  0  0  0  0  0
    5.4206   -1.4684   -1.2954 O   0  0  0  0  0  0  0  0  0  0  0  0
    5.2768    0.7022    0.0014 O   0  0  0  0  0  0  0  0  0  0  0  0
    5.8691    0.1636    0.5529 H   0  0  0  0  0  0  0  0  0  0  0  0
  1  6  1  0  0  0  0
  1  7  1  0  0  0  0
  2  1  2  0  0  0  0
  3  4  2  0  0  0  0
  3  2  1  0  0  0  0
  4  5  1  0  0  0  0
  5 10  1  0  0  0  0
  5  6  2  0  0  0  0
  6 13  1  0  0  0  0
  9  4  1  0  0  0  0
 12 11  3  0  0  0  0
 13 14  1  0  0  0  0
 14 16  1  0  0  0  0
 14 17  1  0  0  0  0
 15 14  1  0  0  0  0
 18 20  1  0  0  0  0
 18 22  1  0  0  0  0
 19 18  2  0  0  0  0
 20  8  1  0  0  0  0
 21 18  2  0  0  0  0
 22 23  1  0  0  0  0
M  RAD  2   2   2   3   2
M  END
