Coordinates from ORCA-job p-CH3O-Ph-N2-HSO4-B3LYPG-aug-cc-pVDZ-scan-d09-49-n400
 OpenBabel12261916563D

 23 22  0  0  0  0  0  0  0  0999 V2000
   -0.2502    0.0184   -0.3364 C   0  0  0  0  0  0  0  0  0  0  0  0
    0.2579    0.4389   -1.5338 C   0  0  0  0  0  0  0  0  0  0  0  0
    0.7378    1.7836   -1.6819 C   0  0  0  0  0  0  0  0  0  0  0  0
    0.6790    2.6851   -0.5635 C   0  0  0  0  0  0  0  0  0  0  0  0
    0.1659    2.2538    0.6241 C   0  0  0  0  0  0  0  0  0  0  0  0
   -0.2732    0.9066    0.7736 C   0  0  0  0  0  0  0  0  0  0  0  0
   -0.5739   -1.0115   -0.2274 H   0  0  0  0  0  0  0  0  0  0  0  0
    0.3314   -0.2383   -2.3824 H   0  0  0  0  0  0  0  0  0  0  0  0
    1.0731    3.6933   -0.6785 H   0  0  0  0  0  0  0  0  0  0  0  0
    0.1385    2.9044    1.4951 H   0  0  0  0  0  0  0  0  0  0  0  0
    1.2577    2.1363   -2.7286 N   0  0  0  0  0  0  0  0  0  0  0  0
    1.7451    2.4621   -3.6986 N   0  0  0  0  0  0  0  0  0  0  0  0
   -0.7460    0.5970    1.9646 O   0  0  0  0  0  0  0  0  0  0  0  0
   -0.9811   -0.7889    2.3023 C   0  0  0  0  0  0  0  0  0  0  0  0
   -1.8192   -1.1865    1.7145 H   0  0  0  0  0  0  0  0  0  0  0  0
   -1.2435   -0.7777    3.3625 H   0  0  0  0  0  0  0  0  0  0  0  0
   -0.0566   -1.3533    2.1373 H   0  0  0  0  0  0  0  0  0  0  0  0
    3.2605    0.0500    0.8030 S   0  0  0  0  0  0  0  0  0  0  0  0
    3.0117    0.4770   -0.6174 O   0  0  0  0  0  0  0  0  0  0  0  0
    1.9904   -0.3606    1.5091 O   0  0  0  0  0  0  0  0  0  0  0  0
    4.4309   -0.8460    1.0260 O   0  0  0  0  0  0  0  0  0  0  0  0
    3.6927    1.5035    1.5807 O   0  0  0  0  0  0  0  0  0  0  0  0
    4.5560    1.3136    1.9769 H   0  0  0  0  0  0  0  0  0  0  0  0
  1  7  1  0  0  0  0
  1  6  2  0  0  0  0
  2  1  1  0  0  0  0
  3  2  2  0  0  0  0
  3  4  1  0  0  0  0
  4  5  2  0  0  0  0
  5  6  1  0  0  0  0
  5 10  1  0  0  0  0
  6 13  1  0  0  0  0
  8  2  1  0  0  0  0
  9  4  1  0  0  0  0
 11  3  1  0  0  0  0
 12 11  1  0  0  0  0
 13 14  1  0  0  0  0
 14 16  1  0  0  0  0
 15 14  1  0  0  0  0
 17 14  1  0  0  0  0
 18 21  2  0  0  0  0
 18 20  1  0  0  0  0
 18 22  1  0  0  0  0
 19 18  2  0  0  0  0
 22 23  1  0  0  0  0
M  RAD  3  11   2  12   3  20   2
M  END
