Coordinates from ORCA-job p-CH3O-Ph-N2-HSO4-B3LYPG-aug-cc-pVDZ-scan-d09-49-n400
 OpenBabel12261916563D

 23 21  0  0  0  0  0  0  0  0999 V2000
   -0.0549    0.1405    0.9218 C   0  0  0  0  0  0  0  0  0  0  0  0
    0.9649    0.7854    0.1853 C   0  0  0  0  0  0  0  0  0  0  0  0
    0.7074    1.9417   -0.2452 C   0  0  0  0  0  0  0  0  0  0  0  0
   -0.3459    2.8203   -0.2168 C   0  0  0  0  0  0  0  0  0  0  0  0
   -1.3783    2.2016    0.5109 C   0  0  0  0  0  0  0  0  0  0  0  0
   -1.2415    0.8993    1.0659 C   0  0  0  0  0  0  0  0  0  0  0  0
    0.0532   -0.8562    1.3406 H   0  0  0  0  0  0  0  0  0  0  0  0
    2.5680   -0.2019   -0.0948 H   0  0  0  0  0  0  0  0  0  0  0  0
   -0.4169    3.8111   -0.6546 H   0  0  0  0  0  0  0  0  0  0  0  0
   -2.3210    2.7275    0.6613 H   0  0  0  0  0  0  0  0  0  0  0  0
    2.5269    3.7016   -1.8275 N   0  0  0  0  0  0  0  0  0  0  0  0
    3.5009    3.9642   -2.2753 N   0  0  0  0  0  0  0  0  0  0  0  0
   -2.3444    0.4578    1.7375 O   0  0  0  0  0  0  0  0  0  0  0  0
   -2.3025   -0.8408    2.3250 C   0  0  0  0  0  0  0  0  0  0  0  0
   -2.1505   -1.6175    1.5602 H   0  0  0  0  0  0  0  0  0  0  0  0
   -3.2774   -0.9813    2.8007 H   0  0  0  0  0  0  0  0  0  0  0  0
   -1.5090   -0.9071    3.0848 H   0  0  0  0  0  0  0  0  0  0  0  0
    4.5227   -0.3500   -1.0492 S   0  0  0  0  0  0  0  0  0  0  0  0
    4.0072    0.4945   -2.1328 O   0  0  0  0  0  0  0  0  0  0  0  0
    3.3004   -0.8829   -0.1210 O   0  0  0  0  0  0  0  0  0  0  0  0
    5.3965   -1.5115   -1.2621 O   0  0  0  0  0  0  0  0  0  0  0  0
    5.2971    0.6985   -0.0292 O   0  0  0  0  0  0  0  0  0  0  0  0
    5.8821    0.1660    0.5357 H   0  0  0  0  0  0  0  0  0  0  0  0
  1  6  1  0  0  0  0
  1  7  1  0  0  0  0
  2  1  2  0  0  0  0
  3  4  2  0  0  0  0
  3  2  1  0  0  0  0
  4  5  1  0  0  0  0
  5 10  1  0  0  0  0
  5  6  2  0  0  0  0
  6 13  1  0  0  0  0
  9  4  1  0  0  0  0
 12 11  3  0  0  0  0
 13 14  1  0  0  0  0
 14 16  1  0  0  0  0
 14 17  1  0  0  0  0
 15 14  1  0  0  0  0
 18 20  1  0  0  0  0
 18 22  1  0  0  0  0
 19 18  2  0  0  0  0
 20  8  1  0  0  0  0
 21 18  2  0  0  0  0
 22 23  1  0  0  0  0
M  RAD  2   2   2   3   2
M  END
