Coordinates from ORCA-job p-CH3O-Ph-N2-HSO4-B3LYPG-aug-cc-pVDZ-scan-d09-49-n400
 OpenBabel12261916563D

 23 21  0  0  0  0  0  0  0  0999 V2000
   -0.1528   -0.0816    1.0198 C   0  0  0  0  0  0  0  0  0  0  0  0
    0.9185    0.4363    0.2631 C   0  0  0  0  0  0  0  0  0  0  0  0
    0.7920    1.5893   -0.2240 C   0  0  0  0  0  0  0  0  0  0  0  0
   -0.1728    2.5672   -0.2401 C   0  0  0  0  0  0  0  0  0  0  0  0
   -1.2618    2.0832    0.5071 C   0  0  0  0  0  0  0  0  0  0  0  0
   -1.2575    0.7993    1.1200 C   0  0  0  0  0  0  0  0  0  0  0  0
   -0.1447   -1.0644    1.4825 H   0  0  0  0  0  0  0  0  0  0  0  0
    2.5900   -0.4781   -0.1436 H   0  0  0  0  0  0  0  0  0  0  0  0
   -0.1470    3.5409   -0.7197 H   0  0  0  0  0  0  0  0  0  0  0  0
   -2.1488    2.7047    0.6288 H   0  0  0  0  0  0  0  0  0  0  0  0
    2.7221    4.3929   -2.3398 N   0  0  0  0  0  0  0  0  0  0  0  0
    3.6515    4.8383   -2.7357 N   0  0  0  0  0  0  0  0  0  0  0  0
   -2.4019    0.5011    1.8016 O   0  0  0  0  0  0  0  0  0  0  0  0
   -2.4922   -0.7667    2.4473 C   0  0  0  0  0  0  0  0  0  0  0  0
   -2.4164   -1.5889    1.7197 H   0  0  0  0  0  0  0  0  0  0  0  0
   -3.4778   -0.7872    2.9213 H   0  0  0  0  0  0  0  0  0  0  0  0
   -1.7118   -0.8771    3.2156 H   0  0  0  0  0  0  0  0  0  0  0  0
    4.5543   -0.2475   -1.0460 S   0  0  0  0  0  0  0  0  0  0  0  0
    3.9703    0.7555   -1.9440 O   0  0  0  0  0  0  0  0  0  0  0  0
    3.3783   -1.0720   -0.2835 O   0  0  0  0  0  0  0  0  0  0  0  0
    5.5338   -1.2556   -1.4717 O   0  0  0  0  0  0  0  0  0  0  0  0
    5.2173    0.6283    0.1911 O   0  0  0  0  0  0  0  0  0  0  0  0
    5.8421    0.0428    0.6515 H   0  0  0  0  0  0  0  0  0  0  0  0
  1  6  1  0  0  0  0
  1  7  1  0  0  0  0
  2  1  2  0  0  0  0
  3  2  1  0  0  0  0
  4  3  2  0  0  0  0
  4  5  1  0  0  0  0
  5 10  1  0  0  0  0
  5  6  2  0  0  0  0
  6 13  1  0  0  0  0
  9  4  1  0  0  0  0
 12 11  3  0  0  0  0
 13 14  1  0  0  0  0
 14 16  1  0  0  0  0
 14 17  1  0  0  0  0
 15 14  1  0  0  0  0
 18 20  1  0  0  0  0
 18 22  1  0  0  0  0
 19 18  2  0  0  0  0
 20  8  1  0  0  0  0
 21 18  2  0  0  0  0
 22 23  1  0  0  0  0
M  RAD  2   2   2   3   2
M  END
