Coordinates from ORCA-job p-CH3O-Ph-N2-HSO4-B3LYPG-aug-cc-pVDZ-scan-d09-49-n400
 OpenBabel12261916563D

 23 21  0  0  0  0  0  0  0  0999 V2000
   -0.1622   -0.1151    1.0302 C   0  0  0  0  0  0  0  0  0  0  0  0
    0.9163    0.3773    0.2673 C   0  0  0  0  0  0  0  0  0  0  0  0
    0.8081    1.5262   -0.2319 C   0  0  0  0  0  0  0  0  0  0  0  0
   -0.1388    2.5213   -0.2590 C   0  0  0  0  0  0  0  0  0  0  0  0
   -1.2349    2.0632    0.4945 C   0  0  0  0  0  0  0  0  0  0  0  0
   -1.2516    0.7857    1.1214 C   0  0  0  0  0  0  0  0  0  0  0  0
   -0.1700   -1.0927    1.5038 H   0  0  0  0  0  0  0  0  0  0  0  0
    2.5929   -0.5303   -0.1530 H   0  0  0  0  0  0  0  0  0  0  0  0
   -0.0969    3.4893   -0.7492 H   0  0  0  0  0  0  0  0  0  0  0  0
   -2.1114    2.7005    0.6101 H   0  0  0  0  0  0  0  0  0  0  0  0
    2.7016    4.5278   -2.3987 N   0  0  0  0  0  0  0  0  0  0  0  0
    3.6235    5.0080   -2.7707 N   0  0  0  0  0  0  0  0  0  0  0  0
   -2.4004    0.5146    1.8070 O   0  0  0  0  0  0  0  0  0  0  0  0
   -2.5117   -0.7443    2.4668 C   0  0  0  0  0  0  0  0  0  0  0  0
   -2.4505   -1.5757    1.7482 H   0  0  0  0  0  0  0  0  0  0  0  0
   -3.4972   -0.7428    2.9416 H   0  0  0  0  0  0  0  0  0  0  0  0
   -1.7328   -0.8595    3.2357 H   0  0  0  0  0  0  0  0  0  0  0  0
    4.5574   -0.2437   -1.0386 S   0  0  0  0  0  0  0  0  0  0  0  0
    3.9642    0.7826   -1.9042 O   0  0  0  0  0  0  0  0  0  0  0  0
    3.3892   -1.1091   -0.3094 O   0  0  0  0  0  0  0  0  0  0  0  0
    5.5512   -1.2240   -1.4948 O   0  0  0  0  0  0  0  0  0  0  0  0
    5.2043    0.5974    0.2306 O   0  0  0  0  0  0  0  0  0  0  0  0
    5.8346    0.0043    0.6735 H   0  0  0  0  0  0  0  0  0  0  0  0
  1  6  1  0  0  0  0
  1  7  1  0  0  0  0
  2  1  2  0  0  0  0
  3  2  1  0  0  0  0
  4  3  2  0  0  0  0
  4  5  1  0  0  0  0
  5 10  1  0  0  0  0
  5  6  2  0  0  0  0
  6 13  1  0  0  0  0
  9  4  1  0  0  0  0
 12 11  3  0  0  0  0
 13 14  1  0  0  0  0
 14 16  1  0  0  0  0
 14 17  1  0  0  0  0
 15 14  1  0  0  0  0
 18 20  1  0  0  0  0
 18 22  1  0  0  0  0
 19 18  2  0  0  0  0
 20  8  1  0  0  0  0
 21 18  2  0  0  0  0
 22 23  1  0  0  0  0
M  RAD  2   2   2   3   2
M  END
