Coordinates from ORCA-job p-CH3O-Ph-N2-HSO4-B3LYPG-aug-cc-pVDZ-scan-d09-49-n400
 OpenBabel12261916563D

 23 22  0  0  0  0  0  0  0  0999 V2000
   -0.2458   -0.6256    0.8371 C   0  0  0  0  0  0  0  0  0  0  0  0
    0.8853   -0.7017    0.0162 C   0  0  0  0  0  0  0  0  0  0  0  0
    1.4580    0.4673   -0.4703 C   0  0  0  0  0  0  0  0  0  0  0  0
    0.9245    1.7223   -0.1618 C   0  0  0  0  0  0  0  0  0  0  0  0
   -0.2016    1.7987    0.6515 C   0  0  0  0  0  0  0  0  0  0  0  0
   -0.7916    0.6267    1.1569 C   0  0  0  0  0  0  0  0  0  0  0  0
   -0.6867   -1.5457    1.2116 H   0  0  0  0  0  0  0  0  0  0  0  0
    1.3192   -1.6658   -0.2410 H   0  0  0  0  0  0  0  0  0  0  0  0
    1.3839    2.6226   -0.5665 H   0  0  0  0  0  0  0  0  0  0  0  0
   -0.6459    2.7605    0.9039 H   0  0  0  0  0  0  0  0  0  0  0  0
    2.9473    4.5837   -2.6719 N   0  0  0  0  0  0  0  0  0  0  0  0
    3.5983    4.9147   -3.5000 N   0  0  0  0  0  0  0  0  0  0  0  0
   -1.8903    0.8119    1.9433 O   0  0  0  0  0  0  0  0  0  0  0  0
   -2.5411   -0.3377    2.4780 C   0  0  0  0  0  0  0  0  0  0  0  0
   -2.9181   -0.9904    1.6759 H   0  0  0  0  0  0  0  0  0  0  0  0
   -3.3826    0.0439    3.0637 H   0  0  0  0  0  0  0  0  0  0  0  0
   -1.8662   -0.9084    3.1339 H   0  0  0  0  0  0  0  0  0  0  0  0
    4.0687    0.2150   -0.7371 S   0  0  0  0  0  0  0  0  0  0  0  0
    2.5450    0.4055   -1.3683 O   0  0  0  0  0  0  0  0  0  0  0  0
    4.0741   -0.8665    0.2650 O   0  0  0  0  0  0  0  0  0  0  0  0
    4.9525    0.2511   -1.8986 O   0  0  0  0  0  0  0  0  0  0  0  0
    4.2682    1.6390    0.0791 O   0  0  0  0  0  0  0  0  0  0  0  0
    4.1297    1.4395    1.0205 H   0  0  0  0  0  0  0  0  0  0  0  0
  1  6  1  0  0  0  0
  1  7  1  0  0  0  0
  2  1  2  0  0  0  0
  3  4  2  0  0  0  0
  3  2  1  0  0  0  0
  4  5  1  0  0  0  0
  5 10  1  0  0  0  0
  5  6  2  0  0  0  0
  6 13  1  0  0  0  0
  8  2  1  0  0  0  0
  9  4  1  0  0  0  0
 12 11  3  0  0  0  0
 13 14  1  0  0  0  0
 14 16  1  0  0  0  0
 14 17  1  0  0  0  0
 15 14  1  0  0  0  0
 18 22  1  0  0  0  0
 18 20  2  0  0  0  0
 19 18  1  0  0  0  0
 19  3  1  0  0  0  0
 21 18  2  0  0  0  0
 22 23  1  0  0  0  0
M  END
