Coordinates from ORCA-job p-CH3O-Ph-N2-HSO4-B3LYPG-aug-cc-pVDZ-scan-d09-49-n400
 OpenBabel12261916563D

 23 22  0  0  0  0  0  0  0  0999 V2000
   -0.2481   -0.6119    0.8170 C   0  0  0  0  0  0  0  0  0  0  0  0
    0.8821   -0.6716   -0.0063 C   0  0  0  0  0  0  0  0  0  0  0  0
    1.4592    0.5070   -0.4648 C   0  0  0  0  0  0  0  0  0  0  0  0
    0.9298    1.7553   -0.1249 C   0  0  0  0  0  0  0  0  0  0  0  0
   -0.1957    1.8159    0.6905 C   0  0  0  0  0  0  0  0  0  0  0  0
   -0.7894    0.6341    1.1678 C   0  0  0  0  0  0  0  0  0  0  0  0
   -0.6920   -1.5394    1.1691 H   0  0  0  0  0  0  0  0  0  0  0  0
    1.3120   -1.6308   -0.2873 H   0  0  0  0  0  0  0  0  0  0  0  0
    1.3923    2.6633   -0.5087 H   0  0  0  0  0  0  0  0  0  0  0  0
   -0.6364    2.7728    0.9664 H   0  0  0  0  0  0  0  0  0  0  0  0
    2.9421    4.4463   -2.6868 N   0  0  0  0  0  0  0  0  0  0  0  0
    3.5827    4.7379   -3.5374 N   0  0  0  0  0  0  0  0  0  0  0  0
   -1.8870    0.8038    1.9593 O   0  0  0  0  0  0  0  0  0  0  0  0
   -2.5415   -0.3564    2.4660 C   0  0  0  0  0  0  0  0  0  0  0  0
   -2.9213   -0.9878    1.6484 H   0  0  0  0  0  0  0  0  0  0  0  0
   -3.3813    0.0137    3.0614 H   0  0  0  0  0  0  0  0  0  0  0  0
   -1.8682   -0.9454    3.1073 H   0  0  0  0  0  0  0  0  0  0  0  0
    4.0689    0.2470   -0.7377 S   0  0  0  0  0  0  0  0  0  0  0  0
    2.5456    0.4608   -1.3636 O   0  0  0  0  0  0  0  0  0  0  0  0
    4.0678   -0.8528    0.2441 O   0  0  0  0  0  0  0  0  0  0  0  0
    4.9505    0.2976   -1.9002 O   0  0  0  0  0  0  0  0  0  0  0  0
    4.2812    1.6540    0.1019 O   0  0  0  0  0  0  0  0  0  0  0  0
    4.1315    1.4474    1.0399 H   0  0  0  0  0  0  0  0  0  0  0  0
  1  6  1  0  0  0  0
  1  7  1  0  0  0  0
  2  1  2  0  0  0  0
  3  4  2  0  0  0  0
  3  2  1  0  0  0  0
  4  5  1  0  0  0  0
  5 10  1  0  0  0  0
  5  6  2  0  0  0  0
  6 13  1  0  0  0  0
  8  2  1  0  0  0  0
  9  4  1  0  0  0  0
 12 11  3  0  0  0  0
 13 14  1  0  0  0  0
 14 16  1  0  0  0  0
 14 17  1  0  0  0  0
 15 14  1  0  0  0  0
 18 22  1  0  0  0  0
 18 20  2  0  0  0  0
 19 18  1  0  0  0  0
 19  3  1  0  0  0  0
 21 18  2  0  0  0  0
 22 23  1  0  0  0  0
M  END
