Coordinates from ORCA-job p-CH3O-Ph-N2-HSO4-B3LYPG-aug-cc-pVDZ-scan-d09-49-n400
 OpenBabel12261916563D

 23 22  0  0  0  0  0  0  0  0999 V2000
   -0.2325    0.0045   -0.3550 C   0  0  0  0  0  0  0  0  0  0  0  0
    0.2471    0.4241   -1.5541 C   0  0  0  0  0  0  0  0  0  0  0  0
    0.7836    1.7809   -1.7561 C   0  0  0  0  0  0  0  0  0  0  0  0
    0.7722    2.6438   -0.5597 C   0  0  0  0  0  0  0  0  0  0  0  0
    0.2787    2.2137    0.6266 C   0  0  0  0  0  0  0  0  0  0  0  0
   -0.2046    0.8780    0.7728 C   0  0  0  0  0  0  0  0  0  0  0  0
   -0.5877   -1.0162   -0.2532 H   0  0  0  0  0  0  0  0  0  0  0  0
    0.2703   -0.2344   -2.4215 H   0  0  0  0  0  0  0  0  0  0  0  0
    1.2003    3.6385   -0.6785 H   0  0  0  0  0  0  0  0  0  0  0  0
    0.3007    2.8513    1.5076 H   0  0  0  0  0  0  0  0  0  0  0  0
    1.1539    2.0858   -2.6338 N   0  0  0  0  0  0  0  0  0  0  0  0
    1.5807    2.4395   -3.6489 N   0  0  0  0  0  0  0  0  0  0  0  0
   -0.6980    0.5833    1.9532 O   0  0  0  0  0  0  0  0  0  0  0  0
   -0.9988   -0.7922    2.2863 C   0  0  0  0  0  0  0  0  0  0  0  0
   -1.8477   -1.1498    1.6891 H   0  0  0  0  0  0  0  0  0  0  0  0
   -1.2700   -0.7702    3.3439 H   0  0  0  0  0  0  0  0  0  0  0  0
   -0.0992   -1.3965    2.1284 H   0  0  0  0  0  0  0  0  0  0  0  0
    3.2377    0.1059    0.8128 S   0  0  0  0  0  0  0  0  0  0  0  0
    3.0201    0.5571   -0.6037 O   0  0  0  0  0  0  0  0  0  0  0  0
    1.9499   -0.3378    1.4725 O   0  0  0  0  0  0  0  0  0  0  0  0
    4.4090   -0.7810    1.0525 O   0  0  0  0  0  0  0  0  0  0  0  0
    3.6153    1.5422    1.6423 O   0  0  0  0  0  0  0  0  0  0  0  0
    4.5036    1.3900    1.9979 H   0  0  0  0  0  0  0  0  0  0  0  0
  1  7  1  0  0  0  0
  1  6  2  0  0  0  0
  2  1  1  0  0  0  0
  3  2  2  0  0  0  0
  3  4  1  0  0  0  0
  4  5  2  0  0  0  0
  5  6  1  0  0  0  0
  5 10  1  0  0  0  0
  6 13  1  0  0  0  0
  8  2  1  0  0  0  0
  9  4  1  0  0  0  0
 11  3  1  0  0  0  0
 12 11  1  0  0  0  0
 13 14  1  0  0  0  0
 14 16  1  0  0  0  0
 15 14  1  0  0  0  0
 17 14  1  0  0  0  0
 18 21  2  0  0  0  0
 18 20  1  0  0  0  0
 18 22  1  0  0  0  0
 19 18  2  0  0  0  0
 22 23  1  0  0  0  0
M  RAD  3  11   2  12   3  20   2
M  END
