Coordinates from ORCA-job p-CH3O-Ph-N2-HSO4-B3LYPG-aug-cc-pVDZ-scan-d09-49-n400
 OpenBabel12261916563D

 23 22  0  0  0  0  0  0  0  0999 V2000
   -0.2465   -0.5929    0.7948 C   0  0  0  0  0  0  0  0  0  0  0  0
    0.8837   -0.6379   -0.0297 C   0  0  0  0  0  0  0  0  0  0  0  0
    1.4642    0.5496   -0.4592 C   0  0  0  0  0  0  0  0  0  0  0  0
    0.9394    1.7916   -0.0908 C   0  0  0  0  0  0  0  0  0  0  0  0
   -0.1860    1.8374    0.7256 C   0  0  0  0  0  0  0  0  0  0  0  0
   -0.7835    0.6464    1.1747 C   0  0  0  0  0  0  0  0  0  0  0  0
   -0.6937   -1.5268    1.1252 H   0  0  0  0  0  0  0  0  0  0  0  0
    1.3105   -1.5917   -0.3329 H   0  0  0  0  0  0  0  0  0  0  0  0
    1.4072    2.7045   -0.4556 H   0  0  0  0  0  0  0  0  0  0  0  0
   -0.6239    2.7889    1.0239 H   0  0  0  0  0  0  0  0  0  0  0  0
    2.9092    4.2810   -2.6859 N   0  0  0  0  0  0  0  0  0  0  0  0
    3.5229    4.5349   -3.5678 N   0  0  0  0  0  0  0  0  0  0  0  0
   -1.8807    0.8009    1.9700 O   0  0  0  0  0  0  0  0  0  0  0  0
   -2.5392   -0.3687    2.4490 C   0  0  0  0  0  0  0  0  0  0  0  0
   -2.9209   -0.9793    1.6166 H   0  0  0  0  0  0  0  0  0  0  0  0
   -3.3779   -0.0099    3.0528 H   0  0  0  0  0  0  0  0  0  0  0  0
   -1.8681   -0.9750    3.0763 H   0  0  0  0  0  0  0  0  0  0  0  0
    4.0722    0.2832   -0.7396 S   0  0  0  0  0  0  0  0  0  0  0  0
    2.5511    0.5259   -1.3597 O   0  0  0  0  0  0  0  0  0  0  0  0
    4.0651   -0.8515    0.2015 O   0  0  0  0  0  0  0  0  0  0  0  0
    4.9563    0.3726   -1.8981 O   0  0  0  0  0  0  0  0  0  0  0  0
    4.2893    1.6579    0.1503 O   0  0  0  0  0  0  0  0  0  0  0  0
    4.1341    1.4197    1.0798 H   0  0  0  0  0  0  0  0  0  0  0  0
  1  7  1  0  0  0  0
  1  6  1  0  0  0  0
  2  1  2  0  0  0  0
  3  4  2  0  0  0  0
  3  2  1  0  0  0  0
  4  5  1  0  0  0  0
  5 10  1  0  0  0  0
  5  6  2  0  0  0  0
  6 13  1  0  0  0  0
  8  2  1  0  0  0  0
  9  4  1  0  0  0  0
 12 11  3  0  0  0  0
 13 14  1  0  0  0  0
 14 16  1  0  0  0  0
 14 17  1  0  0  0  0
 15 14  1  0  0  0  0
 18 22  1  0  0  0  0
 18 20  2  0  0  0  0
 19 18  1  0  0  0  0
 19  3  1  0  0  0  0
 21 18  2  0  0  0  0
 22 23  1  0  0  0  0
M  END
