Coordinates from ORCA-job p-CH3O-Ph-N2-HSO4-B3LYPG-aug-cc-pVDZ-scan-d09-49-n400
 OpenBabel12261916563D

 23 21  0  0  0  0  0  0  0  0999 V2000
   -0.0407    0.1639    0.9074 C   0  0  0  0  0  0  0  0  0  0  0  0
    0.9779    0.8145    0.1713 C   0  0  0  0  0  0  0  0  0  0  0  0
    0.6998    1.9697   -0.2510 C   0  0  0  0  0  0  0  0  0  0  0  0
   -0.3549    2.8429   -0.2216 C   0  0  0  0  0  0  0  0  0  0  0  0
   -1.3823    2.2143    0.5063 C   0  0  0  0  0  0  0  0  0  0  0  0
   -1.2337    0.9117    1.0567 C   0  0  0  0  0  0  0  0  0  0  0  0
    0.0755   -0.8332    1.3233 H   0  0  0  0  0  0  0  0  0  0  0  0
    2.5624   -0.1777   -0.0941 H   0  0  0  0  0  0  0  0  0  0  0  0
   -0.4338    3.8342   -0.6566 H   0  0  0  0  0  0  0  0  0  0  0  0
   -2.3287    2.7327    0.6595 H   0  0  0  0  0  0  0  0  0  0  0  0
    2.4690    3.6259   -1.7601 N   0  0  0  0  0  0  0  0  0  0  0  0
    3.4419    3.8880   -2.2106 N   0  0  0  0  0  0  0  0  0  0  0  0
   -2.3315    0.4590    1.7291 O   0  0  0  0  0  0  0  0  0  0  0  0
   -2.2777   -0.8413    2.3121 C   0  0  0  0  0  0  0  0  0  0  0  0
   -2.1207   -1.6140    1.5443 H   0  0  0  0  0  0  0  0  0  0  0  0
   -3.2505   -0.9914    2.7892 H   0  0  0  0  0  0  0  0  0  0  0  0
   -1.4822   -0.9035    3.0701 H   0  0  0  0  0  0  0  0  0  0  0  0
    4.5204   -0.3623   -1.0472 S   0  0  0  0  0  0  0  0  0  0  0  0
    4.0208    0.4701   -2.1481 O   0  0  0  0  0  0  0  0  0  0  0  0
    3.2907   -0.8658   -0.1138 O   0  0  0  0  0  0  0  0  0  0  0  0
    5.3811   -1.5375   -1.2379 O   0  0  0  0  0  0  0  0  0  0  0  0
    5.3043    0.6951   -0.0432 O   0  0  0  0  0  0  0  0  0  0  0  0
    5.8776    0.1652    0.5360 H   0  0  0  0  0  0  0  0  0  0  0  0
  1  6  1  0  0  0  0
  1  7  1  0  0  0  0
  2  1  2  0  0  0  0
  3  4  2  0  0  0  0
  3  2  1  0  0  0  0
  4  5  1  0  0  0  0
  5 10  1  0  0  0  0
  5  6  2  0  0  0  0
  6 13  1  0  0  0  0
  9  4  1  0  0  0  0
 12 11  3  0  0  0  0
 13 14  1  0  0  0  0
 14 16  1  0  0  0  0
 14 17  1  0  0  0  0
 15 14  1  0  0  0  0
 18 20  1  0  0  0  0
 18 22  1  0  0  0  0
 19 18  2  0  0  0  0
 20  8  1  0  0  0  0
 21 18  2  0  0  0  0
 22 23  1  0  0  0  0
M  RAD  2   2   2   3   2
M  END
