Coordinates from ORCA-job p-CH3O-Ph-N2-HSO4-B3LYPG-aug-cc-pVDZ-scan-d09-49-n400
 OpenBabel12261916563D

 23 22  0  0  0  0  0  0  0  0999 V2000
    0.0077    0.1789    1.0335 C   0  0  0  0  0  0  0  0  0  0  0  0
    1.1841    0.6598    0.4258 C   0  0  0  0  0  0  0  0  0  0  0  0
    0.9842    1.8556   -0.1766 C   0  0  0  0  0  0  0  0  0  0  0  0
   -0.1092    2.6716   -0.3297 C   0  0  0  0  0  0  0  0  0  0  0  0
   -1.2488    2.1457    0.2829 C   0  0  0  0  0  0  0  0  0  0  0  0
   -1.1944    0.9076    0.9607 C   0  0  0  0  0  0  0  0  0  0  0  0
    0.0676   -0.7762    1.5485 H   0  0  0  0  0  0  0  0  0  0  0  0
    2.1458    0.1094    0.4474 H   0  0  0  0  0  0  0  0  0  0  0  0
   -0.1102    3.6169   -0.8635 H   0  0  0  0  0  0  0  0  0  0  0  0
   -2.1907    2.6896    0.2379 H   0  0  0  0  0  0  0  0  0  0  0  0
    2.5039    2.6007   -0.9774 N   0  0  0  0  0  0  0  0  0  0  0  0
    3.2170    3.3599   -1.3453 N   0  0  0  0  0  0  0  0  0  0  0  0
   -2.3623    0.5047    1.5101 O   0  0  0  0  0  0  0  0  0  0  0  0
   -2.3993   -0.7477    2.2046 C   0  0  0  0  0  0  0  0  0  0  0  0
   -2.1429   -1.5770    1.5301 H   0  0  0  0  0  0  0  0  0  0  0  0
   -3.4305   -0.8582    2.5500 H   0  0  0  0  0  0  0  0  0  0  0  0
   -1.7183   -0.7374    3.0676 H   0  0  0  0  0  0  0  0  0  0  0  0
    4.3318   -0.2492   -0.9549 S   0  0  0  0  0  0  0  0  0  0  0  0
    3.2616    0.4094   -1.7967 O   0  0  0  0  0  0  0  0  0  0  0  0
    3.7856   -0.6964    0.3792 O   0  0  0  0  0  0  0  0  0  0  0  0
    5.2203   -1.2152   -1.6518 O   0  0  0  0  0  0  0  0  0  0  0  0
    5.3396    1.0711   -0.5756 O   0  0  0  0  0  0  0  0  0  0  0  0
    6.2423    0.7369   -0.6858 H   0  0  0  0  0  0  0  0  0  0  0  0
  1  7  1  0  0  0  0
  2  8  1  0  0  0  0
  2  1  2  0  0  0  0
  3  2  1  0  0  0  0
  4  3  2  0  0  0  0
  4  5  1  0  0  0  0
  5  6  2  0  0  0  0
  6  1  1  0  0  0  0
  6 13  1  0  0  0  0
  9  4  1  0  0  0  0
 10  5  1  0  0  0  0
 11  3  1  0  0  0  0
 12 11  1  0  0  0  0
 13 14  1  0  0  0  0
 14 16  1  0  0  0  0
 14 17  1  0  0  0  0
 15 14  1  0  0  0  0
 18 22  1  0  0  0  0
 18 20  1  0  0  0  0
 19 18  2  0  0  0  0
 21 18  2  0  0  0  0
 23 22  1  0  0  0  0
M  RAD  3  11   2  12   3  20   2
M  END
