Coordinates from ORCA-job p-CH3O-Ph-N2-HSO4-B3LYPG-aug-cc-pVDZ-scan-d09-49-n400
 OpenBabel12261916563D

 23 22  0  0  0  0  0  0  0  0999 V2000
   -0.2331    0.0016   -0.3595 C   0  0  0  0  0  0  0  0  0  0  0  0
    0.2412    0.4163   -1.5574 C   0  0  0  0  0  0  0  0  0  0  0  0
    0.8080    1.7821   -1.7875 C   0  0  0  0  0  0  0  0  0  0  0  0
    0.8073    2.6294   -0.5507 C   0  0  0  0  0  0  0  0  0  0  0  0
    0.3086    2.2022    0.6299 C   0  0  0  0  0  0  0  0  0  0  0  0
   -0.1905    0.8707    0.7740 C   0  0  0  0  0  0  0  0  0  0  0  0
   -0.5998   -1.0156   -0.2588 H   0  0  0  0  0  0  0  0  0  0  0  0
    0.2559   -0.2324   -2.4328 H   0  0  0  0  0  0  0  0  0  0  0  0
    1.2530    3.6160   -0.6747 H   0  0  0  0  0  0  0  0  0  0  0  0
    0.3442    2.8350    1.5143 H   0  0  0  0  0  0  0  0  0  0  0  0
    1.1336    2.0591   -2.5795 N   0  0  0  0  0  0  0  0  0  0  0  0
    1.5530    2.4219   -3.6123 N   0  0  0  0  0  0  0  0  0  0  0  0
   -0.6911    0.5797    1.9500 O   0  0  0  0  0  0  0  0  0  0  0  0
   -1.0031   -0.7944    2.2829 C   0  0  0  0  0  0  0  0  0  0  0  0
   -1.8505   -1.1472    1.6813 H   0  0  0  0  0  0  0  0  0  0  0  0
   -1.2790   -0.7693    3.3391 H   0  0  0  0  0  0  0  0  0  0  0  0
   -0.1058   -1.4032    2.1290 H   0  0  0  0  0  0  0  0  0  0  0  0
    3.2259    0.1282    0.8027 S   0  0  0  0  0  0  0  0  0  0  0  0
    3.0064    0.5827   -0.6121 O   0  0  0  0  0  0  0  0  0  0  0  0
    1.9383   -0.3284    1.4582 O   0  0  0  0  0  0  0  0  0  0  0  0
    4.4005   -0.7522    1.0435 O   0  0  0  0  0  0  0  0  0  0  0  0
    3.5890    1.5638    1.6370 O   0  0  0  0  0  0  0  0  0  0  0  0
    4.4731    1.4146    2.0046 H   0  0  0  0  0  0  0  0  0  0  0  0
  1  7  1  0  0  0  0
  1  6  2  0  0  0  0
  2  1  1  0  0  0  0
  3  2  2  0  0  0  0
  3  4  1  0  0  0  0
  4  5  2  0  0  0  0
  5  6  1  0  0  0  0
  5 10  1  0  0  0  0
  6 13  1  0  0  0  0
  8  2  1  0  0  0  0
  9  4  1  0  0  0  0
 11  3  1  0  0  0  0
 12 11  1  0  0  0  0
 13 14  1  0  0  0  0
 14 16  1  0  0  0  0
 15 14  1  0  0  0  0
 17 14  1  0  0  0  0
 18 21  2  0  0  0  0
 18 20  1  0  0  0  0
 18 22  1  0  0  0  0
 19 18  2  0  0  0  0
 22 23  1  0  0  0  0
M  RAD  3  11   2  12   3  20   2
M  END
