Coordinates from ORCA-job p-CH3O-Ph-N2-HSO4-B3LYPG-aug-cc-pVDZ-scan-d09-49-n400
 OpenBabel12261916563D

 23 22  0  0  0  0  0  0  0  0999 V2000
   -0.2430    0.0153   -0.3432 C   0  0  0  0  0  0  0  0  0  0  0  0
    0.2568    0.4358   -1.5412 C   0  0  0  0  0  0  0  0  0  0  0  0
    0.7541    1.7831   -1.7048 C   0  0  0  0  0  0  0  0  0  0  0  0
    0.7075    2.6740   -0.5645 C   0  0  0  0  0  0  0  0  0  0  0  0
    0.2007    2.2435    0.6232 C   0  0  0  0  0  0  0  0  0  0  0  0
   -0.2515    0.8996    0.7717 C   0  0  0  0  0  0  0  0  0  0  0  0
   -0.5757   -1.0120   -0.2363 H   0  0  0  0  0  0  0  0  0  0  0  0
    0.3145   -0.2376   -2.3944 H   0  0  0  0  0  0  0  0  0  0  0  0
    1.1099    3.6792   -0.6791 H   0  0  0  0  0  0  0  0  0  0  0  0
    0.1870    2.8909    1.4969 H   0  0  0  0  0  0  0  0  0  0  0  0
    1.2202    2.1179   -2.6905 N   0  0  0  0  0  0  0  0  0  0  0  0
    1.6889    2.4515   -3.6742 N   0  0  0  0  0  0  0  0  0  0  0  0
   -0.7297    0.5940    1.9596 O   0  0  0  0  0  0  0  0  0  0  0  0
   -0.9843   -0.7894    2.2954 C   0  0  0  0  0  0  0  0  0  0  0  0
   -1.8259   -1.1748    1.7048 H   0  0  0  0  0  0  0  0  0  0  0  0
   -1.2491   -0.7754    3.3549 H   0  0  0  0  0  0  0  0  0  0  0  0
   -0.0669   -1.3653    2.1321 H   0  0  0  0  0  0  0  0  0  0  0  0
    3.2519    0.0648    0.8070 S   0  0  0  0  0  0  0  0  0  0  0  0
    3.0131    0.4968   -0.6131 O   0  0  0  0  0  0  0  0  0  0  0  0
    1.9762   -0.3547    1.4997 O   0  0  0  0  0  0  0  0  0  0  0  0
    4.4229   -0.8277    1.0368 O   0  0  0  0  0  0  0  0  0  0  0  0
    3.6677    1.5147    1.5985 O   0  0  0  0  0  0  0  0  0  0  0  0
    4.5394    1.3362    1.9817 H   0  0  0  0  0  0  0  0  0  0  0  0
  1  7  1  0  0  0  0
  1  6  2  0  0  0  0
  2  1  1  0  0  0  0
  3  2  2  0  0  0  0
  3  4  1  0  0  0  0
  4  5  2  0  0  0  0
  5  6  1  0  0  0  0
  5 10  1  0  0  0  0
  6 13  1  0  0  0  0
  8  2  1  0  0  0  0
  9  4  1  0  0  0  0
 11  3  1  0  0  0  0
 12 11  1  0  0  0  0
 13 14  1  0  0  0  0
 14 16  1  0  0  0  0
 15 14  1  0  0  0  0
 17 14  1  0  0  0  0
 18 21  2  0  0  0  0
 18 20  1  0  0  0  0
 18 22  1  0  0  0  0
 19 18  2  0  0  0  0
 22 23  1  0  0  0  0
M  RAD  3  11   2  12   3  20   2
M  END
