Coordinates from ORCA-job p-CH3O-Ph-N2-HSO4-B3LYPG-aug-cc-pVDZ-scan-d09-49-n400
 OpenBabel12261916563D

 23 21  0  0  0  0  0  0  0  0999 V2000
   -0.0233    0.1874    0.8923 C   0  0  0  0  0  0  0  0  0  0  0  0
    0.9915    0.8457    0.1563 C   0  0  0  0  0  0  0  0  0  0  0  0
    0.6995    2.0003   -0.2619 C   0  0  0  0  0  0  0  0  0  0  0  0
   -0.3630    2.8634   -0.2278 C   0  0  0  0  0  0  0  0  0  0  0  0
   -1.3843    2.2252    0.4997 C   0  0  0  0  0  0  0  0  0  0  0  0
   -1.2229    0.9229    1.0463 C   0  0  0  0  0  0  0  0  0  0  0  0
    0.1023   -0.8098    1.3055 H   0  0  0  0  0  0  0  0  0  0  0  0
    2.5505   -0.1623   -0.0863 H   0  0  0  0  0  0  0  0  0  0  0  0
   -0.4506    3.8550   -0.6604 H   0  0  0  0  0  0  0  0  0  0  0  0
   -2.3347    2.7354    0.6554 H   0  0  0  0  0  0  0  0  0  0  0  0
    2.4226    3.5594   -1.7034 N   0  0  0  0  0  0  0  0  0  0  0  0
    3.3946    3.8212   -2.1562 N   0  0  0  0  0  0  0  0  0  0  0  0
   -2.3151    0.4581    1.7195 O   0  0  0  0  0  0  0  0  0  0  0  0
   -2.2480   -0.8435    2.2984 C   0  0  0  0  0  0  0  0  0  0  0  0
   -2.0853   -1.6123    1.5281 H   0  0  0  0  0  0  0  0  0  0  0  0
   -3.2184   -1.0041    2.7770 H   0  0  0  0  0  0  0  0  0  0  0  0
   -1.4505   -0.9006    3.0547 H   0  0  0  0  0  0  0  0  0  0  0  0
    4.5054   -0.3721   -1.0386 S   0  0  0  0  0  0  0  0  0  0  0  0
    4.0079    0.4546   -2.1449 O   0  0  0  0  0  0  0  0  0  0  0  0
    3.2750   -0.8573   -0.0981 O   0  0  0  0  0  0  0  0  0  0  0  0
    5.3583   -1.5541   -1.2224 O   0  0  0  0  0  0  0  0  0  0  0  0
    5.3003    0.6886   -0.0463 O   0  0  0  0  0  0  0  0  0  0  0  0
    5.8730    0.1597    0.5343 H   0  0  0  0  0  0  0  0  0  0  0  0
  1  6  1  0  0  0  0
  1  7  1  0  0  0  0
  2  1  2  0  0  0  0
  3  4  2  0  0  0  0
  3  2  1  0  0  0  0
  4  5  1  0  0  0  0
  5 10  1  0  0  0  0
  5  6  2  0  0  0  0
  6 13  1  0  0  0  0
  9  4  1  0  0  0  0
 12 11  3  0  0  0  0
 13 14  1  0  0  0  0
 14 16  1  0  0  0  0
 14 17  1  0  0  0  0
 15 14  1  0  0  0  0
 18 20  1  0  0  0  0
 18 22  1  0  0  0  0
 19 18  2  0  0  0  0
 20  8  1  0  0  0  0
 21 18  2  0  0  0  0
 22 23  1  0  0  0  0
M  RAD  2   2   2   3   2
M  END
