Coordinates from ORCA-job p-CH3O-Ph-N2-HSO4-B3LYPG-aug-cc-pVDZ-scan-d09-49-n400
 OpenBabel12261916563D

 23 22  0  0  0  0  0  0  0  0999 V2000
   -0.2477   -0.6083    0.8139 C   0  0  0  0  0  0  0  0  0  0  0  0
    0.8824   -0.6644   -0.0100 C   0  0  0  0  0  0  0  0  0  0  0  0
    1.4582    0.5168   -0.4621 C   0  0  0  0  0  0  0  0  0  0  0  0
    0.9289    1.7637   -0.1167 C   0  0  0  0  0  0  0  0  0  0  0  0
   -0.1963    1.8205    0.6992 C   0  0  0  0  0  0  0  0  0  0  0  0
   -0.7893    0.6360    1.1708 C   0  0  0  0  0  0  0  0  0  0  0  0
   -0.6913   -1.5374    1.1620 H   0  0  0  0  0  0  0  0  0  0  0  0
    1.3126   -1.6221   -0.2955 H   0  0  0  0  0  0  0  0  0  0  0  0
    1.3931    2.6716   -0.4981 H   0  0  0  0  0  0  0  0  0  0  0  0
   -0.6375    2.7759    0.9798 H   0  0  0  0  0  0  0  0  0  0  0  0
    2.9480    4.4184   -2.7030 N   0  0  0  0  0  0  0  0  0  0  0  0
    3.5863    4.6975   -3.5596 N   0  0  0  0  0  0  0  0  0  0  0  0
   -1.8867    0.8014    1.9634 O   0  0  0  0  0  0  0  0  0  0  0  0
   -2.5407   -0.3615    2.4645 C   0  0  0  0  0  0  0  0  0  0  0  0
   -2.9205   -0.9891    1.6440 H   0  0  0  0  0  0  0  0  0  0  0  0
   -3.3805    0.0054    3.0619 H   0  0  0  0  0  0  0  0  0  0  0  0
   -1.8671   -0.9534    3.1028 H   0  0  0  0  0  0  0  0  0  0  0  0
    4.0674    0.2575   -0.7390 S   0  0  0  0  0  0  0  0  0  0  0  0
    2.5446    0.4804   -1.3627 O   0  0  0  0  0  0  0  0  0  0  0  0
    4.0661   -0.8578    0.2251 O   0  0  0  0  0  0  0  0  0  0  0  0
    4.9503    0.3277   -1.8997 O   0  0  0  0  0  0  0  0  0  0  0  0
    4.2785    1.6511    0.1228 O   0  0  0  0  0  0  0  0  0  0  0  0
    4.1259    1.4306    1.0572 H   0  0  0  0  0  0  0  0  0  0  0  0
  1  7  1  0  0  0  0
  1  6  1  0  0  0  0
  2  1  2  0  0  0  0
  3  4  2  0  0  0  0
  3  2  1  0  0  0  0
  4  5  1  0  0  0  0
  5 10  1  0  0  0  0
  5  6  2  0  0  0  0
  6 13  1  0  0  0  0
  8  2  1  0  0  0  0
  9  4  1  0  0  0  0
 12 11  3  0  0  0  0
 13 14  1  0  0  0  0
 14 16  1  0  0  0  0
 14 17  1  0  0  0  0
 15 14  1  0  0  0  0
 18 22  1  0  0  0  0
 18 20  2  0  0  0  0
 19 18  1  0  0  0  0
 19  3  1  0  0  0  0
 21 18  2  0  0  0  0
 22 23  1  0  0  0  0
M  END
