Coordinates from ORCA-job p-CH3O-Ph-N2-HSO4-B3LYPG-aug-cc-pVDZ-scan-d09-49-n400
 OpenBabel12261916563D

 23 22  0  0  0  0  0  0  0  0999 V2000
   -0.1309   -0.0469    0.4155 C   0  0  0  0  0  0  0  0  0  0  0  0
    0.8595    0.3104   -0.4936 C   0  0  0  0  0  0  0  0  0  0  0  0
    1.0118    1.6684   -0.7602 C   0  0  0  0  0  0  0  0  0  0  0  0
    0.2604    2.6947   -0.1646 C   0  0  0  0  0  0  0  0  0  0  0  0
   -0.7117    2.3152    0.7395 C   0  0  0  0  0  0  0  0  0  0  0  0
   -0.9125    0.9447    1.0365 C   0  0  0  0  0  0  0  0  0  0  0  0
   -0.2577   -1.0994    0.6499 H   0  0  0  0  0  0  0  0  0  0  0  0
    1.5231   -0.4104   -0.9632 H   0  0  0  0  0  0  0  0  0  0  0  0
    0.4387    3.7415   -0.4011 H   0  0  0  0  0  0  0  0  0  0  0  0
   -1.3282    3.0577    1.2420 H   0  0  0  0  0  0  0  0  0  0  0  0
    2.0548    2.1150   -1.7283 N   0  0  0  0  0  0  0  0  0  0  0  0
    2.7063    2.6612   -2.4420 N   0  0  0  0  0  0  0  0  0  0  0  0
   -1.8756    0.6945    1.9406 O   0  0  0  0  0  0  0  0  0  0  0  0
   -2.1275   -0.6636    2.3314 C   0  0  0  0  0  0  0  0  0  0  0  0
   -2.4573   -1.2607    1.4699 H   0  0  0  0  0  0  0  0  0  0  0  0
   -2.9295   -0.6073    3.0717 H   0  0  0  0  0  0  0  0  0  0  0  0
   -1.2315   -1.1102    2.7834 H   0  0  0  0  0  0  0  0  0  0  0  0
    4.2628   -0.1294   -0.4917 S   0  0  0  0  0  0  0  0  0  0  0  0
    3.4768   -0.0045   -1.7823 O   0  0  0  0  0  0  0  0  0  0  0  0
    3.4442   -0.7100    0.6214 O   0  0  0  0  0  0  0  0  0  0  0  0
    5.6572   -0.6257   -0.6212 O   0  0  0  0  0  0  0  0  0  0  0  0
    4.4284    1.5373   -0.0920 O   0  0  0  0  0  0  0  0  0  0  0  0
    5.2231    1.5882    0.4594 H   0  0  0  0  0  0  0  0  0  0  0  0
  1  7  1  0  0  0  0
  1  6  2  0  0  0  0
  2  1  1  0  0  0  0
  3  2  2  0  0  0  0
  3  4  1  0  0  0  0
  4  5  2  0  0  0  0
  5  6  1  0  0  0  0
  5 10  1  0  0  0  0
  6 13  1  0  0  0  0
  8  2  1  0  0  0  0
  9  4  1  0  0  0  0
 11  3  1  0  0  0  0
 12 11  1  0  0  0  0
 13 14  1  0  0  0  0
 14 17  1  0  0  0  0
 14 16  1  0  0  0  0
 15 14  1  0  0  0  0
 18 22  1  0  0  0  0
 18 20  1  0  0  0  0
 19 18  2  0  0  0  0
 21 18  2  0  0  0  0
 22 23  1  0  0  0  0
M  RAD  3  11   2  12   3  20   2
M  END
