Coordinates from ORCA-job p-CH3O-Ph-N2-HSO4-B3LYPG-aug-cc-pVDZ-scan-d09-49-n400
 OpenBabel12261916563D

 23 22  0  0  0  0  0  0  0  0999 V2000
   -0.2760    0.0262   -0.3202 C   0  0  0  0  0  0  0  0  0  0  0  0
    0.2526    0.4432   -1.5177 C   0  0  0  0  0  0  0  0  0  0  0  0
    0.6982    1.7810   -1.6284 C   0  0  0  0  0  0  0  0  0  0  0  0
    0.6212    2.7068   -0.5582 C   0  0  0  0  0  0  0  0  0  0  0  0
    0.0869    2.2746    0.6274 C   0  0  0  0  0  0  0  0  0  0  0  0
   -0.3282    0.9229    0.7781 C   0  0  0  0  0  0  0  0  0  0  0  0
   -0.5835   -1.0078   -0.2062 H   0  0  0  0  0  0  0  0  0  0  0  0
    0.3615   -0.2410   -2.3556 H   0  0  0  0  0  0  0  0  0  0  0  0
    1.0074    3.7172   -0.6742 H   0  0  0  0  0  0  0  0  0  0  0  0
    0.0322    2.9314    1.4923 H   0  0  0  0  0  0  0  0  0  0  0  0
    1.3573    2.1589   -2.7818 N   0  0  0  0  0  0  0  0  0  0  0  0
    1.9004    2.4621   -3.7158 N   0  0  0  0  0  0  0  0  0  0  0  0
   -0.7883    0.6042    1.9773 O   0  0  0  0  0  0  0  0  0  0  0  0
   -0.9756   -0.7868    2.3184 C   0  0  0  0  0  0  0  0  0  0  0  0
   -1.8064   -1.2130    1.7397 H   0  0  0  0  0  0  0  0  0  0  0  0
   -1.2291   -0.7832    3.3810 H   0  0  0  0  0  0  0  0  0  0  0  0
   -0.0359   -1.3238    2.1462 H   0  0  0  0  0  0  0  0  0  0  0  0
    3.2817    0.0262    0.7758 S   0  0  0  0  0  0  0  0  0  0  0  0
    3.0093    0.4511   -0.6418 O   0  0  0  0  0  0  0  0  0  0  0  0
    2.0271   -0.3801    1.5078 O   0  0  0  0  0  0  0  0  0  0  0  0
    4.4569   -0.8701    0.9786 O   0  0  0  0  0  0  0  0  0  0  0  0
    3.7376    1.4859    1.5322 O   0  0  0  0  0  0  0  0  0  0  0  0
    4.5776    1.2747    1.9659 H   0  0  0  0  0  0  0  0  0  0  0  0
  1  7  1  0  0  0  0
  1  6  2  0  0  0  0
  2  1  1  0  0  0  0
  3  2  2  0  0  0  0
  3  4  1  0  0  0  0
  4  5  2  0  0  0  0
  5  6  1  0  0  0  0
  5 10  1  0  0  0  0
  6 13  1  0  0  0  0
  8  2  1  0  0  0  0
  9  4  1  0  0  0  0
 11  3  1  0  0  0  0
 12 11  1  0  0  0  0
 13 14  1  0  0  0  0
 14 16  1  0  0  0  0
 15 14  1  0  0  0  0
 17 14  1  0  0  0  0
 18 21  2  0  0  0  0
 18 20  1  0  0  0  0
 18 22  1  0  0  0  0
 19 18  2  0  0  0  0
 22 23  1  0  0  0  0
M  RAD  3  11   2  12   3  20   2
M  END
