Coordinates from ORCA-job p-CH3O-Ph-N2-HSO4-B3LYPG-aug-cc-pVDZ-scan-d09-49-n400
 OpenBabel12261916563D

 23 22  0  0  0  0  0  0  0  0999 V2000
    0.0015    0.1656    1.0366 C   0  0  0  0  0  0  0  0  0  0  0  0
    1.1773    0.6306    0.4269 C   0  0  0  0  0  0  0  0  0  0  0  0
    1.0220    1.8352   -0.1932 C   0  0  0  0  0  0  0  0  0  0  0  0
   -0.0822    2.6502   -0.3324 C   0  0  0  0  0  0  0  0  0  0  0  0
   -1.2280    2.1457    0.2787 C   0  0  0  0  0  0  0  0  0  0  0  0
   -1.1912    0.9094    0.9609 C   0  0  0  0  0  0  0  0  0  0  0  0
    0.0464   -0.7869    1.5574 H   0  0  0  0  0  0  0  0  0  0  0  0
    2.1271    0.0737    0.4545 H   0  0  0  0  0  0  0  0  0  0  0  0
   -0.0756    3.5952   -0.8681 H   0  0  0  0  0  0  0  0  0  0  0  0
   -2.1635    2.7001    0.2326 H   0  0  0  0  0  0  0  0  0  0  0  0
    2.4784    2.5204   -0.9585 N   0  0  0  0  0  0  0  0  0  0  0  0
    3.1697    3.3043   -1.3216 N   0  0  0  0  0  0  0  0  0  0  0  0
   -2.3639    0.5242    1.5109 O   0  0  0  0  0  0  0  0  0  0  0  0
   -2.4193   -0.7245    2.2111 C   0  0  0  0  0  0  0  0  0  0  0  0
   -2.1735   -1.5602    1.5408 H   0  0  0  0  0  0  0  0  0  0  0  0
   -3.4524   -0.8189    2.5555 H   0  0  0  0  0  0  0  0  0  0  0  0
   -1.7393   -0.7196    3.0749 H   0  0  0  0  0  0  0  0  0  0  0  0
    4.3537   -0.2369   -0.9670 S   0  0  0  0  0  0  0  0  0  0  0  0
    3.2486    0.4154   -1.7770 O   0  0  0  0  0  0  0  0  0  0  0  0
    3.8442   -0.7473    0.3532 O   0  0  0  0  0  0  0  0  0  0  0  0
    5.2615   -1.1406   -1.7195 O   0  0  0  0  0  0  0  0  0  0  0  0
    5.3139    1.1129   -0.5656 O   0  0  0  0  0  0  0  0  0  0  0  0
    6.2291    0.8125   -0.6700 H   0  0  0  0  0  0  0  0  0  0  0  0
  1  7  1  0  0  0  0
  2  8  1  0  0  0  0
  2  1  2  0  0  0  0
  3  2  1  0  0  0  0
  4  3  2  0  0  0  0
  4  5  1  0  0  0  0
  5  6  2  0  0  0  0
  6  1  1  0  0  0  0
  6 13  1  0  0  0  0
  9  4  1  0  0  0  0
 10  5  1  0  0  0  0
 11  3  1  0  0  0  0
 12 11  1  0  0  0  0
 13 14  1  0  0  0  0
 14 16  1  0  0  0  0
 14 17  1  0  0  0  0
 15 14  1  0  0  0  0
 18 22  1  0  0  0  0
 18 20  1  0  0  0  0
 19 18  2  0  0  0  0
 21 18  2  0  0  0  0
 23 22  1  0  0  0  0
M  RAD  3  11   2  12   3  20   2
M  END
