Coordinates from ORCA-job p-CH3O-Ph-N2-HSO4-B3LYPG-aug-cc-pVDZ-scan-d09-49-n400
 OpenBabel12261916563D

 23 21  0  0  0  0  0  0  0  0999 V2000
   -0.1101    0.0330    0.9736 C   0  0  0  0  0  0  0  0  0  0  0  0
    0.9321    0.6280    0.2308 C   0  0  0  0  0  0  0  0  0  0  0  0
    0.7351    1.7864   -0.2183 C   0  0  0  0  0  0  0  0  0  0  0  0
   -0.2779    2.7126   -0.2056 C   0  0  0  0  0  0  0  0  0  0  0  0
   -1.3372    2.1485    0.5289 C   0  0  0  0  0  0  0  0  0  0  0  0
   -1.2609    0.8488    1.1027 C   0  0  0  0  0  0  0  0  0  0  0  0
   -0.0473   -0.9615    1.4062 H   0  0  0  0  0  0  0  0  0  0  0  0
    2.5745   -0.3195   -0.1209 H   0  0  0  0  0  0  0  0  0  0  0  0
   -0.3058    3.6999   -0.6561 H   0  0  0  0  0  0  0  0  0  0  0  0
   -2.2559    2.7175    0.6705 H   0  0  0  0  0  0  0  0  0  0  0  0
    2.7070    3.9908   -2.1019 N   0  0  0  0  0  0  0  0  0  0  0  0
    3.6579    4.3301   -2.5480 N   0  0  0  0  0  0  0  0  0  0  0  0
   -2.3847    0.4681    1.7771 O   0  0  0  0  0  0  0  0  0  0  0  0
   -2.4037   -0.8222    2.3835 C   0  0  0  0  0  0  0  0  0  0  0  0
   -2.2858   -1.6162    1.6306 H   0  0  0  0  0  0  0  0  0  0  0  0
   -3.3851   -0.9109    2.8585 H   0  0  0  0  0  0  0  0  0  0  0  0
   -1.6158   -0.9135    3.1466 H   0  0  0  0  0  0  0  0  0  0  0  0
    4.5414   -0.2870   -1.0590 S   0  0  0  0  0  0  0  0  0  0  0  0
    3.9997    0.6275   -2.0708 O   0  0  0  0  0  0  0  0  0  0  0  0
    3.3345   -0.9614   -0.2027 O   0  0  0  0  0  0  0  0  0  0  0  0
    5.4718   -1.3827   -1.3610 O   0  0  0  0  0  0  0  0  0  0  0  0
    5.2501    0.6992    0.0650 O   0  0  0  0  0  0  0  0  0  0  0  0
    5.8509    0.1451    0.5914 H   0  0  0  0  0  0  0  0  0  0  0  0
  1  6  1  0  0  0  0
  1  7  1  0  0  0  0
  2  1  2  0  0  0  0
  3  4  2  0  0  0  0
  3  2  1  0  0  0  0
  4  5  1  0  0  0  0
  5 10  1  0  0  0  0
  5  6  2  0  0  0  0
  6 13  1  0  0  0  0
  9  4  1  0  0  0  0
 12 11  3  0  0  0  0
 13 14  1  0  0  0  0
 14 16  1  0  0  0  0
 14 17  1  0  0  0  0
 15 14  1  0  0  0  0
 18 20  1  0  0  0  0
 18 22  1  0  0  0  0
 19 18  2  0  0  0  0
 20  8  1  0  0  0  0
 21 18  2  0  0  0  0
 22 23  1  0  0  0  0
M  RAD  2   2   2   3   2
M  END
