Coordinates from ORCA-job p-CH3O-Ph-N2-HSO4-B3LYPG-aug-cc-pVDZ-scan-d09-49-n400
 OpenBabel12261916563D

 23 21  0  0  0  0  0  0  0  0999 V2000
   -0.0857    0.0804    0.9515 C   0  0  0  0  0  0  0  0  0  0  0  0
    0.9452    0.6996    0.2109 C   0  0  0  0  0  0  0  0  0  0  0  0
    0.7213    1.8575   -0.2301 C   0  0  0  0  0  0  0  0  0  0  0  0
   -0.3116    2.7612   -0.2091 C   0  0  0  0  0  0  0  0  0  0  0  0
   -1.3583    2.1711    0.5226 C   0  0  0  0  0  0  0  0  0  0  0  0
   -1.2534    0.8699    1.0877 C   0  0  0  0  0  0  0  0  0  0  0  0
   -0.0015   -0.9153    1.3776 H   0  0  0  0  0  0  0  0  0  0  0  0
    2.5674   -0.2717   -0.1091 H   0  0  0  0  0  0  0  0  0  0  0  0
   -0.3600    3.7504   -0.6537 H   0  0  0  0  0  0  0  0  0  0  0  0
   -2.2885    2.7199    0.6688 H   0  0  0  0  0  0  0  0  0  0  0  0
    2.6500    3.8680   -1.9912 N   0  0  0  0  0  0  0  0  0  0  0  0
    3.6114    4.1721   -2.4401 N   0  0  0  0  0  0  0  0  0  0  0  0
   -2.3677    0.4608    1.7613 O   0  0  0  0  0  0  0  0  0  0  0  0
   -2.3580   -0.8336    2.3593 C   0  0  0  0  0  0  0  0  0  0  0  0
   -2.2243   -1.6199    1.6010 H   0  0  0  0  0  0  0  0  0  0  0  0
   -3.3366   -0.9464    2.8350 H   0  0  0  0  0  0  0  0  0  0  0  0
   -1.5672   -0.9130    3.1206 H   0  0  0  0  0  0  0  0  0  0  0  0
    4.5293   -0.3134   -1.0544 S   0  0  0  0  0  0  0  0  0  0  0  0
    3.9973    0.5717   -2.0968 O   0  0  0  0  0  0  0  0  0  0  0  0
    3.3153   -0.9313   -0.1674 O   0  0  0  0  0  0  0  0  0  0  0  0
    5.4386   -1.4360   -1.3195 O   0  0  0  0  0  0  0  0  0  0  0  0
    5.2629    0.7016    0.0274 O   0  0  0  0  0  0  0  0  0  0  0  0
    5.8589    0.1573    0.5691 H   0  0  0  0  0  0  0  0  0  0  0  0
  1  6  1  0  0  0  0
  1  7  1  0  0  0  0
  2  1  2  0  0  0  0
  3  4  2  0  0  0  0
  3  2  1  0  0  0  0
  4  5  1  0  0  0  0
  5 10  1  0  0  0  0
  5  6  2  0  0  0  0
  6 13  1  0  0  0  0
  9  4  1  0  0  0  0
 12 11  3  0  0  0  0
 13 14  1  0  0  0  0
 14 16  1  0  0  0  0
 14 17  1  0  0  0  0
 15 14  1  0  0  0  0
 18 20  1  0  0  0  0
 18 22  1  0  0  0  0
 19 18  2  0  0  0  0
 20  8  1  0  0  0  0
 21 18  2  0  0  0  0
 22 23  1  0  0  0  0
M  RAD  2   2   2   3   2
M  END
