Coordinates from ORCA-job p-CH3O-Ph-N2-HSO4-B3LYPG-aug-cc-pVDZ-scan-d09-49-n400
 OpenBabel12261916563D

 23 21  0  0  0  0  0  0  0  0999 V2000
    0.0386    0.2067    1.0221 C   0  0  0  0  0  0  0  0  0  0  0  0
    1.1953    0.7688    0.3967 C   0  0  0  0  0  0  0  0  0  0  0  0
    0.8425    1.9076   -0.1363 C   0  0  0  0  0  0  0  0  0  0  0  0
   -0.2171    2.7316   -0.3156 C   0  0  0  0  0  0  0  0  0  0  0  0
   -1.3225    2.1274    0.3141 C   0  0  0  0  0  0  0  0  0  0  0  0
   -1.1963    0.8820    0.9749 C   0  0  0  0  0  0  0  0  0  0  0  0
    0.1587   -0.7572    1.5110 H   0  0  0  0  0  0  0  0  0  0  0  0
    2.2412    0.1882    0.3754 H   0  0  0  0  0  0  0  0  0  0  0  0
   -0.2537    3.6826   -0.8357 H   0  0  0  0  0  0  0  0  0  0  0  0
   -2.2886    2.6303    0.2918 H   0  0  0  0  0  0  0  0  0  0  0  0
    2.6909    3.1650   -1.1721 N   0  0  0  0  0  0  0  0  0  0  0  0
    3.5115    3.7383   -1.6351 N   0  0  0  0  0  0  0  0  0  0  0  0
   -2.3395    0.4168    1.5367 O   0  0  0  0  0  0  0  0  0  0  0  0
   -2.3014   -0.8448    2.2112 C   0  0  0  0  0  0  0  0  0  0  0  0
   -2.0170   -1.6510    1.5195 H   0  0  0  0  0  0  0  0  0  0  0  0
   -3.3188   -1.0127    2.5742 H   0  0  0  0  0  0  0  0  0  0  0  0
   -1.6050   -0.8143    3.0618 H   0  0  0  0  0  0  0  0  0  0  0  0
    4.2238   -0.3073   -0.9780 S   0  0  0  0  0  0  0  0  0  0  0  0
    3.3510    0.3887   -1.9620 O   0  0  0  0  0  0  0  0  0  0  0  0
    3.4671   -0.5723    0.3457 O   0  0  0  0  0  0  0  0  0  0  0  0
    5.0198   -1.4834   -1.4037 O   0  0  0  0  0  0  0  0  0  0  0  0
    5.3493    0.8754   -0.5599 O   0  0  0  0  0  0  0  0  0  0  0  0
    6.1551    0.3944   -0.3155 H   0  0  0  0  0  0  0  0  0  0  0  0
  1  7  1  0  0  0  0
  2  1  2  0  0  0  0
  3  2  1  0  0  0  0
  4  3  2  0  0  0  0
  4  5  1  0  0  0  0
  5  6  2  0  0  0  0
  6  1  1  0  0  0  0
  6 13  1  0  0  0  0
  8  2  1  0  0  0  0
  9  4  1  0  0  0  0
 10  5  1  0  0  0  0
 12 11  3  0  0  0  0
 13 14  1  0  0  0  0
 14 16  1  0  0  0  0
 14 17  1  0  0  0  0
 15 14  1  0  0  0  0
 18 22  1  0  0  0  0
 18 20  1  0  0  0  0
 19 18  2  0  0  0  0
 21 18  2  0  0  0  0
 22 23  1  0  0  0  0
M  RAD  2   3   2  20   2
M  END
