Coordinates from ORCA-job p-CH3O-Ph-N2-HSO4-B3LYPG-aug-cc-pVDZ-scan-d09-49-n400
 OpenBabel12261916563D

 23 21  0  0  0  0  0  0  0  0999 V2000
   -0.1009    0.0509    0.9659 C   0  0  0  0  0  0  0  0  0  0  0  0
    0.9367    0.6558    0.2239 C   0  0  0  0  0  0  0  0  0  0  0  0
    0.7271    1.8137   -0.2211 C   0  0  0  0  0  0  0  0  0  0  0  0
   -0.2923    2.7321   -0.2058 C   0  0  0  0  0  0  0  0  0  0  0  0
   -1.3467    2.1567    0.5275 C   0  0  0  0  0  0  0  0  0  0  0  0
   -1.2588    0.8562    1.0977 C   0  0  0  0  0  0  0  0  0  0  0  0
   -0.0295   -0.9442    1.3959 H   0  0  0  0  0  0  0  0  0  0  0  0
    2.5699   -0.3014   -0.1164 H   0  0  0  0  0  0  0  0  0  0  0  0
   -0.3286    3.7202   -0.6539 H   0  0  0  0  0  0  0  0  0  0  0  0
   -2.2703    2.7173    0.6711 H   0  0  0  0  0  0  0  0  0  0  0  0
    2.6940    3.9442   -2.0652 N   0  0  0  0  0  0  0  0  0  0  0  0
    3.6492    4.2694   -2.5127 N   0  0  0  0  0  0  0  0  0  0  0  0
   -2.3789    0.4642    1.7717 O   0  0  0  0  0  0  0  0  0  0  0  0
   -2.3864   -0.8278    2.3748 C   0  0  0  0  0  0  0  0  0  0  0  0
   -2.2621   -1.6188    1.6197 H   0  0  0  0  0  0  0  0  0  0  0  0
   -3.3668   -0.9262    2.8499 H   0  0  0  0  0  0  0  0  0  0  0  0
   -1.5974   -0.9143    3.1372 H   0  0  0  0  0  0  0  0  0  0  0  0
    4.5363   -0.2954   -1.0576 S   0  0  0  0  0  0  0  0  0  0  0  0
    3.9996    0.6093   -2.0809 O   0  0  0  0  0  0  0  0  0  0  0  0
    3.3259   -0.9495   -0.1905 O   0  0  0  0  0  0  0  0  0  0  0  0
    5.4585   -1.4017   -1.3461 O   0  0  0  0  0  0  0  0  0  0  0  0
    5.2540    0.7006    0.0520 O   0  0  0  0  0  0  0  0  0  0  0  0
    5.8523    0.1494    0.5842 H   0  0  0  0  0  0  0  0  0  0  0  0
  1  6  1  0  0  0  0
  1  7  1  0  0  0  0
  2  1  2  0  0  0  0
  3  4  2  0  0  0  0
  3  2  1  0  0  0  0
  4  5  1  0  0  0  0
  5 10  1  0  0  0  0
  5  6  2  0  0  0  0
  6 13  1  0  0  0  0
  9  4  1  0  0  0  0
 12 11  3  0  0  0  0
 13 14  1  0  0  0  0
 14 16  1  0  0  0  0
 14 17  1  0  0  0  0
 15 14  1  0  0  0  0
 18 20  1  0  0  0  0
 18 22  1  0  0  0  0
 19 18  2  0  0  0  0
 20  8  1  0  0  0  0
 21 18  2  0  0  0  0
 22 23  1  0  0  0  0
M  RAD  2   2   2   3   2
M  END
