Coordinates from ORCA-job p-CH3O-Ph-N2-HSO4-B3LYPG-aug-cc-pVDZ-scan-d09-49-n400
 OpenBabel12261916563D

 23 21  0  0  0  0  0  0  0  0999 V2000
   -0.1604   -0.1063    1.0281 C   0  0  0  0  0  0  0  0  0  0  0  0
    0.9163    0.3932    0.2671 C   0  0  0  0  0  0  0  0  0  0  0  0
    0.8028    1.5430   -0.2289 C   0  0  0  0  0  0  0  0  0  0  0  0
   -0.1489    2.5337   -0.2538 C   0  0  0  0  0  0  0  0  0  0  0  0
   -1.2432    2.0683    0.4978 C   0  0  0  0  0  0  0  0  0  0  0  0
   -1.2541    0.7891    1.1212 C   0  0  0  0  0  0  0  0  0  0  0  0
   -0.1638   -1.0853    1.4989 H   0  0  0  0  0  0  0  0  0  0  0  0
    2.5928   -0.5153   -0.1499 H   0  0  0  0  0  0  0  0  0  0  0  0
   -0.1113    3.5031   -0.7413 H   0  0  0  0  0  0  0  0  0  0  0  0
   -2.1228    2.7012    0.6148 H   0  0  0  0  0  0  0  0  0  0  0  0
    2.7099    4.4897   -2.3825 N   0  0  0  0  0  0  0  0  0  0  0  0
    3.6343    4.9600   -2.7610 N   0  0  0  0  0  0  0  0  0  0  0  0
   -2.4020    0.5106    1.8055 O   0  0  0  0  0  0  0  0  0  0  0  0
   -2.5076   -0.7506    2.4618 C   0  0  0  0  0  0  0  0  0  0  0  0
   -2.4421   -1.5797    1.7410 H   0  0  0  0  0  0  0  0  0  0  0  0
   -3.4932   -0.7550    2.9362 H   0  0  0  0  0  0  0  0  0  0  0  0
   -1.7284   -0.8642    3.2308 H   0  0  0  0  0  0  0  0  0  0  0  0
    4.5572   -0.2436   -1.0414 S   0  0  0  0  0  0  0  0  0  0  0  0
    3.9660    0.7770   -1.9150 O   0  0  0  0  0  0  0  0  0  0  0  0
    3.3872   -1.0978   -0.3017 O   0  0  0  0  0  0  0  0  0  0  0  0
    5.5461   -1.2320   -1.4907 O   0  0  0  0  0  0  0  0  0  0  0  0
    5.2104    0.6065    0.2186 O   0  0  0  0  0  0  0  0  0  0  0  0
    5.8395    0.0151    0.6654 H   0  0  0  0  0  0  0  0  0  0  0  0
  1  6  1  0  0  0  0
  1  7  1  0  0  0  0
  2  1  2  0  0  0  0
  3  2  1  0  0  0  0
  4  3  2  0  0  0  0
  4  5  1  0  0  0  0
  5 10  1  0  0  0  0
  5  6  2  0  0  0  0
  6 13  1  0  0  0  0
  9  4  1  0  0  0  0
 12 11  3  0  0  0  0
 13 14  1  0  0  0  0
 14 16  1  0  0  0  0
 14 17  1  0  0  0  0
 15 14  1  0  0  0  0
 18 20  1  0  0  0  0
 18 22  1  0  0  0  0
 19 18  2  0  0  0  0
 20  8  1  0  0  0  0
 21 18  2  0  0  0  0
 22 23  1  0  0  0  0
M  RAD  2   2   2   3   2
M  END
