Coordinates from ORCA-job p-CH3O-Ph-N2-HSO4-B3LYPG-aug-cc-pVDZ-scan-d09-49-n400
 OpenBabel12261916563D

 23 21  0  0  0  0  0  0  0  0999 V2000
   -0.1309   -0.0141    0.9946 C   0  0  0  0  0  0  0  0  0  0  0  0
    0.9233    0.5528    0.2481 C   0  0  0  0  0  0  0  0  0  0  0  0
    0.7550    1.7100   -0.2142 C   0  0  0  0  0  0  0  0  0  0  0  0
   -0.2385    2.6580   -0.2119 C   0  0  0  0  0  0  0  0  0  0  0  0
   -1.3107    2.1237    0.5261 C   0  0  0  0  0  0  0  0  0  0  0  0
   -1.2637    0.8282    1.1129 C   0  0  0  0  0  0  0  0  0  0  0  0
   -0.0901   -1.0053    1.4374 H   0  0  0  0  0  0  0  0  0  0  0  0
    2.5833   -0.3759   -0.1288 H   0  0  0  0  0  0  0  0  0  0  0  0
   -0.2447    3.6413   -0.6721 H   0  0  0  0  0  0  0  0  0  0  0  0
   -2.2174    2.7134    0.6605 H   0  0  0  0  0  0  0  0  0  0  0  0
    2.7336    4.1353   -2.2005 N   0  0  0  0  0  0  0  0  0  0  0  0
    3.6747    4.5143   -2.6355 N   0  0  0  0  0  0  0  0  0  0  0  0
   -2.3970    0.4790    1.7888 O   0  0  0  0  0  0  0  0  0  0  0  0
   -2.4453   -0.8042    2.4082 C   0  0  0  0  0  0  0  0  0  0  0  0
   -2.3435   -1.6082    1.6636 H   0  0  0  0  0  0  0  0  0  0  0  0
   -3.4294   -0.8666    2.8819 H   0  0  0  0  0  0  0  0  0  0  0  0
   -1.6611   -0.9051    3.1738 H   0  0  0  0  0  0  0  0  0  0  0  0
    4.5499   -0.2667   -1.0586 S   0  0  0  0  0  0  0  0  0  0  0  0
    3.9913    0.6802   -2.0308 O   0  0  0  0  0  0  0  0  0  0  0  0
    3.3551   -0.9991   -0.2330 O   0  0  0  0  0  0  0  0  0  0  0  0
    5.5000   -1.3313   -1.4065 O   0  0  0  0  0  0  0  0  0  0  0  0
    5.2403    0.6831    0.1070 O   0  0  0  0  0  0  0  0  0  0  0  0
    5.8507    0.1180    0.6101 H   0  0  0  0  0  0  0  0  0  0  0  0
  1  6  1  0  0  0  0
  1  7  1  0  0  0  0
  2  1  2  0  0  0  0
  3  4  2  0  0  0  0
  3  2  1  0  0  0  0
  4  5  1  0  0  0  0
  5 10  1  0  0  0  0
  5  6  2  0  0  0  0
  6 13  1  0  0  0  0
  9  4  1  0  0  0  0
 12 11  3  0  0  0  0
 13 14  1  0  0  0  0
 14 16  1  0  0  0  0
 14 17  1  0  0  0  0
 15 14  1  0  0  0  0
 18 20  1  0  0  0  0
 18 22  1  0  0  0  0
 19 18  2  0  0  0  0
 20  8  1  0  0  0  0
 21 18  2  0  0  0  0
 22 23  1  0  0  0  0
M  RAD  2   2   2   3   2
M  END
