Coordinates from ORCA-job p-CH3O-Ph-N2-HSO4-B3LYPG-aug-cc-pVDZ-scan-d09-49-n400
 OpenBabel12261916563D

 23 21  0  0  0  0  0  0  0  0999 V2000
    0.0012    0.2241    0.8719 C   0  0  0  0  0  0  0  0  0  0  0  0
    1.0160    0.8917    0.1415 C   0  0  0  0  0  0  0  0  0  0  0  0
    0.7062    2.0471   -0.2708 C   0  0  0  0  0  0  0  0  0  0  0  0
   -0.3697    2.8939   -0.2293 C   0  0  0  0  0  0  0  0  0  0  0  0
   -1.3854    2.2430    0.4919 C   0  0  0  0  0  0  0  0  0  0  0  0
   -1.2080    0.9402    1.0306 C   0  0  0  0  0  0  0  0  0  0  0  0
    0.1388   -0.7739    1.2800 H   0  0  0  0  0  0  0  0  0  0  0  0
    2.5372   -0.1281   -0.0612 H   0  0  0  0  0  0  0  0  0  0  0  0
   -0.4679    3.8872   -0.6566 H   0  0  0  0  0  0  0  0  0  0  0  0
   -2.3414    2.7420    0.6480 H   0  0  0  0  0  0  0  0  0  0  0  0
    2.3604    3.4354   -1.5967 N   0  0  0  0  0  0  0  0  0  0  0  0
    3.3359    3.6728   -2.0553 N   0  0  0  0  0  0  0  0  0  0  0  0
   -2.2939    0.4565    1.7001 O   0  0  0  0  0  0  0  0  0  0  0  0
   -2.2100   -0.8482    2.2701 C   0  0  0  0  0  0  0  0  0  0  0  0
   -2.0364   -1.6094    1.4946 H   0  0  0  0  0  0  0  0  0  0  0  0
   -3.1787   -1.0250    2.7466 H   0  0  0  0  0  0  0  0  0  0  0  0
   -1.4125   -0.9000    3.0267 H   0  0  0  0  0  0  0  0  0  0  0  0
    4.4764   -0.3861   -1.0286 S   0  0  0  0  0  0  0  0  0  0  0  0
    3.9634    0.4054   -2.1536 O   0  0  0  0  0  0  0  0  0  0  0  0
    3.2603   -0.8302   -0.0541 O   0  0  0  0  0  0  0  0  0  0  0  0
    5.3241   -1.5757   -1.1879 O   0  0  0  0  0  0  0  0  0  0  0  0
    5.2934    0.7047   -0.0868 O   0  0  0  0  0  0  0  0  0  0  0  0
    5.8755    0.1931    0.4999 H   0  0  0  0  0  0  0  0  0  0  0  0
  1  6  1  0  0  0  0
  1  7  1  0  0  0  0
  2  1  2  0  0  0  0
  3  4  2  0  0  0  0
  3  2  1  0  0  0  0
  4  5  1  0  0  0  0
  5 10  1  0  0  0  0
  5  6  2  0  0  0  0
  6 13  1  0  0  0  0
  8 20  1  0  0  0  0
  9  4  1  0  0  0  0
 12 11  3  0  0  0  0
 13 14  1  0  0  0  0
 14 16  1  0  0  0  0
 14 17  1  0  0  0  0
 15 14  1  0  0  0  0
 18 22  1  0  0  0  0
 18 20  1  0  0  0  0
 19 18  2  0  0  0  0
 21 18  2  0  0  0  0
 22 23  1  0  0  0  0
M  RAD  2   2   2   3   2
M  END
