Coordinates from ORCA-job p-CH3O-Ph-N2-HSO4-B3LYPG-aug-cc-pVDZ-scan-d09-49-n400
 OpenBabel12261916563D

 23 21  0  0  0  0  0  0  0  0999 V2000
   -0.0907    0.0707    0.9560 C   0  0  0  0  0  0  0  0  0  0  0  0
    0.9423    0.6851    0.2147 C   0  0  0  0  0  0  0  0  0  0  0  0
    0.7236    1.8432   -0.2280 C   0  0  0  0  0  0  0  0  0  0  0  0
   -0.3057    2.7513   -0.2080 C   0  0  0  0  0  0  0  0  0  0  0  0
   -1.3547    2.1661    0.5243 C   0  0  0  0  0  0  0  0  0  0  0  0
   -1.2551    0.8652    1.0910 C   0  0  0  0  0  0  0  0  0  0  0  0
   -0.0105   -0.9249    1.3834 H   0  0  0  0  0  0  0  0  0  0  0  0
    2.5674   -0.2826   -0.1115 H   0  0  0  0  0  0  0  0  0  0  0  0
   -0.3502    3.7401   -0.6538 H   0  0  0  0  0  0  0  0  0  0  0  0
   -2.2827    2.7188    0.6698 H   0  0  0  0  0  0  0  0  0  0  0  0
    2.6671    3.8957   -2.0187 N   0  0  0  0  0  0  0  0  0  0  0  0
    3.6264    4.2073   -2.4670 N   0  0  0  0  0  0  0  0  0  0  0  0
   -2.3711    0.4615    1.7650 O   0  0  0  0  0  0  0  0  0  0  0  0
   -2.3669   -0.8321    2.3647 C   0  0  0  0  0  0  0  0  0  0  0  0
   -2.2363   -1.6200    1.6075 H   0  0  0  0  0  0  0  0  0  0  0  0
   -3.3459   -0.9403    2.8405 H   0  0  0  0  0  0  0  0  0  0  0  0
   -1.5764   -0.9137    3.1262 H   0  0  0  0  0  0  0  0  0  0  0  0
    4.5306   -0.3073   -1.0546 S   0  0  0  0  0  0  0  0  0  0  0  0
    3.9962    0.5854   -2.0893 O   0  0  0  0  0  0  0  0  0  0  0  0
    3.3179   -0.9386   -0.1750 O   0  0  0  0  0  0  0  0  0  0  0  0
    5.4447   -1.4238   -1.3291 O   0  0  0  0  0  0  0  0  0  0  0  0
    5.2586    0.7003    0.0377 O   0  0  0  0  0  0  0  0  0  0  0  0
    5.8561    0.1533    0.5751 H   0  0  0  0  0  0  0  0  0  0  0  0
  1  6  1  0  0  0  0
  1  7  1  0  0  0  0
  2  1  2  0  0  0  0
  3  4  2  0  0  0  0
  3  2  1  0  0  0  0
  4  5  1  0  0  0  0
  5 10  1  0  0  0  0
  5  6  2  0  0  0  0
  6 13  1  0  0  0  0
  9  4  1  0  0  0  0
 12 11  3  0  0  0  0
 13 14  1  0  0  0  0
 14 16  1  0  0  0  0
 14 17  1  0  0  0  0
 15 14  1  0  0  0  0
 18 20  1  0  0  0  0
 18 22  1  0  0  0  0
 19 18  2  0  0  0  0
 20  8  1  0  0  0  0
 21 18  2  0  0  0  0
 22 23  1  0  0  0  0
M  RAD  2   2   2   3   2
M  END
