Coordinates from ORCA-job p-CH3O-Ph-N2-HSO4-B3LYPG-aug-cc-pVDZ-scan-d09-49-n400
 OpenBabel12261916563D

 23 21  0  0  0  0  0  0  0  0999 V2000
    0.0259    0.2065    1.0335 C   0  0  0  0  0  0  0  0  0  0  0  0
    1.1995    0.7236    0.4326 C   0  0  0  0  0  0  0  0  0  0  0  0
    0.9314    1.8987   -0.1470 C   0  0  0  0  0  0  0  0  0  0  0  0
   -0.1546    2.7067   -0.3211 C   0  0  0  0  0  0  0  0  0  0  0  0
   -1.2824    2.1426    0.2884 C   0  0  0  0  0  0  0  0  0  0  0  0
   -1.1951    0.9026    0.9608 C   0  0  0  0  0  0  0  0  0  0  0  0
    0.1138   -0.7526    1.5378 H   0  0  0  0  0  0  0  0  0  0  0  0
    2.1863    0.1794    0.4472 H   0  0  0  0  0  0  0  0  0  0  0  0
   -0.1716    3.6530   -0.8519 H   0  0  0  0  0  0  0  0  0  0  0  0
   -2.2373    2.6637    0.2423 H   0  0  0  0  0  0  0  0  0  0  0  0
    2.5535    2.7756   -1.0027 N   0  0  0  0  0  0  0  0  0  0  0  0
    3.3330    3.4470   -1.3997 N   0  0  0  0  0  0  0  0  0  0  0  0
   -2.3538    0.4648    1.5049 O   0  0  0  0  0  0  0  0  0  0  0  0
   -2.3563   -0.7925    2.1910 C   0  0  0  0  0  0  0  0  0  0  0  0
   -2.0758   -1.6098    1.5114 H   0  0  0  0  0  0  0  0  0  0  0  0
   -3.3843   -0.9346    2.5346 H   0  0  0  0  0  0  0  0  0  0  0  0
   -1.6767   -0.7687    3.0550 H   0  0  0  0  0  0  0  0  0  0  0  0
    4.2788   -0.2768   -0.9609 S   0  0  0  0  0  0  0  0  0  0  0  0
    3.2605    0.3640   -1.8593 O   0  0  0  0  0  0  0  0  0  0  0  0
    3.6892   -0.5949    0.4056 O   0  0  0  0  0  0  0  0  0  0  0  0
    5.1293   -1.3529   -1.5313 O   0  0  0  0  0  0  0  0  0  0  0  0
    5.3476    1.0116   -0.6589 O   0  0  0  0  0  0  0  0  0  0  0  0
    6.2239    0.6035   -0.5911 H   0  0  0  0  0  0  0  0  0  0  0  0
  1  7  1  0  0  0  0
  2  8  1  0  0  0  0
  2  1  2  0  0  0  0
  3  2  1  0  0  0  0
  4  3  2  0  0  0  0
  4  5  1  0  0  0  0
  5  6  2  0  0  0  0
  6  1  1  0  0  0  0
  6 13  1  0  0  0  0
  9  4  1  0  0  0  0
 10  5  1  0  0  0  0
 12 11  3  0  0  0  0
 13 14  1  0  0  0  0
 14 16  1  0  0  0  0
 14 17  1  0  0  0  0
 15 14  1  0  0  0  0
 18 22  1  0  0  0  0
 18 20  1  0  0  0  0
 19 18  2  0  0  0  0
 21 18  2  0  0  0  0
 22 23  1  0  0  0  0
M  RAD  2   3   2  20   2
M  END
