Coordinates from ORCA-job p-CH3O-Ph-N2-HSO4-B3LYPG-aug-cc-pVDZ-scan-d09-49-n400
 OpenBabel12261916563D

 23 22  0  0  0  0  0  0  0  0999 V2000
   -0.2350    0.0491   -0.2070 C   0  0  0  0  0  0  0  0  0  0  0  0
    0.4458    0.4549   -1.3357 C   0  0  0  0  0  0  0  0  0  0  0  0
    0.7499    1.8223   -1.4501 C   0  0  0  0  0  0  0  0  0  0  0  0
    0.3918    2.8013   -0.5021 C   0  0  0  0  0  0  0  0  0  0  0  0
   -0.2889    2.3715    0.6143 C   0  0  0  0  0  0  0  0  0  0  0  0
   -0.5487    0.9883    0.8005 C   0  0  0  0  0  0  0  0  0  0  0  0
   -0.4310   -1.0077   -0.0645 H   0  0  0  0  0  0  0  0  0  0  0  0
    0.7880   -0.2569   -2.0792 H   0  0  0  0  0  0  0  0  0  0  0  0
    0.6755    3.8430   -0.6334 H   0  0  0  0  0  0  0  0  0  0  0  0
   -0.5682    3.0663    1.4032 H   0  0  0  0  0  0  0  0  0  0  0  0
    1.6589    2.2018   -2.5024 N   0  0  0  0  0  0  0  0  0  0  0  0
    2.3696    2.4655   -3.3207 N   0  0  0  0  0  0  0  0  0  0  0  0
   -1.0798    0.6613    1.9767 O   0  0  0  0  0  0  0  0  0  0  0  0
   -1.0775   -0.7275    2.3784 C   0  0  0  0  0  0  0  0  0  0  0  0
   -1.7972   -1.3002    1.7779 H   0  0  0  0  0  0  0  0  0  0  0  0
   -1.3951   -0.7183    3.4239 H   0  0  0  0  0  0  0  0  0  0  0  0
   -0.0621   -1.1322    2.2838 H   0  0  0  0  0  0  0  0  0  0  0  0
    3.4009   -0.1578    0.5040 S   0  0  0  0  0  0  0  0  0  0  0  0
    3.0810    0.0900   -0.9506 O   0  0  0  0  0  0  0  0  0  0  0  0
    2.1810   -0.4693    1.3282 O   0  0  0  0  0  0  0  0  0  0  0  0
    4.5896   -1.0177    0.7695 O   0  0  0  0  0  0  0  0  0  0  0  0
    3.8813    1.3979    1.0233 O   0  0  0  0  0  0  0  0  0  0  0  0
    4.6550    1.2351    1.5831 H   0  0  0  0  0  0  0  0  0  0  0  0
  1  7  1  0  0  0  0
  1  6  2  0  0  0  0
  2  1  1  0  0  0  0
  3  2  2  0  0  0  0
  3  4  1  0  0  0  0
  4  5  2  0  0  0  0
  5  6  1  0  0  0  0
  5 10  1  0  0  0  0
  6 13  1  0  0  0  0
  8  2  1  0  0  0  0
  9  4  1  0  0  0  0
 11  3  1  0  0  0  0
 12 11  1  0  0  0  0
 13 14  1  0  0  0  0
 14 16  1  0  0  0  0
 15 14  1  0  0  0  0
 17 14  1  0  0  0  0
 18 21  2  0  0  0  0
 18 22  1  0  0  0  0
 18 20  1  0  0  0  0
 19 18  2  0  0  0  0
 22 23  1  0  0  0  0
M  RAD  3  11   2  12   3  20   2
M  END
