Coordinates from ORCA-job p-CH3O-Ph-N2-HSO4-B3LYPG-aug-cc-pVDZ-scan-d09-49-n400
 OpenBabel12261916563D

 23 22  0  0  0  0  0  0  0  0999 V2000
   -0.2480   -0.6132    0.8183 C   0  0  0  0  0  0  0  0  0  0  0  0
    0.8822   -0.6747   -0.0048 C   0  0  0  0  0  0  0  0  0  0  0  0
    1.4592    0.5030   -0.4655 C   0  0  0  0  0  0  0  0  0  0  0  0
    0.9300    1.7522   -0.1283 C   0  0  0  0  0  0  0  0  0  0  0  0
   -0.1953    1.8144    0.6873 C   0  0  0  0  0  0  0  0  0  0  0  0
   -0.7891    0.6336    1.1668 C   0  0  0  0  0  0  0  0  0  0  0  0
   -0.6919   -1.5400    1.1723 H   0  0  0  0  0  0  0  0  0  0  0  0
    1.3123   -1.6344   -0.2838 H   0  0  0  0  0  0  0  0  0  0  0  0
    1.3921    2.6596   -0.5138 H   0  0  0  0  0  0  0  0  0  0  0  0
   -0.6360    2.7718    0.9614 H   0  0  0  0  0  0  0  0  0  0  0  0
    2.9416    4.4561   -2.6848 N   0  0  0  0  0  0  0  0  0  0  0  0
    3.5832    4.7510   -3.5335 N   0  0  0  0  0  0  0  0  0  0  0  0
   -1.8867    0.8049    1.9581 O   0  0  0  0  0  0  0  0  0  0  0  0
   -2.5412   -0.3543    2.4670 C   0  0  0  0  0  0  0  0  0  0  0  0
   -2.9211   -0.9872    1.6506 H   0  0  0  0  0  0  0  0  0  0  0  0
   -3.3810    0.0170    3.0617 H   0  0  0  0  0  0  0  0  0  0  0  0
   -1.8680   -0.9421    3.1093 H   0  0  0  0  0  0  0  0  0  0  0  0
    4.0690    0.2452   -0.7378 S   0  0  0  0  0  0  0  0  0  0  0  0
    2.5456    0.4559   -1.3645 O   0  0  0  0  0  0  0  0  0  0  0  0
    4.0687   -0.8536    0.2451 O   0  0  0  0  0  0  0  0  0  0  0  0
    4.9515    0.2963   -1.8996 O   0  0  0  0  0  0  0  0  0  0  0  0
    4.2787    1.6534    0.1008 O   0  0  0  0  0  0  0  0  0  0  0  0
    4.1289    1.4457    1.0386 H   0  0  0  0  0  0  0  0  0  0  0  0
  1  6  1  0  0  0  0
  1  7  1  0  0  0  0
  2  1  2  0  0  0  0
  3  4  2  0  0  0  0
  3  2  1  0  0  0  0
  4  5  1  0  0  0  0
  5 10  1  0  0  0  0
  5  6  2  0  0  0  0
  6 13  1  0  0  0  0
  8  2  1  0  0  0  0
  9  4  1  0  0  0  0
 12 11  3  0  0  0  0
 13 14  1  0  0  0  0
 14 16  1  0  0  0  0
 14 17  1  0  0  0  0
 15 14  1  0  0  0  0
 18 22  1  0  0  0  0
 18 20  2  0  0  0  0
 19 18  1  0  0  0  0
 19  3  1  0  0  0  0
 21 18  2  0  0  0  0
 22 23  1  0  0  0  0
M  END
