Coordinates from ORCA-job p-CH3O-Ph-N2-HSO4-B3LYPG-aug-cc-pVDZ-scan-d09-49-n400
 OpenBabel12261916563D

 23 22  0  0  0  0  0  0  0  0999 V2000
    0.0287    0.1752    1.0278 C   0  0  0  0  0  0  0  0  0  0  0  0
    1.1947    0.6408    0.4239 C   0  0  0  0  0  0  0  0  0  0  0  0
    1.1045    1.8668   -0.2222 C   0  0  0  0  0  0  0  0  0  0  0  0
   -0.0481    2.6563   -0.3242 C   0  0  0  0  0  0  0  0  0  0  0  0
   -1.1934    2.1630    0.2750 C   0  0  0  0  0  0  0  0  0  0  0  0
   -1.1634    0.9220    0.9533 C   0  0  0  0  0  0  0  0  0  0  0  0
    0.0657   -0.7799    1.5439 H   0  0  0  0  0  0  0  0  0  0  0  0
    2.1326    0.0720    0.4526 H   0  0  0  0  0  0  0  0  0  0  0  0
   -0.0482    3.6069   -0.8529 H   0  0  0  0  0  0  0  0  0  0  0  0
   -2.1287    2.7176    0.2309 H   0  0  0  0  0  0  0  0  0  0  0  0
    2.3462    2.4629   -0.8687 N   0  0  0  0  0  0  0  0  0  0  0  0
    3.1173    3.1464   -1.2804 N   0  0  0  0  0  0  0  0  0  0  0  0
   -2.3340    0.5396    1.4964 O   0  0  0  0  0  0  0  0  0  0  0  0
   -2.4016   -0.7114    2.1958 C   0  0  0  0  0  0  0  0  0  0  0  0
   -2.1595   -1.5465    1.5241 H   0  0  0  0  0  0  0  0  0  0  0  0
   -3.4367   -0.7970    2.5358 H   0  0  0  0  0  0  0  0  0  0  0  0
   -1.7243   -0.7113    3.0611 H   0  0  0  0  0  0  0  0  0  0  0  0
    4.3370   -0.2629   -0.9904 S   0  0  0  0  0  0  0  0  0  0  0  0
    3.1831    0.3070   -1.7847 O   0  0  0  0  0  0  0  0  0  0  0  0
    3.8900   -0.7955    0.3437 O   0  0  0  0  0  0  0  0  0  0  0  0
    5.3088   -1.1004   -1.7387 O   0  0  0  0  0  0  0  0  0  0  0  0
    5.1912    1.1748   -0.6165 O   0  0  0  0  0  0  0  0  0  0  0  0
    6.1229    0.9143   -0.5646 H   0  0  0  0  0  0  0  0  0  0  0  0
  1  7  1  0  0  0  0
  2  8  1  0  0  0  0
  2  1  2  0  0  0  0
  3  2  1  0  0  0  0
  4  3  2  0  0  0  0
  4  5  1  0  0  0  0
  5  6  2  0  0  0  0
  6  1  1  0  0  0  0
  6 13  1  0  0  0  0
  9  4  1  0  0  0  0
 10  5  1  0  0  0  0
 11  3  1  0  0  0  0
 12 11  1  0  0  0  0
 13 14  1  0  0  0  0
 14 16  1  0  0  0  0
 14 17  1  0  0  0  0
 15 14  1  0  0  0  0
 18 22  1  0  0  0  0
 18 20  1  0  0  0  0
 19 18  2  0  0  0  0
 21 18  2  0  0  0  0
 22 23  1  0  0  0  0
M  RAD  3  11   2  12   3  20   2
M  END
