Coordinates from ORCA-job p-CH3O-Ph-N2-HSO4-B3LYPG-aug-cc-pVDZ-scan-d09-49-n400
 OpenBabel12261916563D

 23 21  0  0  0  0  0  0  0  0999 V2000
   -0.1167    0.0198    0.9790 C   0  0  0  0  0  0  0  0  0  0  0  0
    0.9296    0.6055    0.2347 C   0  0  0  0  0  0  0  0  0  0  0  0
    0.7430    1.7646   -0.2190 C   0  0  0  0  0  0  0  0  0  0  0  0
   -0.2666    2.6955   -0.2067 C   0  0  0  0  0  0  0  0  0  0  0  0
   -1.3297    2.1412    0.5290 C   0  0  0  0  0  0  0  0  0  0  0  0
   -1.2621    0.8431    1.1060 C   0  0  0  0  0  0  0  0  0  0  0  0
   -0.0606   -0.9739    1.4144 H   0  0  0  0  0  0  0  0  0  0  0  0
    2.5778   -0.3369   -0.1247 H   0  0  0  0  0  0  0  0  0  0  0  0
   -0.2886    3.6818   -0.6598 H   0  0  0  0  0  0  0  0  0  0  0  0
   -2.2445    2.7168    0.6689 H   0  0  0  0  0  0  0  0  0  0  0  0
    2.7159    4.0364   -2.1340 N   0  0  0  0  0  0  0  0  0  0  0  0
    3.6635    4.3887   -2.5775 N   0  0  0  0  0  0  0  0  0  0  0  0
   -2.3884    0.4713    1.7814 O   0  0  0  0  0  0  0  0  0  0  0  0
   -2.4156   -0.8172    2.3912 C   0  0  0  0  0  0  0  0  0  0  0  0
   -2.3028   -1.6139    1.6403 H   0  0  0  0  0  0  0  0  0  0  0  0
   -3.3976   -0.8985    2.8662 H   0  0  0  0  0  0  0  0  0  0  0  0
   -1.6284   -0.9116    3.1546 H   0  0  0  0  0  0  0  0  0  0  0  0
    4.5439   -0.2819   -1.0581 S   0  0  0  0  0  0  0  0  0  0  0  0
    3.9967    0.6422   -2.0575 O   0  0  0  0  0  0  0  0  0  0  0  0
    3.3404   -0.9743   -0.2126 O   0  0  0  0  0  0  0  0  0  0  0  0
    5.4814   -1.3675   -1.3739 O   0  0  0  0  0  0  0  0  0  0  0  0
    5.2455    0.6935    0.0796 O   0  0  0  0  0  0  0  0  0  0  0  0
    5.8488    0.1361    0.5995 H   0  0  0  0  0  0  0  0  0  0  0  0
  1  6  1  0  0  0  0
  1  7  1  0  0  0  0
  2  1  2  0  0  0  0
  3  4  2  0  0  0  0
  3  2  1  0  0  0  0
  4  5  1  0  0  0  0
  5 10  1  0  0  0  0
  5  6  2  0  0  0  0
  6 13  1  0  0  0  0
  9  4  1  0  0  0  0
 12 11  3  0  0  0  0
 13 14  1  0  0  0  0
 14 16  1  0  0  0  0
 14 17  1  0  0  0  0
 15 14  1  0  0  0  0
 18 20  1  0  0  0  0
 18 22  1  0  0  0  0
 19 18  2  0  0  0  0
 20  8  1  0  0  0  0
 21 18  2  0  0  0  0
 22 23  1  0  0  0  0
M  RAD  2   2   2   3   2
M  END
