Coordinates from ORCA-job p-CH3O-Ph-N2-HSO4-B3LYPG-aug-cc-pVDZ-scan-d09-49-n400
 OpenBabel12261916563D

 23 21  0  0  0  0  0  0  0  0999 V2000
   -0.0917    0.0687    0.9569 C   0  0  0  0  0  0  0  0  0  0  0  0
    0.9418    0.6822    0.2155 C   0  0  0  0  0  0  0  0  0  0  0  0
    0.7240    1.8404   -0.2275 C   0  0  0  0  0  0  0  0  0  0  0  0
   -0.3045    2.7493   -0.2078 C   0  0  0  0  0  0  0  0  0  0  0  0
   -1.3539    2.1652    0.5246 C   0  0  0  0  0  0  0  0  0  0  0  0
   -1.2555    0.8643    1.0917 C   0  0  0  0  0  0  0  0  0  0  0  0
   -0.0123   -0.9268    1.3846 H   0  0  0  0  0  0  0  0  0  0  0  0
    2.5674   -0.2848   -0.1120 H   0  0  0  0  0  0  0  0  0  0  0  0
   -0.3482    3.7380   -0.6539 H   0  0  0  0  0  0  0  0  0  0  0  0
   -2.2815    2.7186    0.6700 H   0  0  0  0  0  0  0  0  0  0  0  0
    2.6705    3.9013   -2.0242 N   0  0  0  0  0  0  0  0  0  0  0  0
    3.6294    4.2144   -2.4723 N   0  0  0  0  0  0  0  0  0  0  0  0
   -2.3718    0.4616    1.7658 O   0  0  0  0  0  0  0  0  0  0  0  0
   -2.3686   -0.8318    2.3658 C   0  0  0  0  0  0  0  0  0  0  0  0
   -2.2387   -1.6200    1.6088 H   0  0  0  0  0  0  0  0  0  0  0  0
   -3.3477   -0.9391    2.8416 H   0  0  0  0  0  0  0  0  0  0  0  0
   -1.5782   -0.9139    3.1273 H   0  0  0  0  0  0  0  0  0  0  0  0
    4.5308   -0.3061   -1.0546 S   0  0  0  0  0  0  0  0  0  0  0  0
    3.9960    0.5881   -2.0877 O   0  0  0  0  0  0  0  0  0  0  0  0
    3.3185   -0.9401   -0.1765 O   0  0  0  0  0  0  0  0  0  0  0  0
    5.4459   -1.4213   -1.3310 O   0  0  0  0  0  0  0  0  0  0  0  0
    5.2577    0.7000    0.0398 O   0  0  0  0  0  0  0  0  0  0  0  0
    5.8556    0.1524    0.5763 H   0  0  0  0  0  0  0  0  0  0  0  0
  1  6  1  0  0  0  0
  1  7  1  0  0  0  0
  2  1  2  0  0  0  0
  3  4  2  0  0  0  0
  3  2  1  0  0  0  0
  4  5  1  0  0  0  0
  5 10  1  0  0  0  0
  5  6  2  0  0  0  0
  6 13  1  0  0  0  0
  9  4  1  0  0  0  0
 12 11  3  0  0  0  0
 13 14  1  0  0  0  0
 14 16  1  0  0  0  0
 14 17  1  0  0  0  0
 15 14  1  0  0  0  0
 18 20  1  0  0  0  0
 18 22  1  0  0  0  0
 19 18  2  0  0  0  0
 20  8  1  0  0  0  0
 21 18  2  0  0  0  0
 22 23  1  0  0  0  0
M  RAD  2   2   2   3   2
M  END
