Coordinates from ORCA-job p-CH3O-Ph-N2-HSO4-B3LYPG-aug-cc-pVDZ-scan-d09-49-n400
 OpenBabel12261916563D

 23 22  0  0  0  0  0  0  0  0999 V2000
   -0.2445   -0.5785    0.7761 C   0  0  0  0  0  0  0  0  0  0  0  0
    0.8860   -0.6156   -0.0484 C   0  0  0  0  0  0  0  0  0  0  0  0
    1.4716    0.5760   -0.4578 C   0  0  0  0  0  0  0  0  0  0  0  0
    0.9531    1.8149   -0.0699 C   0  0  0  0  0  0  0  0  0  0  0  0
   -0.1727    1.8526    0.7465 C   0  0  0  0  0  0  0  0  0  0  0  0
   -0.7759    0.6572    1.1758 C   0  0  0  0  0  0  0  0  0  0  0  0
   -0.6964   -1.5153    1.0912 H   0  0  0  0  0  0  0  0  0  0  0  0
    1.3086   -1.5662   -0.3670 H   0  0  0  0  0  0  0  0  0  0  0  0
    1.4259    2.7305   -0.4202 H   0  0  0  0  0  0  0  0  0  0  0  0
   -0.6064    2.8011    1.0601 H   0  0  0  0  0  0  0  0  0  0  0  0
    2.8523    4.1425   -2.6512 N   0  0  0  0  0  0  0  0  0  0  0  0
    3.4483    4.3779   -3.5503 N   0  0  0  0  0  0  0  0  0  0  0  0
   -1.8729    0.8038    1.9729 O   0  0  0  0  0  0  0  0  0  0  0  0
   -2.5373   -0.3703    2.4323 C   0  0  0  0  0  0  0  0  0  0  0  0
   -2.9213   -0.9655    1.5899 H   0  0  0  0  0  0  0  0  0  0  0  0
   -3.3746   -0.0174    3.0415 H   0  0  0  0  0  0  0  0  0  0  0  0
   -1.8694   -0.9899    3.0500 H   0  0  0  0  0  0  0  0  0  0  0  0
    4.0788    0.3071   -0.7415 S   0  0  0  0  0  0  0  0  0  0  0  0
    2.5593    0.5644   -1.3592 O   0  0  0  0  0  0  0  0  0  0  0  0
    4.0674   -0.8425    0.1813 O   0  0  0  0  0  0  0  0  0  0  0  0
    4.9645    0.4128   -1.8974 O   0  0  0  0  0  0  0  0  0  0  0  0
    4.2994    1.6667    0.1705 O   0  0  0  0  0  0  0  0  0  0  0  0
    4.1410    1.4144    1.0959 H   0  0  0  0  0  0  0  0  0  0  0  0
  1  7  1  0  0  0  0
  1  6  1  0  0  0  0
  2  1  2  0  0  0  0
  3  4  2  0  0  0  0
  3  2  1  0  0  0  0
  4  5  1  0  0  0  0
  5 10  1  0  0  0  0
  5  6  2  0  0  0  0
  6 13  1  0  0  0  0
  8  2  1  0  0  0  0
  9  4  1  0  0  0  0
 12 11  3  0  0  0  0
 13 14  1  0  0  0  0
 14 16  1  0  0  0  0
 14 17  1  0  0  0  0
 15 14  1  0  0  0  0
 18 22  1  0  0  0  0
 18 20  2  0  0  0  0
 19 18  1  0  0  0  0
 19  3  1  0  0  0  0
 21 18  2  0  0  0  0
 22 23  1  0  0  0  0
M  END
