Coordinates from ORCA-job p-CH3O-Ph-N2-HSO4-B3LYPG-aug-cc-pVDZ-scan-d09-49-n400
 OpenBabel12261916563D

 23 21  0  0  0  0  0  0  0  0999 V2000
   -0.1568   -0.0948    1.0237 C   0  0  0  0  0  0  0  0  0  0  0  0
    0.9173    0.4128    0.2643 C   0  0  0  0  0  0  0  0  0  0  0  0
    0.7983    1.5643   -0.2280 C   0  0  0  0  0  0  0  0  0  0  0  0
   -0.1599    2.5485   -0.2479 C   0  0  0  0  0  0  0  0  0  0  0  0
   -1.2517    2.0750    0.5020 C   0  0  0  0  0  0  0  0  0  0  0  0
   -1.2555    0.7938    1.1206 C   0  0  0  0  0  0  0  0  0  0  0  0
   -0.1549   -1.0756    1.4909 H   0  0  0  0  0  0  0  0  0  0  0  0
    2.5912   -0.4992   -0.1481 H   0  0  0  0  0  0  0  0  0  0  0  0
   -0.1280    3.5199   -0.7318 H   0  0  0  0  0  0  0  0  0  0  0  0
   -2.1346    2.7028    0.6213 H   0  0  0  0  0  0  0  0  0  0  0  0
    2.7156    4.4468   -2.3642 N   0  0  0  0  0  0  0  0  0  0  0  0
    3.6424    4.9061   -2.7501 N   0  0  0  0  0  0  0  0  0  0  0  0
   -2.4016    0.5063    1.8041 O   0  0  0  0  0  0  0  0  0  0  0  0
   -2.4999   -0.7579    2.4557 C   0  0  0  0  0  0  0  0  0  0  0  0
   -2.4299   -1.5839    1.7318 H   0  0  0  0  0  0  0  0  0  0  0  0
   -3.4854   -0.7697    2.9303 H   0  0  0  0  0  0  0  0  0  0  0  0
   -1.7198   -0.8700    3.2241 H   0  0  0  0  0  0  0  0  0  0  0  0
    4.5556   -0.2454   -1.0430 S   0  0  0  0  0  0  0  0  0  0  0  0
    3.9677    0.7678   -1.9269 O   0  0  0  0  0  0  0  0  0  0  0  0
    3.3826   -1.0871   -0.2948 O   0  0  0  0  0  0  0  0  0  0  0  0
    5.5411   -1.2419   -1.4820 O   0  0  0  0  0  0  0  0  0  0  0  0
    5.2119    0.6154    0.2081 O   0  0  0  0  0  0  0  0  0  0  0  0
    5.8389    0.0264    0.6610 H   0  0  0  0  0  0  0  0  0  0  0  0
  1  6  1  0  0  0  0
  1  7  1  0  0  0  0
  2  1  2  0  0  0  0
  3  2  1  0  0  0  0
  4  3  2  0  0  0  0
  4  5  1  0  0  0  0
  5 10  1  0  0  0  0
  5  6  2  0  0  0  0
  6 13  1  0  0  0  0
  9  4  1  0  0  0  0
 12 11  3  0  0  0  0
 13 14  1  0  0  0  0
 14 16  1  0  0  0  0
 14 17  1  0  0  0  0
 15 14  1  0  0  0  0
 18 20  1  0  0  0  0
 18 22  1  0  0  0  0
 19 18  2  0  0  0  0
 20  8  1  0  0  0  0
 21 18  2  0  0  0  0
 22 23  1  0  0  0  0
M  RAD  2   2   2   3   2
M  END
