Coordinates from ORCA-job p-CH3O-Ph-N2-HSO4-B3LYPG-aug-cc-pVDZ-scan-d09-49-n400
 OpenBabel12261916563D

 23 22  0  0  0  0  0  0  0  0999 V2000
   -0.2594    0.0211   -0.3308 C   0  0  0  0  0  0  0  0  0  0  0  0
    0.2545    0.4411   -1.5291 C   0  0  0  0  0  0  0  0  0  0  0  0
    0.7206    1.7822   -1.6610 C   0  0  0  0  0  0  0  0  0  0  0  0
    0.6576    2.6931   -0.5625 C   0  0  0  0  0  0  0  0  0  0  0  0
    0.1387    2.2611    0.6254 C   0  0  0  0  0  0  0  0  0  0  0  0
   -0.2920    0.9123    0.7751 C   0  0  0  0  0  0  0  0  0  0  0  0
   -0.5769   -1.0104   -0.2198 H   0  0  0  0  0  0  0  0  0  0  0  0
    0.3393   -0.2384   -2.3743 H   0  0  0  0  0  0  0  0  0  0  0  0
    1.0482    3.7023   -0.6780 H   0  0  0  0  0  0  0  0  0  0  0  0
    0.1026    2.9134    1.4947 H   0  0  0  0  0  0  0  0  0  0  0  0
    1.2917    2.1488   -2.7592 N   0  0  0  0  0  0  0  0  0  0  0  0
    1.7969    2.4668   -3.7166 N   0  0  0  0  0  0  0  0  0  0  0  0
   -0.7594    0.5991    1.9696 O   0  0  0  0  0  0  0  0  0  0  0  0
   -0.9784   -0.7886    2.3079 C   0  0  0  0  0  0  0  0  0  0  0  0
   -1.8142   -1.1958    1.7231 H   0  0  0  0  0  0  0  0  0  0  0  0
   -1.2379   -0.7804    3.3690 H   0  0  0  0  0  0  0  0  0  0  0  0
   -0.0488   -1.3438    2.1404 H   0  0  0  0  0  0  0  0  0  0  0  0
    3.2687    0.0404    0.7978 S   0  0  0  0  0  0  0  0  0  0  0  0
    3.0120    0.4662   -0.6218 O   0  0  0  0  0  0  0  0  0  0  0  0
    2.0037   -0.3674    1.5130 O   0  0  0  0  0  0  0  0  0  0  0  0
    4.4405   -0.8563    1.0142 O   0  0  0  0  0  0  0  0  0  0  0  0
    3.7106    1.4960    1.5677 O   0  0  0  0  0  0  0  0  0  0  0  0
    4.5663    1.2979    1.9762 H   0  0  0  0  0  0  0  0  0  0  0  0
  1  7  1  0  0  0  0
  1  6  2  0  0  0  0
  2  1  1  0  0  0  0
  3  2  2  0  0  0  0
  3  4  1  0  0  0  0
  4  5  2  0  0  0  0
  5  6  1  0  0  0  0
  5 10  1  0  0  0  0
  6 13  1  0  0  0  0
  8  2  1  0  0  0  0
  9  4  1  0  0  0  0
 11  3  1  0  0  0  0
 12 11  1  0  0  0  0
 13 14  1  0  0  0  0
 14 16  1  0  0  0  0
 15 14  1  0  0  0  0
 17 14  1  0  0  0  0
 18 21  2  0  0  0  0
 18 20  1  0  0  0  0
 18 22  1  0  0  0  0
 19 18  2  0  0  0  0
 22 23  1  0  0  0  0
M  RAD  3  11   2  12   3  20   2
M  END
