Coordinates from ORCA-job p-CH3O-Ph-N2-HSO4-B3LYPG-aug-cc-pVDZ-scan-d09-49-n400
 OpenBabel12261916563D

 23 21  0  0  0  0  0  0  0  0999 V2000
   -0.0603    0.1299    0.9275 C   0  0  0  0  0  0  0  0  0  0  0  0
    0.9607    0.7712    0.1904 C   0  0  0  0  0  0  0  0  0  0  0  0
    0.7095    1.9276   -0.2423 C   0  0  0  0  0  0  0  0  0  0  0  0
   -0.3408    2.8102   -0.2153 C   0  0  0  0  0  0  0  0  0  0  0  0
   -1.3756    2.1959    0.5131 C   0  0  0  0  0  0  0  0  0  0  0  0
   -1.2439    0.8938    1.0699 C   0  0  0  0  0  0  0  0  0  0  0  0
    0.0439   -0.8666    1.3476 H   0  0  0  0  0  0  0  0  0  0  0  0
    2.5673   -0.2154   -0.0961 H   0  0  0  0  0  0  0  0  0  0  0  0
   -0.4084    3.8007   -0.6542 H   0  0  0  0  0  0  0  0  0  0  0  0
   -2.3163    2.7254    0.6627 H   0  0  0  0  0  0  0  0  0  0  0  0
    2.5533    3.7338   -1.8586 N   0  0  0  0  0  0  0  0  0  0  0  0
    3.5264    4.0003   -2.3062 N   0  0  0  0  0  0  0  0  0  0  0  0
   -2.3489    0.4576    1.7417 O   0  0  0  0  0  0  0  0  0  0  0  0
   -2.3123   -0.8403    2.3312 C   0  0  0  0  0  0  0  0  0  0  0  0
   -2.1631   -1.6187    1.5676 H   0  0  0  0  0  0  0  0  0  0  0  0
   -3.2879   -0.9762    2.8068 H   0  0  0  0  0  0  0  0  0  0  0  0
   -1.5193   -0.9085    3.0914 H   0  0  0  0  0  0  0  0  0  0  0  0
    4.5229   -0.3433   -1.0500 S   0  0  0  0  0  0  0  0  0  0  0  0
    4.0030    0.5085   -2.1258 O   0  0  0  0  0  0  0  0  0  0  0  0
    3.3026   -0.8923   -0.1280 O   0  0  0  0  0  0  0  0  0  0  0  0
    5.4035   -1.4977   -1.2732 O   0  0  0  0  0  0  0  0  0  0  0  0
    5.2902    0.6997   -0.0193 O   0  0  0  0  0  0  0  0  0  0  0  0
    5.8783    0.1652    0.5405 H   0  0  0  0  0  0  0  0  0  0  0  0
  1  6  1  0  0  0  0
  1  7  1  0  0  0  0
  2  1  2  0  0  0  0
  3  4  2  0  0  0  0
  3  2  1  0  0  0  0
  4  5  1  0  0  0  0
  5 10  1  0  0  0  0
  5  6  2  0  0  0  0
  6 13  1  0  0  0  0
  9  4  1  0  0  0  0
 12 11  3  0  0  0  0
 13 14  1  0  0  0  0
 14 16  1  0  0  0  0
 14 17  1  0  0  0  0
 15 14  1  0  0  0  0
 18 20  1  0  0  0  0
 18 22  1  0  0  0  0
 19 18  2  0  0  0  0
 20  8  1  0  0  0  0
 21 18  2  0  0  0  0
 22 23  1  0  0  0  0
M  RAD  2   2   2   3   2
M  END
