Coordinates from ORCA-job p-CH3O-Ph-N2-HSO4-B3LYPG-aug-cc-pVDZ-scan-d09-49-n400
 OpenBabel12261916563D

 23 22  0  0  0  0  0  0  0  0999 V2000
    0.0088    0.1811    1.0321 C   0  0  0  0  0  0  0  0  0  0  0  0
    1.1848    0.6651    0.4242 C   0  0  0  0  0  0  0  0  0  0  0  0
    0.9774    1.8595   -0.1742 C   0  0  0  0  0  0  0  0  0  0  0  0
   -0.1142    2.6759   -0.3280 C   0  0  0  0  0  0  0  0  0  0  0  0
   -1.2525    2.1462    0.2851 C   0  0  0  0  0  0  0  0  0  0  0  0
   -1.1947    0.9073    0.9613 C   0  0  0  0  0  0  0  0  0  0  0  0
    0.0716   -0.7749    1.5451 H   0  0  0  0  0  0  0  0  0  0  0  0
    2.1485    0.1150    0.4436 H   0  0  0  0  0  0  0  0  0  0  0  0
   -0.1166    3.6217   -0.8607 H   0  0  0  0  0  0  0  0  0  0  0  0
   -2.1953    2.6886    0.2416 H   0  0  0  0  0  0  0  0  0  0  0  0
    2.5106    2.6182   -0.9837 N   0  0  0  0  0  0  0  0  0  0  0  0
    3.2306    3.3688   -1.3548 N   0  0  0  0  0  0  0  0  0  0  0  0
   -2.3614    0.5012    1.5111 O   0  0  0  0  0  0  0  0  0  0  0  0
   -2.3950   -0.7523    2.2037 C   0  0  0  0  0  0  0  0  0  0  0  0
   -2.1374   -1.5800    1.5277 H   0  0  0  0  0  0  0  0  0  0  0  0
   -3.4256   -0.8657    2.5500 H   0  0  0  0  0  0  0  0  0  0  0  0
   -1.7131   -0.7418    3.0660 H   0  0  0  0  0  0  0  0  0  0  0  0
    4.3267   -0.2520   -0.9541 S   0  0  0  0  0  0  0  0  0  0  0  0
    3.2628    0.4048   -1.8031 O   0  0  0  0  0  0  0  0  0  0  0  0
    3.7739   -0.6875    0.3825 O   0  0  0  0  0  0  0  0  0  0  0  0
    5.2141   -1.2284   -1.6379 O   0  0  0  0  0  0  0  0  0  0  0  0
    5.3397    1.0657   -0.5798 O   0  0  0  0  0  0  0  0  0  0  0  0
    6.2411    0.7241   -0.6766 H   0  0  0  0  0  0  0  0  0  0  0  0
  1  7  1  0  0  0  0
  2  8  1  0  0  0  0
  2  1  2  0  0  0  0
  3  2  1  0  0  0  0
  4  3  2  0  0  0  0
  4  5  1  0  0  0  0
  5  6  2  0  0  0  0
  6  1  1  0  0  0  0
  6 13  1  0  0  0  0
  9  4  1  0  0  0  0
 10  5  1  0  0  0  0
 11  3  1  0  0  0  0
 12 11  1  0  0  0  0
 13 14  1  0  0  0  0
 14 16  1  0  0  0  0
 14 17  1  0  0  0  0
 15 14  1  0  0  0  0
 18 22  1  0  0  0  0
 18 20  1  0  0  0  0
 19 18  2  0  0  0  0
 21 18  2  0  0  0  0
 23 22  1  0  0  0  0
M  RAD  3  11   2  12   3  20   2
M  END
