Coordinates from ORCA-job p-CH3O-Ph-N2-HSO4-B3LYPG-aug-cc-pVDZ-scan-d09-49-n400
 OpenBabel12261916563D

 23 22  0  0  0  0  0  0  0  0999 V2000
    0.0250    0.1748    1.0278 C   0  0  0  0  0  0  0  0  0  0  0  0
    1.1916    0.6412    0.4229 C   0  0  0  0  0  0  0  0  0  0  0  0
    1.0918    1.8644   -0.2189 C   0  0  0  0  0  0  0  0  0  0  0  0
   -0.0539    2.6580   -0.3226 C   0  0  0  0  0  0  0  0  0  0  0  0
   -1.1987    2.1630    0.2789 C   0  0  0  0  0  0  0  0  0  0  0  0
   -1.1672    0.9214    0.9556 C   0  0  0  0  0  0  0  0  0  0  0  0
    0.0633   -0.7807    1.5434 H   0  0  0  0  0  0  0  0  0  0  0  0
    2.1307    0.0739    0.4500 H   0  0  0  0  0  0  0  0  0  0  0  0
   -0.0528    3.6086   -0.8509 H   0  0  0  0  0  0  0  0  0  0  0  0
   -2.1340    2.7176    0.2370 H   0  0  0  0  0  0  0  0  0  0  0  0
    2.3670    2.4724   -0.8845 N   0  0  0  0  0  0  0  0  0  0  0  0
    3.1364    3.1555   -1.2974 N   0  0  0  0  0  0  0  0  0  0  0  0
   -2.3376    0.5379    1.5004 O   0  0  0  0  0  0  0  0  0  0  0  0
   -2.4030   -0.7144    2.1974 C   0  0  0  0  0  0  0  0  0  0  0  0
   -2.1607   -1.5480    1.5238 H   0  0  0  0  0  0  0  0  0  0  0  0
   -3.4378   -0.8018    2.5381 H   0  0  0  0  0  0  0  0  0  0  0  0
   -1.7250   -0.7152    3.0621 H   0  0  0  0  0  0  0  0  0  0  0  0
    4.3384   -0.2625   -0.9870 S   0  0  0  0  0  0  0  0  0  0  0  0
    3.1902    0.3116   -1.7873 O   0  0  0  0  0  0  0  0  0  0  0  0
    3.8831   -0.7941    0.3445 O   0  0  0  0  0  0  0  0  0  0  0  0
    5.3102   -1.1032   -1.7319 O   0  0  0  0  0  0  0  0  0  0  0  0
    5.1977    1.1706   -0.6077 O   0  0  0  0  0  0  0  0  0  0  0  0
    6.1300    0.9096   -0.5722 H   0  0  0  0  0  0  0  0  0  0  0  0
  1  7  1  0  0  0  0
  2  8  1  0  0  0  0
  2  1  2  0  0  0  0
  3  2  1  0  0  0  0
  4  3  2  0  0  0  0
  4  5  1  0  0  0  0
  5  6  2  0  0  0  0
  6  1  1  0  0  0  0
  6 13  1  0  0  0  0
  9  4  1  0  0  0  0
 10  5  1  0  0  0  0
 11  3  1  0  0  0  0
 12 11  1  0  0  0  0
 13 14  1  0  0  0  0
 14 16  1  0  0  0  0
 14 17  1  0  0  0  0
 15 14  1  0  0  0  0
 18 22  1  0  0  0  0
 18 20  1  0  0  0  0
 19 18  2  0  0  0  0
 21 18  2  0  0  0  0
 22 23  1  0  0  0  0
M  RAD  3  11   2  12   3  20   2
M  END
