Coordinates from ORCA-job p-CH3O-Ph-N2-HSO4-B3LYPG-aug-cc-pVDZ-scan-d09-49-n400
 OpenBabel12261916563D

 23 22  0  0  0  0  0  0  0  0999 V2000
   -0.2469   -0.6064    0.8129 C   0  0  0  0  0  0  0  0  0  0  0  0
    0.8832   -0.6612   -0.0111 C   0  0  0  0  0  0  0  0  0  0  0  0
    1.4591    0.5206   -0.4623 C   0  0  0  0  0  0  0  0  0  0  0  0
    0.9289    1.7663   -0.1154 C   0  0  0  0  0  0  0  0  0  0  0  0
   -0.1964    1.8222    0.7005 C   0  0  0  0  0  0  0  0  0  0  0  0
   -0.7890    0.6371    1.1710 C   0  0  0  0  0  0  0  0  0  0  0  0
   -0.6901   -1.5361    1.1599 H   0  0  0  0  0  0  0  0  0  0  0  0
    1.3137   -1.6185   -0.2974 H   0  0  0  0  0  0  0  0  0  0  0  0
    1.3927    2.6744   -0.4959 H   0  0  0  0  0  0  0  0  0  0  0  0
   -0.6378    2.7771    0.9820 H   0  0  0  0  0  0  0  0  0  0  0  0
    2.9446    4.4116   -2.7032 N   0  0  0  0  0  0  0  0  0  0  0  0
    3.5815    4.6892   -3.5613 N   0  0  0  0  0  0  0  0  0  0  0  0
   -1.8867    0.8013    1.9636 O   0  0  0  0  0  0  0  0  0  0  0  0
   -2.5403   -0.3623    2.4635 C   0  0  0  0  0  0  0  0  0  0  0  0
   -2.9197   -0.9892    1.6422 H   0  0  0  0  0  0  0  0  0  0  0  0
   -3.3803    0.0037    3.0611 H   0  0  0  0  0  0  0  0  0  0  0  0
   -1.8666   -0.9546    3.1013 H   0  0  0  0  0  0  0  0  0  0  0  0
    4.0675    0.2574   -0.7385 S   0  0  0  0  0  0  0  0  0  0  0  0
    2.5450    0.4821   -1.3620 O   0  0  0  0  0  0  0  0  0  0  0  0
    4.0655   -0.8596    0.2237 O   0  0  0  0  0  0  0  0  0  0  0  0
    4.9506    0.3290   -1.8989 O   0  0  0  0  0  0  0  0  0  0  0  0
    4.2794    1.6493    0.1258 O   0  0  0  0  0  0  0  0  0  0  0  0
    4.1269    1.4271    1.0598 H   0  0  0  0  0  0  0  0  0  0  0  0
  1  7  1  0  0  0  0
  1  6  1  0  0  0  0
  2  1  2  0  0  0  0
  3  4  2  0  0  0  0
  3  2  1  0  0  0  0
  4  5  1  0  0  0  0
  5 10  1  0  0  0  0
  5  6  2  0  0  0  0
  6 13  1  0  0  0  0
  8  2  1  0  0  0  0
  9  4  1  0  0  0  0
 12 11  3  0  0  0  0
 13 14  1  0  0  0  0
 14 16  1  0  0  0  0
 14 17  1  0  0  0  0
 15 14  1  0  0  0  0
 18 22  1  0  0  0  0
 18 20  2  0  0  0  0
 19 18  1  0  0  0  0
 19  3  1  0  0  0  0
 21 18  2  0  0  0  0
 22 23  1  0  0  0  0
M  END
