Coordinates from ORCA-job p-CH3O-Ph-N2-HSO4-B3LYPG-aug-cc-pVDZ-scan-d09-49-n400
 OpenBabel12261916563D

 23 22  0  0  0  0  0  0  0  0999 V2000
   -0.2474    0.0470   -0.2025 C   0  0  0  0  0  0  0  0  0  0  0  0
    0.4373    0.4494   -1.3319 C   0  0  0  0  0  0  0  0  0  0  0  0
    0.7454    1.8122   -1.4347 C   0  0  0  0  0  0  0  0  0  0  0  0
    0.4048    2.7947   -0.4903 C   0  0  0  0  0  0  0  0  0  0  0  0
   -0.2821    2.3666    0.6252 C   0  0  0  0  0  0  0  0  0  0  0  0
   -0.5543    0.9863    0.8066 C   0  0  0  0  0  0  0  0  0  0  0  0
   -0.4513   -1.0088   -0.0626 H   0  0  0  0  0  0  0  0  0  0  0  0
    0.7764   -0.2630   -2.0761 H   0  0  0  0  0  0  0  0  0  0  0  0
    0.7011    3.8330   -0.6178 H   0  0  0  0  0  0  0  0  0  0  0  0
   -0.5545    3.0619    1.4162 H   0  0  0  0  0  0  0  0  0  0  0  0
    1.6935    2.1938   -2.5073 N   0  0  0  0  0  0  0  0  0  0  0  0
    2.4210    2.4658   -3.3049 N   0  0  0  0  0  0  0  0  0  0  0  0
   -1.0894    0.6595    1.9829 O   0  0  0  0  0  0  0  0  0  0  0  0
   -1.0913   -0.7294    2.3816 C   0  0  0  0  0  0  0  0  0  0  0  0
   -1.8128   -1.2995    1.7804 H   0  0  0  0  0  0  0  0  0  0  0  0
   -1.4085   -0.7221    3.4272 H   0  0  0  0  0  0  0  0  0  0  0  0
   -0.0775   -1.1381    2.2862 H   0  0  0  0  0  0  0  0  0  0  0  0
    3.4053   -0.1537    0.4887 S   0  0  0  0  0  0  0  0  0  0  0  0
    3.0802    0.0716   -0.9686 O   0  0  0  0  0  0  0  0  0  0  0  0
    2.1932   -0.4805    1.3174 O   0  0  0  0  0  0  0  0  0  0  0  0
    4.6129   -0.9839    0.7630 O   0  0  0  0  0  0  0  0  0  0  0  0
    3.8539    1.4193    0.9890 O   0  0  0  0  0  0  0  0  0  0  0  0
    4.6287    1.2788    1.5532 H   0  0  0  0  0  0  0  0  0  0  0  0
  1  7  1  0  0  0  0
  1  6  2  0  0  0  0
  2  1  1  0  0  0  0
  3  2  2  0  0  0  0
  3  4  1  0  0  0  0
  4  5  2  0  0  0  0
  5  6  1  0  0  0  0
  5 10  1  0  0  0  0
  6 13  1  0  0  0  0
  8  2  1  0  0  0  0
  9  4  1  0  0  0  0
 11  3  1  0  0  0  0
 12 11  1  0  0  0  0
 13 14  1  0  0  0  0
 14 16  1  0  0  0  0
 15 14  1  0  0  0  0
 17 14  1  0  0  0  0
 18 21  2  0  0  0  0
 18 22  1  0  0  0  0
 18 20  1  0  0  0  0
 19 18  2  0  0  0  0
 22 23  1  0  0  0  0
M  RAD  3  11   2  12   3  20   2
M  END
