Coordinates from ORCA-job p-CH3O-Ph-N2-HSO4-B3LYPG-aug-cc-pVDZ-scan-d09-49-n400
 OpenBabel12261916563D

 23 21  0  0  0  0  0  0  0  0999 V2000
   -0.1468   -0.0618    1.0140 C   0  0  0  0  0  0  0  0  0  0  0  0
    0.9201    0.4718    0.2621 C   0  0  0  0  0  0  0  0  0  0  0  0
    0.7816    1.6261   -0.2171 C   0  0  0  0  0  0  0  0  0  0  0  0
   -0.1915    2.5957   -0.2285 C   0  0  0  0  0  0  0  0  0  0  0  0
   -1.2765    2.0959    0.5144 C   0  0  0  0  0  0  0  0  0  0  0  0
   -1.2602    0.8078    1.1187 C   0  0  0  0  0  0  0  0  0  0  0  0
   -0.1293   -1.0475    1.4702 H   0  0  0  0  0  0  0  0  0  0  0  0
    2.5893   -0.4466   -0.1360 H   0  0  0  0  0  0  0  0  0  0  0  0
   -0.1747    3.5728   -0.7016 H   0  0  0  0  0  0  0  0  0  0  0  0
   -2.1697    2.7079    0.6393 H   0  0  0  0  0  0  0  0  0  0  0  0
    2.7278    4.3129   -2.3005 N   0  0  0  0  0  0  0  0  0  0  0  0
    3.6603    4.7376   -2.7113 N   0  0  0  0  0  0  0  0  0  0  0  0
   -2.4023    0.4938    1.7971 O   0  0  0  0  0  0  0  0  0  0  0  0
   -2.4809   -0.7792    2.4340 C   0  0  0  0  0  0  0  0  0  0  0  0
   -2.3963   -1.5957    1.7008 H   0  0  0  0  0  0  0  0  0  0  0  0
   -3.4668   -0.8126    2.9068 H   0  0  0  0  0  0  0  0  0  0  0  0
   -1.7004   -0.8874    3.2024 H   0  0  0  0  0  0  0  0  0  0  0  0
    4.5536   -0.2526   -1.0509 S   0  0  0  0  0  0  0  0  0  0  0  0
    3.9758    0.7330   -1.9721 O   0  0  0  0  0  0  0  0  0  0  0  0
    3.3730   -1.0491   -0.2652 O   0  0  0  0  0  0  0  0  0  0  0  0
    5.5237   -1.2790   -1.4539 O   0  0  0  0  0  0  0  0  0  0  0  0
    5.2268    0.6478    0.1628 O   0  0  0  0  0  0  0  0  0  0  0  0
    5.8484    0.0689    0.6357 H   0  0  0  0  0  0  0  0  0  0  0  0
  1  6  1  0  0  0  0
  1  7  1  0  0  0  0
  2  1  2  0  0  0  0
  3  2  1  0  0  0  0
  4  3  2  0  0  0  0
  4  5  1  0  0  0  0
  5 10  1  0  0  0  0
  5  6  2  0  0  0  0
  6 13  1  0  0  0  0
  9  4  1  0  0  0  0
 12 11  3  0  0  0  0
 13 14  1  0  0  0  0
 14 16  1  0  0  0  0
 14 17  1  0  0  0  0
 15 14  1  0  0  0  0
 18 20  1  0  0  0  0
 18 22  1  0  0  0  0
 19 18  2  0  0  0  0
 20  8  1  0  0  0  0
 21 18  2  0  0  0  0
 22 23  1  0  0  0  0
M  RAD  2   2   2   3   2
M  END
