Coordinates from ORCA-job p-CH3O-Ph-N2-HSO4-B3LYPG-aug-cc-pVDZ-scan-d09-49-n400
 OpenBabel12261916563D

 23 22  0  0  0  0  0  0  0  0999 V2000
   -0.2641    0.0224   -0.3281 C   0  0  0  0  0  0  0  0  0  0  0  0
    0.2528    0.4419   -1.5267 C   0  0  0  0  0  0  0  0  0  0  0  0
    0.7131    1.7815   -1.6517 C   0  0  0  0  0  0  0  0  0  0  0  0
    0.6482    2.6966   -0.5617 C   0  0  0  0  0  0  0  0  0  0  0  0
    0.1260    2.2642    0.6261 C   0  0  0  0  0  0  0  0  0  0  0  0
   -0.3010    0.9148    0.7760 C   0  0  0  0  0  0  0  0  0  0  0  0
   -0.5790   -1.0098   -0.2163 H   0  0  0  0  0  0  0  0  0  0  0  0
    0.3430   -0.2386   -2.3704 H   0  0  0  0  0  0  0  0  0  0  0  0
    1.0377    3.7060   -0.6773 H   0  0  0  0  0  0  0  0  0  0  0  0
    0.0860    2.9174    1.4946 H   0  0  0  0  0  0  0  0  0  0  0  0
    1.3085    2.1534   -2.7708 N   0  0  0  0  0  0  0  0  0  0  0  0
    1.8225    2.4676   -3.7222 N   0  0  0  0  0  0  0  0  0  0  0  0
   -0.7661    0.6001    1.9719 O   0  0  0  0  0  0  0  0  0  0  0  0
   -0.9774   -0.7884    2.3106 C   0  0  0  0  0  0  0  0  0  0  0  0
   -1.8121   -1.2001    1.7273 H   0  0  0  0  0  0  0  0  0  0  0  0
   -1.2353   -0.7817    3.3721 H   0  0  0  0  0  0  0  0  0  0  0  0
   -0.0454   -1.3393    2.1418 H   0  0  0  0  0  0  0  0  0  0  0  0
    3.2724    0.0366    0.7941 S   0  0  0  0  0  0  0  0  0  0  0  0
    3.0119    0.4622   -0.6250 O   0  0  0  0  0  0  0  0  0  0  0  0
    2.0100   -0.3707    1.5135 O   0  0  0  0  0  0  0  0  0  0  0  0
    4.4451   -0.8600    1.0071 O   0  0  0  0  0  0  0  0  0  0  0  0
    3.7180    1.4932    1.5609 O   0  0  0  0  0  0  0  0  0  0  0  0
    4.5700    1.2915    1.9753 H   0  0  0  0  0  0  0  0  0  0  0  0
  1  7  1  0  0  0  0
  1  6  2  0  0  0  0
  2  1  1  0  0  0  0
  3  2  2  0  0  0  0
  3  4  1  0  0  0  0
  4  5  2  0  0  0  0
  5  6  1  0  0  0  0
  5 10  1  0  0  0  0
  6 13  1  0  0  0  0
  8  2  1  0  0  0  0
  9  4  1  0  0  0  0
 11  3  1  0  0  0  0
 12 11  1  0  0  0  0
 13 14  1  0  0  0  0
 14 16  1  0  0  0  0
 15 14  1  0  0  0  0
 17 14  1  0  0  0  0
 18 21  2  0  0  0  0
 18 20  1  0  0  0  0
 18 22  1  0  0  0  0
 19 18  2  0  0  0  0
 22 23  1  0  0  0  0
M  RAD  3  11   2  12   3  20   2
M  END
