Coordinates from ORCA-job p-CH3O-Ph-N2-HSO4-B3LYPG-aug-cc-pVDZ-scan-d09-49-n400
 OpenBabel12261916563D

 23 21  0  0  0  0  0  0  0  0999 V2000
   -0.1198    0.0126    0.9823 C   0  0  0  0  0  0  0  0  0  0  0  0
    0.9281    0.5942    0.2374 C   0  0  0  0  0  0  0  0  0  0  0  0
    0.7461    1.7530   -0.2185 C   0  0  0  0  0  0  0  0  0  0  0  0
   -0.2607    2.6872   -0.2077 C   0  0  0  0  0  0  0  0  0  0  0  0
   -1.3257    2.1374    0.5285 C   0  0  0  0  0  0  0  0  0  0  0  0
   -1.2625    0.8399    1.1076 C   0  0  0  0  0  0  0  0  0  0  0  0
   -0.0670   -0.9807    1.4193 H   0  0  0  0  0  0  0  0  0  0  0  0
    2.5790   -0.3454   -0.1255 H   0  0  0  0  0  0  0  0  0  0  0  0
   -0.2793    3.6729   -0.6624 H   0  0  0  0  0  0  0  0  0  0  0  0
   -2.2388    2.7161    0.6672 H   0  0  0  0  0  0  0  0  0  0  0  0
    2.7205    4.0578   -2.1489 N   0  0  0  0  0  0  0  0  0  0  0  0
    3.6667    4.4160   -2.5907 N   0  0  0  0  0  0  0  0  0  0  0  0
   -2.3903    0.4729    1.7831 O   0  0  0  0  0  0  0  0  0  0  0  0
   -2.4220   -0.8146    2.3949 C   0  0  0  0  0  0  0  0  0  0  0  0
   -2.3115   -1.6128    1.6454 H   0  0  0  0  0  0  0  0  0  0  0  0
   -3.4045   -0.8918    2.8697 H   0  0  0  0  0  0  0  0  0  0  0  0
   -1.6354   -0.9104    3.1588 H   0  0  0  0  0  0  0  0  0  0  0  0
    4.5448   -0.2784   -1.0580 S   0  0  0  0  0  0  0  0  0  0  0  0
    3.9945    0.6510   -2.0509 O   0  0  0  0  0  0  0  0  0  0  0  0
    3.3435   -0.9799   -0.2167 O   0  0  0  0  0  0  0  0  0  0  0  0
    5.4853   -1.3592   -1.3815 O   0  0  0  0  0  0  0  0  0  0  0  0
    5.2442    0.6912    0.0860 O   0  0  0  0  0  0  0  0  0  0  0  0
    5.8495    0.1320    0.6017 H   0  0  0  0  0  0  0  0  0  0  0  0
  1  6  1  0  0  0  0
  1  7  1  0  0  0  0
  2  1  2  0  0  0  0
  3  4  2  0  0  0  0
  3  2  1  0  0  0  0
  4  5  1  0  0  0  0
  5 10  1  0  0  0  0
  5  6  2  0  0  0  0
  6 13  1  0  0  0  0
  9  4  1  0  0  0  0
 12 11  3  0  0  0  0
 13 14  1  0  0  0  0
 14 16  1  0  0  0  0
 14 17  1  0  0  0  0
 15 14  1  0  0  0  0
 18 20  1  0  0  0  0
 18 22  1  0  0  0  0
 19 18  2  0  0  0  0
 20  8  1  0  0  0  0
 21 18  2  0  0  0  0
 22 23  1  0  0  0  0
M  RAD  2   2   2   3   2
M  END
