Coordinates from ORCA-job p-CH3O-Ph-N2-HSO4-B3LYPG-aug-cc-pVDZ-scan-d09-49-n400
 OpenBabel12261916563D

 23 22  0  0  0  0  0  0  0  0999 V2000
   -0.2476   -0.6056    0.8103 C   0  0  0  0  0  0  0  0  0  0  0  0
    0.8825   -0.6597   -0.0136 C   0  0  0  0  0  0  0  0  0  0  0  0
    1.4593    0.5226   -0.4617 C   0  0  0  0  0  0  0  0  0  0  0  0
    0.9309    1.7686   -0.1120 C   0  0  0  0  0  0  0  0  0  0  0  0
   -0.1944    1.8235    0.7040 C   0  0  0  0  0  0  0  0  0  0  0  0
   -0.7883    0.6378    1.1715 C   0  0  0  0  0  0  0  0  0  0  0  0
   -0.6920   -1.5356    1.1551 H   0  0  0  0  0  0  0  0  0  0  0  0
    1.3120   -1.6168   -0.3025 H   0  0  0  0  0  0  0  0  0  0  0  0
    1.3957    2.6776   -0.4903 H   0  0  0  0  0  0  0  0  0  0  0  0
   -0.6349    2.7782    0.9879 H   0  0  0  0  0  0  0  0  0  0  0  0
    2.9406    4.3932   -2.6986 N   0  0  0  0  0  0  0  0  0  0  0  0
    3.5751    4.6684   -3.5592 N   0  0  0  0  0  0  0  0  0  0  0  0
   -1.8857    0.8012    1.9646 O   0  0  0  0  0  0  0  0  0  0  0  0
   -2.5406   -0.3629    2.4617 C   0  0  0  0  0  0  0  0  0  0  0  0
   -2.9207   -0.9873    1.6389 H   0  0  0  0  0  0  0  0  0  0  0  0
   -3.3802    0.0026    3.0602 H   0  0  0  0  0  0  0  0  0  0  0  0
   -1.8675   -0.9574    3.0980 H   0  0  0  0  0  0  0  0  0  0  0  0
    4.0682    0.2618   -0.7391 S   0  0  0  0  0  0  0  0  0  0  0  0
    2.5458    0.4883   -1.3622 O   0  0  0  0  0  0  0  0  0  0  0  0
    4.0655   -0.8555    0.2227 O   0  0  0  0  0  0  0  0  0  0  0  0
    4.9511    0.3331   -1.8996 O   0  0  0  0  0  0  0  0  0  0  0  0
    4.2813    1.6533    0.1255 O   0  0  0  0  0  0  0  0  0  0  0  0
    4.1286    1.4312    1.0595 H   0  0  0  0  0  0  0  0  0  0  0  0
  1  7  1  0  0  0  0
  1  6  1  0  0  0  0
  2  1  2  0  0  0  0
  3  4  2  0  0  0  0
  3  2  1  0  0  0  0
  4  5  1  0  0  0  0
  5 10  1  0  0  0  0
  5  6  2  0  0  0  0
  6 13  1  0  0  0  0
  8  2  1  0  0  0  0
  9  4  1  0  0  0  0
 12 11  3  0  0  0  0
 13 14  1  0  0  0  0
 14 16  1  0  0  0  0
 14 17  1  0  0  0  0
 15 14  1  0  0  0  0
 18 22  1  0  0  0  0
 18 20  2  0  0  0  0
 19 18  1  0  0  0  0
 19  3  1  0  0  0  0
 21 18  2  0  0  0  0
 22 23  1  0  0  0  0
M  END
