Coordinates from ORCA-job p-CH3O-Ph-N2-HSO4-B3LYPG-aug-cc-pVDZ-scan-d09-49-n400
 OpenBabel12261916563D

 23 21  0  0  0  0  0  0  0  0999 V2000
   -0.1181    0.0165    0.9807 C   0  0  0  0  0  0  0  0  0  0  0  0
    0.9284    0.6015    0.2366 C   0  0  0  0  0  0  0  0  0  0  0  0
    0.7426    1.7599   -0.2172 C   0  0  0  0  0  0  0  0  0  0  0  0
   -0.2645    2.6932   -0.2070 C   0  0  0  0  0  0  0  0  0  0  0  0
   -1.3284    2.1400    0.5286 C   0  0  0  0  0  0  0  0  0  0  0  0
   -1.2626    0.8416    1.1065 C   0  0  0  0  0  0  0  0  0  0  0  0
   -0.0631   -0.9770    1.4166 H   0  0  0  0  0  0  0  0  0  0  0  0
    2.5781   -0.3387   -0.1243 H   0  0  0  0  0  0  0  0  0  0  0  0
   -0.2848    3.6793   -0.6607 H   0  0  0  0  0  0  0  0  0  0  0  0
   -2.2427    2.7166    0.6680 H   0  0  0  0  0  0  0  0  0  0  0  0
    2.7185    4.0407   -2.1372 N   0  0  0  0  0  0  0  0  0  0  0  0
    3.6657    4.3942   -2.5804 N   0  0  0  0  0  0  0  0  0  0  0  0
   -2.3896    0.4718    1.7818 O   0  0  0  0  0  0  0  0  0  0  0  0
   -2.4188   -0.8163    2.3924 C   0  0  0  0  0  0  0  0  0  0  0  0
   -2.3068   -1.6137    1.6422 H   0  0  0  0  0  0  0  0  0  0  0  0
   -3.4010   -0.8958    2.8672 H   0  0  0  0  0  0  0  0  0  0  0  0
   -1.6319   -0.9112    3.1561 H   0  0  0  0  0  0  0  0  0  0  0  0
    4.5448   -0.2798   -1.0590 S   0  0  0  0  0  0  0  0  0  0  0  0
    3.9970    0.6457   -2.0574 O   0  0  0  0  0  0  0  0  0  0  0  0
    3.3421   -0.9745   -0.2135 O   0  0  0  0  0  0  0  0  0  0  0  0
    5.4826   -1.3646   -1.3767 O   0  0  0  0  0  0  0  0  0  0  0  0
    5.2466    0.6945    0.0795 O   0  0  0  0  0  0  0  0  0  0  0  0
    5.8506    0.1368    0.5982 H   0  0  0  0  0  0  0  0  0  0  0  0
  1  6  1  0  0  0  0
  1  7  1  0  0  0  0
  2  1  2  0  0  0  0
  3  4  2  0  0  0  0
  3  2  1  0  0  0  0
  4  5  1  0  0  0  0
  5 10  1  0  0  0  0
  5  6  2  0  0  0  0
  6 13  1  0  0  0  0
  9  4  1  0  0  0  0
 12 11  3  0  0  0  0
 13 14  1  0  0  0  0
 14 16  1  0  0  0  0
 14 17  1  0  0  0  0
 15 14  1  0  0  0  0
 18 20  1  0  0  0  0
 18 22  1  0  0  0  0
 19 18  2  0  0  0  0
 20  8  1  0  0  0  0
 21 18  2  0  0  0  0
 22 23  1  0  0  0  0
M  RAD  2   2   2   3   2
M  END
