Coordinates from ORCA-job p-CH3O-Ph-N2-HSO4-B3LYPG-aug-cc-pVDZ-scan-d09-49-n400
 OpenBabel12261916563D

 23 21  0  0  0  0  0  0  0  0999 V2000
   -0.0420    0.1619    0.9087 C   0  0  0  0  0  0  0  0  0  0  0  0
    0.9769    0.8118    0.1725 C   0  0  0  0  0  0  0  0  0  0  0  0
    0.7001    1.9671   -0.2501 C   0  0  0  0  0  0  0  0  0  0  0  0
   -0.3540    2.8412   -0.2212 C   0  0  0  0  0  0  0  0  0  0  0  0
   -1.3820    2.2133    0.5068 C   0  0  0  0  0  0  0  0  0  0  0  0
   -1.2344    0.9107    1.0575 C   0  0  0  0  0  0  0  0  0  0  0  0
    0.0734   -0.8352    1.3248 H   0  0  0  0  0  0  0  0  0  0  0  0
    2.5631   -0.1791   -0.0946 H   0  0  0  0  0  0  0  0  0  0  0  0
   -0.4322    3.8324   -0.6563 H   0  0  0  0  0  0  0  0  0  0  0  0
   -2.3280    2.7325    0.6598 H   0  0  0  0  0  0  0  0  0  0  0  0
    2.4728    3.6316   -1.7649 N   0  0  0  0  0  0  0  0  0  0  0  0
    3.4458    3.8938   -2.2153 N   0  0  0  0  0  0  0  0  0  0  0  0
   -2.3327    0.4591    1.7298 O   0  0  0  0  0  0  0  0  0  0  0  0
   -2.2800   -0.8411    2.3131 C   0  0  0  0  0  0  0  0  0  0  0  0
   -2.1236   -1.6141    1.5456 H   0  0  0  0  0  0  0  0  0  0  0  0
   -3.2530   -0.9904    2.7902 H   0  0  0  0  0  0  0  0  0  0  0  0
   -1.4847   -0.9038    3.0713 H   0  0  0  0  0  0  0  0  0  0  0  0
    4.5213   -0.3614   -1.0478 S   0  0  0  0  0  0  0  0  0  0  0  0
    4.0212    0.4715   -2.1480 O   0  0  0  0  0  0  0  0  0  0  0  0
    3.2918   -0.8667   -0.1149 O   0  0  0  0  0  0  0  0  0  0  0  0
    5.3827   -1.5359   -1.2393 O   0  0  0  0  0  0  0  0  0  0  0  0
    5.3043    0.6956   -0.0427 O   0  0  0  0  0  0  0  0  0  0  0  0
    5.8779    0.1657    0.5362 H   0  0  0  0  0  0  0  0  0  0  0  0
  1  6  1  0  0  0  0
  1  7  1  0  0  0  0
  2  1  2  0  0  0  0
  3  4  2  0  0  0  0
  3  2  1  0  0  0  0
  4  5  1  0  0  0  0
  5 10  1  0  0  0  0
  5  6  2  0  0  0  0
  6 13  1  0  0  0  0
  9  4  1  0  0  0  0
 12 11  3  0  0  0  0
 13 14  1  0  0  0  0
 14 16  1  0  0  0  0
 14 17  1  0  0  0  0
 15 14  1  0  0  0  0
 18 20  1  0  0  0  0
 18 22  1  0  0  0  0
 19 18  2  0  0  0  0
 20  8  1  0  0  0  0
 21 18  2  0  0  0  0
 22 23  1  0  0  0  0
M  RAD  2   2   2   3   2
M  END
