Coordinates from ORCA-job p-CH3O-Ph-N2-HSO4-B3LYPG-aug-cc-pVDZ-scan-d09-49-n400
 OpenBabel12261916563D

 23 21  0  0  0  0  0  0  0  0999 V2000
   -0.1213    0.0093    0.9839 C   0  0  0  0  0  0  0  0  0  0  0  0
    0.9270    0.5901    0.2393 C   0  0  0  0  0  0  0  0  0  0  0  0
    0.7457    1.7483   -0.2167 C   0  0  0  0  0  0  0  0  0  0  0  0
   -0.2585    2.6849   -0.2081 C   0  0  0  0  0  0  0  0  0  0  0  0
   -1.3244    2.1361    0.5281 C   0  0  0  0  0  0  0  0  0  0  0  0
   -1.2630    0.8384    1.1080 C   0  0  0  0  0  0  0  0  0  0  0  0
   -0.0696   -0.9837    1.4214 H   0  0  0  0  0  0  0  0  0  0  0  0
    2.5793   -0.3472   -0.1252 H   0  0  0  0  0  0  0  0  0  0  0  0
   -0.2755    3.6704   -0.6633 H   0  0  0  0  0  0  0  0  0  0  0  0
   -2.2369    2.7158    0.6663 H   0  0  0  0  0  0  0  0  0  0  0  0
    2.7230    4.0621   -2.1520 N   0  0  0  0  0  0  0  0  0  0  0  0
    3.6688    4.4215   -2.5935 N   0  0  0  0  0  0  0  0  0  0  0  0
   -2.3914    0.4734    1.7835 O   0  0  0  0  0  0  0  0  0  0  0  0
   -2.4251   -0.8136    2.3962 C   0  0  0  0  0  0  0  0  0  0  0  0
   -2.3155   -1.6125    1.6472 H   0  0  0  0  0  0  0  0  0  0  0  0
   -3.4078   -0.8891    2.8708 H   0  0  0  0  0  0  0  0  0  0  0  0
   -1.6388   -0.9099    3.1603 H   0  0  0  0  0  0  0  0  0  0  0  0
    4.5458   -0.2763   -1.0589 S   0  0  0  0  0  0  0  0  0  0  0  0
    3.9949    0.6544   -2.0507 O   0  0  0  0  0  0  0  0  0  0  0  0
    3.3451   -0.9801   -0.2177 O   0  0  0  0  0  0  0  0  0  0  0  0
    5.4865   -1.3563   -1.3843 O   0  0  0  0  0  0  0  0  0  0  0  0
    5.2452    0.6922    0.0860 O   0  0  0  0  0  0  0  0  0  0  0  0
    5.8511    0.1326    0.6006 H   0  0  0  0  0  0  0  0  0  0  0  0
  1  6  1  0  0  0  0
  1  7  1  0  0  0  0
  2  1  2  0  0  0  0
  3  4  2  0  0  0  0
  3  2  1  0  0  0  0
  4  5  1  0  0  0  0
  5 10  1  0  0  0  0
  5  6  2  0  0  0  0
  6 13  1  0  0  0  0
  9  4  1  0  0  0  0
 12 11  3  0  0  0  0
 13 14  1  0  0  0  0
 14 16  1  0  0  0  0
 14 17  1  0  0  0  0
 15 14  1  0  0  0  0
 18 20  1  0  0  0  0
 18 22  1  0  0  0  0
 19 18  2  0  0  0  0
 20  8  1  0  0  0  0
 21 18  2  0  0  0  0
 22 23  1  0  0  0  0
M  RAD  2   2   2   3   2
M  END
